# Generated by pormake.
# Topology pyr, (3,6)-cn, num edge types: 1
# Building blocks:
#     Node 0, Type 0, BuildingBlock: VETTIZ_charged_linker_0, # of connection points: 3
#     Node 1, Type 0, BuildingBlock: VETTIZ_charged_linker_0, # of connection points: 3
#     Node 2, Type 0, BuildingBlock: VETTIZ_charged_linker_0, # of connection points: 3
#     Node 3, Type 0, BuildingBlock: VETTIZ_charged_linker_0, # of connection points: 3
#     Node 4, Type 0, BuildingBlock: VETTIZ_charged_linker_0, # of connection points: 3
#     Node 5, Type 0, BuildingBlock: VETTIZ_charged_linker_0, # of connection points: 3
#     Node 6, Type 0, BuildingBlock: VETTIZ_charged_linker_0, # of connection points: 3
#     Node 7, Type 0, BuildingBlock: VETTIZ_charged_linker_0, # of connection points: 3
#     Node 8, Type 1, BuildingBlock: MIDCAF_clean_sbu_0, # of connection points: 6
#     Node 9, Type 1, BuildingBlock: MIDCAF_clean_sbu_0, # of connection points: 6
#     Node 10, Type 1, BuildingBlock: MIDCAF_clean_sbu_0, # of connection points: 6
#     Node 11, Type 1, BuildingBlock: MIDCAF_clean_sbu_0, # of connection points: 6
#     Edge 12, Type (0, 1), BuildingBlock: OJICUG_clean_linker_0, # of connection points: 2
#     Edge 13, Type (0, 1), BuildingBlock: OJICUG_clean_linker_0, # of connection points: 2
#     Edge 14, Type (0, 1), BuildingBlock: OJICUG_clean_linker_0, # of connection points: 2
#     Edge 15, Type (0, 1), BuildingBlock: OJICUG_clean_linker_0, # of connection points: 2
#     Edge 16, Type (0, 1), BuildingBlock: OJICUG_clean_linker_0, # of connection points: 2
#     Edge 17, Type (0, 1), BuildingBlock: OJICUG_clean_linker_0, # of connection points: 2
#     Edge 18, Type (0, 1), BuildingBlock: OJICUG_clean_linker_0, # of connection points: 2
#     Edge 19, Type (0, 1), BuildingBlock: OJICUG_clean_linker_0, # of connection points: 2
#     Edge 20, Type (0, 1), BuildingBlock: OJICUG_clean_linker_0, # of connection points: 2
#     Edge 21, Type (0, 1), BuildingBlock: OJICUG_clean_linker_0, # of connection points: 2
#     Edge 22, Type (0, 1), BuildingBlock: OJICUG_clean_linker_0, # of connection points: 2
#     Edge 23, Type (0, 1), BuildingBlock: OJICUG_clean_linker_0, # of connection points: 2
#     Edge 24, Type (0, 1), BuildingBlock: OJICUG_clean_linker_0, # of connection points: 2
#     Edge 25, Type (0, 1), BuildingBlock: OJICUG_clean_linker_0, # of connection points: 2
#     Edge 26, Type (0, 1), BuildingBlock: OJICUG_clean_linker_0, # of connection points: 2
#     Edge 27, Type (0, 1), BuildingBlock: OJICUG_clean_linker_0, # of connection points: 2
#     Edge 28, Type (0, 1), BuildingBlock: OJICUG_clean_linker_0, # of connection points: 2
#     Edge 29, Type (0, 1), BuildingBlock: OJICUG_clean_linker_0, # of connection points: 2
#     Edge 30, Type (0, 1), BuildingBlock: OJICUG_clean_linker_0, # of connection points: 2
#     Edge 31, Type (0, 1), BuildingBlock: OJICUG_clean_linker_0, # of connection points: 2
#     Edge 32, Type (0, 1), BuildingBlock: OJICUG_clean_linker_0, # of connection points: 2
#     Edge 33, Type (0, 1), BuildingBlock: OJICUG_clean_linker_0, # of connection points: 2
#     Edge 34, Type (0, 1), BuildingBlock: OJICUG_clean_linker_0, # of connection points: 2
#     Edge 35, Type (0, 1), BuildingBlock: OJICUG_clean_linker_0, # of connection points: 2
# Relax obj value: 0.019
# Max RMSD: 0.063
# Mean RMSD: 0.021
data_MOF--net-pyr--node1-MIDCAF_clean_sbu_0--node2-VETTIZ_charged_linker_0--edge1-OJICUG_clean_linker_0
_symmetry_space_group_name_H-M    P1
_symmetry_Int_Tables_number       1
_symmetry_cell_setting            triclinic
loop_
_symmetry_equiv_pos_as_xyz
'x, y, z'
_cell_length_a     33.820957
_cell_length_b     33.88148
_cell_length_c     33.829536
_cell_angle_alpha  89.941012
_cell_angle_beta   90.050136
_cell_angle_gamma 90.129618
loop_
_atom_site_label
_atom_site_type_symbol
_atom_site_fract_x
_atom_site_fract_y
_atom_site_fract_z
_atom_type_partial_charge
C0 C 0.19867 0.1605 0.34395 0.0
C1 C 0.15933 0.16635 0.35671 0.0
C2 C 0.13742 0.19716 0.3389 0.0
C3 C 0.19253 0.2135 0.296 0.0
C4 C 0.2141 0.18347 0.31309 0.0
C5 C 0.25287 0.17681 0.29228 0.0
H6 H 0.36487 0.21036 0.13089 0.0
C7 C 0.21621 0.23027 0.26325 0.0
C8 C 0.25141 0.20854 0.26054 0.0
H9 H 0.38549 0.12555 0.22453 0.0
H10 H 0.33095 0.15264 0.26135 0.0
H11 H 0.35377 0.28234 0.19107 0.0
H12 H 0.27093 0.20909 0.12826 0.0
H13 H 0.25805 0.2593 0.12218 0.0
H14 H 0.30529 0.24252 0.10525 0.0
H15 H 0.33903 0.29373 0.14148 0.0
H16 H 0.31161 0.31161 0.18365 0.0
C17 C 0.28685 0.1842 0.32205 0.0
C18 C 0.25204 0.13459 0.2746 0.0
C19 C 0.16298 0.34633 0.18441 0.0
C20 C 0.17806 0.36883 0.15271 0.0
C21 C 0.21569 0.35917 0.13753 0.0
C22 C 0.23742 0.3275 0.15317 0.0
C23 C 0.22155 0.30515 0.18443 0.0
C24 C 0.18523 0.31521 0.19997 0.0
C25 C 0.17326 0.28879 0.2337 0.0
C26 C 0.20883 0.26171 0.23644 0.0
C27 C 0.23662 0.27089 0.207 0.0
C28 C 0.16876 0.31461 0.27115 0.0
C29 C 0.13518 0.26617 0.22158 0.0
C30 C 0.35837 0.19781 0.15957 0.0
C31 C 0.37921 0.16475 0.17397 0.0
C32 C 0.36926 0.14993 0.21175 0.0
C33 C 0.33757 0.16577 0.23324 0.0
C34 C 0.31548 0.1969 0.217 0.0
C35 C 0.32712 0.21352 0.18159 0.0
C36 C 0.3018 0.24818 0.17009 0.0
C37 C 0.27121 0.24759 0.20289 0.0
C38 C 0.27905 0.21718 0.23005 0.0
C39 C 0.3277 0.28601 0.17132 0.0
C40 C 0.28302 0.23965 0.12921 0.0
H41 H 0.13543 0.24343 0.29676 0.0
H42 H 0.21717 0.13789 0.35678 0.0
H43 H 0.22192 0.12699 0.26369 0.0
H44 H 0.2713 0.13107 0.24862 0.0
H45 H 0.26035 0.11224 0.29715 0.0
H46 H 0.27964 0.20928 0.34197 0.0
H47 H 0.29208 0.1578 0.34081 0.0
H48 H 0.31482 0.1927 0.30746 0.0
H49 H 0.1339 0.35201 0.19644 0.0
H50 H 0.22842 0.3761 0.11353 0.0
H51 H 0.26558 0.32134 0.14003 0.0
H52 H 0.19347 0.33624 0.2733 0.0
H53 H 0.14064 0.33149 0.27035 0.0
H54 H 0.16983 0.29742 0.29884 0.0
H55 H 0.13308 0.26277 0.18893 0.0
H56 H 0.13453 0.23559 0.23305 0.0
H57 H 0.10822 0.28192 0.23157 0.0
H58 H 0.10688 0.20236 0.34667 0.0
C59 C 0.15391 0.2209 0.30917 0.0
C60 C 0.18734 0.84919 0.66166 0.0
C61 C 0.16736 0.88334 0.67459 0.0
C62 C 0.17838 0.89984 0.71137 0.0
C63 C 0.2295 0.85026 0.71976 0.0
C64 C 0.21767 0.83303 0.68473 0.0
C65 C 0.24105 0.79651 0.67524 0.0
H66 H 0.40099 0.68368 0.71067 0.0
C67 C 0.26307 0.82709 0.73563 0.0
C68 C 0.26949 0.79513 0.70997 0.0
H69 H 0.31167 0.6672 0.62022 0.0
H70 H 0.27439 0.72127 0.64712 0.0
H71 H 0.40192 0.77939 0.71293 0.0
H72 H 0.33996 0.69062 0.77958 0.0
H73 H 0.34548 0.73098 0.81166 0.0
H74 H 0.38886 0.70604 0.79309 0.0
H75 H 0.4252 0.74391 0.74484 0.0
H76 H 0.40654 0.78952 0.76393 0.0
C77 C 0.26279 0.80354 0.63558 0.0
C78 C 0.21248 0.76064 0.675 0.0
C79 C 0.34201 0.87876 0.853 0.0
C80 C 0.37517 0.86429 0.87387 0.0
C81 C 0.39016 0.82684 0.8634 0.0
C82 C 0.37397 0.80541 0.83182 0.0
C83 C 0.34207 0.82116 0.81042 0.0
C84 C 0.32576 0.85661 0.82196 0.0
C85 C 0.29023 0.86748 0.79736 0.0
C86 C 0.28879 0.83327 0.76834 0.0
C87 C 0.31974 0.80667 0.77572 0.0
C88 C 0.29903 0.90719 0.77645 0.0
C89 C 0.2534 0.86827 0.8246 0.0
C90 C 0.37312 0.69091 0.6968 0.0
C91 C 0.36007 0.67111 0.66248 0.0
C92 C 0.32346 0.68239 0.64579 0.0
C93 C 0.30153 0.71373 0.66166 0.0
C94 C 0.31595 0.73404 0.6949 0.0
C95 C 0.35052 0.72165 0.71264 0.0
C96 C 0.36018 0.74508 0.74919 0.0
C97 C 0.32636 0.77452 0.74963 0.0
C98 C 0.30096 0.76837 0.71734 0.0
C99 C 0.40065 0.76554 0.74274 0.0
C100 C 0.35887 0.71691 0.78536 0.0
H101 H 0.21658 0.89791 0.76118 0.0
H102 H 0.18043 0.83557 0.63357 0.0
H103 H 0.18638 0.76582 0.69431 0.0
H104 H 0.22632 0.73362 0.68708 0.0
H105 H 0.20126 0.75451 0.64475 0.0
H106 H 0.27662 0.83337 0.63511 0.0
H107 H 0.24191 0.80171 0.61028 0.0
H108 H 0.28709 0.7826 0.63033 0.0
H109 H 0.32942 0.9073 0.85967 0.0
H110 H 0.41468 0.814 0.87942 0.0
H111 H 0.38727 0.77756 0.82495 0.0
H112 H 0.32924 0.90697 0.76345 0.0
H113 H 0.29746 0.93214 0.79766 0.0
H114 H 0.27876 0.91343 0.75171 0.0
H115 H 0.25702 0.84811 0.85033 0.0
H116 H 0.22639 0.85759 0.80949 0.0
H117 H 0.24803 0.89837 0.83638 0.0
H118 H 0.16318 0.92541 0.72294 0.0
C119 C 0.20932 0.88363 0.73383 0.0
C120 C 0.69613 0.17463 0.86636 0.0
C121 C 0.65933 0.15836 0.85532 0.0
C122 C 0.63983 0.17429 0.82193 0.0
C123 C 0.69136 0.2233 0.81372 0.0
C124 C 0.71119 0.20731 0.84565 0.0
C125 C 0.74775 0.23062 0.85601 0.0
H126 H 0.84241 0.40503 0.84836 0.0
C127 C 0.71254 0.25935 0.80112 0.0
C128 C 0.74549 0.26407 0.82598 0.0
H129 H 0.87657 0.29989 0.91306 0.0
H130 H 0.82543 0.26309 0.8805 0.0
H131 H 0.74794 0.39496 0.84654 0.0
H132 H 0.8398 0.35725 0.76758 0.0
H133 H 0.79784 0.36416 0.73784 0.0
H134 H 0.81884 0.40565 0.7641 0.0
H135 H 0.77842 0.42773 0.81789 0.0
H136 H 0.73413 0.40655 0.79752 0.0
C137 C 0.74323 0.24559 0.89899 0.0
C138 C 0.78448 0.20414 0.84937 0.0
C139 C 0.65731 0.34361 0.68912 0.0
C140 C 0.66799 0.38087 0.67389 0.0
C141 C 0.70034 0.40097 0.69121 0.0
C142 C 0.72167 0.38439 0.72255 0.0
C143 C 0.71054 0.34737 0.73741 0.0
C144 C 0.67884 0.32758 0.72081 0.0
C145 C 0.67034 0.28929 0.74183 0.0
C146 C 0.70343 0.28857 0.77234 0.0
C147 C 0.72663 0.32287 0.76977 0.0
C148 C 0.62883 0.29231 0.76123 0.0
C149 C 0.67443 0.2552 0.71173 0.0
C150 C 0.8394 0.37409 0.85563 0.0
C151 C 0.8627 0.35639 0.88543 0.0
C152 C 0.85782 0.31544 0.89237 0.0
C153 C 0.82823 0.29376 0.87316 0.0
C154 C 0.80339 0.31273 0.84604 0.0
C155 C 0.81066 0.35153 0.83588 0.0
C156 C 0.78469 0.36491 0.80224 0.0
C157 C 0.75905 0.32848 0.79594 0.0
C158 C 0.76939 0.29849 0.82265 0.0
C159 C 0.76 0.40059 0.81646 0.0
C160 C 0.81143 0.37376 0.76602 0.0
H161 H 0.63917 0.21706 0.77629 0.0
H162 H 0.71247 0.16295 0.89126 0.0
H163 H 0.77812 0.1797 0.82835 0.0
H164 H 0.80933 0.22061 0.83577 0.0
H165 H 0.79466 0.19059 0.8775 0.0
H166 H 0.71401 0.26006 0.90301 0.0
H167 H 0.74517 0.22073 0.92034 0.0
H168 H 0.76566 0.26758 0.90748 0.0
H169 H 0.63266 0.32726 0.67687 0.0
H170 H 0.70872 0.43019 0.68129 0.0
H171 H 0.74557 0.40145 0.73452 0.0
H172 H 0.61965 0.32354 0.76552 0.0
H173 H 0.60584 0.27784 0.74276 0.0
H174 H 0.62809 0.27942 0.7913 0.0
H175 H 0.70144 0.25926 0.69339 0.0
H176 H 0.67764 0.22606 0.726 0.0
H177 H 0.64857 0.25418 0.69148 0.0
H178 H 0.61117 0.16337 0.81276 0.0
C179 C 0.6558 0.20619 0.80097 0.0
C180 C 0.87215 0.85273 0.3466 0.0
C181 C 0.85701 0.87554 0.37797 0.0
C182 C 0.81828 0.86753 0.39141 0.0
C183 C 0.81244 0.81293 0.34526 0.0
C184 C 0.84938 0.82216 0.33054 0.0
C185 C 0.86155 0.79521 0.29741 0.0
H186 H 0.82033 0.63833 0.18109 0.0
C187 C 0.79796 0.77749 0.32407 0.0
C188 C 0.82635 0.76744 0.29549 0.0
H189 H 0.92652 0.71033 0.18171 0.0
H190 H 0.89844 0.75126 0.2322 0.0
H191 H 0.82273 0.62649 0.26768 0.0
H192 H 0.75185 0.70675 0.19996 0.0
H193 H 0.72176 0.68105 0.23434 0.0
H194 H 0.74904 0.65379 0.19791 0.0
H195 H 0.77481 0.61239 0.25013 0.0
H196 H 0.78151 0.63588 0.29761 0.0
C197 C 0.89988 0.77349 0.3099 0.0
C198 C 0.86558 0.82034 0.25935 0.0
C199 C 0.67681 0.70425 0.37464 0.0
C200 C 0.66192 0.66589 0.3674 0.0
C201 C 0.67715 0.64506 0.33453 0.0
C202 C 0.70727 0.66113 0.31094 0.0
C203 C 0.72369 0.69792 0.32078 0.0
C204 C 0.70827 0.71896 0.35203 0.0
C205 C 0.7318 0.75579 0.36064 0.0
C206 C 0.76431 0.7529 0.32981 0.0
C207 C 0.75896 0.71928 0.30611 0.0
C208 C 0.74815 0.75249 0.40335 0.0
C209 C 0.70491 0.79201 0.35348 0.0
C210 C 0.83803 0.66265 0.1919 0.0
C211 C 0.87611 0.67052 0.17664 0.0
C212 C 0.89694 0.70347 0.19175 0.0
C213 C 0.88074 0.72713 0.22169 0.0
C214 C 0.84357 0.7175 0.23764 0.0
C215 C 0.82302 0.68555 0.22283 0.0
C216 C 0.78618 0.67673 0.24623 0.0
C217 C 0.78671 0.71026 0.27596 0.0
C218 C 0.8203 0.73411 0.27075 0.0
C219 C 0.79122 0.63576 0.26635 0.0
C220 C 0.75011 0.67949 0.21825 0.0
H221 H 0.76697 0.83155 0.38709 0.0
H222 H 0.90179 0.85743 0.33549 0.0
H223 H 0.84237 0.84354 0.25817 0.0
H224 H 0.86138 0.803 0.23206 0.0
H225 H 0.89479 0.83536 0.25817 0.0
H226 H 0.89973 0.76699 0.34215 0.0
H227 H 0.92648 0.79168 0.30353 0.0
H228 H 0.90321 0.74442 0.29559 0.0
H229 H 0.66552 0.72228 0.3984 0.0
H230 H 0.66731 0.61548 0.32768 0.0
H231 H 0.71759 0.64359 0.28672 0.0
H232 H 0.75831 0.72188 0.40954 0.0
H233 H 0.72502 0.75992 0.4254 0.0
H234 H 0.77418 0.77127 0.40884 0.0
H235 H 0.6841 0.78652 0.32859 0.0
H236 H 0.72176 0.81859 0.34468 0.0
H237 H 0.68699 0.79883 0.38011 0.0
H238 H 0.80525 0.88505 0.41474 0.0
C239 C 0.79597 0.83648 0.37521 0.0
C240 C 0.93696 0.79582 0.98614 0.0
C241 C 0.97035 0.7736 0.97566 0.0
C242 C 0.99501 0.78713 0.94489 0.0
C243 C 0.95267 0.84362 0.93473 0.0
C244 C 0.92901 0.83097 0.9656 0.0
C245 C 0.89564 0.85915 0.97358 0.0
H246 H 0.78965 0.01958 0.91868 0.0
C247 C 0.93593 0.88057 0.91887 0.0
C248 C 0.90279 0.8902 0.94183 0.0
H249 H 0.77192 0.94328 0.01959 0.0
H250 H 0.83026 0.90641 0.00291 0.0
H251 H 0.81834 0.95034 0.85603 0.0
H252 H 0.88009 0.03082 0.93258 0.0
H253 H 0.91135 0.0234 0.8919 0.0
H254 H 0.86341 0.04572 0.88452 0.0
H255 H 0.81865 0.00301 0.84986 0.0
H256 H 0.85701 0.97278 0.82919 0.0
C257 C 0.85627 0.83668 0.967 0.0
C258 C 0.90095 0.87615 0.01583 0.0
C259 C 0.99428 0.94234 0.79451 0.0
C260 C 0.98478 0.9767 0.77329 0.0
C261 C 0.95392 0.00106 0.78697 0.0
C262 C 0.93235 0.99112 0.82077 0.0
C263 C 0.94164 0.95644 0.84137 0.0
C264 C 0.97264 0.93308 0.82872 0.0
C265 C 0.97926 0.89837 0.85569 0.0
C266 C 0.94656 0.90441 0.88596 0.0
C267 C 0.92432 0.93818 0.877 0.0
C268 C 0.97298 0.86024 0.83126 0.0
C269 C 0.02098 0.90235 0.87439 0.0
C270 C 0.79851 0.99488 0.93698 0.0
C271 C 0.7763 0.9842 0.9704 0.0
C272 C 0.78885 0.9522 0.99389 0.0
C273 C 0.8226 0.93066 0.98405 0.0
C274 C 0.84432 0.94119 0.95035 0.0
C275 C 0.83272 0.97327 0.92786 0.0
C276 C 0.86093 0.9812 0.89438 0.0
C277 C 0.89069 0.94803 0.9001 0.0
C278 C 0.88036 0.9244 0.93259 0.0
C279 C 0.83775 0.97689 0.85513 0.0
C280 C 0.87987 0.02246 0.90077 0.0
H281 H 0.00606 0.83031 0.90104 0.0
H282 H 0.91778 0.78625 0.00993 0.0
H283 H 0.93246 0.87552 0.02531 0.0
H284 H 0.89254 0.90764 0.01774 0.0
H285 H 0.88367 0.85898 0.03786 0.0
H286 H 0.85781 0.81842 0.93973 0.0
H287 H 0.84989 0.8166 0.9922 0.0
H288 H 0.83071 0.85636 0.96273 0.0
H289 H 0.01804 0.9233 0.78479 0.0
H290 H 0.94575 0.02745 0.77081 0.0
H291 H 0.90897 0.01064 0.82927 0.0
H292 H 0.94642 0.86301 0.81203 0.0
H293 H 0.99881 0.85444 0.81188 0.0
H294 H 0.9676 0.83391 0.84968 0.0
H295 H 0.03064 0.93373 0.87587 0.0
H296 H 0.02184 0.89206 0.90544 0.0
H297 H 0.04344 0.88603 0.85697 0.0
H298 H 0.02071 0.77023 0.9361 0.0
C299 C 0.98635 0.82189 0.92439 0.0
C300 C 0.74385 0.08164 0.47364 0.0
C301 C 0.76241 0.04904 0.45592 0.0
C302 C 0.74547 0.03217 0.42185 0.0
C303 C 0.69258 0.08061 0.42352 0.0
C304 C 0.70936 0.09701 0.45694 0.0
C305 C 0.68763 0.13309 0.47086 0.0
H306 H 0.53729 0.26219 0.44665 0.0
C307 C 0.65772 0.10474 0.4129 0.0
C308 C 0.65482 0.13562 0.4404 0.0
H309 H 0.62954 0.26517 0.53502 0.0
H310 H 0.65775 0.20534 0.50797 0.0
H311 H 0.52223 0.16491 0.44742 0.0
H312 H 0.59288 0.24371 0.37647 0.0
H313 H 0.5755 0.20651 0.34485 0.0
H314 H 0.54059 0.23874 0.36894 0.0
H315 H 0.50157 0.20124 0.41472 0.0
H316 H 0.51537 0.15309 0.39712 0.0
C317 C 0.67134 0.12457 0.51277 0.0
C318 C 0.71616 0.16894 0.46848 0.0
C319 C 0.57583 0.06821 0.2927 0.0
C320 C 0.54368 0.08614 0.27347 0.0
C321 C 0.52731 0.12075 0.28956 0.0
C322 C 0.5427 0.13709 0.32455 0.0
C323 C 0.57522 0.11895 0.3432 0.0
C324 C 0.59123 0.08514 0.32707 0.0
C325 C 0.62706 0.07103 0.34924 0.0
C326 C 0.62974 0.10165 0.38175 0.0
C327 C 0.59922 0.12952 0.37831 0.0
C328 C 0.61795 0.0294 0.36589 0.0
C329 C 0.66316 0.07279 0.321 0.0
C330 C 0.56322 0.24953 0.46055 0.0
C331 C 0.58098 0.26794 0.49335 0.0
C332 C 0.61536 0.25135 0.50985 0.0
C333 C 0.6316 0.21665 0.49408 0.0
C334 C 0.61359 0.19872 0.46108 0.0
C335 C 0.58004 0.21532 0.44481 0.0
C336 C 0.56597 0.19355 0.40866 0.0
C337 C 0.59626 0.16069 0.4062 0.0
C338 C 0.62394 0.16375 0.43705 0.0
C339 C 0.52396 0.17741 0.41704 0.0
C340 C 0.56849 0.22192 0.37274 0.0
H341 H 0.69898 0.03353 0.37973 0.0
H342 H 0.75673 0.09587 0.49928 0.0
H343 H 0.73807 0.1652 0.44426 0.0
H344 H 0.70085 0.19682 0.46131 0.0
H345 H 0.73292 0.1727 0.49648 0.0
H346 H 0.65946 0.09397 0.51464 0.0
H347 H 0.69497 0.12756 0.5354 0.0
H348 H 0.64641 0.14385 0.52094 0.0
H349 H 0.5897 0.04216 0.28041 0.0
H350 H 0.50266 0.13511 0.27504 0.0
H351 H 0.529 0.16344 0.33548 0.0
H352 H 0.58728 0.02803 0.37771 0.0
H353 H 0.62059 0.00661 0.34246 0.0
H354 H 0.63721 0.02117 0.3909 0.0
H355 H 0.65962 0.09648 0.29848 0.0
H356 H 0.69099 0.08031 0.33642 0.0
H357 H 0.66702 0.04447 0.30496 0.0
H358 H 0.75938 0.00712 0.4077 0.0
C359 C 0.71047 0.0476 0.40572 0.0
C360 C 0.48271 0.59868 0.24293 0.0
C361 C 0.47115 0.56528 0.26468 0.0
C362 C 0.44035 0.54117 0.25023 0.0
C363 C 0.43216 0.58423 0.1938 0.0
C364 C 0.46314 0.60727 0.20734 0.0
C365 C 0.47232 0.64076 0.17956 0.0
H366 H 0.42245 0.74959 0.01914 0.0
C367 C 0.41735 0.60163 0.15665 0.0
C368 C 0.4411 0.63446 0.14776 0.0
H369 H 0.52225 0.76453 0.09768 0.0
H370 H 0.5039 0.70591 0.13335 0.0
H371 H 0.35818 0.72118 0.08695 0.0
H372 H 0.43469 0.65847 0.00738 0.0
H373 H 0.3925 0.6288 0.01326 0.0
H374 H 0.38778 0.67729 0.99145 0.0
H375 H 0.35271 0.72147 0.03413 0.0
H376 H 0.33084 0.68328 0.06392 0.0
C377 C 0.466 0.67991 0.20225 0.0
C378 C 0.51484 0.635 0.16337 0.0
C379 C 0.29275 0.54642 0.0926 0.0
C380 C 0.27197 0.55682 0.05818 0.0
C381 C 0.28651 0.58772 0.03424 0.0
C382 C 0.32073 0.60848 0.04471 0.0
C383 C 0.34084 0.59832 0.07952 0.0
C384 C 0.3273 0.56727 0.10242 0.0
C385 C 0.35364 0.55973 0.13746 0.0
C386 C 0.38463 0.59191 0.13216 0.0
C387 C 0.37662 0.61472 0.09844 0.0
C388 C 0.32878 0.5659 0.17537 0.0
C389 C 0.37156 0.51782 0.13329 0.0
C390 C 0.44018 0.74005 0.04404 0.0
C391 C 0.47379 0.76159 0.05565 0.0
C392 C 0.49647 0.74814 0.08794 0.0
C393 C 0.48564 0.71423 0.10883 0.0
C394 C 0.45172 0.69327 0.09743 0.0
C395 C 0.43003 0.7057 0.06506 0.0
C396 C 0.39605 0.67827 0.0563 0.0
C397 C 0.40059 0.648 0.08928 0.0
C398 C 0.43291 0.65741 0.11357 0.0
C399 C 0.35723 0.70207 0.06024 0.0
C400 C 0.40269 0.65981 0.0149 0.0
H401 H 0.39736 0.53118 0.2059 0.0
H402 H 0.50659 0.61741 0.25322 0.0
H403 H 0.52384 0.60344 0.16418 0.0
H404 H 0.51749 0.64348 0.13187 0.0
H405 H 0.5368 0.65193 0.181 0.0
H406 H 0.43829 0.6786 0.21991 0.0
H407 H 0.49086 0.68563 0.22297 0.0
H408 H 0.46268 0.70572 0.18268 0.0
H409 H 0.28243 0.52258 0.11131 0.0
H410 H 0.27073 0.59656 0.0078 0.0
H411 H 0.32991 0.63196 0.02551 0.0
H412 H 0.31005 0.59272 0.17257 0.0
H413 H 0.30886 0.54033 0.18069 0.0
H414 H 0.3469 0.5707 0.20204 0.0
H415 H 0.37322 0.50855 0.10178 0.0
H416 H 0.40247 0.51632 0.14394 0.0
H417 H 0.35351 0.49549 0.14922 0.0
H418 H 0.4308 0.51544 0.26673 0.0
C419 C 0.42081 0.55047 0.21502 0.0
C420 C 0.06909 0.2905 0.57798 0.0
C421 C 0.08823 0.27356 0.54532 0.0
C422 C 0.1227 0.29141 0.53034 0.0
C423 C 0.11818 0.34266 0.58036 0.0
C424 C 0.08464 0.32463 0.59516 0.0
C425 C 0.06913 0.34471 0.63157 0.0
H426 H 0.08366 0.49262 0.76474 0.0
C427 C 0.12697 0.37711 0.60577 0.0
C428 C 0.09853 0.37825 0.63595 0.0
H429 H 1.00035 0.39584 0.76422 0.0
H430 H 0.02996 0.37035 0.70424 0.0
H431 H 0.08501 0.50925 0.6673 0.0
H432 H 0.15696 0.44091 0.74714 0.0
H433 H 0.18872 0.46036 0.71104 0.0
H434 H 0.16217 0.49348 0.74325 0.0
H435 H 0.11536 0.53078 0.70522 0.0
H436 H 0.13533 0.51887 0.65742 0.0
C437 C 0.02698 0.35997 0.62244 0.0
C438 C 0.07139 0.31518 0.6666 0.0
C439 C 0.24387 0.46512 0.57341 0.0
C440 C 0.26119 0.49777 0.5923 0.0
C441 C 0.24384 0.51259 0.62705 0.0
C442 C 0.20933 0.4952 0.64248 0.0
C443 C 0.19254 0.46226 0.6233 0.0
C444 C 0.21002 0.44775 0.58943 0.0
C445 C 0.18987 0.41126 0.57411 0.0
C446 C 0.15694 0.40642 0.60404 0.0
C447 C 0.15838 0.43646 0.63264 0.0
C448 C 0.17367 0.4204 0.53228 0.0
C449 C 0.21973 0.37658 0.57572 0.0
C450 C 0.07147 0.46627 0.75124 0.0
C451 C 0.0393 0.44643 0.76857 0.0
C452 C 0.02496 0.41159 0.75107 0.0
C453 C 0.04224 0.39693 0.71635 0.0
C454 C 0.07461 0.417 0.69944 0.0
C455 C 0.08883 0.45094 0.71707 0.0
C456 C 0.12488 0.46706 0.69651 0.0
C457 C 0.12962 0.43755 0.66318 0.0
C458 C 0.09995 0.4085 0.66489 0.0
C459 C 0.115 0.50882 0.68086 0.0
C460 C 0.16013 0.46577 0.72584 0.0
H461 H 0.16388 0.33855 0.53475 0.0
H462 H 0.0431 0.27672 0.59071 0.0
H463 H 0.0955 0.29331 0.66227 0.0
H464 H 0.07866 0.3297 0.69496 0.0
H465 H 0.0433 0.29845 0.66992 0.0
H466 H 0.02578 0.37337 0.59241 0.0
H467 H 0.0051 0.33548 0.62334 0.0
H468 H 0.01725 0.38342 0.6428 0.0
H469 H 0.25725 0.45239 0.54728 0.0
H470 H 0.25698 0.53756 0.64217 0.0
H471 H 0.19731 0.50778 0.66896 0.0
H472 H 0.16007 0.45026 0.53141 0.0
H473 H 0.19774 0.41976 0.50997 0.0
H474 H 0.15007 0.39991 0.52291 0.0
H475 H 0.24187 0.38088 0.59969 0.0
H476 H 0.20549 0.34803 0.58278 0.0
H477 H 0.23619 0.37378 0.54746 0.0
H478 H 0.13794 0.27855 0.50534 0.0
C479 C 0.13762 0.32613 0.5475 0.0
Zn480 Zn 0.97037 0.07358 0.56543 0.0
Zn481 Zn 0.05292 0.97778 0.47983 0.0
Zn482 Zn 0.01178 0.02886 0.52345 0.0
C483 C 0.07949 0.05485 0.46098 0.0
C484 C 0.97428 0.9694 0.45738 0.0
O485 O 0.02131 0.013 0.58692 0.0
O486 O 0.99165 0.06185 0.61808 0.0
C487 C 0.01725 0.1239 0.5232 0.0
O488 O 0.05269 0.06468 0.48625 0.0
O489 O 0.08643 0.01882 0.45437 0.0
O490 O 0.00815 0.95682 0.44827 0.0
O491 O 0.97018 0.99551 0.4848 0.0
O492 O 0.98579 0.12466 0.54312 0.0
O493 O 0.03275 0.09053 0.51344 0.0
O494 O 0.94783 0.0221 0.50721 0.0
O495 O 0.91658 0.05493 0.55402 0.0
C496 C 0.91535 0.03353 0.5236 0.0
O497 O 0.04511 0.98872 0.56337 0.0
O498 O 0.07458 0.94553 0.52421 0.0
C499 C 0.01212 0.03085 0.61928 0.0
C500 C 0.06733 0.95821 0.55853 0.0
Zn501 Zn 0.48057 0.05508 0.98129 0.0
Zn502 Zn 0.57086 0.97064 0.07076 0.0
Zn503 Zn 0.5281 0.01077 0.0264 0.0
C504 C 0.62338 0.01302 0.0265 0.0
C505 C 0.52943 0.91569 0.02869 0.0
O506 O 0.4951 0.05234 0.06443 0.0
O507 O 0.46371 0.0926 0.02349 0.0
C508 C 0.55817 0.06311 0.95238 0.0
O509 O 0.59079 0.0202 0.00807 0.0
O510 O 0.6226 0.99456 0.05887 0.0
O511 O 0.56071 0.91771 0.04889 0.0
O512 O 0.51109 0.94759 0.01902 0.0
O513 O 0.52284 0.07112 0.94332 0.0
O514 O 0.56593 0.04234 0.98334 0.0
O515 O 0.48679 0.97098 0.99458 0.0
O516 O 0.44415 0.01132 0.9657 0.0
C517 C 0.45552 0.97668 0.97349 0.0
O518 O 0.52012 0.03011 0.08922 0.0
O519 O 0.5486 0.98239 0.1232 0.0
C520 C 0.4727 0.08247 0.05828 0.0
C521 C 0.52905 0.01401 0.12264 0.0
Zn522 Zn 0.55158 0.55772 0.56243 0.0
Zn523 Zn 0.46169 0.47005 0.47684 0.0
Zn524 Zn 0.50731 0.51412 0.51526 0.0
C525 C 0.50863 0.41772 0.51479 0.0
C526 C 0.50113 0.51409 0.42074 0.0
O527 O 0.46943 0.54854 0.55647 0.0
O528 O 0.50988 0.57993 0.59729 0.0
C529 C 0.57746 0.48095 0.57251 0.0
O530 O 0.52554 0.45089 0.5232 0.0
O531 O 0.47595 0.41761 0.49685 0.0
O532 O 0.48044 0.48325 0.42368 0.0
O533 O 0.51355 0.53187 0.45211 0.0
O534 O 0.58599 0.51556 0.58326 0.0
O535 O 0.54886 0.47474 0.54801 0.0
O536 O 0.54082 0.5548 0.47541 0.0
O537 O 0.57343 0.5907 0.51922 0.0
C538 C 0.56538 0.58287 0.48359 0.0
O539 O 0.44472 0.5233 0.53499 0.0
O540 O 0.40938 0.49038 0.49111 0.0
C541 C 0.4752 0.57176 0.58615 0.0
C542 C 0.41089 0.51269 0.52085 0.0
Zn543 Zn 0.05925 0.56205 0.96634 0.0
Zn544 Zn 0.98432 0.48008 0.0635 0.0
Zn545 Zn 0.02034 0.52352 0.0131 0.0
C546 C 0.06176 0.46911 0.08182 0.0
C547 C 0.96102 0.45175 0.98982 0.0
O548 O 0.00194 0.5867 0.01941 0.0
O549 O 0.05053 0.6153 0.98651 0.0
C550 C 0.1165 0.52511 0.00576 0.0
O551 O 0.06416 0.49263 0.05188 0.0
O552 O 0.02843 0.4587 0.09484 0.0
O553 O 0.95681 0.44472 0.02622 0.0
O554 O 0.98398 0.48012 0.97858 0.0
O555 O 0.11308 0.54169 0.97261 0.0
O556 O 0.08523 0.51749 0.02632 0.0
O557 O 0.00839 0.50155 0.95166 0.0
O558 O 0.03391 0.54977 0.91594 0.0
C559 C 0.01545 0.51751 0.91768 0.0
O560 O 0.98106 0.56401 0.04848 0.0
O561 O 0.95264 0.52116 0.08867 0.0
C562 C 0.0199 0.61817 0.00741 0.0
C563 C 0.95691 0.55629 0.07707 0.0
C564 C 0.1074 0.15055 0.4088 0.0
C565 C 0.14044 0.13893 0.38616 0.0
H566 H 0.06065 0.13265 0.4474 0.0
C567 C 0.15387 0.09978 0.39033 0.0
H568 H 0.09606 0.18033 0.40738 0.0
C569 C 0.13509 0.07342 0.41594 0.0
C570 C 0.10145 0.08477 0.43743 0.0
H571 H 0.17815 0.08855 0.37292 0.0
H572 H 0.14636 0.04358 0.4179 0.0
C573 C 0.08762 0.12352 0.43317 0.0
C574 C 0.37376 0.91708 0.92665 0.0
C575 C 0.3952 0.88905 0.90467 0.0
H576 H 0.37621 0.96693 0.96558 0.0
C577 C 0.43651 0.88704 0.91035 0.0
H578 H 0.3419 0.91889 0.92444 0.0
C579 C 0.45589 0.91368 0.93539 0.0
C580 C 0.43458 0.94342 0.95464 0.0
H581 H 0.45442 0.86642 0.89385 0.0
H582 H 0.48784 0.91268 0.93754 0.0
C583 C 0.3933 0.94434 0.95078 0.0
C584 C 0.66345 0.42562 0.6147 0.0
C585 C 0.64463 0.40021 0.64177 0.0
H586 H 0.65651 0.47122 0.57136 0.0
C587 C 0.6031 0.39662 0.64008 0.0
H588 H 0.69535 0.42824 0.614 0.0
C589 C 0.58093 0.42036 0.61433 0.0
C590 C 0.59992 0.44834 0.59035 0.0
H591 H 0.58743 0.37751 0.66042 0.0
H592 H 0.54894 0.41905 0.61546 0.0
C593 C 0.64131 0.44986 0.58977 0.0
C594 C 0.92556 0.65468 0.12202 0.0
C595 C 0.89508 0.64258 0.14792 0.0
H596 H 0.97039 0.63689 0.08099 0.0
C597 C 0.88428 0.60243 0.14788 0.0
H598 H 0.93479 0.68523 0.12051 0.0
C599 C 0.90309 0.57551 0.12325 0.0
C600 C 0.93441 0.58722 0.09855 0.0
H601 H 0.86223 0.5909 0.16794 0.0
H602 H 0.89379 0.54492 0.12474 0.0
C603 C 0.94544 0.62716 0.09821 0.0
C604 C 0.43031 0.16507 0.11952 0.0
C605 C 0.40865 0.14413 0.14832 0.0
H606 H 0.46723 0.16178 0.06809 0.0
C607 C 0.41254 0.10271 0.14972 0.0
H608 H 0.42931 0.19696 0.11808 0.0
C609 C 0.43553 0.08279 0.12182 0.0
C610 C 0.45459 0.10374 0.09157 0.0
H611 H 0.39612 0.08524 0.17092 0.0
H612 H 0.43653 0.05083 0.12254 0.0
C613 C 0.45244 0.14503 0.09106 0.0
C614 C 0.13173 0.94378 0.64858 0.0
C615 C 0.13674 0.90243 0.64887 0.0
H616 H 0.10492 0.99378 0.62022 0.0
C617 C 0.11421 0.87975 0.62212 0.0
H618 H 0.14859 0.96256 0.66823 0.0
C619 C 0.09025 0.89793 0.59383 0.0
C620 C 0.08697 0.93913 0.59246 0.0
H621 H 0.11581 0.84785 0.62215 0.0
H622 H 0.07492 0.87976 0.57235 0.0
C623 C 0.10676 0.96187 0.62093 0.0
C624 C 0.90726 0.41604 0.8973 0.0
C625 C 0.89023 0.38036 0.91071 0.0
H626 H 0.94089 0.46767 0.91224 0.0
C627 C 0.89805 0.36856 0.94987 0.0
H628 H 0.90247 0.42641 0.86744 0.0
C629 C 0.92214 0.39113 0.9745 0.0
C630 C 0.93847 0.42698 0.96141 0.0
H631 H 0.8847 0.34235 0.96239 0.0
H632 H 0.92715 0.38074 0.00438 0.0
C633 C 0.93042 0.4394 0.92264 0.0
C634 C 0.60993 0.61402 0.38476 0.0
C635 C 0.63373 0.64651 0.39588 0.0
H636 H 0.57227 0.5669 0.40388 0.0
C637 C 0.63253 0.65855 0.43574 0.0
H638 H 0.60904 0.6037 0.35455 0.0
C639 C 0.60886 0.63896 0.46323 0.0
C640 C 0.58646 0.60568 0.45241 0.0
H641 H 0.65095 0.68224 0.4467 0.0
H642 H 0.60935 0.64927 0.49352 0.0
C643 C 0.58748 0.59336 0.41288 0.0
C644 C 0.12739 0.42275 0.15827 0.0
C645 C 0.15354 0.40072 0.13468 0.0
H646 H 0.07774 0.46182 0.15973 0.0
C647 C 0.15326 0.40706 0.09347 0.0
H648 H 0.12755 0.41983 0.19015 0.0
C649 C 0.12542 0.43237 0.0762 0.0
C650 C 0.09716 0.4513 0.09977 0.0
H651 H 0.17275 0.39062 0.07423 0.0
H652 H 0.12413 0.43477 0.04428 0.0
C653 C 0.09916 0.44726 0.14096 0.0
C654 C 0.61234 0.10094 0.86308 0.0
C655 C 0.63932 0.12769 0.88018 0.0
H656 H 0.56514 0.05976 0.87283 0.0
C657 C 0.64358 0.12759 0.9217 0.0
H658 H 0.6091 0.09884 0.83132 0.0
C659 C 0.61939 0.1037 0.94538 0.0
C660 C 0.58999 0.08017 0.92807 0.0
H661 H 0.66368 0.14777 0.93627 0.0
H662 H 0.62165 0.1059 0.97726 0.0
C663 C 0.58745 0.07806 0.88678 0.0
C664 C 0.91177 0.92605 0.37631 0.0
C665 C 0.88261 0.90558 0.39787 0.0
H666 H 0.96383 0.96215 0.37856 0.0
C667 C 0.88078 0.91135 0.43913 0.0
H668 H 0.91347 0.92358 0.34446 0.0
C669 C 0.90902 0.93474 0.45846 0.0
C670 C 0.93983 0.95228 0.43697 0.0
H671 H 0.85905 0.896 0.45692 0.0
H672 H 0.90825 0.937 0.49039 0.0
C673 C 0.94041 0.94858 0.39572 0.0
C674 C 0.41262 0.61821 0.66557 0.0
C675 C 0.38565 0.64068 0.64314 0.0
H676 H 0.46246 0.57917 0.66495 0.0
C677 C 0.38568 0.63598 0.60169 0.0
H678 H 0.41282 0.61961 0.69752 0.0
C679 C 0.41319 0.61129 0.58327 0.0
C680 C 0.44178 0.5915 0.60574 0.0
H681 H 0.36594 0.65286 0.58307 0.0
H682 H 0.41361 0.60957 0.55129 0.0
C683 C 0.44083 0.59454 0.64703 0.0
C684 C 0.017 0.02591 0.72909 0.0
C685 C 0.00475 0.98688 0.7357 0.0
H686 H 0.03033 0.07026 0.68618 0.0
C687 C 0.00513 0.96 0.70404 0.0
H688 H 0.0176 0.04701 0.75314 0.0
C689 C 0.0127 0.97331 0.6655 0.0
C690 C 0.01988 0.01357 0.6585 0.0
H691 H 0.99585 0.92969 0.70846 0.0
H692 H 0.00878 0.95307 0.64104 0.0
C693 C 0.02448 0.03914 0.69082 0.0
C694 C 0.52308 0.02867 0.23234 0.0
C695 C 0.52951 0.06946 0.23555 0.0
H696 H 0.51669 0.97923 0.19366 0.0
C697 C 0.52817 0.09288 0.20125 0.0
H698 H 0.52353 0.01005 0.2584 0.0
C699 C 0.52444 0.07517 0.16399 0.0
C700 C 0.52155 0.03392 0.16071 0.0
H701 H 0.53325 0.12441 0.20296 0.0
H702 H 0.52711 0.09342 0.13783 0.0
C703 C 0.51909 0.01109 0.19531 0.0
C704 C 0.50221 0.51691 0.31045 0.0
C705 C 0.48951 0.55561 0.30315 0.0
H706 H 0.51722 0.47379 0.35405 0.0
C707 C 0.48882 0.58289 0.33444 0.0
H708 H 0.50334 0.49549 0.28671 0.0
C709 C 0.49671 0.57042 0.37317 0.0
C710 C 0.5058 0.53069 0.38077 0.0
H711 H 0.47898 0.61289 0.32945 0.0
H712 H 0.49257 0.59093 0.39736 0.0
C713 C 0.51031 0.50458 0.3489 0.0
C714 C 0.01163 0.50141 0.80847 0.0
C715 C 0.02253 0.46161 0.80588 0.0
H716 H 0.99909 0.55006 0.84653 0.0
C717 C 0.02282 0.43834 0.84029 0.0
H718 H 0.01087 0.51979 0.78225 0.0
C719 C 0.01636 0.45573 0.87728 0.0
C720 C 0.00904 0.49645 0.88007 0.0
H721 H 0.03128 0.40755 0.83891 0.0
H722 H 0.02033 0.43809 0.90371 0.0
C723 C 0.00475 0.51862 0.84521 0.0
C724 C 0.707 0.00478 0.95433 0.0
C725 C 0.7391 0.00455 0.98079 0.0
H726 H 0.64391 0.00859 0.94828 0.0
C727 C 0.73323 0.01709 0.01982 0.0
H728 H 0.71091 0.9952 0.92405 0.0
C729 C 0.69524 0.02493 0.03353 0.0
C730 C 0.66242 0.02022 0.00848 0.0
H731 H 0.75764 0.01763 0.04059 0.0
H732 H 0.69119 0.03114 0.06468 0.0
C733 C 0.66872 0.01261 0.96815 0.0
C734 C 0.80509 0.03032 0.51304 0.0
C735 C 0.80055 0.03485 0.47206 0.0
H736 H 0.84539 0.02518 0.56142 0.0
C737 C 0.8339 0.03119 0.44753 0.0
H738 H 0.77978 0.0324 0.53254 0.0
C739 C 0.87166 0.02706 0.46412 0.0
C740 C 0.87637 0.02623 0.50537 0.0
H741 H 0.83119 0.0347 0.41582 0.0
H742 H 0.8972 0.02785 0.44486 0.0
C743 C 0.84261 0.02605 0.52952 0.0
C744 C 0.227 0.52636 0.00835 0.0
C745 C 0.23405 0.53755 0.04764 0.0
H746 H 0.18377 0.51223 0.96452 0.0
C747 C 0.20284 0.5357 0.07505 0.0
H748 H 0.2507 0.52681 0.98683 0.0
C749 C 0.1643 0.52722 0.06226 0.0
C750 C 0.15673 0.52043 0.022 0.0
H751 H 0.20757 0.54414 0.10557 0.0
H752 H 0.14017 0.52963 0.08314 0.0
C753 C 0.18872 0.51783 0.99567 0.0
C754 C 0.33289 0.51515 0.59992 0.0
C755 C 0.29863 0.51393 0.57637 0.0
H756 H 0.39638 0.51604 0.6004 0.0
C757 C 0.30181 0.52127 0.53568 0.0
H758 H 0.33115 0.50943 0.63138 0.0
C759 C 0.33885 0.52522 0.51812 0.0
C760 C 0.37339 0.52199 0.54092 0.0
H761 H 0.27576 0.52093 0.517 0.0
H762 H 0.34055 0.52771 0.48622 0.0
C763 C 0.37018 0.51908 0.58223 0.0
C764 C 0.95172 0.70454 0.99497 0.0
C765 C 0.97944 0.73555 0.99509 0.0
H766 H 0.94297 0.64184 0.99965 0.0
C767 C 0.01809 0.72816 0.00812 0.0
H768 H 0.92172 0.7096 0.98496 0.0
C769 C 0.03003 0.6898 0.01676 0.0
C770 C 0.00357 0.6581 0.01249 0.0
H771 H 0.03983 0.7517 0.00892 0.0
H772 H 0.06086 0.6845 0.02368 0.0
C773 C 0.96378 0.66588 0.00351 0.0
C774 C 0.5246 0.80572 0.02592 0.0
C775 C 0.48496 0.79915 0.03622 0.0
H776 H 0.5696 0.84846 0.01416 0.0
C777 C 0.45815 0.83077 0.03446 0.0
H778 H 0.5457 0.7817 0.02648 0.0
C779 C 0.47186 0.86921 0.02724 0.0
C780 C 0.51245 0.87618 0.02172 0.0
H781 H 0.4274 0.82638 0.04229 0.0
H782 H 0.45144 0.89364 0.02992 0.0
C783 C 0.53821 0.84388 0.01874 0.0
C784 C 0.09625 0.20215 0.52808 0.0
C785 C 0.07268 0.23626 0.52884 0.0
H786 H 0.09683 0.13882 0.52527 0.0
C787 C 0.03233 0.23324 0.51976 0.0
H788 H 0.12745 0.20385 0.53515 0.0
C789 C 0.01503 0.19639 0.51378 0.0
C790 C 0.03771 0.16186 0.51694 0.0
H791 H 0.01369 0.25921 0.51983 0.0
H792 H 0.98331 0.19472 0.5095 0.0
C793 C 0.07879 0.16504 0.52234 0.0
C794 C 0.58764 0.33932 0.51237 0.0
C795 C 0.56412 0.30522 0.50868 0.0
H796 H 0.58833 0.40245 0.5174 0.0
C797 C 0.52323 0.30807 0.5149 0.0
H798 H 0.61928 0.33785 0.50766 0.0
C799 C 0.50569 0.34473 0.52098 0.0
C800 C 0.52861 0.3794 0.52071 0.0
H801 H 0.50455 0.28213 0.51286 0.0
H802 H 0.47376 0.34617 0.52321 0.0
C803 C 0.56996 0.37626 0.51821 0.0
loop_
_geom_bond_atom_site_label_1
_geom_bond_atom_site_label_2
_geom_bond_distance
_geom_bond_site_symmetry_2
_ccdc_geom_bond_type
C0 C1 1.391 . S
C0 C4 1.391 . S
C0 H42 0.948 . S
C1 C0 1.391 . S
C1 C2 1.391 . S
C2 C1 1.391 . S
C2 H58 0.947 . S
C2 C59 1.392 . S
C3 C4 1.391 . S
C3 C7 1.397 . S
C3 C59 1.419 . S
C4 C0 1.391 . S
C4 C3 1.391 . S
C4 C5 1.399 . S
C5 C4 1.399 . S
C5 C8 1.396 . S
C5 C17 1.453 . S
C5 C18 1.684 . S
H6 C30 0.948 . S
C7 C3 1.397 . S
C7 C8 1.394 . S
C7 C26 1.723 . S
C8 C5 1.396 . S
C8 C7 1.394 . S
C8 C38 1.723 . S
H9 C32 0.947 . S
H10 C33 0.948 . S
H11 C39 0.982 . S
H12 C40 0.979 . S
H13 C40 0.980 . S
H14 C40 0.983 . S
H15 C39 0.979 . S
H16 C39 0.977 . S
C17 C5 1.453 . S
C17 H46 0.982 . S
C17 H47 0.979 . S
C17 H48 0.977 . S
C18 C5 1.684 . S
C18 H43 0.979 . S
C18 H44 0.980 . S
C18 H45 0.983 . S
C19 C20 1.391 . S
C19 C24 1.391 . S
C19 H49 0.948 . S
C20 C19 1.391 . S
C20 C21 1.391 . S
C21 C20 1.391 . S
C21 C22 1.392 . S
C21 H50 0.947 . S
C22 C21 1.392 . S
C22 C23 1.419 . S
C22 H51 0.948 . S
C23 C22 1.419 . S
C23 C24 1.391 . S
C23 C27 1.397 . S
C24 C19 1.391 . S
C24 C23 1.391 . S
C24 C25 1.399 . S
C25 C24 1.399 . S
C25 C26 1.396 . S
C25 C28 1.453 . S
C25 C29 1.684 . S
C26 C7 1.723 . S
C26 C25 1.396 . S
C26 C27 1.394 . S
C27 C23 1.397 . S
C27 C26 1.394 . S
C27 C37 1.723 . S
C28 C25 1.453 . S
C28 H52 0.982 . S
C28 H53 0.979 . S
C28 H54 0.977 . S
C29 C25 1.684 . S
C29 H55 0.979 . S
C29 H56 0.980 . S
C29 H57 0.983 . S
C30 H6 0.948 . S
C30 C31 1.391 . S
C30 C35 1.391 . S
C31 C30 1.391 . S
C31 C32 1.391 . S
C32 H9 0.947 . S
C32 C31 1.391 . S
C32 C33 1.392 . S
C33 H10 0.948 . S
C33 C32 1.392 . S
C33 C34 1.419 . S
C34 C33 1.419 . S
C34 C35 1.391 . S
C34 C38 1.397 . S
C35 C30 1.391 . S
C35 C34 1.391 . S
C35 C36 1.399 . S
C36 C35 1.399 . S
C36 C37 1.396 . S
C36 C39 1.453 . S
C36 C40 1.684 . S
C37 C27 1.723 . S
C37 C36 1.396 . S
C37 C38 1.394 . S
C38 C8 1.723 . S
C38 C34 1.397 . S
C38 C37 1.394 . S
C39 H11 0.982 . S
C39 H15 0.979 . S
C39 H16 0.977 . S
C39 C36 1.453 . S
C40 H12 0.979 . S
C40 H13 0.980 . S
C40 H14 0.983 . S
C40 C36 1.684 . S
H41 C59 0.948 . S
H42 C0 0.948 . S
H43 C18 0.979 . S
H44 C18 0.980 . S
H45 C18 0.983 . S
H46 C17 0.982 . S
H47 C17 0.979 . S
H48 C17 0.977 . S
H49 C19 0.948 . S
H50 C21 0.947 . S
H51 C22 0.948 . S
H52 C28 0.982 . S
H53 C28 0.979 . S
H54 C28 0.977 . S
H55 C29 0.979 . S
H56 C29 0.980 . S
H57 C29 0.983 . S
H58 C2 0.947 . S
C59 C2 1.392 . S
C59 C3 1.419 . S
C59 H41 0.948 . S
C60 C61 1.391 . S
C60 C64 1.391 . S
C60 H102 0.948 . S
C61 C60 1.391 . S
C61 C62 1.391 . S
C62 C61 1.391 . S
C62 H118 0.947 . S
C62 C119 1.392 . S
C63 C64 1.391 . S
C63 C67 1.397 . S
C63 C119 1.419 . S
C64 C60 1.391 . S
C64 C63 1.391 . S
C64 C65 1.399 . S
C65 C64 1.399 . S
C65 C68 1.396 . S
C65 C77 1.453 . S
C65 C78 1.684 . S
H66 C90 0.948 . S
C67 C63 1.397 . S
C67 C68 1.394 . S
C67 C86 1.723 . S
C68 C65 1.396 . S
C68 C67 1.394 . S
C68 C98 1.723 . S
H69 C92 0.947 . S
H70 C93 0.948 . S
H71 C99 0.982 . S
H72 C100 0.979 . S
H73 C100 0.980 . S
H74 C100 0.983 . S
H75 C99 0.979 . S
H76 C99 0.977 . S
C77 C65 1.453 . S
C77 H106 0.982 . S
C77 H107 0.979 . S
C77 H108 0.977 . S
C78 C65 1.684 . S
C78 H103 0.979 . S
C78 H104 0.980 . S
C78 H105 0.983 . S
C79 C80 1.391 . S
C79 C84 1.391 . S
C79 H109 0.948 . S
C80 C79 1.391 . S
C80 C81 1.391 . S
C81 C80 1.391 . S
C81 C82 1.392 . S
C81 H110 0.947 . S
C82 C81 1.392 . S
C82 C83 1.419 . S
C82 H111 0.948 . S
C83 C82 1.419 . S
C83 C84 1.391 . S
C83 C87 1.397 . S
C84 C79 1.391 . S
C84 C83 1.391 . S
C84 C85 1.399 . S
C85 C84 1.399 . S
C85 C86 1.396 . S
C85 C88 1.453 . S
C85 C89 1.684 . S
C86 C67 1.723 . S
C86 C85 1.396 . S
C86 C87 1.394 . S
C87 C83 1.397 . S
C87 C86 1.394 . S
C87 C97 1.723 . S
C88 C85 1.453 . S
C88 H112 0.982 . S
C88 H113 0.979 . S
C88 H114 0.977 . S
C89 C85 1.684 . S
C89 H115 0.979 . S
C89 H116 0.980 . S
C89 H117 0.983 . S
C90 H66 0.948 . S
C90 C91 1.391 . S
C90 C95 1.391 . S
C91 C90 1.391 . S
C91 C92 1.391 . S
C92 H69 0.947 . S
C92 C91 1.391 . S
C92 C93 1.392 . S
C93 H70 0.948 . S
C93 C92 1.392 . S
C93 C94 1.419 . S
C94 C93 1.419 . S
C94 C95 1.391 . S
C94 C98 1.397 . S
C95 C90 1.391 . S
C95 C94 1.391 . S
C95 C96 1.399 . S
C96 C95 1.399 . S
C96 C97 1.396 . S
C96 C99 1.453 . S
C96 C100 1.684 . S
C97 C87 1.723 . S
C97 C96 1.396 . S
C97 C98 1.394 . S
C98 C68 1.723 . S
C98 C94 1.397 . S
C98 C97 1.394 . S
C99 H71 0.982 . S
C99 H75 0.979 . S
C99 H76 0.977 . S
C99 C96 1.453 . S
C100 H72 0.979 . S
C100 H73 0.980 . S
C100 H74 0.983 . S
C100 C96 1.684 . S
H101 C119 0.948 . S
H102 C60 0.948 . S
H103 C78 0.979 . S
H104 C78 0.980 . S
H105 C78 0.983 . S
H106 C77 0.982 . S
H107 C77 0.979 . S
H108 C77 0.977 . S
H109 C79 0.948 . S
H110 C81 0.947 . S
H111 C82 0.948 . S
H112 C88 0.982 . S
H113 C88 0.979 . S
H114 C88 0.977 . S
H115 C89 0.979 . S
H116 C89 0.980 . S
H117 C89 0.983 . S
H118 C62 0.947 . S
C119 C62 1.392 . S
C119 C63 1.419 . S
C119 H101 0.948 . S
C120 C121 1.391 . S
C120 C124 1.391 . S
C120 H162 0.948 . S
C121 C120 1.391 . S
C121 C122 1.391 . S
C122 C121 1.391 . S
C122 H178 0.947 . S
C122 C179 1.392 . S
C123 C124 1.391 . S
C123 C127 1.397 . S
C123 C179 1.419 . S
C124 C120 1.391 . S
C124 C123 1.391 . S
C124 C125 1.399 . S
C125 C124 1.399 . S
C125 C128 1.396 . S
C125 C137 1.453 . S
C125 C138 1.684 . S
H126 C150 0.948 . S
C127 C123 1.397 . S
C127 C128 1.394 . S
C127 C146 1.723 . S
C128 C125 1.396 . S
C128 C127 1.394 . S
C128 C158 1.723 . S
H129 C152 0.947 . S
H130 C153 0.948 . S
H131 C159 0.982 . S
H132 C160 0.979 . S
H133 C160 0.980 . S
H134 C160 0.983 . S
H135 C159 0.979 . S
H136 C159 0.977 . S
C137 C125 1.453 . S
C137 H166 0.982 . S
C137 H167 0.979 . S
C137 H168 0.977 . S
C138 C125 1.684 . S
C138 H163 0.979 . S
C138 H164 0.980 . S
C138 H165 0.983 . S
C139 C140 1.391 . S
C139 C144 1.391 . S
C139 H169 0.948 . S
C140 C139 1.391 . S
C140 C141 1.391 . S
C141 C140 1.391 . S
C141 C142 1.392 . S
C141 H170 0.947 . S
C142 C141 1.392 . S
C142 C143 1.419 . S
C142 H171 0.948 . S
C143 C142 1.419 . S
C143 C144 1.391 . S
C143 C147 1.397 . S
C144 C139 1.391 . S
C144 C143 1.391 . S
C144 C145 1.399 . S
C145 C144 1.399 . S
C145 C146 1.396 . S
C145 C148 1.453 . S
C145 C149 1.684 . S
C146 C127 1.723 . S
C146 C145 1.396 . S
C146 C147 1.394 . S
C147 C143 1.397 . S
C147 C146 1.394 . S
C147 C157 1.723 . S
C148 C145 1.453 . S
C148 H172 0.982 . S
C148 H173 0.979 . S
C148 H174 0.977 . S
C149 C145 1.684 . S
C149 H175 0.979 . S
C149 H176 0.980 . S
C149 H177 0.983 . S
C150 H126 0.948 . S
C150 C151 1.391 . S
C150 C155 1.391 . S
C151 C150 1.391 . S
C151 C152 1.391 . S
C152 H129 0.947 . S
C152 C151 1.391 . S
C152 C153 1.392 . S
C153 H130 0.948 . S
C153 C152 1.392 . S
C153 C154 1.419 . S
C154 C153 1.419 . S
C154 C155 1.391 . S
C154 C158 1.397 . S
C155 C150 1.391 . S
C155 C154 1.391 . S
C155 C156 1.399 . S
C156 C155 1.399 . S
C156 C157 1.396 . S
C156 C159 1.453 . S
C156 C160 1.684 . S
C157 C147 1.723 . S
C157 C156 1.396 . S
C157 C158 1.394 . S
C158 C128 1.723 . S
C158 C154 1.397 . S
C158 C157 1.394 . S
C159 H131 0.982 . S
C159 H135 0.979 . S
C159 H136 0.977 . S
C159 C156 1.453 . S
C160 H132 0.979 . S
C160 H133 0.980 . S
C160 H134 0.983 . S
C160 C156 1.684 . S
H161 C179 0.948 . S
H162 C120 0.948 . S
H163 C138 0.979 . S
H164 C138 0.980 . S
H165 C138 0.983 . S
H166 C137 0.982 . S
H167 C137 0.979 . S
H168 C137 0.977 . S
H169 C139 0.948 . S
H170 C141 0.947 . S
H171 C142 0.948 . S
H172 C148 0.982 . S
H173 C148 0.979 . S
H174 C148 0.977 . S
H175 C149 0.979 . S
H176 C149 0.980 . S
H177 C149 0.983 . S
H178 C122 0.947 . S
C179 C122 1.392 . S
C179 C123 1.419 . S
C179 H161 0.948 . S
C180 C181 1.391 . S
C180 C184 1.391 . S
C180 H222 0.948 . S
C181 C180 1.391 . S
C181 C182 1.391 . S
C182 C181 1.391 . S
C182 H238 0.947 . S
C182 C239 1.392 . S
C183 C184 1.391 . S
C183 C187 1.397 . S
C183 C239 1.419 . S
C184 C180 1.391 . S
C184 C183 1.391 . S
C184 C185 1.399 . S
C185 C184 1.399 . S
C185 C188 1.396 . S
C185 C197 1.453 . S
C185 C198 1.684 . S
H186 C210 0.948 . S
C187 C183 1.397 . S
C187 C188 1.394 . S
C187 C206 1.723 . S
C188 C185 1.396 . S
C188 C187 1.394 . S
C188 C218 1.723 . S
H189 C212 0.947 . S
H190 C213 0.948 . S
H191 C219 0.982 . S
H192 C220 0.979 . S
H193 C220 0.980 . S
H194 C220 0.983 . S
H195 C219 0.979 . S
H196 C219 0.977 . S
C197 C185 1.453 . S
C197 H226 0.982 . S
C197 H227 0.979 . S
C197 H228 0.977 . S
C198 C185 1.684 . S
C198 H223 0.979 . S
C198 H224 0.980 . S
C198 H225 0.983 . S
C199 C200 1.391 . S
C199 C204 1.391 . S
C199 H229 0.948 . S
C200 C199 1.391 . S
C200 C201 1.391 . S
C201 C200 1.391 . S
C201 C202 1.392 . S
C201 H230 0.947 . S
C202 C201 1.392 . S
C202 C203 1.419 . S
C202 H231 0.948 . S
C203 C202 1.419 . S
C203 C204 1.391 . S
C203 C207 1.397 . S
C204 C199 1.391 . S
C204 C203 1.391 . S
C204 C205 1.399 . S
C205 C204 1.399 . S
C205 C206 1.396 . S
C205 C208 1.453 . S
C205 C209 1.684 . S
C206 C187 1.723 . S
C206 C205 1.396 . S
C206 C207 1.394 . S
C207 C203 1.397 . S
C207 C206 1.394 . S
C207 C217 1.723 . S
C208 C205 1.453 . S
C208 H232 0.982 . S
C208 H233 0.979 . S
C208 H234 0.977 . S
C209 C205 1.684 . S
C209 H235 0.979 . S
C209 H236 0.980 . S
C209 H237 0.983 . S
C210 H186 0.948 . S
C210 C211 1.391 . S
C210 C215 1.391 . S
C211 C210 1.391 . S
C211 C212 1.391 . S
C212 H189 0.947 . S
C212 C211 1.391 . S
C212 C213 1.392 . S
C213 H190 0.948 . S
C213 C212 1.392 . S
C213 C214 1.419 . S
C214 C213 1.419 . S
C214 C215 1.391 . S
C214 C218 1.397 . S
C215 C210 1.391 . S
C215 C214 1.391 . S
C215 C216 1.399 . S
C216 C215 1.399 . S
C216 C217 1.396 . S
C216 C219 1.453 . S
C216 C220 1.684 . S
C217 C207 1.723 . S
C217 C216 1.396 . S
C217 C218 1.394 . S
C218 C188 1.723 . S
C218 C214 1.397 . S
C218 C217 1.394 . S
C219 H191 0.982 . S
C219 H195 0.979 . S
C219 H196 0.977 . S
C219 C216 1.453 . S
C220 H192 0.979 . S
C220 H193 0.980 . S
C220 H194 0.983 . S
C220 C216 1.684 . S
H221 C239 0.948 . S
H222 C180 0.948 . S
H223 C198 0.979 . S
H224 C198 0.980 . S
H225 C198 0.983 . S
H226 C197 0.982 . S
H227 C197 0.979 . S
H228 C197 0.977 . S
H229 C199 0.948 . S
H230 C201 0.947 . S
H231 C202 0.948 . S
H232 C208 0.982 . S
H233 C208 0.979 . S
H234 C208 0.977 . S
H235 C209 0.979 . S
H236 C209 0.980 . S
H237 C209 0.983 . S
H238 C182 0.947 . S
C239 C182 1.392 . S
C239 C183 1.419 . S
C239 H221 0.948 . S
C240 C241 1.391 1_654 S
C240 C244 1.391 1_554 S
C240 H282 0.948 . S
C241 C240 1.391 1_456 S
C241 C242 1.391 . S
C242 C241 1.391 . S
C242 H298 0.947 . S
C242 C299 1.392 . S
C243 C244 1.391 . S
C243 C247 1.397 . S
C243 C299 1.419 1_655 S
C244 C240 1.391 1_556 S
C244 C243 1.391 . S
C244 C245 1.401 . S
C245 C244 1.401 . S
C245 C248 1.403 . S
C245 C257 1.453 1_556 S
C245 C258 1.676 1_556 S
H246 C270 0.948 . S
C247 C243 1.397 . S
C247 C248 1.394 . S
C247 C266 1.723 . S
C248 C245 1.403 . S
C248 C247 1.394 . S
C248 C278 1.723 . S
H249 C272 0.947 . S
H250 C273 0.948 . S
H251 C279 0.982 1_565 S
H252 C280 0.979 . S
H253 C280 0.980 . S
H254 C280 0.983 . S
H255 C279 0.979 . S
H256 C279 0.977 . S
C257 C245 1.453 1_554 S
C257 H286 0.982 1_554 S
C257 H287 0.979 . S
C257 H288 0.977 . S
C258 C245 1.676 1_554 S
C258 H283 0.979 . S
C258 H284 0.980 . S
C258 H285 0.983 . S
C259 C260 1.391 1_465 S
C259 C264 1.391 1_455 S
C259 H289 0.948 . S
C260 C259 1.391 1_645 S
C260 C261 1.391 . S
C261 C260 1.391 . S
C261 C262 1.392 . S
C261 H290 0.947 . S
C262 C261 1.392 . S
C262 C263 1.419 1_545 S
C262 H291 0.948 . S
C263 C262 1.419 1_565 S
C263 C264 1.391 . S
C263 C267 1.397 . S
C264 C259 1.391 1_655 S
C264 C263 1.391 . S
C264 C265 1.399 . S
C265 C264 1.399 . S
C265 C266 1.396 . S
C265 C268 1.453 . S
C265 C269 1.684 1_655 S
C266 C247 1.723 . S
C266 C265 1.396 . S
C266 C267 1.394 . S
C267 C263 1.397 . S
C267 C266 1.394 . S
C267 C277 1.723 . S
C268 C265 1.453 . S
C268 H292 0.982 . S
C268 H293 0.979 1_655 S
C268 H294 0.977 1_655 S
C269 C265 1.684 1_455 S
C269 H295 0.979 . S
C269 H296 0.980 . S
C269 H297 0.983 . S
C270 H246 0.948 . S
C270 C271 1.391 1_546 S
C270 C275 1.391 1_545 S
C271 C270 1.391 1_564 S
C271 C272 1.391 . S
C272 H249 0.947 . S
C272 C271 1.391 . S
C272 C273 1.392 . S
C273 H250 0.948 . S
C273 C272 1.392 . S
C273 C274 1.419 1_554 S
C274 C273 1.419 1_556 S
C274 C275 1.391 . S
C274 C278 1.397 . S
C275 C270 1.391 1_565 S
C275 C274 1.391 . S
C275 C276 1.399 . S
C276 C275 1.399 . S
C276 C277 1.396 . S
C276 C279 1.453 1_565 S
C276 C280 1.684 1_565 S
C277 C267 1.723 . S
C277 C276 1.396 . S
C277 C278 1.394 . S
C278 C248 1.723 . S
C278 C274 1.397 . S
C278 C277 1.394 . S
C279 H251 0.982 1_545 S
C279 H255 0.979 . S
C279 H256 0.977 . S
C279 C276 1.453 1_545 S
C280 H252 0.979 . S
C280 H253 0.980 . S
C280 H254 0.983 . S
C280 C276 1.684 1_545 S
H281 C299 0.948 . S
H282 C240 0.948 . S
H283 C258 0.979 . S
H284 C258 0.980 . S
H285 C258 0.983 . S
H286 C257 0.982 1_556 S
H287 C257 0.979 . S
H288 C257 0.977 . S
H289 C259 0.948 . S
H290 C261 0.947 . S
H291 C262 0.948 . S
H292 C268 0.982 . S
H293 C268 0.979 1_455 S
H294 C268 0.977 1_455 S
H295 C269 0.979 . S
H296 C269 0.980 . S
H297 C269 0.983 . S
H298 C242 0.947 . S
C299 C242 1.392 . S
C299 C243 1.419 1_455 S
C299 H281 0.948 . S
C300 C301 1.391 . S
C300 C304 1.391 . S
C300 H342 0.948 . S
C301 C300 1.391 . S
C301 C302 1.391 . S
C302 C301 1.391 . S
C302 H358 0.971 . S
C302 C359 1.392 . S
C303 C304 1.391 . S
C303 C307 1.397 . S
C303 C359 1.419 . S
C304 C300 1.391 . S
C304 C303 1.391 . S
C304 C305 1.399 . S
C305 C304 1.399 . S
C305 C308 1.396 . S
C305 C317 1.453 . S
C305 C318 1.684 . S
H306 C330 0.948 . S
C307 C303 1.397 . S
C307 C308 1.394 . S
C307 C326 1.723 . S
C308 C305 1.396 . S
C308 C307 1.394 . S
C308 C338 1.723 . S
H309 C332 0.947 . S
H310 C333 0.948 . S
H311 C339 0.982 . S
H312 C340 0.979 . S
H313 C340 0.980 . S
H314 C340 0.983 . S
H315 C339 0.979 . S
H316 C339 0.977 . S
C317 C305 1.453 . S
C317 H346 0.982 . S
C317 H347 0.979 . S
C317 H348 0.977 . S
C318 C305 1.684 . S
C318 H343 0.979 . S
C318 H344 0.980 . S
C318 H345 0.983 . S
C319 C320 1.391 . S
C319 C324 1.391 . S
C319 H349 0.948 . S
C320 C319 1.391 . S
C320 C321 1.391 . S
C321 C320 1.391 . S
C321 C322 1.392 . S
C321 H350 0.947 . S
C322 C321 1.392 . S
C322 C323 1.419 . S
C322 H351 0.948 . S
C323 C322 1.419 . S
C323 C324 1.391 . S
C323 C327 1.397 . S
C324 C319 1.391 . S
C324 C323 1.391 . S
C324 C325 1.399 . S
C325 C324 1.399 . S
C325 C326 1.396 . S
C325 C328 1.453 . S
C325 C329 1.684 . S
C326 C307 1.723 . S
C326 C325 1.396 . S
C326 C327 1.394 . S
C327 C323 1.397 . S
C327 C326 1.394 . S
C327 C337 1.723 . S
C328 C325 1.453 . S
C328 H352 0.982 . S
C328 H353 0.979 1_545 S
C328 H354 0.977 . S
C329 C325 1.684 . S
C329 H355 0.979 . S
C329 H356 0.980 . S
C329 H357 0.983 . S
C330 H306 0.948 . S
C330 C331 1.391 . S
C330 C335 1.391 . S
C331 C330 1.391 . S
C331 C332 1.391 . S
C332 H309 0.947 . S
C332 C331 1.391 . S
C332 C333 1.392 . S
C333 H310 0.948 . S
C333 C332 1.392 . S
C333 C334 1.419 . S
C334 C333 1.419 . S
C334 C335 1.391 . S
C334 C338 1.397 . S
C335 C330 1.391 . S
C335 C334 1.391 . S
C335 C336 1.399 . S
C336 C335 1.399 . S
C336 C337 1.396 . S
C336 C339 1.453 . S
C336 C340 1.684 . S
C337 C327 1.723 . S
C337 C336 1.396 . S
C337 C338 1.394 . S
C338 C308 1.723 . S
C338 C334 1.397 . S
C338 C337 1.394 . S
C339 H311 0.982 . S
C339 H315 0.979 . S
C339 H316 0.977 . S
C339 C336 1.453 . S
C340 H312 0.979 . S
C340 H313 0.980 . S
C340 H314 0.983 . S
C340 C336 1.684 . S
H341 C359 0.948 . S
H342 C300 0.948 . S
H343 C318 0.979 . S
H344 C318 0.980 . S
H345 C318 0.983 . S
H346 C317 0.982 . S
H347 C317 0.979 . S
H348 C317 0.977 . S
H349 C319 0.948 . S
H350 C321 0.947 . S
H351 C322 0.948 . S
H352 C328 0.982 . S
H353 C328 0.979 1_565 S
H354 C328 0.977 . S
H355 C329 0.979 . S
H356 C329 0.980 . S
H357 C329 0.983 . S
H358 C302 0.971 . S
C359 C302 1.392 . S
C359 C303 1.419 . S
C359 H341 0.948 . S
C360 C361 1.391 . S
C360 C364 1.391 . S
C360 H402 0.948 . S
C361 C360 1.391 . S
C361 C362 1.391 . S
C362 C361 1.391 . S
C362 H418 0.947 . S
C362 C419 1.392 . S
C363 C364 1.391 . S
C363 C367 1.397 . S
C363 C419 1.419 . S
C364 C360 1.391 . S
C364 C363 1.391 . S
C364 C365 1.399 . S
C365 C364 1.399 . S
C365 C368 1.396 . S
C365 C377 1.453 . S
C365 C378 1.684 . S
H366 C390 0.948 . S
C367 C363 1.397 . S
C367 C368 1.394 . S
C367 C386 1.723 . S
C368 C365 1.396 . S
C368 C367 1.394 . S
C368 C398 1.723 . S
H369 C392 0.947 . S
H370 C393 0.948 . S
H371 C399 0.982 . S
H372 C400 0.979 . S
H373 C400 0.980 . S
H374 C400 0.983 . S
H375 C399 0.979 . S
H376 C399 0.977 . S
C377 C365 1.453 . S
C377 H406 0.982 . S
C377 H407 0.979 . S
C377 H408 0.977 . S
C378 C365 1.684 . S
C378 H403 0.979 . S
C378 H404 0.980 . S
C378 H405 0.983 . S
C379 C380 1.391 . S
C379 C384 1.391 . S
C379 H409 0.948 . S
C380 C379 1.391 . S
C380 C381 1.391 . S
C381 C380 1.391 . S
C381 C382 1.392 . S
C381 H410 0.947 1_554 S
C382 C381 1.392 . S
C382 C383 1.419 . S
C382 H411 0.948 . S
C383 C382 1.419 . S
C383 C384 1.391 . S
C383 C387 1.397 . S
C384 C379 1.391 . S
C384 C383 1.391 . S
C384 C385 1.399 . S
C385 C384 1.399 . S
C385 C386 1.396 . S
C385 C388 1.453 . S
C385 C389 1.684 . S
C386 C367 1.723 . S
C386 C385 1.396 . S
C386 C387 1.394 . S
C387 C383 1.397 . S
C387 C386 1.394 . S
C387 C397 1.723 . S
C388 C385 1.453 . S
C388 H412 0.982 . S
C388 H413 0.979 . S
C388 H414 0.977 . S
C389 C385 1.684 . S
C389 H415 0.979 . S
C389 H416 0.980 . S
C389 H417 0.983 . S
C390 H366 0.948 . S
C390 C391 1.391 . S
C390 C395 1.391 . S
C391 C390 1.391 . S
C391 C392 1.391 . S
C392 H369 0.947 . S
C392 C391 1.391 . S
C392 C393 1.392 . S
C393 H370 0.948 . S
C393 C392 1.392 . S
C393 C394 1.419 . S
C394 C393 1.419 . S
C394 C395 1.391 . S
C394 C398 1.397 . S
C395 C390 1.391 . S
C395 C394 1.391 . S
C395 C396 1.399 . S
C396 C395 1.399 . S
C396 C397 1.396 . S
C396 C399 1.453 . S
C396 C400 1.684 1_554 S
C397 C387 1.723 . S
C397 C396 1.396 . S
C397 C398 1.394 . S
C398 C368 1.723 . S
C398 C394 1.397 . S
C398 C397 1.394 . S
C399 H371 0.982 . S
C399 H375 0.979 . S
C399 H376 0.977 . S
C399 C396 1.453 . S
C400 H372 0.979 . S
C400 H373 0.980 . S
C400 H374 0.983 . S
C400 C396 1.684 1_556 S
H401 C419 0.948 . S
H402 C360 0.948 . S
H403 C378 0.979 . S
H404 C378 0.980 . S
H405 C378 0.983 . S
H406 C377 0.982 . S
H407 C377 0.979 . S
H408 C377 0.977 . S
H409 C379 0.948 . S
H410 C381 0.947 1_556 S
H411 C382 0.948 . S
H412 C388 0.982 . S
H413 C388 0.979 . S
H414 C388 0.977 . S
H415 C389 0.979 . S
H416 C389 0.980 . S
H417 C389 0.983 . S
H418 C362 0.947 . S
C419 C362 1.392 . S
C419 C363 1.419 . S
C419 H401 0.948 . S
C420 C421 1.391 . S
C420 C424 1.391 . S
C420 H462 0.948 . S
C421 C420 1.391 . S
C421 C422 1.391 . S
C422 C421 1.391 . S
C422 H478 0.947 . S
C422 C479 1.392 . S
C423 C424 1.391 . S
C423 C427 1.397 . S
C423 C479 1.419 . S
C424 C420 1.391 . S
C424 C423 1.391 . S
C424 C425 1.399 . S
C425 C424 1.399 . S
C425 C428 1.396 . S
C425 C437 1.444 1_455 S
C425 C438 1.684 . S
H426 C450 0.948 . S
C427 C423 1.397 . S
C427 C428 1.394 . S
C427 C446 1.723 . S
C428 C425 1.396 . S
C428 C427 1.394 . S
C428 C458 1.723 . S
H429 C452 0.947 1_655 S
H430 C453 0.948 . S
H431 C459 0.982 . S
H432 C460 0.979 . S
H433 C460 0.980 . S
H434 C460 0.983 . S
H435 C459 0.979 . S
H436 C459 0.977 . S
C437 C425 1.444 1_655 S
C437 H466 0.984 . S
C437 H467 0.986 . S
C437 H468 0.977 . S
C438 C425 1.684 . S
C438 H463 0.979 . S
C438 H464 0.980 . S
C438 H465 0.983 . S
C439 C440 1.391 . S
C439 C444 1.391 . S
C439 H469 0.948 . S
C440 C439 1.391 . S
C440 C441 1.391 . S
C441 C440 1.391 . S
C441 C442 1.392 . S
C441 H470 0.947 . S
C442 C441 1.392 . S
C442 C443 1.419 . S
C442 H471 0.948 . S
C443 C442 1.419 . S
C443 C444 1.391 . S
C443 C447 1.397 . S
C444 C439 1.391 . S
C444 C443 1.391 . S
C444 C445 1.399 . S
C445 C444 1.399 . S
C445 C446 1.396 . S
C445 C448 1.453 . S
C445 C449 1.684 . S
C446 C427 1.723 . S
C446 C445 1.396 . S
C446 C447 1.394 . S
C447 C443 1.397 . S
C447 C446 1.394 . S
C447 C457 1.723 . S
C448 C445 1.453 . S
C448 H472 0.982 . S
C448 H473 0.979 . S
C448 H474 0.977 . S
C449 C445 1.684 . S
C449 H475 0.979 . S
C449 H476 0.980 . S
C449 H477 0.983 . S
C450 H426 0.948 . S
C450 C451 1.391 . S
C450 C455 1.391 . S
C451 C450 1.391 . S
C451 C452 1.391 . S
C452 H429 0.947 1_455 S
C452 C451 1.391 . S
C452 C453 1.392 . S
C453 H430 0.948 . S
C453 C452 1.392 . S
C453 C454 1.419 . S
C454 C453 1.419 . S
C454 C455 1.391 . S
C454 C458 1.397 . S
C455 C450 1.391 . S
C455 C454 1.391 . S
C455 C456 1.399 . S
C456 C455 1.399 . S
C456 C457 1.396 . S
C456 C459 1.453 . S
C456 C460 1.684 . S
C457 C447 1.723 . S
C457 C456 1.396 . S
C457 C458 1.394 . S
C458 C428 1.723 . S
C458 C454 1.397 . S
C458 C457 1.394 . S
C459 H431 0.982 . S
C459 H435 0.979 . S
C459 H436 0.977 . S
C459 C456 1.453 . S
C460 H432 0.979 . S
C460 H433 0.980 . S
C460 H434 0.983 . S
C460 C456 1.684 . S
H461 C479 0.948 . S
H462 C420 0.948 . S
H463 C438 0.979 . S
H464 C438 0.980 . S
H465 C438 0.983 . S
H466 C437 0.984 . S
H467 C437 0.986 . S
H468 C437 0.977 . S
H469 C439 0.948 . S
H470 C441 0.947 . S
H471 C442 0.948 . S
H472 C448 0.982 . S
H473 C448 0.979 . S
H474 C448 0.977 . S
H475 C449 0.979 . S
H476 C449 0.980 . S
H477 C449 0.983 . S
H478 C422 0.947 . S
C479 C422 1.392 . S
C479 C423 1.419 . S
C479 H461 0.948 . S
Zn480 O486 1.920 . S
Zn480 O492 1.898 . S
Zn480 O495 1.905 . S
Zn481 O489 1.905 1_565 S
Zn481 O490 1.898 . S
Zn481 O498 1.920 . S
Zn482 O485 2.080 1_455 S
Zn482 O488 2.114 . S
Zn482 O491 2.120 1_445 S
Zn482 O493 2.120 . S
Zn482 O494 2.114 1_455 S
Zn482 O497 2.080 . S
C483 O488 1.166 . S
C483 O489 1.182 . S
C484 O490 1.167 1_655 S
C484 O491 1.299 . S
O485 Zn482 2.080 1_655 S
O485 C499 1.305 . S
O486 Zn480 1.920 . S
O486 C499 1.234 . S
C487 O492 1.167 1_455 S
C487 O493 1.299 . S
O488 Zn482 2.114 . S
O488 C483 1.166 . S
O489 Zn481 1.905 1_545 S
O489 C483 1.182 . S
O490 Zn481 1.898 . S
O490 C484 1.167 1_455 S
O491 Zn482 2.120 1_665 S
O491 C484 1.299 . S
O492 Zn480 1.898 . S
O492 C487 1.167 1_655 S
O493 Zn482 2.120 . S
O493 C487 1.299 . S
O494 Zn482 2.114 1_655 S
O494 C496 1.166 . S
O495 Zn480 1.905 . S
O495 C496 1.182 . S
C496 O494 1.166 . S
C496 O495 1.182 . S
O497 Zn482 2.080 . S
O497 C500 1.305 1_545 S
O498 Zn481 1.920 . S
O498 C500 1.234 . S
C499 O485 1.305 . S
C499 O486 1.234 . S
C500 O497 1.305 1_565 S
C500 O498 1.234 . S
Zn501 O507 1.920 1_556 S
Zn501 O513 1.898 . S
Zn501 O516 1.905 . S
Zn502 O510 1.905 . S
Zn502 O511 1.898 . S
Zn502 O519 1.920 . S
Zn503 O506 2.080 . S
Zn503 O509 2.114 1_545 S
Zn503 O512 2.120 1_545 S
Zn503 O514 2.120 . S
Zn503 O515 2.114 1_544 S
Zn503 O518 2.080 . S
C504 O509 1.166 . S
C504 O510 1.182 . S
C505 O511 1.167 . S
C505 O512 1.299 . S
O506 Zn503 2.080 . S
O506 C520 1.305 . S
O507 Zn501 1.920 1_554 S
O507 C520 1.234 . S
C508 O513 1.167 . S
C508 O514 1.299 1_556 S
O509 Zn503 2.114 1_565 S
O509 C504 1.166 . S
O510 Zn502 1.905 . S
O510 C504 1.182 . S
O511 Zn502 1.898 . S
O511 C505 1.167 . S
O512 Zn503 2.120 1_565 S
O512 C505 1.299 . S
O513 Zn501 1.898 . S
O513 C508 1.167 . S
O514 Zn503 2.120 . S
O514 C508 1.299 1_554 S
O515 Zn503 2.114 1_566 S
O515 C517 1.166 . S
O516 Zn501 1.905 . S
O516 C517 1.182 1_545 S
C517 O515 1.166 . S
C517 O516 1.182 1_565 S
O518 Zn503 2.080 . S
O518 C521 1.305 . S
O519 Zn502 1.920 . S
O519 C521 1.234 1_565 S
C520 O506 1.305 . S
C520 O507 1.234 . S
C521 O518 1.305 . S
C521 O519 1.234 1_545 S
Zn522 O528 1.920 . S
Zn522 O534 1.898 . S
Zn522 O537 1.905 . S
Zn523 O531 1.905 . S
Zn523 O532 1.898 . S
Zn523 O540 1.920 . S
Zn524 O527 2.080 . S
Zn524 O530 2.114 . S
Zn524 O533 2.120 . S
Zn524 O535 2.120 . S
Zn524 O536 2.114 . S
Zn524 O539 2.080 . S
C525 O530 1.166 . S
C525 O531 1.182 . S
C526 O532 1.167 . S
C526 O533 1.299 . S
O527 Zn524 2.080 . S
O527 C541 1.305 . S
O528 Zn522 1.920 . S
O528 C541 1.234 . S
C529 O534 1.167 . S
C529 O535 1.299 . S
O530 Zn524 2.114 . S
O530 C525 1.166 . S
O531 Zn523 1.905 . S
O531 C525 1.182 . S
O532 Zn523 1.898 . S
O532 C526 1.167 . S
O533 Zn524 2.120 . S
O533 C526 1.299 . S
O534 Zn522 1.898 . S
O534 C529 1.167 . S
O535 Zn524 2.120 . S
O535 C529 1.299 . S
O536 Zn524 2.114 . S
O536 C538 1.166 . S
O537 Zn522 1.905 . S
O537 C538 1.182 . S
C538 O536 1.166 . S
C538 O537 1.182 . S
O539 Zn524 2.080 . S
O539 C542 1.305 . S
O540 Zn523 1.920 . S
O540 C542 1.234 . S
C541 O527 1.305 . S
C541 O528 1.234 . S
C542 O539 1.305 . S
C542 O540 1.234 . S
Zn543 O549 1.920 . S
Zn543 O555 1.898 . S
Zn543 O558 1.905 . S
Zn544 O552 1.905 1_655 S
Zn544 O553 1.898 . S
Zn544 O561 1.920 . S
Zn545 O548 2.080 1_554 S
Zn545 O551 2.114 . S
Zn545 O554 2.120 1_454 S
Zn545 O556 2.120 . S
Zn545 O557 2.114 1_554 S
Zn545 O560 2.080 . S
C546 O551 1.166 . S
C546 O552 1.182 . S
C547 O553 1.167 1_556 S
C547 O554 1.299 . S
O548 Zn545 2.080 1_556 S
O548 C562 1.305 . S
O549 Zn543 1.920 . S
O549 C562 1.234 . S
C550 O555 1.167 1_554 S
C550 O556 1.299 . S
O551 Zn545 2.114 . S
O551 C546 1.166 . S
O552 Zn544 1.905 1_455 S
O552 C546 1.182 . S
O553 Zn544 1.898 . S
O553 C547 1.167 1_554 S
O554 Zn545 2.120 1_656 S
O554 C547 1.299 . S
O555 Zn543 1.898 . S
O555 C550 1.167 1_556 S
O556 Zn545 2.120 . S
O556 C550 1.299 . S
O557 Zn545 2.114 1_556 S
O557 C559 1.166 . S
O558 Zn543 1.905 . S
O558 C559 1.182 . S
C559 O557 1.166 . S
C559 O558 1.182 . S
O560 Zn545 2.080 . S
O560 C563 1.305 1_455 S
O561 Zn544 1.920 . S
O561 C563 1.234 . S
C562 O548 1.305 . S
C562 O549 1.234 . S
C563 O560 1.305 1_655 S
C563 O561 1.234 . S
C564 C565 1.387 . S
C564 H568 0.950 . S
C564 C573 1.390 . S
C565 C564 1.387 . S
C565 C567 1.387 . S
H566 C573 0.950 . S
C567 C565 1.387 . S
C567 C569 1.390 . S
C567 H571 0.950 . S
H568 C564 0.950 . S
C569 C567 1.390 . S
C569 C570 1.387 . S
C569 H572 0.950 . S
C570 C569 1.387 . S
C570 C573 1.387 . S
H571 C567 0.950 . S
H572 C569 0.950 . S
C573 C564 1.390 . S
C573 H566 0.950 . S
C573 C570 1.387 . S
C574 C575 1.387 . S
C574 H578 0.950 . S
C574 C583 1.390 . S
C575 C574 1.387 . S
C575 C577 1.387 . S
H576 C583 0.950 . S
C577 C575 1.387 . S
C577 C579 1.390 . S
C577 H581 0.950 . S
H578 C574 0.950 . S
C579 C577 1.390 . S
C579 C580 1.387 . S
C579 H582 0.950 . S
C580 C579 1.387 . S
C580 C583 1.387 . S
H581 C577 0.950 . S
H582 C579 0.950 . S
C583 C574 1.390 . S
C583 H576 0.950 . S
C583 C580 1.387 . S
C584 C585 1.387 . S
C584 H588 0.950 . S
C584 C593 1.390 . S
C585 C584 1.387 . S
C585 C587 1.387 . S
H586 C593 0.950 . S
C587 C585 1.387 . S
C587 C589 1.390 . S
C587 H591 0.950 . S
H588 C584 0.950 . S
C589 C587 1.390 . S
C589 C590 1.387 . S
C589 H592 0.950 . S
C590 C589 1.387 . S
C590 C593 1.387 . S
H591 C587 0.950 . S
H592 C589 0.950 . S
C593 C584 1.390 . S
C593 H586 0.950 . S
C593 C590 1.387 . S
C594 C595 1.387 . S
C594 H598 0.950 . S
C594 C603 1.390 . S
C595 C594 1.387 . S
C595 C597 1.387 . S
H596 C603 0.950 . S
C597 C595 1.387 . S
C597 C599 1.390 . S
C597 H601 0.950 . S
H598 C594 0.950 . S
C599 C597 1.390 . S
C599 C600 1.387 . S
C599 H602 0.950 . S
C600 C599 1.387 . S
C600 C603 1.387 . S
H601 C597 0.950 . S
H602 C599 0.950 . S
C603 C594 1.390 . S
C603 H596 0.950 . S
C603 C600 1.387 . S
C604 C605 1.387 . S
C604 H608 0.950 . S
C604 C613 1.390 . S
C605 C604 1.387 . S
C605 C607 1.387 . S
H606 C613 0.950 . S
C607 C605 1.387 . S
C607 C609 1.390 . S
C607 H611 0.950 . S
H608 C604 0.950 . S
C609 C607 1.390 . S
C609 C610 1.387 . S
C609 H612 0.950 . S
C610 C609 1.387 . S
C610 C613 1.387 . S
H611 C607 0.950 . S
H612 C609 0.950 . S
C613 C604 1.390 . S
C613 H606 0.950 . S
C613 C610 1.387 . S
C614 C615 1.387 . S
C614 H618 0.950 . S
C614 C623 1.390 . S
C615 C614 1.387 . S
C615 C617 1.387 . S
H616 C623 0.950 1_545 S
C617 C615 1.387 . S
C617 C619 1.390 . S
C617 H621 0.950 . S
H618 C614 0.950 . S
C619 C617 1.390 . S
C619 C620 1.387 . S
C619 H622 0.950 . S
C620 C619 1.387 . S
C620 C623 1.387 . S
H621 C617 0.950 . S
H622 C619 0.950 . S
C623 C614 1.390 . S
C623 H616 0.950 1_565 S
C623 C620 1.387 . S
C624 C625 1.387 . S
C624 H628 0.950 . S
C624 C633 1.390 . S
C625 C624 1.387 . S
C625 C627 1.387 . S
H626 C633 0.950 . S
C627 C625 1.387 . S
C627 C629 1.390 . S
C627 H631 0.950 . S
H628 C624 0.950 . S
C629 C627 1.390 . S
C629 C630 1.387 . S
C629 H632 0.950 1_556 S
C630 C629 1.387 . S
C630 C633 1.387 . S
H631 C627 0.950 . S
H632 C629 0.950 1_554 S
C633 C624 1.390 . S
C633 H626 0.950 . S
C633 C630 1.387 . S
C634 C635 1.387 . S
C634 H638 0.950 . S
C634 C643 1.390 . S
C635 C634 1.387 . S
C635 C637 1.387 . S
H636 C643 0.950 . S
C637 C635 1.387 . S
C637 C639 1.390 . S
C637 H641 0.950 . S
H638 C634 0.950 . S
C639 C637 1.390 . S
C639 C640 1.387 . S
C639 H642 0.950 . S
C640 C639 1.387 . S
C640 C643 1.387 . S
H641 C637 0.950 . S
H642 C639 0.950 . S
C643 C634 1.390 . S
C643 H636 0.950 . S
C643 C640 1.387 . S
C644 C645 1.387 . S
C644 H648 0.950 . S
C644 C653 1.390 . S
C645 C644 1.387 . S
C645 C647 1.387 . S
H646 C653 0.950 . S
C647 C645 1.387 . S
C647 C649 1.390 . S
C647 H651 0.950 . S
H648 C644 0.950 . S
C649 C647 1.390 . S
C649 C650 1.387 . S
C649 H652 0.950 . S
C650 C649 1.387 . S
C650 C653 1.387 . S
H651 C647 0.950 . S
H652 C649 0.950 . S
C653 C644 1.390 . S
C653 H646 0.950 . S
C653 C650 1.387 . S
C654 C655 1.387 . S
C654 H658 0.950 . S
C654 C663 1.390 . S
C655 C654 1.387 . S
C655 C657 1.387 . S
H656 C663 0.950 . S
C657 C655 1.387 . S
C657 C659 1.390 . S
C657 H661 0.950 . S
H658 C654 0.950 . S
C659 C657 1.390 . S
C659 C660 1.387 . S
C659 H662 0.950 1_556 S
C660 C659 1.387 . S
C660 C663 1.387 . S
H661 C657 0.950 . S
H662 C659 0.950 1_554 S
C663 C654 1.390 . S
C663 H656 0.950 . S
C663 C660 1.387 . S
C664 C665 1.387 . S
C664 H668 0.950 . S
C664 C673 1.390 . S
C665 C664 1.387 . S
C665 C667 1.387 . S
H666 C673 0.950 . S
C667 C665 1.387 . S
C667 C669 1.390 . S
C667 H671 0.950 . S
H668 C664 0.950 . S
C669 C667 1.390 . S
C669 C670 1.387 . S
C669 H672 0.950 . S
C670 C669 1.387 . S
C670 C673 1.387 . S
H671 C667 0.950 . S
H672 C669 0.950 . S
C673 C664 1.390 . S
C673 H666 0.950 . S
C673 C670 1.387 . S
C674 C675 1.387 . S
C674 H678 0.950 . S
C674 C683 1.390 . S
C675 C674 1.387 . S
C675 C677 1.387 . S
H676 C683 0.950 . S
C677 C675 1.387 . S
C677 C679 1.390 . S
C677 H681 0.950 . S
H678 C674 0.950 . S
C679 C677 1.390 . S
C679 C680 1.387 . S
C679 H682 0.950 . S
C680 C679 1.387 . S
C680 C683 1.387 . S
H681 C677 0.950 . S
H682 C679 0.950 . S
C683 C674 1.390 . S
C683 H676 0.950 . S
C683 C680 1.387 . S
C684 C685 1.387 1_455 S
C684 H688 0.950 . S
C684 C693 1.390 . S
C685 C684 1.387 1_655 S
C685 C687 1.387 1_545 S
H686 C693 0.950 . S
C687 C685 1.387 1_565 S
C687 C689 1.390 . S
C687 H691 0.950 . S
H688 C684 0.950 . S
C689 C687 1.390 . S
C689 C690 1.387 1_565 S
C689 H692 0.950 . S
C690 C689 1.387 1_545 S
C690 C693 1.387 1_655 S
H691 C687 0.950 . S
H692 C689 0.950 . S
C693 C684 1.390 . S
C693 H686 0.950 . S
C693 C690 1.387 1_455 S
C694 C695 1.387 1_565 S
C694 H698 0.950 . S
C694 C703 1.390 . S
C695 C694 1.387 1_545 S
C695 C697 1.387 . S
H696 C703 0.950 . S
C697 C695 1.387 . S
C697 C699 1.390 . S
C697 H701 0.950 . S
H698 C694 0.950 . S
C699 C697 1.390 . S
C699 C700 1.387 . S
C699 H702 0.950 . S
C700 C699 1.387 . S
C700 C703 1.387 1_545 S
H701 C697 0.950 . S
H702 C699 0.950 . S
C703 C694 1.390 . S
C703 H696 0.950 . S
C703 C700 1.387 1_565 S
C704 C705 1.387 . S
C704 H708 0.950 . S
C704 C713 1.390 . S
C705 C704 1.387 . S
C705 C707 1.387 . S
H706 C713 0.950 . S
C707 C705 1.387 . S
C707 C709 1.390 . S
C707 H711 0.950 . S
H708 C704 0.950 . S
C709 C707 1.390 . S
C709 C710 1.387 . S
C709 H712 0.950 . S
C710 C709 1.387 . S
C710 C713 1.387 . S
H711 C707 0.950 . S
H712 C709 0.950 . S
C713 C704 1.390 . S
C713 H706 0.950 . S
C713 C710 1.387 . S
C714 C715 1.387 . S
C714 H718 0.950 . S
C714 C723 1.390 . S
C715 C714 1.387 . S
C715 C717 1.387 . S
H716 C723 0.950 . S
C717 C715 1.387 . S
C717 C719 1.390 . S
C717 H721 0.950 . S
H718 C714 0.950 . S
C719 C717 1.390 . S
C719 C720 1.387 . S
C719 H722 0.950 . S
C720 C719 1.387 . S
C720 C723 1.387 . S
H721 C717 0.950 . S
H722 C719 0.950 . S
C723 C714 1.390 . S
C723 H716 0.950 . S
C723 C720 1.387 . S
C724 C725 1.387 1_546 S
C724 H728 0.950 . S
C724 C733 1.390 . S
C725 C724 1.387 1_564 S
C725 C727 1.387 . S
H726 C733 0.950 . S
C727 C725 1.387 . S
C727 C729 1.390 . S
C727 H731 0.950 . S
H728 C724 0.950 . S
C729 C727 1.390 . S
C729 C730 1.387 . S
C729 H732 0.950 . S
C730 C729 1.387 . S
C730 C733 1.387 1_564 S
H731 C727 0.950 . S
H732 C729 0.950 . S
C733 C724 1.390 . S
C733 H726 0.950 . S
C733 C730 1.387 1_546 S
C734 C735 1.387 . S
C734 H738 0.950 . S
C734 C743 1.390 . S
C735 C734 1.387 . S
C735 C737 1.387 . S
H736 C743 0.950 . S
C737 C735 1.387 . S
C737 C739 1.390 . S
C737 H741 0.950 . S
H738 C734 0.950 . S
C739 C737 1.390 . S
C739 C740 1.387 . S
C739 H742 0.950 . S
C740 C739 1.387 . S
C740 C743 1.387 . S
H741 C737 0.950 . S
H742 C739 0.950 . S
C743 C734 1.390 . S
C743 H736 0.950 . S
C743 C740 1.387 . S
C744 C745 1.387 1_556 S
C744 H748 0.950 . S
C744 C753 1.390 . S
C745 C744 1.387 1_554 S
C745 C747 1.387 . S
H746 C753 0.950 . S
C747 C745 1.387 . S
C747 C749 1.390 . S
C747 H751 0.950 . S
H748 C744 0.950 . S
C749 C747 1.390 . S
C749 C750 1.387 . S
C749 H752 0.950 . S
C750 C749 1.387 . S
C750 C753 1.387 1_554 S
H751 C747 0.950 . S
H752 C749 0.950 . S
C753 C744 1.390 . S
C753 H746 0.950 . S
C753 C750 1.387 1_556 S
C754 C755 1.387 . S
C754 H758 0.950 . S
C754 C763 1.390 . S
C755 C754 1.387 . S
C755 C757 1.387 . S
H756 C763 0.950 . S
C757 C755 1.387 . S
C757 C759 1.390 . S
C757 H761 0.950 . S
H758 C754 0.950 . S
C759 C757 1.390 . S
C759 C760 1.387 . S
C759 H762 0.950 . S
C760 C759 1.387 . S
C760 C763 1.387 . S
H761 C757 0.950 . S
H762 C759 0.950 . S
C763 C754 1.390 . S
C763 H756 0.950 . S
C763 C760 1.387 . S
C764 C765 1.404 1_655 S
C764 H768 0.950 . S
C764 C773 1.390 . S
C765 C764 1.404 1_455 S
C765 C767 1.374 1_556 S
H766 C773 0.950 . S
C767 C765 1.374 1_554 S
C767 C769 1.390 . S
C767 H771 0.950 . S
H768 C764 0.950 . S
C769 C767 1.390 . S
C769 C770 1.387 1_554 S
C769 H772 0.950 . S
C770 C769 1.387 1_556 S
C770 C773 1.387 1_455 S
H771 C767 0.950 . S
H772 C769 0.950 . S
C773 C764 1.390 . S
C773 H766 0.950 . S
C773 C770 1.387 1_655 S
C774 C775 1.387 . S
C774 H778 0.950 . S
C774 C783 1.390 . S
C775 C774 1.387 . S
C775 C777 1.387 . S
H776 C783 0.950 . S
C777 C775 1.387 . S
C777 C779 1.390 . S
C777 H781 0.950 . S
H778 C774 0.950 . S
C779 C777 1.390 . S
C779 C780 1.387 . S
C779 H782 0.950 . S
C780 C779 1.387 . S
C780 C783 1.387 . S
H781 C777 0.950 . S
H782 C779 0.950 . S
C783 C774 1.390 . S
C783 H776 0.950 . S
C783 C780 1.387 . S
C784 C785 1.387 . S
C784 H788 0.950 . S
C784 C793 1.390 . S
C785 C784 1.387 . S
C785 C787 1.387 1_455 S
H786 C793 0.950 . S
C787 C785 1.387 1_655 S
C787 C789 1.390 . S
C787 H791 0.950 . S
H788 C784 0.950 . S
C789 C787 1.390 . S
C789 C790 1.387 1_655 S
C789 H792 0.950 . S
C790 C789 1.387 1_455 S
C790 C793 1.387 . S
H791 C787 0.950 . S
H792 C789 0.950 . S
C793 C784 1.390 . S
C793 H786 0.950 . S
C793 C790 1.387 . S
C794 C795 1.387 . S
C794 H798 0.950 . S
C794 C803 1.390 . S
C795 C794 1.387 . S
C795 C797 1.387 . S
H796 C803 0.950 . S
C797 C795 1.387 . S
C797 C799 1.390 . S
C797 H801 0.950 . S
H798 C794 0.950 . S
C799 C797 1.390 . S
C799 C800 1.387 . S
C799 H802 0.950 . S
C800 C799 1.387 . S
C800 C803 1.387 . S
H801 C797 0.950 . S
H802 C799 0.950 . S
C803 C794 1.390 . S
C803 H796 0.950 . S
C803 C800 1.387 . S
C565 C1 1.516 . S
C570 C483 1.433 . S
C575 C80 1.498 . S
C580 C517 1.419 . S
C590 C529 1.410 . S
C585 C140 1.476 . S
C595 C211 1.496 . S
C600 C563 1.415 . S
C610 C520 1.422 . S
C605 C31 1.506 . S
C620 C500 1.410 . S
C615 C61 1.494 . S
C630 C547 1.401 . S
C625 C151 1.469 . S
C640 C538 1.421 . S
C635 C200 1.501 . S
C645 C20 1.510 . S
C650 C546 1.428 . S
C660 C508 1.410 . S
C655 C121 1.479 . S
C665 C181 1.497 . S
C670 C484 1.409 . S
C675 C91 1.497 . S
C680 C541 1.415 . S
C690 C499 1.671 . S
C685 C260 1.762 . S
C695 C320 1.656 . S
C700 C521 1.668 . S
C705 C361 1.785 . S
C710 C526 1.692 . S
C715 C451 1.684 . S
C720 C559 1.708 . S
C725 C271 1.777 . S
C730 C504 1.690 . S
C740 C496 1.693 . S
C735 C301 1.675 . S
C750 C550 1.694 . S
C745 C380 1.787 . S
C760 C542 1.678 . S
C755 C440 1.665 . S
C765 C241 1.758 . S
C770 C562 1.665 . S
C780 C505 1.695 . S
C775 C391 1.786 . S
C790 C487 1.665 . S
C785 C421 1.659 . S
C795 C331 1.669 . S
C800 C525 1.688 . S
