# Generated by pormake.
# Topology anh, (6,3)-cn, num edge types: 1
# Building blocks:
#     Node 0, Type 0, BuildingBlock: BETFAJ_clean_sbu_0, # of connection points: 6
#     Node 1, Type 0, BuildingBlock: BETFAJ_clean_sbu_0, # of connection points: 6
#     Node 2, Type 0, BuildingBlock: BETFAJ_clean_sbu_0, # of connection points: 6
#     Node 3, Type 1, BuildingBlock: ESEHIV_clean_linker_0, # of connection points: 3
#     Node 4, Type 1, BuildingBlock: ESEHIV_clean_linker_0, # of connection points: 3
#     Node 5, Type 1, BuildingBlock: ESEHIV_clean_linker_0, # of connection points: 3
#     Node 6, Type 1, BuildingBlock: ESEHIV_clean_linker_0, # of connection points: 3
#     Node 7, Type 1, BuildingBlock: ESEHIV_clean_linker_0, # of connection points: 3
#     Node 8, Type 1, BuildingBlock: ESEHIV_clean_linker_0, # of connection points: 3
#     Edge 9, Type (0, 1), BuildingBlock: CIFDUS_clean_linker_0, # of connection points: 2
#     Edge 10, Type (0, 1), BuildingBlock: CIFDUS_clean_linker_0, # of connection points: 2
#     Edge 11, Type (0, 1), BuildingBlock: CIFDUS_clean_linker_0, # of connection points: 2
#     Edge 12, Type (0, 1), BuildingBlock: CIFDUS_clean_linker_0, # of connection points: 2
#     Edge 13, Type (0, 1), BuildingBlock: CIFDUS_clean_linker_0, # of connection points: 2
#     Edge 14, Type (0, 1), BuildingBlock: CIFDUS_clean_linker_0, # of connection points: 2
#     Edge 15, Type (0, 1), BuildingBlock: CIFDUS_clean_linker_0, # of connection points: 2
#     Edge 16, Type (0, 1), BuildingBlock: CIFDUS_clean_linker_0, # of connection points: 2
#     Edge 17, Type (0, 1), BuildingBlock: CIFDUS_clean_linker_0, # of connection points: 2
#     Edge 18, Type (0, 1), BuildingBlock: CIFDUS_clean_linker_0, # of connection points: 2
#     Edge 19, Type (0, 1), BuildingBlock: CIFDUS_clean_linker_0, # of connection points: 2
#     Edge 20, Type (0, 1), BuildingBlock: CIFDUS_clean_linker_0, # of connection points: 2
#     Edge 21, Type (0, 1), BuildingBlock: CIFDUS_clean_linker_0, # of connection points: 2
#     Edge 22, Type (0, 1), BuildingBlock: CIFDUS_clean_linker_0, # of connection points: 2
#     Edge 23, Type (0, 1), BuildingBlock: CIFDUS_clean_linker_0, # of connection points: 2
#     Edge 24, Type (0, 1), BuildingBlock: CIFDUS_clean_linker_0, # of connection points: 2
#     Edge 25, Type (0, 1), BuildingBlock: CIFDUS_clean_linker_0, # of connection points: 2
#     Edge 26, Type (0, 1), BuildingBlock: CIFDUS_clean_linker_0, # of connection points: 2
# Relax obj value: 0.241
# Max RMSD: 0.238
# Mean RMSD: 0.171
data_MOF--net-anh--node1-BETFAJ_clean_sbu_0--node2-ESEHIV_clean_linker_0--edge1-CIFDUS_clean_linker_0
_symmetry_space_group_name_H-M    P1
_symmetry_Int_Tables_number       1
_symmetry_cell_setting            triclinic
loop_
_symmetry_equiv_pos_as_xyz
'x, y, z'
_cell_length_a     24.734934
_cell_length_b     31.093118
_cell_length_c     45.445814
_cell_angle_alpha  91.541158
_cell_angle_beta   89.412874
_cell_angle_gamma 131.03456
loop_
_atom_site_label
_atom_site_type_symbol
_atom_site_fract_x
_atom_site_fract_y
_atom_site_fract_z
_atom_type_partial_charge
Sm0 Sm 0.24562 0.58167 0.14631 0.0
Sm1 Sm 0.14517 0.59761 0.16635 0.0
C2 C 0.30802 0.54919 0.11838 0.0
C3 C 0.29976 0.49778 0.11837 0.0
C4 C 0.35969 0.50385 0.12479 0.0
C5 C 0.35339 0.45604 0.1261 0.0
C6 C 0.28698 0.40103 0.12083 0.0
C7 C 0.22677 0.39476 0.11422 0.0
C8 C 0.23294 0.44281 0.11324 0.0
C9 C 0.23922 0.58696 0.2064 0.0
C10 C 0.31607 0.71124 0.16076 0.0
C11 C 1.06227 0.61197 0.19246 0.0
C12 C 0.98417 0.56854 0.19626 0.0
C13 C 0.94068 0.58039 0.18815 0.0
C14 C 0.86733 0.53578 0.18314 0.0
C15 C 0.83693 0.47883 0.18589 0.0
C16 C 0.87922 0.46744 0.19663 0.0
C17 C 0.95223 0.51196 0.20191 0.0
C18 C 0.15216 0.58922 0.10607 0.0
C19 C 1.07284 0.46671 0.15553 0.0
O20 O 0.33395 0.58035 0.14267 0.0
O21 O 0.25578 0.54413 0.10677 0.0
O22 O 0.18581 0.56015 0.18918 0.0
O23 O 0.29785 0.60958 0.19219 0.0
O24 O 0.32339 0.68014 0.14377 0.0
O25 O 0.25534 0.68711 0.1747 0.0
O26 O 1.10079 0.60458 0.20713 0.0
O27 O 1.08263 0.62569 0.16514 0.0
O28 O 0.20501 0.61855 0.1235 0.0
O29 O 1.0926 0.5637 0.12015 0.0
O30 O 1.0646 0.50089 0.16765 0.0
O31 O 0.13557 0.48723 0.1447 0.0
H32 H 0.4116 0.54574 0.12884 0.0
H33 H 0.40112 0.4623 0.13055 0.0
H34 H 0.17515 0.35285 0.10991 0.0
H35 H 0.18556 0.43687 0.1085 0.0
H36 H 0.96429 0.62359 0.18345 0.0
H37 H 0.83579 0.54556 0.17466 0.0
H38 H 0.85674 0.42387 0.19907 0.0
H39 H 0.98442 0.5015 0.20825 0.0
Sm40 Sm 0.70269 0.04814 0.46735 0.0
Sm41 Sm 0.61785 0.0817 0.45978 0.0
C42 C 0.75892 1.00338 0.48293 0.0
C43 C 0.73506 0.94975 0.49467 0.0
C44 C 0.70339 0.93105 0.52252 0.0
C45 C 0.68356 0.88102 0.53355 0.0
C46 C 0.69469 0.84868 0.51691 0.0
C47 C 0.72485 0.86688 0.48878 0.0
C48 C 0.7452 0.91711 0.47786 0.0
C49 C 0.69922 0.07253 0.41003 0.0
C50 C 0.53021 0.94816 0.45541 0.0
C51 C 0.56141 0.12696 0.4457 0.0
C52 C 0.56713 0.17361 0.45859 0.0
C53 C 0.57252 0.21177 0.44025 0.0
C54 C 0.58253 0.25837 0.45241 0.0
C55 C 0.58716 0.26733 0.48313 0.0
C56 C 0.58065 0.22835 0.50138 0.0
C57 C 0.57133 0.18224 0.48923 0.0
C58 C 0.62442 0.06012 0.51767 0.0
C59 C 0.79479 0.18392 0.46532 0.0
O60 O 0.75624 0.03593 0.50053 0.0
O61 O 0.73897 1.00082 0.45597 0.0
O62 O 0.64576 0.04379 0.42682 0.0
O63 O 0.75638 0.08856 0.42316 0.0
O64 O 0.58476 0.9615 0.47078 0.0
O65 O 0.53602 0.98897 0.4432 0.0
O66 O 0.61981 0.14217 0.4337 0.0
O67 O 0.52807 0.08137 0.46146 0.0
O68 O 0.67651 0.08744 0.50019 0.0
O69 O 0.56764 0.04589 0.50526 0.0
O70 O 0.73313 0.17022 0.45877 0.0
O71 O 0.79759 0.14443 0.47206 0.0
H72 H 0.69474 0.95532 0.53597 0.0
H73 H 0.66127 0.86853 0.55544 0.0
H74 H 0.73304 0.84243 0.47522 0.0
H75 H 0.76932 0.93066 0.45629 0.0
H76 H 0.57017 0.20604 0.41654 0.0
H77 H 0.5881 0.28794 0.43776 0.0
H78 H 0.5826 0.23334 0.52512 0.0
H79 H 0.56802 0.15362 0.50384 0.0
Sm80 Sm 0.66701 0.60016 0.85427 0.0
Sm81 Sm 0.55156 0.47108 0.85294 0.0
C82 C 0.74396 0.70881 0.84044 0.0
C83 C 0.73194 0.74601 0.82895 0.0
C84 C 0.66247 0.72548 0.82393 0.0
C85 C 0.65219 0.76 0.81079 0.0
C86 C 0.71122 0.81569 0.80223 0.0
C87 C 0.78071 0.83625 0.80783 0.0
C88 C 0.79086 0.80176 0.82101 0.0
C89 C 0.63102 0.5509 0.90798 0.0
C90 C 0.49036 0.53742 0.8576 0.0
C91 C 0.48033 0.36046 0.85773 0.0
C92 C 0.49623 0.32434 0.84699 0.0
C93 C 0.56743 0.34804 0.84307 0.0
C94 C 0.58286 0.31632 0.82958 0.0
C95 C 0.52744 0.25987 0.81965 0.0
C96 C 0.45599 0.23519 0.82462 0.0
C97 C 0.44056 0.2673 0.83801 0.0
C98 C 0.58976 0.51939 0.79869 0.0
C99 C 0.72939 0.53512 0.85735 0.0
O100 O 0.72973 0.66937 0.82206 0.0
O101 O 0.72263 0.69046 0.86724 0.0
O102 O 0.58765 0.53735 0.88771 0.0
O103 O 0.69708 0.5935 0.90089 0.0
O104 O 0.558 0.5826 0.85105 0.0
O105 O 0.47334 0.48789 0.86283 0.0
O106 O 0.52212 0.39834 0.87859 0.0
O107 O 0.46679 0.38103 0.83725 0.0
O108 O 0.63245 0.53371 0.81944 0.0
O109 O 0.52444 0.47659 0.80584 0.0
O110 O 0.6601 0.48945 0.86016 0.0
O111 O 0.74859 0.58539 0.85235 0.0
H112 H 0.61615 0.68243 0.82961 0.0
H113 H 0.59794 0.74241 0.80658 0.0
H114 H 0.82745 0.8791 0.80198 0.0
H115 H 0.84493 0.81839 0.82458 0.0
H116 H 0.61148 0.39163 0.8497 0.0
H117 H 0.63845 0.33638 0.82648 0.0
H118 H 0.41208 0.19188 0.81707 0.0
H119 H 0.38518 0.24813 0.84058 0.0
H120 H 0.64248 1.00296 0.23367 0.0
H121 H 0.82891 0.18063 0.22913 0.0
H122 H 0.72544 0.08062 0.14917 0.0
C123 C 0.68112 0.04024 0.22068 0.0
C124 C 0.6762 0.03515 0.18976 0.0
C125 C 0.73618 0.09219 0.23509 0.0
C126 C 0.78696 0.13995 0.2182 0.0
C127 C 0.78379 0.13638 0.18734 0.0
C128 C 0.7286 0.08359 0.17299 0.0
H129 H 0.65562 0.62485 0.62347 0.0
H130 H 0.63446 0.47634 0.62194 0.0
H131 H 0.68894 0.56971 0.54269 0.0
C132 C 0.65808 0.5956 0.61142 0.0
C133 C 0.6743 0.60287 0.58133 0.0
C134 C 0.64414 0.55026 0.62598 0.0
C135 C 0.64687 0.51214 0.61063 0.0
C136 C 0.66321 0.51901 0.58055 0.0
C137 C 0.67711 0.56459 0.56601 0.0
H138 H 1.02728 0.54453 0.92644 0.0
H139 H 0.19811 0.5417 0.92849 0.0
H140 H 0.11083 0.5355 0.84481 0.0
C141 C 1.06349 0.54206 0.91459 0.0
C142 C 1.06115 0.53964 0.8837 0.0
C143 C 0.11203 0.54266 0.93076 0.0
C144 C 0.16162 0.54216 0.91579 0.0
C145 C 0.16273 0.53924 0.88482 0.0
C146 C 0.11159 0.53801 0.86862 0.0
H147 H 1.07242 0.46656 0.38382 0.0
H148 H 0.25004 0.64697 0.38195 0.0
H149 H 0.15882 0.56581 0.46502 0.0
C150 C 0.11102 0.50731 0.39532 0.0
C151 C 0.10938 0.51007 0.4262 0.0
C152 C 0.16159 0.55642 0.37919 0.0
C153 C 0.21115 0.60883 0.39435 0.0
C154 C 0.21132 0.61314 0.42521 0.0
C155 C 0.15999 0.56323 0.44123 0.0
H156 H 0.57003 0.08174 0.69984 0.0
H157 H 0.61886 0.97219 0.69296 0.0
H158 H 0.59386 0.02125 0.77829 0.0
C159 C 0.5817 0.05769 0.71034 0.0
C160 C 0.58091 0.05553 0.74119 0.0
C161 C 0.59548 0.02793 0.69279 0.0
C162 C 0.60988 0.99622 0.70646 0.0
C163 C 0.60815 0.99259 0.73742 0.0
C164 C 0.59394 0.02273 0.75449 0.0
H165 H 0.40592 0.28514 0.01729 0.0
H166 H 0.61388 0.34513 0.03908 0.0
H167 H 0.43804 0.23245 0.09694 0.0
C168 C 0.43929 0.28308 0.03125 0.0
C169 C 0.41249 0.25511 0.05823 0.0
C170 C 0.51204 0.31615 0.02413 0.0
C171 C 0.55668 0.31628 0.04301 0.0
C172 C 0.53001 0.28619 0.06931 0.0
C173 C 0.45721 0.25337 0.07598 0.0
H174 H 0.22789 0.31801 0.07812 0.0
H175 H 0.34011 0.37442 0.16149 0.0
H176 H 0.37235 0.31614 0.15244 0.0
H177 H 0.39674 0.2738 0.11545 0.0
H178 H 0.28743 0.21767 0.03122 0.0
H179 H 0.22385 0.2498 0.04653 0.0
C180 C 0.25684 0.31563 0.0948 0.0
C181 C 0.28384 0.35183 0.11995 0.0
C182 C 0.27692 0.28316 0.08907 0.0
C183 C 0.3206 0.34802 0.14158 0.0
C184 C 0.3391 0.31479 0.13639 0.0
C185 C 0.35667 0.26568 0.10067 0.0
C186 C 0.3503 0.24624 0.07146 0.0
C187 C 0.3219 0.28561 0.1093 0.0
C188 C 0.29629 0.23518 0.05333 0.0
C189 C 0.26001 0.25377 0.06203 0.0
H190 H 0.81466 0.28185 0.46871 0.0
H191 H 0.92839 0.22167 0.45502 0.0
H192 H 1.03789 0.31829 0.44449 0.0
H193 H 1.09908 0.41881 0.43463 0.0
H194 H 0.98801 0.48048 0.45004 0.0
H195 H 0.88057 0.38516 0.46481 0.0
C196 C 0.86365 0.29002 0.46378 0.0
C197 C 0.86285 0.24419 0.46247 0.0
C198 C 0.92717 0.34621 0.45807 0.0
C199 C 0.92716 0.25585 0.45628 0.0
C200 C 0.98995 0.31122 0.45013 0.0
C201 C 1.05192 0.41157 0.44206 0.0
C202 C 1.05161 0.45667 0.44161 0.0
C203 C 0.99035 0.35658 0.45042 0.0
C204 C 0.98985 0.44666 0.45073 0.0
C205 C 0.9282 0.39199 0.45886 0.0
H206 H 0.61223 0.82707 0.81396 0.0
H207 H 0.78625 0.88545 0.75563 0.0
H208 H 0.77002 0.94473 0.73048 0.0
H209 H 0.70658 0.98066 0.72499 0.0
H210 H 0.53134 0.92077 0.78291 0.0
H211 H 0.54771 0.8616 0.80798 0.0
C212 C 0.64626 0.85235 0.79559 0.0
C213 C 0.70059 0.85171 0.78688 0.0
C214 C 0.6365 0.88635 0.78108 0.0
C215 C 0.74471 0.88557 0.76322 0.0
C216 C 0.73517 0.91931 0.74864 0.0
C217 C 0.67162 0.95433 0.74294 0.0
C218 C 0.61807 0.95565 0.75208 0.0
C219 C 0.68128 0.92014 0.75737 0.0
C220 C 0.57378 0.92152 0.77564 0.0
C221 C 0.58282 0.88731 0.78994 0.0
H222 H 0.80572 0.40062 0.14523 0.0
H223 H 0.71084 0.45523 0.19583 0.0
H224 H 0.60011 0.39034 0.1667 0.0
H225 H 0.5389 0.33025 0.12244 0.0
H226 H 0.63893 0.28404 0.06837 0.0
H227 H 0.73916 0.33279 0.10357 0.0
C228 C 0.75994 0.39699 0.15038 0.0
C229 C 0.76591 0.43234 0.1726 0.0
C230 C 0.69798 0.36155 0.13276 0.0
C231 C 0.70708 0.42833 0.17878 0.0
C232 C 0.64409 0.39145 0.16209 0.0
C233 C 0.58148 0.3292 0.11891 0.0
C234 C 0.58154 0.30322 0.0931 0.0
C235 C 0.64003 0.35949 0.1384 0.0
C236 C 0.63785 0.30348 0.08825 0.0
C237 C 0.69515 0.33162 0.10823 0.0
H238 H 0.49171 0.84925 0.47786 0.0
H239 H 0.41603 0.91006 0.42137 0.0
H240 H 0.30817 0.81277 0.41003 0.0
H241 H 0.23801 0.71013 0.41302 0.0
H242 H 0.31014 0.64598 0.46841 0.0
H243 H 0.41493 0.74407 0.48381 0.0
C244 C 0.45142 0.84119 0.46322 0.0
C245 C 0.463 0.88754 0.45033 0.0
C246 C 0.38829 0.78426 0.45666 0.0
C247 C 0.40953 0.87584 0.43157 0.0
C248 C 0.34736 0.81993 0.42502 0.0
C249 C 0.27611 0.71758 0.42884 0.0
C250 C 0.2663 0.67077 0.43949 0.0
C251 C 0.33659 0.77386 0.43706 0.0
C252 C 0.31599 0.68115 0.46008 0.0
C253 C 0.37638 0.73734 0.46861 0.0
H254 H 0.47255 0.15025 0.82626 0.0
H255 H 0.62154 0.29967 0.77461 0.0
H256 H 0.65174 0.25035 0.74621 0.0
H257 H 0.63569 0.16467 0.73564 0.0
H258 H 0.48869 0.01533 0.78752 0.0
H259 H 0.45833 0.06456 0.81624 0.0
C260 C 0.51138 0.17182 0.80871 0.0
C261 C 0.54477 0.22864 0.80263 0.0
C262 C 0.5291 0.14325 0.79253 0.0
C263 C 0.59557 0.2562 0.77998 0.0
C264 C 0.61271 0.22794 0.76363 0.0
C265 C 0.59681 0.14283 0.75317 0.0
C266 C 0.5644 0.08632 0.75934 0.0
C267 C 0.57983 0.17149 0.76966 0.0
C268 C 0.51492 0.05897 0.78245 0.0
C269 C 0.49721 0.08701 0.79878 0.0
H270 H 0.77377 0.81689 0.51266 0.0
H271 H 0.57796 0.76594 0.54933 0.0
H272 H 0.55433 0.68504 0.57236 0.0
H273 H 0.59068 0.6301 0.58284 0.0
H274 H 0.78454 0.67951 0.54509 0.0
H275 H 0.80674 0.75918 0.52094 0.0
C276 C 0.72526 0.78757 0.52525 0.0
C277 C 0.67787 0.79758 0.52937 0.0
C278 C 0.7117 0.74098 0.53817 0.0
C279 C 0.61589 0.7597 0.54621 0.0
C280 C 0.60214 0.71329 0.55925 0.0
C281 C 0.63785 0.65851 0.56937 0.0
C282 C 0.68632 0.64957 0.56587 0.0
C283 C 0.65006 0.70391 0.5556 0.0
C284 C 0.74654 0.68575 0.54797 0.0
C285 C 0.75932 0.73129 0.5343 0.0
H286 H 0.87393 0.60219 0.83827 0.0
H287 H 0.71168 0.45165 0.887 0.0
H288 H 0.79483 0.43673 0.89634 0.0
H289 H 0.91566 0.46751 0.89341 0.0
H290 H 1.08005 0.61584 0.8444 0.0
H291 H 0.99521 0.62925 0.83215 0.0
C292 C 0.85652 0.566 0.85088 0.0
C293 C 0.78496 0.5283 0.86189 0.0
C294 C 0.90555 0.55666 0.856 0.0
C295 C 0.76499 0.48158 0.87795 0.0
C296 C 0.81308 0.47286 0.88342 0.0
C297 C 0.93287 0.50213 0.87938 0.0
C298 C 1.00518 0.53999 0.86958 0.0
C299 C 0.88361 0.51005 0.87275 0.0
C300 C 1.02525 0.58496 0.85184 0.0
C301 C 0.9765 0.59314 0.84518 0.0
H302 H 0.45395 0.78116 0.13812 0.0
H303 H 0.31367 0.78375 0.19408 0.0
H304 H 0.41003 0.88425 0.20525 0.0
H305 H 0.53572 0.97055 0.20226 0.0
H306 H 0.67967 0.97177 0.14743 0.0
H307 H 0.58066 0.87185 0.13225 0.0
C308 C 0.44438 0.80382 0.15258 0.0
C309 C 0.37616 0.77405 0.16539 0.0
C310 C 0.50086 0.8627 0.15911 0.0
C311 C 0.36516 0.80468 0.18396 0.0
C312 C 0.42045 0.86257 0.19042 0.0
C313 C 0.54529 0.94916 0.18668 0.0
C314 C 0.61508 0.97851 0.17613 0.0
C315 C 0.48864 0.89178 0.17854 0.0
C316 C 0.62641 0.95033 0.15575 0.0
C317 C 0.56985 0.89297 0.14731 0.0
H318 H 0.67286 0.33399 0.5298 0.0
H319 H 0.5282 0.31269 0.46601 0.0
H320 H 0.54354 0.39183 0.48932 0.0
H321 H 0.59211 0.46303 0.52969 0.0
H322 H 0.73061 0.48006 0.5951 0.0
H323 H 0.72254 0.40567 0.5696 0.0
C324 C 0.64416 0.34629 0.52111 0.0
C325 C 0.59902 0.31713 0.49633 0.0
C326 C 0.65181 0.39077 0.53502 0.0
C327 C 0.56376 0.33468 0.48491 0.0
C328 C 0.57209 0.37966 0.49834 0.0
C329 C 0.62119 0.45085 0.53808 0.0
C330 C 0.66194 0.47676 0.56412 0.0
C331 C 0.61528 0.40751 0.52361 0.0
C332 C 0.69862 0.46027 0.57513 0.0
C333 C 0.69409 0.41792 0.56056 0.0
H334 H 0.34018 0.46152 0.84681 0.0
H335 H 0.51647 0.63311 0.87744 0.0
H336 H 0.43454 0.6503 0.88638 0.0
H337 H 0.31115 0.61627 0.88819 0.0
H338 H 0.13466 0.44817 0.85425 0.0
H339 H 0.21679 0.43082 0.84369 0.0
C340 C 0.36089 0.50278 0.85537 0.0
C341 C 0.43584 0.54567 0.86167 0.0
C342 C 0.31275 0.51345 0.85971 0.0
C343 C 0.46015 0.59892 0.87233 0.0
C344 C 0.41285 0.60895 0.87751 0.0
C345 C 0.29064 0.57631 0.87768 0.0
C346 C 0.21576 0.53414 0.87155 0.0
C347 C 0.33888 0.56665 0.87149 0.0
C348 C 0.19138 0.48227 0.85858 0.0
C349 C 0.23871 0.47201 0.85289 0.0
H350 H 1.06886 0.37572 0.14922 0.0
H351 H 0.93352 0.41657 0.16164 0.0
H352 H 0.82996 0.31662 0.16825 0.0
H353 H 0.77938 0.21867 0.17633 0.0
H354 H 0.91209 0.17569 0.16555 0.0
H355 H 1.01392 0.27413 0.15196 0.0
C356 C 1.01652 0.36256 0.15292 0.0
C357 C 1.00973 0.40418 0.15549 0.0
C358 C 0.95624 0.30421 0.15698 0.0
C359 C 0.94111 0.38602 0.16018 0.0
C360 C 0.88142 0.32858 0.16386 0.0
C361 C 0.82998 0.23054 0.16999 0.0
C362 C 0.83795 0.18987 0.17133 0.0
C363 C 0.88856 0.28747 0.1631 0.0
C364 C 0.90433 0.20603 0.16397 0.0
C365 C 0.96277 0.26252 0.15659 0.0
H366 H 1.04299 0.5222 0.06671 0.0
H367 H 0.27353 0.64788 0.07302 0.0
H368 H 0.28219 0.64342 0.01947 0.0
H369 H 0.22361 0.60586 0.9705 0.0
H370 H 0.99282 0.47849 0.96493 0.0
H371 H 0.98499 0.48169 0.01832 0.0
C372 C 1.09511 0.54859 0.05635 0.0
C373 C 0.15746 0.58564 0.07375 0.0
C374 C 1.09966 0.54562 0.02559 0.0
C375 C 0.22468 0.61921 0.06006 0.0
C376 C 0.22966 0.61664 0.02944 0.0
C377 C 0.1717 0.57835 0.98101 0.0
C378 C 0.1089 0.5425 0.96359 0.0
C379 C 0.16745 0.58023 0.01192 0.0
C380 C 1.04201 0.50734 0.97766 0.0
C381 C 1.03741 0.50892 0.00826 0.0
H382 H 0.80775 0.12456 0.37112 0.0
H383 H 0.57951 0.0254 0.37681 0.0
H384 H 0.57085 0.02378 0.32309 0.0
H385 H 0.62796 0.048 0.27442 0.0
H386 H 0.85611 0.14584 0.26919 0.0
H387 H 0.86509 0.15098 0.32281 0.0
C388 C 0.75615 0.10283 0.3606 0.0
C389 C 0.6943 0.07484 0.37783 0.0
C390 C 0.75159 0.10178 0.32979 0.0
C391 C 0.62787 0.04714 0.36396 0.0
C392 C 0.62289 0.04609 0.33327 0.0
C393 C 0.67957 0.07021 0.28504 0.0
C394 C 0.74125 0.09636 0.26779 0.0
C395 C 0.6843 0.07271 0.31594 0.0
C396 C 0.80792 0.12581 0.28191 0.0
C397 C 0.81306 0.12853 0.31258 0.0
H398 H 0.5038 0.47616 0.7508 0.0
H399 H 0.72556 0.60033 0.77811 0.0
H400 H 0.76226 0.62295 0.72664 0.0
H401 H 0.73099 0.60362 0.67362 0.0
H402 H 0.50971 0.476 0.64682 0.0
H403 H 0.47257 0.45809 0.69842 0.0
C404 C 0.56013 0.50847 0.74549 0.0
C405 C 0.61197 0.53656 0.76807 0.0
C406 C 0.58071 0.52018 0.71598 0.0
C407 C 0.68475 0.57829 0.76098 0.0
C408 C 0.70573 0.59104 0.73161 0.0
C409 C 0.67479 0.57214 0.67932 0.0
C410 C 0.62281 0.54088 0.65695 0.0
C411 C 0.65422 0.56168 0.70893 0.0
C412 C 0.55013 0.5001 0.66405 0.0
C413 C 0.52908 0.49001 0.6934 0.0
H414 H 0.52378 0.02311 0.55909 0.0
H415 H 0.73788 0.08542 0.54803 0.0
H416 H 0.74686 0.07776 0.60102 0.0
H417 H 0.69453 0.05612 0.65114 0.0
H418 H 0.48253 0.9985 0.66145 0.0
H419 H 0.47191 1.00142 0.60833 0.0
C420 C 0.57238 0.03489 0.56824 0.0
C421 C 0.63007 0.0548 0.54963 0.0
C422 C 0.57752 0.03129 0.59872 0.0
C423 C 0.69271 0.07 0.56188 0.0
C424 C 0.69784 0.06563 0.5922 0.0
C425 C 0.64594 0.04381 0.64161 0.0
C426 C 0.58939 0.0272 0.66018 0.0
C427 C 0.64072 0.04667 0.61092 0.0
C428 C 0.5269 1.01179 0.64763 0.0
C429 C 0.52078 1.0134 0.61726 0.0
H430 H 0.68056 0.49869 0.92378 0.0
H431 H 0.52943 0.51945 0.94707 0.0
H432 H 0.48067 0.44955 0.98572 0.0
H433 H 0.47896 0.38144 0.01163 0.0
H434 H 0.61949 0.35076 0.98518 0.0
H435 H 0.67513 0.42607 0.94898 0.0
C436 C 0.63774 0.4883 0.93772 0.0
C437 C 0.60924 0.5146 0.93327 0.0
C438 C 0.60768 0.44598 0.95889 0.0
C439 C 0.55256 0.5001 0.95066 0.0
C440 C 0.52448 0.45997 0.97252 0.0
C441 C 0.52047 0.38989 -0.00248 0.0
C442 C 0.54389 0.35945 0.00081 0.0
C443 C 0.55088 0.43207 0.97649 0.0
C444 C 0.60015 0.37329 0.98308 0.0
C445 C 0.63198 0.41634 0.96239 0.0
H446 H 0.11961 0.52995 0.24051 0.0
H447 H 0.35032 0.64202 0.24501 0.0
H448 H 0.3464 0.6411 0.29863 0.0
H449 H 0.27812 0.60878 0.34423 0.0
H450 H 1.04758 0.49792 0.34062 0.0
H451 H 1.0506 0.49708 0.28675 0.0
C452 C 0.1689 0.55413 0.25329 0.0
C453 C 0.23516 0.58599 0.23885 0.0
C454 C 0.1663 0.55331 0.28426 0.0
C455 C 0.29864 0.61709 0.25562 0.0
C456 C 0.29649 0.61658 0.28629 0.0
C457 C 0.22851 0.58472 0.33168 0.0
C458 C 0.16279 0.55368 0.34646 0.0
C459 C 0.23071 0.58492 0.30083 0.0
C460 C 1.0989 0.52178 0.32981 0.0
C461 C 1.10062 0.5216 0.29901 0.0
loop_
_geom_bond_atom_site_label_1
_geom_bond_atom_site_label_2
_geom_bond_distance
_geom_bond_site_symmetry_2
_ccdc_geom_bond_type
Sm0 C2 2.846 . S
Sm0 O20 2.543 . S
Sm0 O21 2.450 . S
Sm0 O22 2.681 . S
Sm0 O23 2.464 . S
Sm0 O24 2.396 . S
Sm0 O28 2.386 . S
Sm0 O31 2.408 1_455 S
Sm1 C11 2.846 . S
Sm1 O22 2.386 1_655 S
Sm1 O25 2.408 1_655 S
Sm1 O26 2.543 . S
Sm1 O27 2.450 . S
Sm1 O28 2.681 1_655 S
Sm1 O29 2.464 . S
Sm1 O30 2.396 . S
C2 Sm0 2.846 . S
C2 C3 1.506 . S
C2 O20 1.261 . S
C2 O21 1.242 . S
C3 C2 1.506 . S
C3 C4 1.358 . S
C3 C8 1.382 . S
C4 C3 1.358 . S
C4 C5 1.385 . S
C4 H32 0.930 . S
C5 C4 1.385 . S
C5 C6 1.395 . S
C5 H33 0.929 . S
C6 C5 1.395 . S
C6 C7 1.335 . S
C7 C6 1.335 . S
C7 C8 1.398 . S
C7 H34 0.930 . S
C8 C3 1.382 . S
C8 C7 1.398 . S
C8 H35 0.929 . S
C9 O22 1.271 . S
C9 O23 1.251 . S
C10 O24 1.252 . S
C10 O25 1.272 . S
C11 Sm1 2.846 . S
C11 C12 1.506 . S
C11 O26 1.261 . S
C11 O27 1.242 . S
C12 C11 1.506 . S
C12 C13 1.358 . S
C12 C17 1.382 . S
C13 C12 1.358 . S
C13 C14 1.385 . S
C13 H36 0.930 . S
C14 C13 1.385 . S
C14 C15 1.395 . S
C14 H37 0.929 . S
C15 C14 1.395 . S
C15 C16 1.335 . S
C16 C15 1.335 . S
C16 C17 1.398 . S
C16 H38 0.930 . S
C17 C12 1.382 . S
C17 C16 1.398 . S
C17 H39 0.929 . S
C18 O28 1.271 . S
C18 O29 1.251 1_455 S
C19 O30 1.252 . S
C19 O31 1.272 . S
O20 Sm0 2.543 . S
O20 C2 1.261 . S
O21 Sm0 2.450 . S
O21 C2 1.242 . S
O22 Sm0 2.681 . S
O22 Sm1 2.386 1_455 S
O22 C9 1.271 . S
O23 Sm0 2.464 . S
O23 C9 1.251 . S
O24 Sm0 2.396 . S
O24 C10 1.252 . S
O25 Sm1 2.408 1_455 S
O25 C10 1.272 . S
O26 Sm1 2.543 . S
O26 C11 1.261 . S
O27 Sm1 2.450 . S
O27 C11 1.242 . S
O28 Sm0 2.386 . S
O28 Sm1 2.681 1_455 S
O28 C18 1.271 . S
O29 Sm1 2.464 . S
O29 C18 1.251 1_655 S
O30 Sm1 2.396 . S
O30 C19 1.252 . S
O31 Sm0 2.408 1_655 S
O31 C19 1.272 . S
H32 C4 0.930 . S
H33 C5 0.929 . S
H34 C7 0.930 . S
H35 C8 0.929 . S
H36 C13 0.930 . S
H37 C14 0.929 . S
H38 C16 0.930 . S
H39 C17 0.929 . S
Sm40 C42 2.846 . S
Sm40 O60 2.543 . S
Sm40 O61 2.450 . S
Sm40 O62 2.681 1_565 S
Sm40 O63 2.464 . S
Sm40 O64 2.396 . S
Sm40 O68 2.386 . S
Sm40 O71 2.408 1_565 S
Sm41 C51 2.846 . S
Sm41 O62 2.386 . S
Sm41 O65 2.408 1_545 S
Sm41 O66 2.543 . S
Sm41 O67 2.450 . S
Sm41 O68 2.681 1_545 S
Sm41 O69 2.464 . S
Sm41 O70 2.396 . S
C42 Sm40 2.846 . S
C42 C43 1.506 . S
C42 O60 1.261 . S
C42 O61 1.242 . S
C43 C42 1.506 . S
C43 C44 1.358 . S
C43 C48 1.382 . S
C44 C43 1.358 . S
C44 C45 1.385 . S
C44 H72 0.930 . S
C45 C44 1.385 . S
C45 C46 1.395 . S
C45 H73 0.929 . S
C46 C45 1.395 . S
C46 C47 1.335 . S
C47 C46 1.335 . S
C47 C48 1.398 . S
C47 H74 0.930 . S
C48 C43 1.382 . S
C48 C47 1.398 . S
C48 H75 0.929 . S
C49 O62 1.271 . S
C49 O63 1.251 1_545 S
C50 O64 1.252 . S
C50 O65 1.272 . S
C51 Sm41 2.846 . S
C51 C52 1.506 . S
C51 O66 1.261 . S
C51 O67 1.242 . S
C52 C51 1.506 . S
C52 C53 1.358 . S
C52 C57 1.382 . S
C53 C52 1.358 . S
C53 C54 1.385 . S
C53 H76 0.930 . S
C54 C53 1.385 . S
C54 C55 1.395 . S
C54 H77 0.929 . S
C55 C54 1.395 . S
C55 C56 1.335 . S
C56 C55 1.335 . S
C56 C57 1.398 . S
C56 H78 0.930 . S
C57 C52 1.382 . S
C57 C56 1.398 . S
C57 H79 0.929 . S
C58 O68 1.271 1_545 S
C58 O69 1.251 . S
C59 O70 1.252 . S
C59 O71 1.272 . S
O60 Sm40 2.543 . S
O60 C42 1.261 . S
O61 Sm40 2.450 . S
O61 C42 1.242 . S
O62 Sm40 2.681 1_545 S
O62 Sm41 2.386 . S
O62 C49 1.271 . S
O63 Sm40 2.464 . S
O63 C49 1.251 1_565 S
O64 Sm40 2.396 . S
O64 C50 1.252 . S
O65 Sm41 2.408 1_565 S
O65 C50 1.272 . S
O66 Sm41 2.543 . S
O66 C51 1.261 . S
O67 Sm41 2.450 . S
O67 C51 1.242 . S
O68 Sm40 2.386 . S
O68 Sm41 2.681 1_565 S
O68 C58 1.271 1_565 S
O69 Sm41 2.464 . S
O69 C58 1.251 . S
O70 Sm41 2.396 . S
O70 C59 1.252 . S
O71 Sm40 2.408 1_545 S
O71 C59 1.272 . S
H72 C44 0.930 . S
H73 C45 0.929 . S
H74 C47 0.930 . S
H75 C48 0.929 . S
H76 C53 0.930 . S
H77 C54 0.929 . S
H78 C56 0.930 . S
H79 C57 0.929 . S
Sm80 C82 2.846 . S
Sm80 O100 2.543 . S
Sm80 O101 2.450 . S
Sm80 O102 2.681 . S
Sm80 O103 2.464 . S
Sm80 O104 2.396 . S
Sm80 O108 2.386 . S
Sm80 O111 2.408 . S
Sm81 C91 2.846 . S
Sm81 O102 2.386 . S
Sm81 O105 2.408 . S
Sm81 O106 2.543 . S
Sm81 O107 2.450 . S
Sm81 O108 2.681 . S
Sm81 O109 2.464 . S
Sm81 O110 2.396 . S
C82 Sm80 2.846 . S
C82 C83 1.506 . S
C82 O100 1.261 . S
C82 O101 1.242 . S
C83 C82 1.506 . S
C83 C84 1.358 . S
C83 C88 1.382 . S
C84 C83 1.358 . S
C84 C85 1.385 . S
C84 H112 0.930 . S
C85 C84 1.385 . S
C85 C86 1.395 . S
C85 H113 0.929 . S
C86 C85 1.395 . S
C86 C87 1.335 . S
C87 C86 1.335 . S
C87 C88 1.398 . S
C87 H114 0.930 . S
C88 C83 1.382 . S
C88 C87 1.398 . S
C88 H115 0.929 . S
C89 O102 1.271 . S
C89 O103 1.251 . S
C90 O104 1.252 . S
C90 O105 1.272 . S
C91 Sm81 2.846 . S
C91 C92 1.506 . S
C91 O106 1.261 . S
C91 O107 1.242 . S
C92 C91 1.506 . S
C92 C93 1.358 . S
C92 C97 1.382 . S
C93 C92 1.358 . S
C93 C94 1.385 . S
C93 H116 0.930 . S
C94 C93 1.385 . S
C94 C95 1.395 . S
C94 H117 0.929 . S
C95 C94 1.395 . S
C95 C96 1.335 . S
C96 C95 1.335 . S
C96 C97 1.398 . S
C96 H118 0.930 . S
C97 C92 1.382 . S
C97 C96 1.398 . S
C97 H119 0.929 . S
C98 O108 1.271 . S
C98 O109 1.251 . S
C99 O110 1.252 . S
C99 O111 1.272 . S
O100 Sm80 2.543 . S
O100 C82 1.261 . S
O101 Sm80 2.450 . S
O101 C82 1.242 . S
O102 Sm80 2.681 . S
O102 Sm81 2.386 . S
O102 C89 1.271 . S
O103 Sm80 2.464 . S
O103 C89 1.251 . S
O104 Sm80 2.396 . S
O104 C90 1.252 . S
O105 Sm81 2.408 . S
O105 C90 1.272 . S
O106 Sm81 2.543 . S
O106 C91 1.261 . S
O107 Sm81 2.450 . S
O107 C91 1.242 . S
O108 Sm80 2.386 . S
O108 Sm81 2.681 . S
O108 C98 1.271 . S
O109 Sm81 2.464 . S
O109 C98 1.251 . S
O110 Sm81 2.396 . S
O110 C99 1.252 . S
O111 Sm80 2.408 . S
O111 C99 1.272 . S
H112 C84 0.930 . S
H113 C85 0.929 . S
H114 C87 0.930 . S
H115 C88 0.929 . S
H116 C93 0.930 . S
H117 C94 0.929 . S
H118 C96 0.930 . S
H119 C97 0.929 . S
H120 C123 0.931 . S
H121 C126 0.928 . S
H122 C128 0.930 . S
C123 H120 0.931 . S
C123 C124 1.413 . S
C123 C125 1.360 1_565 S
C124 C123 1.413 . S
C124 C128 1.429 1_565 S
C125 C123 1.360 1_545 S
C125 C126 1.372 . S
C126 H121 0.928 . S
C126 C125 1.372 . S
C126 C127 1.404 . S
C127 C126 1.404 . S
C127 C128 1.391 . S
C128 H122 0.930 . S
C128 C124 1.429 1_545 S
C128 C127 1.391 . S
H129 C132 0.931 . S
H130 C135 0.928 . S
H131 C137 0.930 . S
C132 H129 0.931 . S
C132 C133 1.413 . S
C132 C134 1.360 . S
C133 C132 1.413 . S
C133 C137 1.429 . S
C134 C132 1.360 . S
C134 C135 1.372 . S
C135 H130 0.928 . S
C135 C134 1.372 . S
C135 C136 1.404 . S
C136 C135 1.404 . S
C136 C137 1.391 . S
C137 H131 0.930 . S
C137 C133 1.429 . S
C137 C136 1.391 . S
H138 C141 0.931 1_655 S
H139 C144 0.928 . S
H140 C146 0.930 . S
C141 H138 0.931 1_455 S
C141 C142 1.413 . S
C141 C143 1.360 . S
C142 C141 1.413 . S
C142 C146 1.429 . S
C143 C141 1.360 . S
C143 C144 1.372 . S
C144 H139 0.928 . S
C144 C143 1.372 . S
C144 C145 1.404 . S
C145 C144 1.404 . S
C145 C146 1.391 . S
C146 H140 0.930 . S
C146 C142 1.429 . S
C146 C145 1.391 . S
H147 C150 0.931 . S
H148 C153 0.928 . S
H149 C155 0.930 . S
C150 H147 0.931 . S
C150 C151 1.413 . S
C150 C152 1.358 1_655 S
C151 C150 1.413 . S
C151 C155 1.429 1_655 S
C152 C150 1.358 1_455 S
C152 C153 1.373 . S
C153 H148 0.928 . S
C153 C152 1.373 . S
C153 C154 1.404 . S
C154 C153 1.404 . S
C154 C155 1.391 . S
C155 H149 0.930 . S
C155 C151 1.429 1_455 S
C155 C154 1.391 . S
H156 C159 0.931 . S
H157 C162 0.928 . S
H158 C164 0.930 . S
C159 H156 0.931 . S
C159 C160 1.413 . S
C159 C161 1.360 1_545 S
C160 C159 1.413 . S
C160 C164 1.429 . S
C161 C159 1.360 1_565 S
C161 C162 1.372 . S
C162 H157 0.928 . S
C162 C161 1.372 . S
C162 C163 1.404 . S
C163 C162 1.404 . S
C163 C164 1.391 1_565 S
C164 H158 0.930 . S
C164 C160 1.429 . S
C164 C163 1.391 1_545 S
H165 C168 0.931 . S
H166 C171 0.928 . S
H167 C173 0.930 . S
C168 H165 0.931 . S
C168 C169 1.413 . S
C168 C170 1.360 . S
C169 C168 1.413 . S
C169 C173 1.429 . S
C170 C168 1.360 . S
C170 C171 1.372 . S
C171 H166 0.928 . S
C171 C170 1.372 . S
C171 C172 1.404 . S
C172 C171 1.404 . S
C172 C173 1.391 . S
C173 H167 0.930 . S
C173 C169 1.429 . S
C173 C172 1.391 . S
H174 C180 0.930 . S
H175 C183 0.930 . S
H176 C184 0.930 . S
H177 C185 0.930 . S
H178 C188 0.930 . S
H179 C189 0.930 . S
C180 H174 0.930 . S
C180 C181 1.355 . S
C180 C182 1.415 . S
C181 C180 1.355 . S
C181 C183 1.419 . S
C182 C180 1.415 . S
C182 C187 1.425 . S
C182 C189 1.409 . S
C183 H175 0.930 . S
C183 C181 1.419 . S
C183 C184 1.362 . S
C184 H176 0.930 . S
C184 C183 1.362 . S
C184 C187 1.409 . S
C185 H177 0.930 . S
C185 C186 1.355 . S
C185 C187 1.415 . S
C186 C185 1.355 . S
C186 C188 1.419 . S
C187 C182 1.425 . S
C187 C184 1.409 . S
C187 C185 1.415 . S
C188 H178 0.930 . S
C188 C186 1.419 . S
C188 C189 1.362 . S
C189 H179 0.930 . S
C189 C182 1.409 . S
C189 C188 1.362 . S
H190 C196 0.930 . S
H191 C199 0.930 . S
H192 C200 0.930 . S
H193 C201 0.930 . S
H194 C204 0.930 . S
H195 C205 0.930 . S
C196 H190 0.930 . S
C196 C197 1.355 . S
C196 C198 1.415 . S
C197 C196 1.355 . S
C197 C199 1.419 . S
C198 C196 1.415 . S
C198 C203 1.425 . S
C198 C205 1.409 . S
C199 H191 0.930 . S
C199 C197 1.419 . S
C199 C200 1.362 . S
C200 H192 0.930 . S
C200 C199 1.362 . S
C200 C203 1.409 . S
C201 H193 0.930 . S
C201 C202 1.355 . S
C201 C203 1.415 . S
C202 C201 1.355 . S
C202 C204 1.419 . S
C203 C198 1.425 . S
C203 C200 1.409 . S
C203 C201 1.415 . S
C204 H194 0.930 . S
C204 C202 1.419 . S
C204 C205 1.362 . S
C205 H195 0.930 . S
C205 C198 1.409 . S
C205 C204 1.362 . S
H206 C212 0.930 . S
H207 C215 0.930 . S
H208 C216 0.930 . S
H209 C217 0.930 . S
H210 C220 0.930 . S
H211 C221 0.930 . S
C212 H206 0.930 . S
C212 C213 1.355 . S
C212 C214 1.415 . S
C213 C212 1.355 . S
C213 C215 1.419 . S
C214 C212 1.415 . S
C214 C219 1.425 . S
C214 C221 1.409 . S
C215 H207 0.930 . S
C215 C213 1.419 . S
C215 C216 1.362 . S
C216 H208 0.930 . S
C216 C215 1.362 . S
C216 C219 1.409 . S
C217 H209 0.930 . S
C217 C218 1.355 . S
C217 C219 1.415 . S
C218 C217 1.355 . S
C218 C220 1.419 . S
C219 C214 1.425 . S
C219 C216 1.409 . S
C219 C217 1.415 . S
C220 H210 0.930 . S
C220 C218 1.419 . S
C220 C221 1.362 . S
C221 H211 0.930 . S
C221 C214 1.409 . S
C221 C220 1.362 . S
H222 C228 0.930 . S
H223 C231 0.930 . S
H224 C232 0.930 . S
H225 C233 0.930 . S
H226 C236 0.930 . S
H227 C237 0.930 . S
C228 H222 0.930 . S
C228 C229 1.355 . S
C228 C230 1.415 . S
C229 C228 1.355 . S
C229 C231 1.419 . S
C230 C228 1.415 . S
C230 C235 1.425 . S
C230 C237 1.409 . S
C231 H223 0.930 . S
C231 C229 1.419 . S
C231 C232 1.362 . S
C232 H224 0.930 . S
C232 C231 1.362 . S
C232 C235 1.409 . S
C233 H225 0.930 . S
C233 C234 1.355 . S
C233 C235 1.415 . S
C234 C233 1.355 . S
C234 C236 1.419 . S
C235 C230 1.425 . S
C235 C232 1.409 . S
C235 C233 1.415 . S
C236 H226 0.930 . S
C236 C234 1.419 . S
C236 C237 1.362 . S
C237 H227 0.930 . S
C237 C230 1.409 . S
C237 C236 1.362 . S
H238 C244 0.930 . S
H239 C247 0.930 . S
H240 C248 0.930 . S
H241 C249 0.930 . S
H242 C252 0.930 . S
H243 C253 0.930 . S
C244 H238 0.930 . S
C244 C245 1.355 . S
C244 C246 1.415 . S
C245 C244 1.355 . S
C245 C247 1.419 . S
C246 C244 1.415 . S
C246 C251 1.425 . S
C246 C253 1.409 . S
C247 H239 0.930 . S
C247 C245 1.419 . S
C247 C248 1.362 . S
C248 H240 0.930 . S
C248 C247 1.362 . S
C248 C251 1.409 . S
C249 H241 0.930 . S
C249 C250 1.355 . S
C249 C251 1.415 . S
C250 C249 1.355 . S
C250 C252 1.419 . S
C251 C246 1.425 . S
C251 C248 1.409 . S
C251 C249 1.415 . S
C252 H242 0.930 . S
C252 C250 1.419 . S
C252 C253 1.362 . S
C253 H243 0.930 . S
C253 C246 1.409 . S
C253 C252 1.362 . S
H254 C260 0.930 . S
H255 C263 0.930 . S
H256 C264 0.930 . S
H257 C265 0.930 . S
H258 C268 0.930 . S
H259 C269 0.930 . S
C260 H254 0.930 . S
C260 C261 1.355 . S
C260 C262 1.415 . S
C261 C260 1.355 . S
C261 C263 1.419 . S
C262 C260 1.415 . S
C262 C267 1.425 . S
C262 C269 1.409 . S
C263 H255 0.930 . S
C263 C261 1.419 . S
C263 C264 1.362 . S
C264 H256 0.930 . S
C264 C263 1.362 . S
C264 C267 1.409 . S
C265 H257 0.930 . S
C265 C266 1.355 . S
C265 C267 1.415 . S
C266 C265 1.355 . S
C266 C268 1.419 . S
C267 C262 1.425 . S
C267 C264 1.409 . S
C267 C265 1.415 . S
C268 H258 0.930 . S
C268 C266 1.419 . S
C268 C269 1.362 . S
C269 H259 0.930 . S
C269 C262 1.409 . S
C269 C268 1.362 . S
H270 C276 0.930 . S
H271 C279 0.930 . S
H272 C280 0.930 . S
H273 C281 0.930 . S
H274 C284 0.930 . S
H275 C285 0.930 . S
C276 H270 0.930 . S
C276 C277 1.355 . S
C276 C278 1.415 . S
C277 C276 1.355 . S
C277 C279 1.419 . S
C278 C276 1.415 . S
C278 C283 1.425 . S
C278 C285 1.409 . S
C279 H271 0.930 . S
C279 C277 1.419 . S
C279 C280 1.362 . S
C280 H272 0.930 . S
C280 C279 1.362 . S
C280 C283 1.409 . S
C281 H273 0.930 . S
C281 C282 1.355 . S
C281 C283 1.415 . S
C282 C281 1.355 . S
C282 C284 1.419 . S
C283 C278 1.425 . S
C283 C280 1.409 . S
C283 C281 1.415 . S
C284 H274 0.930 . S
C284 C282 1.419 . S
C284 C285 1.362 . S
C285 H275 0.930 . S
C285 C278 1.409 . S
C285 C284 1.362 . S
H286 C292 0.930 . S
H287 C295 0.930 . S
H288 C296 0.930 . S
H289 C297 0.930 . S
H290 C300 0.930 . S
H291 C301 0.930 . S
C292 H286 0.930 . S
C292 C293 1.355 . S
C292 C294 1.415 . S
C293 C292 1.355 . S
C293 C295 1.419 . S
C294 C292 1.415 . S
C294 C299 1.425 . S
C294 C301 1.409 . S
C295 H287 0.930 . S
C295 C293 1.419 . S
C295 C296 1.362 . S
C296 H288 0.930 . S
C296 C295 1.362 . S
C296 C299 1.409 . S
C297 H289 0.930 . S
C297 C298 1.355 . S
C297 C299 1.415 . S
C298 C297 1.355 . S
C298 C300 1.419 . S
C299 C294 1.425 . S
C299 C296 1.409 . S
C299 C297 1.415 . S
C300 H290 0.930 . S
C300 C298 1.419 . S
C300 C301 1.362 . S
C301 H291 0.930 . S
C301 C294 1.409 . S
C301 C300 1.362 . S
H302 C308 0.930 . S
H303 C311 0.930 . S
H304 C312 0.930 . S
H305 C313 0.930 . S
H306 C316 0.930 . S
H307 C317 0.930 . S
C308 H302 0.930 . S
C308 C309 1.355 . S
C308 C310 1.415 . S
C309 C308 1.355 . S
C309 C311 1.419 . S
C310 C308 1.415 . S
C310 C315 1.425 . S
C310 C317 1.409 . S
C311 H303 0.930 . S
C311 C309 1.419 . S
C311 C312 1.362 . S
C312 H304 0.930 . S
C312 C311 1.362 . S
C312 C315 1.409 . S
C313 H305 0.930 . S
C313 C314 1.355 . S
C313 C315 1.415 . S
C314 C313 1.355 . S
C314 C316 1.419 . S
C315 C310 1.425 . S
C315 C312 1.409 . S
C315 C313 1.415 . S
C316 H306 0.930 . S
C316 C314 1.419 . S
C316 C317 1.362 . S
C317 H307 0.930 . S
C317 C310 1.409 . S
C317 C316 1.362 . S
H318 C324 0.930 . S
H319 C327 0.930 . S
H320 C328 0.930 . S
H321 C329 0.930 . S
H322 C332 0.930 . S
H323 C333 0.930 . S
C324 H318 0.930 . S
C324 C325 1.355 . S
C324 C326 1.415 . S
C325 C324 1.355 . S
C325 C327 1.419 . S
C326 C324 1.415 . S
C326 C331 1.425 . S
C326 C333 1.409 . S
C327 H319 0.930 . S
C327 C325 1.419 . S
C327 C328 1.362 . S
C328 H320 0.930 . S
C328 C327 1.362 . S
C328 C331 1.409 . S
C329 H321 0.930 . S
C329 C330 1.355 . S
C329 C331 1.415 . S
C330 C329 1.355 . S
C330 C332 1.419 . S
C331 C326 1.425 . S
C331 C328 1.409 . S
C331 C329 1.415 . S
C332 H322 0.930 . S
C332 C330 1.419 . S
C332 C333 1.362 . S
C333 H323 0.930 . S
C333 C326 1.409 . S
C333 C332 1.362 . S
H334 C340 0.930 . S
H335 C343 0.930 . S
H336 C344 0.930 . S
H337 C345 0.930 . S
H338 C348 0.930 . S
H339 C349 0.930 . S
C340 H334 0.930 . S
C340 C341 1.355 . S
C340 C342 1.415 . S
C341 C340 1.355 . S
C341 C343 1.419 . S
C342 C340 1.415 . S
C342 C347 1.425 . S
C342 C349 1.409 . S
C343 H335 0.930 . S
C343 C341 1.419 . S
C343 C344 1.362 . S
C344 H336 0.930 . S
C344 C343 1.362 . S
C344 C347 1.409 . S
C345 H337 0.930 . S
C345 C346 1.355 . S
C345 C347 1.415 . S
C346 C345 1.355 . S
C346 C348 1.419 . S
C347 C342 1.425 . S
C347 C344 1.409 . S
C347 C345 1.415 . S
C348 H338 0.930 . S
C348 C346 1.419 . S
C348 C349 1.362 . S
C349 H339 0.930 . S
C349 C342 1.409 . S
C349 C348 1.362 . S
H350 C356 0.930 . S
H351 C359 0.930 . S
H352 C360 0.930 . S
H353 C361 0.930 . S
H354 C364 0.930 . S
H355 C365 0.930 . S
C356 H350 0.930 . S
C356 C357 1.355 . S
C356 C358 1.415 . S
C357 C356 1.355 . S
C357 C359 1.419 . S
C358 C356 1.415 . S
C358 C363 1.425 . S
C358 C365 1.409 . S
C359 H351 0.930 . S
C359 C357 1.419 . S
C359 C360 1.362 . S
C360 H352 0.930 . S
C360 C359 1.362 . S
C360 C363 1.409 . S
C361 H353 0.930 . S
C361 C362 1.355 . S
C361 C363 1.415 . S
C362 C361 1.355 . S
C362 C364 1.419 . S
C363 C358 1.425 . S
C363 C360 1.409 . S
C363 C361 1.415 . S
C364 H354 0.930 . S
C364 C362 1.419 . S
C364 C365 1.362 . S
C365 H355 0.930 . S
C365 C358 1.409 . S
C365 C364 1.362 . S
H366 C372 0.930 . S
H367 C375 0.930 . S
H368 C376 0.930 . S
H369 C377 0.930 . S
H370 C380 0.930 . S
H371 C381 0.930 . S
C372 H366 0.930 . S
C372 C373 1.355 1_655 S
C372 C374 1.415 1_655 S
C373 C372 1.355 1_455 S
C373 C375 1.419 . S
C374 C372 1.415 1_455 S
C374 C379 1.425 . S
C374 C381 1.409 1_455 S
C375 H367 0.930 . S
C375 C373 1.419 . S
C375 C376 1.362 . S
C376 H368 0.930 . S
C376 C375 1.362 . S
C376 C379 1.409 . S
C377 H369 0.930 . S
C377 C378 1.355 . S
C377 C379 1.415 1_556 S
C378 C377 1.355 . S
C378 C380 1.419 1_455 S
C379 C374 1.425 . S
C379 C376 1.409 . S
C379 C377 1.415 1_554 S
C380 H370 0.930 . S
C380 C378 1.419 1_655 S
C380 C381 1.362 1_556 S
C381 H371 0.930 . S
C381 C374 1.409 1_655 S
C381 C380 1.362 1_554 S
H382 C388 0.930 . S
H383 C391 0.930 . S
H384 C392 0.930 . S
H385 C393 0.930 . S
H386 C396 0.930 . S
H387 C397 0.930 . S
C388 H382 0.930 . S
C388 C389 1.355 1_565 S
C388 C390 1.415 . S
C389 C388 1.355 1_545 S
C389 C391 1.419 . S
C390 C388 1.415 . S
C390 C395 1.425 1_565 S
C390 C397 1.409 . S
C391 H383 0.930 . S
C391 C389 1.419 . S
C391 C392 1.362 . S
C392 H384 0.930 . S
C392 C391 1.362 . S
C392 C395 1.409 . S
C393 H385 0.930 . S
C393 C394 1.355 . S
C393 C395 1.415 . S
C394 C393 1.355 . S
C394 C396 1.419 1_545 S
C395 C390 1.425 1_545 S
C395 C392 1.409 . S
C395 C393 1.415 . S
C396 H386 0.930 . S
C396 C394 1.419 1_565 S
C396 C397 1.362 . S
C397 H387 0.930 . S
C397 C390 1.409 . S
C397 C396 1.362 . S
H398 C404 0.930 . S
H399 C407 0.930 . S
H400 C408 0.930 . S
H401 C409 0.930 . S
H402 C412 0.930 . S
H403 C413 0.930 . S
C404 H398 0.930 . S
C404 C405 1.355 . S
C404 C406 1.415 . S
C405 C404 1.355 . S
C405 C407 1.419 . S
C406 C404 1.415 . S
C406 C411 1.425 . S
C406 C413 1.409 . S
C407 H399 0.930 . S
C407 C405 1.419 . S
C407 C408 1.362 . S
C408 H400 0.930 . S
C408 C407 1.362 . S
C408 C411 1.409 . S
C409 H401 0.930 . S
C409 C410 1.355 . S
C409 C411 1.415 . S
C410 C409 1.355 . S
C410 C412 1.419 . S
C411 C406 1.425 . S
C411 C408 1.409 . S
C411 C409 1.415 . S
C412 H402 0.930 . S
C412 C410 1.419 . S
C412 C413 1.362 . S
C413 H403 0.930 . S
C413 C406 1.409 . S
C413 C412 1.362 . S
H414 C420 0.930 . S
H415 C423 0.930 . S
H416 C424 0.930 . S
H417 C425 0.930 . S
H418 C428 0.930 . S
H419 C429 0.930 . S
C420 H414 0.930 . S
C420 C421 1.355 . S
C420 C422 1.415 . S
C421 C420 1.355 . S
C421 C423 1.419 1_545 S
C422 C420 1.415 . S
C422 C427 1.425 1_545 S
C422 C429 1.409 . S
C423 H415 0.930 . S
C423 C421 1.419 1_565 S
C423 C424 1.362 . S
C424 H416 0.930 . S
C424 C423 1.362 . S
C424 C427 1.409 . S
C425 H417 0.930 . S
C425 C426 1.353 . S
C425 C427 1.415 . S
C426 C425 1.353 . S
C426 C428 1.421 1_565 S
C427 C422 1.425 1_565 S
C427 C424 1.409 . S
C427 C425 1.415 . S
C428 H418 0.930 . S
C428 C426 1.421 1_545 S
C428 C429 1.362 . S
C429 H419 0.930 . S
C429 C422 1.409 . S
C429 C428 1.362 . S
H430 C436 0.930 . S
H431 C439 0.930 . S
H432 C440 0.930 . S
H433 C441 0.930 . S
H434 C444 0.930 . S
H435 C445 0.930 . S
C436 H430 0.930 . S
C436 C437 1.355 . S
C436 C438 1.415 . S
C437 C436 1.355 . S
C437 C439 1.419 . S
C438 C436 1.415 . S
C438 C443 1.425 . S
C438 C445 1.409 . S
C439 H431 0.930 . S
C439 C437 1.419 . S
C439 C440 1.362 . S
C440 H432 0.930 . S
C440 C439 1.362 . S
C440 C443 1.409 . S
C441 H433 0.930 . S
C441 C442 1.355 . S
C441 C443 1.415 1_554 S
C442 C441 1.355 . S
C442 C444 1.419 . S
C443 C438 1.425 . S
C443 C440 1.409 . S
C443 C441 1.415 1_556 S
C444 H434 0.930 . S
C444 C442 1.419 . S
C444 C445 1.362 1_554 S
C445 H435 0.930 . S
C445 C438 1.409 . S
C445 C444 1.362 1_556 S
H446 C452 0.930 . S
H447 C455 0.930 1_655 S
H448 C456 0.930 . S
H449 C457 0.930 . S
H450 C460 0.930 . S
H451 C461 0.930 . S
C452 H446 0.930 . S
C452 C453 1.355 . S
C452 C454 1.415 . S
C453 C452 1.355 . S
C453 C455 1.419 . S
C454 C452 1.415 . S
C454 C459 1.417 . S
C454 C461 1.409 . S
C455 H447 0.930 1_455 S
C455 C453 1.419 . S
C455 C456 1.362 1_455 S
C456 H448 0.930 . S
C456 C455 1.362 1_655 S
C456 C459 1.417 1_655 S
C457 H449 0.930 . S
C457 C458 1.354 . S
C457 C459 1.415 1_655 S
C458 C457 1.354 . S
C458 C460 1.420 1_655 S
C459 C454 1.417 . S
C459 C456 1.417 1_455 S
C459 C457 1.415 1_455 S
C460 H450 0.930 . S
C460 C458 1.420 1_455 S
C460 C461 1.362 . S
C461 H451 0.930 . S
C461 C454 1.409 . S
C461 C460 1.362 . S
C181 C6 0.965 . S
C186 C169 0.967 . S
C197 C59 1.847 . S
C202 C151 1.837 . S
C213 C86 1.386 . S
C218 C163 1.481 . S
C229 C15 0.849 . S
C234 C172 0.776 . S
C250 C154 1.830 . S
C245 C50 1.844 . S
C266 C160 1.466 . S
C261 C95 1.436 . S
C277 C46 1.383 . S
C282 C133 1.406 . S
C293 C99 3.010 . S
C298 C142 2.982 1_655 S
C309 C10 1.861 . S
C314 C124 1.912 . S
C330 C136 1.474 . S
C325 C55 1.431 . S
C346 C145 2.937 . S
C341 C90 2.913 . S
C357 C19 1.846 . S
C362 C127 1.812 . S
C378 C143 1.795 . S
C373 C18 1.749 . S
C389 C49 1.318 . S
C394 C125 1.349 . S
C405 C98 1.457 . S
C410 C134 1.497 . S
C426 C161 1.466 . S
C421 C58 1.455 . S
C442 C170 1.019 . S
C437 C89 0.977 . S
C453 C9 1.256 . S
C458 C152 1.334 1_655 S
