# Generated by pormake.
# Topology ptr, (4,4)-cn, num edge types: 1
# Building blocks:
#     Node 0, Type 0, BuildingBlock: QUQFOY_clean_sbu_1, # of connection points: 4
#     Node 1, Type 0, BuildingBlock: QUQFOY_clean_sbu_1, # of connection points: 4
#     Node 2, Type 0, BuildingBlock: QUQFOY_clean_sbu_1, # of connection points: 4
#     Node 3, Type 0, BuildingBlock: QUQFOY_clean_sbu_1, # of connection points: 4
#     Node 4, Type 0, BuildingBlock: QUQFOY_clean_sbu_1, # of connection points: 4
#     Node 5, Type 0, BuildingBlock: QUQFOY_clean_sbu_1, # of connection points: 4
#     Node 6, Type 0, BuildingBlock: QUQFOY_clean_sbu_1, # of connection points: 4
#     Node 7, Type 0, BuildingBlock: QUQFOY_clean_sbu_1, # of connection points: 4
#     Node 8, Type 0, BuildingBlock: QUQFOY_clean_sbu_1, # of connection points: 4
#     Node 9, Type 0, BuildingBlock: QUQFOY_clean_sbu_1, # of connection points: 4
#     Node 10, Type 0, BuildingBlock: QUQFOY_clean_sbu_1, # of connection points: 4
#     Node 11, Type 0, BuildingBlock: QUQFOY_clean_sbu_1, # of connection points: 4
#     Node 12, Type 0, BuildingBlock: QUQFOY_clean_sbu_1, # of connection points: 4
#     Node 13, Type 0, BuildingBlock: QUQFOY_clean_sbu_1, # of connection points: 4
#     Node 14, Type 0, BuildingBlock: QUQFOY_clean_sbu_1, # of connection points: 4
#     Node 15, Type 0, BuildingBlock: QUQFOY_clean_sbu_1, # of connection points: 4
#     Node 16, Type 0, BuildingBlock: QUQFOY_clean_sbu_1, # of connection points: 4
#     Node 17, Type 0, BuildingBlock: QUQFOY_clean_sbu_1, # of connection points: 4
#     Node 18, Type 1, BuildingBlock: AZAVOO_clean_linker_0, # of connection points: 4
#     Node 19, Type 1, BuildingBlock: AZAVOO_clean_linker_0, # of connection points: 4
#     Node 20, Type 1, BuildingBlock: AZAVOO_clean_linker_0, # of connection points: 4
#     Node 21, Type 1, BuildingBlock: AZAVOO_clean_linker_0, # of connection points: 4
#     Node 22, Type 1, BuildingBlock: AZAVOO_clean_linker_0, # of connection points: 4
#     Node 23, Type 1, BuildingBlock: AZAVOO_clean_linker_0, # of connection points: 4
#     Node 24, Type 1, BuildingBlock: AZAVOO_clean_linker_0, # of connection points: 4
#     Node 25, Type 1, BuildingBlock: AZAVOO_clean_linker_0, # of connection points: 4
#     Node 26, Type 1, BuildingBlock: AZAVOO_clean_linker_0, # of connection points: 4
#     Node 27, Type 1, BuildingBlock: AZAVOO_clean_linker_0, # of connection points: 4
#     Node 28, Type 1, BuildingBlock: AZAVOO_clean_linker_0, # of connection points: 4
#     Node 29, Type 1, BuildingBlock: AZAVOO_clean_linker_0, # of connection points: 4
#     Node 30, Type 1, BuildingBlock: AZAVOO_clean_linker_0, # of connection points: 4
#     Node 31, Type 1, BuildingBlock: AZAVOO_clean_linker_0, # of connection points: 4
#     Node 32, Type 1, BuildingBlock: AZAVOO_clean_linker_0, # of connection points: 4
#     Node 33, Type 1, BuildingBlock: AZAVOO_clean_linker_0, # of connection points: 4
#     Node 34, Type 1, BuildingBlock: AZAVOO_clean_linker_0, # of connection points: 4
#     Node 35, Type 1, BuildingBlock: AZAVOO_clean_linker_0, # of connection points: 4
#     Edge 36, Type (0, 1), BuildingBlock: UVAHIK_clean_linker_0, # of connection points: 2
#     Edge 37, Type (0, 1), BuildingBlock: UVAHIK_clean_linker_0, # of connection points: 2
#     Edge 38, Type (0, 1), BuildingBlock: UVAHIK_clean_linker_0, # of connection points: 2
#     Edge 39, Type (0, 1), BuildingBlock: UVAHIK_clean_linker_0, # of connection points: 2
#     Edge 40, Type (0, 1), BuildingBlock: UVAHIK_clean_linker_0, # of connection points: 2
#     Edge 41, Type (0, 1), BuildingBlock: UVAHIK_clean_linker_0, # of connection points: 2
#     Edge 42, Type (0, 1), BuildingBlock: UVAHIK_clean_linker_0, # of connection points: 2
#     Edge 43, Type (0, 1), BuildingBlock: UVAHIK_clean_linker_0, # of connection points: 2
#     Edge 44, Type (0, 1), BuildingBlock: UVAHIK_clean_linker_0, # of connection points: 2
#     Edge 45, Type (0, 1), BuildingBlock: UVAHIK_clean_linker_0, # of connection points: 2
#     Edge 46, Type (0, 1), BuildingBlock: UVAHIK_clean_linker_0, # of connection points: 2
#     Edge 47, Type (0, 1), BuildingBlock: UVAHIK_clean_linker_0, # of connection points: 2
#     Edge 48, Type (0, 1), BuildingBlock: UVAHIK_clean_linker_0, # of connection points: 2
#     Edge 49, Type (0, 1), BuildingBlock: UVAHIK_clean_linker_0, # of connection points: 2
#     Edge 50, Type (0, 1), BuildingBlock: UVAHIK_clean_linker_0, # of connection points: 2
#     Edge 51, Type (0, 1), BuildingBlock: UVAHIK_clean_linker_0, # of connection points: 2
#     Edge 52, Type (0, 1), BuildingBlock: UVAHIK_clean_linker_0, # of connection points: 2
#     Edge 53, Type (0, 1), BuildingBlock: UVAHIK_clean_linker_0, # of connection points: 2
#     Edge 54, Type (0, 1), BuildingBlock: UVAHIK_clean_linker_0, # of connection points: 2
#     Edge 55, Type (0, 1), BuildingBlock: UVAHIK_clean_linker_0, # of connection points: 2
#     Edge 56, Type (0, 1), BuildingBlock: UVAHIK_clean_linker_0, # of connection points: 2
#     Edge 57, Type (0, 1), BuildingBlock: UVAHIK_clean_linker_0, # of connection points: 2
#     Edge 58, Type (0, 1), BuildingBlock: UVAHIK_clean_linker_0, # of connection points: 2
#     Edge 59, Type (0, 1), BuildingBlock: UVAHIK_clean_linker_0, # of connection points: 2
#     Edge 60, Type (0, 1), BuildingBlock: UVAHIK_clean_linker_0, # of connection points: 2
#     Edge 61, Type (0, 1), BuildingBlock: UVAHIK_clean_linker_0, # of connection points: 2
#     Edge 62, Type (0, 1), BuildingBlock: UVAHIK_clean_linker_0, # of connection points: 2
#     Edge 63, Type (0, 1), BuildingBlock: UVAHIK_clean_linker_0, # of connection points: 2
#     Edge 64, Type (0, 1), BuildingBlock: UVAHIK_clean_linker_0, # of connection points: 2
#     Edge 65, Type (0, 1), BuildingBlock: UVAHIK_clean_linker_0, # of connection points: 2
#     Edge 66, Type (0, 1), BuildingBlock: UVAHIK_clean_linker_0, # of connection points: 2
#     Edge 67, Type (0, 1), BuildingBlock: UVAHIK_clean_linker_0, # of connection points: 2
#     Edge 68, Type (0, 1), BuildingBlock: UVAHIK_clean_linker_0, # of connection points: 2
#     Edge 69, Type (0, 1), BuildingBlock: UVAHIK_clean_linker_0, # of connection points: 2
#     Edge 70, Type (0, 1), BuildingBlock: UVAHIK_clean_linker_0, # of connection points: 2
#     Edge 71, Type (0, 1), BuildingBlock: UVAHIK_clean_linker_0, # of connection points: 2
#     Edge 72, Type (0, 1), BuildingBlock: UVAHIK_clean_linker_0, # of connection points: 2
#     Edge 73, Type (0, 1), BuildingBlock: UVAHIK_clean_linker_0, # of connection points: 2
#     Edge 74, Type (0, 1), BuildingBlock: UVAHIK_clean_linker_0, # of connection points: 2
#     Edge 75, Type (0, 1), BuildingBlock: UVAHIK_clean_linker_0, # of connection points: 2
#     Edge 76, Type (0, 1), BuildingBlock: UVAHIK_clean_linker_0, # of connection points: 2
#     Edge 77, Type (0, 1), BuildingBlock: UVAHIK_clean_linker_0, # of connection points: 2
#     Edge 78, Type (0, 1), BuildingBlock: UVAHIK_clean_linker_0, # of connection points: 2
#     Edge 79, Type (0, 1), BuildingBlock: UVAHIK_clean_linker_0, # of connection points: 2
#     Edge 80, Type (0, 1), BuildingBlock: UVAHIK_clean_linker_0, # of connection points: 2
#     Edge 81, Type (0, 1), BuildingBlock: UVAHIK_clean_linker_0, # of connection points: 2
#     Edge 82, Type (0, 1), BuildingBlock: UVAHIK_clean_linker_0, # of connection points: 2
#     Edge 83, Type (0, 1), BuildingBlock: UVAHIK_clean_linker_0, # of connection points: 2
#     Edge 84, Type (0, 1), BuildingBlock: UVAHIK_clean_linker_0, # of connection points: 2
#     Edge 85, Type (0, 1), BuildingBlock: UVAHIK_clean_linker_0, # of connection points: 2
#     Edge 86, Type (0, 1), BuildingBlock: UVAHIK_clean_linker_0, # of connection points: 2
#     Edge 87, Type (0, 1), BuildingBlock: UVAHIK_clean_linker_0, # of connection points: 2
#     Edge 88, Type (0, 1), BuildingBlock: UVAHIK_clean_linker_0, # of connection points: 2
#     Edge 89, Type (0, 1), BuildingBlock: UVAHIK_clean_linker_0, # of connection points: 2
#     Edge 90, Type (0, 1), BuildingBlock: UVAHIK_clean_linker_0, # of connection points: 2
#     Edge 91, Type (0, 1), BuildingBlock: UVAHIK_clean_linker_0, # of connection points: 2
#     Edge 92, Type (0, 1), BuildingBlock: UVAHIK_clean_linker_0, # of connection points: 2
#     Edge 93, Type (0, 1), BuildingBlock: UVAHIK_clean_linker_0, # of connection points: 2
#     Edge 94, Type (0, 1), BuildingBlock: UVAHIK_clean_linker_0, # of connection points: 2
#     Edge 95, Type (0, 1), BuildingBlock: UVAHIK_clean_linker_0, # of connection points: 2
#     Edge 96, Type (0, 1), BuildingBlock: UVAHIK_clean_linker_0, # of connection points: 2
#     Edge 97, Type (0, 1), BuildingBlock: UVAHIK_clean_linker_0, # of connection points: 2
#     Edge 98, Type (0, 1), BuildingBlock: UVAHIK_clean_linker_0, # of connection points: 2
#     Edge 99, Type (0, 1), BuildingBlock: UVAHIK_clean_linker_0, # of connection points: 2
#     Edge 100, Type (0, 1), BuildingBlock: UVAHIK_clean_linker_0, # of connection points: 2
#     Edge 101, Type (0, 1), BuildingBlock: UVAHIK_clean_linker_0, # of connection points: 2
#     Edge 102, Type (0, 1), BuildingBlock: UVAHIK_clean_linker_0, # of connection points: 2
#     Edge 103, Type (0, 1), BuildingBlock: UVAHIK_clean_linker_0, # of connection points: 2
#     Edge 104, Type (0, 1), BuildingBlock: UVAHIK_clean_linker_0, # of connection points: 2
#     Edge 105, Type (0, 1), BuildingBlock: UVAHIK_clean_linker_0, # of connection points: 2
#     Edge 106, Type (0, 1), BuildingBlock: UVAHIK_clean_linker_0, # of connection points: 2
#     Edge 107, Type (0, 1), BuildingBlock: UVAHIK_clean_linker_0, # of connection points: 2
# Relax obj value: 0.047
# Max RMSD: 0.183
# Mean RMSD: 0.125
data_MOF--net-ptr--node1-QUQFOY_clean_sbu_1--node2-AZAVOO_clean_linker_0--edge1-UVAHIK_clean_linker_0
_symmetry_space_group_name_H-M    P1
_symmetry_Int_Tables_number       1
_symmetry_cell_setting            triclinic
loop_
_symmetry_equiv_pos_as_xyz
'x, y, z'
_cell_length_a     103.99393
_cell_length_b     102.00643
_cell_length_c     88.196935
_cell_angle_alpha  92.442699
_cell_angle_beta   92.030828
_cell_angle_gamma 120.0645
loop_
_atom_site_label
_atom_site_type_symbol
_atom_site_fract_x
_atom_site_fract_y
_atom_site_fract_z
_atom_type_partial_charge
O0 O 0.01481 0.38075 0.03662 0.0
Cd1 Cd 0.02336 0.37141 0.02182 0.0
Cd2 Cd 0.99502 0.35572 0.01066 0.0
O3 O 0.99106 0.3655 0.02971 0.0
O4 O 0.04213 0.37502 0.03253 0.0
O5 O 0.02285 0.35203 0.0266 0.0
C6 C 0.03604 0.36051 0.03311 0.0
C7 C 0.97909 0.32998 0.00348 0.0
C8 C 0.0012 0.37633 0.03835 0.0
C9 C 0.01805 0.37835 0.99084 0.0
O10 O 0.00441 0.3693 0.99285 0.0
O11 O 0.02809 0.38046 1.00091 0.0
O12 O 0.97501 0.33988 0.00181 0.0
O13 O 0.99222 0.33463 0.00973 0.0
O14 O 0.62185 0.61465 0.07916 0.0
Cd15 Cd 0.62887 0.6293 0.06182 0.0
Cd16 Cd 0.63982 0.61159 0.05307 0.0
O17 O 0.63279 0.60152 0.07326 0.0
O18 O 0.6257 0.64619 0.06892 0.0
O19 O 0.64803 0.64933 0.06572 0.0
C20 C 0.63994 0.65502 0.06977 0.0
C21 C 0.66432 0.62255 0.04621 0.0
C22 C 0.62492 0.60437 0.08202 0.0
C23 C 0.61627 0.61084 0.03206 0.0
O24 O 0.62389 0.60466 0.03539 0.0
O25 O 0.6173 0.62169 0.04068 0.0
O26 O 0.65568 0.60799 0.04553 0.0
O27 O 0.6592 0.63092 0.05151 0.0
O28 O 0.39009 0.00344 0.99885 0.0
Cd29 Cd 0.38137 0.00821 0.01759 0.0
Cd30 Cd 0.36779 0.97816 0.01829 0.0
O31 O 0.37536 0.97856 0.9968 0.0
O32 O 0.38418 0.02889 0.01535 0.0
O33 O 0.36207 0.00802 0.01413 0.0
C34 C 0.36991 0.02252 0.01321 0.0
C35 C 0.3429 0.96448 0.02404 0.0
C36 C 0.38556 0.99064 0.99167 0.0
C37 C 0.3905 0.99668 0.04382 0.0
O38 O 0.38295 0.98377 0.03658 0.0
O39 O 0.39045 0.00819 0.03888 0.0
O40 O 0.3505 0.95779 0.02182 0.0
O41 O 0.34925 0.97883 0.02211 0.0
O42 O 0.98873 0.62201 0.02358 0.0
Cd43 Cd 0.98147 0.63111 0.04018 0.0
Cd44 Cd 0.01039 0.64745 0.04825 0.0
O45 O 0.01279 0.63775 0.02826 0.0
O46 O 0.96156 0.62708 0.03226 0.0
O47 O 0.9812 0.65019 0.03597 0.0
C48 C 0.96742 0.64151 0.03117 0.0
C49 C 0.02507 0.67345 0.05483 0.0
C50 C 0.00209 0.62674 0.02032 0.0
C51 C 0.99061 0.62489 0.06999 0.0
O52 O 0.00376 0.63404 0.06644 0.0
O53 O 0.97949 0.62255 0.06138 0.0
O54 O 0.03055 0.66458 0.05506 0.0
O55 O 0.01124 0.66763 0.05021 0.0
O56 O 0.38259 0.38615 0.98129 0.0
Cd57 Cd 0.3757 0.37103 0.99808 0.0
Cd58 Cd 0.3629 0.38698 0.00679 0.0
O59 O 0.37001 0.39764 0.9868 0.0
O60 O 0.37863 0.35432 0.9898 0.0
O61 O 0.35648 0.35111 0.99434 0.0
C62 C 0.36438 0.34555 0.98924 0.0
C63 C 0.33825 0.3758 0.01335 0.0
C64 C 0.37872 0.39582 0.97833 0.0
C65 C 0.38693 0.38854 0.02818 0.0
O66 O 0.37846 0.39381 0.02492 0.0
O67 O 0.3871 0.37852 0.01924 0.0
O68 O 0.34678 0.39036 0.01401 0.0
O69 O 0.34355 0.36753 0.00824 0.0
O70 O 0.61362 0.99598 0.06515 0.0
Cd71 Cd 0.62035 0.98954 0.04589 0.0
Cd72 Cd 0.63509 0.01969 0.04332 0.0
O73 O 0.62801 0.02081 0.06477 0.0
O74 O 0.61683 0.96875 0.04906 0.0
O75 O 0.63927 0.98881 0.04801 0.0
C76 C 0.63109 0.97455 0.05007 0.0
C77 C 0.65993 0.03244 0.03726 0.0
C78 C 0.61846 0.00929 0.07123 0.0
C79 C 0.61114 0.00042 0.01894 0.0
O80 O 0.61995 0.0137 0.02495 0.0
O81 O 0.6101 0.98887 0.02505 0.0
O82 O 0.65271 0.03958 0.03917 0.0
O83 O 0.65324 0.01819 0.03969 0.0
O84 O 0.67485 0.71204 0.37522 0.0
Cd85 Cd 0.68522 0.70584 0.35935 0.0
Cd86 Cd 0.65712 0.69049 0.34605 0.0
O87 O 0.65179 0.69878 0.3652 0.0
O88 O 0.7043 0.71057 0.37019 0.0
O89 O 0.68691 0.68722 0.36219 0.0
C90 C 0.69967 0.69622 0.36931 0.0
C91 C 0.64195 0.6652 0.33682 0.0
C92 C 0.66113 0.70784 0.37568 0.0
C93 C 0.6812 0.7152 0.32885 0.0
O94 O 0.66755 0.70524 0.32946 0.0
O95 O 0.69059 0.71729 0.33965 0.0
O96 O 0.63782 0.67511 0.33545 0.0
O97 O 0.65461 0.66952 0.34405 0.0
O98 O 0.28619 0.9469 0.4143 0.0
Cd99 Cd 0.29284 0.96123 0.39677 0.0
Cd100 Cd 0.30533 0.94434 0.38862 0.0
O101 O 0.29759 0.93415 0.40871 0.0
O102 O 0.28931 0.97796 0.40352 0.0
O103 O 0.31179 0.9815 0.40027 0.0
C104 C 0.30351 0.98702 0.40421 0.0
C105 C 0.32963 0.95311 0.38174 0.0
C106 C 0.28949 0.93682 0.41732 0.0
C107 C 0.28171 0.94304 0.36682 0.0
O108 O 0.29017 0.93783 0.37026 0.0
O109 O 0.28136 0.95301 0.37567 0.0
O110 O 0.32006 0.9388 0.38158 0.0
O111 O 0.32565 0.96255 0.38676 0.0
O112 O 0.06295 0.33517 0.33092 0.0
Cd113 Cd 0.05596 0.34259 0.34934 0.0
Cd114 Cd 0.0417 0.31296 0.35336 0.0
O115 O 0.0481 0.31052 0.33195 0.0
O116 O 0.06055 0.36337 0.34464 0.0
O117 O 0.03762 0.3444 0.34649 0.0
C118 C 0.04642 0.35837 0.34369 0.0
C119 C 0.017 0.29993 0.35986 0.0
C120 C 0.05792 0.32168 0.32529 0.0
C121 C 0.06584 0.33353 0.37702 0.0
O122 O 0.05744 0.32001 0.3714 0.0
O123 O 0.06619 0.34458 0.37053 0.0
O124 O 0.02469 0.29322 0.35865 0.0
O125 O 0.02318 0.31397 0.35665 0.0
O126 O 0.66135 0.95297 0.35536 0.0
Cd127 Cd 0.65112 0.9594 0.37121 0.0
Cd128 Cd 0.67925 0.97585 0.38346 0.0
O129 O 0.68461 0.96776 0.36424 0.0
O130 O 0.63177 0.95396 0.36044 0.0
O131 O 0.64894 0.97761 0.3678 0.0
C132 C 0.63623 0.96826 0.36077 0.0
C133 C 0.69267 0.00174 0.39079 0.0
C134 C 0.67516 0.95792 0.35432 0.0
C135 C 0.65674 0.95129 0.40185 0.0
O136 O 0.67027 0.96131 0.40058 0.0
O137 O 0.64683 0.94894 0.39151 0.0
O138 O 0.69838 0.99318 0.39245 0.0
O139 O 0.67926 0.99561 0.38468 0.0
O140 O 0.05245 0.72344 0.32045 0.0
Cd141 Cd 0.04403 0.70682 0.33571 0.0
Cd142 Cd 0.0295 0.72109 0.34349 0.0
O143 O 0.03723 0.73231 0.32383 0.0
O144 O 0.04885 0.69132 0.32786 0.0
O145 O 0.02577 0.68665 0.32937 0.0
C146 C 0.03476 0.68198 0.32552 0.0
C147 C 0.00451 0.70908 0.34902 0.0
C148 C 0.04768 0.73225 0.31682 0.0
C149 C 0.05254 0.72287 0.36643 0.0
O150 O 0.04428 0.72819 0.36245 0.0
O151 O 0.05329 0.71307 0.35771 0.0
O152 O 0.01267 0.72369 0.34986 0.0
O153 O 0.01037 0.70123 0.34421 0.0
O154 O 0.27795 0.33284 0.39882 0.0
Cd155 Cd 0.28397 0.32511 0.37987 0.0
Cd156 Cd 0.29791 0.35477 0.37475 0.0
O157 O 0.29153 0.35743 0.39613 0.0
O158 O 0.28082 0.30476 0.38449 0.0
O159 O 0.30304 0.32462 0.38178 0.0
C160 C 0.29507 0.31059 0.38482 0.0
C161 C 0.32254 0.36766 0.36807 0.0
C162 C 0.28265 0.3465 0.40372 0.0
C163 C 0.27338 0.33336 0.35183 0.0
O164 O 0.28222 0.34708 0.35664 0.0
O165 O 0.27276 0.32257 0.3591 0.0
O166 O 0.31492 0.37445 0.36922 0.0
O167 O 0.31635 0.35369 0.3715 0.0
O168 O 0.34562 0.05362 0.70516 0.0
Cd169 Cd 0.35588 0.04562 0.69109 0.0
Cd170 Cd 0.32761 0.02757 0.67892 0.0
O171 O 0.32245 0.0365 0.69774 0.0
O172 O 0.37481 0.05074 0.70254 0.0
O173 O 0.35683 0.0271 0.69636 0.0
C174 C 0.36968 0.03636 0.7032 0.0
C175 C 0.31145 0.00202 0.67089 0.0
C176 C 0.33173 0.04783 0.70649 0.0
C177 C 0.35063 0.05132 0.65961 0.0
O178 O 0.33715 0.04141 0.6613 0.0
O179 O 0.36063 0.05449 0.67011 0.0
O180 O 0.30779 0.01222 0.66927 0.0
O181 O 0.32433 0.00622 0.67754 0.0
O182 O 0.95185 0.27786 0.74113 0.0
Cd183 Cd 0.96055 0.29339 0.72474 0.0
Cd184 Cd 0.97282 0.2767 0.71793 0.0
O185 O 0.96557 0.26714 0.73837 0.0
O186 O 0.95591 0.3094 0.73121 0.0
O187 O 0.97893 0.31368 0.73058 0.0
C188 C 0.97001 0.31866 0.73361 0.0
C189 C 0.99744 0.28788 0.71134 0.0
C190 C 0.95587 0.26863 0.74543 0.0
C191 C 0.95016 0.2752 0.69503 0.0
O192 O 0.95725 0.26884 0.69968 0.0
O193 O 0.95102 0.28641 0.70282 0.0
O194 O 0.98908 0.27332 0.71127 0.0
O195 O 0.99203 0.29619 0.71605 0.0
O196 O 0.72603 0.6689 0.6626 0.0
Cd197 Cd 0.71864 0.67535 0.68138 0.0
Cd198 Cd 0.70486 0.64544 0.68465 0.0
O199 O 0.71101 0.64416 0.66278 0.0
O200 O 0.72192 0.69606 0.67805 0.0
O201 O 0.69958 0.67567 0.67831 0.0
C202 C 0.70764 0.69001 0.67656 0.0
C203 C 0.68032 0.63357 0.69162 0.0
C204 C 0.72086 0.65557 0.65642 0.0
C205 C 0.72871 0.66539 0.7085 0.0
O206 O 0.72084 0.65199 0.70234 0.0
O207 O 0.72849 0.67645 0.70259 0.0
O208 O 0.68699 0.62591 0.68938 0.0
O209 O 0.6874 0.64781 0.68916 0.0
O210 O 0.32601 0.28429 0.68858 0.0
Cd211 Cd 0.31703 0.29267 0.7041 0.0
Cd212 Cd 0.34532 0.30899 0.71466 0.0
O213 O 0.34956 0.3014 0.69439 0.0
O214 O 0.29781 0.28879 0.6943 0.0
O215 O 0.31701 0.31189 0.69989 0.0
C216 C 0.30362 0.30329 0.69391 0.0
C217 C 0.36083 0.33416 0.72414 0.0
C218 C 0.33969 0.29013 0.68599 0.0
C219 C 0.3234 0.28453 0.73384 0.0
O220 O 0.33687 0.2936 0.73119 0.0
O221 O 0.31292 0.28322 0.72488 0.0
O222 O 0.36515 0.32434 0.7243 0.0
O223 O 0.34773 0.32986 0.71803 0.0
O224 O 0.71804 0.05354 0.6479 0.0
Cd225 Cd 0.71112 0.03882 0.66509 0.0
Cd226 Cd 0.69859 0.05532 0.67357 0.0
O227 O 0.70564 0.06528 0.65324 0.0
O228 O 0.71395 0.02176 0.65774 0.0
O229 O 0.69181 0.01895 0.66144 0.0
C230 C 0.69968 0.01309 0.65706 0.0
C231 C 0.67425 0.04594 0.68068 0.0
C232 C 0.7142 0.0632 0.64477 0.0
C233 C 0.72261 0.05691 0.69497 0.0
O234 O 0.71428 0.06231 0.69158 0.0
O235 O 0.72257 0.04666 0.68621 0.0
O236 O 0.68349 0.06033 0.68067 0.0
O237 O 0.67864 0.03676 0.67589 0.0
O238 O 0.94301 0.66733 0.73218 0.0
Cd239 Cd 0.94842 0.65887 0.71334 0.0
Cd240 Cd 0.9636 0.68857 0.70817 0.0
O241 O 0.95729 0.69181 0.72939 0.0
O242 O 0.94295 0.63781 0.71797 0.0
O243 O 0.96616 0.65599 0.71567 0.0
C244 C 0.95695 0.64218 0.71861 0.0
C245 C 0.98837 0.69954 0.70212 0.0
C246 C 0.94814 0.68108 0.737 0.0
C247 C 0.9389 0.66802 0.68512 0.0
O248 O 0.94822 0.68164 0.68985 0.0
O249 O 0.93766 0.65705 0.69251 0.0
O250 O 0.98179 0.70742 0.7029 0.0
O251 O 0.98102 0.68555 0.70549 0.0
H252 H 0.16247 0.33113 0.05348 0.0
H253 H 0.24644 0.29659 0.17373 0.0
H254 H 0.15831 0.33549 0.13581 0.0
H255 H 0.13865 0.33879 0.12413 0.0
H256 H 0.10676 0.29162 0.12956 0.0
H257 H 0.12682 0.28833 0.14087 0.0
H258 H 0.18163 0.33551 0.11755 0.0
H259 H 0.17699 0.33807 0.09075 0.0
H260 H 0.14086 0.29147 0.08668 0.0
H261 H 0.14574 0.28902 0.11346 0.0
H262 H 0.20671 0.33601 0.1386 0.0
H263 H 0.22571 0.34249 0.12029 0.0
H264 H 0.19814 0.29886 0.0957 0.0
H265 H 0.17926 0.29231 0.11441 0.0
H266 H 0.206 0.33077 0.17186 0.0
H267 H 0.22854 0.33073 0.18071 0.0
H268 H 0.21227 0.28709 0.15627 0.0
H269 H 0.18969 0.28719 0.14766 0.0
H270 H 0.17831 0.32929 0.1873 0.0
H271 H 0.18768 0.33063 0.21342 0.0
H272 H 0.184 0.28679 0.20478 0.0
H273 H 0.17386 0.28523 0.1789 0.0
H274 H 0.15313 0.33031 0.16836 0.0
H275 H 0.13732 0.3302 0.18821 0.0
H276 H 0.12647 0.28462 0.19754 0.0
H277 H 0.14173 0.28458 0.17707 0.0
O278 O 0.16416 0.32985 0.06403 0.0
O279 O 0.14564 0.30586 0.06255 0.0
O280 O 0.24549 0.31933 0.18278 0.0
O281 O 0.23765 0.29691 0.17038 0.0
C282 C 0.15656 0.30957 0.14432 0.0
C283 C 0.16683 0.31051 0.1337 0.0
C284 C 0.17985 0.31042 0.13862 0.0
C285 C 0.18234 0.30882 0.1541 0.0
C286 C 0.17193 0.30753 0.16473 0.0
C287 C 0.15901 0.30796 0.15984 0.0
C288 C 0.144 0.31167 0.13914 0.0
C289 C 0.14704 0.32591 0.13463 0.0
C290 C 0.13575 0.32778 0.12804 0.0
C291 C 0.12108 0.31547 0.12589 0.0
C292 C 0.11796 0.30129 0.13089 0.0
C293 C 0.12935 0.29941 0.13748 0.0
C294 C 0.1641 0.31204 0.11739 0.0
C295 C 0.1728 0.32584 0.11081 0.0
C296 C 0.17009 0.32728 0.09552 0.0
C297 C 0.15857 0.31497 0.08656 0.0
C298 C 0.14983 0.30117 0.09325 0.0
C299 C 0.15259 0.29973 0.10853 0.0
C300 C 0.19163 0.31368 0.12787 0.0
C301 C 0.20486 0.32777 0.12938 0.0
C302 C 0.21562 0.33151 0.1188 0.0
C303 C 0.21338 0.32125 0.10644 0.0
C304 C 0.20024 0.30697 0.10514 0.0
C305 C 0.18943 0.30323 0.11576 0.0
C306 C 0.19617 0.30893 0.15922 0.0
C307 C 0.2073 0.32119 0.16849 0.0
C308 C 0.22018 0.32115 0.1735 0.0
C309 C 0.22219 0.30888 0.16922 0.0
C310 C 0.21106 0.29669 0.1598 0.0
C311 C 0.19817 0.29673 0.15483 0.0
C312 C 0.17541 0.30717 0.18117 0.0
C313 C 0.17911 0.31978 0.19119 0.0
C314 C 0.18467 0.32061 0.20606 0.0
C315 C 0.18684 0.30893 0.21117 0.0
C316 C 0.18239 0.29595 0.20131 0.0
C317 C 0.17666 0.29506 0.18647 0.0
C318 C 0.14851 0.30741 0.17116 0.0
C319 C 0.14706 0.32017 0.17444 0.0
C320 C 0.13818 0.32016 0.18596 0.0
C321 C 0.1307 0.30745 0.1946 0.0
C322 C 0.13191 0.29454 0.19103 0.0
C323 C 0.1407 0.29452 0.1794 0.0
C324 C 0.15569 0.31655 0.07033 0.0
C325 C 0.23583 0.30875 0.17456 0.0
H326 H 0.66615 0.82498 0.07597 0.0
H327 H 0.71815 0.9511 0.20229 0.0
H328 H 0.67205 0.81888 0.16243 0.0
H329 H 0.66643 0.79435 0.15069 0.0
H330 H 0.71331 0.81216 0.14486 0.0
H331 H 0.71882 0.83652 0.1574 0.0
H332 H 0.67038 0.84223 0.14085 0.0
H333 H 0.66422 0.83379 0.11383 0.0
H334 H 0.71009 0.84637 0.10837 0.0
H335 H 0.71608 0.85487 0.1354 0.0
H336 H 0.67346 0.86989 0.1612 0.0
H337 H 0.66691 0.88457 0.14472 0.0
H338 H 0.70819 0.90023 0.12284 0.0
H339 H 0.71463 0.88532 0.13944 0.0
H340 H 0.68139 0.87537 0.19423 0.0
H341 H 0.68313 0.89891 0.20446 0.0
H342 H 0.72496 0.92481 0.18374 0.0
H343 H 0.7232 0.90115 0.17378 0.0
H344 H 0.68259 0.84918 0.20863 0.0
H345 H 0.68242 0.85991 0.23382 0.0
H346 H 0.72663 0.89762 0.22896 0.0
H347 H 0.72697 0.88638 0.20403 0.0
H348 H 0.6781 0.82365 0.19195 0.0
H349 H 0.6784 0.80609 0.2097 0.0
H350 H 0.72646 0.83285 0.21479 0.0
H351 H 0.72596 0.85059 0.19714 0.0
O352 O 0.66883 0.82844 0.0866 0.0
O353 O 0.69254 0.83508 0.0844 0.0
O354 O 0.6957 0.92776 0.20889 0.0
O355 O 0.71717 0.94162 0.19834 0.0
C356 C 0.69879 0.84456 0.16664 0.0
C357 C 0.69731 0.8541 0.15642 0.0
C358 C 0.69835 0.8678 0.16194 0.0
C359 C 0.70143 0.87225 0.17763 0.0
C360 C 0.70311 0.8628 0.18789 0.0
C361 C 0.70159 0.84884 0.18239 0.0
C362 C 0.69583 0.82939 0.16083 0.0
C363 C 0.68111 0.81736 0.15887 0.0
C364 C 0.67793 0.80342 0.15197 0.0
C365 C 0.68939 0.8013 0.1466 0.0
C366 C 0.70422 0.81332 0.14896 0.0
C367 C 0.7074 0.82726 0.15607 0.0
C368 C 0.69367 0.84919 0.14001 0.0
C369 C 0.67907 0.84321 0.13376 0.0
C370 C 0.6756 0.83837 0.11835 0.0
C371 C 0.68667 0.83941 0.10894 0.0
C372 C 0.7013 0.84542 0.11529 0.0
C373 C 0.70476 0.85028 0.13071 0.0
C374 C 0.69457 0.87666 0.1516 0.0
C375 C 0.68112 0.87654 0.15289 0.0
C376 C 0.67743 0.88498 0.1435 0.0
C377 C 0.6871 0.8937 0.13257 0.0
C378 C 0.70049 0.89359 0.13111 0.0
C379 C 0.7042 0.88514 0.14059 0.0
C380 C 0.70225 0.88657 0.1834 0.0
C381 C 0.69095 0.88614 0.19197 0.0
C382 C 0.69195 0.8996 0.19777 0.0
C383 C 0.70421 0.91375 0.19495 0.0
C384 C 0.7154 0.91412 0.18615 0.0
C385 C 0.71441 0.90064 0.18042 0.0
C386 C 0.70479 0.86699 0.20448 0.0
C387 C 0.69252 0.85937 0.21329 0.0
C388 C 0.69234 0.86567 0.22759 0.0
C389 C 0.70437 0.8798 0.23325 0.0
C390 C 0.7172 0.88671 0.22498 0.0
C391 C 0.71742 0.88031 0.21072 0.0
C392 C 0.70201 0.83828 0.19317 0.0
C393 C 0.68869 0.82565 0.19683 0.0
C394 C 0.68891 0.8156 0.20693 0.0
C395 C 0.70247 0.81796 0.21358 0.0
C396 C 0.71582 0.83075 0.20996 0.0
C397 C 0.71558 0.84084 0.19984 0.0
C398 C 0.68292 0.8342 0.09258 0.0
C399 C 0.70538 0.92809 0.20117 0.0
H400 H 0.14762 0.8534 0.06176 0.0
H401 H 0.27086 0.92949 0.18863 0.0
H402 H 0.13685 0.8544 0.1411 0.0
H403 H 0.11425 0.832 0.12955 0.0
H404 H 0.12891 0.80299 0.1486 0.0
H405 H 0.15148 0.82531 0.15972 0.0
H406 H 0.16632 0.87944 0.12444 0.0
H407 H 0.15863 0.87252 0.09738 0.0
H408 H 0.15702 0.8297 0.10217 0.0
H409 H 0.16491 0.83686 0.12915 0.0
H410 H 0.19927 0.90425 0.14214 0.0
H411 H 0.21843 0.91599 0.12392 0.0
H412 H 0.21464 0.87243 0.11269 0.0
H413 H 0.19631 0.86114 0.13162 0.0
H414 H 0.19911 0.90805 0.1758 0.0
H415 H 0.22452 0.92765 0.18447 0.0
H416 H 0.23975 0.89597 0.17455 0.0
H417 H 0.21427 0.87645 0.16602 0.0
H418 H 0.17784 0.89202 0.19541 0.0
H419 H 0.1889 0.90059 0.22145 0.0
H420 H 0.20258 0.8669 0.22008 0.0
H421 H 0.19225 0.85912 0.19382 0.0
H422 H 0.14217 0.86188 0.18287 0.0
H423 H 0.12558 0.8475 0.20251 0.0
H424 H 0.14792 0.82151 0.2061 0.0
H425 H 0.1647 0.83634 0.18702 0.0
O426 O 0.15071 0.85594 0.07246 0.0
O427 O 0.14995 0.83404 0.07555 0.0
O428 O 0.25233 0.93783 0.19012 0.0
O429 O 0.26073 0.92198 0.18523 0.0
C430 C 0.16048 0.85489 0.1563 0.0
C431 C 0.17061 0.86286 0.14522 0.0
C432 C 0.18519 0.87471 0.14977 0.0
C433 C 0.18944 0.87892 0.16539 0.0
C434 C 0.17929 0.8711 0.17644 0.0
C435 C 0.16488 0.85898 0.17192 0.0
C436 C 0.14573 0.84148 0.15141 0.0
C437 C 0.135 0.84318 0.14301 0.0
C438 C 0.12217 0.83041 0.13636 0.0
C439 C 0.11981 0.81575 0.13821 0.0
C440 C 0.13029 0.81411 0.14719 0.0
C441 C 0.14317 0.82686 0.15363 0.0
C442 C 0.16606 0.85861 0.12877 0.0
C443 C 0.16433 0.86859 0.1196 0.0
C444 C 0.15992 0.86459 0.10416 0.0
C445 C 0.15716 0.85053 0.09762 0.0
C446 C 0.159 0.8406 0.10685 0.0
C447 C 0.16346 0.84463 0.12227 0.0
C448 C 0.19638 0.88184 0.13822 0.0
C449 C 0.20267 0.8973 0.13579 0.0
C450 C 0.21352 0.90395 0.12524 0.0
C451 C 0.21817 0.8952 0.11679 0.0
C452 C 0.21161 0.87963 0.11915 0.0
C453 C 0.20096 0.87308 0.12984 0.0
C454 C 0.2049 0.89088 0.17031 0.0
C455 C 0.20796 0.90539 0.17553 0.0
C456 C 0.22248 0.91655 0.18046 0.0
C457 C 0.23417 0.91337 0.18021 0.0
C458 C 0.23102 0.8988 0.17489 0.0
C459 C 0.21649 0.88764 0.16999 0.0
C460 C 0.18427 0.87498 0.19279 0.0
C461 C 0.18313 0.88645 0.20085 0.0
C462 C 0.18939 0.89126 0.21575 0.0
C463 C 0.19678 0.88454 0.22289 0.0
C464 C 0.19731 0.87259 0.21488 0.0
C465 C 0.19125 0.86797 0.19994 0.0
C466 C 0.15465 0.85017 0.18361 0.0
C467 C 0.14345 0.8531 0.18799 0.0
C468 C 0.13394 0.84479 0.19912 0.0
C469 C 0.13542 0.83335 0.20598 0.0
C470 C 0.14661 0.83042 0.20136 0.0
C471 C 0.15617 0.83881 0.19037 0.0
C472 C 0.15239 0.84629 0.08123 0.0
C473 C 0.2496 0.92517 0.18549 0.0
H474 H 0.30377 0.16685 0.99021 0.0
H475 H 0.31313 0.06257 0.85924 0.0
H476 H 0.28575 0.16518 0.89743 0.0
H477 H 0.28997 0.19013 0.90691 0.0
H478 H 0.33606 0.20448 0.91874 0.0
H479 H 0.33183 0.17984 0.90888 0.0
H480 H 0.28609 0.14517 0.92625 0.0
H481 H 0.28916 0.15315 0.95334 0.0
H482 H 0.33556 0.16573 0.95379 0.0
H483 H 0.33234 0.15782 0.92668 0.0
H484 H 0.28692 0.11053 0.92085 0.0
H485 H 0.29274 0.09628 0.93903 0.0
H486 H 0.33878 0.12072 0.92788 0.0
H487 H 0.33287 0.13484 0.90996 0.0
H488 H 0.27934 0.09974 0.88378 0.0
H489 H 0.27789 0.07598 0.87469 0.0
H490 H 0.32554 0.1001 0.87071 0.0
H491 H 0.32678 0.12376 0.87974 0.0
H492 H 0.27815 0.1185 0.85813 0.0
H493 H 0.27752 0.10837 0.83225 0.0
H494 H 0.32564 0.13481 0.83377 0.0
H495 H 0.32597 0.14536 0.8592 0.0
H496 H 0.28101 0.14694 0.86222 0.0
H497 H 0.28157 0.16361 0.84277 0.0
H498 H 0.32777 0.19536 0.85657 0.0
H499 H 0.32728 0.17822 0.8753 0.0
O500 O 0.30279 0.16373 0.97952 0.0
O501 O 0.32659 0.17009 0.97912 0.0
O502 O 0.28888 0.05996 0.86488 0.0
O503 O 0.31337 0.07178 0.86291 0.0
C504 C 0.30603 0.15556 0.89733 0.0
C505 C 0.30702 0.14616 0.9081 0.0
C506 C 0.30628 0.13245 0.90319 0.0
C507 C 0.3039 0.12779 0.88758 0.0
C508 C 0.30275 0.13705 0.8768 0.0
C509 C 0.30395 0.15104 0.88162 0.0
C510 C 0.30847 0.17071 0.90255 0.0
C511 C 0.29675 0.17379 0.90198 0.0
C512 C 0.29917 0.18799 0.90749 0.0
C513 C 0.31336 0.1993 0.91358 0.0
C514 C 0.32506 0.19613 0.91394 0.0
C515 C 0.32264 0.18201 0.90844 0.0
C516 C 0.30895 0.15078 0.92458 0.0
C517 C 0.29688 0.14961 0.93225 0.0
C518 C 0.29868 0.15418 0.94771 0.0
C519 C 0.3126 0.16004 0.95575 0.0
C520 C 0.32468 0.16122 0.94796 0.0
C521 C 0.32286 0.15664 0.9325 0.0
C522 C 0.3095 0.12372 0.91419 0.0
C523 C 0.29824 0.11277 0.92241 0.0
C524 C 0.30158 0.10463 0.93271 0.0
C525 C 0.31625 0.10747 0.93498 0.0
C526 C 0.32743 0.11845 0.92661 0.0
C527 C 0.32407 0.12646 0.9163 0.0
C528 C 0.30315 0.11339 0.88244 0.0
C529 C 0.28943 0.09982 0.88098 0.0
C530 C 0.28865 0.08629 0.87577 0.0
C531 C 0.30161 0.08614 0.87197 0.0
C532 C 0.31536 0.09981 0.87353 0.0
C533 C 0.31611 0.11333 0.87871 0.0
C534 C 0.30209 0.13274 0.86041 0.0
C535 C 0.28848 0.12237 0.85263 0.0
C536 C 0.28819 0.11646 0.83794 0.0
C537 C 0.30154 0.12065 0.83089 0.0
C538 C 0.31511 0.13149 0.83863 0.0
C539 C 0.31536 0.13752 0.85321 0.0
C540 C 0.3041 0.16137 0.87018 0.0
C541 C 0.29125 0.15747 0.86095 0.0
C542 C 0.29157 0.1671 0.84995 0.0
C543 C 0.30473 0.18086 0.84805 0.0
C544 C 0.31751 0.18476 0.8575 0.0
C545 C 0.31722 0.17506 0.86835 0.0
C546 C 0.31448 0.16493 0.97216 0.0
C547 C 0.30084 0.07181 0.86638 0.0
H548 H 0.83365 0.15544 0.99988 0.0
H549 H 0.74776 0.04239 0.86681 0.0
H550 H 0.8396 0.16788 0.92034 0.0
H551 H 0.8601 0.19036 0.93414 0.0
H552 H 0.89061 0.17537 0.92137 0.0
H553 H 0.86982 0.15251 0.9078 0.0
H554 H 0.81492 0.14354 0.93508 0.0
H555 H 0.81942 0.14949 0.96258 0.0
H556 H 0.85484 0.13893 0.96245 0.0
H557 H 0.85009 0.13283 0.93495 0.0
H558 H 0.78966 0.12006 0.91143 0.0
H559 H 0.77024 0.10663 0.92889 0.0
H560 H 0.79639 0.08901 0.94929 0.0
H561 H 0.81588 0.10261 0.93169 0.0
H562 H 0.79123 0.11765 0.87745 0.0
H563 H 0.76825 0.09552 0.86649 0.0
H564 H 0.78199 0.06594 0.88603 0.0
H565 H 0.80502 0.08818 0.89677 0.0
H566 H 0.8201 0.14443 0.86435 0.0
H567 H 0.81138 0.13756 0.83758 0.0
H568 H 0.81236 0.09586 0.84053 0.0
H569 H 0.82192 0.10329 0.86708 0.0
H570 H 0.84556 0.16987 0.88625 0.0
H571 H 0.86298 0.18681 0.8687 0.0
H572 H 0.87176 0.15136 0.85344 0.0
H573 H 0.85486 0.13476 0.87165 0.0
O574 O 0.832 0.15294 0.98903 0.0
O575 O 0.85015 0.14745 0.98833 0.0
O576 O 0.75022 0.06705 0.86118 0.0
O577 O 0.75675 0.05134 0.87102 0.0
C578 C 0.84022 0.14403 0.90657 0.0
C579 C 0.8295 0.13419 0.9163 0.0
C580 C 0.81623 0.12134 0.91013 0.0
C581 C 0.81391 0.11796 0.89423 0.0
C582 C 0.82478 0.12753 0.88446 0.0
C583 C 0.83794 0.14065 0.89063 0.0
C584 C 0.85318 0.15846 0.91325 0.0
C585 C 0.8507 0.16944 0.92047 0.0
C586 C 0.8624 0.18223 0.92838 0.0
C587 C 0.87687 0.18446 0.92899 0.0
C588 C 0.87953 0.17387 0.92109 0.0
C589 C 0.86771 0.16087 0.91333 0.0
C590 C 0.83209 0.13763 0.93305 0.0
C591 C 0.82355 0.14239 0.94104 0.0
C592 C 0.82619 0.14584 0.95674 0.0
C593 C 0.83748 0.14467 0.96472 0.0
C594 C 0.84604 0.13993 0.95665 0.0
C595 C 0.84336 0.13644 0.94096 0.0
C596 C 0.80414 0.11224 0.92022 0.0
C597 C 0.7911 0.11312 0.91951 0.0
C598 C 0.78001 0.10541 0.9295 0.0
C599 C 0.78173 0.0967 0.94047 0.0
C600 C 0.79478 0.09573 0.94106 0.0
C601 C 0.80587 0.10341 0.93099 0.0
C602 C 0.79983 0.1045 0.88781 0.0
C603 C 0.78928 0.10638 0.87929 0.0
C604 C 0.77615 0.09372 0.87307 0.0
C605 C 0.7733 0.07895 0.87536 0.0
C606 C 0.78385 0.07715 0.88403 0.0
C607 C 0.79699 0.08982 0.8902 0.0
C608 C 0.82163 0.12436 0.8677 0.0
C609 C 0.81884 0.13402 0.85909 0.0
C610 C 0.81364 0.12995 0.84384 0.0
C611 C 0.81091 0.11602 0.83692 0.0
C612 C 0.81442 0.10671 0.8454 0.0
C613 C 0.81981 0.1109 0.86062 0.0
C614 C 0.849 0.1511 0.88032 0.0
C615 C 0.85144 0.16586 0.8793 0.0
C616 C 0.86128 0.17546 0.86911 0.0
C617 C 0.86874 0.17045 0.85955 0.0
C618 C 0.86638 0.15569 0.86074 0.0
C619 C 0.85663 0.14614 0.87106 0.0
C620 C 0.8403 0.14842 0.98139 0.0
C621 C 0.75938 0.06547 0.86874 0.0
H622 H 0.85897 0.70001 0.01045 0.0
H623 H 0.74081 0.66769 0.88572 0.0
H624 H 0.87174 0.71174 0.93299 0.0
H625 H 0.89077 0.70799 0.94589 0.0
H626 H 0.87275 0.66433 0.92099 0.0
H627 H 0.85343 0.66789 0.9087 0.0
H628 H 0.84361 0.71033 0.9494 0.0
H629 H 0.85036 0.71007 0.97621 0.0
H630 H 0.84653 0.66623 0.96689 0.0
H631 H 0.83957 0.66654 0.94018 0.0
H632 H 0.81184 0.70494 0.9322 0.0
H633 H 0.79249 0.6985 0.95024 0.0
H634 H 0.79127 0.65608 0.9566 0.0
H635 H 0.80978 0.66219 0.93791 0.0
H636 H 0.81486 0.70955 0.89576 0.0
H637 H 0.79103 0.70728 0.88766 0.0
H638 H 0.76813 0.66049 0.89929 0.0
H639 H 0.79205 0.66287 0.90719 0.0
H640 H 0.84035 0.71154 0.87559 0.0
H641 H 0.83091 0.70991 0.84925 0.0
H642 H 0.79834 0.66263 0.85308 0.0
H643 H 0.80813 0.66429 0.87905 0.0
H644 H 0.87091 0.71425 0.89513 0.0
H645 H 0.88771 0.71564 0.87564 0.0
H646 H 0.85539 0.66991 0.8584 0.0
H647 H 0.83897 0.66848 0.87819 0.0
O648 O 0.85619 0.69983 0.99983 0.0
O649 O 0.85416 0.67735 0.99442 0.0
O650 O 0.76269 0.693 0.88303 0.0
O651 O 0.75038 0.6689 0.88886 0.0
C652 C 0.84738 0.69036 0.91536 0.0
C653 C 0.83734 0.68888 0.92653 0.0
C654 C 0.82344 0.68742 0.92222 0.0
C655 C 0.81971 0.68781 0.90675 0.0
C656 C 0.82964 0.68915 0.89555 0.0
C657 C 0.84349 0.69044 0.89984 0.0
C658 C 0.86111 0.69004 0.91999 0.0
C659 C 0.87216 0.70154 0.93005 0.0
C660 C 0.88304 0.69938 0.93739 0.0
C661 C 0.8831 0.68572 0.93469 0.0
C662 C 0.8728 0.67483 0.92359 0.0
C663 C 0.86187 0.67694 0.91637 0.0
C664 C 0.84122 0.68852 0.94284 0.0
C665 C 0.84419 0.70067 0.9532 0.0
C666 C 0.84807 0.7005 0.96849 0.0
C667 C 0.84904 0.68815 0.97369 0.0
C668 C 0.84593 0.67593 0.96327 0.0
C669 C 0.842 0.6761 0.948 0.0
C670 C 0.81225 0.68406 0.93375 0.0
C671 C 0.80732 0.69425 0.93748 0.0
C672 C 0.79635 0.69059 0.9479 0.0
C673 C 0.79022 0.67672 0.95488 0.0
C674 C 0.79546 0.66671 0.95127 0.0
C675 C 0.80622 0.67028 0.94072 0.0
C676 C 0.80516 0.68641 0.90214 0.0
C677 C 0.80467 0.69883 0.89655 0.0
C678 C 0.79105 0.6975 0.89194 0.0
C679 C 0.77766 0.6837 0.89285 0.0
C680 C 0.77822 0.67128 0.89847 0.0
C681 C 0.79186 0.67262 0.90304 0.0
C682 C 0.82488 0.68805 0.87923 0.0
C683 C 0.83132 0.70081 0.87061 0.0
C684 C 0.82583 0.69987 0.85563 0.0
C685 C 0.81383 0.68614 0.84905 0.0
C686 C 0.80771 0.67332 0.85767 0.0
C687 C 0.81321 0.67426 0.87257 0.0
C688 C 0.85369 0.6913 0.88802 0.0
C689 C 0.86752 0.70454 0.88715 0.0
C690 C 0.87704 0.70534 0.87595 0.0
C691 C 0.8729 0.69289 0.86544 0.0
C692 C 0.85903 0.67964 0.86642 0.0
C693 C 0.84956 0.67884 0.87762 0.0
C694 C 0.85327 0.68806 0.98991 0.0
C695 C 0.76316 0.68221 0.88794 0.0
H696 H 0.83063 0.66493 0.38638 0.0
H697 H 0.90941 0.62764 0.50968 0.0
H698 H 0.82544 0.67057 0.4684 0.0
H699 H 0.80656 0.67477 0.45627 0.0
H700 H 0.7731 0.62822 0.46217 0.0
H701 H 0.79241 0.624 0.47392 0.0
H702 H 0.84865 0.66931 0.45081 0.0
H703 H 0.84464 0.67179 0.42384 0.0
H704 H 0.80706 0.62596 0.41999 0.0
H705 H 0.81132 0.62357 0.44695 0.0
H706 H 0.87295 0.66885 0.47279 0.0
H707 H 0.89237 0.67394 0.45536 0.0
H708 H 0.86366 0.63049 0.43089 0.0
H709 H 0.84417 0.62549 0.44852 0.0
H710 H 0.8713 0.66422 0.50596 0.0
H711 H 0.89323 0.66331 0.5154 0.0
H712 H 0.87578 0.61918 0.49161 0.0
H713 H 0.85382 0.62015 0.48241 0.0
H714 H 0.84375 0.66419 0.52048 0.0
H715 H 0.85301 0.6659 0.54672 0.0
H716 H 0.84806 0.62137 0.53939 0.0
H717 H 0.83803 0.61946 0.51339 0.0
H718 H 0.81892 0.66552 0.501 0.0
H719 H 0.8025 0.66571 0.51998 0.0
H720 H 0.79074 0.62005 0.53008 0.0
H721 H 0.80657 0.61969 0.5104 0.0
O722 O 0.83206 0.66368 0.397 0.0
O723 O 0.81279 0.64009 0.39564 0.0
O724 O 0.9093 0.65098 0.51817 0.0
O725 O 0.90085 0.6283 0.5061 0.0
C726 C 0.8224 0.64432 0.47755 0.0
C727 C 0.83269 0.64475 0.4672 0.0
C728 C 0.84536 0.64418 0.4725 0.0
C729 C 0.84748 0.64264 0.48809 0.0
C730 C 0.83705 0.64189 0.49844 0.0
C731 C 0.82447 0.64275 0.49317 0.0
C732 C 0.8103 0.64698 0.47198 0.0
C733 C 0.81401 0.66132 0.46722 0.0
C734 C 0.80315 0.66371 0.46038 0.0
C735 C 0.78826 0.65184 0.45825 0.0
C736 C 0.78448 0.63756 0.46348 0.0
C737 C 0.79544 0.63516 0.47032 0.0
C738 C 0.83035 0.64622 0.45079 0.0
C739 C 0.83964 0.65978 0.44409 0.0
C740 C 0.83728 0.66118 0.4287 0.0
C741 C 0.82553 0.64906 0.41975 0.0
C742 C 0.81621 0.6355 0.42655 0.0
C743 C 0.81861 0.63411 0.44193 0.0
C744 C 0.85719 0.64675 0.46201 0.0
C745 C 0.87091 0.66034 0.46379 0.0
C746 C 0.882 0.66321 0.45382 0.0
C747 C 0.8796 0.65257 0.44178 0.0
C748 C 0.86581 0.63894 0.43999 0.0
C749 C 0.85471 0.63604 0.45007 0.0
C750 C 0.86093 0.6422 0.49361 0.0
C751 C 0.87221 0.65434 0.50287 0.0
C752 C 0.88474 0.65381 0.50821 0.0
C753 C 0.88625 0.64115 0.50428 0.0
C754 C 0.87496 0.62908 0.49487 0.0
C755 C 0.86242 0.62961 0.48958 0.0
C756 C 0.84025 0.64172 0.51499 0.0
C757 C 0.84423 0.65462 0.52469 0.0
C758 C 0.84974 0.65565 0.53963 0.0
C759 C 0.85155 0.64389 0.54512 0.0
C760 C 0.84674 0.63061 0.53561 0.0
C761 C 0.84107 0.62952 0.52071 0.0
C762 C 0.81385 0.64254 0.50418 0.0
C763 C 0.81255 0.65543 0.50708 0.0
C764 C 0.8033 0.65559 0.51812 0.0
C765 C 0.79532 0.64292 0.52669 0.0
C766 C 0.79653 0.62993 0.52359 0.0
C767 C 0.80565 0.62974 0.51242 0.0
C768 C 0.82303 0.65061 0.40341 0.0
C769 C 0.89951 0.6405 0.50996 0.0
H770 H 0.32985 0.15852 0.4069 0.0
H771 H 0.38885 0.28671 0.53478 0.0
H772 H 0.33721 0.1518 0.49764 0.0
H773 H 0.33136 0.12702 0.48631 0.0
H774 H 0.37592 0.14691 0.47085 0.0
H775 H 0.38182 0.17158 0.48289 0.0
H776 H 0.33435 0.17306 0.47245 0.0
H777 H 0.32797 0.16498 0.44536 0.0
H778 H 0.37479 0.18506 0.43774 0.0
H779 H 0.38097 0.19309 0.46486 0.0
H780 H 0.33823 0.20396 0.49152 0.0
H781 H 0.33207 0.21941 0.47577 0.0
H782 H 0.37398 0.23633 0.45488 0.0
H783 H 0.3801 0.22074 0.47085 0.0
H784 H 0.34628 0.21144 0.52302 0.0
H785 H 0.34972 0.23568 0.53348 0.0
H786 H 0.39378 0.25891 0.51667 0.0
H787 H 0.39024 0.23455 0.50643 0.0
H788 H 0.3449 0.1865 0.53761 0.0
H789 H 0.34566 0.19747 0.56288 0.0
H790 H 0.39326 0.22715 0.56169 0.0
H791 H 0.39217 0.21638 0.536 0.0
H792 H 0.34216 0.16103 0.52692 0.0
H793 H 0.34235 0.1431 0.54433 0.0
H794 H 0.3896 0.16228 0.53993 0.0
H795 H 0.38928 0.18038 0.52264 0.0
O796 O 0.33261 0.16183 0.41755 0.0
O797 O 0.35681 0.17223 0.41425 0.0
O798 O 0.36448 0.26447 0.53918 0.0
O799 O 0.38717 0.27697 0.53069 0.0
C800 C 0.36293 0.17858 0.49707 0.0
C801 C 0.36187 0.18841 0.48693 0.0
C802 C 0.36327 0.20225 0.49255 0.0
C803 C 0.36623 0.2065 0.50827 0.0
C804 C 0.36711 0.19661 0.51846 0.0
C805 C 0.3654 0.18262 0.51287 0.0
C806 C 0.35996 0.16342 0.49117 0.0
C807 C 0.34578 0.15072 0.49205 0.0
C808 C 0.34242 0.13662 0.48539 0.0
C809 C 0.35312 0.13497 0.47751 0.0
C810 C 0.36745 0.14772 0.47694 0.0
C811 C 0.37084 0.16183 0.48374 0.0
C812 C 0.3581 0.18363 0.47053 0.0
C813 C 0.34318 0.1757 0.46488 0.0
C814 C 0.33959 0.1711 0.44942 0.0
C815 C 0.35087 0.17437 0.43938 0.0
C816 C 0.36583 0.18236 0.44515 0.0
C817 C 0.3694 0.18696 0.46061 0.0
C818 C 0.35964 0.21133 0.48238 0.0
C819 C 0.34609 0.21102 0.48356 0.0
C820 C 0.34263 0.2199 0.4746 0.0
C821 C 0.35261 0.22921 0.4642 0.0
C822 C 0.36606 0.22923 0.46277 0.0
C823 C 0.36958 0.22038 0.47186 0.0
C824 C 0.36808 0.22126 0.51411 0.0
C825 C 0.35669 0.22178 0.52167 0.0
C826 C 0.35867 0.23564 0.52759 0.0
C827 C 0.37206 0.24924 0.52596 0.0
C828 C 0.38336 0.24866 0.51817 0.0
C829 C 0.38136 0.23478 0.51228 0.0
C830 C 0.36849 0.20057 0.53504 0.0
C831 C 0.35557 0.195 0.54303 0.0
C832 C 0.35605 0.20134 0.55751 0.0
C833 C 0.36952 0.21334 0.56436 0.0
C834 C 0.38265 0.21815 0.55668 0.0
C835 C 0.38211 0.21187 0.54209 0.0
C836 C 0.3657 0.17198 0.52358 0.0
C837 C 0.35255 0.16137 0.52977 0.0
C838 C 0.35267 0.15107 0.53961 0.0
C839 C 0.36599 0.1512 0.54345 0.0
C840 C 0.3792 0.16197 0.53729 0.0
C841 C 0.37904 0.17226 0.52739 0.0
C842 C 0.34701 0.16944 0.42297 0.0
C843 C 0.37428 0.26398 0.53235 0.0
H844 H 0.81869 0.18561 0.39024 0.0
H845 H 0.9389 0.26547 0.51761 0.0
H846 H 0.80663 0.18563 0.46868 0.0
H847 H 0.78402 0.16346 0.45688 0.0
H848 H 0.79718 0.13387 0.47733 0.0
H849 H 0.81981 0.15601 0.48879 0.0
H850 H 0.836 0.21084 0.45329 0.0
H851 H 0.8289 0.20426 0.42609 0.0
H852 H 0.8273 0.16144 0.4307 0.0
H853 H 0.8346 0.16824 0.45783 0.0
H854 H 0.86809 0.23578 0.47214 0.0
H855 H 0.88787 0.24845 0.45472 0.0
H856 H 0.8851 0.20556 0.44242 0.0
H857 H 0.86613 0.19331 0.46054 0.0
H858 H 0.86548 0.23725 0.50849 0.0
H859 H 0.8902 0.25799 0.51762 0.0
H860 H 0.9096 0.23149 0.50166 0.0
H861 H 0.88481 0.21077 0.49275 0.0
H862 H 0.83814 0.214 0.52689 0.0
H863 H 0.84745 0.22176 0.55358 0.0
H864 H 0.87828 0.20552 0.54726 0.0
H865 H 0.86853 0.19735 0.5209 0.0
H866 H 0.80701 0.18713 0.50647 0.0
H867 H 0.78902 0.1708 0.52413 0.0
H868 H 0.81896 0.15504 0.53803 0.0
H869 H 0.83656 0.17095 0.51999 0.0
O870 O 0.82155 0.18801 0.401 0.0
O871 O 0.82079 0.1661 0.404 0.0
O872 O 0.91846 0.27061 0.52211 0.0
O873 O 0.929 0.25746 0.51408 0.0
C874 C 0.82957 0.18575 0.48488 0.0
C875 C 0.83991 0.19401 0.47407 0.0
C876 C 0.85433 0.20597 0.47896 0.0
C877 C 0.85829 0.20989 0.49467 0.0
C878 C 0.84802 0.20158 0.5055 0.0
C879 C 0.83366 0.18948 0.50062 0.0
C880 C 0.81487 0.17244 0.47959 0.0
C881 C 0.8045 0.17435 0.47077 0.0
C882 C 0.79165 0.16171 0.46401 0.0
C883 C 0.78887 0.14695 0.46616 0.0
C884 C 0.79893 0.14509 0.47561 0.0
C885 C 0.81186 0.15772 0.48218 0.0
C886 C 0.83572 0.18999 0.45753 0.0
C887 C 0.83415 0.20007 0.44838 0.0
C888 C 0.83007 0.19626 0.43286 0.0
C889 C 0.82749 0.1823 0.42623 0.0
C890 C 0.82917 0.17226 0.43545 0.0
C891 C 0.83329 0.1761 0.45095 0.0
C892 C 0.86566 0.21361 0.46764 0.0
C893 C 0.87181 0.22917 0.46569 0.0
C894 C 0.88303 0.23635 0.45561 0.0
C895 C 0.88819 0.22808 0.44715 0.0
C896 C 0.88168 0.2124 0.44892 0.0
C897 C 0.87066 0.20531 0.45914 0.0
C898 C 0.87338 0.22256 0.4999 0.0
C899 C 0.87509 0.23596 0.50698 0.0
C900 C 0.88922 0.24778 0.51217 0.0
C901 C 0.90189 0.2464 0.51035 0.0
C902 C 0.9001 0.23294 0.50323 0.0
C903 C 0.88596 0.22111 0.49808 0.0
C904 C 0.85272 0.2052 0.52196 0.0
C905 C 0.84674 0.21194 0.53139 0.0
C906 C 0.85217 0.21647 0.54657 0.0
C907 C 0.86366 0.21433 0.55256 0.0
C908 C 0.8693 0.20717 0.54312 0.0
C909 C 0.86383 0.2026 0.52801 0.0
C910 C 0.82311 0.18027 0.51197 0.0
C911 C 0.80966 0.18017 0.51338 0.0
C912 C 0.79945 0.1709 0.52353 0.0
C913 C 0.80251 0.16156 0.53248 0.0
C914 C 0.81613 0.1619 0.53117 0.0
C915 C 0.82629 0.17112 0.52099 0.0
C916 C 0.82308 0.17826 0.40976 0.0
C917 C 0.91691 0.25891 0.51588 0.0
H918 H 0.98802 0.50199 0.32206 0.0
H919 H 0.00563 0.40853 0.19516 0.0
H920 H 0.96956 0.50168 0.24347 0.0
H921 H 0.97327 0.52586 0.25452 0.0
H922 H 0.01443 0.54971 0.23219 0.0
H923 H 0.01096 0.52549 0.22183 0.0
H924 H 0.97122 0.4745 0.25975 0.0
H925 H 0.97425 0.48245 0.28684 0.0
H926 H 0.01738 0.52112 0.27999 0.0
H927 H 0.01428 0.51293 0.25297 0.0
H928 H 0.97216 0.44579 0.24047 0.0
H929 H 0.97773 0.43083 0.25765 0.0
H930 H 0.02116 0.47006 0.26964 0.0
H931 H 0.01585 0.48448 0.25166 0.0
H932 H 0.96661 0.44366 0.20474 0.0
H933 H 0.96768 0.4212 0.19582 0.0
H934 H 0.01441 0.44401 0.21066 0.0
H935 H 0.01322 0.46645 0.21934 0.0
H936 H 0.96354 0.46711 0.18615 0.0
H937 H 0.96176 0.45612 0.16032 0.0
H938 H 0.00841 0.46975 0.16532 0.0
H939 H 0.01012 0.48105 0.19075 0.0
H940 H 0.96442 0.49783 0.20585 0.0
H941 H 0.96325 0.51524 0.18827 0.0
H942 H 0.00645 0.52618 0.17333 0.0
H943 H 0.00766 0.50908 0.19118 0.0
O944 O 0.98706 0.49904 0.31134 0.0
O945 O 0.00912 0.51878 0.30718 0.0
O946 O 0.98083 0.40603 0.19118 0.0
O947 O 0.00487 0.41724 0.19864 0.0
C948 C 0.98892 0.49715 0.22695 0.0
C949 C 0.99058 0.4883 0.23796 0.0
C950 C 0.99078 0.47496 0.23334 0.0
C951 C 0.98922 0.47044 0.2177 0.0
C952 C 0.98761 0.47929 0.20668 0.0
C953 C 0.98736 0.49259 0.21128 0.0
C954 C 0.99001 0.51182 0.23188 0.0
C955 C 0.97929 0.51216 0.24086 0.0
C956 C 0.98139 0.52599 0.24709 0.0
C957 C 0.99423 0.53973 0.24437 0.0
C958 C 0.00457 0.53934 0.23476 0.0
C959 C 0.00252 0.52552 0.22866 0.0
C960 C 0.99248 0.49319 0.2544 0.0
C961 C 0.98131 0.48467 0.26414 0.0
C962 C 0.98307 0.48925 0.2796 0.0
C963 C 0.99604 0.50244 0.28558 0.0
C964 C 0.00724 0.51092 0.27575 0.0
C965 C 0.00548 0.5063 0.26032 0.0
C966 C 0.99359 0.46623 0.24479 0.0
C967 C 0.98287 0.45111 0.24683 0.0
C968 C 0.98604 0.44263 0.25677 0.0
C969 C 0.99995 0.44918 0.26504 0.0
C970 C 0.01046 0.4645 0.26327 0.0
C971 C 0.00737 0.47286 0.25315 0.0
C972 C 0.98982 0.45665 0.21273 0.0
C973 C 0.97705 0.44377 0.20606 0.0
C974 C 0.9777 0.43096 0.20098 0.0
C975 C 0.99114 0.43081 0.20254 0.0
C976 C 0.00389 0.44373 0.2093 0.0
C977 C 0.00324 0.45655 0.21432 0.0
C978 C 0.98695 0.47482 0.1903 0.0
C979 C 0.97342 0.46802 0.18147 0.0
C980 C 0.9724 0.46161 0.1668 0.0
C981 C 0.98492 0.46194 0.16077 0.0
C982 C 0.9986 0.46944 0.16947 0.0
C983 C 0.9996 0.47585 0.18405 0.0
C984 C 0.9861 0.50215 0.19974 0.0
C985 C 0.97356 0.50392 0.19868 0.0
C986 C 0.97289 0.51381 0.1886 0.0
C987 C 0.98479 0.52215 0.17945 0.0
C988 C 0.99719 0.52009 0.18036 0.0
C989 C 0.99784 0.5102 0.19042 0.0
C990 C 0.99786 0.50729 0.30199 0.0
C991 C 0.99191 0.41726 0.1971 0.0
H992 H 0.49604 0.49417 0.33109 0.0
H993 H 0.41298 0.37617 0.20111 0.0
H994 H 0.5042 0.50412 0.25003 0.0
H995 H 0.52501 0.52793 0.26135 0.0
H996 H 0.55502 0.5111 0.2527 0.0
H997 H 0.5339 0.48701 0.24173 0.0
H998 H 0.4789 0.48 0.26601 0.0
H999 H 0.48277 0.48698 0.29336 0.0
H1000 H 0.51816 0.47639 0.29601 0.0
H1001 H 0.51405 0.46928 0.26866 0.0
H1002 H 0.45379 0.45496 0.24323 0.0
H1003 H 0.43414 0.44162 0.2605 0.0
H1004 H 0.46076 0.42548 0.28277 0.0
H1005 H 0.48046 0.43897 0.26535 0.0
H1006 H 0.45573 0.45163 0.20954 0.0
H1007 H 0.43294 0.42908 0.19892 0.0
H1008 H 0.44705 0.40055 0.22024 0.0
H1009 H 0.46989 0.42321 0.23064 0.0
H1010 H 0.4843 0.47814 0.19639 0.0
H1011 H 0.47558 0.47057 0.16973 0.0
H1012 H 0.47738 0.42942 0.17398 0.0
H1013 H 0.487 0.43762 0.20046 0.0
H1014 H 0.50706 0.50261 0.21492 0.0
H1015 H 0.52518 0.51959 0.1979 0.0
H1016 H 0.54123 0.48807 0.19155 0.0
H1017 H 0.52253 0.47087 0.20814 0.0
O1018 O 0.49467 0.49131 0.3203 0.0
O1019 O 0.51282 0.48577 0.32104 0.0
O1020 O 0.41518 0.40046 0.1944 0.0
O1021 O 0.4219 0.38529 0.20517 0.0
C1022 C 0.50459 0.47921 0.23893 0.0
C1023 C 0.49378 0.46982 0.24879 0.0
C1024 C 0.48062 0.45669 0.24281 0.0
C1025 C 0.47846 0.45275 0.22699 0.0
C1026 C 0.48937 0.46204 0.21711 0.0
C1027 C 0.50241 0.47531 0.2231 0.0
C1028 C 0.51754 0.49384 0.24513 0.0
C1029 C 0.51527 0.50558 0.25058 0.0
C1030 C 0.52721 0.51922 0.25693 0.0
C1031 C 0.54171 0.52145 0.25789 0.0
C1032 C 0.54398 0.50968 0.25227 0.0
C1033 C 0.53197 0.49598 0.24591 0.0
C1034 C 0.49612 0.47403 0.2654 0.0
C1035 C 0.48741 0.4791 0.27255 0.0
C1036 C 0.48968 0.48312 0.28816 0.0
C1037 C 0.50076 0.48222 0.29688 0.0
C1038 C 0.50952 0.4772 0.28963 0.0
C1039 C 0.5072 0.47314 0.27403 0.0
C1040 C 0.46851 0.44785 0.25296 0.0
C1041 C 0.4553 0.44837 0.2517 0.0
C1042 C 0.44408 0.44072 0.26157 0.0
C1043 C 0.44585 0.43243 0.27298 0.0
C1044 C 0.4591 0.43187 0.27418 0.0
C1045 C 0.47032 0.43948 0.26422 0.0
C1046 C 0.4645 0.43904 0.22076 0.0
C1047 C 0.45391 0.4405 0.21184 0.0
C1048 C 0.44089 0.4276 0.20582 0.0
C1049 C 0.43819 0.413 0.20871 0.0
C1050 C 0.44879 0.41161 0.21778 0.0
C1051 C 0.46183 0.42453 0.22375 0.0
C1052 C 0.48636 0.45848 0.20038 0.0
C1053 C 0.4833 0.46775 0.19143 0.0
C1054 C 0.47806 0.46325 0.17624 0.0
C1055 C 0.47551 0.44924 0.16974 0.0
C1056 C 0.4793 0.44032 0.17855 0.0
C1057 C 0.48474 0.44495 0.19371 0.0
C1058 C 0.51351 0.48554 0.21275 0.0
C1059 C 0.5145 0.4994 0.20982 0.0
C1060 C 0.52496 0.50914 0.20018 0.0
C1061 C 0.5348 0.5053 0.19338 0.0
C1062 C 0.53374 0.49134 0.19639 0.0
C1063 C 0.52313 0.48153 0.20593 0.0
C1064 C 0.50316 0.48652 0.31346 0.0
C1065 C 0.42439 0.39925 0.20231 0.0
H1066 H 0.52207 0.02071 0.34122 0.0
H1067 H 0.40145 0.98213 0.21599 0.0
H1068 H 0.53393 0.03145 0.26035 0.0
H1069 H 0.55503 0.03073 0.27257 0.0
H1070 H 0.5349 0.98331 0.25707 0.0
H1071 H 0.51441 0.9845 0.24425 0.0
H1072 H 0.5059 0.02871 0.27951 0.0
H1073 H 0.51316 0.02953 0.3064 0.0
H1074 H 0.50785 0.98483 0.2992 0.0
H1075 H 0.50043 0.98409 0.2724 0.0
H1076 H 0.47354 0.02258 0.26233 0.0
H1077 H 0.45447 0.01723 0.28044 0.0
H1078 H 0.45259 0.97484 0.28879 0.0
H1079 H 0.47091 0.97989 0.27004 0.0
H1080 H 0.47533 0.02574 0.22648 0.0
H1081 H 0.45123 0.02269 0.21809 0.0
H1082 H 0.42934 0.97604 0.23014 0.0
H1083 H 0.45352 0.97919 0.23831 0.0
H1084 H 0.50222 0.02942 0.20792 0.0
H1085 H 0.49279 0.02948 0.18205 0.0
H1086 H 0.45979 0.98196 0.1834 0.0
H1087 H 0.46961 0.98194 0.20892 0.0
H1088 H 0.53222 0.03172 0.22691 0.0
H1089 H 0.54951 0.03374 0.2078 0.0
H1090 H 0.51781 0.98822 0.18941 0.0
H1091 H 0.50093 0.98612 0.20896 0.0
O1092 O 0.5191 0.02011 0.33059 0.0
O1093 O 0.5163 0.99716 0.32625 0.0
O1094 O 0.42291 0.00771 0.21325 0.0
O1095 O 0.41112 0.98366 0.21927 0.0
C1096 C 0.50866 0.00758 0.24656 0.0
C1097 C 0.4986 0.00611 0.25766 0.0
C1098 C 0.48463 0.00439 0.25326 0.0
C1099 C 0.48085 0.0045 0.23773 0.0
C1100 C 0.49093 0.00605 0.2266 0.0
C1101 C 0.50485 0.00756 0.23101 0.0
C1102 C 0.5227 0.00804 0.2514 0.0
C1103 C 0.53437 0.02106 0.25925 0.0
C1104 C 0.5463 0.02054 0.26641 0.0
C1105 C 0.54664 0.00689 0.26606 0.0
C1106 C 0.53522 0.99409 0.25747 0.0
C1107 C 0.52344 0.99471 0.25012 0.0
C1108 C 0.50275 0.0064 0.27402 0.0
C1109 C 0.50628 0.0191 0.28379 0.0
C1110 C 0.51044 0.01955 0.29913 0.0
C1111 C 0.51114 0.00727 0.30494 0.0
C1112 C 0.50748 0.9945 0.29509 0.0
C1113 C 0.50328 0.99406 0.27977 0.0
C1114 C 0.47362 0.00163 0.26485 0.0
C1115 C 0.46895 0.01213 0.26806 0.0
C1116 C 0.45815 0.0091 0.27853 0.0
C1117 C 0.45191 0.99556 0.28609 0.0
C1118 C 0.4569 0.98524 0.28301 0.0
C1119 C 0.46752 0.98819 0.27243 0.0
C1120 C 0.46615 0.0027 0.23303 0.0
C1121 C 0.46531 0.01488 0.22729 0.0
C1122 C 0.45154 0.01311 0.22253 0.0
C1123 C 0.43835 0.99911 0.22345 0.0
C1124 C 0.43927 0.98696 0.22928 0.0
C1125 C 0.45305 0.98874 0.23401 0.0
C1126 C 0.48656 0.00569 0.2103 0.0
C1127 C 0.49316 0.01898 0.20246 0.0
C1128 C 0.48765 0.01901 0.18776 0.0
C1129 C 0.47545 0.00575 0.18067 0.0
C1130 C 0.46929 0.99233 0.18839 0.0
C1131 C 0.47483 0.9923 0.20303 0.0
C1132 C 0.51531 0.00878 0.21933 0.0
C1133 C 0.52908 0.02217 0.2188 0.0
C1134 C 0.53888 0.02334 0.20778 0.0
C1135 C 0.53507 0.01115 0.19702 0.0
C1136 C 0.52123 0.99775 0.19762 0.0
C1137 C 0.51149 0.99657 0.2087 0.0
C1138 C 0.51565 0.00782 0.32122 0.0
C1139 C 0.4237 0.99715 0.21834 0.0
H1140 H 0.50314 0.01862 0.72556 0.0
H1141 H 0.58666 0.98083 0.84326 0.0
H1142 H 0.49772 0.02002 0.80712 0.0
H1143 H 0.47757 0.02259 0.79548 0.0
H1144 H 0.4467 0.97521 0.8013 0.0
H1145 H 0.46723 0.97267 0.8125 0.0
H1146 H 0.52225 0.02095 0.78926 0.0
H1147 H 0.51771 0.02434 0.7627 0.0
H1148 H 0.48094 0.97808 0.75768 0.0
H1149 H 0.48573 0.97479 0.78422 0.0
H1150 H 0.54739 0.02012 0.80869 0.0
H1151 H 0.56598 0.02518 0.79015 0.0
H1152 H 0.53647 0.98148 0.76651 0.0
H1153 H 0.51803 0.97638 0.7854 0.0
H1154 H 0.54602 0.01482 0.84295 0.0
H1155 H 0.56858 0.01466 0.85151 0.0
H1156 H 0.55249 0.97158 0.82597 0.0
H1157 H 0.52989 0.9718 0.81765 0.0
H1158 H 0.51848 0.0121 0.85957 0.0
H1159 H 0.52749 0.01154 0.88538 0.0
H1160 H 0.52283 0.96775 0.87331 0.0
H1161 H 0.51314 0.96812 0.84779 0.0
H1162 H 0.49297 0.01415 0.84045 0.0
H1163 H 0.4762 0.01281 0.85979 0.0
H1164 H 0.46545 0.96686 0.86712 0.0
H1165 H 0.48171 0.96809 0.84718 0.0
O1166 O 0.50479 0.01701 0.736 0.0
O1167 O 0.48596 0.99317 0.73404 0.0
O1168 O 0.58559 0.00331 0.85301 0.0
O1169 O 0.57785 0.98119 0.84003 0.0
C1170 C 0.49677 0.99438 0.81555 0.0
C1171 C 0.50705 0.9956 0.8048 0.0
C1172 C 0.51998 0.99523 0.80946 0.0
C1173 C 0.52248 0.99327 0.82482 0.0
C1174 C 0.51202 0.99164 0.83555 0.0
C1175 C 0.49917 0.99227 0.83093 0.0
C1176 C 0.48395 0.99615 0.81058 0.0
C1177 C 0.48656 0.01024 0.80605 0.0
C1178 C 0.47499 0.01169 0.79947 0.0
C1179 C 0.46047 0.99909 0.7974 0.0
C1180 C 0.45777 0.98509 0.80253 0.0
C1181 C 0.46943 0.98364 0.80907 0.0
C1182 C 0.50437 0.9976 0.78862 0.0
C1183 C 0.5133 0.01153 0.78237 0.0
C1184 C 0.51064 0.01345 0.76721 0.0
C1185 C 0.49896 0.00147 0.75806 0.0
C1186 C 0.49003 0.98753 0.76441 0.0
C1187 C 0.49273 0.98562 0.77955 0.0
C1188 C 0.53139 0.99788 0.79841 0.0
C1189 C 0.545 0.01159 0.79959 0.0
C1190 C 0.55554 0.01451 0.7889 0.0
C1191 C 0.55267 0.00377 0.77678 0.0
C1192 C 0.53907 0.98993 0.77577 0.0
C1193 C 0.52851 0.98702 0.78649 0.0
C1194 C 0.53631 0.99329 0.82975 0.0
C1195 C 0.54737 0.00534 0.83927 0.0
C1196 C 0.56026 0.00523 0.84411 0.0
C1197 C 0.56233 0.99309 0.83944 0.0
C1198 C 0.55124 0.9811 0.82979 0.0
C1199 C 0.53834 0.9812 0.82499 0.0
C1200 C 0.51519 0.99017 0.85178 0.0
C1201 C 0.51901 0.0022 0.86265 0.0
C1202 C 0.52435 0.00194 0.87733 0.0
C1203 C 0.52611 0.9897 0.88139 0.0
C1204 C 0.52152 0.97731 0.87067 0.0
C1205 C 0.51605 0.97752 0.85604 0.0
C1206 C 0.48851 0.99119 0.84232 0.0
C1207 C 0.4868 0.00371 0.84606 0.0
C1208 C 0.47733 0.00298 0.85726 0.0
C1209 C 0.4695 0.98975 0.86512 0.0
C1210 C 0.47113 0.97715 0.8612 0.0
C1211 C 0.48051 0.97787 0.84988 0.0
C1212 C 0.49613 0.00357 0.74198 0.0
C1213 C 0.57597 0.9929 0.8446 0.0
H1214 H 0.97711 0.47973 0.74499 0.0
H1215 H 0.02646 0.60606 0.87007 0.0
H1216 H 0.98769 0.47487 0.83119 0.0
H1217 H 0.98387 0.45096 0.81944 0.0
H1218 H 0.03093 0.47245 0.81241 0.0
H1219 H 0.03465 0.49619 0.82481 0.0
H1220 H 0.98318 0.49799 0.80982 0.0
H1221 H 0.97625 0.489 0.78298 0.0
H1222 H 0.02213 0.50279 0.77582 0.0
H1223 H 0.02891 0.51184 0.80267 0.0
H1224 H 0.98622 0.52655 0.8289 0.0
H1225 H 0.98029 0.54181 0.81253 0.0
H1226 H 0.02176 0.55696 0.79116 0.0
H1227 H 0.02756 0.54155 0.80761 0.0
H1228 H 0.99401 0.53051 0.86301 0.0
H1229 H 0.99434 0.55334 0.87329 0.0
H1230 H 0.03492 0.58115 0.85121 0.0
H1231 H 0.03457 0.55821 0.8412 0.0
H1232 H 0.99834 0.50616 0.87793 0.0
H1233 H 0.9993 0.51709 0.90338 0.0
H1234 H 0.04173 0.55624 0.89548 0.0
H1235 H 0.04104 0.54475 0.87039 0.0
H1236 H 0.99538 0.48149 0.8627 0.0
H1237 H 0.99902 0.46513 0.87965 0.0
H1238 H 0.04672 0.49332 0.87768 0.0
H1239 H 0.04287 0.50994 0.86117 0.0
O1240 O 0.98011 0.48341 0.75554 0.0
O1241 O 0.00384 0.49067 0.75246 0.0
O1242 O 0.00525 0.58203 0.87736 0.0
O1243 O 0.02604 0.59684 0.86613 0.0
C1244 C 0.01326 0.50192 0.83458 0.0
C1245 C 0.01062 0.5108 0.82444 0.0
C1246 C 0.01109 0.52423 0.82996 0.0
C1247 C 0.01432 0.52884 0.84561 0.0
C1248 C 0.01712 0.52003 0.85577 0.0
C1249 C 0.01651 0.50652 0.85023 0.0
C1250 C 0.01142 0.48719 0.82882 0.0
C1251 C 0.99718 0.4743 0.82732 0.0
C1252 C 0.99503 0.46071 0.82045 0.0
C1253 C 0.00706 0.45981 0.81476 0.0
C1254 C 0.02143 0.47269 0.81675 0.0
C1255 C 0.02359 0.48627 0.82378 0.0
C1256 C 0.00653 0.50555 0.80813 0.0
C1257 C 0.99171 0.4991 0.8024 0.0
C1258 C 0.98778 0.49396 0.78709 0.0
C1259 C 0.99863 0.49517 0.77726 0.0
C1260 C 0.0135 0.50168 0.78308 0.0
C1261 C 0.01741 0.50684 0.7984 0.0
C1262 C 0.00736 0.53304 0.8195 0.0
C1263 C 0.99402 0.53317 0.82068 0.0
C1264 C 0.99069 0.54194 0.81137 0.0
C1265 C 0.00062 0.55069 0.80063 0.0
C1266 C 0.01385 0.55027 0.79924 0.0
C1267 C 0.0172 0.54152 0.80864 0.0
C1268 C 0.01432 0.54273 0.85145 0.0
C1269 C 0.00298 0.54155 0.86045 0.0
C1270 C 0.00318 0.5546 0.86628 0.0
C1271 C 0.01468 0.56908 0.86309 0.0
C1272 C 0.02592 0.57019 0.8539 0.0
C1273 C 0.02574 0.55712 0.84814 0.0
C1274 C 0.01963 0.52465 0.8723 0.0
C1275 C 0.00816 0.51676 0.88196 0.0
C1276 C 0.00861 0.52318 0.89641 0.0
C1277 C 0.02043 0.53772 0.90136 0.0
C1278 C 0.03249 0.54501 0.89211 0.0
C1279 C 0.03212 0.53847 0.87774 0.0
C1280 C 0.01886 0.4969 0.8608 0.0
C1281 C 0.0066 0.48415 0.86603 0.0
C1282 C 0.00872 0.47475 0.8756 0.0
C1283 C 0.02318 0.47782 0.87999 0.0
C1284 C 0.03545 0.4907 0.87472 0.0
C1285 C 0.03329 0.50018 0.86523 0.0
C1286 C 0.99441 0.48964 0.76101 0.0
C1287 C 0.01498 0.58299 0.86931 0.0
H1288 H 0.48828 0.51333 0.72742 0.0
H1289 H 0.60377 0.60839 0.85619 0.0
H1290 H 0.47277 0.51629 0.8086 0.0
H1291 H 0.45123 0.49256 0.79781 0.0
H1292 H 0.47271 0.46793 0.81276 0.0
H1293 H 0.49366 0.49154 0.82411 0.0
H1294 H 0.50022 0.5409 0.78959 0.0
H1295 H 0.49435 0.53271 0.7625 0.0
H1296 H 0.50342 0.49638 0.76988 0.0
H1297 H 0.50939 0.5048 0.79692 0.0
H1298 H 0.5292 0.56763 0.80327 0.0
H1299 H 0.54756 0.58018 0.7844 0.0
H1300 H 0.55952 0.54527 0.78633 0.0
H1301 H 0.5407 0.53256 0.80455 0.0
H1302 H 0.52995 0.57325 0.84305 0.0
H1303 H 0.5534 0.59598 0.85204 0.0
H1304 H 0.57718 0.57238 0.84155 0.0
H1305 H 0.55364 0.54969 0.83275 0.0
H1306 H 0.50452 0.54947 0.86342 0.0
H1307 H 0.51307 0.55766 0.89028 0.0
H1308 H 0.54569 0.54354 0.88559 0.0
H1309 H 0.53679 0.53504 0.85908 0.0
H1310 H 0.47481 0.52139 0.84281 0.0
H1311 H 0.45665 0.50501 0.8603 0.0
H1312 H 0.48726 0.49071 0.87602 0.0
H1313 H 0.50513 0.5068 0.85819 0.0
O1314 O 0.49069 0.5164 0.73815 0.0
O1315 O 0.49544 0.49789 0.74256 0.0
O1316 O 0.5816 0.61121 0.85784 0.0
O1317 O 0.59435 0.59958 0.85265 0.0
C1318 C 0.4984 0.51998 0.82234 0.0
C1319 C 0.50864 0.52838 0.81158 0.0
C1320 C 0.52238 0.54134 0.81643 0.0
C1321 C 0.52582 0.54606 0.83204 0.0
C1322 C 0.51566 0.53755 0.84287 0.0
C1323 C 0.50189 0.52454 0.83801 0.0
C1324 C 0.48469 0.50557 0.81718 0.0
C1325 C 0.4726 0.50568 0.80976 0.0
C1326 C 0.4604 0.49212 0.80348 0.0
C1327 C 0.46018 0.47824 0.80431 0.0
C1328 C 0.47225 0.47826 0.81211 0.0
C1329 C 0.48431 0.49176 0.81856 0.0
C1330 C 0.50514 0.52338 0.79518 0.0
C1331 C 0.50094 0.53119 0.78531 0.0
C1332 C 0.49759 0.52647 0.76986 0.0
C1333 C 0.49838 0.51386 0.76403 0.0
C1334 C 0.50267 0.50611 0.774 0.0
C1335 C 0.50605 0.51086 0.78944 0.0
C1336 C 0.53365 0.54921 0.80522 0.0
C1337 C 0.53579 0.56273 0.79953 0.0
C1338 C 0.54635 0.56991 0.78882 0.0
C1339 C 0.55506 0.56375 0.78375 0.0
C1340 C 0.55286 0.55021 0.78966 0.0
C1341 C 0.5422 0.54298 0.80019 0.0
C1342 C 0.54013 0.5599 0.83713 0.0
C1343 C 0.54025 0.57304 0.84267 0.0
C1344 C 0.55365 0.586 0.8478 0.0
C1345 C 0.56718 0.58601 0.84748 0.0
C1346 C 0.56698 0.57278 0.84191 0.0
C1347 C 0.55357 0.55983 0.8368 0.0
C1348 C 0.52007 0.54172 0.85933 0.0
C1349 C 0.51339 0.54801 0.86831 0.0
C1350 C 0.51836 0.55278 0.88358 0.0
C1351 C 0.53008 0.55126 0.89009 0.0
C1352 C 0.53651 0.54467 0.88105 0.0
C1353 C 0.53153 0.53992 0.86585 0.0
C1354 C 0.49129 0.51531 0.84927 0.0
C1355 C 0.47758 0.51475 0.85009 0.0
C1356 C 0.46728 0.50546 0.86014 0.0
C1357 C 0.47049 0.49652 0.86954 0.0
C1358 C 0.48435 0.49729 0.8688 0.0
C1359 C 0.49464 0.50658 0.85874 0.0
C1360 C 0.49477 0.50886 0.74762 0.0
C1361 C 0.58144 0.59972 0.85298 0.0
H1362 H 0.64422 0.83212 0.65927 0.0
H1363 H 0.65103 0.73121 0.53007 0.0
H1364 H 0.62093 0.82776 0.5803 0.0
H1365 H 0.62452 0.85212 0.59074 0.0
H1366 H 0.6661 0.87559 0.56911 0.0
H1367 H 0.66251 0.85124 0.55889 0.0
H1368 H 0.6234 0.80232 0.5981 0.0
H1369 H 0.6281 0.81145 0.62496 0.0
H1370 H 0.67172 0.84784 0.61551 0.0
H1371 H 0.66693 0.83848 0.58873 0.0
H1372 H 0.62223 0.77468 0.58418 0.0
H1373 H 0.62868 0.76072 0.60197 0.0
H1374 H 0.67535 0.79395 0.59973 0.0
H1375 H 0.66868 0.80799 0.58249 0.0
H1376 H 0.61469 0.76704 0.55033 0.0
H1377 H 0.61421 0.74357 0.54198 0.0
H1378 H 0.66224 0.76846 0.5416 0.0
H1379 H 0.66252 0.79182 0.5499 0.0
H1380 H 0.6121 0.7844 0.52691 0.0
H1381 H 0.61047 0.77252 0.50152 0.0
H1382 H 0.65823 0.79981 0.50014 0.0
H1383 H 0.65978 0.81127 0.52555 0.0
H1384 H 0.61498 0.82217 0.54045 0.0
H1385 H 0.61412 0.83832 0.52099 0.0
H1386 H 0.6593 0.85164 0.51106 0.0
H1387 H 0.66002 0.8356 0.53044 0.0
O1388 O 0.64262 0.82868 0.64862 0.0
O1389 O 0.6649 0.84722 0.64315 0.0
O1390 O 0.62622 0.72802 0.53385 0.0
O1391 O 0.65089 0.74029 0.53346 0.0
C1392 C 0.64018 0.82295 0.56403 0.0
C1393 C 0.64185 0.81424 0.5752 0.0
C1394 C 0.64132 0.8005 0.57081 0.0
C1395 C 0.63883 0.7953 0.55535 0.0
C1396 C 0.63738 0.80405 0.54416 0.0
C1397 C 0.63817 0.81795 0.54846 0.0
C1398 C 0.64141 0.83773 0.56874 0.0
C1399 C 0.6307 0.83819 0.57765 0.0
C1400 C 0.63281 0.85208 0.58367 0.0
C1401 C 0.6456 0.86577 0.58076 0.0
C1402 C 0.65603 0.86527 0.57138 0.0
C1403 C 0.65399 0.85137 0.5655 0.0
C1404 C 0.6448 0.81978 0.59149 0.0
C1405 C 0.63398 0.81223 0.60188 0.0
C1406 C 0.63668 0.81749 0.6172 0.0
C1407 C 0.65028 0.8304 0.62238 0.0
C1408 C 0.66112 0.83789 0.6119 0.0
C1409 C 0.65841 0.83259 0.5966 0.0
C1410 C 0.64499 0.79236 0.58216 0.0
C1411 C 0.63381 0.77897 0.58772 0.0
C1412 C 0.63755 0.77097 0.59777 0.0
C1413 C 0.65256 0.77619 0.60234 0.0
C1414 C 0.66367 0.78972 0.59676 0.0
C1415 C 0.65991 0.79774 0.58683 0.0
C1416 C 0.63863 0.78105 0.55072 0.0
C1417 C 0.62508 0.76735 0.54847 0.0
C1418 C 0.62485 0.75399 0.5437 0.0
C1419 C 0.6382 0.75414 0.54111 0.0
C1420 C 0.65177 0.76793 0.54348 0.0
C1421 C 0.65197 0.78128 0.54824 0.0
C1422 C 0.63603 0.79889 0.52791 0.0
C1423 C 0.62214 0.78804 0.52093 0.0
C1424 C 0.62124 0.78122 0.50653 0.0
C1425 C 0.63422 0.78531 0.49886 0.0
C1426 C 0.64803 0.79662 0.50567 0.0
C1427 C 0.64894 0.80323 0.52014 0.0
C1428 C 0.63747 0.82752 0.53664 0.0
C1429 C 0.62463 0.82854 0.53399 0.0
C1430 C 0.6242 0.83781 0.52295 0.0
C1431 C 0.63659 0.84613 0.51438 0.0
C1432 C 0.64945 0.84512 0.51722 0.0
C1433 C 0.64989 0.83596 0.52827 0.0
C1434 C 0.6531 0.83598 0.63865 0.0
C1435 C 0.63801 0.74001 0.53593 0.0
H1436 H 0.16407 0.82754 0.66975 0.0
H1437 H 0.08162 0.70915 0.53994 0.0
H1438 H 0.17024 0.83772 0.58877 0.0
H1439 H 0.19048 0.86173 0.60028 0.0
H1440 H 0.22196 0.84718 0.59002 0.0
H1441 H 0.20136 0.82278 0.57899 0.0
H1442 H 0.14576 0.81304 0.60492 0.0
H1443 H 0.14999 0.81995 0.63228 0.0
H1444 H 0.18684 0.81155 0.63368 0.0
H1445 H 0.18238 0.80449 0.60633 0.0
H1446 H 0.12055 0.7872 0.58196 0.0
H1447 H 0.10126 0.77285 0.59929 0.0
H1448 H 0.13012 0.75941 0.62152 0.0
H1449 H 0.14937 0.77367 0.6039 0.0
H1450 H 0.12232 0.78478 0.54851 0.0
H1451 H 0.09981 0.7618 0.5381 0.0
H1452 H 0.1157 0.73434 0.55861 0.0
H1453 H 0.13825 0.75742 0.56879 0.0
H1454 H 0.15034 0.81223 0.53535 0.0
H1455 H 0.14078 0.80466 0.50889 0.0
H1456 H 0.14372 0.76402 0.51185 0.0
H1457 H 0.15415 0.77221 0.5381 0.0
H1458 H 0.17373 0.83691 0.55296 0.0
H1459 H 0.19139 0.85366 0.53545 0.0
H1460 H 0.20748 0.82219 0.5289 0.0
H1461 H 0.18924 0.80523 0.54595 0.0
O1462 O 0.16257 0.82472 0.65896 0.0
O1463 O 0.18146 0.82031 0.65905 0.0
O1464 O 0.08278 0.73306 0.53357 0.0
O1465 O 0.09041 0.71843 0.54393 0.0
C1466 C 0.17164 0.8136 0.57705 0.0
C1467 C 0.16115 0.80398 0.58706 0.0
C1468 C 0.14811 0.79062 0.58123 0.0
C1469 C 0.14576 0.78672 0.5654 0.0
C1470 C 0.15635 0.79625 0.55537 0.0
C1471 C 0.16931 0.80967 0.56122 0.0
C1472 C 0.18432 0.82849 0.58312 0.0
C1473 C 0.18151 0.83973 0.58899 0.0
C1474 C 0.19313 0.85351 0.59545 0.0
C1475 C 0.2079 0.85645 0.59603 0.0
C1476 C 0.21072 0.84523 0.5899 0.0
C1477 C 0.19901 0.83135 0.58349 0.0
C1478 C 0.1637 0.80816 0.60368 0.0
C1479 C 0.15468 0.8126 0.61118 0.0
C1480 C 0.15715 0.81659 0.6268 0.0
C1481 C 0.16875 0.81628 0.63518 0.0
C1482 C 0.17781 0.81189 0.62758 0.0
C1483 C 0.17529 0.80787 0.61197 0.0
C1484 C 0.13633 0.78139 0.59157 0.0
C1485 C 0.12264 0.78098 0.59042 0.0
C1486 C 0.11164 0.77278 0.60033 0.0
C1487 C 0.11416 0.76496 0.61173 0.0
C1488 C 0.1279 0.7654 0.6129 0.0
C1489 C 0.13887 0.77349 0.60284 0.0
C1490 C 0.13196 0.77275 0.5593 0.0
C1491 C 0.12094 0.77379 0.55067 0.0
C1492 C 0.10808 0.76064 0.54478 0.0
C1493 C 0.10597 0.74622 0.5475 0.0
C1494 C 0.11698 0.74525 0.55628 0.0
C1495 C 0.12986 0.75841 0.56213 0.0
C1496 C 0.15299 0.79281 0.53866 0.0
C1497 C 0.1494 0.80196 0.53013 0.0
C1498 C 0.14369 0.79746 0.51507 0.0
C1499 C 0.14121 0.78357 0.50829 0.0
C1500 C 0.14556 0.77482 0.51663 0.0
C1501 C 0.15148 0.77945 0.53167 0.0
C1502 C 0.18023 0.81989 0.55072 0.0
C1503 C 0.18109 0.83367 0.54772 0.0
C1504 C 0.19129 0.84328 0.53778 0.0
C1505 C 0.20099 0.83937 0.53076 0.0
C1506 C 0.20009 0.82551 0.53388 0.0
C1507 C 0.18974 0.81583 0.54371 0.0
C1508 C 0.17136 0.82055 0.65177 0.0
C1509 C 0.09234 0.73222 0.54122 0.0
H1510 H 0.19455 0.36502 0.67895 0.0
H1511 H 0.07809 0.33704 0.5542 0.0
H1512 H 0.20804 0.37716 0.60174 0.0
H1513 H 0.22704 0.37289 0.61387 0.0
H1514 H 0.20841 0.32973 0.58783 0.0
H1515 H 0.18906 0.33375 0.57641 0.0
H1516 H 0.18011 0.37652 0.61806 0.0
H1517 H 0.18656 0.37579 0.64484 0.0
H1518 H 0.18198 0.3317 0.63499 0.0
H1519 H 0.17534 0.33248 0.60829 0.0
H1520 H 0.1486 0.37202 0.60079 0.0
H1521 H 0.12854 0.36528 0.61799 0.0
H1522 H 0.12653 0.32244 0.62398 0.0
H1523 H 0.14578 0.32886 0.60608 0.0
H1524 H 0.15221 0.37724 0.56457 0.0
H1525 H 0.1287 0.37572 0.55653 0.0
H1526 H 0.10474 0.32877 0.56756 0.0
H1527 H 0.12833 0.33039 0.5754 0.0
H1528 H 0.17739 0.37856 0.54421 0.0
H1529 H 0.16814 0.3773 0.51786 0.0
H1530 H 0.13467 0.33028 0.52145 0.0
H1531 H 0.14427 0.33156 0.54741 0.0
H1532 H 0.2075 0.38012 0.56348 0.0
H1533 H 0.22394 0.38104 0.54377 0.0
H1534 H 0.19061 0.33569 0.52649 0.0
H1535 H 0.17457 0.33472 0.54649 0.0
O1536 O 0.1919 0.36503 0.66833 0.0
O1537 O 0.18948 0.34242 0.66265 0.0
O1538 O 0.1004 0.36212 0.55179 0.0
O1539 O 0.08754 0.33796 0.55732 0.0
C1540 C 0.18357 0.3565 0.58375 0.0
C1541 C 0.17362 0.35525 0.59495 0.0
C1542 C 0.1599 0.35424 0.59068 0.0
C1543 C 0.1563 0.35491 0.57524 0.0
C1544 C 0.16614 0.35604 0.56402 0.0
C1545 C 0.17978 0.35683 0.56824 0.0
C1546 C 0.19709 0.35572 0.58827 0.0
C1547 C 0.20828 0.36694 0.59844 0.0
C1548 C 0.21915 0.36448 0.60533 0.0
C1549 C 0.2191 0.35083 0.60204 0.0
C1550 C 0.20857 0.3402 0.59091 0.0
C1551 C 0.19762 0.34258 0.58417 0.0
C1552 C 0.17738 0.35462 0.61123 0.0
C1553 C 0.18047 0.36671 0.62173 0.0
C1554 C 0.18418 0.36627 0.63701 0.0
C1555 C 0.18484 0.35371 0.64205 0.0
C1556 C 0.18162 0.34156 0.63148 0.0
C1557 C 0.17786 0.34199 0.61622 0.0
C1558 C 0.14867 0.35093 0.60216 0.0
C1559 C 0.1438 0.36119 0.60585 0.0
C1560 C 0.13241 0.35736 0.61579 0.0
C1561 C 0.12579 0.34324 0.62233 0.0
C1562 C 0.13109 0.33326 0.61894 0.0
C1563 C 0.14228 0.33699 0.60886 0.0
C1564 C 0.14195 0.35396 0.57066 0.0
C1565 C 0.14186 0.36664 0.56525 0.0
C1566 C 0.12843 0.36575 0.56067 0.0
C1567 C 0.11483 0.35212 0.56143 0.0
C1568 C 0.11499 0.33943 0.56686 0.0
C1569 C 0.12844 0.34034 0.5714 0.0
C1570 C 0.16145 0.35517 0.54772 0.0
C1571 C 0.1682 0.36796 0.53918 0.0
C1572 C 0.16282 0.36724 0.52419 0.0
C1573 C 0.15064 0.35369 0.51753 0.0
C1574 C 0.14419 0.34083 0.52609 0.0
C1575 C 0.14958 0.34155 0.54098 0.0
C1576 C 0.18981 0.35739 0.55636 0.0
C1577 C 0.20382 0.37038 0.55545 0.0
C1578 C 0.21313 0.37092 0.54412 0.0
C1579 C 0.2086 0.35844 0.53352 0.0
C1580 C 0.19456 0.34543 0.53456 0.0
C1581 C 0.1853 0.3449 0.54589 0.0
C1582 C 0.18887 0.35332 0.65827 0.0
C1583 C 0.10053 0.3511 0.55655 0.0
C1584 C 0.98272 0.37824 0.05464 0.0
C1585 C 0.99734 0.38443 0.05004 0.0
C1586 C 0.97926 0.38623 0.0655 0.0
C1587 C 0.99178 0.42475 0.08169 0.0
H1588 H 0.97275 0.40575 0.11792 0.0
C1589 C 0.99532 0.45964 0.13616 0.0
C1590 C 0.98363 0.45366 0.14597 0.0
C1591 C 0.99497 0.45109 0.12319 0.0
C1592 C 0.97777 0.41118 0.10774 0.0
H1593 H 0.01973 0.4039 0.05314 0.0
H1594 H 0.01361 0.41782 0.07182 0.0
H1595 H 0.9757 0.39065 0.0976 0.0
H1596 H 0.96208 0.43415 0.14943 0.0
H1597 H 0.96119 0.41947 0.12648 0.0
H1598 H 0.9939 0.44525 0.09169 0.0
C1599 C 0.00486 0.40681 0.06708 0.0
C1600 C 0.9795 0.40251 0.09613 0.0
C1601 C 0.00837 0.39876 0.05646 0.0
C1602 C 0.97123 0.43918 0.14208 0.0
C1603 C 0.97082 0.43066 0.12902 0.0
C1604 C 0.98989 0.43336 0.09319 0.0
C1605 C 0.99029 0.40066 0.0717 0.0
C1606 C 0.98685 0.40931 0.08317 0.0
C1607 C 0.98284 0.43637 0.11958 0.0
C1608 C 0.98321 0.42679 0.10655 0.0
H1609 H 0.97399 0.36722 0.04991 0.0
H1610 H 0.96793 0.38125 0.06889 0.0
H1611 H 0.99729 0.43021 0.07169 0.0
H1612 H 0.00495 0.47084 0.13868 0.0
H1613 H 0.00451 0.45586 0.11632 0.0
C1614 C 0.61359 0.60066 0.10715 0.0
C1615 C 0.61845 0.59512 0.09512 0.0
C1616 C 0.6062 0.59147 0.11885 0.0
C1617 C 0.59664 0.55478 0.13561 0.0
H1618 H 0.5642 0.55886 0.15085 0.0
C1619 C 0.5496 0.51011 0.17013 0.0
C1620 C 0.54598 0.51578 0.18313 0.0
C1621 C 0.55963 0.52001 0.1602 0.0
C1622 C 0.57331 0.55768 0.1468 0.0
H1623 H 0.6197 0.57572 0.08612 0.0
H1624 H 0.60631 0.55945 0.10619 0.0
H1625 H 0.5795 0.57569 0.1321 0.0
H1626 H 0.5507 0.53645 0.19614 0.0
H1627 H 0.56775 0.55363 0.17853 0.0
H1628 H 0.58987 0.53627 0.15001 0.0
C1629 C 0.60851 0.57102 0.10686 0.0
C1630 C 0.58217 0.5674 0.1361 0.0
C1631 C 0.61615 0.58033 0.09528 0.0
C1632 C 0.55289 0.53163 0.18607 0.0
C1633 C 0.56274 0.54149 0.17604 0.0
C1634 C 0.5876 0.5449 0.14617 0.0
C1635 C 0.60321 0.57638 0.11868 0.0
C1636 C 0.594 0.56613 0.13036 0.0
C1637 C 0.56611 0.53579 0.16295 0.0
C1638 C 0.57587 0.54629 0.15189 0.0
H1639 H 0.61536 0.61208 0.10744 0.0
H1640 H 0.6027 0.59618 0.12795 0.0
H1641 H 0.60575 0.55357 0.13166 0.0
H1642 H 0.54438 0.49801 0.16735 0.0
H1643 H 0.56194 0.51532 0.15011 0.0
C1644 C 0.40687 0.01192 0.06702 0.0
C1645 C 0.39958 0.99824 0.05785 0.0
C1646 C 0.41551 0.01327 0.08018 0.0
C1647 C 0.42167 0.98992 0.10752 0.0
H1648 H 0.4588 0.02724 0.11853 0.0
C1649 C 0.46296 0.9935 0.15492 0.0
C1650 C 0.46856 0.006 0.16568 0.0
C1651 C 0.45523 0.99311 0.14147 0.0
C1652 C 0.44841 0.01679 0.11564 0.0
H1653 H 0.39585 0.97531 0.05525 0.0
H1654 H 0.41109 0.97776 0.07787 0.0
H1655 H 0.44373 0.02546 0.09579 0.0
H1656 H 0.47067 0.02807 0.17047 0.0
H1657 H 0.45737 0.02746 0.14685 0.0
H1658 H 0.42643 0.9812 0.12725 0.0
C1659 C 0.40989 0.98737 0.07516 0.0
C1660 C 0.43973 0.01577 0.10265 0.0
C1661 C 0.40119 0.98599 0.0621 0.0
C1662 C 0.4667 0.01835 0.16237 0.0
C1663 C 0.45903 0.01799 0.14885 0.0
C1664 C 0.43038 0.9909 0.12041 0.0
C1665 C 0.41713 0.001 0.08441 0.0
C1666 C 0.42627 0.0023 0.0984 0.0
C1667 C 0.45299 0.00525 0.13839 0.0
C1668 C 0.44386 0.00432 0.1246 0.0
H1669 H 0.40583 0.02157 0.0641 0.0
H1670 H 0.42077 0.02388 0.08713 0.0
H1671 H 0.41122 0.97947 0.1048 0.0
H1672 H 0.46444 0.98393 0.15696 0.0
H1673 H 0.45093 0.98325 0.13349 0.0
C1674 C 0.38793 0.9761 0.96915 0.0
C1675 C 0.39284 0.98992 0.97773 0.0
C1676 C 0.39548 0.97548 0.95653 0.0
C1677 C 0.43241 0.99558 0.94119 0.0
H1678 H 0.41203 0.97423 0.90264 0.0
C1679 C 0.46462 0.00211 0.88773 0.0
C1680 C 0.46005 0.98927 0.87765 0.0
C1681 C 0.45596 0.00168 0.89966 0.0
C1682 C 0.4179 0.98007 0.91339 0.0
H1683 H 0.40934 0.01397 0.97949 0.0
H1684 H 0.42243 0.01282 0.95763 0.0
H1685 H 0.39757 0.97419 0.92392 0.0
H1686 H 0.44257 0.96593 0.87219 0.0
H1687 H 0.42769 0.96503 0.89332 0.0
H1688 H 0.4527 0.00133 0.93089 0.0
C1689 C 0.41284 0.00245 0.96072 0.0
C1690 C 0.4096 0.98007 0.92556 0.0
C1691 C 0.40526 0.00311 0.97322 0.0
C1692 C 0.44653 0.97599 0.87982 0.0
C1693 C 0.4379 0.97553 0.89184 0.0
C1694 C 0.44069 0.99549 0.9291 0.0
C1695 C 0.40816 0.98862 0.95234 0.0
C1696 C 0.41679 0.98798 0.93953 0.0
C1697 C 0.44254 0.98836 0.90196 0.0
C1698 C 0.43357 0.9879 0.91497 0.0
H1699 H 0.37839 0.96573 0.9723 0.0
H1700 H 0.39165 0.96464 0.95031 0.0
H1701 H 0.43827 0.00154 0.95191 0.0
H1702 H 0.47504 0.01248 0.88657 0.0
H1703 H 0.4598 0.01186 0.90706 0.0
C1704 C 0.01153 0.3832 0.96492 0.0
C1705 C 0.02198 0.38745 0.97736 0.0
C1706 C 0.0143 0.39279 0.95311 0.0
C1707 C 0.03372 0.43293 0.94676 0.0
H1708 H 0.02331 0.41905 0.90414 0.0
C1709 C 0.03707 0.47352 0.90138 0.0
C1710 C 0.02537 0.4676 0.89001 0.0
C1711 C 0.03876 0.46393 0.9111 0.0
C1712 C 0.02615 0.4231 0.91601 0.0
H1713 H 0.04384 0.40482 0.98683 0.0
H1714 H 0.04859 0.42168 0.96622 0.0
H1715 H 0.02265 0.40163 0.92264 0.0
H1716 H 0.00657 0.4468 0.87965 0.0
H1717 H 0.00909 0.43022 0.89694 0.0
H1718 H 0.03654 0.45415 0.94038 0.0
C1719 C 0.03825 0.4109 0.96566 0.0
C1720 C 0.02585 0.41313 0.92657 0.0
C1721 C 0.03557 0.40121 0.9774 0.0
C1722 C 0.01556 0.45181 0.88844 0.0
C1723 C 0.01717 0.44225 0.89823 0.0
C1724 C 0.03386 0.44286 0.93624 0.0
C1725 C 0.02751 0.40692 0.95355 0.0
C1726 C 0.02942 0.41788 0.94209 0.0
C1727 C 0.02872 0.44817 0.90977 0.0
C1728 C 0.02984 0.43801 0.92075 0.0
H1729 H 0.00098 0.37266 0.96453 0.0
H1730 H 0.00577 0.38946 0.94398 0.0
H1731 H 0.03632 0.43685 0.95868 0.0
H1732 H 0.04477 0.48563 0.90302 0.0
H1733 H 0.04791 0.46889 0.91972 0.0
C1734 C 0.60258 0.59131 0.01049 0.0
C1735 C 0.60595 0.6051 0.01825 0.0
C1736 C 0.59271 0.58566 0.9976 0.0
C1737 C 0.57747 0.59715 0.96635 0.0
H1738 H 0.54764 0.55435 0.96163 0.0
C1739 C 0.5381 0.57094 0.912 0.0
C1740 C 0.53599 0.55693 0.90608 0.0
C1741 C 0.54488 0.57684 0.92659 0.0
C1742 C 0.55598 0.5663 0.9627 0.0
H1743 H 0.60163 0.62382 0.01845 0.0
H1744 H 0.58448 0.61399 0.99569 0.0
H1745 H 0.56315 0.56481 0.9853 0.0
H1746 H 0.5387 0.5378 0.91116 0.0
H1747 H 0.55087 0.54822 0.93629 0.0
H1748 H 0.57073 0.59858 0.94357 0.0
C1749 C 0.58949 0.60757 0.9997 0.0
C1750 C 0.56482 0.57229 0.97628 0.0
C1751 C 0.59926 0.61316 0.01274 0.0
C1752 C 0.54035 0.54873 0.91527 0.0
C1753 C 0.54716 0.55463 0.9298 0.0
C1754 C 0.5687 0.59113 0.95269 0.0
C1755 C 0.58606 0.59372 0.99206 0.0
C1756 C 0.57583 0.58772 0.97815 0.0
C1757 C 0.54971 0.56886 0.93558 0.0
C1758 C 0.55802 0.57557 0.9506 0.0
H1759 H 0.60751 0.58479 0.01442 0.0
H1760 H 0.59044 0.57506 0.99183 0.0
H1761 H 0.58595 0.60906 0.96743 0.0
H1762 H 0.53497 0.57761 0.90518 0.0
H1763 H 0.54648 0.58773 0.93075 0.0
C1764 C 0.99325 0.60729 0.99834 0.0
C1765 C 0.0051 0.61869 0.0078 0.0
C1766 C 0.99578 0.59872 0.98737 0.0
C1767 C 0.02498 0.5977 0.96543 0.0
H1768 H 0.99607 0.55462 0.96044 0.0
C1769 C 0.03206 0.5558 0.92473 0.0
C1770 C 0.01937 0.54594 0.91519 0.0
C1771 C 0.03108 0.56445 0.93692 0.0
C1772 C 0.00421 0.56664 0.96166 0.0
H1773 H 0.02901 0.6303 0.01283 0.0
H1774 H 0.03342 0.61519 0.99372 0.0
H1775 H 0.99304 0.57057 0.97962 0.0
H1776 H 0.99573 0.53762 0.91099 0.0
H1777 H 0.99402 0.55238 0.93231 0.0
H1778 H 0.0361 0.59367 0.94736 0.0
C1779 C 0.02216 0.61298 0.99474 0.0
C1780 C 0.00245 0.5758 0.97261 0.0
C1781 C 0.01963 0.62162 0.00571 0.0
C1782 C 0.00566 0.54476 0.9183 0.0
C1783 C 0.00468 0.55329 0.93051 0.0
C1784 C 0.02677 0.58849 0.95449 0.0
C1785 C 0.01023 0.60127 0.98561 0.0
C1786 C 0.01266 0.59149 0.97446 0.0
C1787 C 0.01738 0.56334 0.93987 0.0
C1788 C 0.01627 0.57291 0.95233 0.0
H1789 H 0.98193 0.6048 0.99954 0.0
H1790 H 0.98638 0.59003 0.98029 0.0
H1791 H 0.03299 0.60975 0.96649 0.0
H1792 H 0.04276 0.5569 0.92274 0.0
H1793 H 0.04104 0.57201 0.94404 0.0
C1794 C 0.39322 0.4021 0.95508 0.0
C1795 C 0.38512 0.40546 0.96542 0.0
C1796 C 0.40038 0.41175 0.94362 0.0
C1797 C 0.41678 0.45151 0.9347 0.0
H1798 H 0.41874 0.43577 0.89457 0.0
C1799 C 0.45081 0.49079 0.88815 0.0
C1800 C 0.45932 0.48617 0.87982 0.0
C1801 C 0.44035 0.481 0.89784 0.0
C1802 C 0.41839 0.44035 0.90576 0.0
H1803 H 0.37785 0.42142 0.97154 0.0
H1804 H 0.39041 0.43834 0.95145 0.0
H1805 H 0.40251 0.4184 0.91258 0.0
H1806 H 0.46325 0.46749 0.87493 0.0
H1807 H 0.4453 0.4506 0.89201 0.0
H1808 H 0.43293 0.47342 0.928 0.0
C1809 C 0.39127 0.42825 0.95232 0.0
C1810 C 0.40906 0.4304 0.91606 0.0
C1811 C 0.384 0.41851 0.96376 0.0
C1812 C 0.45703 0.4715 0.88132 0.0
C1813 C 0.44658 0.46172 0.89096 0.0
C1814 C 0.42615 0.46148 0.92439 0.0
C1815 C 0.39968 0.42505 0.94223 0.0
C1816 C 0.40835 0.43582 0.93075 0.0
C1817 C 0.43812 0.46635 0.89936 0.0
C1818 C 0.42727 0.45597 0.90989 0.0
H1819 H 0.3943 0.39213 0.95599 0.0
H1820 H 0.4069 0.40903 0.93616 0.0
H1821 H 0.41662 0.45604 0.94598 0.0
H1822 H 0.45237 0.50206 0.88734 0.0
H1823 H 0.43395 0.48489 0.90405 0.0
C1824 C 0.60471 0.01129 0.99696 0.0
C1825 C 0.60207 0.99853 0.00479 0.0
C1826 C 0.59619 0.00968 0.98368 0.0
C1827 C 0.56016 0.98448 0.96287 0.0
H1828 H 0.58007 0.00719 0.92858 0.0
C1829 C 0.52924 0.97723 0.90423 0.0
C1830 C 0.53373 0.99036 0.89627 0.0
C1831 C 0.53717 0.97775 0.91762 0.0
C1832 C 0.57429 0.00092 0.93811 0.0
H1833 H 0.58831 0.97403 0.00476 0.0
H1834 H 0.57335 0.97124 0.9815 0.0
H1835 H 0.59472 0.00884 0.95147 0.0
H1836 H 0.55006 0.01436 0.89634 0.0
H1837 H 0.56346 0.01538 0.91987 0.0
H1838 H 0.53969 0.97673 0.94958 0.0
C1839 C 0.58203 0.9825 0.98574 0.0
C1840 C 0.58271 0.00183 0.95121 0.0
C1841 C 0.59065 0.98409 0.999 0.0
C1842 C 0.54613 0.00407 0.90223 0.0
C1843 C 0.55399 0.0046 0.91563 0.0
C1844 C 0.5517 0.98363 0.94976 0.0
C1845 C 0.58475 0.99528 0.97792 0.0
C1846 C 0.57575 0.99373 0.96379 0.0
C1847 C 0.54975 0.99142 0.9234 0.0
C1848 C 0.55866 0.99195 0.93726 0.0
H1849 H 0.61339 0.02258 0.00108 0.0
H1850 H 0.59844 0.01976 0.97801 0.0
H1851 H 0.55447 0.97821 0.97244 0.0
H1852 H 0.51966 0.96651 0.90005 0.0
H1853 H 0.53363 0.96736 0.92325 0.0
C1854 C 0.61454 0.02541 0.09084 0.0
C1855 C 0.61244 0.0112 0.08563 0.0
C1856 C 0.60788 0.02681 0.10387 0.0
C1857 C 0.59095 0.00773 0.13852 0.0
H1858 H 0.56874 0.02885 0.13575 0.0
C1859 C 0.54704 0.99987 0.18082 0.0
C1860 C 0.54544 0.01238 0.18519 0.0
C1861 C 0.55648 0.00087 0.16948 0.0
C1862 C 0.57508 0.02313 0.13685 0.0
H1863 H 0.60207 0.98743 0.09035 0.0
H1864 H 0.59059 0.98992 0.11302 0.0
H1865 H 0.58342 0.02888 0.11478 0.0
H1866 H 0.55266 0.0358 0.181 0.0
H1867 H 0.56944 0.03768 0.16152 0.0
H1868 H 0.58261 0.0019 0.16053 0.0
C1869 C 0.59738 0.99998 0.10707 0.0
C1870 C 0.58349 0.02314 0.1248 0.0
C1871 C 0.6039 0.99854 0.094 0.0
C1872 C 0.55371 0.02598 0.17804 0.0
C1873 C 0.56321 0.027 0.16672 0.0
C1874 C 0.58262 0.00779 0.1506 0.0
C1875 C 0.59914 0.01408 0.11206 0.0
C1876 C 0.59132 0.01524 0.1254 0.0
C1877 C 0.56467 0.01443 0.16224 0.0
C1878 C 0.57437 0.01528 0.14982 0.0
H1879 H 0.62104 0.03538 0.08465 0.0
H1880 H 0.60952 0.03785 0.10751 0.0
H1881 H 0.59704 0.00172 0.13942 0.0
H1882 H 0.54102 0.98928 0.18621 0.0
H1883 H 0.55715 0.99089 0.16621 0.0
C1884 C 0.97484 0.60289 0.08549 0.0
C1885 C 0.98852 0.61603 0.0835 0.0
C1886 C 0.97363 0.59338 0.09702 0.0
C1887 C 0.99742 0.5833 0.11973 0.0
H1888 H 0.96287 0.56188 0.14325 0.0
C1889 C 0.99734 0.54747 0.16823 0.0
C1890 C 0.98449 0.53326 0.16928 0.0
C1891 C 0.99726 0.55786 0.15848 0.0
C1892 C 0.97254 0.56769 0.13666 0.0
H1893 H 0.01136 0.63003 0.09274 0.0
H1894 H 0.00918 0.61367 0.11292 0.0
H1895 H 0.96361 0.57987 0.1253 0.0
H1896 H 0.96142 0.51888 0.16099 0.0
H1897 H 0.9613 0.53704 0.14385 0.0
H1898 H 0.00632 0.57112 0.13088 0.0
C1899 C 0.99948 0.61046 0.10534 0.0
C1900 C 0.97297 0.578 0.1264 0.0
C1901 C 0.0007 0.61989 0.09381 0.0
C1902 C 0.97146 0.52979 0.16053 0.0
C1903 C 0.97139 0.5402 0.15073 0.0
C1904 C 0.99699 0.57304 0.12994 0.0
C1905 C 0.98608 0.59686 0.10681 0.0
C1906 C 0.98546 0.58598 0.11787 0.0
C1907 C 0.98434 0.5543 0.14949 0.0
C1908 C 0.98459 0.56515 0.13858 0.0
H1909 H 0.96524 0.59958 0.07772 0.0
H1910 H 0.96316 0.58297 0.09782 0.0
H1911 H 0.00706 0.58896 0.11308 0.0
H1912 H 0.00746 0.55064 0.17506 0.0
H1913 H 0.00734 0.56874 0.15803 0.0
C1914 C 0.40756 0.39022 0.04547 0.0
C1915 C 0.39679 0.39441 0.04233 0.0
C1916 C 0.41714 0.39625 0.05863 0.0
C1917 C 0.43202 0.42857 0.0878 0.0
H1918 H 0.44165 0.4033 0.11182 0.0
C1919 C 0.45633 0.446 0.14957 0.0
C1920 C 0.46796 0.44352 0.15425 0.0
C1921 C 0.44883 0.44033 0.13528 0.0
C1922 C 0.43922 0.41054 0.10512 0.0
H1923 H 0.38747 0.40797 0.05077 0.0
H1924 H 0.40391 0.4182 0.07371 0.0
H1925 H 0.4261 0.39253 0.08812 0.0
H1926 H 0.48083 0.43311 0.14743 0.0
H1927 H 0.4675 0.42296 0.12247 0.0
H1928 H 0.44483 0.44645 0.10494 0.0
C1929 C 0.40522 0.41054 0.06587 0.0
C1930 C 0.43032 0.40438 0.09154 0.0
C1931 C 0.3957 0.40457 0.05274 0.0
C1932 C 0.47185 0.43513 0.14426 0.0
C1933 C 0.46424 0.42933 0.12996 0.0
C1934 C 0.44082 0.43467 0.10138 0.0
C1935 C 0.41615 0.40658 0.06893 0.0
C1936 C 0.42641 0.41327 0.08284 0.0
C1937 C 0.45266 0.43191 0.12533 0.0
C1938 C 0.44434 0.42568 0.11031 0.0
H1939 H 0.40872 0.38244 0.03767 0.0
H1940 H 0.42551 0.39304 0.06058 0.0
H1941 H 0.42954 0.43584 0.08121 0.0
H1942 H 0.45273 0.45204 0.15708 0.0
H1943 H 0.43977 0.44226 0.13217 0.0
C1944 C 0.64223 0.71301 0.38732 0.0
C1945 C 0.6563 0.71419 0.3882 0.0
C1946 C 0.63834 0.72021 0.39864 0.0
C1947 C 0.65594 0.75167 0.42867 0.0
H1948 H 0.61633 0.73367 0.44337 0.0
C1949 C 0.62611 0.76111 0.48312 0.0
C1950 C 0.63367 0.77706 0.48438 0.0
C1951 C 0.62727 0.75332 0.47029 0.0
C1952 C 0.62746 0.73883 0.43943 0.0
H1953 H 0.67703 0.72323 0.40203 0.0
H1954 H 0.67014 0.73539 0.42182 0.0
H1955 H 0.6217 0.71975 0.42378 0.0
H1956 H 0.64757 0.79734 0.47287 0.0
H1957 H 0.6493 0.78378 0.45028 0.0
H1958 H 0.66195 0.77044 0.44464 0.0
C1959 C 0.66225 0.72931 0.41221 0.0
C1960 C 0.6305 0.73091 0.42808 0.0
C1961 C 0.66616 0.72224 0.40089 0.0
C1962 C 0.64178 0.78504 0.47225 0.0
C1963 C 0.64282 0.77726 0.45936 0.0
C1964 C 0.65294 0.75953 0.44001 0.0
C1965 C 0.64842 0.72867 0.41109 0.0
C1966 C 0.64484 0.73717 0.4227 0.0
C1967 C 0.63594 0.76132 0.4584 0.0
C1968 C 0.6387 0.75319 0.44563 0.0
H1969 H 0.63439 0.70692 0.37768 0.0
H1970 H 0.62762 0.71954 0.39738 0.0
H1971 H 0.66704 0.75698 0.42461 0.0
H1972 H 0.61991 0.75468 0.49239 0.0
H1973 H 0.62195 0.74107 0.47004 0.0
C1974 C 0.27823 0.93325 0.44246 0.0
C1975 C 0.28308 0.92765 0.43049 0.0
C1976 C 0.27091 0.92417 0.45425 0.0
C1977 C 0.26158 0.88773 0.47143 0.0
H1978 H 0.22932 0.89203 0.48685 0.0
C1979 C 0.21523 0.84375 0.50712 0.0
C1980 C 0.21185 0.84966 0.52013 0.0
C1981 C 0.22502 0.85344 0.4969 0.0
C1982 C 0.23838 0.89079 0.48275 0.0
H1983 H 0.28438 0.90823 0.42166 0.0
H1984 H 0.27109 0.89211 0.44189 0.0
H1985 H 0.24433 0.90852 0.46774 0.0
H1986 H 0.21671 0.87056 0.53277 0.0
H1987 H 0.23332 0.88735 0.51464 0.0
H1988 H 0.25504 0.86949 0.48615 0.0
C1989 C 0.27325 0.90367 0.44245 0.0
C1990 C 0.24708 0.90031 0.47184 0.0
C1991 C 0.28084 0.91289 0.43078 0.0
C1992 C 0.21872 0.86554 0.52273 0.0
C1993 C 0.22832 0.87519 0.5124 0.0
C1994 C 0.25269 0.87803 0.4822 0.0
C1995 C 0.26796 0.90911 0.45422 0.0
C1996 C 0.25886 0.89898 0.46605 0.0
C1997 C 0.23148 0.86925 0.49933 0.0
C1998 C 0.24104 0.87952 0.488 0.0
H1999 H 0.27996 0.94466 0.44265 0.0
H2000 H 0.26743 0.92895 0.46331 0.0
H2001 H 0.27065 0.88647 0.46744 0.0
H2002 H 0.21003 0.83161 0.50459 0.0
H2003 H 0.22716 0.84856 0.48684 0.0
C2004 C 0.07686 0.32452 0.39685 0.0
C2005 C 0.07532 0.33634 0.39111 0.0
C2006 C 0.08577 0.32704 0.4101 0.0
C2007 C 0.11596 0.35757 0.43588 0.0
H2008 H 0.10247 0.32556 0.46381 0.0
C2009 C 0.14238 0.365 0.49721 0.0
C2010 C 0.14415 0.35298 0.50199 0.0
C2011 C 0.13494 0.36365 0.48318 0.0
C2012 C 0.10646 0.33455 0.45605 0.0
H2013 H 0.08198 0.36012 0.39483 0.0
H2014 H 0.09725 0.36443 0.4182 0.0
H2015 H 0.08731 0.32192 0.44065 0.0
H2016 H 0.14026 0.33049 0.49534 0.0
H2017 H 0.12713 0.32809 0.47101 0.0
H2018 H 0.13501 0.37029 0.4516 0.0
C2019 C 0.09179 0.35327 0.41228 0.0
C2020 C 0.09779 0.33246 0.44274 0.0
C2021 C 0.08296 0.35077 0.39892 0.0
C2022 C 0.13881 0.33983 0.49217 0.0
C2023 C 0.1313 0.33846 0.47822 0.0
C2024 C 0.12459 0.35971 0.4493 0.0
C2025 C 0.09327 0.34141 0.41807 0.0
C2026 C 0.10246 0.34389 0.43241 0.0
C2027 C 0.12905 0.35023 0.47369 0.0
C2028 C 0.11998 0.34816 0.45946 0.0
H2029 H 0.07125 0.31329 0.39105 0.0
H2030 H 0.08687 0.31771 0.41402 0.0
H2031 H 0.12 0.36655 0.42811 0.0
H2032 H 0.14621 0.37522 0.50455 0.0
H2033 H 0.13329 0.37288 0.48003 0.0
C2034 C 0.0764 0.33138 0.30532 0.0
C2035 C 0.0641 0.31912 0.31129 0.0
C2036 C 0.08286 0.32908 0.29264 0.0
C2037 C 0.07621 0.3035 0.25911 0.0
H2038 H 0.11931 0.32324 0.26126 0.0
C2039 C 0.10887 0.29508 0.21109 0.0
C2040 C 0.12226 0.30795 0.20772 0.0
C2041 C 0.10127 0.29556 0.2237 0.0
C2042 C 0.10728 0.3178 0.26037 0.0
H2043 H 0.04873 0.29484 0.30831 0.0
H2044 H 0.06001 0.29086 0.28593 0.0
H2045 H 0.10682 0.32568 0.28309 0.0
H2046 H 0.13814 0.3314 0.21514 0.0
H2047 H 0.12469 0.33241 0.23666 0.0
H2048 H 0.07671 0.29588 0.23623 0.0
C2049 C 0.06462 0.30224 0.29119 0.0
C2050 C 0.10012 0.31916 0.27292 0.0
C2051 C 0.0582 0.30452 0.30402 0.0
C2052 C 0.12776 0.32133 0.21721 0.0
C2053 C 0.12015 0.32183 0.22974 0.0
C2054 C 0.0834 0.30223 0.24646 0.0
C2055 C 0.07715 0.31449 0.28551 0.0
C2056 C 0.08453 0.31219 0.27238 0.0
C2057 C 0.10687 0.30894 0.23325 0.0
C2058 C 0.09905 0.30954 0.24687 0.0
H2059 H 0.08123 0.34279 0.31058 0.0
H2060 H 0.09236 0.33877 0.28839 0.0
H2061 H 0.06418 0.29808 0.25835 0.0
H2062 H 0.10422 0.28462 0.20395 0.0
H2063 H 0.09113 0.28538 0.22611 0.0
C2064 C 0.67665 0.72011 0.30227 0.0
C2065 C 0.68579 0.72488 0.31581 0.0
C2066 C 0.67994 0.72978 0.29048 0.0
C2067 C 0.70918 0.76601 0.27616 0.0
H2068 H 0.67484 0.76503 0.25619 0.0
C2069 C 0.71206 0.81235 0.23765 0.0
C2070 C 0.70252 0.80713 0.22434 0.0
C2071 C 0.71126 0.80216 0.24825 0.0
C2072 C 0.68454 0.76533 0.26153 0.0
H2073 H 0.70589 0.74334 0.32737 0.0
H2074 H 0.71145 0.76046 0.30691 0.0
H2075 H 0.67125 0.74758 0.27564 0.0
H2076 H 0.68529 0.78699 0.21135 0.0
H2077 H 0.68374 0.76934 0.22992 0.0
H2078 H 0.72244 0.78419 0.26218 0.0
C2079 C 0.70186 0.74912 0.30529 0.0
C2080 C 0.6825 0.75528 0.27267 0.0
C2081 C 0.69865 0.73933 0.31705 0.0
C2082 C 0.69255 0.79145 0.22164 0.0
C2083 C 0.69168 0.78132 0.23225 0.0
C2084 C 0.71123 0.77621 0.26506 0.0
C2085 C 0.69234 0.74458 0.29199 0.0
C2086 C 0.69476 0.75538 0.28007 0.0
C2087 C 0.70085 0.78658 0.24578 0.0
C2088 C 0.69891 0.77589 0.25758 0.0
H2089 H 0.66676 0.70896 0.30087 0.0
H2090 H 0.67259 0.72571 0.28024 0.0
H2091 H 0.71888 0.76634 0.28152 0.0
H2092 H 0.71979 0.82435 0.24015 0.0
H2093 H 0.71839 0.80655 0.25863 0.0
C2094 C 0.27492 0.92886 0.3413 0.0
C2095 C 0.27223 0.93731 0.35243 0.0
C2096 C 0.26592 0.92312 0.32781 0.0
C2097 C 0.23851 0.92714 0.30327 0.0
H2098 H 0.23027 0.88799 0.28566 0.0
C2099 C 0.19847 0.89558 0.24958 0.0
C2100 C 0.20444 0.89034 0.23834 0.0
C2101 C 0.20589 0.9012 0.26398 0.0
C2102 C 0.23251 0.89895 0.29043 0.0
H2103 H 0.25799 0.94643 0.35808 0.0
H2104 H 0.24197 0.93604 0.33464 0.0
H2105 H 0.24455 0.8979 0.31001 0.0
H2106 H 0.22319 0.88736 0.23346 0.0
H2107 H 0.23576 0.89665 0.25863 0.0
H2108 H 0.22621 0.92796 0.28363 0.0
C2109 C 0.25123 0.93409 0.33623 0.0
C2110 C 0.24076 0.9047 0.30435 0.0
C2111 C 0.26037 0.93999 0.3497 0.0
C2112 C 0.21801 0.89089 0.24189 0.0
C2113 C 0.22529 0.8963 0.25631 0.0
C2114 C 0.23008 0.92129 0.28939 0.0
C2115 C 0.25385 0.9255 0.32515 0.0
C2116 C 0.24414 0.919 0.31083 0.0
C2117 C 0.21932 0.90151 0.26749 0.0
C2118 C 0.22723 0.90726 0.28273 0.0
H2119 H 0.28406 0.92672 0.34294 0.0
H2120 H 0.26854 0.9169 0.31941 0.0
H2121 H 0.24099 0.93825 0.30782 0.0
H2122 H 0.18797 0.89517 0.24735 0.0
H2123 H 0.20101 0.90507 0.27244 0.0
C2124 C 0.66985 0.94264 0.32961 0.0
C2125 C 0.68008 0.95183 0.34166 0.0
C2126 C 0.67416 0.93634 0.31791 0.0
C2127 C 0.70108 0.92445 0.30906 0.0
H2128 H 0.68698 0.92326 0.26745 0.0
C2129 C 0.71469 0.89688 0.25741 0.0
C2130 C 0.70276 0.88815 0.24659 0.0
C2131 C 0.71327 0.90562 0.26922 0.0
C2132 C 0.69091 0.92339 0.27902 0.0
H2133 H 0.70294 0.9617 0.35078 0.0
H2134 H 0.71046 0.95057 0.33024 0.0
H2135 H 0.68227 0.93719 0.28749 0.0
H2136 H 0.68003 0.88186 0.23969 0.0
H2137 H 0.67745 0.89663 0.26039 0.0
H2138 H 0.70945 0.91034 0.30058 0.0
C2139 C 0.69908 0.94826 0.32995 0.0
C2140 C 0.68824 0.9314 0.29049 0.0
C2141 C 0.69479 0.95469 0.34165 0.0
C2142 C 0.68936 0.88821 0.24797 0.0
C2143 C 0.68796 0.8969 0.25971 0.0
C2144 C 0.70372 0.91636 0.29756 0.0
C2145 C 0.68879 0.939 0.31797 0.0
C2146 C 0.69302 0.93177 0.30568 0.0
C2147 C 0.69994 0.90586 0.27036 0.0
C2148 C 0.69838 0.91548 0.28246 0.0
H2149 H 0.65843 0.9402 0.32925 0.0
H2150 H 0.66592 0.9291 0.30894 0.0
H2151 H 0.70482 0.92446 0.32068 0.0
H2152 H 0.72514 0.89705 0.25667 0.0
H2153 H 0.72272 0.91244 0.27723 0.0
C2154 C 0.06943 0.74651 0.30119 0.0
C2155 C 0.05512 0.7431 0.30506 0.0
C2156 C 0.07702 0.75732 0.2908 0.0
C2157 C 0.07307 0.77518 0.25812 0.0
H2158 H 0.113 0.80762 0.27086 0.0
C2159 C 0.11026 0.82011 0.21708 0.0
C2160 C 0.12546 0.82451 0.21796 0.0
C2161 C 0.10091 0.81138 0.22813 0.0
C2162 C 0.10194 0.79856 0.26702 0.0
H2163 H 0.03742 0.7481 0.30072 0.0
H2164 H 0.05067 0.7668 0.28204 0.0
H2165 H 0.09788 0.78967 0.28902 0.0
H2166 H 0.14273 0.82351 0.23151 0.0
H2167 H 0.12643 0.8078 0.2502 0.0
H2168 H 0.07734 0.7835 0.2359 0.0
C2169 C 0.05597 0.76116 0.28731 0.0
C2170 C 0.09326 0.78836 0.27748 0.0
C2171 C 0.04843 0.75051 0.29799 0.0
C2172 C 0.13106 0.82014 0.23027 0.0
C2173 C 0.12171 0.81131 0.24119 0.0
C2174 C 0.08186 0.78525 0.24754 0.0
C2175 C 0.07042 0.76479 0.28382 0.0
C2176 C 0.07885 0.77644 0.27307 0.0
C2177 C 0.10649 0.80676 0.24029 0.0
C2178 C 0.09654 0.79691 0.25179 0.0
H2179 H 0.07494 0.74107 0.30644 0.0
H2180 H 0.0881 0.75983 0.28818 0.0
H2181 H 0.062 0.76601 0.25444 0.0
H2182 H 0.1055 0.82316 0.2077 0.0
H2183 H 0.08929 0.80826 0.22713 0.0
C2184 C 0.25277 0.3151 0.3329 0.0
C2185 C 0.26392 0.33004 0.3376 0.0
C2186 C 0.24397 0.31209 0.31939 0.0
C2187 C 0.24406 0.32788 0.28264 0.0
H2188 H 0.20116 0.30175 0.28122 0.0
C2189 C 0.20693 0.32499 0.23141 0.0
C2190 C 0.19472 0.3108 0.22624 0.0
C2191 C 0.21492 0.32673 0.24513 0.0
C2192 C 0.21315 0.30891 0.28136 0.0
H2193 H 0.27452 0.35351 0.33177 0.0
H2194 H 0.25925 0.34824 0.30827 0.0
H2195 H 0.21605 0.30571 0.30485 0.0
H2196 H 0.18119 0.28735 0.23169 0.0
H2197 H 0.1954 0.29031 0.25549 0.0
H2198 H 0.24129 0.33104 0.25922 0.0
C2199 C 0.25736 0.33885 0.31497 0.0
C2200 C 0.22166 0.31119 0.29491 0.0
C2201 C 0.26605 0.34187 0.3285 0.0
C2202 C 0.19061 0.29841 0.23525 0.0
C2203 C 0.19867 0.30015 0.24899 0.0
C2204 C 0.23559 0.32554 0.26911 0.0
C2205 C 0.24625 0.32393 0.31024 0.0
C2206 C 0.23719 0.32085 0.29573 0.0
C2207 C 0.21102 0.31431 0.25402 0.0
C2208 C 0.22 0.31619 0.26833 0.0
H2209 H 0.25082 0.30573 0.33965 0.0
H2210 H 0.23555 0.30047 0.31598 0.0
H2211 H 0.25604 0.33516 0.28284 0.0
H2212 H 0.2106 0.33474 0.22469 0.0
H2213 H 0.2242 0.33787 0.24875 0.0
C2214 C 0.27999 0.3641 0.42256 0.0
C2215 C 0.27742 0.34952 0.41818 0.0
C2216 C 0.27434 0.36662 0.43587 0.0
C2217 C 0.26005 0.35034 0.47244 0.0
H2218 H 0.23857 0.37226 0.47024 0.0
C2219 C 0.2194 0.34604 0.51721 0.0
C2220 C 0.21839 0.35894 0.52137 0.0
C2221 C 0.2281 0.34624 0.50541 0.0
C2222 C 0.24474 0.36633 0.47116 0.0
H2223 H 0.26719 0.32624 0.42457 0.0
H2224 H 0.25744 0.33066 0.44769 0.0
H2225 H 0.25135 0.37039 0.4483 0.0
H2226 H 0.22592 0.38225 0.51641 0.0
H2227 H 0.24138 0.3827 0.49602 0.0
H2228 H 0.25338 0.34616 0.49522 0.0
C2229 C 0.26385 0.34016 0.4409 0.0
C2230 C 0.25206 0.36525 0.45856 0.0
C2231 C 0.26937 0.33762 0.42757 0.0
C2232 C 0.22653 0.37214 0.51359 0.0
C2233 C 0.23527 0.37235 0.50178 0.0
C2234 C 0.25281 0.35148 0.48505 0.0
C2235 C 0.26616 0.35465 0.44516 0.0
C2236 C 0.25957 0.35701 0.45897 0.0
C2237 C 0.23608 0.35936 0.49747 0.0
C2238 C 0.24483 0.35925 0.48449 0.0
H2239 H 0.28614 0.37352 0.41559 0.0
H2240 H 0.27639 0.37794 0.43892 0.0
H2241 H 0.26595 0.34413 0.47319 0.0
H2242 H 0.21345 0.33574 0.52308 0.0
H2243 H 0.22829 0.33595 0.50231 0.0
C2244 C 0.63875 0.92854 0.41528 0.0
C2245 C 0.65285 0.94163 0.41495 0.0
C2246 C 0.6358 0.91852 0.42677 0.0
C2247 C 0.65584 0.90679 0.45298 0.0
H2248 H 0.6182 0.88531 0.47174 0.0
C2249 C 0.64256 0.85638 0.48866 0.0
C2250 C 0.63633 0.85602 0.50262 0.0
C2251 C 0.6434 0.86647 0.478 0.0
C2252 C 0.62879 0.89129 0.46665 0.0
H2253 H 0.67459 0.95492 0.42698 0.0
H2254 H 0.6694 0.93762 0.44702 0.0
H2255 H 0.622 0.90445 0.45381 0.0
H2256 H 0.6257 0.86567 0.51616 0.0
H2257 H 0.6272 0.88336 0.49749 0.0
H2258 H 0.66275 0.89386 0.46584 0.0
C2259 C 0.66072 0.93489 0.43823 0.0
C2260 C 0.63093 0.90215 0.4563 0.0
C2261 C 0.66367 0.94486 0.42676 0.0
C2262 C 0.63047 0.86561 0.50546 0.0
C2263 C 0.63133 0.87574 0.49477 0.0
C2264 C 0.6537 0.89595 0.46324 0.0
C2265 C 0.6469 0.92141 0.43816 0.0
C2266 C 0.6445 0.91004 0.44937 0.0
C2267 C 0.63806 0.87646 0.48103 0.0
C2268 C 0.64015 0.88802 0.47016 0.0
H2269 H 0.63016 0.92572 0.40636 0.0
H2270 H 0.62506 0.9082 0.42636 0.0
H2271 H 0.66635 0.91248 0.44769 0.0
H2272 H 0.64689 0.84892 0.486 0.0
H2273 H 0.64835 0.8665 0.46739 0.0
C2274 C 0.07258 0.72461 0.38458 0.0
C2275 C 0.06168 0.72851 0.38104 0.0
C2276 C 0.08166 0.73053 0.39805 0.0
C2277 C 0.09502 0.76221 0.42774 0.0
H2278 H 0.10605 0.73748 0.45095 0.0
C2279 C 0.12112 0.77994 0.48905 0.0
C2280 C 0.13313 0.77778 0.49304 0.0
C2281 C 0.11313 0.77416 0.47501 0.0
C2282 C 0.10321 0.74457 0.44449 0.0
H2283 H 0.05153 0.74138 0.38912 0.0
H2284 H 0.0671 0.7514 0.41271 0.0
H2285 H 0.09033 0.72661 0.42739 0.0
H2286 H 0.14615 0.76788 0.48521 0.0
H2287 H 0.13197 0.75756 0.46069 0.0
H2288 H 0.10766 0.78005 0.44499 0.0
C2289 C 0.0689 0.74407 0.40491 0.0
C2290 C 0.09421 0.73836 0.43099 0.0
C2291 C 0.05988 0.73823 0.39142 0.0
C2292 C 0.13689 0.76963 0.48259 0.0
C2293 C 0.12879 0.76373 0.46854 0.0
C2294 C 0.10393 0.76837 0.44127 0.0
C2295 C 0.08001 0.74042 0.40834 0.0
C2296 C 0.0899 0.74707 0.42251 0.0
C2297 C 0.11683 0.76595 0.46461 0.0
C2298 C 0.10802 0.75959 0.44985 0.0
H2299 H 0.07429 0.71719 0.37681 0.0
H2300 H 0.0902 0.7276 0.40023 0.0
H2301 H 0.09222 0.76936 0.42134 0.0
H2302 H 0.11763 0.7858 0.49694 0.0
H2303 H 0.10381 0.77582 0.47243 0.0
C2304 C 0.33595 0.06959 0.72421 0.0
C2305 C 0.32644 0.05465 0.71806 0.0
C2306 C 0.33107 0.07622 0.73502 0.0
C2307 C 0.30611 0.06752 0.76526 0.0
H2308 H 0.31229 0.10794 0.76104 0.0
C2309 C 0.2914 0.09747 0.81267 0.0
C2310 C 0.30149 0.11305 0.81605 0.0
C2311 C 0.2923 0.08999 0.79944 0.0
C2312 C 0.31061 0.09672 0.7625 0.0
H2313 H 0.30437 0.03492 0.71848 0.0
H2314 H 0.29598 0.04646 0.73782 0.0
H2315 H 0.31821 0.09547 0.7405 0.0
H2316 H 0.31995 0.13307 0.80763 0.0
H2317 H 0.32204 0.11993 0.78513 0.0
H2318 H 0.2993 0.06896 0.78753 0.0
C2319 C 0.30715 0.05302 0.73406 0.0
C2320 C 0.31392 0.08956 0.75068 0.0
C2321 C 0.31194 0.04645 0.72301 0.0
C2322 C 0.31216 0.12102 0.80559 0.0
C2323 C 0.3132 0.11349 0.79249 0.0
C2324 C 0.30303 0.07477 0.7772 0.0
C2325 C 0.31667 0.06799 0.7401 0.0
C2326 C 0.31189 0.07498 0.75203 0.0
C2327 C 0.30344 0.09781 0.78935 0.0
C2328 C 0.30544 0.08957 0.77609 0.0
H2329 H 0.34716 0.07623 0.72058 0.0
H2330 H 0.33867 0.08773 0.73962 0.0
H2331 H 0.30457 0.05633 0.76662 0.0
H2332 H 0.28311 0.09087 0.82048 0.0
H2333 H 0.28438 0.07798 0.7973 0.0
C2334 C 0.95284 0.249 0.76362 0.0
C2335 C 0.94846 0.25902 0.7581 0.0
C2336 C 0.94504 0.23927 0.77488 0.0
C2337 C 0.90802 0.22037 0.78988 0.0
H2338 H 0.92733 0.21545 0.82583 0.0
C2339 C 0.87457 0.18968 0.84014 0.0
C2340 C 0.87853 0.18041 0.84805 0.0
C2341 C 0.88357 0.19892 0.82923 0.0
C2342 C 0.92176 0.21651 0.81575 0.0
H2343 H 0.93266 0.26689 0.76043 0.0
H2344 H 0.91912 0.24993 0.77989 0.0
H2345 H 0.94245 0.23225 0.8067 0.0
H2346 H 0.89527 0.17376 0.85069 0.0
H2347 H 0.91076 0.18955 0.83126 0.0
H2348 H 0.88738 0.20459 0.79865 0.0
C2349 C 0.9285 0.24952 0.77545 0.0
C2350 C 0.93044 0.22616 0.80482 0.0
C2351 C 0.93634 0.25931 0.76434 0.0
C2352 C 0.89178 0.18063 0.84472 0.0
C2353 C 0.90076 0.18983 0.8337 0.0
C2354 C 0.89938 0.21065 0.80068 0.0
C2355 C 0.93262 0.23926 0.7807 0.0
C2356 C 0.92363 0.22837 0.79191 0.0
C2357 C 0.89674 0.19906 0.82577 0.0
C2358 C 0.90611 0.20877 0.81389 0.0
H2359 H 0.96214 0.24851 0.75907 0.0
H2360 H 0.94844 0.23145 0.77872 0.0
H2361 H 0.90247 0.22161 0.77989 0.0
H2362 H 0.86436 0.18967 0.84222 0.0
H2363 H 0.88021 0.20604 0.82356 0.0
C2364 C 0.74543 0.68234 0.73074 0.0
C2365 C 0.73821 0.66809 0.72255 0.0
C2366 C 0.75429 0.68478 0.74405 0.0
C2367 C 0.76107 0.66389 0.77383 0.0
H2368 H 0.79752 0.70232 0.78334 0.0
C2369 C 0.80213 0.6721 0.82371 0.0
C2370 C 0.8072 0.68521 0.83352 0.0
C2371 C 0.79457 0.67055 0.80973 0.0
C2372 C 0.78732 0.69157 0.78087 0.0
H2373 H 0.73489 0.6453 0.72182 0.0
H2374 H 0.75055 0.64963 0.74476 0.0
H2375 H 0.78253 0.69849 0.75984 0.0
H2376 H 0.80865 0.70717 0.83606 0.0
H2377 H 0.79563 0.70453 0.81153 0.0
H2378 H 0.76593 0.65693 0.79478 0.0
C2379 C 0.74911 0.65885 0.74113 0.0
C2380 C 0.77869 0.68937 0.76744 0.0
C2381 C 0.74018 0.65638 0.7279 0.0
C2382 C 0.80505 0.697 0.82873 0.0
C2383 C 0.79756 0.69547 0.81468 0.0
C2384 C 0.76973 0.66605 0.78718 0.0
C2385 C 0.75622 0.67305 0.74944 0.0
C2386 C 0.76545 0.67549 0.76374 0.0
C2387 C 0.79198 0.6821 0.80517 0.0
C2388 C 0.78296 0.67989 0.79085 0.0
H2389 H 0.74412 0.69159 0.72696 0.0
H2390 H 0.75942 0.69579 0.75025 0.0
H2391 H 0.7508 0.65317 0.77156 0.0
H2392 H 0.80386 0.66293 0.82689 0.0
H2393 H 0.79066 0.66023 0.80252 0.0
C2394 C 0.72082 0.63901 0.63437 0.0
C2395 C 0.72674 0.65345 0.642 0.0
C2396 C 0.7268 0.63711 0.62101 0.0
C2397 C 0.75098 0.65889 0.59049 0.0
H2398 H 0.75638 0.6241 0.58464 0.0
C2399 C 0.7911 0.65694 0.54832 0.0
C2400 C 0.7862 0.64347 0.53912 0.0
C2401 C 0.7827 0.6575 0.56008 0.0
C2402 C 0.75478 0.63378 0.58603 0.0
H2403 H 0.74362 0.67722 0.64149 0.0
H2404 H 0.75417 0.67388 0.61855 0.0
H2405 H 0.7437 0.62624 0.60658 0.0
H2406 H 0.76842 0.62002 0.53512 0.0
H2407 H 0.75391 0.62097 0.5559 0.0
H2408 H 0.76244 0.66662 0.57016 0.0
C2409 C 0.7447 0.66403 0.62263 0.0
C2410 C 0.74748 0.635 0.59858 0.0
C2411 C 0.7387 0.66593 0.63589 0.0
C2412 C 0.77267 0.63054 0.54208 0.0
C2413 C 0.76432 0.63107 0.55396 0.0
C2414 C 0.75837 0.65772 0.57803 0.0
C2415 C 0.73887 0.64961 0.61501 0.0
C2416 C 0.74566 0.64769 0.60109 0.0
C2417 C 0.76923 0.64458 0.56305 0.0
C2418 C 0.76052 0.64526 0.57576 0.0
H2419 H 0.71158 0.62915 0.63872 0.0
H2420 H 0.7219 0.62586 0.61536 0.0
H2421 H 0.74949 0.66864 0.59183 0.0
H2422 H 0.80161 0.66703 0.54666 0.0
H2423 H 0.78691 0.66801 0.56705 0.0
C2424 C 0.34384 0.05492 0.63327 0.0
C2425 C 0.35428 0.05998 0.64581 0.0
C2426 C 0.34628 0.06393 0.62101 0.0
C2427 C 0.37466 0.09805 0.60305 0.0
H2428 H 0.33993 0.09977 0.5885 0.0
C2429 C 0.37734 0.1447 0.56546 0.0
C2430 C 0.36598 0.14013 0.55388 0.0
C2431 C 0.37679 0.13441 0.57579 0.0
C2432 C 0.34971 0.09928 0.59226 0.0
H2433 H 0.37583 0.07821 0.655 0.0
H2434 H 0.37998 0.09411 0.6337 0.0
H2435 H 0.33755 0.08263 0.60788 0.0
H2436 H 0.34556 0.12099 0.54359 0.0
H2437 H 0.34457 0.1031 0.56161 0.0
H2438 H 0.38683 0.11503 0.58753 0.0
C2439 C 0.36997 0.08307 0.63326 0.0
C2440 C 0.34834 0.08942 0.60338 0.0
C2441 C 0.36757 0.07397 0.64549 0.0
C2442 C 0.35432 0.12495 0.55258 0.0
C2443 C 0.35376 0.1147 0.56289 0.0
C2444 C 0.37603 0.108 0.59192 0.0
C2445 C 0.35916 0.07831 0.62105 0.0
C2446 C 0.36077 0.08863 0.60891 0.0
C2447 C 0.36486 0.11936 0.57476 0.0
C2448 C 0.36355 0.1087 0.58639 0.0
H2449 H 0.33356 0.04411 0.63306 0.0
H2450 H 0.3379 0.05974 0.61163 0.0
H2451 H 0.38443 0.09765 0.60696 0.0
H2452 H 0.38642 0.15634 0.56683 0.0
H2453 H 0.38543 0.13839 0.58489 0.0
C2454 C 0.93757 0.25539 0.67342 0.0
C2455 C 0.94059 0.26926 0.68071 0.0
C2456 C 0.92819 0.24951 0.66016 0.0
C2457 C 0.91354 0.26042 0.62772 0.0
H2458 H 0.88351 0.21767 0.62347 0.0
C2459 C 0.87297 0.23428 0.57433 0.0
C2460 C 0.87027 0.22005 0.56836 0.0
C2461 C 0.88029 0.2402 0.5887 0.0
C2462 C 0.89193 0.2296 0.6244 0.0
H2463 H 0.93623 0.28791 0.67966 0.0
H2464 H 0.91996 0.27768 0.65637 0.0
H2465 H 0.89911 0.22832 0.64707 0.0
H2466 H 0.87259 0.20063 0.57313 0.0
H2467 H 0.88573 0.21111 0.5979 0.0
H2468 H 0.9067 0.26166 0.60493 0.0
C2469 C 0.92486 0.27138 0.66097 0.0
C2470 C 0.90084 0.2357 0.63794 0.0
C2471 C 0.93413 0.2772 0.67434 0.0
C2472 C 0.87467 0.21171 0.57728 0.0
C2473 C 0.88206 0.21766 0.5916 0.0
C2474 C 0.90471 0.2543 0.61412 0.0
C2475 C 0.92172 0.25743 0.65381 0.0
C2476 C 0.91183 0.25113 0.63969 0.0
C2477 C 0.88513 0.23206 0.59742 0.0
C2478 C 0.89388 0.23877 0.61223 0.0
H2479 H 0.94234 0.24897 0.67801 0.0
H2480 H 0.92613 0.23883 0.65478 0.0
H2481 H 0.92202 0.27233 0.62869 0.0
H2482 H 0.86985 0.24108 0.56772 0.0
H2483 H 0.88228 0.25123 0.59291 0.0
C2484 C 0.33453 0.26804 0.66824 0.0
C2485 C 0.34414 0.2832 0.6737 0.0
C2486 C 0.33894 0.26112 0.65724 0.0
C2487 C 0.36214 0.26824 0.62566 0.0
H2488 H 0.35955 0.22984 0.63327 0.0
C2489 C 0.37848 0.23754 0.58068 0.0
C2490 C 0.36951 0.22164 0.57868 0.0
C2491 C 0.37723 0.24556 0.59325 0.0
C2492 C 0.36018 0.24046 0.63084 0.0
H2493 H 0.3658 0.3031 0.67166 0.0
H2494 H 0.37332 0.29105 0.65196 0.0
H2495 H 0.35325 0.24288 0.65289 0.0
H2496 H 0.35272 0.20169 0.58889 0.0
H2497 H 0.34995 0.21563 0.61026 0.0
H2498 H 0.36827 0.26558 0.60338 0.0
C2499 C 0.36246 0.28454 0.65643 0.0
C2500 C 0.35665 0.24794 0.64214 0.0
C2501 C 0.35817 0.29139 0.66769 0.0
C2502 C 0.35964 0.21394 0.58988 0.0
C2503 C 0.35821 0.22197 0.60232 0.0
C2504 C 0.3654 0.26062 0.61424 0.0
C2505 C 0.35294 0.26929 0.65126 0.0
C2506 C 0.35749 0.26183 0.6396 0.0
C2507 C 0.36681 0.23792 0.60406 0.0
C2508 C 0.36433 0.24654 0.61661 0.0
H2509 H 0.32369 0.2614 0.6727 0.0
H2510 H 0.33137 0.24938 0.65332 0.0
H2511 H 0.36275 0.27889 0.62341 0.0
H2512 H 0.38609 0.24393 0.57223 0.0
H2513 H 0.38428 0.25779 0.59432 0.0
C2514 C 0.71918 0.0855 0.62972 0.0
C2515 C 0.72041 0.07254 0.63162 0.0
C2516 C 0.72616 0.09495 0.618 0.0
C2517 C 0.74285 0.09623 0.58128 0.0
H2518 H 0.76688 0.13947 0.5921 0.0
C2519 C 0.78906 0.13654 0.54429 0.0
C2520 C 0.7915 0.15129 0.54294 0.0
C2521 C 0.77896 0.12694 0.5543 0.0
C2522 C 0.76004 0.12746 0.58879 0.0
H2523 H 0.72951 0.05909 0.62234 0.0
H2524 H 0.74158 0.07548 0.60196 0.0
H2525 H 0.75136 0.12253 0.6108 0.0
H2526 H 0.78508 0.16744 0.55105 0.0
H2527 H 0.76721 0.15054 0.56833 0.0
H2528 H 0.7516 0.10109 0.55934 0.0
C2529 C 0.73521 0.07834 0.60948 0.0
C2530 C 0.75114 0.11775 0.59953 0.0
C2531 C 0.72836 0.06899 0.62125 0.0
C2532 C 0.78341 0.15611 0.55173 0.0
C2533 C 0.77327 0.14648 0.56175 0.0
C2534 C 0.75168 0.10594 0.57053 0.0
C2535 C 0.73437 0.09154 0.60784 0.0
C2536 C 0.74265 0.102 0.59598 0.0
C2537 C 0.77097 0.13179 0.56321 0.0
C2538 C 0.76061 0.12164 0.57423 0.0
H2539 H 0.71315 0.08857 0.63751 0.0
H2540 H 0.7252 0.10497 0.61693 0.0
H2541 H 0.73625 0.08417 0.57813 0.0
H2542 H 0.79493 0.13236 0.53755 0.0
H2543 H 0.77764 0.11578 0.55525 0.0
C2544 C 0.93206 0.67686 0.66171 0.0
C2545 C 0.92948 0.66498 0.67092 0.0
C2546 C 0.92329 0.67405 0.64827 0.0
C2547 C 0.8869 0.64719 0.62886 0.0
H2548 H 0.90633 0.66585 0.59264 0.0
C2549 C 0.85519 0.6338 0.56956 0.0
C2550 C 0.8595 0.64596 0.56019 0.0
C2551 C 0.86334 0.63568 0.58327 0.0
C2552 C 0.90069 0.6607 0.60268 0.0
H2553 H 0.91555 0.64079 0.67326 0.0
H2554 H 0.9002 0.63591 0.64976 0.0
H2555 H 0.92128 0.66995 0.61611 0.0
H2556 H 0.87581 0.66966 0.55799 0.0
H2557 H 0.88959 0.67306 0.58201 0.0
H2558 H 0.86628 0.63811 0.61547 0.0
C2559 C 0.909 0.64741 0.65301 0.0
C2560 C 0.90928 0.66303 0.61613 0.0
C2561 C 0.91785 0.65021 0.66642 0.0
C2562 C 0.87199 0.66009 0.56499 0.0
C2563 C 0.88007 0.66198 0.57868 0.0
C2564 C 0.87828 0.64493 0.6154 0.0
C2565 C 0.91168 0.6593 0.64376 0.0
C2566 C 0.90249 0.65639 0.62939 0.0
C2567 C 0.87598 0.64977 0.58792 0.0
C2568 C 0.88507 0.65176 0.60218 0.0
H2569 H 0.9409 0.68838 0.66483 0.0
H2570 H 0.92552 0.68347 0.64147 0.0
H2571 H 0.88135 0.64203 0.63894 0.0
H2572 H 0.84556 0.6228 0.56629 0.0
H2573 H 0.85993 0.626 0.59004 0.0
C2574 C 0.94562 0.69904 0.75551 0.0
C2575 C 0.94307 0.68441 0.75142 0.0
C2576 C 0.94003 0.70178 0.76876 0.0
C2577 C 0.926 0.68617 0.80561 0.0
H2578 H 0.90364 0.70713 0.80257 0.0
C2579 C 0.88444 0.68098 0.84955 0.0
C2580 C 0.88295 0.69364 0.85347 0.0
C2581 C 0.89342 0.68141 0.83796 0.0
C2582 C 0.91007 0.70148 0.80373 0.0
H2583 H 0.93299 0.6613 0.75828 0.0
H2584 H 0.92337 0.6661 0.78129 0.0
H2585 H 0.91674 0.70535 0.78087 0.0
H2586 H 0.88993 0.71677 0.84829 0.0
H2587 H 0.90588 0.71764 0.82824 0.0
H2588 H 0.91926 0.68216 0.82838 0.0
C2589 C 0.9297 0.67547 0.77432 0.0
C2590 C 0.91757 0.70046 0.79127 0.0
C2591 C 0.93514 0.6727 0.76105 0.0
C2592 C 0.8909 0.70686 0.84565 0.0
C2593 C 0.89992 0.7073 0.83404 0.0
C2594 C 0.91859 0.68726 0.81808 0.0
C2595 C 0.93196 0.68999 0.77826 0.0
C2596 C 0.92536 0.69252 0.79197 0.0
C2597 C 0.90122 0.69454 0.82998 0.0
C2598 C 0.91026 0.69465 0.8172 0.0
H2599 H 0.95169 0.70831 0.74833 0.0
H2600 H 0.94202 0.71312 0.77156 0.0
H2601 H 0.93213 0.68021 0.80659 0.0
H2602 H 0.87864 0.67068 0.85547 0.0
H2603 H 0.89397 0.6713 0.83503 0.0
C2604 C 0.30551 0.2652 0.75078 0.0
C2605 C 0.32017 0.2746 0.74664 0.0
C2606 C 0.30256 0.25487 0.76198 0.0
C2607 C 0.3172 0.23234 0.77787 0.0
H2608 H 0.29523 0.22973 0.81331 0.0
C2609 C 0.3181 0.19879 0.82799 0.0
C2610 C 0.30528 0.191 0.8361 0.0
C2611 C 0.31881 0.20845 0.81691 0.0
C2612 C 0.30116 0.23011 0.80334 0.0
H2613 H 0.34324 0.28077 0.75136 0.0
H2614 H 0.33802 0.26265 0.77059 0.0
H2615 H 0.29821 0.24775 0.79436 0.0
H2616 H 0.28308 0.18735 0.83882 0.0
H2617 H 0.2841 0.20378 0.81904 0.0
H2618 H 0.32001 0.21464 0.78649 0.0
C2619 C 0.32884 0.26328 0.76519 0.0
C2620 C 0.3029 0.24048 0.79255 0.0
C2621 C 0.33181 0.27372 0.75422 0.0
C2622 C 0.29309 0.19303 0.8327 0.0
C2623 C 0.29374 0.20263 0.82148 0.0
C2624 C 0.3153 0.22187 0.7885 0.0
C2625 C 0.31419 0.2536 0.76901 0.0
C2626 C 0.3112 0.24188 0.77989 0.0
C2627 C 0.30663 0.21048 0.81345 0.0
C2628 C 0.30754 0.22083 0.80156 0.0
H2629 H 0.29629 0.26563 0.74519 0.0
H2630 H 0.29116 0.24751 0.76476 0.0
H2631 H 0.32342 0.23302 0.76805 0.0
H2632 H 0.32763 0.19735 0.83009 0.0
H2633 H 0.32902 0.21448 0.81118 0.0
C2634 C 0.74315 0.05852 0.71233 0.0
C2635 C 0.73251 0.06284 0.7091 0.0
C2636 C 0.75271 0.06451 0.72551 0.0
C2637 C 0.76763 0.09675 0.75485 0.0
H2638 H 0.77694 0.07113 0.77866 0.0
C2639 C 0.79205 0.11358 0.81674 0.0
C2640 C 0.80349 0.11077 0.82134 0.0
C2641 C 0.78457 0.10818 0.80241 0.0
C2642 C 0.7746 0.07847 0.77202 0.0
H2643 H 0.72339 0.07663 0.71738 0.0
H2644 H 0.73975 0.08678 0.74039 0.0
H2645 H 0.76144 0.0606 0.75493 0.0
H2646 H 0.81612 0.10016 0.81423 0.0
H2647 H 0.80282 0.0905 0.78922 0.0
H2648 H 0.7805 0.1145 0.77211 0.0
C2649 C 0.741 0.07905 0.7326 0.0
C2650 C 0.76573 0.07245 0.75841 0.0
C2651 C 0.73152 0.07313 0.71943 0.0
C2652 C 0.80726 0.10241 0.81116 0.0
C2653 C 0.79967 0.09688 0.79683 0.0
C2654 C 0.77641 0.10272 0.76847 0.0
C2655 C 0.7518 0.07492 0.73577 0.0
C2656 C 0.76196 0.08147 0.74977 0.0
C2657 C 0.78823 0.09971 0.79232 0.0
C2658 C 0.77983 0.09361 0.77731 0.0
H2659 H 0.74424 0.05065 0.70459 0.0
H2660 H 0.76097 0.06118 0.72753 0.0
H2661 H 0.76526 0.10413 0.74831 0.0
H2662 H 0.78856 0.11964 0.82438 0.0
H2663 H 0.77563 0.11032 0.79938 0.0
C2664 C 0.0383 0.33828 0.041 0.0
C2665 C 0.04363 0.35399 0.04191 0.0
C2666 C 0.04507 0.33224 0.05017 0.0
C2667 C 0.06621 0.33985 0.08653 0.0
H2668 H 0.08125 0.31476 0.06983 0.0
C2669 C 0.10915 0.33103 0.12026 0.0
C2670 C 0.10939 0.31745 0.11786 0.0
C2671 C 0.0993 0.33369 0.11158 0.0
C2672 C 0.07685 0.32147 0.07477 0.0
H2673 H 0.0603 0.37567 0.05303 0.0
H2674 H 0.07186 0.3651 0.06912 0.0
H2675 H 0.06747 0.32262 0.05311 0.0
H2676 H 0.09898 0.29573 0.10476 0.0
H2677 H 0.08136 0.30011 0.09 0.0
H2678 H 0.07535 0.33869 0.10816 0.0
C2679 C 0.0625 0.35748 0.06131 0.0
C2680 C 0.06901 0.32603 0.06515 0.0
C2681 C 0.05593 0.36352 0.05201 0.0
C2682 C 0.09904 0.30629 0.10699 0.0
C2683 C 0.08908 0.3089 0.09836 0.0
C2684 C 0.07382 0.33514 0.09617 0.0
C2685 C 0.05708 0.34178 0.06059 0.0
C2686 C 0.06395 0.33556 0.07089 0.0
C2687 C 0.08925 0.32275 0.10036 0.0
C2688 C 0.0796 0.32621 0.09037 0.0
H2689 H 0.02884 0.33065 0.03333 0.0
H2690 H 0.0407 0.32008 0.04941 0.0
H2691 H 0.0622 0.34701 0.09128 0.0
H2692 H 0.11679 0.3398 0.12869 0.0
H2693 H 0.09995 0.34458 0.11337 0.0
C2694 C 0.66147 0.67921 0.08186 0.0
C2695 C 0.6466 0.67096 0.07591 0.0
C2696 C 0.66713 0.6937 0.08914 0.0
C2697 C 0.65386 0.71763 0.10795 0.0
H2698 H 0.69458 0.75023 0.1057 0.0
C2699 C 0.67285 0.77914 0.12818 0.0
C2700 C 0.68573 0.78677 0.13812 0.0
C2701 C 0.66898 0.76526 0.12059 0.0
C2702 C 0.68322 0.74116 0.10651 0.0
H2703 H 0.62629 0.67172 0.07213 0.0
H2704 H 0.63625 0.69707 0.0842 0.0
H2705 H 0.68615 0.72566 0.09188 0.0
H2706 H 0.70482 0.78583 0.14748 0.0
H2707 H 0.69815 0.76164 0.13382 0.0
H2708 H 0.65083 0.73323 0.12224 0.0
C2709 C 0.64343 0.69223 0.08383 0.0
C2710 C 0.67838 0.72708 0.09863 0.0
C2711 C 0.63774 0.67772 0.07677 0.0
C2712 C 0.69489 0.78034 0.13985 0.0
C2713 C 0.69107 0.76649 0.13207 0.0
C2714 C 0.65863 0.7317 0.11563 0.0
C2715 C 0.65808 0.70027 0.09047 0.0
C2716 C 0.66357 0.71518 0.09912 0.0
C2717 C 0.67796 0.75872 0.12254 0.0
C2718 C 0.6733 0.74365 0.11489 0.0
H2719 H 0.66855 0.67424 0.08141 0.0
H2720 H 0.67843 0.6995 0.09418 0.0
H2721 H 0.64251 0.70864 0.10901 0.0
H2722 H 0.66575 0.78391 0.12619 0.0
H2723 H 0.65894 0.75964 0.11309 0.0
C2724 C 0.3193 0.96329 0.03154 0.0
C2725 C 0.32791 0.95627 0.02999 0.0
C2726 C 0.30599 0.95626 0.03889 0.0
C2727 C 0.27838 0.9194 0.05397 0.0
H2728 H 0.27103 0.94542 0.08126 0.0
C2729 C 0.24024 0.8973 0.10379 0.0
C2730 C 0.2299 0.90223 0.1057 0.0
C2731 C 0.25112 0.90367 0.09328 0.0
C2732 C 0.27284 0.93803 0.07356 0.0
H2733 H 0.32907 0.93616 0.03458 0.0
H2734 H 0.30621 0.92412 0.04771 0.0
H2735 H 0.29172 0.95672 0.0648 0.0
H2736 H 0.22304 0.91783 0.09785 0.0
H2737 H 0.24241 0.92929 0.07985 0.0
H2738 H 0.25983 0.9007 0.06329 0.0
C2739 C 0.30946 0.93489 0.04298 0.0
C2740 C 0.28467 0.94449 0.06405 0.0
C2741 C 0.32267 0.94185 0.03549 0.0
C2742 C 0.23091 0.91388 0.0969 0.0
C2743 C 0.24195 0.9204 0.08652 0.0
C2744 C 0.26669 0.91295 0.06362 0.0
C2745 C 0.30106 0.94211 0.04503 0.0
C2746 C 0.28772 0.93526 0.05425 0.0
C2747 C 0.25211 0.9153 0.08455 0.0
C2748 C 0.26391 0.92219 0.07363 0.0
H2749 H 0.323 0.97438 0.02736 0.0
H2750 H 0.29969 0.96203 0.03996 0.0
H2751 H 0.28015 0.91191 0.04637 0.0
H2752 H 0.24009 0.88864 0.11058 0.0
H2753 H 0.25897 0.8997 0.09219 0.0
C2754 C 0.37131 0.04738 0.00956 0.0
C2755 C 0.3629 0.03145 0.00873 0.0
C2756 C 0.3653 0.05581 0.00372 0.0
C2757 C 0.33005 0.05355 0.98924 0.0
H2758 H 0.35703 0.08718 0.96642 0.0
C2759 C 0.31101 0.08315 0.94624 0.0
C2760 C 0.32003 0.09898 0.94583 0.0
C2761 C 0.3154 0.07507 0.95549 0.0
C2762 C 0.34939 0.07797 0.97292 0.0
H2763 H 0.34137 0.01188 0.00166 0.0
H2764 H 0.33099 0.02659 0.99113 0.0
H2765 H 0.3662 0.0729 0.97984 0.0
H2766 H 0.34023 0.11882 0.95548 0.0
H2767 H 0.34786 0.10475 0.97156 0.0
H2768 H 0.31315 0.05851 0.98187 0.0
C2769 C 0.34215 0.0326 0.99651 0.0
C2770 C 0.35466 0.06977 0.98067 0.0
C2771 C 0.34813 0.02416 0.0025 0.0
C2772 C 0.33319 0.1066 0.95531 0.0
C2773 C 0.33757 0.09854 0.96452 0.0
C2774 C 0.32475 0.06173 0.98139 0.0
C2775 C 0.35079 0.04853 0.99674 0.0
C2776 C 0.34508 0.05746 0.98895 0.0
C2777 C 0.32889 0.08265 0.96449 0.0
C2778 C 0.33438 0.07404 0.97315 0.0
H2779 H 0.38268 0.05334 0.01444 0.0
H2780 H 0.37216 0.06807 0.00444 0.0
H2781 H 0.3224 0.04423 0.99561 0.0
H2782 H 0.30086 0.07695 0.93898 0.0
H2783 H 0.30852 0.06282 0.95512 0.0
C2784 C 0.97359 0.30308 0.99875 0.0
C2785 C 0.96911 0.31396 0.99779 0.0
C2786 C 0.96426 0.28815 0.99261 0.0
C2787 C 0.92484 0.26103 0.97983 0.0
H2788 H 0.94111 0.24033 0.95643 0.0
C2789 C 0.88661 0.20067 0.95329 0.0
C2790 C 0.88891 0.19763 0.93827 0.0
C2791 C 0.89727 0.21378 0.96176 0.0
C2792 C 0.93639 0.24598 0.96288 0.0
H2793 H 0.9513 0.31764 0.98968 0.0
H2794 H 0.93524 0.29187 0.97892 0.0
H2795 H 0.95785 0.26548 0.96894 0.0
H2796 H 0.90438 0.20555 0.92049 0.0
H2797 H 0.92295 0.22878 0.93515 0.0
H2798 H 0.9034 0.242 0.97331 0.0
C2799 C 0.94581 0.29471 0.9846 0.0
C2800 C 0.946 0.26032 0.97021 0.0
C2801 C 0.95509 0.30955 0.99071 0.0
C2802 C 0.90237 0.20765 0.93207 0.0
C2803 C 0.91301 0.22091 0.94051 0.0
C2804 C 0.91527 0.24679 0.97248 0.0
C2805 C 0.95026 0.28381 0.98543 0.0
C2806 C 0.9403 0.26809 0.9786 0.0
C2807 C 0.91043 0.22429 0.95536 0.0
C2808 C 0.92088 0.23911 0.9638 0.0
H2809 H 0.98435 0.30613 0.00411 0.0
H2810 H 0.96797 0.28 0.99356 0.0
H2811 H 0.92007 0.26658 0.98637 0.0
H2812 H 0.87642 0.19297 0.95843 0.0
H2813 H 0.89506 0.21579 0.97328 0.0
C2814 C 0.68362 0.61999 0.03242 0.0
C2815 C 0.67923 0.62934 0.04003 0.0
C2816 C 0.69694 0.62629 0.02515 0.0
C2817 C 0.72417 0.66177 0.00864 0.0
H2818 H 0.74635 0.64064 0.00517 0.0
C2819 C 0.77823 0.68346 0.97594 0.0
C2820 C 0.77826 0.67248 0.96571 0.0
C2821 C 0.76709 0.67928 0.98624 0.0
C2822 C 0.74025 0.64665 0.00603 0.0
H2823 H 0.68569 0.65269 0.04646 0.0
H2824 H 0.7092 0.66373 0.0341 0.0
H2825 H 0.72576 0.63161 0.02177 0.0
H2826 H 0.76614 0.64856 0.95802 0.0
H2827 H 0.74709 0.6413 0.97623 0.0
H2828 H 0.73883 0.67686 0.99288 0.0
C2829 C 0.70216 0.6515 0.03346 0.0
C2830 C 0.72841 0.64146 0.0155 0.0
C2831 C 0.68873 0.64517 0.04066 0.0
C2832 C 0.76677 0.65728 0.96597 0.0
C2833 C 0.75579 0.6531 0.97637 0.0
C2834 C 0.73615 0.66708 0.99929 0.0
C2835 C 0.70633 0.64214 0.0254 0.0
C2836 C 0.71997 0.64872 0.01666 0.0
C2837 C 0.75585 0.66402 0.98665 0.0
C2838 C 0.74409 0.65936 0.99764 0.0
H2839 H 0.67654 0.60775 0.03163 0.0
H2840 H 0.69959 0.61869 0.01887 0.0
H2841 H 0.71785 0.66757 0.00908 0.0
H2842 H 0.78697 0.69524 0.97621 0.0
H2843 H 0.76742 0.68792 0.9941 0.0
C2844 C 0.94384 0.63791 0.01862 0.0
C2845 C 0.95887 0.64764 0.02345 0.0
C2846 C 0.93617 0.64303 0.00961 0.0
C2847 C 0.93669 0.67721 0.99629 0.0
H2848 H 0.91211 0.6493 0.96234 0.0
C2849 C 0.9076 0.69328 0.94893 0.0
C2850 C 0.89282 0.68217 0.94438 0.0
C2851 C 0.91637 0.68985 0.95855 0.0
C2852 C 0.91882 0.65719 0.97183 0.0
H2853 H 0.97747 0.67063 0.02315 0.0
H2854 H 0.96405 0.67958 0.00731 0.0
H2855 H 0.92574 0.64205 0.97976 0.0
H2856 H 0.87556 0.65888 0.94684 0.0
H2857 H 0.89079 0.6529 0.96338 0.0
H2858 H 0.92964 0.69233 0.98829 0.0
C2859 C 0.95819 0.66799 0.01057 0.0
C2860 C 0.92662 0.65302 0.98185 0.0
C2861 C 0.96588 0.66285 0.01963 0.0
C2862 C 0.88702 0.6676 0.94973 0.0
C2863 C 0.89575 0.66418 0.95929 0.0
C2864 C 0.92885 0.6814 0.98624 0.0
C2865 C 0.94334 0.65801 0.00515 0.0
C2866 C 0.93549 0.66287 0.99432 0.0
C2867 C 0.91053 0.67522 0.9638 0.0
C2868 C 0.91966 0.67134 0.974 0.0
H2869 H 0.93805 0.62617 0.02145 0.0
H2870 H 0.92464 0.63515 0.00593 0.0
H2871 H 0.94339 0.68504 0.00582 0.0
H2872 H 0.91242 0.7046 0.94497 0.0
H2873 H 0.92776 0.69857 0.96173 0.0
C2874 C 0.3659 0.32552 0.97352 0.0
C2875 C 0.35737 0.32993 0.98206 0.0
C2876 C 0.35927 0.31125 0.96569 0.0
C2877 C 0.32832 0.27253 0.96465 0.0
H2878 H 0.33725 0.27098 0.92251 0.0
C2879 C 0.30577 0.21545 0.92887 0.0
C2880 C 0.31607 0.21432 0.91979 0.0
C2881 C 0.30897 0.22951 0.93566 0.0
C2882 C 0.33473 0.27118 0.93429 0.0
H2883 H 0.33524 0.32264 0.98943 0.0
H2884 H 0.32368 0.2974 0.97593 0.0
H2885 H 0.34656 0.29548 0.93651 0.0
H2886 H 0.33749 0.22719 0.91018 0.0
H2887 H 0.34326 0.25148 0.92232 0.0
H2888 H 0.31703 0.24824 0.96268 0.0
C2889 C 0.33549 0.30514 0.97525 0.0
C2890 C 0.34002 0.28522 0.94228 0.0
C2891 C 0.3421 0.31956 0.98293 0.0
C2892 C 0.32941 0.22761 0.91729 0.0
C2893 C 0.33262 0.24161 0.9241 0.0
C2894 C 0.32316 0.25844 0.9567 0.0
C2895 C 0.344 0.30097 0.96636 0.0
C2896 C 0.33711 0.28604 0.95761 0.0
C2897 C 0.32253 0.24275 0.93351 0.0
C2898 C 0.32657 0.2576 0.9415 0.0
H2899 H 0.37768 0.33322 0.97258 0.0
H2900 H 0.36612 0.30825 0.95908 0.0
H2901 H 0.32598 0.27287 0.97649 0.0
H2902 H 0.29543 0.20541 0.9311 0.0
H2903 H 0.30086 0.22999 0.94269 0.0
C2904 C 0.68166 0.03165 0.02676 0.0
C2905 C 0.67481 0.04002 0.03099 0.0
C2906 C 0.69455 0.03824 0.0187 0.0
C2907 C 0.72519 0.05689 0.00596 0.0
H2908 H 0.72376 0.08046 0.97326 0.0
C2909 C 0.77397 0.08939 0.96695 0.0
C2910 C 0.77008 0.08905 0.95144 0.0
C2911 C 0.76296 0.08319 0.97741 0.0
C2912 C 0.7243 0.07384 0.98227 0.0
H2913 H 0.67666 0.06216 0.03091 0.0
H2914 H 0.6992 0.07368 0.01705 0.0
H2915 H 0.704 0.0706 0.99079 0.0
H2916 H 0.75153 0.08121 0.93466 0.0
H2917 H 0.73237 0.07044 0.95285 0.0
H2918 H 0.74539 0.05991 0.99713 0.0
C2919 C 0.69446 0.06193 0.01969 0.0
C2920 C 0.71307 0.06835 0.99247 0.0
C2921 C 0.68159 0.05535 0.02773 0.0
C2922 C 0.75492 0.08194 0.94657 0.0
C2923 C 0.74394 0.07578 0.95699 0.0
C2924 C 0.73649 0.06245 0.99576 0.0
C2925 C 0.70085 0.05334 0.01469 0.0
C2926 C 0.71332 0.05975 0.0044 0.0
C2927 C 0.74782 0.07655 0.97257 0.0
C2928 C 0.73609 0.07087 0.98371 0.0
H2929 H 0.67672 0.0198 0.0291 0.0
H2930 H 0.69914 0.03127 0.01496 0.0
H2931 H 0.72574 0.05037 0.01507 0.0
H2932 H 0.78555 0.09492 0.9711 0.0
H2933 H 0.76632 0.08406 0.98934 0.0
C2934 C 0.65319 0.97228 0.05839 0.0
C2935 C 0.63779 0.96539 0.05475 0.0
C2936 C 0.65917 0.96405 0.06487 0.0
C2937 C 0.66975 0.94211 0.07388 0.0
H2938 H 0.64674 0.91729 0.10573 0.0
C2939 C 0.68515 0.90315 0.10715 0.0
C2940 C 0.6831 0.90283 0.12283 0.0
C2941 C 0.68037 0.91094 0.09792 0.0
C2942 C 0.65335 0.92423 0.09693 0.0
H2943 H 0.61675 0.9442 0.05414 0.0
H2944 H 0.6272 0.92982 0.06521 0.0
H2945 H 0.63697 0.93013 0.09065 0.0
H2946 H 0.67522 0.91115 0.14125 0.0
H2947 H 0.6669 0.92465 0.12522 0.0
H2948 H 0.6863 0.9364 0.08051 0.0
C2949 C 0.63462 0.94167 0.06338 0.0
C2950 C 0.64765 0.93143 0.08813 0.0
C2951 C 0.62864 0.94989 0.05694 0.0
C2952 C 0.67665 0.91088 0.12916 0.0
C2953 C 0.67188 0.91862 0.11997 0.0
C2954 C 0.67545 0.93482 0.08268 0.0
C2955 C 0.64988 0.94875 0.06783 0.0
C2956 C 0.6558 0.94053 0.07655 0.0
C2957 C 0.67344 0.91853 0.10421 0.0
C2958 C 0.66736 0.92593 0.09442 0.0
H2959 H 0.66054 0.98421 0.05684 0.0
H2960 H 0.67096 0.96987 0.06823 0.0
H2961 H 0.67626 0.94897 0.06499 0.0
H2962 H 0.69 0.89698 0.10192 0.0
H2963 H 0.68166 0.9106 0.0858 0.0
C2964 C 0.04939 0.6956 0.06485 0.0
C2965 C 0.03416 0.68947 0.06087 0.0
C2966 C 0.05771 0.70997 0.07239 0.0
C2967 C 0.05845 0.7459 0.08267 0.0
H2968 H 0.08472 0.74814 0.11626 0.0
C2969 C 0.104 0.80231 0.11427 0.0
C2970 C 0.10717 0.80221 0.12988 0.0
C2971 C 0.09353 0.78894 0.10592 0.0
C2972 C 0.07731 0.7477 0.10706 0.0
H2973 H 0.01586 0.69395 0.06102 0.0
H2974 H 0.03042 0.71911 0.07437 0.0
H2975 H 0.06991 0.7244 0.10101 0.0
H2976 H 0.10115 0.78832 0.14919 0.0
H2977 H 0.08274 0.76504 0.1347 0.0
H2978 H 0.06584 0.76928 0.08892 0.0
C2979 C 0.03593 0.71278 0.07156 0.0
C2980 C 0.06898 0.73412 0.09814 0.0
C2981 C 0.02758 0.69836 0.06394 0.0
C2982 C 0.09909 0.78868 0.13713 0.0
C2983 C 0.08859 0.77534 0.12881 0.0
C2984 C 0.06685 0.75956 0.09161 0.0
C2985 C 0.05099 0.71856 0.07622 0.0
C2986 C 0.05955 0.73308 0.08575 0.0
C2987 C 0.086 0.77521 0.11303 0.0
C2988 C 0.07642 0.76062 0.10388 0.0
H2989 H 0.05485 0.68912 0.06251 0.0
H2990 H 0.06937 0.71424 0.0755 0.0
H2991 H 0.05131 0.74546 0.07318 0.0
H2992 H 0.11017 0.81255 0.10835 0.0
H2993 H 0.09191 0.78922 0.09377 0.0
C2994 C 0.31541 0.35341 0.02219 0.0
C2995 C 0.32334 0.36892 0.01953 0.0
C2996 C 0.30234 0.34745 0.02998 0.0
C2997 C 0.28438 0.36018 0.05763 0.0
H2998 H 0.24999 0.32 0.04885 0.0
C2999 C 0.23143 0.34041 0.08974 0.0
C3000 C 0.22464 0.32569 0.09487 0.0
C3001 C 0.24259 0.345 0.0795 0.0
C3002 C 0.25957 0.33119 0.05151 0.0
H3003 H 0.32326 0.39013 0.0221 0.0
H3004 H 0.3004 0.37971 0.03535 0.0
H3005 H 0.27086 0.32924 0.03239 0.0
H3006 H 0.224 0.30411 0.09291 0.0
H3007 H 0.2436 0.31218 0.07498 0.0
H3008 H 0.27326 0.36216 0.07674 0.0
C3009 C 0.30445 0.3722 0.0318 0.0
C3010 C 0.27152 0.33649 0.04208 0.0
C3011 C 0.31751 0.37816 0.0241 0.0
C3012 C 0.22896 0.3155 0.08912 0.0
C3013 C 0.24017 0.32012 0.07884 0.0
C3014 C 0.27248 0.35491 0.067 0.0
C3015 C 0.29692 0.35688 0.03522 0.0
C3016 C 0.28404 0.35109 0.045 0.0
C3017 C 0.24727 0.33501 0.0741 0.0
C3018 C 0.2599 0.34039 0.06403 0.0
H3019 H 0.31962 0.346 0.01883 0.0
H3020 H 0.29686 0.33561 0.03247 0.0
H3021 H 0.29399 0.37132 0.06047 0.0
H3022 H 0.22812 0.34842 0.09366 0.0
H3023 H 0.24759 0.35644 0.07582 0.0
C3024 C 0.7041 0.6749 0.37567 0.0
C3025 C 0.70852 0.69039 0.37699 0.0
C3026 C 0.71223 0.66952 0.38365 0.0
C3027 C 0.74903 0.68304 0.40445 0.0
H3028 H 0.72838 0.64492 0.42363 0.0
C3029 C 0.7776 0.6684 0.45195 0.0
C3030 C 0.77706 0.65437 0.44994 0.0
C3031 C 0.76844 0.67161 0.44281 0.0
C3032 C 0.73427 0.65553 0.41823 0.0
H3033 H 0.7249 0.71237 0.38776 0.0
H3034 H 0.73873 0.70305 0.40184 0.0
H3035 H 0.71421 0.65284 0.40748 0.0
H3036 H 0.76585 0.63244 0.43717 0.0
H3037 H 0.7495 0.63798 0.42146 0.0
H3038 H 0.769 0.68595 0.41559 0.0
C3039 C 0.72927 0.69502 0.39439 0.0
C3040 C 0.72619 0.66005 0.40892 0.0
C3041 C 0.72125 0.70038 0.38635 0.0
C3042 C 0.76649 0.64331 0.43912 0.0
C3043 C 0.75717 0.64649 0.43007 0.0
C3044 C 0.75703 0.67862 0.41388 0.0
C3045 C 0.72489 0.67953 0.39317 0.0
C3046 C 0.73346 0.67399 0.4021 0.0
C3047 C 0.75836 0.66082 0.43157 0.0
C3048 C 0.74973 0.66494 0.42103 0.0
H3049 H 0.69432 0.66691 0.36854 0.0
H3050 H 0.70862 0.65754 0.38231 0.0
H3051 H 0.75508 0.69364 0.39908 0.0
H3052 H 0.78533 0.67705 0.46042 0.0
H3053 H 0.76937 0.68266 0.44441 0.0
C3054 C 0.30064 0.00922 0.41177 0.0
C3055 C 0.30994 0.00303 0.41007 0.0
C3056 C 0.30622 0.02382 0.41853 0.0
C3057 C 0.34097 0.06004 0.43018 0.0
H3058 H 0.31498 0.0653 0.45714 0.0
C3059 C 0.35926 0.11482 0.46936 0.0
C3060 C 0.34911 0.12013 0.46951 0.0
C3061 C 0.35527 0.10074 0.46196 0.0
C3062 C 0.32233 0.06405 0.44956 0.0
H3063 H 0.33254 0.00749 0.41375 0.0
H3064 H 0.34229 0.03299 0.42589 0.0
H3065 H 0.30673 0.04052 0.44439 0.0
H3066 H 0.32701 0.11501 0.46145 0.0
H3067 H 0.32 0.09045 0.44888 0.0
H3068 H 0.35665 0.08367 0.43563 0.0
C3069 C 0.33069 0.0266 0.42179 0.0
C3070 C 0.31759 0.04984 0.44219 0.0
C3071 C 0.32511 0.01197 0.41487 0.0
C3072 C 0.33498 0.11113 0.46192 0.0
C3073 C 0.33097 0.09706 0.45465 0.0
C3074 C 0.34577 0.07428 0.43767 0.0
C3075 C 0.32123 0.03259 0.42395 0.0
C3076 C 0.32673 0.04768 0.43222 0.0
C3077 C 0.34101 0.09166 0.45467 0.0
C3078 C 0.3364 0.07646 0.44727 0.0
H3079 H 0.28893 0.00269 0.40803 0.0
H3080 H 0.29869 0.02819 0.41962 0.0
H3081 H 0.34827 0.05881 0.42251 0.0
H3082 H 0.37019 0.12139 0.4752 0.0
H3083 H 0.3632 0.09681 0.46225 0.0
C3084 C 0.9934 0.2991 0.36692 0.0
C3085 C 0.00198 0.29201 0.36581 0.0
C3086 C 0.97984 0.29208 0.37387 0.0
C3087 C 0.9514 0.25491 0.38758 0.0
H3088 H 0.94276 0.28015 0.41454 0.0
C3089 C 0.91107 0.23105 0.43526 0.0
C3090 C 0.9005 0.23571 0.43676 0.0
C3091 C 0.92247 0.23793 0.42538 0.0
C3092 C 0.94494 0.27298 0.40692 0.0
H3093 H 0.00291 0.27187 0.37087 0.0
H3094 H 0.97962 0.25986 0.38323 0.0
H3095 H 0.96427 0.29198 0.39913 0.0
H3096 H 0.89381 0.25146 0.42896 0.0
H3097 H 0.91407 0.2638 0.41203 0.0
H3098 H 0.93239 0.23589 0.39588 0.0
C3099 C 0.98309 0.27067 0.37848 0.0
C3100 C 0.95724 0.27975 0.39802 0.0
C3101 C 0.99654 0.27761 0.37144 0.0
C3102 C 0.90183 0.24767 0.42827 0.0
C3103 C 0.91339 0.25471 0.41851 0.0
C3104 C 0.93924 0.24816 0.3966 0.0
C3105 C 0.97461 0.27786 0.37995 0.0
C3106 C 0.96077 0.27078 0.3884 0.0
C3107 C 0.92375 0.24981 0.41688 0.0
C3108 C 0.936 0.2571 0.40652 0.0
H3109 H 0.99726 0.31018 0.36265 0.0
H3110 H 0.97351 0.29786 0.37456 0.0
H3111 H 0.95353 0.24763 0.38006 0.0
H3112 H 0.91069 0.22217 0.44187 0.0
H3113 H 0.93046 0.23411 0.42457 0.0
C3114 C 0.02528 0.3631 0.33802 0.0
C3115 C 0.04061 0.36819 0.33866 0.0
C3116 C 0.01986 0.37209 0.33216 0.0
C3117 C 0.03219 0.4115 0.32128 0.0
H3118 H 0.99631 0.39158 0.29439 0.0
C3119 C 0.01825 0.44236 0.2762 0.0
C3120 C 0.00369 0.43999 0.27508 0.0
C3121 C 0.02185 0.43379 0.28552 0.0
C3122 C 0.00624 0.39727 0.30203 0.0
H3123 H 0.06227 0.3868 0.33387 0.0
H3124 H 0.05287 0.40218 0.32338 0.0
H3125 H 0.00424 0.37628 0.30813 0.0
H3126 H 0.98152 0.42665 0.28308 0.0
H3127 H 0.98778 0.41132 0.29898 0.0
H3128 H 0.03449 0.43248 0.3146 0.0
C3129 C 0.04499 0.39146 0.32769 0.0
C3130 C 0.01077 0.38853 0.30996 0.0
C3131 C 0.0504 0.38255 0.33363 0.0
C3132 C 0.9928 0.42868 0.28347 0.0
C3133 C 0.99637 0.41993 0.29263 0.0
C3134 C 0.02776 0.42021 0.31322 0.0
C3135 C 0.02964 0.38631 0.32674 0.0
C3136 C 0.02396 0.39553 0.31949 0.0
C3137 C 0.01096 0.42247 0.29379 0.0
C3138 C 0.01488 0.41319 0.30333 0.0
H3139 H 0.01745 0.3521 0.34185 0.0
H3140 H 0.00799 0.36785 0.33181 0.0
H3141 H 0.0422 0.41731 0.32879 0.0
H3142 H 0.02687 0.45067 0.26965 0.0
H3143 H 0.03313 0.4358 0.28599 0.0
C3144 C 0.6364 0.63833 0.3316 0.0
C3145 C 0.63273 0.64969 0.32947 0.0
C3146 C 0.62802 0.624 0.32378 0.0
C3147 C 0.60396 0.60554 0.28904 0.0
H3148 H 0.58748 0.5682 0.30967 0.0
C3149 C 0.55512 0.54981 0.26208 0.0
C3150 C 0.55428 0.53597 0.2649 0.0
C3151 C 0.56627 0.5634 0.26942 0.0
C3152 C 0.59222 0.57849 0.30366 0.0
H3153 H 0.61728 0.65482 0.31764 0.0
H3154 H 0.60287 0.63002 0.30401 0.0
H3155 H 0.60409 0.59245 0.32392 0.0
H3156 H 0.56479 0.52561 0.27745 0.0
H3157 H 0.58456 0.54946 0.29003 0.0
H3158 H 0.59216 0.59176 0.26881 0.0
C3159 C 0.61222 0.63218 0.31165 0.0
C3160 C 0.6017 0.59237 0.31185 0.0
C3161 C 0.62043 0.64636 0.31956 0.0
C3162 C 0.56517 0.5361 0.27494 0.0
C3163 C 0.57639 0.54974 0.28229 0.0
C3164 C 0.59462 0.59171 0.28084 0.0
C3165 C 0.616 0.6209 0.31354 0.0
C3166 C 0.60734 0.60604 0.30468 0.0
C3167 C 0.57699 0.56355 0.27973 0.0
C3168 C 0.58831 0.57803 0.28811 0.0
H3169 H 0.64581 0.64056 0.33916 0.0
H3170 H 0.63116 0.61549 0.32544 0.0
H3171 H 0.60839 0.6159 0.28316 0.0
H3172 H 0.54704 0.55015 0.25426 0.0
H3173 H 0.56623 0.57376 0.2673 0.0
C3174 C 0.3543 0.97394 0.37405 0.0
C3175 C 0.3441 0.95838 0.3749 0.0
C3176 C 0.36692 0.97871 0.36566 0.0
C3177 C 0.37881 0.9657 0.33273 0.0
H3178 H 0.41901 0.99693 0.34624 0.0
C3179 C 0.42822 0.97697 0.29744 0.0
C3180 C 0.44001 0.99197 0.29685 0.0
C3181 C 0.41704 0.97348 0.30747 0.0
C3182 C 0.40781 0.98834 0.3422 0.0
H3183 H 0.33958 0.93565 0.36822 0.0
H3184 H 0.36143 0.94397 0.3536 0.0
H3185 H 0.39885 0.98992 0.36334 0.0
H3186 H 0.4492 0.01506 0.30656 0.0
H3187 H 0.42933 0.00906 0.32364 0.0
H3188 H 0.38746 0.96426 0.31154 0.0
C3189 C 0.35962 0.95248 0.3593 0.0
C3190 C 0.3963 0.9843 0.35203 0.0
C3191 C 0.34714 0.94773 0.36777 0.0
C3192 C 0.44023 0.00341 0.30656 0.0
C3193 C 0.42893 0.99993 0.31653 0.0
C3194 C 0.39022 0.96984 0.32287 0.0
C3195 C 0.36945 0.96799 0.35785 0.0
C3196 C 0.38172 0.97279 0.34745 0.0
C3197 C 0.41715 0.9849 0.31709 0.0
C3198 C 0.40493 0.98107 0.32751 0.0
H3199 H 0.35227 0.98244 0.37941 0.0
H3200 H 0.37432 0.99075 0.36472 0.0
H3201 H 0.36761 0.957 0.32878 0.0
H3202 H 0.4275 0.96787 0.29 0.0
H3203 H 0.40832 0.96174 0.30773 0.0
C3204 C 0.617 0.96423 0.34053 0.0
C3205 C 0.62748 0.9737 0.35229 0.0
C3206 C 0.60952 0.96957 0.33153 0.0
C3207 C 0.59468 0.99427 0.33042 0.0
H3208 H 0.59965 0.99439 0.28704 0.0
C3209 C 0.5635 0.01354 0.28983 0.0
C3210 C 0.55818 0.00564 0.27544 0.0
C3211 C 0.5734 0.01146 0.29916 0.0
C3212 C 0.59793 0.99425 0.29908 0.0
H3213 H 0.63805 0.99605 0.36412 0.0
H3214 H 0.6244 0.00521 0.34863 0.0
H3215 H 0.61357 0.98684 0.30383 0.0
H3216 H 0.55968 0.98976 0.25946 0.0
H3217 H 0.57609 0.98543 0.27598 0.0
H3218 H 0.57841 0.00075 0.32576 0.0
C3219 C 0.62225 0.99374 0.34632 0.0
C3220 C 0.60603 0.99006 0.30868 0.0
C3221 C 0.63002 0.98851 0.35515 0.0
C3222 C 0.5633 0.99586 0.27054 0.0
C3223 C 0.57297 0.99357 0.27998 0.0
C3224 C 0.58631 0.99816 0.32078 0.0
C3225 C 0.61213 0.98437 0.3343 0.0
C3226 C 0.60438 0.98992 0.3244 0.0
C3227 C 0.57807 0.00122 0.29451 0.0
C3228 C 0.5877 0.99805 0.30493 0.0
H3229 H 0.61485 0.9528 0.33798 0.0
H3230 H 0.60169 0.96213 0.32237 0.0
H3231 H 0.59316 0.99412 0.34251 0.0
H3232 H 0.5597 0.02101 0.29416 0.0
H3233 H 0.57726 0.01781 0.31011 0.0
C3234 C 0.0141 0.65708 0.31351 0.0
C3235 C 0.02926 0.66669 0.318 0.0
C3236 C 0.00928 0.64312 0.30537 0.0
C3237 C 0.02367 0.62372 0.28084 0.0
H3238 H 0.98767 0.58682 0.28916 0.0
C3239 C 0.01183 0.56501 0.25795 0.0
C3240 C 0.9973 0.55434 0.25217 0.0
C3241 C 0.01485 0.57866 0.26547 0.0
C3242 C 0.99765 0.59708 0.28658 0.0
H3243 H 0.05115 0.66893 0.31795 0.0
H3244 H 0.04274 0.64465 0.30405 0.0
H3245 H 0.99449 0.61066 0.30362 0.0
H3246 H 0.97455 0.54972 0.24981 0.0
H3247 H 0.97986 0.57363 0.26312 0.0
H3248 H 0.02696 0.61019 0.26396 0.0
C3249 C 0.0346 0.64798 0.30648 0.0
C3250 C 0.00156 0.61073 0.29486 0.0
C3251 C 0.0394 0.66187 0.31457 0.0
C3252 C 0.98583 0.55763 0.25423 0.0
C3253 C 0.98887 0.57132 0.26184 0.0
C3254 C 0.01979 0.61012 0.27261 0.0
C3255 C 0.01953 0.63854 0.30156 0.0
C3256 C 0.01475 0.62416 0.29225 0.0
C3257 C 0.00344 0.582 0.26748 0.0
C3258 C 0.00686 0.5966 0.27554 0.0
H3259 H 0.00602 0.66048 0.31597 0.0
H3260 H 0.9976 0.63614 0.30169 0.0
H3261 H 0.03371 0.63392 0.27827 0.0
H3262 H 0.02087 0.5627 0.25692 0.0
H3263 H 0.02614 0.58651 0.26995 0.0
C3264 C 0.34372 0.39037 0.35772 0.0
C3265 C 0.33736 0.37527 0.36167 0.0
C3266 C 0.35662 0.39695 0.34973 0.0
C3267 C 0.3757 0.40301 0.32296 0.0
H3268 H 0.40891 0.39621 0.32958 0.0
C3269 C 0.41892 0.41709 0.27846 0.0
C3270 C 0.434 0.42473 0.28373 0.0
C3271 C 0.40771 0.41081 0.28863 0.0
C3272 C 0.39975 0.39828 0.32765 0.0
H3273 H 0.34 0.35547 0.36102 0.0
H3274 H 0.36248 0.36692 0.34697 0.0
H3275 H 0.38889 0.38657 0.34709 0.0
H3276 H 0.4491 0.43145 0.30384 0.0
H3277 H 0.42947 0.42042 0.32164 0.0
H3278 H 0.38651 0.41478 0.30364 0.0
C3279 C 0.35754 0.37372 0.35013 0.0
C3280 C 0.38824 0.39266 0.3376 0.0
C3281 C 0.34462 0.36714 0.35815 0.0
C3282 C 0.4376 0.42551 0.2994 0.0
C3283 C 0.42635 0.41921 0.30959 0.0
C3284 C 0.38714 0.40856 0.31301 0.0
C3285 C 0.36346 0.38857 0.34547 0.0
C3286 C 0.37606 0.39495 0.33535 0.0
C3287 C 0.41127 0.412 0.30434 0.0
C3288 C 0.39927 0.40619 0.31517 0.0
H3289 H 0.33848 0.397 0.36036 0.0
H3290 H 0.36107 0.40852 0.3466 0.0
H3291 H 0.3664 0.40479 0.32074 0.0
H3292 H 0.41577 0.41602 0.26644 0.0
H3293 H 0.39621 0.40505 0.28417 0.0
C3294 C 0.29306 0.2863 0.39231 0.0
C3295 C 0.30202 0.30171 0.38965 0.0
C3296 C 0.29932 0.27829 0.39864 0.0
C3297 C 0.33483 0.27907 0.40785 0.0
H3298 H 0.3128 0.25427 0.44016 0.0
C3299 C 0.35082 0.23963 0.43935 0.0
C3300 C 0.34887 0.23887 0.45504 0.0
C3301 C 0.34606 0.24776 0.43062 0.0
C3302 C 0.31916 0.26122 0.43124 0.0
H3303 H 0.32471 0.32062 0.3909 0.0
H3304 H 0.33564 0.30667 0.40217 0.0
H3305 H 0.30265 0.26715 0.42577 0.0
H3306 H 0.34131 0.2468 0.47405 0.0
H3307 H 0.33312 0.261 0.45892 0.0
H3308 H 0.35153 0.27333 0.41369 0.0
C3309 C 0.32378 0.30074 0.39922 0.0
C3310 C 0.31323 0.26845 0.42283 0.0
C3311 C 0.3175 0.30875 0.39281 0.0
C3312 C 0.34265 0.2469 0.46193 0.0
C3313 C 0.33794 0.25502 0.45325 0.0
C3314 C 0.34078 0.27178 0.41629 0.0
C3315 C 0.31469 0.28552 0.40257 0.0
C3316 C 0.32098 0.27749 0.41105 0.0
C3317 C 0.33929 0.25529 0.43745 0.0
C3318 C 0.33304 0.26287 0.42817 0.0
H3319 H 0.28111 0.28048 0.38987 0.0
H3320 H 0.29205 0.26649 0.40077 0.0
H3321 H 0.34104 0.28589 0.3988 0.0
H3322 H 0.35551 0.23349 0.43372 0.0
H3323 H 0.34718 0.24769 0.41846 0.0
C3324 C 0.71665 0.025 0.39957 0.0
C3325 C 0.70122 0.01797 0.3962 0.0
C3326 C 0.72474 0.04004 0.40556 0.0
C3327 C 0.72111 0.06821 0.42865 0.0
H3328 H 0.75978 0.09619 0.41446 0.0
C3329 C 0.76744 0.12016 0.46495 0.0
C3330 C 0.77619 0.13356 0.4577 0.0
C3331 C 0.75657 0.10704 0.45658 0.0
C3332 C 0.74893 0.0886 0.41844 0.0
H3333 H 0.68216 0.02124 0.3963 0.0
H3334 H 0.69636 0.0476 0.40708 0.0
H3335 H 0.7442 0.07148 0.40073 0.0
H3336 H 0.78016 0.14383 0.43606 0.0
H3337 H 0.76117 0.12089 0.42145 0.0
H3338 H 0.72607 0.0852 0.44665 0.0
C3339 C 0.70215 0.04141 0.40498 0.0
C3340 C 0.74006 0.07441 0.41065 0.0
C3341 C 0.69406 0.02638 0.39875 0.0
C3342 C 0.7735 0.13371 0.44199 0.0
C3343 C 0.76273 0.12056 0.4336 0.0
C3344 C 0.73006 0.08236 0.43656 0.0
C3345 C 0.71756 0.04835 0.4085 0.0
C3346 C 0.72618 0.06398 0.41581 0.0
C3347 C 0.75434 0.10701 0.44077 0.0
C3348 C 0.74416 0.09261 0.43166 0.0
H3349 H 0.72249 0.01883 0.39772 0.0
H3350 H 0.73658 0.04504 0.40831 0.0
H3351 H 0.71049 0.06035 0.43293 0.0
H3352 H 0.76922 0.11976 0.47706 0.0
H3353 H 0.75037 0.09675 0.4624 0.0
C3354 C 0.9817 0.6861 0.3571 0.0
C3355 C 0.98942 0.70171 0.35483 0.0
C3356 C 0.96856 0.67971 0.36479 0.0
C3357 C 0.9507 0.69126 0.39345 0.0
H3358 H 0.91648 0.65105 0.38425 0.0
C3359 C 0.90643 0.66295 0.43655 0.0
C3360 C 0.89144 0.65597 0.43106 0.0
C3361 C 0.91775 0.6674 0.4265 0.0
C3362 C 0.92593 0.66233 0.38691 0.0
H3363 H 0.98885 0.72262 0.35794 0.0
H3364 H 0.96592 0.71147 0.37111 0.0
H3365 H 0.93685 0.66118 0.3671 0.0
H3366 H 0.87658 0.64775 0.41067 0.0
H3367 H 0.89641 0.65551 0.39307 0.0
H3368 H 0.93988 0.69255 0.41313 0.0
C3369 C 0.97016 0.70421 0.36727 0.0
C3370 C 0.93764 0.66808 0.37716 0.0
C3371 C 0.98327 0.71059 0.35963 0.0
C3372 C 0.88801 0.653 0.41527 0.0
C3373 C 0.89937 0.65745 0.40519 0.0
C3374 C 0.93909 0.68551 0.40319 0.0
C3375 C 0.96289 0.68881 0.37036 0.0
C3376 C 0.95016 0.68264 0.38033 0.0
C3377 C 0.91439 0.66498 0.4107 0.0
C3378 C 0.9266 0.67096 0.4001 0.0
H3379 H 0.98615 0.67895 0.35355 0.0
H3380 H 0.96326 0.66781 0.36703 0.0
H3381 H 0.96026 0.70242 0.39638 0.0
H3382 H 0.90944 0.66511 0.44865 0.0
H3383 H 0.92918 0.67286 0.43114 0.0
C3384 C 0.37372 0.01536 0.71168 0.0
C3385 C 0.37799 0.03083 0.71236 0.0
C3386 C 0.38122 0.01024 0.72107 0.0
C3387 C 0.40301 0.01986 0.75744 0.0
H3388 H 0.41949 0.99593 0.74118 0.0
C3389 C 0.4478 0.01389 0.79134 0.0
C3390 C 0.4485 0.00053 0.78924 0.0
C3391 C 0.43759 0.01596 0.78257 0.0
C3392 C 0.41471 0.00234 0.746 0.0
H3393 H 0.39351 0.05303 0.72333 0.0
H3394 H 0.40636 0.04406 0.73977 0.0
H3395 H 0.40466 0.00242 0.72435 0.0
H3396 H 0.43858 0.97863 0.77653 0.0
H3397 H 0.42036 0.98198 0.76166 0.0
H3398 H 0.41286 0.01975 0.77908 0.0
C3399 C 0.39725 0.03591 0.732 0.0
C3400 C 0.40627 0.0061 0.73632 0.0
C3401 C 0.38995 0.04105 0.72249 0.0
C3402 C 0.43829 0.98902 0.77856 0.0
C3403 C 0.42797 0.99104 0.76985 0.0
C3404 C 0.41126 0.01594 0.76716 0.0
C3405 C 0.39291 0.02046 0.73147 0.0
C3406 C 0.40062 0.01518 0.74189 0.0
C3407 C 0.42765 0.00465 0.77156 0.0
C3408 C 0.41753 0.00743 0.76151 0.0
H3409 H 0.36454 0.00722 0.70399 0.0
H3410 H 0.37766 0.99826 0.72046 0.0
H3411 H 0.39856 0.02666 0.76208 0.0
H3412 H 0.45532 0.02291 0.79961 0.0
H3413 H 0.43784 0.02668 0.78413 0.0
C3414 C 0.98995 0.34291 0.74735 0.0
C3415 C 0.97551 0.33422 0.74036 0.0
C3416 C 0.9944 0.35693 0.75518 0.0
C3417 C 0.97792 0.37787 0.77374 0.0
H3418 H 0.01772 0.41276 0.77378 0.0
C3419 C 0.99164 0.43728 0.79636 0.0
C3420 C 0.00445 0.44568 0.80625 0.0
C3421 C 0.98893 0.4239 0.78848 0.0
C3422 C 0.00661 0.40305 0.77397 0.0
H3423 H 0.95472 0.33377 0.73532 0.0
H3424 H 0.96258 0.35827 0.74846 0.0
H3425 H 0.01158 0.38917 0.75917 0.0
H3426 H 0.02456 0.44659 0.81539 0.0
H3427 H 0.01988 0.42324 0.80134 0.0
H3428 H 0.97286 0.39178 0.78828 0.0
C3429 C 0.97034 0.35412 0.74841 0.0
C3430 C 0.00309 0.38954 0.76563 0.0
C3431 C 0.96586 0.3401 0.74076 0.0
C3432 C 0.01464 0.44049 0.80779 0.0
C3433 C 0.01197 0.42711 0.79977 0.0
C3434 C 0.9814 0.39136 0.78194 0.0
C3435 C 0.98452 0.36255 0.75605 0.0
C3436 C 0.98863 0.37684 0.76527 0.0
C3437 C 0.999 0.41862 0.79016 0.0
C3438 C 0.99572 0.40414 0.78202 0.0
H3439 H 0.99761 0.33864 0.74727 0.0
H3440 H 0.00538 0.36308 0.76098 0.0
H3441 H 0.9668 0.36821 0.7741 0.0
H3442 H 0.98374 0.44113 0.79455 0.0
H3443 H 0.97897 0.41773 0.78094 0.0
C3444 C 0.65714 0.61074 0.69913 0.0
C3445 C 0.66552 0.62653 0.69804 0.0
C3446 C 0.64396 0.6043 0.70672 0.0
C3447 C 0.62687 0.6134 0.7376 0.0
H3448 H 0.5905 0.57705 0.72236 0.0
C3449 C 0.57499 0.58734 0.77278 0.0
C3450 C 0.56649 0.5714 0.77249 0.0
C3451 C 0.58612 0.59446 0.76261 0.0
C3452 C 0.60061 0.5871 0.72689 0.0
H3453 H 0.66641 0.6479 0.70366 0.0
H3454 H 0.64351 0.63664 0.71709 0.0
H3455 H 0.61159 0.58853 0.70636 0.0
H3456 H 0.56278 0.55052 0.76077 0.0
H3457 H 0.58258 0.56285 0.74368 0.0
H3458 H 0.61631 0.61173 0.75833 0.0
C3459 C 0.64714 0.62927 0.71205 0.0
C3460 C 0.61266 0.59371 0.71766 0.0
C3461 C 0.6602 0.63569 0.70428 0.0
C3462 C 0.56926 0.56281 0.76157 0.0
C3463 C 0.5805 0.56991 0.75154 0.0
C3464 C 0.61492 0.60669 0.74691 0.0
C3465 C 0.63901 0.61354 0.71355 0.0
C3466 C 0.62592 0.60689 0.72295 0.0
C3467 C 0.58917 0.58585 0.75197 0.0
C3468 C 0.60164 0.59339 0.74173 0.0
H3469 H 0.66094 0.60338 0.69444 0.0
H3470 H 0.63795 0.59215 0.70777 0.0
H3471 H 0.63704 0.62345 0.74205 0.0
H3472 H 0.57331 0.59437 0.78109 0.0
H3473 H 0.59235 0.60674 0.76315 0.0
C3474 C 0.70925 0.715 0.67311 0.0
C3475 C 0.7008 0.69907 0.67205 0.0
C3476 C 0.70326 0.72356 0.66756 0.0
C3477 C 0.66771 0.72104 0.65321 0.0
H3478 H 0.69472 0.7567 0.6328 0.0
C3479 C 0.64904 0.7514 0.6109 0.0
C3480 C 0.65673 0.76739 0.61244 0.0
C3481 C 0.65366 0.74321 0.61967 0.0
C3482 C 0.68707 0.74686 0.6386 0.0
H3483 H 0.67932 0.67962 0.66466 0.0
H3484 H 0.66903 0.69449 0.65447 0.0
H3485 H 0.7042 0.74219 0.64532 0.0
H3486 H 0.67489 0.78718 0.62504 0.0
H3487 H 0.68316 0.77287 0.63997 0.0
H3488 H 0.65049 0.72553 0.64582 0.0
C3489 C 0.68016 0.70045 0.65993 0.0
C3490 C 0.69251 0.73855 0.64587 0.0
C3491 C 0.68608 0.69189 0.66571 0.0
C3492 C 0.6689 0.77492 0.62327 0.0
C3493 C 0.67361 0.76674 0.63189 0.0
C3494 C 0.66224 0.72926 0.64573 0.0
C3495 C 0.68875 0.71641 0.66055 0.0
C3496 C 0.68292 0.72551 0.65328 0.0
C3497 C 0.66616 0.75082 0.63005 0.0
C3498 C 0.67188 0.74225 0.63836 0.0
H3499 H 0.72058 0.72086 0.67808 0.0
H3500 H 0.7101 0.73582 0.66862 0.0
H3501 H 0.66001 0.71121 0.65897 0.0
H3502 H 0.63976 0.74521 0.60255 0.0
H3503 H 0.64779 0.73095 0.61793 0.0
C3504 C 0.30488 0.97472 0.6664 0.0
C3505 C 0.30128 0.98618 0.66474 0.0
C3506 C 0.29528 0.95994 0.65998 0.0
C3507 C 0.25619 0.93473 0.64443 0.0
H3508 H 0.272 0.91226 0.62337 0.0
C3509 C 0.21993 0.88462 0.60157 0.0
C3510 C 0.22011 0.87108 0.60335 0.0
C3511 C 0.23048 0.89812 0.60956 0.0
C3512 C 0.26746 0.91836 0.62934 0.0
H3513 H 0.28483 0.99112 0.65501 0.0
H3514 H 0.26842 0.96569 0.64369 0.0
H3515 H 0.28909 0.93677 0.63704 0.0
H3516 H 0.23198 0.86132 0.6145 0.0
H3517 H 0.25069 0.88513 0.62822 0.0
H3518 H 0.23463 0.91661 0.63637 0.0
C3519 C 0.27842 0.9679 0.65019 0.0
C3520 C 0.27722 0.93236 0.63722 0.0
C3521 C 0.28792 0.98256 0.65662 0.0
C3522 C 0.23157 0.87155 0.61278 0.0
C3523 C 0.24225 0.88515 0.62068 0.0
C3524 C 0.2465 0.92088 0.63647 0.0
C3525 C 0.28193 0.95637 0.65179 0.0
C3526 C 0.27169 0.94085 0.64462 0.0
C3527 C 0.24159 0.89848 0.61939 0.0
C3528 C 0.25202 0.91268 0.62862 0.0
H3529 H 0.31511 0.97717 0.67258 0.0
H3530 H 0.29828 0.95131 0.66152 0.0
H3531 H 0.25151 0.94074 0.65033 0.0
H3532 H 0.21151 0.88477 0.59412 0.0
H3533 H 0.2299 0.90831 0.60811 0.0
C3534 C 0.02153 0.31049 0.70494 0.0
C3535 C 0.0122 0.29465 0.70482 0.0
C3536 C 0.03459 0.31673 0.69708 0.0
C3537 C 0.04935 0.30777 0.66394 0.0
H3538 H 0.08841 0.33914 0.68048 0.0
C3539 C 0.10136 0.32346 0.63141 0.0
C3540 C 0.11305 0.33863 0.63222 0.0
C3541 C 0.08943 0.31894 0.64065 0.0
C3542 C 0.07754 0.33055 0.67559 0.0
H3543 H 0.00959 0.27296 0.69687 0.0
H3544 H 0.03217 0.28383 0.68309 0.0
H3545 H 0.06715 0.32986 0.69641 0.0
H3546 H 0.12123 0.36096 0.6435 0.0
H3547 H 0.10007 0.35318 0.65922 0.0
H3548 H 0.0594 0.30856 0.64307 0.0
C3549 C 0.02938 0.29142 0.6892 0.0
C3550 C 0.0654 0.32521 0.68476 0.0
C3551 C 0.01648 0.28521 0.69718 0.0
C3552 C 0.11238 0.34921 0.64245 0.0
C3553 C 0.10032 0.3447 0.65163 0.0
C3554 C 0.06138 0.31322 0.65474 0.0
C3555 C 0.0384 0.30722 0.68881 0.0
C3556 C 0.05124 0.31358 0.67908 0.0
C3557 C 0.08867 0.32948 0.65084 0.0
C3558 C 0.07572 0.32449 0.66049 0.0
H3559 H 0.01855 0.31807 0.71072 0.0
H3560 H 0.04136 0.32895 0.69694 0.0
H3561 H 0.03849 0.299 0.65917 0.0
H3562 H 0.1013 0.31501 0.62351 0.0
H3563 H 0.08085 0.30707 0.63987 0.0
C3564 C 0.30241 0.3251 0.68308 0.0
C3565 C 0.29539 0.30965 0.68597 0.0
C3566 C 0.29494 0.33062 0.67419 0.0
C3567 C 0.264 0.31702 0.64472 0.0
H3568 H 0.26617 0.3556 0.65401 0.0
C3569 C 0.22348 0.33224 0.61571 0.0
C3570 C 0.22904 0.34704 0.61105 0.0
C3571 C 0.23246 0.32857 0.62454 0.0
C3572 C 0.26562 0.34489 0.65117 0.0
H3573 H 0.2748 0.28803 0.68239 0.0
H3574 H 0.26179 0.29766 0.6672 0.0
H3575 H 0.28002 0.34762 0.67056 0.0
H3576 H 0.2485 0.36962 0.61216 0.0
H3577 H 0.26423 0.36317 0.62776 0.0
H3578 H 0.24952 0.31417 0.62548 0.0
C3579 C 0.27316 0.30547 0.67146 0.0
C3580 C 0.27354 0.34031 0.66065 0.0
C3581 C 0.2806 0.29997 0.68027 0.0
C3582 C 0.24384 0.35813 0.6156 0.0
C3583 C 0.25284 0.35445 0.62454 0.0
C3584 C 0.2561 0.32157 0.63531 0.0
C3585 C 0.28032 0.32079 0.66802 0.0
C3586 C 0.27261 0.32619 0.65766 0.0
C3587 C 0.24725 0.33959 0.62906 0.0
C3588 C 0.25662 0.33544 0.63853 0.0
H3589 H 0.31381 0.33285 0.68728 0.0
H3590 H 0.3008 0.34247 0.67173 0.0
H3591 H 0.26334 0.30626 0.64185 0.0
H3592 H 0.21203 0.32351 0.61281 0.0
H3593 H 0.22771 0.3171 0.6281 0.0
C3594 C 0.67722 0.98834 0.64736 0.0
C3595 C 0.6927 0.99717 0.65065 0.0
C3596 C 0.67094 0.9738 0.64 0.0
C3597 C 0.68129 0.9508 0.61526 0.0
H3598 H 0.64384 0.91682 0.62571 0.0
C3599 C 0.65432 0.89356 0.57998 0.0
C3600 C 0.64856 0.88046 0.58816 0.0
C3601 C 0.65828 0.90763 0.58727 0.0
C3602 C 0.65434 0.92619 0.62269 0.0
H3603 H 0.71361 0.99741 0.64939 0.0
H3604 H 0.70267 0.97209 0.63689 0.0
H3605 H 0.65383 0.94149 0.63977 0.0
H3606 H 0.64221 0.87183 0.61036 0.0
H3607 H 0.64924 0.89639 0.62312 0.0
H3608 H 0.6821 0.93551 0.59854 0.0
C3609 C 0.6954 0.97647 0.63963 0.0
C3610 C 0.65999 0.94036 0.63066 0.0
C3611 C 0.70166 0.99097 0.64691 0.0
C3612 C 0.64644 0.88168 0.6037 0.0
C3613 C 0.65047 0.89577 0.61101 0.0
C3614 C 0.67567 0.93667 0.60733 0.0
C3615 C 0.68 0.96781 0.63582 0.0
C3616 C 0.67362 0.9528 0.62713 0.0
C3617 C 0.65666 0.90897 0.60295 0.0
C3618 C 0.66217 0.92415 0.61099 0.0
H3619 H 0.67002 0.99281 0.65007 0.0
H3620 H 0.65905 0.96746 0.63717 0.0
H3621 H 0.69169 0.96018 0.61206 0.0
H3622 H 0.65587 0.89294 0.56795 0.0
H3623 H 0.66273 0.9175 0.58064 0.0
C3624 C 0.00948 0.69676 0.69288 0.0
C3625 C 0.00344 0.70607 0.69637 0.0
C3626 C 0.02286 0.70253 0.68567 0.0
C3627 C 0.05619 0.73818 0.67616 0.0
H3628 H 0.05551 0.71375 0.64088 0.0
C3629 C 0.08752 0.74756 0.61713 0.0
C3630 C 0.10251 0.75664 0.62249 0.0
C3631 C 0.07641 0.74044 0.62727 0.0
C3632 C 0.05588 0.7207 0.65071 0.0
H3633 H 0.00706 0.7289 0.69568 0.0
H3634 H 0.03035 0.73893 0.68316 0.0
H3635 H 0.03462 0.7035 0.65717 0.0
H3636 H 0.11762 0.7652 0.64268 0.0
H3637 H 0.09815 0.7527 0.66045 0.0
H3638 H 0.07725 0.75557 0.6694 0.0
C3639 C 0.0248 0.7272 0.68602 0.0
C3640 C 0.04398 0.71476 0.66014 0.0
C3641 C 0.0114 0.72142 0.69313 0.0
C3642 C 0.10618 0.75819 0.63821 0.0
C3643 C 0.09503 0.75115 0.64839 0.0
C3644 C 0.06814 0.74408 0.66678 0.0
C3645 C 0.03053 0.71775 0.68191 0.0
C3646 C 0.04387 0.72353 0.67283 0.0
C3647 C 0.08 0.7423 0.64303 0.0
C3648 C 0.06799 0.73551 0.65378 0.0
H3649 H 0.00364 0.68489 0.69524 0.0
H3650 H 0.02708 0.69501 0.68282 0.0
H3651 H 0.0565 0.74516 0.68593 0.0
H3652 H 0.08437 0.74604 0.60507 0.0
H3653 H 0.06493 0.73383 0.62278 0.0
C3654 C 0.95189 0.6167 0.72589 0.0
C3655 C 0.96221 0.63193 0.7237 0.0
C3656 C 0.95651 0.60743 0.7325 0.0
C3657 C 0.96717 0.59489 0.75715 0.0
H3658 H 0.00434 0.59614 0.75005 0.0
C3659 C 0.99126 0.56884 0.7976 0.0
C3660 C 0.99721 0.56038 0.79111 0.0
C3661 C 0.98753 0.57756 0.78865 0.0
C3662 C 0.99387 0.59558 0.75207 0.0
H3663 H 0.9856 0.6492 0.72607 0.0
H3664 H 0.99367 0.63304 0.73784 0.0
H3665 H 0.99661 0.61076 0.73476 0.0
H3666 H 0.0041 0.5546 0.77016 0.0
H3667 H 0.99752 0.56983 0.75447 0.0
H3668 H 0.9643 0.57964 0.7743 0.0
C3669 C 0.98201 0.62822 0.7343 0.0
C3670 C 0.98951 0.60406 0.74341 0.0
C3671 C 0.97738 0.6375 0.7276 0.0
C3672 C 0.99964 0.56109 0.77551 0.0
C3673 C 0.99589 0.56982 0.76653 0.0
C3674 C 0.97152 0.58646 0.76578 0.0
C3675 C 0.97156 0.61318 0.73717 0.0
C3676 C 0.97612 0.60384 0.74588 0.0
C3677 C 0.98963 0.57802 0.77298 0.0
C3678 C 0.98497 0.58678 0.76344 0.0
H3679 H 0.94014 0.61201 0.72286 0.0
H3680 H 0.94823 0.5958 0.73423 0.0
H3681 H 0.9569 0.59462 0.75953 0.0
H3682 H 0.98955 0.56879 0.80964 0.0
H3683 H 0.98304 0.58401 0.79405 0.0
C3684 C 0.38201 0.35223 0.74209 0.0
C3685 C 0.37045 0.34959 0.73147 0.0
C3686 C 0.39098 0.36655 0.74951 0.0
C3687 C 0.39324 0.40377 0.75827 0.0
H3688 H 0.43428 0.41603 0.7698 0.0
C3689 C 0.44121 0.46411 0.78232 0.0
C3690 C 0.4479 0.46393 0.79644 0.0
C3691 C 0.43071 0.45054 0.77428 0.0
C3692 C 0.42282 0.41271 0.76666 0.0
H3693 H 0.35927 0.35992 0.72018 0.0
H3694 H 0.37543 0.38526 0.73264 0.0
H3695 H 0.41862 0.39207 0.75502 0.0
H3696 H 0.44797 0.44919 0.81348 0.0
H3697 H 0.43023 0.42558 0.79903 0.0
H3698 H 0.39792 0.42496 0.76956 0.0
C3699 C 0.37731 0.37613 0.73558 0.0
C3700 C 0.41378 0.39892 0.75829 0.0
C3701 C 0.3681 0.36164 0.72833 0.0
C3702 C 0.4434 0.44983 0.80249 0.0
C3703 C 0.43315 0.43629 0.79431 0.0
C3704 C 0.40244 0.41777 0.7664 0.0
C3705 C 0.38889 0.37877 0.74629 0.0
C3706 C 0.39875 0.39408 0.75423 0.0
C3707 C 0.42689 0.43655 0.78006 0.0
C3708 C 0.41721 0.42218 0.77087 0.0
H3709 H 0.38396 0.34312 0.74495 0.0
H3710 H 0.39943 0.36792 0.75798 0.0
H3711 H 0.38172 0.40042 0.75553 0.0
H3712 H 0.4445 0.47468 0.77714 0.0
H3713 H 0.42605 0.45095 0.76324 0.0
C3714 C 0.65486 0.05059 0.69145 0.0
C3715 C 0.65963 0.04034 0.68725 0.0
C3716 C 0.64215 0.0459 0.69955 0.0
C3717 C 0.60824 0.01228 0.71166 0.0
H3718 H 0.61285 0.04033 0.74534 0.0
C3719 C 0.56706 0.99608 0.75973 0.0
C3720 C 0.56379 0.00718 0.7652 0.0
C3721 C 0.57797 0.99958 0.74928 0.0
C3722 C 0.61128 0.03243 0.73587 0.0
H3723 H 0.65436 0.01693 0.68766 0.0
H3724 H 0.63219 0.00876 0.70197 0.0
H3725 H 0.63292 0.04729 0.72846 0.0
H3726 H 0.56896 0.03043 0.76341 0.0
H3727 H 0.58793 0.03652 0.74524 0.0
H3728 H 0.58658 0.99736 0.71929 0.0
C3729 C 0.63824 0.02041 0.69888 0.0
C3730 C 0.62279 0.03644 0.72616 0.0
C3731 C 0.65097 0.0251 0.6907 0.0
C3732 C 0.57143 0.02172 0.75969 0.0
C3733 C 0.5823 0.0252 0.74926 0.0
C3734 C 0.59668 0.00826 0.72142 0.0
C3735 C 0.63391 0.03087 0.70374 0.0
C3736 C 0.62142 0.02646 0.71389 0.0
C3737 C 0.58585 0.01425 0.74406 0.0
C3738 C 0.59805 0.01833 0.73361 0.0
H3739 H 0.66119 0.06238 0.68885 0.0
H3740 H 0.63894 0.05417 0.70279 0.0
H3741 H 0.60678 0.00437 0.70226 0.0
H3742 H 0.56146 0.9848 0.76384 0.0
H3743 H 0.58053 0.99091 0.74562 0.0
loop_
_geom_bond_atom_site_label_1
_geom_bond_atom_site_label_2
_geom_bond_distance
_geom_bond_site_symmetry_2
_ccdc_geom_bond_type
O0 Cd1 2.223 . S
O0 C8 1.315 . S
Cd1 O0 2.223 . S
Cd1 O4 2.297 . S
Cd1 O5 2.439 . S
Cd1 O11 2.240 . S
Cd2 O3 2.240 . S
Cd2 O10 2.223 . S
Cd2 O12 2.297 1_554 S
Cd2 O13 2.439 . S
O3 Cd2 2.240 . S
O3 C8 1.279 1_655 S
O4 Cd1 2.297 . S
O4 C6 1.247 . S
O5 Cd1 2.439 . S
O5 C6 1.208 . S
C6 O4 1.247 . S
C6 O5 1.208 . S
C7 O12 1.247 . S
C7 O13 1.208 1_556 S
C8 O0 1.315 . S
C8 O3 1.279 1_455 S
C9 O10 1.270 1_455 S
C9 O11 1.321 . S
O10 Cd2 2.223 . S
O10 C9 1.270 1_655 S
O11 Cd1 2.240 . S
O11 C9 1.321 . S
O12 Cd2 2.297 1_556 S
O12 C7 1.247 . S
O13 Cd2 2.439 . S
O13 C7 1.208 1_554 S
O14 Cd15 2.223 . S
O14 C22 1.315 . S
Cd15 O14 2.223 . S
Cd15 O18 2.297 . S
Cd15 O19 2.439 . S
Cd15 O25 2.240 . S
Cd16 O17 2.240 . S
Cd16 O24 2.223 . S
Cd16 O26 2.297 . S
Cd16 O27 2.439 . S
O17 Cd16 2.240 . S
O17 C22 1.279 . S
O18 Cd15 2.297 . S
O18 C20 1.247 . S
O19 Cd15 2.439 . S
O19 C20 1.208 . S
C20 O18 1.247 . S
C20 O19 1.208 . S
C21 O26 1.247 . S
C21 O27 1.208 . S
C22 O14 1.315 . S
C22 O17 1.279 . S
C23 O24 1.315 . S
C23 O25 1.279 . S
O24 Cd16 2.223 . S
O24 C23 1.315 . S
O25 Cd15 2.240 . S
O25 C23 1.279 . S
O26 Cd16 2.297 . S
O26 C21 1.247 . S
O27 Cd16 2.439 . S
O27 C21 1.208 . S
O28 Cd29 2.223 . S
O28 C36 1.317 . S
Cd29 O28 2.223 . S
Cd29 O32 2.301 1_554 S
Cd29 O33 2.439 . S
Cd29 O39 2.240 . S
Cd30 O31 2.240 . S
Cd30 O38 2.223 . S
Cd30 O40 2.297 . S
Cd30 O41 2.439 . S
O31 Cd30 2.240 . S
O31 C36 1.279 1_565 S
O32 Cd29 2.301 1_556 S
O32 C34 1.246 1_556 S
O33 Cd29 2.439 . S
O33 C34 1.219 . S
C34 O32 1.246 1_554 S
C34 O33 1.219 . S
C35 O40 1.247 . S
C35 O41 1.208 . S
C36 O28 1.317 . S
C36 O31 1.279 1_545 S
C37 O38 1.346 . S
C37 O39 1.249 1_565 S
O38 Cd30 2.223 . S
O38 C37 1.346 . S
O39 Cd29 2.240 . S
O39 C37 1.249 1_545 S
O40 Cd30 2.297 . S
O40 C35 1.247 . S
O41 Cd30 2.439 . S
O41 C35 1.208 . S
O42 Cd43 2.223 . S
O42 C50 1.315 . S
Cd43 O42 2.223 . S
Cd43 O46 2.297 . S
Cd43 O47 2.439 . S
Cd43 O53 2.240 . S
Cd44 O45 2.240 . S
Cd44 O52 2.223 . S
Cd44 O54 2.297 . S
Cd44 O55 2.439 . S
O45 Cd44 2.240 . S
O45 C50 1.279 1_455 S
O46 Cd43 2.297 . S
O46 C48 1.247 . S
O47 Cd43 2.439 . S
O47 C48 1.208 . S
C48 O46 1.247 . S
C48 O47 1.208 . S
C49 O54 1.247 . S
C49 O55 1.208 . S
C50 O42 1.315 . S
C50 O45 1.279 1_655 S
C51 O52 1.315 . S
C51 O53 1.279 1_455 S
O52 Cd44 2.223 . S
O52 C51 1.315 . S
O53 Cd43 2.240 . S
O53 C51 1.279 1_655 S
O54 Cd44 2.297 . S
O54 C49 1.247 . S
O55 Cd44 2.439 . S
O55 C49 1.208 . S
O56 Cd57 2.210 1_556 S
O56 C64 1.315 . S
Cd57 O56 2.210 1_554 S
Cd57 O60 2.277 1_554 S
Cd57 O61 2.429 1_554 S
Cd57 O67 2.259 . S
Cd58 O59 2.240 1_554 S
Cd58 O66 2.223 . S
Cd58 O68 2.297 . S
Cd58 O69 2.439 . S
O59 Cd58 2.240 1_556 S
O59 C64 1.279 . S
O60 Cd57 2.277 1_556 S
O60 C62 1.247 . S
O61 Cd57 2.429 1_556 S
O61 C62 1.208 . S
C62 O60 1.247 . S
C62 O61 1.208 . S
C63 O68 1.247 . S
C63 O69 1.208 . S
C64 O56 1.315 . S
C64 O59 1.279 . S
C65 O66 1.315 . S
C65 O67 1.279 . S
O66 Cd58 2.223 . S
O66 C65 1.315 . S
O67 Cd57 2.259 . S
O67 C65 1.279 . S
O68 Cd58 2.297 . S
O68 C63 1.247 . S
O69 Cd58 2.439 . S
O69 C63 1.208 . S
O70 Cd71 2.223 . S
O70 C78 1.303 1_565 S
Cd71 O70 2.223 . S
Cd71 O74 2.297 . S
Cd71 O75 2.439 . S
Cd71 O81 2.240 . S
Cd72 O73 2.240 . S
Cd72 O80 2.223 . S
Cd72 O82 2.297 . S
Cd72 O83 2.439 . S
O73 Cd72 2.240 . S
O73 C78 1.279 . S
O74 Cd71 2.297 . S
O74 C76 1.247 . S
O75 Cd71 2.439 . S
O75 C76 1.208 . S
C76 O74 1.247 . S
C76 O75 1.208 . S
C77 O82 1.247 . S
C77 O83 1.208 . S
C78 O70 1.303 1_545 S
C78 O73 1.279 . S
C79 O80 1.383 . S
C79 O81 1.215 1_545 S
O80 Cd72 2.223 . S
O80 C79 1.383 . S
O81 Cd71 2.240 . S
O81 C79 1.215 1_565 S
O82 Cd72 2.297 . S
O82 C77 1.247 . S
O83 Cd72 2.439 . S
O83 C77 1.208 . S
O84 Cd85 2.223 . S
O84 C92 1.315 . S
Cd85 O84 2.223 . S
Cd85 O88 2.297 . S
Cd85 O89 2.439 . S
Cd85 O95 2.240 . S
Cd86 O87 2.240 . S
Cd86 O94 2.223 . S
Cd86 O96 2.297 . S
Cd86 O97 2.439 . S
O87 Cd86 2.240 . S
O87 C92 1.279 . S
O88 Cd85 2.297 . S
O88 C90 1.247 . S
O89 Cd85 2.439 . S
O89 C90 1.208 . S
C90 O88 1.247 . S
C90 O89 1.208 . S
C91 O96 1.247 . S
C91 O97 1.208 . S
C92 O84 1.315 . S
C92 O87 1.279 . S
C93 O94 1.315 . S
C93 O95 1.279 . S
O94 Cd86 2.223 . S
O94 C93 1.315 . S
O95 Cd85 2.240 . S
O95 C93 1.279 . S
O96 Cd86 2.297 . S
O96 C91 1.247 . S
O97 Cd86 2.439 . S
O97 C91 1.208 . S
O98 Cd99 2.223 . S
O98 C106 1.315 . S
Cd99 O98 2.223 . S
Cd99 O102 2.297 . S
Cd99 O103 2.439 . S
Cd99 O109 2.240 . S
Cd100 O101 2.240 . S
Cd100 O108 2.223 . S
Cd100 O110 2.297 . S
Cd100 O111 2.439 . S
O101 Cd100 2.240 . S
O101 C106 1.279 . S
O102 Cd99 2.297 . S
O102 C104 1.247 . S
O103 Cd99 2.439 . S
O103 C104 1.208 . S
C104 O102 1.247 . S
C104 O103 1.208 . S
C105 O110 1.247 . S
C105 O111 1.208 . S
C106 O98 1.315 . S
C106 O101 1.279 . S
C107 O108 1.315 . S
C107 O109 1.279 . S
O108 Cd100 2.223 . S
O108 C107 1.315 . S
O109 Cd99 2.240 . S
O109 C107 1.279 . S
O110 Cd100 2.297 . S
O110 C105 1.247 . S
O111 Cd100 2.439 . S
O111 C105 1.208 . S
O112 Cd113 2.223 . S
O112 C120 1.315 . S
Cd113 O112 2.223 . S
Cd113 O116 2.297 . S
Cd113 O117 2.439 . S
Cd113 O123 2.240 . S
Cd114 O115 2.240 . S
Cd114 O122 2.223 . S
Cd114 O124 2.297 . S
Cd114 O125 2.439 . S
O115 Cd114 2.240 . S
O115 C120 1.279 . S
O116 Cd113 2.297 . S
O116 C118 1.247 . S
O117 Cd113 2.439 . S
O117 C118 1.208 . S
C118 O116 1.247 . S
C118 O117 1.208 . S
C119 O124 1.247 . S
C119 O125 1.208 . S
C120 O112 1.315 . S
C120 O115 1.279 . S
C121 O122 1.315 . S
C121 O123 1.279 . S
O122 Cd114 2.223 . S
O122 C121 1.315 . S
O123 Cd113 2.240 . S
O123 C121 1.279 . S
O124 Cd114 2.297 . S
O124 C119 1.247 . S
O125 Cd114 2.439 . S
O125 C119 1.208 . S
O126 Cd127 2.223 . S
O126 C134 1.315 . S
Cd127 O126 2.223 . S
Cd127 O130 2.297 . S
Cd127 O131 2.439 . S
Cd127 O137 2.240 . S
Cd128 O129 2.240 . S
Cd128 O136 2.223 . S
Cd128 O138 2.297 . S
Cd128 O139 2.439 . S
O129 Cd128 2.240 . S
O129 C134 1.279 . S
O130 Cd127 2.297 . S
O130 C132 1.247 . S
O131 Cd127 2.439 . S
O131 C132 1.208 . S
C132 O130 1.247 . S
C132 O131 1.208 . S
C133 O138 1.247 1_545 S
C133 O139 1.208 1_545 S
C134 O126 1.315 . S
C134 O129 1.279 . S
C135 O136 1.315 . S
C135 O137 1.279 . S
O136 Cd128 2.223 . S
O136 C135 1.315 . S
O137 Cd127 2.240 . S
O137 C135 1.279 . S
O138 Cd128 2.297 . S
O138 C133 1.247 1_565 S
O139 Cd128 2.439 . S
O139 C133 1.208 1_565 S
O140 Cd141 2.223 . S
O140 C148 1.315 . S
Cd141 O140 2.223 . S
Cd141 O144 2.297 . S
Cd141 O145 2.439 . S
Cd141 O151 2.240 . S
Cd142 O143 2.240 . S
Cd142 O150 2.223 . S
Cd142 O152 2.297 . S
Cd142 O153 2.439 . S
O143 Cd142 2.240 . S
O143 C148 1.279 . S
O144 Cd141 2.297 . S
O144 C146 1.247 . S
O145 Cd141 2.439 . S
O145 C146 1.208 . S
C146 O144 1.247 . S
C146 O145 1.208 . S
C147 O152 1.245 . S
C147 O153 1.270 . S
C148 O140 1.315 . S
C148 O143 1.279 . S
C149 O150 1.315 . S
C149 O151 1.279 . S
O150 Cd142 2.223 . S
O150 C149 1.315 . S
O151 Cd141 2.240 . S
O151 C149 1.279 . S
O152 Cd142 2.297 . S
O152 C147 1.245 . S
O153 Cd142 2.439 . S
O153 C147 1.270 . S
O154 Cd155 2.223 . S
O154 C162 1.315 . S
Cd155 O154 2.223 . S
Cd155 O158 2.297 . S
Cd155 O159 2.439 . S
Cd155 O165 2.240 . S
Cd156 O157 2.240 . S
Cd156 O164 2.223 . S
Cd156 O166 2.297 . S
Cd156 O167 2.439 . S
O157 Cd156 2.240 . S
O157 C162 1.279 . S
O158 Cd155 2.297 . S
O158 C160 1.247 . S
O159 Cd155 2.439 . S
O159 C160 1.208 . S
C160 O158 1.247 . S
C160 O159 1.208 . S
C161 O166 1.247 . S
C161 O167 1.208 . S
C162 O154 1.315 . S
C162 O157 1.279 . S
C163 O164 1.315 . S
C163 O165 1.279 . S
O164 Cd156 2.223 . S
O164 C163 1.315 . S
O165 Cd155 2.240 . S
O165 C163 1.279 . S
O166 Cd156 2.297 . S
O166 C161 1.247 . S
O167 Cd156 2.439 . S
O167 C161 1.208 . S
O168 Cd169 2.223 . S
O168 C176 1.315 . S
Cd169 O168 2.223 . S
Cd169 O172 2.297 . S
Cd169 O173 2.439 . S
Cd169 O179 2.240 . S
Cd170 O171 2.240 . S
Cd170 O178 2.223 . S
Cd170 O180 2.297 . S
Cd170 O181 2.439 . S
O171 Cd170 2.240 . S
O171 C176 1.279 . S
O172 Cd169 2.297 . S
O172 C174 1.247 . S
O173 Cd169 2.439 . S
O173 C174 1.208 . S
C174 O172 1.247 . S
C174 O173 1.208 . S
C175 O180 1.247 1_565 S
C175 O181 1.208 1_565 S
C176 O168 1.315 . S
C176 O171 1.279 . S
C177 O178 1.315 . S
C177 O179 1.279 . S
O178 Cd170 2.223 . S
O178 C177 1.315 . S
O179 Cd169 2.240 . S
O179 C177 1.279 . S
O180 Cd170 2.297 . S
O180 C175 1.247 1_545 S
O181 Cd170 2.439 . S
O181 C175 1.208 1_545 S
O182 Cd183 2.223 . S
O182 C190 1.315 . S
Cd183 O182 2.223 . S
Cd183 O186 2.297 . S
Cd183 O187 2.439 . S
Cd183 O193 2.240 . S
Cd184 O185 2.240 . S
Cd184 O192 2.223 . S
Cd184 O194 2.297 . S
Cd184 O195 2.439 . S
O185 Cd184 2.240 . S
O185 C190 1.279 . S
O186 Cd183 2.297 . S
O186 C188 1.247 . S
O187 Cd183 2.439 . S
O187 C188 1.208 . S
C188 O186 1.247 . S
C188 O187 1.208 . S
C189 O194 1.256 1_455 S
C189 O195 1.158 1_455 S
C190 O182 1.315 . S
C190 O185 1.279 . S
C191 O192 1.315 . S
C191 O193 1.279 . S
O192 Cd184 2.223 . S
O192 C191 1.315 . S
O193 Cd183 2.240 . S
O193 C191 1.279 . S
O194 Cd184 2.297 . S
O194 C189 1.256 1_655 S
O195 Cd184 2.439 . S
O195 C189 1.158 1_655 S
O196 Cd197 2.223 . S
O196 C204 1.315 . S
Cd197 O196 2.223 . S
Cd197 O200 2.297 . S
Cd197 O201 2.439 . S
Cd197 O207 2.240 . S
Cd198 O199 2.240 . S
Cd198 O206 2.223 . S
Cd198 O208 2.297 . S
Cd198 O209 2.439 . S
O199 Cd198 2.240 . S
O199 C204 1.279 . S
O200 Cd197 2.297 . S
O200 C202 1.247 . S
O201 Cd197 2.439 . S
O201 C202 1.208 . S
C202 O200 1.247 . S
C202 O201 1.208 . S
C203 O208 1.247 . S
C203 O209 1.208 . S
C204 O196 1.315 . S
C204 O199 1.279 . S
C205 O206 1.315 . S
C205 O207 1.279 . S
O206 Cd198 2.223 . S
O206 C205 1.315 . S
O207 Cd197 2.240 . S
O207 C205 1.279 . S
O208 Cd198 2.297 . S
O208 C203 1.247 . S
O209 Cd198 2.439 . S
O209 C203 1.208 . S
O210 Cd211 2.223 . S
O210 C218 1.315 . S
Cd211 O210 2.223 . S
Cd211 O214 2.297 . S
Cd211 O215 2.439 . S
Cd211 O221 2.240 . S
Cd212 O213 2.240 . S
Cd212 O220 2.223 . S
Cd212 O222 2.297 . S
Cd212 O223 2.439 . S
O213 Cd212 2.240 . S
O213 C218 1.279 . S
O214 Cd211 2.297 . S
O214 C216 1.247 . S
O215 Cd211 2.439 . S
O215 C216 1.208 . S
C216 O214 1.247 . S
C216 O215 1.208 . S
C217 O222 1.247 . S
C217 O223 1.208 . S
C218 O210 1.315 . S
C218 O213 1.279 . S
C219 O220 1.315 . S
C219 O221 1.279 . S
O220 Cd212 2.223 . S
O220 C219 1.315 . S
O221 Cd211 2.240 . S
O221 C219 1.279 . S
O222 Cd212 2.297 . S
O222 C217 1.247 . S
O223 Cd212 2.439 . S
O223 C217 1.208 . S
O224 Cd225 2.223 . S
O224 C232 1.315 . S
Cd225 O224 2.223 . S
Cd225 O228 2.297 . S
Cd225 O229 2.439 . S
Cd225 O235 2.240 . S
Cd226 O227 2.240 . S
Cd226 O234 2.223 . S
Cd226 O236 2.297 . S
Cd226 O237 2.439 . S
O227 Cd226 2.240 . S
O227 C232 1.279 . S
O228 Cd225 2.297 . S
O228 C230 1.247 . S
O229 Cd225 2.439 . S
O229 C230 1.208 . S
C230 O228 1.247 . S
C230 O229 1.208 . S
C231 O236 1.247 . S
C231 O237 1.208 . S
C232 O224 1.315 . S
C232 O227 1.279 . S
C233 O234 1.315 . S
C233 O235 1.279 . S
O234 Cd226 2.223 . S
O234 C233 1.315 . S
O235 Cd225 2.240 . S
O235 C233 1.279 . S
O236 Cd226 2.297 . S
O236 C231 1.247 . S
O237 Cd226 2.439 . S
O237 C231 1.208 . S
O238 Cd239 2.223 . S
O238 C246 1.315 . S
Cd239 O238 2.223 . S
Cd239 O242 2.297 . S
Cd239 O243 2.439 . S
Cd239 O249 2.240 . S
Cd240 O241 2.240 . S
Cd240 O248 2.223 . S
Cd240 O250 2.297 . S
Cd240 O251 2.439 . S
O241 Cd240 2.240 . S
O241 C246 1.279 . S
O242 Cd239 2.297 . S
O242 C244 1.247 . S
O243 Cd239 2.439 . S
O243 C244 1.208 . S
C244 O242 1.247 . S
C244 O243 1.208 . S
C245 O250 1.247 . S
C245 O251 1.208 . S
C246 O238 1.315 . S
C246 O241 1.279 . S
C247 O248 1.315 . S
C247 O249 1.279 . S
O248 Cd240 2.223 . S
O248 C247 1.315 . S
O249 Cd239 2.240 . S
O249 C247 1.279 . S
O250 Cd240 2.297 . S
O250 C245 1.247 . S
O251 Cd240 2.439 . S
O251 C245 1.208 . S
H252 O278 0.856 . S
H253 O281 0.854 . S
H254 C289 0.930 . S
H255 C290 0.930 . S
H256 C292 0.930 . S
H257 C293 0.930 . S
H258 C295 0.931 . S
H259 C296 0.930 . S
H260 C298 0.930 . S
H261 C299 0.929 . S
H262 C301 0.930 . S
H263 C302 0.931 . S
H264 C304 0.930 . S
H265 C305 0.929 . S
H266 C307 0.931 . S
H267 C308 0.930 . S
H268 C310 0.930 . S
H269 C311 0.932 . S
H270 C313 0.930 . S
H271 C314 0.929 . S
H272 C316 0.931 . S
H273 C317 0.930 . S
H274 C319 0.929 . S
H275 C320 0.931 . S
H276 C322 0.930 . S
H277 C323 0.929 . S
O278 H252 0.856 . S
O278 C324 1.300 . S
O279 C324 1.209 . S
O280 C325 1.199 . S
O281 H253 0.854 . S
O281 C325 1.297 . S
C282 C283 1.404 . S
C282 C287 1.397 . S
C282 C288 1.492 . S
C283 C282 1.404 . S
C283 C284 1.396 . S
C283 C294 1.492 . S
C284 C283 1.396 . S
C284 C285 1.397 . S
C284 C300 1.509 . S
C285 C284 1.397 . S
C285 C286 1.412 . S
C285 C306 1.485 . S
C286 C285 1.412 . S
C286 C287 1.388 . S
C286 C312 1.490 . S
C287 C282 1.397 . S
C287 C286 1.388 . S
C287 C318 1.519 . S
C288 C282 1.492 . S
C288 C289 1.363 . S
C288 C293 1.390 . S
C289 H254 0.930 . S
C289 C288 1.363 . S
C289 C290 1.372 . S
C290 H255 0.930 . S
C290 C289 1.372 . S
C290 C291 1.383 . S
C291 C290 1.383 . S
C291 C292 1.395 . S
C292 H256 0.930 . S
C292 C291 1.395 . S
C292 C293 1.362 . S
C293 H257 0.930 . S
C293 C288 1.390 . S
C293 C292 1.362 . S
C294 C283 1.492 . S
C294 C295 1.377 . S
C294 C299 1.397 . S
C295 H258 0.931 . S
C295 C294 1.377 . S
C295 C296 1.376 . S
C296 H259 0.930 . S
C296 C295 1.376 . S
C296 C297 1.376 . S
C297 C296 1.376 . S
C297 C298 1.378 . S
C297 C324 1.486 . S
C298 H260 0.930 . S
C298 C297 1.378 . S
C298 C299 1.376 . S
C299 H261 0.929 . S
C299 C294 1.397 . S
C299 C298 1.376 . S
C300 C284 1.509 . S
C300 C301 1.391 . S
C300 C305 1.386 . S
C301 H262 0.930 . S
C301 C300 1.391 . S
C301 C302 1.375 . S
C302 H263 0.931 . S
C302 C301 1.375 . S
C302 C303 1.375 . S
C303 C302 1.375 . S
C303 C304 1.361 . S
C304 H264 0.930 . S
C304 C303 1.361 . S
C304 C305 1.399 . S
C305 H265 0.929 . S
C305 C300 1.386 . S
C305 C304 1.399 . S
C306 C285 1.485 . S
C306 C307 1.394 . S
C306 C311 1.360 . S
C307 H266 0.931 . S
C307 C306 1.394 . S
C307 C308 1.372 . S
C308 H267 0.930 . S
C308 C307 1.372 . S
C308 C309 1.397 . S
C309 C308 1.397 . S
C309 C310 1.390 . S
C309 C325 1.476 . S
C310 H268 0.930 . S
C310 C309 1.390 . S
C310 C311 1.366 . S
C311 H269 0.932 . S
C311 C306 1.360 . S
C311 C310 1.366 . S
C312 C286 1.490 . S
C312 C313 1.380 . S
C312 C317 1.386 . S
C313 H270 0.930 . S
C313 C312 1.380 . S
C313 C314 1.381 . S
C314 H271 0.929 . S
C314 C313 1.381 . S
C314 C315 1.371 . S
C315 C314 1.371 . S
C315 C316 1.380 . S
C316 H272 0.931 . S
C316 C315 1.380 . S
C316 C317 1.387 . S
C317 H273 0.930 . S
C317 C312 1.386 . S
C317 C316 1.387 . S
C318 C287 1.519 . S
C318 C319 1.377 . S
C318 C323 1.361 . S
C319 H274 0.929 . S
C319 C318 1.377 . S
C319 C320 1.386 . S
C320 H275 0.931 . S
C320 C319 1.386 . S
C320 C321 1.363 . S
C321 C320 1.363 . S
C321 C322 1.385 . S
C322 H276 0.930 . S
C322 C321 1.385 . S
C322 C323 1.396 . S
C323 H277 0.929 . S
C323 C318 1.361 . S
C323 C322 1.396 . S
C324 O278 1.300 . S
C324 O279 1.209 . S
C324 C297 1.486 . S
C325 O280 1.199 . S
C325 O281 1.297 . S
C325 C309 1.476 . S
H326 O352 0.856 . S
H327 O355 0.854 . S
H328 C363 0.930 . S
H329 C364 0.930 . S
H330 C366 0.930 . S
H331 C367 0.930 . S
H332 C369 0.931 . S
H333 C370 0.930 . S
H334 C372 0.930 . S
H335 C373 0.929 . S
H336 C375 0.930 . S
H337 C376 0.931 . S
H338 C378 0.930 . S
H339 C379 0.929 . S
H340 C381 0.931 . S
H341 C382 0.930 . S
H342 C384 0.930 . S
H343 C385 0.932 . S
H344 C387 0.930 . S
H345 C388 0.929 . S
H346 C390 0.931 . S
H347 C391 0.930 . S
H348 C393 0.929 . S
H349 C394 0.931 . S
H350 C396 0.930 . S
H351 C397 0.929 . S
O352 H326 0.856 . S
O352 C398 1.300 . S
O353 C398 1.209 . S
O354 C399 1.199 . S
O355 H327 0.854 . S
O355 C399 1.297 . S
C356 C357 1.404 . S
C356 C361 1.397 . S
C356 C362 1.492 . S
C357 C356 1.404 . S
C357 C358 1.396 . S
C357 C368 1.492 . S
C358 C357 1.396 . S
C358 C359 1.397 . S
C358 C374 1.509 . S
C359 C358 1.397 . S
C359 C360 1.412 . S
C359 C380 1.485 . S
C360 C359 1.412 . S
C360 C361 1.388 . S
C360 C386 1.490 . S
C361 C356 1.397 . S
C361 C360 1.388 . S
C361 C392 1.519 . S
C362 C356 1.492 . S
C362 C363 1.363 . S
C362 C367 1.390 . S
C363 H328 0.930 . S
C363 C362 1.363 . S
C363 C364 1.372 . S
C364 H329 0.930 . S
C364 C363 1.372 . S
C364 C365 1.383 . S
C365 C364 1.383 . S
C365 C366 1.395 . S
C366 H330 0.930 . S
C366 C365 1.395 . S
C366 C367 1.362 . S
C367 H331 0.930 . S
C367 C362 1.390 . S
C367 C366 1.362 . S
C368 C357 1.492 . S
C368 C369 1.377 . S
C368 C373 1.397 . S
C369 H332 0.931 . S
C369 C368 1.377 . S
C369 C370 1.376 . S
C370 H333 0.930 . S
C370 C369 1.376 . S
C370 C371 1.376 . S
C371 C370 1.376 . S
C371 C372 1.378 . S
C371 C398 1.486 . S
C372 H334 0.930 . S
C372 C371 1.378 . S
C372 C373 1.376 . S
C373 H335 0.929 . S
C373 C368 1.397 . S
C373 C372 1.376 . S
C374 C358 1.509 . S
C374 C375 1.391 . S
C374 C379 1.386 . S
C375 H336 0.930 . S
C375 C374 1.391 . S
C375 C376 1.375 . S
C376 H337 0.931 . S
C376 C375 1.375 . S
C376 C377 1.375 . S
C377 C376 1.375 . S
C377 C378 1.361 . S
C378 H338 0.930 . S
C378 C377 1.361 . S
C378 C379 1.399 . S
C379 H339 0.929 . S
C379 C374 1.386 . S
C379 C378 1.399 . S
C380 C359 1.485 . S
C380 C381 1.394 . S
C380 C385 1.360 . S
C381 H340 0.931 . S
C381 C380 1.394 . S
C381 C382 1.372 . S
C382 H341 0.930 . S
C382 C381 1.372 . S
C382 C383 1.397 . S
C383 C382 1.397 . S
C383 C384 1.390 . S
C383 C399 1.476 . S
C384 H342 0.930 . S
C384 C383 1.390 . S
C384 C385 1.366 . S
C385 H343 0.932 . S
C385 C380 1.360 . S
C385 C384 1.366 . S
C386 C360 1.490 . S
C386 C387 1.380 . S
C386 C391 1.386 . S
C387 H344 0.930 . S
C387 C386 1.380 . S
C387 C388 1.381 . S
C388 H345 0.929 . S
C388 C387 1.381 . S
C388 C389 1.371 . S
C389 C388 1.371 . S
C389 C390 1.380 . S
C390 H346 0.931 . S
C390 C389 1.380 . S
C390 C391 1.387 . S
C391 H347 0.930 . S
C391 C386 1.386 . S
C391 C390 1.387 . S
C392 C361 1.519 . S
C392 C393 1.377 . S
C392 C397 1.361 . S
C393 H348 0.929 . S
C393 C392 1.377 . S
C393 C394 1.386 . S
C394 H349 0.931 . S
C394 C393 1.386 . S
C394 C395 1.363 . S
C395 C394 1.363 . S
C395 C396 1.385 . S
C396 H350 0.930 . S
C396 C395 1.385 . S
C396 C397 1.396 . S
C397 H351 0.929 . S
C397 C392 1.361 . S
C397 C396 1.396 . S
C398 O352 1.300 . S
C398 O353 1.209 . S
C398 C371 1.486 . S
C399 O354 1.199 . S
C399 O355 1.297 . S
C399 C383 1.476 . S
H400 O426 0.856 . S
H401 O429 0.854 . S
H402 C437 0.930 . S
H403 C438 0.930 . S
H404 C440 0.930 . S
H405 C441 0.930 . S
H406 C443 0.931 . S
H407 C444 0.930 . S
H408 C446 0.930 . S
H409 C447 0.929 . S
H410 C449 0.930 . S
H411 C450 0.931 . S
H412 C452 0.930 . S
H413 C453 0.929 . S
H414 C455 0.931 . S
H415 C456 0.930 . S
H416 C458 0.930 . S
H417 C459 0.932 . S
H418 C461 0.930 . S
H419 C462 0.929 . S
H420 C464 0.931 . S
H421 C465 0.930 . S
H422 C467 0.929 . S
H423 C468 0.931 . S
H424 C470 0.930 . S
H425 C471 0.929 . S
O426 H400 0.856 . S
O426 C472 1.300 . S
O427 C472 1.209 . S
O428 C473 1.199 . S
O429 H401 0.854 . S
O429 C473 1.297 . S
C430 C431 1.404 . S
C430 C435 1.397 . S
C430 C436 1.492 . S
C431 C430 1.404 . S
C431 C432 1.396 . S
C431 C442 1.492 . S
C432 C431 1.396 . S
C432 C433 1.397 . S
C432 C448 1.509 . S
C433 C432 1.397 . S
C433 C434 1.412 . S
C433 C454 1.485 . S
C434 C433 1.412 . S
C434 C435 1.388 . S
C434 C460 1.490 . S
C435 C430 1.397 . S
C435 C434 1.388 . S
C435 C466 1.519 . S
C436 C430 1.492 . S
C436 C437 1.363 . S
C436 C441 1.390 . S
C437 H402 0.930 . S
C437 C436 1.363 . S
C437 C438 1.372 . S
C438 H403 0.930 . S
C438 C437 1.372 . S
C438 C439 1.383 . S
C439 C438 1.383 . S
C439 C440 1.395 . S
C440 H404 0.930 . S
C440 C439 1.395 . S
C440 C441 1.362 . S
C441 H405 0.930 . S
C441 C436 1.390 . S
C441 C440 1.362 . S
C442 C431 1.492 . S
C442 C443 1.377 . S
C442 C447 1.397 . S
C443 H406 0.931 . S
C443 C442 1.377 . S
C443 C444 1.376 . S
C444 H407 0.930 . S
C444 C443 1.376 . S
C444 C445 1.376 . S
C445 C444 1.376 . S
C445 C446 1.378 . S
C445 C472 1.486 . S
C446 H408 0.930 . S
C446 C445 1.378 . S
C446 C447 1.376 . S
C447 H409 0.929 . S
C447 C442 1.397 . S
C447 C446 1.376 . S
C448 C432 1.509 . S
C448 C449 1.391 . S
C448 C453 1.386 . S
C449 H410 0.930 . S
C449 C448 1.391 . S
C449 C450 1.375 . S
C450 H411 0.931 . S
C450 C449 1.375 . S
C450 C451 1.375 . S
C451 C450 1.375 . S
C451 C452 1.361 . S
C452 H412 0.930 . S
C452 C451 1.361 . S
C452 C453 1.399 . S
C453 H413 0.929 . S
C453 C448 1.386 . S
C453 C452 1.399 . S
C454 C433 1.485 . S
C454 C455 1.394 . S
C454 C459 1.360 . S
C455 H414 0.931 . S
C455 C454 1.394 . S
C455 C456 1.372 . S
C456 H415 0.930 . S
C456 C455 1.372 . S
C456 C457 1.397 . S
C457 C456 1.397 . S
C457 C458 1.390 . S
C457 C473 1.476 . S
C458 H416 0.930 . S
C458 C457 1.390 . S
C458 C459 1.366 . S
C459 H417 0.932 . S
C459 C454 1.360 . S
C459 C458 1.366 . S
C460 C434 1.490 . S
C460 C461 1.380 . S
C460 C465 1.386 . S
C461 H418 0.930 . S
C461 C460 1.380 . S
C461 C462 1.381 . S
C462 H419 0.929 . S
C462 C461 1.381 . S
C462 C463 1.371 . S
C463 C462 1.371 . S
C463 C464 1.380 . S
C464 H420 0.931 . S
C464 C463 1.380 . S
C464 C465 1.387 . S
C465 H421 0.930 . S
C465 C460 1.386 . S
C465 C464 1.387 . S
C466 C435 1.519 . S
C466 C467 1.377 . S
C466 C471 1.361 . S
C467 H422 0.929 . S
C467 C466 1.377 . S
C467 C468 1.386 . S
C468 H423 0.931 . S
C468 C467 1.386 . S
C468 C469 1.363 . S
C469 C468 1.363 . S
C469 C470 1.385 . S
C470 H424 0.930 . S
C470 C469 1.385 . S
C470 C471 1.396 . S
C471 H425 0.929 . S
C471 C466 1.361 . S
C471 C470 1.396 . S
C472 O426 1.300 . S
C472 O427 1.209 . S
C472 C445 1.486 . S
C473 O428 1.199 . S
C473 O429 1.297 . S
C473 C457 1.476 . S
H474 O500 0.856 . S
H475 O503 0.854 . S
H476 C511 0.930 . S
H477 C512 0.930 . S
H478 C514 0.930 . S
H479 C515 0.930 . S
H480 C517 0.931 . S
H481 C518 0.930 . S
H482 C520 0.930 . S
H483 C521 0.929 . S
H484 C523 0.930 . S
H485 C524 0.931 . S
H486 C526 0.930 . S
H487 C527 0.929 . S
H488 C529 0.931 . S
H489 C530 0.930 . S
H490 C532 0.930 . S
H491 C533 0.932 . S
H492 C535 0.930 . S
H493 C536 0.929 . S
H494 C538 0.931 . S
H495 C539 0.930 . S
H496 C541 0.929 . S
H497 C542 0.931 . S
H498 C544 0.930 . S
H499 C545 0.929 . S
O500 H474 0.856 . S
O500 C546 1.300 . S
O501 C546 1.209 . S
O502 C547 1.199 . S
O503 H475 0.854 . S
O503 C547 1.297 . S
C504 C505 1.404 . S
C504 C509 1.397 . S
C504 C510 1.492 . S
C505 C504 1.404 . S
C505 C506 1.396 . S
C505 C516 1.492 . S
C506 C505 1.396 . S
C506 C507 1.397 . S
C506 C522 1.509 . S
C507 C506 1.397 . S
C507 C508 1.412 . S
C507 C528 1.485 . S
C508 C507 1.412 . S
C508 C509 1.388 . S
C508 C534 1.490 . S
C509 C504 1.397 . S
C509 C508 1.388 . S
C509 C540 1.519 . S
C510 C504 1.492 . S
C510 C511 1.363 . S
C510 C515 1.390 . S
C511 H476 0.930 . S
C511 C510 1.363 . S
C511 C512 1.372 . S
C512 H477 0.930 . S
C512 C511 1.372 . S
C512 C513 1.383 . S
C513 C512 1.383 . S
C513 C514 1.395 . S
C514 H478 0.930 . S
C514 C513 1.395 . S
C514 C515 1.362 . S
C515 H479 0.930 . S
C515 C510 1.390 . S
C515 C514 1.362 . S
C516 C505 1.492 . S
C516 C517 1.377 . S
C516 C521 1.397 . S
C517 H480 0.931 . S
C517 C516 1.377 . S
C517 C518 1.376 . S
C518 H481 0.930 . S
C518 C517 1.376 . S
C518 C519 1.376 . S
C519 C518 1.376 . S
C519 C520 1.378 . S
C519 C546 1.486 . S
C520 H482 0.930 . S
C520 C519 1.378 . S
C520 C521 1.376 . S
C521 H483 0.929 . S
C521 C516 1.397 . S
C521 C520 1.376 . S
C522 C506 1.509 . S
C522 C523 1.391 . S
C522 C527 1.386 . S
C523 H484 0.930 . S
C523 C522 1.391 . S
C523 C524 1.375 . S
C524 H485 0.931 . S
C524 C523 1.375 . S
C524 C525 1.375 . S
C525 C524 1.375 . S
C525 C526 1.361 . S
C526 H486 0.930 . S
C526 C525 1.361 . S
C526 C527 1.399 . S
C527 H487 0.929 . S
C527 C522 1.386 . S
C527 C526 1.399 . S
C528 C507 1.485 . S
C528 C529 1.394 . S
C528 C533 1.360 . S
C529 H488 0.931 . S
C529 C528 1.394 . S
C529 C530 1.372 . S
C530 H489 0.930 . S
C530 C529 1.372 . S
C530 C531 1.397 . S
C531 C530 1.397 . S
C531 C532 1.390 . S
C531 C547 1.476 . S
C532 H490 0.930 . S
C532 C531 1.390 . S
C532 C533 1.366 . S
C533 H491 0.932 . S
C533 C528 1.360 . S
C533 C532 1.366 . S
C534 C508 1.490 . S
C534 C535 1.380 . S
C534 C539 1.386 . S
C535 H492 0.930 . S
C535 C534 1.380 . S
C535 C536 1.381 . S
C536 H493 0.929 . S
C536 C535 1.381 . S
C536 C537 1.371 . S
C537 C536 1.371 . S
C537 C538 1.380 . S
C538 H494 0.931 . S
C538 C537 1.380 . S
C538 C539 1.387 . S
C539 H495 0.930 . S
C539 C534 1.386 . S
C539 C538 1.387 . S
C540 C509 1.519 . S
C540 C541 1.377 . S
C540 C545 1.361 . S
C541 H496 0.929 . S
C541 C540 1.377 . S
C541 C542 1.386 . S
C542 H497 0.931 . S
C542 C541 1.386 . S
C542 C543 1.363 . S
C543 C542 1.363 . S
C543 C544 1.385 . S
C544 H498 0.930 . S
C544 C543 1.385 . S
C544 C545 1.396 . S
C545 H499 0.929 . S
C545 C540 1.361 . S
C545 C544 1.396 . S
C546 O500 1.300 . S
C546 O501 1.209 . S
C546 C519 1.486 . S
C547 O502 1.199 . S
C547 O503 1.297 . S
C547 C531 1.476 . S
H548 O574 0.856 . S
H549 O577 0.854 . S
H550 C585 0.930 . S
H551 C586 0.930 . S
H552 C588 0.930 . S
H553 C589 0.930 . S
H554 C591 0.931 . S
H555 C592 0.930 . S
H556 C594 0.930 . S
H557 C595 0.929 . S
H558 C597 0.930 . S
H559 C598 0.931 . S
H560 C600 0.930 . S
H561 C601 0.929 . S
H562 C603 0.931 . S
H563 C604 0.930 . S
H564 C606 0.930 . S
H565 C607 0.932 . S
H566 C609 0.930 . S
H567 C610 0.929 . S
H568 C612 0.931 . S
H569 C613 0.930 . S
H570 C615 0.929 . S
H571 C616 0.931 . S
H572 C618 0.930 . S
H573 C619 0.929 . S
O574 H548 0.856 . S
O574 C620 1.300 . S
O575 C620 1.209 . S
O576 C621 1.199 . S
O577 H549 0.854 . S
O577 C621 1.297 . S
C578 C579 1.404 . S
C578 C583 1.397 . S
C578 C584 1.492 . S
C579 C578 1.404 . S
C579 C580 1.396 . S
C579 C590 1.492 . S
C580 C579 1.396 . S
C580 C581 1.397 . S
C580 C596 1.509 . S
C581 C580 1.397 . S
C581 C582 1.412 . S
C581 C602 1.485 . S
C582 C581 1.412 . S
C582 C583 1.388 . S
C582 C608 1.490 . S
C583 C578 1.397 . S
C583 C582 1.388 . S
C583 C614 1.519 . S
C584 C578 1.492 . S
C584 C585 1.363 . S
C584 C589 1.390 . S
C585 H550 0.930 . S
C585 C584 1.363 . S
C585 C586 1.372 . S
C586 H551 0.930 . S
C586 C585 1.372 . S
C586 C587 1.383 . S
C587 C586 1.383 . S
C587 C588 1.395 . S
C588 H552 0.930 . S
C588 C587 1.395 . S
C588 C589 1.362 . S
C589 H553 0.930 . S
C589 C584 1.390 . S
C589 C588 1.362 . S
C590 C579 1.492 . S
C590 C591 1.377 . S
C590 C595 1.397 . S
C591 H554 0.931 . S
C591 C590 1.377 . S
C591 C592 1.376 . S
C592 H555 0.930 . S
C592 C591 1.376 . S
C592 C593 1.376 . S
C593 C592 1.376 . S
C593 C594 1.378 . S
C593 C620 1.486 . S
C594 H556 0.930 . S
C594 C593 1.378 . S
C594 C595 1.376 . S
C595 H557 0.929 . S
C595 C590 1.397 . S
C595 C594 1.376 . S
C596 C580 1.509 . S
C596 C597 1.391 . S
C596 C601 1.386 . S
C597 H558 0.930 . S
C597 C596 1.391 . S
C597 C598 1.375 . S
C598 H559 0.931 . S
C598 C597 1.375 . S
C598 C599 1.375 . S
C599 C598 1.375 . S
C599 C600 1.361 . S
C600 H560 0.930 . S
C600 C599 1.361 . S
C600 C601 1.399 . S
C601 H561 0.929 . S
C601 C596 1.386 . S
C601 C600 1.399 . S
C602 C581 1.485 . S
C602 C603 1.394 . S
C602 C607 1.360 . S
C603 H562 0.931 . S
C603 C602 1.394 . S
C603 C604 1.372 . S
C604 H563 0.930 . S
C604 C603 1.372 . S
C604 C605 1.397 . S
C605 C604 1.397 . S
C605 C606 1.390 . S
C605 C621 1.476 . S
C606 H564 0.930 . S
C606 C605 1.390 . S
C606 C607 1.366 . S
C607 H565 0.932 . S
C607 C602 1.360 . S
C607 C606 1.366 . S
C608 C582 1.490 . S
C608 C609 1.380 . S
C608 C613 1.386 . S
C609 H566 0.930 . S
C609 C608 1.380 . S
C609 C610 1.381 . S
C610 H567 0.929 . S
C610 C609 1.381 . S
C610 C611 1.371 . S
C611 C610 1.371 . S
C611 C612 1.380 . S
C612 H568 0.931 . S
C612 C611 1.380 . S
C612 C613 1.387 . S
C613 H569 0.930 . S
C613 C608 1.386 . S
C613 C612 1.387 . S
C614 C583 1.519 . S
C614 C615 1.377 . S
C614 C619 1.361 . S
C615 H570 0.929 . S
C615 C614 1.377 . S
C615 C616 1.386 . S
C616 H571 0.931 . S
C616 C615 1.386 . S
C616 C617 1.363 . S
C617 C616 1.363 . S
C617 C618 1.385 . S
C618 H572 0.930 . S
C618 C617 1.385 . S
C618 C619 1.396 . S
C619 H573 0.929 . S
C619 C614 1.361 . S
C619 C618 1.396 . S
C620 O574 1.300 . S
C620 O575 1.209 . S
C620 C593 1.486 . S
C621 O576 1.199 . S
C621 O577 1.297 . S
C621 C605 1.476 . S
H622 O648 0.856 . S
H623 O651 0.854 . S
H624 C659 0.930 . S
H625 C660 0.930 . S
H626 C662 0.930 . S
H627 C663 0.930 . S
H628 C665 0.931 . S
H629 C666 0.930 . S
H630 C668 0.930 . S
H631 C669 0.929 . S
H632 C671 0.930 . S
H633 C672 0.931 . S
H634 C674 0.930 . S
H635 C675 0.929 . S
H636 C677 0.931 . S
H637 C678 0.930 . S
H638 C680 0.930 . S
H639 C681 0.932 . S
H640 C683 0.930 . S
H641 C684 0.929 . S
H642 C686 0.931 . S
H643 C687 0.930 . S
H644 C689 0.929 . S
H645 C690 0.931 . S
H646 C692 0.930 . S
H647 C693 0.929 . S
O648 H622 0.856 . S
O648 C694 1.300 . S
O649 C694 1.209 . S
O650 C695 1.199 . S
O651 H623 0.854 . S
O651 C695 1.297 . S
C652 C653 1.404 . S
C652 C657 1.397 . S
C652 C658 1.492 . S
C653 C652 1.404 . S
C653 C654 1.396 . S
C653 C664 1.492 . S
C654 C653 1.396 . S
C654 C655 1.397 . S
C654 C670 1.509 . S
C655 C654 1.397 . S
C655 C656 1.412 . S
C655 C676 1.485 . S
C656 C655 1.412 . S
C656 C657 1.388 . S
C656 C682 1.490 . S
C657 C652 1.397 . S
C657 C656 1.388 . S
C657 C688 1.519 . S
C658 C652 1.492 . S
C658 C659 1.363 . S
C658 C663 1.390 . S
C659 H624 0.930 . S
C659 C658 1.363 . S
C659 C660 1.372 . S
C660 H625 0.930 . S
C660 C659 1.372 . S
C660 C661 1.383 . S
C661 C660 1.383 . S
C661 C662 1.395 . S
C662 H626 0.930 . S
C662 C661 1.395 . S
C662 C663 1.362 . S
C663 H627 0.930 . S
C663 C658 1.390 . S
C663 C662 1.362 . S
C664 C653 1.492 . S
C664 C665 1.377 . S
C664 C669 1.397 . S
C665 H628 0.931 . S
C665 C664 1.377 . S
C665 C666 1.376 . S
C666 H629 0.930 . S
C666 C665 1.376 . S
C666 C667 1.376 . S
C667 C666 1.376 . S
C667 C668 1.378 . S
C667 C694 1.486 . S
C668 H630 0.930 . S
C668 C667 1.378 . S
C668 C669 1.376 . S
C669 H631 0.929 . S
C669 C664 1.397 . S
C669 C668 1.376 . S
C670 C654 1.509 . S
C670 C671 1.391 . S
C670 C675 1.386 . S
C671 H632 0.930 . S
C671 C670 1.391 . S
C671 C672 1.375 . S
C672 H633 0.931 . S
C672 C671 1.375 . S
C672 C673 1.375 . S
C673 C672 1.375 . S
C673 C674 1.361 . S
C674 H634 0.930 . S
C674 C673 1.361 . S
C674 C675 1.399 . S
C675 H635 0.929 . S
C675 C670 1.386 . S
C675 C674 1.399 . S
C676 C655 1.485 . S
C676 C677 1.394 . S
C676 C681 1.360 . S
C677 H636 0.931 . S
C677 C676 1.394 . S
C677 C678 1.372 . S
C678 H637 0.930 . S
C678 C677 1.372 . S
C678 C679 1.397 . S
C679 C678 1.397 . S
C679 C680 1.390 . S
C679 C695 1.476 . S
C680 H638 0.930 . S
C680 C679 1.390 . S
C680 C681 1.366 . S
C681 H639 0.932 . S
C681 C676 1.360 . S
C681 C680 1.366 . S
C682 C656 1.490 . S
C682 C683 1.380 . S
C682 C687 1.386 . S
C683 H640 0.930 . S
C683 C682 1.380 . S
C683 C684 1.381 . S
C684 H641 0.929 . S
C684 C683 1.381 . S
C684 C685 1.371 . S
C685 C684 1.371 . S
C685 C686 1.380 . S
C686 H642 0.931 . S
C686 C685 1.380 . S
C686 C687 1.387 . S
C687 H643 0.930 . S
C687 C682 1.386 . S
C687 C686 1.387 . S
C688 C657 1.519 . S
C688 C689 1.377 . S
C688 C693 1.361 . S
C689 H644 0.929 . S
C689 C688 1.377 . S
C689 C690 1.386 . S
C690 H645 0.931 . S
C690 C689 1.386 . S
C690 C691 1.363 . S
C691 C690 1.363 . S
C691 C692 1.385 . S
C692 H646 0.930 . S
C692 C691 1.385 . S
C692 C693 1.396 . S
C693 H647 0.929 . S
C693 C688 1.361 . S
C693 C692 1.396 . S
C694 O648 1.300 . S
C694 O649 1.209 . S
C694 C667 1.486 . S
C695 O650 1.199 . S
C695 O651 1.297 . S
C695 C679 1.476 . S
H696 O722 0.856 . S
H697 O725 0.854 . S
H698 C733 0.930 . S
H699 C734 0.930 . S
H700 C736 0.930 . S
H701 C737 0.930 . S
H702 C739 0.931 . S
H703 C740 0.930 . S
H704 C742 0.930 . S
H705 C743 0.929 . S
H706 C745 0.930 . S
H707 C746 0.931 . S
H708 C748 0.930 . S
H709 C749 0.929 . S
H710 C751 0.931 . S
H711 C752 0.930 . S
H712 C754 0.930 . S
H713 C755 0.932 . S
H714 C757 0.930 . S
H715 C758 0.929 . S
H716 C760 0.931 . S
H717 C761 0.930 . S
H718 C763 0.929 . S
H719 C764 0.931 . S
H720 C766 0.930 . S
H721 C767 0.929 . S
O722 H696 0.856 . S
O722 C768 1.300 . S
O723 C768 1.209 . S
O724 C769 1.199 . S
O725 H697 0.854 . S
O725 C769 1.297 . S
C726 C727 1.404 . S
C726 C731 1.397 . S
C726 C732 1.492 . S
C727 C726 1.404 . S
C727 C728 1.396 . S
C727 C738 1.492 . S
C728 C727 1.396 . S
C728 C729 1.397 . S
C728 C744 1.509 . S
C729 C728 1.397 . S
C729 C730 1.412 . S
C729 C750 1.485 . S
C730 C729 1.412 . S
C730 C731 1.388 . S
C730 C756 1.490 . S
C731 C726 1.397 . S
C731 C730 1.388 . S
C731 C762 1.519 . S
C732 C726 1.492 . S
C732 C733 1.363 . S
C732 C737 1.390 . S
C733 H698 0.930 . S
C733 C732 1.363 . S
C733 C734 1.372 . S
C734 H699 0.930 . S
C734 C733 1.372 . S
C734 C735 1.383 . S
C735 C734 1.383 . S
C735 C736 1.395 . S
C736 H700 0.930 . S
C736 C735 1.395 . S
C736 C737 1.362 . S
C737 H701 0.930 . S
C737 C732 1.390 . S
C737 C736 1.362 . S
C738 C727 1.492 . S
C738 C739 1.377 . S
C738 C743 1.397 . S
C739 H702 0.931 . S
C739 C738 1.377 . S
C739 C740 1.376 . S
C740 H703 0.930 . S
C740 C739 1.376 . S
C740 C741 1.376 . S
C741 C740 1.376 . S
C741 C742 1.378 . S
C741 C768 1.486 . S
C742 H704 0.930 . S
C742 C741 1.378 . S
C742 C743 1.376 . S
C743 H705 0.929 . S
C743 C738 1.397 . S
C743 C742 1.376 . S
C744 C728 1.509 . S
C744 C745 1.391 . S
C744 C749 1.386 . S
C745 H706 0.930 . S
C745 C744 1.391 . S
C745 C746 1.375 . S
C746 H707 0.931 . S
C746 C745 1.375 . S
C746 C747 1.375 . S
C747 C746 1.375 . S
C747 C748 1.361 . S
C748 H708 0.930 . S
C748 C747 1.361 . S
C748 C749 1.399 . S
C749 H709 0.929 . S
C749 C744 1.386 . S
C749 C748 1.399 . S
C750 C729 1.485 . S
C750 C751 1.394 . S
C750 C755 1.360 . S
C751 H710 0.931 . S
C751 C750 1.394 . S
C751 C752 1.372 . S
C752 H711 0.930 . S
C752 C751 1.372 . S
C752 C753 1.397 . S
C753 C752 1.397 . S
C753 C754 1.390 . S
C753 C769 1.476 . S
C754 H712 0.930 . S
C754 C753 1.390 . S
C754 C755 1.366 . S
C755 H713 0.932 . S
C755 C750 1.360 . S
C755 C754 1.366 . S
C756 C730 1.490 . S
C756 C757 1.380 . S
C756 C761 1.386 . S
C757 H714 0.930 . S
C757 C756 1.380 . S
C757 C758 1.381 . S
C758 H715 0.929 . S
C758 C757 1.381 . S
C758 C759 1.371 . S
C759 C758 1.371 . S
C759 C760 1.380 . S
C760 H716 0.931 . S
C760 C759 1.380 . S
C760 C761 1.387 . S
C761 H717 0.930 . S
C761 C756 1.386 . S
C761 C760 1.387 . S
C762 C731 1.519 . S
C762 C763 1.377 . S
C762 C767 1.361 . S
C763 H718 0.929 . S
C763 C762 1.377 . S
C763 C764 1.386 . S
C764 H719 0.931 . S
C764 C763 1.386 . S
C764 C765 1.363 . S
C765 C764 1.363 . S
C765 C766 1.385 . S
C766 H720 0.930 . S
C766 C765 1.385 . S
C766 C767 1.396 . S
C767 H721 0.929 . S
C767 C762 1.361 . S
C767 C766 1.396 . S
C768 O722 1.300 . S
C768 O723 1.209 . S
C768 C741 1.486 . S
C769 O724 1.199 . S
C769 O725 1.297 . S
C769 C753 1.476 . S
H770 O796 0.856 . S
H771 O799 0.854 . S
H772 C807 0.930 . S
H773 C808 0.930 . S
H774 C810 0.930 . S
H775 C811 0.930 . S
H776 C813 0.931 . S
H777 C814 0.930 . S
H778 C816 0.930 . S
H779 C817 0.929 . S
H780 C819 0.930 . S
H781 C820 0.931 . S
H782 C822 0.930 . S
H783 C823 0.929 . S
H784 C825 0.931 . S
H785 C826 0.930 . S
H786 C828 0.930 . S
H787 C829 0.932 . S
H788 C831 0.930 . S
H789 C832 0.929 . S
H790 C834 0.931 . S
H791 C835 0.930 . S
H792 C837 0.929 . S
H793 C838 0.931 . S
H794 C840 0.930 . S
H795 C841 0.929 . S
O796 H770 0.856 . S
O796 C842 1.300 . S
O797 C842 1.209 . S
O798 C843 1.199 . S
O799 H771 0.854 . S
O799 C843 1.297 . S
C800 C801 1.404 . S
C800 C805 1.397 . S
C800 C806 1.492 . S
C801 C800 1.404 . S
C801 C802 1.396 . S
C801 C812 1.492 . S
C802 C801 1.396 . S
C802 C803 1.397 . S
C802 C818 1.509 . S
C803 C802 1.397 . S
C803 C804 1.412 . S
C803 C824 1.485 . S
C804 C803 1.412 . S
C804 C805 1.388 . S
C804 C830 1.490 . S
C805 C800 1.397 . S
C805 C804 1.388 . S
C805 C836 1.519 . S
C806 C800 1.492 . S
C806 C807 1.363 . S
C806 C811 1.390 . S
C807 H772 0.930 . S
C807 C806 1.363 . S
C807 C808 1.372 . S
C808 H773 0.930 . S
C808 C807 1.372 . S
C808 C809 1.383 . S
C809 C808 1.383 . S
C809 C810 1.395 . S
C810 H774 0.930 . S
C810 C809 1.395 . S
C810 C811 1.362 . S
C811 H775 0.930 . S
C811 C806 1.390 . S
C811 C810 1.362 . S
C812 C801 1.492 . S
C812 C813 1.377 . S
C812 C817 1.397 . S
C813 H776 0.931 . S
C813 C812 1.377 . S
C813 C814 1.376 . S
C814 H777 0.930 . S
C814 C813 1.376 . S
C814 C815 1.376 . S
C815 C814 1.376 . S
C815 C816 1.378 . S
C815 C842 1.486 . S
C816 H778 0.930 . S
C816 C815 1.378 . S
C816 C817 1.376 . S
C817 H779 0.929 . S
C817 C812 1.397 . S
C817 C816 1.376 . S
C818 C802 1.509 . S
C818 C819 1.391 . S
C818 C823 1.386 . S
C819 H780 0.930 . S
C819 C818 1.391 . S
C819 C820 1.375 . S
C820 H781 0.931 . S
C820 C819 1.375 . S
C820 C821 1.375 . S
C821 C820 1.375 . S
C821 C822 1.361 . S
C822 H782 0.930 . S
C822 C821 1.361 . S
C822 C823 1.399 . S
C823 H783 0.929 . S
C823 C818 1.386 . S
C823 C822 1.399 . S
C824 C803 1.485 . S
C824 C825 1.394 . S
C824 C829 1.360 . S
C825 H784 0.931 . S
C825 C824 1.394 . S
C825 C826 1.372 . S
C826 H785 0.930 . S
C826 C825 1.372 . S
C826 C827 1.397 . S
C827 C826 1.397 . S
C827 C828 1.390 . S
C827 C843 1.476 . S
C828 H786 0.930 . S
C828 C827 1.390 . S
C828 C829 1.366 . S
C829 H787 0.932 . S
C829 C824 1.360 . S
C829 C828 1.366 . S
C830 C804 1.490 . S
C830 C831 1.380 . S
C830 C835 1.386 . S
C831 H788 0.930 . S
C831 C830 1.380 . S
C831 C832 1.381 . S
C832 H789 0.929 . S
C832 C831 1.381 . S
C832 C833 1.371 . S
C833 C832 1.371 . S
C833 C834 1.380 . S
C834 H790 0.931 . S
C834 C833 1.380 . S
C834 C835 1.387 . S
C835 H791 0.930 . S
C835 C830 1.386 . S
C835 C834 1.387 . S
C836 C805 1.519 . S
C836 C837 1.377 . S
C836 C841 1.361 . S
C837 H792 0.929 . S
C837 C836 1.377 . S
C837 C838 1.386 . S
C838 H793 0.931 . S
C838 C837 1.386 . S
C838 C839 1.363 . S
C839 C838 1.363 . S
C839 C840 1.385 . S
C840 H794 0.930 . S
C840 C839 1.385 . S
C840 C841 1.396 . S
C841 H795 0.929 . S
C841 C836 1.361 . S
C841 C840 1.396 . S
C842 O796 1.300 . S
C842 O797 1.209 . S
C842 C815 1.486 . S
C843 O798 1.199 . S
C843 O799 1.297 . S
C843 C827 1.476 . S
H844 O870 0.856 . S
H845 O873 0.854 . S
H846 C881 0.930 . S
H847 C882 0.930 . S
H848 C884 0.930 . S
H849 C885 0.930 . S
H850 C887 0.931 . S
H851 C888 0.930 . S
H852 C890 0.930 . S
H853 C891 0.929 . S
H854 C893 0.930 . S
H855 C894 0.931 . S
H856 C896 0.930 . S
H857 C897 0.929 . S
H858 C899 0.931 . S
H859 C900 0.930 . S
H860 C902 0.930 . S
H861 C903 0.932 . S
H862 C905 0.930 . S
H863 C906 0.929 . S
H864 C908 0.931 . S
H865 C909 0.930 . S
H866 C911 0.929 . S
H867 C912 0.931 . S
H868 C914 0.930 . S
H869 C915 0.929 . S
O870 H844 0.856 . S
O870 C916 1.300 . S
O871 C916 1.209 . S
O872 C917 1.199 . S
O873 H845 0.854 . S
O873 C917 1.297 . S
C874 C875 1.404 . S
C874 C879 1.397 . S
C874 C880 1.492 . S
C875 C874 1.404 . S
C875 C876 1.396 . S
C875 C886 1.492 . S
C876 C875 1.396 . S
C876 C877 1.397 . S
C876 C892 1.509 . S
C877 C876 1.397 . S
C877 C878 1.412 . S
C877 C898 1.485 . S
C878 C877 1.412 . S
C878 C879 1.388 . S
C878 C904 1.490 . S
C879 C874 1.397 . S
C879 C878 1.388 . S
C879 C910 1.519 . S
C880 C874 1.492 . S
C880 C881 1.363 . S
C880 C885 1.390 . S
C881 H846 0.930 . S
C881 C880 1.363 . S
C881 C882 1.372 . S
C882 H847 0.930 . S
C882 C881 1.372 . S
C882 C883 1.383 . S
C883 C882 1.383 . S
C883 C884 1.395 . S
C884 H848 0.930 . S
C884 C883 1.395 . S
C884 C885 1.362 . S
C885 H849 0.930 . S
C885 C880 1.390 . S
C885 C884 1.362 . S
C886 C875 1.492 . S
C886 C887 1.377 . S
C886 C891 1.397 . S
C887 H850 0.931 . S
C887 C886 1.377 . S
C887 C888 1.376 . S
C888 H851 0.930 . S
C888 C887 1.376 . S
C888 C889 1.376 . S
C889 C888 1.376 . S
C889 C890 1.378 . S
C889 C916 1.486 . S
C890 H852 0.930 . S
C890 C889 1.378 . S
C890 C891 1.376 . S
C891 H853 0.929 . S
C891 C886 1.397 . S
C891 C890 1.376 . S
C892 C876 1.509 . S
C892 C893 1.391 . S
C892 C897 1.386 . S
C893 H854 0.930 . S
C893 C892 1.391 . S
C893 C894 1.375 . S
C894 H855 0.931 . S
C894 C893 1.375 . S
C894 C895 1.375 . S
C895 C894 1.375 . S
C895 C896 1.361 . S
C896 H856 0.930 . S
C896 C895 1.361 . S
C896 C897 1.399 . S
C897 H857 0.929 . S
C897 C892 1.386 . S
C897 C896 1.399 . S
C898 C877 1.485 . S
C898 C899 1.394 . S
C898 C903 1.360 . S
C899 H858 0.931 . S
C899 C898 1.394 . S
C899 C900 1.372 . S
C900 H859 0.930 . S
C900 C899 1.372 . S
C900 C901 1.397 . S
C901 C900 1.397 . S
C901 C902 1.390 . S
C901 C917 1.476 . S
C902 H860 0.930 . S
C902 C901 1.390 . S
C902 C903 1.366 . S
C903 H861 0.932 . S
C903 C898 1.360 . S
C903 C902 1.366 . S
C904 C878 1.490 . S
C904 C905 1.380 . S
C904 C909 1.386 . S
C905 H862 0.930 . S
C905 C904 1.380 . S
C905 C906 1.381 . S
C906 H863 0.929 . S
C906 C905 1.381 . S
C906 C907 1.371 . S
C907 C906 1.371 . S
C907 C908 1.380 . S
C908 H864 0.931 . S
C908 C907 1.380 . S
C908 C909 1.387 . S
C909 H865 0.930 . S
C909 C904 1.386 . S
C909 C908 1.387 . S
C910 C879 1.519 . S
C910 C911 1.377 . S
C910 C915 1.361 . S
C911 H866 0.929 . S
C911 C910 1.377 . S
C911 C912 1.386 . S
C912 H867 0.931 . S
C912 C911 1.386 . S
C912 C913 1.363 . S
C913 C912 1.363 . S
C913 C914 1.385 . S
C914 H868 0.930 . S
C914 C913 1.385 . S
C914 C915 1.396 . S
C915 H869 0.929 . S
C915 C910 1.361 . S
C915 C914 1.396 . S
C916 O870 1.300 . S
C916 O871 1.209 . S
C916 C889 1.486 . S
C917 O872 1.199 . S
C917 O873 1.297 . S
C917 C901 1.476 . S
H918 O944 0.856 . S
H919 O947 0.854 . S
H920 C955 0.930 . S
H921 C956 0.930 . S
H922 C958 0.930 . S
H923 C959 0.930 . S
H924 C961 0.931 . S
H925 C962 0.946 . S
H926 C964 0.930 . S
H927 C965 0.929 . S
H928 C967 0.930 . S
H929 C968 0.944 . S
H930 C970 0.930 . S
H931 C971 0.929 . S
H932 C973 0.931 . S
H933 C974 0.930 . S
H934 C976 0.930 . S
H935 C977 0.932 . S
H936 C979 0.930 . S
H937 C980 0.929 . S
H938 C982 0.931 . S
H939 C983 0.930 . S
H940 C985 0.929 . S
H941 C986 0.931 . S
H942 C988 0.930 . S
H943 C989 0.929 . S
O944 H918 0.856 . S
O944 C990 1.300 . S
O945 C990 1.209 . S
O946 C991 1.199 1_655 S
O947 H919 0.854 . S
O947 C991 1.297 . S
C948 C949 1.404 . S
C948 C953 1.394 . S
C948 C954 1.492 . S
C949 C948 1.404 . S
C949 C950 1.396 . S
C949 C960 1.492 . S
C950 C949 1.396 . S
C950 C951 1.397 . S
C950 C966 1.509 . S
C951 C950 1.397 . S
C951 C952 1.427 . S
C951 C972 1.485 . S
C952 C951 1.427 . S
C952 C953 1.398 . S
C952 C978 1.491 1_455 S
C953 C948 1.394 . S
C953 C952 1.398 . S
C953 C984 1.499 1_455 S
C954 C948 1.492 . S
C954 C955 1.363 1_455 S
C954 C959 1.390 . S
C955 H920 0.930 . S
C955 C954 1.363 1_655 S
C955 C956 1.372 . S
C956 H921 0.930 . S
C956 C955 1.372 . S
C956 C957 1.383 . S
C957 C956 1.383 . S
C957 C958 1.395 1_655 S
C958 H922 0.930 . S
C958 C957 1.395 1_455 S
C958 C959 1.362 . S
C959 H923 0.930 . S
C959 C954 1.390 . S
C959 C958 1.362 . S
C960 C949 1.492 . S
C960 C961 1.377 1_455 S
C960 C965 1.397 . S
C961 H924 0.931 . S
C961 C960 1.377 1_655 S
C961 C962 1.373 . S
C962 H925 0.946 . S
C962 C961 1.373 . S
C962 C963 1.363 1_655 S
C963 C962 1.363 1_455 S
C963 C964 1.378 . S
C963 C990 1.486 . S
C964 H926 0.930 . S
C964 C963 1.378 . S
C964 C965 1.376 . S
C965 H927 0.929 . S
C965 C960 1.397 . S
C965 C964 1.376 . S
C966 C950 1.509 . S
C966 C967 1.391 1_455 S
C966 C971 1.386 . S
C967 H928 0.930 . S
C967 C966 1.391 1_655 S
C967 C968 1.391 . S
C968 H929 0.944 . S
C968 C967 1.391 . S
C968 C969 1.347 1_655 S
C969 C968 1.347 1_455 S
C969 C970 1.361 . S
C970 H930 0.930 . S
C970 C969 1.361 . S
C970 C971 1.399 . S
C971 H931 0.929 . S
C971 C966 1.386 . S
C971 C970 1.399 . S
C972 C951 1.485 . S
C972 C973 1.394 1_455 S
C972 C977 1.360 . S
C973 H932 0.931 . S
C973 C972 1.394 1_655 S
C973 C974 1.372 . S
C974 H933 0.930 . S
C974 C973 1.372 . S
C974 C975 1.397 1_655 S
C975 C974 1.397 1_455 S
C975 C976 1.390 . S
C975 C991 1.476 . S
C976 H934 0.930 . S
C976 C975 1.390 . S
C976 C977 1.366 . S
C977 H935 0.932 . S
C977 C972 1.360 . S
C977 C976 1.366 . S
C978 C952 1.491 1_655 S
C978 C979 1.380 . S
C978 C983 1.386 1_655 S
C979 H936 0.930 . S
C979 C978 1.380 . S
C979 C980 1.381 . S
C980 H937 0.929 . S
C980 C979 1.381 . S
C980 C981 1.371 . S
C981 C980 1.371 . S
C981 C982 1.380 1_655 S
C982 H938 0.931 . S
C982 C981 1.380 1_455 S
C982 C983 1.387 . S
C983 H939 0.930 . S
C983 C978 1.386 1_455 S
C983 C982 1.387 . S
C984 C953 1.499 1_655 S
C984 C985 1.382 . S
C984 C989 1.358 1_655 S
C985 H940 0.929 . S
C985 C984 1.382 . S
C985 C986 1.386 . S
C986 H941 0.931 . S
C986 C985 1.386 . S
C986 C987 1.346 1_655 S
C987 C986 1.346 1_455 S
C987 C988 1.412 . S
C988 H942 0.930 . S
C988 C987 1.412 . S
C988 C989 1.396 . S
C989 H943 0.929 . S
C989 C984 1.358 1_455 S
C989 C988 1.396 . S
C990 O944 1.300 . S
C990 O945 1.209 . S
C990 C963 1.486 . S
C991 O946 1.199 1_455 S
C991 O947 1.297 . S
C991 C975 1.476 . S
H992 O1018 0.856 . S
H993 O1021 0.854 . S
H994 C1029 0.930 . S
H995 C1030 0.930 . S
H996 C1032 0.930 . S
H997 C1033 0.930 . S
H998 C1035 0.931 . S
H999 C1036 0.930 . S
H1000 C1038 0.930 . S
H1001 C1039 0.929 . S
H1002 C1041 0.930 . S
H1003 C1042 0.931 . S
H1004 C1044 0.930 . S
H1005 C1045 0.929 . S
H1006 C1047 0.931 . S
H1007 C1048 0.930 . S
H1008 C1050 0.930 . S
H1009 C1051 0.932 . S
H1010 C1053 0.930 . S
H1011 C1054 0.929 . S
H1012 C1056 0.931 . S
H1013 C1057 0.930 . S
H1014 C1059 0.929 . S
H1015 C1060 0.931 . S
H1016 C1062 0.930 . S
H1017 C1063 0.929 . S
O1018 H992 0.856 . S
O1018 C1064 1.300 . S
O1019 C1064 1.209 . S
O1020 C1065 1.199 . S
O1021 H993 0.854 . S
O1021 C1065 1.297 . S
C1022 C1023 1.404 . S
C1022 C1027 1.397 . S
C1022 C1028 1.492 . S
C1023 C1022 1.404 . S
C1023 C1024 1.396 . S
C1023 C1034 1.492 . S
C1024 C1023 1.396 . S
C1024 C1025 1.397 . S
C1024 C1040 1.509 . S
C1025 C1024 1.397 . S
C1025 C1026 1.412 . S
C1025 C1046 1.485 . S
C1026 C1025 1.412 . S
C1026 C1027 1.388 . S
C1026 C1052 1.490 . S
C1027 C1022 1.397 . S
C1027 C1026 1.388 . S
C1027 C1058 1.519 . S
C1028 C1022 1.492 . S
C1028 C1029 1.363 . S
C1028 C1033 1.390 . S
C1029 H994 0.930 . S
C1029 C1028 1.363 . S
C1029 C1030 1.372 . S
C1030 H995 0.930 . S
C1030 C1029 1.372 . S
C1030 C1031 1.383 . S
C1031 C1030 1.383 . S
C1031 C1032 1.395 . S
C1032 H996 0.930 . S
C1032 C1031 1.395 . S
C1032 C1033 1.362 . S
C1033 H997 0.930 . S
C1033 C1028 1.390 . S
C1033 C1032 1.362 . S
C1034 C1023 1.492 . S
C1034 C1035 1.377 . S
C1034 C1039 1.397 . S
C1035 H998 0.931 . S
C1035 C1034 1.377 . S
C1035 C1036 1.376 . S
C1036 H999 0.930 . S
C1036 C1035 1.376 . S
C1036 C1037 1.376 . S
C1037 C1036 1.376 . S
C1037 C1038 1.378 . S
C1037 C1064 1.486 . S
C1038 H1000 0.930 . S
C1038 C1037 1.378 . S
C1038 C1039 1.376 . S
C1039 H1001 0.929 . S
C1039 C1034 1.397 . S
C1039 C1038 1.376 . S
C1040 C1024 1.509 . S
C1040 C1041 1.391 . S
C1040 C1045 1.386 . S
C1041 H1002 0.930 . S
C1041 C1040 1.391 . S
C1041 C1042 1.375 . S
C1042 H1003 0.931 . S
C1042 C1041 1.375 . S
C1042 C1043 1.375 . S
C1043 C1042 1.375 . S
C1043 C1044 1.361 . S
C1044 H1004 0.930 . S
C1044 C1043 1.361 . S
C1044 C1045 1.399 . S
C1045 H1005 0.929 . S
C1045 C1040 1.386 . S
C1045 C1044 1.399 . S
C1046 C1025 1.485 . S
C1046 C1047 1.394 . S
C1046 C1051 1.360 . S
C1047 H1006 0.931 . S
C1047 C1046 1.394 . S
C1047 C1048 1.372 . S
C1048 H1007 0.930 . S
C1048 C1047 1.372 . S
C1048 C1049 1.397 . S
C1049 C1048 1.397 . S
C1049 C1050 1.390 . S
C1049 C1065 1.476 . S
C1050 H1008 0.930 . S
C1050 C1049 1.390 . S
C1050 C1051 1.366 . S
C1051 H1009 0.932 . S
C1051 C1046 1.360 . S
C1051 C1050 1.366 . S
C1052 C1026 1.490 . S
C1052 C1053 1.380 . S
C1052 C1057 1.386 . S
C1053 H1010 0.930 . S
C1053 C1052 1.380 . S
C1053 C1054 1.381 . S
C1054 H1011 0.929 . S
C1054 C1053 1.381 . S
C1054 C1055 1.371 . S
C1055 C1054 1.371 . S
C1055 C1056 1.380 . S
C1056 H1012 0.931 . S
C1056 C1055 1.380 . S
C1056 C1057 1.387 . S
C1057 H1013 0.930 . S
C1057 C1052 1.386 . S
C1057 C1056 1.387 . S
C1058 C1027 1.519 . S
C1058 C1059 1.377 . S
C1058 C1063 1.361 . S
C1059 H1014 0.929 . S
C1059 C1058 1.377 . S
C1059 C1060 1.386 . S
C1060 H1015 0.931 . S
C1060 C1059 1.386 . S
C1060 C1061 1.363 . S
C1061 C1060 1.363 . S
C1061 C1062 1.385 . S
C1062 H1016 0.930 . S
C1062 C1061 1.385 . S
C1062 C1063 1.396 . S
C1063 H1017 0.929 . S
C1063 C1058 1.361 . S
C1063 C1062 1.396 . S
C1064 O1018 1.300 . S
C1064 O1019 1.209 . S
C1064 C1037 1.486 . S
C1065 O1020 1.199 . S
C1065 O1021 1.297 . S
C1065 C1049 1.476 . S
H1066 O1092 0.856 . S
H1067 O1095 0.854 . S
H1068 C1103 0.930 . S
H1069 C1104 0.930 . S
H1070 C1106 0.930 . S
H1071 C1107 0.930 . S
H1072 C1109 0.931 . S
H1073 C1110 0.930 . S
H1074 C1112 0.930 . S
H1075 C1113 0.929 . S
H1076 C1115 0.930 . S
H1077 C1116 0.931 . S
H1078 C1118 0.930 . S
H1079 C1119 0.929 . S
H1080 C1121 0.931 . S
H1081 C1122 0.930 . S
H1082 C1124 0.930 . S
H1083 C1125 0.932 . S
H1084 C1127 0.930 . S
H1085 C1128 0.929 . S
H1086 C1130 0.931 . S
H1087 C1131 0.930 . S
H1088 C1133 0.929 . S
H1089 C1134 0.931 . S
H1090 C1136 0.930 . S
H1091 C1137 0.929 . S
O1092 H1066 0.856 . S
O1092 C1138 1.300 . S
O1093 C1138 1.209 . S
O1094 C1139 1.199 1_545 S
O1095 H1067 0.854 . S
O1095 C1139 1.297 . S
C1096 C1097 1.404 . S
C1096 C1101 1.412 . S
C1096 C1102 1.492 . S
C1097 C1096 1.404 . S
C1097 C1098 1.396 . S
C1097 C1108 1.492 . S
C1098 C1097 1.396 . S
C1098 C1099 1.397 . S
C1098 C1114 1.509 . S
C1099 C1098 1.397 . S
C1099 C1100 1.408 . S
C1099 C1120 1.485 . S
C1100 C1099 1.408 . S
C1100 C1101 1.377 . S
C1100 C1126 1.483 1_565 S
C1101 C1096 1.412 . S
C1101 C1100 1.377 . S
C1101 C1132 1.534 . S
C1102 C1096 1.492 . S
C1102 C1103 1.363 1_565 S
C1102 C1107 1.390 . S
C1103 H1068 0.930 . S
C1103 C1102 1.363 1_545 S
C1103 C1104 1.372 . S
C1104 H1069 0.930 . S
C1104 C1103 1.372 . S
C1104 C1105 1.383 . S
C1105 C1104 1.383 . S
C1105 C1106 1.395 1_545 S
C1106 H1070 0.930 . S
C1106 C1105 1.395 1_565 S
C1106 C1107 1.362 . S
C1107 H1071 0.930 . S
C1107 C1102 1.390 . S
C1107 C1106 1.362 . S
C1108 C1097 1.492 . S
C1108 C1109 1.377 1_565 S
C1108 C1113 1.397 . S
C1109 H1072 0.931 . S
C1109 C1108 1.377 1_545 S
C1109 C1110 1.376 . S
C1110 H1073 0.930 . S
C1110 C1109 1.376 . S
C1110 C1111 1.376 1_545 S
C1111 C1110 1.376 1_565 S
C1111 C1112 1.378 . S
C1111 C1138 1.486 . S
C1112 H1074 0.930 . S
C1112 C1111 1.378 . S
C1112 C1113 1.376 . S
C1113 H1075 0.929 . S
C1113 C1108 1.397 . S
C1113 C1112 1.376 . S
C1114 C1098 1.509 . S
C1114 C1115 1.391 1_565 S
C1114 C1119 1.386 . S
C1115 H1076 0.930 . S
C1115 C1114 1.391 1_545 S
C1115 C1116 1.375 . S
C1116 H1077 0.931 . S
C1116 C1115 1.375 . S
C1116 C1117 1.375 1_545 S
C1117 C1116 1.375 1_565 S
C1117 C1118 1.361 . S
C1118 H1078 0.930 . S
C1118 C1117 1.361 . S
C1118 C1119 1.399 . S
C1119 H1079 0.929 . S
C1119 C1114 1.386 . S
C1119 C1118 1.399 . S
C1120 C1099 1.485 . S
C1120 C1121 1.394 1_565 S
C1120 C1125 1.360 . S
C1121 H1080 0.931 . S
C1121 C1120 1.394 1_545 S
C1121 C1122 1.372 . S
C1122 H1081 0.930 . S
C1122 C1121 1.372 . S
C1122 C1123 1.397 1_545 S
C1123 C1122 1.397 1_565 S
C1123 C1124 1.390 . S
C1123 C1139 1.476 . S
C1124 H1082 0.930 . S
C1124 C1123 1.390 . S
C1124 C1125 1.366 . S
C1125 H1083 0.932 . S
C1125 C1120 1.360 . S
C1125 C1124 1.366 . S
C1126 C1100 1.483 1_545 S
C1126 C1127 1.380 . S
C1126 C1131 1.386 1_545 S
C1127 H1084 0.930 . S
C1127 C1126 1.380 . S
C1127 C1128 1.381 . S
C1128 H1085 0.929 . S
C1128 C1127 1.381 . S
C1128 C1129 1.371 . S
C1129 C1128 1.371 . S
C1129 C1130 1.380 1_545 S
C1130 H1086 0.931 . S
C1130 C1129 1.380 1_565 S
C1130 C1131 1.387 . S
C1131 H1087 0.930 . S
C1131 C1126 1.386 1_565 S
C1131 C1130 1.387 . S
C1132 C1101 1.534 . S
C1132 C1133 1.377 1_565 S
C1132 C1137 1.361 . S
C1133 H1088 0.929 . S
C1133 C1132 1.377 1_545 S
C1133 C1134 1.386 . S
C1134 H1089 0.931 . S
C1134 C1133 1.386 . S
C1134 C1135 1.363 1_545 S
C1135 C1134 1.363 1_565 S
C1135 C1136 1.385 . S
C1136 H1090 0.930 . S
C1136 C1135 1.385 . S
C1136 C1137 1.396 . S
C1137 H1091 0.929 . S
C1137 C1132 1.361 . S
C1137 C1136 1.396 . S
C1138 O1092 1.300 . S
C1138 O1093 1.209 . S
C1138 C1111 1.486 . S
C1139 O1094 1.199 1_565 S
C1139 O1095 1.297 . S
C1139 C1123 1.476 . S
H1140 O1166 0.856 . S
H1141 O1169 0.854 . S
H1142 C1177 0.930 . S
H1143 C1178 0.930 . S
H1144 C1180 0.930 . S
H1145 C1181 0.930 . S
H1146 C1183 0.931 . S
H1147 C1184 0.930 . S
H1148 C1186 0.930 . S
H1149 C1187 0.929 . S
H1150 C1189 0.930 . S
H1151 C1190 0.931 . S
H1152 C1192 0.930 . S
H1153 C1193 0.929 . S
H1154 C1195 0.931 . S
H1155 C1196 0.930 . S
H1156 C1198 0.930 . S
H1157 C1199 0.932 . S
H1158 C1201 0.930 . S
H1159 C1202 0.929 . S
H1160 C1204 0.931 . S
H1161 C1205 0.930 . S
H1162 C1207 0.929 . S
H1163 C1208 0.931 . S
H1164 C1210 0.930 . S
H1165 C1211 0.929 . S
O1166 H1140 0.856 . S
O1166 C1212 1.300 . S
O1167 C1212 1.209 1_565 S
O1168 C1213 1.199 1_545 S
O1169 H1141 0.854 . S
O1169 C1213 1.297 . S
C1170 C1171 1.381 . S
C1170 C1175 1.380 1_545 S
C1170 C1176 1.541 . S
C1171 C1170 1.381 . S
C1171 C1172 1.413 . S
C1171 C1182 1.492 . S
C1172 C1171 1.413 . S
C1172 C1173 1.385 1_545 S
C1172 C1188 1.500 . S
C1173 C1172 1.385 1_565 S
C1173 C1174 1.412 . S
C1173 C1194 1.501 . S
C1174 C1173 1.412 . S
C1174 C1175 1.371 . S
C1174 C1200 1.492 . S
C1175 C1170 1.380 1_565 S
C1175 C1174 1.371 . S
C1175 C1206 1.519 . S
C1176 C1170 1.541 . S
C1176 C1177 1.363 . S
C1176 C1181 1.390 1_545 S
C1177 H1142 0.930 . S
C1177 C1176 1.363 . S
C1177 C1178 1.372 . S
C1178 H1143 0.930 . S
C1178 C1177 1.372 . S
C1178 C1179 1.383 . S
C1179 C1178 1.383 . S
C1179 C1180 1.395 1_545 S
C1180 H1144 0.930 . S
C1180 C1179 1.395 1_565 S
C1180 C1181 1.362 . S
C1181 H1145 0.930 . S
C1181 C1176 1.390 1_565 S
C1181 C1180 1.362 . S
C1182 C1171 1.492 . S
C1182 C1183 1.377 . S
C1182 C1187 1.397 1_545 S
C1183 H1146 0.931 . S
C1183 C1182 1.377 . S
C1183 C1184 1.376 . S
C1184 H1147 0.930 . S
C1184 C1183 1.376 . S
C1184 C1185 1.376 . S
C1185 C1184 1.376 . S
C1185 C1186 1.378 1_545 S
C1185 C1212 1.486 . S
C1186 H1148 0.930 . S
C1186 C1185 1.378 1_565 S
C1186 C1187 1.376 . S
C1187 H1149 0.929 . S
C1187 C1182 1.397 1_565 S
C1187 C1186 1.376 . S
C1188 C1172 1.500 . S
C1188 C1189 1.393 . S
C1188 C1193 1.384 1_545 S
C1189 H1150 0.930 . S
C1189 C1188 1.393 . S
C1189 C1190 1.375 . S
C1190 H1151 0.931 . S
C1190 C1189 1.375 . S
C1190 C1191 1.348 1_545 S
C1191 C1190 1.348 1_565 S
C1191 C1192 1.378 . S
C1192 H1152 0.930 . S
C1192 C1191 1.378 . S
C1192 C1193 1.399 . S
C1193 H1153 0.929 . S
C1193 C1188 1.384 1_565 S
C1193 C1192 1.399 . S
C1194 C1173 1.501 . S
C1194 C1195 1.394 1_565 S
C1194 C1199 1.360 . S
C1195 H1154 0.931 . S
C1195 C1194 1.394 1_545 S
C1195 C1196 1.372 . S
C1196 H1155 0.930 . S
C1196 C1195 1.372 . S
C1196 C1197 1.397 1_545 S
C1197 C1196 1.397 1_565 S
C1197 C1198 1.390 . S
C1197 C1213 1.476 . S
C1198 H1156 0.930 . S
C1198 C1197 1.390 . S
C1198 C1199 1.366 . S
C1199 H1157 0.932 . S
C1199 C1194 1.360 . S
C1199 C1198 1.366 . S
C1200 C1174 1.492 . S
C1200 C1201 1.365 1_565 S
C1200 C1205 1.404 . S
C1201 H1158 0.930 . S
C1201 C1200 1.365 1_545 S
C1201 C1202 1.381 . S
C1202 H1159 0.929 . S
C1202 C1201 1.381 . S
C1202 C1203 1.451 . S
C1203 C1202 1.451 . S
C1203 C1204 1.314 1_545 S
C1204 H1160 0.931 . S
C1204 C1203 1.314 1_565 S
C1204 C1205 1.387 . S
C1205 H1161 0.930 . S
C1205 C1200 1.404 . S
C1205 C1204 1.387 . S
C1206 C1175 1.519 . S
C1206 C1207 1.377 1_565 S
C1206 C1211 1.361 . S
C1207 H1162 0.929 . S
C1207 C1206 1.377 1_545 S
C1207 C1208 1.386 . S
C1208 H1163 0.931 . S
C1208 C1207 1.386 . S
C1208 C1209 1.363 1_545 S
C1209 C1208 1.363 1_565 S
C1209 C1210 1.385 . S
C1210 H1164 0.930 . S
C1210 C1209 1.385 . S
C1210 C1211 1.396 . S
C1211 H1165 0.929 . S
C1211 C1206 1.361 . S
C1211 C1210 1.396 . S
C1212 O1166 1.300 . S
C1212 O1167 1.209 1_545 S
C1212 C1185 1.486 . S
C1213 O1168 1.199 1_565 S
C1213 O1169 1.297 . S
C1213 C1197 1.476 . S
H1214 O1240 0.856 . S
H1215 O1243 0.854 . S
H1216 C1251 0.930 . S
H1217 C1252 0.930 . S
H1218 C1254 0.930 . S
H1219 C1255 0.930 . S
H1220 C1257 0.931 . S
H1221 C1258 0.930 . S
H1222 C1260 0.930 . S
H1223 C1261 0.929 . S
H1224 C1263 0.930 . S
H1225 C1264 0.931 . S
H1226 C1266 0.930 . S
H1227 C1267 0.929 . S
H1228 C1269 0.931 . S
H1229 C1270 0.930 . S
H1230 C1272 0.930 . S
H1231 C1273 0.932 . S
H1232 C1275 0.930 . S
H1233 C1276 0.929 . S
H1234 C1278 0.931 . S
H1235 C1279 0.930 . S
H1236 C1281 0.929 . S
H1237 C1282 0.931 . S
H1238 C1284 0.930 . S
H1239 C1285 0.929 . S
O1240 H1214 0.856 . S
O1240 C1286 1.300 . S
O1241 C1286 1.209 1_455 S
O1242 C1287 1.199 1_655 S
O1243 H1215 0.854 . S
O1243 C1287 1.297 . S
C1244 C1245 1.404 . S
C1244 C1249 1.396 1_655 S
C1244 C1250 1.492 . S
C1245 C1244 1.404 . S
C1245 C1246 1.357 . S
C1245 C1256 1.492 . S
C1246 C1245 1.357 . S
C1246 C1247 1.412 1_655 S
C1246 C1262 1.508 . S
C1247 C1246 1.412 1_455 S
C1247 C1248 1.403 . S
C1247 C1268 1.483 . S
C1248 C1247 1.403 . S
C1248 C1249 1.408 . S
C1248 C1274 1.495 . S
C1249 C1244 1.396 1_455 S
C1249 C1248 1.408 . S
C1249 C1280 1.515 . S
C1250 C1244 1.492 . S
C1250 C1251 1.363 . S
C1250 C1255 1.390 1_655 S
C1251 H1216 0.930 . S
C1251 C1250 1.363 . S
C1251 C1252 1.372 . S
C1252 H1217 0.930 . S
C1252 C1251 1.372 . S
C1252 C1253 1.383 . S
C1253 C1252 1.383 . S
C1253 C1254 1.395 1_655 S
C1254 H1218 0.930 . S
C1254 C1253 1.395 1_455 S
C1254 C1255 1.362 . S
C1255 H1219 0.930 . S
C1255 C1250 1.390 1_455 S
C1255 C1254 1.362 . S
C1256 C1245 1.492 . S
C1256 C1257 1.377 . S
C1256 C1261 1.397 1_655 S
C1257 H1220 0.931 . S
C1257 C1256 1.377 . S
C1257 C1258 1.376 . S
C1258 H1221 0.930 . S
C1258 C1257 1.376 . S
C1258 C1259 1.376 . S
C1259 C1258 1.376 . S
C1259 C1260 1.378 1_655 S
C1259 C1286 1.486 . S
C1260 H1222 0.930 . S
C1260 C1259 1.378 1_455 S
C1260 C1261 1.376 . S
C1261 H1223 0.929 . S
C1261 C1256 1.397 1_455 S
C1261 C1260 1.376 . S
C1262 C1246 1.508 . S
C1262 C1263 1.480 . S
C1262 C1267 1.329 1_655 S
C1263 H1224 0.930 . S
C1263 C1262 1.480 . S
C1263 C1264 1.375 . S
C1264 H1225 0.931 . S
C1264 C1263 1.375 . S
C1264 C1265 1.432 . S
C1265 C1264 1.432 . S
C1265 C1266 1.279 1_655 S
C1266 H1226 0.930 . S
C1266 C1265 1.279 1_455 S
C1266 C1267 1.399 . S
C1267 H1227 0.929 . S
C1267 C1262 1.329 1_455 S
C1267 C1266 1.399 . S
C1268 C1247 1.483 . S
C1268 C1269 1.394 1_455 S
C1268 C1273 1.360 . S
C1269 H1228 0.931 . S
C1269 C1268 1.394 1_655 S
C1269 C1270 1.372 . S
C1270 H1229 0.930 . S
C1270 C1269 1.372 . S
C1270 C1271 1.397 1_655 S
C1271 C1270 1.397 1_455 S
C1271 C1272 1.390 . S
C1271 C1287 1.476 . S
C1272 H1230 0.930 . S
C1272 C1271 1.390 . S
C1272 C1273 1.366 . S
C1273 H1231 0.932 . S
C1273 C1268 1.360 . S
C1273 C1272 1.366 . S
C1274 C1248 1.495 . S
C1274 C1275 1.347 1_455 S
C1274 C1279 1.410 . S
C1275 H1232 0.930 . S
C1275 C1274 1.347 1_655 S
C1275 C1276 1.381 . S
C1276 H1233 0.929 . S
C1276 C1275 1.381 . S
C1276 C1277 1.372 1_655 S
C1277 C1276 1.372 1_455 S
C1277 C1278 1.378 . S
C1278 H1234 0.931 . S
C1278 C1277 1.378 . S
C1278 C1279 1.387 . S
C1279 H1235 0.930 . S
C1279 C1274 1.410 . S
C1279 C1278 1.387 . S
C1280 C1249 1.515 . S
C1280 C1281 1.377 1_455 S
C1280 C1285 1.361 . S
C1281 H1236 0.929 . S
C1281 C1280 1.377 1_655 S
C1281 C1282 1.386 . S
C1282 H1237 0.931 . S
C1282 C1281 1.386 . S
C1282 C1283 1.363 1_655 S
C1283 C1282 1.363 1_455 S
C1283 C1284 1.385 . S
C1284 H1238 0.930 . S
C1284 C1283 1.385 . S
C1284 C1285 1.396 . S
C1285 H1239 0.929 . S
C1285 C1280 1.361 . S
C1285 C1284 1.396 . S
C1286 O1240 1.300 . S
C1286 O1241 1.209 1_655 S
C1286 C1259 1.486 . S
C1287 O1242 1.199 1_455 S
C1287 O1243 1.297 . S
C1287 C1271 1.476 . S
H1288 O1314 0.856 . S
H1289 O1317 0.854 . S
H1290 C1325 0.930 . S
H1291 C1326 0.930 . S
H1292 C1328 0.930 . S
H1293 C1329 0.930 . S
H1294 C1331 0.931 . S
H1295 C1332 0.930 . S
H1296 C1334 0.930 . S
H1297 C1335 0.929 . S
H1298 C1337 0.930 . S
H1299 C1338 0.931 . S
H1300 C1340 0.930 . S
H1301 C1341 0.929 . S
H1302 C1343 0.931 . S
H1303 C1344 0.930 . S
H1304 C1346 0.930 . S
H1305 C1347 0.932 . S
H1306 C1349 0.930 . S
H1307 C1350 0.929 . S
H1308 C1352 0.931 . S
H1309 C1353 0.930 . S
H1310 C1355 0.929 . S
H1311 C1356 0.931 . S
H1312 C1358 0.930 . S
H1313 C1359 0.929 . S
O1314 H1288 0.856 . S
O1314 C1360 1.300 . S
O1315 C1360 1.209 . S
O1316 C1361 1.199 . S
O1317 H1289 0.854 . S
O1317 C1361 1.297 . S
C1318 C1319 1.404 . S
C1318 C1323 1.397 . S
C1318 C1324 1.492 . S
C1319 C1318 1.404 . S
C1319 C1320 1.396 . S
C1319 C1330 1.492 . S
C1320 C1319 1.396 . S
C1320 C1321 1.397 . S
C1320 C1336 1.509 . S
C1321 C1320 1.397 . S
C1321 C1322 1.412 . S
C1321 C1342 1.485 . S
C1322 C1321 1.412 . S
C1322 C1323 1.388 . S
C1322 C1348 1.490 . S
C1323 C1318 1.397 . S
C1323 C1322 1.388 . S
C1323 C1354 1.519 . S
C1324 C1318 1.492 . S
C1324 C1325 1.363 . S
C1324 C1329 1.390 . S
C1325 H1290 0.930 . S
C1325 C1324 1.363 . S
C1325 C1326 1.372 . S
C1326 H1291 0.930 . S
C1326 C1325 1.372 . S
C1326 C1327 1.383 . S
C1327 C1326 1.383 . S
C1327 C1328 1.395 . S
C1328 H1292 0.930 . S
C1328 C1327 1.395 . S
C1328 C1329 1.362 . S
C1329 H1293 0.930 . S
C1329 C1324 1.390 . S
C1329 C1328 1.362 . S
C1330 C1319 1.492 . S
C1330 C1331 1.377 . S
C1330 C1335 1.397 . S
C1331 H1294 0.931 . S
C1331 C1330 1.377 . S
C1331 C1332 1.376 . S
C1332 H1295 0.930 . S
C1332 C1331 1.376 . S
C1332 C1333 1.376 . S
C1333 C1332 1.376 . S
C1333 C1334 1.378 . S
C1333 C1360 1.486 . S
C1334 H1296 0.930 . S
C1334 C1333 1.378 . S
C1334 C1335 1.376 . S
C1335 H1297 0.929 . S
C1335 C1330 1.397 . S
C1335 C1334 1.376 . S
C1336 C1320 1.509 . S
C1336 C1337 1.391 . S
C1336 C1341 1.386 . S
C1337 H1298 0.930 . S
C1337 C1336 1.391 . S
C1337 C1338 1.375 . S
C1338 H1299 0.931 . S
C1338 C1337 1.375 . S
C1338 C1339 1.375 . S
C1339 C1338 1.375 . S
C1339 C1340 1.361 . S
C1340 H1300 0.930 . S
C1340 C1339 1.361 . S
C1340 C1341 1.399 . S
C1341 H1301 0.929 . S
C1341 C1336 1.386 . S
C1341 C1340 1.399 . S
C1342 C1321 1.485 . S
C1342 C1343 1.394 . S
C1342 C1347 1.360 . S
C1343 H1302 0.931 . S
C1343 C1342 1.394 . S
C1343 C1344 1.372 . S
C1344 H1303 0.930 . S
C1344 C1343 1.372 . S
C1344 C1345 1.397 . S
C1345 C1344 1.397 . S
C1345 C1346 1.390 . S
C1345 C1361 1.476 . S
C1346 H1304 0.930 . S
C1346 C1345 1.390 . S
C1346 C1347 1.366 . S
C1347 H1305 0.932 . S
C1347 C1342 1.360 . S
C1347 C1346 1.366 . S
C1348 C1322 1.490 . S
C1348 C1349 1.380 . S
C1348 C1353 1.386 . S
C1349 H1306 0.930 . S
C1349 C1348 1.380 . S
C1349 C1350 1.381 . S
C1350 H1307 0.929 . S
C1350 C1349 1.381 . S
C1350 C1351 1.371 . S
C1351 C1350 1.371 . S
C1351 C1352 1.380 . S
C1352 H1308 0.931 . S
C1352 C1351 1.380 . S
C1352 C1353 1.387 . S
C1353 H1309 0.930 . S
C1353 C1348 1.386 . S
C1353 C1352 1.387 . S
C1354 C1323 1.519 . S
C1354 C1355 1.377 . S
C1354 C1359 1.361 . S
C1355 H1310 0.929 . S
C1355 C1354 1.377 . S
C1355 C1356 1.386 . S
C1356 H1311 0.931 . S
C1356 C1355 1.386 . S
C1356 C1357 1.363 . S
C1357 C1356 1.363 . S
C1357 C1358 1.385 . S
C1358 H1312 0.930 . S
C1358 C1357 1.385 . S
C1358 C1359 1.396 . S
C1359 H1313 0.929 . S
C1359 C1354 1.361 . S
C1359 C1358 1.396 . S
C1360 O1314 1.300 . S
C1360 O1315 1.209 . S
C1360 C1333 1.486 . S
C1361 O1316 1.199 . S
C1361 O1317 1.297 . S
C1361 C1345 1.476 . S
H1362 O1388 0.856 . S
H1363 O1391 0.854 . S
H1364 C1399 0.930 . S
H1365 C1400 0.930 . S
H1366 C1402 0.930 . S
H1367 C1403 0.930 . S
H1368 C1405 0.931 . S
H1369 C1406 0.930 . S
H1370 C1408 0.930 . S
H1371 C1409 0.929 . S
H1372 C1411 0.930 . S
H1373 C1412 0.931 . S
H1374 C1414 0.930 . S
H1375 C1415 0.929 . S
H1376 C1417 0.931 . S
H1377 C1418 0.930 . S
H1378 C1420 0.930 . S
H1379 C1421 0.932 . S
H1380 C1423 0.930 . S
H1381 C1424 0.929 . S
H1382 C1426 0.931 . S
H1383 C1427 0.930 . S
H1384 C1429 0.929 . S
H1385 C1430 0.931 . S
H1386 C1432 0.930 . S
H1387 C1433 0.929 . S
O1388 H1362 0.856 . S
O1388 C1434 1.300 . S
O1389 C1434 1.209 . S
O1390 C1435 1.199 . S
O1391 H1363 0.854 . S
O1391 C1435 1.297 . S
C1392 C1393 1.404 . S
C1392 C1397 1.397 . S
C1392 C1398 1.492 . S
C1393 C1392 1.404 . S
C1393 C1394 1.396 . S
C1393 C1404 1.492 . S
C1394 C1393 1.396 . S
C1394 C1395 1.397 . S
C1394 C1410 1.509 . S
C1395 C1394 1.397 . S
C1395 C1396 1.412 . S
C1395 C1416 1.485 . S
C1396 C1395 1.412 . S
C1396 C1397 1.388 . S
C1396 C1422 1.490 . S
C1397 C1392 1.397 . S
C1397 C1396 1.388 . S
C1397 C1428 1.519 . S
C1398 C1392 1.492 . S
C1398 C1399 1.363 . S
C1398 C1403 1.390 . S
C1399 H1364 0.930 . S
C1399 C1398 1.363 . S
C1399 C1400 1.372 . S
C1400 H1365 0.930 . S
C1400 C1399 1.372 . S
C1400 C1401 1.383 . S
C1401 C1400 1.383 . S
C1401 C1402 1.395 . S
C1402 H1366 0.930 . S
C1402 C1401 1.395 . S
C1402 C1403 1.362 . S
C1403 H1367 0.930 . S
C1403 C1398 1.390 . S
C1403 C1402 1.362 . S
C1404 C1393 1.492 . S
C1404 C1405 1.377 . S
C1404 C1409 1.397 . S
C1405 H1368 0.931 . S
C1405 C1404 1.377 . S
C1405 C1406 1.376 . S
C1406 H1369 0.930 . S
C1406 C1405 1.376 . S
C1406 C1407 1.376 . S
C1407 C1406 1.376 . S
C1407 C1408 1.378 . S
C1407 C1434 1.486 . S
C1408 H1370 0.930 . S
C1408 C1407 1.378 . S
C1408 C1409 1.376 . S
C1409 H1371 0.929 . S
C1409 C1404 1.397 . S
C1409 C1408 1.376 . S
C1410 C1394 1.509 . S
C1410 C1411 1.391 . S
C1410 C1415 1.386 . S
C1411 H1372 0.930 . S
C1411 C1410 1.391 . S
C1411 C1412 1.375 . S
C1412 H1373 0.931 . S
C1412 C1411 1.375 . S
C1412 C1413 1.375 . S
C1413 C1412 1.375 . S
C1413 C1414 1.361 . S
C1414 H1374 0.930 . S
C1414 C1413 1.361 . S
C1414 C1415 1.399 . S
C1415 H1375 0.929 . S
C1415 C1410 1.386 . S
C1415 C1414 1.399 . S
C1416 C1395 1.485 . S
C1416 C1417 1.394 . S
C1416 C1421 1.360 . S
C1417 H1376 0.931 . S
C1417 C1416 1.394 . S
C1417 C1418 1.372 . S
C1418 H1377 0.930 . S
C1418 C1417 1.372 . S
C1418 C1419 1.397 . S
C1419 C1418 1.397 . S
C1419 C1420 1.390 . S
C1419 C1435 1.476 . S
C1420 H1378 0.930 . S
C1420 C1419 1.390 . S
C1420 C1421 1.366 . S
C1421 H1379 0.932 . S
C1421 C1416 1.360 . S
C1421 C1420 1.366 . S
C1422 C1396 1.490 . S
C1422 C1423 1.380 . S
C1422 C1427 1.386 . S
C1423 H1380 0.930 . S
C1423 C1422 1.380 . S
C1423 C1424 1.381 . S
C1424 H1381 0.929 . S
C1424 C1423 1.381 . S
C1424 C1425 1.371 . S
C1425 C1424 1.371 . S
C1425 C1426 1.380 . S
C1426 H1382 0.931 . S
C1426 C1425 1.380 . S
C1426 C1427 1.387 . S
C1427 H1383 0.930 . S
C1427 C1422 1.386 . S
C1427 C1426 1.387 . S
C1428 C1397 1.519 . S
C1428 C1429 1.377 . S
C1428 C1433 1.361 . S
C1429 H1384 0.929 . S
C1429 C1428 1.377 . S
C1429 C1430 1.386 . S
C1430 H1385 0.931 . S
C1430 C1429 1.386 . S
C1430 C1431 1.363 . S
C1431 C1430 1.363 . S
C1431 C1432 1.385 . S
C1432 H1386 0.930 . S
C1432 C1431 1.385 . S
C1432 C1433 1.396 . S
C1433 H1387 0.929 . S
C1433 C1428 1.361 . S
C1433 C1432 1.396 . S
C1434 O1388 1.300 . S
C1434 O1389 1.209 . S
C1434 C1407 1.486 . S
C1435 O1390 1.199 . S
C1435 O1391 1.297 . S
C1435 C1419 1.476 . S
H1436 O1462 0.856 . S
H1437 O1465 0.854 . S
H1438 C1473 0.930 . S
H1439 C1474 0.930 . S
H1440 C1476 0.930 . S
H1441 C1477 0.930 . S
H1442 C1479 0.931 . S
H1443 C1480 0.930 . S
H1444 C1482 0.930 . S
H1445 C1483 0.929 . S
H1446 C1485 0.930 . S
H1447 C1486 0.931 . S
H1448 C1488 0.930 . S
H1449 C1489 0.929 . S
H1450 C1491 0.931 . S
H1451 C1492 0.930 . S
H1452 C1494 0.930 . S
H1453 C1495 0.932 . S
H1454 C1497 0.930 . S
H1455 C1498 0.929 . S
H1456 C1500 0.931 . S
H1457 C1501 0.930 . S
H1458 C1503 0.929 . S
H1459 C1504 0.931 . S
H1460 C1506 0.930 . S
H1461 C1507 0.929 . S
O1462 H1436 0.856 . S
O1462 C1508 1.300 . S
O1463 C1508 1.209 . S
O1464 C1509 1.199 . S
O1465 H1437 0.854 . S
O1465 C1509 1.297 . S
C1466 C1467 1.404 . S
C1466 C1471 1.397 . S
C1466 C1472 1.492 . S
C1467 C1466 1.404 . S
C1467 C1468 1.396 . S
C1467 C1478 1.492 . S
C1468 C1467 1.396 . S
C1468 C1469 1.397 . S
C1468 C1484 1.509 . S
C1469 C1468 1.397 . S
C1469 C1470 1.412 . S
C1469 C1490 1.485 . S
C1470 C1469 1.412 . S
C1470 C1471 1.388 . S
C1470 C1496 1.490 . S
C1471 C1466 1.397 . S
C1471 C1470 1.388 . S
C1471 C1502 1.519 . S
C1472 C1466 1.492 . S
C1472 C1473 1.363 . S
C1472 C1477 1.390 . S
C1473 H1438 0.930 . S
C1473 C1472 1.363 . S
C1473 C1474 1.372 . S
C1474 H1439 0.930 . S
C1474 C1473 1.372 . S
C1474 C1475 1.383 . S
C1475 C1474 1.383 . S
C1475 C1476 1.395 . S
C1476 H1440 0.930 . S
C1476 C1475 1.395 . S
C1476 C1477 1.362 . S
C1477 H1441 0.930 . S
C1477 C1472 1.390 . S
C1477 C1476 1.362 . S
C1478 C1467 1.492 . S
C1478 C1479 1.377 . S
C1478 C1483 1.397 . S
C1479 H1442 0.931 . S
C1479 C1478 1.377 . S
C1479 C1480 1.376 . S
C1480 H1443 0.930 . S
C1480 C1479 1.376 . S
C1480 C1481 1.376 . S
C1481 C1480 1.376 . S
C1481 C1482 1.378 . S
C1481 C1508 1.486 . S
C1482 H1444 0.930 . S
C1482 C1481 1.378 . S
C1482 C1483 1.376 . S
C1483 H1445 0.929 . S
C1483 C1478 1.397 . S
C1483 C1482 1.376 . S
C1484 C1468 1.509 . S
C1484 C1485 1.391 . S
C1484 C1489 1.386 . S
C1485 H1446 0.930 . S
C1485 C1484 1.391 . S
C1485 C1486 1.375 . S
C1486 H1447 0.931 . S
C1486 C1485 1.375 . S
C1486 C1487 1.375 . S
C1487 C1486 1.375 . S
C1487 C1488 1.361 . S
C1488 H1448 0.930 . S
C1488 C1487 1.361 . S
C1488 C1489 1.399 . S
C1489 H1449 0.929 . S
C1489 C1484 1.386 . S
C1489 C1488 1.399 . S
C1490 C1469 1.485 . S
C1490 C1491 1.394 . S
C1490 C1495 1.360 . S
C1491 H1450 0.931 . S
C1491 C1490 1.394 . S
C1491 C1492 1.372 . S
C1492 H1451 0.930 . S
C1492 C1491 1.372 . S
C1492 C1493 1.397 . S
C1493 C1492 1.397 . S
C1493 C1494 1.390 . S
C1493 C1509 1.476 . S
C1494 H1452 0.930 . S
C1494 C1493 1.390 . S
C1494 C1495 1.366 . S
C1495 H1453 0.932 . S
C1495 C1490 1.360 . S
C1495 C1494 1.366 . S
C1496 C1470 1.490 . S
C1496 C1497 1.380 . S
C1496 C1501 1.386 . S
C1497 H1454 0.930 . S
C1497 C1496 1.380 . S
C1497 C1498 1.381 . S
C1498 H1455 0.929 . S
C1498 C1497 1.381 . S
C1498 C1499 1.371 . S
C1499 C1498 1.371 . S
C1499 C1500 1.380 . S
C1500 H1456 0.931 . S
C1500 C1499 1.380 . S
C1500 C1501 1.387 . S
C1501 H1457 0.930 . S
C1501 C1496 1.386 . S
C1501 C1500 1.387 . S
C1502 C1471 1.519 . S
C1502 C1503 1.377 . S
C1502 C1507 1.361 . S
C1503 H1458 0.929 . S
C1503 C1502 1.377 . S
C1503 C1504 1.386 . S
C1504 H1459 0.931 . S
C1504 C1503 1.386 . S
C1504 C1505 1.363 . S
C1505 C1504 1.363 . S
C1505 C1506 1.385 . S
C1506 H1460 0.930 . S
C1506 C1505 1.385 . S
C1506 C1507 1.396 . S
C1507 H1461 0.929 . S
C1507 C1502 1.361 . S
C1507 C1506 1.396 . S
C1508 O1462 1.300 . S
C1508 O1463 1.209 . S
C1508 C1481 1.486 . S
C1509 O1464 1.199 . S
C1509 O1465 1.297 . S
C1509 C1493 1.476 . S
H1510 O1536 0.856 . S
H1511 O1539 0.854 . S
H1512 C1547 0.930 . S
H1513 C1548 0.930 . S
H1514 C1550 0.930 . S
H1515 C1551 0.930 . S
H1516 C1553 0.931 . S
H1517 C1554 0.930 . S
H1518 C1556 0.930 . S
H1519 C1557 0.929 . S
H1520 C1559 0.930 . S
H1521 C1560 0.931 . S
H1522 C1562 0.930 . S
H1523 C1563 0.929 . S
H1524 C1565 0.931 . S
H1525 C1566 0.930 . S
H1526 C1568 0.930 . S
H1527 C1569 0.932 . S
H1528 C1571 0.930 . S
H1529 C1572 0.929 . S
H1530 C1574 0.931 . S
H1531 C1575 0.930 . S
H1532 C1577 0.929 . S
H1533 C1578 0.931 . S
H1534 C1580 0.930 . S
H1535 C1581 0.929 . S
O1536 H1510 0.856 . S
O1536 C1582 1.300 . S
O1537 C1582 1.209 . S
O1538 C1583 1.199 . S
O1539 H1511 0.854 . S
O1539 C1583 1.297 . S
C1540 C1541 1.404 . S
C1540 C1545 1.397 . S
C1540 C1546 1.492 . S
C1541 C1540 1.404 . S
C1541 C1542 1.396 . S
C1541 C1552 1.492 . S
C1542 C1541 1.396 . S
C1542 C1543 1.397 . S
C1542 C1558 1.509 . S
C1543 C1542 1.397 . S
C1543 C1544 1.412 . S
C1543 C1564 1.485 . S
C1544 C1543 1.412 . S
C1544 C1545 1.388 . S
C1544 C1570 1.490 . S
C1545 C1540 1.397 . S
C1545 C1544 1.388 . S
C1545 C1576 1.519 . S
C1546 C1540 1.492 . S
C1546 C1547 1.363 . S
C1546 C1551 1.390 . S
C1547 H1512 0.930 . S
C1547 C1546 1.363 . S
C1547 C1548 1.372 . S
C1548 H1513 0.930 . S
C1548 C1547 1.372 . S
C1548 C1549 1.383 . S
C1549 C1548 1.383 . S
C1549 C1550 1.395 . S
C1550 H1514 0.930 . S
C1550 C1549 1.395 . S
C1550 C1551 1.362 . S
C1551 H1515 0.930 . S
C1551 C1546 1.390 . S
C1551 C1550 1.362 . S
C1552 C1541 1.492 . S
C1552 C1553 1.377 . S
C1552 C1557 1.397 . S
C1553 H1516 0.931 . S
C1553 C1552 1.377 . S
C1553 C1554 1.376 . S
C1554 H1517 0.930 . S
C1554 C1553 1.376 . S
C1554 C1555 1.376 . S
C1555 C1554 1.376 . S
C1555 C1556 1.378 . S
C1555 C1582 1.486 . S
C1556 H1518 0.930 . S
C1556 C1555 1.378 . S
C1556 C1557 1.376 . S
C1557 H1519 0.929 . S
C1557 C1552 1.397 . S
C1557 C1556 1.376 . S
C1558 C1542 1.509 . S
C1558 C1559 1.391 . S
C1558 C1563 1.386 . S
C1559 H1520 0.930 . S
C1559 C1558 1.391 . S
C1559 C1560 1.375 . S
C1560 H1521 0.931 . S
C1560 C1559 1.375 . S
C1560 C1561 1.375 . S
C1561 C1560 1.375 . S
C1561 C1562 1.361 . S
C1562 H1522 0.930 . S
C1562 C1561 1.361 . S
C1562 C1563 1.399 . S
C1563 H1523 0.929 . S
C1563 C1558 1.386 . S
C1563 C1562 1.399 . S
C1564 C1543 1.485 . S
C1564 C1565 1.394 . S
C1564 C1569 1.360 . S
C1565 H1524 0.931 . S
C1565 C1564 1.394 . S
C1565 C1566 1.372 . S
C1566 H1525 0.930 . S
C1566 C1565 1.372 . S
C1566 C1567 1.397 . S
C1567 C1566 1.397 . S
C1567 C1568 1.390 . S
C1567 C1583 1.476 . S
C1568 H1526 0.930 . S
C1568 C1567 1.390 . S
C1568 C1569 1.366 . S
C1569 H1527 0.932 . S
C1569 C1564 1.360 . S
C1569 C1568 1.366 . S
C1570 C1544 1.490 . S
C1570 C1571 1.380 . S
C1570 C1575 1.386 . S
C1571 H1528 0.930 . S
C1571 C1570 1.380 . S
C1571 C1572 1.381 . S
C1572 H1529 0.929 . S
C1572 C1571 1.381 . S
C1572 C1573 1.371 . S
C1573 C1572 1.371 . S
C1573 C1574 1.380 . S
C1574 H1530 0.931 . S
C1574 C1573 1.380 . S
C1574 C1575 1.387 . S
C1575 H1531 0.930 . S
C1575 C1570 1.386 . S
C1575 C1574 1.387 . S
C1576 C1545 1.519 . S
C1576 C1577 1.377 . S
C1576 C1581 1.361 . S
C1577 H1532 0.929 . S
C1577 C1576 1.377 . S
C1577 C1578 1.386 . S
C1578 H1533 0.931 . S
C1578 C1577 1.386 . S
C1578 C1579 1.363 . S
C1579 C1578 1.363 . S
C1579 C1580 1.385 . S
C1580 H1534 0.930 . S
C1580 C1579 1.385 . S
C1580 C1581 1.396 . S
C1581 H1535 0.929 . S
C1581 C1576 1.361 . S
C1581 C1580 1.396 . S
C1582 O1536 1.300 . S
C1582 O1537 1.209 . S
C1582 C1555 1.486 . S
C1583 O1538 1.199 . S
C1583 O1539 1.297 . S
C1583 C1567 1.476 . S
C1584 C1585 1.355 . S
C1584 C1586 1.318 1_455 S
C1584 H1609 0.950 . S
C1585 C1584 1.355 . S
C1585 C1601 1.316 1_455 S
C1586 C1584 1.318 1_655 S
C1586 C1605 1.440 . S
C1586 H1610 0.947 1_655 S
C1587 C1604 1.574 . S
C1587 C1606 1.368 . S
C1587 H1611 0.949 . S
H1588 C1592 0.949 . S
C1589 C1590 1.349 . S
C1589 C1591 1.327 . S
C1589 H1612 0.950 . S
C1590 C1589 1.349 . S
C1590 C1602 1.349 . S
C1591 C1589 1.327 . S
C1591 C1607 1.429 . S
C1591 H1613 0.950 . S
C1592 H1588 0.949 . S
C1592 C1600 1.574 . S
C1592 C1608 1.368 . S
H1593 C1601 0.950 . S
H1594 C1599 0.950 . S
H1595 C1600 0.949 . S
H1596 C1602 0.950 . S
H1597 C1603 0.950 . S
H1598 C1604 0.949 . S
C1599 H1594 0.950 . S
C1599 C1601 1.327 . S
C1599 C1605 1.429 . S
C1600 C1592 1.574 . S
C1600 H1595 0.949 . S
C1600 C1606 1.368 . S
C1601 C1585 1.316 1_655 S
C1601 H1593 0.950 . S
C1601 C1599 1.327 . S
C1602 C1590 1.349 . S
C1602 H1596 0.950 . S
C1602 C1603 1.327 . S
C1603 H1597 0.950 . S
C1603 C1602 1.327 . S
C1603 C1607 1.429 . S
C1604 C1587 1.574 . S
C1604 H1598 0.949 . S
C1604 C1608 1.368 . S
C1605 C1586 1.440 . S
C1605 C1599 1.429 . S
C1605 C1606 1.523 . S
C1606 C1587 1.368 . S
C1606 C1600 1.368 . S
C1606 C1605 1.523 . S
C1607 C1591 1.429 . S
C1607 C1603 1.429 . S
C1607 C1608 1.523 . S
C1608 C1592 1.368 . S
C1608 C1604 1.368 . S
C1608 C1607 1.523 . S
H1609 C1584 0.950 . S
H1610 C1586 0.947 1_455 S
H1611 C1587 0.949 . S
H1612 C1589 0.950 . S
H1613 C1591 0.950 . S
C1614 C1615 1.349 . S
C1614 C1616 1.327 . S
C1614 H1639 0.950 . S
C1615 C1614 1.349 . S
C1615 C1631 1.349 . S
C1616 C1614 1.327 . S
C1616 C1635 1.429 . S
C1616 H1640 0.950 . S
C1617 C1634 1.574 . S
C1617 C1636 1.368 . S
C1617 H1641 0.949 . S
H1618 C1622 0.949 . S
C1619 C1620 1.349 . S
C1619 C1621 1.327 . S
C1619 H1642 0.950 . S
C1620 C1619 1.349 . S
C1620 C1632 1.349 . S
C1621 C1619 1.327 . S
C1621 C1637 1.429 . S
C1621 H1643 0.950 . S
C1622 H1618 0.949 . S
C1622 C1630 1.574 . S
C1622 C1638 1.368 . S
H1623 C1631 0.950 . S
H1624 C1629 0.950 . S
H1625 C1630 0.949 . S
H1626 C1632 0.950 . S
H1627 C1633 0.950 . S
H1628 C1634 0.949 . S
C1629 H1624 0.950 . S
C1629 C1631 1.327 . S
C1629 C1635 1.429 . S
C1630 C1622 1.574 . S
C1630 H1625 0.949 . S
C1630 C1636 1.368 . S
C1631 C1615 1.349 . S
C1631 H1623 0.950 . S
C1631 C1629 1.327 . S
C1632 C1620 1.349 . S
C1632 H1626 0.950 . S
C1632 C1633 1.327 . S
C1633 H1627 0.950 . S
C1633 C1632 1.327 . S
C1633 C1637 1.429 . S
C1634 C1617 1.574 . S
C1634 H1628 0.949 . S
C1634 C1638 1.368 . S
C1635 C1616 1.429 . S
C1635 C1629 1.429 . S
C1635 C1636 1.523 . S
C1636 C1617 1.368 . S
C1636 C1630 1.368 . S
C1636 C1635 1.523 . S
C1637 C1621 1.429 . S
C1637 C1633 1.429 . S
C1637 C1638 1.523 . S
C1638 C1622 1.368 . S
C1638 C1634 1.368 . S
C1638 C1637 1.523 . S
H1639 C1614 0.950 . S
H1640 C1616 0.950 . S
H1641 C1617 0.949 . S
H1642 C1619 0.950 . S
H1643 C1621 0.950 . S
C1644 C1645 1.349 . S
C1644 C1646 1.327 . S
C1644 H1669 0.950 . S
C1645 C1644 1.349 . S
C1645 C1661 1.349 1_545 S
C1646 C1644 1.327 . S
C1646 C1665 1.429 . S
C1646 H1670 0.950 . S
C1647 C1664 1.574 . S
C1647 C1666 1.368 1_565 S
C1647 H1671 0.949 . S
H1648 C1652 0.949 . S
C1649 C1650 1.349 1_565 S
C1649 C1651 1.327 . S
C1649 H1672 0.950 . S
C1650 C1649 1.349 1_545 S
C1650 C1662 1.349 . S
C1651 C1649 1.327 . S
C1651 C1667 1.429 1_565 S
C1651 H1673 0.950 . S
C1652 H1648 0.949 . S
C1652 C1660 1.574 . S
C1652 C1668 1.368 . S
H1653 C1661 0.950 . S
H1654 C1659 0.950 . S
H1655 C1660 0.949 . S
H1656 C1662 0.950 . S
H1657 C1663 0.950 . S
H1658 C1664 0.949 . S
C1659 H1654 0.950 . S
C1659 C1661 1.327 . S
C1659 C1665 1.429 1_565 S
C1660 C1652 1.574 . S
C1660 H1655 0.949 . S
C1660 C1666 1.368 . S
C1661 C1645 1.349 1_565 S
C1661 H1653 0.950 . S
C1661 C1659 1.327 . S
C1662 C1650 1.349 . S
C1662 H1656 0.950 . S
C1662 C1663 1.327 . S
C1663 H1657 0.950 . S
C1663 C1662 1.327 . S
C1663 C1667 1.429 . S
C1664 C1647 1.574 . S
C1664 H1658 0.949 . S
C1664 C1668 1.368 1_565 S
C1665 C1646 1.429 . S
C1665 C1659 1.429 1_545 S
C1665 C1666 1.523 . S
C1666 C1647 1.368 1_545 S
C1666 C1660 1.368 . S
C1666 C1665 1.523 . S
C1667 C1651 1.429 1_545 S
C1667 C1663 1.429 . S
C1667 C1668 1.523 . S
C1668 C1652 1.368 . S
C1668 C1664 1.368 1_545 S
C1668 C1667 1.523 . S
H1669 C1644 0.950 . S
H1670 C1646 0.950 . S
H1671 C1647 0.949 . S
H1672 C1649 0.950 . S
H1673 C1651 0.950 . S
C1674 C1675 1.349 . S
C1674 C1676 1.327 . S
C1674 H1699 0.950 . S
C1675 C1674 1.349 . S
C1675 C1691 1.349 1_565 S
C1676 C1674 1.327 . S
C1676 C1695 1.429 . S
C1676 H1700 0.950 . S
C1677 C1694 1.574 . S
C1677 C1696 1.368 1_545 S
C1677 H1701 0.949 . S
H1678 C1682 0.949 . S
C1679 C1680 1.349 1_545 S
C1679 C1681 1.327 . S
C1679 H1702 0.950 . S
C1680 C1679 1.349 1_565 S
C1680 C1692 1.349 . S
C1681 C1679 1.327 . S
C1681 C1697 1.429 1_545 S
C1681 H1703 0.950 . S
C1682 H1678 0.949 . S
C1682 C1690 1.574 . S
C1682 C1698 1.368 . S
H1683 C1691 0.950 . S
H1684 C1689 0.950 . S
H1685 C1690 0.949 . S
H1686 C1692 0.950 . S
H1687 C1693 0.950 . S
H1688 C1694 0.949 . S
C1689 H1684 0.950 . S
C1689 C1691 1.327 . S
C1689 C1695 1.429 1_545 S
C1690 C1682 1.574 . S
C1690 H1685 0.949 . S
C1690 C1696 1.368 . S
C1691 C1675 1.349 1_545 S
C1691 H1683 0.950 . S
C1691 C1689 1.327 . S
C1692 C1680 1.349 . S
C1692 H1686 0.950 . S
C1692 C1693 1.327 . S
C1693 H1687 0.950 . S
C1693 C1692 1.327 . S
C1693 C1697 1.429 . S
C1694 C1677 1.574 . S
C1694 H1688 0.949 . S
C1694 C1698 1.368 1_545 S
C1695 C1676 1.429 . S
C1695 C1689 1.429 1_565 S
C1695 C1696 1.523 . S
C1696 C1677 1.368 1_565 S
C1696 C1690 1.368 . S
C1696 C1695 1.523 . S
C1697 C1681 1.429 1_565 S
C1697 C1693 1.429 . S
C1697 C1698 1.523 . S
C1698 C1682 1.368 . S
C1698 C1694 1.368 1_565 S
C1698 C1697 1.523 . S
H1699 C1674 0.950 . S
H1700 C1676 0.950 . S
H1701 C1677 0.949 . S
H1702 C1679 0.950 . S
H1703 C1681 0.950 . S
C1704 C1705 1.349 1_655 S
C1704 C1706 1.337 1_655 S
C1704 H1729 0.950 . S
C1705 C1704 1.349 1_455 S
C1705 C1721 1.349 . S
C1706 C1704 1.337 1_455 S
C1706 C1725 1.423 . S
C1706 H1730 0.947 1_455 S
C1707 C1724 1.574 . S
C1707 C1726 1.368 . S
C1707 H1731 0.949 . S
H1708 C1712 0.943 1_655 S
C1709 C1710 1.349 . S
C1709 C1711 1.327 . S
C1709 H1732 0.950 . S
C1710 C1709 1.349 . S
C1710 C1722 1.349 . S
C1711 C1709 1.327 . S
C1711 C1727 1.429 . S
C1711 H1733 0.950 . S
C1712 H1708 0.943 1_455 S
C1712 C1720 1.574 . S
C1712 C1728 1.368 . S
H1713 C1721 0.950 1_554 S
H1714 C1719 0.950 . S
H1715 C1720 0.949 1_655 S
H1716 C1722 0.950 . S
H1717 C1723 0.947 . S
H1718 C1724 0.949 . S
C1719 H1714 0.950 . S
C1719 C1721 1.327 . S
C1719 C1725 1.429 . S
C1720 C1712 1.574 . S
C1720 H1715 0.949 1_455 S
C1720 C1726 1.368 . S
C1721 C1705 1.349 . S
C1721 H1713 0.950 1_556 S
C1721 C1719 1.327 . S
C1722 C1710 1.349 . S
C1722 H1716 0.950 . S
C1722 C1723 1.327 . S
C1723 H1717 0.947 . S
C1723 C1722 1.327 . S
C1723 C1727 1.429 . S
C1724 C1707 1.574 . S
C1724 H1718 0.949 . S
C1724 C1728 1.368 . S
C1725 C1706 1.423 . S
C1725 C1719 1.429 . S
C1725 C1726 1.523 . S
C1726 C1707 1.368 . S
C1726 C1720 1.368 . S
C1726 C1725 1.523 . S
C1727 C1711 1.429 . S
C1727 C1723 1.429 . S
C1727 C1728 1.523 . S
C1728 C1712 1.368 . S
C1728 C1724 1.368 . S
C1728 C1727 1.523 . S
H1729 C1704 0.950 . S
H1730 C1706 0.947 1_655 S
H1731 C1707 0.949 . S
H1732 C1709 0.950 . S
H1733 C1711 0.950 . S
C1734 C1735 1.349 . S
C1734 C1736 1.327 . S
C1734 H1759 0.950 . S
C1735 C1734 1.349 . S
C1735 C1751 1.349 . S
C1736 C1734 1.327 . S
C1736 C1755 1.429 1_554 S
C1736 H1760 0.950 . S
C1737 C1754 1.574 . S
C1737 C1756 1.368 . S
C1737 H1761 0.949 . S
H1738 C1742 0.949 . S
C1739 C1740 1.349 . S
C1739 C1741 1.327 . S
C1739 H1762 0.950 . S
C1740 C1739 1.349 . S
C1740 C1752 1.349 . S
C1741 C1739 1.327 . S
C1741 C1757 1.429 . S
C1741 H1763 0.950 . S
C1742 H1738 0.949 . S
C1742 C1750 1.574 . S
C1742 C1758 1.368 . S
H1743 C1751 0.950 . S
H1744 C1749 0.950 . S
H1745 C1750 0.949 . S
H1746 C1752 0.950 . S
H1747 C1753 0.950 . S
H1748 C1754 0.949 . S
C1749 H1744 0.950 . S
C1749 C1751 1.327 1_556 S
C1749 C1755 1.429 . S
C1750 C1742 1.574 . S
C1750 H1745 0.949 . S
C1750 C1756 1.368 . S
C1751 C1735 1.349 . S
C1751 H1743 0.950 . S
C1751 C1749 1.327 1_554 S
C1752 C1740 1.349 . S
C1752 H1746 0.950 . S
C1752 C1753 1.327 . S
C1753 H1747 0.950 . S
C1753 C1752 1.327 . S
C1753 C1757 1.429 . S
C1754 C1737 1.574 . S
C1754 H1748 0.949 . S
C1754 C1758 1.368 . S
C1755 C1736 1.429 1_556 S
C1755 C1749 1.429 . S
C1755 C1756 1.523 . S
C1756 C1737 1.368 . S
C1756 C1750 1.368 . S
C1756 C1755 1.523 . S
C1757 C1741 1.429 . S
C1757 C1753 1.429 . S
C1757 C1758 1.523 . S
C1758 C1742 1.368 . S
C1758 C1754 1.368 . S
C1758 C1757 1.523 . S
H1759 C1734 0.950 . S
H1760 C1736 0.950 . S
H1761 C1737 0.949 . S
H1762 C1739 0.950 . S
H1763 C1741 0.950 . S
C1764 C1765 1.349 1_655 S
C1764 C1766 1.327 1_554 S
C1764 H1789 0.950 . S
C1765 C1764 1.349 1_455 S
C1765 C1781 1.349 . S
C1766 C1764 1.327 1_556 S
C1766 C1785 1.368 1_655 S
C1766 H1790 0.950 . S
C1767 C1784 1.574 . S
C1767 C1786 1.413 . S
C1767 H1791 0.949 . S
H1768 C1772 0.949 . S
C1769 C1770 1.342 1_455 S
C1769 C1771 1.327 . S
C1769 H1792 0.950 . S
C1770 C1769 1.342 1_655 S
C1770 C1782 1.363 . S
C1771 C1769 1.327 . S
C1771 C1787 1.428 . S
C1771 H1793 0.950 . S
C1772 H1768 0.949 . S
C1772 C1780 1.574 . S
C1772 C1788 1.353 1_655 S
H1773 C1781 0.950 . S
H1774 C1779 0.950 . S
H1775 C1780 0.949 . S
H1776 C1782 0.950 . S
H1777 C1783 0.950 . S
H1778 C1784 0.949 . S
C1779 H1774 0.950 . S
C1779 C1781 1.327 1_556 S
C1779 C1785 1.459 . S
C1780 C1772 1.574 . S
C1780 H1775 0.949 . S
C1780 C1786 1.342 1_655 S
C1781 C1765 1.349 . S
C1781 H1773 0.950 . S
C1781 C1779 1.327 1_554 S
C1782 C1770 1.363 . S
C1782 H1776 0.950 . S
C1782 C1783 1.327 . S
C1783 H1777 0.950 . S
C1783 C1782 1.327 . S
C1783 C1787 1.429 1_655 S
C1784 C1767 1.574 . S
C1784 H1778 0.949 . S
C1784 C1788 1.378 . S
C1785 C1766 1.368 1_455 S
C1785 C1779 1.459 . S
C1785 C1786 1.531 . S
C1786 C1767 1.413 . S
C1786 C1780 1.342 1_455 S
C1786 C1785 1.531 . S
C1787 C1771 1.428 . S
C1787 C1783 1.429 1_455 S
C1787 C1788 1.531 . S
C1788 C1772 1.353 1_455 S
C1788 C1784 1.378 . S
C1788 C1787 1.531 . S
H1789 C1764 0.950 . S
H1790 C1766 0.950 . S
H1791 C1767 0.949 . S
H1792 C1769 0.950 . S
H1793 C1771 0.950 . S
C1794 C1795 1.349 . S
C1794 C1796 1.327 . S
C1794 H1819 0.950 . S
C1795 C1794 1.349 . S
C1795 C1811 1.349 . S
C1796 C1794 1.327 . S
C1796 C1815 1.429 . S
C1796 H1820 0.950 . S
C1797 C1814 1.574 . S
C1797 C1816 1.368 . S
C1797 H1821 0.949 . S
H1798 C1802 0.949 . S
C1799 C1800 1.349 . S
C1799 C1801 1.327 . S
C1799 H1822 0.950 . S
C1800 C1799 1.349 . S
C1800 C1812 1.349 . S
C1801 C1799 1.327 . S
C1801 C1817 1.429 . S
C1801 H1823 0.950 . S
C1802 H1798 0.949 . S
C1802 C1810 1.574 . S
C1802 C1818 1.368 . S
H1803 C1811 0.950 . S
H1804 C1809 0.950 . S
H1805 C1810 0.949 . S
H1806 C1812 0.950 . S
H1807 C1813 0.950 . S
H1808 C1814 0.949 . S
C1809 H1804 0.950 . S
C1809 C1811 1.327 . S
C1809 C1815 1.429 . S
C1810 C1802 1.574 . S
C1810 H1805 0.949 . S
C1810 C1816 1.368 . S
C1811 C1795 1.349 . S
C1811 H1803 0.950 . S
C1811 C1809 1.327 . S
C1812 C1800 1.349 . S
C1812 H1806 0.950 . S
C1812 C1813 1.327 . S
C1813 H1807 0.950 . S
C1813 C1812 1.327 . S
C1813 C1817 1.429 . S
C1814 C1797 1.574 . S
C1814 H1808 0.949 . S
C1814 C1818 1.368 . S
C1815 C1796 1.429 . S
C1815 C1809 1.429 . S
C1815 C1816 1.523 . S
C1816 C1797 1.368 . S
C1816 C1810 1.368 . S
C1816 C1815 1.523 . S
C1817 C1801 1.429 . S
C1817 C1813 1.429 . S
C1817 C1818 1.523 . S
C1818 C1802 1.368 . S
C1818 C1814 1.368 . S
C1818 C1817 1.523 . S
H1819 C1794 0.950 . S
H1820 C1796 0.950 . S
H1821 C1797 0.949 . S
H1822 C1799 0.950 . S
H1823 C1801 0.950 . S
C1824 C1825 1.329 1_546 S
C1824 C1826 1.351 . S
C1824 H1849 0.946 1_556 S
C1825 C1824 1.329 1_564 S
C1825 C1841 1.349 . S
C1826 C1824 1.351 . S
C1826 C1845 1.429 1_545 S
C1826 H1850 0.950 . S
C1827 C1844 1.574 . S
C1827 C1846 1.368 . S
C1827 H1851 0.949 . S
H1828 C1832 0.949 . S
C1829 C1830 1.349 1_565 S
C1829 C1831 1.327 . S
C1829 H1852 0.950 . S
C1830 C1829 1.349 1_545 S
C1830 C1842 1.349 . S
C1831 C1829 1.327 . S
C1831 C1847 1.418 1_565 S
C1831 H1853 0.950 . S
C1832 H1828 0.949 . S
C1832 C1840 1.574 . S
C1832 C1848 1.370 1_545 S
H1833 C1841 0.950 . S
H1834 C1839 0.950 . S
H1835 C1840 0.949 . S
H1836 C1842 0.950 . S
H1837 C1843 0.950 . S
H1838 C1844 0.949 . S
C1839 H1834 0.950 . S
C1839 C1841 1.327 1_556 S
C1839 C1845 1.429 . S
C1840 C1832 1.574 . S
C1840 H1835 0.949 . S
C1840 C1846 1.368 1_545 S
C1841 C1825 1.349 . S
C1841 H1833 0.950 . S
C1841 C1839 1.327 1_554 S
C1842 C1830 1.349 . S
C1842 H1836 0.950 . S
C1842 C1843 1.327 . S
C1843 H1837 0.950 . S
C1843 C1842 1.327 . S
C1843 C1847 1.457 . S
C1844 C1827 1.574 . S
C1844 H1838 0.949 . S
C1844 C1848 1.365 . S
C1845 C1826 1.429 1_565 S
C1845 C1839 1.429 . S
C1845 C1846 1.523 . S
C1846 C1827 1.368 . S
C1846 C1840 1.368 1_565 S
C1846 C1845 1.523 . S
C1847 C1831 1.418 1_545 S
C1847 C1843 1.457 . S
C1847 C1848 1.509 1_545 S
C1848 C1832 1.370 1_565 S
C1848 C1844 1.365 . S
C1848 C1847 1.509 1_565 S
H1849 C1824 0.946 1_554 S
H1850 C1826 0.950 . S
H1851 C1827 0.949 . S
H1852 C1829 0.950 . S
H1853 C1831 0.950 . S
C1854 C1855 1.349 . S
C1854 C1856 1.327 . S
C1854 H1879 0.950 . S
C1855 C1854 1.349 . S
C1855 C1871 1.349 1_545 S
C1856 C1854 1.327 . S
C1856 C1875 1.429 . S
C1856 H1880 0.950 . S
C1857 C1874 1.574 . S
C1857 C1876 1.368 1_565 S
C1857 H1881 0.949 . S
H1858 C1862 0.949 . S
C1859 C1860 1.349 . S
C1859 C1861 1.327 . S
C1859 H1882 0.950 . S
C1860 C1859 1.349 . S
C1860 C1872 1.349 1_565 S
C1861 C1859 1.327 . S
C1861 C1877 1.432 1_565 S
C1861 H1883 0.950 . S
C1862 H1858 0.949 . S
C1862 C1870 1.574 . S
C1862 C1878 1.418 . S
H1863 C1871 0.950 . S
H1864 C1869 0.950 . S
H1865 C1870 0.949 . S
H1866 C1872 0.950 . S
H1867 C1873 0.950 . S
H1868 C1874 0.949 . S
C1869 H1864 0.950 . S
C1869 C1871 1.327 . S
C1869 C1875 1.429 1_565 S
C1870 C1862 1.574 . S
C1870 H1865 0.949 . S
C1870 C1876 1.368 . S
C1871 C1855 1.349 1_565 S
C1871 H1863 0.950 . S
C1871 C1869 1.327 . S
C1872 C1860 1.349 1_545 S
C1872 H1866 0.950 . S
C1872 C1873 1.327 . S
C1873 H1867 0.950 . S
C1873 C1872 1.327 . S
C1873 C1877 1.424 . S
C1874 C1857 1.574 . S
C1874 H1868 0.949 . S
C1874 C1878 1.307 1_565 S
C1875 C1856 1.429 . S
C1875 C1869 1.429 1_545 S
C1875 C1876 1.523 . S
C1876 C1857 1.368 1_545 S
C1876 C1870 1.368 . S
C1876 C1875 1.523 . S
C1877 C1861 1.432 1_545 S
C1877 C1873 1.424 . S
C1877 C1878 1.541 . S
C1878 C1862 1.418 . S
C1878 C1874 1.307 1_545 S
C1878 C1877 1.541 . S
H1879 C1854 0.950 . S
H1880 C1856 0.950 . S
H1881 C1857 0.949 . S
H1882 C1859 0.950 . S
H1883 C1861 0.950 . S
C1884 C1885 1.349 . S
C1884 C1886 1.327 . S
C1884 H1909 0.950 . S
C1885 C1884 1.349 . S
C1885 C1901 1.349 1_655 S
C1886 C1884 1.327 . S
C1886 C1905 1.511 . S
C1886 H1910 0.950 . S
C1887 C1904 1.574 . S
C1887 C1906 1.313 1_455 S
C1887 H1911 0.949 . S
H1888 C1892 0.949 . S
C1889 C1890 1.380 . S
C1889 C1891 1.327 . S
C1889 H1912 0.950 . S
C1890 C1889 1.380 . S
C1890 C1902 1.300 1_455 S
C1891 C1889 1.327 . S
C1891 C1907 1.428 . S
C1891 H1913 0.950 . S
C1892 H1888 0.949 . S
C1892 C1900 1.574 . S
C1892 C1908 1.377 . S
H1893 C1901 0.950 . S
H1894 C1899 0.950 . S
H1895 C1900 0.949 . S
H1896 C1902 0.950 . S
H1897 C1903 0.950 . S
H1898 C1904 0.949 . S
C1899 H1894 0.950 . S
C1899 C1901 1.327 . S
C1899 C1905 1.383 1_455 S
C1900 C1892 1.574 . S
C1900 H1895 0.949 . S
C1900 C1906 1.408 . S
C1901 C1885 1.349 1_455 S
C1901 H1893 0.950 . S
C1901 C1899 1.327 . S
C1902 C1890 1.300 1_655 S
C1902 H1896 0.950 . S
C1902 C1903 1.327 . S
C1903 H1897 0.950 . S
C1903 C1902 1.327 . S
C1903 C1907 1.429 1_655 S
C1904 C1887 1.574 . S
C1904 H1898 0.949 . S
C1904 C1908 1.362 1_455 S
C1905 C1886 1.511 . S
C1905 C1899 1.383 1_655 S
C1905 C1906 1.513 . S
C1906 C1887 1.313 1_655 S
C1906 C1900 1.408 . S
C1906 C1905 1.513 . S
C1907 C1891 1.428 . S
C1907 C1903 1.429 1_455 S
C1907 C1908 1.520 1_455 S
C1908 C1892 1.377 . S
C1908 C1904 1.362 1_655 S
C1908 C1907 1.520 1_655 S
H1909 C1884 0.950 . S
H1910 C1886 0.950 . S
H1911 C1887 0.949 . S
H1912 C1889 0.950 . S
H1913 C1891 0.950 . S
C1914 C1915 1.349 . S
C1914 C1916 1.327 . S
C1914 H1939 0.950 . S
C1915 C1914 1.349 . S
C1915 C1931 1.349 . S
C1916 C1914 1.327 . S
C1916 C1935 1.429 . S
C1916 H1940 0.950 . S
C1917 C1934 1.574 . S
C1917 C1936 1.368 . S
C1917 H1941 0.949 . S
H1918 C1922 0.949 . S
C1919 C1920 1.349 . S
C1919 C1921 1.327 . S
C1919 H1942 0.950 . S
C1920 C1919 1.349 . S
C1920 C1932 1.349 . S
C1921 C1919 1.327 . S
C1921 C1937 1.429 . S
C1921 H1943 0.950 . S
C1922 H1918 0.949 . S
C1922 C1930 1.574 . S
C1922 C1938 1.368 . S
H1923 C1931 0.950 . S
H1924 C1929 0.950 . S
H1925 C1930 0.949 . S
H1926 C1932 0.950 . S
H1927 C1933 0.950 . S
H1928 C1934 0.949 . S
C1929 H1924 0.950 . S
C1929 C1931 1.327 . S
C1929 C1935 1.429 . S
C1930 C1922 1.574 . S
C1930 H1925 0.949 . S
C1930 C1936 1.368 . S
C1931 C1915 1.349 . S
C1931 H1923 0.950 . S
C1931 C1929 1.327 . S
C1932 C1920 1.349 . S
C1932 H1926 0.950 . S
C1932 C1933 1.327 . S
C1933 H1927 0.950 . S
C1933 C1932 1.327 . S
C1933 C1937 1.429 . S
C1934 C1917 1.574 . S
C1934 H1928 0.949 . S
C1934 C1938 1.368 . S
C1935 C1916 1.429 . S
C1935 C1929 1.429 . S
C1935 C1936 1.523 . S
C1936 C1917 1.368 . S
C1936 C1930 1.368 . S
C1936 C1935 1.523 . S
C1937 C1921 1.429 . S
C1937 C1933 1.429 . S
C1937 C1938 1.523 . S
C1938 C1922 1.368 . S
C1938 C1934 1.368 . S
C1938 C1937 1.523 . S
H1939 C1914 0.950 . S
H1940 C1916 0.950 . S
H1941 C1917 0.949 . S
H1942 C1919 0.950 . S
H1943 C1921 0.950 . S
C1944 C1945 1.349 . S
C1944 C1946 1.327 . S
C1944 H1969 0.950 . S
C1945 C1944 1.349 . S
C1945 C1961 1.349 . S
C1946 C1944 1.327 . S
C1946 C1965 1.429 . S
C1946 H1970 0.950 . S
C1947 C1964 1.574 . S
C1947 C1966 1.368 . S
C1947 H1971 0.949 . S
H1948 C1952 0.949 . S
C1949 C1950 1.349 . S
C1949 C1951 1.327 . S
C1949 H1972 0.950 . S
C1950 C1949 1.349 . S
C1950 C1962 1.349 . S
C1951 C1949 1.327 . S
C1951 C1967 1.429 . S
C1951 H1973 0.950 . S
C1952 H1948 0.949 . S
C1952 C1960 1.574 . S
C1952 C1968 1.368 . S
H1953 C1961 0.950 . S
H1954 C1959 0.950 . S
H1955 C1960 0.949 . S
H1956 C1962 0.950 . S
H1957 C1963 0.950 . S
H1958 C1964 0.949 . S
C1959 H1954 0.950 . S
C1959 C1961 1.327 . S
C1959 C1965 1.429 . S
C1960 C1952 1.574 . S
C1960 H1955 0.949 . S
C1960 C1966 1.368 . S
C1961 C1945 1.349 . S
C1961 H1953 0.950 . S
C1961 C1959 1.327 . S
C1962 C1950 1.349 . S
C1962 H1956 0.950 . S
C1962 C1963 1.327 . S
C1963 H1957 0.950 . S
C1963 C1962 1.327 . S
C1963 C1967 1.429 . S
C1964 C1947 1.574 . S
C1964 H1958 0.949 . S
C1964 C1968 1.368 . S
C1965 C1946 1.429 . S
C1965 C1959 1.429 . S
C1965 C1966 1.523 . S
C1966 C1947 1.368 . S
C1966 C1960 1.368 . S
C1966 C1965 1.523 . S
C1967 C1951 1.429 . S
C1967 C1963 1.429 . S
C1967 C1968 1.523 . S
C1968 C1952 1.368 . S
C1968 C1964 1.368 . S
C1968 C1967 1.523 . S
H1969 C1944 0.950 . S
H1970 C1946 0.950 . S
H1971 C1947 0.949 . S
H1972 C1949 0.950 . S
H1973 C1951 0.950 . S
C1974 C1975 1.349 . S
C1974 C1976 1.327 . S
C1974 H1999 0.950 . S
C1975 C1974 1.349 . S
C1975 C1991 1.349 . S
C1976 C1974 1.327 . S
C1976 C1995 1.429 . S
C1976 H2000 0.950 . S
C1977 C1994 1.574 . S
C1977 C1996 1.368 . S
C1977 H2001 0.949 . S
H1978 C1982 0.949 . S
C1979 C1980 1.349 . S
C1979 C1981 1.327 . S
C1979 H2002 0.950 . S
C1980 C1979 1.349 . S
C1980 C1992 1.349 . S
C1981 C1979 1.327 . S
C1981 C1997 1.429 . S
C1981 H2003 0.950 . S
C1982 H1978 0.949 . S
C1982 C1990 1.574 . S
C1982 C1998 1.368 . S
H1983 C1991 0.950 . S
H1984 C1989 0.950 . S
H1985 C1990 0.949 . S
H1986 C1992 0.950 . S
H1987 C1993 0.950 . S
H1988 C1994 0.949 . S
C1989 H1984 0.950 . S
C1989 C1991 1.327 . S
C1989 C1995 1.429 . S
C1990 C1982 1.574 . S
C1990 H1985 0.949 . S
C1990 C1996 1.368 . S
C1991 C1975 1.349 . S
C1991 H1983 0.950 . S
C1991 C1989 1.327 . S
C1992 C1980 1.349 . S
C1992 H1986 0.950 . S
C1992 C1993 1.327 . S
C1993 H1987 0.950 . S
C1993 C1992 1.327 . S
C1993 C1997 1.429 . S
C1994 C1977 1.574 . S
C1994 H1988 0.949 . S
C1994 C1998 1.368 . S
C1995 C1976 1.429 . S
C1995 C1989 1.429 . S
C1995 C1996 1.523 . S
C1996 C1977 1.368 . S
C1996 C1990 1.368 . S
C1996 C1995 1.523 . S
C1997 C1981 1.429 . S
C1997 C1993 1.429 . S
C1997 C1998 1.523 . S
C1998 C1982 1.368 . S
C1998 C1994 1.368 . S
C1998 C1997 1.523 . S
H1999 C1974 0.950 . S
H2000 C1976 0.950 . S
H2001 C1977 0.949 . S
H2002 C1979 0.950 . S
H2003 C1981 0.950 . S
C2004 C2005 1.349 . S
C2004 C2006 1.327 . S
C2004 H2029 0.950 . S
C2005 C2004 1.349 . S
C2005 C2021 1.349 . S
C2006 C2004 1.327 . S
C2006 C2025 1.429 . S
C2006 H2030 0.950 . S
C2007 C2024 1.574 . S
C2007 C2026 1.368 . S
C2007 H2031 0.949 . S
H2008 C2012 0.949 . S
C2009 C2010 1.349 . S
C2009 C2011 1.327 . S
C2009 H2032 0.950 . S
C2010 C2009 1.349 . S
C2010 C2022 1.349 . S
C2011 C2009 1.327 . S
C2011 C2027 1.429 . S
C2011 H2033 0.950 . S
C2012 H2008 0.949 . S
C2012 C2020 1.574 . S
C2012 C2028 1.368 . S
H2013 C2021 0.950 . S
H2014 C2019 0.950 . S
H2015 C2020 0.949 . S
H2016 C2022 0.950 . S
H2017 C2023 0.950 . S
H2018 C2024 0.949 . S
C2019 H2014 0.950 . S
C2019 C2021 1.327 . S
C2019 C2025 1.429 . S
C2020 C2012 1.574 . S
C2020 H2015 0.949 . S
C2020 C2026 1.368 . S
C2021 C2005 1.349 . S
C2021 H2013 0.950 . S
C2021 C2019 1.327 . S
C2022 C2010 1.349 . S
C2022 H2016 0.950 . S
C2022 C2023 1.327 . S
C2023 H2017 0.950 . S
C2023 C2022 1.327 . S
C2023 C2027 1.429 . S
C2024 C2007 1.574 . S
C2024 H2018 0.949 . S
C2024 C2028 1.368 . S
C2025 C2006 1.429 . S
C2025 C2019 1.429 . S
C2025 C2026 1.523 . S
C2026 C2007 1.368 . S
C2026 C2020 1.368 . S
C2026 C2025 1.523 . S
C2027 C2011 1.429 . S
C2027 C2023 1.429 . S
C2027 C2028 1.523 . S
C2028 C2012 1.368 . S
C2028 C2024 1.368 . S
C2028 C2027 1.523 . S
H2029 C2004 0.950 . S
H2030 C2006 0.950 . S
H2031 C2007 0.949 . S
H2032 C2009 0.950 . S
H2033 C2011 0.950 . S
C2034 C2035 1.349 . S
C2034 C2036 1.327 . S
C2034 H2059 0.950 . S
C2035 C2034 1.349 . S
C2035 C2051 1.349 . S
C2036 C2034 1.327 . S
C2036 C2055 1.429 . S
C2036 H2060 0.950 . S
C2037 C2054 1.574 . S
C2037 C2056 1.368 . S
C2037 H2061 0.949 . S
H2038 C2042 0.949 . S
C2039 C2040 1.349 . S
C2039 C2041 1.327 . S
C2039 H2062 0.950 . S
C2040 C2039 1.349 . S
C2040 C2052 1.349 . S
C2041 C2039 1.327 . S
C2041 C2057 1.429 . S
C2041 H2063 0.950 . S
C2042 H2038 0.949 . S
C2042 C2050 1.574 . S
C2042 C2058 1.368 . S
H2043 C2051 0.950 . S
H2044 C2049 0.950 . S
H2045 C2050 0.949 . S
H2046 C2052 0.950 . S
H2047 C2053 0.950 . S
H2048 C2054 0.949 . S
C2049 H2044 0.950 . S
C2049 C2051 1.327 . S
C2049 C2055 1.429 . S
C2050 C2042 1.574 . S
C2050 H2045 0.949 . S
C2050 C2056 1.368 . S
C2051 C2035 1.349 . S
C2051 H2043 0.950 . S
C2051 C2049 1.327 . S
C2052 C2040 1.349 . S
C2052 H2046 0.950 . S
C2052 C2053 1.327 . S
C2053 H2047 0.950 . S
C2053 C2052 1.327 . S
C2053 C2057 1.429 . S
C2054 C2037 1.574 . S
C2054 H2048 0.949 . S
C2054 C2058 1.368 . S
C2055 C2036 1.429 . S
C2055 C2049 1.429 . S
C2055 C2056 1.523 . S
C2056 C2037 1.368 . S
C2056 C2050 1.368 . S
C2056 C2055 1.523 . S
C2057 C2041 1.429 . S
C2057 C2053 1.429 . S
C2057 C2058 1.523 . S
C2058 C2042 1.368 . S
C2058 C2054 1.368 . S
C2058 C2057 1.523 . S
H2059 C2034 0.950 . S
H2060 C2036 0.950 . S
H2061 C2037 0.949 . S
H2062 C2039 0.950 . S
H2063 C2041 0.950 . S
C2064 C2065 1.349 . S
C2064 C2066 1.327 . S
C2064 H2089 0.950 . S
C2065 C2064 1.349 . S
C2065 C2081 1.349 . S
C2066 C2064 1.327 . S
C2066 C2085 1.429 . S
C2066 H2090 0.950 . S
C2067 C2084 1.574 . S
C2067 C2086 1.368 . S
C2067 H2091 0.949 . S
H2068 C2072 0.949 . S
C2069 C2070 1.349 . S
C2069 C2071 1.327 . S
C2069 H2092 0.950 . S
C2070 C2069 1.349 . S
C2070 C2082 1.349 . S
C2071 C2069 1.327 . S
C2071 C2087 1.429 . S
C2071 H2093 0.950 . S
C2072 H2068 0.949 . S
C2072 C2080 1.574 . S
C2072 C2088 1.368 . S
H2073 C2081 0.950 . S
H2074 C2079 0.950 . S
H2075 C2080 0.949 . S
H2076 C2082 0.950 . S
H2077 C2083 0.950 . S
H2078 C2084 0.949 . S
C2079 H2074 0.950 . S
C2079 C2081 1.327 . S
C2079 C2085 1.429 . S
C2080 C2072 1.574 . S
C2080 H2075 0.949 . S
C2080 C2086 1.368 . S
C2081 C2065 1.349 . S
C2081 H2073 0.950 . S
C2081 C2079 1.327 . S
C2082 C2070 1.349 . S
C2082 H2076 0.950 . S
C2082 C2083 1.327 . S
C2083 H2077 0.950 . S
C2083 C2082 1.327 . S
C2083 C2087 1.429 . S
C2084 C2067 1.574 . S
C2084 H2078 0.949 . S
C2084 C2088 1.368 . S
C2085 C2066 1.429 . S
C2085 C2079 1.429 . S
C2085 C2086 1.523 . S
C2086 C2067 1.368 . S
C2086 C2080 1.368 . S
C2086 C2085 1.523 . S
C2087 C2071 1.429 . S
C2087 C2083 1.429 . S
C2087 C2088 1.523 . S
C2088 C2072 1.368 . S
C2088 C2084 1.368 . S
C2088 C2087 1.523 . S
H2089 C2064 0.950 . S
H2090 C2066 0.950 . S
H2091 C2067 0.949 . S
H2092 C2069 0.950 . S
H2093 C2071 0.950 . S
C2094 C2095 1.349 . S
C2094 C2096 1.327 . S
C2094 H2119 0.950 . S
C2095 C2094 1.349 . S
C2095 C2111 1.349 . S
C2096 C2094 1.327 . S
C2096 C2115 1.429 . S
C2096 H2120 0.950 . S
C2097 C2114 1.574 . S
C2097 C2116 1.368 . S
C2097 H2121 0.949 . S
H2098 C2102 0.949 . S
C2099 C2100 1.349 . S
C2099 C2101 1.327 . S
C2099 H2122 0.950 . S
C2100 C2099 1.349 . S
C2100 C2112 1.349 . S
C2101 C2099 1.327 . S
C2101 C2117 1.429 . S
C2101 H2123 0.950 . S
C2102 H2098 0.949 . S
C2102 C2110 1.574 . S
C2102 C2118 1.368 . S
H2103 C2111 0.950 . S
H2104 C2109 0.950 . S
H2105 C2110 0.949 . S
H2106 C2112 0.950 . S
H2107 C2113 0.950 . S
H2108 C2114 0.949 . S
C2109 H2104 0.950 . S
C2109 C2111 1.327 . S
C2109 C2115 1.429 . S
C2110 C2102 1.574 . S
C2110 H2105 0.949 . S
C2110 C2116 1.368 . S
C2111 C2095 1.349 . S
C2111 H2103 0.950 . S
C2111 C2109 1.327 . S
C2112 C2100 1.349 . S
C2112 H2106 0.950 . S
C2112 C2113 1.327 . S
C2113 H2107 0.950 . S
C2113 C2112 1.327 . S
C2113 C2117 1.429 . S
C2114 C2097 1.574 . S
C2114 H2108 0.949 . S
C2114 C2118 1.368 . S
C2115 C2096 1.429 . S
C2115 C2109 1.429 . S
C2115 C2116 1.523 . S
C2116 C2097 1.368 . S
C2116 C2110 1.368 . S
C2116 C2115 1.523 . S
C2117 C2101 1.429 . S
C2117 C2113 1.429 . S
C2117 C2118 1.523 . S
C2118 C2102 1.368 . S
C2118 C2114 1.368 . S
C2118 C2117 1.523 . S
H2119 C2094 0.950 . S
H2120 C2096 0.950 . S
H2121 C2097 0.949 . S
H2122 C2099 0.950 . S
H2123 C2101 0.950 . S
C2124 C2125 1.349 . S
C2124 C2126 1.327 . S
C2124 H2149 0.950 . S
C2125 C2124 1.349 . S
C2125 C2141 1.349 . S
C2126 C2124 1.327 . S
C2126 C2145 1.429 . S
C2126 H2150 0.950 . S
C2127 C2144 1.574 . S
C2127 C2146 1.368 . S
C2127 H2151 0.949 . S
H2128 C2132 0.949 . S
C2129 C2130 1.349 . S
C2129 C2131 1.327 . S
C2129 H2152 0.950 . S
C2130 C2129 1.349 . S
C2130 C2142 1.349 . S
C2131 C2129 1.327 . S
C2131 C2147 1.429 . S
C2131 H2153 0.950 . S
C2132 H2128 0.949 . S
C2132 C2140 1.574 . S
C2132 C2148 1.368 . S
H2133 C2141 0.950 . S
H2134 C2139 0.950 . S
H2135 C2140 0.949 . S
H2136 C2142 0.950 . S
H2137 C2143 0.950 . S
H2138 C2144 0.949 . S
C2139 H2134 0.950 . S
C2139 C2141 1.327 . S
C2139 C2145 1.429 . S
C2140 C2132 1.574 . S
C2140 H2135 0.949 . S
C2140 C2146 1.368 . S
C2141 C2125 1.349 . S
C2141 H2133 0.950 . S
C2141 C2139 1.327 . S
C2142 C2130 1.349 . S
C2142 H2136 0.950 . S
C2142 C2143 1.327 . S
C2143 H2137 0.950 . S
C2143 C2142 1.327 . S
C2143 C2147 1.429 . S
C2144 C2127 1.574 . S
C2144 H2138 0.949 . S
C2144 C2148 1.368 . S
C2145 C2126 1.429 . S
C2145 C2139 1.429 . S
C2145 C2146 1.523 . S
C2146 C2127 1.368 . S
C2146 C2140 1.368 . S
C2146 C2145 1.523 . S
C2147 C2131 1.429 . S
C2147 C2143 1.429 . S
C2147 C2148 1.523 . S
C2148 C2132 1.368 . S
C2148 C2144 1.368 . S
C2148 C2147 1.523 . S
H2149 C2124 0.950 . S
H2150 C2126 0.950 . S
H2151 C2127 0.949 . S
H2152 C2129 0.950 . S
H2153 C2131 0.950 . S
C2154 C2155 1.349 . S
C2154 C2156 1.327 . S
C2154 H2179 0.950 . S
C2155 C2154 1.349 . S
C2155 C2171 1.349 . S
C2156 C2154 1.327 . S
C2156 C2175 1.429 . S
C2156 H2180 0.950 . S
C2157 C2174 1.574 . S
C2157 C2176 1.368 . S
C2157 H2181 0.949 . S
H2158 C2162 0.949 . S
C2159 C2160 1.349 . S
C2159 C2161 1.327 . S
C2159 H2182 0.950 . S
C2160 C2159 1.349 . S
C2160 C2172 1.349 . S
C2161 C2159 1.327 . S
C2161 C2177 1.429 . S
C2161 H2183 0.950 . S
C2162 H2158 0.949 . S
C2162 C2170 1.574 . S
C2162 C2178 1.368 . S
H2163 C2171 0.950 . S
H2164 C2169 0.950 . S
H2165 C2170 0.949 . S
H2166 C2172 0.950 . S
H2167 C2173 0.950 . S
H2168 C2174 0.949 . S
C2169 H2164 0.950 . S
C2169 C2171 1.327 . S
C2169 C2175 1.429 . S
C2170 C2162 1.574 . S
C2170 H2165 0.949 . S
C2170 C2176 1.368 . S
C2171 C2155 1.349 . S
C2171 H2163 0.950 . S
C2171 C2169 1.327 . S
C2172 C2160 1.349 . S
C2172 H2166 0.950 . S
C2172 C2173 1.327 . S
C2173 H2167 0.950 . S
C2173 C2172 1.327 . S
C2173 C2177 1.429 . S
C2174 C2157 1.574 . S
C2174 H2168 0.949 . S
C2174 C2178 1.368 . S
C2175 C2156 1.429 . S
C2175 C2169 1.429 . S
C2175 C2176 1.523 . S
C2176 C2157 1.368 . S
C2176 C2170 1.368 . S
C2176 C2175 1.523 . S
C2177 C2161 1.429 . S
C2177 C2173 1.429 . S
C2177 C2178 1.523 . S
C2178 C2162 1.368 . S
C2178 C2174 1.368 . S
C2178 C2177 1.523 . S
H2179 C2154 0.950 . S
H2180 C2156 0.950 . S
H2181 C2157 0.949 . S
H2182 C2159 0.950 . S
H2183 C2161 0.950 . S
C2184 C2185 1.349 . S
C2184 C2186 1.327 . S
C2184 H2209 0.950 . S
C2185 C2184 1.349 . S
C2185 C2201 1.349 . S
C2186 C2184 1.327 . S
C2186 C2205 1.429 . S
C2186 H2210 0.950 . S
C2187 C2204 1.574 . S
C2187 C2206 1.368 . S
C2187 H2211 0.949 . S
H2188 C2192 0.949 . S
C2189 C2190 1.349 . S
C2189 C2191 1.327 . S
C2189 H2212 0.950 . S
C2190 C2189 1.349 . S
C2190 C2202 1.349 . S
C2191 C2189 1.327 . S
C2191 C2207 1.429 . S
C2191 H2213 0.950 . S
C2192 H2188 0.949 . S
C2192 C2200 1.574 . S
C2192 C2208 1.368 . S
H2193 C2201 0.950 . S
H2194 C2199 0.950 . S
H2195 C2200 0.949 . S
H2196 C2202 0.950 . S
H2197 C2203 0.950 . S
H2198 C2204 0.949 . S
C2199 H2194 0.950 . S
C2199 C2201 1.327 . S
C2199 C2205 1.429 . S
C2200 C2192 1.574 . S
C2200 H2195 0.949 . S
C2200 C2206 1.368 . S
C2201 C2185 1.349 . S
C2201 H2193 0.950 . S
C2201 C2199 1.327 . S
C2202 C2190 1.349 . S
C2202 H2196 0.950 . S
C2202 C2203 1.327 . S
C2203 H2197 0.950 . S
C2203 C2202 1.327 . S
C2203 C2207 1.429 . S
C2204 C2187 1.574 . S
C2204 H2198 0.949 . S
C2204 C2208 1.368 . S
C2205 C2186 1.429 . S
C2205 C2199 1.429 . S
C2205 C2206 1.523 . S
C2206 C2187 1.368 . S
C2206 C2200 1.368 . S
C2206 C2205 1.523 . S
C2207 C2191 1.429 . S
C2207 C2203 1.429 . S
C2207 C2208 1.523 . S
C2208 C2192 1.368 . S
C2208 C2204 1.368 . S
C2208 C2207 1.523 . S
H2209 C2184 0.950 . S
H2210 C2186 0.950 . S
H2211 C2187 0.949 . S
H2212 C2189 0.950 . S
H2213 C2191 0.950 . S
C2214 C2215 1.349 . S
C2214 C2216 1.327 . S
C2214 H2239 0.950 . S
C2215 C2214 1.349 . S
C2215 C2231 1.349 . S
C2216 C2214 1.327 . S
C2216 C2235 1.429 . S
C2216 H2240 0.950 . S
C2217 C2234 1.574 . S
C2217 C2236 1.368 . S
C2217 H2241 0.949 . S
H2218 C2222 0.949 . S
C2219 C2220 1.349 . S
C2219 C2221 1.327 . S
C2219 H2242 0.950 . S
C2220 C2219 1.349 . S
C2220 C2232 1.349 . S
C2221 C2219 1.327 . S
C2221 C2237 1.429 . S
C2221 H2243 0.950 . S
C2222 H2218 0.949 . S
C2222 C2230 1.574 . S
C2222 C2238 1.368 . S
H2223 C2231 0.950 . S
H2224 C2229 0.950 . S
H2225 C2230 0.949 . S
H2226 C2232 0.950 . S
H2227 C2233 0.950 . S
H2228 C2234 0.949 . S
C2229 H2224 0.950 . S
C2229 C2231 1.327 . S
C2229 C2235 1.429 . S
C2230 C2222 1.574 . S
C2230 H2225 0.949 . S
C2230 C2236 1.368 . S
C2231 C2215 1.349 . S
C2231 H2223 0.950 . S
C2231 C2229 1.327 . S
C2232 C2220 1.349 . S
C2232 H2226 0.950 . S
C2232 C2233 1.327 . S
C2233 H2227 0.950 . S
C2233 C2232 1.327 . S
C2233 C2237 1.429 . S
C2234 C2217 1.574 . S
C2234 H2228 0.949 . S
C2234 C2238 1.368 . S
C2235 C2216 1.429 . S
C2235 C2229 1.429 . S
C2235 C2236 1.523 . S
C2236 C2217 1.368 . S
C2236 C2230 1.368 . S
C2236 C2235 1.523 . S
C2237 C2221 1.429 . S
C2237 C2233 1.429 . S
C2237 C2238 1.523 . S
C2238 C2222 1.368 . S
C2238 C2234 1.368 . S
C2238 C2237 1.523 . S
H2239 C2214 0.950 . S
H2240 C2216 0.950 . S
H2241 C2217 0.949 . S
H2242 C2219 0.950 . S
H2243 C2221 0.950 . S
C2244 C2245 1.349 . S
C2244 C2246 1.327 . S
C2244 H2269 0.950 . S
C2245 C2244 1.349 . S
C2245 C2261 1.349 . S
C2246 C2244 1.327 . S
C2246 C2265 1.429 . S
C2246 H2270 0.950 . S
C2247 C2264 1.574 . S
C2247 C2266 1.368 . S
C2247 H2271 0.949 . S
H2248 C2252 0.949 . S
C2249 C2250 1.349 . S
C2249 C2251 1.327 . S
C2249 H2272 0.950 . S
C2250 C2249 1.349 . S
C2250 C2262 1.349 . S
C2251 C2249 1.327 . S
C2251 C2267 1.429 . S
C2251 H2273 0.950 . S
C2252 H2248 0.949 . S
C2252 C2260 1.574 . S
C2252 C2268 1.368 . S
H2253 C2261 0.950 . S
H2254 C2259 0.950 . S
H2255 C2260 0.949 . S
H2256 C2262 0.950 . S
H2257 C2263 0.950 . S
H2258 C2264 0.949 . S
C2259 H2254 0.950 . S
C2259 C2261 1.327 . S
C2259 C2265 1.429 . S
C2260 C2252 1.574 . S
C2260 H2255 0.949 . S
C2260 C2266 1.368 . S
C2261 C2245 1.349 . S
C2261 H2253 0.950 . S
C2261 C2259 1.327 . S
C2262 C2250 1.349 . S
C2262 H2256 0.950 . S
C2262 C2263 1.327 . S
C2263 H2257 0.950 . S
C2263 C2262 1.327 . S
C2263 C2267 1.429 . S
C2264 C2247 1.574 . S
C2264 H2258 0.949 . S
C2264 C2268 1.368 . S
C2265 C2246 1.429 . S
C2265 C2259 1.429 . S
C2265 C2266 1.523 . S
C2266 C2247 1.368 . S
C2266 C2260 1.368 . S
C2266 C2265 1.523 . S
C2267 C2251 1.429 . S
C2267 C2263 1.429 . S
C2267 C2268 1.523 . S
C2268 C2252 1.368 . S
C2268 C2264 1.368 . S
C2268 C2267 1.523 . S
H2269 C2244 0.950 . S
H2270 C2246 0.950 . S
H2271 C2247 0.949 . S
H2272 C2249 0.950 . S
H2273 C2251 0.950 . S
C2274 C2275 1.349 . S
C2274 C2276 1.327 . S
C2274 H2299 0.950 . S
C2275 C2274 1.349 . S
C2275 C2291 1.349 . S
C2276 C2274 1.327 . S
C2276 C2295 1.429 . S
C2276 H2300 0.950 . S
C2277 C2294 1.574 . S
C2277 C2296 1.368 . S
C2277 H2301 0.949 . S
H2278 C2282 0.949 . S
C2279 C2280 1.349 . S
C2279 C2281 1.327 . S
C2279 H2302 0.950 . S
C2280 C2279 1.349 . S
C2280 C2292 1.349 . S
C2281 C2279 1.327 . S
C2281 C2297 1.429 . S
C2281 H2303 0.950 . S
C2282 H2278 0.949 . S
C2282 C2290 1.574 . S
C2282 C2298 1.368 . S
H2283 C2291 0.950 . S
H2284 C2289 0.950 . S
H2285 C2290 0.949 . S
H2286 C2292 0.950 . S
H2287 C2293 0.950 . S
H2288 C2294 0.949 . S
C2289 H2284 0.950 . S
C2289 C2291 1.327 . S
C2289 C2295 1.429 . S
C2290 C2282 1.574 . S
C2290 H2285 0.949 . S
C2290 C2296 1.368 . S
C2291 C2275 1.349 . S
C2291 H2283 0.950 . S
C2291 C2289 1.327 . S
C2292 C2280 1.349 . S
C2292 H2286 0.950 . S
C2292 C2293 1.327 . S
C2293 H2287 0.950 . S
C2293 C2292 1.327 . S
C2293 C2297 1.429 . S
C2294 C2277 1.574 . S
C2294 H2288 0.949 . S
C2294 C2298 1.368 . S
C2295 C2276 1.429 . S
C2295 C2289 1.429 . S
C2295 C2296 1.523 . S
C2296 C2277 1.368 . S
C2296 C2290 1.368 . S
C2296 C2295 1.523 . S
C2297 C2281 1.429 . S
C2297 C2293 1.429 . S
C2297 C2298 1.523 . S
C2298 C2282 1.368 . S
C2298 C2294 1.368 . S
C2298 C2297 1.523 . S
H2299 C2274 0.950 . S
H2300 C2276 0.950 . S
H2301 C2277 0.949 . S
H2302 C2279 0.950 . S
H2303 C2281 0.950 . S
C2304 C2305 1.349 . S
C2304 C2306 1.327 . S
C2304 H2329 0.950 . S
C2305 C2304 1.349 . S
C2305 C2321 1.349 . S
C2306 C2304 1.327 . S
C2306 C2325 1.429 . S
C2306 H2330 0.950 . S
C2307 C2324 1.574 . S
C2307 C2326 1.368 . S
C2307 H2331 0.949 . S
H2308 C2312 0.949 . S
C2309 C2310 1.349 . S
C2309 C2311 1.327 . S
C2309 H2332 0.950 . S
C2310 C2309 1.349 . S
C2310 C2322 1.349 . S
C2311 C2309 1.327 . S
C2311 C2327 1.429 . S
C2311 H2333 0.950 . S
C2312 H2308 0.949 . S
C2312 C2320 1.574 . S
C2312 C2328 1.368 . S
H2313 C2321 0.950 . S
H2314 C2319 0.950 . S
H2315 C2320 0.949 . S
H2316 C2322 0.950 . S
H2317 C2323 0.950 . S
H2318 C2324 0.949 . S
C2319 H2314 0.950 . S
C2319 C2321 1.327 . S
C2319 C2325 1.429 . S
C2320 C2312 1.574 . S
C2320 H2315 0.949 . S
C2320 C2326 1.368 . S
C2321 C2305 1.349 . S
C2321 H2313 0.950 . S
C2321 C2319 1.327 . S
C2322 C2310 1.349 . S
C2322 H2316 0.950 . S
C2322 C2323 1.327 . S
C2323 H2317 0.950 . S
C2323 C2322 1.327 . S
C2323 C2327 1.429 . S
C2324 C2307 1.574 . S
C2324 H2318 0.949 . S
C2324 C2328 1.368 . S
C2325 C2306 1.429 . S
C2325 C2319 1.429 . S
C2325 C2326 1.523 . S
C2326 C2307 1.368 . S
C2326 C2320 1.368 . S
C2326 C2325 1.523 . S
C2327 C2311 1.429 . S
C2327 C2323 1.429 . S
C2327 C2328 1.523 . S
C2328 C2312 1.368 . S
C2328 C2324 1.368 . S
C2328 C2327 1.523 . S
H2329 C2304 0.950 . S
H2330 C2306 0.950 . S
H2331 C2307 0.949 . S
H2332 C2309 0.950 . S
H2333 C2311 0.950 . S
C2334 C2335 1.349 . S
C2334 C2336 1.327 . S
C2334 H2359 0.950 . S
C2335 C2334 1.349 . S
C2335 C2351 1.349 . S
C2336 C2334 1.327 . S
C2336 C2355 1.429 . S
C2336 H2360 0.950 . S
C2337 C2354 1.574 . S
C2337 C2356 1.368 . S
C2337 H2361 0.949 . S
H2338 C2342 0.949 . S
C2339 C2340 1.349 . S
C2339 C2341 1.327 . S
C2339 H2362 0.950 . S
C2340 C2339 1.349 . S
C2340 C2352 1.349 . S
C2341 C2339 1.327 . S
C2341 C2357 1.429 . S
C2341 H2363 0.950 . S
C2342 H2338 0.949 . S
C2342 C2350 1.574 . S
C2342 C2358 1.368 . S
H2343 C2351 0.950 . S
H2344 C2349 0.950 . S
H2345 C2350 0.949 . S
H2346 C2352 0.950 . S
H2347 C2353 0.950 . S
H2348 C2354 0.949 . S
C2349 H2344 0.950 . S
C2349 C2351 1.327 . S
C2349 C2355 1.429 . S
C2350 C2342 1.574 . S
C2350 H2345 0.949 . S
C2350 C2356 1.368 . S
C2351 C2335 1.349 . S
C2351 H2343 0.950 . S
C2351 C2349 1.327 . S
C2352 C2340 1.349 . S
C2352 H2346 0.950 . S
C2352 C2353 1.327 . S
C2353 H2347 0.950 . S
C2353 C2352 1.327 . S
C2353 C2357 1.429 . S
C2354 C2337 1.574 . S
C2354 H2348 0.949 . S
C2354 C2358 1.368 . S
C2355 C2336 1.429 . S
C2355 C2349 1.429 . S
C2355 C2356 1.523 . S
C2356 C2337 1.368 . S
C2356 C2350 1.368 . S
C2356 C2355 1.523 . S
C2357 C2341 1.429 . S
C2357 C2353 1.429 . S
C2357 C2358 1.523 . S
C2358 C2342 1.368 . S
C2358 C2354 1.368 . S
C2358 C2357 1.523 . S
H2359 C2334 0.950 . S
H2360 C2336 0.950 . S
H2361 C2337 0.949 . S
H2362 C2339 0.950 . S
H2363 C2341 0.950 . S
C2364 C2365 1.349 . S
C2364 C2366 1.327 . S
C2364 H2389 0.950 . S
C2365 C2364 1.349 . S
C2365 C2381 1.349 . S
C2366 C2364 1.327 . S
C2366 C2385 1.429 . S
C2366 H2390 0.950 . S
C2367 C2384 1.574 . S
C2367 C2386 1.368 . S
C2367 H2391 0.949 . S
H2368 C2372 0.949 . S
C2369 C2370 1.349 . S
C2369 C2371 1.327 . S
C2369 H2392 0.950 . S
C2370 C2369 1.349 . S
C2370 C2382 1.349 . S
C2371 C2369 1.327 . S
C2371 C2387 1.429 . S
C2371 H2393 0.950 . S
C2372 H2368 0.949 . S
C2372 C2380 1.574 . S
C2372 C2388 1.368 . S
H2373 C2381 0.950 . S
H2374 C2379 0.950 . S
H2375 C2380 0.949 . S
H2376 C2382 0.950 . S
H2377 C2383 0.950 . S
H2378 C2384 0.949 . S
C2379 H2374 0.950 . S
C2379 C2381 1.327 . S
C2379 C2385 1.429 . S
C2380 C2372 1.574 . S
C2380 H2375 0.949 . S
C2380 C2386 1.368 . S
C2381 C2365 1.349 . S
C2381 H2373 0.950 . S
C2381 C2379 1.327 . S
C2382 C2370 1.349 . S
C2382 H2376 0.950 . S
C2382 C2383 1.327 . S
C2383 H2377 0.950 . S
C2383 C2382 1.327 . S
C2383 C2387 1.429 . S
C2384 C2367 1.574 . S
C2384 H2378 0.949 . S
C2384 C2388 1.368 . S
C2385 C2366 1.429 . S
C2385 C2379 1.429 . S
C2385 C2386 1.523 . S
C2386 C2367 1.368 . S
C2386 C2380 1.368 . S
C2386 C2385 1.523 . S
C2387 C2371 1.429 . S
C2387 C2383 1.429 . S
C2387 C2388 1.523 . S
C2388 C2372 1.368 . S
C2388 C2384 1.368 . S
C2388 C2387 1.523 . S
H2389 C2364 0.950 . S
H2390 C2366 0.950 . S
H2391 C2367 0.949 . S
H2392 C2369 0.950 . S
H2393 C2371 0.950 . S
C2394 C2395 1.349 . S
C2394 C2396 1.327 . S
C2394 H2419 0.950 . S
C2395 C2394 1.349 . S
C2395 C2411 1.349 . S
C2396 C2394 1.327 . S
C2396 C2415 1.429 . S
C2396 H2420 0.950 . S
C2397 C2414 1.574 . S
C2397 C2416 1.368 . S
C2397 H2421 0.949 . S
H2398 C2402 0.949 . S
C2399 C2400 1.349 . S
C2399 C2401 1.327 . S
C2399 H2422 0.950 . S
C2400 C2399 1.349 . S
C2400 C2412 1.349 . S
C2401 C2399 1.327 . S
C2401 C2417 1.429 . S
C2401 H2423 0.950 . S
C2402 H2398 0.949 . S
C2402 C2410 1.574 . S
C2402 C2418 1.368 . S
H2403 C2411 0.950 . S
H2404 C2409 0.950 . S
H2405 C2410 0.949 . S
H2406 C2412 0.950 . S
H2407 C2413 0.950 . S
H2408 C2414 0.949 . S
C2409 H2404 0.950 . S
C2409 C2411 1.327 . S
C2409 C2415 1.429 . S
C2410 C2402 1.574 . S
C2410 H2405 0.949 . S
C2410 C2416 1.368 . S
C2411 C2395 1.349 . S
C2411 H2403 0.950 . S
C2411 C2409 1.327 . S
C2412 C2400 1.349 . S
C2412 H2406 0.950 . S
C2412 C2413 1.327 . S
C2413 H2407 0.950 . S
C2413 C2412 1.327 . S
C2413 C2417 1.429 . S
C2414 C2397 1.574 . S
C2414 H2408 0.949 . S
C2414 C2418 1.368 . S
C2415 C2396 1.429 . S
C2415 C2409 1.429 . S
C2415 C2416 1.523 . S
C2416 C2397 1.368 . S
C2416 C2410 1.368 . S
C2416 C2415 1.523 . S
C2417 C2401 1.429 . S
C2417 C2413 1.429 . S
C2417 C2418 1.523 . S
C2418 C2402 1.368 . S
C2418 C2414 1.368 . S
C2418 C2417 1.523 . S
H2419 C2394 0.950 . S
H2420 C2396 0.950 . S
H2421 C2397 0.949 . S
H2422 C2399 0.950 . S
H2423 C2401 0.950 . S
C2424 C2425 1.349 . S
C2424 C2426 1.327 . S
C2424 H2449 0.950 . S
C2425 C2424 1.349 . S
C2425 C2441 1.349 . S
C2426 C2424 1.327 . S
C2426 C2445 1.429 . S
C2426 H2450 0.950 . S
C2427 C2444 1.574 . S
C2427 C2446 1.368 . S
C2427 H2451 0.949 . S
H2428 C2432 0.949 . S
C2429 C2430 1.349 . S
C2429 C2431 1.327 . S
C2429 H2452 0.950 . S
C2430 C2429 1.349 . S
C2430 C2442 1.349 . S
C2431 C2429 1.327 . S
C2431 C2447 1.429 . S
C2431 H2453 0.950 . S
C2432 H2428 0.949 . S
C2432 C2440 1.574 . S
C2432 C2448 1.368 . S
H2433 C2441 0.950 . S
H2434 C2439 0.950 . S
H2435 C2440 0.949 . S
H2436 C2442 0.950 . S
H2437 C2443 0.950 . S
H2438 C2444 0.949 . S
C2439 H2434 0.950 . S
C2439 C2441 1.327 . S
C2439 C2445 1.429 . S
C2440 C2432 1.574 . S
C2440 H2435 0.949 . S
C2440 C2446 1.368 . S
C2441 C2425 1.349 . S
C2441 H2433 0.950 . S
C2441 C2439 1.327 . S
C2442 C2430 1.349 . S
C2442 H2436 0.950 . S
C2442 C2443 1.327 . S
C2443 H2437 0.950 . S
C2443 C2442 1.327 . S
C2443 C2447 1.429 . S
C2444 C2427 1.574 . S
C2444 H2438 0.949 . S
C2444 C2448 1.368 . S
C2445 C2426 1.429 . S
C2445 C2439 1.429 . S
C2445 C2446 1.523 . S
C2446 C2427 1.368 . S
C2446 C2440 1.368 . S
C2446 C2445 1.523 . S
C2447 C2431 1.429 . S
C2447 C2443 1.429 . S
C2447 C2448 1.523 . S
C2448 C2432 1.368 . S
C2448 C2444 1.368 . S
C2448 C2447 1.523 . S
H2449 C2424 0.950 . S
H2450 C2426 0.950 . S
H2451 C2427 0.949 . S
H2452 C2429 0.950 . S
H2453 C2431 0.950 . S
C2454 C2455 1.349 . S
C2454 C2456 1.327 . S
C2454 H2479 0.950 . S
C2455 C2454 1.349 . S
C2455 C2471 1.349 . S
C2456 C2454 1.327 . S
C2456 C2475 1.429 . S
C2456 H2480 0.950 . S
C2457 C2474 1.574 . S
C2457 C2476 1.368 . S
C2457 H2481 0.949 . S
H2458 C2462 0.949 . S
C2459 C2460 1.349 . S
C2459 C2461 1.327 . S
C2459 H2482 0.950 . S
C2460 C2459 1.349 . S
C2460 C2472 1.349 . S
C2461 C2459 1.327 . S
C2461 C2477 1.429 . S
C2461 H2483 0.950 . S
C2462 H2458 0.949 . S
C2462 C2470 1.574 . S
C2462 C2478 1.368 . S
H2463 C2471 0.950 . S
H2464 C2469 0.950 . S
H2465 C2470 0.949 . S
H2466 C2472 0.950 . S
H2467 C2473 0.950 . S
H2468 C2474 0.949 . S
C2469 H2464 0.950 . S
C2469 C2471 1.327 . S
C2469 C2475 1.429 . S
C2470 C2462 1.574 . S
C2470 H2465 0.949 . S
C2470 C2476 1.368 . S
C2471 C2455 1.349 . S
C2471 H2463 0.950 . S
C2471 C2469 1.327 . S
C2472 C2460 1.349 . S
C2472 H2466 0.950 . S
C2472 C2473 1.327 . S
C2473 H2467 0.950 . S
C2473 C2472 1.327 . S
C2473 C2477 1.429 . S
C2474 C2457 1.574 . S
C2474 H2468 0.949 . S
C2474 C2478 1.368 . S
C2475 C2456 1.429 . S
C2475 C2469 1.429 . S
C2475 C2476 1.523 . S
C2476 C2457 1.368 . S
C2476 C2470 1.368 . S
C2476 C2475 1.523 . S
C2477 C2461 1.429 . S
C2477 C2473 1.429 . S
C2477 C2478 1.523 . S
C2478 C2462 1.368 . S
C2478 C2474 1.368 . S
C2478 C2477 1.523 . S
H2479 C2454 0.950 . S
H2480 C2456 0.950 . S
H2481 C2457 0.949 . S
H2482 C2459 0.950 . S
H2483 C2461 0.950 . S
C2484 C2485 1.349 . S
C2484 C2486 1.327 . S
C2484 H2509 0.950 . S
C2485 C2484 1.349 . S
C2485 C2501 1.349 . S
C2486 C2484 1.327 . S
C2486 C2505 1.429 . S
C2486 H2510 0.950 . S
C2487 C2504 1.574 . S
C2487 C2506 1.368 . S
C2487 H2511 0.949 . S
H2488 C2492 0.949 . S
C2489 C2490 1.349 . S
C2489 C2491 1.327 . S
C2489 H2512 0.950 . S
C2490 C2489 1.349 . S
C2490 C2502 1.349 . S
C2491 C2489 1.327 . S
C2491 C2507 1.429 . S
C2491 H2513 0.950 . S
C2492 H2488 0.949 . S
C2492 C2500 1.574 . S
C2492 C2508 1.368 . S
H2493 C2501 0.950 . S
H2494 C2499 0.950 . S
H2495 C2500 0.949 . S
H2496 C2502 0.950 . S
H2497 C2503 0.950 . S
H2498 C2504 0.949 . S
C2499 H2494 0.950 . S
C2499 C2501 1.327 . S
C2499 C2505 1.429 . S
C2500 C2492 1.574 . S
C2500 H2495 0.949 . S
C2500 C2506 1.368 . S
C2501 C2485 1.349 . S
C2501 H2493 0.950 . S
C2501 C2499 1.327 . S
C2502 C2490 1.349 . S
C2502 H2496 0.950 . S
C2502 C2503 1.327 . S
C2503 H2497 0.950 . S
C2503 C2502 1.327 . S
C2503 C2507 1.429 . S
C2504 C2487 1.574 . S
C2504 H2498 0.949 . S
C2504 C2508 1.368 . S
C2505 C2486 1.429 . S
C2505 C2499 1.429 . S
C2505 C2506 1.523 . S
C2506 C2487 1.368 . S
C2506 C2500 1.368 . S
C2506 C2505 1.523 . S
C2507 C2491 1.429 . S
C2507 C2503 1.429 . S
C2507 C2508 1.523 . S
C2508 C2492 1.368 . S
C2508 C2504 1.368 . S
C2508 C2507 1.523 . S
H2509 C2484 0.950 . S
H2510 C2486 0.950 . S
H2511 C2487 0.949 . S
H2512 C2489 0.950 . S
H2513 C2491 0.950 . S
C2514 C2515 1.349 . S
C2514 C2516 1.327 . S
C2514 H2539 0.950 . S
C2515 C2514 1.349 . S
C2515 C2531 1.349 . S
C2516 C2514 1.327 . S
C2516 C2535 1.429 . S
C2516 H2540 0.950 . S
C2517 C2534 1.574 . S
C2517 C2536 1.368 . S
C2517 H2541 0.949 . S
H2518 C2522 0.949 . S
C2519 C2520 1.349 . S
C2519 C2521 1.327 . S
C2519 H2542 0.950 . S
C2520 C2519 1.349 . S
C2520 C2532 1.349 . S
C2521 C2519 1.327 . S
C2521 C2537 1.429 . S
C2521 H2543 0.950 . S
C2522 H2518 0.949 . S
C2522 C2530 1.574 . S
C2522 C2538 1.368 . S
H2523 C2531 0.950 . S
H2524 C2529 0.950 . S
H2525 C2530 0.949 . S
H2526 C2532 0.950 . S
H2527 C2533 0.950 . S
H2528 C2534 0.949 . S
C2529 H2524 0.950 . S
C2529 C2531 1.327 . S
C2529 C2535 1.429 . S
C2530 C2522 1.574 . S
C2530 H2525 0.949 . S
C2530 C2536 1.368 . S
C2531 C2515 1.349 . S
C2531 H2523 0.950 . S
C2531 C2529 1.327 . S
C2532 C2520 1.349 . S
C2532 H2526 0.950 . S
C2532 C2533 1.327 . S
C2533 H2527 0.950 . S
C2533 C2532 1.327 . S
C2533 C2537 1.429 . S
C2534 C2517 1.574 . S
C2534 H2528 0.949 . S
C2534 C2538 1.368 . S
C2535 C2516 1.429 . S
C2535 C2529 1.429 . S
C2535 C2536 1.523 . S
C2536 C2517 1.368 . S
C2536 C2530 1.368 . S
C2536 C2535 1.523 . S
C2537 C2521 1.429 . S
C2537 C2533 1.429 . S
C2537 C2538 1.523 . S
C2538 C2522 1.368 . S
C2538 C2534 1.368 . S
C2538 C2537 1.523 . S
H2539 C2514 0.950 . S
H2540 C2516 0.950 . S
H2541 C2517 0.949 . S
H2542 C2519 0.950 . S
H2543 C2521 0.950 . S
C2544 C2545 1.349 . S
C2544 C2546 1.327 . S
C2544 H2569 0.950 . S
C2545 C2544 1.349 . S
C2545 C2561 1.349 . S
C2546 C2544 1.327 . S
C2546 C2565 1.429 . S
C2546 H2570 0.950 . S
C2547 C2564 1.574 . S
C2547 C2566 1.368 . S
C2547 H2571 0.949 . S
H2548 C2552 0.949 . S
C2549 C2550 1.349 . S
C2549 C2551 1.327 . S
C2549 H2572 0.950 . S
C2550 C2549 1.349 . S
C2550 C2562 1.349 . S
C2551 C2549 1.327 . S
C2551 C2567 1.429 . S
C2551 H2573 0.950 . S
C2552 H2548 0.949 . S
C2552 C2560 1.574 . S
C2552 C2568 1.368 . S
H2553 C2561 0.950 . S
H2554 C2559 0.950 . S
H2555 C2560 0.949 . S
H2556 C2562 0.950 . S
H2557 C2563 0.950 . S
H2558 C2564 0.949 . S
C2559 H2554 0.950 . S
C2559 C2561 1.327 . S
C2559 C2565 1.429 . S
C2560 C2552 1.574 . S
C2560 H2555 0.949 . S
C2560 C2566 1.368 . S
C2561 C2545 1.349 . S
C2561 H2553 0.950 . S
C2561 C2559 1.327 . S
C2562 C2550 1.349 . S
C2562 H2556 0.950 . S
C2562 C2563 1.327 . S
C2563 H2557 0.950 . S
C2563 C2562 1.327 . S
C2563 C2567 1.429 . S
C2564 C2547 1.574 . S
C2564 H2558 0.949 . S
C2564 C2568 1.368 . S
C2565 C2546 1.429 . S
C2565 C2559 1.429 . S
C2565 C2566 1.523 . S
C2566 C2547 1.368 . S
C2566 C2560 1.368 . S
C2566 C2565 1.523 . S
C2567 C2551 1.429 . S
C2567 C2563 1.429 . S
C2567 C2568 1.523 . S
C2568 C2552 1.368 . S
C2568 C2564 1.368 . S
C2568 C2567 1.523 . S
H2569 C2544 0.950 . S
H2570 C2546 0.950 . S
H2571 C2547 0.949 . S
H2572 C2549 0.950 . S
H2573 C2551 0.950 . S
C2574 C2575 1.349 . S
C2574 C2576 1.327 . S
C2574 H2599 0.950 . S
C2575 C2574 1.349 . S
C2575 C2591 1.349 . S
C2576 C2574 1.327 . S
C2576 C2595 1.429 . S
C2576 H2600 0.950 . S
C2577 C2594 1.574 . S
C2577 C2596 1.368 . S
C2577 H2601 0.949 . S
H2578 C2582 0.949 . S
C2579 C2580 1.349 . S
C2579 C2581 1.327 . S
C2579 H2602 0.950 . S
C2580 C2579 1.349 . S
C2580 C2592 1.349 . S
C2581 C2579 1.327 . S
C2581 C2597 1.429 . S
C2581 H2603 0.950 . S
C2582 H2578 0.949 . S
C2582 C2590 1.574 . S
C2582 C2598 1.368 . S
H2583 C2591 0.950 . S
H2584 C2589 0.950 . S
H2585 C2590 0.949 . S
H2586 C2592 0.950 . S
H2587 C2593 0.950 . S
H2588 C2594 0.949 . S
C2589 H2584 0.950 . S
C2589 C2591 1.327 . S
C2589 C2595 1.429 . S
C2590 C2582 1.574 . S
C2590 H2585 0.949 . S
C2590 C2596 1.368 . S
C2591 C2575 1.349 . S
C2591 H2583 0.950 . S
C2591 C2589 1.327 . S
C2592 C2580 1.349 . S
C2592 H2586 0.950 . S
C2592 C2593 1.327 . S
C2593 H2587 0.950 . S
C2593 C2592 1.327 . S
C2593 C2597 1.429 . S
C2594 C2577 1.574 . S
C2594 H2588 0.949 . S
C2594 C2598 1.368 . S
C2595 C2576 1.429 . S
C2595 C2589 1.429 . S
C2595 C2596 1.523 . S
C2596 C2577 1.368 . S
C2596 C2590 1.368 . S
C2596 C2595 1.523 . S
C2597 C2581 1.429 . S
C2597 C2593 1.429 . S
C2597 C2598 1.523 . S
C2598 C2582 1.368 . S
C2598 C2594 1.368 . S
C2598 C2597 1.523 . S
H2599 C2574 0.950 . S
H2600 C2576 0.950 . S
H2601 C2577 0.949 . S
H2602 C2579 0.950 . S
H2603 C2581 0.950 . S
C2604 C2605 1.349 . S
C2604 C2606 1.327 . S
C2604 H2629 0.950 . S
C2605 C2604 1.349 . S
C2605 C2621 1.349 . S
C2606 C2604 1.327 . S
C2606 C2625 1.429 . S
C2606 H2630 0.950 . S
C2607 C2624 1.574 . S
C2607 C2626 1.368 . S
C2607 H2631 0.949 . S
H2608 C2612 0.949 . S
C2609 C2610 1.349 . S
C2609 C2611 1.327 . S
C2609 H2632 0.950 . S
C2610 C2609 1.349 . S
C2610 C2622 1.349 . S
C2611 C2609 1.327 . S
C2611 C2627 1.429 . S
C2611 H2633 0.950 . S
C2612 H2608 0.949 . S
C2612 C2620 1.574 . S
C2612 C2628 1.368 . S
H2613 C2621 0.950 . S
H2614 C2619 0.950 . S
H2615 C2620 0.949 . S
H2616 C2622 0.950 . S
H2617 C2623 0.950 . S
H2618 C2624 0.949 . S
C2619 H2614 0.950 . S
C2619 C2621 1.327 . S
C2619 C2625 1.429 . S
C2620 C2612 1.574 . S
C2620 H2615 0.949 . S
C2620 C2626 1.368 . S
C2621 C2605 1.349 . S
C2621 H2613 0.950 . S
C2621 C2619 1.327 . S
C2622 C2610 1.349 . S
C2622 H2616 0.950 . S
C2622 C2623 1.327 . S
C2623 H2617 0.950 . S
C2623 C2622 1.327 . S
C2623 C2627 1.429 . S
C2624 C2607 1.574 . S
C2624 H2618 0.949 . S
C2624 C2628 1.368 . S
C2625 C2606 1.429 . S
C2625 C2619 1.429 . S
C2625 C2626 1.523 . S
C2626 C2607 1.368 . S
C2626 C2620 1.368 . S
C2626 C2625 1.523 . S
C2627 C2611 1.429 . S
C2627 C2623 1.429 . S
C2627 C2628 1.523 . S
C2628 C2612 1.368 . S
C2628 C2624 1.368 . S
C2628 C2627 1.523 . S
H2629 C2604 0.950 . S
H2630 C2606 0.950 . S
H2631 C2607 0.949 . S
H2632 C2609 0.950 . S
H2633 C2611 0.950 . S
C2634 C2635 1.349 . S
C2634 C2636 1.327 . S
C2634 H2659 0.950 . S
C2635 C2634 1.349 . S
C2635 C2651 1.349 . S
C2636 C2634 1.327 . S
C2636 C2655 1.429 . S
C2636 H2660 0.950 . S
C2637 C2654 1.574 . S
C2637 C2656 1.368 . S
C2637 H2661 0.949 . S
H2638 C2642 0.949 . S
C2639 C2640 1.349 . S
C2639 C2641 1.327 . S
C2639 H2662 0.950 . S
C2640 C2639 1.349 . S
C2640 C2652 1.349 . S
C2641 C2639 1.327 . S
C2641 C2657 1.429 . S
C2641 H2663 0.950 . S
C2642 H2638 0.949 . S
C2642 C2650 1.574 . S
C2642 C2658 1.368 . S
H2643 C2651 0.950 . S
H2644 C2649 0.950 . S
H2645 C2650 0.949 . S
H2646 C2652 0.950 . S
H2647 C2653 0.950 . S
H2648 C2654 0.949 . S
C2649 H2644 0.950 . S
C2649 C2651 1.327 . S
C2649 C2655 1.429 . S
C2650 C2642 1.574 . S
C2650 H2645 0.949 . S
C2650 C2656 1.368 . S
C2651 C2635 1.349 . S
C2651 H2643 0.950 . S
C2651 C2649 1.327 . S
C2652 C2640 1.349 . S
C2652 H2646 0.950 . S
C2652 C2653 1.327 . S
C2653 H2647 0.950 . S
C2653 C2652 1.327 . S
C2653 C2657 1.429 . S
C2654 C2637 1.574 . S
C2654 H2648 0.949 . S
C2654 C2658 1.368 . S
C2655 C2636 1.429 . S
C2655 C2649 1.429 . S
C2655 C2656 1.523 . S
C2656 C2637 1.368 . S
C2656 C2650 1.368 . S
C2656 C2655 1.523 . S
C2657 C2641 1.429 . S
C2657 C2653 1.429 . S
C2657 C2658 1.523 . S
C2658 C2642 1.368 . S
C2658 C2654 1.368 . S
C2658 C2657 1.523 . S
H2659 C2634 0.950 . S
H2660 C2636 0.950 . S
H2661 C2637 0.949 . S
H2662 C2639 0.950 . S
H2663 C2641 0.950 . S
C2664 C2665 1.349 . S
C2664 C2666 1.327 . S
C2664 H2689 0.950 . S
C2665 C2664 1.349 . S
C2665 C2681 1.349 . S
C2666 C2664 1.327 . S
C2666 C2685 1.429 . S
C2666 H2690 0.950 . S
C2667 C2684 1.574 . S
C2667 C2686 1.368 . S
C2667 H2691 0.949 . S
H2668 C2672 0.949 . S
C2669 C2670 1.349 . S
C2669 C2671 1.327 . S
C2669 H2692 0.950 . S
C2670 C2669 1.349 . S
C2670 C2682 1.349 . S
C2671 C2669 1.327 . S
C2671 C2687 1.429 . S
C2671 H2693 0.950 . S
C2672 H2668 0.949 . S
C2672 C2680 1.574 . S
C2672 C2688 1.368 . S
H2673 C2681 0.950 . S
H2674 C2679 0.950 . S
H2675 C2680 0.949 . S
H2676 C2682 0.950 . S
H2677 C2683 0.950 . S
H2678 C2684 0.949 . S
C2679 H2674 0.950 . S
C2679 C2681 1.327 . S
C2679 C2685 1.429 . S
C2680 C2672 1.574 . S
C2680 H2675 0.949 . S
C2680 C2686 1.368 . S
C2681 C2665 1.349 . S
C2681 H2673 0.950 . S
C2681 C2679 1.327 . S
C2682 C2670 1.349 . S
C2682 H2676 0.950 . S
C2682 C2683 1.327 . S
C2683 H2677 0.950 . S
C2683 C2682 1.327 . S
C2683 C2687 1.429 . S
C2684 C2667 1.574 . S
C2684 H2678 0.949 . S
C2684 C2688 1.368 . S
C2685 C2666 1.429 . S
C2685 C2679 1.429 . S
C2685 C2686 1.523 . S
C2686 C2667 1.368 . S
C2686 C2680 1.368 . S
C2686 C2685 1.523 . S
C2687 C2671 1.429 . S
C2687 C2683 1.429 . S
C2687 C2688 1.523 . S
C2688 C2672 1.368 . S
C2688 C2684 1.368 . S
C2688 C2687 1.523 . S
H2689 C2664 0.950 . S
H2690 C2666 0.950 . S
H2691 C2667 0.949 . S
H2692 C2669 0.950 . S
H2693 C2671 0.950 . S
C2694 C2695 1.349 . S
C2694 C2696 1.327 . S
C2694 H2719 0.950 . S
C2695 C2694 1.349 . S
C2695 C2711 1.349 . S
C2696 C2694 1.327 . S
C2696 C2715 1.429 . S
C2696 H2720 0.950 . S
C2697 C2714 1.574 . S
C2697 C2716 1.368 . S
C2697 H2721 0.949 . S
H2698 C2702 0.949 . S
C2699 C2700 1.349 . S
C2699 C2701 1.327 . S
C2699 H2722 0.950 . S
C2700 C2699 1.349 . S
C2700 C2712 1.349 . S
C2701 C2699 1.327 . S
C2701 C2717 1.429 . S
C2701 H2723 0.950 . S
C2702 H2698 0.949 . S
C2702 C2710 1.574 . S
C2702 C2718 1.368 . S
H2703 C2711 0.950 . S
H2704 C2709 0.950 . S
H2705 C2710 0.949 . S
H2706 C2712 0.950 . S
H2707 C2713 0.950 . S
H2708 C2714 0.949 . S
C2709 H2704 0.950 . S
C2709 C2711 1.327 . S
C2709 C2715 1.429 . S
C2710 C2702 1.574 . S
C2710 H2705 0.949 . S
C2710 C2716 1.368 . S
C2711 C2695 1.349 . S
C2711 H2703 0.950 . S
C2711 C2709 1.327 . S
C2712 C2700 1.349 . S
C2712 H2706 0.950 . S
C2712 C2713 1.327 . S
C2713 H2707 0.950 . S
C2713 C2712 1.327 . S
C2713 C2717 1.429 . S
C2714 C2697 1.574 . S
C2714 H2708 0.949 . S
C2714 C2718 1.368 . S
C2715 C2696 1.429 . S
C2715 C2709 1.429 . S
C2715 C2716 1.523 . S
C2716 C2697 1.368 . S
C2716 C2710 1.368 . S
C2716 C2715 1.523 . S
C2717 C2701 1.429 . S
C2717 C2713 1.429 . S
C2717 C2718 1.523 . S
C2718 C2702 1.368 . S
C2718 C2714 1.368 . S
C2718 C2717 1.523 . S
H2719 C2694 0.950 . S
H2720 C2696 0.950 . S
H2721 C2697 0.949 . S
H2722 C2699 0.950 . S
H2723 C2701 0.950 . S
C2724 C2725 1.349 . S
C2724 C2726 1.327 . S
C2724 H2749 0.950 . S
C2725 C2724 1.349 . S
C2725 C2741 1.349 . S
C2726 C2724 1.327 . S
C2726 C2745 1.429 . S
C2726 H2750 0.950 . S
C2727 C2744 1.574 . S
C2727 C2746 1.368 . S
C2727 H2751 0.949 . S
H2728 C2732 0.949 . S
C2729 C2730 1.349 . S
C2729 C2731 1.327 . S
C2729 H2752 0.950 . S
C2730 C2729 1.349 . S
C2730 C2742 1.349 . S
C2731 C2729 1.327 . S
C2731 C2747 1.429 . S
C2731 H2753 0.950 . S
C2732 H2728 0.949 . S
C2732 C2740 1.574 . S
C2732 C2748 1.368 . S
H2733 C2741 0.950 . S
H2734 C2739 0.950 . S
H2735 C2740 0.949 . S
H2736 C2742 0.950 . S
H2737 C2743 0.950 . S
H2738 C2744 0.949 . S
C2739 H2734 0.950 . S
C2739 C2741 1.327 . S
C2739 C2745 1.429 . S
C2740 C2732 1.574 . S
C2740 H2735 0.949 . S
C2740 C2746 1.368 . S
C2741 C2725 1.349 . S
C2741 H2733 0.950 . S
C2741 C2739 1.327 . S
C2742 C2730 1.349 . S
C2742 H2736 0.950 . S
C2742 C2743 1.327 . S
C2743 H2737 0.950 . S
C2743 C2742 1.327 . S
C2743 C2747 1.429 . S
C2744 C2727 1.574 . S
C2744 H2738 0.949 . S
C2744 C2748 1.368 . S
C2745 C2726 1.429 . S
C2745 C2739 1.429 . S
C2745 C2746 1.523 . S
C2746 C2727 1.368 . S
C2746 C2740 1.368 . S
C2746 C2745 1.523 . S
C2747 C2731 1.429 . S
C2747 C2743 1.429 . S
C2747 C2748 1.523 . S
C2748 C2732 1.368 . S
C2748 C2744 1.368 . S
C2748 C2747 1.523 . S
H2749 C2724 0.950 . S
H2750 C2726 0.950 . S
H2751 C2727 0.949 . S
H2752 C2729 0.950 . S
H2753 C2731 0.950 . S
C2754 C2755 1.349 . S
C2754 C2756 1.327 . S
C2754 H2779 0.948 1_556 S
C2755 C2754 1.349 . S
C2755 C2771 1.349 . S
C2756 C2754 1.327 . S
C2756 C2775 1.429 . S
C2756 H2780 0.950 . S
C2757 C2774 1.574 . S
C2757 C2776 1.368 . S
C2757 H2781 0.949 . S
H2758 C2762 0.949 . S
C2759 C2760 1.349 . S
C2759 C2761 1.327 . S
C2759 H2782 0.950 . S
C2760 C2759 1.349 . S
C2760 C2772 1.349 . S
C2761 C2759 1.327 . S
C2761 C2777 1.429 . S
C2761 H2783 0.950 . S
C2762 H2758 0.949 . S
C2762 C2770 1.574 . S
C2762 C2778 1.368 . S
H2763 C2771 0.950 . S
H2764 C2769 0.950 . S
H2765 C2770 0.949 . S
H2766 C2772 0.950 . S
H2767 C2773 0.950 . S
H2768 C2774 0.949 . S
C2769 H2764 0.950 . S
C2769 C2771 1.327 . S
C2769 C2775 1.429 . S
C2770 C2762 1.574 . S
C2770 H2765 0.949 . S
C2770 C2776 1.368 . S
C2771 C2755 1.349 . S
C2771 H2763 0.950 . S
C2771 C2769 1.327 . S
C2772 C2760 1.349 . S
C2772 H2766 0.950 . S
C2772 C2773 1.327 . S
C2773 H2767 0.950 . S
C2773 C2772 1.327 . S
C2773 C2777 1.429 . S
C2774 C2757 1.574 . S
C2774 H2768 0.949 . S
C2774 C2778 1.368 . S
C2775 C2756 1.429 . S
C2775 C2769 1.429 . S
C2775 C2776 1.523 . S
C2776 C2757 1.368 . S
C2776 C2770 1.368 . S
C2776 C2775 1.523 . S
C2777 C2761 1.429 . S
C2777 C2773 1.429 . S
C2777 C2778 1.523 . S
C2778 C2762 1.368 . S
C2778 C2774 1.368 . S
C2778 C2777 1.523 . S
H2779 C2754 0.948 1_554 S
H2780 C2756 0.950 . S
H2781 C2757 0.949 . S
H2782 C2759 0.950 . S
H2783 C2761 0.950 . S
C2784 C2785 1.349 . S
C2784 C2786 1.327 . S
C2784 H2809 0.950 . S
C2785 C2784 1.349 . S
C2785 C2801 1.349 . S
C2786 C2784 1.327 . S
C2786 C2805 1.429 . S
C2786 H2810 0.950 . S
C2787 C2804 1.574 . S
C2787 C2806 1.368 . S
C2787 H2811 0.949 . S
H2788 C2792 0.949 . S
C2789 C2790 1.349 . S
C2789 C2791 1.327 . S
C2789 H2812 0.950 . S
C2790 C2789 1.349 . S
C2790 C2802 1.349 . S
C2791 C2789 1.327 . S
C2791 C2807 1.429 . S
C2791 H2813 0.950 . S
C2792 H2788 0.949 . S
C2792 C2800 1.574 . S
C2792 C2808 1.368 . S
H2793 C2801 0.950 1_554 S
H2794 C2799 0.950 . S
H2795 C2800 0.949 . S
H2796 C2802 0.950 . S
H2797 C2803 0.950 . S
H2798 C2804 0.949 . S
C2799 H2794 0.950 . S
C2799 C2801 1.327 . S
C2799 C2805 1.429 . S
C2800 C2792 1.574 . S
C2800 H2795 0.949 . S
C2800 C2806 1.368 . S
C2801 C2785 1.349 . S
C2801 H2793 0.950 1_556 S
C2801 C2799 1.327 . S
C2802 C2790 1.349 . S
C2802 H2796 0.950 . S
C2802 C2803 1.327 . S
C2803 H2797 0.950 . S
C2803 C2802 1.327 . S
C2803 C2807 1.429 . S
C2804 C2787 1.574 . S
C2804 H2798 0.949 . S
C2804 C2808 1.368 . S
C2805 C2786 1.429 . S
C2805 C2799 1.429 . S
C2805 C2806 1.523 . S
C2806 C2787 1.368 . S
C2806 C2800 1.368 . S
C2806 C2805 1.523 . S
C2807 C2791 1.429 . S
C2807 C2803 1.429 . S
C2807 C2808 1.523 . S
C2808 C2792 1.368 . S
C2808 C2804 1.368 . S
C2808 C2807 1.523 . S
H2809 C2784 0.950 . S
H2810 C2786 0.950 . S
H2811 C2787 0.949 . S
H2812 C2789 0.950 . S
H2813 C2791 0.950 . S
C2814 C2815 1.349 . S
C2814 C2816 1.327 . S
C2814 H2839 0.950 . S
C2815 C2814 1.349 . S
C2815 C2831 1.349 . S
C2816 C2814 1.327 . S
C2816 C2835 1.429 . S
C2816 H2840 0.962 . S
C2817 C2834 1.573 1_554 S
C2817 C2836 1.368 1_554 S
C2817 H2841 0.950 . S
H2818 C2822 0.949 . S
C2819 C2820 1.349 . S
C2819 C2821 1.327 . S
C2819 H2842 0.950 . S
C2820 C2819 1.349 . S
C2820 C2832 1.349 . S
C2821 C2819 1.327 . S
C2821 C2837 1.429 . S
C2821 H2843 0.950 . S
C2822 H2818 0.949 . S
C2822 C2830 1.574 . S
C2822 C2838 1.368 . S
H2823 C2831 0.950 . S
H2824 C2829 0.950 . S
H2825 C2830 0.949 . S
H2826 C2832 0.950 . S
H2827 C2833 0.950 . S
H2828 C2834 0.949 . S
C2829 H2824 0.950 . S
C2829 C2831 1.327 . S
C2829 C2835 1.429 . S
C2830 C2822 1.574 . S
C2830 H2825 0.949 . S
C2830 C2836 1.368 . S
C2831 C2815 1.349 . S
C2831 H2823 0.950 . S
C2831 C2829 1.327 . S
C2832 C2820 1.349 . S
C2832 H2826 0.950 . S
C2832 C2833 1.327 . S
C2833 H2827 0.950 . S
C2833 C2832 1.327 . S
C2833 C2837 1.429 . S
C2834 C2817 1.573 1_556 S
C2834 H2828 0.949 . S
C2834 C2838 1.368 . S
C2835 C2816 1.429 . S
C2835 C2829 1.429 . S
C2835 C2836 1.523 1_554 S
C2836 C2817 1.368 1_556 S
C2836 C2830 1.368 . S
C2836 C2835 1.523 1_556 S
C2837 C2821 1.429 . S
C2837 C2833 1.429 . S
C2837 C2838 1.523 . S
C2838 C2822 1.368 . S
C2838 C2834 1.368 . S
C2838 C2837 1.523 . S
H2839 C2814 0.950 . S
H2840 C2816 0.962 . S
H2841 C2817 0.950 . S
H2842 C2819 0.950 . S
H2843 C2821 0.950 . S
C2844 C2845 1.349 1_556 S
C2844 C2846 1.327 . S
C2844 H2869 0.950 . S
C2845 C2844 1.349 1_554 S
C2845 C2861 1.349 . S
C2846 C2844 1.327 . S
C2846 C2865 1.429 . S
C2846 H2870 0.950 . S
C2847 C2864 1.574 . S
C2847 C2866 1.368 . S
C2847 H2871 0.949 . S
H2848 C2852 0.949 . S
C2849 C2850 1.349 . S
C2849 C2851 1.327 . S
C2849 H2872 0.950 . S
C2850 C2849 1.349 . S
C2850 C2862 1.349 . S
C2851 C2849 1.327 . S
C2851 C2867 1.429 . S
C2851 H2873 0.950 . S
C2852 H2848 0.949 . S
C2852 C2860 1.574 . S
C2852 C2868 1.368 . S
H2853 C2861 0.950 . S
H2854 C2859 0.950 . S
H2855 C2860 0.949 . S
H2856 C2862 0.950 . S
H2857 C2863 0.950 . S
H2858 C2864 0.949 . S
C2859 H2854 0.950 . S
C2859 C2861 1.327 1_556 S
C2859 C2865 1.429 . S
C2860 C2852 1.574 . S
C2860 H2855 0.949 . S
C2860 C2866 1.368 . S
C2861 C2845 1.349 . S
C2861 H2853 0.950 . S
C2861 C2859 1.327 1_554 S
C2862 C2850 1.349 . S
C2862 H2856 0.950 . S
C2862 C2863 1.327 . S
C2863 H2857 0.950 . S
C2863 C2862 1.327 . S
C2863 C2867 1.429 . S
C2864 C2847 1.574 . S
C2864 H2858 0.949 . S
C2864 C2868 1.368 . S
C2865 C2846 1.429 . S
C2865 C2859 1.429 . S
C2865 C2866 1.523 . S
C2866 C2847 1.368 . S
C2866 C2860 1.368 . S
C2866 C2865 1.523 . S
C2867 C2851 1.429 . S
C2867 C2863 1.429 . S
C2867 C2868 1.523 . S
C2868 C2852 1.368 . S
C2868 C2864 1.368 . S
C2868 C2867 1.523 . S
H2869 C2844 0.950 . S
H2870 C2846 0.950 . S
H2871 C2847 0.949 . S
H2872 C2849 0.950 . S
H2873 C2851 0.950 . S
C2874 C2875 1.349 . S
C2874 C2876 1.327 . S
C2874 H2899 0.950 . S
C2875 C2874 1.349 . S
C2875 C2891 1.349 . S
C2876 C2874 1.327 . S
C2876 C2895 1.429 . S
C2876 H2900 0.950 . S
C2877 C2894 1.574 . S
C2877 C2896 1.368 . S
C2877 H2901 0.949 . S
H2878 C2882 0.949 . S
C2879 C2880 1.349 . S
C2879 C2881 1.327 . S
C2879 H2902 0.950 . S
C2880 C2879 1.349 . S
C2880 C2892 1.349 . S
C2881 C2879 1.327 . S
C2881 C2897 1.429 . S
C2881 H2903 0.950 . S
C2882 H2878 0.949 . S
C2882 C2890 1.574 . S
C2882 C2898 1.368 . S
H2883 C2891 0.950 . S
H2884 C2889 0.950 . S
H2885 C2890 0.949 . S
H2886 C2892 0.950 . S
H2887 C2893 0.950 . S
H2888 C2894 0.949 . S
C2889 H2884 0.950 . S
C2889 C2891 1.327 . S
C2889 C2895 1.429 . S
C2890 C2882 1.574 . S
C2890 H2885 0.949 . S
C2890 C2896 1.368 . S
C2891 C2875 1.349 . S
C2891 H2883 0.950 . S
C2891 C2889 1.327 . S
C2892 C2880 1.349 . S
C2892 H2886 0.950 . S
C2892 C2893 1.327 . S
C2893 H2887 0.950 . S
C2893 C2892 1.327 . S
C2893 C2897 1.429 . S
C2894 C2877 1.574 . S
C2894 H2888 0.949 . S
C2894 C2898 1.368 . S
C2895 C2876 1.429 . S
C2895 C2889 1.429 . S
C2895 C2896 1.523 . S
C2896 C2877 1.368 . S
C2896 C2890 1.368 . S
C2896 C2895 1.523 . S
C2897 C2881 1.429 . S
C2897 C2893 1.429 . S
C2897 C2898 1.523 . S
C2898 C2882 1.368 . S
C2898 C2894 1.368 . S
C2898 C2897 1.523 . S
H2899 C2874 0.950 . S
H2900 C2876 0.950 . S
H2901 C2877 0.949 . S
H2902 C2879 0.950 . S
H2903 C2881 0.950 . S
C2904 C2905 1.349 1_556 S
C2904 C2906 1.327 . S
C2904 H2929 0.950 . S
C2905 C2904 1.349 1_554 S
C2905 C2921 1.349 . S
C2906 C2904 1.327 . S
C2906 C2925 1.429 . S
C2906 H2930 0.950 . S
C2907 C2924 1.574 . S
C2907 C2926 1.368 . S
C2907 H2931 0.881 1_556 S
H2908 C2912 0.949 . S
C2909 C2910 1.349 . S
C2909 C2911 1.327 . S
C2909 H2932 0.950 . S
C2910 C2909 1.349 . S
C2910 C2922 1.349 . S
C2911 C2909 1.327 . S
C2911 C2927 1.429 . S
C2911 H2933 0.950 . S
C2912 H2908 0.949 . S
C2912 C2920 1.574 . S
C2912 C2928 1.368 . S
H2913 C2921 0.950 . S
H2914 C2919 0.950 . S
H2915 C2920 0.949 . S
H2916 C2922 0.950 . S
H2917 C2923 0.950 . S
H2918 C2924 0.949 . S
C2919 H2914 0.950 . S
C2919 C2921 1.327 . S
C2919 C2925 1.429 1_554 S
C2920 C2912 1.574 . S
C2920 H2915 0.949 . S
C2920 C2926 1.368 . S
C2921 C2905 1.349 . S
C2921 H2913 0.950 . S
C2921 C2919 1.327 . S
C2922 C2910 1.349 . S
C2922 H2916 0.950 . S
C2922 C2923 1.327 . S
C2923 H2917 0.950 . S
C2923 C2922 1.327 . S
C2923 C2927 1.429 . S
C2924 C2907 1.574 . S
C2924 H2918 0.949 . S
C2924 C2928 1.368 . S
C2925 C2906 1.429 . S
C2925 C2919 1.429 1_556 S
C2925 C2926 1.523 . S
C2926 C2907 1.368 . S
C2926 C2920 1.368 . S
C2926 C2925 1.523 . S
C2927 C2911 1.429 . S
C2927 C2923 1.429 . S
C2927 C2928 1.523 . S
C2928 C2912 1.368 . S
C2928 C2924 1.368 . S
C2928 C2927 1.523 . S
H2929 C2904 0.950 . S
H2930 C2906 0.950 . S
H2931 C2907 0.881 1_554 S
H2932 C2909 0.950 . S
H2933 C2911 0.950 . S
C2934 C2935 1.349 . S
C2934 C2936 1.327 . S
C2934 H2959 0.950 . S
C2935 C2934 1.349 . S
C2935 C2951 1.349 . S
C2936 C2934 1.327 . S
C2936 C2955 1.429 . S
C2936 H2960 0.950 . S
C2937 C2954 1.574 . S
C2937 C2956 1.368 . S
C2937 H2961 0.949 . S
H2938 C2942 0.949 . S
C2939 C2940 1.349 . S
C2939 C2941 1.327 . S
C2939 H2962 0.950 . S
C2940 C2939 1.349 . S
C2940 C2952 1.349 . S
C2941 C2939 1.327 . S
C2941 C2957 1.429 . S
C2941 H2963 0.950 . S
C2942 H2938 0.949 . S
C2942 C2950 1.574 . S
C2942 C2958 1.368 . S
H2943 C2951 0.950 . S
H2944 C2949 0.950 . S
H2945 C2950 0.949 . S
H2946 C2952 0.950 . S
H2947 C2953 0.950 . S
H2948 C2954 0.949 . S
C2949 H2944 0.950 . S
C2949 C2951 1.327 . S
C2949 C2955 1.429 . S
C2950 C2942 1.574 . S
C2950 H2945 0.949 . S
C2950 C2956 1.368 . S
C2951 C2935 1.349 . S
C2951 H2943 0.950 . S
C2951 C2949 1.327 . S
C2952 C2940 1.349 . S
C2952 H2946 0.950 . S
C2952 C2953 1.327 . S
C2953 H2947 0.950 . S
C2953 C2952 1.327 . S
C2953 C2957 1.429 . S
C2954 C2937 1.574 . S
C2954 H2948 0.949 . S
C2954 C2958 1.368 . S
C2955 C2936 1.429 . S
C2955 C2949 1.429 . S
C2955 C2956 1.523 . S
C2956 C2937 1.368 . S
C2956 C2950 1.368 . S
C2956 C2955 1.523 . S
C2957 C2941 1.429 . S
C2957 C2953 1.429 . S
C2957 C2958 1.523 . S
C2958 C2942 1.368 . S
C2958 C2954 1.368 . S
C2958 C2957 1.523 . S
H2959 C2934 0.950 . S
H2960 C2936 0.950 . S
H2961 C2937 0.949 . S
H2962 C2939 0.950 . S
H2963 C2941 0.950 . S
C2964 C2965 1.349 . S
C2964 C2966 1.327 . S
C2964 H2989 0.950 . S
C2965 C2964 1.349 . S
C2965 C2981 1.349 . S
C2966 C2964 1.327 . S
C2966 C2985 1.429 . S
C2966 H2990 0.950 . S
C2967 C2984 1.574 . S
C2967 C2986 1.368 . S
C2967 H2991 0.949 . S
H2968 C2972 0.949 . S
C2969 C2970 1.349 . S
C2969 C2971 1.327 . S
C2969 H2992 0.950 . S
C2970 C2969 1.349 . S
C2970 C2982 1.349 . S
C2971 C2969 1.327 . S
C2971 C2987 1.429 . S
C2971 H2993 0.950 . S
C2972 H2968 0.949 . S
C2972 C2980 1.574 . S
C2972 C2988 1.368 . S
H2973 C2981 0.950 . S
H2974 C2979 0.950 . S
H2975 C2980 0.949 . S
H2976 C2982 0.950 . S
H2977 C2983 0.950 . S
H2978 C2984 0.949 . S
C2979 H2974 0.950 . S
C2979 C2981 1.327 . S
C2979 C2985 1.429 . S
C2980 C2972 1.574 . S
C2980 H2975 0.949 . S
C2980 C2986 1.368 . S
C2981 C2965 1.349 . S
C2981 H2973 0.950 . S
C2981 C2979 1.327 . S
C2982 C2970 1.349 . S
C2982 H2976 0.950 . S
C2982 C2983 1.327 . S
C2983 H2977 0.950 . S
C2983 C2982 1.327 . S
C2983 C2987 1.429 . S
C2984 C2967 1.574 . S
C2984 H2978 0.949 . S
C2984 C2988 1.368 . S
C2985 C2966 1.429 . S
C2985 C2979 1.429 . S
C2985 C2986 1.523 . S
C2986 C2967 1.368 . S
C2986 C2980 1.368 . S
C2986 C2985 1.523 . S
C2987 C2971 1.429 . S
C2987 C2983 1.429 . S
C2987 C2988 1.523 . S
C2988 C2972 1.368 . S
C2988 C2984 1.368 . S
C2988 C2987 1.523 . S
H2989 C2964 0.950 . S
H2990 C2966 0.950 . S
H2991 C2967 0.949 . S
H2992 C2969 0.950 . S
H2993 C2971 0.950 . S
C2994 C2995 1.349 . S
C2994 C2996 1.327 . S
C2994 H3019 0.950 . S
C2995 C2994 1.349 . S
C2995 C3011 1.349 . S
C2996 C2994 1.327 . S
C2996 C3015 1.429 . S
C2996 H3020 0.950 . S
C2997 C3014 1.574 . S
C2997 C3016 1.368 . S
C2997 H3021 0.949 . S
H2998 C3002 0.949 . S
C2999 C3000 1.349 . S
C2999 C3001 1.327 . S
C2999 H3022 0.950 . S
C3000 C2999 1.349 . S
C3000 C3012 1.349 . S
C3001 C2999 1.327 . S
C3001 C3017 1.429 . S
C3001 H3023 0.950 . S
C3002 H2998 0.949 . S
C3002 C3010 1.574 . S
C3002 C3018 1.368 . S
H3003 C3011 0.950 . S
H3004 C3009 0.950 . S
H3005 C3010 0.949 . S
H3006 C3012 0.950 . S
H3007 C3013 0.950 . S
H3008 C3014 0.949 . S
C3009 H3004 0.950 . S
C3009 C3011 1.327 . S
C3009 C3015 1.429 . S
C3010 C3002 1.574 . S
C3010 H3005 0.949 . S
C3010 C3016 1.368 . S
C3011 C2995 1.349 . S
C3011 H3003 0.950 . S
C3011 C3009 1.327 . S
C3012 C3000 1.349 . S
C3012 H3006 0.950 . S
C3012 C3013 1.327 . S
C3013 H3007 0.950 . S
C3013 C3012 1.327 . S
C3013 C3017 1.429 . S
C3014 C2997 1.574 . S
C3014 H3008 0.949 . S
C3014 C3018 1.368 . S
C3015 C2996 1.429 . S
C3015 C3009 1.429 . S
C3015 C3016 1.523 . S
C3016 C2997 1.368 . S
C3016 C3010 1.368 . S
C3016 C3015 1.523 . S
C3017 C3001 1.429 . S
C3017 C3013 1.429 . S
C3017 C3018 1.523 . S
C3018 C3002 1.368 . S
C3018 C3014 1.368 . S
C3018 C3017 1.523 . S
H3019 C2994 0.950 . S
H3020 C2996 0.950 . S
H3021 C2997 0.949 . S
H3022 C2999 0.950 . S
H3023 C3001 0.950 . S
C3024 C3025 1.349 . S
C3024 C3026 1.327 . S
C3024 H3049 0.950 . S
C3025 C3024 1.349 . S
C3025 C3041 1.349 . S
C3026 C3024 1.327 . S
C3026 C3045 1.429 . S
C3026 H3050 0.950 . S
C3027 C3044 1.574 . S
C3027 C3046 1.368 . S
C3027 H3051 0.949 . S
H3028 C3032 0.949 . S
C3029 C3030 1.349 . S
C3029 C3031 1.327 . S
C3029 H3052 0.950 . S
C3030 C3029 1.349 . S
C3030 C3042 1.349 . S
C3031 C3029 1.327 . S
C3031 C3047 1.429 . S
C3031 H3053 0.950 . S
C3032 H3028 0.949 . S
C3032 C3040 1.574 . S
C3032 C3048 1.368 . S
H3033 C3041 0.950 . S
H3034 C3039 0.950 . S
H3035 C3040 0.949 . S
H3036 C3042 0.950 . S
H3037 C3043 0.950 . S
H3038 C3044 0.949 . S
C3039 H3034 0.950 . S
C3039 C3041 1.327 . S
C3039 C3045 1.429 . S
C3040 C3032 1.574 . S
C3040 H3035 0.949 . S
C3040 C3046 1.368 . S
C3041 C3025 1.349 . S
C3041 H3033 0.950 . S
C3041 C3039 1.327 . S
C3042 C3030 1.349 . S
C3042 H3036 0.950 . S
C3042 C3043 1.327 . S
C3043 H3037 0.950 . S
C3043 C3042 1.327 . S
C3043 C3047 1.429 . S
C3044 C3027 1.574 . S
C3044 H3038 0.949 . S
C3044 C3048 1.368 . S
C3045 C3026 1.429 . S
C3045 C3039 1.429 . S
C3045 C3046 1.523 . S
C3046 C3027 1.368 . S
C3046 C3040 1.368 . S
C3046 C3045 1.523 . S
C3047 C3031 1.429 . S
C3047 C3043 1.429 . S
C3047 C3048 1.523 . S
C3048 C3032 1.368 . S
C3048 C3044 1.368 . S
C3048 C3047 1.523 . S
H3049 C3024 0.950 . S
H3050 C3026 0.950 . S
H3051 C3027 0.949 . S
H3052 C3029 0.950 . S
H3053 C3031 0.950 . S
C3054 C3055 1.349 . S
C3054 C3056 1.327 . S
C3054 H3079 0.950 . S
C3055 C3054 1.349 . S
C3055 C3071 1.349 . S
C3056 C3054 1.327 . S
C3056 C3075 1.429 . S
C3056 H3080 0.950 . S
C3057 C3074 1.574 . S
C3057 C3076 1.368 . S
C3057 H3081 0.949 . S
H3058 C3062 0.949 . S
C3059 C3060 1.349 . S
C3059 C3061 1.327 . S
C3059 H3082 0.950 . S
C3060 C3059 1.349 . S
C3060 C3072 1.349 . S
C3061 C3059 1.327 . S
C3061 C3077 1.429 . S
C3061 H3083 0.950 . S
C3062 H3058 0.949 . S
C3062 C3070 1.574 . S
C3062 C3078 1.368 . S
H3063 C3071 0.950 . S
H3064 C3069 0.950 . S
H3065 C3070 0.949 . S
H3066 C3072 0.950 . S
H3067 C3073 0.950 . S
H3068 C3074 0.949 . S
C3069 H3064 0.950 . S
C3069 C3071 1.327 . S
C3069 C3075 1.429 . S
C3070 C3062 1.574 . S
C3070 H3065 0.949 . S
C3070 C3076 1.368 . S
C3071 C3055 1.349 . S
C3071 H3063 0.950 . S
C3071 C3069 1.327 . S
C3072 C3060 1.349 . S
C3072 H3066 0.950 . S
C3072 C3073 1.327 . S
C3073 H3067 0.950 . S
C3073 C3072 1.327 . S
C3073 C3077 1.429 . S
C3074 C3057 1.574 . S
C3074 H3068 0.949 . S
C3074 C3078 1.368 . S
C3075 C3056 1.429 . S
C3075 C3069 1.429 . S
C3075 C3076 1.523 . S
C3076 C3057 1.368 . S
C3076 C3070 1.368 . S
C3076 C3075 1.523 . S
C3077 C3061 1.429 . S
C3077 C3073 1.429 . S
C3077 C3078 1.523 . S
C3078 C3062 1.368 . S
C3078 C3074 1.368 . S
C3078 C3077 1.523 . S
H3079 C3054 0.950 . S
H3080 C3056 0.950 . S
H3081 C3057 0.949 . S
H3082 C3059 0.950 . S
H3083 C3061 0.950 . S
C3084 C3085 1.349 . S
C3084 C3086 1.327 . S
C3084 H3109 0.950 . S
C3085 C3084 1.349 . S
C3085 C3101 1.349 . S
C3086 C3084 1.327 . S
C3086 C3105 1.429 . S
C3086 H3110 0.950 . S
C3087 C3104 1.574 . S
C3087 C3106 1.368 . S
C3087 H3111 0.949 . S
H3088 C3092 0.949 . S
C3089 C3090 1.349 . S
C3089 C3091 1.327 . S
C3089 H3112 0.950 . S
C3090 C3089 1.349 . S
C3090 C3102 1.349 . S
C3091 C3089 1.327 . S
C3091 C3107 1.429 . S
C3091 H3113 0.950 . S
C3092 H3088 0.949 . S
C3092 C3100 1.574 . S
C3092 C3108 1.368 . S
H3093 C3101 0.931 1_455 S
H3094 C3099 0.950 . S
H3095 C3100 0.949 . S
H3096 C3102 0.950 . S
H3097 C3103 0.950 . S
H3098 C3104 0.949 . S
C3099 H3094 0.950 . S
C3099 C3101 1.327 . S
C3099 C3105 1.429 . S
C3100 C3092 1.574 . S
C3100 H3095 0.949 . S
C3100 C3106 1.368 . S
C3101 C3085 1.349 . S
C3101 H3093 0.931 1_655 S
C3101 C3099 1.327 . S
C3102 C3090 1.349 . S
C3102 H3096 0.950 . S
C3102 C3103 1.327 . S
C3103 H3097 0.950 . S
C3103 C3102 1.327 . S
C3103 C3107 1.429 . S
C3104 C3087 1.574 . S
C3104 H3098 0.949 . S
C3104 C3108 1.368 . S
C3105 C3086 1.429 . S
C3105 C3099 1.429 . S
C3105 C3106 1.523 . S
C3106 C3087 1.368 . S
C3106 C3100 1.368 . S
C3106 C3105 1.523 . S
C3107 C3091 1.429 . S
C3107 C3103 1.429 . S
C3107 C3108 1.523 . S
C3108 C3092 1.368 . S
C3108 C3104 1.368 . S
C3108 C3107 1.523 . S
H3109 C3084 0.950 . S
H3110 C3086 0.950 . S
H3111 C3087 0.949 . S
H3112 C3089 0.950 . S
H3113 C3091 0.950 . S
C3114 C3115 1.349 . S
C3114 C3116 1.327 . S
C3114 H3139 0.950 . S
C3115 C3114 1.349 . S
C3115 C3131 1.349 . S
C3116 C3114 1.327 . S
C3116 C3135 1.429 . S
C3116 H3140 0.950 . S
C3117 C3134 1.574 . S
C3117 C3136 1.368 . S
C3117 H3141 0.949 . S
H3118 C3122 0.949 . S
C3119 C3120 1.349 . S
C3119 C3121 1.327 . S
C3119 H3142 0.950 . S
C3120 C3119 1.349 . S
C3120 C3132 1.349 . S
C3121 C3119 1.327 . S
C3121 C3137 1.429 . S
C3121 H3143 0.950 . S
C3122 H3118 0.949 . S
C3122 C3130 1.574 . S
C3122 C3138 1.368 . S
H3123 C3131 0.950 . S
H3124 C3129 0.950 . S
H3125 C3130 0.949 . S
H3126 C3132 0.950 1_655 S
H3127 C3133 0.960 . S
H3128 C3134 0.949 . S
C3129 H3124 0.950 . S
C3129 C3131 1.327 . S
C3129 C3135 1.429 . S
C3130 C3122 1.574 . S
C3130 H3125 0.949 . S
C3130 C3136 1.368 . S
C3131 C3115 1.349 . S
C3131 H3123 0.950 . S
C3131 C3129 1.327 . S
C3132 C3120 1.349 . S
C3132 H3126 0.950 1_455 S
C3132 C3133 1.327 . S
C3133 H3127 0.960 . S
C3133 C3132 1.327 . S
C3133 C3137 1.429 . S
C3134 C3117 1.574 . S
C3134 H3128 0.949 . S
C3134 C3138 1.368 . S
C3135 C3116 1.429 . S
C3135 C3129 1.429 . S
C3135 C3136 1.523 . S
C3136 C3117 1.368 . S
C3136 C3130 1.368 . S
C3136 C3135 1.523 . S
C3137 C3121 1.429 . S
C3137 C3133 1.429 . S
C3137 C3138 1.523 . S
C3138 C3122 1.368 . S
C3138 C3134 1.368 . S
C3138 C3137 1.523 . S
H3139 C3114 0.950 . S
H3140 C3116 0.950 . S
H3141 C3117 0.949 . S
H3142 C3119 0.950 . S
H3143 C3121 0.950 . S
C3144 C3145 1.349 . S
C3144 C3146 1.327 . S
C3144 H3169 0.950 . S
C3145 C3144 1.349 . S
C3145 C3161 1.349 . S
C3146 C3144 1.327 . S
C3146 C3165 1.429 . S
C3146 H3170 0.950 . S
C3147 C3164 1.574 . S
C3147 C3166 1.368 . S
C3147 H3171 0.949 . S
H3148 C3152 0.949 . S
C3149 C3150 1.349 . S
C3149 C3151 1.327 . S
C3149 H3172 0.950 . S
C3150 C3149 1.349 . S
C3150 C3162 1.349 . S
C3151 C3149 1.327 . S
C3151 C3167 1.429 . S
C3151 H3173 0.950 . S
C3152 H3148 0.949 . S
C3152 C3160 1.574 . S
C3152 C3168 1.368 . S
H3153 C3161 0.950 . S
H3154 C3159 0.950 . S
H3155 C3160 0.949 . S
H3156 C3162 0.950 . S
H3157 C3163 0.950 . S
H3158 C3164 0.949 . S
C3159 H3154 0.950 . S
C3159 C3161 1.327 . S
C3159 C3165 1.429 . S
C3160 C3152 1.574 . S
C3160 H3155 0.949 . S
C3160 C3166 1.368 . S
C3161 C3145 1.349 . S
C3161 H3153 0.950 . S
C3161 C3159 1.327 . S
C3162 C3150 1.349 . S
C3162 H3156 0.950 . S
C3162 C3163 1.327 . S
C3163 H3157 0.950 . S
C3163 C3162 1.327 . S
C3163 C3167 1.429 . S
C3164 C3147 1.574 . S
C3164 H3158 0.949 . S
C3164 C3168 1.368 . S
C3165 C3146 1.429 . S
C3165 C3159 1.429 . S
C3165 C3166 1.523 . S
C3166 C3147 1.368 . S
C3166 C3160 1.368 . S
C3166 C3165 1.523 . S
C3167 C3151 1.429 . S
C3167 C3163 1.429 . S
C3167 C3168 1.523 . S
C3168 C3152 1.368 . S
C3168 C3164 1.368 . S
C3168 C3167 1.523 . S
H3169 C3144 0.950 . S
H3170 C3146 0.950 . S
H3171 C3147 0.949 . S
H3172 C3149 0.950 . S
H3173 C3151 0.950 . S
C3174 C3175 1.349 . S
C3174 C3176 1.327 . S
C3174 H3199 0.950 . S
C3175 C3174 1.349 . S
C3175 C3191 1.349 . S
C3176 C3174 1.327 . S
C3176 C3195 1.429 . S
C3176 H3200 0.950 . S
C3177 C3194 1.574 . S
C3177 C3196 1.368 . S
C3177 H3201 0.949 . S
H3178 C3182 0.949 . S
C3179 C3180 1.349 . S
C3179 C3181 1.327 . S
C3179 H3202 0.950 . S
C3180 C3179 1.349 . S
C3180 C3192 1.349 . S
C3181 C3179 1.327 . S
C3181 C3197 1.429 . S
C3181 H3203 0.950 . S
C3182 H3178 0.949 . S
C3182 C3190 1.574 . S
C3182 C3198 1.368 . S
H3183 C3191 0.950 . S
H3184 C3189 0.950 . S
H3185 C3190 0.949 . S
H3186 C3192 0.950 1_545 S
H3187 C3193 0.986 . S
H3188 C3194 0.949 . S
C3189 H3184 0.950 . S
C3189 C3191 1.327 . S
C3189 C3195 1.429 . S
C3190 C3182 1.574 . S
C3190 H3185 0.949 . S
C3190 C3196 1.368 . S
C3191 C3175 1.349 . S
C3191 H3183 0.950 . S
C3191 C3189 1.327 . S
C3192 C3180 1.349 . S
C3192 H3186 0.950 1_565 S
C3192 C3193 1.327 . S
C3193 H3187 0.986 . S
C3193 C3192 1.327 . S
C3193 C3197 1.429 . S
C3194 C3177 1.574 . S
C3194 H3188 0.949 . S
C3194 C3198 1.368 . S
C3195 C3176 1.429 . S
C3195 C3189 1.429 . S
C3195 C3196 1.523 . S
C3196 C3177 1.368 . S
C3196 C3190 1.368 . S
C3196 C3195 1.523 . S
C3197 C3181 1.429 . S
C3197 C3193 1.429 . S
C3197 C3198 1.523 . S
C3198 C3182 1.368 . S
C3198 C3194 1.368 . S
C3198 C3197 1.523 . S
H3199 C3174 0.950 . S
H3200 C3176 0.950 . S
H3201 C3177 0.949 . S
H3202 C3179 0.950 . S
H3203 C3181 0.950 . S
C3204 C3205 1.349 . S
C3204 C3206 1.327 . S
C3204 H3229 0.950 . S
C3205 C3204 1.349 . S
C3205 C3221 1.349 . S
C3206 C3204 1.327 . S
C3206 C3225 1.429 . S
C3206 H3230 0.950 . S
C3207 C3224 1.574 . S
C3207 C3226 1.368 . S
C3207 H3231 0.949 . S
H3208 C3212 0.949 . S
C3209 C3210 1.349 . S
C3209 C3211 1.327 . S
C3209 H3232 0.950 . S
C3210 C3209 1.349 . S
C3210 C3222 1.349 1_545 S
C3211 C3209 1.327 . S
C3211 C3227 1.429 1_545 S
C3211 H3233 0.950 . S
C3212 H3208 0.949 . S
C3212 C3220 1.574 . S
C3212 C3228 1.368 . S
H3213 C3221 0.950 . S
H3214 C3219 0.950 . S
H3215 C3220 0.949 . S
H3216 C3222 0.950 . S
H3217 C3223 0.950 . S
H3218 C3224 0.949 1_545 S
C3219 H3214 0.950 . S
C3219 C3221 1.327 . S
C3219 C3225 1.429 . S
C3220 C3212 1.574 . S
C3220 H3215 0.949 . S
C3220 C3226 1.368 . S
C3221 C3205 1.349 . S
C3221 H3213 0.950 . S
C3221 C3219 1.327 . S
C3222 C3210 1.349 1_565 S
C3222 H3216 0.950 . S
C3222 C3223 1.327 . S
C3223 H3217 0.950 . S
C3223 C3222 1.327 . S
C3223 C3227 1.429 . S
C3224 C3207 1.574 . S
C3224 H3218 0.949 1_565 S
C3224 C3228 1.368 . S
C3225 C3206 1.429 . S
C3225 C3219 1.429 . S
C3225 C3226 1.523 . S
C3226 C3207 1.368 . S
C3226 C3220 1.368 . S
C3226 C3225 1.523 . S
C3227 C3211 1.429 1_565 S
C3227 C3223 1.429 . S
C3227 C3228 1.523 . S
C3228 C3212 1.368 . S
C3228 C3224 1.368 . S
C3228 C3227 1.523 . S
H3229 C3204 0.950 . S
H3230 C3206 0.950 . S
H3231 C3207 0.949 . S
H3232 C3209 0.950 . S
H3233 C3211 0.950 . S
C3234 C3235 1.349 . S
C3234 C3236 1.327 . S
C3234 H3259 0.980 . S
C3235 C3234 1.349 . S
C3235 C3251 1.349 . S
C3236 C3234 1.327 . S
C3236 C3255 1.429 . S
C3236 H3260 0.950 1_455 S
C3237 C3254 1.574 . S
C3237 C3256 1.368 . S
C3237 H3261 0.949 . S
H3238 C3242 0.949 . S
C3239 C3240 1.349 1_455 S
C3239 C3241 1.327 . S
C3239 H3262 0.950 . S
C3240 C3239 1.349 1_655 S
C3240 C3252 1.349 . S
C3241 C3239 1.327 . S
C3241 C3257 1.429 . S
C3241 H3263 0.950 . S
C3242 H3238 0.949 . S
C3242 C3250 1.574 . S
C3242 C3258 1.368 1_655 S
H3243 C3251 0.950 . S
H3244 C3249 0.950 . S
H3245 C3250 0.949 . S
H3246 C3252 0.950 . S
H3247 C3253 0.950 . S
H3248 C3254 0.949 . S
C3249 H3244 0.950 . S
C3249 C3251 1.327 . S
C3249 C3255 1.429 . S
C3250 C3242 1.574 . S
C3250 H3245 0.949 . S
C3250 C3256 1.368 1_655 S
C3251 C3235 1.349 . S
C3251 H3243 0.950 . S
C3251 C3249 1.327 . S
C3252 C3240 1.349 . S
C3252 H3246 0.950 . S
C3252 C3253 1.327 . S
C3253 H3247 0.950 . S
C3253 C3252 1.327 . S
C3253 C3257 1.429 1_655 S
C3254 C3237 1.574 . S
C3254 H3248 0.949 . S
C3254 C3258 1.368 . S
C3255 C3236 1.429 . S
C3255 C3249 1.429 . S
C3255 C3256 1.523 . S
C3256 C3237 1.368 . S
C3256 C3250 1.368 1_455 S
C3256 C3255 1.523 . S
C3257 C3241 1.429 . S
C3257 C3253 1.429 1_455 S
C3257 C3258 1.523 . S
C3258 C3242 1.368 1_455 S
C3258 C3254 1.368 . S
C3258 C3257 1.523 . S
H3259 C3234 0.980 . S
H3260 C3236 0.950 1_655 S
H3261 C3237 0.949 . S
H3262 C3239 0.950 . S
H3263 C3241 0.950 . S
C3264 C3265 1.349 . S
C3264 C3266 1.327 . S
C3264 H3289 0.950 . S
C3265 C3264 1.349 . S
C3265 C3281 1.349 . S
C3266 C3264 1.327 . S
C3266 C3285 1.429 . S
C3266 H3290 0.950 . S
C3267 C3284 1.574 . S
C3267 C3286 1.368 . S
C3267 H3291 0.949 . S
H3268 C3272 0.949 . S
C3269 C3270 1.349 . S
C3269 C3271 1.327 . S
C3269 H3292 0.950 . S
C3270 C3269 1.349 . S
C3270 C3282 1.349 . S
C3271 C3269 1.327 . S
C3271 C3287 1.429 . S
C3271 H3293 0.950 . S
C3272 H3268 0.949 . S
C3272 C3280 1.574 . S
C3272 C3288 1.368 . S
H3273 C3281 0.950 . S
H3274 C3279 0.950 . S
H3275 C3280 0.949 . S
H3276 C3282 0.950 . S
H3277 C3283 0.950 . S
H3278 C3284 0.949 . S
C3279 H3274 0.950 . S
C3279 C3281 1.327 . S
C3279 C3285 1.429 . S
C3280 C3272 1.574 . S
C3280 H3275 0.949 . S
C3280 C3286 1.368 . S
C3281 C3265 1.349 . S
C3281 H3273 0.950 . S
C3281 C3279 1.327 . S
C3282 C3270 1.349 . S
C3282 H3276 0.950 . S
C3282 C3283 1.327 . S
C3283 H3277 0.950 . S
C3283 C3282 1.327 . S
C3283 C3287 1.429 . S
C3284 C3267 1.574 . S
C3284 H3278 0.949 . S
C3284 C3288 1.368 . S
C3285 C3266 1.429 . S
C3285 C3279 1.429 . S
C3285 C3286 1.523 . S
C3286 C3267 1.368 . S
C3286 C3280 1.368 . S
C3286 C3285 1.523 . S
C3287 C3271 1.429 . S
C3287 C3283 1.429 . S
C3287 C3288 1.523 . S
C3288 C3272 1.368 . S
C3288 C3284 1.368 . S
C3288 C3287 1.523 . S
H3289 C3264 0.950 . S
H3290 C3266 0.950 . S
H3291 C3267 0.949 . S
H3292 C3269 0.950 . S
H3293 C3271 0.950 . S
C3294 C3295 1.349 . S
C3294 C3296 1.327 . S
C3294 H3319 0.950 . S
C3295 C3294 1.349 . S
C3295 C3311 1.349 . S
C3296 C3294 1.327 . S
C3296 C3315 1.429 . S
C3296 H3320 0.950 . S
C3297 C3314 1.574 . S
C3297 C3316 1.368 . S
C3297 H3321 0.949 . S
H3298 C3302 0.949 . S
C3299 C3300 1.349 . S
C3299 C3301 1.327 . S
C3299 H3322 0.950 . S
C3300 C3299 1.349 . S
C3300 C3312 1.349 . S
C3301 C3299 1.327 . S
C3301 C3317 1.429 . S
C3301 H3323 0.950 . S
C3302 H3298 0.949 . S
C3302 C3310 1.574 . S
C3302 C3318 1.368 . S
H3303 C3311 0.950 . S
H3304 C3309 0.950 . S
H3305 C3310 0.949 . S
H3306 C3312 0.950 . S
H3307 C3313 0.950 . S
H3308 C3314 0.949 . S
C3309 H3304 0.950 . S
C3309 C3311 1.327 . S
C3309 C3315 1.429 . S
C3310 C3302 1.574 . S
C3310 H3305 0.949 . S
C3310 C3316 1.368 . S
C3311 C3295 1.349 . S
C3311 H3303 0.950 . S
C3311 C3309 1.327 . S
C3312 C3300 1.349 . S
C3312 H3306 0.950 . S
C3312 C3313 1.327 . S
C3313 H3307 0.950 . S
C3313 C3312 1.327 . S
C3313 C3317 1.429 . S
C3314 C3297 1.574 . S
C3314 H3308 0.949 . S
C3314 C3318 1.368 . S
C3315 C3296 1.429 . S
C3315 C3309 1.429 . S
C3315 C3316 1.523 . S
C3316 C3297 1.368 . S
C3316 C3310 1.368 . S
C3316 C3315 1.523 . S
C3317 C3301 1.429 . S
C3317 C3313 1.429 . S
C3317 C3318 1.523 . S
C3318 C3302 1.368 . S
C3318 C3314 1.368 . S
C3318 C3317 1.523 . S
H3319 C3294 0.950 . S
H3320 C3296 0.950 . S
H3321 C3297 0.949 . S
H3322 C3299 0.950 . S
H3323 C3301 0.950 . S
C3324 C3325 1.349 . S
C3324 C3326 1.327 . S
C3324 H3349 0.950 . S
C3325 C3324 1.349 . S
C3325 C3341 1.349 . S
C3326 C3324 1.327 . S
C3326 C3345 1.429 . S
C3326 H3350 0.950 . S
C3327 C3344 1.574 . S
C3327 C3346 1.368 . S
C3327 H3351 0.949 . S
H3328 C3332 0.949 . S
C3329 C3330 1.349 . S
C3329 C3331 1.327 . S
C3329 H3352 0.950 . S
C3330 C3329 1.349 . S
C3330 C3342 1.349 . S
C3331 C3329 1.327 . S
C3331 C3347 1.429 . S
C3331 H3353 0.950 . S
C3332 H3328 0.949 . S
C3332 C3340 1.574 . S
C3332 C3348 1.368 . S
H3333 C3341 0.950 . S
H3334 C3339 0.950 . S
H3335 C3340 0.949 . S
H3336 C3342 0.950 . S
H3337 C3343 0.950 . S
H3338 C3344 0.949 . S
C3339 H3334 0.950 . S
C3339 C3341 1.327 . S
C3339 C3345 1.429 . S
C3340 C3332 1.574 . S
C3340 H3335 0.949 . S
C3340 C3346 1.368 . S
C3341 C3325 1.349 . S
C3341 H3333 0.950 . S
C3341 C3339 1.327 . S
C3342 C3330 1.349 . S
C3342 H3336 0.950 . S
C3342 C3343 1.327 . S
C3343 H3337 0.950 . S
C3343 C3342 1.327 . S
C3343 C3347 1.429 . S
C3344 C3327 1.574 . S
C3344 H3338 0.949 . S
C3344 C3348 1.368 . S
C3345 C3326 1.429 . S
C3345 C3339 1.429 . S
C3345 C3346 1.523 . S
C3346 C3327 1.368 . S
C3346 C3340 1.368 . S
C3346 C3345 1.523 . S
C3347 C3331 1.429 . S
C3347 C3343 1.429 . S
C3347 C3348 1.523 . S
C3348 C3332 1.368 . S
C3348 C3344 1.368 . S
C3348 C3347 1.523 . S
H3349 C3324 0.950 . S
H3350 C3326 0.950 . S
H3351 C3327 0.949 . S
H3352 C3329 0.950 . S
H3353 C3331 0.950 . S
C3354 C3355 1.349 . S
C3354 C3356 1.327 . S
C3354 H3379 0.950 . S
C3355 C3354 1.349 . S
C3355 C3371 1.349 . S
C3356 C3354 1.327 . S
C3356 C3375 1.429 . S
C3356 H3380 0.950 . S
C3357 C3374 1.574 . S
C3357 C3376 1.368 . S
C3357 H3381 0.949 . S
H3358 C3362 0.949 . S
C3359 C3360 1.349 . S
C3359 C3361 1.327 . S
C3359 H3382 0.950 . S
C3360 C3359 1.349 . S
C3360 C3372 1.349 . S
C3361 C3359 1.327 . S
C3361 C3377 1.429 . S
C3361 H3383 0.950 . S
C3362 H3358 0.949 . S
C3362 C3370 1.574 . S
C3362 C3378 1.368 . S
H3363 C3371 0.950 . S
H3364 C3369 0.950 . S
H3365 C3370 0.949 . S
H3366 C3372 0.950 . S
H3367 C3373 0.950 . S
H3368 C3374 0.949 . S
C3369 H3364 0.950 . S
C3369 C3371 1.327 . S
C3369 C3375 1.429 . S
C3370 C3362 1.574 . S
C3370 H3365 0.949 . S
C3370 C3376 1.368 . S
C3371 C3355 1.349 . S
C3371 H3363 0.950 . S
C3371 C3369 1.327 . S
C3372 C3360 1.349 . S
C3372 H3366 0.950 . S
C3372 C3373 1.327 . S
C3373 H3367 0.950 . S
C3373 C3372 1.327 . S
C3373 C3377 1.429 . S
C3374 C3357 1.574 . S
C3374 H3368 0.949 . S
C3374 C3378 1.368 . S
C3375 C3356 1.429 . S
C3375 C3369 1.429 . S
C3375 C3376 1.523 . S
C3376 C3357 1.368 . S
C3376 C3370 1.368 . S
C3376 C3375 1.523 . S
C3377 C3361 1.429 . S
C3377 C3373 1.429 . S
C3377 C3378 1.523 . S
C3378 C3362 1.368 . S
C3378 C3374 1.368 . S
C3378 C3377 1.523 . S
H3379 C3354 0.950 . S
H3380 C3356 0.950 . S
H3381 C3357 0.949 . S
H3382 C3359 0.950 . S
H3383 C3361 0.950 . S
C3384 C3385 1.349 . S
C3384 C3386 1.327 . S
C3384 H3409 0.950 . S
C3385 C3384 1.349 . S
C3385 C3401 1.349 . S
C3386 C3384 1.327 . S
C3386 C3405 1.429 . S
C3386 H3410 0.868 1_545 S
C3387 C3404 1.574 . S
C3387 C3406 1.368 . S
C3387 H3411 0.949 . S
H3388 C3392 0.949 1_565 S
C3389 C3390 1.349 . S
C3389 C3391 1.327 . S
C3389 H3412 0.950 . S
C3390 C3389 1.349 . S
C3390 C3402 1.349 1_545 S
C3391 C3389 1.327 . S
C3391 C3407 1.429 . S
C3391 H3413 0.950 . S
C3392 H3388 0.949 1_545 S
C3392 C3400 1.574 . S
C3392 C3408 1.368 . S
H3393 C3401 0.950 . S
H3394 C3399 0.950 . S
H3395 C3400 0.949 1_565 S
H3396 C3402 0.950 . S
H3397 C3403 0.950 1_565 S
H3398 C3404 0.949 . S
C3399 H3394 0.950 . S
C3399 C3401 1.327 . S
C3399 C3405 1.429 . S
C3400 C3392 1.574 . S
C3400 H3395 0.949 1_545 S
C3400 C3406 1.368 . S
C3401 C3385 1.349 . S
C3401 H3393 0.950 . S
C3401 C3399 1.327 . S
C3402 C3390 1.349 1_565 S
C3402 H3396 0.950 . S
C3402 C3403 1.328 1_565 S
C3403 H3397 0.950 1_545 S
C3403 C3402 1.328 1_545 S
C3403 C3407 1.427 . S
C3404 C3387 1.574 . S
C3404 H3398 0.949 . S
C3404 C3408 1.368 . S
C3405 C3386 1.429 . S
C3405 C3399 1.429 . S
C3405 C3406 1.523 . S
C3406 C3387 1.368 . S
C3406 C3400 1.368 . S
C3406 C3405 1.523 . S
C3407 C3391 1.429 . S
C3407 C3403 1.427 . S
C3407 C3408 1.523 . S
C3408 C3392 1.368 . S
C3408 C3404 1.368 . S
C3408 C3407 1.523 . S
H3409 C3384 0.950 . S
H3410 C3386 0.868 1_565 S
H3411 C3387 0.949 . S
H3412 C3389 0.950 . S
H3413 C3391 0.950 . S
C3414 C3415 1.349 . S
C3414 C3416 1.327 . S
C3414 H3439 0.950 . S
C3415 C3414 1.349 . S
C3415 C3431 1.349 . S
C3416 C3414 1.327 . S
C3416 C3435 1.429 . S
C3416 H3440 0.950 . S
C3417 C3434 1.574 . S
C3417 C3436 1.368 . S
C3417 H3441 0.949 . S
H3418 C3422 0.949 . S
C3419 C3420 1.349 . S
C3419 C3421 1.327 . S
C3419 H3442 0.950 . S
C3420 C3419 1.349 . S
C3420 C3432 1.349 . S
C3421 C3419 1.327 . S
C3421 C3437 1.429 . S
C3421 H3443 0.950 . S
C3422 H3418 0.949 . S
C3422 C3430 1.574 . S
C3422 C3438 1.368 . S
H3423 C3431 0.950 . S
H3424 C3429 0.950 . S
H3425 C3430 0.949 . S
H3426 C3432 0.950 . S
H3427 C3433 0.950 . S
H3428 C3434 0.949 . S
C3429 H3424 0.950 . S
C3429 C3431 1.327 . S
C3429 C3435 1.429 . S
C3430 C3422 1.574 . S
C3430 H3425 0.949 . S
C3430 C3436 1.368 . S
C3431 C3415 1.349 . S
C3431 H3423 0.950 . S
C3431 C3429 1.327 . S
C3432 C3420 1.349 . S
C3432 H3426 0.950 . S
C3432 C3433 1.327 . S
C3433 H3427 0.950 . S
C3433 C3432 1.327 . S
C3433 C3437 1.429 . S
C3434 C3417 1.574 . S
C3434 H3428 0.949 . S
C3434 C3438 1.368 . S
C3435 C3416 1.429 . S
C3435 C3429 1.429 . S
C3435 C3436 1.523 . S
C3436 C3417 1.368 . S
C3436 C3430 1.368 . S
C3436 C3435 1.523 . S
C3437 C3421 1.429 . S
C3437 C3433 1.429 . S
C3437 C3438 1.523 . S
C3438 C3422 1.368 . S
C3438 C3434 1.368 . S
C3438 C3437 1.523 . S
H3439 C3414 0.950 . S
H3440 C3416 0.950 . S
H3441 C3417 0.949 . S
H3442 C3419 0.950 . S
H3443 C3421 0.950 . S
C3444 C3445 1.349 . S
C3444 C3446 1.327 . S
C3444 H3469 0.950 . S
C3445 C3444 1.349 . S
C3445 C3461 1.349 . S
C3446 C3444 1.327 . S
C3446 C3465 1.429 . S
C3446 H3470 0.950 . S
C3447 C3464 1.574 . S
C3447 C3466 1.368 . S
C3447 H3471 0.949 . S
H3448 C3452 0.949 . S
C3449 C3450 1.349 . S
C3449 C3451 1.327 . S
C3449 H3472 0.950 . S
C3450 C3449 1.349 . S
C3450 C3462 1.349 . S
C3451 C3449 1.327 . S
C3451 C3467 1.429 . S
C3451 H3473 0.950 . S
C3452 H3448 0.949 . S
C3452 C3460 1.574 . S
C3452 C3468 1.368 . S
H3453 C3461 0.950 . S
H3454 C3459 0.950 . S
H3455 C3460 0.949 . S
H3456 C3462 0.950 . S
H3457 C3463 0.950 . S
H3458 C3464 0.949 . S
C3459 H3454 0.950 . S
C3459 C3461 1.327 . S
C3459 C3465 1.429 . S
C3460 C3452 1.574 . S
C3460 H3455 0.949 . S
C3460 C3466 1.368 . S
C3461 C3445 1.349 . S
C3461 H3453 0.950 . S
C3461 C3459 1.327 . S
C3462 C3450 1.349 . S
C3462 H3456 0.950 . S
C3462 C3463 1.327 . S
C3463 H3457 0.950 . S
C3463 C3462 1.327 . S
C3463 C3467 1.429 . S
C3464 C3447 1.574 . S
C3464 H3458 0.949 . S
C3464 C3468 1.368 . S
C3465 C3446 1.429 . S
C3465 C3459 1.429 . S
C3465 C3466 1.523 . S
C3466 C3447 1.368 . S
C3466 C3460 1.368 . S
C3466 C3465 1.523 . S
C3467 C3451 1.429 . S
C3467 C3463 1.429 . S
C3467 C3468 1.523 . S
C3468 C3452 1.368 . S
C3468 C3464 1.368 . S
C3468 C3467 1.523 . S
H3469 C3444 0.950 . S
H3470 C3446 0.950 . S
H3471 C3447 0.949 . S
H3472 C3449 0.950 . S
H3473 C3451 0.950 . S
C3474 C3475 1.349 . S
C3474 C3476 1.327 . S
C3474 H3499 0.950 . S
C3475 C3474 1.349 . S
C3475 C3491 1.349 . S
C3476 C3474 1.327 . S
C3476 C3495 1.429 . S
C3476 H3500 0.950 . S
C3477 C3494 1.574 . S
C3477 C3496 1.368 . S
C3477 H3501 0.949 . S
H3478 C3482 0.949 . S
C3479 C3480 1.349 . S
C3479 C3481 1.327 . S
C3479 H3502 0.950 . S
C3480 C3479 1.349 . S
C3480 C3492 1.349 . S
C3481 C3479 1.327 . S
C3481 C3497 1.429 . S
C3481 H3503 0.950 . S
C3482 H3478 0.949 . S
C3482 C3490 1.574 . S
C3482 C3498 1.368 . S
H3483 C3491 0.950 . S
H3484 C3489 0.950 . S
H3485 C3490 0.949 . S
H3486 C3492 0.950 . S
H3487 C3493 0.950 . S
H3488 C3494 0.949 . S
C3489 H3484 0.950 . S
C3489 C3491 1.327 . S
C3489 C3495 1.429 . S
C3490 C3482 1.574 . S
C3490 H3485 0.949 . S
C3490 C3496 1.368 . S
C3491 C3475 1.349 . S
C3491 H3483 0.950 . S
C3491 C3489 1.327 . S
C3492 C3480 1.349 . S
C3492 H3486 0.950 . S
C3492 C3493 1.327 . S
C3493 H3487 0.950 . S
C3493 C3492 1.327 . S
C3493 C3497 1.429 . S
C3494 C3477 1.574 . S
C3494 H3488 0.949 . S
C3494 C3498 1.368 . S
C3495 C3476 1.429 . S
C3495 C3489 1.429 . S
C3495 C3496 1.523 . S
C3496 C3477 1.368 . S
C3496 C3490 1.368 . S
C3496 C3495 1.523 . S
C3497 C3481 1.429 . S
C3497 C3493 1.429 . S
C3497 C3498 1.523 . S
C3498 C3482 1.368 . S
C3498 C3494 1.368 . S
C3498 C3497 1.523 . S
H3499 C3474 0.950 . S
H3500 C3476 0.950 . S
H3501 C3477 0.949 . S
H3502 C3479 0.950 . S
H3503 C3481 0.950 . S
C3504 C3505 1.349 . S
C3504 C3506 1.327 . S
C3504 H3529 0.950 . S
C3505 C3504 1.349 . S
C3505 C3521 1.349 . S
C3506 C3504 1.327 . S
C3506 C3525 1.429 . S
C3506 H3530 0.950 . S
C3507 C3524 1.574 . S
C3507 C3526 1.368 . S
C3507 H3531 0.949 . S
H3508 C3512 0.949 . S
C3509 C3510 1.349 . S
C3509 C3511 1.327 . S
C3509 H3532 0.950 . S
C3510 C3509 1.349 . S
C3510 C3522 1.349 . S
C3511 C3509 1.327 . S
C3511 C3527 1.429 . S
C3511 H3533 0.950 . S
C3512 H3508 0.949 . S
C3512 C3520 1.574 . S
C3512 C3528 1.368 . S
H3513 C3521 0.950 . S
H3514 C3519 0.950 . S
H3515 C3520 0.949 . S
H3516 C3522 0.950 . S
H3517 C3523 0.950 . S
H3518 C3524 0.949 . S
C3519 H3514 0.950 . S
C3519 C3521 1.327 . S
C3519 C3525 1.429 . S
C3520 C3512 1.574 . S
C3520 H3515 0.949 . S
C3520 C3526 1.368 . S
C3521 C3505 1.349 . S
C3521 H3513 0.950 . S
C3521 C3519 1.327 . S
C3522 C3510 1.349 . S
C3522 H3516 0.950 . S
C3522 C3523 1.327 . S
C3523 H3517 0.950 . S
C3523 C3522 1.327 . S
C3523 C3527 1.429 . S
C3524 C3507 1.574 . S
C3524 H3518 0.949 . S
C3524 C3528 1.368 . S
C3525 C3506 1.429 . S
C3525 C3519 1.429 . S
C3525 C3526 1.523 . S
C3526 C3507 1.368 . S
C3526 C3520 1.368 . S
C3526 C3525 1.523 . S
C3527 C3511 1.429 . S
C3527 C3523 1.429 . S
C3527 C3528 1.523 . S
C3528 C3512 1.368 . S
C3528 C3524 1.368 . S
C3528 C3527 1.523 . S
H3529 C3504 0.950 . S
H3530 C3506 0.950 . S
H3531 C3507 0.949 . S
H3532 C3509 0.950 . S
H3533 C3511 0.950 . S
C3534 C3535 1.349 . S
C3534 C3536 1.327 . S
C3534 H3559 0.950 . S
C3535 C3534 1.349 . S
C3535 C3551 1.349 . S
C3536 C3534 1.327 . S
C3536 C3555 1.429 . S
C3536 H3560 0.950 . S
C3537 C3554 1.574 . S
C3537 C3556 1.368 . S
C3537 H3561 0.949 . S
H3538 C3542 0.949 . S
C3539 C3540 1.349 . S
C3539 C3541 1.327 . S
C3539 H3562 0.950 . S
C3540 C3539 1.349 . S
C3540 C3552 1.349 . S
C3541 C3539 1.327 . S
C3541 C3557 1.429 . S
C3541 H3563 0.950 . S
C3542 H3538 0.949 . S
C3542 C3550 1.574 . S
C3542 C3558 1.368 . S
H3543 C3551 0.950 . S
H3544 C3549 0.950 . S
H3545 C3550 0.949 . S
H3546 C3552 0.950 . S
H3547 C3553 0.950 . S
H3548 C3554 0.949 . S
C3549 H3544 0.950 . S
C3549 C3551 1.327 . S
C3549 C3555 1.429 . S
C3550 C3542 1.574 . S
C3550 H3545 0.949 . S
C3550 C3556 1.368 . S
C3551 C3535 1.349 . S
C3551 H3543 0.950 . S
C3551 C3549 1.327 . S
C3552 C3540 1.349 . S
C3552 H3546 0.950 . S
C3552 C3553 1.327 . S
C3553 H3547 0.950 . S
C3553 C3552 1.327 . S
C3553 C3557 1.429 . S
C3554 C3537 1.574 . S
C3554 H3548 0.949 . S
C3554 C3558 1.368 . S
C3555 C3536 1.429 . S
C3555 C3549 1.429 . S
C3555 C3556 1.523 . S
C3556 C3537 1.368 . S
C3556 C3550 1.368 . S
C3556 C3555 1.523 . S
C3557 C3541 1.429 . S
C3557 C3553 1.429 . S
C3557 C3558 1.523 . S
C3558 C3542 1.368 . S
C3558 C3554 1.368 . S
C3558 C3557 1.523 . S
H3559 C3534 0.950 . S
H3560 C3536 0.950 . S
H3561 C3537 0.949 . S
H3562 C3539 0.950 . S
H3563 C3541 0.950 . S
C3564 C3565 1.349 . S
C3564 C3566 1.327 . S
C3564 H3589 0.950 . S
C3565 C3564 1.349 . S
C3565 C3581 1.349 . S
C3566 C3564 1.327 . S
C3566 C3585 1.429 . S
C3566 H3590 0.950 . S
C3567 C3584 1.574 . S
C3567 C3586 1.368 . S
C3567 H3591 0.949 . S
H3568 C3572 0.949 . S
C3569 C3570 1.349 . S
C3569 C3571 1.327 . S
C3569 H3592 0.950 . S
C3570 C3569 1.349 . S
C3570 C3582 1.349 . S
C3571 C3569 1.327 . S
C3571 C3587 1.429 . S
C3571 H3593 0.950 . S
C3572 H3568 0.949 . S
C3572 C3580 1.574 . S
C3572 C3588 1.368 . S
H3573 C3581 0.950 . S
H3574 C3579 0.950 . S
H3575 C3580 0.949 . S
H3576 C3582 0.950 . S
H3577 C3583 0.950 . S
H3578 C3584 0.949 . S
C3579 H3574 0.950 . S
C3579 C3581 1.327 . S
C3579 C3585 1.429 . S
C3580 C3572 1.574 . S
C3580 H3575 0.949 . S
C3580 C3586 1.368 . S
C3581 C3565 1.349 . S
C3581 H3573 0.950 . S
C3581 C3579 1.327 . S
C3582 C3570 1.349 . S
C3582 H3576 0.950 . S
C3582 C3583 1.327 . S
C3583 H3577 0.950 . S
C3583 C3582 1.327 . S
C3583 C3587 1.429 . S
C3584 C3567 1.574 . S
C3584 H3578 0.949 . S
C3584 C3588 1.368 . S
C3585 C3566 1.429 . S
C3585 C3579 1.429 . S
C3585 C3586 1.523 . S
C3586 C3567 1.368 . S
C3586 C3580 1.368 . S
C3586 C3585 1.523 . S
C3587 C3571 1.429 . S
C3587 C3583 1.429 . S
C3587 C3588 1.523 . S
C3588 C3572 1.368 . S
C3588 C3584 1.368 . S
C3588 C3587 1.523 . S
H3589 C3564 0.950 . S
H3590 C3566 0.950 . S
H3591 C3567 0.949 . S
H3592 C3569 0.950 . S
H3593 C3571 0.950 . S
C3594 C3595 1.349 . S
C3594 C3596 1.327 . S
C3594 H3619 0.950 . S
C3595 C3594 1.349 . S
C3595 C3611 1.349 . S
C3596 C3594 1.327 . S
C3596 C3615 1.429 . S
C3596 H3620 0.950 . S
C3597 C3614 1.574 . S
C3597 C3616 1.368 . S
C3597 H3621 0.949 . S
H3598 C3602 0.949 . S
C3599 C3600 1.349 . S
C3599 C3601 1.327 . S
C3599 H3622 0.950 . S
C3600 C3599 1.349 . S
C3600 C3612 1.349 . S
C3601 C3599 1.327 . S
C3601 C3617 1.429 . S
C3601 H3623 0.950 . S
C3602 H3598 0.949 . S
C3602 C3610 1.574 . S
C3602 C3618 1.368 . S
H3603 C3611 0.950 . S
H3604 C3609 0.950 . S
H3605 C3610 0.949 . S
H3606 C3612 0.950 . S
H3607 C3613 0.950 . S
H3608 C3614 0.949 . S
C3609 H3604 0.950 . S
C3609 C3611 1.327 . S
C3609 C3615 1.429 . S
C3610 C3602 1.574 . S
C3610 H3605 0.949 . S
C3610 C3616 1.368 . S
C3611 C3595 1.349 . S
C3611 H3603 0.950 . S
C3611 C3609 1.327 . S
C3612 C3600 1.349 . S
C3612 H3606 0.950 . S
C3612 C3613 1.327 . S
C3613 H3607 0.950 . S
C3613 C3612 1.327 . S
C3613 C3617 1.429 . S
C3614 C3597 1.574 . S
C3614 H3608 0.949 . S
C3614 C3618 1.368 . S
C3615 C3596 1.429 . S
C3615 C3609 1.429 . S
C3615 C3616 1.523 . S
C3616 C3597 1.368 . S
C3616 C3610 1.368 . S
C3616 C3615 1.523 . S
C3617 C3601 1.429 . S
C3617 C3613 1.429 . S
C3617 C3618 1.523 . S
C3618 C3602 1.368 . S
C3618 C3614 1.368 . S
C3618 C3617 1.523 . S
H3619 C3594 0.950 . S
H3620 C3596 0.950 . S
H3621 C3597 0.949 . S
H3622 C3599 0.950 . S
H3623 C3601 0.950 . S
C3624 C3625 1.349 . S
C3624 C3626 1.327 . S
C3624 H3649 0.950 . S
C3625 C3624 1.349 . S
C3625 C3641 1.349 . S
C3626 C3624 1.327 . S
C3626 C3645 1.429 . S
C3626 H3650 0.950 . S
C3627 C3644 1.574 . S
C3627 C3646 1.368 . S
C3627 H3651 0.949 . S
H3628 C3632 0.949 . S
C3629 C3630 1.349 . S
C3629 C3631 1.327 . S
C3629 H3652 0.950 . S
C3630 C3629 1.349 . S
C3630 C3642 1.349 . S
C3631 C3629 1.327 . S
C3631 C3647 1.429 . S
C3631 H3653 0.950 . S
C3632 H3628 0.949 . S
C3632 C3640 1.574 . S
C3632 C3648 1.368 . S
H3633 C3641 0.889 1_655 S
H3634 C3639 0.950 . S
H3635 C3640 0.949 . S
H3636 C3642 0.950 . S
H3637 C3643 0.950 . S
H3638 C3644 0.949 . S
C3639 H3634 0.950 . S
C3639 C3641 1.327 . S
C3639 C3645 1.429 . S
C3640 C3632 1.574 . S
C3640 H3635 0.949 . S
C3640 C3646 1.368 . S
C3641 C3625 1.349 . S
C3641 H3633 0.889 1_455 S
C3641 C3639 1.327 . S
C3642 C3630 1.349 . S
C3642 H3636 0.950 . S
C3642 C3643 1.327 . S
C3643 H3637 0.950 . S
C3643 C3642 1.327 . S
C3643 C3647 1.429 . S
C3644 C3627 1.574 . S
C3644 H3638 0.949 . S
C3644 C3648 1.368 . S
C3645 C3626 1.429 . S
C3645 C3639 1.429 . S
C3645 C3646 1.523 . S
C3646 C3627 1.368 . S
C3646 C3640 1.368 . S
C3646 C3645 1.523 . S
C3647 C3631 1.429 . S
C3647 C3643 1.429 . S
C3647 C3648 1.523 . S
C3648 C3632 1.368 . S
C3648 C3644 1.368 . S
C3648 C3647 1.523 . S
H3649 C3624 0.950 . S
H3650 C3626 0.950 . S
H3651 C3627 0.949 . S
H3652 C3629 0.950 . S
H3653 C3631 0.950 . S
C3654 C3655 1.349 . S
C3654 C3656 1.327 . S
C3654 H3679 0.950 . S
C3655 C3654 1.349 . S
C3655 C3671 1.349 . S
C3656 C3654 1.327 . S
C3656 C3675 1.429 . S
C3656 H3680 0.950 . S
C3657 C3674 1.574 . S
C3657 C3676 1.368 . S
C3657 H3681 0.949 . S
H3658 C3662 0.949 . S
C3659 C3660 1.349 . S
C3659 C3661 1.327 . S
C3659 H3682 0.950 . S
C3660 C3659 1.349 . S
C3660 C3672 1.349 . S
C3661 C3659 1.327 . S
C3661 C3677 1.429 . S
C3661 H3683 0.950 . S
C3662 H3658 0.949 . S
C3662 C3670 1.574 . S
C3662 C3678 1.368 . S
H3663 C3671 0.950 . S
H3664 C3669 0.950 . S
H3665 C3670 0.949 . S
H3666 C3672 0.893 1_455 S
H3667 C3673 0.950 . S
H3668 C3674 0.949 . S
C3669 H3664 0.950 . S
C3669 C3671 1.327 . S
C3669 C3675 1.429 . S
C3670 C3662 1.574 . S
C3670 H3665 0.949 . S
C3670 C3676 1.368 . S
C3671 C3655 1.349 . S
C3671 H3663 0.950 . S
C3671 C3669 1.327 . S
C3672 C3660 1.349 . S
C3672 H3666 0.893 1_655 S
C3672 C3673 1.327 . S
C3673 H3667 0.950 . S
C3673 C3672 1.327 . S
C3673 C3677 1.429 . S
C3674 C3657 1.574 . S
C3674 H3668 0.949 . S
C3674 C3678 1.368 . S
C3675 C3656 1.429 . S
C3675 C3669 1.429 . S
C3675 C3676 1.523 . S
C3676 C3657 1.368 . S
C3676 C3670 1.368 . S
C3676 C3675 1.523 . S
C3677 C3661 1.429 . S
C3677 C3673 1.429 . S
C3677 C3678 1.523 . S
C3678 C3662 1.368 . S
C3678 C3674 1.368 . S
C3678 C3677 1.523 . S
H3679 C3654 0.950 . S
H3680 C3656 0.950 . S
H3681 C3657 0.949 . S
H3682 C3659 0.950 . S
H3683 C3661 0.950 . S
C3684 C3685 1.349 . S
C3684 C3686 1.327 . S
C3684 H3709 0.950 . S
C3685 C3684 1.349 . S
C3685 C3701 1.349 . S
C3686 C3684 1.327 . S
C3686 C3705 1.429 . S
C3686 H3710 0.950 . S
C3687 C3704 1.574 . S
C3687 C3706 1.368 . S
C3687 H3711 0.949 . S
H3688 C3692 0.949 . S
C3689 C3690 1.349 . S
C3689 C3691 1.327 . S
C3689 H3712 0.950 . S
C3690 C3689 1.349 . S
C3690 C3702 1.349 . S
C3691 C3689 1.327 . S
C3691 C3707 1.429 . S
C3691 H3713 0.950 . S
C3692 H3688 0.949 . S
C3692 C3700 1.574 . S
C3692 C3708 1.368 . S
H3693 C3701 0.950 . S
H3694 C3699 0.950 . S
H3695 C3700 0.949 . S
H3696 C3702 0.950 . S
H3697 C3703 0.950 . S
H3698 C3704 0.949 . S
C3699 H3694 0.950 . S
C3699 C3701 1.327 . S
C3699 C3705 1.429 . S
C3700 C3692 1.574 . S
C3700 H3695 0.949 . S
C3700 C3706 1.368 . S
C3701 C3685 1.349 . S
C3701 H3693 0.950 . S
C3701 C3699 1.327 . S
C3702 C3690 1.349 . S
C3702 H3696 0.950 . S
C3702 C3703 1.327 . S
C3703 H3697 0.950 . S
C3703 C3702 1.327 . S
C3703 C3707 1.429 . S
C3704 C3687 1.574 . S
C3704 H3698 0.949 . S
C3704 C3708 1.368 . S
C3705 C3686 1.429 . S
C3705 C3699 1.429 . S
C3705 C3706 1.523 . S
C3706 C3687 1.368 . S
C3706 C3700 1.368 . S
C3706 C3705 1.523 . S
C3707 C3691 1.429 . S
C3707 C3703 1.429 . S
C3707 C3708 1.523 . S
C3708 C3692 1.368 . S
C3708 C3704 1.368 . S
C3708 C3707 1.523 . S
H3709 C3684 0.950 . S
H3710 C3686 0.950 . S
H3711 C3687 0.949 . S
H3712 C3689 0.950 . S
H3713 C3691 0.950 . S
C3714 C3715 1.349 . S
C3714 C3716 1.327 . S
C3714 H3739 0.950 . S
C3715 C3714 1.349 . S
C3715 C3731 1.349 . S
C3716 C3714 1.327 . S
C3716 C3735 1.429 . S
C3716 H3740 0.950 . S
C3717 C3734 1.587 1_545 S
C3717 C3736 1.368 . S
C3717 H3741 0.949 1_545 S
H3718 C3722 0.949 . S
C3719 C3720 1.349 1_565 S
C3719 C3721 1.327 . S
C3719 H3742 0.950 . S
C3720 C3719 1.349 1_545 S
C3720 C3732 1.349 . S
C3721 C3719 1.327 . S
C3721 C3737 1.429 1_565 S
C3721 H3743 0.950 . S
C3722 H3718 0.949 . S
C3722 C3730 1.574 . S
C3722 C3738 1.368 . S
H3723 C3731 0.950 . S
H3724 C3729 0.971 . S
H3725 C3730 0.949 . S
H3726 C3732 0.950 . S
H3727 C3733 0.950 . S
H3728 C3734 1.004 . S
C3729 H3724 0.971 . S
C3729 C3731 1.327 . S
C3729 C3735 1.429 . S
C3730 C3722 1.574 . S
C3730 H3725 0.949 . S
C3730 C3736 1.368 . S
C3731 C3715 1.349 . S
C3731 H3723 0.950 . S
C3731 C3729 1.327 . S
C3732 C3720 1.349 . S
C3732 H3726 0.950 . S
C3732 C3733 1.327 . S
C3733 H3727 0.950 . S
C3733 C3732 1.327 . S
C3733 C3737 1.429 . S
C3734 C3717 1.587 1_565 S
C3734 H3728 1.004 . S
C3734 C3738 1.298 1_565 S
C3735 C3716 1.429 . S
C3735 C3729 1.429 . S
C3735 C3736 1.523 . S
C3736 C3717 1.368 . S
C3736 C3730 1.368 . S
C3736 C3735 1.523 . S
C3737 C3721 1.429 1_545 S
C3737 C3733 1.429 . S
C3737 C3738 1.523 . S
C3738 C3722 1.368 . S
C3738 C3734 1.298 1_545 S
C3738 C3737 1.523 . S
H3739 C3714 0.950 . S
H3740 C3716 0.950 . S
H3741 C3717 0.949 1_565 S
H3742 C3719 0.950 . S
H3743 C3721 0.950 . S
C1585 C8 1.110 . S
C1590 C981 1.036 . S
C1615 C22 1.564 . S
C1620 C1061 1.556 . S
C1650 C1129 1.336 . S
C1645 C37 1.357 1_545 S
C1675 C36 1.753 1_566 S
C1680 C1209 1.786 . S
C1705 C9 1.464 1_556 S
C1710 C1283 1.487 . S
C1735 C23 1.579 . S
C1740 C1351 1.524 . S
C1765 C50 0.989 1_455 S
C1770 C1277 0.967 1_655 S
C1800 C1357 1.479 . S
C1795 C64 1.450 . S
C1830 C1203 1.287 . S
C1825 C79 1.311 1_565 S
C1855 C78 1.712 . S
C1860 C1135 1.757 . S
C1890 C987 1.469 . S
C1885 C51 1.427 1_655 S
C1915 C65 1.433 . S
C1920 C1055 1.429 . S
C1945 C92 1.289 . S
C1950 C1425 1.219 . S
C1975 C106 1.608 . S
C1980 C1505 1.592 . S
C2010 C1573 1.491 . S
C2005 C121 1.543 . S
C2035 C120 1.898 . S
C2040 C321 1.890 . S
C2065 C93 1.635 . S
C2070 C395 1.616 . S
C2095 C107 1.598 . S
C2100 C463 1.542 . S
C2125 C134 1.021 . S
C2130 C389 1.005 . S
C2155 C148 1.491 . S
C2160 C469 1.519 . S
C2190 C315 1.390 . S
C2185 C163 1.387 . S
C2220 C1579 1.916 . S
C2215 C162 1.881 . S
C2250 C1431 1.520 . S
C2245 C135 1.504 . S
C2280 C1499 1.490 . S
C2275 C149 1.495 . S
C2305 C176 1.181 . S
C2310 C537 1.120 . S
C2335 C190 1.616 . S
C2340 C617 1.602 . S
C2365 C205 1.543 . S
C2370 C685 1.494 . S
C2395 C204 1.998 . S
C2400 C765 1.986 . S
C2430 C839 1.603 . S
C2425 C177 1.627 . S
C2460 C907 1.588 . S
C2455 C191 1.649 . S
C2490 C833 1.112 . S
C2485 C218 1.133 . S
C2520 C913 1.506 . S
C2515 C232 1.483 . S
C2545 C247 1.379 . S
C2550 C759 1.379 . S
C2580 C691 1.814 . S
C2575 C246 1.776 . S
C2605 C219 1.519 . S
C2610 C543 1.539 . S
C2640 C611 1.441 . S
C2635 C233 1.441 . S
C2670 C291 1.967 . S
C2665 C6 1.999 . S
C2695 C20 1.424 . S
C2700 C365 1.432 . S
C2730 C451 1.458 . S
C2725 C35 1.450 . S
C2760 C525 1.112 . S
C2755 C34 1.094 1_556 S
C2790 C587 1.600 . S
C2785 C7 1.604 . S
C2820 C673 1.519 . S
C2815 C21 1.509 . S
C2845 C48 2.135 . S
C2850 C661 2.059 . S
C2875 C62 1.562 . S
C2880 C513 1.524 . S
C2905 C77 1.619 . S
C2910 C599 1.590 . S
C2935 C76 1.281 . S
C2940 C377 1.253 . S
C2970 C439 1.690 . S
C2965 C49 1.749 . S
C2995 C63 1.673 . S
C3000 C303 1.645 . S
C3030 C735 1.949 . S
C3025 C90 1.970 . S
C3055 C104 1.550 1_545 S
C3060 C809 1.566 . S
C3085 C119 1.473 1_655 S
C3090 C895 1.487 . S
C3120 C969 1.011 . S
C3115 C118 0.992 . S
C3145 C91 1.560 . S
C3150 C1031 1.564 . S
C3175 C105 1.434 . S
C3180 C1117 1.463 . S
C3205 C132 1.926 . S
C3210 C1105 1.883 . S
C3235 C146 1.446 . S
C3240 C957 1.442 . S
C3270 C1043 1.544 . S
C3265 C161 1.564 . S
C3295 C160 1.263 . S
C3300 C821 1.239 . S
C3325 C133 1.775 . S
C3330 C883 1.734 . S
C3360 C747 1.732 . S
C3355 C147 1.692 1_655 S
C3390 C1179 1.863 . S
C3385 C174 1.867 . S
C3415 C188 1.374 . S
C3420 C1253 1.396 . S
C3445 C203 1.414 . S
C3450 C1339 1.427 . S
C3480 C1413 1.102 . S
C3475 C202 1.096 . S
C3510 C1475 1.651 . S
C3505 C175 1.641 . S
C3535 C189 1.655 . S
C3540 C1561 1.611 . S
C3565 C216 2.106 . S
C3570 C1549 2.031 . S
C3595 C230 1.680 1_565 S
C3600 C1401 1.650 . S
C3630 C1487 1.608 . S
C3625 C245 1.629 1_455 S
C3660 C1265 1.102 . S
C3655 C244 1.059 . S
C3690 C1327 1.653 . S
C3685 C217 1.697 . S
C3715 C231 1.506 . S
C3720 C1191 1.522 1_545 S
