# Generated by pormake.
# Topology zzz, (3,6)-cn, num edge types: 1
# Building blocks:
#     Node 0, Type 0, BuildingBlock: PAMTOO_clean_linker_0, # of connection points: 3
#     Node 1, Type 0, BuildingBlock: PAMTOO_clean_linker_0, # of connection points: 3
#     Node 2, Type 0, BuildingBlock: PAMTOO_clean_linker_0, # of connection points: 3
#     Node 3, Type 0, BuildingBlock: PAMTOO_clean_linker_0, # of connection points: 3
#     Node 4, Type 0, BuildingBlock: PAMTOO_clean_linker_0, # of connection points: 3
#     Node 5, Type 0, BuildingBlock: PAMTOO_clean_linker_0, # of connection points: 3
#     Node 6, Type 0, BuildingBlock: PAMTOO_clean_linker_0, # of connection points: 3
#     Node 7, Type 0, BuildingBlock: PAMTOO_clean_linker_0, # of connection points: 3
#     Node 8, Type 1, BuildingBlock: GEDQOX_clean_sbu_0, # of connection points: 6
#     Node 9, Type 1, BuildingBlock: GEDQOX_clean_sbu_0, # of connection points: 6
#     Node 10, Type 1, BuildingBlock: GEDQOX_clean_sbu_0, # of connection points: 6
#     Node 11, Type 1, BuildingBlock: GEDQOX_clean_sbu_0, # of connection points: 6
#     Edge 12, Type (0, 1), BuildingBlock: AJUNOK_clean_linker_0, # of connection points: 2
#     Edge 13, Type (0, 1), BuildingBlock: AJUNOK_clean_linker_0, # of connection points: 2
#     Edge 14, Type (0, 1), BuildingBlock: AJUNOK_clean_linker_0, # of connection points: 2
#     Edge 15, Type (0, 1), BuildingBlock: AJUNOK_clean_linker_0, # of connection points: 2
#     Edge 16, Type (0, 1), BuildingBlock: AJUNOK_clean_linker_0, # of connection points: 2
#     Edge 17, Type (0, 1), BuildingBlock: AJUNOK_clean_linker_0, # of connection points: 2
#     Edge 18, Type (0, 1), BuildingBlock: AJUNOK_clean_linker_0, # of connection points: 2
#     Edge 19, Type (0, 1), BuildingBlock: AJUNOK_clean_linker_0, # of connection points: 2
#     Edge 20, Type (0, 1), BuildingBlock: AJUNOK_clean_linker_0, # of connection points: 2
#     Edge 21, Type (0, 1), BuildingBlock: AJUNOK_clean_linker_0, # of connection points: 2
#     Edge 22, Type (0, 1), BuildingBlock: AJUNOK_clean_linker_0, # of connection points: 2
#     Edge 23, Type (0, 1), BuildingBlock: AJUNOK_clean_linker_0, # of connection points: 2
#     Edge 24, Type (0, 1), BuildingBlock: AJUNOK_clean_linker_0, # of connection points: 2
#     Edge 25, Type (0, 1), BuildingBlock: AJUNOK_clean_linker_0, # of connection points: 2
#     Edge 26, Type (0, 1), BuildingBlock: AJUNOK_clean_linker_0, # of connection points: 2
#     Edge 27, Type (0, 1), BuildingBlock: AJUNOK_clean_linker_0, # of connection points: 2
#     Edge 28, Type (0, 1), BuildingBlock: AJUNOK_clean_linker_0, # of connection points: 2
#     Edge 29, Type (0, 1), BuildingBlock: AJUNOK_clean_linker_0, # of connection points: 2
#     Edge 30, Type (0, 1), BuildingBlock: AJUNOK_clean_linker_0, # of connection points: 2
#     Edge 31, Type (0, 1), BuildingBlock: AJUNOK_clean_linker_0, # of connection points: 2
#     Edge 32, Type (0, 1), BuildingBlock: AJUNOK_clean_linker_0, # of connection points: 2
#     Edge 33, Type (0, 1), BuildingBlock: AJUNOK_clean_linker_0, # of connection points: 2
#     Edge 34, Type (0, 1), BuildingBlock: AJUNOK_clean_linker_0, # of connection points: 2
#     Edge 35, Type (0, 1), BuildingBlock: AJUNOK_clean_linker_0, # of connection points: 2
# Relax obj value: 0.141
# Max RMSD: 0.231
# Mean RMSD: 0.079
data_MOF--net-zzz--node1-GEDQOX_clean_sbu_0--node2-PAMTOO_clean_linker_0--edge1-AJUNOK_clean_linker_0
_symmetry_space_group_name_H-M    P1
_symmetry_Int_Tables_number       1
_symmetry_cell_setting            triclinic
loop_
_symmetry_equiv_pos_as_xyz
'x, y, z'
_cell_length_a     40.082892
_cell_length_b     38.493178
_cell_length_c     13.794714
_cell_angle_alpha  76.628433
_cell_angle_beta   89.738691
_cell_angle_gamma 101.65064
loop_
_atom_site_label
_atom_site_type_symbol
_atom_site_fract_x
_atom_site_fract_y
_atom_site_fract_z
_atom_type_partial_charge
H0 H 0.89311 0.56796 0.2226 0.0
H1 H 0.81349 0.54089 0.02832 0.0
H2 H 0.80055 0.60736 0.23257 0.0
H3 H 0.73936 0.54509 0.21144 0.0
C4 C 0.74254 0.54954 0.12903 0.0
O5 O 0.77152 0.57604 0.09356 0.0
H6 H 0.74586 0.52352 0.1122 0.0
C7 C 0.86751 0.56864 0.19791 0.0
C8 C 0.8485 0.58957 0.23624 0.0
C9 C 0.85525 0.55071 0.12384 0.0
C10 C 0.8229 0.5536 0.08798 0.0
C11 C 0.80267 0.57323 0.12892 0.0
C12 C 0.81558 0.59127 0.20332 0.0
H13 H 0.05712 0.88275 0.33792 0.0
H14 H 0.08122 0.81896 0.13975 0.0
H15 H 0.02672 0.76585 0.42353 0.0
H16 H 0.02695 0.76142 0.13051 0.0
C17 C 0.03035 0.73997 0.19692 0.0
O18 O 0.05401 0.75518 0.25701 0.0
H19 H 1.00528 0.73013 0.23927 0.0
C20 C 0.05711 0.85635 0.32227 0.0
C21 C 0.0409 0.82504 0.39183 0.0
C22 C 0.07142 0.85485 0.23133 0.0
C23 C 0.07024 0.82057 0.21007 0.0
C24 C 0.05421 0.78815 0.27883 0.0
C25 C 0.03928 0.79048 0.37036 0.0
H26 H 0.71774 0.05759 0.25479 0.0
H27 H 0.79779 0.08692 0.0236 0.0
H28 H 0.81382 0.02658 0.3187 0.0
H29 H 0.8398 0.03189 0.02316 0.0
C30 C 0.85087 0.03042 0.09745 0.0
O31 O 0.84235 0.05729 0.13831 0.0
H32 H 0.83968 1.00296 0.14543 0.0
C33 C 0.74364 0.05796 0.23041 0.0
C34 C 0.76421 0.04025 0.29765 0.0
C35 C 0.75534 0.07517 0.13197 0.0
C36 C 0.7885 0.07419 0.10001 0.0
C37 C 0.80983 0.05684 0.16758 0.0
C38 C 0.79755 0.03993 0.26668 0.0
H39 H 0.61013 0.76235 0.46671 0.0
H40 H 0.60036 0.87203 0.33327 0.0
H41 H 0.55227 0.81694 0.62286 0.0
H42 H 0.51429 0.88626 0.47668 0.0
C43 C 0.53493 0.88559 0.42356 0.0
O44 O 0.56314 0.87887 0.47748 0.0
H45 H 0.52455 0.86271 0.38814 0.0
C46 C 0.60195 0.78704 0.47229 0.0
C47 C 0.58154 0.78582 0.55624 0.0
C48 C 0.60774 0.81728 0.39001 0.0
C49 C 0.59663 0.8488 0.397 0.0
C50 C 0.57664 0.84897 0.48006 0.0
C51 C 0.56888 0.81735 0.56032 0.0
H52 H 0.21204 0.57068 0.66762 0.0
H53 H 0.29503 0.60358 0.84512 0.0
H54 H 0.30453 0.53136 0.65399 0.0
H55 H 0.32847 0.51618 0.87498 0.0
C56 C 0.34274 0.54462 0.86962 0.0
O57 O 0.33615 0.56718 0.78125 0.0
H58 H 0.33353 0.55373 0.93385 0.0
C59 C 0.23798 0.5705 0.6898 0.0
C60 C 0.25643 0.54881 0.65266 0.0
C61 C 0.25144 0.59034 0.75877 0.0
C62 C 0.28455 0.58896 0.79011 0.0
C63 C 0.30397 0.56795 0.75174 0.0
C64 C 0.28983 0.54788 0.68265 0.0
H65 H 0.047 0.25596 0.54042 0.0
H66 H 0.02823 0.31805 0.74872 0.0
H67 H 0.07766 0.37297 0.45869 0.0
H68 H 0.10153 0.40527 0.65417 0.0
C69 C 0.07567 0.39736 0.69202 0.0
O70 O 0.05255 0.3826 0.62977 0.0
H71 H 0.07666 0.37615 0.7615 0.0
C72 C 0.04767 0.28224 0.55772 0.0
C73 C 0.0631 0.31381 0.48794 0.0
C74 C 0.03531 0.28323 0.6513 0.0
C75 C 0.03754 0.31711 0.67573 0.0
C76 C 0.05242 0.34988 0.60642 0.0
C77 C 0.06576 0.34812 0.51212 0.0
H78 H 0.3952 0.07317 0.64899 0.0
H79 H 0.31526 0.04305 0.88064 0.0
H80 H 0.29722 0.09906 0.58256 0.0
H81 H 0.26862 0.12262 0.75293 0.0
C82 C 0.25837 0.0951 0.80191 0.0
O83 O 0.26924 0.06866 0.76417 0.0
H84 H 0.26837 0.09453 0.87722 0.0
C85 C 0.36911 0.07212 0.67316 0.0
C86 C 0.3478 0.08801 0.60471 0.0
C87 C 0.35778 0.0556 0.77228 0.0
C88 C 0.32431 0.05549 0.8039 0.0
C89 C 0.30225 0.07103 0.7354 0.0
C90 C 0.31413 0.08731 0.63552 0.0
H91 H 0.49279 0.36744 0.43657 0.0
H92 H 0.50866 0.25972 0.56501 0.0
H93 H 0.5591 0.32062 0.28308 0.0
H94 H 0.58255 0.27361 0.53138 0.0
C95 C 0.57695 0.25232 0.48758 0.0
O96 O 0.55021 0.25775 0.42549 0.0
H97 H 0.60043 0.25577 0.44023 0.0
C98 C 0.50321 0.34411 0.43053 0.0
C99 C 0.52538 0.34787 0.34814 0.0
C100 C 0.49899 0.31367 0.51204 0.0
C101 C 0.5117 0.28334 0.50253 0.0
C102 C 0.53376 0.28568 0.42156 0.0
C103 C 0.54089 0.31815 0.34375 0.0
Nd104 Nd 0.03773 0.05269 0.84525 0.0
Nd105 Nd 0.0689 0.08178 0.03526 0.0
C106 C 0.99961 1.00967 0.74555 0.0
C107 C 1.00333 0.97699 0.70902 0.0
C108 C 0.97464 0.94929 0.70729 0.0
C109 C 0.97777 0.91815 0.67391 0.0
C110 C 1.00976 0.91371 0.6419 0.0
C111 C 0.0385 0.9415 0.64444 0.0
C112 C 0.03536 0.97256 0.67806 0.0
C113 C 0.10862 0.07183 0.82366 0.0
C114 C 0.07291 1.00049 0.02197 0.0
C115 C 0.10041 0.12496 0.14677 0.0
C116 C 0.09665 0.15898 0.17691 0.0
C117 C 0.12437 0.18899 0.16232 0.0
C118 C 0.12188 0.22069 0.19379 0.0
C119 C 0.09159 0.22325 0.2414 0.0
C120 C 0.06359 0.19347 0.25372 0.0
C121 C 0.06606 0.16184 0.22199 0.0
C122 C 0.99997 0.05024 0.0518 0.0
C123 C 0.03698 0.13687 0.85073 0.0
O124 O 0.99631 1.0049 0.84267 0.0
O125 O 0.01936 0.04117 0.70182 0.0
O126 O 0.0894 0.06127 0.75606 0.0
O127 O 0.08949 0.07322 0.89465 0.0
O128 O 0.04782 1.00323 0.96084 0.0
O129 O 0.08892 0.02868 0.05576 0.0
O130 O 0.10969 0.12831 0.05334 0.0
O131 O 0.07765 0.09493 0.18302 0.0
O132 O 0.01988 0.04749 0.1263 0.0
O133 O 1.01663 0.07035 0.97422 0.0
O134 O 0.05477 0.13204 0.9316 0.0
O135 O 0.02547 0.1102 0.80519 0.0
H136 H 0.94967 0.95181 0.73151 0.0
H137 H 0.95507 0.8975 0.67304 0.0
H138 H 0.06344 0.93979 0.61793 0.0
H139 H 0.05801 0.99327 0.67915 0.0
H140 H 0.14821 0.18778 0.12727 0.0
H141 H 0.14377 0.24318 0.181 0.0
H142 H 0.03991 0.19416 0.29061 0.0
H143 H 0.04408 0.13943 0.2341 0.0
Nd144 Nd 0.56317 0.03788 0.88668 0.0
Nd145 Nd 0.55071 0.09774 0.01451 0.0
C146 C 0.58399 0.98393 0.8336 0.0
C147 C 0.6135 0.98307 0.76911 0.0
C148 C 0.64689 0.98828 0.80272 0.0
C149 C 0.67499 0.99193 0.73782 0.0
C150 C 0.6704 0.9905 0.63783 0.0
C151 C 0.63696 0.98328 0.60573 0.0
C152 C 0.60884 0.97954 0.67066 0.0
C153 C 0.56638 0.10721 0.76161 0.0
C154 C 0.6288 0.09133 0.9645 0.0
C155 C 0.52921 0.15116 0.06854 0.0
C156 C 0.49861 0.15102 0.13013 0.0
C157 C 0.50231 0.15867 0.22467 0.0
C158 C 0.47375 0.15324 0.28955 0.0
C159 C 0.44077 0.14017 0.26105 0.0
C160 C 0.43689 0.13482 0.164 0.0
C161 C 0.46545 0.14015 0.09932 0.0
C162 C 0.54736 0.02818 0.13833 0.0
C163 C 0.48509 0.04339 0.93928 0.0
O164 O 0.5912 0.99294 0.91833 0.0
O165 O 0.55974 0.99895 0.78892 0.0
O166 O 0.56954 0.07858 0.73071 0.0
O167 O 0.56212 0.0975 0.85557 0.0
O168 O 0.6164 0.06195 0.93102 0.0
O169 O 0.60928 0.11211 0.99078 0.0
O170 O 0.52375 0.14364 0.98121 0.0
O171 O 0.55258 0.13535 0.11572 0.0
O172 O 0.54479 0.0567 0.17071 0.0
O173 O 0.55139 0.03832 0.04454 0.0
O174 O 0.4973 0.07303 0.97193 0.0
O175 O 0.50481 1.02288 0.91279 0.0
H176 H 0.65153 0.99066 0.87843 0.0
H177 H 0.70037 0.99669 0.76533 0.0
H178 H 0.63257 0.98209 0.52902 0.0
H179 H 0.5835 0.97521 0.64267 0.0
H180 H 0.52745 0.16754 0.24982 0.0
H181 H 0.47765 0.15764 0.36381 0.0
H182 H 0.41179 0.12559 0.13893 0.0
H183 H 0.46151 0.1346 0.02634 0.0
Nd184 Nd 0.54153 0.58254 0.04829 0.0
Nd185 Nd 0.55887 0.55121 0.85761 0.0
C186 C 0.51628 0.61544 0.16671 0.0
C187 C 0.53198 0.65262 0.17539 0.0
C188 C 0.53444 0.68267 0.09268 0.0
C189 C 0.55554 0.71624 0.09322 0.0
C190 C 0.57478 0.72029 0.17591 0.0
C191 C 0.57152 0.69066 0.25954 0.0
C192 C 0.55028 0.65723 0.2594 0.0
C193 C 0.6111 0.58612 0.02488 0.0
C194 C 0.56206 0.63983 0.8246 0.0
C195 C 0.58461 0.51793 0.7404 0.0
C196 C 0.56909 0.48044 0.73723 0.0
C197 C 0.58375 0.46145 0.67965 0.0
C198 C 0.56759 0.4258 0.67836 0.0
C199 C 0.53667 0.409 0.73455 0.0
C200 C 0.52275 0.42775 0.79443 0.0
C201 C 0.53884 0.46318 0.79561 0.0
C202 C 0.48907 0.54565 0.88278 0.0
C203 C 0.53978 0.49437 0.08303 0.0
O204 O 0.50332 0.61296 0.08093 0.0
O205 O 0.5342 0.59055 0.20029 0.0
O206 O 0.5975 0.59721 0.09441 0.0
O207 O 0.58773 0.57585 0.97074 0.0
O208 O 0.55032 0.63417 0.91817 0.0
O209 O 0.56996 0.61348 0.7867 0.0
O210 O 0.59739 0.52093 0.82591 0.0
O211 O 0.5658 0.54192 0.70681 0.0
O212 O 0.50308 0.53495 0.81336 0.0
O213 O 0.5122 0.55774 0.93531 0.0
O214 O 0.55195 0.50033 0.98988 0.0
O215 O 0.53062 0.52035 0.11979 0.0
H216 H 0.52093 0.68008 0.02604 0.0
H217 H 0.55705 0.73893 0.02888 0.0
H218 H 0.58508 0.69348 0.32595 0.0
H219 H 0.54907 0.63459 0.32375 0.0
H220 H 0.60716 0.47427 0.63479 0.0
H221 H 0.57855 0.41185 0.6305 0.0
H222 H 0.49912 0.41532 0.83856 0.0
H223 H 0.52727 0.47727 0.84135 0.0
Nd224 Nd 0.04631 0.59857 0.83871 0.0
Nd225 Nd 0.06073 0.54088 0.04244 0.0
C226 C 0.02239 0.64969 0.71382 0.0
C227 C 0.99433 0.64634 0.64567 0.0
C228 C 0.98636 0.67721 0.5815 0.0
C229 C 0.95931 0.67333 0.51788 0.0
C230 C 0.93987 0.63847 0.51765 0.0
C231 C 0.94783 0.60777 0.58322 0.0
C232 C 0.97476 0.61166 0.64636 0.0
C233 C 0.05103 0.53148 0.79813 0.0
C234 C 0.98228 0.53916 0.9785 0.0
C235 C 0.08381 0.48958 0.1694 0.0
C236 C 0.11166 0.49257 0.23853 0.0
C237 C 0.11769 0.46177 0.30766 0.0
C238 C 0.14416 0.4653 0.37335 0.0
C239 C 0.16496 0.49976 0.37089 0.0
C240 C 0.1589 0.53038 0.30058 0.0
C241 C 0.13254 0.52683 0.23535 0.0
C242 C 0.05672 0.60838 0.08149 0.0
C243 C 0.12467 0.60088 0.90358 0.0
O244 O 1.01289 0.63869 0.80883 0.0
O245 O 0.04943 0.63809 0.69173 0.0
O246 O 0.0462 0.55976 0.73199 0.0
O247 O 0.05281 0.54017 0.88144 0.0
O248 O 0.99331 0.56957 0.9092 0.0
O249 O 1.00311 0.52056 0.03223 0.0
O250 O 0.09345 0.50003 0.07438 0.0
O251 O 0.05706 0.50185 0.19036 0.0
O252 O 0.06123 0.58019 0.14859 0.0
O253 O 0.0546 0.59921 0.999 0.0
O254 O 0.1138 0.57016 0.97214 0.0
O255 O 0.10373 0.6194 0.85014 0.0
H256 H 1.00102 0.70423 0.58049 0.0
H257 H 0.95361 0.69754 0.46896 0.0
H258 H 0.93373 0.58054 0.58401 0.0
H259 H 0.98047 0.58748 0.69555 0.0
H260 H 0.10189 0.43507 0.3111 0.0
H261 H 0.14833 0.44113 0.42599 0.0
H262 H 0.17404 0.55735 0.2976 0.0
H263 H 0.12824 0.55098 0.18277 0.0
C264 C 0.20141 0.08725 0.89639 0.0
C265 C 0.21964 0.08876 0.8072 0.0
C266 C 0.16557 0.08261 0.90119 0.0
C267 C 0.14662 0.07929 0.81697 0.0
H268 H 0.21494 0.08964 0.96309 0.0
H269 H 0.15264 0.08112 0.9716 0.0
S270 S 0.18236 0.08364 0.56429 0.0
N271 N 0.21609 0.08835 0.63206 0.0
N272 N 0.14911 0.07914 0.64072 0.0
C273 C 0.16466 0.08136 0.72709 0.0
C274 C 0.20102 0.08629 0.72224 0.0
C275 C 0.56789 0.20965 0.66294 0.0
C276 C 0.56998 0.21428 0.55815 0.0
C277 C 0.56593 0.17506 0.72903 0.0
C278 C 0.56602 0.14368 0.69304 0.0
H279 H 0.56874 0.23314 0.69418 0.0
H280 H 0.56528 0.17311 0.80858 0.0
S281 S 0.56933 0.14084 0.42527 0.0
N282 N 0.57067 0.18422 0.42244 0.0
N283 N 0.56687 0.11971 0.54451 0.0
C284 C 0.56703 0.14794 0.58834 0.0
C285 C 0.56898 0.183 0.52162 0.0
C286 C 0.39408 0.51651 0.85683 0.0
C287 C 0.38066 0.54544 0.87608 0.0
C288 C 0.42903 0.51649 0.86306 0.0
C289 C 0.45202 0.54523 0.88941 0.0
H290 H 0.37744 0.49373 0.83634 0.0
H291 H 0.43823 0.49383 0.8461 0.0
S292 S 0.43041 0.62903 0.93799 0.0
N293 N 0.39339 0.60455 0.91752 0.0
N294 N 0.45919 0.60465 0.92755 0.0
C295 C 0.43909 0.57456 0.90754 0.0
C296 C 0.40342 0.57467 0.90094 0.0
C297 C 0.06207 0.43269 0.81941 0.0
C298 C 0.06667 0.43108 0.71876 0.0
C299 C 0.05718 0.46491 0.84555 0.0
C300 C 0.05668 0.49703 0.77217 0.0
H301 H 0.06276 0.40893 0.8788 0.0
H302 H 0.05378 0.46463 0.92368 0.0
S303 S 0.06939 0.50787 0.49806 0.0
N304 N 0.07158 0.46501 0.54638 0.0
N305 N 0.0623 0.52501 0.59362 0.0
C306 C 0.06139 0.49568 0.6713 0.0
C307 C 0.06641 0.46299 0.64514 0.0
C308 C 0.90717 0.05176 0.99454 0.0
C309 C 0.88936 0.03498 0.08715 0.0
C310 C 0.94274 0.05563 0.98322 0.0
C311 C 0.96203 0.04314 0.06427 0.0
H312 H 0.89349 0.06195 0.93018 0.0
H313 H 0.95526 0.06898 0.91055 0.0
S314 S 0.92745 0.99753 0.3228 0.0
N315 N 0.89361 1.00602 0.26131 0.0
N316 N 0.96027 1.01316 0.2406 0.0
C317 C 0.94444 0.02629 0.15729 0.0
C318 C 0.90824 1.02239 0.16865 0.0
C319 C 0.54923 0.95495 0.37695 0.0
C320 C 0.54279 0.92204 0.34574 0.0
C321 C 0.55158 0.98887 0.30853 0.0
C322 C 0.54779 0.99161 0.20545 0.0
H323 H 0.55129 0.95435 0.45557 0.0
H324 H 0.55573 1.01321 0.33736 0.0
S325 S 0.53216 0.91382 0.0839 0.0
N326 N 0.53412 0.89454 0.20333 0.0
N327 N 0.5382 0.95818 0.07563 0.0
C328 C 0.54252 0.95907 0.17261 0.0
C329 C 0.54012 0.92439 0.24241 0.0
C330 C 0.70439 0.59542 0.08195 0.0
C331 C 0.71062 0.56058 0.08365 0.0
C332 C 0.6727 0.60423 0.05574 0.0
C333 C 0.64603 0.57867 0.02966 0.0
H334 H 0.72366 0.61552 0.10522 0.0
H335 H 0.66857 0.63082 0.05986 0.0
S336 S 0.64829 0.48303 0.02828 0.0
N337 N 0.68685 0.50006 0.05929 0.0
N338 N 0.62751 0.51669 0.01137 0.0
C339 C 0.65204 0.54402 0.02944 0.0
C340 C 0.68422 0.53494 0.05643 0.0
C341 C 0.0408 0.67511 0.23552 0.0
C342 C 0.04039 0.70773 0.16439 0.0
C343 C 0.04635 0.64369 0.20716 0.0
C344 C 0.05145 0.64308 0.10609 0.0
H345 H 0.03605 0.67363 0.31391 0.0
H346 H 0.04605 0.61935 0.26553 0.0
S347 S 0.05429 0.72172 0.88999 0.0
N348 N 0.04666 0.73768 0.98743 0.0
N349 N 0.05712 0.6788 0.93502 0.0
C350 C 0.05168 0.67565 0.03415 0.0
C351 C 0.04617 0.70782 0.06301 0.0
C352 C 0.04728 0.23974 0.80259 0.0
C353 C 0.02566 0.24763 0.72459 0.0
C354 C 0.04942 0.20363 0.84598 0.0
C355 C 0.03017 0.17403 0.8125 0.0
H356 H 0.06505 0.26165 0.82355 0.0
H357 H 0.06803 0.19926 0.90179 0.0
S358 S 0.96433 0.1803 0.62491 0.0
N359 N 0.98051 0.22313 0.62697 0.0
N360 N 0.98463 0.1551 0.70793 0.0
C361 C 1.00589 0.18145 0.74175 0.0
C362 C 1.00346 0.21826 0.69848 0.0
C363 C 0.39494 0.05933 0.91532 0.0
C364 C 0.38297 0.0414 0.84067 0.0
C365 C 0.42682 0.05672 0.95477 0.0
C366 C 0.448 0.03638 0.92024 0.0
H367 H 0.38118 0.07816 0.93658 0.0
H368 H 0.4359 0.073 0.00733 0.0
S369 S 0.42409 0.97764 0.74212 0.0
N370 N 0.39141 0.99745 0.7469 0.0
N371 N 0.4514 0.99268 0.8199 0.0
C372 C 0.43426 1.01478 0.85463 0.0
C373 C 0.40173 1.01733 0.81501 0.0
C374 C 0.52305 0.31827 0.67275 0.0
C375 C 0.49483 0.32037 0.61254 0.0
C376 C 0.53463 0.34516 0.72451 0.0
C377 C 0.5175 0.37377 0.72044 0.0
H378 H 0.53981 0.29999 0.66626 0.0
H379 H 0.55913 0.34598 0.75777 0.0
S380 S 0.43414 0.38111 0.61144 0.0
N381 N 0.44377 0.34511 0.581 0.0
N382 N 0.46554 0.39617 0.67812 0.0
C383 C 0.48523 0.37116 0.6799 0.0
C384 C 0.47348 0.34366 0.62734 0.0
C385 C 0.21637 0.59132 0.90602 0.0
C386 C 0.22773 0.60723 0.80627 0.0
C387 C 0.18407 0.59324 0.94111 0.0
C388 C 0.16199 0.61098 0.8774 0.0
H389 H 0.23069 0.57377 0.9538 0.0
H390 H 0.1752 0.57774 0.01594 0.0
S391 S 0.18429 0.66533 0.61761 0.0
N392 N 0.218 0.64772 0.65081 0.0
N393 N 0.15716 0.65129 0.71602 0.0
C394 C 0.17528 0.63153 0.78212 0.0
C395 C 0.20826 0.62965 0.74673 0.0
C396 C 0.10181 0.92027 0.18949 0.0
C397 C 0.08285 0.89026 0.15727 0.0
C398 C 0.10047 0.95628 0.14157 0.0
C399 C 0.08065 0.96359 0.0585 0.0
H400 H 0.11491 0.9157 0.25838 0.0
H401 H 0.11305 0.97817 0.17423 0.0
S402 S 0.03497 0.89513 0.92709 0.0
N403 N 0.04944 0.8706 0.02607 0.0
N404 N 0.04836 0.93809 0.93222 0.0
C405 C 0.06581 0.93406 0.01703 0.0
C406 C 0.06676 0.89741 0.06698 0.0
C407 C 0.71841 0.0737 0.98765 0.0
C408 C 0.73055 0.09061 0.06411 0.0
C409 C 0.68669 0.07719 0.94826 0.0
C410 C 0.66584 0.09755 0.98434 0.0
H411 H 0.73184 0.05488 0.96493 0.0
H412 H 0.67739 0.06146 0.89455 0.0
S413 S 0.69021 0.1536 0.16859 0.0
N414 N 0.72256 0.13346 0.16209 0.0
N415 N 0.66289 0.13994 0.08899 0.0
C416 C 0.67976 0.11811 0.05212 0.0
C417 C 0.71212 0.11461 0.09184 0.0
C418 C 0.58681 0.81215 0.22623 0.0
C419 C 0.61383 0.81035 0.29096 0.0
C420 C 0.57686 0.78509 0.17372 0.0
C421 C 0.59428 0.75639 0.18317 0.0
H422 H 0.56954 0.83019 0.22981 0.0
H423 H 0.55271 0.78379 0.13829 0.0
S424 S 0.67617 0.75082 0.30242 0.0
N425 N 0.6649 0.78632 0.33134 0.0
N426 N 0.64638 0.73536 0.23147 0.0
C427 C 0.6259 0.75975 0.22734 0.0
C428 C 0.63599 0.78732 0.28068 0.0
C429 C 0.89103 0.55038 0.97678 0.0
C430 C 0.87953 0.53439 0.07637 0.0
C431 C 0.92314 0.54795 0.94156 0.0
C432 C 0.94497 0.52968 1.00501 0.0
H433 H 0.87693 0.5682 0.92904 0.0
H434 H 0.93209 0.56341 0.86675 0.0
S435 S 0.92213 0.47493 0.26416 0.0
N436 N 0.88876 0.49319 0.23127 0.0
N437 N 0.94935 0.4889 0.16595 0.0
C438 C 0.93154 0.50919 0.10018 0.0
C439 C 0.89871 0.51152 0.13567 0.0
C440 C 0.0537 0.29558 0.32728 0.0
C441 C 0.07716 0.30714 0.39507 0.0
C442 C 0.05957 0.27043 0.27262 0.0
C443 C 0.08924 0.2557 0.283 0.0
H444 H 0.02893 0.30289 0.32475 0.0
H445 H 0.0397 0.26073 0.22649 0.0
S446 S 0.16046 0.28042 0.44221 0.0
N447 N 0.13264 0.30473 0.46169 0.0
N448 N 0.14387 0.25769 0.35991 0.0
C449 C 0.11433 0.26975 0.34334 0.0
C450 C 0.1083 0.29547 0.39862 0.0
C451 C 0.38253 0.14018 0.47995 0.0
C452 C 0.3624 0.10462 0.50179 0.0
C453 C 0.40645 0.15239 0.39816 0.0
C454 C 0.41119 0.12939 0.33555 0.0
H455 H 0.38154 0.1577 0.53065 0.0
H456 H 0.42251 0.17941 0.38671 0.0
S457 S 0.36371 0.0341 0.36012 0.0
N458 N 0.34765 0.04711 0.45301 0.0
N459 N 0.39251 0.06967 0.29966 0.0
C460 C 0.38976 0.09443 0.35372 0.0
C461 C 0.36544 0.08213 0.43684 0.0
C462 C 0.52841 0.38998 0.17436 0.0
C463 C 0.53429 0.385 0.2768 0.0
C464 C 0.53056 0.42532 0.11188 0.0
C465 C 0.53793 0.45707 0.14968 0.0
H466 H 0.52082 0.36641 0.14308 0.0
H467 H 0.52535 0.42769 0.03391 0.0
S468 S 0.56018 0.45938 0.40916 0.0
N469 N 0.55193 0.41554 0.40982 0.0
N470 N 0.55447 0.481 0.29433 0.0
C471 C 0.54526 0.45245 0.25083 0.0
C472 C 0.54389 0.41679 0.31357 0.0
C473 C 0.24715 0.53865 0.48144 0.0
C474 C 0.23884 0.52723 0.58447 0.0
C475 C 0.22401 0.52758 0.41256 0.0
C476 C 0.19171 0.50482 0.44434 0.0
H477 H 0.27043 0.55847 0.45372 0.0
H478 H 0.23069 0.5385 0.33366 0.0
S479 S 0.15926 0.46538 0.70733 0.0
N480 N 0.19761 0.48975 0.71549 0.0
N481 N 0.15392 0.46954 0.58687 0.0
C482 C 0.18427 0.49123 0.54756 0.0
C483 C 0.20789 0.5023 0.61734 0.0
C484 C 0.9962 0.84725 0.471 0.0
C485 C 0.0255 0.83197 0.48244 0.0
C486 C 0.99 0.87163 0.52776 0.0
C487 C 1.01288 0.88189 0.59854 0.0
H488 H 0.97994 0.84351 0.4101 0.0
H489 H 0.9686 0.88479 0.50996 0.0
S490 S 0.08957 0.84367 0.67145 0.0
N491 N 0.07493 0.82489 0.57963 0.0
N492 N 0.0629 0.86958 0.6885 0.0
C493 C 0.04025 0.8637 0.61809 0.0
C494 C 0.04654 0.83895 0.55997 0.0
C495 C 0.72534 0.98916 0.41405 0.0
C496 C 0.7491 1.02247 0.39929 0.0
C497 C 0.7013 0.9777 0.49537 0.0
C498 C 0.70008 0.99927 0.56452 0.0
H499 H 0.72366 0.97326 0.35821 0.0
H500 H 0.6824 0.95274 0.5012 0.0
S501 S 0.75814 0.08798 0.5608 0.0
N502 N 0.77126 0.07589 0.46223 0.0
N503 N 0.72615 0.05472 0.61502 0.0
C504 C 0.72519 0.03154 0.55376 0.0
C505 C 0.74966 0.04307 0.47102 0.0
C506 C 0.58038 0.74449 0.73025 0.0
C507 C 0.57124 0.74949 0.63019 0.0
C508 C 0.57688 0.70907 0.79346 0.0
C509 C 0.56491 0.67728 0.75832 0.0
H510 H 0.59156 0.76796 0.75869 0.0
H511 H 0.58469 0.70653 0.86941 0.0
S512 S 0.53254 0.67558 0.5078 0.0
N513 N 0.54558 0.71944 0.50368 0.0
N514 N 0.54033 0.65364 0.62032 0.0
C515 C 0.55426 0.68209 0.66012 0.0
C516 C 0.55704 0.7179 0.59689 0.0
C517 C 0.85812 0.59752 0.40924 0.0
C518 C 0.86551 0.61066 0.3061 0.0
C519 C 0.88129 0.60868 0.47791 0.0
C520 C 0.91269 0.6332 0.44569 0.0
H521 H 0.83566 0.57642 0.43678 0.0
H522 H 0.87543 0.59649 0.55668 0.0
S523 S 0.94258 0.6771 0.1826 0.0
N524 N 0.90489 0.65129 0.17486 0.0
N525 N 0.94867 0.67171 0.30302 0.0
C526 C 0.91914 0.64834 0.34269 0.0
C527 C 0.89548 0.63718 0.27317 0.0
loop_
_geom_bond_atom_site_label_1
_geom_bond_atom_site_label_2
_geom_bond_distance
_geom_bond_site_symmetry_2
_ccdc_geom_bond_type
H0 C7 0.929 . S
H1 C10 0.930 . S
H2 C12 0.929 . S
H3 C4 0.969 . S
C4 H3 0.969 . S
C4 O5 1.550 1_556 S
C4 H6 0.973 . S
O5 C4 1.550 1_554 S
O5 C11 1.412 . S
H6 C4 0.973 . S
C7 H0 0.929 . S
C7 C8 1.400 . S
C7 C9 1.364 1_554 S
C8 C7 1.400 . S
C8 C12 1.377 . S
C9 C7 1.364 1_556 S
C9 C10 1.374 . S
C10 H1 0.930 . S
C10 C9 1.374 . S
C10 C11 1.383 1_556 S
C11 O5 1.412 . S
C11 C10 1.383 1_554 S
C11 C12 1.394 . S
C12 H2 0.929 . S
C12 C8 1.377 . S
C12 C11 1.394 . S
H13 C20 0.929 . S
H14 C23 0.930 1_556 S
H15 C25 0.929 . S
H16 C17 0.969 1_455 S
C17 H16 0.969 1_655 S
C17 O18 1.550 . S
C17 H19 0.973 1_554 S
O18 C17 1.550 . S
O18 C24 1.412 . S
H19 C17 0.973 1_556 S
C20 H13 0.929 . S
C20 C21 1.400 . S
C20 C22 1.364 . S
C21 C20 1.400 . S
C21 C25 1.377 . S
C22 C20 1.364 . S
C22 C23 1.374 . S
C23 H14 0.930 1_554 S
C23 C22 1.374 . S
C23 C24 1.383 . S
C24 O18 1.412 . S
C24 C23 1.383 . S
C24 C25 1.394 . S
C25 H15 0.929 . S
C25 C21 1.377 . S
C25 C24 1.394 . S
H26 C33 0.929 . S
H27 C36 0.930 . S
H28 C38 0.929 . S
H29 C30 0.969 1_545 S
C30 H29 0.969 1_565 S
C30 O31 1.550 1_556 S
C30 H32 0.973 . S
O31 C30 1.550 1_554 S
O31 C37 1.412 . S
H32 C30 0.973 . S
C33 H26 0.929 . S
C33 C34 1.400 . S
C33 C35 1.364 . S
C34 C33 1.400 . S
C34 C38 1.377 . S
C35 C33 1.364 . S
C35 C36 1.374 1_554 S
C36 H27 0.930 . S
C36 C35 1.374 1_556 S
C36 C37 1.383 1_556 S
C37 O31 1.412 . S
C37 C36 1.383 1_554 S
C37 C38 1.394 . S
C38 H28 0.929 . S
C38 C34 1.377 . S
C38 C37 1.394 . S
H39 C46 0.929 . S
H40 C49 0.930 . S
H41 C51 0.929 . S
H42 C43 0.969 . S
C43 H42 0.969 . S
C43 O44 1.550 . S
C43 H45 0.973 . S
O44 C43 1.550 . S
O44 C50 1.412 . S
H45 C43 0.973 . S
C46 H39 0.929 . S
C46 C47 1.400 . S
C46 C48 1.364 . S
C47 C46 1.400 . S
C47 C51 1.377 . S
C48 C46 1.364 . S
C48 C49 1.374 . S
C49 H40 0.930 . S
C49 C48 1.374 . S
C49 C50 1.383 . S
C50 O44 1.412 . S
C50 C49 1.383 . S
C50 C51 1.394 . S
C51 H41 0.929 . S
C51 C47 1.377 . S
C51 C50 1.394 . S
H52 C59 0.929 . S
H53 C62 0.930 1_554 S
H54 C64 0.929 . S
H55 C56 0.969 . S
C56 H55 0.969 . S
C56 O57 1.550 . S
C56 H58 0.973 1_556 S
O57 C56 1.550 . S
O57 C63 1.412 . S
H58 C56 0.973 1_554 S
C59 H52 0.929 . S
C59 C60 1.400 . S
C59 C61 1.364 . S
C60 C59 1.400 . S
C60 C64 1.377 . S
C61 C59 1.364 . S
C61 C62 1.374 . S
C62 H53 0.930 1_556 S
C62 C61 1.374 . S
C62 C63 1.383 . S
C63 O57 1.412 . S
C63 C62 1.383 . S
C63 C64 1.394 . S
C64 H54 0.929 . S
C64 C60 1.377 . S
C64 C63 1.394 . S
H65 C72 0.929 . S
H66 C75 0.930 . S
H67 C77 0.929 . S
H68 C69 0.969 . S
C69 H68 0.969 . S
C69 O70 1.550 . S
C69 H71 0.973 . S
O70 C69 1.550 . S
O70 C76 1.412 . S
H71 C69 0.973 . S
C72 H65 0.929 . S
C72 C73 1.400 . S
C72 C74 1.364 . S
C73 C72 1.400 . S
C73 C77 1.377 . S
C74 C72 1.364 . S
C74 C75 1.374 . S
C75 H66 0.930 . S
C75 C74 1.374 . S
C75 C76 1.383 . S
C76 O70 1.412 . S
C76 C75 1.383 . S
C76 C77 1.394 . S
C77 H67 0.929 . S
C77 C73 1.377 . S
C77 C76 1.394 . S
H78 C85 0.929 . S
H79 C88 0.930 . S
H80 C90 0.929 . S
H81 C82 0.969 . S
C82 H81 0.969 . S
C82 O83 1.550 . S
C82 H84 0.973 . S
O83 C82 1.550 . S
O83 C89 1.412 . S
H84 C82 0.973 . S
C85 H78 0.929 . S
C85 C86 1.400 . S
C85 C87 1.364 . S
C86 C85 1.400 . S
C86 C90 1.377 . S
C87 C85 1.364 . S
C87 C88 1.374 . S
C88 H79 0.930 . S
C88 C87 1.374 . S
C88 C89 1.383 . S
C89 O83 1.412 . S
C89 C88 1.383 . S
C89 C90 1.394 . S
C90 H80 0.929 . S
C90 C86 1.377 . S
C90 C89 1.394 . S
H91 C98 0.929 . S
H92 C101 0.930 . S
H93 C103 0.929 . S
H94 C95 0.969 . S
C95 H94 0.969 . S
C95 O96 1.550 . S
C95 H97 0.973 . S
O96 C95 1.550 . S
O96 C102 1.412 . S
H97 C95 0.973 . S
C98 H91 0.929 . S
C98 C99 1.400 . S
C98 C100 1.364 . S
C99 C98 1.400 . S
C99 C103 1.377 . S
C100 C98 1.364 . S
C100 C101 1.374 . S
C101 H92 0.930 . S
C101 C100 1.374 . S
C101 C102 1.383 . S
C102 O96 1.412 . S
C102 C101 1.383 . S
C102 C103 1.394 . S
C103 H93 0.929 . S
C103 C99 1.377 . S
C103 C102 1.394 . S
Nd104 C106 2.836 1_545 S
Nd104 O124 2.500 1_445 S
Nd104 O125 2.492 . S
Nd104 O126 2.487 . S
Nd104 O127 2.682 . S
Nd104 O128 2.410 1_545 S
Nd104 O133 2.414 1_455 S
Nd104 O135 2.424 . S
Nd105 C115 2.836 . S
Nd105 O127 2.414 1_554 S
Nd105 O129 2.424 1_545 S
Nd105 O130 2.500 . S
Nd105 O131 2.492 . S
Nd105 O132 2.487 1_455 S
Nd105 O133 2.682 1_454 S
Nd105 O134 2.410 1_554 S
C106 Nd104 2.836 1_565 S
C106 C107 1.498 . S
C106 O124 1.258 1_455 S
C106 O125 1.239 1_565 S
C107 C106 1.498 . S
C107 C108 1.366 1_455 S
C107 C112 1.407 . S
C108 C107 1.366 1_655 S
C108 C109 1.392 . S
C108 H136 0.930 . S
C109 C108 1.392 . S
C109 C110 1.407 . S
C109 H137 0.929 . S
C110 C109 1.407 . S
C110 C111 1.343 1_655 S
C111 C110 1.343 1_455 S
C111 C112 1.384 . S
C111 H138 0.930 . S
C112 C107 1.407 . S
C112 C111 1.384 . S
C112 H139 0.929 . S
C113 O126 1.241 . S
C113 O127 1.273 . S
C114 O128 1.251 . S
C114 O129 1.268 1_556 S
C115 Nd105 2.836 . S
C115 C116 1.498 . S
C115 O130 1.258 . S
C115 O131 1.239 . S
C116 C115 1.498 . S
C116 C117 1.366 . S
C116 C121 1.407 . S
C117 C116 1.366 . S
C117 C118 1.392 . S
C117 H140 0.930 . S
C118 C117 1.392 . S
C118 C119 1.398 . S
C118 H141 0.929 . S
C119 C118 1.398 . S
C119 C120 1.352 . S
C120 C119 1.352 . S
C120 C121 1.384 . S
C120 H142 0.930 . S
C121 C116 1.407 . S
C121 C120 1.384 . S
C121 H143 0.929 . S
C122 O132 1.241 1_556 S
C122 O133 1.273 . S
C123 O134 1.251 . S
C123 O135 1.268 . S
O124 Nd104 2.500 1_665 S
O124 C106 1.258 1_655 S
O125 Nd104 2.492 . S
O125 C106 1.239 1_545 S
O126 Nd104 2.487 . S
O126 C113 1.241 . S
O127 Nd104 2.682 . S
O127 Nd105 2.414 1_556 S
O127 C113 1.273 . S
O128 Nd104 2.410 1_565 S
O128 C114 1.251 . S
O129 Nd105 2.424 1_565 S
O129 C114 1.268 1_554 S
O130 Nd105 2.500 . S
O130 C115 1.258 . S
O131 Nd105 2.492 . S
O131 C115 1.239 . S
O132 Nd105 2.487 1_655 S
O132 C122 1.241 1_554 S
O133 Nd104 2.414 1_655 S
O133 Nd105 2.682 1_656 S
O133 C122 1.273 . S
O134 Nd105 2.410 1_556 S
O134 C123 1.251 . S
O135 Nd104 2.424 . S
O135 C123 1.268 . S
H136 C108 0.930 . S
H137 C109 0.929 . S
H138 C111 0.930 . S
H139 C112 0.929 . S
H140 C117 0.930 . S
H141 C118 0.929 . S
H142 C120 0.930 . S
H143 C121 0.929 . S
Nd144 C146 2.839 1_545 S
Nd144 O164 2.500 1_545 S
Nd144 O165 2.492 . S
Nd144 O166 2.487 . S
Nd144 O167 2.682 . S
Nd144 O168 2.410 . S
Nd144 O173 2.414 . S
Nd144 O175 2.424 . S
Nd145 C155 2.836 . S
Nd145 O167 2.414 1_554 S
Nd145 O169 2.424 . S
Nd145 O170 2.500 . S
Nd145 O171 2.492 . S
Nd145 O172 2.487 1_545 S
Nd145 O173 2.682 1_554 S
Nd145 O174 2.410 . S
C146 Nd144 2.839 1_565 S
C146 C147 1.496 . S
C146 O164 1.257 . S
C146 O165 1.242 1_565 S
C147 C146 1.496 . S
C147 C148 1.366 . S
C147 C152 1.407 1_565 S
C148 C147 1.366 . S
C148 C149 1.392 . S
C148 H176 0.930 . S
C149 C148 1.392 . S
C149 C150 1.398 . S
C149 H177 0.929 . S
C150 C149 1.398 . S
C150 C151 1.352 . S
C151 C150 1.352 . S
C151 C152 1.384 1_565 S
C151 H178 0.930 1_565 S
C152 C147 1.407 1_545 S
C152 C151 1.384 1_545 S
C152 H179 0.929 . S
C153 O166 1.241 . S
C153 O167 1.273 . S
C154 O168 1.251 . S
C154 O169 1.268 1_556 S
C155 Nd145 2.836 . S
C155 C156 1.498 . S
C155 O170 1.258 . S
C155 O171 1.239 . S
C156 C155 1.498 . S
C156 C157 1.366 . S
C156 C161 1.407 . S
C157 C156 1.366 . S
C157 C158 1.392 . S
C157 H180 0.930 . S
C158 C157 1.392 . S
C158 C159 1.398 . S
C158 H181 0.929 . S
C159 C158 1.398 . S
C159 C160 1.352 . S
C160 C159 1.352 . S
C160 C161 1.384 . S
C160 H182 0.930 . S
C161 C156 1.407 . S
C161 C160 1.384 . S
C161 H183 0.929 . S
C162 O172 1.241 . S
C162 O173 1.273 1_564 S
C163 O174 1.251 1_556 S
C163 O175 1.268 . S
O164 Nd144 2.500 1_565 S
O164 C146 1.257 . S
O165 Nd144 2.492 . S
O165 C146 1.242 1_545 S
O166 Nd144 2.487 . S
O166 C153 1.241 . S
O167 Nd144 2.682 . S
O167 Nd145 2.414 1_556 S
O167 C153 1.273 . S
O168 Nd144 2.410 . S
O168 C154 1.251 . S
O169 Nd145 2.424 . S
O169 C154 1.268 1_554 S
O170 Nd145 2.500 . S
O170 C155 1.258 . S
O171 Nd145 2.492 . S
O171 C155 1.239 . S
O172 Nd145 2.487 1_565 S
O172 C162 1.241 . S
O173 Nd144 2.414 . S
O173 Nd145 2.682 1_556 S
O173 C162 1.273 1_546 S
O174 Nd145 2.410 . S
O174 C163 1.251 1_554 S
O175 Nd144 2.424 . S
O175 C163 1.268 . S
H176 C148 0.930 . S
H177 C149 0.929 . S
H178 C151 0.930 1_545 S
H179 C152 0.929 . S
H180 C157 0.930 . S
H181 C158 0.929 . S
H182 C160 0.930 . S
H183 C161 0.929 . S
Nd184 C186 2.836 . S
Nd184 O204 2.500 . S
Nd184 O205 2.492 . S
Nd184 O206 2.487 . S
Nd184 O207 2.682 1_554 S
Nd184 O208 2.410 1_554 S
Nd184 O213 2.414 1_554 S
Nd184 O215 2.424 . S
Nd185 C195 2.836 . S
Nd185 O207 2.414 . S
Nd185 O209 2.424 . S
Nd185 O210 2.500 . S
Nd185 O211 2.492 . S
Nd185 O212 2.487 . S
Nd185 O213 2.682 . S
Nd185 O214 2.410 . S
C186 Nd184 2.836 . S
C186 C187 1.498 . S
C186 O204 1.258 . S
C186 O205 1.239 . S
C187 C186 1.498 . S
C187 C188 1.366 . S
C187 C192 1.407 . S
C188 C187 1.366 . S
C188 C189 1.392 . S
C188 H216 0.930 . S
C189 C188 1.392 . S
C189 C190 1.398 . S
C189 H217 0.929 . S
C190 C189 1.398 . S
C190 C191 1.352 . S
C191 C190 1.352 . S
C191 C192 1.384 . S
C191 H218 0.930 . S
C192 C187 1.407 . S
C192 C191 1.384 . S
C192 H219 0.929 . S
C193 O206 1.241 1_556 S
C193 O207 1.273 . S
C194 O208 1.251 . S
C194 O209 1.268 . S
C195 Nd185 2.836 . S
C195 C196 1.498 . S
C195 O210 1.258 . S
C195 O211 1.239 . S
C196 C195 1.498 . S
C196 C197 1.366 . S
C196 C201 1.407 . S
C197 C196 1.366 . S
C197 C198 1.392 . S
C197 H220 0.930 . S
C198 C197 1.392 . S
C198 C199 1.398 . S
C198 H221 0.929 . S
C199 C198 1.398 . S
C199 C200 1.352 . S
C200 C199 1.352 . S
C200 C201 1.384 . S
C200 H222 0.930 . S
C201 C196 1.407 . S
C201 C200 1.384 . S
C201 H223 0.929 . S
C202 O212 1.241 . S
C202 O213 1.273 . S
C203 O214 1.251 1_554 S
C203 O215 1.268 . S
O204 Nd184 2.500 . S
O204 C186 1.258 . S
O205 Nd184 2.492 . S
O205 C186 1.239 . S
O206 Nd184 2.487 . S
O206 C193 1.241 1_554 S
O207 Nd184 2.682 1_556 S
O207 Nd185 2.414 . S
O207 C193 1.273 . S
O208 Nd184 2.410 1_556 S
O208 C194 1.251 . S
O209 Nd185 2.424 . S
O209 C194 1.268 . S
O210 Nd185 2.500 . S
O210 C195 1.258 . S
O211 Nd185 2.492 . S
O211 C195 1.239 . S
O212 Nd185 2.487 . S
O212 C202 1.241 . S
O213 Nd184 2.414 1_556 S
O213 Nd185 2.682 . S
O213 C202 1.273 . S
O214 Nd185 2.410 . S
O214 C203 1.251 1_556 S
O215 Nd184 2.424 . S
O215 C203 1.268 . S
H216 C188 0.930 . S
H217 C189 0.929 . S
H218 C191 0.930 . S
H219 C192 0.929 . S
H220 C197 0.930 . S
H221 C198 0.929 . S
H222 C200 0.930 . S
H223 C201 0.929 . S
Nd224 C226 2.836 1_455 S
Nd224 O244 2.500 1_455 S
Nd224 O245 2.492 1_455 S
Nd224 O246 2.487 . S
Nd224 O247 2.682 . S
Nd224 O248 2.410 1_455 S
Nd224 O253 2.414 . S
Nd224 O255 2.424 . S
Nd225 C235 2.836 . S
Nd225 O247 2.414 1_554 S
Nd225 O249 2.424 1_455 S
Nd225 O250 2.500 . S
Nd225 O251 2.492 . S
Nd225 O252 2.487 . S
Nd225 O253 2.682 1_554 S
Nd225 O254 2.413 . S
C226 Nd224 2.836 1_655 S
C226 C227 1.498 . S
C226 O244 1.258 . S
C226 O245 1.239 . S
C227 C226 1.498 . S
C227 C228 1.366 . S
C227 C232 1.407 . S
C228 C227 1.366 . S
C228 C229 1.392 . S
C228 H256 0.930 . S
C229 C228 1.392 . S
C229 C230 1.398 . S
C229 H257 0.929 . S
C230 C229 1.398 . S
C230 C231 1.352 . S
C231 C230 1.352 . S
C231 C232 1.384 . S
C231 H258 0.930 . S
C232 C227 1.407 . S
C232 C231 1.384 . S
C232 H259 0.929 . S
C233 O246 1.241 . S
C233 O247 1.273 . S
C234 O248 1.251 . S
C234 O249 1.268 1_556 S
C235 Nd225 2.836 . S
C235 C236 1.498 . S
C235 O250 1.258 . S
C235 O251 1.239 . S
C236 C235 1.498 . S
C236 C237 1.366 . S
C236 C241 1.407 . S
C237 C236 1.366 . S
C237 C238 1.392 . S
C237 H260 0.930 . S
C238 C237 1.392 . S
C238 C239 1.398 . S
C238 H261 0.929 . S
C239 C238 1.398 . S
C239 C240 1.352 . S
C240 C239 1.352 . S
C240 C241 1.384 . S
C240 H262 0.930 . S
C241 C236 1.407 . S
C241 C240 1.384 . S
C241 H263 0.929 . S
C242 O252 1.241 1_556 S
C242 O253 1.273 . S
C243 O254 1.244 1_556 S
C243 O255 1.268 . S
O244 Nd224 2.500 1_655 S
O244 C226 1.258 . S
O245 Nd224 2.492 1_655 S
O245 C226 1.239 . S
O246 Nd224 2.487 . S
O246 C233 1.241 . S
O247 Nd224 2.682 . S
O247 Nd225 2.414 1_556 S
O247 C233 1.273 . S
O248 Nd224 2.410 1_655 S
O248 C234 1.251 . S
O249 Nd225 2.424 1_655 S
O249 C234 1.268 1_554 S
O250 Nd225 2.500 . S
O250 C235 1.258 . S
O251 Nd225 2.492 . S
O251 C235 1.239 . S
O252 Nd225 2.487 . S
O252 C242 1.241 1_554 S
O253 Nd224 2.414 . S
O253 Nd225 2.682 1_556 S
O253 C242 1.273 . S
O254 Nd225 2.413 . S
O254 C243 1.244 1_554 S
O255 Nd224 2.424 . S
O255 C243 1.268 . S
H256 C228 0.930 . S
H257 C229 0.929 . S
H258 C231 0.930 . S
H259 C232 0.929 . S
H260 C237 0.930 . S
H261 C238 0.929 . S
H262 C240 0.930 . S
H263 C241 0.929 . S
C264 C265 1.369 . S
C264 C266 1.419 . S
C264 H268 0.930 . S
C265 C264 1.369 . S
C265 C274 1.429 . S
C266 C264 1.419 . S
C266 C267 1.363 . S
C266 H269 0.929 . S
C267 C266 1.363 . S
C267 C273 1.428 . S
H268 C264 0.930 . S
H269 C266 0.929 . S
S270 N271 1.613 . S
S270 N272 1.610 . S
N271 S270 1.613 . S
N271 C274 1.350 . S
N272 S270 1.610 . S
N272 C273 1.351 . S
C273 C267 1.428 . S
C273 N272 1.351 . S
C273 C274 1.434 . S
C274 C265 1.429 . S
C274 N271 1.350 . S
C274 C273 1.434 . S
C275 C276 1.369 . S
C275 C277 1.419 . S
C275 H279 0.930 . S
C276 C275 1.369 . S
C276 C285 1.429 . S
C277 C275 1.419 . S
C277 C278 1.363 . S
C277 H280 0.929 . S
C278 C277 1.363 . S
C278 C284 1.428 . S
H279 C275 0.930 . S
H280 C277 0.929 . S
S281 N282 1.613 . S
S281 N283 1.610 . S
N282 S281 1.613 . S
N282 C285 1.350 . S
N283 S281 1.610 . S
N283 C284 1.351 . S
C284 C278 1.428 . S
C284 N283 1.351 . S
C284 C285 1.434 . S
C285 C276 1.429 . S
C285 N282 1.350 . S
C285 C284 1.434 . S
C286 C287 1.369 . S
C286 C288 1.419 . S
C286 H290 0.930 . S
C287 C286 1.369 . S
C287 C296 1.429 . S
C288 C286 1.419 . S
C288 C289 1.363 . S
C288 H291 0.929 . S
C289 C288 1.363 . S
C289 C295 1.428 . S
H290 C286 0.930 . S
H291 C288 0.929 . S
S292 N293 1.613 . S
S292 N294 1.610 . S
N293 S292 1.613 . S
N293 C296 1.350 . S
N294 S292 1.610 . S
N294 C295 1.351 . S
C295 C289 1.428 . S
C295 N294 1.351 . S
C295 C296 1.434 . S
C296 C287 1.429 . S
C296 N293 1.350 . S
C296 C295 1.434 . S
C297 C298 1.369 . S
C297 C299 1.419 . S
C297 H301 0.930 . S
C298 C297 1.369 . S
C298 C307 1.429 . S
C299 C297 1.419 . S
C299 C300 1.363 . S
C299 H302 0.929 . S
C300 C299 1.363 . S
C300 C306 1.428 . S
H301 C297 0.930 . S
H302 C299 0.929 . S
S303 N304 1.613 1_655 S
S303 N305 1.610 . S
N304 S303 1.613 1_455 S
N304 C307 1.350 . S
N305 S303 1.610 . S
N305 C306 1.351 1_655 S
C306 C300 1.428 . S
C306 N305 1.351 1_455 S
C306 C307 1.434 . S
C307 C298 1.429 . S
C307 N304 1.350 . S
C307 C306 1.434 . S
C308 C309 1.369 1_545 S
C308 C310 1.419 . S
C308 H312 0.930 . S
C309 C308 1.369 1_565 S
C309 C318 1.429 1_556 S
C310 C308 1.419 . S
C310 C311 1.363 . S
C310 H313 0.929 . S
C311 C310 1.363 . S
C311 C317 1.428 1_545 S
H312 C308 0.930 . S
H313 C310 0.929 . S
S314 N315 1.613 . S
S314 N316 1.610 . S
N315 S314 1.613 . S
N315 C318 1.350 . S
N316 S314 1.610 . S
N316 C317 1.351 1_554 S
C317 C311 1.428 1_565 S
C317 N316 1.351 1_556 S
C317 C318 1.434 1_556 S
C318 C309 1.429 1_554 S
C318 N315 1.350 . S
C318 C317 1.434 1_554 S
C319 C320 1.369 . S
C319 C321 1.419 . S
C319 H323 0.930 . S
C320 C319 1.369 . S
C320 C329 1.429 . S
C321 C319 1.419 . S
C321 C322 1.363 . S
C321 H324 0.929 . S
C322 C321 1.363 . S
C322 C328 1.428 . S
H323 C319 0.930 . S
H324 C321 0.929 . S
S325 N326 1.613 . S
S325 N327 1.610 . S
N326 S325 1.613 . S
N326 C329 1.350 . S
N327 S325 1.610 . S
N327 C328 1.351 . S
C328 C322 1.428 . S
C328 N327 1.351 . S
C328 C329 1.434 . S
C329 C320 1.429 . S
C329 N326 1.350 . S
C329 C328 1.434 . S
C330 C331 1.369 . S
C330 C332 1.419 . S
C330 H334 0.930 . S
C331 C330 1.369 . S
C331 C340 1.429 . S
C332 C330 1.419 . S
C332 C333 1.363 . S
C332 H335 0.929 . S
C333 C332 1.363 . S
C333 C339 1.428 . S
H334 C330 0.930 . S
H335 C332 0.929 . S
S336 N337 1.613 . S
S336 N338 1.610 . S
N337 S336 1.613 . S
N337 C340 1.350 . S
N338 S336 1.610 . S
N338 C339 1.351 . S
C339 C333 1.428 . S
C339 N338 1.351 . S
C339 C340 1.434 . S
C340 C331 1.429 . S
C340 N337 1.350 . S
C340 C339 1.434 . S
C341 C342 1.369 . S
C341 C343 1.419 . S
C341 H345 0.930 . S
C342 C341 1.369 . S
C342 C351 1.429 1_654 S
C343 C341 1.419 . S
C343 C344 1.363 1_654 S
C343 H346 0.929 . S
C344 C343 1.363 1_456 S
C344 C350 1.428 . S
H345 C341 0.930 . S
H346 C343 0.929 . S
S347 N348 1.613 . S
S347 N349 1.610 . S
N348 S347 1.613 . S
N348 C351 1.350 . S
N349 S347 1.610 . S
N349 C350 1.351 . S
C350 C344 1.428 . S
C350 N349 1.351 . S
C350 C351 1.434 . S
C351 C342 1.429 1_456 S
C351 N348 1.350 . S
C351 C350 1.434 . S
C352 C353 1.369 . S
C352 C354 1.419 . S
C352 H356 0.930 . S
C353 C352 1.369 . S
C353 C362 1.429 . S
C354 C352 1.419 . S
C354 C355 1.363 . S
C354 H357 0.929 . S
C355 C354 1.363 . S
C355 C361 1.428 . S
H356 C352 0.930 . S
H357 C354 0.929 . S
S358 N359 1.613 . S
S358 N360 1.610 . S
N359 S358 1.613 . S
N359 C362 1.350 1_554 S
N360 S358 1.610 . S
N360 C361 1.351 1_554 S
C361 C355 1.428 . S
C361 N360 1.351 1_556 S
C361 C362 1.434 . S
C362 C353 1.429 . S
C362 N359 1.350 1_556 S
C362 C361 1.434 . S
C363 C364 1.369 1_554 S
C363 C365 1.419 . S
C363 H367 0.930 . S
C364 C363 1.369 1_556 S
C364 C373 1.429 . S
C365 C363 1.419 . S
C365 C366 1.363 1_554 S
C365 H368 0.929 . S
C366 C365 1.363 1_556 S
C366 C372 1.428 . S
H367 C363 0.930 . S
H368 C365 0.929 . S
S369 N370 1.613 . S
S369 N371 1.610 . S
N370 S369 1.613 . S
N370 C373 1.350 . S
N371 S369 1.610 . S
N371 C372 1.351 . S
C372 C366 1.428 . S
C372 N371 1.351 . S
C372 C373 1.434 . S
C373 C364 1.429 . S
C373 N370 1.350 . S
C373 C372 1.434 . S
C374 C375 1.369 . S
C374 C376 1.419 . S
C374 H378 0.930 . S
C375 C374 1.369 . S
C375 C384 1.429 . S
C376 C374 1.419 . S
C376 C377 1.363 . S
C376 H379 0.929 . S
C377 C376 1.363 . S
C377 C383 1.428 . S
H378 C374 0.930 . S
H379 C376 0.929 . S
S380 N381 1.613 . S
S380 N382 1.610 . S
N381 S380 1.613 . S
N381 C384 1.350 . S
N382 S380 1.610 . S
N382 C383 1.351 . S
C383 C377 1.428 . S
C383 N382 1.351 . S
C383 C384 1.434 . S
C384 C375 1.429 . S
C384 N381 1.350 . S
C384 C383 1.434 . S
C385 C386 1.369 . S
C385 C387 1.419 . S
C385 H389 0.930 . S
C386 C385 1.369 . S
C386 C395 1.429 . S
C387 C385 1.419 . S
C387 C388 1.363 . S
C387 H390 0.929 . S
C388 C387 1.363 . S
C388 C394 1.428 . S
H389 C385 0.930 . S
H390 C387 0.929 . S
S391 N392 1.613 . S
S391 N393 1.610 . S
N392 S391 1.613 . S
N392 C395 1.350 1_554 S
N393 S391 1.610 . S
N393 C394 1.351 1_554 S
C394 C388 1.428 . S
C394 N393 1.351 1_556 S
C394 C395 1.434 . S
C395 C386 1.429 . S
C395 N392 1.350 1_556 S
C395 C394 1.434 . S
C396 C397 1.369 1_454 S
C396 C398 1.419 . S
C396 H400 0.930 . S
C397 C396 1.369 1_656 S
C397 C406 1.429 . S
C398 C396 1.419 . S
C398 C399 1.363 1_554 S
C398 H401 0.929 . S
C399 C398 1.363 1_556 S
C399 C405 1.428 1_455 S
H400 C396 0.930 . S
H401 C398 0.929 . S
S402 N403 1.613 . S
S402 N404 1.610 . S
N403 S402 1.613 . S
N403 C406 1.350 . S
N404 S402 1.610 . S
N404 C405 1.351 . S
C405 C399 1.428 1_655 S
C405 N404 1.351 . S
C405 C406 1.434 . S
C406 C397 1.429 . S
C406 N403 1.350 . S
C406 C405 1.434 . S
C407 C408 1.369 . S
C407 C409 1.419 1_565 S
C407 H411 0.930 . S
C408 C407 1.369 . S
C408 C417 1.429 1_566 S
C409 C407 1.419 1_545 S
C409 C410 1.363 . S
C409 H412 0.929 . S
C410 C409 1.363 . S
C410 C416 1.428 1_556 S
H411 C407 0.930 . S
H412 C409 0.929 . S
S413 N414 1.613 . S
S413 N415 1.610 . S
N414 S413 1.613 . S
N414 C417 1.350 . S
N415 S413 1.610 . S
N415 C416 1.351 . S
C416 C410 1.428 1_554 S
C416 N415 1.351 . S
C416 C417 1.434 . S
C417 C408 1.429 1_544 S
C417 N414 1.350 . S
C417 C416 1.434 . S
C418 C419 1.369 . S
C418 C420 1.419 . S
C418 H422 0.930 . S
C419 C418 1.369 . S
C419 C428 1.429 . S
C420 C418 1.419 . S
C420 C421 1.363 . S
C420 H423 0.929 . S
C421 C420 1.363 . S
C421 C427 1.428 . S
H422 C418 0.930 . S
H423 C420 0.929 . S
S424 N425 1.613 . S
S424 N426 1.610 . S
N425 S424 1.613 . S
N425 C428 1.350 . S
N426 S424 1.610 . S
N426 C427 1.351 . S
C427 C421 1.428 . S
C427 N426 1.351 . S
C427 C428 1.434 . S
C428 C419 1.429 . S
C428 N425 1.350 . S
C428 C427 1.434 . S
C429 C430 1.369 . S
C429 C431 1.419 . S
C429 H433 0.930 . S
C430 C429 1.369 . S
C430 C439 1.429 . S
C431 C429 1.419 . S
C431 C432 1.363 . S
C431 H434 0.929 . S
C432 C431 1.363 . S
C432 C438 1.428 1_556 S
H433 C429 0.930 . S
H434 C431 0.929 . S
S435 N436 1.613 . S
S435 N437 1.610 . S
N436 S435 1.613 . S
N436 C439 1.350 1_554 S
N437 S435 1.610 . S
N437 C438 1.351 . S
C438 C432 1.428 1_554 S
C438 N437 1.351 . S
C438 C439 1.434 1_554 S
C439 C430 1.429 . S
C439 N436 1.350 1_556 S
C439 C438 1.434 1_556 S
C440 C441 1.369 . S
C440 C442 1.419 . S
C440 H444 0.930 . S
C441 C440 1.369 . S
C441 C450 1.429 . S
C442 C440 1.419 . S
C442 C443 1.363 . S
C442 H445 0.929 . S
C443 C442 1.363 . S
C443 C449 1.428 . S
H444 C440 0.930 . S
H445 C442 0.929 . S
S446 N447 1.613 . S
S446 N448 1.610 . S
N447 S446 1.613 . S
N447 C450 1.350 . S
N448 S446 1.610 . S
N448 C449 1.351 . S
C449 C443 1.428 . S
C449 N448 1.351 . S
C449 C450 1.434 . S
C450 C441 1.429 . S
C450 N447 1.350 . S
C450 C449 1.434 . S
C451 C452 1.369 . S
C451 C453 1.419 . S
C451 H455 0.930 . S
C452 C451 1.369 . S
C452 C461 1.429 . S
C453 C451 1.419 . S
C453 C454 1.363 . S
C453 H456 0.929 . S
C454 C453 1.363 . S
C454 C460 1.428 . S
H455 C451 0.930 . S
H456 C453 0.929 . S
S457 N458 1.613 . S
S457 N459 1.610 . S
N458 S457 1.613 . S
N458 C461 1.350 . S
N459 S457 1.610 . S
N459 C460 1.351 . S
C460 C454 1.428 . S
C460 N459 1.351 . S
C460 C461 1.434 . S
C461 C452 1.429 . S
C461 N458 1.350 . S
C461 C460 1.434 . S
C462 C463 1.369 . S
C462 C464 1.419 . S
C462 H466 0.930 . S
C463 C462 1.369 . S
C463 C472 1.429 . S
C464 C462 1.419 . S
C464 C465 1.363 . S
C464 H467 0.929 . S
C465 C464 1.363 . S
C465 C471 1.428 . S
H466 C462 0.930 . S
H467 C464 0.929 . S
S468 N469 1.613 . S
S468 N470 1.610 . S
N469 S468 1.613 . S
N469 C472 1.350 . S
N470 S468 1.610 . S
N470 C471 1.351 . S
C471 C465 1.428 . S
C471 N470 1.351 . S
C471 C472 1.434 . S
C472 C463 1.429 . S
C472 N469 1.350 . S
C472 C471 1.434 . S
C473 C474 1.369 . S
C473 C475 1.419 . S
C473 H477 0.930 . S
C474 C473 1.369 . S
C474 C483 1.429 . S
C475 C473 1.419 . S
C475 C476 1.363 . S
C475 H478 0.929 . S
C476 C475 1.363 . S
C476 C482 1.428 . S
H477 C473 0.930 . S
H478 C475 0.929 . S
S479 N480 1.613 . S
S479 N481 1.610 . S
N480 S479 1.613 . S
N480 C483 1.350 . S
N481 S479 1.610 . S
N481 C482 1.351 . S
C482 C476 1.428 . S
C482 N481 1.351 . S
C482 C483 1.434 . S
C483 C474 1.429 . S
C483 N480 1.350 . S
C483 C482 1.434 . S
C484 C485 1.369 . S
C484 C486 1.419 . S
C484 H488 0.930 . S
C485 C484 1.369 . S
C485 C494 1.429 1_655 S
C486 C484 1.419 . S
C486 C487 1.363 . S
C486 H489 0.929 . S
C487 C486 1.363 . S
C487 C493 1.428 1_655 S
H488 C484 0.930 . S
H489 C486 0.929 . S
S490 N491 1.613 . S
S490 N492 1.610 . S
N491 S490 1.613 . S
N491 C494 1.350 . S
N492 S490 1.610 . S
N492 C493 1.351 . S
C493 C487 1.428 1_455 S
C493 N492 1.351 . S
C493 C494 1.434 . S
C494 C485 1.429 1_455 S
C494 N491 1.350 . S
C494 C493 1.434 . S
C495 C496 1.369 . S
C495 C497 1.419 . S
C495 H499 0.930 . S
C496 C495 1.369 . S
C496 C505 1.429 . S
C497 C495 1.419 . S
C497 C498 1.363 . S
C497 H500 0.929 . S
C498 C497 1.363 . S
C498 C504 1.428 . S
H499 C495 0.930 . S
H500 C497 0.929 . S
S501 N502 1.613 . S
S501 N503 1.610 . S
N502 S501 1.613 . S
N502 C505 1.350 . S
N503 S501 1.610 . S
N503 C504 1.351 . S
C504 C498 1.428 . S
C504 N503 1.351 . S
C504 C505 1.434 . S
C505 C496 1.429 . S
C505 N502 1.350 . S
C505 C504 1.434 . S
C506 C507 1.369 . S
C506 C508 1.419 . S
C506 H510 0.930 . S
C507 C506 1.369 . S
C507 C516 1.429 . S
C508 C506 1.419 . S
C508 C509 1.363 . S
C508 H511 0.929 . S
C509 C508 1.363 . S
C509 C515 1.428 . S
H510 C506 0.930 . S
H511 C508 0.929 . S
S512 N513 1.613 . S
S512 N514 1.610 . S
N513 S512 1.613 . S
N513 C516 1.350 . S
N514 S512 1.610 . S
N514 C515 1.351 . S
C515 C509 1.428 . S
C515 N514 1.351 . S
C515 C516 1.434 . S
C516 C507 1.429 . S
C516 N513 1.350 . S
C516 C515 1.434 . S
C517 C518 1.369 . S
C517 C519 1.419 . S
C517 H521 0.930 . S
C518 C517 1.369 . S
C518 C527 1.429 . S
C519 C517 1.419 . S
C519 C520 1.363 . S
C519 H522 0.929 . S
C520 C519 1.363 . S
C520 C526 1.428 . S
H521 C517 0.930 . S
H522 C519 0.929 . S
S523 N524 1.613 . S
S523 N525 1.610 . S
N524 S523 1.613 . S
N524 C527 1.350 . S
N525 S523 1.610 . S
N525 C526 1.351 . S
C526 C520 1.428 . S
C526 N525 1.351 . S
C526 C527 1.434 . S
C527 C518 1.429 . S
C527 N524 1.350 . S
C527 C526 1.434 . S
C265 C82 1.695 . S
C267 C113 1.661 . S
C278 C153 1.388 . S
C276 C95 1.308 . S
C289 C202 1.432 . S
C287 C56 1.450 . S
C300 C233 1.787 . S
C298 C69 1.845 . S
C311 C122 1.661 . S
C309 C30 1.604 . S
C320 C43 1.251 . S
C322 C162 1.391 . S
C331 C4 1.433 . S
C333 C193 1.432 . S
C342 C17 1.749 . S
C344 C242 1.790 . S
C355 C123 1.245 . S
C353 C74 1.096 . S
C366 C163 1.708 . S
C364 C87 1.484 . S
C377 C199 0.951 . S
C375 C100 0.971 . S
C386 C61 1.273 . S
C388 C243 1.454 . S
C397 C22 1.094 1_556 S
C399 C114 1.245 . S
C410 C154 1.708 . S
C408 C35 1.477 1_556 S
C421 C190 0.956 . S
C419 C48 0.972 . S
C430 C9 1.255 . S
C432 C234 1.454 . S
C441 C73 1.629 . S
C443 C119 1.658 . S
C452 C86 1.534 . S
C454 C159 1.485 . S
C465 C203 2.027 . S
C463 C99 1.838 . S
C476 C239 1.462 . S
C474 C60 1.491 . S
C485 C21 1.627 . S
C487 C110 1.657 . S
C498 C150 1.489 . S
C496 C34 1.539 . S
C509 C194 2.027 . S
C507 C47 1.837 . S
C518 C8 1.498 . S
C520 C230 1.459 . S
