# Generated by pormake.
# Topology pyr, (3,6)-cn, num edge types: 1
# Building blocks:
#     Node 0, Type 0, BuildingBlock: BETDIP_clean_linker_0, # of connection points: 3
#     Node 1, Type 0, BuildingBlock: BETDIP_clean_linker_0, # of connection points: 3
#     Node 2, Type 0, BuildingBlock: BETDIP_clean_linker_0, # of connection points: 3
#     Node 3, Type 0, BuildingBlock: BETDIP_clean_linker_0, # of connection points: 3
#     Node 4, Type 0, BuildingBlock: BETDIP_clean_linker_0, # of connection points: 3
#     Node 5, Type 0, BuildingBlock: BETDIP_clean_linker_0, # of connection points: 3
#     Node 6, Type 0, BuildingBlock: BETDIP_clean_linker_0, # of connection points: 3
#     Node 7, Type 0, BuildingBlock: BETDIP_clean_linker_0, # of connection points: 3
#     Node 8, Type 1, BuildingBlock: FUNLAD_clean_sbu_0, # of connection points: 6
#     Node 9, Type 1, BuildingBlock: FUNLAD_clean_sbu_0, # of connection points: 6
#     Node 10, Type 1, BuildingBlock: FUNLAD_clean_sbu_0, # of connection points: 6
#     Node 11, Type 1, BuildingBlock: FUNLAD_clean_sbu_0, # of connection points: 6
#     Edge 12, Type (0, 1), BuildingBlock: XUDNAN_clean_linker_2, # of connection points: 2
#     Edge 13, Type (0, 1), BuildingBlock: XUDNAN_clean_linker_2, # of connection points: 2
#     Edge 14, Type (0, 1), BuildingBlock: XUDNAN_clean_linker_2, # of connection points: 2
#     Edge 15, Type (0, 1), BuildingBlock: XUDNAN_clean_linker_2, # of connection points: 2
#     Edge 16, Type (0, 1), BuildingBlock: XUDNAN_clean_linker_2, # of connection points: 2
#     Edge 17, Type (0, 1), BuildingBlock: XUDNAN_clean_linker_2, # of connection points: 2
#     Edge 18, Type (0, 1), BuildingBlock: XUDNAN_clean_linker_2, # of connection points: 2
#     Edge 19, Type (0, 1), BuildingBlock: XUDNAN_clean_linker_2, # of connection points: 2
#     Edge 20, Type (0, 1), BuildingBlock: XUDNAN_clean_linker_2, # of connection points: 2
#     Edge 21, Type (0, 1), BuildingBlock: XUDNAN_clean_linker_2, # of connection points: 2
#     Edge 22, Type (0, 1), BuildingBlock: XUDNAN_clean_linker_2, # of connection points: 2
#     Edge 23, Type (0, 1), BuildingBlock: XUDNAN_clean_linker_2, # of connection points: 2
#     Edge 24, Type (0, 1), BuildingBlock: XUDNAN_clean_linker_2, # of connection points: 2
#     Edge 25, Type (0, 1), BuildingBlock: XUDNAN_clean_linker_2, # of connection points: 2
#     Edge 26, Type (0, 1), BuildingBlock: XUDNAN_clean_linker_2, # of connection points: 2
#     Edge 27, Type (0, 1), BuildingBlock: XUDNAN_clean_linker_2, # of connection points: 2
#     Edge 28, Type (0, 1), BuildingBlock: XUDNAN_clean_linker_2, # of connection points: 2
#     Edge 29, Type (0, 1), BuildingBlock: XUDNAN_clean_linker_2, # of connection points: 2
#     Edge 30, Type (0, 1), BuildingBlock: XUDNAN_clean_linker_2, # of connection points: 2
#     Edge 31, Type (0, 1), BuildingBlock: XUDNAN_clean_linker_2, # of connection points: 2
#     Edge 32, Type (0, 1), BuildingBlock: XUDNAN_clean_linker_2, # of connection points: 2
#     Edge 33, Type (0, 1), BuildingBlock: XUDNAN_clean_linker_2, # of connection points: 2
#     Edge 34, Type (0, 1), BuildingBlock: XUDNAN_clean_linker_2, # of connection points: 2
#     Edge 35, Type (0, 1), BuildingBlock: XUDNAN_clean_linker_2, # of connection points: 2
# Relax obj value: 0.199
# Max RMSD: 0.199
# Mean RMSD: 0.134
data_MOF--net-pry--node1-FUNLAD_clean_sbu_0--node2-BETDIP_clean_linker_0--edge1-XUDNAN_clean_linker_2
_symmetry_space_group_name_H-M    P1
_symmetry_Int_Tables_number       1
_symmetry_cell_setting            triclinic
loop_
_symmetry_equiv_pos_as_xyz
'x, y, z'
_cell_length_a     34.490648
_cell_length_b     36.69753
_cell_length_c     38.950352
_cell_angle_alpha  93.362759
_cell_angle_beta   86.478268
_cell_angle_gamma 90.10844
loop_
_atom_site_label
_atom_site_type_symbol
_atom_site_fract_x
_atom_site_fract_y
_atom_site_fract_z
_atom_type_partial_charge
H0 H 0.11497 0.18048 0.24876 0.0
H1 H 0.1976 0.19212 0.16294 0.0
H2 H 0.21424 0.10841 0.23336 0.0
H3 H 0.15046 0.22101 0.13986 0.0
C4 C 0.13416 0.23572 0.16098 0.0
C5 C 0.14143 0.17169 0.23422 0.0
C6 C 0.1625 0.1415 0.24478 0.0
C7 C 0.15336 0.18989 0.20427 0.0
C8 C 0.18785 0.17817 0.18552 0.0
C9 C 0.21057 0.14908 0.19577 0.0
C10 C 0.19708 0.13061 0.22511 0.0
N11 N 0.13106 0.22043 0.19427 0.0
H12 H 0.36752 0.91536 0.75084 0.0
H13 H 0.36955 0.83355 0.66737 0.0
H14 H 0.45601 0.83177 0.74282 0.0
H15 H 0.30816 0.85401 0.65951 0.0
C16 C 0.30737 0.88252 0.66867 0.0
C17 C 0.38002 0.89055 0.73833 0.0
C18 C 0.41296 0.87504 0.75171 0.0
C19 C 0.36357 0.87572 0.70845 0.0
C20 C 0.38073 0.84433 0.69125 0.0
C21 C 0.41389 0.8277 0.7034 0.0
C22 C 0.42964 0.84311 0.73406 0.0
N23 N 0.33206 0.89512 0.69519 0.0
H24 H 0.6563 0.52042 0.93518 0.0
H25 H 0.56533 0.44379 0.95886 0.0
H26 H 0.67659 0.4324 1.00012 0.0
H27 H 0.52636 0.48315 0.93807 0.0
C28 C 0.54455 0.49395 0.91732 0.0
C29 C 0.64557 0.49736 0.9491 0.0
C30 C 0.67058 0.47859 0.9692 0.0
C31 C 0.60719 0.48563 0.94571 0.0
C32 C 0.59416 0.45441 0.96226 0.0
C33 C 0.61892 0.43522 0.98203 0.0
C34 C 0.65679 0.44798 0.98608 0.0
N35 N 0.58395 0.50307 0.9225 0.0
H36 H 0.8895 0.51903 0.46037 0.0
H37 H 0.98123 0.5989 0.46111 0.0
H38 H 0.87617 0.61828 0.52414 0.0
H39 H 0.01744 0.55491 0.43155 0.0
C40 C 0.9948 0.54383 0.41579 0.0
C41 C 0.90138 0.5446 0.47038 0.0
C42 C 0.87915 0.56704 0.49441 0.0
C43 C 0.93851 0.5555 0.45846 0.0
C44 C 0.95305 0.5895 0.47053 0.0
C45 C 0.93089 0.61222 0.49438 0.0
C46 C 0.89417 0.60048 0.5066 0.0
N47 N 0.95912 0.53325 0.43235 0.0
H48 H 0.83774 0.86284 0.89946 0.0
H49 H 0.92028 0.8655 0.81157 0.0
H50 H 0.83429 0.95031 0.83117 0.0
H51 H 0.87961 0.82526 0.92006 0.0
C52 C 0.8969 0.81145 0.89903 0.0
C53 C 0.84927 0.87556 0.87669 0.0
C54 C 0.8322 0.90843 0.86792 0.0
C55 C 0.8815 0.85991 0.85675 0.0
C56 C 0.8955 0.87717 0.82674 0.0
C57 C 0.87916 0.91024 0.81727 0.0
C58 C 0.8474 0.9252 0.83816 0.0
N59 N 0.90081 0.82743 0.86616 0.0
H60 H 0.67674 0.13873 0.33201 0.0
H61 H 0.66656 0.23194 0.4036 0.0
H62 H 0.58834 0.21936 0.32111 0.0
H63 H 0.72206 0.11864 0.36523 0.0
C64 C 0.72858 0.13915 0.38522 0.0
C65 C 0.66221 0.16388 0.341 0.0
C66 C 0.63101 0.17638 0.32263 0.0
C67 C 0.67484 0.18376 0.3704 0.0
C68 C 0.65594 0.21666 0.38147 0.0
C69 C 0.62458 0.23042 0.36441 0.0
C70 C 0.61268 0.20995 0.3345 0.0
N71 N 0.70639 0.17228 0.38975 0.0
H72 H 0.38165 0.5349 0.11559 0.0
H73 H 0.46109 0.6193 0.14582 0.0
H74 H 0.3427 0.64634 0.13017 0.0
H75 H 0.51627 0.53979 0.12377 0.0
C76 C 0.49264 0.55185 0.1403 0.0
C77 C 0.38704 0.56319 0.12348 0.0
C78 C 0.35745 0.5893 0.12246 0.0
C79 C 0.42422 0.57348 0.13278 0.0
C80 C 0.43185 0.61048 0.1411 0.0
C81 C 0.40244 0.63681 0.1407 0.0
C82 C 0.36509 0.62594 0.1319 0.0
N83 N 0.45414 0.54663 0.12977 0.0
H84 H 0.05522 0.45919 0.59668 0.0
H85 H 0.15583 0.52862 0.5952 0.0
H86 H 0.15337 0.43443 0.52531 0.0
H87 H 0.12712 0.5584 0.64117 0.0
C88 C 0.10701 0.53844 0.6515 0.0
C89 C 0.08345 0.46627 0.58519 0.0
C90 C 0.10157 0.44321 0.55894 0.0
C91 C 0.10271 0.49692 0.59873 0.0
C92 C 0.14005 0.5054 0.58488 0.0
C93 C 0.1579 0.48338 0.55784 0.0
C94 C 0.13845 0.45256 0.54475 0.0
N95 N 0.0856 0.51593 0.62868 0.0
C96 C 0.0586 0.04075 0.46618 0.0
N97 N 0.04116 0.10812 0.557 0.0
C98 C 0.07578 0.1216 0.54488 0.0
C99 C 0.08128 0.15913 0.544 0.0
C100 C 0.05106 0.18285 0.55616 0.0
C101 C 0.01703 0.16843 0.57157 0.0
C102 C 1.01252 0.13056 0.57152 0.0
Zn103 Zn 0.02925 0.05536 0.54245 0.0
C104 C 0.95235 0.05232 0.50867 0.0
N105 N 1.00407 0.94695 0.50768 0.0
C106 C 0.03241 0.92336 0.49466 0.0
C107 C 0.96797 0.93498 0.51752 0.0
C108 C 0.96013 0.89777 0.51716 0.0
C109 C 0.9896 0.87274 0.50624 0.0
C110 C 0.02562 0.88573 0.49346 0.0
Zn111 Zn 0.01668 0.99945 0.52236 0.0
O112 O 0.05581 0.06517 0.49084 0.0
C113 C 0.09364 1.00415 0.55741 0.0
O114 O 0.04567 1.00891 0.472 0.0
H115 H 0.94599 0.9542 0.52799 0.0
H116 H 0.09807 0.10327 0.53337 0.0
H117 H 0.061 0.93355 0.48734 0.0
O118 O 0.0837 0.03766 0.55988 0.0
O119 O 0.07152 0.98136 0.54217 0.0
H120 H 0.98509 0.1192 0.58066 0.0
O121 O 0.98827 0.99006 0.57319 0.0
O122 O 1.00214 0.04504 0.59339 0.0
O123 O 0.96167 0.01877 0.5028 0.0
O124 O 0.97501 0.07282 0.52559 0.0
C125 C 0.98738 1.0137 0.59851 0.0
H126 H 0.10808 0.16947 0.53229 0.0
H127 H 0.99315 0.18609 0.58116 0.0
H128 H 0.93189 0.88858 0.52688 0.0
H129 H 0.04899 0.86703 0.48494 0.0
C130 C 0.59806 1.00158 1.00934 0.0
N131 N 0.54364 0.10386 1.01036 0.0
C132 C 0.57904 0.11688 1.01864 0.0
C133 C 0.58736 0.15384 1.01741 0.0
C134 C 0.55898 0.17777 1.00768 0.0
C135 C 0.52376 0.16341 0.99664 0.0
C136 C 0.51654 0.12599 0.99836 0.0
Zn137 Zn 0.53023 0.05337 0.02666 0.0
C138 C 0.49539 1.00166 0.97129 0.0
N139 N 0.5047 0.95002 0.06517 0.0
C140 C 0.53167 0.93175 0.08157 0.0
C141 C 0.46803 0.93698 0.0626 0.0
C142 C 0.45704 0.90452 0.07728 0.0
C143 C 0.48418 0.88496 0.09446 0.0
C144 C 0.52203 0.89891 0.09636 0.0
Zn145 Zn 0.51761 0.99916 0.046 0.0
O146 O 0.58637 0.03428 1.00828 0.0
C147 C 0.55263 0.05043 0.10129 0.0
O148 O 0.57547 0.97884 1.02412 0.0
H149 H 0.44705 0.95205 0.04952 0.0
H150 H 0.6 0.09908 0.02865 0.0
H151 H 0.56062 0.9428 0.08339 0.0
O152 O 0.55145 0.07196 0.07694 0.0
O153 O 0.54178 1.0175 0.09525 0.0
H154 H 0.48845 0.11513 0.99228 0.0
O155 O 0.46008 0.02082 0.06764 0.0
O156 O 0.47437 0.07263 0.04517 0.0
O157 O 0.49382 0.98097 0.99657 0.0
O158 O 0.50855 0.03409 0.97648 0.0
C159 C 0.45078 0.05378 0.06313 0.0
H160 H 0.6151 0.16387 0.02555 0.0
H161 H 0.5012 0.18117 0.98895 0.0
H162 H 0.42738 0.89519 0.07559 0.0
H163 H 0.5441 0.88452 0.10885 0.0
C164 C 0.53307 0.46484 0.48952 0.0
N165 N 0.51823 0.49951 0.59842 0.0
C166 C 0.48946 0.47782 0.61145 0.0
C167 C 0.48741 0.47023 0.64638 0.0
C168 C 0.51585 0.48424 0.668 0.0
C169 C 0.54662 0.50417 0.65305 0.0
C170 C 0.54661 0.51239 0.61869 0.0
Zn171 Zn 0.51661 0.52014 0.55012 0.0
C172 C 0.59662 0.54529 0.52529 0.0
N173 N 0.51632 0.569 0.45336 0.0
C174 C 0.49489 0.54968 0.43045 0.0
C175 C 0.53672 0.59905 0.4441 0.0
C176 C 0.53672 0.61008 0.41025 0.0
C177 C 0.51536 0.59005 0.38598 0.0
C178 C 0.49396 0.55974 0.39668 0.0
Zn179 Zn 0.51854 0.54795 0.50064 0.0
O180 O 0.52896 0.4655 0.52248 0.0
C181 C 0.43863 0.5223 0.52461 0.0
O182 O 0.5296 0.49487 0.47515 0.0
H183 H 0.55368 0.61392 0.46271 0.0
H184 H 0.46697 0.46768 0.59531 0.0
H185 H 0.47931 0.52558 0.43804 0.0
O186 O 0.45614 0.51098 0.54967 0.0
O187 O 0.45776 0.53849 0.50117 0.0
H188 H 0.56873 0.53052 0.60903 0.0
O189 O 0.50758 0.60104 0.52715 0.0
O190 O 0.50442 0.57496 0.57637 0.0
O191 O 0.57946 0.55685 0.50012 0.0
O192 O 0.57701 0.52979 0.54884 0.0
C193 C 0.5022 0.60396 0.55995 0.0
H194 H 0.46288 0.45486 0.6564 0.0
H195 H 0.57024 0.5145 0.66785 0.0
H196 H 0.55361 0.63365 0.40304 0.0
H197 H 0.47787 0.54289 0.37876 0.0
C198 C 1.00544 0.59113 0.99722 0.0
N199 N 0.98844 0.55935 0.09978 0.0
C200 C 1.00596 0.58898 0.11461 0.0
C201 C 0.9996 0.59779 0.14981 0.0
C202 C 0.97414 0.57645 0.1699 0.0
C203 C 0.95339 0.54839 0.15298 0.0
C204 C 0.96153 0.53986 0.11791 0.0
Zn205 Zn 1.00951 0.539 0.05249 0.0
C206 C 0.9474 0.50325 1.01079 0.0
N207 N 0.05561 0.49242 0.95607 0.0
C208 C 0.08193 0.51572 0.9419 0.0
C209 C 0.04449 0.46156 0.93813 0.0
C210 C 0.0596 0.45378 0.90419 0.0
C211 C 0.08671 0.47775 0.88922 0.0
C212 C 0.09809 0.50873 0.90874 0.0
Zn213 Zn 0.03208 0.51069 1.00348 0.0
O214 O 0.99791 0.59038 0.02962 0.0
C215 C 0.09508 0.54629 0.04312 0.0
O216 O 0.02041 0.56272 0.98127 0.0
H217 H 0.0231 0.44366 0.94968 0.0
H218 H 0.02696 0.60439 0.09966 0.0
H219 H 0.08953 0.54079 0.95579 0.0
O220 O 0.06748 0.55659 0.06457 0.0
O221 O 0.08718 0.5275 1.01624 0.0
H222 H 0.94798 0.51632 0.10568 0.0
O223 O 0.04326 0.45897 0.02669 0.0
O224 O 0.02088 0.48729 0.07493 0.0
O225 O 0.97663 0.49388 0.99082 0.0
O226 O 0.95253 0.52112 0.0392 0.0
C227 C 0.03552 0.45857 0.05918 0.0
H228 H 0.01662 0.61953 0.16129 0.0
H229 H 0.93245 0.53189 0.16691 0.0
H230 H 0.04979 0.4298 0.88967 0.0
H231 H 0.11789 0.52856 0.89787 0.0
H232 H 0.13146 0.16753 0.31013 0.0
H233 H 0.16054 0.0672 0.24964 0.0
H234 H 0.13787 0.03153 0.29871 0.0
H235 H 0.16172 0.13655 0.39148 0.0
H236 H 0.12307 0.15965 0.41734 0.0
H237 H 0.14092 0.17773 0.37735 0.0
H238 H 0.07134 0.17623 0.356 0.0
H239 H 0.05333 0.1582 0.39597 0.0
H240 H 0.04444 0.13405 0.35558 0.0
H241 H 0.1102 1.00581 0.35438 0.0
H242 H 0.08274 0.99263 0.41243 0.0
H243 H 0.07342 0.10882 0.43929 0.0
C244 C 0.1329 0.13804 0.30711 0.0
C245 C 0.1481 0.12043 0.27552 0.0
C246 C 0.14963 0.08168 0.27328 0.0
C247 C 0.13656 0.06103 0.30114 0.0
C248 C 0.12204 0.07914 0.33176 0.0
C249 C 0.12034 0.11683 0.33507 0.0
C250 C 0.10411 0.12935 0.37125 0.0
C251 C 0.13425 0.15218 0.39049 0.0
C252 C 0.06604 0.15072 0.36959 0.0
C253 C 0.09678 0.09291 0.38762 0.0
C254 C 0.10713 0.06431 0.36421 0.0
C255 C 0.10226 0.02809 0.37289 0.0
C256 C 0.08652 0.02081 0.40611 0.0
C257 C 0.07595 0.04945 0.43096 0.0
C258 C 0.08143 0.0861 0.42128 0.0
H259 H 0.4224 0.85702 0.82045 0.0
H260 H 0.4441 0.94277 0.74985 0.0
H261 H 0.46699 0.9832 0.79728 0.0
H262 H 0.38688 0.91557 0.89272 0.0
H263 H 0.40927 0.89106 0.92507 0.0
H264 H 0.39663 0.8674 0.88547 0.0
H265 H 0.46757 0.84515 0.87386 0.0
H266 H 0.48032 0.86848 0.91361 0.0
H267 H 0.50648 0.87803 0.87366 0.0
H268 H 0.48463 1.01635 0.85294 0.0
H269 H 0.49899 0.03844 0.91179 0.0
H270 H 0.46709 0.93263 0.949 0.0
C271 C 0.43282 0.88401 0.81489 0.0
C272 C 0.43183 0.89635 0.78087 0.0
C273 C 0.44485 0.93235 0.77526 0.0
C274 C 0.45781 0.95568 0.80222 0.0
C275 C 0.45778 0.94313 0.83537 0.0
C276 C 0.44595 0.90803 0.8419 0.0
C277 C 0.4482 0.90208 0.88036 0.0
C278 C 0.40784 0.89351 0.89688 0.0
C279 C 0.47738 0.87162 0.88568 0.0
C280 C 0.46282 0.93923 0.89428 0.0
C281 C 0.46804 0.96242 0.86771 0.0
C282 C 0.48079 0.99826 0.87385 0.0
C283 C 0.48881 1.0107 0.90765 0.0
C284 C 0.48431 0.98768 0.93568 0.0
C285 C 0.4709 0.95127 0.92853 0.0
H286 H 0.5633 0.53555 0.86276 0.0
H287 H 0.49733 0.44072 0.89272 0.0
H288 H 0.48077 0.42791 0.83215 0.0
H289 H 0.49528 0.56295 0.79958 0.0
H290 H 0.53379 0.57918 0.77104 0.0
H291 H 0.53921 0.58092 0.81681 0.0
H292 H 0.60321 0.54382 0.80643 0.0
H293 H 0.59773 0.54159 0.7607 0.0
H294 H 0.60279 0.50015 0.78269 0.0
H295 H 0.47803 0.42213 0.76696 0.0
H296 H 0.4824 0.42786 0.70407 0.0
H297 H 0.54246 0.53142 0.71912 0.0
C298 C 0.54502 0.51236 0.85652 0.0
C299 C 0.53167 0.48892 0.88203 0.0
C300 C 0.5076 0.45898 0.87327 0.0
C301 C 0.49822 0.45145 0.83903 0.0
C302 C 0.51237 0.47476 0.8142 0.0
C303 C 0.53447 0.50511 0.82272 0.0
C304 C 0.54553 0.5262 0.79143 0.0
C305 C 0.52735 0.56458 0.79493 0.0
C306 C 0.58994 0.52802 0.78494 0.0
C307 C 0.52725 0.5024 0.76383 0.0
C308 C 0.50854 0.4727 0.77729 0.0
C309 C 0.49187 0.44575 0.75619 0.0
C310 C 0.49433 0.44939 0.7204 0.0
C311 C 0.51286 0.48007 0.70603 0.0
C312 C 0.52887 0.50705 0.72853 0.0
H313 H 0.97419 0.50356 0.35895 0.0
H314 H 1.01322 0.61088 0.39401 0.0
H315 H 1.00666 0.63285 0.33562 0.0
H316 H 0.02745 0.50306 0.27629 0.0
H317 H 0.99065 0.4778 0.25417 0.0
H318 H 0.99637 0.47183 0.29911 0.0
H319 H 0.92369 0.48825 0.31259 0.0
H320 H 0.918 0.49494 0.26772 0.0
H321 H 0.9054 0.53108 0.29979 0.0
H322 H 0.99299 0.64323 0.27392 0.0
H323 H 0.98427 0.63922 0.21152 0.0
H324 H 0.96206 0.52281 0.21605 0.0
C325 C 0.98142 0.53161 0.35412 0.0
C326 C 0.99412 0.55571 0.38053 0.0
C327 C 1.00372 0.59214 0.37369 0.0
C328 C 0.99972 0.60486 0.34082 0.0
C329 C 0.98676 0.5805 0.3152 0.0
C330 C 0.97863 0.54443 0.32128 0.0
C331 C 0.96807 0.52315 0.28878 0.0
C332 C 0.99739 0.49214 0.27901 0.0
C333 C 0.9263 0.5085 0.29246 0.0
C334 C 0.97144 0.55288 0.26346 0.0
C335 C 0.98143 0.5859 0.27929 0.0
C336 C 0.98573 0.61736 0.26111 0.0
C337 C 0.98095 0.6147 0.22554 0.0
C338 C 0.97293 0.5806 0.2083 0.0
C339 C 0.96747 0.54954 0.22798 0.0
H340 H 0.24679 0.08052 0.1799 0.0
H341 H 0.2633 0.19663 0.16779 0.0
H342 H 0.32313 0.18363 0.1321 0.0
H343 H 0.35086 0.06103 0.18658 0.0
H344 H 0.34927 1.01712 0.16342 0.0
H345 H 0.30665 0.03473 0.18793 0.0
H346 H 0.26739 0.0272 0.13349 0.0
H347 H 0.30997 1.00982 0.10876 0.0
H348 H 0.28448 0.04869 0.09495 0.0
H349 H 0.37935 0.15951 0.09556 0.0
H350 H 0.43345 0.126 0.06486 0.0
H351 H 0.38728 0.02424 0.10195 0.0
C352 C 0.26312 0.10326 0.17 0.0
C353 C 0.24902 0.13976 0.17621 0.0
C354 C 0.27196 0.1684 0.16268 0.0
C355 C 0.30647 0.16133 0.14245 0.0
C356 C 0.31882 0.12535 0.13609 0.0
C357 C 0.29841 0.09668 0.14982 0.0
C358 C 0.31949 0.06067 0.13931 0.0
C359 C 0.33233 0.0423 0.17122 0.0
C360 C 0.29379 0.03508 0.11786 0.0
C361 C 0.35457 0.07377 0.11739 0.0
C362 C 0.35303 0.11125 0.11585 0.0
C363 C 0.38104 0.13018 0.09681 0.0
C364 C 0.41179 0.11064 0.07922 0.0
C365 C 0.41522 0.0722 0.08069 0.0
C366 C 0.38583 0.05352 0.10014 0.0
H367 H 0.24858 0.86377 0.62604 0.0
H368 H 0.29994 0.9573 0.67924 0.0
H369 H 0.25254 0.99781 0.65528 0.0
H370 H 0.22715 0.90816 0.54864 0.0
H371 H 0.18141 0.88518 0.54374 0.0
H372 H 0.21964 0.86337 0.56454 0.0
H373 H 0.17323 0.85562 0.61839 0.0
H374 H 0.13483 0.87727 0.59769 0.0
H375 H 0.14878 0.89508 0.63925 0.0
H376 H 0.19967 0.02861 0.625 0.0
H377 H 0.14379 0.0471 0.59359 0.0
H378 H 0.12421 0.93387 0.5605 0.0
C379 C 0.24983 0.89281 0.63262 0.0
C380 C 0.27822 0.90724 0.65462 0.0
C381 C 0.27865 0.9454 0.66263 0.0
C382 C 0.2518 0.96871 0.64901 0.0
C383 C 0.2243 0.95364 0.62742 0.0
C384 C 0.22291 0.91651 0.61943 0.0
C385 C 0.18977 0.90732 0.59619 0.0
C386 C 0.20544 0.88998 0.56121 0.0
C387 C 0.15988 0.88234 0.61395 0.0
C388 C 0.17276 0.94505 0.59231 0.0
C389 C 0.19335 0.97135 0.61042 0.0
C390 C 0.18338 1.00818 0.61082 0.0
C391 C 0.15145 1.01844 0.59271 0.0
C392 C 0.12922 0.99214 0.57429 0.0
C393 C 0.14044 0.95484 0.57408 0.0
H394 H 0.71507 0.49087 1.02476 0.0
H395 H 0.72054 0.48401 0.91305 0.0
H396 H 0.79208 0.489 0.91188 0.0
H397 H 0.79498 0.55743 0.03303 0.0
H398 H 0.81237 0.53715 0.07024 0.0
H399 H 0.76153 0.53481 0.06213 0.0
H400 H 0.76407 0.4644 0.06398 0.0
H401 H 0.81504 0.46646 0.07152 0.0
H402 H 0.7986 0.43879 0.03551 0.0
H403 H 0.86252 0.48821 0.92272 0.0
H404 H 0.92802 0.49148 0.9445 0.0
H405 H 0.87761 0.50302 0.04952 0.0
C406 C 0.73142 0.49114 1.00013 0.0
C407 C 0.71248 0.48731 0.96895 0.0
C408 C 0.73458 0.48749 0.93714 0.0
C409 C 0.77517 0.48998 0.93625 0.0
C410 C 0.79307 0.49282 0.96741 0.0
C411 C 0.77195 0.49427 0.99878 0.0
C412 C 0.7985 0.49766 0.02845 0.0
C413 C 0.79142 0.53393 0.04971 0.0
C414 C 0.79376 0.46487 0.0512 0.0
C415 C 0.83785 0.49719 1.00883 0.0
C416 C 0.83394 0.49394 0.97367 0.0
C417 C 0.86598 0.49127 0.95017 0.0
C418 C 0.90308 0.49284 0.96285 0.0
C419 C 0.90792 0.49758 0.99871 0.0
C420 C 0.87479 0.49957 1.02198 0.0
H421 H 0.8179 0.56069 0.45366 0.0
H422 H 0.84987 0.55497 0.55906 0.0
H423 H 0.78066 0.54742 0.57822 0.0
H424 H 0.73435 0.6147 0.47354 0.0
H425 H 0.70576 0.59315 0.44088 0.0
H426 H 0.75791 0.59393 0.43466 0.0
H427 H 0.75944 0.52342 0.42544 0.0
H428 H 0.70722 0.52245 0.43111 0.0
H429 H 0.73613 0.49601 0.45762 0.0
H430 H 0.70861 0.54317 0.58605 0.0
H431 H 0.63754 0.54217 0.58256 0.0
H432 H 0.65161 0.55419 0.47225 0.0
C433 C 0.8102 0.55683 0.48059 0.0
C434 C 0.83885 0.5576 0.50495 0.0
C435 C 0.82807 0.55382 0.54015 0.0
C436 C 0.78898 0.54965 0.55118 0.0
C437 C 0.76121 0.54978 0.52666 0.0
C438 C 0.77124 0.55322 0.49209 0.0
C439 C 0.73552 0.55484 0.47143 0.0
C440 C 0.73327 0.59133 0.45412 0.0
C441 C 0.73452 0.52223 0.44483 0.0
C442 C 0.70384 0.55203 0.49983 0.0
C443 C 0.71938 0.54883 0.5314 0.0
C444 C 0.69607 0.54559 0.56149 0.0
C445 C 0.65574 0.54511 0.55923 0.0
C446 C 0.63911 0.54827 0.52716 0.0
C447 C 0.66353 0.55212 0.49715 0.0
H448 H 0.13613 0.26736 0.09886 0.0
H449 H 0.0876 0.28316 0.20397 0.0
H450 H 0.05627 0.34046 0.18896 0.0
H451 H 0.1567 0.36208 0.08556 0.0
H452 H 0.14423 0.35928 0.04122 0.0
H453 H 0.16215 0.3195 0.06019 0.0
H454 H 0.10088 0.28357 0.04328 0.0
H455 H 0.08273 0.32326 1.02431 0.0
H456 H 0.05348 0.30148 0.05713 0.0
H457 H 0.03084 0.39733 0.16203 0.0
H458 H 1.01397 0.44795 0.12676 0.0
H459 H 0.07856 0.39551 0.03832 0.0
C460 C 0.11878 0.28283 0.11875 0.0
C461 C 0.11435 0.27047 0.15272 0.0
C462 C 0.0915 0.29174 0.17786 0.0
C463 C 0.07356 0.32443 0.16947 0.0
C464 C 0.07857 0.33576 0.13575 0.0
C465 C 0.10068 0.31551 0.11078 0.0
C466 C 0.10189 0.33379 0.07653 0.0
C467 C 0.14373 0.34428 0.06522 0.0
C468 C 0.08366 0.30904 0.04867 0.0
C469 C 0.07702 0.36759 0.08597 0.0
C470 C 0.06388 0.36817 0.12029 0.0
C471 C 0.04096 0.3969 0.13515 0.0
C472 C 0.03147 0.4257 0.11473 0.0
C473 C 0.04459 0.42608 0.07943 0.0
C474 C 0.0676 0.39621 0.065 0.0
H475 H 0.58251 0.37997 0.9468 0.0
H476 H 0.62964 0.40931 0.04541 0.0
H477 H 0.61468 0.34734 0.06431 0.0
H478 H 0.50353 0.32077 0.97973 0.0
H479 H 0.50923 0.289 0.94268 0.0
H480 H 0.52015 0.33663 0.93843 0.0
H481 H 0.58925 0.31936 0.91285 0.0
H482 H 0.57873 0.27178 0.91724 0.0
H483 H 0.62014 0.29212 0.93694 0.0
H484 H 0.59963 0.28136 0.07041 0.0
H485 H 0.58518 0.21554 0.06378 0.0
H486 H 0.54733 0.22946 0.96117 0.0
C487 C 0.58865 0.37373 0.97275 0.0
C488 C 0.60683 0.39949 0.99485 0.0
C489 C 0.61568 0.3899 0.02816 0.0
C490 C 0.60711 0.35491 0.03913 0.0
C491 C 0.58964 0.33004 1.01647 0.0
C492 C 0.58032 0.33905 0.98405 0.0
C493 C 0.56402 0.30665 0.96383 0.0
C494 C 0.52171 0.31369 0.9557 0.0
C495 C 0.58957 0.29691 0.93078 0.0
C496 C 0.56645 0.27769 0.98966 0.0
C497 C 0.58104 0.29185 1.01995 0.0
C498 C 0.58786 0.27004 0.04698 0.0
C499 C 0.57984 0.23271 0.04286 0.0
C500 C 0.56532 0.21757 1.0119 0.0
C501 C 0.55801 0.24048 0.9852 0.0
H502 H 0.96498 0.66193 0.4523 0.0
H503 H 0.92608 0.647 0.55866 0.0
H504 H 0.94147 0.71146 0.57385 0.0
H505 H 0.04543 0.72609 0.47153 0.0
H506 H 0.03687 0.75244 0.4351 0.0
H507 H 0.02654 0.70422 0.4334 0.0
H508 H 0.95597 0.71762 0.41865 0.0
H509 H 0.96584 0.76583 0.42065 0.0
H510 H 0.92625 0.74814 0.44709 0.0
H511 H 0.95408 0.77824 0.57618 0.0
H512 H 0.96635 0.84321 0.5662 0.0
H513 H 0.9994 0.81467 0.45879 0.0
C514 C 0.9608 0.6719 0.479 0.0
C515 C 0.94444 0.64947 0.50437 0.0
C516 C 0.93836 0.66383 0.53882 0.0
C517 C 0.94721 0.70029 0.5477 0.0
C518 C 0.96244 0.72187 0.5219 0.0
C519 C 0.96962 0.70817 0.48833 0.0
C520 C 0.98401 0.73771 0.46513 0.0
C521 C 0.0257 0.72963 0.45043 0.0
C522 C 0.95636 0.7426 0.43619 0.0
C523 C 0.98274 0.7704 0.49074 0.0
C524 C 0.97036 0.76055 0.52337 0.0
C525 C 0.96435 0.78623 0.55091 0.0
C526 C 0.97111 0.82299 0.54496 0.0
C527 C 0.9838 0.83365 0.51178 0.0
C528 C 0.99016 0.807 0.48445 0.0
H529 H 0.42428 0.7527 0.71341 0.0
H530 H 0.4478 0.83521 0.63975 0.0
H531 H 0.47414 0.78795 0.59699 0.0
H532 H 0.511 0.69494 0.68692 0.0
H533 H 0.48547 0.65256 0.69234 0.0
H534 H 0.47061 0.69294 0.7184 0.0
H535 H 0.40094 0.68572 0.69796 0.0
H536 H 0.41566 0.64547 0.6717 0.0
H537 H 0.39355 0.68313 0.65245 0.0
H538 H 0.49424 0.73177 0.56029 0.0
H539 H 0.50921 0.67087 0.53285 0.0
H540 H 0.47456 0.62172 0.62866 0.0
C541 C 0.43583 0.76083 0.68854 0.0
C542 C 0.43436 0.79814 0.68026 0.0
C543 C 0.4489 0.80719 0.64699 0.0
C544 C 0.46386 0.78038 0.6224 0.0
C545 C 0.46434 0.744 0.63098 0.0
C546 C 0.45101 0.73403 0.66331 0.0
C547 C 0.45397 0.69251 0.66501 0.0
C548 C 0.48192 0.68266 0.69229 0.0
C549 C 0.41363 0.67572 0.67221 0.0
C550 C 0.47062 0.68086 0.62864 0.0
C551 C 0.47628 0.71122 0.60959 0.0
C552 C 0.49019 0.70788 0.57513 0.0
C553 C 0.49859 0.6729 0.55964 0.0
C554 C 0.49344 0.64094 0.57826 0.0
C555 C 0.4793 0.64532 0.61352 0.0
H556 H 0.90406 0.88481 0.74974 0.0
H557 H 0.8938 0.98354 0.81663 0.0
H558 H 0.91935 0.0196 0.76891 0.0
H559 H 0.99374 0.91014 0.7018 0.0
H560 H 0.97936 0.89056 0.661 0.0
H561 H 0.96091 0.87186 0.70053 0.0
H562 H 0.8906 0.8812 0.68312 0.0
H563 H 0.9089 0.90003 0.64361 0.0
H564 H 0.8752 0.92593 0.67264 0.0
H565 H 0.94655 0.04598 0.7138 0.0
H566 H 0.97238 0.06028 0.6556 0.0
H567 H 0.96451 0.94579 0.62205 0.0
C568 C 0.90744 0.91398 0.75441 0.0
C569 C 0.89641 0.9311 0.78739 0.0
C570 C 0.90126 0.96951 0.79187 0.0
C571 C 0.91603 0.99037 0.7648 0.0
C572 C 0.92604 0.97287 0.73272 0.0
C573 C 0.92194 0.93552 0.72728 0.0
C574 C 0.93443 0.92389 0.68987 0.0
C575 C 0.96918 0.89755 0.68821 0.0
C576 C 0.90024 0.90674 0.67121 0.0
C577 C 0.94616 0.96042 0.67532 0.0
C578 C 0.94119 0.98825 0.70065 0.0
C579 C 0.95042 0.02432 0.69381 0.0
C580 C 0.96514 0.03225 0.66047 0.0
C581 C 0.97052 1.00445 0.63373 0.0
C582 C 0.96062 0.96794 0.64157 0.0
H583 H 0.61161 0.19572 0.25653 0.0
H584 H 0.61872 0.10266 0.31961 0.0
H585 H 0.60031 0.0618 0.2709 0.0
H586 H 0.52835 0.16257 0.20893 0.0
H587 H 0.54654 0.17956 0.16855 0.0
H588 H 0.55928 0.20223 0.20859 0.0
H589 H 0.63213 0.19466 0.18961 0.0
H590 H 0.61956 0.17182 0.1496 0.0
H591 H 0.65119 0.14977 0.1772 0.0
H592 H 0.58173 0.02979 0.21504 0.0
H593 H 0.5639 1.0095 0.1566 0.0
H594 H 0.56891 0.12168 0.127 0.0
C595 C 0.6089 0.1668 0.2602 0.0
C596 C 0.61702 0.15271 0.29241 0.0
C597 C 0.61331 0.11446 0.29551 0.0
C598 C 0.60267 0.09085 0.26784 0.0
C599 C 0.59561 0.10537 0.2365 0.0
C600 C 0.59847 0.14248 0.23241 0.0
C601 C 0.58981 0.15053 0.19549 0.0
C602 C 0.55386 0.17519 0.19539 0.0
C603 C 0.62529 0.16772 0.17688 0.0
C604 C 0.58175 0.11227 0.17965 0.0
C605 C 0.5852 0.08673 0.20396 0.0
C606 C 0.579 0.04965 0.19586 0.0
C607 C 0.56885 0.0383 0.16235 0.0
C608 C 0.56498 0.06364 0.13661 0.0
C609 C 0.57175 0.1013 0.1457 0.0
H610 H 0.44328 0.56032 0.19886 0.0
H611 H 0.56245 0.57576 0.16038 0.0
H612 H 0.57968 0.5973 0.21889 0.0
H613 H 0.43984 0.64007 0.26368 0.0
H614 H 0.40985 0.61539 0.29392 0.0
H615 H 0.40606 0.60631 0.24824 0.0
H616 H 0.41964 0.5377 0.25495 0.0
H617 H 0.42352 0.54651 0.30046 0.0
H618 H 0.46302 0.52458 0.27474 0.0
H619 H 0.58537 0.6095 0.28242 0.0
H620 H 0.57972 0.60847 0.34585 0.0
H621 H 0.45606 0.58802 0.34226 0.0
C622 C 0.47269 0.56942 0.20241 0.0
C623 C 0.50146 0.56714 0.175 0.0
C624 C 0.53998 0.57776 0.1811 0.0
C625 C 0.54994 0.59023 0.21413 0.0
C626 C 0.5209 0.59213 0.24069 0.0
C627 C 0.48301 0.58215 0.23513 0.0
C628 C 0.45803 0.58343 0.26847 0.0
C629 C 0.42659 0.61307 0.26859 0.0
C630 C 0.44003 0.54583 0.27502 0.0
C631 C 0.48823 0.59376 0.29389 0.0
C632 C 0.52416 0.59939 0.27736 0.0
C633 C 0.55723 0.60593 0.29566 0.0
C634 C 0.55371 0.60549 0.33173 0.0
C635 C 0.51744 0.59822 0.34903 0.0
C636 C 0.48417 0.59365 0.32977 0.0
H637 H 0.05381 0.50531 0.69427 0.0
H638 H 0.17258 0.54417 0.68641 0.0
H639 H 0.18344 0.52112 0.74352 0.0
H640 H 0.03629 0.53388 0.78127 0.0
H641 H 1.00531 0.49597 0.79175 0.0
H642 H 1.00908 0.51071 0.74848 0.0
H643 H 0.02909 0.44505 0.72604 0.0
H644 H 0.02611 0.43037 0.7695 0.0
H645 H 0.07042 0.42377 0.74285 0.0
H646 H 0.18046 0.49708 0.80194 0.0
H647 H 0.16094 0.48457 0.86206 0.0
H648 H 0.04278 0.46484 0.83373 0.0
C649 C 0.08219 0.50849 0.70451 0.0
C650 C 0.11257 0.52612 0.68612 0.0
C651 C 0.14907 0.53068 0.70036 0.0
C652 C 0.15559 0.51728 0.73247 0.0
C653 C 0.12513 0.49974 0.74998 0.0
C654 C 0.08892 0.49592 0.73683 0.0
C655 C 0.05981 0.48027 0.76269 0.0
C656 C 0.02563 0.5068 0.77158 0.0
C657 C 0.04553 0.44262 0.74947 0.0
C658 C 0.08497 0.47705 0.7929 0.0
C659 C 0.12285 0.4873 0.78457 0.0
C660 C 0.15098 0.48879 0.80873 0.0
C661 C 0.13965 0.48159 0.84276 0.0
C662 C 0.10037 0.4738 0.85243 0.0
C663 C 0.07313 0.46994 0.82688 0.0
H664 H 0.76467 0.87904 0.89966 0.0
H665 H 0.82783 0.98059 0.88906 0.0
H666 H 0.77694 1.01317 0.92579 0.0
H667 H 0.66883 0.91821 0.89687 0.0
H668 H 0.64595 0.88966 0.92832 0.0
H669 H 0.68796 0.87334 0.90216 0.0
H670 H 0.72312 0.86125 0.95717 0.0
H671 H 0.68123 0.87766 0.98351 0.0
H672 H 0.72819 0.89786 0.98951 0.0
H673 H 0.71953 0.03575 0.9624 0.0
H674 H 0.65739 0.04789 0.99517 0.0
H675 H 0.62784 0.9329 0.9838 0.0
C676 C 0.76789 0.90808 0.90531 0.0
C677 C 0.80055 0.92716 0.89104 0.0
C678 C 0.80317 0.96527 0.89901 0.0
C679 C 0.77441 0.98406 0.92015 0.0
C680 C 0.74267 0.96468 0.93346 0.0
C681 C 0.73897 0.92757 0.92637 0.0
C682 C 0.70089 0.91395 0.94335 0.0
C683 C 0.67434 0.89784 0.91604 0.0
C684 C 0.70884 0.88602 0.96996 0.0
C685 C 0.68385 0.94924 0.9609 0.0
C686 C 0.70884 0.97797 0.95483 0.0
C687 C 0.69981 1.01343 0.96737 0.0
C688 C 0.6642 0.02004 0.98606 0.0
C689 C 0.63733 0.9915 0.99243 0.0
C690 C 0.64773 0.95535 0.97992 0.0
H691 H 0.77569 0.07811 0.38385 0.0
H692 H 0.75449 0.18305 0.43898 0.0
H693 H 0.80725 0.17079 0.47677 0.0
H694 H 0.79822 0.0283 0.45843 0.0
H695 H 0.83597 1.00099 0.43559 0.0
H696 H 0.79622 1.01748 0.41282 0.0
H697 H 0.84488 0.04795 0.37017 0.0
H698 H 0.88477 0.03145 0.39273 0.0
H699 H 0.88033 0.07953 0.38658 0.0
H700 H 0.86317 0.14811 0.50809 0.0
H701 H 0.91862 0.1172 0.53061 0.0
H702 H 0.90509 0.02558 0.45662 0.0
C703 C 0.78214 0.09845 0.40396 0.0
C704 C 0.76066 0.13163 0.40832 0.0
C705 C 0.77019 0.15749 0.43493 0.0
C706 C 0.80023 0.15072 0.45664 0.0
C707 C 0.82073 0.11785 0.45168 0.0
C708 C 0.81217 0.09207 0.42601 0.0
C709 C 0.83919 0.05916 0.42612 0.0
C710 C 0.81601 0.02442 0.43369 0.0
C711 C 0.86375 0.05425 0.39186 0.0
C712 C 0.86437 0.07053 0.45577 0.0
C713 C 0.85303 0.10454 0.47005 0.0
C714 C 0.87213 0.12144 0.49715 0.0
C715 C 0.90377 0.10352 0.50981 0.0
C716 C 0.91648 0.06869 0.49569 0.0
C717 C 0.89603 0.0519 0.46838 0.0
H718 H 0.28203 0.60335 0.1478 0.0
H719 H 0.35077 0.55387 0.06028 0.0
H720 H 0.29105 0.54041 0.03036 0.0
H721 H 0.20279 0.53786 0.14395 0.0
H722 H 0.16547 0.57123 0.15628 0.0
H723 H 0.21365 0.57768 0.17098 0.0
H724 H 0.21711 0.64098 0.14484 0.0
H725 H 0.16906 0.63457 0.12979 0.0
H726 H 0.20912 0.6444 0.09983 0.0
H727 H 0.22599 0.53408 1.00909 0.0
H728 H 0.15686 0.5287 0.99895 0.0
H729 H 0.12726 0.57956 0.10085 0.0
C730 C 0.28427 0.58954 0.12241 0.0
C731 C 0.32088 0.57938 0.10633 0.0
C732 C 0.32294 0.56135 0.07316 0.0
C733 C 0.28926 0.55389 0.05588 0.0
C734 C 0.25369 0.56438 0.07223 0.0
C735 C 0.2507 0.58133 0.10489 0.0
C736 C 0.20842 0.58843 0.11672 0.0
C737 C 0.19691 0.56755 0.14889 0.0
C738 C 0.20047 0.62954 0.12317 0.0
C739 C 0.18831 0.5729 0.08548 0.0
C740 C 0.21527 0.55962 0.06012 0.0
C741 C 0.2045 0.54413 0.02878 0.0
C742 C 0.165 0.54127 1.02332 0.0
C743 C 0.13644 0.5535 0.04919 0.0
C744 C 0.14834 0.57001 0.08058 0.0
H745 H 0.22072 0.48982 0.59674 0.0
H746 H 0.18621 0.49163 0.49171 0.0
H747 H 0.25468 0.50233 0.47154 0.0
H748 H 0.29468 0.55902 0.59196 0.0
H749 H 0.32686 0.53588 0.61828 0.0
H750 H 0.27513 0.52964 0.62425 0.0
H751 H 0.28431 0.45961 0.61478 0.0
H752 H 0.33606 0.46563 0.60867 0.0
H753 H 0.30996 0.4411 0.57594 0.0
H754 H 0.32649 0.51436 0.46345 0.0
H755 H 0.39719 0.52309 0.46719 0.0
H756 H 0.38493 0.50966 0.5773 0.0
C757 C 0.22765 0.49285 0.56955 0.0
C758 C 0.19845 0.49043 0.5457 0.0
C759 C 0.2084 0.49363 0.51024 0.0
C760 C 0.24706 0.49973 0.49865 0.0
C761 C 0.27526 0.50199 0.52286 0.0
C762 C 0.26607 0.49832 0.55753 0.0
C763 C 0.30192 0.5005 0.57809 0.0
C764 C 0.29949 0.53321 0.60471 0.0
C765 C 0.30844 0.46457 0.59538 0.0
C766 C 0.33276 0.50624 0.54962 0.0
C767 C 0.31675 0.50732 0.518 0.0
C768 C 0.33938 0.51333 0.48802 0.0
C769 C 0.37944 0.51833 0.49042 0.0
C770 C 0.39646 0.51683 0.5225 0.0
C771 C 0.37274 0.51056 0.55239 0.0
H772 H 0.89594 0.77859 0.96061 0.0
H773 H 0.9455 0.76661 0.85557 0.0
H774 H 0.9795 0.71042 0.86966 0.0
H775 H 0.98018 0.74743 1.00193 0.0
H776 H 0.95213 0.72381 0.03427 0.0
H777 H 0.93192 0.76299 1.01596 0.0
H778 H 0.87256 0.72461 0.99827 0.0
H779 H 0.89252 0.68536 1.01661 0.0
H780 H 0.88018 0.68269 0.97223 0.0
H781 H 1.00758 0.6542 0.89552 0.0
H782 H 0.02683 0.60362 0.92995 0.0
H783 H 0.95984 0.65203 1.01897 0.0
C784 C 0.91402 0.76416 0.94055 0.0
C785 C 0.91796 0.77726 0.90687 0.0
C786 C 0.9419 0.75741 0.88148 0.0
C787 C 0.96138 0.72536 0.88932 0.0
C788 C 0.95687 0.71328 0.92277 0.0
C789 C 0.93373 0.73214 0.94799 0.0
C790 C 0.93348 0.71328 0.98188 0.0
C791 C 0.95044 0.73838 1.01018 0.0
C792 C 0.89224 0.70075 0.99289 0.0
C793 C 0.96005 0.68077 0.97191 0.0
C794 C 0.9732 0.68129 0.93766 0.0
C795 C 0.99748 0.65377 0.92235 0.0
C796 C 1.00834 0.62501 0.94226 0.0
C797 C 0.99523 0.62357 0.97746 0.0
C798 C 0.97086 0.65224 0.99235 0.0
H799 H 0.38576 0.68919 0.09741 0.0
H800 H 0.44393 0.67185 0.19068 0.0
H801 H 0.46793 0.73561 0.19154 0.0
H802 H 0.45966 0.73853 0.05819 0.0
H803 H 0.42841 0.76919 0.03813 0.0
H804 H 0.41158 0.72426 0.04757 0.0
H805 H 0.35174 0.7521 0.08322 0.0
H806 H 0.36818 0.79722 0.07359 0.0
H807 H 0.35884 0.7859 0.11774 0.0
H808 H 0.48944 0.79983 0.17926 0.0
H809 H 0.50675 0.8589 0.15511 0.0
H810 H 0.43662 0.83163 0.06838 0.0
C811 C 0.40246 0.69918 0.11866 0.0
C812 C 0.41252 0.67596 0.1443 0.0
C813 C 0.43571 0.68949 0.17097 0.0
C814 C 0.44935 0.72558 0.17168 0.0
C815 C 0.43958 0.74756 0.14547 0.0
C816 C 0.41652 0.73485 0.11955 0.0
C817 C 0.41277 0.76267 0.09283 0.0
C818 C 0.42909 0.74776 0.05708 0.0
C819 C 0.37036 0.77522 0.09181 0.0
C820 C 0.43791 0.79282 0.10736 0.0
C821 C 0.45279 0.78387 0.13791 0.0
C822 C 0.47778 0.80719 0.15544 0.0
C823 C 0.48774 0.84052 0.14133 0.0
C824 C 0.47306 0.85003 0.10982 0.0
C825 C 0.44777 0.82568 0.09283 0.0
H826 H 0.0697 0.39499 0.60335 0.0
H827 H 0.09856 0.40845 0.49482 0.0
H828 H 0.08242 0.34369 0.48175 0.0
H829 H 0.11134 0.31165 0.60724 0.0
H830 H 0.07519 0.29295 0.63663 0.0
H831 H 0.08254 0.34148 0.63711 0.0
H832 H 1.00988 0.35151 0.62712 0.0
H833 H 1.00202 0.30294 0.6272 0.0
H834 H 0.98859 0.32771 0.59111 0.0
H835 H 0.07315 0.27639 0.48175 0.0
H836 H 0.06663 0.21133 0.49416 0.0
H837 H 0.04164 0.24183 0.60246 0.0
C838 C 0.07108 0.38478 0.57665 0.0
C839 C 0.0851 0.4068 0.55002 0.0
C840 C 0.0879 0.392 0.51557 0.0
C841 C 0.07865 0.35533 0.50791 0.0
C842 C 0.06628 0.33404 0.53496 0.0
C843 C 0.06186 0.34833 0.56858 0.0
C844 C 0.05127 0.31897 0.59327 0.0
C845 C 0.08192 0.31611 0.62012 0.0
C846 C 1.01051 0.32569 0.6107 0.0
C847 C 0.0519 0.28569 0.56843 0.0
C848 C 0.06036 0.29505 0.5349 0.0
C849 C 0.06573 0.26879 0.50776 0.0
C850 C 0.06233 0.23199 0.51508 0.0
C851 C 0.05359 0.22188 0.54921 0.0
C852 C 0.0478 0.24906 0.57612 0.0
H853 H 0.61336 0.26007 0.43264 0.0
H854 H 0.59246 0.28385 0.32739 0.0
H855 H 0.565 0.34363 0.34847 0.0
H856 H 0.52718 0.30542 0.47383 0.0
H857 H 0.55162 0.32283 0.51096 0.0
H858 H 0.56799 0.28101 0.48808 0.0
H859 H 0.63707 0.30785 0.47964 0.0
H860 H 0.62095 0.34973 0.50251 0.0
H861 H 0.64361 0.35067 0.45962 0.0
H862 H 0.5424 0.40276 0.38057 0.0
H863 H 0.52565 0.45556 0.42036 0.0
H864 H 0.5613 0.39581 0.50611 0.0
C865 C 0.60322 0.27772 0.41377 0.0
C866 C 0.60545 0.26639 0.37789 0.0
C867 C 0.59088 0.29084 0.35482 0.0
C868 C 0.57537 0.32526 0.36663 0.0
C869 C 0.57423 0.33551 0.40186 0.0
C870 C 0.58766 0.31239 0.42516 0.0
C871 C 0.5837 0.33049 0.46166 0.0
C872 C 0.55597 0.30863 0.48501 0.0
C873 C 0.62371 0.33494 0.47674 0.0
C874 C 0.56624 0.36756 0.45526 0.0
C875 C 0.56104 0.36966 0.42048 0.0
C876 C 0.54626 0.40118 0.40781 0.0
C877 C 0.53681 0.43128 0.43087 0.0
C878 C 0.54183 0.43044 0.4668 0.0
C879 C 0.55659 0.39765 0.47905 0.0
loop_
_geom_bond_atom_site_label_1
_geom_bond_atom_site_label_2
_geom_bond_distance
_geom_bond_site_symmetry_2
_ccdc_geom_bond_type
H0 C5 0.930 . S
H1 C8 0.930 . S
H2 C10 0.930 . S
H3 C4 1.016 . S
C4 H3 1.016 . S
C4 N11 1.286 . S
C5 H0 0.930 . S
C5 C6 1.397 . S
C5 C7 1.361 . S
C6 C5 1.397 . S
C6 C10 1.390 . S
C7 C5 1.361 . S
C7 C8 1.393 . S
C7 N11 1.413 . S
C8 H1 0.930 . S
C8 C7 1.393 . S
C8 C9 1.399 . S
C9 C8 1.399 . S
C9 C10 1.381 . S
C10 H2 0.930 . S
C10 C6 1.390 . S
C10 C9 1.381 . S
N11 C4 1.286 . S
N11 C7 1.413 . S
H12 C17 0.930 . S
H13 C20 0.930 . S
H14 C22 0.930 . S
H15 C16 1.016 . S
C16 H15 1.016 . S
C16 N23 1.286 . S
C17 H12 0.930 . S
C17 C18 1.397 . S
C17 C19 1.361 . S
C18 C17 1.397 . S
C18 C22 1.390 . S
C19 C17 1.361 . S
C19 C20 1.393 . S
C19 N23 1.413 . S
C20 H13 0.930 . S
C20 C19 1.393 . S
C20 C21 1.399 . S
C21 C20 1.399 . S
C21 C22 1.381 . S
C22 H14 0.930 . S
C22 C18 1.390 . S
C22 C21 1.381 . S
N23 C16 1.286 . S
N23 C19 1.413 . S
H24 C29 0.930 . S
H25 C32 0.930 . S
H26 C34 0.930 . S
H27 C28 1.016 . S
C28 H27 1.016 . S
C28 N35 1.286 . S
C29 H24 0.930 . S
C29 C30 1.397 . S
C29 C31 1.361 . S
C30 C29 1.397 . S
C30 C34 1.390 . S
C31 C29 1.361 . S
C31 C32 1.393 . S
C31 N35 1.413 . S
C32 H25 0.930 . S
C32 C31 1.393 . S
C32 C33 1.399 . S
C33 C32 1.399 . S
C33 C34 1.381 . S
C34 H26 0.930 . S
C34 C30 1.390 . S
C34 C33 1.381 . S
N35 C28 1.286 . S
N35 C31 1.413 . S
H36 C41 0.930 . S
H37 C44 0.930 . S
H38 C46 0.930 . S
H39 C40 1.016 . S
C40 H39 1.016 . S
C40 N47 1.286 . S
C41 H36 0.930 . S
C41 C42 1.397 . S
C41 C43 1.361 . S
C42 C41 1.397 . S
C42 C46 1.390 . S
C43 C41 1.361 . S
C43 C44 1.393 . S
C43 N47 1.413 . S
C44 H37 0.930 . S
C44 C43 1.393 . S
C44 C45 1.399 . S
C45 C44 1.399 . S
C45 C46 1.381 . S
C46 H38 0.930 . S
C46 C42 1.390 . S
C46 C45 1.381 . S
N47 C40 1.286 . S
N47 C43 1.413 . S
H48 C53 0.930 . S
H49 C56 0.930 . S
H50 C58 0.930 . S
H51 C52 1.016 . S
C52 H51 1.016 . S
C52 N59 1.286 . S
C53 H48 0.930 . S
C53 C54 1.397 . S
C53 C55 1.361 . S
C54 C53 1.397 . S
C54 C58 1.390 . S
C55 C53 1.361 . S
C55 C56 1.393 . S
C55 N59 1.413 . S
C56 H49 0.930 . S
C56 C55 1.393 . S
C56 C57 1.399 . S
C57 C56 1.399 . S
C57 C58 1.381 . S
C58 H50 0.930 . S
C58 C54 1.390 . S
C58 C57 1.381 . S
N59 C52 1.286 . S
N59 C55 1.413 . S
H60 C65 0.930 . S
H61 C68 0.930 . S
H62 C70 0.930 . S
H63 C64 1.016 . S
C64 H63 1.016 . S
C64 N71 1.286 . S
C65 H60 0.930 . S
C65 C66 1.397 . S
C65 C67 1.361 . S
C66 C65 1.397 . S
C66 C70 1.390 . S
C67 C65 1.361 . S
C67 C68 1.393 . S
C67 N71 1.413 . S
C68 H61 0.930 . S
C68 C67 1.393 . S
C68 C69 1.399 . S
C69 C68 1.399 . S
C69 C70 1.381 . S
C70 H62 0.930 . S
C70 C66 1.390 . S
C70 C69 1.381 . S
N71 C64 1.286 . S
N71 C67 1.413 . S
H72 C77 0.930 . S
H73 C80 0.930 . S
H74 C82 0.930 . S
H75 C76 1.016 . S
C76 H75 1.016 . S
C76 N83 1.286 . S
C77 H72 0.930 . S
C77 C78 1.397 . S
C77 C79 1.361 . S
C78 C77 1.397 . S
C78 C82 1.390 . S
C79 C77 1.361 . S
C79 C80 1.393 . S
C79 N83 1.413 . S
C80 H73 0.930 . S
C80 C79 1.393 . S
C80 C81 1.399 . S
C81 C80 1.399 . S
C81 C82 1.381 . S
C82 H74 0.930 . S
C82 C78 1.390 . S
C82 C81 1.381 . S
N83 C76 1.286 . S
N83 C79 1.413 . S
H84 C89 0.930 . S
H85 C92 0.930 . S
H86 C94 0.930 . S
H87 C88 1.016 . S
C88 H87 1.016 . S
C88 N95 1.286 . S
C89 H84 0.930 . S
C89 C90 1.397 . S
C89 C91 1.361 . S
C90 C89 1.397 . S
C90 C94 1.390 . S
C91 C89 1.361 . S
C91 C92 1.393 . S
C91 N95 1.413 . S
C92 H85 0.930 . S
C92 C91 1.393 . S
C92 C93 1.399 . S
C93 C92 1.399 . S
C93 C94 1.381 . S
C94 H86 0.930 . S
C94 C90 1.390 . S
C94 C93 1.381 . S
N95 C88 1.286 . S
N95 C91 1.413 . S
C96 O112 1.251 . S
C96 O114 1.254 1_545 S
N97 C98 1.333 . S
N97 C102 1.307 . S
N97 Zn103 2.020 . S
C98 N97 1.333 . S
C98 C99 1.379 . S
C98 H116 0.952 . S
C99 C98 1.379 . S
C99 C100 1.390 . S
C99 H126 0.949 . S
C100 C99 1.390 . S
C100 C101 1.357 . S
C101 C100 1.357 . S
C101 C102 1.370 . S
C101 H127 0.950 . S
C102 N97 1.307 . S
C102 C101 1.370 . S
C102 H120 0.948 1_455 S
Zn103 N97 2.020 . S
Zn103 O112 2.039 . S
Zn103 O118 2.034 . S
Zn103 O122 2.025 1_455 S
Zn103 O124 2.024 1_455 S
C104 O123 1.246 1_545 S
C104 O124 1.249 . S
N105 C106 1.307 . S
N105 C107 1.333 . S
N105 Zn111 2.020 . S
C106 N105 1.307 . S
C106 C110 1.370 . S
C106 H117 0.948 1_655 S
C107 N105 1.333 . S
C107 C108 1.379 . S
C107 H115 0.952 . S
C108 C107 1.379 . S
C108 C109 1.390 . S
C108 H128 0.949 . S
C109 C108 1.390 . S
C109 C110 1.357 . S
C110 C106 1.370 . S
C110 C109 1.357 . S
C110 H129 0.950 . S
Zn111 N105 2.020 . S
Zn111 O114 2.025 1_655 S
Zn111 O119 2.024 1_655 S
Zn111 O121 2.039 . S
Zn111 O123 2.034 . S
O112 C96 1.251 . S
O112 Zn103 2.039 . S
C113 O118 1.246 1_565 S
C113 O119 1.249 . S
O114 C96 1.254 1_565 S
O114 Zn111 2.025 1_455 S
H115 C107 0.952 . S
H116 C98 0.952 . S
H117 C106 0.948 1_455 S
O118 Zn103 2.034 . S
O118 C113 1.246 1_545 S
O119 Zn111 2.024 1_455 S
O119 C113 1.249 . S
H120 C102 0.948 1_655 S
O121 Zn111 2.039 . S
O121 C125 1.251 . S
O122 Zn103 2.025 1_655 S
O122 C125 1.254 1_545 S
O123 C104 1.246 1_565 S
O123 Zn111 2.034 . S
O124 Zn103 2.024 1_655 S
O124 C104 1.249 . S
C125 O121 1.251 . S
C125 O122 1.254 1_565 S
H126 C99 0.949 . S
H127 C101 0.950 . S
H128 C108 0.949 . S
H129 C110 0.950 . S
C130 O146 1.251 1_565 S
C130 O148 1.254 1_556 S
N131 C132 1.333 . S
N131 C136 1.307 . S
N131 Zn137 2.020 . S
C132 N131 1.333 . S
C132 C133 1.379 . S
C132 H150 0.952 . S
C133 C132 1.379 . S
C133 C134 1.390 . S
C133 H160 0.949 . S
C134 C133 1.390 . S
C134 C135 1.357 . S
C135 C134 1.357 . S
C135 C136 1.370 . S
C135 H161 0.950 . S
C136 N131 1.307 . S
C136 C135 1.370 . S
C136 H154 0.948 . S
Zn137 N131 2.020 . S
Zn137 O146 2.039 . S
Zn137 O152 2.034 1_556 S
Zn137 O156 2.025 1_556 S
Zn137 O158 2.024 . S
C138 O157 1.246 . S
C138 O158 1.249 1_565 S
N139 C140 1.307 . S
N139 C141 1.333 . S
N139 Zn145 2.020 . S
C140 N139 1.307 . S
C140 C144 1.370 . S
C140 H151 0.948 . S
C141 N139 1.333 . S
C141 C142 1.379 . S
C141 H149 0.952 . S
C142 C141 1.379 . S
C142 C143 1.390 . S
C142 H162 0.949 . S
C143 C142 1.390 . S
C143 C144 1.357 . S
C144 C140 1.370 . S
C144 C143 1.357 . S
C144 H163 0.950 . S
Zn145 N139 2.020 . S
Zn145 O148 2.025 . S
Zn145 O153 2.024 . S
Zn145 O155 2.039 1_565 S
Zn145 O157 2.034 1_554 S
O146 C130 1.251 1_545 S
O146 Zn137 2.039 . S
C147 O152 1.246 . S
C147 O153 1.249 1_545 S
O148 C130 1.254 1_554 S
O148 Zn145 2.025 . S
H149 C141 0.952 . S
H150 C132 0.952 . S
H151 C140 0.948 . S
O152 Zn137 2.034 1_554 S
O152 C147 1.246 . S
O153 Zn145 2.024 . S
O153 C147 1.249 1_565 S
H154 C136 0.948 . S
O155 Zn145 2.039 1_545 S
O155 C159 1.251 . S
O156 Zn137 2.025 1_554 S
O156 C159 1.254 . S
O157 C138 1.246 . S
O157 Zn145 2.034 1_556 S
O158 Zn137 2.024 . S
O158 C138 1.249 1_545 S
C159 O155 1.251 . S
C159 O156 1.254 . S
H160 C133 0.949 . S
H161 C135 0.950 . S
H162 C142 0.949 . S
H163 C144 0.950 . S
C164 O180 1.251 . S
C164 O182 1.254 . S
N165 C166 1.333 . S
N165 C170 1.307 . S
N165 Zn171 2.020 . S
C166 N165 1.333 . S
C166 C167 1.379 . S
C166 H184 0.952 . S
C167 C166 1.379 . S
C167 C168 1.390 . S
C167 H194 0.949 . S
C168 C167 1.390 . S
C168 C169 1.357 . S
C169 C168 1.357 . S
C169 C170 1.370 . S
C169 H195 0.950 . S
C170 N165 1.307 . S
C170 C169 1.370 . S
C170 H188 0.948 . S
Zn171 N165 2.020 . S
Zn171 O180 2.039 . S
Zn171 O186 2.034 . S
Zn171 O190 2.025 . S
Zn171 O192 2.024 . S
C172 O191 1.246 . S
C172 O192 1.249 . S
N173 C174 1.307 . S
N173 C175 1.333 . S
N173 Zn179 2.020 . S
C174 N173 1.307 . S
C174 C178 1.370 . S
C174 H185 0.948 . S
C175 N173 1.333 . S
C175 C176 1.379 . S
C175 H183 0.952 . S
C176 C175 1.379 . S
C176 C177 1.390 . S
C176 H196 0.949 . S
C177 C176 1.390 . S
C177 C178 1.357 . S
C178 C174 1.370 . S
C178 C177 1.357 . S
C178 H197 0.950 . S
Zn179 N173 2.020 . S
Zn179 O182 2.025 . S
Zn179 O187 2.024 . S
Zn179 O189 2.039 . S
Zn179 O191 2.034 . S
O180 C164 1.251 . S
O180 Zn171 2.039 . S
C181 O186 1.246 . S
C181 O187 1.249 . S
O182 C164 1.254 . S
O182 Zn179 2.025 . S
H183 C175 0.952 . S
H184 C166 0.952 . S
H185 C174 0.948 . S
O186 Zn171 2.034 . S
O186 C181 1.246 . S
O187 Zn179 2.024 . S
O187 C181 1.249 . S
H188 C170 0.948 . S
O189 Zn179 2.039 . S
O189 C193 1.251 . S
O190 Zn171 2.025 . S
O190 C193 1.254 . S
O191 C172 1.246 . S
O191 Zn179 2.034 . S
O192 Zn171 2.024 . S
O192 C172 1.249 . S
C193 O189 1.251 . S
C193 O190 1.254 . S
H194 C167 0.949 . S
H195 C169 0.950 . S
H196 C176 0.949 . S
H197 C178 0.950 . S
C198 O214 1.251 1_556 S
C198 O216 1.254 1_655 S
N199 C200 1.333 . S
N199 C204 1.307 . S
N199 Zn205 2.020 . S
C200 N199 1.333 . S
C200 C201 1.379 . S
C200 H218 0.952 . S
C201 C200 1.379 . S
C201 C202 1.390 . S
C201 H228 0.949 . S
C202 C201 1.390 . S
C202 C203 1.357 . S
C203 C202 1.357 . S
C203 C204 1.370 . S
C203 H229 0.950 . S
C204 N199 1.307 . S
C204 C203 1.370 . S
C204 H222 0.948 . S
Zn205 N199 2.020 . S
Zn205 O214 2.039 . S
Zn205 O220 2.034 1_655 S
Zn205 O224 2.025 1_655 S
Zn205 O226 2.024 . S
C206 O225 1.246 . S
C206 O226 1.249 1_556 S
N207 C208 1.307 . S
N207 C209 1.333 . S
N207 Zn213 2.020 . S
C208 N207 1.307 . S
C208 C212 1.370 . S
C208 H219 0.948 . S
C209 N207 1.333 . S
C209 C210 1.379 . S
C209 H217 0.952 . S
C210 C209 1.379 . S
C210 C211 1.390 . S
C210 H230 0.949 . S
C211 C210 1.390 . S
C211 C212 1.357 . S
C212 C208 1.370 . S
C212 C211 1.357 . S
C212 H231 0.950 . S
Zn213 N207 2.020 . S
Zn213 O216 2.025 . S
Zn213 O221 2.024 . S
Zn213 O223 2.039 . S
Zn213 O225 2.034 1_455 S
O214 C198 1.251 1_554 S
O214 Zn205 2.039 . S
C215 O220 1.246 . S
C215 O221 1.249 1_554 S
O216 C198 1.254 1_455 S
O216 Zn213 2.025 . S
H217 C209 0.952 . S
H218 C200 0.952 . S
H219 C208 0.948 . S
O220 Zn205 2.034 1_455 S
O220 C215 1.246 . S
O221 Zn213 2.024 . S
O221 C215 1.249 1_556 S
H222 C204 0.948 . S
O223 Zn213 2.039 . S
O223 C227 1.251 1_556 S
O224 Zn205 2.025 1_455 S
O224 C227 1.254 . S
O225 C206 1.246 . S
O225 Zn213 2.034 1_655 S
O226 Zn205 2.024 . S
O226 C206 1.249 1_554 S
C227 O223 1.251 1_554 S
C227 O224 1.254 . S
H228 C201 0.949 . S
H229 C203 0.950 . S
H230 C210 0.949 . S
H231 C212 0.950 . S
H232 C244 0.930 . S
H233 C246 0.930 . S
H234 C247 0.930 . S
H235 C251 0.959 . S
H236 C251 0.959 . S
H237 C251 0.961 . S
H238 C252 0.960 . S
H239 C252 0.961 . S
H240 C252 0.959 . S
H241 C255 0.929 1_565 S
H242 C256 0.931 1_565 S
H243 C258 0.930 . S
C244 H232 0.930 . S
C244 C245 1.399 . S
C244 C249 1.399 . S
C245 C244 1.399 . S
C245 C246 1.376 . S
C246 H233 0.930 . S
C246 C245 1.376 . S
C246 C247 1.388 . S
C247 H234 0.930 . S
C247 C246 1.388 . S
C247 C248 1.390 . S
C248 C247 1.390 . S
C248 C249 1.394 . S
C248 C254 1.465 . S
C249 C244 1.399 . S
C249 C248 1.394 . S
C249 C250 1.516 . S
C250 C249 1.516 . S
C250 C251 1.502 . S
C250 C252 1.561 . S
C250 C253 1.526 . S
C251 H235 0.959 . S
C251 H236 0.959 . S
C251 H237 0.961 . S
C251 C250 1.502 . S
C252 H238 0.960 . S
C252 H239 0.961 . S
C252 H240 0.959 . S
C252 C250 1.561 . S
C253 C250 1.526 . S
C253 C254 1.396 . S
C253 C258 1.390 . S
C254 C248 1.465 . S
C254 C253 1.396 . S
C254 C255 1.399 . S
C255 H241 0.929 1_545 S
C255 C254 1.399 . S
C255 C256 1.385 . S
C256 H242 0.931 1_545 S
C256 C255 1.385 . S
C256 C257 1.389 . S
C257 C256 1.389 . S
C257 C258 1.387 . S
C258 H243 0.930 . S
C258 C253 1.390 . S
C258 C257 1.387 . S
H259 C271 0.930 . S
H260 C273 0.930 . S
H261 C274 0.930 . S
H262 C278 0.959 . S
H263 C278 0.959 . S
H264 C278 0.961 . S
H265 C279 0.960 . S
H266 C279 0.961 . S
H267 C279 0.959 . S
H268 C282 0.952 . S
H269 C283 0.931 . S
H270 C285 0.930 . S
C271 H259 0.930 . S
C271 C272 1.399 . S
C271 C276 1.399 . S
C272 C271 1.399 . S
C272 C273 1.376 . S
C273 H260 0.930 . S
C273 C272 1.376 . S
C273 C274 1.388 . S
C274 H261 0.930 . S
C274 C273 1.388 . S
C274 C275 1.390 . S
C275 C274 1.390 . S
C275 C276 1.394 . S
C275 C281 1.465 . S
C276 C271 1.399 . S
C276 C275 1.394 . S
C276 C277 1.516 . S
C277 C276 1.516 . S
C277 C278 1.502 . S
C277 C279 1.561 . S
C277 C280 1.526 . S
C278 H262 0.959 . S
C278 H263 0.959 . S
C278 H264 0.961 . S
C278 C277 1.502 . S
C279 H265 0.960 . S
C279 H266 0.961 . S
C279 H267 0.959 . S
C279 C277 1.561 . S
C280 C277 1.526 . S
C280 C281 1.396 . S
C280 C285 1.390 . S
C281 C275 1.465 . S
C281 C280 1.396 . S
C281 C282 1.374 1_565 S
C282 H268 0.952 . S
C282 C281 1.374 1_545 S
C282 C283 1.388 . S
C283 H269 0.931 . S
C283 C282 1.388 . S
C283 C284 1.389 1_545 S
C284 C283 1.389 1_565 S
C284 C285 1.387 . S
C285 H270 0.930 . S
C285 C280 1.390 . S
C285 C284 1.387 . S
H286 C298 0.930 . S
H287 C300 0.930 . S
H288 C301 0.930 . S
H289 C305 0.959 . S
H290 C305 0.959 . S
H291 C305 0.961 . S
H292 C306 0.960 . S
H293 C306 0.961 . S
H294 C306 0.959 . S
H295 C309 0.929 . S
H296 C310 0.931 . S
H297 C312 0.930 . S
C298 H286 0.930 . S
C298 C299 1.399 . S
C298 C303 1.399 . S
C299 C298 1.399 . S
C299 C300 1.376 . S
C300 H287 0.930 . S
C300 C299 1.376 . S
C300 C301 1.388 . S
C301 H288 0.930 . S
C301 C300 1.388 . S
C301 C302 1.390 . S
C302 C301 1.390 . S
C302 C303 1.394 . S
C302 C308 1.465 . S
C303 C298 1.399 . S
C303 C302 1.394 . S
C303 C304 1.516 . S
C304 C303 1.516 . S
C304 C305 1.502 . S
C304 C306 1.561 . S
C304 C307 1.526 . S
C305 H289 0.959 . S
C305 H290 0.959 . S
C305 H291 0.961 . S
C305 C304 1.502 . S
C306 H292 0.960 . S
C306 H293 0.961 . S
C306 H294 0.959 . S
C306 C304 1.561 . S
C307 C304 1.526 . S
C307 C308 1.396 . S
C307 C312 1.390 . S
C308 C302 1.465 . S
C308 C307 1.396 . S
C308 C309 1.399 . S
C309 H295 0.929 . S
C309 C308 1.399 . S
C309 C310 1.385 . S
C310 H296 0.931 . S
C310 C309 1.385 . S
C310 C311 1.389 . S
C311 C310 1.389 . S
C311 C312 1.387 . S
C312 H297 0.930 . S
C312 C307 1.390 . S
C312 C311 1.387 . S
H313 C325 0.930 . S
H314 C327 0.930 . S
H315 C328 0.930 . S
H316 C332 0.959 . S
H317 C332 0.959 . S
H318 C332 0.961 . S
H319 C333 0.960 . S
H320 C333 0.961 . S
H321 C333 0.959 . S
H322 C336 0.929 . S
H323 C337 0.931 . S
H324 C339 0.930 . S
C325 H313 0.930 . S
C325 C326 1.399 . S
C325 C330 1.399 . S
C326 C325 1.399 . S
C326 C327 1.376 . S
C327 H314 0.930 . S
C327 C326 1.376 . S
C327 C328 1.388 . S
C328 H315 0.930 . S
C328 C327 1.388 . S
C328 C329 1.390 . S
C329 C328 1.390 . S
C329 C330 1.394 . S
C329 C335 1.465 . S
C330 C325 1.399 . S
C330 C329 1.394 . S
C330 C331 1.516 . S
C331 C330 1.516 . S
C331 C332 1.502 . S
C331 C333 1.561 . S
C331 C334 1.526 . S
C332 H316 0.959 . S
C332 H317 0.959 . S
C332 H318 0.961 . S
C332 C331 1.502 . S
C333 H319 0.960 . S
C333 H320 0.961 . S
C333 H321 0.959 . S
C333 C331 1.561 . S
C334 C331 1.526 . S
C334 C335 1.396 . S
C334 C339 1.390 . S
C335 C329 1.465 . S
C335 C334 1.396 . S
C335 C336 1.399 . S
C336 H322 0.929 . S
C336 C335 1.399 . S
C336 C337 1.385 . S
C337 H323 0.931 . S
C337 C336 1.385 . S
C337 C338 1.389 . S
C338 C337 1.389 . S
C338 C339 1.387 . S
C339 H324 0.930 . S
C339 C334 1.390 . S
C339 C338 1.387 . S
H340 C352 0.930 . S
H341 C354 0.930 . S
H342 C355 0.930 . S
H343 C359 0.959 1_545 S
H344 C359 0.959 . S
H345 C359 0.961 . S
H346 C360 0.960 . S
H347 C360 0.961 . S
H348 C360 0.959 . S
H349 C363 0.929 . S
H350 C364 0.931 . S
H351 C366 0.930 . S
C352 H340 0.930 . S
C352 C353 1.399 . S
C352 C357 1.399 . S
C353 C352 1.399 . S
C353 C354 1.376 . S
C354 H341 0.930 . S
C354 C353 1.376 . S
C354 C355 1.388 . S
C355 H342 0.930 . S
C355 C354 1.388 . S
C355 C356 1.390 . S
C356 C355 1.390 . S
C356 C357 1.394 . S
C356 C362 1.465 . S
C357 C352 1.399 . S
C357 C356 1.394 . S
C357 C358 1.516 . S
C358 C357 1.516 . S
C358 C359 1.502 1_545 S
C358 C360 1.561 . S
C358 C361 1.526 . S
C359 H343 0.959 1_565 S
C359 H344 0.959 . S
C359 H345 0.961 . S
C359 C358 1.502 1_565 S
C360 H346 0.960 . S
C360 H347 0.961 . S
C360 H348 0.959 . S
C360 C358 1.561 . S
C361 C358 1.526 . S
C361 C362 1.396 . S
C361 C366 1.390 . S
C362 C356 1.465 . S
C362 C361 1.396 . S
C362 C363 1.399 . S
C363 H349 0.929 . S
C363 C362 1.399 . S
C363 C364 1.385 . S
C364 H350 0.931 . S
C364 C363 1.385 . S
C364 C365 1.389 . S
C365 C364 1.389 . S
C365 C366 1.387 . S
C366 H351 0.930 . S
C366 C361 1.390 . S
C366 C365 1.387 . S
H367 C379 0.930 . S
H368 C381 0.930 . S
H369 C382 0.930 . S
H370 C386 0.959 . S
H371 C386 0.959 . S
H372 C386 0.961 . S
H373 C387 0.960 . S
H374 C387 0.961 . S
H375 C387 0.959 . S
H376 C390 0.929 1_545 S
H377 C391 0.931 1_545 S
H378 C393 0.930 . S
C379 H367 0.930 . S
C379 C380 1.399 . S
C379 C384 1.399 . S
C380 C379 1.399 . S
C380 C381 1.376 . S
C381 H368 0.930 . S
C381 C380 1.376 . S
C381 C382 1.388 . S
C382 H369 0.930 . S
C382 C381 1.388 . S
C382 C383 1.390 . S
C383 C382 1.390 . S
C383 C384 1.394 . S
C383 C389 1.465 . S
C384 C379 1.399 . S
C384 C383 1.394 . S
C384 C385 1.516 . S
C385 C384 1.516 . S
C385 C386 1.502 . S
C385 C387 1.561 . S
C385 C388 1.526 . S
C386 H370 0.959 . S
C386 H371 0.959 . S
C386 H372 0.961 . S
C386 C385 1.502 . S
C387 H373 0.960 . S
C387 H374 0.961 . S
C387 H375 0.959 . S
C387 C385 1.561 . S
C388 C385 1.526 . S
C388 C389 1.396 . S
C388 C393 1.390 . S
C389 C383 1.465 . S
C389 C388 1.396 . S
C389 C390 1.399 . S
C390 H376 0.929 1_565 S
C390 C389 1.399 . S
C390 C391 1.385 . S
C391 H377 0.931 1_565 S
C391 C390 1.385 . S
C391 C392 1.389 . S
C392 C391 1.389 . S
C392 C393 1.387 . S
C393 H378 0.930 . S
C393 C388 1.390 . S
C393 C392 1.387 . S
H394 C406 0.930 . S
H395 C408 0.930 . S
H396 C409 0.930 . S
H397 C413 0.959 . S
H398 C413 0.959 . S
H399 C413 0.961 . S
H400 C414 0.960 . S
H401 C414 0.961 . S
H402 C414 0.959 1_556 S
H403 C417 0.929 . S
H404 C418 0.931 . S
H405 C420 0.930 1_554 S
C406 H394 0.930 . S
C406 C407 1.399 . S
C406 C411 1.399 . S
C407 C406 1.399 . S
C407 C408 1.376 . S
C408 H395 0.930 . S
C408 C407 1.376 . S
C408 C409 1.388 . S
C409 H396 0.930 . S
C409 C408 1.388 . S
C409 C410 1.390 . S
C410 C409 1.390 . S
C410 C411 1.394 . S
C410 C416 1.465 . S
C411 C406 1.399 . S
C411 C410 1.394 . S
C411 C412 1.520 . S
C412 C411 1.520 . S
C412 C413 1.498 1_556 S
C412 C414 1.560 1_556 S
C412 C415 1.528 . S
C413 H397 0.959 . S
C413 H398 0.959 . S
C413 H399 0.961 . S
C413 C412 1.498 1_554 S
C414 H400 0.960 . S
C414 H401 0.961 . S
C414 H402 0.959 1_554 S
C414 C412 1.560 1_554 S
C415 C412 1.528 . S
C415 C416 1.396 . S
C415 C420 1.390 . S
C416 C410 1.465 . S
C416 C415 1.396 . S
C416 C417 1.399 . S
C417 H403 0.929 . S
C417 C416 1.399 . S
C417 C418 1.385 . S
C418 H404 0.931 . S
C418 C417 1.385 . S
C418 C419 1.389 . S
C419 C418 1.389 . S
C419 C420 1.387 . S
C420 H405 0.930 1_556 S
C420 C415 1.390 . S
C420 C419 1.387 . S
H421 C433 0.930 . S
H422 C435 0.930 . S
H423 C436 0.930 . S
H424 C440 0.959 . S
H425 C440 0.959 . S
H426 C440 0.961 . S
H427 C441 0.960 . S
H428 C441 0.961 . S
H429 C441 0.959 . S
H430 C444 0.929 . S
H431 C445 0.931 . S
H432 C447 0.930 . S
C433 H421 0.930 . S
C433 C434 1.399 . S
C433 C438 1.399 . S
C434 C433 1.399 . S
C434 C435 1.376 . S
C435 H422 0.930 . S
C435 C434 1.376 . S
C435 C436 1.388 . S
C436 H423 0.930 . S
C436 C435 1.388 . S
C436 C437 1.390 . S
C437 C436 1.390 . S
C437 C438 1.394 . S
C437 C443 1.465 . S
C438 C433 1.399 . S
C438 C437 1.394 . S
C438 C439 1.516 . S
C439 C438 1.516 . S
C439 C440 1.502 . S
C439 C441 1.561 . S
C439 C442 1.526 . S
C440 H424 0.959 . S
C440 H425 0.959 . S
C440 H426 0.961 . S
C440 C439 1.502 . S
C441 H427 0.960 . S
C441 H428 0.961 . S
C441 H429 0.959 . S
C441 C439 1.561 . S
C442 C439 1.526 . S
C442 C443 1.396 . S
C442 C447 1.390 . S
C443 C437 1.465 . S
C443 C442 1.396 . S
C443 C444 1.399 . S
C444 H430 0.929 . S
C444 C443 1.399 . S
C444 C445 1.385 . S
C445 H431 0.931 . S
C445 C444 1.385 . S
C445 C446 1.389 . S
C446 C445 1.389 . S
C446 C447 1.387 . S
C447 H432 0.930 . S
C447 C442 1.390 . S
C447 C446 1.387 . S
H448 C460 0.930 . S
H449 C462 0.930 . S
H450 C463 0.930 . S
H451 C467 0.959 . S
H452 C467 0.959 1_556 S
H453 C467 0.961 1_556 S
H454 C468 0.960 . S
H455 C468 0.961 1_556 S
H456 C468 0.959 . S
H457 C471 0.929 . S
H458 C472 0.931 . S
H459 C474 0.930 . S
C460 H448 0.930 . S
C460 C461 1.399 . S
C460 C465 1.399 . S
C461 C460 1.399 . S
C461 C462 1.376 . S
C462 H449 0.930 . S
C462 C461 1.376 . S
C462 C463 1.388 . S
C463 H450 0.930 . S
C463 C462 1.388 . S
C463 C464 1.390 . S
C464 C463 1.390 . S
C464 C465 1.394 . S
C464 C470 1.465 . S
C465 C460 1.399 . S
C465 C464 1.394 . S
C465 C466 1.516 . S
C466 C465 1.516 . S
C466 C467 1.502 . S
C466 C468 1.561 . S
C466 C469 1.526 . S
C467 H451 0.959 . S
C467 H452 0.959 1_554 S
C467 H453 0.961 1_554 S
C467 C466 1.502 . S
C468 H454 0.960 . S
C468 H455 0.961 1_554 S
C468 H456 0.959 . S
C468 C466 1.561 . S
C469 C466 1.526 . S
C469 C470 1.396 . S
C469 C474 1.390 . S
C470 C464 1.465 . S
C470 C469 1.396 . S
C470 C471 1.399 . S
C471 H457 0.929 . S
C471 C470 1.399 . S
C471 C472 1.385 . S
C472 H458 0.931 . S
C472 C471 1.385 . S
C472 C473 1.389 . S
C473 C472 1.389 . S
C473 C474 1.387 . S
C474 H459 0.930 . S
C474 C469 1.390 . S
C474 C473 1.387 . S
H475 C487 0.930 . S
H476 C489 0.930 . S
H477 C490 0.930 1_554 S
H478 C494 0.959 . S
H479 C494 0.959 . S
H480 C494 0.961 . S
H481 C495 0.960 . S
H482 C495 0.961 . S
H483 C495 0.959 . S
H484 C498 0.929 1_554 S
H485 C499 0.931 1_554 S
H486 C501 0.930 . S
C487 H475 0.930 . S
C487 C488 1.399 . S
C487 C492 1.399 . S
C488 C487 1.399 . S
C488 C489 1.376 . S
C489 H476 0.930 . S
C489 C488 1.376 . S
C489 C490 1.388 . S
C490 H477 0.930 1_556 S
C490 C489 1.388 . S
C490 C491 1.390 . S
C491 C490 1.390 . S
C491 C492 1.394 . S
C491 C497 1.465 . S
C492 C487 1.399 . S
C492 C491 1.394 . S
C492 C493 1.516 . S
C493 C492 1.516 . S
C493 C494 1.502 . S
C493 C495 1.561 . S
C493 C496 1.526 . S
C494 H478 0.959 . S
C494 H479 0.959 . S
C494 H480 0.961 . S
C494 C493 1.502 . S
C495 H481 0.960 . S
C495 H482 0.961 . S
C495 H483 0.959 . S
C495 C493 1.561 . S
C496 C493 1.526 . S
C496 C497 1.396 . S
C496 C501 1.390 . S
C497 C491 1.465 . S
C497 C496 1.396 . S
C497 C498 1.399 . S
C498 H484 0.929 1_556 S
C498 C497 1.399 . S
C498 C499 1.385 . S
C499 H485 0.931 1_556 S
C499 C498 1.385 . S
C499 C500 1.389 . S
C500 C499 1.389 . S
C500 C501 1.387 . S
C501 H486 0.930 . S
C501 C496 1.390 . S
C501 C500 1.387 . S
H502 C514 0.930 . S
H503 C516 0.930 . S
H504 C517 0.930 . S
H505 C521 0.959 . S
H506 C521 0.959 . S
H507 C521 0.961 . S
H508 C522 0.960 . S
H509 C522 0.961 . S
H510 C522 0.959 . S
H511 C525 0.929 . S
H512 C526 0.931 . S
H513 C528 0.930 . S
C514 H502 0.930 . S
C514 C515 1.399 . S
C514 C519 1.399 . S
C515 C514 1.399 . S
C515 C516 1.376 . S
C516 H503 0.930 . S
C516 C515 1.376 . S
C516 C517 1.388 . S
C517 H504 0.930 . S
C517 C516 1.388 . S
C517 C518 1.390 . S
C518 C517 1.390 . S
C518 C519 1.394 . S
C518 C524 1.465 . S
C519 C514 1.399 . S
C519 C518 1.394 . S
C519 C520 1.516 . S
C520 C519 1.516 . S
C520 C521 1.502 . S
C520 C522 1.561 . S
C520 C523 1.526 . S
C521 H505 0.959 . S
C521 H506 0.959 . S
C521 H507 0.961 . S
C521 C520 1.502 . S
C522 H508 0.960 . S
C522 H509 0.961 . S
C522 H510 0.959 . S
C522 C520 1.561 . S
C523 C520 1.526 . S
C523 C524 1.396 . S
C523 C528 1.390 . S
C524 C518 1.465 . S
C524 C523 1.396 . S
C524 C525 1.399 . S
C525 H511 0.929 . S
C525 C524 1.399 . S
C525 C526 1.385 . S
C526 H512 0.931 . S
C526 C525 1.385 . S
C526 C527 1.389 . S
C527 C526 1.389 . S
C527 C528 1.387 . S
C528 H513 0.930 . S
C528 C523 1.390 . S
C528 C527 1.387 . S
H529 C541 0.930 . S
H530 C543 0.930 . S
H531 C544 0.930 . S
H532 C548 0.959 . S
H533 C548 0.959 . S
H534 C548 0.961 . S
H535 C549 0.960 . S
H536 C549 0.961 . S
H537 C549 0.959 . S
H538 C552 0.929 . S
H539 C553 0.931 . S
H540 C555 0.930 . S
C541 H529 0.930 . S
C541 C542 1.399 . S
C541 C546 1.399 . S
C542 C541 1.399 . S
C542 C543 1.376 . S
C543 H530 0.930 . S
C543 C542 1.376 . S
C543 C544 1.388 . S
C544 H531 0.930 . S
C544 C543 1.388 . S
C544 C545 1.390 . S
C545 C544 1.390 . S
C545 C546 1.394 . S
C545 C551 1.465 . S
C546 C541 1.399 . S
C546 C545 1.394 . S
C546 C547 1.516 . S
C547 C546 1.516 . S
C547 C548 1.502 . S
C547 C549 1.561 . S
C547 C550 1.526 . S
C548 H532 0.959 . S
C548 H533 0.959 . S
C548 H534 0.961 . S
C548 C547 1.502 . S
C549 H535 0.960 . S
C549 H536 0.961 . S
C549 H537 0.959 . S
C549 C547 1.561 . S
C550 C547 1.526 . S
C550 C551 1.396 . S
C550 C555 1.390 . S
C551 C545 1.465 . S
C551 C550 1.396 . S
C551 C552 1.399 . S
C552 H538 0.929 . S
C552 C551 1.399 . S
C552 C553 1.385 . S
C553 H539 0.931 . S
C553 C552 1.385 . S
C553 C554 1.389 . S
C554 C553 1.389 . S
C554 C555 1.387 . S
C555 H540 0.930 . S
C555 C550 1.390 . S
C555 C554 1.387 . S
H556 C568 0.930 . S
H557 C570 0.930 . S
H558 C571 0.930 . S
H559 C575 0.959 . S
H560 C575 0.959 . S
H561 C575 0.961 . S
H562 C576 0.960 . S
H563 C576 0.961 . S
H564 C576 0.959 . S
H565 C579 0.929 1_455 S
H566 C580 0.931 1_455 S
H567 C582 0.930 . S
C568 H556 0.930 . S
C568 C569 1.399 . S
C568 C573 1.399 . S
C569 C568 1.399 . S
C569 C570 1.376 . S
C570 H557 0.930 . S
C570 C569 1.376 . S
C570 C571 1.388 . S
C571 H558 0.930 . S
C571 C570 1.388 . S
C571 C572 1.390 . S
C572 C571 1.390 . S
C572 C573 1.394 . S
C572 C578 1.465 . S
C573 C568 1.399 . S
C573 C572 1.394 . S
C573 C574 1.516 . S
C574 C573 1.516 . S
C574 C575 1.502 . S
C574 C576 1.561 1_565 S
C574 C577 1.526 . S
C575 H559 0.959 . S
C575 H560 0.959 . S
C575 H561 0.961 . S
C575 C574 1.502 . S
C576 H562 0.960 . S
C576 H563 0.961 . S
C576 H564 0.959 . S
C576 C574 1.561 1_545 S
C577 C574 1.526 . S
C577 C578 1.396 . S
C577 C582 1.390 . S
C578 C572 1.465 . S
C578 C577 1.396 . S
C578 C579 1.399 . S
C579 H565 0.929 1_655 S
C579 C578 1.399 . S
C579 C580 1.385 . S
C580 H566 0.931 1_655 S
C580 C579 1.385 . S
C580 C581 1.389 . S
C581 C580 1.389 . S
C581 C582 1.387 . S
C582 H567 0.930 . S
C582 C577 1.390 . S
C582 C581 1.387 . S
H583 C595 0.930 . S
H584 C597 0.930 . S
H585 C598 0.930 . S
H586 C602 0.959 . S
H587 C602 0.959 . S
H588 C602 0.961 . S
H589 C603 0.960 . S
H590 C603 0.961 . S
H591 C603 0.959 . S
H592 C606 0.929 . S
H593 C607 0.931 . S
H594 C609 0.930 . S
C595 H583 0.930 . S
C595 C596 1.399 . S
C595 C600 1.399 . S
C596 C595 1.399 . S
C596 C597 1.376 . S
C597 H584 0.930 . S
C597 C596 1.376 . S
C597 C598 1.388 . S
C598 H585 0.930 . S
C598 C597 1.388 . S
C598 C599 1.390 . S
C599 C598 1.390 . S
C599 C600 1.394 . S
C599 C605 1.465 . S
C600 C595 1.399 . S
C600 C599 1.394 . S
C600 C601 1.516 . S
C601 C600 1.516 . S
C601 C602 1.502 . S
C601 C603 1.561 . S
C601 C604 1.526 . S
C602 H586 0.959 . S
C602 H587 0.959 . S
C602 H588 0.961 . S
C602 C601 1.502 . S
C603 H589 0.960 . S
C603 H590 0.961 . S
C603 H591 0.959 . S
C603 C601 1.561 . S
C604 C601 1.526 . S
C604 C605 1.396 . S
C604 C609 1.390 . S
C605 C599 1.465 . S
C605 C604 1.396 . S
C605 C606 1.399 . S
C606 H592 0.929 . S
C606 C605 1.399 . S
C606 C607 1.385 . S
C607 H593 0.931 . S
C607 C606 1.385 . S
C607 C608 1.389 . S
C608 C607 1.389 . S
C608 C609 1.387 . S
C609 H594 0.930 . S
C609 C604 1.390 . S
C609 C608 1.387 . S
H610 C622 0.930 . S
H611 C624 0.930 . S
H612 C625 0.930 . S
H613 C629 0.959 . S
H614 C629 0.959 . S
H615 C629 0.961 . S
H616 C630 0.960 . S
H617 C630 0.961 . S
H618 C630 0.959 . S
H619 C633 0.929 . S
H620 C634 0.931 . S
H621 C636 0.930 . S
C622 H610 0.930 . S
C622 C623 1.399 . S
C622 C627 1.399 . S
C623 C622 1.399 . S
C623 C624 1.376 . S
C624 H611 0.930 . S
C624 C623 1.376 . S
C624 C625 1.388 . S
C625 H612 0.930 . S
C625 C624 1.388 . S
C625 C626 1.390 . S
C626 C625 1.390 . S
C626 C627 1.394 . S
C626 C632 1.465 . S
C627 C622 1.399 . S
C627 C626 1.394 . S
C627 C628 1.516 . S
C628 C627 1.516 . S
C628 C629 1.502 . S
C628 C630 1.561 . S
C628 C631 1.526 . S
C629 H613 0.959 . S
C629 H614 0.959 . S
C629 H615 0.961 . S
C629 C628 1.502 . S
C630 H616 0.960 . S
C630 H617 0.961 . S
C630 H618 0.959 . S
C630 C628 1.561 . S
C631 C628 1.526 . S
C631 C632 1.396 . S
C631 C636 1.390 . S
C632 C626 1.465 . S
C632 C631 1.396 . S
C632 C633 1.399 . S
C633 H619 0.929 . S
C633 C632 1.399 . S
C633 C634 1.385 . S
C634 H620 0.931 . S
C634 C633 1.385 . S
C634 C635 1.389 . S
C635 C634 1.389 . S
C635 C636 1.387 . S
C636 H621 0.930 . S
C636 C631 1.390 . S
C636 C635 1.387 . S
H637 C649 0.930 . S
H638 C651 0.930 . S
H639 C652 0.930 . S
H640 C656 0.959 . S
H641 C656 0.959 . S
H642 C656 0.961 . S
H643 C657 0.960 . S
H644 C657 0.961 . S
H645 C657 0.959 . S
H646 C660 0.929 . S
H647 C661 0.931 . S
H648 C663 0.930 . S
C649 H637 0.930 . S
C649 C650 1.399 . S
C649 C654 1.399 . S
C650 C649 1.399 . S
C650 C651 1.376 . S
C651 H638 0.930 . S
C651 C650 1.376 . S
C651 C652 1.388 . S
C652 H639 0.930 . S
C652 C651 1.388 . S
C652 C653 1.390 . S
C653 C652 1.390 . S
C653 C654 1.394 . S
C653 C659 1.465 . S
C654 C649 1.399 . S
C654 C653 1.394 . S
C654 C655 1.516 . S
C655 C654 1.516 . S
C655 C656 1.502 . S
C655 C657 1.561 . S
C655 C658 1.526 . S
C656 H640 0.959 . S
C656 H641 0.959 . S
C656 H642 0.961 . S
C656 C655 1.502 . S
C657 H643 0.960 . S
C657 H644 0.961 . S
C657 H645 0.959 . S
C657 C655 1.561 . S
C658 C655 1.526 . S
C658 C659 1.396 . S
C658 C663 1.390 . S
C659 C653 1.465 . S
C659 C658 1.396 . S
C659 C660 1.399 . S
C660 H646 0.929 . S
C660 C659 1.399 . S
C660 C661 1.385 . S
C661 H647 0.931 . S
C661 C660 1.385 . S
C661 C662 1.389 . S
C662 C661 1.389 . S
C662 C663 1.387 . S
C663 H648 0.930 . S
C663 C658 1.390 . S
C663 C662 1.387 . S
H664 C676 0.930 . S
H665 C678 0.930 . S
H666 C679 0.930 . S
H667 C683 0.959 . S
H668 C683 0.959 . S
H669 C683 0.961 . S
H670 C684 0.960 . S
H671 C684 0.961 . S
H672 C684 0.959 . S
H673 C687 0.924 1_544 S
H674 C688 0.931 1_544 S
H675 C690 0.930 . S
C676 H664 0.930 . S
C676 C677 1.399 . S
C676 C681 1.399 . S
C677 C676 1.399 . S
C677 C678 1.376 . S
C678 H665 0.930 . S
C678 C677 1.376 . S
C678 C679 1.388 . S
C679 H666 0.930 . S
C679 C678 1.388 . S
C679 C680 1.390 . S
C680 C679 1.390 . S
C680 C681 1.394 . S
C680 C686 1.465 . S
C681 C676 1.399 . S
C681 C680 1.394 . S
C681 C682 1.516 . S
C682 C681 1.516 . S
C682 C683 1.502 . S
C682 C684 1.561 . S
C682 C685 1.526 . S
C683 H667 0.959 . S
C683 H668 0.959 . S
C683 H669 0.961 . S
C683 C682 1.502 . S
C684 H670 0.960 . S
C684 H671 0.961 . S
C684 H672 0.959 . S
C684 C682 1.561 . S
C685 C682 1.526 . S
C685 C686 1.396 . S
C685 C690 1.390 . S
C686 C680 1.465 . S
C686 C685 1.396 . S
C686 C687 1.399 . S
C687 H673 0.924 1_566 S
C687 C686 1.399 . S
C687 C688 1.385 . S
C688 H674 0.931 1_566 S
C688 C687 1.385 . S
C688 C689 1.389 . S
C689 C688 1.389 . S
C689 C690 1.387 . S
C690 H675 0.930 . S
C690 C685 1.390 . S
C690 C689 1.387 . S
H691 C703 0.930 . S
H692 C705 0.930 . S
H693 C706 0.930 . S
H694 C710 0.959 . S
H695 C710 0.959 1_565 S
H696 C710 0.961 . S
H697 C711 0.960 . S
H698 C711 0.961 . S
H699 C711 0.959 1_545 S
H700 C714 0.929 . S
H701 C715 0.931 . S
H702 C717 0.929 . S
C703 H691 0.930 . S
C703 C704 1.399 . S
C703 C708 1.399 . S
C704 C703 1.399 . S
C704 C705 1.376 . S
C705 H692 0.930 . S
C705 C704 1.376 . S
C705 C706 1.388 . S
C706 H693 0.930 . S
C706 C705 1.388 . S
C706 C707 1.390 . S
C707 C706 1.390 . S
C707 C708 1.394 . S
C707 C713 1.465 . S
C708 C703 1.399 . S
C708 C707 1.394 . S
C708 C709 1.516 . S
C709 C708 1.516 . S
C709 C710 1.502 . S
C709 C711 1.561 1_545 S
C709 C712 1.526 . S
C710 H694 0.959 . S
C710 H695 0.959 1_545 S
C710 H696 0.961 . S
C710 C709 1.502 . S
C711 H697 0.960 . S
C711 H698 0.961 . S
C711 H699 0.959 1_565 S
C711 C709 1.561 1_565 S
C712 C709 1.526 . S
C712 C713 1.396 . S
C712 C717 1.390 . S
C713 C707 1.465 . S
C713 C712 1.396 . S
C713 C714 1.399 . S
C714 H700 0.929 . S
C714 C713 1.399 . S
C714 C715 1.385 . S
C715 H701 0.931 . S
C715 C714 1.385 . S
C715 C716 1.389 . S
C716 C715 1.389 . S
C716 C717 1.387 . S
C717 H702 0.929 . S
C717 C712 1.390 . S
C717 C716 1.387 . S
H718 C730 0.930 . S
H719 C732 0.930 . S
H720 C733 0.930 . S
H721 C737 0.959 . S
H722 C737 0.959 . S
H723 C737 0.961 . S
H724 C738 0.960 . S
H725 C738 0.961 . S
H726 C738 0.959 . S
H727 C741 0.929 . S
H728 C742 0.931 . S
H729 C744 0.930 . S
C730 H718 0.930 . S
C730 C731 1.399 . S
C730 C735 1.399 . S
C731 C730 1.399 . S
C731 C732 1.376 . S
C732 H719 0.930 . S
C732 C731 1.376 . S
C732 C733 1.388 . S
C733 H720 0.930 . S
C733 C732 1.388 . S
C733 C734 1.390 . S
C734 C733 1.390 . S
C734 C735 1.394 . S
C734 C740 1.465 . S
C735 C730 1.399 . S
C735 C734 1.394 . S
C735 C736 1.516 . S
C736 C735 1.516 . S
C736 C737 1.502 . S
C736 C738 1.561 1_554 S
C736 C739 1.526 . S
C737 H721 0.959 . S
C737 H722 0.959 . S
C737 H723 0.961 . S
C737 C736 1.502 . S
C738 H724 0.960 . S
C738 H725 0.961 . S
C738 H726 0.959 . S
C738 C736 1.561 1_556 S
C739 C736 1.526 . S
C739 C740 1.396 . S
C739 C744 1.390 . S
C740 C734 1.465 . S
C740 C739 1.396 . S
C740 C741 1.399 . S
C741 H727 0.929 . S
C741 C740 1.399 . S
C741 C742 1.385 . S
C742 H728 0.931 . S
C742 C741 1.385 . S
C742 C743 1.389 . S
C743 C742 1.389 . S
C743 C744 1.387 . S
C744 H729 0.930 . S
C744 C739 1.390 . S
C744 C743 1.387 . S
H745 C757 0.930 . S
H746 C759 0.930 . S
H747 C760 0.930 . S
H748 C764 0.959 . S
H749 C764 0.959 . S
H750 C764 0.961 . S
H751 C765 0.960 . S
H752 C765 0.961 . S
H753 C765 0.959 . S
H754 C768 0.929 . S
H755 C769 0.931 . S
H756 C771 0.930 . S
C757 H745 0.930 . S
C757 C758 1.399 . S
C757 C762 1.399 . S
C758 C757 1.399 . S
C758 C759 1.376 . S
C759 H746 0.930 . S
C759 C758 1.376 . S
C759 C760 1.388 . S
C760 H747 0.930 . S
C760 C759 1.388 . S
C760 C761 1.390 . S
C761 C760 1.390 . S
C761 C762 1.394 . S
C761 C767 1.465 . S
C762 C757 1.399 . S
C762 C761 1.394 . S
C762 C763 1.516 . S
C763 C762 1.516 . S
C763 C764 1.502 . S
C763 C765 1.561 . S
C763 C766 1.526 . S
C764 H748 0.959 . S
C764 H749 0.959 . S
C764 H750 0.961 . S
C764 C763 1.502 . S
C765 H751 0.960 . S
C765 H752 0.961 . S
C765 H753 0.959 . S
C765 C763 1.561 . S
C766 C763 1.526 . S
C766 C767 1.396 . S
C766 C771 1.390 . S
C767 C761 1.465 . S
C767 C766 1.396 . S
C767 C768 1.399 . S
C768 H754 0.929 . S
C768 C767 1.399 . S
C768 C769 1.385 . S
C769 H755 0.931 . S
C769 C768 1.385 . S
C769 C770 1.389 . S
C770 C769 1.389 . S
C770 C771 1.387 . S
C771 H756 0.930 . S
C771 C766 1.390 . S
C771 C770 1.387 . S
H772 C784 0.930 . S
H773 C786 0.930 . S
H774 C787 0.930 . S
H775 C791 0.959 . S
H776 C791 0.959 . S
H777 C791 0.961 . S
H778 C792 0.960 . S
H779 C792 0.961 . S
H780 C792 0.959 . S
H781 C795 0.929 . S
H782 C796 0.931 . S
H783 C798 0.918 1_454 S
C784 H772 0.930 . S
C784 C785 1.399 . S
C784 C789 1.399 . S
C785 C784 1.399 . S
C785 C786 1.376 . S
C786 H773 0.930 . S
C786 C785 1.376 . S
C786 C787 1.388 . S
C787 H774 0.930 . S
C787 C786 1.388 . S
C787 C788 1.390 . S
C788 C787 1.390 . S
C788 C789 1.394 . S
C788 C794 1.465 . S
C789 C784 1.399 . S
C789 C788 1.394 . S
C789 C790 1.516 . S
C790 C789 1.516 . S
C790 C791 1.502 1_655 S
C790 C792 1.561 1_556 S
C790 C793 1.526 . S
C791 H775 0.959 . S
C791 H776 0.959 . S
C791 H777 0.961 . S
C791 C790 1.502 1_455 S
C792 H778 0.960 . S
C792 H779 0.961 . S
C792 H780 0.959 . S
C792 C790 1.561 1_554 S
C793 C790 1.526 . S
C793 C794 1.396 . S
C793 C798 1.390 . S
C794 C788 1.465 . S
C794 C793 1.396 . S
C794 C795 1.399 . S
C795 H781 0.929 . S
C795 C794 1.399 . S
C795 C796 1.385 . S
C796 H782 0.931 . S
C796 C795 1.385 . S
C796 C797 1.389 . S
C797 C796 1.389 . S
C797 C798 1.387 . S
C798 H783 0.918 1_656 S
C798 C793 1.390 . S
C798 C797 1.387 . S
H799 C811 0.930 . S
H800 C813 0.930 . S
H801 C814 0.930 . S
H802 C818 0.959 . S
H803 C818 0.936 1_556 S
H804 C818 0.961 . S
H805 C819 0.960 1_556 S
H806 C819 0.961 1_556 S
H807 C819 0.959 . S
H808 C822 0.929 . S
H809 C823 0.931 . S
H810 C825 0.930 . S
C811 H799 0.930 . S
C811 C812 1.399 . S
C811 C816 1.399 . S
C812 C811 1.399 . S
C812 C813 1.376 . S
C813 H800 0.930 . S
C813 C812 1.376 . S
C813 C814 1.388 . S
C814 H801 0.930 . S
C814 C813 1.388 . S
C814 C815 1.390 . S
C815 C814 1.390 . S
C815 C816 1.394 . S
C815 C821 1.465 . S
C816 C811 1.399 . S
C816 C815 1.394 . S
C816 C817 1.516 . S
C817 C816 1.516 . S
C817 C818 1.502 . S
C817 C819 1.561 . S
C817 C820 1.526 . S
C818 H802 0.959 . S
C818 H803 0.936 1_554 S
C818 H804 0.961 . S
C818 C817 1.502 . S
C819 H805 0.960 1_554 S
C819 H806 0.961 1_554 S
C819 H807 0.959 . S
C819 C817 1.561 . S
C820 C817 1.526 . S
C820 C821 1.396 . S
C820 C825 1.390 . S
C821 C815 1.465 . S
C821 C820 1.396 . S
C821 C822 1.399 . S
C822 H808 0.929 . S
C822 C821 1.399 . S
C822 C823 1.385 . S
C823 H809 0.931 . S
C823 C822 1.385 . S
C823 C824 1.389 . S
C824 C823 1.389 . S
C824 C825 1.387 . S
C825 H810 0.930 . S
C825 C820 1.390 . S
C825 C824 1.387 . S
H826 C838 0.930 . S
H827 C840 0.930 . S
H828 C841 0.930 . S
H829 C845 0.959 . S
H830 C845 0.959 . S
H831 C845 0.961 . S
H832 C846 0.960 . S
H833 C846 0.961 . S
H834 C846 0.959 . S
H835 C849 0.929 . S
H836 C850 0.931 . S
H837 C852 0.930 . S
C838 H826 0.930 . S
C838 C839 1.399 . S
C838 C843 1.399 . S
C839 C838 1.399 . S
C839 C840 1.376 . S
C840 H827 0.930 . S
C840 C839 1.376 . S
C840 C841 1.388 . S
C841 H828 0.930 . S
C841 C840 1.388 . S
C841 C842 1.390 . S
C842 C841 1.390 . S
C842 C843 1.394 . S
C842 C848 1.465 . S
C843 C838 1.399 . S
C843 C842 1.394 . S
C843 C844 1.516 . S
C844 C843 1.516 . S
C844 C845 1.502 . S
C844 C846 1.561 . S
C844 C847 1.526 . S
C845 H829 0.959 . S
C845 H830 0.959 . S
C845 H831 0.961 . S
C845 C844 1.502 . S
C846 H832 0.960 . S
C846 H833 0.961 . S
C846 H834 0.959 . S
C846 C844 1.561 . S
C847 C844 1.526 . S
C847 C848 1.396 . S
C847 C852 1.390 . S
C848 C842 1.465 . S
C848 C847 1.396 . S
C848 C849 1.399 . S
C849 H835 0.929 . S
C849 C848 1.399 . S
C849 C850 1.385 . S
C850 H836 0.931 . S
C850 C849 1.385 . S
C850 C851 1.389 . S
C851 C850 1.389 . S
C851 C852 1.387 . S
C852 H837 0.930 . S
C852 C847 1.390 . S
C852 C851 1.387 . S
H853 C865 0.930 . S
H854 C867 0.930 . S
H855 C868 0.930 . S
H856 C872 0.959 . S
H857 C872 0.959 . S
H858 C872 0.961 . S
H859 C873 0.960 . S
H860 C873 0.961 . S
H861 C873 0.959 . S
H862 C876 0.929 . S
H863 C877 0.931 . S
H864 C879 0.930 . S
C865 H853 0.930 . S
C865 C866 1.399 . S
C865 C870 1.399 . S
C866 C865 1.399 . S
C866 C867 1.376 . S
C867 H854 0.930 . S
C867 C866 1.376 . S
C867 C868 1.388 . S
C868 H855 0.930 . S
C868 C867 1.388 . S
C868 C869 1.390 . S
C869 C868 1.390 . S
C869 C870 1.394 . S
C869 C875 1.465 . S
C870 C865 1.399 . S
C870 C869 1.394 . S
C870 C871 1.516 . S
C871 C870 1.516 . S
C871 C872 1.502 . S
C871 C873 1.561 . S
C871 C874 1.526 . S
C872 H856 0.959 . S
C872 H857 0.959 . S
C872 H858 0.961 . S
C872 C871 1.502 . S
C873 H859 0.960 . S
C873 H860 0.961 . S
C873 H861 0.959 . S
C873 C871 1.561 . S
C874 C871 1.526 . S
C874 C875 1.396 . S
C874 C879 1.390 . S
C875 C869 1.465 . S
C875 C874 1.396 . S
C875 C876 1.399 . S
C876 H862 0.929 . S
C876 C875 1.399 . S
C876 C877 1.385 . S
C877 H863 0.931 . S
C877 C876 1.385 . S
C877 C878 1.389 . S
C878 C877 1.389 . S
C878 C879 1.387 . S
C879 H864 0.930 . S
C879 C874 1.390 . S
C879 C878 1.387 . S
C245 C6 2.491 . S
C257 C96 2.488 . S
C272 C18 2.563 . S
C284 C138 2.578 . S
C311 C168 0.969 . S
C299 C28 0.885 . S
C326 C40 0.587 . S
C338 C202 0.717 . S
C365 C159 2.101 . S
C353 C9 2.088 . S
C392 C113 1.841 . S
C380 C16 1.833 . S
C419 C206 1.299 . S
C407 C30 1.260 . S
C446 C172 0.966 . S
C434 C42 1.011 . S
C461 C4 2.128 . S
C473 C227 2.143 . S
C500 C134 1.120 . S
C488 C33 1.142 . S
C515 C45 0.957 . S
C527 C109 0.949 . S
C542 C21 2.409 . S
C554 C193 2.416 . S
C581 C125 2.546 . S
C569 C57 2.547 . S
C596 C66 2.544 . S
C608 C147 2.559 . S
C623 C76 0.983 . S
C635 C177 0.949 . S
C650 C88 0.597 . S
C662 C211 0.593 . S
C677 C54 2.065 . S
C689 C130 2.072 . S
C716 C104 1.875 . S
C704 C64 1.835 . S
C743 C215 1.156 . S
C731 C78 1.159 . S
C770 C181 0.978 . S
C758 C93 1.007 . S
C785 C52 2.078 . S
C797 C198 2.101 . S
C824 C143 1.148 . S
C812 C81 1.086 . S
C851 C100 0.957 . S
C839 C90 0.988 . S
C866 C69 2.431 . S
C878 C164 2.442 . S
