# Generated by pormake.
# Topology nom, (4,4)-cn, num edge types: 1
# Building blocks:
#     Node 0, Type 0, BuildingBlock: MIFKUJ_clean_linker_1, # of connection points: 4
#     Node 1, Type 0, BuildingBlock: MIFKUJ_clean_linker_1, # of connection points: 4
#     Node 2, Type 0, BuildingBlock: MIFKUJ_clean_linker_1, # of connection points: 4
#     Node 3, Type 0, BuildingBlock: MIFKUJ_clean_linker_1, # of connection points: 4
#     Node 4, Type 0, BuildingBlock: MIFKUJ_clean_linker_1, # of connection points: 4
#     Node 5, Type 0, BuildingBlock: MIFKUJ_clean_linker_1, # of connection points: 4
#     Node 6, Type 1, BuildingBlock: QUQFOY_clean_sbu_3, # of connection points: 4
#     Node 7, Type 1, BuildingBlock: QUQFOY_clean_sbu_3, # of connection points: 4
#     Node 8, Type 1, BuildingBlock: QUQFOY_clean_sbu_3, # of connection points: 4
#     Node 9, Type 1, BuildingBlock: QUQFOY_clean_sbu_3, # of connection points: 4
#     Node 10, Type 1, BuildingBlock: QUQFOY_clean_sbu_3, # of connection points: 4
#     Node 11, Type 1, BuildingBlock: QUQFOY_clean_sbu_3, # of connection points: 4
#     Edge 12, Type (0, 1), BuildingBlock: AJUNOK_clean_linker_0, # of connection points: 2
#     Edge 13, Type (0, 1), BuildingBlock: AJUNOK_clean_linker_0, # of connection points: 2
#     Edge 14, Type (0, 1), BuildingBlock: AJUNOK_clean_linker_0, # of connection points: 2
#     Edge 15, Type (0, 1), BuildingBlock: AJUNOK_clean_linker_0, # of connection points: 2
#     Edge 16, Type (0, 1), BuildingBlock: AJUNOK_clean_linker_0, # of connection points: 2
#     Edge 17, Type (0, 1), BuildingBlock: AJUNOK_clean_linker_0, # of connection points: 2
#     Edge 18, Type (0, 1), BuildingBlock: AJUNOK_clean_linker_0, # of connection points: 2
#     Edge 19, Type (0, 1), BuildingBlock: AJUNOK_clean_linker_0, # of connection points: 2
#     Edge 20, Type (0, 1), BuildingBlock: AJUNOK_clean_linker_0, # of connection points: 2
#     Edge 21, Type (0, 1), BuildingBlock: AJUNOK_clean_linker_0, # of connection points: 2
#     Edge 22, Type (0, 1), BuildingBlock: AJUNOK_clean_linker_0, # of connection points: 2
#     Edge 23, Type (0, 1), BuildingBlock: AJUNOK_clean_linker_0, # of connection points: 2
#     Edge 24, Type (0, 1), BuildingBlock: AJUNOK_clean_linker_0, # of connection points: 2
#     Edge 25, Type (0, 1), BuildingBlock: AJUNOK_clean_linker_0, # of connection points: 2
#     Edge 26, Type (0, 1), BuildingBlock: AJUNOK_clean_linker_0, # of connection points: 2
#     Edge 27, Type (0, 1), BuildingBlock: AJUNOK_clean_linker_0, # of connection points: 2
#     Edge 28, Type (0, 1), BuildingBlock: AJUNOK_clean_linker_0, # of connection points: 2
#     Edge 29, Type (0, 1), BuildingBlock: AJUNOK_clean_linker_0, # of connection points: 2
#     Edge 30, Type (0, 1), BuildingBlock: AJUNOK_clean_linker_0, # of connection points: 2
#     Edge 31, Type (0, 1), BuildingBlock: AJUNOK_clean_linker_0, # of connection points: 2
#     Edge 32, Type (0, 1), BuildingBlock: AJUNOK_clean_linker_0, # of connection points: 2
#     Edge 33, Type (0, 1), BuildingBlock: AJUNOK_clean_linker_0, # of connection points: 2
#     Edge 34, Type (0, 1), BuildingBlock: AJUNOK_clean_linker_0, # of connection points: 2
#     Edge 35, Type (0, 1), BuildingBlock: AJUNOK_clean_linker_0, # of connection points: 2
# Relax obj value: 0.002
# Max RMSD: 0.101
# Mean RMSD: 0.065
data_MOF--net-nom--node1-QUQFOY_clean_sbu_3--node2-MIFKUJ_clean_linker_1--edge1-AJUNOK_clean_linker_0
_symmetry_space_group_name_H-M    P1
_symmetry_Int_Tables_number       1
_symmetry_cell_setting            triclinic
loop_
_symmetry_equiv_pos_as_xyz
'x, y, z'
_cell_length_a     42.013183
_cell_length_b     43.102416
_cell_length_c     44.541057
_cell_angle_alpha  90.015411
_cell_angle_beta   90.033894
_cell_angle_gamma 120.08258
loop_
_atom_site_label
_atom_site_type_symbol
_atom_site_fract_x
_atom_site_fract_y
_atom_site_fract_z
_atom_type_partial_charge
H0 H 0.95807 0.43459 0.25624 0.0
H1 H 0.91646 0.4174 0.21297 0.0
H2 H 0.88345 0.49316 0.2406 0.0
H3 H 0.92555 0.51076 0.28339 0.0
H4 H 0.01684 0.50799 0.26472 0.0
H5 H 0.90401 0.4178 0.32832 0.0
H6 H 0.84315 0.39925 0.3502 0.0
H7 H 0.87901 0.50995 0.37083 0.0
H8 H 0.93952 0.52789 0.35021 0.0
H9 H 0.03928 0.56858 0.3822 0.0
H10 H 0.08608 0.5935 0.42163 0.0
H11 H 0.12817 0.52529 0.39218 0.0
H12 H 0.08277 0.50229 0.35168 0.0
H13 H 0.98512 0.49872 0.37284 0.0
H14 H 0.07386 0.59265 0.32343 0.0
H15 H 0.13264 0.63969 0.30416 0.0
H16 H 0.14354 0.56144 0.25147 0.0
H17 H 0.08452 0.51374 0.27156 0.0
C18 C 0.94446 0.47353 0.27324 0.0
C19 C 0.94134 0.44698 0.25324 0.0
C20 C 0.91746 0.43706 0.22868 0.0
C21 C 0.89658 0.45378 0.22364 0.0
C22 C 0.89919 0.47981 0.24407 0.0
C23 C 0.92296 0.48964 0.26864 0.0
C24 C 0.97281 0.48693 0.29707 0.0
C25 C 0.00996 0.50478 0.28842 0.0
C26 C 0.96389 0.48592 0.32775 0.0
C27 C 0.92617 0.4741 0.33807 0.0
C28 C 0.89851 0.4379 0.33755 0.0
C29 C 0.86392 0.42741 0.34998 0.0
C30 C 0.8568 0.4531 0.36295 0.0
C31 C 0.88414 0.48944 0.36201 0.0
C32 C 0.91858 0.49976 0.35001 0.0
C33 C 0.05772 0.53371 0.36407 0.0
C34 C 0.05888 0.55932 0.38414 0.0
C35 C 0.08556 0.57343 0.40667 0.0
C36 C 0.11114 0.56166 0.40992 0.0
C37 C 0.10971 0.53582 0.38979 0.0
C38 C 0.08351 0.52232 0.36683 0.0
C39 C 0.02903 0.51825 0.34056 0.0
C40 C 0.99206 0.50031 0.34921 0.0
C41 C 0.03807 0.52212 0.30976 0.0
C42 C 0.07511 0.54956 0.29934 0.0
C43 C 0.08917 0.58535 0.30824 0.0
C44 C 0.12248 0.61231 0.29689 0.0
C45 C 0.14222 0.60416 0.27606 0.0
C46 C 0.12866 0.56829 0.26751 0.0
C47 C 0.09508 0.54114 0.2789 0.0
H48 H 0.42092 0.93622 0.53713 0.0
H49 H 0.38524 0.87459 0.55445 0.0
H50 H 0.44278 0.8435 0.49177 0.0
H51 H 0.48102 0.90606 0.47654 0.0
H52 H 0.48836 0.98328 0.54039 0.0
H53 H 0.40761 0.91807 0.45464 0.0
H54 H 0.38494 0.87849 0.4105 0.0
H55 H 0.4941 0.93268 0.37269 0.0
H56 H 0.51704 0.97133 0.41705 0.0
H57 H 0.55751 0.0765 0.43569 0.0
H58 H 0.57781 0.1385 0.42067 0.0
H59 H 0.505 0.14339 0.4863 0.0
H60 H 0.48345 0.08109 0.50041 0.0
H61 H 0.49541 0.01776 0.43345 0.0
H62 H 0.57433 0.08755 0.51292 0.0
H63 H 0.59771 0.1334 0.5522 0.0
H64 H 0.49667 0.07195 0.60184 0.0
H65 H 0.47242 0.02761 0.56162 0.0
C66 C 0.4535 0.9259 0.50525 0.0
C67 C 0.42644 0.91631 0.52747 0.0
C68 C 0.40573 0.88093 0.53717 0.0
C69 C 0.41109 0.85403 0.52456 0.0
C70 C 0.43842 0.86363 0.50246 0.0
C71 C 0.45986 0.89934 0.49327 0.0
C72 C 0.47444 0.96379 0.495 0.0
C73 C 0.48961 0.9908 0.51699 0.0
C74 C 0.47797 0.97376 0.46433 0.0
C75 C 0.46412 0.94748 0.43929 0.0
C76 C 0.42684 0.92085 0.43722 0.0
C77 C 0.41389 0.89837 0.41205 0.0
C78 C 0.43789 0.9028 0.3884 0.0
C79 C 0.47519 0.92893 0.39072 0.0
C80 C 0.4882 0.95097 0.41597 0.0
C81 C 0.51949 0.07434 0.46962 0.0
C82 C 0.54562 0.09077 0.44664 0.0
C83 C 0.55715 0.12603 0.43804 0.0
C84 C 0.54289 0.14538 0.45246 0.0
C85 C 0.51641 0.12887 0.47505 0.0
C86 C 0.5044 0.09347 0.48326 0.0
C87 C 0.50733 0.03697 0.47895 0.0
C88 C 0.49437 0.01023 0.45683 0.0
C89 C 0.50612 0.02724 0.50947 0.0
C90 C 0.52131 0.05435 0.53397 0.0
C91 C 0.55697 0.08423 0.53203 0.0
C92 C 0.57044 0.11027 0.55462 0.0
C93 C 0.54877 0.10668 0.57987 0.0
C94 C 0.51361 0.07615 0.58224 0.0
C95 C 0.49993 0.05044 0.55946 0.0
H96 H 0.53341 0.57152 0.7296 0.0
H97 H 0.51187 0.59099 0.77312 0.0
H98 H 0.39987 0.51096 0.75217 0.0
H99 H 0.42141 0.49109 0.70931 0.0
H100 H 0.52091 0.50018 0.72286 0.0
H101 H 0.49214 0.58205 0.65736 0.0
H102 H 0.44948 0.60002 0.6368 0.0
H103 H 0.3669 0.48835 0.62591 0.0
H104 H 0.41009 0.47088 0.64499 0.0
H105 H 0.46877 0.42816 0.60991 0.0
H106 H 0.48767 0.40241 0.5694 0.0
H107 H 0.60169 0.47669 0.59037 0.0
H108 H 0.58256 0.50109 0.63158 0.0
H109 H 0.48331 0.49717 0.61676 0.0
H110 H 0.48876 0.41074 0.67364 0.0
H111 H 0.5117 0.37107 0.68884 0.0
H112 H 0.61237 0.4624 0.72025 0.0
H113 H 0.58916 0.50239 0.70481 0.0
C114 C 0.47898 0.53012 0.71608 0.0
C115 C 0.50419 0.5585 0.73423 0.0
C116 C 0.49191 0.56967 0.75893 0.0
C117 C 0.4543 0.55223 0.76602 0.0
C118 C 0.42905 0.52457 0.7473 0.0
C119 C 0.4413 0.51348 0.72265 0.0
C120 C 0.49213 0.51591 0.6918 0.0
C121 C 0.51372 0.50061 0.69952 0.0
C122 C 0.48037 0.51379 0.66176 0.0
C123 C 0.45411 0.52522 0.65258 0.0
C124 C 0.46469 0.5616 0.65077 0.0
C125 C 0.44025 0.57176 0.63921 0.0
C126 C 0.40482 0.54555 0.62975 0.0
C127 C 0.39415 0.50915 0.6326 0.0
C128 C 0.41866 0.49911 0.64365 0.0
C129 C 0.5243 0.46635 0.62376 0.0
C130 C 0.49782 0.43859 0.60588 0.0
C131 C 0.50865 0.42399 0.58276 0.0
C132 C 0.54616 0.43721 0.5769 0.0
C133 C 0.57259 0.46515 0.59485 0.0
C134 C 0.56173 0.47935 0.61823 0.0
C135 C 0.51298 0.48261 0.64767 0.0
C136 C 0.49174 0.49805 0.63993 0.0
C137 C 0.52297 0.48273 0.67795 0.0
C138 C 0.53741 0.45945 0.68795 0.0
C139 C 0.51576 0.42227 0.68385 0.0
C140 C 0.52871 0.39962 0.69276 0.0
C141 C 0.56355 0.41373 0.70601 0.0
C142 C 0.58532 0.45099 0.71017 0.0
C143 C 0.57214 0.47374 0.70146 0.0
H144 H 0.05302 0.57652 0.75439 0.0
H145 H 0.09403 0.59 0.7112 0.0
H146 H 0.1264 0.51581 0.74461 0.0
H147 H 0.08485 0.50197 0.78755 0.0
H148 H -0.00581 0.50325 0.76623 0.0
H149 H 0.11327 0.59328 0.81364 0.0
H150 H 0.17524 0.60872 0.83015 0.0
H151 H 0.12821 0.51544 0.88764 0.0
H152 H 0.0672 0.49884 0.86966 0.0
H153 H 0.98124 0.46724 0.89348 0.0
H154 H 0.93455 0.44395 0.93265 0.0
H155 H 0.87092 0.48028 0.88313 0.0
H156 H 0.91898 0.50566 0.84468 0.0
H157 H 0.02654 0.52677 0.87407 0.0
H158 H 0.93464 0.42532 0.83019 0.0
H159 H 0.87482 0.378 0.81241 0.0
H160 H 0.86929 0.45263 0.75095 0.0
H161 H 0.92897 0.50042 0.76947 0.0
C162 C 0.06615 0.53847 0.7742 0.0
C163 C 0.0693 0.5635 0.75256 0.0
C164 C 0.09275 0.57124 0.72801 0.0
C165 C 0.11306 0.55369 0.72451 0.0
C166 C 0.11064 0.52934 0.74663 0.0
C167 C 0.08723 0.52167 0.77124 0.0
C168 C 0.03838 0.52776 0.79827 0.0
C169 C 0.0012 0.50911 0.78981 0.0
C170 C 0.04767 0.53269 0.82913 0.0
C171 C 0.08547 0.54469 0.84016 0.0
C172 C 0.11639 0.57606 0.82962 0.0
C173 C 0.15175 0.58512 0.83938 0.0
C174 C 0.15658 0.56328 0.86023 0.0
C175 C 0.12547 0.53257 0.87129 0.0
C176 C 0.09047 0.52328 0.86124 0.0
C177 C 0.95365 0.48811 0.86596 0.0
C178 C 0.95748 0.47059 0.8911 0.0
C179 C 0.93044 0.45673 0.91328 0.0
C180 C 0.89867 0.45957 0.91062 0.0
C181 C 0.89503 0.47755 0.88569 0.0
C182 C 0.92235 0.49182 0.86362 0.0
C183 C 0.98225 0.50203 0.8421 0.0
C184 C 0.01942 0.52159 0.85047 0.0
C185 C 0.97317 0.49435 0.81138 0.0
C186 C 0.93591 0.46658 0.80157 0.0
C187 C 0.92024 0.43175 0.81334 0.0
C188 C 0.88629 0.40464 0.80295 0.0
C189 C 0.86743 0.41176 0.78046 0.0
C190 C 0.88304 0.44662 0.76867 0.0
C191 C 0.91712 0.47383 0.7791 0.0
H192 H 0.59185 0.07853 0.03554 0.0
H193 H 0.62609 0.14036 0.0526 0.0
H194 H 0.56245 0.16753 0.99306 0.0
H195 H 0.52558 0.10466 0.97835 0.0
H196 H 0.52689 0.02874 0.04044 0.0
H197 H 0.60025 0.09544 0.95422 0.0
H198 H 0.6216 0.13638 0.91106 0.0
H199 H 0.51211 0.0814 0.87382 0.0
H200 H 0.49027 0.04151 0.91749 0.0
H201 H 0.44164 0.93277 0.94419 0.0
H202 H 0.42048 0.87084 0.92807 0.0
H203 H 0.51227 0.87371 0.97428 0.0
H204 H 0.53338 0.93538 0.99014 0.0
H205 H 0.51013 0.99499 0.93274 0.0
H206 H 0.43568 0.93563 0.02044 0.0
H207 H 0.41243 0.89112 0.06066 0.0
H208 H 0.52394 0.92821 0.09001 0.0
H209 H 0.54678 0.97408 0.05064 0.0
C210 C 0.55632 0.08679 0.00531 0.0
C211 C 0.58464 0.09756 0.02657 0.0
C212 C 0.60454 0.13311 0.0361 0.0
C213 C 0.59714 0.15905 0.02423 0.0
C214 C 0.56844 0.14821 0.0032 0.0
C215 C 0.54779 0.11231 0.99427 0.0
C216 C 0.53629 0.04885 0.99495 0.0
C217 C 0.52363 0.02167 0.0168 0.0
C218 C 0.53051 0.03905 0.96413 0.0
C219 C 0.5435 0.06565 0.93934 0.0
C220 C 0.58059 0.09277 0.93722 0.0
C221 C 0.59281 0.11603 0.91259 0.0
C222 C 0.56832 0.11191 0.88944 0.0
C223 C 0.53132 0.08503 0.89157 0.0
C224 C 0.51895 0.06226 0.91641 0.0
C225 C 0.48886 0.93845 0.96854 0.0
C226 C 0.45718 0.92001 0.95075 0.0
C227 C 0.44514 0.88477 0.94161 0.0
C228 C 0.46503 0.86781 0.9497 0.0
C229 C 0.49682 0.88643 0.96736 0.0
C230 C 0.50864 0.92145 0.97668 0.0
C231 C 0.50211 0.97583 0.97814 0.0
C232 C 0.51328 0.00258 0.95625 0.0
C233 C 0.50661 0.98544 0.00873 0.0
C234 C 0.49288 0.95798 0.03263 0.0
C235 C 0.45505 0.93403 0.03553 0.0
C236 C 0.44187 0.90835 0.05831 0.0
C237 C 0.46638 0.90562 0.07823 0.0
C238 C 0.50434 0.92967 0.07511 0.0
C239 C 0.51745 0.95581 0.05264 0.0
H240 H 0.51402 0.43499 0.20279 0.0
H241 H 0.53968 0.41618 0.24364 0.0
H242 H 0.57776 0.5183 0.28738 0.0
H243 H 0.55461 0.53788 0.24576 0.0
H244 H 0.49307 0.52091 0.22565 0.0
H245 H 0.51387 0.44437 0.12577 0.0
H246 H 0.55817 0.42819 0.10636 0.0
H247 H 0.64165 0.50656 0.16504 0.0
H248 H 0.59767 0.52345 0.18368 0.0
H249 H 0.53809 0.58205 0.11106 0.0
H250 H 0.51885 0.60734 0.07048 0.0
H251 H 0.40499 0.53214 0.09114 0.0
H252 H 0.42457 0.50851 0.13273 0.0
H253 H 0.52011 0.50893 0.11924 0.0
H254 H 0.5207 0.60422 0.17081 0.0
H255 H 0.49851 0.64484 0.18516 0.0
H256 H 0.40063 0.55583 0.22283 0.0
H257 H 0.42304 0.51498 0.20829 0.0
C258 C 0.53281 0.48809 0.22089 0.0
C259 C 0.52844 0.45355 0.22093 0.0
C260 C 0.54281 0.44269 0.24441 0.0
C261 C 0.56143 0.46604 0.26841 0.0
C262 C 0.56466 0.5001 0.26875 0.0
C263 C 0.55085 0.51111 0.24515 0.0
C264 C 0.51887 0.50063 0.19568 0.0
C265 C 0.49868 0.51772 0.20243 0.0
C266 C 0.52702 0.49775 0.16527 0.0
C267 C 0.55235 0.48482 0.15641 0.0
C268 C 0.54157 0.45767 0.13475 0.0
C269 C 0.56679 0.44829 0.12385 0.0
C270 C 0.60322 0.46597 0.13439 0.0
C271 C 0.61371 0.49254 0.15656 0.0
C272 C 0.58853 0.50195 0.16741 0.0
C273 C 0.4827 0.54353 0.12482 0.0
C274 C 0.509 0.57125 0.10689 0.0
C275 C 0.49795 0.58559 0.08371 0.0
C276 C 0.46036 0.57206 0.07776 0.0
C277 C 0.43411 0.54396 0.09566 0.0
C278 C 0.44521 0.53011 0.1192 0.0
C279 C 0.49448 0.52861 0.14949 0.0
C280 C 0.51384 0.51096 0.14254 0.0
C281 C 0.48755 0.53273 0.17975 0.0
C282 C 0.47332 0.55664 0.18831 0.0
C283 C 0.49441 0.59342 0.18209 0.0
C284 C 0.48193 0.61661 0.19053 0.0
C285 C 0.44813 0.60342 0.20539 0.0
C286 C 0.42686 0.56654 0.21148 0.0
C287 C 0.43957 0.5433 0.20325 0.0
C288 C 0.7179 0.42518 0.41337 0.0
O289 O 0.71824 0.4513 0.42679 0.0
Cd290 Cd 0.66348 0.45156 0.43975 0.0
O291 O 0.68773 0.39625 0.40853 0.0
Cd292 Cd 0.62173 0.37029 0.42236 0.0
C293 C 0.6155 0.42539 0.37264 0.0
O294 O 0.62875 0.39981 0.47037 0.0
O295 O 0.57456 0.37574 0.45068 0.0
O296 O 0.62196 0.31915 0.44419 0.0
C297 C 0.59516 0.39061 0.47321 0.0
O298 O 0.6342 0.44986 0.39176 0.0
C299 C 0.59674 0.29565 0.42777 0.0
O300 O 0.60694 0.39301 0.37746 0.0
O301 O 0.58308 0.30682 0.40796 0.0
C302 C 0.29574 0.5739 0.5765 0.0
O303 O 0.26927 0.54765 0.56313 0.0
Cd304 Cd 0.21589 0.54961 0.54801 0.0
O305 O 0.29624 0.60354 0.57932 0.0
Cd306 Cd 0.25919 0.63059 0.56252 0.0
C307 C 0.19683 0.57951 0.61399 0.0
O308 O 0.23545 0.59953 0.51471 0.0
O309 O 0.20628 0.62397 0.53409 0.0
O310 O 0.31792 0.68031 0.54604 0.0
C311 C 0.21136 0.60878 0.51173 0.0
O312 O 0.18824 0.55436 0.59507 0.0
C313 C 0.31215 0.70472 0.55573 0.0
O314 O 0.22342 0.61092 0.60867 0.0
O315 O 0.28189 0.69472 0.56921 0.0
C316 C 0.72853 0.29254 0.73838 0.0
O317 O 0.72767 0.2641 0.72954 0.0
Cd318 Cd 0.67162 0.21094 0.71457 0.0
O319 O 0.69911 0.29409 0.73928 0.0
Cd320 Cd 0.63313 0.25738 0.72822 0.0
C321 C 0.62237 0.19472 0.77975 0.0
O322 O 0.63954 0.23028 0.682 0.0
O323 O 0.58412 0.21068 0.69776 0.0
O324 O 0.63898 0.31359 0.71094 0.0
C325 C 0.60528 0.21006 0.6778 0.0
O326 O 0.63758 0.18416 0.76078 0.0
C327 C 0.61202 0.31082 0.72597 0.0
O328 O 0.61933 0.22218 0.77456 0.0
O329 O 0.59484 0.28303 0.74223 0.0
C330 C 0.2963 0.5868 0.9067 0.0
O331 O 0.29598 0.5599 0.91863 0.0
Cd332 Cd 0.34948 0.5614 0.93873 0.0
O333 O 0.32592 0.61698 0.90557 0.0
Cd334 Cd 0.39093 0.64322 0.92169 0.0
C335 C 0.40218 0.58818 0.87453 0.0
O336 O 0.38096 0.61319 0.97015 0.0
O337 O 0.43638 0.63872 0.95299 0.0
O338 O 0.38579 0.69438 0.93761 0.0
C339 C 0.41446 0.62278 0.97452 0.0
O340 O 0.38465 0.56432 0.89432 0.0
C341 C 0.41495 0.71799 0.92489 0.0
O342 O 0.40703 0.61968 0.87761 0.0
O343 O 0.433 0.70676 0.91003 0.0
C344 C 0.71525 0.44227 0.07986 0.0
O345 O 0.74421 0.4695 0.07016 0.0
Cd346 Cd 0.79652 0.46754 0.05117 0.0
O347 O 0.71205 0.41131 0.07869 0.0
Cd348 Cd 0.74776 0.38332 0.06092 0.0
C349 C 0.8135 0.43016 0.11298 0.0
O350 O 0.77377 0.41961 0.01546 0.0
O351 O 0.79485 0.385 0.02805 0.0
O352 O 0.6881 0.33366 0.04488 0.0
C353 C 0.79411 0.40656 0.00916 0.0
O354 O 0.82354 0.45711 0.0958 0.0
C355 C 0.69431 0.30931 0.05406 0.0
O356 O 0.78545 0.40007 0.10649 0.0
O357 O 0.72486 0.31942 0.06708 0.0
C358 C 0.28086 0.72298 0.23385 0.0
O359 O 0.28294 0.75121 0.22313 0.0
Cd360 Cd 0.34039 0.80297 0.2101 0.0
O361 O 0.30991 0.7211 0.23741 0.0
Cd362 Cd 0.3767 0.75828 0.22815 0.0
C363 C 0.38529 0.82087 0.27785 0.0
O364 O 0.37376 0.78307 0.17963 0.0
O365 O 0.42682 0.80905 0.2013 0.0
O366 O 0.37205 0.70265 0.21111 0.0
C367 C 0.40786 0.80554 0.17806 0.0
O368 O 0.37169 0.83111 0.25718 0.0
C369 C 0.39907 0.70572 0.22624 0.0
O370 O 0.38769 0.79276 0.27454 0.0
O371 O 0.41573 0.73338 0.24275 0.0
C372 C 0.20943 0.63233 0.26515 0.0
C373 C 0.17668 0.63343 0.26316 0.0
C374 C 0.24286 0.66122 0.25525 0.0
C375 C 0.24472 0.69219 0.24283 0.0
H376 H 0.20939 0.60943 0.2752 0.0
H377 H 0.26749 0.65935 0.2578 0.0
S378 S 0.16545 0.7064 0.23027 0.0
N379 N 0.1473 0.66653 0.24617 0.0
N380 N 0.20992 0.72091 0.22757 0.0
C381 C 0.21172 0.69296 0.23985 0.0
C382 C 0.17778 0.66357 0.25002 0.0
C383 C 0.57497 0.20955 0.46727 0.0
C384 C 0.5568 0.18337 0.44508 0.0
C385 C 0.58822 0.24581 0.46117 0.0
C386 C 0.58313 0.25713 0.43282 0.0
H387 H 0.57912 0.2019 0.48948 0.0
H388 H 0.60203 0.26506 0.47903 0.0
S389 S 0.5371 0.19861 0.36713 0.0
N390 N 0.53457 0.17073 0.39371 0.0
N391 N 0.55875 0.23907 0.38227 0.0
C392 C 0.56486 0.23109 0.41043 0.0
C393 C 0.55192 0.19415 0.41655 0.0
C394 C 0.35986 0.53748 0.58956 0.0
C395 C 0.37916 0.55551 0.61568 0.0
C396 C 0.33346 0.54413 0.5768 0.0
C397 C 0.32565 0.56948 0.58937 0.0
H398 H 0.36495 0.51775 0.57898 0.0
H399 H 0.31894 0.52914 0.55697 0.0
S400 S 0.36857 0.62418 0.65761 0.0
N401 N 0.38855 0.59976 0.65376 0.0
N402 N 0.33958 0.61312 0.6292 0.0
C403 C 0.34545 0.58852 0.61499 0.0
C404 C 0.37207 0.58137 0.62826 0.0
C405 C 0.8292 0.34983 0.75998 0.0
C406 C 0.83199 0.38238 0.76893 0.0
C407 C 0.79582 0.32119 0.74977 0.0
C408 C 0.76381 0.32388 0.74829 0.0
H409 H 0.85309 0.34649 0.76081 0.0
H410 H 0.79515 0.29664 0.74329 0.0
S411 S 0.75682 0.40373 0.76957 0.0
N412 N 0.80023 0.41586 0.77596 0.0
N413 N 0.73739 0.36229 0.75664 0.0
C414 C 0.76639 0.35655 0.75703 0.0
C415 C 0.80049 0.38573 0.76734 0.0
C416 C 0.4162 0.8033 0.94808 0.0
C417 C 0.45204 0.83026 0.94074 0.0
C418 C 0.40428 0.76717 0.94221 0.0
C419 C 0.42764 0.75667 0.92852 0.0
H420 H 0.39762 0.81008 0.95931 0.0
H421 H 0.37667 0.7473 0.94894 0.0
S422 S 0.52324 0.81768 0.9027 0.0
N423 N 0.51014 0.8446 0.91754 0.0
N424 N 0.4878 0.77668 0.9063 0.0
C425 C 0.46316 0.78361 0.92006 0.0
C426 C 0.47536 0.8204 0.92627 0.0
C427 C 0.66438 0.48757 0.11039 0.0
C428 C 0.63105 0.45877 0.12076 0.0
C429 C 0.69109 0.48184 0.09695 0.0
C430 C 0.68567 0.44703 0.09343 0.0
H431 H 0.66974 0.51483 0.11236 0.0
H432 H 0.71628 0.50506 0.08941 0.0
S433 S 0.60295 0.36242 0.11745 0.0
N434 N 0.59399 0.39425 0.12711 0.0
N435 N 0.64404 0.38317 0.1017 0.0
C436 C 0.65229 0.41789 0.10375 0.0
C437 C 0.62503 0.42382 0.1174 0.0
C438 C 0.34885 0.80246 0.53725 0.0
C439 C 0.38689 0.816 0.53366 0.0
C440 C 0.3251 0.76673 0.54537 0.0
C441 C 0.33833 0.74292 0.54968 0.0
H442 H 0.33708 0.81942 0.53316 0.0
H443 H 0.29598 0.75743 0.54735 0.0
S444 S 0.43569 0.76519 0.54566 0.0
N445 N 0.43695 0.80315 0.53744 0.0
N446 N 0.39192 0.73546 0.55137 0.0
C447 C 0.37626 0.75602 0.54663 0.0
C448 C 0.40062 0.79264 0.5389 0.0
C449 C 0.61047 0.39458 0.70194 0.0
C450 C 0.57737 0.38933 0.71422 0.0
C451 C 0.62184 0.36941 0.70646 0.0
C452 C 0.60062 0.3382 0.72361 0.0
H453 H 0.62701 0.41761 0.6878 0.0
H454 H 0.64711 0.37417 0.69588 0.0
S455 S 0.5133 0.31408 0.76298 0.0
N456 N 0.52473 0.35224 0.74587 0.0
N457 N 0.54597 0.30489 0.75457 0.0
C458 C 0.56817 0.3335 0.73707 0.0
C459 C 0.55656 0.35906 0.73229 0.0
C460 C 0.20155 0.54311 0.87164 0.0
C461 C 0.19368 0.5712 0.87015 0.0
C462 C 0.23487 0.54859 0.88329 0.0
C463 C 0.262 0.58253 0.89354 0.0
H464 H 0.18159 0.51645 0.86397 0.0
H465 H 0.23938 0.52597 0.88423 0.0
S466 S 0.25541 0.66522 0.89432 0.0
N467 N 0.21582 0.6343 0.87996 0.0
N468 N 0.27917 0.64492 0.90106 0.0
C469 C 0.25505 0.61119 0.89143 0.0
C470 C 0.22077 0.60547 0.87988 0.0
C471 C 0.65917 0.212 0.03502 0.0
C472 C 0.62082 0.19742 0.03274 0.0
C473 C 0.68248 0.24795 0.04274 0.0
C474 C 0.66853 0.27104 0.04788 0.0
H475 H 0.6715 0.19567 0.03029 0.0
H476 H 0.71181 0.25796 0.04383 0.0
S477 S 0.57034 0.24622 0.04694 0.0
N478 N 0.56984 0.20869 0.03836 0.0
N479 N 0.61407 0.27687 0.05145 0.0
C480 C 0.63036 0.25702 0.04592 0.0
C481 C 0.60642 0.22011 0.03865 0.0
C482 C 0.40063 0.62187 0.20274 0.0
C483 C 0.43478 0.6282 0.21349 0.0
C484 C 0.38902 0.64679 0.20758 0.0
C485 C 0.41102 0.67879 0.2236 0.0
H486 H 0.3833 0.59807 0.18961 0.0
H487 H 0.36285 0.64112 0.19822 0.0
S488 S 0.50158 0.70617 0.25859 0.0
N489 N 0.48955 0.66738 0.24233 0.0
N490 N 0.4678 0.71426 0.25168 0.0
C491 C 0.44466 0.68469 0.23547 0.0
C492 C 0.45656 0.65941 0.23031 0.0
C493 C 0.78777 0.42002 0.3629 0.0
C494 C 0.82117 0.44256 0.3777 0.0
C495 C 0.75411 0.41324 0.37518 0.0
C496 C 0.75289 0.42908 0.40247 0.0
H497 H 0.78775 0.40871 0.34117 0.0
H498 H 0.72909 0.39677 0.36261 0.0
S499 S 0.83201 0.48526 0.45225 0.0
N500 N 0.85043 0.4768 0.4229 0.0
N501 N 0.7874 0.46497 0.44544 0.0
C502 C 0.78588 0.4501 0.41817 0.0
C503 C 0.81997 0.45659 0.40592 0.0
C504 C 0.12619 0.57837 0.46406 0.0
C505 C 0.13789 0.57504 0.43522 0.0
C506 C 0.15036 0.58995 0.48854 0.0
C507 C 0.18697 0.598 0.48527 0.0
H508 H 0.09791 0.57134 0.46794 0.0
H509 H 0.13998 0.59173 0.51036 0.0
S510 S 0.23243 0.59678 0.41435 0.0
N511 N 0.1896 0.58357 0.4045 0.0
N512 N 0.23452 0.60376 0.45094 0.0
C513 C 0.19928 0.59526 0.45662 0.0
C514 C 0.17487 0.58413 0.43151 0.0
C515 C 0.59919 0.148 0.61484 0.0
C516 C 0.5631 0.13431 0.60398 0.0
C517 C 0.61287 0.17305 0.63832 0.0
C518 C 0.59084 0.18505 0.65206 0.0
H519 H 0.61679 0.13873 0.60557 0.0
H520 H 0.6406 0.18238 0.64625 0.0
S521 S 0.4959 0.1605 0.62998 0.0
N522 N 0.50678 0.13712 0.60709 0.0
N523 N 0.53208 0.18324 0.65187 0.0
C524 C 0.55504 0.17224 0.64102 0.0
C525 C 0.54127 0.14711 0.61685 0.0
C526 C 0.45031 0.59667 0.79991 0.0
C527 C 0.4415 0.56123 0.79393 0.0
C528 C 0.43764 0.60523 0.82604 0.0
C529 C 0.41605 0.5787 0.84731 0.0
H530 H 0.46662 0.6178 0.78404 0.0
H531 H 0.44478 0.63285 0.82951 0.0
S532 S 0.38768 0.48202 0.84259 0.0
N533 N 0.41156 0.49976 0.81167 0.0
N534 N 0.38766 0.51543 0.86068 0.0
C535 C 0.40777 0.54318 0.84169 0.0
C536 C 0.42049 0.53457 0.81504 0.0
C537 C 0.85556 0.46517 0.94619 0.0
C538 C 0.86986 0.44445 0.93421 0.0
C539 C 0.83021 0.45233 0.9699 0.0
C540 C 0.81853 0.41844 0.98265 0.0
H541 H 0.86483 0.49194 0.93777 0.0
H542 H 0.82062 0.46954 0.97892 0.0
S543 S 0.84402 0.35191 0.95692 0.0
N544 N 0.86752 0.38691 0.93485 0.0
N545 N 0.82073 0.36321 0.97994 0.0
C546 C 0.83159 0.39696 0.9702 0.0
C547 C 0.85705 0.40985 0.94587 0.0
C548 C 0.46693 0.88902 0.13211 0.0
C549 C 0.45233 0.87882 0.10295 0.0
C550 C 0.45302 0.86485 0.15614 0.0
C551 C 0.42361 0.82975 0.15203 0.0
H552 H 0.48869 0.91618 0.1366 0.0
H553 H 0.46468 0.8741 0.17828 0.0
S554 S 0.37824 0.78831 0.07982 0.0
N555 N 0.40909 0.82995 0.07096 0.0
N556 N 0.38196 0.78507 0.11645 0.0
C557 C 0.4093 0.81886 0.12298 0.0
C558 C 0.42387 0.84325 0.09838 0.0
C559 C 0.55579 0.42102 0.30697 0.0
C560 C 0.57691 0.45489 0.29345 0.0
C561 C 0.56889 0.41114 0.33209 0.0
C562 C 0.60335 0.43496 0.34477 0.0
H563 H 0.52848 0.40242 0.29866 0.0
H564 H 0.55138 0.38519 0.34226 0.0
S565 S 0.67143 0.5246 0.31534 0.0
N566 N 0.63578 0.51049 0.2926 0.0
N567 N 0.65974 0.49243 0.34037 0.0
C568 C 0.62529 0.4683 0.33081 0.0
C569 C 0.61224 0.47813 0.30502 0.0
C570 C 0.40985 0.8448 0.36009 0.0
C571 C 0.42385 0.88201 0.36034 0.0
C572 C 0.39776 0.82517 0.33323 0.0
C573 C 0.39855 0.84204 0.30592 0.0
H574 H 0.40878 0.83094 0.38069 0.0
H575 H 0.38735 0.79654 0.33392 0.0
S576 S 0.43259 0.93912 0.29517 0.0
N577 N 0.43799 0.93507 0.33141 0.0
N578 N 0.41465 0.89832 0.28104 0.0
C579 C 0.41219 0.87926 0.30611 0.0
C580 C 0.42501 0.89922 0.33331 0.0
C581 C 0.54042 0.41801 0.52313 0.0
C582 C 0.55769 0.42307 0.55126 0.0
C583 C 0.55209 0.40661 0.49812 0.0
C584 C 0.58177 0.40034 0.50024 0.0
H585 H 0.51832 0.42377 0.52018 0.0
H586 H 0.53845 0.40374 0.4768 0.0
S587 S 0.63357 0.40564 0.56937 0.0
N588 N 0.60369 0.41758 0.5803 0.0
N589 N 0.62647 0.39742 0.53303 0.0
C590 C 0.59865 0.40434 0.52834 0.0
C591 C 0.58642 0.41541 0.5539 0.0
C592 C 0.16062 0.59458 0.68762 0.0
C593 C 0.13521 0.55959 0.69699 0.0
C594 C 0.18068 0.60073 0.66097 0.0
C595 C 0.17576 0.57212 0.64245 0.0
H596 H 0.16505 0.61738 0.70103 0.0
H597 H 0.19987 0.6282 0.65471 0.0
S598 S 0.11173 0.47528 0.65703 0.0
N599 N 0.10572 0.49598 0.68576 0.0
N600 N 0.14331 0.50724 0.63577 0.0
C601 C 0.15036 0.53691 0.65172 0.0
C602 C 0.13016 0.53073 0.67896 0.0
C603 C 0.58191 0.11729 0.83477 0.0
C604 C 0.58179 0.13376 0.86193 0.0
C605 C 0.59514 0.13732 0.80835 0.0
C606 C 0.608 0.17441 0.80803 0.0
H607 H 0.57212 0.08877 0.83407 0.0
H608 H 0.595 0.12356 0.78795 0.0
S609 S 0.61284 0.22985 0.87355 0.0
N610 N 0.59552 0.18892 0.88729 0.0
N611 N 0.61961 0.22672 0.8374 0.0
C612 C 0.60752 0.19108 0.83508 0.0
C613 C 0.59467 0.17071 0.86212 0.0
C614 C 0.467 0.59269 0.02436 0.0
C615 C 0.44879 0.58632 0.05215 0.0
C616 C 0.45618 0.6052 -0.00043 0.0
C617 C 0.42636 0.61129 0.00145 0.0
H618 H 0.48939 0.58732 0.0215 0.0
H619 H 0.47074 0.60924 0.97856 0.0
S620 S 0.37152 0.60196 0.06955 0.0
N621 N 0.40126 0.58987 0.0806 0.0
N622 N 0.38 0.61197 0.03357 0.0
C623 C 0.40821 0.60558 0.02912 0.0
C624 C 0.41962 0.59342 0.05455 0.0
C625 C 0.88002 0.47531 0.17756 0.0
C626 C 0.87455 0.44651 0.19584 0.0
C627 C 0.86039 0.46958 0.15081 0.0
C628 C 0.8342 0.43477 0.14128 0.0
H629 H 0.90003 0.50257 0.1838 0.0
H630 H 0.86574 0.49282 0.13762 0.0
S631 S 0.80935 0.35017 0.18164 0.0
N632 N 0.84106 0.38197 0.20302 0.0
N633 N 0.80387 0.37092 0.15264 0.0
C634 C 0.82838 0.40563 0.15949 0.0
C635 C 0.84866 0.41156 0.18673 0.0
loop_
_geom_bond_atom_site_label_1
_geom_bond_atom_site_label_2
_geom_bond_distance
_geom_bond_site_symmetry_2
_ccdc_geom_bond_type
H0 C19 0.949 . S
H1 C20 0.950 . S
H2 C22 0.950 . S
H3 C23 0.950 . S
H4 C25 0.950 . S
H5 C28 0.950 . S
H6 C29 0.950 . S
H7 C31 0.951 . S
H8 C32 0.949 . S
H9 C34 0.949 . S
H10 C35 0.950 . S
H11 C37 0.950 . S
H12 C38 0.950 . S
H13 C40 0.950 1_655 S
H14 C43 0.950 . S
H15 C44 0.950 . S
H16 C46 0.951 . S
H17 C47 0.949 . S
C18 C19 1.376 . S
C18 C23 1.386 . S
C18 C24 1.483 . S
C19 H0 0.949 . S
C19 C18 1.376 . S
C19 C20 1.397 . S
C20 H1 0.950 . S
C20 C19 1.397 . S
C20 C21 1.391 . S
C21 C20 1.391 . S
C21 C22 1.405 . S
C22 H2 0.950 . S
C22 C21 1.405 . S
C22 C23 1.367 . S
C23 H3 0.950 . S
C23 C18 1.386 . S
C23 C22 1.367 . S
C24 C18 1.483 . S
C24 C25 1.382 1_655 S
C24 C26 1.403 . S
C25 H4 0.950 . S
C25 C24 1.382 1_455 S
C25 C41 1.411 . S
C26 C24 1.403 . S
C26 C27 1.489 . S
C26 C40 1.411 1_655 S
C27 C26 1.489 . S
C27 C28 1.383 . S
C27 C32 1.382 . S
C28 H5 0.950 . S
C28 C27 1.383 . S
C28 C29 1.395 . S
C29 H6 0.950 . S
C29 C28 1.395 . S
C29 C30 1.288 . S
C30 C29 1.288 . S
C30 C31 1.392 . S
C31 H7 0.951 . S
C31 C30 1.392 . S
C31 C32 1.392 . S
C32 H8 0.949 . S
C32 C27 1.382 . S
C32 C31 1.392 . S
C33 C34 1.376 . S
C33 C38 1.386 . S
C33 C39 1.483 . S
C34 H9 0.949 . S
C34 C33 1.376 . S
C34 C35 1.397 . S
C35 H10 0.950 . S
C35 C34 1.397 . S
C35 C36 1.391 . S
C36 C35 1.391 . S
C36 C37 1.405 . S
C37 H11 0.950 . S
C37 C36 1.405 . S
C37 C38 1.367 . S
C38 H12 0.950 . S
C38 C33 1.386 . S
C38 C37 1.367 . S
C39 C33 1.483 . S
C39 C40 1.382 . S
C39 C41 1.403 . S
C40 H13 0.950 1_455 S
C40 C26 1.411 1_455 S
C40 C39 1.382 . S
C41 C25 1.411 . S
C41 C39 1.403 . S
C41 C42 1.489 . S
C42 C41 1.489 . S
C42 C43 1.383 . S
C42 C47 1.382 . S
C43 H14 0.950 . S
C43 C42 1.383 . S
C43 C44 1.395 . S
C44 H15 0.950 . S
C44 C43 1.395 . S
C44 C45 1.288 . S
C45 C44 1.288 . S
C45 C46 1.392 . S
C46 H16 0.951 . S
C46 C45 1.392 . S
C46 C47 1.392 . S
C47 H17 0.949 . S
C47 C42 1.382 . S
C47 C46 1.392 . S
H48 C67 0.949 . S
H49 C68 0.950 . S
H50 C70 0.950 . S
H51 C71 0.950 . S
H52 C73 0.949 . S
H53 C76 0.950 . S
H54 C77 0.950 . S
H55 C79 0.951 . S
H56 C80 0.949 . S
H57 C82 0.949 . S
H58 C83 0.950 . S
H59 C85 0.950 . S
H60 C86 0.950 . S
H61 C88 0.950 . S
H62 C91 0.950 . S
H63 C92 0.950 . S
H64 C94 0.951 . S
H65 C95 0.949 . S
C66 C67 1.376 . S
C66 C71 1.386 . S
C66 C72 1.483 . S
C67 H48 0.949 . S
C67 C66 1.376 . S
C67 C68 1.397 . S
C68 H49 0.950 . S
C68 C67 1.397 . S
C68 C69 1.391 . S
C69 C68 1.391 . S
C69 C70 1.405 . S
C70 H50 0.950 . S
C70 C69 1.405 . S
C70 C71 1.367 . S
C71 H51 0.950 . S
C71 C66 1.386 . S
C71 C70 1.367 . S
C72 C66 1.483 . S
C72 C73 1.379 . S
C72 C74 1.403 . S
C73 H52 0.949 . S
C73 C72 1.379 . S
C73 C89 1.414 1_565 S
C74 C72 1.403 . S
C74 C75 1.489 . S
C74 C88 1.411 1_565 S
C75 C74 1.489 . S
C75 C76 1.383 . S
C75 C80 1.382 . S
C76 H53 0.950 . S
C76 C75 1.383 . S
C76 C77 1.395 . S
C77 H54 0.950 . S
C77 C76 1.395 . S
C77 C78 1.288 . S
C78 C77 1.288 . S
C78 C79 1.392 . S
C79 H55 0.951 . S
C79 C78 1.392 . S
C79 C80 1.392 . S
C80 H56 0.949 . S
C80 C75 1.382 . S
C80 C79 1.392 . S
C81 C82 1.376 . S
C81 C86 1.386 . S
C81 C87 1.483 . S
C82 H57 0.949 . S
C82 C81 1.376 . S
C82 C83 1.397 . S
C83 H58 0.950 . S
C83 C82 1.397 . S
C83 C84 1.391 . S
C84 C83 1.391 . S
C84 C85 1.405 . S
C85 H59 0.950 . S
C85 C84 1.405 . S
C85 C86 1.367 . S
C86 H60 0.950 . S
C86 C81 1.386 . S
C86 C85 1.367 . S
C87 C81 1.483 . S
C87 C88 1.382 . S
C87 C89 1.403 . S
C88 H61 0.950 . S
C88 C74 1.411 1_545 S
C88 C87 1.382 . S
C89 C73 1.414 1_545 S
C89 C87 1.403 . S
C89 C90 1.489 . S
C90 C89 1.489 . S
C90 C91 1.383 . S
C90 C95 1.382 . S
C91 H62 0.950 . S
C91 C90 1.383 . S
C91 C92 1.395 . S
C92 H63 0.950 . S
C92 C91 1.395 . S
C92 C93 1.288 . S
C93 C92 1.288 . S
C93 C94 1.392 . S
C94 H64 0.951 . S
C94 C93 1.392 . S
C94 C95 1.392 . S
C95 H65 0.949 . S
C95 C90 1.382 . S
C95 C94 1.392 . S
H96 C115 0.949 . S
H97 C116 0.950 . S
H98 C118 0.950 . S
H99 C119 0.950 . S
H100 C121 0.950 . S
H101 C124 0.950 . S
H102 C125 0.950 . S
H103 C127 0.951 . S
H104 C128 0.949 . S
H105 C130 0.949 . S
H106 C131 0.950 . S
H107 C133 0.950 . S
H108 C134 0.950 . S
H109 C136 0.950 . S
H110 C139 0.950 . S
H111 C140 0.950 . S
H112 C142 0.951 . S
H113 C143 0.949 . S
C114 C115 1.376 . S
C114 C119 1.386 . S
C114 C120 1.483 . S
C115 H96 0.949 . S
C115 C114 1.376 . S
C115 C116 1.397 . S
C116 H97 0.950 . S
C116 C115 1.397 . S
C116 C117 1.391 . S
C117 C116 1.391 . S
C117 C118 1.405 . S
C118 H98 0.950 . S
C118 C117 1.405 . S
C118 C119 1.367 . S
C119 H99 0.950 . S
C119 C114 1.386 . S
C119 C118 1.367 . S
C120 C114 1.483 . S
C120 C121 1.382 . S
C120 C122 1.403 . S
C121 H100 0.950 . S
C121 C120 1.382 . S
C121 C137 1.411 . S
C122 C120 1.403 . S
C122 C123 1.489 . S
C122 C136 1.411 . S
C123 C122 1.489 . S
C123 C124 1.383 . S
C123 C128 1.382 . S
C124 H101 0.950 . S
C124 C123 1.383 . S
C124 C125 1.395 . S
C125 H102 0.950 . S
C125 C124 1.395 . S
C125 C126 1.288 . S
C126 C125 1.288 . S
C126 C127 1.392 . S
C127 H103 0.951 . S
C127 C126 1.392 . S
C127 C128 1.392 . S
C128 H104 0.949 . S
C128 C123 1.382 . S
C128 C127 1.392 . S
C129 C130 1.376 . S
C129 C134 1.386 . S
C129 C135 1.483 . S
C130 H105 0.949 . S
C130 C129 1.376 . S
C130 C131 1.397 . S
C131 H106 0.950 . S
C131 C130 1.397 . S
C131 C132 1.391 . S
C132 C131 1.391 . S
C132 C133 1.405 . S
C133 H107 0.950 . S
C133 C132 1.405 . S
C133 C134 1.367 . S
C134 H108 0.950 . S
C134 C129 1.386 . S
C134 C133 1.367 . S
C135 C129 1.483 . S
C135 C136 1.382 . S
C135 C137 1.403 . S
C136 H109 0.950 . S
C136 C122 1.411 . S
C136 C135 1.382 . S
C137 C121 1.411 . S
C137 C135 1.403 . S
C137 C138 1.489 . S
C138 C137 1.489 . S
C138 C139 1.383 . S
C138 C143 1.382 . S
C139 H110 0.950 . S
C139 C138 1.383 . S
C139 C140 1.395 . S
C140 H111 0.950 . S
C140 C139 1.395 . S
C140 C141 1.288 . S
C141 C140 1.288 . S
C141 C142 1.392 . S
C142 H112 0.951 . S
C142 C141 1.392 . S
C142 C143 1.392 . S
C143 H113 0.949 . S
C143 C138 1.382 . S
C143 C142 1.392 . S
H144 C163 0.949 . S
H145 C164 0.950 . S
H146 C166 0.950 . S
H147 C167 0.950 . S
H148 C169 0.950 . S
H149 C172 0.950 . S
H150 C173 0.950 . S
H151 C175 0.951 . S
H152 C176 0.949 . S
H153 C178 0.949 . S
H154 C179 0.950 . S
H155 C181 0.950 . S
H156 C182 0.950 . S
H157 C184 0.950 . S
H158 C187 0.950 . S
H159 C188 0.950 . S
H160 C190 0.951 . S
H161 C191 0.949 . S
C162 C163 1.376 . S
C162 C167 1.386 . S
C162 C168 1.483 . S
C163 H144 0.949 . S
C163 C162 1.376 . S
C163 C164 1.397 . S
C164 H145 0.950 . S
C164 C163 1.397 . S
C164 C165 1.391 . S
C165 C164 1.391 . S
C165 C166 1.405 . S
C166 H146 0.950 . S
C166 C165 1.405 . S
C166 C167 1.367 . S
C167 H147 0.950 . S
C167 C162 1.386 . S
C167 C166 1.367 . S
C168 C162 1.483 . S
C168 C169 1.382 1_455 S
C168 C170 1.403 . S
C169 H148 0.950 . S
C169 C168 1.382 1_655 S
C169 C185 1.411 . S
C170 C168 1.403 . S
C170 C171 1.489 . S
C170 C184 1.411 . S
C171 C170 1.489 . S
C171 C172 1.383 . S
C171 C176 1.382 . S
C172 H149 0.950 . S
C172 C171 1.383 . S
C172 C173 1.395 . S
C173 H150 0.950 . S
C173 C172 1.395 . S
C173 C174 1.288 . S
C174 C173 1.288 . S
C174 C175 1.392 . S
C175 H151 0.951 . S
C175 C174 1.392 . S
C175 C176 1.392 . S
C176 H152 0.949 . S
C176 C171 1.382 . S
C176 C175 1.392 . S
C177 C178 1.376 . S
C177 C182 1.386 . S
C177 C183 1.483 . S
C178 H153 0.949 . S
C178 C177 1.376 . S
C178 C179 1.397 . S
C179 H154 0.950 . S
C179 C178 1.397 . S
C179 C180 1.391 . S
C180 C179 1.391 . S
C180 C181 1.405 . S
C181 H155 0.950 . S
C181 C180 1.405 . S
C181 C182 1.367 . S
C182 H156 0.950 . S
C182 C177 1.386 . S
C182 C181 1.367 . S
C183 C177 1.483 . S
C183 C184 1.382 1_655 S
C183 C185 1.403 . S
C184 H157 0.950 . S
C184 C170 1.411 . S
C184 C183 1.382 1_455 S
C185 C169 1.411 . S
C185 C183 1.403 . S
C185 C186 1.489 . S
C186 C185 1.489 . S
C186 C187 1.383 . S
C186 C191 1.382 . S
C187 H158 0.950 . S
C187 C186 1.383 . S
C187 C188 1.395 . S
C188 H159 0.950 . S
C188 C187 1.395 . S
C188 C189 1.288 . S
C189 C188 1.288 . S
C189 C190 1.392 . S
C190 H160 0.951 . S
C190 C189 1.392 . S
C190 C191 1.392 . S
C191 H161 0.949 . S
C191 C186 1.382 . S
C191 C190 1.392 . S
H192 C211 0.949 . S
H193 C212 0.950 . S
H194 C214 0.950 . S
H195 C215 0.950 1_556 S
H196 C217 0.950 . S
H197 C220 0.950 . S
H198 C221 0.950 . S
H199 C223 0.951 . S
H200 C224 0.949 . S
H201 C226 0.949 . S
H202 C227 0.950 . S
H203 C229 0.950 . S
H204 C230 0.961 . S
H205 C232 0.950 . S
H206 C235 0.950 . S
H207 C236 0.950 . S
H208 C238 0.951 . S
H209 C239 0.949 . S
C210 C211 1.376 . S
C210 C215 1.386 . S
C210 C216 1.488 . S
C211 H192 0.949 . S
C211 C210 1.376 . S
C211 C212 1.397 . S
C212 H193 0.950 . S
C212 C211 1.397 . S
C212 C213 1.391 . S
C213 C212 1.391 . S
C213 C214 1.405 . S
C214 H194 0.950 . S
C214 C213 1.405 . S
C214 C215 1.367 . S
C215 H195 0.950 1_554 S
C215 C210 1.386 . S
C215 C214 1.367 . S
C216 C210 1.488 . S
C216 C217 1.396 . S
C216 C218 1.384 1_554 S
C217 H196 0.950 . S
C217 C216 1.396 . S
C217 C233 1.411 1_545 S
C218 C216 1.384 1_556 S
C218 C219 1.489 . S
C218 C232 1.411 1_545 S
C219 C218 1.489 . S
C219 C220 1.383 . S
C219 C224 1.382 . S
C220 H197 0.950 . S
C220 C219 1.383 . S
C220 C221 1.395 . S
C221 H198 0.950 . S
C221 C220 1.395 . S
C221 C222 1.288 . S
C222 C221 1.288 . S
C222 C223 1.392 . S
C223 H199 0.951 . S
C223 C222 1.392 . S
C223 C224 1.392 . S
C224 H200 0.949 . S
C224 C219 1.382 . S
C224 C223 1.392 . S
C225 C226 1.376 . S
C225 C230 1.386 . S
C225 C231 1.483 . S
C226 H201 0.949 . S
C226 C225 1.376 . S
C226 C227 1.397 . S
C227 H202 0.950 . S
C227 C226 1.397 . S
C227 C228 1.391 . S
C228 C227 1.391 . S
C228 C229 1.405 . S
C229 H203 0.950 . S
C229 C228 1.405 . S
C229 C230 1.367 . S
C230 H204 0.961 . S
C230 C225 1.386 . S
C230 C229 1.367 . S
C231 C225 1.483 . S
C231 C232 1.382 . S
C231 C233 1.403 1_556 S
C232 H205 0.950 . S
C232 C218 1.411 1_565 S
C232 C231 1.382 . S
C233 C217 1.411 1_565 S
C233 C231 1.403 1_554 S
C233 C234 1.489 . S
C234 C233 1.489 . S
C234 C235 1.383 . S
C234 C239 1.382 . S
C235 H206 0.950 . S
C235 C234 1.383 . S
C235 C236 1.395 . S
C236 H207 0.950 . S
C236 C235 1.395 . S
C236 C237 1.288 . S
C237 C236 1.288 . S
C237 C238 1.392 . S
C238 H208 0.951 . S
C238 C237 1.392 . S
C238 C239 1.392 . S
C239 H209 0.949 . S
C239 C234 1.382 . S
C239 C238 1.392 . S
H240 C259 0.949 . S
H241 C260 0.950 . S
H242 C262 0.950 . S
H243 C263 0.950 . S
H244 C265 0.950 . S
H245 C268 0.950 . S
H246 C269 0.950 . S
H247 C271 0.951 . S
H248 C272 0.949 . S
H249 C274 0.949 . S
H250 C275 0.950 . S
H251 C277 0.950 . S
H252 C278 0.950 . S
H253 C280 0.950 . S
H254 C283 0.950 . S
H255 C284 0.950 . S
H256 C286 0.951 . S
H257 C287 0.949 . S
C258 C259 1.376 . S
C258 C263 1.386 . S
C258 C264 1.483 . S
C259 H240 0.949 . S
C259 C258 1.376 . S
C259 C260 1.397 . S
C260 H241 0.950 . S
C260 C259 1.397 . S
C260 C261 1.391 . S
C261 C260 1.391 . S
C261 C262 1.405 . S
C262 H242 0.950 . S
C262 C261 1.405 . S
C262 C263 1.367 . S
C263 H243 0.950 . S
C263 C258 1.386 . S
C263 C262 1.367 . S
C264 C258 1.483 . S
C264 C265 1.382 . S
C264 C266 1.403 . S
C265 H244 0.950 . S
C265 C264 1.382 . S
C265 C281 1.411 . S
C266 C264 1.403 . S
C266 C267 1.489 . S
C266 C280 1.411 . S
C267 C266 1.489 . S
C267 C268 1.383 . S
C267 C272 1.382 . S
C268 H245 0.950 . S
C268 C267 1.383 . S
C268 C269 1.395 . S
C269 H246 0.950 . S
C269 C268 1.395 . S
C269 C270 1.288 . S
C270 C269 1.288 . S
C270 C271 1.392 . S
C271 H247 0.951 . S
C271 C270 1.392 . S
C271 C272 1.392 . S
C272 H248 0.949 . S
C272 C267 1.382 . S
C272 C271 1.392 . S
C273 C274 1.376 . S
C273 C278 1.386 . S
C273 C279 1.483 . S
C274 H249 0.949 . S
C274 C273 1.376 . S
C274 C275 1.397 . S
C275 H250 0.950 . S
C275 C274 1.397 . S
C275 C276 1.391 . S
C276 C275 1.391 . S
C276 C277 1.405 . S
C277 H251 0.950 . S
C277 C276 1.405 . S
C277 C278 1.367 . S
C278 H252 0.950 . S
C278 C273 1.386 . S
C278 C277 1.367 . S
C279 C273 1.483 . S
C279 C280 1.382 . S
C279 C281 1.403 . S
C280 H253 0.950 . S
C280 C266 1.411 . S
C280 C279 1.382 . S
C281 C265 1.411 . S
C281 C279 1.403 . S
C281 C282 1.489 . S
C282 C281 1.489 . S
C282 C283 1.383 . S
C282 C287 1.382 . S
C283 H254 0.950 . S
C283 C282 1.383 . S
C283 C284 1.395 . S
C284 H255 0.950 . S
C284 C283 1.395 . S
C284 C285 1.288 . S
C285 C284 1.288 . S
C285 C286 1.392 . S
C286 H256 0.951 . S
C286 C285 1.392 . S
C286 C287 1.392 . S
C287 H257 0.949 . S
C287 C282 1.382 . S
C287 C286 1.392 . S
C288 O289 1.306 . S
C288 O291 1.160 . S
O289 C288 1.306 . S
O289 Cd290 2.228 . S
Cd290 O289 2.228 . S
Cd290 O294 2.273 . S
Cd290 O298 2.277 . S
O291 C288 1.160 . S
O291 Cd292 2.203 . S
Cd292 O291 2.203 . S
Cd292 O294 2.411 . S
Cd292 O295 2.333 . S
Cd292 O296 2.352 . S
Cd292 O300 2.277 . S
Cd292 O301 2.356 . S
C293 O298 1.209 . S
C293 O300 1.226 . S
O294 Cd290 2.273 . S
O294 Cd292 2.411 . S
O294 C297 1.320 . S
O295 Cd292 2.333 . S
O295 C297 1.214 . S
O296 Cd292 2.352 . S
O296 C299 1.258 . S
C297 O294 1.320 . S
C297 O295 1.214 . S
O298 Cd290 2.277 . S
O298 C293 1.209 . S
C299 O296 1.258 . S
C299 O301 1.282 . S
O300 Cd292 2.277 . S
O300 C293 1.226 . S
O301 Cd292 2.356 . S
O301 C299 1.282 . S
C302 O303 1.306 . S
C302 O305 1.160 . S
O303 C302 1.306 . S
O303 Cd304 2.228 . S
Cd304 O303 2.228 . S
Cd304 O308 2.273 . S
Cd304 O312 2.277 . S
O305 C302 1.160 . S
O305 Cd306 2.203 . S
Cd306 O305 2.203 . S
Cd306 O308 2.411 . S
Cd306 O309 2.333 . S
Cd306 O310 2.352 . S
Cd306 O314 2.277 . S
Cd306 O315 2.356 . S
C307 O312 1.209 . S
C307 O314 1.226 . S
O308 Cd304 2.273 . S
O308 Cd306 2.411 . S
O308 C311 1.320 . S
O309 Cd306 2.333 . S
O309 C311 1.214 . S
O310 Cd306 2.352 . S
O310 C313 1.258 . S
C311 O308 1.320 . S
C311 O309 1.214 . S
O312 Cd304 2.277 . S
O312 C307 1.209 . S
C313 O310 1.258 . S
C313 O315 1.282 . S
O314 Cd306 2.277 . S
O314 C307 1.226 . S
O315 Cd306 2.356 . S
O315 C313 1.282 . S
C316 O317 1.306 . S
C316 O319 1.160 . S
O317 C316 1.306 . S
O317 Cd318 2.228 . S
Cd318 O317 2.228 . S
Cd318 O322 2.273 . S
Cd318 O326 2.277 . S
O319 C316 1.160 . S
O319 Cd320 2.203 . S
Cd320 O319 2.203 . S
Cd320 O322 2.411 . S
Cd320 O323 2.333 . S
Cd320 O324 2.352 . S
Cd320 O328 2.277 . S
Cd320 O329 2.356 . S
C321 O326 1.209 . S
C321 O328 1.226 . S
O322 Cd318 2.273 . S
O322 Cd320 2.411 . S
O322 C325 1.320 . S
O323 Cd320 2.333 . S
O323 C325 1.214 . S
O324 Cd320 2.352 . S
O324 C327 1.258 . S
C325 O322 1.320 . S
C325 O323 1.214 . S
O326 Cd318 2.277 . S
O326 C321 1.209 . S
C327 O324 1.258 . S
C327 O329 1.282 . S
O328 Cd320 2.277 . S
O328 C321 1.226 . S
O329 Cd320 2.356 . S
O329 C327 1.282 . S
C330 O331 1.306 . S
C330 O333 1.160 . S
O331 C330 1.306 . S
O331 Cd332 2.228 . S
Cd332 O331 2.228 . S
Cd332 O336 2.273 . S
Cd332 O340 2.277 . S
O333 C330 1.160 . S
O333 Cd334 2.203 . S
Cd334 O333 2.203 . S
Cd334 O336 2.411 . S
Cd334 O337 2.333 . S
Cd334 O338 2.352 . S
Cd334 O342 2.277 . S
Cd334 O343 2.356 . S
C335 O340 1.209 . S
C335 O342 1.226 . S
O336 Cd332 2.273 . S
O336 Cd334 2.411 . S
O336 C339 1.320 . S
O337 Cd334 2.333 . S
O337 C339 1.214 . S
O338 Cd334 2.352 . S
O338 C341 1.258 . S
C339 O336 1.320 . S
C339 O337 1.214 . S
O340 Cd332 2.277 . S
O340 C335 1.209 . S
C341 O338 1.258 . S
C341 O343 1.282 . S
O342 Cd334 2.277 . S
O342 C335 1.226 . S
O343 Cd334 2.356 . S
O343 C341 1.282 . S
C344 O345 1.306 . S
C344 O347 1.160 . S
O345 C344 1.306 . S
O345 Cd346 2.228 . S
Cd346 O345 2.228 . S
Cd346 O350 2.273 . S
Cd346 O354 2.277 . S
O347 C344 1.160 . S
O347 Cd348 2.203 . S
Cd348 O347 2.203 . S
Cd348 O350 2.411 . S
Cd348 O351 2.333 . S
Cd348 O352 2.352 . S
Cd348 O356 2.277 . S
Cd348 O357 2.356 . S
C349 O354 1.209 . S
C349 O356 1.226 . S
O350 Cd346 2.273 . S
O350 Cd348 2.411 . S
O350 C353 1.320 . S
O351 Cd348 2.333 . S
O351 C353 1.214 . S
O352 Cd348 2.352 . S
O352 C355 1.258 . S
C353 O350 1.320 . S
C353 O351 1.214 . S
O354 Cd346 2.277 . S
O354 C349 1.209 . S
C355 O352 1.258 . S
C355 O357 1.282 . S
O356 Cd348 2.277 . S
O356 C349 1.226 . S
O357 Cd348 2.356 . S
O357 C355 1.282 . S
C358 O359 1.306 . S
C358 O361 1.160 . S
O359 C358 1.306 . S
O359 Cd360 2.228 . S
Cd360 O359 2.228 . S
Cd360 O364 2.273 . S
Cd360 O368 2.277 . S
O361 C358 1.160 . S
O361 Cd362 2.203 . S
Cd362 O361 2.203 . S
Cd362 O364 2.411 . S
Cd362 O365 2.333 . S
Cd362 O366 2.352 . S
Cd362 O370 2.277 . S
Cd362 O371 2.356 . S
C363 O368 1.209 . S
C363 O370 1.226 . S
O364 Cd360 2.273 . S
O364 Cd362 2.411 . S
O364 C367 1.320 . S
O365 Cd362 2.333 . S
O365 C367 1.214 . S
O366 Cd362 2.352 . S
O366 C369 1.258 . S
C367 O364 1.320 . S
C367 O365 1.214 . S
O368 Cd360 2.277 . S
O368 C363 1.209 . S
C369 O366 1.258 . S
C369 O371 1.282 . S
O370 Cd362 2.277 . S
O370 C363 1.226 . S
O371 Cd362 2.356 . S
O371 C369 1.282 . S
C372 C373 1.369 . S
C372 C374 1.419 . S
C372 H376 0.930 . S
C373 C372 1.369 . S
C373 C382 1.429 . S
C374 C372 1.419 . S
C374 C375 1.363 . S
C374 H377 0.929 . S
C375 C374 1.363 . S
C375 C381 1.428 . S
H376 C372 0.930 . S
H377 C374 0.929 . S
S378 N379 1.613 . S
S378 N380 1.610 . S
N379 S378 1.613 . S
N379 C382 1.350 . S
N380 S378 1.610 . S
N380 C381 1.351 . S
C381 C375 1.428 . S
C381 N380 1.351 . S
C381 C382 1.434 . S
C382 C373 1.429 . S
C382 N379 1.350 . S
C382 C381 1.434 . S
C383 C384 1.369 . S
C383 C385 1.419 . S
C383 H387 0.930 . S
C384 C383 1.369 . S
C384 C393 1.429 . S
C385 C383 1.419 . S
C385 C386 1.363 . S
C385 H388 0.929 . S
C386 C385 1.363 . S
C386 C392 1.428 . S
H387 C383 0.930 . S
H388 C385 0.929 . S
S389 N390 1.613 . S
S389 N391 1.610 . S
N390 S389 1.613 . S
N390 C393 1.350 . S
N391 S389 1.610 . S
N391 C392 1.351 . S
C392 C386 1.428 . S
C392 N391 1.351 . S
C392 C393 1.434 . S
C393 C384 1.429 . S
C393 N390 1.350 . S
C393 C392 1.434 . S
C394 C395 1.369 . S
C394 C396 1.419 . S
C394 H398 0.930 . S
C395 C394 1.369 . S
C395 C404 1.429 . S
C396 C394 1.419 . S
C396 C397 1.363 . S
C396 H399 0.929 . S
C397 C396 1.363 . S
C397 C403 1.428 . S
H398 C394 0.930 . S
H399 C396 0.929 . S
S400 N401 1.613 . S
S400 N402 1.610 . S
N401 S400 1.613 . S
N401 C404 1.350 . S
N402 S400 1.610 . S
N402 C403 1.351 . S
C403 C397 1.428 . S
C403 N402 1.351 . S
C403 C404 1.434 . S
C404 C395 1.429 . S
C404 N401 1.350 . S
C404 C403 1.434 . S
C405 C406 1.369 . S
C405 C407 1.419 . S
C405 H409 0.930 . S
C406 C405 1.369 . S
C406 C415 1.429 . S
C407 C405 1.419 . S
C407 C408 1.363 . S
C407 H410 0.929 . S
C408 C407 1.363 . S
C408 C414 1.428 . S
H409 C405 0.930 . S
H410 C407 0.929 . S
S411 N412 1.613 . S
S411 N413 1.610 . S
N412 S411 1.613 . S
N412 C415 1.350 . S
N413 S411 1.610 . S
N413 C414 1.351 . S
C414 C408 1.428 . S
C414 N413 1.351 . S
C414 C415 1.434 . S
C415 C406 1.429 . S
C415 N412 1.350 . S
C415 C414 1.434 . S
C416 C417 1.369 . S
C416 C418 1.419 . S
C416 H420 0.930 . S
C417 C416 1.369 . S
C417 C426 1.429 . S
C418 C416 1.419 . S
C418 C419 1.363 . S
C418 H421 0.929 . S
C419 C418 1.363 . S
C419 C425 1.428 . S
H420 C416 0.930 . S
H421 C418 0.929 . S
S422 N423 1.613 . S
S422 N424 1.610 . S
N423 S422 1.613 . S
N423 C426 1.350 . S
N424 S422 1.610 . S
N424 C425 1.351 . S
C425 C419 1.428 . S
C425 N424 1.351 . S
C425 C426 1.434 . S
C426 C417 1.429 . S
C426 N423 1.350 . S
C426 C425 1.434 . S
C427 C428 1.369 . S
C427 C429 1.419 . S
C427 H431 0.930 . S
C428 C427 1.369 . S
C428 C437 1.429 . S
C429 C427 1.419 . S
C429 C430 1.363 . S
C429 H432 0.929 . S
C430 C429 1.363 . S
C430 C436 1.428 . S
H431 C427 0.930 . S
H432 C429 0.929 . S
S433 N434 1.613 . S
S433 N435 1.610 . S
N434 S433 1.613 . S
N434 C437 1.350 . S
N435 S433 1.610 . S
N435 C436 1.351 . S
C436 C430 1.428 . S
C436 N435 1.351 . S
C436 C437 1.434 . S
C437 C428 1.429 . S
C437 N434 1.350 . S
C437 C436 1.434 . S
C438 C439 1.369 . S
C438 C440 1.419 . S
C438 H442 0.930 . S
C439 C438 1.369 . S
C439 C448 1.429 . S
C440 C438 1.419 . S
C440 C441 1.363 . S
C440 H443 0.929 . S
C441 C440 1.363 . S
C441 C447 1.428 . S
H442 C438 0.930 . S
H443 C440 0.929 . S
S444 N445 1.613 . S
S444 N446 1.610 . S
N445 S444 1.613 . S
N445 C448 1.350 . S
N446 S444 1.610 . S
N446 C447 1.351 . S
C447 C441 1.428 . S
C447 N446 1.351 . S
C447 C448 1.434 . S
C448 C439 1.429 . S
C448 N445 1.350 . S
C448 C447 1.434 . S
C449 C450 1.369 . S
C449 C451 1.419 . S
C449 H453 0.930 . S
C450 C449 1.369 . S
C450 C459 1.429 . S
C451 C449 1.419 . S
C451 C452 1.363 . S
C451 H454 0.929 . S
C452 C451 1.363 . S
C452 C458 1.428 . S
H453 C449 0.930 . S
H454 C451 0.929 . S
S455 N456 1.613 . S
S455 N457 1.610 . S
N456 S455 1.613 . S
N456 C459 1.350 . S
N457 S455 1.610 . S
N457 C458 1.351 . S
C458 C452 1.428 . S
C458 N457 1.351 . S
C458 C459 1.434 . S
C459 C450 1.429 . S
C459 N456 1.350 . S
C459 C458 1.434 . S
C460 C461 1.369 . S
C460 C462 1.419 . S
C460 H464 0.930 . S
C461 C460 1.369 . S
C461 C470 1.429 . S
C462 C460 1.419 . S
C462 C463 1.363 . S
C462 H465 0.929 . S
C463 C462 1.363 . S
C463 C469 1.428 . S
H464 C460 0.930 . S
H465 C462 0.929 . S
S466 N467 1.613 . S
S466 N468 1.610 . S
N467 S466 1.613 . S
N467 C470 1.350 . S
N468 S466 1.610 . S
N468 C469 1.351 . S
C469 C463 1.428 . S
C469 N468 1.351 . S
C469 C470 1.434 . S
C470 C461 1.429 . S
C470 N467 1.350 . S
C470 C469 1.434 . S
C471 C472 1.369 . S
C471 C473 1.419 . S
C471 H475 0.930 . S
C472 C471 1.369 . S
C472 C481 1.429 . S
C473 C471 1.419 . S
C473 C474 1.363 . S
C473 H476 0.929 . S
C474 C473 1.363 . S
C474 C480 1.428 . S
H475 C471 0.930 . S
H476 C473 0.929 . S
S477 N478 1.613 . S
S477 N479 1.610 . S
N478 S477 1.613 . S
N478 C481 1.350 . S
N479 S477 1.610 . S
N479 C480 1.351 . S
C480 C474 1.428 . S
C480 N479 1.351 . S
C480 C481 1.434 . S
C481 C472 1.429 . S
C481 N478 1.350 . S
C481 C480 1.434 . S
C482 C483 1.369 . S
C482 C484 1.419 . S
C482 H486 0.930 . S
C483 C482 1.369 . S
C483 C492 1.429 . S
C484 C482 1.419 . S
C484 C485 1.363 . S
C484 H487 0.929 . S
C485 C484 1.363 . S
C485 C491 1.428 . S
H486 C482 0.930 . S
H487 C484 0.929 . S
S488 N489 1.613 . S
S488 N490 1.610 . S
N489 S488 1.613 . S
N489 C492 1.350 . S
N490 S488 1.610 . S
N490 C491 1.351 . S
C491 C485 1.428 . S
C491 N490 1.351 . S
C491 C492 1.434 . S
C492 C483 1.429 . S
C492 N489 1.350 . S
C492 C491 1.434 . S
C493 C494 1.369 . S
C493 C495 1.419 . S
C493 H497 0.930 . S
C494 C493 1.369 . S
C494 C503 1.429 . S
C495 C493 1.419 . S
C495 C496 1.363 . S
C495 H498 0.929 . S
C496 C495 1.363 . S
C496 C502 1.428 . S
H497 C493 0.930 . S
H498 C495 0.929 . S
S499 N500 1.613 . S
S499 N501 1.610 . S
N500 S499 1.613 . S
N500 C503 1.350 . S
N501 S499 1.610 . S
N501 C502 1.351 . S
C502 C496 1.428 . S
C502 N501 1.351 . S
C502 C503 1.434 . S
C503 C494 1.429 . S
C503 N500 1.350 . S
C503 C502 1.434 . S
C504 C505 1.369 . S
C504 C506 1.419 . S
C504 H508 0.930 . S
C505 C504 1.369 . S
C505 C514 1.429 . S
C506 C504 1.419 . S
C506 C507 1.363 . S
C506 H509 0.929 . S
C507 C506 1.363 . S
C507 C513 1.428 . S
H508 C504 0.930 . S
H509 C506 0.929 . S
S510 N511 1.613 . S
S510 N512 1.610 . S
N511 S510 1.613 . S
N511 C514 1.350 . S
N512 S510 1.610 . S
N512 C513 1.351 . S
C513 C507 1.428 . S
C513 N512 1.351 . S
C513 C514 1.434 . S
C514 C505 1.429 . S
C514 N511 1.350 . S
C514 C513 1.434 . S
C515 C516 1.369 . S
C515 C517 1.419 . S
C515 H519 0.930 . S
C516 C515 1.369 . S
C516 C525 1.429 . S
C517 C515 1.419 . S
C517 C518 1.363 . S
C517 H520 0.929 . S
C518 C517 1.363 . S
C518 C524 1.428 . S
H519 C515 0.930 . S
H520 C517 0.929 . S
S521 N522 1.613 . S
S521 N523 1.610 . S
N522 S521 1.613 . S
N522 C525 1.350 . S
N523 S521 1.610 . S
N523 C524 1.351 . S
C524 C518 1.428 . S
C524 N523 1.351 . S
C524 C525 1.434 . S
C525 C516 1.429 . S
C525 N522 1.350 . S
C525 C524 1.434 . S
C526 C527 1.369 . S
C526 C528 1.419 . S
C526 H530 0.930 . S
C527 C526 1.369 . S
C527 C536 1.429 . S
C528 C526 1.419 . S
C528 C529 1.363 . S
C528 H531 0.929 . S
C529 C528 1.363 . S
C529 C535 1.428 . S
H530 C526 0.930 . S
H531 C528 0.929 . S
S532 N533 1.613 . S
S532 N534 1.610 . S
N533 S532 1.613 . S
N533 C536 1.350 . S
N534 S532 1.610 . S
N534 C535 1.351 . S
C535 C529 1.428 . S
C535 N534 1.351 . S
C535 C536 1.434 . S
C536 C527 1.429 . S
C536 N533 1.350 . S
C536 C535 1.434 . S
C537 C538 1.369 . S
C537 C539 1.419 1_556 S
C537 H541 0.930 . S
C538 C537 1.369 . S
C538 C547 1.429 . S
C539 C537 1.419 1_554 S
C539 C540 1.363 . S
C539 H542 0.929 . S
C540 C539 1.363 . S
C540 C546 1.428 1_554 S
H541 C537 0.930 . S
H542 C539 0.929 . S
S543 N544 1.613 . S
S543 N545 1.610 . S
N544 S543 1.613 . S
N544 C547 1.350 . S
N545 S543 1.610 . S
N545 C546 1.351 . S
C546 C540 1.428 1_556 S
C546 N545 1.351 . S
C546 C547 1.434 . S
C547 C538 1.429 . S
C547 N544 1.350 . S
C547 C546 1.434 . S
C548 C549 1.369 . S
C548 C550 1.419 . S
C548 H552 0.930 . S
C549 C548 1.369 . S
C549 C558 1.429 . S
C550 C548 1.419 . S
C550 C551 1.363 . S
C550 H553 0.929 . S
C551 C550 1.363 . S
C551 C557 1.428 . S
H552 C548 0.930 . S
H553 C550 0.929 . S
S554 N555 1.613 . S
S554 N556 1.610 . S
N555 S554 1.613 . S
N555 C558 1.350 . S
N556 S554 1.610 . S
N556 C557 1.351 . S
C557 C551 1.428 . S
C557 N556 1.351 . S
C557 C558 1.434 . S
C558 C549 1.429 . S
C558 N555 1.350 . S
C558 C557 1.434 . S
C559 C560 1.369 . S
C559 C561 1.419 . S
C559 H563 0.930 . S
C560 C559 1.369 . S
C560 C569 1.429 . S
C561 C559 1.419 . S
C561 C562 1.363 . S
C561 H564 0.929 . S
C562 C561 1.363 . S
C562 C568 1.428 . S
H563 C559 0.930 . S
H564 C561 0.929 . S
S565 N566 1.613 . S
S565 N567 1.610 . S
N566 S565 1.613 . S
N566 C569 1.350 . S
N567 S565 1.610 . S
N567 C568 1.351 . S
C568 C562 1.428 . S
C568 N567 1.351 . S
C568 C569 1.434 . S
C569 C560 1.429 . S
C569 N566 1.350 . S
C569 C568 1.434 . S
C570 C571 1.369 . S
C570 C572 1.419 . S
C570 H574 0.930 . S
C571 C570 1.369 . S
C571 C580 1.429 . S
C572 C570 1.419 . S
C572 C573 1.363 . S
C572 H575 0.929 . S
C573 C572 1.363 . S
C573 C579 1.428 . S
H574 C570 0.930 . S
H575 C572 0.929 . S
S576 N577 1.613 . S
S576 N578 1.610 . S
N577 S576 1.613 . S
N577 C580 1.350 . S
N578 S576 1.610 . S
N578 C579 1.351 . S
C579 C573 1.428 . S
C579 N578 1.351 . S
C579 C580 1.434 . S
C580 C571 1.429 . S
C580 N577 1.350 . S
C580 C579 1.434 . S
C581 C582 1.369 . S
C581 C583 1.419 . S
C581 H585 0.930 . S
C582 C581 1.369 . S
C582 C591 1.429 . S
C583 C581 1.419 . S
C583 C584 1.363 . S
C583 H586 0.929 . S
C584 C583 1.363 . S
C584 C590 1.428 . S
H585 C581 0.930 . S
H586 C583 0.929 . S
S587 N588 1.613 . S
S587 N589 1.610 . S
N588 S587 1.613 . S
N588 C591 1.350 . S
N589 S587 1.610 . S
N589 C590 1.351 . S
C590 C584 1.428 . S
C590 N589 1.351 . S
C590 C591 1.434 . S
C591 C582 1.429 . S
C591 N588 1.350 . S
C591 C590 1.434 . S
C592 C593 1.369 . S
C592 C594 1.419 . S
C592 H596 0.930 . S
C593 C592 1.369 . S
C593 C602 1.429 . S
C594 C592 1.419 . S
C594 C595 1.363 . S
C594 H597 0.929 . S
C595 C594 1.363 . S
C595 C601 1.428 . S
H596 C592 0.930 . S
H597 C594 0.929 . S
S598 N599 1.613 . S
S598 N600 1.610 . S
N599 S598 1.613 . S
N599 C602 1.350 . S
N600 S598 1.610 . S
N600 C601 1.351 . S
C601 C595 1.428 . S
C601 N600 1.351 . S
C601 C602 1.434 . S
C602 C593 1.429 . S
C602 N599 1.350 . S
C602 C601 1.434 . S
C603 C604 1.369 . S
C603 C605 1.419 . S
C603 H607 0.930 . S
C604 C603 1.369 . S
C604 C613 1.429 . S
C605 C603 1.419 . S
C605 C606 1.363 . S
C605 H608 0.929 . S
C606 C605 1.363 . S
C606 C612 1.428 . S
H607 C603 0.930 . S
H608 C605 0.929 . S
S609 N610 1.613 . S
S609 N611 1.610 . S
N610 S609 1.613 . S
N610 C613 1.350 . S
N611 S609 1.610 . S
N611 C612 1.351 . S
C612 C606 1.428 . S
C612 N611 1.351 . S
C612 C613 1.434 . S
C613 C604 1.429 . S
C613 N610 1.350 . S
C613 C612 1.434 . S
C614 C615 1.369 . S
C614 C616 1.419 1_554 S
C614 H618 0.930 . S
C615 C614 1.369 . S
C615 C624 1.429 . S
C616 C614 1.419 1_556 S
C616 C617 1.363 . S
C616 H619 0.929 . S
C617 C616 1.363 . S
C617 C623 1.428 1_556 S
H618 C614 0.930 . S
H619 C616 0.929 . S
S620 N621 1.613 . S
S620 N622 1.610 . S
N621 S620 1.613 . S
N621 C624 1.350 . S
N622 S620 1.610 . S
N622 C623 1.351 . S
C623 C617 1.428 1_554 S
C623 N622 1.351 . S
C623 C624 1.434 . S
C624 C615 1.429 . S
C624 N621 1.350 . S
C624 C623 1.434 . S
C625 C626 1.369 . S
C625 C627 1.419 . S
C625 H629 0.930 . S
C626 C625 1.369 . S
C626 C635 1.429 . S
C627 C625 1.419 . S
C627 C628 1.363 . S
C627 H630 0.929 . S
C628 C627 1.363 . S
C628 C634 1.428 . S
H629 C625 0.930 . S
H630 C627 0.929 . S
S631 N632 1.613 . S
S631 N633 1.610 . S
N632 S631 1.613 . S
N632 C635 1.350 . S
N633 S631 1.610 . S
N633 C634 1.351 . S
C634 C628 1.428 . S
C634 N633 1.351 . S
C634 C635 1.434 . S
C635 C626 1.429 . S
C635 N632 1.350 . S
C635 C634 1.434 . S
C375 C358 1.627 . S
C373 C45 1.619 . S
C384 C84 1.619 . S
C386 C299 1.639 . S
C395 C126 1.562 . S
C397 C302 1.623 . S
C406 C189 1.621 . S
C408 C316 1.627 . S
C419 C341 1.640 . S
C417 C228 1.615 . S
C428 C270 1.563 . S
C430 C344 1.624 . S
C439 C69 1.574 . S
C441 C313 1.609 . S
C450 C141 1.608 . S
C452 C327 1.611 . S
C461 C174 1.551 . S
C463 C330 1.598 . S
C474 C355 1.609 . S
C472 C213 1.572 . S
C485 C369 1.611 . S
C483 C285 1.608 . S
C496 C288 1.597 . S
C494 C30 1.551 . S
C505 C36 1.496 . S
C507 C311 1.489 . S
C516 C93 1.494 . S
C518 C325 1.491 . S
C529 C335 1.501 . S
C527 C117 1.499 . S
C538 C180 1.497 . S
C540 C353 1.487 . S
C551 C367 1.492 . S
C549 C237 1.495 . S
C562 C293 1.501 . S
C560 C261 1.498 . S
C573 C363 1.517 . S
C571 C78 1.511 . S
C582 C132 1.508 . S
C584 C297 1.505 . S
C595 C307 1.514 . S
C593 C165 1.510 . S
C604 C222 1.511 . S
C606 C321 1.517 . S
C615 C276 1.507 . S
C617 C339 1.505 . S
C626 C21 1.506 . S
C628 C349 1.515 . S
