# Generated by pormake.
# Topology rtl, (3,6)-cn, num edge types: 1
# Building blocks:
#     Node 0, Type 0, BuildingBlock: MIDCAF_clean_linker_0, # of connection points: 3
#     Node 1, Type 0, BuildingBlock: MIDCAF_clean_linker_0, # of connection points: 3
#     Node 2, Type 0, BuildingBlock: MIDCAF_clean_linker_0, # of connection points: 3
#     Node 3, Type 0, BuildingBlock: MIDCAF_clean_linker_0, # of connection points: 3
#     Node 4, Type 1, BuildingBlock: KUMJIN_clean_sbu_1, # of connection points: 6
#     Node 5, Type 1, BuildingBlock: KUMJIN_clean_sbu_1, # of connection points: 6
#     Edge 6, Type (0, 1), BuildingBlock: UVAHIK_clean_linker_0, # of connection points: 2
#     Edge 7, Type (0, 1), BuildingBlock: UVAHIK_clean_linker_0, # of connection points: 2
#     Edge 8, Type (0, 1), BuildingBlock: UVAHIK_clean_linker_0, # of connection points: 2
#     Edge 9, Type (0, 1), BuildingBlock: UVAHIK_clean_linker_0, # of connection points: 2
#     Edge 10, Type (0, 1), BuildingBlock: UVAHIK_clean_linker_0, # of connection points: 2
#     Edge 11, Type (0, 1), BuildingBlock: UVAHIK_clean_linker_0, # of connection points: 2
#     Edge 12, Type (0, 1), BuildingBlock: UVAHIK_clean_linker_0, # of connection points: 2
#     Edge 13, Type (0, 1), BuildingBlock: UVAHIK_clean_linker_0, # of connection points: 2
#     Edge 14, Type (0, 1), BuildingBlock: UVAHIK_clean_linker_0, # of connection points: 2
#     Edge 15, Type (0, 1), BuildingBlock: UVAHIK_clean_linker_0, # of connection points: 2
#     Edge 16, Type (0, 1), BuildingBlock: UVAHIK_clean_linker_0, # of connection points: 2
#     Edge 17, Type (0, 1), BuildingBlock: UVAHIK_clean_linker_0, # of connection points: 2
# Relax obj value: 0.017
# Max RMSD: 0.085
# Mean RMSD: 0.052
data_MOF--net-rtl--node1-KUMJIN_clean_sbu_1--node2-MIDCAF_clean_linker_0--edge1-UVAHIK_clean_linker_0
_symmetry_space_group_name_H-M    P1
_symmetry_Int_Tables_number       1
_symmetry_cell_setting            triclinic
loop_
_symmetry_equiv_pos_as_xyz
'x, y, z'
_cell_length_a     48.935213
_cell_length_b     49.404653
_cell_length_c     42.602118
_cell_angle_alpha  81.927127
_cell_angle_beta   99.678309
_cell_angle_gamma 90.133102
loop_
_atom_site_label
_atom_site_type_symbol
_atom_site_fract_x
_atom_site_fract_y
_atom_site_fract_z
_atom_type_partial_charge
C0 C 0.20099 0.92711 0.10226 0.0
C1 C 0.21101 0.9136 0.13336 0.0
C2 C 0.23085 0.89235 0.13711 0.0
C3 C 0.24002 0.8844 0.11035 0.0
H4 H 0.29495 0.83069 0.0844 0.0
H5 H 0.32718 0.79195 0.08976 0.0
H6 H 0.31176 0.79415 0.98651 0.0
H7 H 0.28062 0.83301 0.98105 0.0
H8 H 0.24102 0.87272 0.93791 0.0
H9 H 0.2161 0.8874 0.88404 0.0
H10 H 0.16658 0.94384 0.92082 0.0
H11 H 0.19177 0.92932 0.97523 0.0
H12 H 0.20154 0.9297 0.05184 0.0
H13 H 0.18549 0.94339 0.0985 0.0
H14 H 0.23925 0.88176 0.16078 0.0
H15 H 0.25506 0.86771 0.11422 0.0
N16 N 0.25753 0.86753 0.05445 0.0
N17 N 0.25211 0.86896 0.99861 0.0
N18 N 0.22561 0.8986 0.02035 0.0
C19 C 0.26473 0.858 0.02849 0.0
C20 C 0.23262 0.88921 0.99419 0.0
C21 C 0.23804 0.8879 0.05059 0.0
C22 C 0.28511 0.83506 0.0323 0.0
C23 C 0.29864 0.82302 0.06285 0.0
C24 C 0.317 0.8007 0.06594 0.0
C25 C 0.32219 0.78992 0.03857 0.0
C26 C 0.30879 0.80217 0.00811 0.0
C27 C 0.29065 0.82444 0.00501 0.0
C28 C 0.21831 0.89965 0.96113 0.0
C29 C 0.22493 0.88836 0.93473 0.0
C30 C 0.21053 0.89666 0.90375 0.0
C31 C 0.18917 0.91654 0.89822 0.0
C32 C 0.18302 0.92852 0.92434 0.0
C33 C 0.19739 0.92011 0.95553 0.0
C34 C 0.22949 0.89744 0.07913 0.0
C35 C 0.21008 0.91911 0.07546 0.0
C36 C 0.59414 0.6761 0.48868 0.0
C37 C 0.6062 0.68408 0.46114 0.0
C38 C 0.62862 0.70195 0.46339 0.0
C39 C 0.63881 0.71149 0.49238 0.0
H40 H 0.69677 0.76012 0.53073 0.0
H41 H 0.73387 0.79247 0.53068 0.0
H42 H 0.72827 0.80358 0.62827 0.0
H43 H 0.69144 0.77011 0.62875 0.0
H44 H 0.6441 0.73306 0.66342 0.0
H45 H 0.6308 0.71166 0.71392 0.0
H46 H 0.60389 0.64054 0.66982 0.0
H47 H 0.61668 0.6619 0.61924 0.0
H48 H 0.59467 0.67893 0.53848 0.0
H49 H 0.57662 0.66264 0.48774 0.0
H50 H 0.63878 0.70816 0.44291 0.0
H51 H 0.65628 0.72503 0.49312 0.0
N52 N 0.65793 0.73263 0.55166 0.0
N53 N 0.65982 0.73128 0.6072 0.0
N54 N 0.62968 0.70262 0.57868 0.0
C55 C 0.66881 0.74184 0.57959 0.0
C56 C 0.6403 0.71159 0.60693 0.0
C57 C 0.6383 0.71318 0.55087 0.0
C58 C 0.69097 0.76245 0.57974 0.0
C59 C 0.70324 0.76946 0.55222 0.0
C60 C 0.72451 0.78828 0.55211 0.0
C61 C 0.734 0.80096 0.57936 0.0
C62 C 0.72169 0.79407 0.60693 0.0
C63 C 0.70045 0.77497 0.60715 0.0
C64 C 0.63149 0.69918 0.6373 0.0
C65 C 0.63525 0.7129 0.66445 0.0
C66 C 0.62754 0.70075 0.6933 0.0
C67 C 0.61646 0.67443 0.69573 0.0
C68 C 0.61259 0.66077 0.66862 0.0
C69 C 0.61979 0.67309 0.63963 0.0
C70 C 0.62697 0.70331 0.52001 0.0
C71 C 0.60444 0.68554 0.51778 0.0
C72 C 0.81214 0.07873 0.94617 0.0
C73 C 0.80272 0.09197 0.91482 0.0
C74 C 0.78178 0.1123 0.91003 0.0
C75 C 0.77141 0.12005 0.93626 0.0
H76 H 0.71206 0.17237 0.96463 0.0
H77 H 0.68229 0.2132 0.96005 0.0
H78 H 0.71147 0.21944 0.06008 0.0
H79 H 0.74075 0.17905 0.06494 0.0
H80 H 0.76708 0.12778 0.10974 0.0
H81 H 0.79234 0.11267 0.16345 0.0
H82 H 0.84743 0.06356 0.12413 0.0
H83 H 0.82188 0.07837 0.07009 0.0
H84 H 0.81016 0.07608 0.99611 0.0
H85 H 0.8279 0.06264 0.95063 0.0
H86 H 0.77418 0.12299 0.88618 0.0
H87 H 0.75586 0.13632 0.93183 0.0
N88 N 0.75435 0.13851 0.99233 0.0
N89 N 0.75986 0.13667 0.04834 0.0
N90 N 0.78491 0.1061 0.02631 0.0
C91 C 0.74771 0.14826 0.0185 0.0
C92 C 0.77838 0.11559 0.05256 0.0
C93 C 0.77294 0.1173 0.99611 0.0
C94 C 0.72888 0.1724 0.01511 0.0
C95 C 0.71203 0.18243 0.98563 0.0
C96 C 0.69494 0.20569 0.98301 0.0
C97 C 0.69481 0.21953 0.00966 0.0
C98 C 0.71143 0.20936 0.03906 0.0
C99 C 0.72811 0.18605 0.04182 0.0
C100 C 0.79256 0.10451 0.08543 0.0
C101 C 0.78447 0.11364 0.1124 0.0
C102 C 0.79904 0.10508 0.14326 0.0
C103 C 0.82208 0.08719 0.14801 0.0
C104 C 0.82966 0.07726 0.12125 0.0
C105 C 0.81505 0.08584 0.09027 0.0
C106 C 0.78175 0.10758 0.9678 0.0
C107 C 0.80182 0.08642 0.97229 0.0
C108 C 0.42186 0.32994 0.55187 0.0
C109 C 0.41091 0.32199 0.58015 0.0
C110 C 0.3905 0.30191 0.58007 0.0
C111 C 0.3809 0.29042 0.55225 0.0
H112 H 0.31339 0.25127 0.51053 0.0
H113 H 0.27359 0.22155 0.51003 0.0
H114 H 0.28798 0.19685 0.42088 0.0
H115 H 0.32786 0.22699 0.42096 0.0
H116 H 0.35055 0.28759 0.37643 0.0
H117 H 0.36407 0.30994 0.32689 0.0
H118 H 0.44062 0.3344 0.38122 0.0
H119 H 0.42654 0.31308 0.43078 0.0
H120 H 0.42092 0.32532 0.50255 0.0
H121 H 0.43787 0.34508 0.55125 0.0
H122 H 0.38133 0.29557 0.60129 0.0
H123 H 0.36485 0.27533 0.55304 0.0
N124 N 0.35889 0.26977 0.49337 0.0
N125 N 0.35696 0.26946 0.43804 0.0
N126 N 0.38935 0.29651 0.46591 0.0
C127 C 0.34739 0.26041 0.46573 0.0
C128 C 0.378 0.2875 0.43799 0.0
C129 C 0.37994 0.28773 0.49372 0.0
C130 C 0.32378 0.24159 0.46571 0.0
C131 C 0.30822 0.23948 0.49082 0.0
C132 C 0.28532 0.22259 0.49049 0.0
C133 C 0.27769 0.20708 0.46535 0.0
C134 C 0.29352 0.20861 0.44056 0.0
C135 C 0.31622 0.22593 0.44057 0.0
C136 C 0.38735 0.29873 0.40759 0.0
C137 C 0.37037 0.29756 0.37776 0.0
C138 C 0.3782 0.31031 0.3493 0.0
C139 C 0.40335 0.32424 0.34998 0.0
C140 C 0.42078 0.32448 0.37978 0.0
C141 C 0.4128 0.31206 0.40823 0.0
C142 C 0.3914 0.29876 0.52374 0.0
C143 C 0.41223 0.31846 0.52399 0.0
Eu144 Eu 0.02225 0.9717 0.50417 0.0
C145 C 0.96037 0.0854 0.49351 0.0
N146 N 0.98613 0.07746 0.50958 0.0
C147 C 0.00434 0.12051 0.49032 0.0
C148 C 0.95574 0.11135 0.4747 0.0
C149 C 0.008 0.09453 0.50847 0.0
C150 C 0.97811 0.12896 0.47333 0.0
C151 C 0.91206 0.07451 0.47757 0.0
C152 C 0.9388 0.06702 0.4948 0.0
C153 C 0.90739 0.10038 0.4589 0.0
C154 C 0.92915 0.11874 0.45749 0.0
Eu155 Eu 0.99007 0.03376 0.54034 0.0
N156 N 0.94401 0.04182 0.51258 0.0
C157 C 0.8907 0.05584 0.47978 0.0
C158 C 0.92285 0.0243 0.51632 0.0
C159 C 0.89606 0.03077 0.49954 0.0
H160 H 0.02818 0.08829 0.52207 0.0
H161 H 0.87946 0.01658 0.50231 0.0
H162 H 0.9826 0.91766 0.5194 0.0
H163 H 0.1331 0.98548 0.54464 0.0
H164 H 0.92611 0.00574 0.53296 0.0
H165 H 0.86988 0.06082 0.46692 0.0
H166 H 0.08687 0.99804 0.51364 0.0
H167 H 0.02173 0.13402 0.48952 0.0
H168 H 0.88699 0.10641 0.44547 0.0
H169 H 0.92521 0.13857 0.44287 0.0
H170 H 0.98743 0.87153 0.55106 0.0
H171 H 0.97537 0.14907 0.45916 0.0
H172 H 0.14124 0.94049 0.57875 0.0
N173 N 0.02482 0.92734 0.53327 0.0
C174 C 0.05021 0.91859 0.54978 0.0
C175 C 0.00521 0.8846 0.55103 0.0
C176 C 0.05393 0.89237 0.56808 0.0
C177 C 0.00247 0.91081 0.53339 0.0
C178 C 0.03104 0.87535 0.56851 0.0
N179 N 0.06799 0.96181 0.53206 0.0
C180 C 0.08961 0.97897 0.52944 0.0
C181 C 0.09876 0.92798 0.56684 0.0
C182 C 0.07236 0.93632 0.54926 0.0
C183 C 0.12066 0.94613 0.56558 0.0
C184 C 0.11611 0.97161 0.54652 0.0
H185 H 0.03307 0.85506 0.58227 0.0
H186 H 0.08342 0.86406 0.59989 0.0
H187 H 0.12265 0.89516 0.59875 0.0
O188 O 0.04194 0.97313 0.46069 0.0
O189 O 0.02781 0.96856 0.55887 0.0
O190 O 0.03038 0.01351 0.56668 0.0
O191 O 0.01452 0.93994 0.47374 0.0
O192 O 0.03883 0.01445 0.49155 0.0
O193 O 0.03533 0.03621 0.53541 0.0
O194 O 0.96934 0.0344 0.58273 0.0
O195 O 0.98604 0.03733 0.48572 0.0
O196 O 0.98183 0.99245 0.47952 0.0
O197 O 0.99788 0.06643 0.56944 0.0
O198 O 0.97475 0.99069 0.55444 0.0
O199 O 0.97716 0.96979 0.50986 0.0
C200 C 0.03487 0.98745 0.57737 0.0
C201 C 0.03296 0.93767 0.42501 0.0
C202 C 0.05352 0.93475 0.37708 0.0
C203 C 0.03548 0.91349 0.36974 0.0
C204 C 0.01525 0.91629 0.41706 0.0
C205 C 0.01658 0.90431 0.38967 0.0
C206 C 0.05237 0.94673 0.40501 0.0
C207 C 0.04595 0.03386 0.50949 0.0
C208 C 0.02997 0.95066 0.45349 0.0
C209 C 0.08019 0.88411 0.58565 0.0
C210 C 0.10252 0.90185 0.58504 0.0
C211 C 0.97914 0.01831 0.46744 0.0
C212 C 0.97769 0.07134 0.61638 0.0
C213 C 0.95762 0.07538 0.6643 0.0
C214 C 0.97336 0.09879 0.66873 0.0
C215 C 0.9931 0.0949 0.62136 0.0
C216 C 0.95959 0.06175 0.63782 0.0
C217 C 0.99086 0.1085 0.64731 0.0
C218 C 0.96763 0.97117 0.53669 0.0
C219 C 0.98143 0.05701 0.58915 0.0
H220 H 0.03621 0.90372 0.34864 0.0
H221 H 1.00008 0.90893 0.43188 0.0
H222 H 0.00283 0.88789 0.38379 0.0
H223 H 0.0661 0.96324 0.41075 0.0
H224 H 0.97196 0.1097 0.68878 0.0
H225 H 0.00711 0.10281 0.60529 0.0
H226 H 0.94759 0.04361 0.63438 0.0
H227 H 0.00285 0.12658 0.65093 0.0
Eu228 Eu 0.47542 0.49444 0.98737 0.0
C229 C 0.59023 0.54288 0.02475 0.0
N230 N 0.58184 0.51783 0.03669 0.0
C231 C 0.62372 0.49695 0.02871 0.0
C232 C 0.61575 0.54575 0.01359 0.0
C233 C 0.59814 0.49504 0.03926 0.0
C234 C 0.63253 0.52239 0.01572 0.0
C235 C 0.58079 0.59164 0.00974 0.0
C236 C 0.57272 0.56557 0.02264 0.0
C237 C 0.60618 0.59452 0.99847 0.0
C238 C 0.62359 0.57166 1.0004 0.0
Eu239 Eu 0.53882 0.5168 0.05411 0.0
N240 N 0.54796 0.5622 0.03326 0.0
C241 C 0.56328 0.61417 0.00891 0.0
C242 C 0.5318 0.58434 0.03448 0.0
C243 C 0.53888 0.61054 0.02175 0.0
H244 H 0.59141 0.47541 0.04952 0.0
H245 H 0.52576 0.62799 0.0224 0.0
H246 H 0.42631 0.544 0.97928 0.0
H247 H 0.46699 0.38371 0.01121 0.0
H248 H 0.51399 0.58218 0.04624 0.0
H249 H 0.56877 0.63454 0.99923 0.0
H250 H 0.49028 0.42729 0.99866 0.0
H251 H 0.63661 0.47883 0.03059 0.0
H252 H 0.61263 0.61439 0.98839 0.0
H253 H 0.6431 0.57425 0.99162 0.0
H254 H 0.37761 0.54816 0.98628 0.0
H255 H 0.6523 0.52377 0.00742 0.0
H256 H 0.41803 0.38401 0.01905 0.0
N257 N 0.429 0.50101 0.99398 0.0
C258 C 0.41492 0.47787 0.00155 0.0
C259 C 0.38796 0.5283 0.99104 0.0
C260 C 0.38672 0.4792 0.00462 0.0
C261 C 0.41577 0.52594 0.98774 0.0
C262 C 0.37342 0.50486 0.99974 0.0
N263 N 0.45552 0.45193 1.00152 0.0
C264 C 0.46922 0.42766 0.00298 0.0
C265 C 0.41406 0.42821 0.0113 0.0
C266 C 0.42836 0.45261 0.00476 0.0
C267 C 0.42828 0.4032 0.01396 0.0
C268 C 0.45595 0.40294 0.00967 0.0
H269 H 0.35176 0.50674 0.00185 0.0
H270 H 0.35086 0.4556 0.0141 0.0
H271 H 0.37482 0.411 0.02006 0.0
O272 O 0.48255 0.47705 0.94472 0.0
O273 O 0.47311 0.47486 0.03859 0.0
O274 O 0.50745 0.49095 0.07592 0.0
O275 O 0.44825 0.50533 0.94127 0.0
O276 O 0.51699 0.47197 0.99532 0.0
O277 O 0.53781 0.47173 0.04862 0.0
O278 O 0.54782 0.53908 0.09563 0.0
O279 O 0.54335 0.517 0.00169 0.0
O280 O 0.50034 0.53226 0.97723 0.0
O281 O 0.56907 0.49999 0.09623 0.0
O282 O 0.49593 0.53535 0.05246 0.0
O283 O 0.47632 0.5377 0.99914 0.0
C284 C 0.48538 0.4766 0.06821 0.0
C285 C 0.44111 0.46941 0.90989 0.0
C286 C 0.43107 0.44023 0.86789 0.0
C287 C 0.40615 0.43274 0.8787 0.0
C288 C 0.41575 0.46214 0.91975 0.0
C289 C 0.39852 0.44376 0.90439 0.0
C290 C 0.44855 0.45862 0.88363 0.0
C291 C 0.53303 0.46055 0.0219 0.0
C292 C 0.45988 0.488 0.92698 0.0
C293 C 0.37251 0.45494 0.01163 0.0
C294 C 0.38613 0.42953 0.01493 0.0
C295 C 0.52704 0.53106 0.97745 0.0
C296 C 0.58034 0.52213 0.14443 0.0
C297 C 0.58445 0.54015 0.19564 0.0
C298 C 0.60643 0.52144 0.20846 0.0
C299 C 0.60243 0.50375 0.15785 0.0
C300 C 0.57163 0.54069 0.16334 0.0
C301 C 0.61543 0.50353 0.18961 0.0
C302 C 0.47693 0.54492 0.02776 0.0
C303 C 0.56529 0.52024 0.11174 0.0
H304 H 0.39225 0.41881 0.86677 0.0
H305 H 0.40904 0.47076 0.93913 0.0
H306 H 0.3791 0.43822 0.91228 0.0
H307 H 0.46794 0.46431 0.87564 0.0
H308 H 0.6168 0.5208 0.23313 0.0
H309 H 0.60949 0.48927 0.14392 0.0
H310 H 0.55437 0.55477 0.15345 0.0
H311 H 0.63238 0.48923 0.19977 0.0
C312 C 0.25465 0.16191 0.46188 0.0
C313 C 0.25297 0.18973 0.46505 0.0
C314 C 0.23169 0.14524 0.46416 0.0
C315 C 0.16516 0.14339 0.49568 0.0
H316 H 0.15117 0.08131 0.44929 0.0
C317 C 0.08507 0.06367 0.52746 0.0
C318 C 0.06921 0.05165 0.50265 0.0
C319 C 0.10728 0.08023 0.52147 0.0
C320 C 0.15453 0.09876 0.46215 0.0
H321 H 0.22578 0.22234 0.47126 0.0
H322 H 0.18546 0.19372 0.47394 0.0
H323 H 0.18936 0.11133 0.43968 0.0
H324 H 0.06412 0.04753 0.45206 0.0
H325 H 0.10236 0.07735 0.44118 0.0
H326 H 0.12979 0.13165 0.51716 0.0
C327 C 0.20466 0.18433 0.47099 0.0
C328 C 0.17675 0.11578 0.45698 0.0
C329 C 0.2277 0.20083 0.46925 0.0
C330 C 0.07605 0.0565 0.47166 0.0
C331 C 0.09809 0.07345 0.46551 0.0
C332 C 0.14281 0.12664 0.50051 0.0
C333 C 0.20646 0.15617 0.46919 0.0
C334 C 0.18244 0.13827 0.47382 0.0
C335 C 0.11397 0.08559 0.49036 0.0
C336 C 0.13731 0.10392 0.48409 0.0
H337 H 0.274 0.15288 0.45878 0.0
H338 H 0.23403 0.12363 0.46301 0.0
H339 H 0.16906 0.16015 0.50957 0.0
H340 H 0.0806 0.05997 0.55174 0.0
H341 H 0.11938 0.08856 0.54143 0.0
C342 C 0.34056 0.74343 0.06616 0.0
C343 C 0.34072 0.7655 0.04139 0.0
C344 C 0.35609 0.71951 0.06687 0.0
C345 C 0.38257 0.67952 0.01284 0.0
H346 H 0.43217 0.64419 0.088 0.0
C347 C 0.45416 0.58999 0.00411 0.0
C348 C 0.46038 0.56919 0.03043 0.0
C349 C 0.43955 0.61355 0.00674 0.0
C350 C 0.41804 0.65348 0.06693 0.0
H351 H 0.3588 0.78022 0.99913 0.0
H352 H 0.38509 0.73825 0.99993 0.0
H353 H 0.4071 0.68623 0.09102 0.0
H354 H 0.45622 0.55655 0.08009 0.0
H355 H 0.42953 0.59724 0.08444 0.0
H356 H 0.39252 0.64669 0.98885 0.0
C357 C 0.37274 0.73943 0.01858 0.0
C358 C 0.40383 0.67765 0.06867 0.0
C359 C 0.35757 0.76341 0.01809 0.0
C360 C 0.45163 0.57233 0.05945 0.0
C361 C 0.43654 0.59575 0.06195 0.0
C362 C 0.39635 0.65518 0.01122 0.0
C363 C 0.37181 0.71711 0.04266 0.0
C364 C 0.38627 0.69105 0.0415 0.0
C365 C 0.43036 0.61675 0.03562 0.0
C366 C 0.41461 0.64199 0.03808 0.0
H367 H 0.32764 0.74418 0.08432 0.0
H368 H 0.35495 0.70251 0.08563 0.0
H369 H 0.36875 0.68922 0.99169 0.0
H370 H 0.46116 0.58835 0.98162 0.0
H371 H 0.43594 0.62947 0.98619 0.0
C372 C 0.75918 0.83835 0.55036 0.0
C373 C 0.75702 0.82078 0.57882 0.0
C374 C 0.78217 0.85489 0.54851 0.0
C375 C 0.83796 0.88954 0.59266 0.0
H376 H 0.87789 0.87834 0.52409 0.0
C377 C 0.93991 0.94599 0.57556 0.0
C378 C 0.94458 0.95328 0.54389 0.0
C379 C 0.91779 0.9292 0.58191 0.0
C380 C 0.86683 0.88217 0.54305 0.0
H381 H 0.77698 0.80801 0.6282 0.0
H382 H 0.81679 0.83781 0.6251 0.0
H383 H 0.83692 0.85187 0.53135 0.0
H384 H 0.92937 0.94955 0.49392 0.0
H385 H 0.89032 0.92159 0.50461 0.0
H386 H 0.86705 0.9207 0.60359 0.0
C387 C 0.80065 0.83832 0.60422 0.0
C388 C 0.84344 0.86679 0.54731 0.0
C389 C 0.77779 0.82137 0.60596 0.0
C390 C 0.92657 0.94386 0.51867 0.0
C391 C 0.90421 0.92762 0.52489 0.0
C392 C 0.86112 0.9054 0.58801 0.0
C393 C 0.80332 0.85469 0.57521 0.0
C394 C 0.82868 0.87048 0.57195 0.0
C395 C 0.89958 0.9198 0.55661 0.0
C396 C 0.87572 0.90212 0.56289 0.0
H397 H 0.74326 0.83909 0.52925 0.0
H398 H 0.78358 0.86768 0.52602 0.0
H399 H 0.82682 0.89275 0.6118 0.0
H400 H 0.95358 0.95296 0.59544 0.0
H401 H 0.9152 0.92338 0.60668 0.0
C402 C 0.64939 0.24561 0.99479 0.0
C403 C 0.67786 0.2448 0.00724 0.0
C404 C 0.63315 0.26879 0.9954 0.0
C405 C 0.63421 0.33063 0.03666 0.0
H406 H 0.57151 0.35384 0.96979 0.0
C407 C 0.55998 0.41789 0.04834 0.0
C408 C 0.54892 0.43547 0.02027 0.0
C409 C 0.57482 0.39415 0.04651 0.0
C410 C 0.58913 0.34787 0.98854 0.0
H411 H 0.712 0.26792 0.0285 0.0
H412 H 0.68411 0.3086 0.0285 0.0
H413 H 0.59965 0.31443 0.96558 0.0
H414 H 0.54512 0.44217 0.96827 0.0
H415 H 0.57179 0.40154 0.96515 0.0
H416 H 0.62462 0.36475 0.05886 0.0
C417 C 0.67391 0.29113 0.01938 0.0
C418 C 0.60506 0.32494 0.98635 0.0
C419 C 0.68999 0.26789 0.01916 0.0
C420 C 0.55315 0.42891 0.99037 0.0
C421 C 0.56833 0.40544 0.98857 0.0
C422 C 0.61854 0.35373 0.03863 0.0
C423 C 0.64516 0.29175 0.00811 0.0
C424 C 0.62789 0.31604 0.01035 0.0
C425 C 0.57933 0.38765 0.01659 0.0
C426 C 0.59577 0.36272 0.01462 0.0
H427 H 0.63952 0.22798 0.98567 0.0
H428 H 0.61106 0.26835 0.9868 0.0
H429 H 0.65126 0.32417 0.05599 0.0
H430 H 0.55685 0.42228 0.07171 0.0
H431 H 0.58249 0.38076 0.06861 0.0
C432 C 0.19507 0.94831 0.16478 0.0
C433 C 0.19995 0.92086 0.16162 0.0
C434 C 0.1835 0.9549 0.1907 0.0
C435 C 0.16818 0.92554 0.27129 0.0
H436 H 0.10958 0.98102 0.25239 0.0
C437 C 0.10204 0.94341 0.3667 0.0
C438 C 0.0734 0.94368 0.3552 0.0
C439 C 0.12087 0.94655 0.34508 0.0
C440 C 0.12596 0.96552 0.25813 0.0
H441 H 0.19642 0.87884 0.18323 0.0
H442 H 0.17605 0.89024 0.22808 0.0
H443 H 0.13627 0.97352 0.21092 0.0
H444 H 0.04189 0.94954 0.31245 0.0
H445 H 0.07445 0.95487 0.27487 0.0
H446 H 0.15676 0.91642 0.31787 0.0
C447 C 0.18173 0.90677 0.21102 0.0
C448 C 0.14149 0.96141 0.23442 0.0
C449 C 0.19337 0.9002 0.18521 0.0
C450 C 0.0639 0.94907 0.32191 0.0
C451 C 0.08261 0.95233 0.30039 0.0
C452 C 0.15258 0.92958 0.29496 0.0
C453 C 0.17645 0.93419 0.21401 0.0
C454 C 0.16231 0.94086 0.24042 0.0
C455 C 0.11134 0.95023 0.31162 0.0
C456 C 0.13078 0.94913 0.28839 0.0
H457 H 0.20024 0.96471 0.14722 0.0
H458 H 0.18005 0.97624 0.19246 0.0
H459 H 0.1844 0.90988 0.27696 0.0
H460 H 0.10987 0.9392 0.39227 0.0
H461 H 0.14287 0.94519 0.35453 0.0
C462 C 0.61941 0.63445 0.73937 0.0
C463 C 0.60935 0.66097 0.72659 0.0
C464 C 0.61251 0.62146 0.76822 0.0
C465 C 0.58144 0.6345 0.83959 0.0
H466 H 0.57243 0.55593 0.84907 0.0
C467 C 0.52478 0.57114 0.9342 0.0
C468 C 0.53898 0.54759 0.9516 0.0
C469 C 0.53533 0.58629 0.90882 0.0
C470 C 0.57512 0.57785 0.84685 0.0
H471 H 0.58409 0.69474 0.73373 0.0
H472 H 0.57091 0.67174 0.78334 0.0
H473 H 0.58609 0.57952 0.80024 0.0
H474 H 0.57569 0.52182 0.95681 0.0
H475 H 0.59379 0.54798 0.91171 0.0
H476 H 0.56899 0.63258 0.88586 0.0
C477 C 0.58491 0.66115 0.77182 0.0
C478 C 0.58312 0.59145 0.8189 0.0
C479 C 0.59229 0.67433 0.74324 0.0
C480 C 0.56427 0.53982 0.94367 0.0
C481 C 0.57457 0.55471 0.91789 0.0
C482 C 0.57289 0.6209 0.8673 0.0
C483 C 0.59486 0.63445 0.78473 0.0
C484 C 0.58649 0.62 0.81483 0.0
C485 C 0.56003 0.57791 0.90003 0.0
C486 C 0.56975 0.59244 0.8712 0.0
H487 H 0.63292 0.62385 0.72719 0.0
H488 H 0.62123 0.60125 0.77761 0.0
H489 H 0.58429 0.65636 0.83779 0.0
H490 H 0.50542 0.57779 0.9401 0.0
H491 H 0.52371 0.60406 0.89539 0.0
C492 C 0.84835 0.05284 0.19186 0.0
C493 C 0.83865 0.0798 0.18068 0.0
C494 C 0.86386 0.04613 0.22272 0.0
C495 C 0.88011 0.07148 0.30171 0.0
H496 H 0.94206 0.01988 0.31617 0.0
C497 C 0.95842 0.05333 0.4209 0.0
C498 C 0.96436 0.02585 0.43404 0.0
C499 C 0.94336 0.06008 0.38984 0.0
C500 C 0.9247 0.03419 0.3125 0.0
H501 H 0.83829 0.12098 0.19279 0.0
H502 H 0.86547 0.1094 0.2463 0.0
H503 H 0.91505 0.03114 0.26226 0.0
H504 H 0.96016 0.98394 0.42418 0.0
H505 H 0.93441 0.99579 0.36988 0.0
H506 H 0.8901 0.07475 0.35195 0.0
C507 C 0.86057 0.09325 0.23164 0.0
C508 C 0.90914 0.04057 0.28166 0.0
C509 C 0.845 0.09991 0.20091 0.0
C510 C 0.95574 0.00533 0.41498 0.0
C511 C 0.94109 0.01209 0.38379 0.0
C512 C 0.89581 0.06526 0.33248 0.0
C513 C 0.87013 0.06626 0.24301 0.0
C514 C 0.88662 0.05928 0.27587 0.0
C515 C 0.9345 0.0395 0.371 0.0
C516 C 0.91822 0.04652 0.3382 0.0
H517 H 0.84357 0.03685 0.17694 0.0
H518 H 0.87055 0.02506 0.23084 0.0
H519 H 0.86262 0.08559 0.29829 0.0
H520 H 0.96534 0.06967 0.43451 0.0
H521 H 0.93892 0.08143 0.3804 0.0
C522 C 0.42334 0.31968 0.64012 0.0
C523 C 0.41996 0.33515 0.60936 0.0
C524 C 0.42994 0.33233 0.66766 0.0
C525 C 0.42527 0.39949 0.69509 0.0
H526 H 0.47079 0.36278 0.77271 0.0
C527 C 0.44407 0.44688 0.81299 0.0
C528 C 0.43807 0.4292 0.83965 0.0
C529 C 0.44691 0.43666 0.78467 0.0
C530 C 0.45808 0.37328 0.75117 0.0
H531 H 0.42147 0.37607 0.58349 0.0
H532 H 0.43382 0.39803 0.63153 0.0
H533 H 0.46639 0.34262 0.72303 0.0
H534 H 0.43185 0.38701 0.85847 0.0
H535 H 0.43704 0.36911 0.8092 0.0
H536 H 0.41671 0.42995 0.72342 0.0
C537 C 0.4309 0.37614 0.63436 0.0
C538 C 0.45545 0.3617 0.72276 0.0
C539 C 0.42416 0.36349 0.6068 0.0
C540 C 0.43635 0.40104 0.83813 0.0
C541 C 0.4395 0.3908 0.81003 0.0
C542 C 0.42808 0.41116 0.72345 0.0
C543 C 0.4335 0.36076 0.66514 0.0
C544 C 0.43855 0.37437 0.69453 0.0
C545 C 0.44418 0.40857 0.78277 0.0
C546 C 0.44406 0.3979 0.75193 0.0
H547 H 0.42062 0.29776 0.64296 0.0
H548 H 0.43145 0.31986 0.69094 0.0
H549 H 0.41177 0.40963 0.67396 0.0
H550 H 0.44533 0.4687 0.81357 0.0
H551 H 0.45069 0.45078 0.76406 0.0
C552 C 0.58837 0.64575 0.4307 0.0
C553 C 0.59612 0.6732 0.43044 0.0
C554 C 0.5806 0.63503 0.40191 0.0
C555 C 0.59083 0.64563 0.31758 0.0
H556 H 0.53462 0.59051 0.30843 0.0
C557 C 0.57494 0.58717 0.20801 0.0
C558 C 0.57531 0.55866 0.21664 0.0
C559 C 0.57118 0.60448 0.23044 0.0
C560 C 0.55036 0.60591 0.31058 0.0
H561 H 0.60054 0.71118 0.39943 0.0
H562 H 0.58726 0.69235 0.34923 0.0
H563 H 0.54038 0.61473 0.35521 0.0
H564 H 0.56993 0.52588 0.25439 0.0
H565 H 0.56327 0.55584 0.29335 0.0
H566 H 0.60144 0.63621 0.27355 0.0
C567 C 0.58753 0.67905 0.37178 0.0
C568 C 0.5537 0.61973 0.33743 0.0
C569 C 0.59521 0.68982 0.40058 0.0
C570 C 0.56994 0.54781 0.24723 0.0
C571 C 0.56593 0.56502 0.26946 0.0
C572 C 0.58748 0.63181 0.29074 0.0
C573 C 0.58043 0.65144 0.37209 0.0
C574 C 0.57447 0.63924 0.34168 0.0
C575 C 0.56737 0.59355 0.26173 0.0
C576 C 0.5677 0.61126 0.28734 0.0
H577 H 0.58921 0.63222 0.45318 0.0
H578 H 0.5757 0.61356 0.40309 0.0
H579 H 0.60722 0.66033 0.32022 0.0
H580 H 0.57906 0.59603 0.18458 0.0
H581 H 0.57209 0.62638 0.22363 0.0
C582 C 0.80066 0.08385 0.85724 0.0
C583 C 0.8162 0.08583 0.88775 0.0
C584 C 0.81394 0.07907 0.83174 0.0
C585 C 0.882 0.08788 0.80602 0.0
H586 H 0.85605 0.03773 0.7456 0.0
C587 C 0.95118 0.06121 0.72078 0.0
C588 C 0.93956 0.06587 0.68802 0.0
C589 C 0.93424 0.05915 0.74417 0.0
C590 C 0.86338 0.05188 0.76224 0.0
H591 H 0.85784 0.08436 0.9153 0.0
H592 H 0.88075 0.07558 0.87138 0.0
H593 H 0.82962 0.04397 0.78842 0.0
H594 H 0.90121 0.06978 0.65383 0.0
H595 H 0.87124 0.06618 0.69511 0.0
H596 H 0.91568 0.0958 0.78032 0.0
C597 C 0.85837 0.07791 0.86693 0.0
C598 C 0.84826 0.05553 0.78664 0.0
C599 C 0.84518 0.08262 0.89227 0.0
C600 C 0.91058 0.06607 0.679 0.0
C601 C 0.8935 0.06407 0.70257 0.0
C602 C 0.89706 0.08415 0.78194 0.0
C603 C 0.843 0.07645 0.83625 0.0
C604 C 0.85771 0.07329 0.80909 0.0
C605 C 0.9053 0.0619 0.73533 0.0
C606 C 0.88823 0.06582 0.7601 0.0
H607 H 0.77828 0.08603 0.85308 0.0
H608 H 0.80153 0.07815 0.80835 0.0
H609 H 0.88944 0.10231 0.82229 0.0
H610 H 0.97348 0.0608 0.72826 0.0
H611 H 0.94387 0.05688 0.76926 0.0
C612 C 0.40455 0.32882 0.29052 0.0
C613 C 0.41104 0.3392 0.31996 0.0
C614 C 0.41155 0.34318 0.26237 0.0
C615 C 0.46037 0.39328 0.23438 0.0
H616 H 0.40667 0.40654 0.1555 0.0
C617 C 0.48247 0.46796 0.12668 0.0
C618 C 0.47444 0.46099 0.0956 0.0
C619 C 0.47373 0.45278 0.15315 0.0
C620 C 0.42202 0.40268 0.1772 0.0
H621 H 0.42943 0.37328 0.34246 0.0
H622 H 0.44231 0.39774 0.29363 0.0
H623 H 0.39358 0.38012 0.20352 0.0
H624 H 0.45092 0.43239 0.06832 0.0
H625 H 0.43545 0.40579 0.11453 0.0
H626 H 0.48897 0.41535 0.20831 0.0
C627 C 0.43194 0.37842 0.29245 0.0
C628 C 0.41449 0.38762 0.20467 0.0
C629 C 0.42468 0.36428 0.32047 0.0
C630 C 0.45704 0.43864 0.09167 0.0
C631 C 0.44825 0.42334 0.11826 0.0
C632 C 0.46797 0.40808 0.20693 0.0
C633 C 0.42546 0.36802 0.26314 0.0
C634 C 0.43354 0.38304 0.2336 0.0
C635 C 0.45682 0.43005 0.14939 0.0
C636 C 0.4488 0.41327 0.17809 0.0
H637 H 0.3944 0.30942 0.28924 0.0
H638 H 0.40655 0.33459 0.24011 0.0
H639 H 0.4756 0.38967 0.25622 0.0
H640 H 0.49567 0.4852 0.13073 0.0
H641 H 0.48024 0.45895 0.17662 0.0
C642 C 0.16419 0.90351 0.84638 0.0
C643 C 0.173 0.92401 0.86536 0.0
C644 C 0.14935 0.91028 0.81527 0.0
C645 C 0.13569 0.96661 0.74807 0.0
H646 H 0.07183 0.92428 0.71926 0.0
C647 C 0.06204 0.99992 0.62831 0.0
C648 C 0.05111 0.9796 0.61003 0.0
C649 C 0.07727 0.99285 0.65916 0.0
C650 C 0.08985 0.93607 0.72672 0.0
H651 H 0.17315 0.96772 0.86658 0.0
H652 H 0.147 0.9796 0.8121 0.0
H653 H 0.09739 0.91283 0.7738 0.0
H654 H 0.04733 0.93584 0.61025 0.0
H655 H 0.07473 0.92346 0.66365 0.0
H656 H 0.12835 0.98972 0.70096 0.0
C657 C 0.15177 0.95827 0.82132 0.0
C658 C 0.10444 0.92955 0.75804 0.0
C659 C 0.1665 0.95147 0.85259 0.0
C660 C 0.05576 0.95201 0.62341 0.0
C661 C 0.0712 0.94492 0.65424 0.0
C662 C 0.12119 0.97304 0.71669 0.0
C663 C 0.14304 0.93773 0.80233 0.0
C664 C 0.12747 0.94479 0.76909 0.0
C665 C 0.08209 0.96528 0.67254 0.0
C666 C 0.09801 0.95792 0.70565 0.0
H667 H 0.16862 0.88214 0.85567 0.0
H668 H 0.14314 0.894 0.80117 0.0
H669 H 0.15361 0.97846 0.75571 0.0
H670 H 0.05877 0.02141 0.61891 0.0
H671 H 0.08489 0.00909 0.67273 0.0
loop_
_geom_bond_atom_site_label_1
_geom_bond_atom_site_label_2
_geom_bond_distance
_geom_bond_site_symmetry_2
_ccdc_geom_bond_type
C0 C1 1.384 . S
C0 H13 0.947 . S
C0 C35 1.382 . S
C1 C0 1.384 . S
C1 C2 1.378 . S
C2 C1 1.378 . S
C2 C3 1.378 . S
C2 H14 0.952 . S
C3 C2 1.378 . S
C3 H15 0.950 . S
C3 C34 1.383 . S
H4 C23 0.947 . S
H5 C24 0.946 . S
H6 C26 0.953 1_556 S
H7 C27 0.945 . S
H8 C29 0.952 . S
H9 C30 0.949 . S
H10 C32 0.950 . S
H11 C33 0.948 . S
H12 C35 0.951 . S
H13 C0 0.947 . S
H14 C2 0.952 . S
H15 C3 0.950 . S
N16 C19 1.382 . S
N16 C21 1.363 . S
N17 C19 1.371 1_556 S
N17 C20 1.372 . S
N18 C20 1.361 1_554 S
N18 C21 1.377 . S
C19 N16 1.382 . S
C19 N17 1.371 1_554 S
C19 C22 1.480 . S
C20 N17 1.372 . S
C20 N18 1.361 1_556 S
C20 C28 1.457 . S
C21 N16 1.363 . S
C21 N18 1.377 . S
C21 C34 1.479 . S
C22 C19 1.480 . S
C22 C23 1.383 . S
C22 C27 1.385 1_554 S
C23 H4 0.947 . S
C23 C22 1.383 . S
C23 C24 1.388 . S
C24 H5 0.946 . S
C24 C23 1.388 . S
C24 C25 1.384 . S
C25 C24 1.384 . S
C25 C26 1.377 . S
C26 H6 0.953 1_554 S
C26 C25 1.377 . S
C26 C27 1.369 1_554 S
C27 H7 0.945 . S
C27 C22 1.385 1_556 S
C27 C26 1.369 1_556 S
C28 C20 1.457 . S
C28 C29 1.372 . S
C28 C33 1.364 . S
C29 H8 0.952 . S
C29 C28 1.372 . S
C29 C30 1.389 . S
C30 H9 0.949 . S
C30 C29 1.389 . S
C30 C31 1.387 . S
C31 C30 1.387 . S
C31 C32 1.372 . S
C32 H10 0.950 . S
C32 C31 1.372 . S
C32 C33 1.379 . S
C33 H11 0.948 . S
C33 C28 1.364 . S
C33 C32 1.379 . S
C34 C3 1.383 . S
C34 C21 1.479 . S
C34 C35 1.398 . S
C35 C0 1.382 . S
C35 H12 0.951 . S
C35 C34 1.398 . S
C36 C37 1.384 . S
C36 H49 0.947 . S
C36 C71 1.382 . S
C37 C36 1.384 . S
C37 C38 1.378 . S
C38 C37 1.378 . S
C38 C39 1.378 . S
C38 H50 0.952 . S
C39 C38 1.378 . S
C39 H51 0.950 . S
C39 C70 1.383 . S
H40 C59 0.947 . S
H41 C60 0.946 . S
H42 C62 0.953 . S
H43 C63 0.945 . S
H44 C65 0.952 . S
H45 C66 0.949 . S
H46 C68 0.950 . S
H47 C69 0.948 . S
H48 C71 0.951 . S
H49 C36 0.947 . S
H50 C38 0.952 . S
H51 C39 0.950 . S
N52 C55 1.382 . S
N52 C57 1.363 . S
N53 C55 1.371 . S
N53 C56 1.372 . S
N54 C56 1.361 . S
N54 C57 1.377 . S
C55 N52 1.382 . S
C55 N53 1.371 . S
C55 C58 1.480 . S
C56 N53 1.372 . S
C56 N54 1.361 . S
C56 C64 1.457 . S
C57 N52 1.363 . S
C57 N54 1.377 . S
C57 C70 1.479 . S
C58 C55 1.480 . S
C58 C59 1.383 . S
C58 C63 1.385 . S
C59 H40 0.947 . S
C59 C58 1.383 . S
C59 C60 1.388 . S
C60 H41 0.946 . S
C60 C59 1.388 . S
C60 C61 1.384 . S
C61 C60 1.384 . S
C61 C62 1.377 . S
C62 H42 0.953 . S
C62 C61 1.377 . S
C62 C63 1.369 . S
C63 H43 0.945 . S
C63 C58 1.385 . S
C63 C62 1.369 . S
C64 C56 1.457 . S
C64 C65 1.372 . S
C64 C69 1.364 . S
C65 H44 0.952 . S
C65 C64 1.372 . S
C65 C66 1.389 . S
C66 H45 0.949 . S
C66 C65 1.389 . S
C66 C67 1.387 . S
C67 C66 1.387 . S
C67 C68 1.372 . S
C68 H46 0.950 . S
C68 C67 1.372 . S
C68 C69 1.379 . S
C69 H47 0.948 . S
C69 C64 1.364 . S
C69 C68 1.379 . S
C70 C39 1.383 . S
C70 C57 1.479 . S
C70 C71 1.398 . S
C71 C36 1.382 . S
C71 H48 0.951 . S
C71 C70 1.398 . S
C72 C73 1.384 . S
C72 H85 0.947 . S
C72 C107 1.382 . S
C73 C72 1.384 . S
C73 C74 1.378 . S
C74 C73 1.378 . S
C74 C75 1.378 . S
C74 H86 0.952 . S
C75 C74 1.378 . S
C75 H87 0.950 . S
C75 C106 1.383 . S
H76 C95 0.947 . S
H77 C96 0.946 . S
H78 C98 0.953 . S
H79 C99 0.945 . S
H80 C101 0.952 . S
H81 C102 0.949 . S
H82 C104 0.950 . S
H83 C105 0.948 . S
H84 C107 0.951 . S
H85 C72 0.947 . S
H86 C74 0.952 . S
H87 C75 0.950 . S
N88 C91 1.382 1_556 S
N88 C93 1.362 . S
N89 C91 1.371 . S
N89 C92 1.372 . S
N90 C92 1.361 . S
N90 C93 1.361 1_554 S
C91 N88 1.382 1_554 S
C91 N89 1.371 . S
C91 C94 1.480 . S
C92 N89 1.372 . S
C92 N90 1.361 . S
C92 C100 1.457 . S
C93 N88 1.362 . S
C93 N90 1.361 1_556 S
C93 C106 1.497 . S
C94 C91 1.480 . S
C94 C95 1.383 1_554 S
C94 C99 1.385 . S
C95 H76 0.947 . S
C95 C94 1.383 1_556 S
C95 C96 1.388 . S
C96 H77 0.946 . S
C96 C95 1.388 . S
C96 C97 1.384 1_556 S
C97 C96 1.384 1_554 S
C97 C98 1.377 . S
C98 H78 0.953 . S
C98 C97 1.377 . S
C98 C99 1.369 . S
C99 H79 0.945 . S
C99 C94 1.385 . S
C99 C98 1.369 . S
C100 C92 1.457 . S
C100 C101 1.372 . S
C100 C105 1.364 . S
C101 H80 0.952 . S
C101 C100 1.372 . S
C101 C102 1.389 . S
C102 H81 0.949 . S
C102 C101 1.389 . S
C102 C103 1.387 . S
C103 C102 1.387 . S
C103 C104 1.372 . S
C104 H82 0.950 . S
C104 C103 1.372 . S
C104 C105 1.379 . S
C105 H83 0.948 . S
C105 C100 1.364 . S
C105 C104 1.379 . S
C106 C75 1.383 . S
C106 C93 1.497 . S
C106 C107 1.398 . S
C107 C72 1.382 . S
C107 H84 0.951 . S
C107 C106 1.398 . S
C108 C109 1.384 . S
C108 H121 0.947 . S
C108 C143 1.382 . S
C109 C108 1.384 . S
C109 C110 1.378 . S
C110 C109 1.378 . S
C110 C111 1.378 . S
C110 H122 0.952 . S
C111 C110 1.378 . S
C111 H123 0.950 . S
C111 C142 1.383 . S
H112 C131 0.947 . S
H113 C132 0.946 . S
H114 C134 0.953 . S
H115 C135 0.945 . S
H116 C137 0.952 . S
H117 C138 0.949 . S
H118 C140 0.950 . S
H119 C141 0.948 . S
H120 C143 0.951 . S
H121 C108 0.947 . S
H122 C110 0.952 . S
H123 C111 0.950 . S
N124 C127 1.382 . S
N124 C129 1.363 . S
N125 C127 1.371 . S
N125 C128 1.372 . S
N126 C128 1.361 . S
N126 C129 1.377 . S
C127 N124 1.382 . S
C127 N125 1.371 . S
C127 C130 1.480 . S
C128 N125 1.372 . S
C128 N126 1.361 . S
C128 C136 1.457 . S
C129 N124 1.363 . S
C129 N126 1.377 . S
C129 C142 1.479 . S
C130 C127 1.480 . S
C130 C131 1.383 . S
C130 C135 1.385 . S
C131 H112 0.947 . S
C131 C130 1.383 . S
C131 C132 1.388 . S
C132 H113 0.946 . S
C132 C131 1.388 . S
C132 C133 1.384 . S
C133 C132 1.384 . S
C133 C134 1.377 . S
C134 H114 0.953 . S
C134 C133 1.377 . S
C134 C135 1.369 . S
C135 H115 0.945 . S
C135 C130 1.385 . S
C135 C134 1.369 . S
C136 C128 1.457 . S
C136 C137 1.372 . S
C136 C141 1.364 . S
C137 H116 0.952 . S
C137 C136 1.372 . S
C137 C138 1.389 . S
C138 H117 0.949 . S
C138 C137 1.389 . S
C138 C139 1.387 . S
C139 C138 1.387 . S
C139 C140 1.372 . S
C140 H118 0.950 . S
C140 C139 1.372 . S
C140 C141 1.379 . S
C141 H119 0.948 . S
C141 C136 1.364 . S
C141 C140 1.379 . S
C142 C111 1.383 . S
C142 C129 1.479 . S
C142 C143 1.398 . S
C143 C108 1.382 . S
C143 H120 0.951 . S
C143 C142 1.398 . S
Eu144 N173 2.600 . S
Eu144 N179 2.562 . S
Eu144 O188 2.462 . S
Eu144 O189 2.373 . S
Eu144 O191 2.432 . S
Eu144 O192 2.291 1_565 S
Eu144 O196 2.353 1_455 S
Eu144 O199 2.372 1_455 S
Eu144 C208 2.787 . S
C145 N146 1.365 . S
C145 C148 1.405 . S
C145 C152 1.448 . S
N146 C145 1.365 . S
N146 C149 1.319 1_655 S
N146 Eu155 2.600 . S
C147 C149 1.397 . S
C147 C150 1.367 1_455 S
C147 H167 0.931 . S
C148 C145 1.405 . S
C148 C150 1.403 . S
C148 C154 1.439 . S
C149 N146 1.319 1_455 S
C149 C147 1.397 . S
C149 H160 0.930 . S
C150 C147 1.367 1_655 S
C150 C148 1.403 . S
C150 H171 0.929 . S
C151 C152 1.430 . S
C151 C153 1.387 . S
C151 C157 1.404 . S
C152 C145 1.448 . S
C152 C151 1.430 . S
C152 N156 1.351 . S
C153 C151 1.387 . S
C153 C154 1.374 . S
C153 H168 0.931 . S
C154 C148 1.439 . S
C154 C153 1.374 . S
C154 H169 0.931 . S
Eu155 N146 2.600 . S
Eu155 N156 2.562 . S
Eu155 O190 2.335 1_655 S
Eu155 O193 2.372 1_655 S
Eu155 O194 2.462 . S
Eu155 O195 2.373 . S
Eu155 O197 2.432 . S
Eu155 O198 2.291 1_545 S
Eu155 C219 2.787 . S
N156 C152 1.351 . S
N156 Eu155 2.562 . S
N156 C158 1.325 . S
C157 C151 1.404 . S
C157 C159 1.366 . S
C157 H165 0.930 . S
C158 N156 1.325 . S
C158 C159 1.416 . S
C158 H164 0.929 . S
C159 C157 1.366 . S
C159 C158 1.416 . S
C159 H161 0.930 . S
H160 C149 0.930 . S
H161 C159 0.930 . S
H162 C177 0.930 1_655 S
H163 C184 0.930 . S
H164 C158 0.929 . S
H165 C157 0.930 . S
H166 C180 0.929 . S
H167 C147 0.931 . S
H168 C153 0.931 . S
H169 C154 0.931 . S
H170 C175 0.931 1_655 S
H171 C150 0.929 . S
H172 C183 0.930 . S
N173 Eu144 2.600 . S
N173 C174 1.365 . S
N173 C177 1.319 . S
C174 N173 1.365 . S
C174 C176 1.405 . S
C174 C182 1.448 . S
C175 H170 0.931 1_455 S
C175 C177 1.397 . S
C175 C178 1.367 . S
C176 C174 1.405 . S
C176 C178 1.403 . S
C176 C209 1.439 . S
C177 H162 0.930 1_455 S
C177 N173 1.319 . S
C177 C175 1.397 . S
C178 C175 1.367 . S
C178 C176 1.403 . S
C178 H185 0.929 . S
N179 Eu144 2.562 . S
N179 C180 1.325 . S
N179 C182 1.351 . S
C180 H166 0.929 . S
C180 N179 1.325 . S
C180 C184 1.416 . S
C181 C182 1.430 . S
C181 C183 1.404 . S
C181 C210 1.387 . S
C182 C174 1.448 . S
C182 N179 1.351 . S
C182 C181 1.430 . S
C183 H172 0.930 . S
C183 C181 1.404 . S
C183 C184 1.366 . S
C184 H163 0.930 . S
C184 C180 1.416 . S
C184 C183 1.366 . S
H185 C178 0.929 . S
H186 C209 0.931 . S
H187 C210 0.931 . S
O188 Eu144 2.462 . S
O188 C208 1.252 . S
O189 Eu144 2.373 . S
O189 C200 1.249 . S
O190 Eu155 2.335 1_455 S
O190 C200 1.264 1_545 S
O191 Eu144 2.432 . S
O191 C208 1.268 . S
O192 Eu144 2.291 1_545 S
O192 C207 1.255 . S
O193 Eu155 2.372 1_455 S
O193 C207 1.257 . S
O194 Eu155 2.462 . S
O194 C219 1.252 . S
O195 Eu155 2.373 . S
O195 C211 1.249 . S
O196 Eu144 2.353 1_655 S
O196 C211 1.237 1_565 S
O197 Eu155 2.432 . S
O197 C219 1.268 . S
O198 Eu155 2.291 1_565 S
O198 C218 1.255 . S
O199 Eu144 2.372 1_655 S
O199 C218 1.257 . S
C200 O189 1.249 . S
C200 O190 1.264 1_565 S
C201 C204 1.382 . S
C201 C206 1.390 . S
C201 C208 1.506 . S
C202 C203 1.398 . S
C202 C206 1.392 . S
C203 C202 1.398 . S
C203 C205 1.372 . S
C203 H220 0.931 . S
C204 C201 1.382 . S
C204 C205 1.390 . S
C204 H221 0.931 . S
C205 C203 1.372 . S
C205 C204 1.390 . S
C205 H222 0.929 . S
C206 C201 1.390 . S
C206 C202 1.392 . S
C206 H223 0.930 . S
C207 O192 1.255 . S
C207 O193 1.257 . S
C208 Eu144 2.787 . S
C208 O188 1.252 . S
C208 O191 1.268 . S
C208 C201 1.506 . S
C209 C176 1.439 . S
C209 H186 0.931 . S
C209 C210 1.374 . S
C210 C181 1.387 . S
C210 H187 0.931 . S
C210 C209 1.374 . S
C211 O195 1.249 . S
C211 O196 1.237 1_545 S
C212 C215 1.382 . S
C212 C216 1.390 . S
C212 C219 1.506 . S
C213 C214 1.398 . S
C213 C216 1.392 . S
C214 C213 1.398 . S
C214 C217 1.372 . S
C214 H224 0.931 . S
C215 C212 1.382 . S
C215 C217 1.390 . S
C215 H225 0.931 . S
C216 C212 1.390 . S
C216 C213 1.392 . S
C216 H226 0.930 . S
C217 C214 1.372 . S
C217 C215 1.390 . S
C217 H227 0.929 . S
C218 O198 1.255 . S
C218 O199 1.257 . S
C219 Eu155 2.787 . S
C219 O194 1.252 . S
C219 O197 1.268 . S
C219 C212 1.506 . S
H220 C203 0.931 . S
H221 C204 0.931 . S
H222 C205 0.929 . S
H223 C206 0.930 . S
H224 C214 0.931 . S
H225 C215 0.931 . S
H226 C216 0.930 . S
H227 C217 0.929 . S
Eu228 N257 2.600 . S
Eu228 N263 2.562 1_556 S
Eu228 O272 2.462 . S
Eu228 O273 2.373 1_556 S
Eu228 O275 2.432 . S
Eu228 O276 2.291 1_556 S
Eu228 O280 2.335 . S
Eu228 O283 2.372 . S
Eu228 C292 2.787 . S
C229 N230 1.365 . S
C229 C232 1.405 . S
C229 C236 1.448 . S
N230 C229 1.365 . S
N230 C233 1.319 . S
N230 Eu239 2.600 . S
C231 C233 1.397 . S
C231 C234 1.367 . S
C231 H251 0.931 . S
C232 C229 1.405 . S
C232 C234 1.403 . S
C232 C238 1.439 . S
C233 N230 1.319 . S
C233 C231 1.397 . S
C233 H244 0.930 . S
C234 C231 1.367 . S
C234 C232 1.403 . S
C234 H255 0.929 . S
C235 C236 1.430 . S
C235 C237 1.387 . S
C235 C241 1.404 . S
C236 C229 1.448 . S
C236 C235 1.430 . S
C236 N240 1.351 . S
C237 C235 1.387 . S
C237 C238 1.374 . S
C237 H252 0.931 . S
C238 C232 1.439 . S
C238 C237 1.374 . S
C238 H253 0.931 . S
Eu239 N230 2.600 . S
Eu239 N240 2.562 . S
Eu239 O274 2.335 . S
Eu239 O277 2.372 . S
Eu239 O278 2.462 . S
Eu239 O279 2.373 1_554 S
Eu239 O281 2.432 . S
Eu239 O282 2.291 . S
Eu239 C303 2.787 . S
N240 C236 1.351 . S
N240 Eu239 2.562 . S
N240 C242 1.325 . S
C241 C235 1.404 . S
C241 C243 1.366 . S
C241 H249 0.930 . S
C242 N240 1.325 . S
C242 C243 1.416 . S
C242 H248 0.929 . S
C243 C241 1.366 . S
C243 C242 1.416 . S
C243 H245 0.930 . S
H244 C233 0.930 . S
H245 C243 0.930 . S
H246 C261 0.930 . S
H247 C268 0.930 . S
H248 C242 0.929 . S
H249 C241 0.930 . S
H250 C264 0.929 . S
H251 C231 0.931 . S
H252 C237 0.931 . S
H253 C238 0.931 . S
H254 C259 0.931 . S
H255 C234 0.929 . S
H256 C267 0.930 . S
N257 Eu228 2.600 . S
N257 C258 1.365 1_556 S
N257 C261 1.319 . S
C258 N257 1.365 1_554 S
C258 C260 1.405 . S
C258 C266 1.448 . S
C259 H254 0.931 . S
C259 C261 1.397 . S
C259 C262 1.367 1_556 S
C260 C258 1.405 . S
C260 C262 1.403 . S
C260 C293 1.439 . S
C261 H246 0.930 . S
C261 N257 1.319 . S
C261 C259 1.397 . S
C262 C259 1.367 1_554 S
C262 C260 1.403 . S
C262 H269 0.929 . S
N263 Eu228 2.562 1_554 S
N263 C264 1.325 . S
N263 C266 1.351 . S
C264 H250 0.929 . S
C264 N263 1.325 . S
C264 C268 1.416 . S
C265 C266 1.430 . S
C265 C267 1.404 . S
C265 C294 1.387 . S
C266 C258 1.448 . S
C266 N263 1.351 . S
C266 C265 1.430 . S
C267 H256 0.930 . S
C267 C265 1.404 . S
C267 C268 1.366 . S
C268 H247 0.930 . S
C268 C264 1.416 . S
C268 C267 1.366 . S
H269 C262 0.929 . S
H270 C293 0.931 . S
H271 C294 0.931 . S
O272 Eu228 2.462 . S
O272 C292 1.252 . S
O273 Eu228 2.373 1_554 S
O273 C284 1.249 . S
O274 Eu239 2.335 . S
O274 C284 1.264 . S
O275 Eu228 2.432 . S
O275 C292 1.268 . S
O276 Eu228 2.291 1_554 S
O276 C291 1.255 . S
O277 Eu239 2.372 . S
O277 C291 1.257 . S
O278 Eu239 2.462 . S
O278 C303 1.252 . S
O279 Eu239 2.373 1_556 S
O279 C295 1.249 . S
O280 Eu228 2.335 . S
O280 C295 1.264 . S
O281 Eu239 2.432 . S
O281 C303 1.268 . S
O282 Eu239 2.291 . S
O282 C302 1.255 . S
O283 Eu228 2.372 . S
O283 C302 1.257 1_556 S
C284 O273 1.249 . S
C284 O274 1.264 . S
C285 C288 1.382 . S
C285 C290 1.390 . S
C285 C292 1.506 . S
C286 C287 1.398 . S
C286 C290 1.392 . S
C287 C286 1.398 . S
C287 C289 1.372 . S
C287 H304 0.931 . S
C288 C285 1.382 . S
C288 C289 1.390 . S
C288 H305 0.931 . S
C289 C287 1.372 . S
C289 C288 1.390 . S
C289 H306 0.929 . S
C290 C285 1.390 . S
C290 C286 1.392 . S
C290 H307 0.930 . S
C291 O276 1.255 . S
C291 O277 1.257 . S
C292 Eu228 2.787 . S
C292 O272 1.252 . S
C292 O275 1.268 . S
C292 C285 1.506 . S
C293 C260 1.439 . S
C293 H270 0.931 . S
C293 C294 1.374 . S
C294 C265 1.387 . S
C294 H271 0.931 . S
C294 C293 1.374 . S
C295 O279 1.249 . S
C295 O280 1.264 . S
C296 C299 1.382 . S
C296 C300 1.390 . S
C296 C303 1.506 . S
C297 C298 1.398 . S
C297 C300 1.392 . S
C298 C297 1.398 . S
C298 C301 1.372 . S
C298 H308 0.931 . S
C299 C296 1.382 . S
C299 C301 1.390 . S
C299 H309 0.931 . S
C300 C296 1.390 . S
C300 C297 1.392 . S
C300 H310 0.930 . S
C301 C298 1.372 . S
C301 C299 1.390 . S
C301 H311 0.929 . S
C302 O282 1.255 . S
C302 O283 1.257 1_554 S
C303 Eu239 2.787 . S
C303 O278 1.252 . S
C303 O281 1.268 . S
C303 C296 1.506 . S
H304 C287 0.931 . S
H305 C288 0.931 . S
H306 C289 0.929 . S
H307 C290 0.930 . S
H308 C298 0.931 . S
H309 C299 0.931 . S
H310 C300 0.930 . S
H311 C301 0.929 . S
C312 C313 1.349 . S
C312 C314 1.327 . S
C312 H337 0.950 . S
C313 C312 1.349 . S
C313 C329 1.349 . S
C314 C312 1.327 . S
C314 C333 1.429 . S
C314 H338 0.950 . S
C315 C332 1.574 . S
C315 C334 1.368 . S
C315 H339 0.949 . S
H316 C320 0.949 . S
C317 C318 1.349 . S
C317 C319 1.327 . S
C317 H340 0.950 . S
C318 C317 1.349 . S
C318 C330 1.349 . S
C319 C317 1.327 . S
C319 C335 1.429 . S
C319 H341 0.950 . S
C320 H316 0.949 . S
C320 C328 1.574 . S
C320 C336 1.368 . S
H321 C329 0.950 . S
H322 C327 0.950 . S
H323 C328 0.949 . S
H324 C330 0.950 . S
H325 C331 0.950 . S
H326 C332 0.949 . S
C327 H322 0.950 . S
C327 C329 1.327 . S
C327 C333 1.429 . S
C328 C320 1.574 . S
C328 H323 0.949 . S
C328 C334 1.368 . S
C329 C313 1.349 . S
C329 H321 0.950 . S
C329 C327 1.327 . S
C330 C318 1.349 . S
C330 H324 0.950 . S
C330 C331 1.327 . S
C331 H325 0.950 . S
C331 C330 1.327 . S
C331 C335 1.429 . S
C332 C315 1.574 . S
C332 H326 0.949 . S
C332 C336 1.368 . S
C333 C314 1.429 . S
C333 C327 1.429 . S
C333 C334 1.523 . S
C334 C315 1.368 . S
C334 C328 1.368 . S
C334 C333 1.523 . S
C335 C319 1.429 . S
C335 C331 1.429 . S
C335 C336 1.523 . S
C336 C320 1.368 . S
C336 C332 1.368 . S
C336 C335 1.523 . S
H337 C312 0.950 . S
H338 C314 0.950 . S
H339 C315 0.949 . S
H340 C317 0.950 . S
H341 C319 0.950 . S
C342 C343 1.349 . S
C342 C344 1.327 . S
C342 H367 0.950 . S
C343 C342 1.349 . S
C343 C359 1.349 . S
C344 C342 1.327 . S
C344 C363 1.429 . S
C344 H368 0.950 . S
C345 C362 1.574 . S
C345 C364 1.368 . S
C345 H369 0.949 1_554 S
H346 C350 0.949 . S
C347 C348 1.349 . S
C347 C349 1.327 . S
C347 H370 0.950 1_554 S
C348 C347 1.349 . S
C348 C360 1.349 . S
C349 C347 1.327 . S
C349 C365 1.429 . S
C349 H371 0.950 1_554 S
C350 H346 0.949 . S
C350 C358 1.574 . S
C350 C366 1.368 . S
H351 C359 0.950 1_556 S
H352 C357 0.950 1_556 S
H353 C358 0.949 . S
H354 C360 0.950 . S
H355 C361 0.950 . S
H356 C362 0.949 1_556 S
C357 H352 0.950 1_554 S
C357 C359 1.327 . S
C357 C363 1.429 . S
C358 C350 1.574 . S
C358 H353 0.949 . S
C358 C364 1.368 . S
C359 C343 1.349 . S
C359 H351 0.950 1_554 S
C359 C357 1.327 . S
C360 C348 1.349 . S
C360 H354 0.950 . S
C360 C361 1.327 . S
C361 H355 0.950 . S
C361 C360 1.327 . S
C361 C365 1.429 . S
C362 C345 1.574 . S
C362 H356 0.949 1_554 S
C362 C366 1.368 . S
C363 C344 1.429 . S
C363 C357 1.429 . S
C363 C364 1.523 . S
C364 C345 1.368 . S
C364 C358 1.368 . S
C364 C363 1.523 . S
C365 C349 1.429 . S
C365 C361 1.429 . S
C365 C366 1.523 . S
C366 C350 1.368 . S
C366 C362 1.368 . S
C366 C365 1.523 . S
H367 C342 0.950 . S
H368 C344 0.950 . S
H369 C345 0.949 1_556 S
H370 C347 0.950 1_556 S
H371 C349 0.950 1_556 S
C372 C373 1.349 . S
C372 C374 1.327 . S
C372 H397 0.950 . S
C373 C372 1.349 . S
C373 C389 1.349 . S
C374 C372 1.327 . S
C374 C393 1.429 . S
C374 H398 0.950 . S
C375 C392 1.574 . S
C375 C394 1.368 . S
C375 H399 0.949 . S
H376 C380 0.949 . S
C377 C378 1.349 . S
C377 C379 1.327 . S
C377 H400 0.950 . S
C378 C377 1.349 . S
C378 C390 1.349 . S
C379 C377 1.327 . S
C379 C395 1.429 . S
C379 H401 0.950 . S
C380 H376 0.949 . S
C380 C388 1.574 . S
C380 C396 1.368 . S
H381 C389 0.950 . S
H382 C387 0.950 . S
H383 C388 0.949 . S
H384 C390 0.950 . S
H385 C391 0.950 . S
H386 C392 0.949 . S
C387 H382 0.950 . S
C387 C389 1.327 . S
C387 C393 1.429 . S
C388 C380 1.574 . S
C388 H383 0.949 . S
C388 C394 1.368 . S
C389 C373 1.349 . S
C389 H381 0.950 . S
C389 C387 1.327 . S
C390 C378 1.349 . S
C390 H384 0.950 . S
C390 C391 1.327 . S
C391 H385 0.950 . S
C391 C390 1.327 . S
C391 C395 1.429 . S
C392 C375 1.574 . S
C392 H386 0.949 . S
C392 C396 1.368 . S
C393 C374 1.429 . S
C393 C387 1.429 . S
C393 C394 1.523 . S
C394 C375 1.368 . S
C394 C388 1.368 . S
C394 C393 1.523 . S
C395 C379 1.429 . S
C395 C391 1.429 . S
C395 C396 1.523 . S
C396 C380 1.368 . S
C396 C392 1.368 . S
C396 C395 1.523 . S
H397 C372 0.950 . S
H398 C374 0.950 . S
H399 C375 0.949 . S
H400 C377 0.950 . S
H401 C379 0.950 . S
C402 C403 1.349 1_556 S
C402 C404 1.327 . S
C402 H427 0.950 . S
C403 C402 1.349 1_554 S
C403 C419 1.349 . S
C404 C402 1.327 . S
C404 C423 1.429 1_556 S
C404 H428 0.950 . S
C405 C422 1.574 . S
C405 C424 1.368 . S
C405 H429 0.949 . S
H406 C410 0.949 . S
C407 C408 1.349 . S
C407 C409 1.327 . S
C407 H430 0.950 . S
C408 C407 1.349 . S
C408 C420 1.349 1_554 S
C409 C407 1.327 . S
C409 C425 1.429 . S
C409 H431 0.950 . S
C410 H406 0.949 . S
C410 C418 1.574 . S
C410 C426 1.368 1_556 S
H411 C419 0.950 . S
H412 C417 0.950 . S
H413 C418 0.949 . S
H414 C420 0.950 . S
H415 C421 0.950 . S
H416 C422 0.949 . S
C417 H412 0.950 . S
C417 C419 1.327 . S
C417 C423 1.429 . S
C418 C410 1.574 . S
C418 H413 0.949 . S
C418 C424 1.368 1_556 S
C419 C403 1.349 . S
C419 H411 0.950 . S
C419 C417 1.327 . S
C420 C408 1.349 1_556 S
C420 H414 0.950 . S
C420 C421 1.327 . S
C421 H415 0.950 . S
C421 C420 1.327 . S
C421 C425 1.429 1_556 S
C422 C405 1.574 . S
C422 H416 0.949 . S
C422 C426 1.368 . S
C423 C404 1.429 1_554 S
C423 C417 1.429 . S
C423 C424 1.523 . S
C424 C405 1.368 . S
C424 C418 1.368 1_554 S
C424 C423 1.523 . S
C425 C409 1.429 . S
C425 C421 1.429 1_554 S
C425 C426 1.523 . S
C426 C410 1.368 1_554 S
C426 C422 1.368 . S
C426 C425 1.523 . S
H427 C402 0.950 . S
H428 C404 0.950 . S
H429 C405 0.949 . S
H430 C407 0.950 . S
H431 C409 0.950 . S
C432 C433 1.349 . S
C432 C434 1.327 . S
C432 H457 0.950 . S
C433 C432 1.349 . S
C433 C449 1.349 . S
C434 C432 1.327 . S
C434 C453 1.429 . S
C434 H458 0.950 . S
C435 C452 1.574 . S
C435 C454 1.368 . S
C435 H459 0.949 . S
H436 C440 0.949 . S
C437 C438 1.349 . S
C437 C439 1.327 . S
C437 H460 0.950 . S
C438 C437 1.349 . S
C438 C450 1.349 . S
C439 C437 1.327 . S
C439 C455 1.429 . S
C439 H461 0.950 . S
C440 H436 0.949 . S
C440 C448 1.574 . S
C440 C456 1.368 . S
H441 C449 0.950 . S
H442 C447 0.950 . S
H443 C448 0.949 . S
H444 C450 0.950 . S
H445 C451 0.950 . S
H446 C452 0.949 . S
C447 H442 0.950 . S
C447 C449 1.327 . S
C447 C453 1.429 . S
C448 C440 1.574 . S
C448 H443 0.949 . S
C448 C454 1.368 . S
C449 C433 1.349 . S
C449 H441 0.950 . S
C449 C447 1.327 . S
C450 C438 1.349 . S
C450 H444 0.950 . S
C450 C451 1.327 . S
C451 H445 0.950 . S
C451 C450 1.327 . S
C451 C455 1.429 . S
C452 C435 1.574 . S
C452 H446 0.949 . S
C452 C456 1.368 . S
C453 C434 1.429 . S
C453 C447 1.429 . S
C453 C454 1.523 . S
C454 C435 1.368 . S
C454 C448 1.368 . S
C454 C453 1.523 . S
C455 C439 1.429 . S
C455 C451 1.429 . S
C455 C456 1.523 . S
C456 C440 1.368 . S
C456 C452 1.368 . S
C456 C455 1.523 . S
H457 C432 0.950 . S
H458 C434 0.950 . S
H459 C435 0.949 . S
H460 C437 0.950 . S
H461 C439 0.950 . S
C462 C463 1.349 . S
C462 C464 1.327 . S
C462 H487 0.950 . S
C463 C462 1.349 . S
C463 C479 1.349 . S
C464 C462 1.327 . S
C464 C483 1.429 . S
C464 H488 0.950 . S
C465 C482 1.574 . S
C465 C484 1.368 . S
C465 H489 0.949 . S
H466 C470 0.949 . S
C467 C468 1.349 . S
C467 C469 1.327 . S
C467 H490 0.950 . S
C468 C467 1.349 . S
C468 C480 1.349 . S
C469 C467 1.327 . S
C469 C485 1.429 . S
C469 H491 0.950 . S
C470 H466 0.949 . S
C470 C478 1.574 . S
C470 C486 1.368 . S
H471 C479 0.950 . S
H472 C477 0.950 . S
H473 C478 0.949 . S
H474 C480 0.950 . S
H475 C481 0.950 . S
H476 C482 0.949 . S
C477 H472 0.950 . S
C477 C479 1.327 . S
C477 C483 1.429 . S
C478 C470 1.574 . S
C478 H473 0.949 . S
C478 C484 1.368 . S
C479 C463 1.349 . S
C479 H471 0.950 . S
C479 C477 1.327 . S
C480 C468 1.349 . S
C480 H474 0.950 . S
C480 C481 1.327 . S
C481 H475 0.950 . S
C481 C480 1.327 . S
C481 C485 1.429 . S
C482 C465 1.574 . S
C482 H476 0.949 . S
C482 C486 1.368 . S
C483 C464 1.429 . S
C483 C477 1.429 . S
C483 C484 1.523 . S
C484 C465 1.368 . S
C484 C478 1.368 . S
C484 C483 1.523 . S
C485 C469 1.429 . S
C485 C481 1.429 . S
C485 C486 1.523 . S
C486 C470 1.368 . S
C486 C482 1.368 . S
C486 C485 1.523 . S
H487 C462 0.950 . S
H488 C464 0.950 . S
H489 C465 0.949 . S
H490 C467 0.950 . S
H491 C469 0.950 . S
C492 C493 1.349 . S
C492 C494 1.327 . S
C492 H517 0.950 . S
C493 C492 1.349 . S
C493 C509 1.349 . S
C494 C492 1.327 . S
C494 C513 1.429 . S
C494 H518 0.950 . S
C495 C512 1.574 . S
C495 C514 1.368 . S
C495 H519 0.949 . S
H496 C500 0.949 . S
C497 C498 1.349 . S
C497 C499 1.327 . S
C497 H520 0.950 . S
C498 C497 1.349 . S
C498 C510 1.349 . S
C499 C497 1.327 . S
C499 C515 1.429 . S
C499 H521 0.950 . S
C500 H496 0.949 . S
C500 C508 1.574 . S
C500 C516 1.368 . S
H501 C509 0.950 . S
H502 C507 0.950 . S
H503 C508 0.949 . S
H504 C510 0.950 . S
H505 C511 0.950 . S
H506 C512 0.949 . S
C507 H502 0.950 . S
C507 C509 1.327 . S
C507 C513 1.429 . S
C508 C500 1.574 . S
C508 H503 0.949 . S
C508 C514 1.368 . S
C509 C493 1.349 . S
C509 H501 0.950 . S
C509 C507 1.327 . S
C510 C498 1.349 . S
C510 H504 0.950 . S
C510 C511 1.327 . S
C511 H505 0.950 . S
C511 C510 1.327 . S
C511 C515 1.429 . S
C512 C495 1.574 . S
C512 H506 0.949 . S
C512 C516 1.368 . S
C513 C494 1.429 . S
C513 C507 1.429 . S
C513 C514 1.523 . S
C514 C495 1.368 . S
C514 C508 1.368 . S
C514 C513 1.523 . S
C515 C499 1.429 . S
C515 C511 1.429 . S
C515 C516 1.523 . S
C516 C500 1.368 . S
C516 C512 1.368 . S
C516 C515 1.523 . S
H517 C492 0.950 . S
H518 C494 0.950 . S
H519 C495 0.949 . S
H520 C497 0.950 . S
H521 C499 0.950 . S
C522 C523 1.349 . S
C522 C524 1.327 . S
C522 H547 0.950 . S
C523 C522 1.349 . S
C523 C539 1.349 . S
C524 C522 1.327 . S
C524 C543 1.429 . S
C524 H548 0.950 . S
C525 C542 1.574 . S
C525 C544 1.368 . S
C525 H549 0.949 . S
H526 C530 0.949 . S
C527 C528 1.349 . S
C527 C529 1.327 . S
C527 H550 0.950 . S
C528 C527 1.349 . S
C528 C540 1.349 . S
C529 C527 1.327 . S
C529 C545 1.429 . S
C529 H551 0.950 . S
C530 H526 0.949 . S
C530 C538 1.574 . S
C530 C546 1.368 . S
H531 C539 0.950 . S
H532 C537 0.950 . S
H533 C538 0.949 . S
H534 C540 0.950 . S
H535 C541 0.950 . S
H536 C542 0.949 . S
C537 H532 0.950 . S
C537 C539 1.327 . S
C537 C543 1.429 . S
C538 C530 1.574 . S
C538 H533 0.949 . S
C538 C544 1.368 . S
C539 C523 1.349 . S
C539 H531 0.950 . S
C539 C537 1.327 . S
C540 C528 1.349 . S
C540 H534 0.950 . S
C540 C541 1.327 . S
C541 H535 0.950 . S
C541 C540 1.327 . S
C541 C545 1.429 . S
C542 C525 1.574 . S
C542 H536 0.949 . S
C542 C546 1.368 . S
C543 C524 1.429 . S
C543 C537 1.429 . S
C543 C544 1.523 . S
C544 C525 1.368 . S
C544 C538 1.368 . S
C544 C543 1.523 . S
C545 C529 1.429 . S
C545 C541 1.429 . S
C545 C546 1.523 . S
C546 C530 1.368 . S
C546 C542 1.368 . S
C546 C545 1.523 . S
H547 C522 0.950 . S
H548 C524 0.950 . S
H549 C525 0.949 . S
H550 C527 0.950 . S
H551 C529 0.950 . S
C552 C553 1.349 . S
C552 C554 1.327 . S
C552 H577 0.950 . S
C553 C552 1.349 . S
C553 C569 1.349 . S
C554 C552 1.327 . S
C554 C573 1.429 . S
C554 H578 0.950 . S
C555 C572 1.574 . S
C555 C574 1.368 . S
C555 H579 0.949 . S
H556 C560 0.949 . S
C557 C558 1.349 . S
C557 C559 1.327 . S
C557 H580 0.950 . S
C558 C557 1.349 . S
C558 C570 1.349 . S
C559 C557 1.327 . S
C559 C575 1.429 . S
C559 H581 0.950 . S
C560 H556 0.949 . S
C560 C568 1.574 . S
C560 C576 1.368 . S
H561 C569 0.950 . S
H562 C567 0.950 . S
H563 C568 0.949 . S
H564 C570 0.950 . S
H565 C571 0.950 . S
H566 C572 0.949 . S
C567 H562 0.950 . S
C567 C569 1.327 . S
C567 C573 1.429 . S
C568 C560 1.574 . S
C568 H563 0.949 . S
C568 C574 1.368 . S
C569 C553 1.349 . S
C569 H561 0.950 . S
C569 C567 1.327 . S
C570 C558 1.349 . S
C570 H564 0.950 . S
C570 C571 1.327 . S
C571 H565 0.950 . S
C571 C570 1.327 . S
C571 C575 1.429 . S
C572 C555 1.574 . S
C572 H566 0.949 . S
C572 C576 1.368 . S
C573 C554 1.429 . S
C573 C567 1.429 . S
C573 C574 1.523 . S
C574 C555 1.368 . S
C574 C568 1.368 . S
C574 C573 1.523 . S
C575 C559 1.429 . S
C575 C571 1.429 . S
C575 C576 1.523 . S
C576 C560 1.368 . S
C576 C572 1.368 . S
C576 C575 1.523 . S
H577 C552 0.950 . S
H578 C554 0.950 . S
H579 C555 0.949 . S
H580 C557 0.950 . S
H581 C559 0.950 . S
C582 C583 1.349 . S
C582 C584 1.327 . S
C582 H607 0.950 . S
C583 C582 1.349 . S
C583 C599 1.349 . S
C584 C582 1.327 . S
C584 C603 1.429 . S
C584 H608 0.950 . S
C585 C602 1.574 . S
C585 C604 1.368 . S
C585 H609 0.949 . S
H586 C590 0.949 . S
C587 C588 1.349 . S
C587 C589 1.327 . S
C587 H610 0.950 . S
C588 C587 1.349 . S
C588 C600 1.349 . S
C589 C587 1.327 . S
C589 C605 1.429 . S
C589 H611 0.950 . S
C590 H586 0.949 . S
C590 C598 1.574 . S
C590 C606 1.368 . S
H591 C599 0.950 . S
H592 C597 0.950 . S
H593 C598 0.949 . S
H594 C600 0.950 . S
H595 C601 0.950 . S
H596 C602 0.949 . S
C597 H592 0.950 . S
C597 C599 1.327 . S
C597 C603 1.429 . S
C598 C590 1.574 . S
C598 H593 0.949 . S
C598 C604 1.368 . S
C599 C583 1.349 . S
C599 H591 0.950 . S
C599 C597 1.327 . S
C600 C588 1.349 . S
C600 H594 0.950 . S
C600 C601 1.327 . S
C601 H595 0.950 . S
C601 C600 1.327 . S
C601 C605 1.429 . S
C602 C585 1.574 . S
C602 H596 0.949 . S
C602 C606 1.368 . S
C603 C584 1.429 . S
C603 C597 1.429 . S
C603 C604 1.523 . S
C604 C585 1.368 . S
C604 C598 1.368 . S
C604 C603 1.523 . S
C605 C589 1.429 . S
C605 C601 1.429 . S
C605 C606 1.523 . S
C606 C590 1.368 . S
C606 C602 1.368 . S
C606 C605 1.523 . S
H607 C582 0.950 . S
H608 C584 0.950 . S
H609 C585 0.949 . S
H610 C587 0.950 . S
H611 C589 0.950 . S
C612 C613 1.349 . S
C612 C614 1.327 . S
C612 H637 0.950 . S
C613 C612 1.349 . S
C613 C629 1.349 . S
C614 C612 1.327 . S
C614 C633 1.429 . S
C614 H638 0.950 . S
C615 C632 1.574 . S
C615 C634 1.368 . S
C615 H639 0.949 . S
H616 C620 0.949 . S
C617 C618 1.349 . S
C617 C619 1.327 . S
C617 H640 0.950 . S
C618 C617 1.349 . S
C618 C630 1.349 . S
C619 C617 1.327 . S
C619 C635 1.429 . S
C619 H641 0.950 . S
C620 H616 0.949 . S
C620 C628 1.574 . S
C620 C636 1.368 . S
H621 C629 0.950 . S
H622 C627 0.950 . S
H623 C628 0.949 . S
H624 C630 0.950 . S
H625 C631 0.950 . S
H626 C632 0.949 . S
C627 H622 0.950 . S
C627 C629 1.327 . S
C627 C633 1.429 . S
C628 C620 1.574 . S
C628 H623 0.949 . S
C628 C634 1.368 . S
C629 C613 1.349 . S
C629 H621 0.950 . S
C629 C627 1.327 . S
C630 C618 1.349 . S
C630 H624 0.950 . S
C630 C631 1.327 . S
C631 H625 0.950 . S
C631 C630 1.327 . S
C631 C635 1.429 . S
C632 C615 1.574 . S
C632 H626 0.949 . S
C632 C636 1.368 . S
C633 C614 1.429 . S
C633 C627 1.429 . S
C633 C634 1.523 . S
C634 C615 1.368 . S
C634 C628 1.368 . S
C634 C633 1.523 . S
C635 C619 1.429 . S
C635 C631 1.429 . S
C635 C636 1.523 . S
C636 C620 1.368 . S
C636 C632 1.368 . S
C636 C635 1.523 . S
H637 C612 0.950 . S
H638 C614 0.950 . S
H639 C615 0.949 . S
H640 C617 0.950 . S
H641 C619 0.950 . S
C642 C643 1.349 . S
C642 C644 1.327 . S
C642 H667 0.950 . S
C643 C642 1.349 . S
C643 C659 1.349 . S
C644 C642 1.327 . S
C644 C663 1.429 . S
C644 H668 0.950 . S
C645 C662 1.574 . S
C645 C664 1.368 . S
C645 H669 0.949 . S
H646 C650 0.949 . S
C647 C648 1.349 . S
C647 C649 1.327 . S
C647 H670 0.950 1_565 S
C648 C647 1.349 . S
C648 C660 1.349 . S
C649 C647 1.327 . S
C649 C665 1.429 . S
C649 H671 0.950 1_565 S
C650 H646 0.949 . S
C650 C658 1.574 . S
C650 C666 1.368 . S
H651 C659 0.950 . S
H652 C657 0.950 . S
H653 C658 0.949 . S
H654 C660 0.950 . S
H655 C661 0.950 . S
H656 C662 0.949 . S
C657 H652 0.950 . S
C657 C659 1.327 . S
C657 C663 1.429 . S
C658 C650 1.574 . S
C658 H653 0.949 . S
C658 C664 1.368 . S
C659 C643 1.349 . S
C659 H651 0.950 . S
C659 C657 1.327 . S
C660 C648 1.349 . S
C660 H654 0.950 . S
C660 C661 1.327 . S
C661 H655 0.950 . S
C661 C660 1.327 . S
C661 C665 1.429 . S
C662 C645 1.574 . S
C662 H656 0.949 . S
C662 C666 1.368 . S
C663 C644 1.429 . S
C663 C657 1.429 . S
C663 C664 1.523 . S
C664 C645 1.368 . S
C664 C658 1.368 . S
C664 C663 1.523 . S
C665 C649 1.429 . S
C665 C661 1.429 . S
C665 C666 1.523 . S
C666 C650 1.368 . S
C666 C662 1.368 . S
C666 C665 1.523 . S
H667 C642 0.950 . S
H668 C644 0.950 . S
H669 C645 0.949 . S
H670 C647 0.950 1_545 S
H671 C649 0.950 1_545 S
C318 C207 1.619 . S
C313 C133 1.637 . S
C343 C25 1.616 . S
C348 C302 1.606 . S
C373 C61 1.617 . S
C378 C218 1.619 . S
C403 C97 1.588 . S
C408 C291 1.606 . S
C438 C202 1.416 . S
C433 C1 1.564 . S
C468 C295 1.608 . S
C463 C67 1.583 . S
C493 C103 1.571 . S
C498 C211 1.602 . S
C523 C109 1.543 . S
C528 C286 1.404 . S
C558 C297 1.404 . S
C553 C37 1.533 . S
C588 C213 1.416 . S
C583 C73 1.550 . S
C618 C284 1.608 . S
C613 C139 1.602 . S
C643 C31 1.599 . S
C648 C200 1.601 . S
