# Generated by pormake.
# Topology pyr, (3,6)-cn, num edge types: 1
# Building blocks:
#     Node 0, Type 0, BuildingBlock: ESEHIV_clean_linker_0, # of connection points: 3
#     Node 1, Type 0, BuildingBlock: ESEHIV_clean_linker_0, # of connection points: 3
#     Node 2, Type 0, BuildingBlock: ESEHIV_clean_linker_0, # of connection points: 3
#     Node 3, Type 0, BuildingBlock: ESEHIV_clean_linker_0, # of connection points: 3
#     Node 4, Type 0, BuildingBlock: ESEHIV_clean_linker_0, # of connection points: 3
#     Node 5, Type 0, BuildingBlock: ESEHIV_clean_linker_0, # of connection points: 3
#     Node 6, Type 0, BuildingBlock: ESEHIV_clean_linker_0, # of connection points: 3
#     Node 7, Type 0, BuildingBlock: ESEHIV_clean_linker_0, # of connection points: 3
#     Node 8, Type 1, BuildingBlock: FUNLAD_clean_sbu_0, # of connection points: 6
#     Node 9, Type 1, BuildingBlock: FUNLAD_clean_sbu_0, # of connection points: 6
#     Node 10, Type 1, BuildingBlock: FUNLAD_clean_sbu_0, # of connection points: 6
#     Node 11, Type 1, BuildingBlock: FUNLAD_clean_sbu_0, # of connection points: 6
#     Edge 12, Type (0, 1), BuildingBlock: ZUJKAS_clean_linker_0, # of connection points: 2
#     Edge 13, Type (0, 1), BuildingBlock: ZUJKAS_clean_linker_0, # of connection points: 2
#     Edge 14, Type (0, 1), BuildingBlock: ZUJKAS_clean_linker_0, # of connection points: 2
#     Edge 15, Type (0, 1), BuildingBlock: ZUJKAS_clean_linker_0, # of connection points: 2
#     Edge 16, Type (0, 1), BuildingBlock: ZUJKAS_clean_linker_0, # of connection points: 2
#     Edge 17, Type (0, 1), BuildingBlock: ZUJKAS_clean_linker_0, # of connection points: 2
#     Edge 18, Type (0, 1), BuildingBlock: ZUJKAS_clean_linker_0, # of connection points: 2
#     Edge 19, Type (0, 1), BuildingBlock: ZUJKAS_clean_linker_0, # of connection points: 2
#     Edge 20, Type (0, 1), BuildingBlock: ZUJKAS_clean_linker_0, # of connection points: 2
#     Edge 21, Type (0, 1), BuildingBlock: ZUJKAS_clean_linker_0, # of connection points: 2
#     Edge 22, Type (0, 1), BuildingBlock: ZUJKAS_clean_linker_0, # of connection points: 2
#     Edge 23, Type (0, 1), BuildingBlock: ZUJKAS_clean_linker_0, # of connection points: 2
#     Edge 24, Type (0, 1), BuildingBlock: ZUJKAS_clean_linker_0, # of connection points: 2
#     Edge 25, Type (0, 1), BuildingBlock: ZUJKAS_clean_linker_0, # of connection points: 2
#     Edge 26, Type (0, 1), BuildingBlock: ZUJKAS_clean_linker_0, # of connection points: 2
#     Edge 27, Type (0, 1), BuildingBlock: ZUJKAS_clean_linker_0, # of connection points: 2
#     Edge 28, Type (0, 1), BuildingBlock: ZUJKAS_clean_linker_0, # of connection points: 2
#     Edge 29, Type (0, 1), BuildingBlock: ZUJKAS_clean_linker_0, # of connection points: 2
#     Edge 30, Type (0, 1), BuildingBlock: ZUJKAS_clean_linker_0, # of connection points: 2
#     Edge 31, Type (0, 1), BuildingBlock: ZUJKAS_clean_linker_0, # of connection points: 2
#     Edge 32, Type (0, 1), BuildingBlock: ZUJKAS_clean_linker_0, # of connection points: 2
#     Edge 33, Type (0, 1), BuildingBlock: ZUJKAS_clean_linker_0, # of connection points: 2
#     Edge 34, Type (0, 1), BuildingBlock: ZUJKAS_clean_linker_0, # of connection points: 2
#     Edge 35, Type (0, 1), BuildingBlock: ZUJKAS_clean_linker_0, # of connection points: 2
# Relax obj value: 0.055
# Max RMSD: 0.062
# Mean RMSD: 0.029
data_MOF--net-pry--node1-FUNLAD_clean_sbu_0--node2-ESEHIV_clean_linker_0--edge1-ZUJKAS_clean_linker_0
_symmetry_space_group_name_H-M    P1
_symmetry_Int_Tables_number       1
_symmetry_cell_setting            triclinic
loop_
_symmetry_equiv_pos_as_xyz
'x, y, z'
_cell_length_a     44.624726
_cell_length_b     47.195736
_cell_length_c     47.513989
_cell_angle_alpha  90.284629
_cell_angle_beta   90.19014
_cell_angle_gamma 85.901408
loop_
_atom_site_label
_atom_site_type_symbol
_atom_site_fract_x
_atom_site_fract_y
_atom_site_fract_z
_atom_type_partial_charge
H0 H 0.11254 0.19693 0.20677 0.0
H1 H 0.18244 0.12906 0.2044 0.0
H2 H 0.17979 0.19446 0.14175 0.0
C3 C 0.13261 0.18695 0.19716 0.0
C4 C 0.14418 0.19883 0.17247 0.0
C5 C 0.14611 0.16157 0.20887 0.0
C6 C 0.17183 0.14843 0.19565 0.0
C7 C 0.18403 0.15992 0.17124 0.0
C8 C 0.17 0.18509 0.16001 0.0
H9 H 0.33683 0.89581 0.70388 0.0
H10 H 0.40786 0.82905 0.70386 0.0
H11 H 0.34016 0.832 0.63893 0.0
C12 C 0.34791 0.87709 0.69415 0.0
C13 C 0.33535 0.86568 0.6697 0.0
C14 C 0.37403 0.86413 0.7068 0.0
C15 C 0.38755 0.83897 0.69458 0.0
C16 C 0.37566 0.82723 0.66983 0.0
C17 C 0.34955 0.84085 0.65779 0.0
H18 H 0.63866 0.40782 0.98078 0.0
H19 H 0.64141 0.47509 0.92065 0.0
H20 H 0.56141 0.43035 0.92931 0.0
C21 C 0.62728 0.42157 0.96533 0.0
C22 C 0.59837 0.416 0.956 0.0
C23 C 0.6424 0.44374 0.95347 0.0
C24 C 0.62864 0.45986 0.93155 0.0
C25 C 0.59976 0.45448 0.92198 0.0
C26 C 0.58411 0.43396 0.93586 0.0
H27 H 0.88179 0.61754 0.49732 0.0
H28 H 0.94898 0.61387 0.43245 0.0
H29 H 0.87169 0.56557 0.42371 0.0
C30 C 0.89063 0.60874 0.47767 0.0
C31 C 0.87402 0.58973 0.46226 0.0
C32 C 0.91793 0.61738 0.46722 0.0
C33 C 0.92865 0.60642 0.44135 0.0
C34 C 0.91213 0.58779 0.42557 0.0
C35 C 0.88518 0.57897 0.43643 0.0
H36 H 0.8355 0.89762 0.82112 0.0
H37 H 0.90548 0.8297 0.8201 0.0
H38 H 0.83804 0.83334 0.88489 0.0
C39 C 0.84611 0.87843 0.83022 0.0
C40 C 0.83387 0.86736 0.85483 0.0
C41 C 0.87191 0.86506 0.81726 0.0
C42 C 0.88537 0.83989 0.82946 0.0
C43 C 0.87373 0.82849 0.85434 0.0
C44 C 0.84786 0.84241 0.86649 0.0
H45 H 0.61183 0.19247 0.32246 0.0
H46 H 0.68168 0.12449 0.32356 0.0
H47 H 0.68002 0.18973 0.38695 0.0
C48 C 0.63203 0.18241 0.3318 0.0
C49 C 0.64399 0.19415 0.35653 0.0
C50 C 0.64531 0.15705 0.31976 0.0
C51 C 0.67123 0.14385 0.33261 0.0
C52 C 0.68377 0.1553 0.35703 0.0
C53 C 0.66997 0.18041 0.36864 0.0
H54 H 0.37659 0.61694 0.0422 0.0
H55 H 0.37458 0.55409 0.10704 0.0
H56 H 0.45483 0.59712 0.0934 0.0
C57 C 0.3883 0.60398 0.05809 0.0
C58 C 0.41763 0.60963 0.06614 0.0
C59 C 0.37289 0.58346 0.07238 0.0
C60 C 0.38703 0.5687 0.09497 0.0
C61 C 0.41634 0.57406 0.10317 0.0
C62 C 0.43196 0.59334 0.08755 0.0
H63 H 0.07004 0.42759 0.60567 0.0
H64 H 0.14248 0.40515 0.54847 0.0
H65 H 0.14822 0.47547 0.6056 0.0
C66 C 0.09141 0.432 0.5965 0.0
C67 C 0.10756 0.45369 0.60801 0.0
C68 C 0.10383 0.41418 0.57516 0.0
C69 C 0.13204 0.41951 0.56403 0.0
C70 C 0.14818 0.44161 0.57492 0.0
C71 C 0.13559 0.4588 0.59666 0.0
C72 C 0.03679 0.03153 0.46339 0.0
N73 N 0.01766 0.07235 0.5402 0.0
C74 C 0.04466 0.08308 0.53543 0.0
C75 C 0.04807 0.11189 0.53917 0.0
C76 C 0.0235 0.12988 0.54795 0.0
C77 C 0.99651 0.11804 0.55482 0.0
C78 C 0.99399 0.08894 0.55061 0.0
Zn79 Zn 0.01255 0.03295 0.52412 0.0
C80 C 0.95454 0.03194 0.49139 0.0
N81 N 1.00426 0.9527 0.48558 0.0
C82 C 0.0289 0.93738 0.47541 0.0
C83 C 0.97761 0.94084 0.48883 0.0
C84 C 0.97545 0.91204 0.4833 0.0
C85 C 1.00107 0.8953 0.47472 0.0
C86 C 0.02785 0.90838 0.46999 0.0
Zn87 Zn 0.00856 0.99197 0.50216 0.0
O88 O 0.0327 0.04664 0.48549 0.0
C89 C 0.06653 0.99286 0.53498 0.0
O90 O 0.02921 1.00601 0.46386 0.0
H91 H 0.95844 0.95332 0.49731 0.0
H92 H 0.0631 0.06964 0.52691 0.0
H93 H 0.04985 0.94728 0.47297 0.0
O94 O 0.05585 0.01795 0.54061 0.0
O95 O 0.05157 0.97742 0.51899 0.0
H96 H 0.97267 0.07997 0.55402 0.0
O97 O 0.98809 0.97827 0.54072 0.0
O98 O 0.99206 0.01889 0.56243 0.0
O99 O 0.96544 1.00695 0.48558 0.0
O100 O 0.96933 0.04743 0.50754 0.0
C101 C 0.98419 0.99344 0.56286 0.0
H102 H 0.06937 0.12026 0.53405 0.0
H103 H 0.97709 0.13137 0.56164 0.0
H104 H 0.95448 0.90263 0.48747 0.0
H105 H 0.04799 0.89611 0.46318 0.0
C106 C 0.56393 0.99048 0.99172 0.0
N107 N 0.51737 0.07117 0.98842 0.0
C108 C 0.54458 0.08117 0.99414 0.0
C109 C 0.54896 0.10982 0.99077 0.0
C110 C 0.52513 0.12838 0.98137 0.0
C111 C 0.49788 0.11726 0.97375 0.0
C112 C 0.4944 0.08833 0.97761 0.0
Zn113 Zn 0.51059 0.03177 1.00299 0.0
C114 C 0.48183 0.99433 0.96291 0.0
N115 N 0.49891 0.95112 0.03834 0.0
C116 C 0.52215 0.93325 0.04752 0.0
C117 C 0.4714 0.94158 0.03301 0.0
C118 C 0.46703 0.91276 0.03472 0.0
C119 C 0.4912 0.89353 0.04192 0.0
C120 C 0.51872 0.90411 0.04957 0.0
Zn121 Zn 0.50578 0.9907 0.02405 0.0
O122 O 0.55354 0.01574 0.9866 0.0
C123 C 0.53462 0.02812 0.06411 0.0
O124 O 0.54879 0.97506 1.00739 0.0
H125 H 0.45331 0.95602 0.02542 0.0
H126 H 0.56247 0.06722 1.00289 0.0
H127 H 0.54389 0.94129 0.05142 0.0
O128 O 0.53086 0.04357 0.04232 0.0
O129 O 0.52649 1.00279 0.0631 0.0
H130 H 0.4729 0.07992 0.97343 0.0
O131 O 0.46277 1.00696 0.04056 0.0
O132 O 0.46767 0.04743 0.01939 0.0
O133 O 0.4854 0.97892 0.98474 0.0
O134 O 0.49006 0.01962 0.96393 0.0
C135 C 0.45245 0.03222 0.03519 0.0
H136 H 0.57046 0.11758 0.99641 0.0
H137 H 0.47901 0.13101 0.96644 0.0
H138 H 0.44532 0.90543 0.02914 0.0
H139 H 0.53789 0.88988 0.05523 0.0
C140 C 0.53177 0.45735 0.49269 0.0
N141 N 0.52901 0.4944 0.57434 0.0
C142 C 0.52077 0.47127 0.5886 0.0
C143 C 0.52611 0.46905 0.61761 0.0
C144 C 0.53971 0.491 0.63178 0.0
C145 C 0.54905 0.51389 0.61626 0.0
C146 C 0.54347 0.51518 0.58753 0.0
Zn147 Zn 0.51674 0.50294 0.53373 0.0
C148 C 0.56696 0.52995 0.50399 0.0
N149 N 0.49251 0.52844 0.45084 0.0
C150 C 0.47866 0.50782 0.43679 0.0
C151 C 0.50028 0.55229 0.43754 0.0
C152 C 0.49503 0.55554 0.40865 0.0
C153 C 0.48193 0.5339 0.39354 0.0
C154 C 0.47314 0.51014 0.40808 0.0
Zn155 Zn 0.50451 0.51949 0.49136 0.0
O156 O 0.53268 0.46109 0.51927 0.0
C157 C 0.4544 0.49218 0.52095 0.0
O158 O 0.52152 0.47786 0.47734 0.0
H159 H 0.51143 0.56831 0.44913 0.0
H160 H 0.5091 0.45512 0.57772 0.0
H161 H 0.47275 0.48896 0.44767 0.0
O162 O 0.47357 0.4886 0.54068 0.0
O163 O 0.4617 0.50432 0.49845 0.0
H164 H 0.54969 0.53352 0.57598 0.0
O165 O 0.4878 0.56108 0.50589 0.0
O166 O 0.50038 0.54485 0.54766 0.0
O167 O 0.54744 0.53461 0.48474 0.0
O168 O 0.55985 0.51713 0.52614 0.0
C169 C 0.48942 0.56511 0.53237 0.0
H170 H 0.51858 0.45105 0.62899 0.0
H171 H 0.56003 0.531 0.62638 0.0
H172 H 0.50217 0.57417 0.39807 0.0
H173 H 0.46251 0.49323 0.39726 0.0
C174 C 0.9873 0.56769 0.99344 0.0
N175 N 0.98889 0.53431 0.07604 0.0
C176 C 0.9983 0.55811 0.08855 0.0
C177 C 0.99235 0.56349 0.11703 0.0
C178 C 0.97654 0.5442 0.13261 0.0
C179 C 0.96619 0.52043 0.11877 0.0
C180 C 0.97282 0.51578 0.09049 0.0
Zn181 Zn 1.00106 0.52296 0.03609 0.0
C182 C 0.95056 0.4962 1.00637 0.0
N183 N 0.02551 0.49451 0.95403 0.0
C184 C 0.03959 0.51441 0.93946 0.0
C185 C 0.01694 0.47049 0.94127 0.0
C186 C 0.02141 0.46644 0.91234 0.0
C187 C 0.03443 0.48752 0.8967 0.0
C188 C 0.04424 0.51135 0.9107 0.0
Zn189 Zn 0.01362 0.50542 0.99414 0.0
O190 O 0.98602 0.56454 0.02003 0.0
C191 C 0.0641 0.53234 0.02362 0.0
O192 O 0.99756 0.54674 0.97855 0.0
H193 H 1.0056 0.45506 0.95327 0.0
H194 H 0.01116 0.57248 0.07666 0.0
H195 H 0.04613 0.53342 0.9499 0.0
O196 O 0.04469 0.53667 0.04295 0.0
O197 O 0.05685 0.51988 1.00112 0.0
H198 H 0.96574 0.49685 0.08027 0.0
O199 O 0.02936 0.46418 0.01023 0.0
O200 O 0.01638 0.4813 0.0517 0.0
O201 O 0.97035 0.49104 0.98753 0.0
O202 O 0.9575 0.50925 0.02862 0.0
C203 C 0.0274 0.46066 0.03673 0.0
H204 H 1.00093 0.582 0.12691 0.0
H205 H 0.95338 0.50531 0.12977 0.0
H206 H 0.01361 0.44775 0.90212 0.0
H207 H 0.05481 0.52781 0.89937 0.0
H208 H 0.12434 0.18788 0.25754 0.0
H209 H 0.10628 0.1657 0.30031 0.0
H210 H 0.12042 0.08319 0.26135 0.0
H211 H 0.1388 0.10511 0.21889 0.0
H212 H 0.06019 0.13436 0.31163 0.0
H213 H 0.16479 0.06793 0.33348 0.0
H214 H 0.16294 0.09558 0.30735 0.0
H215 H 0.14989 0.06123 0.29919 0.0
C216 C 0.12352 0.16501 0.25801 0.0
C217 C 0.13349 0.14836 0.2347 0.0
C218 C 0.11325 0.15228 0.28261 0.0
C219 C 0.11262 0.12255 0.28463 0.0
C220 C 0.12159 0.10602 0.26099 0.0
H221 H 0.05111 1.00553 0.41241 0.0
H222 H 0.06913 0.02747 0.36941 0.0
C223 C 0.13204 0.11867 0.23654 0.0
C224 C 0.10217 0.10888 0.31113 0.0
H225 H 0.12188 0.0578 0.3603 0.0
C226 C 0.07384 0.11776 0.3223 0.0
C227 C 0.11977 0.08711 0.32538 0.0
C228 C 0.15115 0.07759 0.31592 0.0
C229 C 0.06252 0.10525 0.34667 0.0
C230 C 0.08 0.08332 0.36069 0.0
C231 C 0.1083 0.07442 0.34959 0.0
C232 C 0.06951 0.06975 0.38713 0.0
C233 C 0.03157 0.11524 0.3569 0.0
C234 C 0.06421 0.08592 0.41178 0.0
C235 C 0.05411 0.0734 0.43645 0.0
C236 C 0.04895 0.04427 0.43726 0.0
C237 C 0.05472 0.02798 0.41267 0.0
C238 C 0.06505 0.04053 0.388 0.0
H239 H 0.01819 0.12685 0.34028 0.0
H240 H 0.01911 0.09707 0.36406 0.0
H241 H 0.03369 0.12989 0.37502 0.0
H242 H 0.06796 0.10834 0.41199 0.0
H243 H 0.05006 0.08672 0.45487 0.0
H244 H 0.38102 0.92052 0.71752 0.0
H245 H 0.39995 0.9423 0.76021 0.0
H246 H 0.41437 0.85957 0.79801 0.0
H247 H 0.39592 0.8376 0.75505 0.0
H248 H 0.37966 0.94432 0.81241 0.0
H249 H 0.49373 0.88997 0.8148 0.0
H250 H 0.46929 0.88816 0.78464 0.0
H251 H 0.46479 0.8655 0.81449 0.0
C252 C 0.3883 0.90688 0.73487 0.0
C253 C 0.38694 0.8772 0.73267 0.0
C254 C 0.3992 0.91942 0.75936 0.0
C255 C 0.40914 0.90272 0.78246 0.0
C256 C 0.40773 0.87304 0.78037 0.0
H257 H 0.46784 0.93952 0.95331 0.0
H258 H 0.44997 0.91846 0.90983 0.0
C259 C 0.39704 0.86044 0.75573 0.0
C260 C 0.41993 0.91653 0.80887 0.0
H261 H 0.47839 0.91614 0.8559 0.0
C262 C 0.40137 0.93823 0.82174 0.0
C263 C 0.44829 0.90882 0.8213 0.0
C264 C 0.47031 0.88705 0.80796 0.0
C265 C 0.41002 0.95188 0.84668 0.0
C266 C 0.43818 0.94391 0.85922 0.0
C267 C 0.45678 0.92228 0.84641 0.0
C268 C 0.44855 0.95736 0.88588 0.0
C269 C 0.38861 0.97429 0.85983 0.0
C270 C 0.45391 0.98639 0.88713 0.0
C271 C 0.46432 0.99859 0.9121 0.0
C272 C 0.46957 0.98207 0.93647 0.0
C273 C 0.46399 0.95305 0.93512 0.0
C274 C 0.45381 0.94087 0.91015 0.0
H275 H 0.36548 0.97365 0.85123 0.0
H276 H 0.38783 0.97164 0.88302 0.0
H277 H 0.39653 0.99558 0.85545 0.0
H278 H 0.45047 0.99955 0.86863 0.0
H279 H 0.4685 0.02091 0.91222 0.0
H280 H 0.60554 0.50778 0.89943 0.0
H281 H 0.59195 0.52345 0.85152 0.0
H282 H 0.55443 0.44335 0.83513 0.0
H283 H 0.569 0.42699 0.88168 0.0
H284 H 0.61367 0.48956 0.80111 0.0
H285 H 0.48949 0.50617 0.807 0.0
H286 H 0.5136 0.50835 0.83749 0.0
H287 H 0.50495 0.47432 0.82379 0.0
C288 C 0.59418 0.49361 0.8857 0.0
C289 C 0.58813 0.46621 0.8947 0.0
C290 C 0.58629 0.50267 0.85845 0.0
C291 C 0.57179 0.48466 0.84011 0.0
C292 C 0.56497 0.45777 0.84927 0.0
H293 H 0.56219 0.44769 0.66554 0.0
H294 H 0.57019 0.44944 0.71669 0.0
C295 C 0.57318 0.44857 0.87612 0.0
C296 C 0.56635 0.49213 0.81037 0.0
H297 H 0.51056 0.49768 0.76105 0.0
C298 C 0.59116 0.49197 0.79234 0.0
C299 C 0.53695 0.49517 0.79914 0.0
C300 C 0.50967 0.49628 0.81786 0.0
C301 C 0.58728 0.4932 0.76307 0.0
C302 C 0.5579 0.49444 0.75178 0.0
C303 C 0.53307 0.49629 0.76987 0.0
C304 C 0.55253 0.49314 0.72118 0.0
C305 C 0.61459 0.49247 0.74437 0.0
C306 C 0.53933 0.5169 0.70717 0.0
C307 C 0.53479 0.51594 0.67815 0.0
C308 C 0.54313 0.49111 0.66273 0.0
C309 C 0.55555 0.46704 0.67696 0.0
C310 C 0.56032 0.46809 0.70603 0.0
H311 H 0.635 0.49771 0.75621 0.0
H312 H 0.61872 0.47083 0.73532 0.0
H313 H 0.61093 0.50761 0.72667 0.0
H314 H 0.53294 0.53629 0.71863 0.0
H315 H 0.52476 0.53467 0.66771 0.0
H316 H 0.9277 0.62473 0.3855 0.0
H317 H 0.93997 0.61466 0.33634 0.0
H318 H 0.92823 0.52577 0.34971 0.0
H319 H 0.9154 0.53588 0.39917 0.0
H320 H 0.98511 0.58077 0.31313 0.0
H321 H 0.87398 0.54389 0.2825 0.0
H322 H 0.88016 0.56147 0.31561 0.0
H323 H 0.89208 0.52454 0.31104 0.0
C324 C 0.92804 0.60297 0.37807 0.0
C325 C 0.9208 0.58101 0.39615 0.0
C326 C 0.93492 0.59729 0.34995 0.0
C327 C 0.93466 0.56956 0.33932 0.0
C328 C 0.92794 0.54743 0.3574 0.0
H329 H 0.98 0.50328 0.17321 0.0
H330 H 0.97031 0.50916 0.22353 0.0
C331 C 0.92078 0.55316 0.38559 0.0
C332 C 0.94151 0.56418 0.30926 0.0
H333 H 0.91189 0.54107 0.24764 0.0
C334 C 0.96911 0.57207 0.29882 0.0
C335 C 0.92049 0.55298 0.29065 0.0
C336 C 0.8899 0.54545 0.30039 0.0
C337 C 0.97624 0.56906 0.27021 0.0
C338 C 0.95524 0.55791 0.25172 0.0
C339 C 0.92785 0.54963 0.26209 0.0
C340 C 0.96133 0.55469 0.2214 0.0
C341 C 0.00614 0.57772 0.25982 0.0
C342 C 0.95935 0.57846 0.20374 0.0
C343 C 0.96444 0.57519 0.17486 0.0
C344 C 0.97162 0.54807 0.1633 0.0
C345 C 0.97391 0.52439 0.1813 0.0
C346 C 0.96861 0.52768 0.21007 0.0
H347 H 0.02141 0.58272 0.27738 0.0
H348 H 0.01727 0.5605 0.24672 0.0
H349 H 1.00249 0.59682 0.24636 0.0
H350 H 0.95353 0.59946 0.21227 0.0
H351 H 0.96221 0.59379 0.16156 0.0
H352 H 0.23519 0.13502 0.1962 0.0
H353 H 0.27992 0.11246 0.17331 0.0
H354 H 0.24024 0.13048 0.09197 0.0
H355 H 0.19512 0.15239 0.11466 0.0
H356 H 0.26695 0.07554 0.09536 0.0
H357 H 0.3455 0.15328 0.13356 0.0
H358 H 0.325 0.13715 0.16093 0.0
H359 H 0.30522 0.1598 0.1357 0.0
C360 C 0.23582 0.13403 0.17344 0.0
C361 C 0.21143 0.14576 0.15737 0.0
C362 C 0.26163 0.12136 0.16034 0.0
C363 C 0.26381 0.12011 0.13083 0.0
C364 C 0.23931 0.13131 0.11474 0.0
H365 H 0.42598 0.0863 0.03028 0.0
H366 H 0.38012 0.10665 0.05292 0.0
C367 C 0.21354 0.14406 0.1278 0.0
C368 C 0.29142 0.10699 0.11667 0.0
H369 H 0.36712 0.11265 0.10965 0.0
C370 C 0.28884 0.08367 0.09851 0.0
C371 C 0.32004 0.11773 0.12039 0.0
C372 C 0.32421 0.14353 0.13848 0.0
C373 C 0.31399 0.07065 0.08435 0.0
C374 C 0.34272 0.08097 0.08861 0.0
C375 C 0.34523 0.10451 0.1065 0.0
C376 C 0.37036 0.06805 0.07433 0.0
C377 C 0.30941 0.04633 0.06444 0.0
C378 C 0.38045 0.03949 0.07878 0.0
C379 C 0.40676 0.02773 0.0658 0.0
C380 C 0.42373 0.04426 0.04809 0.0
C381 C 0.41352 0.07283 0.04364 0.0
C382 C 0.38727 0.08457 0.05668 0.0
H383 H 0.28551 0.04577 0.05797 0.0
H384 H 0.32338 0.04777 0.04527 0.0
H385 H 0.31619 0.026 0.0751 0.0
H386 H 0.36824 0.02637 0.09269 0.0
H387 H 0.41397 1.00574 0.06991 0.0
H388 H 0.31883 0.92287 0.66437 0.0
H389 H 0.27322 0.94529 0.64297 0.0
H390 H 0.24365 0.86275 0.62216 0.0
H391 H 0.28821 0.84017 0.64484 0.0
H392 H 0.2527 0.94461 0.59008 0.0
H393 H 0.16924 0.89795 0.6585 0.0
H394 H 0.20885 0.89547 0.66663 0.0
H395 H 0.19376 0.87125 0.64179 0.0
C396 C 0.30239 0.90941 0.65574 0.0
C397 C 0.30738 0.87958 0.65658 0.0
C398 C 0.27636 0.92232 0.64324 0.0
C399 C 0.25455 0.90581 0.63129 0.0
C400 C 0.25963 0.87608 0.63178 0.0
H401 H 0.09125 0.93804 0.53299 0.0
H402 H 0.1371 0.91818 0.55609 0.0
C403 C 0.28551 0.86315 0.64444 0.0
C404 C 0.22699 0.91963 0.61764 0.0
H405 H 0.15018 0.92055 0.6166 0.0
C406 C 0.2303 0.93951 0.59609 0.0
C407 C 0.19759 0.91315 0.62542 0.0
C408 C 0.19208 0.89352 0.64954 0.0
C409 C 0.20525 0.9524 0.58173 0.0
C410 C 0.176 0.94541 0.58913 0.0
C411 C 0.17262 0.92578 0.6108 0.0
C412 C 0.1486 0.95799 0.57446 0.0
C413 C 0.21024 0.97291 0.55825 0.0
C414 C 0.13966 0.98704 0.5771 0.0
C415 C 0.11328 0.9985 0.56402 0.0
C416 C 0.09531 0.98116 0.5479 0.0
C417 C 0.10454 0.95211 0.5451 0.0
C418 C 0.13075 0.94066 0.55837 0.0
H419 H 0.23413 0.972 0.55158 0.0
H420 H 0.19607 0.96839 0.53973 0.0
H421 H 0.20368 0.99485 0.56552 0.0
H422 H 0.15285 1.00079 0.58969 0.0
H423 H 0.10685 0.02091 0.56674 0.0
H424 H 0.68887 0.40339 0.96056 0.0
H425 H 0.74131 0.41091 0.97137 0.0
H426 H 0.71963 0.5014 0.97493 0.0
H427 H 0.66707 0.49402 0.96394 0.0
H428 H 0.76894 0.48685 0.9424 0.0
H429 H 0.7793 0.43259 0.04566 0.0
H430 H 0.76566 0.41088 0.01796 0.0
H431 H 0.74345 0.44212 0.02931 0.0
C432 C 0.69515 0.42485 0.96419 0.0
C433 C 0.67383 0.44813 0.96166 0.0
C434 C 0.72512 0.42911 0.97036 0.0
C435 C 0.73425 0.45668 0.97437 0.0
C436 C 0.71299 0.47994 0.97201 0.0
H437 H 0.90265 0.50704 0.04132 0.0
H438 H 0.85056 0.49655 0.03306 0.0
C439 C 0.68304 0.47572 0.96571 0.0
C440 C 0.76623 0.46138 0.97966 0.0
H441 H 0.82465 0.44573 0.02483 0.0
C442 C 0.78112 0.47794 0.96046 0.0
C443 C 0.78195 0.4499 1.00337 0.0
C444 C 0.76674 0.4331 0.02542 0.0
C445 C 0.81141 0.4832 0.96421 0.0
C446 C 0.82737 0.47107 0.98749 0.0
C447 C 0.81243 0.4547 1.00683 0.0
C448 C 0.85926 0.47612 0.99276 0.0
C449 C 0.82584 0.50223 0.94357 0.0
C450 C 0.88153 0.46756 0.97307 0.0
C451 C 0.91135 0.47366 0.97764 0.0
C452 C 0.91942 0.48821 1.00211 0.0
C453 C 0.89719 0.49591 0.02219 0.0
C454 C 0.8674 0.4899 0.01755 0.0
H455 H 0.80881 0.51535 0.93129 0.0
H456 H 0.84074 0.5166 0.95456 0.0
H457 H 0.83969 0.48893 0.9285 0.0
H458 H 0.87579 0.45635 0.95408 0.0
H459 H 0.92799 0.46725 0.96188 0.0
H460 H 0.84909 0.53857 0.46432 0.0
H461 H 0.79637 0.53027 0.47318 0.0
H462 H 0.77657 0.62004 0.48718 0.0
H463 H 0.82927 0.62835 0.47893 0.0
H464 H 0.74789 0.5889 0.52448 0.0
H465 H 0.73029 0.54859 0.41637 0.0
H466 H 0.75991 0.52863 0.43473 0.0
H467 H 0.76374 0.5654 0.42658 0.0
C468 C 0.83349 0.55644 0.46956 0.0
C469 C 0.84319 0.58408 0.47091 0.0
C470 C 0.80339 0.55173 0.4744 0.0
C471 C 0.78245 0.57464 0.48014 0.0
C472 C 0.79235 0.6021 0.48263 0.0
H473 H 0.58891 0.56286 0.46252 0.0
H474 H 0.6406 0.57637 0.45725 0.0
C475 C 0.82247 0.60679 0.47807 0.0
C476 C 0.75011 0.57013 0.48306 0.0
H477 H 0.69096 0.54291 0.44918 0.0
C478 C 0.73538 0.57897 0.50797 0.0
C479 C 0.73367 0.55781 0.46121 0.0
C480 C 0.74761 0.54984 0.4331 0.0
C481 C 0.70482 0.57509 0.51197 0.0
C482 C 0.68882 0.56131 0.49077 0.0
C483 C 0.70334 0.5532 0.46554 0.0
C484 C 0.65728 0.55429 0.4946 0.0
C485 C 0.68993 0.58613 0.53873 0.0
C486 C 0.64962 0.53724 0.51718 0.0
C487 C 0.62018 0.52972 0.52036 0.0
C488 C 0.59787 0.53872 0.50074 0.0
C489 C 0.6056 0.55563 0.47798 0.0
C490 C 0.63508 0.56336 0.47496 0.0
H491 H 0.70196 0.60376 0.54804 0.0
H492 H 0.66616 0.59381 0.53495 0.0
H493 H 0.6904 0.56875 0.5544 0.0
H494 H 0.66654 0.52932 0.53212 0.0
H495 H 0.61505 0.51646 0.538 0.0
H496 H 0.13655 0.21107 0.11617 0.0
H497 H 0.11625 0.25514 0.09447 0.0
H498 H 0.09681 0.29095 0.17656 0.0
H499 H 0.1183 0.24719 0.19857 0.0
H500 H 0.06153 0.28291 0.09484 0.0
H501 H 0.14255 0.35291 0.14264 0.0
H502 H 0.14761 0.3147 0.14444 0.0
H503 H 0.12206 0.33403 0.16802 0.0
C504 C 0.12834 0.22838 0.12976 0.0
C505 C 0.12964 0.22544 0.1593 0.0
C506 C 0.11645 0.25363 0.11722 0.0
C507 C 0.10546 0.27687 0.13372 0.0
C508 C 0.10579 0.27376 0.1632 0.0
H509 H 0.02772 0.44761 0.09298 0.0
H510 H 0.04578 0.40325 0.11577 0.0
C511 C 0.11777 0.24845 0.17582 0.0
C512 C 0.09355 0.30405 0.11989 0.0
H513 H 0.10233 0.37555 0.11663 0.0
C514 C 0.07057 0.30312 0.0996 0.0
C515 C 0.1052 0.33064 0.12587 0.0
C516 C 0.1309 0.33321 0.14622 0.0
C517 C 0.05872 0.32781 0.0856 0.0
C518 C 0.07039 0.35436 0.09157 0.0
C519 C 0.09327 0.35533 0.11194 0.0
C520 C 0.05905 0.38138 0.07719 0.0
C521 C 0.03328 0.32528 0.06497 0.0
C522 C 0.06061 0.38432 0.04775 0.0
C523 C 0.05026 0.40984 0.03454 0.0
C524 C 0.03815 0.43318 0.05044 0.0
C525 C 0.03677 0.43019 0.07992 0.0
C526 C 0.04718 0.40474 0.09307 0.0
H527 H 0.02165 0.30553 0.06829 0.0
H528 H 0.01654 0.34378 0.0667 0.0
H529 H 0.04238 0.32467 0.04326 0.0
H530 H 0.07021 0.36696 0.03493 0.0
H531 H 0.05191 0.4113 0.01187 0.0
H532 H 0.5995 0.3877 1.00686 0.0
H533 H 0.5841 0.3395 0.0153 0.0
H534 H 0.55221 0.33508 0.92977 0.0
H535 H 0.56864 0.38196 0.92067 0.0
H536 H 0.52676 0.31359 1.00745 0.0
H537 H 0.61695 0.26843 0.93687 0.0
H538 H 0.61633 0.30415 0.95071 0.0
H539 H 0.59327 0.29628 0.92096 0.0
C540 C 0.58908 0.37648 0.98992 0.0
C541 C 0.58534 0.38881 0.96311 0.0
C542 C 0.58015 0.34908 0.99484 0.0
C543 C 0.56748 0.33373 0.97299 0.0
C544 C 0.56229 0.34653 0.94677 0.0
H545 H 0.50979 0.16652 0.93968 0.0
H546 H 0.51787 0.21748 0.9395 0.0
C547 C 0.57136 0.3736 0.94177 0.0
C548 C 0.56119 0.30371 0.97659 0.0
H549 H 0.57931 0.2376 0.94963 0.0
C550 C 0.53839 0.29688 0.99508 0.0
C551 C 0.57657 0.28206 0.96042 0.0
C552 C 0.60235 0.28799 0.94132 0.0
C553 C 0.52986 0.26889 0.99707 0.0
C554 C 0.54463 0.2475 0.9802 0.0
C555 C 0.5678 0.25426 0.96219 0.0
C556 C 0.53708 0.21765 0.98137 0.0
C557 C 0.50473 0.26238 0.01661 0.0
C558 C 0.54526 0.20118 1.00496 0.0
C559 C 0.54093 0.17223 1.005 0.0
C560 C 0.52835 0.15931 0.98144 0.0
C561 C 0.51944 0.17602 0.95809 0.0
C562 C 0.52404 0.205 0.95798 0.0
H563 H 0.49232 0.28199 0.02467 0.0
H564 H 0.48866 0.24911 1.0057 0.0
H565 H 0.51419 0.25012 0.03485 0.0
H566 H 0.55569 0.21059 0.02303 0.0
H567 H 0.54761 0.15987 0.02343 0.0
H568 H 0.97828 0.62249 0.47429 0.0
H569 H 1.00244 0.66661 0.48342 0.0
H570 H 0.91572 0.71033 0.49824 0.0
H571 H 0.89141 0.66672 0.48854 0.0
H572 H 0.98673 0.71262 0.44679 0.0
H573 H 0.97019 0.74414 0.55851 0.0
H574 H 0.9689 0.70785 0.54645 0.0
H575 H 0.93688 0.73276 0.54183 0.0
C576 C 0.96444 0.64135 0.48024 0.0
C577 C 0.93292 0.64121 0.48037 0.0
C578 C 0.97828 0.66646 0.48555 0.0
C579 C 0.96084 0.69163 0.49155 0.0
C580 C 0.9296 0.69098 0.49412 0.0
H581 H 0.95923 0.86417 0.44946 0.0
H582 H 0.95492 0.81283 0.45325 0.0
C583 C 0.91572 0.66597 0.48861 0.0
C584 C 0.97427 0.71927 0.49025 0.0
H585 H 0.97913 0.78162 0.52598 0.0
C586 C 0.98571 0.72752 0.46428 0.0
C587 C 0.97287 0.73858 0.51309 0.0
C588 C 0.9618 0.73034 0.54164 0.0
C589 C 0.99414 0.7552 0.46009 0.0
C590 C 0.99101 0.77497 0.48242 0.0
C591 C 0.98127 0.76632 0.50887 0.0
C592 C 0.99539 0.80527 0.47809 0.0
C593 C 1.00537 0.76348 0.4316 0.0
C594 C 0.01976 0.81769 0.49056 0.0
C595 C 0.02241 0.84689 0.48821 0.0
C596 C 1.00044 0.86405 0.47372 0.0
C597 C 0.97642 0.85138 0.46073 0.0
C598 C 0.97399 0.82216 0.46282 0.0
H599 H 0.01225 0.7446 0.41847 0.0
H600 H 0.98719 0.77617 0.42038 0.0
H601 H 0.02475 0.77685 0.43386 0.0
H602 H 0.03635 0.80489 0.50254 0.0
H603 H 0.0409 0.85622 0.49877 0.0
H604 H 0.38341 0.81585 0.61334 0.0
H605 H 0.4031 0.77181 0.59084 0.0
H606 H 0.42204 0.73485 0.67231 0.0
H607 H 0.40115 0.77859 0.69509 0.0
H608 H 0.45751 0.74306 0.59121 0.0
H609 H 0.37433 0.67459 0.63669 0.0
H610 H 0.37021 0.71282 0.63914 0.0
H611 H 0.39514 0.69275 0.66269 0.0
C612 C 0.39141 0.7983 0.6266 0.0
C613 C 0.39013 0.80085 0.65618 0.0
C614 C 0.40294 0.77309 0.61362 0.0
C615 C 0.41354 0.74956 0.62973 0.0
C616 C 0.41333 0.75231 0.65927 0.0
H617 H 0.48878 0.57871 0.58847 0.0
H618 H 0.47102 0.62336 0.61103 0.0
C619 C 0.40171 0.77757 0.67232 0.0
C620 C 0.42481 0.72239 0.61548 0.0
H621 H 0.41433 0.6513 0.61088 0.0
C622 C 0.44795 0.72303 0.59548 0.0
C623 C 0.41241 0.6961 0.62082 0.0
C624 C 0.38646 0.69395 0.64079 0.0
C625 C 0.45932 0.69826 0.58121 0.0
C626 C 0.44698 0.67199 0.58664 0.0
C627 C 0.42387 0.67133 0.60663 0.0
C628 C 0.45807 0.64485 0.5723 0.0
C629 C 0.48497 0.70034 0.56091 0.0
C630 C 0.45658 0.64166 0.54285 0.0
C631 C 0.46676 0.61594 0.52975 0.0
C632 C 0.47861 0.59273 0.54581 0.0
C633 C 0.4799 0.59602 0.57529 0.0
C634 C 0.46968 0.62163 0.58832 0.0
H635 H 0.49679 0.72002 0.56434 0.0
H636 H 0.50151 0.68173 0.56288 0.0
H637 H 0.47607 0.70075 0.53907 0.0
H638 H 0.44721 0.65898 0.52996 0.0
H639 H 0.46524 0.61422 0.50706 0.0
H640 H 0.87891 0.92141 0.80606 0.0
H641 H 0.89769 0.94249 0.76319 0.0
H642 H 0.91346 0.85912 0.72651 0.0
H643 H 0.89427 0.83783 0.76928 0.0
H644 H 0.95442 0.93383 0.73636 0.0
H645 H 0.86281 0.90281 0.66581 0.0
H646 H 0.85988 0.90194 0.70368 0.0
H647 H 0.8816 0.87421 0.68531 0.0
C648 C 0.88613 0.90747 0.78884 0.0
C649 C 0.88472 0.87781 0.79125 0.0
C650 C 0.89707 0.91962 0.7643 0.0
C651 C 0.90665 0.90256 0.74124 0.0
C652 C 0.90578 0.8729 0.7437 0.0
H653 H 0.97104 0.93825 0.5719 0.0
H654 H 0.95304 0.91702 0.61493 0.0
C655 C 0.89504 0.86069 0.76837 0.0
C656 C 0.91771 0.91588 0.71486 0.0
H657 H 0.90304 0.92448 0.64444 0.0
C658 C 0.94312 0.93183 0.71628 0.0
C659 C 0.90315 0.91333 0.6885 0.0
C660 C 0.8752 0.89737 0.6856 0.0
C661 C 0.95465 0.94472 0.69219 0.0
C662 C 0.93991 0.94244 0.66581 0.0
C663 C 0.91447 0.92644 0.66446 0.0
C664 C 0.95073 0.95595 0.63934 0.0
C665 C 0.98313 0.95987 0.69521 0.0
C666 C 0.95512 0.98521 0.63807 0.0
C667 C 0.96572 0.99746 0.61337 0.0
C668 C 0.97182 0.98091 0.58902 0.0
C669 C 0.96668 0.95179 0.59012 0.0
C670 C 0.95631 0.93954 0.61485 0.0
H671 H 0.99635 0.9524 0.71394 0.0
H672 H 0.99755 0.95672 0.67629 0.0
H673 H 0.97728 0.98296 0.69795 0.0
H674 H 0.95022 0.99871 0.6562 0.0
H675 H 0.96913 0.01995 0.61337 0.0
H676 H 0.62373 0.1834 0.2713 0.0
H677 H 0.60452 0.16126 0.22859 0.0
H678 H 0.61861 0.07878 0.26682 0.0
H679 H 0.63745 0.10068 0.30953 0.0
H680 H 0.6354 0.1186 0.19344 0.0
H681 H 0.53106 0.07998 0.23801 0.0
H682 H 0.55149 0.10695 0.25512 0.0
H683 H 0.56477 0.0702 0.25751 0.0
C684 C 0.62239 0.16058 0.27077 0.0
C685 C 0.63223 0.14391 0.294 0.0
C686 C 0.61154 0.14791 0.24623 0.0
C687 C 0.60978 0.1183 0.24444 0.0
C688 C 0.61931 0.10166 0.26768 0.0
H689 H 0.54826 1.00166 0.11486 0.0
H690 H 0.56752 0.02292 0.15799 0.0
C691 C 0.63037 0.11425 0.29208 0.0
C692 C 0.59892 0.10467 0.21806 0.0
H693 H 0.54417 0.06442 0.19192 0.0
C694 C 0.61536 0.10688 0.19309 0.0
C695 C 0.57295 0.08907 0.21751 0.0
C696 C 0.55383 0.08651 0.24337 0.0
C697 C 0.60689 0.09365 0.16786 0.0
C698 C 0.58064 0.07832 0.16716 0.0
C699 C 0.56427 0.07605 0.19222 0.0
C700 C 0.56945 0.06507 0.14062 0.0
C701 C 0.62676 0.0956 0.14241 0.0
C702 C 0.56369 0.08152 0.11635 0.0
C703 C 0.55296 0.06935 0.09162 0.0
C704 C 0.54716 0.04039 0.09044 0.0
C705 C 0.55258 0.02394 0.11484 0.0
C706 C 0.56354 0.03614 0.1396 0.0
H707 H 0.65015 0.09956 0.14855 0.0
H708 H 0.6273 0.07586 0.12956 0.0
H709 H 0.61799 0.11363 0.12915 0.0
H710 H 0.56709 0.104 0.11658 0.0
H711 H 0.54878 0.08288 0.07347 0.0
H712 H 0.41221 0.52141 0.12731 0.0
H713 H 0.42671 0.50748 0.17549 0.0
H714 H 0.46241 0.58896 0.18894 0.0
H715 H 0.44735 0.6034 0.14174 0.0
H716 H 0.49921 0.53851 0.20989 0.0
H717 H 0.3794 0.5475 0.24397 0.0
H718 H 0.38933 0.5256 0.21379 0.0
H719 H 0.39146 0.56333 0.21179 0.0
C720 C 0.42336 0.53625 0.14048 0.0
C721 C 0.42866 0.56349 0.13056 0.0
C722 C 0.43168 0.52822 0.16789 0.0
C723 C 0.44547 0.5473 0.18562 0.0
C724 C 0.45196 0.57391 0.17542 0.0
H725 H 0.4599 0.57901 0.3619 0.0
H726 H 0.45225 0.58012 0.31072 0.0
C727 C 0.44351 0.58201 0.14827 0.0
C728 C 0.45127 0.54089 0.21555 0.0
H729 H 0.41611 0.53963 0.27913 0.0
C730 C 0.48112 0.53826 0.22506 0.0
C731 C 0.42748 0.54111 0.23513 0.0
C732 C 0.39505 0.54467 0.22587 0.0
C733 C 0.48784 0.53637 0.25387 0.0
C734 C 0.46404 0.53711 0.27344 0.0
C735 C 0.43421 0.53913 0.26391 0.0
C736 C 0.46962 0.53663 0.30403 0.0
C737 C 0.52022 0.53466 0.26331 0.0
C738 C 0.48191 0.51183 0.31692 0.0
C739 C 0.48626 0.51116 0.34599 0.0
C740 C 0.47833 0.53527 0.36261 0.0
C741 C 0.46638 0.56023 0.34955 0.0
C742 C 0.46187 0.56083 0.32045 0.0
H743 H 0.53576 0.53879 0.24581 0.0
H744 H 0.52344 0.55018 0.28051 0.0
H745 H 0.52642 0.51311 0.27166 0.0
H746 H 0.48781 0.49293 0.30454 0.0
H747 H 0.49585 0.49173 0.35549 0.0
H748 H 0.14164 0.46097 0.6546 0.0
H749 H 0.12399 0.47294 0.7019 0.0
H750 H 0.03338 0.48734 0.67053 0.0
H751 H 0.05096 0.47516 0.62281 0.0
H752 H 0.09291 0.51853 0.72751 0.0
H753 H 0.02731 0.42259 0.72673 0.0
H754 H 0.05414 0.42931 0.6997 0.0
H755 H 0.01765 0.44807 0.69963 0.0
C756 C 0.1181 0.46754 0.65753 0.0
C757 C 0.09762 0.46697 0.63502 0.0
C758 C 0.10801 0.47419 0.68464 0.0
C759 C 0.07732 0.48038 0.68974 0.0
C760 C 0.05708 0.48196 0.66704 0.0
H761 H 0.01662 0.52833 0.85899 0.0
H762 H 0.02412 0.52738 0.80804 0.0
C763 C 0.06715 0.47515 0.63985 0.0
C764 C 0.06667 0.4829 0.7191 0.0
H765 H 0.02652 0.44961 0.76851 0.0
C766 C 0.07815 0.50367 0.73647 0.0
C767 C 0.0479 0.46306 0.73073 0.0
C768 C 0.03619 0.43932 0.71337 0.0
C769 C 0.07175 0.50491 0.76532 0.0
C770 C 0.05275 0.48524 0.77689 0.0
C771 C 0.04091 0.46473 0.75946 0.0
C772 C 0.04591 0.48493 0.80728 0.0
C773 C 0.08637 0.52653 0.78332 0.0
C774 C 0.05438 0.46083 0.82347 0.0
C775 C 0.04978 0.46118 0.85256 0.0
C776 C 0.03681 0.48572 0.86576 0.0
C777 C 0.02723 0.50935 0.84931 0.0
C778 C 0.03156 0.50888 0.82029 0.0
H779 H 0.106 0.53491 0.77267 0.0
H780 H 0.06983 0.5447 0.78763 0.0
H781 H 0.09394 0.51722 0.80378 0.0
H782 H 0.06532 0.44206 0.81371 0.0
H783 H 0.05731 0.44273 0.86483 0.0
H784 H 0.78244 0.89156 0.82971 0.0
H785 H 0.73753 0.91401 0.85254 0.0
H786 H 0.77773 0.89727 0.93391 0.0
H787 H 0.8229 0.87556 0.91132 0.0
H788 H 0.69821 0.89109 0.88975 0.0
H789 H 0.75081 0.98134 0.94026 0.0
H790 H 0.76925 0.95986 0.91298 0.0
H791 H 0.76918 0.94734 0.94867 0.0
C792 C 0.78195 0.89302 0.85245 0.0
C793 C 0.80651 0.88173 0.86858 0.0
C794 C 0.7561 0.9057 0.86551 0.0
C795 C 0.75423 0.90774 0.89501 0.0
C796 C 0.77868 0.89649 0.91114 0.0
H797 H 0.59105 0.9365 0.99603 0.0
H798 H 0.63678 0.91678 0.97266 0.0
C799 C 0.80446 0.88375 0.89814 0.0
C800 C 0.72649 0.92086 0.90894 0.0
H801 H 0.70111 0.97338 0.9548 0.0
C802 C 0.69887 0.90914 0.90389 0.0
C803 C 0.72708 0.94468 0.92719 0.0
C804 C 0.75559 0.95926 0.93244 0.0
C805 C 0.67213 0.92013 0.91694 0.0
C806 C 0.67293 0.94332 0.93596 0.0
C807 C 0.70042 0.95543 0.94053 0.0
C808 C 0.64543 0.95555 0.95095 0.0
C809 C 0.64315 0.90706 0.90984 0.0
C810 C 0.63537 0.98423 0.9474 0.0
C811 C 0.60925 0.99565 0.9609 0.0
C812 C 0.5926 0.97874 0.97852 0.0
C813 C 0.60313 0.95019 0.98257 0.0
C814 C 0.62923 0.93878 0.96901 0.0
H815 H 0.64481 0.89497 0.88972 0.0
H816 H 0.63786 0.8921 0.92676 0.0
H817 H 0.62423 0.92359 0.90823 0.0
H818 H 0.64749 0.99772 0.93375 0.0
H819 H 0.60195 0.01772 0.95728 0.0
H820 H 0.69531 0.14738 0.41338 0.0
H821 H 0.7409 0.12592 0.43565 0.0
H822 H 0.77998 0.10879 0.35395 0.0
H823 H 0.73473 0.13093 0.33148 0.0
H824 H 0.76841 0.07125 0.43117 0.0
H825 H 0.84484 0.15099 0.39432 0.0
H826 H 0.80447 0.15678 0.39241 0.0
H827 H 0.8244 0.13464 0.36675 0.0
C828 C 0.71369 0.13931 0.40009 0.0
C829 C 0.71131 0.14117 0.37056 0.0
C830 C 0.73971 0.12684 0.41289 0.0
C831 C 0.76415 0.11607 0.39656 0.0
C832 C 0.76169 0.11738 0.36708 0.0
H833 H 0.91702 1.00478 0.45588 0.0
H834 H 0.8708 0.02449 0.43322 0.0
C835 C 0.73561 0.12979 0.35423 0.0
C836 C 0.79204 0.1034 0.41047 0.0
H837 H 0.86741 0.11075 0.41787 0.0
C838 C 0.79006 0.07988 0.42824 0.0
C839 C 0.82029 0.11484 0.407 0.0
C840 C 0.82373 0.14086 0.38931 0.0
C841 C 0.81549 0.06736 0.44231 0.0
C842 C 0.84386 0.07839 0.43832 0.0
C843 C 0.84577 0.1021 0.42079 0.0
C844 C 0.87173 0.06605 0.45253 0.0
C845 C 0.81161 0.04278 0.46183 0.0
C846 C 0.88806 0.08287 0.47065 0.0
C847 C 0.91457 0.07167 0.48361 0.0
C848 C 0.92558 0.04338 0.47859 0.0
C849 C 0.90917 0.02657 0.46042 0.0
C850 C 0.88261 0.03779 0.44751 0.0
H851 H 0.78777 0.04157 0.46812 0.0
H852 H 0.81898 0.02264 0.45094 0.0
H853 H 0.82549 0.0445 0.48112 0.0
H854 H 0.88025 0.10475 0.47482 0.0
H855 H 0.92661 0.08533 0.49735 0.0
H856 H 0.32635 0.5817 0.10926 0.0
H857 H 0.27366 0.57509 0.0985 0.0
H858 H 0.29423 0.57107 0.0099 0.0
H859 H 0.34726 0.57731 0.02054 0.0
H860 H 0.23368 0.6102 0.06105 0.0
H861 H 0.25115 0.49688 0.02797 0.0
H862 H 0.27832 0.51426 0.04894 0.0
H863 H 0.27493 0.52145 0.01198 0.0
C864 C 0.31973 0.57908 0.0875 0.0
C865 C 0.34096 0.57962 0.06573 0.0
C866 C 0.28962 0.57556 0.0814 0.0
C867 C 0.28023 0.57234 0.05348 0.0
C868 C 0.30121 0.57322 0.03162 0.0
H869 H 0.10826 0.53185 0.98405 0.0
H870 H 0.16014 0.54396 0.99045 0.0
C871 C 0.33137 0.57691 0.0377 0.0
C872 C 0.24842 0.56795 0.0474 0.0
H873 H 0.2019 0.51814 0.02499 0.0
C874 C 0.22664 0.59013 0.05309 0.0
C875 C 0.2395 0.54175 0.03699 0.0
C876 C 0.26208 0.51707 0.03124 0.0
C877 C 0.196 0.58684 0.04848 0.0
C878 C 0.18699 0.56043 0.03856 0.0
C879 C 0.20887 0.53836 0.0326 0.0
C880 C 0.15498 0.55496 0.03451 0.0
C881 C 0.17366 0.61179 0.05385 0.0
C882 C 0.13484 0.55715 0.0572 0.0
C883 C 0.10506 0.55041 0.05358 0.0
C884 C 0.09506 0.54098 0.02729 0.0
C885 C 0.11527 0.53899 1.00459 0.0
C886 C 0.14493 0.5459 1.00819 0.0
H887 H 0.18452 0.63225 0.0532 0.0
H888 H 0.15511 0.61253 0.03817 0.0
H889 H 0.16382 0.60976 0.0751 0.0
H890 H 0.14231 0.56344 0.07786 0.0
H891 H 0.0901 0.55198 0.07151 0.0
H892 H 0.19654 0.4471 0.60895 0.0
H893 H 0.24854 0.4522 0.59514 0.0
H894 H 0.22338 0.44686 0.50768 0.0
H895 H 0.17089 0.44199 0.52139 0.0
H896 H 0.28637 0.41258 0.5583 0.0
H897 H 0.26722 0.5232 0.51813 0.0
H898 H 0.24152 0.50809 0.54218 0.0
H899 H 0.2425 0.49714 0.50599 0.0
C900 C 0.20198 0.44731 0.58676 0.0
C901 C 0.17962 0.44458 0.56619 0.0
C902 C 0.23171 0.44997 0.57894 0.0
C903 C 0.23962 0.4501 0.55045 0.0
C904 C 0.21753 0.44702 0.52979 0.0
H905 H 0.41146 0.48999 0.48021 0.0
H906 H 0.35991 0.47671 0.4855 0.0
C907 C 0.18769 0.44416 0.53762 0.0
C908 C 0.27106 0.45386 0.54269 0.0
H909 H 0.31675 0.5028 0.51772 0.0
C910 C 0.2931 0.43218 0.5492 0.0
C911 C 0.27954 0.47943 0.53079 0.0
C912 C 0.2566 0.50347 0.52393 0.0
C913 C 0.32363 0.43553 0.54435 0.0
C914 C 0.33226 0.46154 0.53338 0.0
C915 C 0.31008 0.48292 0.5262 0.0
C916 C 0.36417 0.4675 0.52995 0.0
C917 C 0.34628 0.41115 0.55087 0.0
C918 C 0.3837 0.46672 0.55323 0.0
C919 C 0.41329 0.47413 0.55026 0.0
C920 C 0.42368 0.48287 0.52403 0.0
C921 C 0.40411 0.48344 0.50074 0.0
C922 C 0.37465 0.47583 0.50369 0.0
H923 H 0.33579 0.3905 0.55047 0.0
H924 H 0.36517 0.41013 0.53566 0.0
H925 H 0.35554 0.41411 0.5723 0.0
H926 H 0.37585 0.46105 0.57385 0.0
H927 H 0.42776 0.47365 0.56862 0.0
H928 H 0.89882 0.77912 0.82949 0.0
H929 H 0.91911 0.73547 0.85279 0.0
H930 H 0.90183 0.77459 0.93378 0.0
H931 H 0.88192 0.81812 0.91084 0.0
H932 H 0.96656 0.72455 0.89132 0.0
H933 H 0.85855 0.7017 0.94057 0.0
H934 H 0.86088 0.72743 0.91283 0.0
H935 H 0.87012 0.73651 0.94847 0.0
C936 C 0.89958 0.77857 0.85226 0.0
C937 C 0.8882 0.80223 0.86815 0.0
C938 C 0.91108 0.75346 0.8656 0.0
C939 C 0.9114 0.7513 0.89516 0.0
C940 C 0.90108 0.77523 0.91101 0.0
H941 H 0.96377 0.61776 0.0178 0.0
H942 H 0.94651 0.66217 0.99414 0.0
C943 C 0.88966 0.80024 0.89776 0.0
C944 C 0.92253 0.72424 0.90954 0.0
H945 H 0.90178 0.67354 0.9556 0.0
C946 C 0.95231 0.71333 0.90523 0.0
C947 C 0.90412 0.70948 0.92789 0.0
C948 C 0.87156 0.71917 0.93258 0.0
C949 C 0.9643 0.68862 0.91912 0.0
C950 C 0.94587 0.67383 0.93748 0.0
C951 C 0.91607 0.68475 0.94172 0.0
C952 C 0.95685 0.64679 0.95204 0.0
C953 C 0.99691 0.67908 0.91454 0.0
C954 C 0.96812 0.62298 0.93646 0.0
C955 C 0.97807 0.59761 0.94994 0.0
C956 C 0.97683 0.5951 0.97948 0.0
C957 C 0.96523 0.61884 0.99509 0.0
C958 C 0.95528 0.6443 0.98153 0.0
H959 H 0.00995 0.69682 0.90722 0.0
H960 H 0.00743 0.67025 0.93412 0.0
H961 H 0.99854 0.66226 0.8981 0.0
H962 H 0.96891 0.62385 0.91371 0.0
H963 H 0.9866 0.57983 0.93708 0.0
H964 H 0.44866 0.64646 0.09715 0.0
H965 H 0.46676 0.69131 0.08263 0.0
H966 H 0.4343 0.6781 0.99836 0.0
H967 H 0.4166 0.63214 0.01255 0.0
H968 H 0.50684 0.70638 0.03687 0.0
H969 H 0.3888 0.75328 0.02849 0.0
H970 H 0.39804 0.72026 0.04659 0.0
H971 H 0.39911 0.72134 1.00889 0.0
C972 C 0.44614 0.65243 0.07525 0.0
C973 C 0.43133 0.63547 0.05594 0.0
C974 C 0.45638 0.67826 0.06706 0.0
C975 C 0.45175 0.68798 0.03953 0.0
C976 C 0.43789 0.6709 0.0198 0.0
H977 H 0.46663 0.86626 0.99798 0.0
H978 H 0.46008 0.81554 0.99303 0.0
C979 C 0.42773 0.64477 0.02795 0.0
C980 C 0.45932 0.71709 0.03278 0.0
H981 H 0.42715 0.78446 0.02648 0.0
C982 C 0.48952 0.72347 0.03406 0.0
C983 C 0.43659 0.7392 0.02923 0.0
C984 C 0.40376 0.73342 0.02833 0.0
C985 C 0.49756 0.75163 0.03276 0.0
C986 C 0.47469 0.77387 0.0308 0.0
C987 C 0.44461 0.76734 0.02815 0.0
C988 C 0.4811 0.80414 0.03288 0.0
C989 C 0.53039 0.75727 0.03384 0.0
C990 C 0.49507 0.81456 0.05699 0.0
C991 C 0.49886 0.84358 0.05988 0.0
C992 C 0.48822 0.86264 0.03893 0.0
C993 C 0.47456 0.85209 0.0147 0.0
C994 C 0.471 0.82313 0.01174 0.0
H995 H 0.54477 0.73865 0.02616 0.0
H996 H 0.53504 0.77608 0.02104 0.0
H997 H 0.53688 0.7614 0.05597 0.0
H998 H 0.50233 0.80036 0.0739 0.0
H999 H 0.50931 0.85121 0.0788 0.0
H1000 H 0.07767 0.37835 0.61093 0.0
H1001 H 0.05767 0.33298 0.60001 0.0
H1002 H 0.07891 0.34321 0.51237 0.0
H1003 H 0.09847 0.38946 0.52298 0.0
H1004 H 0.01141 0.31747 0.55879 0.0
H1005 H 0.1269 0.26815 0.53989 0.0
H1006 H 0.12024 0.30158 0.55823 0.0
H1007 H 0.11558 0.29998 0.52076 0.0
C1008 C 0.07737 0.37148 0.58916 0.0
C1009 C 0.0895 0.38769 0.56775 0.0
C1010 C 0.06606 0.34542 0.58303 0.0
C1011 C 0.06694 0.33483 0.55547 0.0
C1012 C 0.07824 0.35111 0.53382 0.0
H1013 H 0.04368 0.16085 0.50506 0.0
H1014 H 0.05049 0.21172 0.5044 0.0
C1015 C 0.08947 0.37739 0.53992 0.0
C1016 C 0.05801 0.30579 0.55019 0.0
H1017 H 0.08734 0.23815 0.5384 0.0
C1018 C 0.02786 0.30009 0.554 0.0
C1019 C 0.07966 0.28332 0.54413 0.0
C1020 C 0.11248 0.28833 0.54065 0.0
C1021 C 0.01878 0.27228 0.55205 0.0
C1022 C 0.04062 0.24967 0.54685 0.0
C1023 C 0.07064 0.25554 0.54242 0.0
C1024 C 0.03327 0.21959 0.54646 0.0
C1025 C 0.98595 0.26742 0.55548 0.0
C1026 C 0.02104 0.20718 0.57026 0.0
C1027 C 0.01696 0.17806 0.57062 0.0
C1028 C 0.02563 0.16095 0.54738 0.0
C1029 C 0.03725 0.17355 0.52341 0.0
C1030 C 0.04101 0.20258 0.52295 0.0
H1031 H 0.97144 0.28693 0.55069 0.0
H1032 H 0.97926 0.24995 0.5416 0.0
H1033 H 0.98174 0.26152 0.57762 0.0
H1034 H 0.01558 0.21979 0.58889 0.0
H1035 H 0.00808 0.16875 0.58935 0.0
H1036 H 0.61906 0.24315 0.33138 0.0
H1037 H 0.59906 0.28719 0.35445 0.0
H1038 H 0.61652 0.24918 0.43566 0.0
H1039 H 0.63616 0.20525 0.41294 0.0
H1040 H 0.55174 0.29848 0.39299 0.0
H1041 H 0.66024 0.32209 0.4418 0.0
H1042 H 0.65764 0.29599 0.41416 0.0
H1043 H 0.64868 0.28739 0.44985 0.0
C1044 C 0.61839 0.24404 0.35415 0.0
C1045 C 0.62972 0.22059 0.37019 0.0
C1046 C 0.60707 0.26934 0.36735 0.0
C1047 C 0.60689 0.27189 0.39688 0.0
C1048 C 0.61716 0.24819 0.41289 0.0
H1049 H 0.55509 0.40788 0.51798 0.0
H1050 H 0.57225 0.36287 0.49502 0.0
C1051 C 0.62842 0.22297 0.39978 0.0
C1052 C 0.59593 0.29913 0.41107 0.0
H1053 H 0.61719 0.35066 0.45654 0.0
C1054 C 0.56612 0.30995 0.40675 0.0
C1055 C 0.61455 0.31419 0.42922 0.0
C1056 C 0.64714 0.30452 0.43389 0.0
C1057 C 0.55431 0.33492 0.42041 0.0
C1058 C 0.57294 0.35002 0.43853 0.0
C1059 C 0.60277 0.33918 0.44283 0.0
C1060 C 0.56219 0.37739 0.45266 0.0
C1061 C 0.52167 0.34445 0.41581 0.0
C1062 C 0.55118 0.40086 0.43666 0.0
C1063 C 0.54132 0.42654 0.44972 0.0
C1064 C 0.5424 0.42969 0.47923 0.0
C1065 C 0.55379 0.40629 0.49527 0.0
C1066 C 0.56366 0.3805 0.48213 0.0
H1067 H 0.50852 0.32662 0.40869 0.0
H1068 H 0.51134 0.35367 0.43534 0.0
H1069 H 0.51995 0.36097 0.39923 0.0
H1070 H 0.55049 0.39945 0.41392 0.0
H1071 H 0.53293 0.44405 0.43655 0.0
loop_
_geom_bond_atom_site_label_1
_geom_bond_atom_site_label_2
_geom_bond_distance
_geom_bond_site_symmetry_2
_ccdc_geom_bond_type
H0 C3 0.931 . S
H1 C6 0.928 . S
H2 C8 0.930 . S
C3 H0 0.931 . S
C3 C4 1.413 . S
C3 C5 1.360 . S
C4 C3 1.413 . S
C4 C8 1.429 . S
C5 C3 1.360 . S
C5 C6 1.372 . S
C6 H1 0.928 . S
C6 C5 1.372 . S
C6 C7 1.404 . S
C7 C6 1.404 . S
C7 C8 1.391 . S
C8 H2 0.930 . S
C8 C4 1.429 . S
C8 C7 1.391 . S
H9 C12 0.931 . S
H10 C15 0.928 . S
H11 C17 0.930 . S
C12 H9 0.931 . S
C12 C13 1.413 . S
C12 C14 1.360 . S
C13 C12 1.413 . S
C13 C17 1.429 . S
C14 C12 1.360 . S
C14 C15 1.372 . S
C15 H10 0.928 . S
C15 C14 1.372 . S
C15 C16 1.404 . S
C16 C15 1.404 . S
C16 C17 1.391 . S
C17 H11 0.930 . S
C17 C13 1.429 . S
C17 C16 1.391 . S
H18 C21 0.931 . S
H19 C24 0.928 . S
H20 C26 0.930 . S
C21 H18 0.931 . S
C21 C22 1.413 . S
C21 C23 1.360 . S
C22 C21 1.413 . S
C22 C26 1.429 . S
C23 C21 1.360 . S
C23 C24 1.372 . S
C24 H19 0.928 . S
C24 C23 1.372 . S
C24 C25 1.404 . S
C25 C24 1.404 . S
C25 C26 1.391 . S
C26 H20 0.930 . S
C26 C22 1.429 . S
C26 C25 1.391 . S
H27 C30 0.931 . S
H28 C33 0.928 . S
H29 C35 0.930 . S
C30 H27 0.931 . S
C30 C31 1.413 . S
C30 C32 1.360 . S
C31 C30 1.413 . S
C31 C35 1.429 . S
C32 C30 1.360 . S
C32 C33 1.372 . S
C33 H28 0.928 . S
C33 C32 1.372 . S
C33 C34 1.404 . S
C34 C33 1.404 . S
C34 C35 1.391 . S
C35 H29 0.930 . S
C35 C31 1.429 . S
C35 C34 1.391 . S
H36 C39 0.931 . S
H37 C42 0.928 . S
H38 C44 0.930 . S
C39 H36 0.931 . S
C39 C40 1.413 . S
C39 C41 1.360 . S
C40 C39 1.413 . S
C40 C44 1.429 . S
C41 C39 1.360 . S
C41 C42 1.372 . S
C42 H37 0.928 . S
C42 C41 1.372 . S
C42 C43 1.404 . S
C43 C42 1.404 . S
C43 C44 1.391 . S
C44 H38 0.930 . S
C44 C40 1.429 . S
C44 C43 1.391 . S
H45 C48 0.931 . S
H46 C51 0.928 . S
H47 C53 0.930 . S
C48 H45 0.931 . S
C48 C49 1.413 . S
C48 C50 1.360 . S
C49 C48 1.413 . S
C49 C53 1.429 . S
C50 C48 1.360 . S
C50 C51 1.372 . S
C51 H46 0.928 . S
C51 C50 1.372 . S
C51 C52 1.404 . S
C52 C51 1.404 . S
C52 C53 1.391 . S
C53 H47 0.930 . S
C53 C49 1.429 . S
C53 C52 1.391 . S
H54 C57 0.931 . S
H55 C60 0.928 . S
H56 C62 0.930 . S
C57 H54 0.931 . S
C57 C58 1.413 . S
C57 C59 1.360 . S
C58 C57 1.413 . S
C58 C62 1.429 . S
C59 C57 1.360 . S
C59 C60 1.372 . S
C60 H55 0.928 . S
C60 C59 1.372 . S
C60 C61 1.404 . S
C61 C60 1.404 . S
C61 C62 1.391 . S
C62 H56 0.930 . S
C62 C58 1.429 . S
C62 C61 1.391 . S
H63 C66 0.931 . S
H64 C69 0.928 . S
H65 C71 0.930 . S
C66 H63 0.931 . S
C66 C67 1.413 . S
C66 C68 1.360 . S
C67 C66 1.413 . S
C67 C71 1.429 . S
C68 C66 1.360 . S
C68 C69 1.372 . S
C69 H64 0.928 . S
C69 C68 1.372 . S
C69 C70 1.404 . S
C70 C69 1.404 . S
C70 C71 1.391 . S
C71 H65 0.930 . S
C71 C67 1.429 . S
C71 C70 1.391 . S
C72 O88 1.251 . S
C72 O90 1.254 1_545 S
N73 C74 1.333 . S
N73 C78 1.307 . S
N73 Zn79 2.020 . S
C74 N73 1.333 . S
C74 C75 1.379 . S
C74 H92 0.952 . S
C75 C74 1.379 . S
C75 C76 1.390 . S
C75 H102 0.949 . S
C76 C75 1.390 . S
C76 C77 1.357 . S
C77 C76 1.357 . S
C77 C78 1.370 . S
C77 H103 0.950 . S
C78 N73 1.307 . S
C78 C77 1.370 . S
C78 H96 0.948 1_455 S
Zn79 N73 2.020 . S
Zn79 O88 2.039 . S
Zn79 O94 2.034 . S
Zn79 O98 2.025 1_455 S
Zn79 O100 2.024 1_455 S
C80 O99 1.246 1_545 S
C80 O100 1.249 . S
N81 C82 1.307 . S
N81 C83 1.333 . S
N81 Zn87 2.020 . S
C82 N81 1.307 . S
C82 C86 1.370 . S
C82 H93 0.948 1_655 S
C83 N81 1.333 . S
C83 C84 1.379 . S
C83 H91 0.952 . S
C84 C83 1.379 . S
C84 C85 1.390 . S
C84 H104 0.949 . S
C85 C84 1.390 . S
C85 C86 1.357 . S
C86 C82 1.370 . S
C86 C85 1.357 . S
C86 H105 0.939 1_655 S
Zn87 N81 2.020 . S
Zn87 O90 2.025 1_655 S
Zn87 O95 2.024 1_655 S
Zn87 O97 2.039 . S
Zn87 O99 2.034 . S
O88 C72 1.251 . S
O88 Zn79 2.039 . S
C89 O94 1.246 1_565 S
C89 O95 1.249 . S
O90 C72 1.254 1_565 S
O90 Zn87 2.025 1_455 S
H91 C83 0.952 . S
H92 C74 0.952 . S
H93 C82 0.948 1_455 S
O94 Zn79 2.034 . S
O94 C89 1.246 1_545 S
O95 Zn87 2.024 1_455 S
O95 C89 1.249 . S
H96 C78 0.948 1_655 S
O97 Zn87 2.039 . S
O97 C101 1.251 . S
O98 Zn79 2.025 1_655 S
O98 C101 1.254 1_545 S
O99 C80 1.246 1_565 S
O99 Zn87 2.034 . S
O100 Zn79 2.024 1_655 S
O100 C80 1.249 . S
C101 O97 1.251 . S
C101 O98 1.254 1_565 S
H102 C75 0.949 . S
H103 C77 0.950 . S
H104 C84 0.949 . S
H105 C86 0.939 1_455 S
C106 O122 1.251 1_565 S
C106 O124 1.264 . S
N107 C108 1.333 . S
N107 C112 1.307 . S
N107 Zn113 2.020 . S
C108 N107 1.333 . S
C108 C109 1.379 . S
C108 H126 0.952 . S
C109 C108 1.379 . S
C109 C110 1.390 . S
C109 H136 0.949 . S
C110 C109 1.390 . S
C110 C111 1.357 . S
C111 C110 1.357 . S
C111 C112 1.370 . S
C111 H137 0.950 . S
C112 N107 1.307 . S
C112 C111 1.370 . S
C112 H130 0.948 . S
Zn113 N107 2.020 . S
Zn113 O122 2.039 . S
Zn113 O128 2.034 1_556 S
Zn113 O132 2.025 1_556 S
Zn113 O134 2.024 . S
C114 O133 1.246 . S
C114 O134 1.249 1_565 S
N115 C116 1.307 . S
N115 C117 1.333 . S
N115 Zn121 2.020 . S
C116 N115 1.307 . S
C116 C120 1.370 . S
C116 H127 0.948 . S
C117 N115 1.333 . S
C117 C118 1.379 . S
C117 H125 0.952 . S
C118 C117 1.379 . S
C118 C119 1.390 . S
C118 H138 0.949 . S
C119 C118 1.390 . S
C119 C120 1.357 . S
C120 C116 1.370 . S
C120 C119 1.357 . S
C120 H139 0.950 . S
Zn121 N115 2.020 . S
Zn121 O124 2.018 1_554 S
Zn121 O129 2.024 . S
Zn121 O131 2.039 . S
Zn121 O133 2.034 1_554 S
O122 C106 1.251 1_545 S
O122 Zn113 2.039 . S
C123 O128 1.246 . S
C123 O129 1.249 1_545 S
O124 C106 1.264 . S
O124 Zn121 2.018 1_556 S
H125 C117 0.952 . S
H126 C108 0.952 . S
H127 C116 0.948 . S
O128 Zn113 2.034 1_554 S
O128 C123 1.246 . S
O129 Zn121 2.024 . S
O129 C123 1.249 1_565 S
H130 C112 0.948 . S
O131 Zn121 2.039 . S
O131 C135 1.251 1_565 S
O132 Zn113 2.025 1_554 S
O132 C135 1.254 . S
O133 C114 1.246 . S
O133 Zn121 2.034 1_556 S
O134 Zn113 2.024 . S
O134 C114 1.249 1_545 S
C135 O131 1.251 1_545 S
C135 O132 1.254 . S
H136 C109 0.949 . S
H137 C111 0.950 . S
H138 C118 0.949 . S
H139 C120 0.950 . S
C140 O156 1.251 . S
C140 O158 1.254 . S
N141 C142 1.333 . S
N141 C146 1.307 . S
N141 Zn147 2.020 . S
C142 N141 1.333 . S
C142 C143 1.379 . S
C142 H160 0.952 . S
C143 C142 1.379 . S
C143 C144 1.390 . S
C143 H170 0.949 . S
C144 C143 1.390 . S
C144 C145 1.357 . S
C145 C144 1.357 . S
C145 C146 1.370 . S
C145 H171 0.950 . S
C146 N141 1.307 . S
C146 C145 1.370 . S
C146 H164 0.948 . S
Zn147 N141 2.020 . S
Zn147 O156 2.039 . S
Zn147 O162 2.034 . S
Zn147 O166 2.025 . S
Zn147 O168 2.024 . S
C148 O167 1.246 . S
C148 O168 1.249 . S
N149 C150 1.307 . S
N149 C151 1.333 . S
N149 Zn155 2.020 . S
C150 N149 1.307 . S
C150 C154 1.370 . S
C150 H161 0.948 . S
C151 N149 1.333 . S
C151 C152 1.379 . S
C151 H159 0.952 . S
C152 C151 1.379 . S
C152 C153 1.390 . S
C152 H172 0.949 . S
C153 C152 1.390 . S
C153 C154 1.357 . S
C154 C150 1.370 . S
C154 C153 1.357 . S
C154 H173 0.950 . S
Zn155 N149 2.020 . S
Zn155 O158 2.025 . S
Zn155 O163 2.024 . S
Zn155 O165 2.039 . S
Zn155 O167 2.034 . S
O156 C140 1.251 . S
O156 Zn147 2.039 . S
C157 O162 1.246 . S
C157 O163 1.249 . S
O158 C140 1.254 . S
O158 Zn155 2.025 . S
H159 C151 0.952 . S
H160 C142 0.952 . S
H161 C150 0.948 . S
O162 Zn147 2.034 . S
O162 C157 1.246 . S
O163 Zn155 2.024 . S
O163 C157 1.249 . S
H164 C146 0.948 . S
O165 Zn155 2.039 . S
O165 C169 1.251 . S
O166 Zn147 2.025 . S
O166 C169 1.254 . S
O167 C148 1.246 . S
O167 Zn155 2.034 . S
O168 Zn147 2.024 . S
O168 C148 1.249 . S
C169 O165 1.251 . S
C169 O166 1.254 . S
H170 C143 0.949 . S
H171 C145 0.950 . S
H172 C152 0.949 . S
H173 C154 0.950 . S
C174 O190 1.251 1_556 S
C174 O192 1.254 . S
N175 C176 1.333 . S
N175 C180 1.307 . S
N175 Zn181 2.020 . S
C176 N175 1.333 . S
C176 C177 1.379 . S
C176 H194 0.952 . S
C177 C176 1.379 . S
C177 C178 1.390 . S
C177 H204 0.949 . S
C178 C177 1.390 . S
C178 C179 1.357 . S
C179 C178 1.357 . S
C179 C180 1.370 . S
C179 H205 0.950 . S
C180 N175 1.307 . S
C180 C179 1.370 . S
C180 H198 0.948 . S
Zn181 N175 2.020 . S
Zn181 O190 2.039 . S
Zn181 O196 2.034 1_655 S
Zn181 O200 2.025 1_655 S
Zn181 O202 2.024 . S
C182 O201 1.246 . S
C182 O202 1.249 1_556 S
N183 C184 1.307 . S
N183 C185 1.333 . S
N183 Zn189 2.020 . S
C184 N183 1.307 . S
C184 C188 1.370 . S
C184 H195 0.948 . S
C185 N183 1.333 . S
C185 C186 1.379 . S
C185 H193 0.952 . S
C186 C185 1.379 . S
C186 C187 1.390 . S
C186 H206 0.949 . S
C187 C186 1.390 . S
C187 C188 1.357 . S
C188 C184 1.370 . S
C188 C187 1.357 . S
C188 H207 0.950 . S
Zn189 N183 2.020 . S
Zn189 O192 2.025 1_455 S
Zn189 O197 2.024 . S
Zn189 O199 2.039 . S
Zn189 O201 2.034 1_455 S
O190 C174 1.251 1_554 S
O190 Zn181 2.039 . S
C191 O196 1.246 . S
C191 O197 1.249 1_554 S
O192 C174 1.254 . S
O192 Zn189 2.025 1_655 S
H193 C185 0.952 . S
H194 C176 0.952 . S
H195 C184 0.948 . S
O196 Zn181 2.034 1_455 S
O196 C191 1.246 . S
O197 Zn189 2.024 . S
O197 C191 1.249 1_556 S
H198 C180 0.948 . S
O199 Zn189 2.039 . S
O199 C203 1.251 1_556 S
O200 Zn181 2.025 1_455 S
O200 C203 1.254 . S
O201 C182 1.246 . S
O201 Zn189 2.034 1_655 S
O202 Zn181 2.024 . S
O202 C182 1.249 1_554 S
C203 O199 1.251 1_554 S
C203 O200 1.254 . S
H204 C177 0.949 . S
H205 C179 0.950 . S
H206 C186 0.949 . S
H207 C188 0.950 . S
H208 C216 0.929 . S
H209 C218 0.930 . S
H210 C220 0.930 . S
H211 C223 0.929 . S
H212 C226 0.930 . S
H213 C228 0.960 . S
H214 C228 0.960 . S
H215 C228 0.960 . S
C216 H208 0.929 . S
C216 C217 1.377 . S
C216 C218 1.384 . S
C217 C216 1.377 . S
C217 C223 1.390 . S
C218 H209 0.930 . S
C218 C216 1.384 . S
C218 C219 1.372 . S
C219 C218 1.372 . S
C219 C220 1.400 . S
C219 C224 1.490 . S
C220 H210 0.930 . S
C220 C219 1.400 . S
C220 C223 1.386 . S
H221 C237 0.930 1_565 S
H222 C238 0.931 . S
C223 H211 0.929 . S
C223 C217 1.390 . S
C223 C220 1.386 . S
C224 C219 1.490 . S
C224 C226 1.395 . S
C224 C227 1.403 . S
H225 C231 0.930 . S
C226 H212 0.930 . S
C226 C224 1.395 . S
C226 C229 1.403 . S
C227 C224 1.403 . S
C227 C228 1.524 . S
C227 C231 1.400 . S
C228 H213 0.960 . S
C228 H214 0.960 . S
C228 H215 0.960 . S
C228 C227 1.524 . S
C229 C226 1.403 . S
C229 C230 1.392 . S
C229 C233 1.471 1_455 S
C230 C229 1.392 . S
C230 C231 1.385 . S
C230 C232 1.478 . S
C231 H225 0.930 . S
C231 C227 1.400 . S
C231 C230 1.385 . S
C232 C230 1.478 . S
C232 C234 1.381 . S
C232 C238 1.383 . S
C233 C229 1.471 1_655 S
C233 H239 0.971 . S
C233 H240 0.970 . S
C233 H241 0.964 . S
C234 C232 1.381 . S
C234 C235 1.394 . S
C234 H242 0.930 . S
C235 C234 1.394 . S
C235 C236 1.383 . S
C235 H243 0.929 . S
C236 C235 1.383 . S
C236 C237 1.377 . S
C237 H221 0.930 1_545 S
C237 C236 1.377 . S
C237 C238 1.379 . S
C238 H222 0.931 . S
C238 C232 1.383 . S
C238 C237 1.379 . S
H239 C233 0.971 . S
H240 C233 0.970 . S
H241 C233 0.964 . S
H242 C234 0.930 . S
H243 C235 0.929 . S
H244 C252 0.929 . S
H245 C254 0.930 . S
H246 C256 0.930 . S
H247 C259 0.929 . S
H248 C262 0.930 . S
H249 C264 0.960 . S
H250 C264 0.960 . S
H251 C264 0.960 . S
C252 H244 0.929 . S
C252 C253 1.377 . S
C252 C254 1.384 . S
C253 C252 1.377 . S
C253 C259 1.390 . S
C254 H245 0.930 . S
C254 C252 1.384 . S
C254 C255 1.372 . S
C255 C254 1.372 . S
C255 C256 1.400 . S
C255 C260 1.490 . S
C256 H246 0.930 . S
C256 C255 1.400 . S
C256 C259 1.386 . S
H257 C273 0.930 . S
H258 C274 0.931 . S
C259 H247 0.929 . S
C259 C253 1.390 . S
C259 C256 1.386 . S
C260 C255 1.490 . S
C260 C262 1.395 . S
C260 C263 1.403 . S
H261 C267 0.930 . S
C262 H248 0.930 . S
C262 C260 1.395 . S
C262 C265 1.403 . S
C263 C260 1.403 . S
C263 C264 1.524 . S
C263 C267 1.400 . S
C264 H249 0.960 . S
C264 H250 0.960 . S
C264 H251 0.960 . S
C264 C263 1.524 . S
C265 C262 1.403 . S
C265 C266 1.392 . S
C265 C269 1.495 1_565 S
C266 C265 1.392 . S
C266 C267 1.385 . S
C266 C268 1.478 . S
C267 H261 0.930 . S
C267 C263 1.400 . S
C267 C266 1.385 . S
C268 C266 1.478 . S
C268 C270 1.381 . S
C268 C274 1.383 . S
C269 C265 1.495 1_545 S
C269 H275 0.959 . S
C269 H276 0.961 . S
C269 H277 0.960 . S
C270 C268 1.381 . S
C270 C271 1.394 . S
C270 H278 0.930 . S
C271 C270 1.394 . S
C271 C272 1.383 . S
C271 H279 0.929 . S
C272 C271 1.383 . S
C272 C273 1.377 . S
C273 H257 0.930 . S
C273 C272 1.377 . S
C273 C274 1.379 . S
C274 H258 0.931 . S
C274 C268 1.383 . S
C274 C273 1.379 . S
H275 C269 0.959 . S
H276 C269 0.961 . S
H277 C269 0.960 . S
H278 C270 0.930 . S
H279 C271 0.929 . S
H280 C288 0.929 . S
H281 C290 0.930 . S
H282 C292 0.930 . S
H283 C295 0.929 . S
H284 C298 0.930 . S
H285 C300 0.960 . S
H286 C300 0.960 . S
H287 C300 0.960 . S
C288 H280 0.929 . S
C288 C289 1.377 . S
C288 C290 1.384 . S
C289 C288 1.377 . S
C289 C295 1.390 . S
C290 H281 0.930 . S
C290 C288 1.384 . S
C290 C291 1.372 . S
C291 C290 1.372 . S
C291 C292 1.400 . S
C291 C296 1.490 . S
C292 H282 0.930 . S
C292 C291 1.400 . S
C292 C295 1.386 . S
H293 C309 0.930 . S
H294 C310 0.931 . S
C295 H283 0.929 . S
C295 C289 1.390 . S
C295 C292 1.386 . S
C296 C291 1.490 . S
C296 C298 1.395 . S
C296 C299 1.403 . S
H297 C303 0.930 . S
C298 H284 0.930 . S
C298 C296 1.395 . S
C298 C301 1.403 . S
C299 C296 1.403 . S
C299 C300 1.524 . S
C299 C303 1.400 . S
C300 H285 0.960 . S
C300 H286 0.960 . S
C300 H287 0.960 . S
C300 C299 1.524 . S
C301 C298 1.403 . S
C301 C302 1.392 . S
C301 C305 1.495 . S
C302 C301 1.392 . S
C302 C303 1.385 . S
C302 C304 1.478 . S
C303 H297 0.930 . S
C303 C299 1.400 . S
C303 C302 1.385 . S
C304 C302 1.478 . S
C304 C306 1.381 . S
C304 C310 1.383 . S
C305 C301 1.495 . S
C305 H311 0.959 . S
C305 H312 0.961 . S
C305 H313 0.960 . S
C306 C304 1.381 . S
C306 C307 1.394 . S
C306 H314 0.930 . S
C307 C306 1.394 . S
C307 C308 1.383 . S
C307 H315 0.929 . S
C308 C307 1.383 . S
C308 C309 1.377 . S
C309 H293 0.930 . S
C309 C308 1.377 . S
C309 C310 1.379 . S
C310 H294 0.931 . S
C310 C304 1.383 . S
C310 C309 1.379 . S
H311 C305 0.959 . S
H312 C305 0.961 . S
H313 C305 0.960 . S
H314 C306 0.930 . S
H315 C307 0.929 . S
H316 C324 0.929 . S
H317 C326 0.930 . S
H318 C328 0.930 . S
H319 C331 0.929 . S
H320 C334 0.930 . S
H321 C336 0.960 . S
H322 C336 0.960 . S
H323 C336 0.960 . S
C324 H316 0.929 . S
C324 C325 1.377 . S
C324 C326 1.384 . S
C325 C324 1.377 . S
C325 C331 1.390 . S
C326 H317 0.930 . S
C326 C324 1.384 . S
C326 C327 1.372 . S
C327 C326 1.372 . S
C327 C328 1.400 . S
C327 C332 1.490 . S
C328 H318 0.930 . S
C328 C327 1.400 . S
C328 C331 1.386 . S
H329 C345 0.930 . S
H330 C346 0.931 . S
C331 H319 0.929 . S
C331 C325 1.390 . S
C331 C328 1.386 . S
C332 C327 1.490 . S
C332 C334 1.395 . S
C332 C335 1.403 . S
H333 C339 0.930 . S
C334 H320 0.930 . S
C334 C332 1.395 . S
C334 C337 1.403 . S
C335 C332 1.403 . S
C335 C336 1.524 . S
C335 C339 1.400 . S
C336 H321 0.960 . S
C336 H322 0.960 . S
C336 H323 0.960 . S
C336 C335 1.524 . S
C337 C334 1.403 . S
C337 C338 1.392 . S
C337 C341 1.495 . S
C338 C337 1.392 . S
C338 C339 1.385 . S
C338 C340 1.478 . S
C339 H333 0.930 . S
C339 C335 1.400 . S
C339 C338 1.385 . S
C340 C338 1.478 . S
C340 C342 1.381 . S
C340 C346 1.383 . S
C341 C337 1.495 . S
C341 H347 0.959 . S
C341 H348 0.961 . S
C341 H349 0.960 . S
C342 C340 1.381 . S
C342 C343 1.394 . S
C342 H350 0.930 . S
C343 C342 1.394 . S
C343 C344 1.383 . S
C343 H351 0.929 . S
C344 C343 1.383 . S
C344 C345 1.377 . S
C345 H329 0.930 . S
C345 C344 1.377 . S
C345 C346 1.379 . S
C346 H330 0.931 . S
C346 C340 1.383 . S
C346 C345 1.379 . S
H347 C341 0.959 . S
H348 C341 0.961 . S
H349 C341 0.960 . S
H350 C342 0.930 . S
H351 C343 0.929 . S
H352 C360 0.929 . S
H353 C362 0.930 . S
H354 C364 0.930 . S
H355 C367 0.929 . S
H356 C370 0.930 . S
H357 C372 0.960 . S
H358 C372 0.960 . S
H359 C372 0.960 . S
C360 H352 0.929 . S
C360 C361 1.377 . S
C360 C362 1.384 . S
C361 C360 1.377 . S
C361 C367 1.390 . S
C362 H353 0.930 . S
C362 C360 1.384 . S
C362 C363 1.372 . S
C363 C362 1.372 . S
C363 C364 1.400 . S
C363 C368 1.490 . S
C364 H354 0.930 . S
C364 C363 1.400 . S
C364 C367 1.386 . S
H365 C381 0.930 1_556 S
H366 C382 0.931 . S
C367 H355 0.929 . S
C367 C361 1.390 . S
C367 C364 1.386 . S
C368 C363 1.490 . S
C368 C370 1.395 . S
C368 C371 1.403 . S
H369 C375 0.930 . S
C370 H356 0.930 . S
C370 C368 1.395 . S
C370 C373 1.403 . S
C371 C368 1.403 . S
C371 C372 1.524 . S
C371 C375 1.400 . S
C372 H357 0.960 . S
C372 H358 0.960 . S
C372 H359 0.960 . S
C372 C371 1.524 . S
C373 C370 1.403 . S
C373 C374 1.392 . S
C373 C377 1.495 . S
C374 C373 1.392 . S
C374 C375 1.385 . S
C374 C376 1.478 . S
C375 H369 0.930 . S
C375 C371 1.400 . S
C375 C374 1.385 . S
C376 C374 1.478 . S
C376 C378 1.381 . S
C376 C382 1.383 . S
C377 C373 1.495 . S
C377 H383 0.959 . S
C377 H384 0.961 . S
C377 H385 0.960 . S
C378 C376 1.381 . S
C378 C379 1.394 . S
C378 H386 0.930 . S
C379 C378 1.394 . S
C379 C380 1.383 . S
C379 H387 0.929 . S
C380 C379 1.383 . S
C380 C381 1.377 . S
C381 H365 0.930 1_554 S
C381 C380 1.377 . S
C381 C382 1.379 . S
C382 H366 0.931 . S
C382 C376 1.383 . S
C382 C381 1.379 . S
H383 C377 0.959 . S
H384 C377 0.961 . S
H385 C377 0.960 . S
H386 C378 0.930 . S
H387 C379 0.929 . S
H388 C396 0.929 . S
H389 C398 0.930 . S
H390 C400 0.930 . S
H391 C403 0.929 . S
H392 C406 0.930 . S
H393 C408 0.960 . S
H394 C408 0.960 . S
H395 C408 0.960 . S
C396 H388 0.929 . S
C396 C397 1.377 . S
C396 C398 1.384 . S
C397 C396 1.377 . S
C397 C403 1.390 . S
C398 H389 0.930 . S
C398 C396 1.384 . S
C398 C399 1.372 . S
C399 C398 1.372 . S
C399 C400 1.400 . S
C399 C404 1.490 . S
C400 H390 0.930 . S
C400 C399 1.400 . S
C400 C403 1.386 . S
H401 C417 0.930 . S
H402 C418 0.931 . S
C403 H391 0.929 . S
C403 C397 1.390 . S
C403 C400 1.386 . S
C404 C399 1.490 . S
C404 C406 1.395 . S
C404 C407 1.403 . S
H405 C411 0.930 . S
C406 H392 0.930 . S
C406 C404 1.395 . S
C406 C409 1.403 . S
C407 C404 1.403 . S
C407 C408 1.524 . S
C407 C411 1.400 . S
C408 H393 0.960 . S
C408 H394 0.960 . S
C408 H395 0.960 . S
C408 C407 1.524 . S
C409 C406 1.403 . S
C409 C410 1.392 . S
C409 C413 1.495 . S
C410 C409 1.392 . S
C410 C411 1.385 . S
C410 C412 1.478 . S
C411 H405 0.930 . S
C411 C407 1.400 . S
C411 C410 1.385 . S
C412 C410 1.478 . S
C412 C414 1.381 . S
C412 C418 1.383 . S
C413 C409 1.495 . S
C413 H419 0.959 . S
C413 H420 0.961 . S
C413 H421 0.960 . S
C414 C412 1.381 . S
C414 C415 1.394 . S
C414 H422 0.914 1_565 S
C415 C414 1.394 . S
C415 C416 1.383 . S
C415 H423 0.929 1_565 S
C416 C415 1.383 . S
C416 C417 1.377 . S
C417 H401 0.930 . S
C417 C416 1.377 . S
C417 C418 1.379 . S
C418 H402 0.931 . S
C418 C412 1.383 . S
C418 C417 1.379 . S
H419 C413 0.959 . S
H420 C413 0.961 . S
H421 C413 0.960 . S
H422 C414 0.914 1_545 S
H423 C415 0.929 1_545 S
H424 C432 0.929 . S
H425 C434 0.930 . S
H426 C436 0.930 . S
H427 C439 0.929 . S
H428 C442 0.930 . S
H429 C444 0.960 1_554 S
H430 C444 0.960 . S
H431 C444 0.960 . S
C432 H424 0.929 . S
C432 C433 1.377 . S
C432 C434 1.384 . S
C433 C432 1.377 . S
C433 C439 1.390 . S
C434 H425 0.930 . S
C434 C432 1.384 . S
C434 C435 1.372 . S
C435 C434 1.372 . S
C435 C436 1.400 . S
C435 C440 1.490 . S
C436 H426 0.930 . S
C436 C435 1.400 . S
C436 C439 1.386 . S
H437 C453 0.930 . S
H438 C454 0.931 . S
C439 H427 0.929 . S
C439 C433 1.390 . S
C439 C436 1.386 . S
C440 C435 1.490 . S
C440 C442 1.395 . S
C440 C443 1.403 . S
H441 C447 0.930 . S
C442 H428 0.930 . S
C442 C440 1.395 . S
C442 C445 1.403 . S
C443 C440 1.403 . S
C443 C444 1.524 . S
C443 C447 1.400 . S
C444 H429 0.960 1_556 S
C444 H430 0.960 . S
C444 H431 0.960 . S
C444 C443 1.524 . S
C445 C442 1.403 . S
C445 C446 1.392 . S
C445 C449 1.495 . S
C446 C445 1.392 . S
C446 C447 1.385 . S
C446 C448 1.478 . S
C447 H441 0.930 . S
C447 C443 1.400 . S
C447 C446 1.385 . S
C448 C446 1.478 . S
C448 C450 1.381 . S
C448 C454 1.383 . S
C449 C445 1.495 . S
C449 H455 0.959 . S
C449 H456 0.961 . S
C449 H457 0.960 . S
C450 C448 1.381 . S
C450 C451 1.394 . S
C450 H458 0.930 . S
C451 C450 1.394 . S
C451 C452 1.383 . S
C451 H459 0.929 . S
C452 C451 1.383 . S
C452 C453 1.377 . S
C453 H437 0.930 . S
C453 C452 1.377 . S
C453 C454 1.379 . S
C454 H438 0.931 . S
C454 C448 1.383 . S
C454 C453 1.379 . S
H455 C449 0.959 . S
H456 C449 0.961 . S
H457 C449 0.960 . S
H458 C450 0.930 . S
H459 C451 0.929 . S
H460 C468 0.929 . S
H461 C470 0.930 . S
H462 C472 0.930 . S
H463 C475 0.929 . S
H464 C478 0.930 . S
H465 C480 0.960 . S
H466 C480 0.960 . S
H467 C480 0.960 . S
C468 H460 0.929 . S
C468 C469 1.377 . S
C468 C470 1.384 . S
C469 C468 1.377 . S
C469 C475 1.390 . S
C470 H461 0.930 . S
C470 C468 1.384 . S
C470 C471 1.372 . S
C471 C470 1.372 . S
C471 C472 1.400 . S
C471 C476 1.490 . S
C472 H462 0.930 . S
C472 C471 1.400 . S
C472 C475 1.386 . S
H473 C489 0.930 . S
H474 C490 0.931 . S
C475 H463 0.929 . S
C475 C469 1.390 . S
C475 C472 1.386 . S
C476 C471 1.490 . S
C476 C478 1.395 . S
C476 C479 1.403 . S
H477 C483 0.930 . S
C478 H464 0.930 . S
C478 C476 1.395 . S
C478 C481 1.403 . S
C479 C476 1.403 . S
C479 C480 1.524 . S
C479 C483 1.400 . S
C480 H465 0.960 . S
C480 H466 0.960 . S
C480 H467 0.960 . S
C480 C479 1.524 . S
C481 C478 1.403 . S
C481 C482 1.392 . S
C481 C485 1.495 . S
C482 C481 1.392 . S
C482 C483 1.385 . S
C482 C484 1.478 . S
C483 H477 0.930 . S
C483 C479 1.400 . S
C483 C482 1.385 . S
C484 C482 1.478 . S
C484 C486 1.381 . S
C484 C490 1.383 . S
C485 C481 1.495 . S
C485 H491 0.959 . S
C485 H492 0.961 . S
C485 H493 0.960 . S
C486 C484 1.381 . S
C486 C487 1.394 . S
C486 H494 0.930 . S
C487 C486 1.394 . S
C487 C488 1.383 . S
C487 H495 0.929 . S
C488 C487 1.383 . S
C488 C489 1.377 . S
C489 H473 0.930 . S
C489 C488 1.377 . S
C489 C490 1.379 . S
C490 H474 0.931 . S
C490 C484 1.383 . S
C490 C489 1.379 . S
H491 C485 0.959 . S
H492 C485 0.961 . S
H493 C485 0.960 . S
H494 C486 0.930 . S
H495 C487 0.929 . S
H496 C504 0.929 . S
H497 C506 0.930 . S
H498 C508 0.930 . S
H499 C511 0.929 . S
H500 C514 0.930 . S
H501 C516 0.960 . S
H502 C516 0.960 . S
H503 C516 0.960 . S
C504 H496 0.929 . S
C504 C505 1.377 . S
C504 C506 1.384 . S
C505 C504 1.377 . S
C505 C511 1.390 . S
C506 H497 0.930 . S
C506 C504 1.384 . S
C506 C507 1.372 . S
C507 C506 1.372 . S
C507 C508 1.400 . S
C507 C512 1.490 . S
C508 H498 0.930 . S
C508 C507 1.400 . S
C508 C511 1.386 . S
H509 C525 0.930 . S
H510 C526 0.931 . S
C511 H499 0.929 . S
C511 C505 1.390 . S
C511 C508 1.386 . S
C512 C507 1.490 . S
C512 C514 1.395 . S
C512 C515 1.403 . S
H513 C519 0.930 . S
C514 H500 0.930 . S
C514 C512 1.395 . S
C514 C517 1.403 . S
C515 C512 1.403 . S
C515 C516 1.524 . S
C515 C519 1.400 . S
C516 H501 0.960 . S
C516 H502 0.960 . S
C516 H503 0.960 . S
C516 C515 1.524 . S
C517 C514 1.403 . S
C517 C518 1.392 . S
C517 C521 1.495 . S
C518 C517 1.392 . S
C518 C519 1.385 . S
C518 C520 1.478 . S
C519 H513 0.930 . S
C519 C515 1.400 . S
C519 C518 1.385 . S
C520 C518 1.478 . S
C520 C522 1.381 . S
C520 C526 1.383 . S
C521 C517 1.495 . S
C521 H527 0.951 1_455 S
C521 H528 0.961 1_455 S
C521 H529 0.960 . S
C522 C520 1.381 . S
C522 C523 1.394 . S
C522 H530 0.930 . S
C523 C522 1.394 . S
C523 C524 1.383 . S
C523 H531 0.929 1_554 S
C524 C523 1.383 . S
C524 C525 1.377 . S
C525 H509 0.930 . S
C525 C524 1.377 . S
C525 C526 1.379 . S
C526 H510 0.931 . S
C526 C520 1.383 . S
C526 C525 1.379 . S
H527 C521 0.951 1_655 S
H528 C521 0.961 1_655 S
H529 C521 0.960 . S
H530 C522 0.930 . S
H531 C523 0.929 1_556 S
H532 C540 0.929 . S
H533 C542 0.930 . S
H534 C544 0.930 . S
H535 C547 0.929 . S
H536 C550 0.930 . S
H537 C552 0.960 . S
H538 C552 0.960 . S
H539 C552 0.960 . S
C540 H532 0.929 . S
C540 C541 1.377 . S
C540 C542 1.384 . S
C541 C540 1.377 . S
C541 C547 1.390 . S
C542 H533 0.930 . S
C542 C540 1.384 . S
C542 C543 1.372 . S
C543 C542 1.372 . S
C543 C544 1.400 . S
C543 C548 1.490 . S
C544 H534 0.930 . S
C544 C543 1.400 . S
C544 C547 1.386 . S
H545 C561 0.930 . S
H546 C562 0.931 . S
C547 H535 0.929 . S
C547 C541 1.390 . S
C547 C544 1.386 . S
C548 C543 1.490 . S
C548 C550 1.395 . S
C548 C551 1.403 . S
H549 C555 0.930 . S
C550 H536 0.930 . S
C550 C548 1.395 . S
C550 C553 1.403 . S
C551 C548 1.403 . S
C551 C552 1.524 . S
C551 C555 1.400 . S
C552 H537 0.960 . S
C552 H538 0.960 . S
C552 H539 0.960 . S
C552 C551 1.524 . S
C553 C550 1.403 . S
C553 C554 1.392 . S
C553 C557 1.495 . S
C554 C553 1.392 . S
C554 C555 1.385 . S
C554 C556 1.478 . S
C555 H549 0.930 . S
C555 C551 1.400 . S
C555 C554 1.385 . S
C556 C554 1.478 . S
C556 C558 1.381 . S
C556 C562 1.383 . S
C557 C553 1.495 . S
C557 H563 0.959 1_556 S
C557 H564 0.961 . S
C557 H565 0.960 1_556 S
C558 C556 1.381 . S
C558 C559 1.394 . S
C558 H566 0.930 . S
C559 C558 1.394 . S
C559 C560 1.383 . S
C559 H567 0.929 . S
C560 C559 1.383 . S
C560 C561 1.377 . S
C561 H545 0.930 . S
C561 C560 1.377 . S
C561 C562 1.379 . S
C562 H546 0.931 . S
C562 C556 1.383 . S
C562 C561 1.379 . S
H563 C557 0.959 1_554 S
H564 C557 0.961 . S
H565 C557 0.960 1_554 S
H566 C558 0.930 . S
H567 C559 0.929 . S
H568 C576 0.929 . S
H569 C578 0.930 . S
H570 C580 0.930 . S
H571 C583 0.929 . S
H572 C586 0.930 . S
H573 C588 0.960 . S
H574 C588 0.960 . S
H575 C588 0.960 . S
C576 H568 0.929 . S
C576 C577 1.377 . S
C576 C578 1.384 . S
C577 C576 1.377 . S
C577 C583 1.390 . S
C578 H569 0.930 . S
C578 C576 1.384 . S
C578 C579 1.372 . S
C579 C578 1.372 . S
C579 C580 1.400 . S
C579 C584 1.490 . S
C580 H570 0.930 . S
C580 C579 1.400 . S
C580 C583 1.386 . S
H581 C597 0.930 . S
H582 C598 0.931 . S
C583 H571 0.929 . S
C583 C577 1.390 . S
C583 C580 1.386 . S
C584 C579 1.490 . S
C584 C586 1.395 . S
C584 C587 1.403 . S
H585 C591 0.930 . S
C586 H572 0.930 . S
C586 C584 1.395 . S
C586 C589 1.403 . S
C587 C584 1.403 . S
C587 C588 1.524 . S
C587 C591 1.400 . S
C588 H573 0.960 . S
C588 H574 0.960 . S
C588 H575 0.960 . S
C588 C587 1.524 . S
C589 C586 1.403 . S
C589 C590 1.392 . S
C589 C593 1.495 . S
C590 C589 1.392 . S
C590 C591 1.385 . S
C590 C592 1.478 . S
C591 H585 0.930 . S
C591 C587 1.400 . S
C591 C590 1.385 . S
C592 C590 1.478 . S
C592 C594 1.381 . S
C592 C598 1.383 . S
C593 C589 1.495 . S
C593 H599 0.959 . S
C593 H600 0.961 . S
C593 H601 0.960 . S
C594 C592 1.381 . S
C594 C595 1.394 . S
C594 H602 0.930 . S
C595 C594 1.394 . S
C595 C596 1.383 . S
C595 H603 0.902 1_655 S
C596 C595 1.383 . S
C596 C597 1.377 . S
C597 H581 0.930 . S
C597 C596 1.377 . S
C597 C598 1.379 . S
C598 H582 0.931 . S
C598 C592 1.383 . S
C598 C597 1.379 . S
H599 C593 0.959 . S
H600 C593 0.961 . S
H601 C593 0.960 . S
H602 C594 0.930 . S
H603 C595 0.902 1_455 S
H604 C612 0.929 . S
H605 C614 0.930 . S
H606 C616 0.930 . S
H607 C619 0.929 . S
H608 C622 0.930 . S
H609 C624 0.960 . S
H610 C624 0.960 . S
H611 C624 0.960 . S
C612 H604 0.929 . S
C612 C613 1.377 . S
C612 C614 1.384 . S
C613 C612 1.377 . S
C613 C619 1.390 . S
C614 H605 0.930 . S
C614 C612 1.384 . S
C614 C615 1.372 . S
C615 C614 1.372 . S
C615 C616 1.400 . S
C615 C620 1.490 . S
C616 H606 0.930 . S
C616 C615 1.400 . S
C616 C619 1.386 . S
H617 C633 0.930 . S
H618 C634 0.931 . S
C619 H607 0.929 . S
C619 C613 1.390 . S
C619 C616 1.386 . S
C620 C615 1.490 . S
C620 C622 1.395 . S
C620 C623 1.403 . S
H621 C627 0.930 . S
C622 H608 0.930 . S
C622 C620 1.395 . S
C622 C625 1.403 . S
C623 C620 1.403 . S
C623 C624 1.524 . S
C623 C627 1.400 . S
C624 H609 0.960 . S
C624 H610 0.960 . S
C624 H611 0.960 . S
C624 C623 1.524 . S
C625 C622 1.403 . S
C625 C626 1.392 . S
C625 C629 1.495 . S
C626 C625 1.392 . S
C626 C627 1.385 . S
C626 C628 1.478 . S
C627 H621 0.930 . S
C627 C623 1.400 . S
C627 C626 1.385 . S
C628 C626 1.478 . S
C628 C630 1.381 . S
C628 C634 1.383 . S
C629 C625 1.495 . S
C629 H635 0.959 . S
C629 H636 0.961 . S
C629 H637 0.960 . S
C630 C628 1.381 . S
C630 C631 1.394 . S
C630 H638 0.930 . S
C631 C630 1.394 . S
C631 C632 1.383 . S
C631 H639 0.929 . S
C632 C631 1.383 . S
C632 C633 1.377 . S
C633 H617 0.930 . S
C633 C632 1.377 . S
C633 C634 1.379 . S
C634 H618 0.931 . S
C634 C628 1.383 . S
C634 C633 1.379 . S
H635 C629 0.959 . S
H636 C629 0.961 . S
H637 C629 0.960 . S
H638 C630 0.930 . S
H639 C631 0.929 . S
H640 C648 0.929 . S
H641 C650 0.930 . S
H642 C652 0.930 . S
H643 C655 0.929 . S
H644 C658 0.930 . S
H645 C660 0.960 . S
H646 C660 0.960 . S
H647 C660 0.960 . S
C648 H640 0.929 . S
C648 C649 1.377 . S
C648 C650 1.384 . S
C649 C648 1.377 . S
C649 C655 1.390 . S
C650 H641 0.930 . S
C650 C648 1.384 . S
C650 C651 1.372 . S
C651 C650 1.372 . S
C651 C652 1.400 . S
C651 C656 1.490 . S
C652 H642 0.930 . S
C652 C651 1.400 . S
C652 C655 1.386 . S
H653 C669 0.930 . S
H654 C670 0.931 . S
C655 H643 0.929 . S
C655 C649 1.390 . S
C655 C652 1.386 . S
C656 C651 1.490 . S
C656 C658 1.395 . S
C656 C659 1.403 . S
H657 C663 0.930 . S
C658 H644 0.930 . S
C658 C656 1.395 . S
C658 C661 1.403 . S
C659 C656 1.403 . S
C659 C660 1.524 . S
C659 C663 1.400 . S
C660 H645 0.960 . S
C660 H646 0.960 . S
C660 H647 0.960 . S
C660 C659 1.524 . S
C661 C658 1.403 . S
C661 C662 1.392 . S
C661 C665 1.495 1_655 S
C662 C661 1.392 . S
C662 C663 1.385 . S
C662 C664 1.478 . S
C663 H657 0.930 . S
C663 C659 1.400 . S
C663 C662 1.385 . S
C664 C662 1.478 . S
C664 C666 1.381 . S
C664 C670 1.383 . S
C665 C661 1.495 1_455 S
C665 H671 0.959 . S
C665 H672 0.961 . S
C665 H673 0.960 . S
C666 C664 1.381 . S
C666 C667 1.394 . S
C666 H674 0.950 . S
C667 C666 1.394 . S
C667 C668 1.383 . S
C667 H675 0.929 1_565 S
C668 C667 1.383 . S
C668 C669 1.377 . S
C669 H653 0.930 . S
C669 C668 1.377 . S
C669 C670 1.379 . S
C670 H654 0.931 . S
C670 C664 1.383 . S
C670 C669 1.379 . S
H671 C665 0.959 . S
H672 C665 0.961 . S
H673 C665 0.960 . S
H674 C666 0.950 . S
H675 C667 0.929 1_545 S
H676 C684 0.929 . S
H677 C686 0.930 . S
H678 C688 0.930 . S
H679 C691 0.929 . S
H680 C694 0.930 . S
H681 C696 0.960 . S
H682 C696 0.960 . S
H683 C696 0.960 . S
C684 H676 0.929 . S
C684 C685 1.377 . S
C684 C686 1.384 . S
C685 C684 1.377 . S
C685 C691 1.390 . S
C686 H677 0.930 . S
C686 C684 1.384 . S
C686 C687 1.372 . S
C687 C686 1.372 . S
C687 C688 1.400 . S
C687 C692 1.490 . S
C688 H678 0.930 . S
C688 C687 1.400 . S
C688 C691 1.386 . S
H689 C705 0.930 1_565 S
H690 C706 0.931 . S
C691 H679 0.929 . S
C691 C685 1.390 . S
C691 C688 1.386 . S
C692 C687 1.490 . S
C692 C694 1.395 . S
C692 C695 1.403 . S
H693 C699 0.930 . S
C694 H680 0.930 . S
C694 C692 1.395 . S
C694 C697 1.403 . S
C695 C692 1.403 . S
C695 C696 1.524 . S
C695 C699 1.400 . S
C696 H681 0.960 . S
C696 H682 0.960 . S
C696 H683 0.960 . S
C696 C695 1.524 . S
C697 C694 1.403 . S
C697 C698 1.392 . S
C697 C701 1.495 . S
C698 C697 1.392 . S
C698 C699 1.385 . S
C698 C700 1.478 . S
C699 H693 0.930 . S
C699 C695 1.400 . S
C699 C698 1.385 . S
C700 C698 1.478 . S
C700 C702 1.381 . S
C700 C706 1.383 . S
C701 C697 1.495 . S
C701 H707 0.959 . S
C701 H708 0.961 . S
C701 H709 0.960 . S
C702 C700 1.381 . S
C702 C703 1.394 . S
C702 H710 0.930 . S
C703 C702 1.394 . S
C703 C704 1.383 . S
C703 H711 0.929 . S
C704 C703 1.383 . S
C704 C705 1.377 . S
C705 H689 0.930 1_545 S
C705 C704 1.377 . S
C705 C706 1.379 . S
C706 H690 0.931 . S
C706 C700 1.383 . S
C706 C705 1.379 . S
H707 C701 0.959 . S
H708 C701 0.961 . S
H709 C701 0.960 . S
H710 C702 0.930 . S
H711 C703 0.929 . S
H712 C720 0.929 . S
H713 C722 0.930 . S
H714 C724 0.930 . S
H715 C727 0.929 . S
H716 C730 0.930 . S
H717 C732 0.960 . S
H718 C732 0.960 . S
H719 C732 0.960 . S
C720 H712 0.929 . S
C720 C721 1.377 . S
C720 C722 1.384 . S
C721 C720 1.377 . S
C721 C727 1.390 . S
C722 H713 0.930 . S
C722 C720 1.384 . S
C722 C723 1.372 . S
C723 C722 1.372 . S
C723 C724 1.400 . S
C723 C728 1.490 . S
C724 H714 0.930 . S
C724 C723 1.400 . S
C724 C727 1.386 . S
H725 C741 0.930 . S
H726 C742 0.931 . S
C727 H715 0.929 . S
C727 C721 1.390 . S
C727 C724 1.386 . S
C728 C723 1.490 . S
C728 C730 1.395 . S
C728 C731 1.403 . S
H729 C735 0.930 . S
C730 H716 0.930 . S
C730 C728 1.395 . S
C730 C733 1.403 . S
C731 C728 1.403 . S
C731 C732 1.524 . S
C731 C735 1.400 . S
C732 H717 0.960 . S
C732 H718 0.960 . S
C732 H719 0.960 . S
C732 C731 1.524 . S
C733 C730 1.403 . S
C733 C734 1.392 . S
C733 C737 1.495 . S
C734 C733 1.392 . S
C734 C735 1.385 . S
C734 C736 1.478 . S
C735 H729 0.930 . S
C735 C731 1.400 . S
C735 C734 1.385 . S
C736 C734 1.478 . S
C736 C738 1.381 . S
C736 C742 1.383 . S
C737 C733 1.495 . S
C737 H743 0.959 . S
C737 H744 0.961 . S
C737 H745 0.960 . S
C738 C736 1.381 . S
C738 C739 1.394 . S
C738 H746 0.930 . S
C739 C738 1.394 . S
C739 C740 1.383 . S
C739 H747 0.929 . S
C740 C739 1.383 . S
C740 C741 1.377 . S
C741 H725 0.930 . S
C741 C740 1.377 . S
C741 C742 1.379 . S
C742 H726 0.931 . S
C742 C736 1.383 . S
C742 C741 1.379 . S
H743 C737 0.959 . S
H744 C737 0.961 . S
H745 C737 0.960 . S
H746 C738 0.930 . S
H747 C739 0.929 . S
H748 C756 0.929 . S
H749 C758 0.930 . S
H750 C760 0.930 . S
H751 C763 0.929 . S
H752 C766 0.930 . S
H753 C768 0.960 . S
H754 C768 0.960 . S
H755 C768 0.960 . S
C756 H748 0.929 . S
C756 C757 1.377 . S
C756 C758 1.384 . S
C757 C756 1.377 . S
C757 C763 1.390 . S
C758 H749 0.930 . S
C758 C756 1.384 . S
C758 C759 1.372 . S
C759 C758 1.372 . S
C759 C760 1.400 . S
C759 C764 1.490 . S
C760 H750 0.930 . S
C760 C759 1.400 . S
C760 C763 1.386 . S
H761 C777 0.930 . S
H762 C778 0.931 . S
C763 H751 0.929 . S
C763 C757 1.390 . S
C763 C760 1.386 . S
C764 C759 1.490 . S
C764 C766 1.395 . S
C764 C767 1.403 . S
H765 C771 0.930 . S
C766 H752 0.930 . S
C766 C764 1.395 . S
C766 C769 1.403 . S
C767 C764 1.403 . S
C767 C768 1.524 . S
C767 C771 1.400 . S
C768 H753 0.960 . S
C768 H754 0.960 . S
C768 H755 0.960 . S
C768 C767 1.524 . S
C769 C766 1.403 . S
C769 C770 1.392 . S
C769 C773 1.495 . S
C770 C769 1.392 . S
C770 C771 1.385 . S
C770 C772 1.478 . S
C771 H765 0.930 . S
C771 C767 1.400 . S
C771 C770 1.385 . S
C772 C770 1.478 . S
C772 C774 1.381 . S
C772 C778 1.383 . S
C773 C769 1.495 . S
C773 H779 0.959 . S
C773 H780 0.961 . S
C773 H781 0.960 . S
C774 C772 1.381 . S
C774 C775 1.394 . S
C774 H782 0.930 . S
C775 C774 1.394 . S
C775 C776 1.383 . S
C775 H783 0.929 . S
C776 C775 1.383 . S
C776 C777 1.377 . S
C777 H761 0.930 . S
C777 C776 1.377 . S
C777 C778 1.379 . S
C778 H762 0.931 . S
C778 C772 1.383 . S
C778 C777 1.379 . S
H779 C773 0.959 . S
H780 C773 0.961 . S
H781 C773 0.960 . S
H782 C774 0.930 . S
H783 C775 0.929 . S
H784 C792 0.929 . S
H785 C794 0.930 . S
H786 C796 0.930 . S
H787 C799 0.929 . S
H788 C802 0.930 . S
H789 C804 0.960 . S
H790 C804 0.960 . S
H791 C804 0.960 . S
C792 H784 0.929 . S
C792 C793 1.377 . S
C792 C794 1.384 . S
C793 C792 1.377 . S
C793 C799 1.390 . S
C794 H785 0.930 . S
C794 C792 1.384 . S
C794 C795 1.372 . S
C795 C794 1.372 . S
C795 C796 1.400 . S
C795 C800 1.490 . S
C796 H786 0.930 . S
C796 C795 1.400 . S
C796 C799 1.386 . S
H797 C813 0.930 1_554 S
H798 C814 0.931 . S
C799 H787 0.929 . S
C799 C793 1.390 . S
C799 C796 1.386 . S
C800 C795 1.490 . S
C800 C802 1.395 . S
C800 C803 1.403 . S
H801 C807 0.930 . S
C802 H788 0.930 . S
C802 C800 1.395 . S
C802 C805 1.403 . S
C803 C800 1.403 . S
C803 C804 1.524 . S
C803 C807 1.400 . S
C804 H789 0.960 . S
C804 H790 0.960 . S
C804 H791 0.960 . S
C804 C803 1.524 . S
C805 C802 1.403 . S
C805 C806 1.392 . S
C805 C809 1.495 . S
C806 C805 1.392 . S
C806 C807 1.385 . S
C806 C808 1.478 . S
C807 H801 0.930 . S
C807 C803 1.400 . S
C807 C806 1.385 . S
C808 C806 1.478 . S
C808 C810 1.381 . S
C808 C814 1.383 . S
C809 C805 1.495 . S
C809 H815 0.959 . S
C809 H816 0.961 . S
C809 H817 0.960 . S
C810 C808 1.381 . S
C810 C811 1.394 . S
C810 H818 0.930 . S
C811 C810 1.394 . S
C811 C812 1.383 . S
C811 H819 0.929 . S
C812 C811 1.383 . S
C812 C813 1.377 . S
C813 H797 0.930 1_556 S
C813 C812 1.377 . S
C813 C814 1.379 . S
C814 H798 0.931 . S
C814 C808 1.383 . S
C814 C813 1.379 . S
H815 C809 0.959 . S
H816 C809 0.961 . S
H817 C809 0.960 . S
H818 C810 0.930 . S
H819 C811 0.929 . S
H820 C828 0.929 . S
H821 C830 0.930 . S
H822 C832 0.930 . S
H823 C835 0.929 . S
H824 C838 0.930 . S
H825 C840 0.960 . S
H826 C840 0.960 . S
H827 C840 0.960 . S
C828 H820 0.929 . S
C828 C829 1.377 . S
C828 C830 1.384 . S
C829 C828 1.377 . S
C829 C835 1.390 . S
C830 H821 0.930 . S
C830 C828 1.384 . S
C830 C831 1.372 . S
C831 C830 1.372 . S
C831 C832 1.400 . S
C831 C836 1.490 . S
C832 H822 0.930 . S
C832 C831 1.400 . S
C832 C835 1.386 . S
H833 C849 0.930 . S
H834 C850 0.931 . S
C835 H823 0.929 . S
C835 C829 1.390 . S
C835 C832 1.386 . S
C836 C831 1.490 . S
C836 C838 1.395 . S
C836 C839 1.403 . S
H837 C843 0.930 . S
C838 H824 0.930 . S
C838 C836 1.395 . S
C838 C841 1.403 . S
C839 C836 1.403 . S
C839 C840 1.524 . S
C839 C843 1.400 . S
C840 H825 0.960 . S
C840 H826 0.960 . S
C840 H827 0.960 . S
C840 C839 1.524 . S
C841 C838 1.403 . S
C841 C842 1.392 . S
C841 C845 1.495 . S
C842 C841 1.392 . S
C842 C843 1.385 . S
C842 C844 1.478 . S
C843 H837 0.930 . S
C843 C839 1.400 . S
C843 C842 1.385 . S
C844 C842 1.478 . S
C844 C846 1.381 . S
C844 C850 1.383 . S
C845 C841 1.495 . S
C845 H851 0.959 . S
C845 H852 0.961 . S
C845 H853 0.960 . S
C846 C844 1.381 . S
C846 C847 1.394 . S
C846 H854 0.930 . S
C847 C846 1.394 . S
C847 C848 1.383 . S
C847 H855 0.929 . S
C848 C847 1.383 . S
C848 C849 1.377 . S
C849 H833 0.930 . S
C849 C848 1.377 . S
C849 C850 1.379 . S
C850 H834 0.931 . S
C850 C844 1.383 . S
C850 C849 1.379 . S
H851 C845 0.959 . S
H852 C845 0.961 . S
H853 C845 0.960 . S
H854 C846 0.930 . S
H855 C847 0.929 . S
H856 C864 0.929 . S
H857 C866 0.930 . S
H858 C868 0.930 . S
H859 C871 0.929 . S
H860 C874 0.930 . S
H861 C876 0.960 . S
H862 C876 0.960 . S
H863 C876 0.960 . S
C864 H856 0.929 . S
C864 C865 1.377 . S
C864 C866 1.384 . S
C865 C864 1.377 . S
C865 C871 1.390 . S
C866 H857 0.930 . S
C866 C864 1.384 . S
C866 C867 1.372 . S
C867 C866 1.372 . S
C867 C868 1.400 . S
C867 C872 1.490 . S
C868 H858 0.930 . S
C868 C867 1.400 . S
C868 C871 1.386 . S
H869 C885 0.930 1_556 S
H870 C886 0.931 . S
C871 H859 0.929 . S
C871 C865 1.390 . S
C871 C868 1.386 . S
C872 C867 1.490 . S
C872 C874 1.395 . S
C872 C875 1.403 . S
H873 C879 0.930 . S
C874 H860 0.930 . S
C874 C872 1.395 . S
C874 C877 1.403 . S
C875 C872 1.403 . S
C875 C876 1.524 . S
C875 C879 1.400 . S
C876 H861 0.960 . S
C876 H862 0.960 . S
C876 H863 0.960 . S
C876 C875 1.524 . S
C877 C874 1.403 . S
C877 C878 1.392 . S
C877 C881 1.495 . S
C878 C877 1.392 . S
C878 C879 1.385 . S
C878 C880 1.478 . S
C879 H873 0.930 . S
C879 C875 1.400 . S
C879 C878 1.385 . S
C880 C878 1.478 . S
C880 C882 1.381 . S
C880 C886 1.383 . S
C881 C877 1.495 . S
C881 H887 0.959 . S
C881 H888 0.961 . S
C881 H889 0.960 . S
C882 C880 1.381 . S
C882 C883 1.394 . S
C882 H890 0.930 . S
C883 C882 1.394 . S
C883 C884 1.383 . S
C883 H891 0.929 . S
C884 C883 1.383 . S
C884 C885 1.377 . S
C885 H869 0.930 1_554 S
C885 C884 1.377 . S
C885 C886 1.379 . S
C886 H870 0.931 . S
C886 C880 1.383 . S
C886 C885 1.379 . S
H887 C881 0.959 . S
H888 C881 0.961 . S
H889 C881 0.960 . S
H890 C882 0.930 . S
H891 C883 0.929 . S
H892 C900 0.929 . S
H893 C902 0.930 . S
H894 C904 0.930 . S
H895 C907 0.929 . S
H896 C910 0.930 . S
H897 C912 0.960 . S
H898 C912 0.960 . S
H899 C912 0.960 . S
C900 H892 0.929 . S
C900 C901 1.377 . S
C900 C902 1.384 . S
C901 C900 1.377 . S
C901 C907 1.390 . S
C902 H893 0.930 . S
C902 C900 1.384 . S
C902 C903 1.372 . S
C903 C902 1.372 . S
C903 C904 1.400 . S
C903 C908 1.490 . S
C904 H894 0.930 . S
C904 C903 1.400 . S
C904 C907 1.386 . S
H905 C921 0.930 . S
H906 C922 0.931 . S
C907 H895 0.929 . S
C907 C901 1.390 . S
C907 C904 1.386 . S
C908 C903 1.490 . S
C908 C910 1.395 . S
C908 C911 1.403 . S
H909 C915 0.930 . S
C910 H896 0.930 . S
C910 C908 1.395 . S
C910 C913 1.403 . S
C911 C908 1.403 . S
C911 C912 1.524 . S
C911 C915 1.400 . S
C912 H897 0.960 . S
C912 H898 0.960 . S
C912 H899 0.960 . S
C912 C911 1.524 . S
C913 C910 1.403 . S
C913 C914 1.392 . S
C913 C917 1.495 . S
C914 C913 1.392 . S
C914 C915 1.385 . S
C914 C916 1.478 . S
C915 H909 0.930 . S
C915 C911 1.400 . S
C915 C914 1.385 . S
C916 C914 1.478 . S
C916 C918 1.381 . S
C916 C922 1.383 . S
C917 C913 1.495 . S
C917 H923 0.959 . S
C917 H924 0.961 . S
C917 H925 0.960 . S
C918 C916 1.381 . S
C918 C919 1.394 . S
C918 H926 0.930 . S
C919 C918 1.394 . S
C919 C920 1.383 . S
C919 H927 0.929 . S
C920 C919 1.383 . S
C920 C921 1.377 . S
C921 H905 0.930 . S
C921 C920 1.377 . S
C921 C922 1.379 . S
C922 H906 0.931 . S
C922 C916 1.383 . S
C922 C921 1.379 . S
H923 C917 0.959 . S
H924 C917 0.961 . S
H925 C917 0.960 . S
H926 C918 0.930 . S
H927 C919 0.929 . S
H928 C936 0.929 . S
H929 C938 0.930 . S
H930 C940 0.930 . S
H931 C943 0.929 . S
H932 C946 0.930 . S
H933 C948 0.960 . S
H934 C948 0.960 . S
H935 C948 0.960 . S
C936 H928 0.929 . S
C936 C937 1.377 . S
C936 C938 1.384 . S
C937 C936 1.377 . S
C937 C943 1.390 . S
C938 H929 0.930 . S
C938 C936 1.384 . S
C938 C939 1.372 . S
C939 C938 1.372 . S
C939 C940 1.400 . S
C939 C944 1.490 . S
C940 H930 0.930 . S
C940 C939 1.400 . S
C940 C943 1.386 . S
H941 C957 0.930 1_554 S
H942 C958 0.931 . S
C943 H931 0.929 . S
C943 C937 1.390 . S
C943 C940 1.386 . S
C944 C939 1.490 . S
C944 C946 1.395 . S
C944 C947 1.403 . S
H945 C951 0.930 . S
C946 H932 0.930 . S
C946 C944 1.395 . S
C946 C949 1.403 . S
C947 C944 1.403 . S
C947 C948 1.524 . S
C947 C951 1.400 . S
C948 H933 0.960 . S
C948 H934 0.960 . S
C948 H935 0.960 . S
C948 C947 1.524 . S
C949 C946 1.403 . S
C949 C950 1.392 . S
C949 C953 1.495 . S
C950 C949 1.392 . S
C950 C951 1.385 . S
C950 C952 1.478 . S
C951 H945 0.930 . S
C951 C947 1.400 . S
C951 C950 1.385 . S
C952 C950 1.478 . S
C952 C954 1.381 . S
C952 C958 1.383 . S
C953 C949 1.495 . S
C953 H959 0.959 . S
C953 H960 0.961 1_655 S
C953 H961 0.960 . S
C954 C952 1.381 . S
C954 C955 1.394 . S
C954 H962 0.930 . S
C955 C954 1.394 . S
C955 C956 1.383 . S
C955 H963 0.929 . S
C956 C955 1.383 . S
C956 C957 1.377 . S
C957 H941 0.930 1_556 S
C957 C956 1.377 . S
C957 C958 1.379 . S
C958 H942 0.931 . S
C958 C952 1.383 . S
C958 C957 1.379 . S
H959 C953 0.959 . S
H960 C953 0.961 1_455 S
H961 C953 0.960 . S
H962 C954 0.930 . S
H963 C955 0.929 . S
H964 C972 0.929 . S
H965 C974 0.930 . S
H966 C976 0.930 . S
H967 C979 0.929 . S
H968 C982 0.930 . S
H969 C984 0.960 . S
H970 C984 0.960 . S
H971 C984 0.960 . S
C972 H964 0.929 . S
C972 C973 1.377 . S
C972 C974 1.384 . S
C973 C972 1.377 . S
C973 C979 1.390 . S
C974 H965 0.930 . S
C974 C972 1.384 . S
C974 C975 1.372 . S
C975 C974 1.372 . S
C975 C976 1.400 . S
C975 C980 1.490 . S
C976 H966 0.930 . S
C976 C975 1.400 . S
C976 C979 1.386 . S
H977 C993 0.930 . S
H978 C994 0.931 . S
C979 H967 0.929 . S
C979 C973 1.390 . S
C979 C976 1.386 . S
C980 C975 1.490 . S
C980 C982 1.395 . S
C980 C983 1.403 . S
H981 C987 0.930 . S
C982 H968 0.930 . S
C982 C980 1.395 . S
C982 C985 1.403 . S
C983 C980 1.403 . S
C983 C984 1.524 . S
C983 C987 1.400 . S
C984 H969 0.960 . S
C984 H970 0.960 . S
C984 H971 0.960 . S
C984 C983 1.524 . S
C985 C982 1.403 . S
C985 C986 1.392 . S
C985 C989 1.495 . S
C986 C985 1.392 . S
C986 C987 1.385 . S
C986 C988 1.478 . S
C987 H981 0.930 . S
C987 C983 1.400 . S
C987 C986 1.385 . S
C988 C986 1.478 . S
C988 C990 1.381 . S
C988 C994 1.383 . S
C989 C985 1.495 . S
C989 H995 0.959 . S
C989 H996 0.961 . S
C989 H997 0.960 . S
C990 C988 1.381 . S
C990 C991 1.394 . S
C990 H998 0.930 . S
C991 C990 1.394 . S
C991 C992 1.383 . S
C991 H999 0.929 . S
C992 C991 1.383 . S
C992 C993 1.377 . S
C993 H977 0.930 . S
C993 C992 1.377 . S
C993 C994 1.379 . S
C994 H978 0.931 . S
C994 C988 1.383 . S
C994 C993 1.379 . S
H995 C989 0.959 . S
H996 C989 0.961 . S
H997 C989 0.960 . S
H998 C990 0.930 . S
H999 C991 0.929 . S
H1000 C1008 0.929 . S
H1001 C1010 0.930 . S
H1002 C1012 0.930 . S
H1003 C1015 0.929 . S
H1004 C1018 0.930 . S
H1005 C1020 0.960 . S
H1006 C1020 0.960 . S
H1007 C1020 0.960 . S
C1008 H1000 0.929 . S
C1008 C1009 1.377 . S
C1008 C1010 1.384 . S
C1009 C1008 1.377 . S
C1009 C1015 1.390 . S
C1010 H1001 0.930 . S
C1010 C1008 1.384 . S
C1010 C1011 1.372 . S
C1011 C1010 1.372 . S
C1011 C1012 1.400 . S
C1011 C1016 1.490 . S
C1012 H1002 0.930 . S
C1012 C1011 1.400 . S
C1012 C1015 1.386 . S
H1013 C1029 0.930 . S
H1014 C1030 0.931 . S
C1015 H1003 0.929 . S
C1015 C1009 1.390 . S
C1015 C1012 1.386 . S
C1016 C1011 1.490 . S
C1016 C1018 1.395 . S
C1016 C1019 1.403 . S
H1017 C1023 0.930 . S
C1018 H1004 0.930 . S
C1018 C1016 1.395 . S
C1018 C1021 1.403 . S
C1019 C1016 1.403 . S
C1019 C1020 1.524 . S
C1019 C1023 1.400 . S
C1020 H1005 0.960 . S
C1020 H1006 0.960 . S
C1020 H1007 0.960 . S
C1020 C1019 1.524 . S
C1021 C1018 1.403 . S
C1021 C1022 1.392 . S
C1021 C1025 1.495 . S
C1022 C1021 1.392 . S
C1022 C1023 1.385 . S
C1022 C1024 1.478 . S
C1023 H1017 0.930 . S
C1023 C1019 1.400 . S
C1023 C1022 1.385 . S
C1024 C1022 1.478 . S
C1024 C1026 1.381 . S
C1024 C1030 1.383 . S
C1025 C1021 1.495 . S
C1025 H1031 0.959 . S
C1025 H1032 0.961 . S
C1025 H1033 0.960 . S
C1026 C1024 1.381 . S
C1026 C1027 1.394 . S
C1026 H1034 0.930 . S
C1027 C1026 1.394 . S
C1027 C1028 1.383 . S
C1027 H1035 0.929 . S
C1028 C1027 1.383 . S
C1028 C1029 1.377 . S
C1029 H1013 0.930 . S
C1029 C1028 1.377 . S
C1029 C1030 1.379 . S
C1030 H1014 0.931 . S
C1030 C1024 1.383 . S
C1030 C1029 1.379 . S
H1031 C1025 0.959 . S
H1032 C1025 0.961 . S
H1033 C1025 0.960 . S
H1034 C1026 0.930 . S
H1035 C1027 0.929 . S
H1036 C1044 0.929 . S
H1037 C1046 0.930 . S
H1038 C1048 0.930 . S
H1039 C1051 0.929 . S
H1040 C1054 0.930 . S
H1041 C1056 0.960 . S
H1042 C1056 0.960 . S
H1043 C1056 0.960 . S
C1044 H1036 0.929 . S
C1044 C1045 1.377 . S
C1044 C1046 1.384 . S
C1045 C1044 1.377 . S
C1045 C1051 1.390 . S
C1046 H1037 0.930 . S
C1046 C1044 1.384 . S
C1046 C1047 1.372 . S
C1047 C1046 1.372 . S
C1047 C1048 1.400 . S
C1047 C1052 1.490 . S
C1048 H1038 0.930 . S
C1048 C1047 1.400 . S
C1048 C1051 1.386 . S
H1049 C1065 0.930 . S
H1050 C1066 0.931 . S
C1051 H1039 0.929 . S
C1051 C1045 1.390 . S
C1051 C1048 1.386 . S
C1052 C1047 1.490 . S
C1052 C1054 1.395 . S
C1052 C1055 1.403 . S
H1053 C1059 0.930 . S
C1054 H1040 0.930 . S
C1054 C1052 1.395 . S
C1054 C1057 1.403 . S
C1055 C1052 1.403 . S
C1055 C1056 1.524 . S
C1055 C1059 1.400 . S
C1056 H1041 0.960 . S
C1056 H1042 0.960 . S
C1056 H1043 0.960 . S
C1056 C1055 1.524 . S
C1057 C1054 1.403 . S
C1057 C1058 1.392 . S
C1057 C1061 1.495 . S
C1058 C1057 1.392 . S
C1058 C1059 1.385 . S
C1058 C1060 1.478 . S
C1059 H1053 0.930 . S
C1059 C1055 1.400 . S
C1059 C1058 1.385 . S
C1060 C1058 1.478 . S
C1060 C1062 1.381 . S
C1060 C1066 1.383 . S
C1061 C1057 1.495 . S
C1061 H1067 0.959 . S
C1061 H1068 0.961 . S
C1061 H1069 0.960 . S
C1062 C1060 1.381 . S
C1062 C1063 1.394 . S
C1062 H1070 0.930 . S
C1063 C1062 1.394 . S
C1063 C1064 1.383 . S
C1063 H1071 0.929 . S
C1064 C1063 1.383 . S
C1064 C1065 1.377 . S
C1065 H1049 0.930 . S
C1065 C1064 1.377 . S
C1065 C1066 1.379 . S
C1066 H1050 0.931 . S
C1066 C1060 1.383 . S
C1066 C1065 1.379 . S
H1067 C1061 0.959 . S
H1068 C1061 0.961 . S
H1069 C1061 0.960 . S
H1070 C1062 0.930 . S
H1071 C1063 0.929 . S
C217 C5 2.293 . S
C236 C72 2.300 . S
C253 C14 2.244 . S
C272 C114 2.244 . S
C308 C144 0.901 . S
C289 C25 0.908 . S
C325 C34 0.942 . S
C344 C178 0.945 . S
C380 C135 1.808 . S
C361 C7 1.800 . S
C416 C89 1.822 . S
C397 C13 1.824 . S
C452 C182 1.272 . S
C433 C23 1.266 . S
C488 C148 1.306 . S
C469 C31 1.300 . S
C505 C4 2.167 . S
C524 C203 2.171 . S
C560 C110 1.036 . S
C541 C22 1.045 . S
C577 C32 1.050 . S
C596 C85 1.054 . S
C613 C16 2.130 . S
C632 C169 2.131 . S
C668 C101 2.284 . S
C649 C41 2.279 . S
C685 C50 2.252 . S
C704 C123 2.250 . S
C721 C61 0.901 . S
C740 C153 0.893 . S
C757 C67 0.957 . S
C776 C187 0.965 . S
C793 C40 1.821 . S
C812 C106 1.828 . S
C848 C80 1.800 . S
C829 C52 1.802 . S
C884 C191 1.274 . S
C865 C59 1.269 . S
C920 C157 1.300 . S
C901 C70 1.295 . S
C937 C43 2.166 . S
C956 C174 2.170 . S
C992 C119 1.048 . S
C973 C58 1.048 . S
C1028 C76 1.047 . S
C1009 C68 1.034 . S
C1045 C49 2.138 . S
C1064 C140 2.140 . S
