# Generated by pormake.
# Topology pyr, (3,6)-cn, num edge types: 1
# Building blocks:
#     Node 0, Type 0, BuildingBlock: BETDIP_clean_linker_0, # of connection points: 3
#     Node 1, Type 0, BuildingBlock: BETDIP_clean_linker_0, # of connection points: 3
#     Node 2, Type 0, BuildingBlock: BETDIP_clean_linker_0, # of connection points: 3
#     Node 3, Type 0, BuildingBlock: BETDIP_clean_linker_0, # of connection points: 3
#     Node 4, Type 0, BuildingBlock: BETDIP_clean_linker_0, # of connection points: 3
#     Node 5, Type 0, BuildingBlock: BETDIP_clean_linker_0, # of connection points: 3
#     Node 6, Type 0, BuildingBlock: BETDIP_clean_linker_0, # of connection points: 3
#     Node 7, Type 0, BuildingBlock: BETDIP_clean_linker_0, # of connection points: 3
#     Node 8, Type 1, BuildingBlock: MIDCAF_clean_sbu_0, # of connection points: 6
#     Node 9, Type 1, BuildingBlock: MIDCAF_clean_sbu_0, # of connection points: 6
#     Node 10, Type 1, BuildingBlock: MIDCAF_clean_sbu_0, # of connection points: 6
#     Node 11, Type 1, BuildingBlock: MIDCAF_clean_sbu_0, # of connection points: 6
#     Edge 12, Type (0, 1), BuildingBlock: TEMPAE_clean_linker_10, # of connection points: 2
#     Edge 13, Type (0, 1), BuildingBlock: TEMPAE_clean_linker_10, # of connection points: 2
#     Edge 14, Type (0, 1), BuildingBlock: TEMPAE_clean_linker_10, # of connection points: 2
#     Edge 15, Type (0, 1), BuildingBlock: TEMPAE_clean_linker_10, # of connection points: 2
#     Edge 16, Type (0, 1), BuildingBlock: TEMPAE_clean_linker_10, # of connection points: 2
#     Edge 17, Type (0, 1), BuildingBlock: TEMPAE_clean_linker_10, # of connection points: 2
#     Edge 18, Type (0, 1), BuildingBlock: TEMPAE_clean_linker_10, # of connection points: 2
#     Edge 19, Type (0, 1), BuildingBlock: TEMPAE_clean_linker_10, # of connection points: 2
#     Edge 20, Type (0, 1), BuildingBlock: TEMPAE_clean_linker_10, # of connection points: 2
#     Edge 21, Type (0, 1), BuildingBlock: TEMPAE_clean_linker_10, # of connection points: 2
#     Edge 22, Type (0, 1), BuildingBlock: TEMPAE_clean_linker_10, # of connection points: 2
#     Edge 23, Type (0, 1), BuildingBlock: TEMPAE_clean_linker_10, # of connection points: 2
#     Edge 24, Type (0, 1), BuildingBlock: TEMPAE_clean_linker_10, # of connection points: 2
#     Edge 25, Type (0, 1), BuildingBlock: TEMPAE_clean_linker_10, # of connection points: 2
#     Edge 26, Type (0, 1), BuildingBlock: TEMPAE_clean_linker_10, # of connection points: 2
#     Edge 27, Type (0, 1), BuildingBlock: TEMPAE_clean_linker_10, # of connection points: 2
#     Edge 28, Type (0, 1), BuildingBlock: TEMPAE_clean_linker_10, # of connection points: 2
#     Edge 29, Type (0, 1), BuildingBlock: TEMPAE_clean_linker_10, # of connection points: 2
#     Edge 30, Type (0, 1), BuildingBlock: TEMPAE_clean_linker_10, # of connection points: 2
#     Edge 31, Type (0, 1), BuildingBlock: TEMPAE_clean_linker_10, # of connection points: 2
#     Edge 32, Type (0, 1), BuildingBlock: TEMPAE_clean_linker_10, # of connection points: 2
#     Edge 33, Type (0, 1), BuildingBlock: TEMPAE_clean_linker_10, # of connection points: 2
#     Edge 34, Type (0, 1), BuildingBlock: TEMPAE_clean_linker_10, # of connection points: 2
#     Edge 35, Type (0, 1), BuildingBlock: TEMPAE_clean_linker_10, # of connection points: 2
# Relax obj value: 0.088
# Max RMSD: 0.178
# Mean RMSD: 0.136
data_MOF--net-pyr--node1-MIDCAF_clean_sbu_0--node2-BETDIP_clean_linker_0--edge1-TEMPAE_clean_linker_10
_symmetry_space_group_name_H-M    P1
_symmetry_Int_Tables_number       1
_symmetry_cell_setting            triclinic
loop_
_symmetry_equiv_pos_as_xyz
'x, y, z'
_cell_length_a     35.602467
_cell_length_b     35.057254
_cell_length_c     37.016889
_cell_angle_alpha  92.982187
_cell_angle_beta   85.908885
_cell_angle_gamma 96.633526
loop_
_atom_site_label
_atom_site_type_symbol
_atom_site_fract_x
_atom_site_fract_y
_atom_site_fract_z
_atom_type_partial_charge
H0 H 0.19964 0.23445 0.27136 0.0
H1 H 0.28326 0.23312 0.18192 0.0
H2 H 0.29021 0.16291 0.27255 0.0
H3 H 0.26746 0.29869 0.18186 0.0
C4 C 0.23683 0.29198 0.18399 0.0
C5 C 0.22557 0.22452 0.25916 0.0
C6 C 0.2435 0.19762 0.27662 0.0
C7 C 0.24009 0.23812 0.22553 0.0
C8 C 0.27267 0.22402 0.20863 0.0
C9 C 0.29088 0.19691 0.22557 0.0
C10 C 0.27645 0.18416 0.25971 0.0
N11 N 0.21986 0.26403 0.20839 0.0
H12 H 0.2921 0.84632 0.78748 0.0
H13 H 0.28601 0.75905 0.70129 0.0
H14 H 0.37048 0.76129 0.77915 0.0
H15 H 0.22716 0.77401 0.69794 0.0
C16 C 0.22749 0.80422 0.70611 0.0
C17 C 0.30218 0.82082 0.7741 0.0
C18 C 0.3331 0.80549 0.78713 0.0
C19 C 0.28404 0.80368 0.74396 0.0
C20 C 0.29809 0.77129 0.72586 0.0
C21 C 0.32951 0.75587 0.73814 0.0
C22 C 0.34633 0.77281 0.76931 0.0
N23 N 0.25339 0.82125 0.73151 0.0
H24 H 0.79124 0.34402 0.7761 0.0
H25 H 0.69849 0.2534 0.77863 0.0
H26 H 0.78099 0.26002 0.85809 0.0
H27 H 0.68615 0.27235 0.7261 0.0
C28 C 0.69947 0.30136 0.72213 0.0
C29 C 0.77694 0.3181 0.78779 0.0
C30 C 0.79024 0.30423 0.81893 0.0
C31 C 0.74415 0.29992 0.77252 0.0
C32 C 0.7245 0.26731 0.7889 0.0
C33 C 0.73801 0.25258 0.81949 0.0
C34 C 0.77101 0.27094 0.83406 0.0
N35 N 0.73077 0.31681 0.74233 0.0
H36 H 0.76001 0.68566 0.28559 0.0
H37 H 0.84823 0.78052 0.28176 0.0
H38 H 0.76681 0.77071 0.37331 0.0
H39 H 0.84597 0.76245 0.2163 0.0
C40 C 0.84623 0.73208 0.22068 0.0
C41 C 0.77282 0.71277 0.29702 0.0
C42 C 0.75856 0.72709 0.33058 0.0
C43 C 0.8046 0.7322 0.27879 0.0
C44 C 0.82236 0.76644 0.29454 0.0
C45 C 0.80879 0.78036 0.32876 0.0
C46 C 0.77662 0.76079 0.34641 0.0
N47 N 0.82076 0.71378 0.24737 0.0
H48 H 0.86256 0.899 0.94941 0.0
H49 H 0.95658 0.88062 0.87445 0.0
H50 H 0.88254 0.96478 0.85355 0.0
H51 H 0.9301 0.8168 0.88806 0.0
C52 C 0.92979 0.82082 0.91741 0.0
C53 C 0.87956 0.9068 0.92488 0.0
C54 C 0.8695 0.93551 0.90338 0.0
C55 C 0.9099 0.88606 0.91378 0.0
C56 C 0.93195 0.89547 0.88185 0.0
C57 C 0.92249 0.92376 0.85961 0.0
C58 C 0.89092 0.94352 0.87064 0.0
N59 N 0.91697 0.85474 0.93428 0.0
H60 H 0.66066 0.10964 0.33502 0.0
H61 H 0.67079 0.1747 0.43571 0.0
H62 H 0.59273 0.20244 0.35963 0.0
H63 H 0.7341 0.16446 0.42135 0.0
C64 C 0.73077 0.13404 0.41337 0.0
C65 C 0.65215 0.13285 0.35314 0.0
C66 C 0.62402 0.15484 0.3437 0.0
C67 C 0.67004 0.14081 0.3855 0.0
C68 C 0.65838 0.17006 0.40979 0.0
C69 C 0.63015 0.19254 0.40115 0.0
C70 C 0.61338 0.18471 0.36769 0.0
N71 N 0.69969 0.11896 0.39292 0.0
H72 H 0.39235 0.56092 0.16081 0.0
H73 H 0.45891 0.67069 0.15314 0.0
H74 H 0.37818 0.63409 0.0741 0.0
H75 H 0.49795 0.64299 0.18947 0.0
C76 C 0.47724 0.62632 0.20703 0.0
C77 C 0.40025 0.58712 0.14647 0.0
C78 C 0.38174 0.59387 0.11555 0.0
C79 C 0.42853 0.61423 0.15979 0.0
C80 C 0.43857 0.64875 0.14189 0.0
C81 C 0.4205 0.65605 0.11071 0.0
C82 C 0.39258 0.62822 0.09765 0.0
N83 N 0.44366 0.60706 0.19298 0.0
H84 H 0.05635 0.38024 0.5942 0.0
H85 H 0.12493 0.48573 0.61922 0.0
H86 H 0.16871 0.4024 0.54325 0.0
H87 H 0.06788 0.50522 0.64199 0.0
C88 C 0.05603 0.47865 0.65434 0.0
C89 C 0.08212 0.3993 0.58881 0.0
C90 C 0.11166 0.38707 0.56537 0.0
C91 C 0.08623 0.43487 0.60779 0.0
C92 C 0.12066 0.45884 0.60356 0.0
C93 C 0.15055 0.44732 0.58024 0.0
C94 C 0.14549 0.41174 0.56072 0.0
N95 N 0.057 0.44323 0.63417 0.0
Zn96 Zn 0.98548 0.05373 0.57087 0.0
Zn97 Zn 0.07065 0.97742 0.48362 0.0
Zn98 Zn 0.02718 0.01674 0.52754 0.0
C99 C 0.0957 0.05396 0.47289 0.0
C100 C 0.99646 0.95781 0.46317 0.0
O101 O 0.02644 0.99316 0.58316 0.0
O102 O 0.9811 0.02255 0.61296 0.0
C103 C 0.04379 0.10718 0.54834 0.0
O104 O 0.07043 0.0582 0.49913 0.0
O105 O 0.10095 0.02093 0.45984 0.0
O106 O 0.02949 0.94822 0.45664 0.0
O107 O 0.99032 0.98401 0.48799 0.0
O108 O 0.01783 0.10299 0.57329 0.0
O109 O 0.05051 0.07852 0.52648 0.0
O110 O 0.96932 0.01133 0.50636 0.0
O111 O 0.93986 0.05097 0.54384 0.0
C112 C 0.93984 0.02861 0.51606 0.0
O113 O 0.05452 0.97697 0.56097 0.0
O114 O 0.09498 0.95215 0.52077 0.0
C115 C 0.00448 0.99815 0.61194 0.0
C116 C 0.08166 0.95579 0.55312 0.0
Zn117 Zn 0.49204 0.04979 0.98853 0.0
Zn118 Zn 0.56607 0.97209 0.06749 0.0
Zn119 Zn 0.53193 0.00901 0.02829 0.0
C120 C 0.61657 0.98859 0.00946 0.0
C121 C 0.50488 0.92272 0.04985 0.0
O122 O 0.50361 0.05084 0.06512 0.0
O123 O 0.47283 0.08327 0.02929 0.0
C124 C 0.56907 0.06134 0.96284 0.0
O125 O 0.59184 0.01176 0.00493 0.0
O126 O 0.61046 0.96469 0.0341 0.0
O127 O 0.52795 0.9279 0.07435 0.0
O128 O 0.50426 0.94853 0.02641 0.0
O129 O 0.53675 0.07017 0.95681 0.0
O130 O 0.57299 0.03873 0.98835 0.0
O131 O 0.48994 0.96823 -0.00074 0.0
O132 O 0.45776 0.00543 0.96942 0.0
C133 C 0.46396 0.97229 0.97757 0.0
O134 O 0.52909 0.03487 0.08526 0.0
O135 O 0.57213 0.00639 0.11051 0.0
C136 C 0.48176 0.07693 0.06067 0.0
C137 C 0.54874 0.03092 0.11257 0.0
Zn138 Zn 0.554 0.56058 0.57769 0.0
Zn139 Zn 0.47418 0.4631 0.49067 0.0
Zn140 Zn 0.51407 0.51293 0.53125 0.0
C141 C 0.52891 0.42302 0.51292 0.0
C142 C 0.50607 0.5227 0.44634 0.0
O143 O 0.47399 0.54144 0.5706 0.0
O144 O 0.51049 0.58249 0.60417 0.0
C145 C 0.57219 0.48603 0.58646 0.0
O146 O 0.53645 0.45539 0.5307 0.0
O147 O 0.50204 0.41843 0.49221 0.0
O148 O 0.48301 0.49249 0.44584 0.0
O149 O 0.52182 0.53464 0.47575 0.0
O150 O 0.57663 0.51949 0.60102 0.0
O151 O 0.55153 0.47884 0.55911 0.0
O152 O 0.54803 0.55586 0.49798 0.0
O153 O 0.58316 0.59004 0.53778 0.0
C154 C 0.57445 0.58283 0.5054 0.0
O155 O 0.45338 0.51238 0.55043 0.0
O156 O 0.42541 0.46289 0.51916 0.0
C157 C 0.47792 0.56812 0.5959 0.0
C158 C 0.42357 0.48948 0.54329 0.0
Zn159 Zn 0.09623 0.55498 0.97053 0.0
Zn160 Zn 0.99307 0.46365 0.0484 0.0
Zn161 Zn 0.04438 0.51095 0.00712 0.0
C162 C 0.06606 0.45245 0.06688 0.0
C163 C 0.98492 0.44396 0.97355 0.0
O164 O 0.02968 0.57066 0.01527 0.0
O165 O 0.07251 0.60329 0.97914 0.0
C166 C 0.13464 0.52397 0.02062 0.0
O167 O 0.07528 0.47704 0.04207 0.0
O168 O 0.03164 0.44246 0.07621 0.0
O169 O 0.97282 0.43371 0.00491 0.0
O170 O 0.01125 0.47212 0.9693 0.0
O171 O 0.14013 0.54963 0.99765 0.0
O172 O 0.10151 0.50536 0.0264 0.0
O173 O 0.03965 0.49489 0.94888 0.0
O174 O 0.09123 0.52666 0.92325 0.0
C175 C 0.06187 0.50308 0.92066 0.0
O176 O 0.0072 0.54725 0.04003 0.0
O177 O 0.96565 0.50688 0.0706 0.0
C178 C 0.0434 0.60239 0.0008 0.0
C179 C 0.97836 0.54087 0.06286 0.0
C180 C 0.22037 0.14182 0.31489 0.0
C181 C 0.22593 0.18166 0.31109 0.0
C182 C 0.2002 0.12596 0.34556 0.0
C183 C 0.18551 0.15054 0.37337 0.0
C184 C 0.19257 0.19089 0.37046 0.0
C185 C 0.21236 0.20595 0.33918 0.0
C186 C 0.19326 0.08276 0.34745 0.0
C187 C 0.178 0.21826 0.39952 0.0
C188 C 0.0995 0.101 0.42515 0.0
C189 C 0.11599 0.08695 0.4542 0.0
C190 C 0.12137 0.12431 0.4 0.0
C191 C 0.16072 0.13346 0.40397 0.0
C192 C 0.17683 0.12166 0.4349 0.0
C193 C 0.15428 0.09807 0.45951 0.0
C194 C 0.1029 0.13674 0.36778 0.0
C195 C 0.21841 0.13159 0.44059 0.0
H196 H 0.23041 0.12291 0.29312 0.0
H197 H 0.21686 0.23682 0.33648 0.0
H198 H 0.20302 0.07363 0.37312 0.0
H199 H 0.16242 0.07335 0.34726 0.0
H200 H 0.208 0.06772 0.3244 0.0
H201 H 0.19367 0.24749 0.39787 0.0
H202 H 0.14769 0.22062 0.39598 0.0
H203 H 0.18018 0.20777 0.42697 0.0
H204 H 0.06995 0.09176 0.42086 0.0
H205 H 0.16705 0.08656 0.48172 0.0
H206 H 0.11363 0.12154 0.34278 0.0
H207 H 0.11028 0.16801 0.36435 0.0
H208 H 0.07154 0.13045 0.37048 0.0
H209 H 0.23532 0.11477 0.42058 0.0
H210 H 0.22534 0.12516 0.46826 0.0
H211 H 0.22718 0.1625 0.43613 0.0
C212 C 0.35443 0.8066 0.8505 0.0
C213 C 0.35297 0.82513 0.81804 0.0
C214 C 0.37217 0.8258 0.88024 0.0
C215 C 0.38964 0.86402 0.877 0.0
C216 C 0.38912 0.88229 0.84376 0.0
C217 C 0.37037 0.86282 0.81492 0.0
C218 C 0.37134 0.80562 0.91538 0.0
C219 C 0.40814 0.92263 0.83871 0.0
C220 C 0.40457 0.93774 0.95488 0.0
C221 C 0.44354 0.9388 0.95871 0.0
C222 C 0.386 0.91119 0.93049 0.0
C223 C 0.40719 0.88593 0.90848 0.0
C224 C 0.44619 0.88544 0.91379 0.0
C225 C 0.46386 0.91179 0.93904 0.0
C226 C 0.34418 0.91197 0.9266 0.0
C227 C 0.47005 0.85944 0.89072 0.0
H228 H 0.34086 0.77744 0.85287 0.0
H229 H 0.36952 0.87696 0.78967 0.0
H230 H 0.40047 0.80587 0.92428 0.0
H231 H 0.35508 0.82119 0.93694 0.0
H232 H 0.35815 0.77537 0.91304 0.0
H233 H 0.40741 0.93171 0.81049 0.0
H234 H 0.39387 0.94314 0.85727 0.0
H235 H 0.43814 0.92465 0.84567 0.0
H236 H 0.38888 0.95878 0.96998 0.0
H237 H 0.49417 0.91316 0.94141 0.0
H238 H 0.32935 0.88234 0.92566 0.0
H239 H 0.34 0.9251 0.90077 0.0
H240 H 0.33079 0.92885 0.94921 0.0
H241 H 0.45534 0.82985 0.88842 0.0
H242 H 0.49807 0.85824 0.90179 0.0
H243 H 0.47478 0.8703 0.86294 0.0
C244 C 0.70116 0.36099 0.68682 0.0
C245 C 0.68267 0.3253 0.69701 0.0
C246 C 0.68395 0.38463 0.66494 0.0
C247 C 0.64712 0.37258 0.65349 0.0
C248 C 0.62895 0.33594 0.66266 0.0
C249 C 0.64707 0.31266 0.68412 0.0
C250 C 0.7046 0.42317 0.6552 0.0
C251 C 0.58955 0.32215 0.65144 0.0
C252 C 0.58788 0.45351 0.64046 0.0
C253 C 0.58952 0.45522 0.60266 0.0
C254 C 0.60561 0.42604 0.65713 0.0
C255 C 0.62617 0.39999 0.63549 0.0
C256 C 0.62756 0.40128 0.59717 0.0
C257 C 0.60915 0.42898 0.58119 0.0
C258 C 0.60275 0.42529 0.69802 0.0
C259 C 0.64928 0.37418 0.57314 0.0
H260 H 0.7289 0.37076 0.69631 0.0
H261 H 0.63275 0.28501 0.6919 0.0
H262 H 0.70437 0.42698 0.62565 0.0
H263 H 0.68991 0.44648 0.66936 0.0
H264 H 0.73446 0.42655 0.66284 0.0
H265 H 0.58154 0.29117 0.65626 0.0
H266 H 0.56883 0.3389 0.66717 0.0
H267 H 0.58723 0.32693 0.62236 0.0
H268 H 0.57263 0.47382 0.65707 0.0
H269 H 0.61132 0.43106 0.55202 0.0
H270 H 0.63131 0.43218 0.70844 0.0
H271 H 0.59158 0.39609 0.70669 0.0
H272 H 0.58404 0.44616 0.71079 0.0
H273 H 0.67983 0.37943 0.57817 0.0
H274 H 0.646 0.37762 0.5439 0.0
H275 H 0.63954 0.34398 0.57968 0.0
C276 C 0.87449 0.71655 0.15867 0.0
C277 C 0.86863 0.70825 0.19536 0.0
C278 C 0.89337 0.69219 0.134 0.0
C279 C 0.90771 0.65964 0.14671 0.0
C280 C 0.9033 0.65232 0.18414 0.0
C281 C 0.88325 0.67636 0.2079 0.0
C282 C 0.89619 0.70023 0.09422 0.0
C283 C 0.91912 0.61863 0.19903 0.0
C284 C 0.92079 0.56929 0.08865 0.0
C285 C 0.96008 0.57316 0.08087 0.0
C286 C 0.90311 0.59841 0.10815 0.0
C287 C 0.92541 0.63174 0.12102 0.0
C288 C 0.96499 0.63641 0.11207 0.0
C289 C 0.98186 0.60706 0.09192 0.0
C290 C 0.86068 0.5929 0.11601 0.0
C291 C 0.98971 0.67159 0.12513 0.0
H292 H 0.86295 0.74117 0.14905 0.0
H293 H 0.87912 0.67029 0.23642 0.0
H294 H 0.92447 0.6954 0.08151 0.0
H295 H 0.87491 0.68012 0.08029 0.0
H296 H 0.89067 0.73007 0.08957 0.0
H297 H 0.91599 0.61882 0.22911 0.0
H298 H 0.90425 0.59133 0.18817 0.0
H299 H 0.94961 0.61894 0.19026 0.0
H300 H 0.90388 0.54324 0.0797 0.0
H301 H 0.01229 0.61001 0.08597 0.0
H302 H 0.84803 0.61876 0.10886 0.0
H303 H 0.85401 0.58907 0.14543 0.0
H304 H 0.84704 0.56745 0.10083 0.0
H305 H 0.97851 0.69804 0.11739 0.0
H306 H 0.01952 0.67197 0.11389 0.0
H307 H 0.98934 0.67244 0.15517 0.0
C308 C 0.3593 0.185 0.21906 0.0
C309 C 0.32293 0.17947 0.2061 0.0
C310 C 0.38991 0.16932 0.19977 0.0
C311 C 0.38363 0.14699 0.16727 0.0
C312 C 0.34655 0.14039 0.15489 0.0
C313 C 0.3168 0.15711 0.17421 0.0
C314 C 0.42908 0.17776 0.21344 0.0
C315 C 0.33832 0.11606 0.12087 0.0
C316 C 0.45604 0.13544 0.08871 0.0
C317 C 0.46398 0.09761 0.09204 0.0
C318 C 0.43256 0.15316 0.11494 0.0
C319 C 0.4157 0.13213 0.14469 0.0
C320 C 0.42584 0.09487 0.14954 0.0
C321 C 0.45019 0.07814 0.12324 0.0
C322 C 0.42371 0.19345 0.10938 0.0
C323 C 0.40853 0.07137 0.18077 0.0
H324 H 0.36392 0.20237 0.24378 0.0
H325 H 0.28854 0.15257 0.16449 0.0
H326 H 0.44312 0.15111 0.21329 0.0
H327 H 0.44676 0.19766 0.19508 0.0
H328 H 0.4285 0.19118 0.2413 0.0
H329 H 0.30755 0.11133 0.11649 0.0
H330 H 0.35328 0.13026 0.09698 0.0
H331 H 0.34897 0.08769 0.12229 0.0
H332 H 0.46704 0.1507 0.06478 0.0
H333 H 0.45621 0.04882 0.12583 0.0
H334 H 0.42527 0.21109 0.13511 0.0
H335 H 0.3944 0.19242 0.10071 0.0
H336 H 0.44342 0.20791 0.08838 0.0
H337 H 0.40872 0.08898 0.20654 0.0
H338 H 0.42366 0.04586 0.18394 0.0
H339 H 0.37852 0.06128 0.17594 0.0
C340 C 0.19743 0.86538 0.70104 0.0
C341 C 0.20115 0.82714 0.68948 0.0
C342 C 0.17418 0.88744 0.68343 0.0
C343 C 0.15466 0.87106 0.65328 0.0
C344 C 0.15729 0.83203 0.64248 0.0
C345 C 0.1803 0.81055 0.66083 0.0
C346 C 0.17169 0.92871 0.69617 0.0
C347 C 0.13735 0.81344 0.6103 0.0
C348 C 0.0786 0.91917 0.61041 0.0
C349 C 0.09969 0.93694 0.58128 0.0
C350 C 0.0962 0.89886 0.63517 0.0
C351 C 0.13565 0.89571 0.6301 0.0
C352 C 0.15701 0.91421 0.60097 0.0
C353 C 0.13882 0.93455 0.57709 0.0
C354 C 0.07249 0.87997 0.66611 0.0
C355 C 0.199 0.91147 0.59419 0.0
H356 H 0.21312 0.87832 0.72344 0.0
H357 H 0.18297 0.78096 0.65195 0.0
H358 H 0.18637 0.94812 0.6756 0.0
H359 H 0.14167 0.93465 0.69928 0.0
H360 H 0.18479 0.93582 0.72239 0.0
H361 H 0.13959 0.78207 0.60729 0.0
H362 H 0.10694 0.81796 0.61286 0.0
H363 H 0.14997 0.82702 0.58516 0.0
H364 H 0.04821 0.91979 0.61297 0.0
H365 H 0.15529 0.94825 0.55457 0.0
H366 H 0.08437 0.89021 0.69224 0.0
H367 H 0.07327 0.8484 0.66366 0.0
H368 H 0.04248 0.88601 0.66692 0.0
H369 H 0.21404 0.92166 0.61872 0.0
H370 H 0.21173 0.9286 0.57107 0.0
H371 H 0.20397 0.88102 0.58833 0.0
C372 C 0.81907 0.33307 0.87507 0.0
C373 C 0.82242 0.32584 0.83743 0.0
C374 C 0.84884 0.35322 0.89345 0.0
C375 C 0.88305 0.36642 0.87378 0.0
C376 C 0.88663 0.3594 0.83572 0.0
C377 C 0.85616 0.33935 0.81793 0.0
C378 C 0.84355 0.36047 0.93399 0.0
C379 C 0.92273 0.37276 0.81394 0.0
C380 C 0.94173 0.44649 0.92432 0.0
C381 C 0.96532 0.42568 0.94238 0.0
C382 C 0.91629 0.42788 0.90002 0.0
C383 C 0.91472 0.38754 0.89357 0.0
C384 C 0.94028 0.36685 0.91013 0.0
C385 C 0.96493 0.38613 0.93482 0.0
C386 C 0.88913 0.45089 0.88345 0.0
C387 C 0.93984 0.32394 0.90372 0.0
H388 H 0.79281 0.32333 0.89019 0.0
H389 H 0.85892 0.33368 0.78885 0.0
H390 H 0.86507 0.34703 0.94772 0.0
H391 H 0.84775 0.3918 0.94082 0.0
H392 H 0.81496 0.34883 0.94514 0.0
H393 H 0.92079 0.36583 0.78445 0.0
H394 H 0.92957 0.40426 0.81817 0.0
H395 H 0.94663 0.35908 0.82341 0.0
H396 H 0.94144 0.47694 0.931 0.0
H397 H 0.9829 0.37007 0.94926 0.0
H398 H 0.85976 0.44183 0.89426 0.0
H399 H 0.89002 0.44537 0.85364 0.0
H400 H 0.89557 0.48227 0.88934 0.0
H401 H 0.91377 0.30921 0.91731 0.0
H402 H 0.96478 0.31309 0.91443 0.0
H403 H 0.93937 0.316 0.87433 0.0
C404 C 0.69052 0.71174 0.35139 0.0
C405 C 0.72821 0.70413 0.35156 0.0
C406 C 0.66198 0.6913 0.37324 0.0
C407 C 0.67182 0.66335 0.39613 0.0
C408 C 0.70987 0.65504 0.39551 0.0
C409 C 0.73763 0.67552 0.3731 0.0
C410 C 0.62168 0.70057 0.37269 0.0
C411 C 0.72148 0.6254 0.41942 0.0
C412 C 0.61444 0.64153 0.48419 0.0
C413 C 0.59607 0.60483 0.47621 0.0
C414 C 0.63803 0.66152 0.45787 0.0
C415 C 0.64313 0.6445 0.4226 0.0
C416 C 0.62334 0.60817 0.41391 0.0
C417 C 0.60063 0.58844 0.44106 0.0
C418 C 0.65872 0.70016 0.46826 0.0
C419 C 0.62744 0.58907 0.37658 0.0
H420 H 0.68352 0.73399 0.33457 0.0
H421 H 0.76696 0.66989 0.373 0.0
H422 H 0.60132 0.6742 0.37469 0.0
H423 H 0.61523 0.71999 0.39638 0.0
H424 H 0.61715 0.71517 0.34768 0.0
H425 H 0.75205 0.62167 0.41497 0.0
H426 H 0.71553 0.63407 0.44834 0.0
H427 H 0.70466 0.59725 0.41419 0.0
H428 H 0.61102 0.65435 0.51135 0.0
H429 H 0.58761 0.55959 0.435 0.0
H430 H 0.65306 0.722 0.44933 0.0
H431 H 0.68973 0.69837 0.46613 0.0
H432 H 0.65035 0.71016 0.49634 0.0
H433 H 0.63127 0.61045 0.35519 0.0
H434 H 0.60237 0.56814 0.37111 0.0
H435 H 0.65279 0.57322 0.37467 0.0
C436 C 0.22838 0.35366 0.15674 0.0
C437 C 0.21318 0.31669 0.16632 0.0
C438 C 0.20638 0.37816 0.14081 0.0
C439 C 0.16848 0.36491 0.13323 0.0
C440 C 0.15321 0.32721 0.14237 0.0
C441 C 0.1756 0.30372 0.15921 0.0
C442 C 0.22401 0.41847 0.13369 0.0
C443 C 0.11315 0.31171 0.13445 0.0
C444 C 0.096 0.43429 0.12137 0.0
C445 C 0.09535 0.43405 0.08359 0.0
C446 C 0.12087 0.41322 0.13783 0.0
C447 C 0.14454 0.39022 0.11599 0.0
C448 C 0.14448 0.3906 0.07771 0.0
C449 C 0.12007 0.41282 0.06196 0.0
C450 C 0.12144 0.41509 0.1786 0.0
C451 C 0.16877 0.36611 0.05336 0.0
H452 H 0.25735 0.3639 0.16254 0.0
H453 H 0.16383 0.27498 0.16638 0.0
H454 H 0.2529 0.41788 0.12035 0.0
H455 H 0.20715 0.43441 0.1169 0.0
H456 H 0.22718 0.43455 0.16012 0.0
H457 H 0.1058 0.28153 0.14247 0.0
H458 H 0.09289 0.32976 0.14917 0.0
H459 H 0.10935 0.31303 0.10506 0.0
H460 H 0.0768 0.45078 0.13803 0.0
H461 H 0.11907 0.41223 0.03272 0.0
H462 H 0.15075 0.42405 0.18657 0.0
H463 H 0.11253 0.38618 0.18921 0.0
H464 H 0.10246 0.43555 0.19166 0.0
H465 H 0.19765 0.36723 0.0631 0.0
H466 H 0.17113 0.37517 0.02489 0.0
H467 H 0.15592 0.33574 0.05375 0.0
C468 C 0.7341 0.18788 0.84631 0.0
C469 C 0.71629 0.21972 0.83809 0.0
C470 C 0.71412 0.1575 0.86553 0.0
C471 C 0.67579 0.15972 0.87782 0.0
C472 C 0.65775 0.19188 0.86946 0.0
C473 C 0.6781 0.22125 0.84937 0.0
C474 C 0.73454 0.12374 0.87331 0.0
C475 C 0.6171 0.19572 0.88244 0.0
C476 C 0.60409 0.07555 0.90383 0.0
C477 C 0.60207 0.07988 0.94168 0.0
C478 C 0.63036 0.09938 0.88263 0.0
C479 C 0.65417 0.12901 0.89978 0.0
C480 C 0.65367 0.13194 0.93814 0.0
C481 C 0.62758 0.1072 0.95868 0.0
C482 C 0.63113 0.0943 0.84187 0.0
C483 C 0.67883 0.16286 0.95746 0.0
H484 H 0.76369 0.18672 0.8376 0.0
H485 H 0.66449 0.24612 0.84344 0.0
H486 H 0.74586 0.12855 0.90052 0.0
H487 H 0.71534 0.09646 0.87319 0.0
H488 H 0.75885 0.12053 0.85327 0.0
H489 H 0.60744 0.22277 0.87409 0.0
H490 H 0.59819 0.1711 0.87149 0.0
H491 H 0.61388 0.19509 0.91245 0.0
H492 H 0.58407 0.05449 0.89079 0.0
H493 H 0.62554 0.11077 0.98801 0.0
H494 H 0.66077 0.09447 0.83026 0.0
H495 H 0.61911 0.11864 0.83062 0.0
H496 H 0.61453 0.06708 0.83292 0.0
H497 H 0.70874 0.16239 0.94694 0.0
H498 H 0.67707 0.15948 0.98723 0.0
H499 H 0.67043 0.19148 0.95218 0.0
C500 C 0.83723 0.84884 0.33733 0.0
C501 C 0.83171 0.81108 0.34886 0.0
C502 C 0.86028 0.87744 0.35613 0.0
C503 C 0.87901 0.86747 0.38624 0.0
C504 C 0.87284 0.82939 0.39818 0.0
C505 C 0.84894 0.80179 0.37955 0.0
C506 C 0.86524 0.91802 0.34339 0.0
C507 C 0.89273 0.81732 0.42973 0.0
C508 C 0.97437 0.9188 0.40893 0.0
C509 C 0.96546 0.93831 0.44192 0.0
C510 C 0.94619 0.89711 0.38968 0.0
C511 C 0.90791 0.89541 0.40334 0.0
C512 C 0.8984 0.91678 0.43557 0.0
C513 C 0.92742 0.93723 0.45493 0.0
C514 C 0.9577 0.87437 0.35569 0.0
C515 C 0.85783 0.9167 0.4505 0.0
H516 H 0.82356 0.8559 0.31368 0.0
H517 H 0.84463 0.77244 0.38825 0.0
H518 H 0.86065 0.93872 0.36657 0.0
H519 H 0.89467 0.92519 0.33183 0.0
H520 H 0.84541 0.92205 0.32241 0.0
H521 H 0.88391 0.78688 0.43624 0.0
H522 H 0.92384 0.82099 0.42335 0.0
H523 H 0.88678 0.83583 0.4542 0.0
H524 H 0.00369 0.91957 0.39853 0.0
H525 H 0.92034 0.95107 0.4809 0.0
H526 H 0.94107 0.88066 0.33294 0.0
H527 H 0.95155 0.84316 0.36027 0.0
H528 H 0.98832 0.88069 0.34747 0.0
H529 H 0.83895 0.91982 0.4285 0.0
H530 H 0.85455 0.94023 0.4714 0.0
H531 H 0.84822 0.8889 0.46304 0.0
C532 C 0.38582 0.72601 0.7098 0.0
C533 C 0.34644 0.72386 0.71703 0.0
C534 C 0.40252 0.69692 0.68915 0.0
C535 C 0.37939 0.66453 0.67543 0.0
C536 C 0.33959 0.66194 0.68282 0.0
C537 C 0.32357 0.69177 0.70329 0.0
C538 C 0.44505 0.70112 0.68172 0.0
C539 C 0.31393 0.62793 0.66876 0.0
C540 C 0.42868 0.61273 0.59614 0.0
C541 C 0.44513 0.58515 0.61385 0.0
C542 C 0.40479 0.63706 0.61541 0.0
C543 C 0.39742 0.63378 0.65333 0.0
C544 C 0.41192 0.60406 0.67076 0.0
C545 C 0.43602 0.5804 0.65086 0.0
C546 C 0.39 0.66823 0.59567 0.0
C547 C 0.40426 0.59906 0.71095 0.0
H548 H 0.40366 0.75097 0.7197 0.0
H549 H 0.29311 0.68984 0.70884 0.0
H550 H 0.45702 0.67648 0.69246 0.0
H551 H 0.45225 0.70083 0.65205 0.0
H552 H 0.45899 0.72813 0.69417 0.0
H553 H 0.28444 0.6276 0.68088 0.0
H554 H 0.31333 0.629 0.63893 0.0
H555 H 0.32479 0.60058 0.67444 0.0
H556 H 0.43645 0.61689 0.56763 0.0
H557 H 0.44933 0.55946 0.66461 0.0
H558 H 0.40542 0.69647 0.60344 0.0
H559 H 0.35951 0.66967 0.60338 0.0
H560 H 0.39374 0.66364 0.56576 0.0
H561 H 0.42011 0.62316 0.72607 0.0
H562 H 0.41302 0.57162 0.71938 0.0
H563 H 0.37368 0.59978 0.71885 0.0
C564 C 0.94924 0.96819 0.81048 0.0
C565 C 0.94435 0.93123 0.82416 0.0
C566 C 0.96605 0.97479 0.77558 0.0
C567 C 0.97942 0.94392 0.75405 0.0
C568 C 0.9772 0.90718 0.76859 0.0
C569 C 0.9592 0.90111 0.80317 0.0
C570 C 0.96735 0.01439 0.76096 0.0
C571 C 0.99251 0.87395 0.74702 0.0
C572 C 0.96791 0.95518 0.65488 0.0
C573 C 0.00308 0.9744 0.64362 0.0
C574 C 0.96074 0.9426 0.69019 0.0
C575 C 0.98975 0.94901 0.71476 0.0
C576 C 0.02657 0.96501 0.70239 0.0
C577 C 0.03271 0.97817 0.66691 0.0
C578 C 0.92099 0.9259 0.70206 0.0
C579 C 0.05866 0.97072 0.72728 0.0
H580 H 0.93909 0.99198 0.82671 0.0
H581 H 0.95555 0.87229 0.81304 0.0
H582 H 0.99652 0.02457 0.75043 0.0
H583 H 0.94876 0.0132 0.738 0.0
H584 H 0.95787 0.03579 0.78183 0.0
H585 H 0.9898 0.84746 0.76267 0.0
H586 H 0.9773 0.86756 0.72189 0.0
H587 H 0.02285 0.88174 0.73867 0.0
H588 H 0.94498 0.95268 0.6368 0.0
H589 H 0.05981 0.99344 0.6582 0.0
H590 H 0.90806 0.94625 0.72188 0.0
H591 H 0.92148 0.8986 0.71573 0.0
H592 H 0.90254 0.92028 0.67895 0.0
H593 H 0.05486 0.99565 0.74636 0.0
H594 H 0.08657 0.9763 0.71194 0.0
H595 H 0.05884 0.94512 0.74364 0.0
C596 C 0.56669 0.14301 0.3068 0.0
C597 C 0.60623 0.14649 0.30853 0.0
C598 C 0.54968 0.13026 0.27447 0.0
C599 C 0.57279 0.12075 0.24331 0.0
C600 C 0.61275 0.12706 0.24431 0.0
C601 C 0.62892 0.13976 0.27686 0.0
C602 C 0.50702 0.12452 0.2745 0.0
C603 C 0.63858 0.11784 0.21164 0.0
C604 C 0.54811 0.03599 0.17936 0.0
C605 C 0.54479 0.05387 0.14695 0.0
C606 C 0.55369 0.0575 0.2118 0.0
C607 C 0.55623 0.09808 0.21188 0.0
C608 C 0.54898 0.1161 0.18002 0.0
C609 C 0.54348 0.09369 0.14768 0.0
C610 C 0.56034 0.03682 0.24519 0.0
C611 C 0.55 0.15915 0.17924 0.0
H612 H 0.54896 0.14835 0.33116 0.0
H613 H 0.6595 0.14335 0.27782 0.0
H614 H 0.49731 0.13202 0.24822 0.0
H615 H 0.4969 0.09383 0.27861 0.0
H616 H 0.49368 0.14204 0.29664 0.0
H617 H 0.66875 0.12816 0.21565 0.0
H618 H 0.6361 0.08625 0.20612 0.0
H619 H 0.6301 0.13101 0.1873 0.0
H620 H 0.54847 0.00507 0.17892 0.0
H621 H 0.54088 0.10758 0.12264 0.0
H622 H 0.54335 0.04748 0.26908 0.0
H623 H 0.59066 0.04256 0.25109 0.0
H624 H 0.55301 0.00522 0.24175 0.0
H625 H 0.53757 0.1713 0.20505 0.0
H626 H 0.53447 0.16759 0.15646 0.0
H627 H 0.5799 0.17211 0.17566 0.0
C628 C 0.52434 0.62368 0.25366 0.0
C629 C 0.48664 0.61868 0.24412 0.0
C630 C 0.53384 0.61317 0.28777 0.0
C631 C 0.5048 0.59809 0.31299 0.0
C632 C 0.46649 0.59524 0.30411 0.0
C633 C 0.45792 0.60523 0.2697 0.0
C634 C 0.57493 0.61672 0.29627 0.0
C635 C 0.43454 0.58006 0.33043 0.0
C636 C 0.51586 0.52278 0.37941 0.0
C637 C 0.5137 0.54373 0.4126 0.0
C638 C 0.51642 0.5409 0.34653 0.0
C639 C 0.51402 0.58095 0.34683 0.0
C640 C 0.51475 0.60274 0.38021 0.0
C641 C 0.51458 0.58379 0.41285 0.0
C642 C 0.51674 0.51662 0.31161 0.0
C643 C 0.51258 0.6455 0.38191 0.0
H644 H 0.54652 0.63441 0.23394 0.0
H645 H 0.42864 0.60203 0.2627 0.0
H646 H 0.57893 0.63352 0.32217 0.0
H647 H 0.58353 0.58778 0.29977 0.0
H648 H 0.59396 0.63088 0.27462 0.0
H649 H 0.40624 0.58307 0.32075 0.0
H650 H 0.43627 0.54917 0.33442 0.0
H651 H 0.43702 0.59552 0.35723 0.0
H652 H 0.51568 0.49181 0.37924 0.0
H653 H 0.51293 0.60002 0.43855 0.0
H654 H 0.53751 0.53024 0.29103 0.0
H655 H 0.48836 0.51427 0.30054 0.0
H656 H 0.52384 0.48716 0.31559 0.0
H657 H 0.52808 0.65939 0.35813 0.0
H658 H 0.52425 0.65935 0.40704 0.0
H659 H 0.48246 0.65083 0.3819 0.0
C660 C 0.05428 0.51293 0.7147 0.0
C661 C 0.04636 0.47892 0.69384 0.0
C662 C 0.05079 0.51299 0.75266 0.0
C663 C 0.03881 0.47817 0.77007 0.0
C664 C 0.02832 0.44424 0.74907 0.0
C665 C 0.03241 0.44496 0.71111 0.0
C666 C 0.06222 0.54985 0.77408 0.0
C667 C 0.01522 0.40653 0.76634 0.0
C668 C 0.08165 0.47612 0.86024 0.0
C669 C 0.05262 0.48784 0.88426 0.0
C670 C 0.07652 0.47023 0.82314 0.0
C671 C 0.04165 0.47682 0.80982 0.0
C672 C 0.01136 0.48617 0.83434 0.0
C673 C 0.01726 0.49165 0.87147 0.0
C674 C 0.10932 0.45961 0.79795 0.0
C675 C 0.97373 0.49293 0.82103 0.0
H676 H 0.06492 0.53918 0.70132 0.0
H677 H 0.02589 0.41855 0.69511 0.0
H678 H 0.03983 0.55552 0.79543 0.0
H679 H 0.08841 0.54705 0.78783 0.0
H680 H 0.06766 0.57501 0.75664 0.0
H681 H 0.99635 0.38755 0.74871 0.0
H682 H 0.04028 0.39149 0.77031 0.0
H683 H 4e-05 0.41077 0.7932 0.0
H684 H 0.10906 0.47337 0.87028 0.0
H685 H 0.99528 0.50186 0.88997 0.0
H686 H 0.11953 0.48396 0.78046 0.0
H687 H 0.10005 0.43455 0.77991 0.0
H688 H 0.1334 0.45253 0.81291 0.0
H689 H 0.97734 0.51889 0.80468 0.0
H690 H 0.95226 0.49712 0.8437 0.0
H691 H 0.96294 0.46833 0.80314 0.0
C692 C 0.80865 0.9597 0.88879 0.0
C693 C 0.83501 0.95488 0.91421 0.0
C694 C 0.77344 0.97254 0.89979 0.0
C695 C 0.76423 0.98034 0.93708 0.0
C696 C 0.79186 0.97838 0.96242 0.0
C697 C 0.82688 0.96577 0.95067 0.0
C698 C 0.74505 0.97491 0.87183 0.0
C699 C 0.78341 0.98668 0.00242 0.0
C700 C 0.67394 0.02123 0.97512 0.0
C701 C 0.65169 0.98763 0.9858 0.0
C702 C 0.71014 0.01952 0.95738 0.0
C703 C 0.72415 0.98337 0.95051 0.0
C704 C 0.70072 0.94934 0.9596 0.0
C705 C 0.66493 0.95195 0.97712 0.0
C706 C 0.73405 0.05642 0.94787 0.0
C707 C 0.71419 0.91011 0.95263 0.0
H708 H 0.81457 0.95136 0.86054 0.0
H709 H 0.84745 0.96302 0.97035 0.0
H710 H 0.72305 0.94982 0.87374 0.0
H711 H 0.73053 0.00123 0.87685 0.0
H712 H 0.75858 0.9749 0.84384 0.0
H713 H 0.80927 0.98874 0.01785 0.0
H714 H 0.77037 0.01391 0.007 0.0
H715 H 0.76277 0.9633 0.01349 0.0
H716 H 0.66406 0.0488 0.98248 0.0
H717 H 0.64759 0.92587 0.98513 0.0
H718 H 0.74833 0.05367 0.92038 0.0
H719 H 0.75647 0.06284 0.96732 0.0
H720 H 0.71693 0.08106 0.949 0.0
H721 H 0.72424 0.90613 0.92378 0.0
H722 H 0.69159 0.88646 0.95929 0.0
H723 H 0.73845 0.90765 0.96927 0.0
C724 C 0.7928 0.12858 0.43781 0.0
C725 C 0.76081 0.11042 0.42155 0.0
C726 C 0.82127 0.10754 0.44776 0.0
C727 C 0.81764 0.06707 0.44152 0.0
C728 C 0.78596 0.04858 0.42393 0.0
C729 C 0.75778 0.07053 0.41415 0.0
C730 C 0.85464 0.12859 0.46624 0.0
C731 C 0.78104 0.00558 0.41675 0.0
C732 C 0.91081 0.03022 0.45668 0.0
C733 C 0.9065 0.02583 0.49418 0.0
C734 C 0.88042 0.03956 0.43775 0.0
C735 C 0.84532 0.04465 0.45699 0.0
C736 C 0.83981 0.0355 0.49392 0.0
C737 C 0.87056 0.02645 0.5121 0.0
C738 C 0.88717 0.04789 0.39813 0.0
C739 C 0.80268 0.03951 0.51538 0.0
H740 H 0.79529 0.15943 0.44333 0.0
H741 H 0.7331 0.05631 0.40148 0.0
H742 H 0.85421 0.11942 0.49453 0.0
H743 H 0.8816 0.12139 0.45206 0.0
H744 H 0.85444 0.16029 0.46694 0.0
H745 H 0.75956 0.9967 0.3967 0.0
H746 H 0.80826 0.99501 0.40672 0.0
H747 H 0.7716 0.99131 0.44241 0.0
H748 H 0.9386 0.02959 0.44276 0.0
H749 H 0.86715 0.02253 0.54107 0.0
H750 H 0.89299 0.07942 0.39533 0.0
H751 H 0.8618 0.03762 0.3831 0.0
H752 H 0.91183 0.03425 0.38544 0.0
H753 H 0.7997 0.07046 0.52102 0.0
H754 H 0.80098 0.02529 0.54167 0.0
H755 H 0.77844 0.027 0.49974 0.0
C756 C 0.32139 0.55102 0.1297 0.0
C757 C 0.34837 0.56761 0.10389 0.0
C758 C 0.28602 0.53347 0.11958 0.0
C759 C 0.27701 0.53344 0.08291 0.0
C760 C 0.30531 0.54721 0.05636 0.0
C761 C 0.34092 0.56315 0.06712 0.0
C762 C 0.25783 0.51798 0.1491 0.0
C763 C 0.29718 0.54819 0.01692 0.0
C764 C 0.18736 0.48974 0.03927 0.0
C765 C 0.16558 0.52058 0.04389 0.0
C766 C 0.2229 0.49205 0.05411 0.0
C767 C 0.2369 0.52636 0.07318 0.0
C768 C 0.21371 0.55661 0.07945 0.0
C769 C 0.17821 0.55308 0.06501 0.0
C770 C 0.24604 0.45873 0.04694 0.0
C771 C 0.22748 0.59409 0.09888 0.0
H772 H 0.32664 0.5539 0.15824 0.0
H773 H 0.3622 0.57434 0.0468 0.0
H774 H 0.25065 0.54191 0.16823 0.0
H775 H 0.2313 0.50314 0.13872 0.0
H776 H 0.271 0.49762 0.16494 0.0
H777 H 0.32098 0.56369 0.00056 0.0
H778 H 0.29215 0.51846 0.00523 0.0
H779 H 0.27128 0.56239 0.01421 0.0
H780 H 0.17785 0.46496 0.02217 0.0
H781 H 0.16128 0.57702 0.06807 0.0
H782 H 0.26957 0.45967 0.06517 0.0
H783 H 0.25795 0.45869 0.01842 0.0
H784 H 0.22765 0.43122 0.05007 0.0
H785 H 0.23166 0.58896 0.12753 0.0
H786 H 0.20718 0.61586 0.09855 0.0
H787 H 0.25516 0.60627 0.08616 0.0
C788 C 0.21042 0.47351 0.5463 0.0
C789 C 0.18867 0.4697 0.57923 0.0
C790 C 0.24921 0.48633 0.54559 0.0
C791 C 0.26658 0.49581 0.57864 0.0
C792 C 0.24394 0.49626 0.61161 0.0
C793 C 0.20519 0.48289 0.61159 0.0
C794 C 0.27219 0.48602 0.50969 0.0
C795 C 0.26117 0.50745 0.64724 0.0
C796 C 0.36294 0.46088 0.57183 0.0
C797 C 0.38628 0.49396 0.5617 0.0
C798 C 0.32421 0.46194 0.58052 0.0
C799 C 0.30844 0.49706 0.57886 0.0
C800 C 0.33256 0.53132 0.57194 0.0
C801 C 0.3714 0.5293 0.5631 0.0
C802 C 0.29972 0.42471 0.5882 0.0
C803 C 0.31707 0.56945 0.57075 0.0
H804 H 0.19753 0.46428 0.52117 0.0
H805 H 0.18857 0.4802 0.63721 0.0
H806 H 0.29169 0.51293 0.50715 0.0
H807 H 0.28975 0.46173 0.50814 0.0
H808 H 0.25395 0.48274 0.48633 0.0
H809 H 0.23941 0.51495 0.66864 0.0
H810 H 0.27473 0.48298 0.65632 0.0
H811 H 0.28341 0.53223 0.64435 0.0
H812 H 0.37464 0.43358 0.57078 0.0
H813 H 0.38933 0.55469 0.55443 0.0
H814 H 0.28145 0.41651 0.56533 0.0
H815 H 0.28085 0.42823 0.61301 0.0
H816 H 0.31682 0.40077 0.5918 0.0
H817 H 0.30611 0.57194 0.54376 0.0
H818 H 0.3394 0.5938 0.57503 0.0
H819 H 0.2933 0.57199 0.59149 0.0
C820 C 0.94326 0.79322 0.9761 0.0
C821 C 0.94161 0.78994 0.93831 0.0
C822 C 0.9565 0.76417 0.99501 0.0
C823 C 0.96833 0.73125 0.97553 0.0
C824 C 0.96584 0.72767 0.93742 0.0
C825 C 0.95244 0.75699 0.9194 0.0
C826 C 0.95878 0.77005 0.03549 0.0
C827 C 0.97867 0.69346 0.91535 0.0
C828 C 0.0442 0.67331 0.00099 0.0
C829 C 0.02345 0.63718 0.0054 0.0
C830 C 0.02603 0.7056 0.99507 0.0
C831 C 0.98618 0.70158 0.99353 0.0
C832 C 0.96482 0.66629 0.00246 0.0
C833 C 0.98377 0.63423 0.00775 0.0
C834 C 0.04976 0.74308 0.98702 0.0
C835 C 0.92216 0.66126 0.00306 0.0
H836 H 0.9349 0.81871 0.99093 0.0
H837 H 0.95111 0.75445 0.89018 0.0
H838 H 0.96539 0.74423 0.04874 0.0
H839 H 0.98107 0.79402 0.0412 0.0
H840 H 0.93158 0.77872 0.04797 0.0
H841 H 0.97481 0.69512 0.88597 0.0
H842 H 0.0091 0.69157 0.91881 0.0
H843 H 0.96252 0.66654 0.925 0.0
H844 H 0.07491 0.6758 -0.00028 0.0
H845 H 0.96752 0.60637 0.01087 0.0
H846 H 0.03837 0.76707 0.00342 0.0
H847 H 0.04852 0.7491 0.958 0.0
H848 H 0.07991 0.74255 0.99274 0.0
H849 H 0.91022 0.68838 0.01188 0.0
H850 H 0.90993 0.63828 0.02144 0.0
H851 H 0.91332 0.6528 0.97536 0.0
C852 C 0.46588 0.71204 0.08976 0.0
C853 C 0.42876 0.6937 0.09314 0.0
C854 C 0.47356 0.74885 0.07594 0.0
C855 C 0.44344 0.76768 0.06482 0.0
C856 C 0.40628 0.74841 0.06599 0.0
C857 C 0.39929 0.71191 0.08058 0.0
C858 C 0.51366 0.76845 0.07514 0.0
C859 C 0.37354 0.76717 0.05377 0.0
C860 C 0.46238 0.87452 0.08309 0.0
C861 C 0.47933 0.88669 0.04975 0.0
C862 C 0.44784 0.83619 0.08756 0.0
C863 C 0.45017 0.80937 0.05779 0.0
C864 C 0.46365 0.82236 0.02305 0.0
C865 C 0.47854 0.86107 0.01948 0.0
C866 C 0.43344 0.82384 0.12504 0.0
C867 C 0.46536 0.79496 0.99035 0.0
H868 H 0.48893 0.69791 0.0986 0.0
H869 H 0.37036 0.69836 0.08338 0.0
H870 H 0.52226 0.77964 0.04795 0.0
H871 H 0.51525 0.79336 0.09497 0.0
H872 H 0.53426 0.74884 0.08191 0.0
H873 H 0.34829 0.746 0.04978 0.0
H874 H 0.36552 0.78928 0.07452 0.0
H875 H 0.38166 0.78186 0.02806 0.0
H876 H 0.46304 0.89454 0.10646 0.0
H877 H 0.49231 0.87034 0.9939 0.0
H878 H 0.45364 0.80604 0.1357 0.0
H879 H 0.4057 0.80598 0.12409 0.0
H880 H 0.43018 0.84876 0.14436 0.0
H881 H 0.49067 0.77932 0.99085 0.0
H882 H 0.46752 0.81043 0.9647 0.0
H883 H 0.44001 0.77333 0.99052 0.0
C884 C 0.07338 0.32873 0.53935 0.0
C885 C 0.10848 0.34687 0.54962 0.0
C886 C 0.06777 0.28888 0.53225 0.0
C887 C 0.0983 0.26674 0.53446 0.0
C888 C 0.13482 0.28539 0.54057 0.0
C889 C 0.1394 0.32516 0.54865 0.0
C890 C 0.02833 0.27015 0.52573 0.0
C891 C 0.1684 0.26294 0.54156 0.0
C892 C 0.06809 0.17057 0.57516 0.0
C893 C 0.06433 0.14592 0.5443 0.0
C894 C 0.0807 0.20962 0.57223 0.0
C895 C 0.09034 0.22442 0.5375 0.0
C896 C 0.08899 0.1992 0.50633 0.0
C897 C 0.07548 0.16019 0.51009 0.0
C898 C 0.08149 0.23542 0.60626 0.0
C899 C 0.09965 0.21364 0.46891 0.0
H900 H 0.04963 0.3454 0.53879 0.0
H901 H 0.16674 0.33857 0.55649 0.0
H902 H 0.02898 0.24932 0.50218 0.0
H903 H 0.01674 0.25395 0.5498 0.0
H904 H 0.00875 0.29153 0.52079 0.0
H905 H 0.19565 0.28187 0.53925 0.0
H906 H 0.16675 0.24828 0.56757 0.0
H907 H 0.16831 0.24045 0.5193 0.0
H908 H 0.05956 0.15956 0.6017 0.0
H909 H 0.07144 0.14155 0.48618 0.0
H910 H 0.06101 0.25685 0.6051 0.0
H911 H 0.11 0.25151 0.60839 0.0
H912 H 0.07417 0.2191 0.63121 0.0
H913 H 0.07567 0.22698 0.45922 0.0
H914 H 0.1061 0.18986 0.44931 0.0
H915 H 0.12454 0.23582 0.46911 0.0
C916 C 0.64519 0.24642 0.44803 0.0
C917 C 0.61876 0.22467 0.42642 0.0
C918 C 0.63524 0.27821 0.46995 0.0
C919 C 0.59836 0.28938 0.46948 0.0
C920 C 0.57122 0.26689 0.4488 0.0
C921 C 0.58153 0.23454 0.42819 0.0
C922 C 0.66442 0.30037 0.49294 0.0
C923 C 0.53166 0.27804 0.44695 0.0
C924 C 0.55105 0.36224 0.53133 0.0
C925 C 0.55561 0.39391 0.5093 0.0
C926 C 0.56819 0.32882 0.52053 0.0
C927 C 0.58908 0.32697 0.48649 0.0
C928 C 0.59603 0.36019 0.46574 0.0
C929 C 0.57945 0.39332 0.47762 0.0
C930 C 0.56198 0.29472 0.54431 0.0
C931 C 0.61759 0.35958 0.42908 0.0
H932 H 0.67411 0.2395 0.44706 0.0
H933 H 0.56035 0.21738 0.41285 0.0
H934 H 0.66919 0.33089 0.48554 0.0
H935 H 0.65382 0.30002 0.52185 0.0
H936 H 0.69199 0.2882 0.49011 0.0
H937 H 0.51366 0.25702 0.4303 0.0
H938 H 0.51765 0.2804 0.47458 0.0
H939 H 0.53316 0.30665 0.43507 0.0
H940 H 0.53238 0.36279 0.55576 0.0
H941 H 0.58244 0.41781 0.46046 0.0
H942 H 0.58968 0.28536 0.54976 0.0
H943 H 0.54566 0.27019 0.53022 0.0
H944 H 0.54642 0.3013 0.57056 0.0
H945 H 0.64503 0.34794 0.43079 0.0
H946 H 0.62322 0.38863 0.41787 0.0
H947 H 0.60091 0.34044 0.40977 0.0
loop_
_geom_bond_atom_site_label_1
_geom_bond_atom_site_label_2
_geom_bond_distance
_geom_bond_site_symmetry_2
_ccdc_geom_bond_type
H0 C5 0.930 . S
H1 C8 0.930 . S
H2 C10 0.930 . S
H3 C4 1.016 . S
C4 H3 1.016 . S
C4 N11 1.286 . S
C5 H0 0.930 . S
C5 C6 1.397 . S
C5 C7 1.361 . S
C6 C5 1.397 . S
C6 C10 1.390 . S
C7 C5 1.361 . S
C7 C8 1.393 . S
C7 N11 1.413 . S
C8 H1 0.930 . S
C8 C7 1.393 . S
C8 C9 1.399 . S
C9 C8 1.399 . S
C9 C10 1.381 . S
C10 H2 0.930 . S
C10 C6 1.390 . S
C10 C9 1.381 . S
N11 C4 1.286 . S
N11 C7 1.413 . S
H12 C17 0.930 . S
H13 C20 0.930 . S
H14 C22 0.930 . S
H15 C16 1.016 . S
C16 H15 1.016 . S
C16 N23 1.286 . S
C17 H12 0.930 . S
C17 C18 1.397 . S
C17 C19 1.361 . S
C18 C17 1.397 . S
C18 C22 1.390 . S
C19 C17 1.361 . S
C19 C20 1.393 . S
C19 N23 1.413 . S
C20 H13 0.930 . S
C20 C19 1.393 . S
C20 C21 1.399 . S
C21 C20 1.399 . S
C21 C22 1.381 . S
C22 H14 0.930 . S
C22 C18 1.390 . S
C22 C21 1.381 . S
N23 C16 1.286 . S
N23 C19 1.413 . S
H24 C29 0.930 . S
H25 C32 0.930 . S
H26 C34 0.930 . S
H27 C28 1.016 . S
C28 H27 1.016 . S
C28 N35 1.286 . S
C29 H24 0.930 . S
C29 C30 1.397 . S
C29 C31 1.361 . S
C30 C29 1.397 . S
C30 C34 1.390 . S
C31 C29 1.361 . S
C31 C32 1.393 . S
C31 N35 1.413 . S
C32 H25 0.930 . S
C32 C31 1.393 . S
C32 C33 1.399 . S
C33 C32 1.399 . S
C33 C34 1.381 . S
C34 H26 0.930 . S
C34 C30 1.390 . S
C34 C33 1.381 . S
N35 C28 1.286 . S
N35 C31 1.413 . S
H36 C41 0.930 . S
H37 C44 0.930 . S
H38 C46 0.930 . S
H39 C40 1.016 . S
C40 H39 1.016 . S
C40 N47 1.286 . S
C41 H36 0.930 . S
C41 C42 1.397 . S
C41 C43 1.361 . S
C42 C41 1.397 . S
C42 C46 1.390 . S
C43 C41 1.361 . S
C43 C44 1.393 . S
C43 N47 1.413 . S
C44 H37 0.930 . S
C44 C43 1.393 . S
C44 C45 1.399 . S
C45 C44 1.399 . S
C45 C46 1.381 . S
C46 H38 0.930 . S
C46 C42 1.390 . S
C46 C45 1.381 . S
N47 C40 1.286 . S
N47 C43 1.413 . S
H48 C53 0.930 . S
H49 C56 0.930 . S
H50 C58 0.948 . S
H51 C52 1.018 . S
C52 H51 1.018 . S
C52 N59 1.286 . S
C53 H48 0.930 . S
C53 C54 1.397 . S
C53 C55 1.361 . S
C54 C53 1.397 . S
C54 C58 1.390 . S
C55 C53 1.361 . S
C55 C56 1.393 . S
C55 N59 1.413 . S
C56 H49 0.930 . S
C56 C55 1.393 . S
C56 C57 1.399 . S
C57 C56 1.399 . S
C57 C58 1.381 . S
C58 H50 0.948 . S
C58 C54 1.390 . S
C58 C57 1.381 . S
N59 C52 1.286 . S
N59 C55 1.413 . S
H60 C65 0.930 . S
H61 C68 0.930 . S
H62 C70 0.930 . S
H63 C64 1.016 . S
C64 H63 1.016 . S
C64 N71 1.286 . S
C65 H60 0.930 . S
C65 C66 1.397 . S
C65 C67 1.361 . S
C66 C65 1.397 . S
C66 C70 1.390 . S
C67 C65 1.361 . S
C67 C68 1.393 . S
C67 N71 1.413 . S
C68 H61 0.930 . S
C68 C67 1.393 . S
C68 C69 1.399 . S
C69 C68 1.399 . S
C69 C70 1.381 . S
C70 H62 0.930 . S
C70 C66 1.390 . S
C70 C69 1.381 . S
N71 C64 1.286 . S
N71 C67 1.413 . S
H72 C77 0.930 . S
H73 C80 0.930 . S
H74 C82 0.930 . S
H75 C76 1.016 . S
C76 H75 1.016 . S
C76 N83 1.286 . S
C77 H72 0.930 . S
C77 C78 1.397 . S
C77 C79 1.361 . S
C78 C77 1.397 . S
C78 C82 1.390 . S
C79 C77 1.361 . S
C79 C80 1.393 . S
C79 N83 1.413 . S
C80 H73 0.930 . S
C80 C79 1.393 . S
C80 C81 1.399 . S
C81 C80 1.399 . S
C81 C82 1.381 . S
C82 H74 0.930 . S
C82 C78 1.390 . S
C82 C81 1.381 . S
N83 C76 1.286 . S
N83 C79 1.413 . S
H84 C89 0.930 . S
H85 C92 0.930 . S
H86 C94 0.930 . S
H87 C88 1.016 . S
C88 H87 1.016 . S
C88 N95 1.286 . S
C89 H84 0.930 . S
C89 C90 1.397 . S
C89 C91 1.361 . S
C90 C89 1.397 . S
C90 C94 1.390 . S
C91 C89 1.361 . S
C91 C92 1.393 . S
C91 N95 1.413 . S
C92 H85 0.930 . S
C92 C91 1.393 . S
C92 C93 1.399 . S
C93 C92 1.399 . S
C93 C94 1.381 . S
C94 H86 0.930 . S
C94 C90 1.390 . S
C94 C93 1.381 . S
N95 C88 1.286 . S
N95 C91 1.413 . S
Zn96 O102 1.920 . S
Zn96 O108 1.898 . S
Zn96 O111 1.905 . S
Zn97 O105 1.905 1_565 S
Zn97 O106 1.898 . S
Zn97 O114 1.920 . S
Zn98 O101 2.080 1_455 S
Zn98 O104 2.114 . S
Zn98 O107 2.120 1_445 S
Zn98 O109 2.120 . S
Zn98 O110 2.114 1_455 S
Zn98 O113 2.080 . S
C99 O104 1.166 . S
C99 O105 1.182 . S
C100 O106 1.167 1_655 S
C100 O107 1.299 . S
O101 Zn98 2.080 1_655 S
O101 C115 1.305 . S
O102 Zn96 1.920 . S
O102 C115 1.234 . S
C103 O108 1.167 1_455 S
C103 O109 1.299 . S
O104 Zn98 2.114 . S
O104 C99 1.166 . S
O105 Zn97 1.905 1_545 S
O105 C99 1.182 . S
O106 Zn97 1.898 . S
O106 C100 1.167 1_455 S
O107 Zn98 2.120 1_665 S
O107 C100 1.299 . S
O108 Zn96 1.898 . S
O108 C103 1.167 1_655 S
O109 Zn98 2.120 . S
O109 C103 1.299 . S
O110 Zn98 2.114 1_655 S
O110 C112 1.166 . S
O111 Zn96 1.905 . S
O111 C112 1.182 . S
C112 O110 1.166 . S
C112 O111 1.182 . S
O113 Zn98 2.080 . S
O113 C116 1.305 1_545 S
O114 Zn97 1.920 . S
O114 C116 1.234 . S
C115 O101 1.305 . S
C115 O102 1.234 . S
C116 O113 1.305 1_565 S
C116 O114 1.234 . S
Zn117 O123 1.920 1_556 S
Zn117 O129 1.898 . S
Zn117 O132 1.905 . S
Zn118 O126 1.905 . S
Zn118 O127 1.898 . S
Zn118 O135 1.920 . S
Zn119 O122 2.080 . S
Zn119 O125 2.114 1_545 S
Zn119 O128 2.120 1_545 S
Zn119 O130 2.120 . S
Zn119 O131 2.114 1_544 S
Zn119 O134 2.080 . S
C120 O125 1.166 . S
C120 O126 1.182 . S
C121 O127 1.167 . S
C121 O128 1.299 . S
O122 Zn119 2.080 . S
O122 C136 1.305 . S
O123 Zn117 1.920 1_554 S
O123 C136 1.234 . S
C124 O129 1.167 . S
C124 O130 1.299 1_556 S
O125 Zn119 2.114 1_565 S
O125 C120 1.166 . S
O126 Zn118 1.905 . S
O126 C120 1.182 . S
O127 Zn118 1.898 . S
O127 C121 1.167 . S
O128 Zn119 2.120 1_565 S
O128 C121 1.299 . S
O129 Zn117 1.898 . S
O129 C124 1.167 . S
O130 Zn119 2.120 . S
O130 C124 1.299 1_554 S
O131 Zn119 2.114 1_566 S
O131 C133 1.166 . S
O132 Zn117 1.905 . S
O132 C133 1.182 1_545 S
C133 O131 1.166 . S
C133 O132 1.182 1_565 S
O134 Zn119 2.080 . S
O134 C137 1.305 . S
O135 Zn118 1.920 . S
O135 C137 1.234 1_565 S
C136 O122 1.305 . S
C136 O123 1.234 . S
C137 O134 1.305 . S
C137 O135 1.234 1_545 S
Zn138 O144 1.920 . S
Zn138 O150 1.898 . S
Zn138 O153 1.905 . S
Zn139 O147 1.905 . S
Zn139 O148 1.898 . S
Zn139 O156 1.920 . S
Zn140 O143 2.080 . S
Zn140 O146 2.114 . S
Zn140 O149 2.120 . S
Zn140 O151 2.120 . S
Zn140 O152 2.114 . S
Zn140 O155 2.080 . S
C141 O146 1.166 . S
C141 O147 1.182 . S
C142 O148 1.167 . S
C142 O149 1.299 . S
O143 Zn140 2.080 . S
O143 C157 1.305 . S
O144 Zn138 1.920 . S
O144 C157 1.234 . S
C145 O150 1.167 . S
C145 O151 1.299 . S
O146 Zn140 2.114 . S
O146 C141 1.166 . S
O147 Zn139 1.905 . S
O147 C141 1.182 . S
O148 Zn139 1.898 . S
O148 C142 1.167 . S
O149 Zn140 2.120 . S
O149 C142 1.299 . S
O150 Zn138 1.898 . S
O150 C145 1.167 . S
O151 Zn140 2.120 . S
O151 C145 1.299 . S
O152 Zn140 2.114 . S
O152 C154 1.166 . S
O153 Zn138 1.905 . S
O153 C154 1.182 . S
C154 O152 1.166 . S
C154 O153 1.182 . S
O155 Zn140 2.080 . S
O155 C158 1.305 . S
O156 Zn139 1.920 . S
O156 C158 1.234 . S
C157 O143 1.305 . S
C157 O144 1.234 . S
C158 O155 1.305 . S
C158 O156 1.234 . S
Zn159 O165 1.920 . S
Zn159 O171 1.898 . S
Zn159 O174 1.905 . S
Zn160 O168 1.905 1_655 S
Zn160 O169 1.898 . S
Zn160 O177 1.920 . S
Zn161 O164 2.080 1_554 S
Zn161 O167 2.114 . S
Zn161 O170 2.120 1_454 S
Zn161 O172 2.120 . S
Zn161 O173 2.114 1_554 S
Zn161 O176 2.080 . S
C162 O167 1.166 . S
C162 O168 1.182 . S
C163 O169 1.167 1_556 S
C163 O170 1.299 . S
O164 Zn161 2.080 1_556 S
O164 C178 1.305 . S
O165 Zn159 1.920 . S
O165 C178 1.234 . S
C166 O171 1.167 1_554 S
C166 O172 1.299 . S
O167 Zn161 2.114 . S
O167 C162 1.166 . S
O168 Zn160 1.905 1_455 S
O168 C162 1.182 . S
O169 Zn160 1.898 . S
O169 C163 1.167 1_554 S
O170 Zn161 2.120 1_656 S
O170 C163 1.299 . S
O171 Zn159 1.898 . S
O171 C166 1.167 1_556 S
O172 Zn161 2.120 . S
O172 C166 1.299 . S
O173 Zn161 2.114 1_556 S
O173 C175 1.166 . S
O174 Zn159 1.905 . S
O174 C175 1.182 . S
C175 O173 1.166 . S
C175 O174 1.182 . S
O176 Zn161 2.080 . S
O176 C179 1.317 . S
O177 Zn160 1.920 . S
O177 C179 1.226 1_655 S
C178 O164 1.305 . S
C178 O165 1.234 . S
C179 O176 1.317 . S
C179 O177 1.226 1_455 S
C180 C181 1.391 . S
C180 C182 1.394 . S
C180 H196 0.931 . S
C181 C180 1.391 . S
C181 C185 1.376 . S
C182 C180 1.394 . S
C182 C183 1.369 . S
C182 C186 1.531 . S
C183 C182 1.369 . S
C183 C184 1.410 . S
C183 C191 1.503 . S
C184 C183 1.410 . S
C184 C185 1.392 . S
C184 C187 1.511 . S
C185 C181 1.376 . S
C185 C184 1.392 . S
C185 H197 0.929 . S
C186 C182 1.531 . S
C186 H198 0.960 . S
C186 H199 0.962 . S
C186 H200 0.960 . S
C187 C184 1.511 . S
C187 H201 0.961 . S
C187 H202 0.961 . S
C187 H203 0.961 . S
C188 C189 1.370 . S
C188 C190 1.363 . S
C188 H204 0.931 . S
C189 C188 1.370 . S
C189 C193 1.408 . S
C190 C188 1.363 . S
C190 C191 1.370 . S
C190 C194 1.524 . S
C191 C183 1.503 . S
C191 C190 1.370 . S
C191 C192 1.403 . S
C192 C191 1.403 . S
C192 C193 1.404 . S
C192 C195 1.539 . S
C193 C189 1.408 . S
C193 C192 1.404 . S
C193 H205 0.930 . S
C194 C190 1.524 . S
C194 H206 0.956 . S
C194 H207 0.961 . S
C194 H208 0.961 . S
C195 C192 1.539 . S
C195 H209 0.958 . S
C195 H210 0.961 . S
C195 H211 0.960 . S
H196 C180 0.931 . S
H197 C185 0.929 . S
H198 C186 0.960 . S
H199 C186 0.962 . S
H200 C186 0.960 . S
H201 C187 0.961 . S
H202 C187 0.961 . S
H203 C187 0.961 . S
H204 C188 0.931 . S
H205 C193 0.930 . S
H206 C194 0.956 . S
H207 C194 0.961 . S
H208 C194 0.961 . S
H209 C195 0.958 . S
H210 C195 0.961 . S
H211 C195 0.960 . S
C212 C213 1.391 . S
C212 C214 1.394 . S
C212 H228 0.931 . S
C213 C212 1.391 . S
C213 C217 1.376 . S
C214 C212 1.394 . S
C214 C215 1.369 . S
C214 C218 1.531 . S
C215 C214 1.369 . S
C215 C216 1.410 . S
C215 C223 1.503 . S
C216 C215 1.410 . S
C216 C217 1.392 . S
C216 C219 1.511 . S
C217 C213 1.376 . S
C217 C216 1.392 . S
C217 H229 0.929 . S
C218 C214 1.531 . S
C218 H230 0.960 . S
C218 H231 0.962 . S
C218 H232 0.960 . S
C219 C216 1.511 . S
C219 H233 0.961 . S
C219 H234 0.961 . S
C219 H235 0.961 . S
C220 C221 1.370 . S
C220 C222 1.363 . S
C220 H236 0.931 . S
C221 C220 1.370 . S
C221 C225 1.408 . S
C222 C220 1.363 . S
C222 C223 1.370 . S
C222 C226 1.524 . S
C223 C215 1.503 . S
C223 C222 1.370 . S
C223 C224 1.403 . S
C224 C223 1.403 . S
C224 C225 1.404 . S
C224 C227 1.539 . S
C225 C221 1.408 . S
C225 C224 1.404 . S
C225 H237 0.930 . S
C226 C222 1.524 . S
C226 H238 0.956 . S
C226 H239 0.961 . S
C226 H240 0.961 . S
C227 C224 1.539 . S
C227 H241 0.958 . S
C227 H242 0.961 . S
C227 H243 0.960 . S
H228 C212 0.931 . S
H229 C217 0.929 . S
H230 C218 0.960 . S
H231 C218 0.962 . S
H232 C218 0.960 . S
H233 C219 0.961 . S
H234 C219 0.961 . S
H235 C219 0.961 . S
H236 C220 0.931 . S
H237 C225 0.930 . S
H238 C226 0.956 . S
H239 C226 0.961 . S
H240 C226 0.961 . S
H241 C227 0.958 . S
H242 C227 0.961 . S
H243 C227 0.960 . S
C244 C245 1.391 . S
C244 C246 1.394 . S
C244 H260 0.931 . S
C245 C244 1.391 . S
C245 C249 1.376 . S
C246 C244 1.394 . S
C246 C247 1.369 . S
C246 C250 1.531 . S
C247 C246 1.369 . S
C247 C248 1.410 . S
C247 C255 1.503 . S
C248 C247 1.410 . S
C248 C249 1.392 . S
C248 C251 1.511 . S
C249 C245 1.376 . S
C249 C248 1.392 . S
C249 H261 0.929 . S
C250 C246 1.531 . S
C250 H262 0.960 . S
C250 H263 0.962 . S
C250 H264 0.960 . S
C251 C248 1.511 . S
C251 H265 0.961 . S
C251 H266 0.961 . S
C251 H267 0.961 . S
C252 C253 1.370 . S
C252 C254 1.363 . S
C252 H268 0.931 . S
C253 C252 1.370 . S
C253 C257 1.408 . S
C254 C252 1.363 . S
C254 C255 1.370 . S
C254 C258 1.524 . S
C255 C247 1.503 . S
C255 C254 1.370 . S
C255 C256 1.403 . S
C256 C255 1.403 . S
C256 C257 1.404 . S
C256 C259 1.539 . S
C257 C253 1.408 . S
C257 C256 1.404 . S
C257 H269 0.930 . S
C258 C254 1.524 . S
C258 H270 0.956 . S
C258 H271 0.961 . S
C258 H272 0.961 . S
C259 C256 1.539 . S
C259 H273 0.958 . S
C259 H274 0.961 . S
C259 H275 0.960 . S
H260 C244 0.931 . S
H261 C249 0.929 . S
H262 C250 0.960 . S
H263 C250 0.962 . S
H264 C250 0.960 . S
H265 C251 0.961 . S
H266 C251 0.961 . S
H267 C251 0.961 . S
H268 C252 0.931 . S
H269 C257 0.930 . S
H270 C258 0.956 . S
H271 C258 0.961 . S
H272 C258 0.961 . S
H273 C259 0.958 . S
H274 C259 0.961 . S
H275 C259 0.960 . S
C276 C277 1.391 . S
C276 C278 1.394 . S
C276 H292 0.931 . S
C277 C276 1.391 . S
C277 C281 1.376 . S
C278 C276 1.394 . S
C278 C279 1.369 . S
C278 C282 1.531 . S
C279 C278 1.369 . S
C279 C280 1.410 . S
C279 C287 1.503 . S
C280 C279 1.410 . S
C280 C281 1.392 . S
C280 C283 1.511 1_655 S
C281 C277 1.376 . S
C281 C280 1.392 . S
C281 H293 0.929 . S
C282 C278 1.531 . S
C282 H294 0.960 . S
C282 H295 0.962 . S
C282 H296 0.960 . S
C283 C280 1.511 1_455 S
C283 H297 0.961 . S
C283 H298 0.961 . S
C283 H299 0.961 . S
C284 C285 1.370 . S
C284 C286 1.363 . S
C284 H300 0.931 . S
C285 C284 1.370 . S
C285 C289 1.408 1_655 S
C286 C284 1.363 . S
C286 C287 1.370 . S
C286 C290 1.524 . S
C287 C279 1.503 . S
C287 C286 1.370 . S
C287 C288 1.403 . S
C288 C287 1.403 . S
C288 C289 1.404 1_655 S
C288 C291 1.539 . S
C289 C285 1.408 1_455 S
C289 C288 1.404 1_455 S
C289 H301 0.930 . S
C290 C286 1.524 . S
C290 H302 0.956 . S
C290 H303 0.961 . S
C290 H304 0.961 . S
C291 C288 1.539 . S
C291 H305 0.958 . S
C291 H306 0.961 1_655 S
C291 H307 0.960 . S
H292 C276 0.931 . S
H293 C281 0.929 . S
H294 C282 0.960 . S
H295 C282 0.962 . S
H296 C282 0.960 . S
H297 C283 0.961 . S
H298 C283 0.961 . S
H299 C283 0.961 . S
H300 C284 0.931 . S
H301 C289 0.930 . S
H302 C290 0.956 . S
H303 C290 0.961 . S
H304 C290 0.961 . S
H305 C291 0.958 . S
H306 C291 0.961 1_455 S
H307 C291 0.960 . S
C308 C309 1.391 . S
C308 C310 1.394 . S
C308 H324 0.931 . S
C309 C308 1.391 . S
C309 C313 1.376 . S
C310 C308 1.394 . S
C310 C311 1.369 . S
C310 C314 1.531 . S
C311 C310 1.369 . S
C311 C312 1.410 . S
C311 C319 1.503 . S
C312 C311 1.410 . S
C312 C313 1.392 . S
C312 C315 1.511 . S
C313 C309 1.376 . S
C313 C312 1.392 . S
C313 H325 0.929 . S
C314 C310 1.531 . S
C314 H326 0.960 . S
C314 H327 0.962 . S
C314 H328 0.960 . S
C315 C312 1.511 . S
C315 H329 0.961 . S
C315 H330 0.961 . S
C315 H331 0.961 . S
C316 C317 1.370 . S
C316 C318 1.363 . S
C316 H332 0.931 . S
C317 C316 1.370 . S
C317 C321 1.408 . S
C318 C316 1.363 . S
C318 C319 1.370 . S
C318 C322 1.524 . S
C319 C311 1.503 . S
C319 C318 1.370 . S
C319 C320 1.403 . S
C320 C319 1.403 . S
C320 C321 1.404 . S
C320 C323 1.539 . S
C321 C317 1.408 . S
C321 C320 1.404 . S
C321 H333 0.930 . S
C322 C318 1.524 . S
C322 H334 0.956 . S
C322 H335 0.961 . S
C322 H336 0.961 . S
C323 C320 1.539 . S
C323 H337 0.958 . S
C323 H338 0.961 . S
C323 H339 0.960 . S
H324 C308 0.931 . S
H325 C313 0.929 . S
H326 C314 0.960 . S
H327 C314 0.962 . S
H328 C314 0.960 . S
H329 C315 0.961 . S
H330 C315 0.961 . S
H331 C315 0.961 . S
H332 C316 0.931 . S
H333 C321 0.930 . S
H334 C322 0.956 . S
H335 C322 0.961 . S
H336 C322 0.961 . S
H337 C323 0.958 . S
H338 C323 0.961 . S
H339 C323 0.960 . S
C340 C341 1.391 . S
C340 C342 1.394 . S
C340 H356 0.931 . S
C341 C340 1.391 . S
C341 C345 1.376 . S
C342 C340 1.394 . S
C342 C343 1.369 . S
C342 C346 1.531 . S
C343 C342 1.369 . S
C343 C344 1.410 . S
C343 C351 1.503 . S
C344 C343 1.410 . S
C344 C345 1.392 . S
C344 C347 1.511 . S
C345 C341 1.376 . S
C345 C344 1.392 . S
C345 H357 0.929 . S
C346 C342 1.531 . S
C346 H358 0.960 . S
C346 H359 0.969 . S
C346 H360 0.960 . S
C347 C344 1.511 . S
C347 H361 0.961 . S
C347 H362 0.961 . S
C347 H363 0.961 . S
C348 C349 1.370 . S
C348 C350 1.363 . S
C348 H364 0.931 . S
C349 C348 1.370 . S
C349 C353 1.408 . S
C350 C348 1.363 . S
C350 C351 1.370 . S
C350 C354 1.524 . S
C351 C343 1.503 . S
C351 C350 1.370 . S
C351 C352 1.403 . S
C352 C351 1.403 . S
C352 C353 1.404 . S
C352 C355 1.539 . S
C353 C349 1.408 . S
C353 C352 1.404 . S
C353 H365 0.930 . S
C354 C350 1.524 . S
C354 H366 0.956 . S
C354 H367 0.961 . S
C354 H368 0.961 . S
C355 C352 1.539 . S
C355 H369 0.958 . S
C355 H370 0.961 . S
C355 H371 0.960 . S
H356 C340 0.931 . S
H357 C345 0.929 . S
H358 C346 0.960 . S
H359 C346 0.969 . S
H360 C346 0.960 . S
H361 C347 0.961 . S
H362 C347 0.961 . S
H363 C347 0.961 . S
H364 C348 0.931 . S
H365 C353 0.930 . S
H366 C354 0.956 . S
H367 C354 0.961 . S
H368 C354 0.961 . S
H369 C355 0.958 . S
H370 C355 0.961 . S
H371 C355 0.960 . S
C372 C373 1.391 . S
C372 C374 1.394 . S
C372 H388 0.931 . S
C373 C372 1.391 . S
C373 C377 1.376 . S
C374 C372 1.394 . S
C374 C375 1.369 . S
C374 C378 1.531 . S
C375 C374 1.369 . S
C375 C376 1.410 . S
C375 C383 1.503 . S
C376 C375 1.410 . S
C376 C377 1.392 . S
C376 C379 1.511 . S
C377 C373 1.376 . S
C377 C376 1.392 . S
C377 H389 0.929 . S
C378 C374 1.531 . S
C378 H390 0.960 . S
C378 H391 0.962 . S
C378 H392 0.960 . S
C379 C376 1.511 . S
C379 H393 0.961 . S
C379 H394 0.961 . S
C379 H395 0.961 . S
C380 C381 1.370 . S
C380 C382 1.363 . S
C380 H396 0.931 . S
C381 C380 1.370 . S
C381 C385 1.408 . S
C382 C380 1.363 . S
C382 C383 1.370 . S
C382 C386 1.524 . S
C383 C375 1.503 . S
C383 C382 1.370 . S
C383 C384 1.403 . S
C384 C383 1.403 . S
C384 C385 1.404 . S
C384 C387 1.539 . S
C385 C381 1.408 . S
C385 C384 1.404 . S
C385 H397 0.930 . S
C386 C382 1.524 . S
C386 H398 0.956 . S
C386 H399 0.961 . S
C386 H400 0.961 . S
C387 C384 1.539 . S
C387 H401 0.958 . S
C387 H402 0.961 . S
C387 H403 0.960 . S
H388 C372 0.931 . S
H389 C377 0.929 . S
H390 C378 0.960 . S
H391 C378 0.962 . S
H392 C378 0.960 . S
H393 C379 0.961 . S
H394 C379 0.961 . S
H395 C379 0.961 . S
H396 C380 0.931 . S
H397 C385 0.930 . S
H398 C386 0.956 . S
H399 C386 0.961 . S
H400 C386 0.961 . S
H401 C387 0.958 . S
H402 C387 0.961 . S
H403 C387 0.960 . S
C404 C405 1.391 . S
C404 C406 1.394 . S
C404 H420 0.931 . S
C405 C404 1.391 . S
C405 C409 1.376 . S
C406 C404 1.394 . S
C406 C407 1.369 . S
C406 C410 1.531 . S
C407 C406 1.369 . S
C407 C408 1.410 . S
C407 C415 1.503 . S
C408 C407 1.410 . S
C408 C409 1.392 . S
C408 C411 1.511 . S
C409 C405 1.376 . S
C409 C408 1.392 . S
C409 H421 0.929 . S
C410 C406 1.531 . S
C410 H422 0.960 . S
C410 H423 0.962 . S
C410 H424 0.960 . S
C411 C408 1.511 . S
C411 H425 0.961 . S
C411 H426 0.961 . S
C411 H427 0.961 . S
C412 C413 1.370 . S
C412 C414 1.363 . S
C412 H428 0.931 . S
C413 C412 1.370 . S
C413 C417 1.408 . S
C414 C412 1.363 . S
C414 C415 1.370 . S
C414 C418 1.524 . S
C415 C407 1.503 . S
C415 C414 1.370 . S
C415 C416 1.403 . S
C416 C415 1.403 . S
C416 C417 1.404 . S
C416 C419 1.539 . S
C417 C413 1.408 . S
C417 C416 1.404 . S
C417 H429 0.930 . S
C418 C414 1.524 . S
C418 H430 0.956 . S
C418 H431 0.961 . S
C418 H432 0.961 . S
C419 C416 1.539 . S
C419 H433 0.958 . S
C419 H434 0.961 . S
C419 H435 0.960 . S
H420 C404 0.931 . S
H421 C409 0.929 . S
H422 C410 0.960 . S
H423 C410 0.962 . S
H424 C410 0.960 . S
H425 C411 0.961 . S
H426 C411 0.961 . S
H427 C411 0.961 . S
H428 C412 0.931 . S
H429 C417 0.930 . S
H430 C418 0.956 . S
H431 C418 0.961 . S
H432 C418 0.961 . S
H433 C419 0.958 . S
H434 C419 0.961 . S
H435 C419 0.960 . S
C436 C437 1.391 . S
C436 C438 1.394 . S
C436 H452 0.931 . S
C437 C436 1.391 . S
C437 C441 1.376 . S
C438 C436 1.394 . S
C438 C439 1.369 . S
C438 C442 1.531 . S
C439 C438 1.369 . S
C439 C440 1.410 . S
C439 C447 1.503 . S
C440 C439 1.410 . S
C440 C441 1.392 . S
C440 C443 1.511 . S
C441 C437 1.376 . S
C441 C440 1.392 . S
C441 H453 0.929 . S
C442 C438 1.531 . S
C442 H454 0.960 . S
C442 H455 0.962 . S
C442 H456 0.960 . S
C443 C440 1.511 . S
C443 H457 0.961 . S
C443 H458 0.961 . S
C443 H459 0.961 . S
C444 C445 1.370 . S
C444 C446 1.363 . S
C444 H460 0.931 . S
C445 C444 1.370 . S
C445 C449 1.408 . S
C446 C444 1.363 . S
C446 C447 1.370 . S
C446 C450 1.524 . S
C447 C439 1.503 . S
C447 C446 1.370 . S
C447 C448 1.403 . S
C448 C447 1.403 . S
C448 C449 1.404 . S
C448 C451 1.539 . S
C449 C445 1.408 . S
C449 C448 1.404 . S
C449 H461 0.930 . S
C450 C446 1.524 . S
C450 H462 0.956 . S
C450 H463 0.961 . S
C450 H464 0.961 . S
C451 C448 1.539 . S
C451 H465 0.958 . S
C451 H466 0.961 . S
C451 H467 0.960 . S
H452 C436 0.931 . S
H453 C441 0.929 . S
H454 C442 0.960 . S
H455 C442 0.962 . S
H456 C442 0.960 . S
H457 C443 0.961 . S
H458 C443 0.961 . S
H459 C443 0.961 . S
H460 C444 0.931 . S
H461 C449 0.930 . S
H462 C450 0.956 . S
H463 C450 0.961 . S
H464 C450 0.961 . S
H465 C451 0.958 . S
H466 C451 0.961 . S
H467 C451 0.960 . S
C468 C469 1.391 . S
C468 C470 1.394 . S
C468 H484 0.931 . S
C469 C468 1.391 . S
C469 C473 1.376 . S
C470 C468 1.394 . S
C470 C471 1.369 . S
C470 C474 1.531 . S
C471 C470 1.369 . S
C471 C472 1.410 . S
C471 C479 1.503 . S
C472 C471 1.410 . S
C472 C473 1.392 . S
C472 C475 1.511 . S
C473 C469 1.376 . S
C473 C472 1.392 . S
C473 H485 0.929 . S
C474 C470 1.531 . S
C474 H486 0.960 . S
C474 H487 0.962 . S
C474 H488 0.960 . S
C475 C472 1.511 . S
C475 H489 0.961 . S
C475 H490 0.961 . S
C475 H491 0.961 . S
C476 C477 1.370 . S
C476 C478 1.363 . S
C476 H492 0.931 . S
C477 C476 1.370 . S
C477 C481 1.408 . S
C478 C476 1.363 . S
C478 C479 1.370 . S
C478 C482 1.524 . S
C479 C471 1.503 . S
C479 C478 1.370 . S
C479 C480 1.403 . S
C480 C479 1.403 . S
C480 C481 1.404 . S
C480 C483 1.539 1_556 S
C481 C477 1.408 . S
C481 C480 1.404 . S
C481 H493 0.930 1_556 S
C482 C478 1.524 . S
C482 H494 0.956 . S
C482 H495 0.961 . S
C482 H496 0.961 . S
C483 C480 1.539 1_554 S
C483 H497 0.958 . S
C483 H498 0.961 . S
C483 H499 0.960 1_554 S
H484 C468 0.931 . S
H485 C473 0.929 . S
H486 C474 0.960 . S
H487 C474 0.962 . S
H488 C474 0.960 . S
H489 C475 0.961 . S
H490 C475 0.961 . S
H491 C475 0.961 . S
H492 C476 0.931 . S
H493 C481 0.930 1_554 S
H494 C482 0.956 . S
H495 C482 0.961 . S
H496 C482 0.961 . S
H497 C483 0.958 . S
H498 C483 0.961 . S
H499 C483 0.960 1_556 S
C500 C501 1.391 . S
C500 C502 1.394 . S
C500 H516 0.931 . S
C501 C500 1.391 . S
C501 C505 1.376 . S
C502 C500 1.394 . S
C502 C503 1.369 . S
C502 C506 1.531 . S
C503 C502 1.369 . S
C503 C504 1.410 . S
C503 C511 1.503 . S
C504 C503 1.410 . S
C504 C505 1.392 . S
C504 C507 1.511 . S
C505 C501 1.376 . S
C505 C504 1.392 . S
C505 H517 0.929 . S
C506 C502 1.531 . S
C506 H518 0.960 . S
C506 H519 0.962 . S
C506 H520 0.960 . S
C507 C504 1.511 . S
C507 H521 0.961 . S
C507 H522 0.961 . S
C507 H523 0.961 . S
C508 C509 1.370 . S
C508 C510 1.363 . S
C508 H524 0.931 . S
C509 C508 1.370 . S
C509 C513 1.408 . S
C510 C508 1.363 . S
C510 C511 1.370 . S
C510 C514 1.524 . S
C511 C503 1.503 . S
C511 C510 1.370 . S
C511 C512 1.403 . S
C512 C511 1.403 . S
C512 C513 1.404 . S
C512 C515 1.539 . S
C513 C509 1.408 . S
C513 C512 1.404 . S
C513 H525 0.930 . S
C514 C510 1.524 . S
C514 H526 0.956 . S
C514 H527 0.961 . S
C514 H528 0.961 . S
C515 C512 1.539 . S
C515 H529 0.958 . S
C515 H530 0.961 . S
C515 H531 0.960 . S
H516 C500 0.931 . S
H517 C505 0.929 . S
H518 C506 0.960 . S
H519 C506 0.962 . S
H520 C506 0.960 . S
H521 C507 0.961 . S
H522 C507 0.961 . S
H523 C507 0.961 . S
H524 C508 0.931 . S
H525 C513 0.930 . S
H526 C514 0.956 . S
H527 C514 0.961 . S
H528 C514 0.961 . S
H529 C515 0.958 . S
H530 C515 0.961 . S
H531 C515 0.960 . S
C532 C533 1.391 . S
C532 C534 1.394 . S
C532 H548 0.931 . S
C533 C532 1.391 . S
C533 C537 1.376 . S
C534 C532 1.394 . S
C534 C535 1.369 . S
C534 C538 1.531 . S
C535 C534 1.369 . S
C535 C536 1.410 . S
C535 C543 1.503 . S
C536 C535 1.410 . S
C536 C537 1.392 . S
C536 C539 1.511 . S
C537 C533 1.376 . S
C537 C536 1.392 . S
C537 H549 0.929 . S
C538 C534 1.531 . S
C538 H550 0.960 . S
C538 H551 0.962 . S
C538 H552 0.960 . S
C539 C536 1.511 . S
C539 H553 0.961 . S
C539 H554 0.961 . S
C539 H555 0.961 . S
C540 C541 1.370 . S
C540 C542 1.363 . S
C540 H556 0.931 . S
C541 C540 1.370 . S
C541 C545 1.408 . S
C542 C540 1.363 . S
C542 C543 1.370 . S
C542 C546 1.524 . S
C543 C535 1.503 . S
C543 C542 1.370 . S
C543 C544 1.403 . S
C544 C543 1.403 . S
C544 C545 1.404 . S
C544 C547 1.539 . S
C545 C541 1.408 . S
C545 C544 1.404 . S
C545 H557 0.930 . S
C546 C542 1.524 . S
C546 H558 0.956 . S
C546 H559 0.961 . S
C546 H560 0.961 . S
C547 C544 1.539 . S
C547 H561 0.958 . S
C547 H562 0.961 . S
C547 H563 0.960 . S
H548 C532 0.931 . S
H549 C537 0.929 . S
H550 C538 0.960 . S
H551 C538 0.962 . S
H552 C538 0.960 . S
H553 C539 0.961 . S
H554 C539 0.961 . S
H555 C539 0.961 . S
H556 C540 0.931 . S
H557 C545 0.930 . S
H558 C546 0.956 . S
H559 C546 0.961 . S
H560 C546 0.961 . S
H561 C547 0.958 . S
H562 C547 0.961 . S
H563 C547 0.960 . S
C564 C565 1.391 1_545 S
C564 C566 1.394 . S
C564 H580 0.931 . S
C565 C564 1.391 1_565 S
C565 C569 1.376 . S
C566 C564 1.394 . S
C566 C567 1.369 1_545 S
C566 C570 1.531 . S
C567 C566 1.369 1_565 S
C567 C568 1.410 1_655 S
C567 C575 1.503 . S
C568 C567 1.410 1_455 S
C568 C569 1.392 1_455 S
C568 C571 1.511 . S
C569 C565 1.376 . S
C569 C568 1.392 1_655 S
C569 H581 0.929 1_655 S
C570 C566 1.531 . S
C570 H582 0.960 . S
C570 H583 0.962 . S
C570 H584 0.960 . S
C571 C568 1.511 . S
C571 H585 0.961 . S
C571 H586 0.961 . S
C571 H587 0.961 . S
C572 C573 1.370 1_565 S
C572 C574 1.363 . S
C572 H588 0.931 . S
C573 C572 1.370 1_545 S
C573 C577 1.408 1_655 S
C574 C572 1.363 . S
C574 C575 1.370 . S
C574 C578 1.524 . S
C575 C567 1.503 . S
C575 C574 1.370 . S
C575 C576 1.403 1_665 S
C576 C575 1.403 1_445 S
C576 C577 1.404 . S
C576 C579 1.539 . S
C577 C573 1.408 1_455 S
C577 C576 1.404 . S
C577 H589 0.930 . S
C578 C574 1.524 . S
C578 H590 0.956 . S
C578 H591 0.961 . S
C578 H592 0.961 . S
C579 C576 1.539 . S
C579 H593 0.958 . S
C579 H594 0.961 . S
C579 H595 0.960 . S
H580 C564 0.931 . S
H581 C569 0.929 1_455 S
H582 C570 0.960 . S
H583 C570 0.962 . S
H584 C570 0.960 . S
H585 C571 0.961 . S
H586 C571 0.961 . S
H587 C571 0.961 . S
H588 C572 0.931 . S
H589 C577 0.930 . S
H590 C578 0.956 . S
H591 C578 0.961 . S
H592 C578 0.961 . S
H593 C579 0.958 . S
H594 C579 0.961 . S
H595 C579 0.960 . S
C596 C597 1.391 . S
C596 C598 1.394 . S
C596 H612 0.931 . S
C597 C596 1.391 . S
C597 C601 1.376 . S
C598 C596 1.394 . S
C598 C599 1.369 . S
C598 C602 1.531 . S
C599 C598 1.369 . S
C599 C600 1.410 . S
C599 C607 1.503 . S
C600 C599 1.410 . S
C600 C601 1.392 . S
C600 C603 1.511 . S
C601 C597 1.376 . S
C601 C600 1.392 . S
C601 H613 0.929 . S
C602 C598 1.531 . S
C602 H614 0.960 . S
C602 H615 0.962 . S
C602 H616 0.960 . S
C603 C600 1.511 . S
C603 H617 0.961 . S
C603 H618 0.961 . S
C603 H619 0.961 . S
C604 C605 1.370 . S
C604 C606 1.363 . S
C604 H620 0.931 1_545 S
C605 C604 1.370 . S
C605 C609 1.408 . S
C606 C604 1.363 . S
C606 C607 1.370 . S
C606 C610 1.524 1_545 S
C607 C599 1.503 . S
C607 C606 1.370 . S
C607 C608 1.403 . S
C608 C607 1.403 . S
C608 C609 1.404 . S
C608 C611 1.539 . S
C609 C605 1.408 . S
C609 C608 1.404 . S
C609 H621 0.930 . S
C610 C606 1.524 1_565 S
C610 H622 0.956 . S
C610 H623 0.961 . S
C610 H624 0.961 . S
C611 C608 1.539 . S
C611 H625 0.958 . S
C611 H626 0.961 . S
C611 H627 0.960 . S
H612 C596 0.931 . S
H613 C601 0.929 . S
H614 C602 0.960 . S
H615 C602 0.962 . S
H616 C602 0.960 . S
H617 C603 0.961 . S
H618 C603 0.961 . S
H619 C603 0.961 . S
H620 C604 0.931 1_565 S
H621 C609 0.930 . S
H622 C610 0.956 . S
H623 C610 0.961 . S
H624 C610 0.961 . S
H625 C611 0.958 . S
H626 C611 0.961 . S
H627 C611 0.960 . S
C628 C629 1.391 . S
C628 C630 1.394 . S
C628 H644 0.931 . S
C629 C628 1.391 . S
C629 C633 1.376 . S
C630 C628 1.394 . S
C630 C631 1.369 . S
C630 C634 1.531 . S
C631 C630 1.369 . S
C631 C632 1.410 . S
C631 C639 1.503 . S
C632 C631 1.410 . S
C632 C633 1.392 . S
C632 C635 1.511 . S
C633 C629 1.376 . S
C633 C632 1.392 . S
C633 H645 0.929 . S
C634 C630 1.531 . S
C634 H646 0.960 . S
C634 H647 0.962 . S
C634 H648 0.960 . S
C635 C632 1.511 . S
C635 H649 0.961 . S
C635 H650 0.961 . S
C635 H651 0.961 . S
C636 C637 1.370 . S
C636 C638 1.363 . S
C636 H652 0.931 . S
C637 C636 1.370 . S
C637 C641 1.408 . S
C638 C636 1.363 . S
C638 C639 1.370 . S
C638 C642 1.524 . S
C639 C631 1.503 . S
C639 C638 1.370 . S
C639 C640 1.403 . S
C640 C639 1.403 . S
C640 C641 1.404 . S
C640 C643 1.539 . S
C641 C637 1.408 . S
C641 C640 1.404 . S
C641 H653 0.930 . S
C642 C638 1.524 . S
C642 H654 0.956 . S
C642 H655 0.961 . S
C642 H656 0.961 . S
C643 C640 1.539 . S
C643 H657 0.958 . S
C643 H658 0.961 . S
C643 H659 0.960 . S
H644 C628 0.931 . S
H645 C633 0.929 . S
H646 C634 0.960 . S
H647 C634 0.962 . S
H648 C634 0.960 . S
H649 C635 0.961 . S
H650 C635 0.961 . S
H651 C635 0.961 . S
H652 C636 0.931 . S
H653 C641 0.930 . S
H654 C642 0.956 . S
H655 C642 0.961 . S
H656 C642 0.961 . S
H657 C643 0.958 . S
H658 C643 0.961 . S
H659 C643 0.960 . S
C660 C661 1.391 . S
C660 C662 1.394 . S
C660 H676 0.931 . S
C661 C660 1.391 . S
C661 C665 1.376 . S
C662 C660 1.394 . S
C662 C663 1.369 . S
C662 C666 1.531 . S
C663 C662 1.369 . S
C663 C664 1.410 . S
C663 C671 1.503 . S
C664 C663 1.410 . S
C664 C665 1.392 . S
C664 C667 1.511 . S
C665 C661 1.376 . S
C665 C664 1.392 . S
C665 H677 0.929 . S
C666 C662 1.531 . S
C666 H678 0.960 . S
C666 H679 0.962 . S
C666 H680 0.960 . S
C667 C664 1.511 . S
C667 H681 0.961 1_455 S
C667 H682 0.961 . S
C667 H683 0.961 . S
C668 C669 1.370 . S
C668 C670 1.363 . S
C668 H684 0.931 . S
C669 C668 1.370 . S
C669 C673 1.408 . S
C670 C668 1.363 . S
C670 C671 1.370 . S
C670 C674 1.524 . S
C671 C663 1.503 . S
C671 C670 1.370 . S
C671 C672 1.403 . S
C672 C671 1.403 . S
C672 C673 1.404 . S
C672 C675 1.539 . S
C673 C669 1.408 . S
C673 C672 1.404 . S
C673 H685 0.930 . S
C674 C670 1.524 . S
C674 H686 0.956 . S
C674 H687 0.961 . S
C674 H688 0.961 . S
C675 C672 1.539 . S
C675 H689 0.958 . S
C675 H690 0.961 . S
C675 H691 0.960 . S
H676 C660 0.931 . S
H677 C665 0.929 . S
H678 C666 0.960 . S
H679 C666 0.962 . S
H680 C666 0.960 . S
H681 C667 0.961 1_655 S
H682 C667 0.961 . S
H683 C667 0.961 . S
H684 C668 0.931 . S
H685 C673 0.930 . S
H686 C674 0.956 . S
H687 C674 0.961 . S
H688 C674 0.961 . S
H689 C675 0.958 . S
H690 C675 0.961 . S
H691 C675 0.960 . S
C692 C693 1.391 . S
C692 C694 1.394 . S
C692 H708 0.931 . S
C693 C692 1.391 . S
C693 C697 1.376 1_565 S
C694 C692 1.394 . S
C694 C695 1.369 . S
C694 C698 1.531 . S
C695 C694 1.369 . S
C695 C696 1.410 1_565 S
C695 C703 1.503 . S
C696 C695 1.410 1_545 S
C696 C697 1.392 . S
C696 C699 1.511 1_556 S
C697 C693 1.376 1_545 S
C697 C696 1.392 . S
C697 H709 0.931 1_556 S
C698 C694 1.531 . S
C698 H710 0.960 . S
C698 H711 0.962 . S
C698 H712 0.960 . S
C699 C696 1.511 1_554 S
C699 H713 0.961 . S
C699 H714 0.961 . S
C699 H715 0.961 . S
C700 C701 1.370 1_546 S
C700 C702 1.363 . S
C700 H716 0.931 . S
C701 C700 1.370 1_564 S
C701 C705 1.408 . S
C702 C700 1.363 . S
C702 C703 1.370 1_545 S
C702 C706 1.524 . S
C703 C695 1.503 . S
C703 C702 1.370 1_565 S
C703 C704 1.403 1_556 S
C704 C703 1.403 1_554 S
C704 C705 1.404 . S
C704 C707 1.539 . S
C705 C701 1.408 . S
C705 C704 1.404 . S
C705 H717 0.930 . S
C706 C702 1.524 . S
C706 H718 0.956 . S
C706 H719 0.961 . S
C706 H720 0.961 . S
C707 C704 1.539 . S
C707 H721 0.958 . S
C707 H722 0.961 . S
C707 H723 0.960 . S
H708 C692 0.931 . S
H709 C697 0.931 1_554 S
H710 C698 0.960 . S
H711 C698 0.962 . S
H712 C698 0.960 . S
H713 C699 0.961 . S
H714 C699 0.961 . S
H715 C699 0.961 . S
H716 C700 0.931 . S
H717 C705 0.930 . S
H718 C706 0.956 . S
H719 C706 0.961 . S
H720 C706 0.961 . S
H721 C707 0.958 . S
H722 C707 0.961 . S
H723 C707 0.960 . S
C724 C725 1.391 . S
C724 C726 1.394 . S
C724 H740 0.931 . S
C725 C724 1.391 . S
C725 C729 1.376 . S
C726 C724 1.394 . S
C726 C727 1.369 . S
C726 C730 1.531 . S
C727 C726 1.369 . S
C727 C728 1.410 . S
C727 C735 1.503 . S
C728 C727 1.410 . S
C728 C729 1.392 . S
C728 C731 1.511 1_545 S
C729 C725 1.376 . S
C729 C728 1.392 . S
C729 H741 0.929 . S
C730 C726 1.531 . S
C730 H742 0.960 . S
C730 H743 0.962 . S
C730 H744 0.960 . S
C731 C728 1.511 1_565 S
C731 H745 0.961 . S
C731 H746 0.961 . S
C731 H747 0.961 . S
C732 C733 1.370 . S
C732 C734 1.363 . S
C732 H748 0.931 . S
C733 C732 1.370 . S
C733 C737 1.408 . S
C734 C732 1.363 . S
C734 C735 1.370 . S
C734 C738 1.524 . S
C735 C727 1.503 . S
C735 C734 1.370 . S
C735 C736 1.403 . S
C736 C735 1.403 . S
C736 C737 1.404 . S
C736 C739 1.539 . S
C737 C733 1.408 . S
C737 C736 1.404 . S
C737 H749 0.930 . S
C738 C734 1.524 . S
C738 H750 0.956 . S
C738 H751 0.961 . S
C738 H752 0.961 . S
C739 C736 1.539 . S
C739 H753 0.958 . S
C739 H754 0.961 . S
C739 H755 0.960 . S
H740 C724 0.931 . S
H741 C729 0.929 . S
H742 C730 0.960 . S
H743 C730 0.962 . S
H744 C730 0.960 . S
H745 C731 0.961 . S
H746 C731 0.961 . S
H747 C731 0.961 . S
H748 C732 0.931 . S
H749 C737 0.930 . S
H750 C738 0.956 . S
H751 C738 0.961 . S
H752 C738 0.961 . S
H753 C739 0.958 . S
H754 C739 0.961 . S
H755 C739 0.960 . S
C756 C757 1.391 . S
C756 C758 1.394 . S
C756 H772 0.931 . S
C757 C756 1.391 . S
C757 C761 1.376 . S
C758 C756 1.394 . S
C758 C759 1.369 . S
C758 C762 1.531 . S
C759 C758 1.369 . S
C759 C760 1.410 . S
C759 C767 1.503 . S
C760 C759 1.410 . S
C760 C761 1.392 . S
C760 C763 1.511 1_554 S
C761 C757 1.376 . S
C761 C760 1.392 . S
C761 H773 0.929 . S
C762 C758 1.531 . S
C762 H774 0.960 . S
C762 H775 0.962 . S
C762 H776 0.960 . S
C763 C760 1.511 1_556 S
C763 H777 0.961 . S
C763 H778 0.961 . S
C763 H779 0.961 . S
C764 C765 1.370 . S
C764 C766 1.363 . S
C764 H780 0.931 . S
C765 C764 1.370 . S
C765 C769 1.408 . S
C766 C764 1.363 . S
C766 C767 1.370 . S
C766 C770 1.524 . S
C767 C759 1.503 . S
C767 C766 1.370 . S
C767 C768 1.403 . S
C768 C767 1.403 . S
C768 C769 1.404 . S
C768 C771 1.539 . S
C769 C765 1.408 . S
C769 C768 1.404 . S
C769 H781 0.930 . S
C770 C766 1.524 . S
C770 H782 0.956 . S
C770 H783 0.961 . S
C770 H784 0.961 . S
C771 C768 1.539 . S
C771 H785 0.958 . S
C771 H786 0.961 . S
C771 H787 0.960 . S
H772 C756 0.931 . S
H773 C761 0.929 . S
H774 C762 0.960 . S
H775 C762 0.962 . S
H776 C762 0.960 . S
H777 C763 0.961 . S
H778 C763 0.961 . S
H779 C763 0.961 . S
H780 C764 0.931 . S
H781 C769 0.930 . S
H782 C770 0.956 . S
H783 C770 0.961 . S
H784 C770 0.961 . S
H785 C771 0.958 . S
H786 C771 0.961 . S
H787 C771 0.960 . S
C788 C789 1.391 . S
C788 C790 1.394 . S
C788 H804 0.931 . S
C789 C788 1.391 . S
C789 C793 1.376 . S
C790 C788 1.394 . S
C790 C791 1.369 . S
C790 C794 1.531 . S
C791 C790 1.369 . S
C791 C792 1.410 . S
C791 C799 1.503 . S
C792 C791 1.410 . S
C792 C793 1.392 . S
C792 C795 1.511 . S
C793 C789 1.376 . S
C793 C792 1.392 . S
C793 H805 0.929 . S
C794 C790 1.531 . S
C794 H806 0.960 . S
C794 H807 0.962 . S
C794 H808 0.960 . S
C795 C792 1.511 . S
C795 H809 0.961 . S
C795 H810 0.961 . S
C795 H811 0.961 . S
C796 C797 1.370 . S
C796 C798 1.363 . S
C796 H812 0.931 . S
C797 C796 1.370 . S
C797 C801 1.408 . S
C798 C796 1.363 . S
C798 C799 1.370 . S
C798 C802 1.524 . S
C799 C791 1.503 . S
C799 C798 1.370 . S
C799 C800 1.403 . S
C800 C799 1.403 . S
C800 C801 1.404 . S
C800 C803 1.539 . S
C801 C797 1.408 . S
C801 C800 1.404 . S
C801 H813 0.930 . S
C802 C798 1.524 . S
C802 H814 0.956 . S
C802 H815 0.961 . S
C802 H816 0.961 . S
C803 C800 1.539 . S
C803 H817 0.958 . S
C803 H818 0.961 . S
C803 H819 0.960 . S
H804 C788 0.931 . S
H805 C793 0.929 . S
H806 C794 0.960 . S
H807 C794 0.962 . S
H808 C794 0.960 . S
H809 C795 0.961 . S
H810 C795 0.961 . S
H811 C795 0.961 . S
H812 C796 0.931 . S
H813 C801 0.930 . S
H814 C802 0.956 . S
H815 C802 0.961 . S
H816 C802 0.961 . S
H817 C803 0.958 . S
H818 C803 0.961 . S
H819 C803 0.960 . S
C820 C821 1.391 1_455 S
C820 C822 1.394 . S
C820 H836 0.932 1_556 S
C821 C820 1.391 1_655 S
C821 C825 1.376 . S
C822 C820 1.394 . S
C822 C823 1.369 . S
C822 C826 1.531 1_556 S
C823 C822 1.369 . S
C823 C824 1.410 1_455 S
C823 C831 1.503 . S
C824 C823 1.410 1_655 S
C824 C825 1.392 . S
C824 C827 1.511 . S
C825 C821 1.376 . S
C825 C824 1.392 . S
C825 H837 0.929 . S
C826 C822 1.531 1_554 S
C826 H838 0.960 . S
C826 H839 0.962 . S
C826 H840 0.960 . S
C827 C824 1.511 . S
C827 H841 0.961 . S
C827 H842 0.961 . S
C827 H843 0.961 . S
C828 C829 1.370 . S
C828 C830 1.363 . S
C828 H844 0.931 . S
C829 C828 1.370 . S
C829 C833 1.408 1_556 S
C830 C828 1.363 . S
C830 C831 1.370 . S
C830 C834 1.524 . S
C831 C823 1.503 . S
C831 C830 1.370 . S
C831 C832 1.403 1_556 S
C832 C831 1.403 1_554 S
C832 C833 1.404 . S
C832 C835 1.539 1_455 S
C833 C829 1.408 1_554 S
C833 C832 1.404 . S
C833 H845 0.930 1_455 S
C834 C830 1.524 . S
C834 H846 0.956 . S
C834 H847 0.961 . S
C834 H848 0.961 . S
C835 C832 1.539 1_655 S
C835 H849 0.958 . S
C835 H850 0.961 . S
C835 H851 0.960 . S
H836 C820 0.932 1_554 S
H837 C825 0.929 . S
H838 C826 0.960 . S
H839 C826 0.962 . S
H840 C826 0.960 . S
H841 C827 0.961 . S
H842 C827 0.961 . S
H843 C827 0.961 . S
H844 C828 0.931 . S
H845 C833 0.930 1_655 S
H846 C834 0.956 . S
H847 C834 0.961 . S
H848 C834 0.961 . S
H849 C835 0.958 . S
H850 C835 0.961 . S
H851 C835 0.960 . S
C852 C853 1.391 . S
C852 C854 1.394 . S
C852 H868 0.931 . S
C853 C852 1.391 . S
C853 C857 1.376 . S
C854 C852 1.394 . S
C854 C855 1.369 . S
C854 C858 1.531 . S
C855 C854 1.369 . S
C855 C856 1.410 . S
C855 C863 1.503 . S
C856 C855 1.410 . S
C856 C857 1.392 . S
C856 C859 1.511 . S
C857 C853 1.376 . S
C857 C856 1.392 . S
C857 H869 0.929 . S
C858 C854 1.531 . S
C858 H870 0.960 . S
C858 H871 0.962 . S
C858 H872 0.960 . S
C859 C856 1.511 . S
C859 H873 0.961 . S
C859 H874 0.961 . S
C859 H875 0.961 . S
C860 C861 1.370 . S
C860 C862 1.363 . S
C860 H876 0.931 . S
C861 C860 1.370 . S
C861 C865 1.408 . S
C862 C860 1.363 . S
C862 C863 1.370 . S
C862 C866 1.524 . S
C863 C855 1.503 . S
C863 C862 1.370 . S
C863 C864 1.403 . S
C864 C863 1.403 . S
C864 C865 1.404 . S
C864 C867 1.539 1_554 S
C865 C861 1.408 . S
C865 C864 1.404 . S
C865 H877 0.930 1_554 S
C866 C862 1.524 . S
C866 H878 0.956 . S
C866 H879 0.961 . S
C866 H880 0.961 . S
C867 C864 1.539 1_556 S
C867 H881 0.958 . S
C867 H882 0.961 . S
C867 H883 0.969 . S
H868 C852 0.931 . S
H869 C857 0.929 . S
H870 C858 0.960 . S
H871 C858 0.962 . S
H872 C858 0.960 . S
H873 C859 0.961 . S
H874 C859 0.961 . S
H875 C859 0.961 . S
H876 C860 0.931 . S
H877 C865 0.930 1_556 S
H878 C866 0.956 . S
H879 C866 0.961 . S
H880 C866 0.961 . S
H881 C867 0.958 . S
H882 C867 0.961 . S
H883 C867 0.969 . S
C884 C885 1.391 . S
C884 C886 1.394 . S
C884 H900 0.931 . S
C885 C884 1.391 . S
C885 C889 1.376 . S
C886 C884 1.394 . S
C886 C887 1.369 . S
C886 C890 1.531 . S
C887 C886 1.369 . S
C887 C888 1.410 . S
C887 C895 1.503 . S
C888 C887 1.410 . S
C888 C889 1.392 . S
C888 C891 1.511 . S
C889 C885 1.376 . S
C889 C888 1.392 . S
C889 H901 0.929 . S
C890 C886 1.531 . S
C890 H902 0.960 . S
C890 H903 0.962 1_455 S
C890 H904 0.960 . S
C891 C888 1.511 . S
C891 H905 0.961 . S
C891 H906 0.961 . S
C891 H907 0.961 . S
C892 C893 1.370 . S
C892 C894 1.363 . S
C892 H908 0.931 . S
C893 C892 1.370 . S
C893 C897 1.408 . S
C894 C892 1.363 . S
C894 C895 1.370 . S
C894 C898 1.524 . S
C895 C887 1.503 . S
C895 C894 1.370 . S
C895 C896 1.403 . S
C896 C895 1.403 . S
C896 C897 1.404 . S
C896 C899 1.539 . S
C897 C893 1.408 . S
C897 C896 1.404 . S
C897 H909 0.930 . S
C898 C894 1.524 . S
C898 H910 0.956 . S
C898 H911 0.961 . S
C898 H912 0.961 . S
C899 C896 1.539 . S
C899 H913 0.958 . S
C899 H914 0.961 . S
C899 H915 0.960 . S
H900 C884 0.931 . S
H901 C889 0.929 . S
H902 C890 0.960 . S
H903 C890 0.962 1_655 S
H904 C890 0.960 . S
H905 C891 0.961 . S
H906 C891 0.961 . S
H907 C891 0.961 . S
H908 C892 0.931 . S
H909 C897 0.930 . S
H910 C898 0.956 . S
H911 C898 0.961 . S
H912 C898 0.961 . S
H913 C899 0.958 . S
H914 C899 0.961 . S
H915 C899 0.960 . S
C916 C917 1.391 . S
C916 C918 1.394 . S
C916 H932 0.931 . S
C917 C916 1.391 . S
C917 C921 1.376 . S
C918 C916 1.394 . S
C918 C919 1.369 . S
C918 C922 1.531 . S
C919 C918 1.369 . S
C919 C920 1.410 . S
C919 C927 1.503 . S
C920 C919 1.410 . S
C920 C921 1.392 . S
C920 C923 1.511 . S
C921 C917 1.376 . S
C921 C920 1.392 . S
C921 H933 0.929 . S
C922 C918 1.531 . S
C922 H934 0.960 . S
C922 H935 0.962 . S
C922 H936 0.960 . S
C923 C920 1.511 . S
C923 H937 0.961 . S
C923 H938 0.961 . S
C923 H939 0.961 . S
C924 C925 1.370 . S
C924 C926 1.363 . S
C924 H940 0.931 . S
C925 C924 1.370 . S
C925 C929 1.408 . S
C926 C924 1.363 . S
C926 C927 1.370 . S
C926 C930 1.524 . S
C927 C919 1.503 . S
C927 C926 1.370 . S
C927 C928 1.403 . S
C928 C927 1.403 . S
C928 C929 1.404 . S
C928 C931 1.539 . S
C929 C925 1.408 . S
C929 C928 1.404 . S
C929 H941 0.930 . S
C930 C926 1.524 . S
C930 H942 0.956 . S
C930 H943 0.961 . S
C930 H944 0.961 . S
C931 C928 1.539 . S
C931 H945 0.958 . S
C931 H946 0.961 . S
C931 H947 0.960 . S
H932 C916 0.931 . S
H933 C921 0.929 . S
H934 C922 0.960 . S
H935 C922 0.962 . S
H936 C922 0.960 . S
H937 C923 0.961 . S
H938 C923 0.961 . S
H939 C923 0.961 . S
H940 C924 0.931 . S
H941 C929 0.930 . S
H942 C930 0.956 . S
H943 C930 0.961 . S
H944 C930 0.961 . S
H945 C931 0.958 . S
H946 C931 0.961 . S
H947 C931 0.960 . S
C181 C6 1.721 . S
C189 C99 1.583 . S
C213 C18 1.793 . S
C221 C133 1.677 . S
C253 C145 1.412 . S
C245 C28 1.487 . S
C277 C40 1.013 . S
C285 C179 0.994 1_655 S
C317 C136 1.674 . S
C309 C9 1.789 . S
C349 C116 1.398 . S
C341 C16 1.495 . S
C381 C163 1.412 . S
C373 C30 1.525 . S
C413 C154 1.180 . S
C405 C42 1.239 . S
C437 C4 1.514 . S
C445 C162 1.453 . S
C477 C124 1.444 . S
C469 C33 1.561 . S
C501 C45 1.283 . S
C509 C100 1.191 . S
C533 C21 1.753 . S
C541 C157 1.651 . S
C573 C115 1.670 . S
C565 C57 1.808 . S
C597 C66 1.849 . S
C605 C137 1.743 . S
C629 C76 1.653 . S
C637 C142 1.586 . S
C661 C88 1.129 . S
C669 C175 1.063 . S
C693 C54 1.830 . S
C701 C120 1.711 . S
C733 C112 1.527 . S
C725 C64 1.632 . S
C765 C166 1.394 . S
C757 C78 1.446 . S
C797 C158 1.275 . S
C789 C93 1.374 . S
C821 C52 1.492 . S
C829 C178 1.438 . S
C861 C121 1.544 . S
C853 C81 1.640 . S
C893 C103 1.348 . S
C885 C90 1.424 . S
C917 C69 1.801 . S
C925 C141 1.698 . S
