# Generated by pormake.
# Topology zzz, (3,6)-cn, num edge types: 1
# Building blocks:
#     Node 0, Type 0, BuildingBlock: BETDIP_clean_linker_0, # of connection points: 3
#     Node 1, Type 0, BuildingBlock: BETDIP_clean_linker_0, # of connection points: 3
#     Node 2, Type 0, BuildingBlock: BETDIP_clean_linker_0, # of connection points: 3
#     Node 3, Type 0, BuildingBlock: BETDIP_clean_linker_0, # of connection points: 3
#     Node 4, Type 0, BuildingBlock: BETDIP_clean_linker_0, # of connection points: 3
#     Node 5, Type 0, BuildingBlock: BETDIP_clean_linker_0, # of connection points: 3
#     Node 6, Type 0, BuildingBlock: BETDIP_clean_linker_0, # of connection points: 3
#     Node 7, Type 0, BuildingBlock: BETDIP_clean_linker_0, # of connection points: 3
#     Node 8, Type 1, BuildingBlock: BETDAH_clean_sbu_0, # of connection points: 6
#     Node 9, Type 1, BuildingBlock: BETDAH_clean_sbu_0, # of connection points: 6
#     Node 10, Type 1, BuildingBlock: BETDAH_clean_sbu_0, # of connection points: 6
#     Node 11, Type 1, BuildingBlock: BETDAH_clean_sbu_0, # of connection points: 6
#     Edge 12, Type (0, 1), BuildingBlock: ZUJKAS_clean_linker_0, # of connection points: 2
#     Edge 13, Type (0, 1), BuildingBlock: ZUJKAS_clean_linker_0, # of connection points: 2
#     Edge 14, Type (0, 1), BuildingBlock: ZUJKAS_clean_linker_0, # of connection points: 2
#     Edge 15, Type (0, 1), BuildingBlock: ZUJKAS_clean_linker_0, # of connection points: 2
#     Edge 16, Type (0, 1), BuildingBlock: ZUJKAS_clean_linker_0, # of connection points: 2
#     Edge 17, Type (0, 1), BuildingBlock: ZUJKAS_clean_linker_0, # of connection points: 2
#     Edge 18, Type (0, 1), BuildingBlock: ZUJKAS_clean_linker_0, # of connection points: 2
#     Edge 19, Type (0, 1), BuildingBlock: ZUJKAS_clean_linker_0, # of connection points: 2
#     Edge 20, Type (0, 1), BuildingBlock: ZUJKAS_clean_linker_0, # of connection points: 2
#     Edge 21, Type (0, 1), BuildingBlock: ZUJKAS_clean_linker_0, # of connection points: 2
#     Edge 22, Type (0, 1), BuildingBlock: ZUJKAS_clean_linker_0, # of connection points: 2
#     Edge 23, Type (0, 1), BuildingBlock: ZUJKAS_clean_linker_0, # of connection points: 2
#     Edge 24, Type (0, 1), BuildingBlock: ZUJKAS_clean_linker_0, # of connection points: 2
#     Edge 25, Type (0, 1), BuildingBlock: ZUJKAS_clean_linker_0, # of connection points: 2
#     Edge 26, Type (0, 1), BuildingBlock: ZUJKAS_clean_linker_0, # of connection points: 2
#     Edge 27, Type (0, 1), BuildingBlock: ZUJKAS_clean_linker_0, # of connection points: 2
#     Edge 28, Type (0, 1), BuildingBlock: ZUJKAS_clean_linker_0, # of connection points: 2
#     Edge 29, Type (0, 1), BuildingBlock: ZUJKAS_clean_linker_0, # of connection points: 2
#     Edge 30, Type (0, 1), BuildingBlock: ZUJKAS_clean_linker_0, # of connection points: 2
#     Edge 31, Type (0, 1), BuildingBlock: ZUJKAS_clean_linker_0, # of connection points: 2
#     Edge 32, Type (0, 1), BuildingBlock: ZUJKAS_clean_linker_0, # of connection points: 2
#     Edge 33, Type (0, 1), BuildingBlock: ZUJKAS_clean_linker_0, # of connection points: 2
#     Edge 34, Type (0, 1), BuildingBlock: ZUJKAS_clean_linker_0, # of connection points: 2
#     Edge 35, Type (0, 1), BuildingBlock: ZUJKAS_clean_linker_0, # of connection points: 2
# Relax obj value: 0.226
# Max RMSD: 0.174
# Mean RMSD: 0.160
data_MOF--net-zzz--node1-BETDAH_clean_sbu_0--node2-BETDIP_clean_linker_0--edge1-ZUJKAS_clean_linker_0
_symmetry_space_group_name_H-M    P1
_symmetry_Int_Tables_number       1
_symmetry_cell_setting            triclinic
loop_
_symmetry_equiv_pos_as_xyz
'x, y, z'
_cell_length_a     67.398237
_cell_length_b     67.463159
_cell_length_c     17.017067
_cell_angle_alpha  89.9271
_cell_angle_beta   90.039917
_cell_angle_gamma 90.105401
loop_
_atom_site_label
_atom_site_type_symbol
_atom_site_fract_x
_atom_site_fract_y
_atom_site_fract_z
_atom_type_partial_charge
H0 H 0.76406 0.53702 0.42845 0.0
H1 H 0.75015 0.54205 0.18175 0.0
H2 H 0.8104 0.53308 0.25542 0.0
H3 H 0.72909 0.57106 0.27445 0.0
C4 C 0.72241 0.5567 0.28656 0.0
C5 C 0.76883 0.53737 0.36769 0.0
C6 C 0.78907 0.53494 0.34897 0.0
C7 C 0.75475 0.54023 0.30722 0.0
C8 C 0.76098 0.54037 0.2284 0.0
C9 C 0.78101 0.53788 0.20947 0.0
C10 C 0.79488 0.53528 0.26997 0.0
N11 N 0.73421 0.5421 0.32471 0.0
H12 H 1.011 0.76159 0.42466 0.0
H13 H 1.00902 0.74375 0.18199 0.0
H14 H 1.0059 0.80551 0.24242 0.0
H15 H 0.9817 0.71937 0.31863 0.0
C16 C 0.99717 0.71596 0.30676 0.0
C17 C 1.00971 0.76545 0.36306 0.0
C18 C 1.00751 0.78544 0.34041 0.0
C19 C 1.00963 0.75038 0.30573 0.0
C20 C 1.00837 0.75536 0.22586 0.0
C21 C 1.00717 0.77522 0.20243 0.0
C22 C 1.00635 0.79006 0.26011 0.0
N23 N 1.01185 0.73019 0.32726 0.0
H24 H 0.7878 1.01352 0.42878 0.0
H25 H 0.80385 0.99473 0.19515 0.0
H26 H 0.74247 0.9991 0.26049 0.0
H27 H 0.82937 0.97682 0.31524 0.0
C28 C 0.8331 0.99243 0.30892 0.0
C29 C 0.78353 1.00838 0.37091 0.0
C30 C 0.76329 1.00631 0.35149 0.0
C31 C 0.79825 1.00385 0.31471 0.0
C32 C 0.7926 0.99759 0.23916 0.0
C33 C 0.77253 0.99579 0.21921 0.0
C34 C 0.75807 1.00002 0.27593 0.0
N35 N 0.8187 1.00669 0.33196 0.0
H36 H 0.53598 0.78227 0.40741 0.0
H37 H 0.50506 0.79683 0.19344 0.0
H38 H 0.49446 0.74097 0.30798 0.0
H39 H 0.54807 0.80257 0.1873 0.0
C40 C 0.54214 0.81466 0.22233 0.0
C41 C 0.52508 0.77855 0.36295 0.0
C42 C 0.51496 0.76027 0.36636 0.0
C43 C 0.52152 0.79171 0.30007 0.0
C44 C 0.50772 0.78662 0.24149 0.0
C45 C 0.49758 0.76847 0.24423 0.0
C46 C 0.50132 0.75552 0.30714 0.0
N47 N 0.53217 0.80984 0.29352 0.0
H48 H 0.28912 0.51159 0.97992 0.0
H49 H 0.30454 0.54682 0.18243 0.0
H50 H 0.24462 0.54632 0.0966 0.0
H51 H 0.33277 0.55165 0.07785 0.0
C52 C 0.33533 0.53599 0.08935 0.0
C53 C 0.28494 0.52187 0.02584 0.0
C54 C 0.26522 0.5287 0.03094 0.0
C55 C 0.29937 0.52887 0.07935 0.0
C56 C 0.29368 0.54192 0.13967 0.0
C57 C 0.274 0.5483 0.14637 0.0
C58 C 0.26 0.5418 0.09113 0.0
N59 N 0.31948 0.5225 0.07439 0.0
H60 H 0.02326 0.2811 0.99314 0.0
H61 H 1.01313 0.29469 0.23739 0.0
H62 H 1.01294 0.23419 0.16007 0.0
H63 H 0.98949 0.31812 0.1321 0.0
C64 C 1.00451 0.3239 0.12699 0.0
C65 C 0.02063 0.27619 0.05287 0.0
C66 C 1.01817 0.25581 0.06929 0.0
C67 C 1.01838 0.29029 0.1135 0.0
C68 C 1.01462 0.28389 0.19066 0.0
C69 C 1.01312 0.26369 0.20803 0.0
C70 C 1.01476 0.24983 0.1471 0.0
N71 N 0.01943 0.31097 0.09759 0.0
H72 H 0.26351 0.02766 0.97908 0.0
H73 H 0.24858 1.00865 0.21385 0.0
H74 H 0.30959 1.01502 0.14712 0.0
H75 H 0.22435 0.98954 0.10358 0.0
C76 C 0.21942 1.00488 0.10334 0.0
C77 C 0.26808 0.02313 0.03743 0.0
C78 C 0.28844 0.02205 0.05643 0.0
C79 C 0.25361 0.01812 0.09417 0.0
C80 C 0.25962 1.01217 0.16971 0.0
C81 C 0.27974 1.01146 0.18951 0.0
C82 C 0.29397 1.0163 0.1326 0.0
N83 N 0.23302 0.0196 0.07675 0.0
H84 H 0.51711 0.25927 0.9561 0.0
H85 H 0.52286 0.2436 0.2007 0.0
H86 H 0.51335 0.30425 0.13431 0.0
H87 H 0.55231 0.22566 0.10919 0.0
C88 C 0.53865 0.21787 0.09468 0.0
C89 C 0.51701 0.2635 0.01748 0.0
C90 C 0.51431 0.28352 0.03871 0.0
C91 C 0.52019 0.24905 0.07617 0.0
C92 C 0.52051 0.25471 0.15557 0.0
C93 C 0.51781 0.27451 0.17716 0.0
C94 C 0.5146 0.28874 0.11839 0.0
N95 N 0.52345 0.22885 0.05625 0.0
Ho96 Ho 0.03499 1.01691 0.766 0.0
Ho97 Ho 1.01199 0.02759 0.61045 0.0
C98 C 0.02022 0.98178 0.64359 0.0
C99 C 0.04813 0.99796 0.88589 0.0
C100 C 0.05217 0.97652 0.8887 0.0
C101 C 0.04326 0.96482 0.94692 0.0
C102 C 0.04289 0.94421 0.93938 0.0
C103 C 0.0514 0.93497 0.87337 0.0
C104 C 0.06143 0.94662 0.81782 0.0
C105 C 0.06174 0.96721 0.82518 0.0
C106 C 0.05731 0.02742 0.6406 0.0
C107 C 0.02336 0.06181 0.74067 0.0
C108 C 1.00379 0.04382 0.47851 0.0
C109 C 0.99261 0.06229 0.46769 0.0
C110 C 0.99949 0.07664 0.41474 0.0
C111 C 0.99239 0.09606 0.41895 0.0
C112 C 0.97843 0.10141 0.47667 0.0
C113 C 0.97068 0.08671 0.52627 0.0
C114 C 0.97769 0.06733 0.52178 0.0
C115 C 0.98616 0.02469 0.73371 0.0
O116 O 0.02674 0.98699 0.71426 0.0
O117 O 1.01523 0.99498 0.58938 0.0
O118 O 0.05967 1.00845 0.84006 0.0
O119 O 0.02938 1.00252 0.87759 0.0
O120 O 0.06133 0.03233 0.71261 0.0
O121 O 0.04192 1.01671 0.63902 0.0
O122 O 0.02017 0.0571 0.66591 0.0
O123 O 0.02691 0.04821 0.79519 0.0
O124 O 0.99373 0.02862 0.50599 0.0
O125 O 0.02091 0.04633 0.5139 0.0
O126 O 0.9808 0.02818 0.66196 0.0
O127 O 1.00465 0.02265 0.73315 0.0
H128 H 0.03565 0.97168 0.99589 0.0
H129 H 0.03537 0.93552 0.98393 0.0
H130 H 0.06798 0.93994 0.76614 0.0
H131 H 0.06844 0.97584 0.77846 0.0
H132 H 1.01124 0.07315 0.37365 0.0
H133 H 0.99878 0.10714 0.38038 0.0
H134 H 0.95976 0.09038 0.57061 0.0
H135 H 0.97225 0.05661 0.5639 0.0
Ho136 Ho 0.52872 0.03129 0.74819 0.0
Ho137 Ho 0.51842 1.00887 0.60476 0.0
C138 C 0.56347 1.01709 0.62787 0.0
C139 C 0.54718 0.04201 0.87325 0.0
C140 C 0.56773 0.03684 0.89452 0.0
C141 C 0.57403 1.01699 0.8914 0.0
C142 C 0.59417 1.0124 0.89223 0.0
C143 C 0.60848 0.02755 0.89569 0.0
C144 C 0.60214 0.0473 0.90391 0.0
C145 C 0.58193 0.0519 0.90335 0.0
C146 C 0.51848 0.05455 0.62539 0.0
C147 C 0.48304 0.023 0.72649 0.0
C148 C 0.50026 0.99541 0.48351 0.0
C149 C 0.48014 0.98694 0.48298 0.0
C150 C 0.46617 0.99398 0.42887 0.0
C151 C 0.44602 0.99005 0.43999 0.0
C152 C 0.43956 0.979 0.50537 0.0
C153 C 0.45367 0.97082 0.55648 0.0
C154 C 0.47379 0.97488 0.54575 0.0
C155 C 0.52889 0.98569 0.72763 0.0
O156 O 0.55813 0.01966 0.702 0.0
O157 O 0.54988 1.01558 0.57235 0.0
O158 O 0.54557 0.05345 0.81153 0.0
O159 O 0.5344 0.02739 0.87238 0.0
O160 O 0.51388 0.05831 0.69793 0.0
O161 O 0.52911 0.03919 0.62203 0.0
O162 O 0.48813 1.01594 0.65676 0.0
O163 O 0.49654 0.02899 0.77741 0.0
O164 O 0.51376 0.98519 0.52106 0.0
O165 O 0.50089 1.01431 0.50047 0.0
O166 O 0.53368 0.98217 0.65532 0.0
O167 O 0.518 1.00086 0.73076 0.0
H168 H 0.56349 1.00501 0.88344 0.0
H169 H 0.5985 0.99706 0.88516 0.0
H170 H 0.61281 0.05927 0.90861 0.0
H171 H 0.57743 0.0673 0.90543 0.0
H172 H 0.47071 1.00349 0.38075 0.0
H173 H 0.4354 0.99626 0.39899 0.0
H174 H 0.44907 0.96236 0.60748 0.0
H175 H 0.48422 0.96958 0.58942 0.0
Ho176 Ho 0.51294 0.52834 0.79019 0.0
Ho177 Ho 0.53725 0.51772 0.63733 0.0
C178 C 0.5249 0.56267 0.66063 0.0
C179 C 0.50272 0.54422 0.92066 0.0
C180 C 0.4901 0.56179 0.92914 0.0
C181 C 0.49069 0.57332 0.99743 0.0
C182 C 0.48142 0.59187 -0.00128 0.0
C183 C 0.47161 0.59913 0.9314 0.0
C184 C 0.47024 0.58704 0.86468 0.0
C185 C 0.47946 0.5686 0.8635 0.0
C186 C 0.48797 0.52325 0.66503 0.0
C187 C 0.52231 0.48275 0.75949 0.0
C188 C 0.55045 0.49954 0.5159 0.0
C189 C 0.54811 0.47833 0.49823 0.0
C190 C 0.52982 0.46891 0.51183 0.0
C191 C 0.52865 0.44832 0.51587 0.0
C192 C 0.54577 0.43669 0.50687 0.0
C193 C 0.56381 0.44609 0.48797 0.0
C194 C 0.56497 0.46675 0.48384 0.0
C195 C 0.55843 0.53045 0.76249 0.0
O196 O 0.52022 0.55799 0.73418 0.0
O197 O 0.52992 0.54916 0.60785 0.0
O198 O 0.49386 0.52843 0.89228 0.0
O199 O 0.51982 0.54787 0.88684 0.0
O200 O 0.48209 0.52742 0.73542 0.0
O201 O 0.50652 0.52188 0.66766 0.0
O202 O 0.52813 0.48793 0.6878 0.0
O203 O 0.51749 0.49598 0.81363 0.0
O204 O 0.56141 0.50311 0.57777 0.0
O205 O 0.53427 0.5103 0.51417 0.0
O206 O 0.56266 0.53475 0.68993 0.0
O207 O 0.54358 0.519 0.76461 0.0
H208 H 0.49908 0.56842 0.04816 0.0
H209 H 0.48293 0.601 0.05069 0.0
H210 H 0.4627 0.59217 0.81223 0.0
H211 H 0.47909 0.56011 0.8097 0.0
H212 H 0.51661 0.47742 0.52464 0.0
H213 H 0.51455 0.44165 0.53121 0.0
H214 H 0.57717 0.43754 0.47847 0.0
H215 H 0.57925 0.47372 0.47389 0.0
Ho216 Ho 0.0196 0.5125 0.78547 0.0
Ho217 Ho 0.03129 0.5337 0.6262 0.0
C218 C 0.98575 0.52433 0.65465 0.0
C219 C 1.00296 0.50696 0.9189 0.0
C220 C 0.98315 0.49849 0.9315 0.0
C221 C 0.97066 0.50665 0.98856 0.0
C222 C 0.95028 0.50277 0.98652 0.0
C223 C 0.94213 0.49077 0.92696 0.0
C224 C 0.9549 0.48158 0.87313 0.0
C225 C 0.97522 0.48544 0.87527 0.0
C226 C 0.02085 0.48569 0.66536 0.0
C227 C 0.0659 0.51943 0.75263 0.0
C228 C 0.04939 0.54464 0.50034 0.0
C229 C 0.07035 0.55028 0.48983 0.0
C230 C 0.08555 0.53841 0.52114 0.0
C231 C 0.10509 0.54518 0.52189 0.0
C232 C 0.10987 0.56392 0.49126 0.0
C233 C 0.09479 0.57552 0.45753 0.0
C234 C 0.07516 0.56877 0.45707 0.0
C235 C 0.02143 0.55752 0.74737 0.0
O236 O 0.99042 0.5215 0.72965 0.0
O237 O 0.99946 0.52666 0.59952 0.0
O238 O 1.01649 0.49486 0.89111 0.0
O239 O 1.00259 0.52405 0.8823 0.0
O240 O 1.01695 0.48108 0.73767 0.0
O241 O 0.02398 0.50404 0.6636 0.0
O242 O 0.06102 0.52708 0.68323 0.0
O243 O 0.05252 0.51342 0.80461 0.0
O244 O 0.03905 0.55684 0.5436 0.0
O245 O 0.04588 0.52603 0.51738 0.0
O246 O 1.01716 0.56122 0.6744 0.0
O247 O 0.03146 0.54175 0.75189 0.0
H248 H 0.97643 0.51708 0.03127 0.0
H249 H 0.94079 0.51025 0.02832 0.0
H250 H 0.94908 0.47211 0.82719 0.0
H251 H 0.9845 0.47922 0.82971 0.0
H252 H 0.08234 0.5241 0.54707 0.0
H253 H 0.11648 0.53572 0.54666 0.0
H254 H 0.09809 0.59002 0.43335 0.0
H255 H 0.06364 0.57823 0.43333 0.0
H256 H 0.20363 0.04171 0.13872 0.0
H257 H 0.17469 0.0485 0.22266 0.0
H258 H 0.16495 0.98573 0.25083 0.0
H259 H 0.19372 0.97888 0.16766 0.0
H260 H 0.13264 0.0346 0.21198 0.0
H261 H 0.17225 1.00813 0.47831 0.0
H262 H 0.18504 1.01486 0.38892 0.0
H263 H 0.17269 0.99131 0.39651 0.0
C264 C 0.19516 0.02939 0.16211 0.0
C265 C 0.20097 1.00974 0.14696 0.0
C266 C 0.17864 0.03328 0.21001 0.0
C267 C 0.16781 1.01761 0.24377 0.0
C268 C 0.17322 0.99804 0.22623 0.0
H269 H 0.05541 1.01073 0.49378 0.0
H270 H 0.08162 1.01025 0.39371 0.0
C271 C 0.18962 0.99416 0.17847 0.0
C272 C 0.15139 0.02146 0.30012 0.0
H273 H 0.13774 1.01392 0.49114 0.0
C274 C 0.13376 0.03022 0.27315 0.0
C275 C 0.15294 1.01591 0.38009 0.0
C276 C 0.17179 1.00718 0.41315 0.0
C277 C 0.11745 0.03308 0.32373 0.0
C278 C 0.11878 0.02686 0.40311 0.0
C279 C 0.13662 0.01857 0.43026 0.0
C280 C 0.10198 0.02874 0.4596 0.0
C281 C 0.09903 0.04289 0.29197 0.0
C282 C 0.10462 0.03924 0.53005 0.0
C283 C 0.08974 0.03942 0.58734 0.0
C284 C 0.07191 0.029 0.57572 0.0
C285 C 0.06897 0.01898 0.50423 0.0
C286 C 0.08391 0.01878 0.44681 0.0
H287 H 0.10219 0.05149 0.23765 0.0
H288 H 0.0879 0.03133 0.27729 0.0
H289 H 0.09239 0.05297 0.33624 0.0
H290 H 0.11842 0.047 0.54145 0.0
H291 H 0.09245 0.0473 0.64175 0.0
H292 H 0.56182 0.20066 0.20385 0.0
H293 H 0.55554 0.17065 0.27977 0.0
H294 H 0.5006 0.16171 0.15432 0.0
H295 H 0.50652 0.19247 0.08003 0.0
H296 H 0.49499 0.155 0.30442 0.0
H297 H 0.56245 0.11434 0.22004 0.0
H298 H 0.56914 0.13791 0.2605 0.0
H299 H 0.55495 0.13678 0.17066 0.0
C300 C 0.54849 0.19219 0.19182 0.0
C301 C 0.53475 0.19882 0.13563 0.0
C302 C 0.54497 0.17491 0.23491 0.0
C303 C 0.52785 0.1635 0.22159 0.0
C304 C 0.51403 0.17011 0.16526 0.0
H305 H 0.52561 0.04896 0.46891 0.0
H306 H 0.52499 0.07391 0.36408 0.0
C307 C 0.51743 0.18765 0.12267 0.0
C308 C 0.52413 0.14533 0.26961 0.0
H309 H 0.54701 0.10396 0.34153 0.0
C310 C 0.50625 0.14368 0.31154 0.0
C311 C 0.53853 0.13018 0.27782 0.0
C312 C 0.55722 0.12978 0.22906 0.0
C313 C 0.50283 0.12794 0.36426 0.0
C314 C 0.51801 0.11379 0.3778 0.0
C315 C 0.53545 0.1149 0.33274 0.0
C316 C 0.51655 0.09822 0.44014 0.0
C317 C 0.4829 0.12665 0.40427 0.0
C318 C 0.51195 0.10338 0.51807 0.0
C319 C 0.51187 0.08903 0.57759 0.0
C320 C 0.51697 0.06929 0.56106 0.0
C321 C 0.52157 0.06406 0.48331 0.0
C322 C 0.52127 0.07834 0.42342 0.0
H323 H 0.47108 0.13329 0.36712 0.0
H324 H 0.47876 0.11107 0.41768 0.0
H325 H 0.48342 0.13515 0.46 0.0
H326 H 0.50895 0.11863 0.53358 0.0
H327 H 0.50848 0.09357 0.63711 0.0
H328 H 0.36319 0.56103 0.1439 0.0
H329 H 0.39166 0.55377 0.22726 0.0
H330 H 0.37721 0.49147 0.22002 0.0
H331 H 0.34803 0.49887 0.13824 0.0
H332 H 0.38517 0.50168 0.36403 0.0
H333 H 0.44525 0.53259 0.18232 0.0
H334 H 0.42668 0.55114 0.19733 0.0
H335 H 0.42055 0.52883 0.1441 0.0
C336 C 0.36622 0.54573 0.15914 0.0
C337 C 0.35343 0.53053 0.13424 0.0
C338 C 0.38267 0.54156 0.20632 0.0
C339 C 0.38703 0.522 0.22865 0.0
C340 C 0.37434 0.50667 0.20304 0.0
H341 H 0.49602 0.50843 0.51695 0.0
H342 H 0.47256 0.50485 0.40681 0.0
C343 C 0.35768 0.51089 0.15621 0.0
C344 C 0.4038 0.51802 0.28395 0.0
H345 H 0.4519 0.53106 0.32297 0.0
C346 C 0.39985 0.5078 0.35419 0.0
C347 C 0.42322 0.52551 0.27104 0.0
C348 C 0.42921 0.53491 0.19413 0.0
C349 C 0.41427 0.50603 0.41358 0.0
C350 C 0.43301 0.5153 0.40387 0.0
C351 C 0.43743 0.52432 0.33153 0.0
C352 C 0.44751 0.51707 0.46993 0.0
C353 C 0.40912 0.49435 0.48649 0.0
C354 C 0.44147 0.5255 0.54137 0.0
C355 C 0.45475 0.52737 0.60391 0.0
C356 C 0.47458 0.52124 0.59636 0.0
C357 C 0.48087 0.51327 0.52437 0.0
C358 C 0.46744 0.5112 0.46158 0.0
H359 H 0.39816 0.4825 0.47315 0.0
H360 H 0.42247 0.48745 0.51316 0.0
H361 H 0.40226 0.5044 0.53029 0.0
H362 H 0.42644 0.53083 0.54877 0.0
H363 H 0.44948 0.5338 0.65831 0.0
H364 H 0.04075 0.3429 0.14523 0.0
H365 H 0.04731 0.37318 0.22141 0.0
H366 H 0.98504 0.37749 0.27724 0.0
H367 H 0.97843 0.34775 0.19995 0.0
H368 H 1.00021 0.41337 0.24326 0.0
H369 H 0.04886 0.37497 0.45866 0.0
H370 H 0.05707 0.37376 0.35843 0.0
H371 H 0.03437 0.36169 0.38682 0.0
C372 C 0.02848 0.35045 0.17317 0.0
C373 C 1.00907 0.34293 0.16697 0.0
C374 C 0.03225 0.36767 0.21723 0.0
C375 C 1.01672 0.37748 0.2564 0.0
C376 C 0.9973 0.37024 0.24787 0.0
H377 H 1.01293 0.44651 0.6737 0.0
H378 H 1.01352 0.42199 0.56875 0.0
C379 C 0.99353 0.3532 0.20373 0.0
C380 C 0.02039 0.39491 0.30843 0.0
H381 H 0.04301 0.40886 0.47954 0.0
C382 C 1.00972 0.41247 0.29458 0.0
C383 C 0.03265 0.39368 0.37588 0.0
C384 C 0.04378 0.37499 0.39653 0.0
C385 C 1.01043 0.42851 0.34734 0.0
C386 C 0.02257 0.42722 0.41513 0.0
C387 C 0.03378 0.40993 0.42749 0.0
C388 C 0.02244 0.44266 0.47795 0.0
C389 C 0.99736 0.44624 0.33195 0.0
C390 C 0.02728 0.4626 0.46247 0.0
C391 C 0.02667 0.47681 0.52278 0.0
C392 C 0.02157 0.47126 0.59976 0.0
C393 C 1.01697 0.4513 0.61505 0.0
C394 C 1.01737 0.43721 0.55501 0.0
H395 H 0.98561 0.44294 0.28804 0.0
H396 H 0.99016 0.45137 0.38693 0.0
H397 H 1.00656 0.45856 0.30857 0.0
H398 H 0.03161 0.46718 0.40395 0.0
H399 H 0.03019 0.49205 0.50919 0.0
H400 H 0.84387 0.02869 0.24557 0.0
H401 H 0.87177 0.03528 0.15619 0.0
H402 H 0.89073 0.97454 0.17942 0.0
H403 H 0.86274 0.96782 0.26702 0.0
H404 H 0.91347 0.03123 0.16737 0.0
H405 H 0.88215 0.98039 0.94329 0.0
H406 H 0.8681 0.98861 0.02727 0.0
H407 H 0.88587 0.96891 0.03732 0.0
C408 C 0.85413 1.01683 0.23231 0.0
C409 C 0.85107 0.99768 0.26282 0.0
C410 C 0.87007 0.02061 0.18122 0.0
C411 C 0.88315 1.00531 0.15985 0.0
C412 C 0.88062 0.98648 0.19361 0.0
H413 H 0.99428 1.0164 0.88961 0.0
H414 H 0.97015 1.01206 0.99664 0.0
C415 C 0.86469 0.98268 0.24403 0.0
C416 C 0.89882 1.00863 0.09944 0.0
H417 H 0.91452 0.99263 0.91953 0.0
C418 C 0.91371 0.02283 0.11308 0.0
C419 C 0.89901 0.99785 0.02809 0.0
C420 C 0.88284 0.98322 0.00754 0.0
C421 C 0.92887 0.02636 0.05769 0.0
C422 C 0.92933 1.01517 0.98731 0.0
C423 C 0.91434 1.00109 0.97371 0.0
C424 C 0.94444 0.01846 0.92449 0.0
C425 C 0.94395 0.04238 0.07415 0.0
C426 C 0.93812 0.02316 0.84811 0.0
C427 C 0.95182 0.02526 0.78712 0.0
C428 C 0.97223 0.02271 0.80073 0.0
C429 C 0.97868 0.01828 0.87727 0.0
C430 C 0.96488 1.01603 0.93862 0.0
H431 H 0.93873 0.0528 0.12019 0.0
H432 H 0.9579 0.03545 0.09524 0.0
H433 H 0.94737 0.05095 0.02007 0.0
H434 H 0.92249 0.02511 0.83546 0.0
H435 H 0.94635 0.02878 0.72889 0.0
H436 H 0.52324 0.84856 0.27538 0.0
H437 H 0.52006 0.88028 0.20459 0.0
H438 H 0.55638 0.85736 0.01722 0.0
H439 H 0.55947 0.82582 0.0869 0.0
H440 H 0.55019 0.90787 0.14073 0.0
H441 H 0.50337 0.87345 0.91003 0.0
H442 H 0.50768 0.86185 0.0042 0.0
H443 H 0.52614 0.86042 0.92816 0.0
C444 C 0.53071 0.85041 0.21953 0.0
C445 C 0.54153 0.8347 0.18631 0.0
C446 C 0.52888 0.86851 0.17918 0.0
C447 C 0.53773 0.87106 0.10506 0.0
C448 C 0.54917 0.85563 0.0737 0.0
H449 H 0.54937 0.95119 0.72149 0.0
H450 H 0.55097 0.92504 0.82069 0.0
C451 C 0.55099 0.83765 0.11374 0.0
C452 C 0.53457 0.8894 0.05816 0.0
H453 H 0.51696 0.90525 0.88067 0.0
C454 C 0.54268 0.90742 0.08437 0.0
C455 C 0.52468 0.8888 0.98484 0.0
C456 C 0.51479 0.87015 0.95531 0.0
C457 C 0.54204 0.9246 0.03713 0.0
C458 C 0.53287 0.92372 0.96235 0.0
C459 C 0.52412 0.90588 0.93773 0.0
C460 C 0.53314 0.94064 0.9062 0.0
C461 C 0.5519 0.94332 0.06588 0.0
C462 C 0.52276 0.95827 0.92156 0.0
C463 C 0.52181 0.97332 0.86458 0.0
C464 C 0.53114 0.97088 0.79132 0.0
C465 C 0.54196 0.95347 0.7772 0.0
C466 C 0.54288 0.9385 0.83386 0.0
H467 H 0.56122 0.94066 0.11871 0.0
H468 H 0.5613 0.94988 0.01897 0.0
H469 H 0.54034 0.95434 0.08132 0.0
H470 H 0.51491 0.96015 0.97654 0.0
H471 H 0.51335 0.98659 0.87698 0.0
H472 H 0.70363 0.52041 0.27014 0.0
H473 H 0.67314 0.51353 0.19539 0.0
H474 H 0.66721 0.57581 0.14347 0.0
H475 H 0.69752 0.58273 0.21784 0.0
H476 H 0.63066 0.55652 0.18526 0.0
H477 H 0.67229 0.5167 0.95143 0.0
H478 H 0.67558 0.50789 0.05037 0.0
H479 H 0.68452 0.53204 0.02359 0.0
C480 C 0.69566 0.53264 0.24369 0.0
C481 C 0.70296 0.55212 0.24962 0.0
C482 C 0.67831 0.52868 0.20063 0.0
C483 C 0.668 0.54415 0.16309 0.0
C484 C 0.67489 0.56365 0.17182 0.0
H485 H 0.59321 0.55082 0.75867 0.0
H486 H 0.61841 0.55321 0.86159 0.0
C487 C 0.69223 0.56758 0.21426 0.0
C488 C 0.65065 0.54017 0.1112 0.0
H489 H 0.63798 0.52058 0.9329 0.0
C490 C 0.63217 0.54846 0.1305 0.0
C491 C 0.65271 0.52985 0.03932 0.0
C492 C 0.67233 0.52119 0.01423 0.0
C493 C 0.6158 0.54698 0.07929 0.0
C494 C 0.61795 0.53687 0.007 0.0
C495 C 0.63633 0.52827 0.98846 0.0
C496 C 0.60184 0.53619 0.94713 0.0
C497 C 0.59656 0.55688 0.10139 0.0
C498 C 0.58397 0.526 0.96115 0.0
C499 C 0.56946 0.52462 0.90212 0.0
C500 C 0.57263 0.53336 0.82808 0.0
C501 C 0.59032 0.54392 0.81503 0.0
C502 C 0.60478 0.54525 0.87375 0.0
H503 H 0.59835 0.56702 0.15231 0.0
H504 H 0.59056 0.56544 0.05093 0.0
H505 H 0.58547 0.54538 0.1173 0.0
H506 H 0.58146 0.51869 0.01697 0.0
H507 H 0.556 0.51631 0.91374 0.0
H508 H 0.02963 0.70866 0.213 0.0
H509 H 0.03439 0.68042 0.12434 0.0
H510 H 0.98033 0.65394 0.2111 0.0
H511 H 0.97498 0.68267 0.296 0.0
H512 H 0.03935 0.64213 0.13627 0.0
H513 H 0.96791 0.65435 0.98399 0.0
H514 H 0.97762 0.67168 0.05472 0.0
H515 H 0.96433 0.6499 0.08677 0.0
C516 C 0.01886 0.69672 0.21347 0.0
C517 C 1.00184 0.69788 0.2609 0.0
C518 C 0.02157 0.68058 0.16269 0.0
C519 C 1.00743 0.66522 0.1591 0.0
C520 C 0.99109 0.66587 0.21032 0.0
H521 H 0.02994 0.5534 0.90476 0.0
H522 H 0.02642 0.57855 0.00786 0.0
C523 C 0.98814 0.68219 0.25954 0.0
C524 C 1.00946 0.64885 0.10055 0.0
H525 H 0.9845 0.62422 0.95546 0.0
C526 C 0.02739 0.63827 0.09647 0.0
C527 C 0.99401 0.64396 0.04733 0.0
C528 C 0.97499 0.65571 0.04274 0.0
C529 C 0.03025 0.62299 0.04128 0.0
C530 C 1.01447 0.61754 0.99047 0.0
C531 C 0.99656 0.62813 0.99474 0.0
C532 C 1.01639 0.60178 0.9292 0.0
C533 C 0.05042 0.61339 0.03639 0.0
C534 C 1.01112 0.60601 0.85103 0.0
C535 C 1.01243 0.59147 0.79288 0.0
C536 C 0.0193 0.57235 0.811 0.0
C537 C 0.02455 0.56799 0.88908 0.0
C538 C 0.02282 0.58248 0.94786 0.0
H539 H 0.06218 0.62311 0.06123 0.0
H540 H 0.0503 0.59944 0.07097 0.0
H541 H 0.05438 0.60982 0.9747 0.0
H542 H 1.0061 0.62069 0.83464 0.0
H543 H 1.00832 0.59534 0.73326 0.0
H544 H 0.98448 0.27696 0.30923 0.0
H545 H 0.97275 0.26 0.42802 0.0
H546 H 0.0198 0.21707 0.40298 0.0
H547 H 0.03182 0.23433 0.28755 0.0
H548 H 0.95714 0.22613 0.41766 0.0
H549 H 1.01567 0.21537 0.6331 0.0
H550 H 1.01713 0.23524 0.56188 0.0
H551 H 0.02758 0.21113 0.54086 0.0
C552 C 0.99277 0.2644 0.33145 0.0
C553 C 1.00884 0.25669 0.28871 0.0
C554 C 0.98607 0.25472 0.39928 0.0
C555 C 0.99541 0.23728 0.42529 0.0
C556 C 1.01255 0.23074 0.38614 0.0
H557 H 0.96971 0.12927 0.36609 0.0
H558 H 0.96697 0.16486 0.38531 0.0
C559 C 0.01925 0.24041 0.31895 0.0
C560 C 0.98512 0.22324 0.47884 0.0
H561 H 0.9984 0.18324 0.58843 0.0
C562 C 0.96585 0.21723 0.45799 0.0
C563 C 0.99574 0.21195 0.53484 0.0
C564 C 1.01508 0.21902 0.56944 0.0
C565 C 0.95871 0.19848 0.47947 0.0
C566 C 0.97141 0.18542 0.52043 0.0
C567 C 0.98894 0.19289 0.55388 0.0
C568 C 0.96936 0.16364 0.51241 0.0
C569 C 0.93838 0.19223 0.45189 0.0
C570 C 0.97186 0.151 0.5772 0.0
C571 C 0.97382 0.13057 0.56593 0.0
C572 C 0.97344 0.12251 0.48962 0.0
C573 C 0.97011 0.13509 0.42539 0.0
C574 C 0.9682 0.15543 0.43662 0.0
H575 H 0.92781 0.20478 0.45694 0.0
H576 H 0.93908 0.18807 0.38887 0.0
H577 H 0.93259 0.17946 0.48619 0.0
H578 H 0.97313 0.15701 0.63599 0.0
H579 H 0.97669 0.12124 0.61651 0.0
H580 H 0.30693 0.02967 0.2823 0.0
H581 H 0.32323 1.01593 0.39778 0.0
H582 H 0.28345 0.96574 0.39339 0.0
H583 H 0.26738 0.97926 0.2753 0.0
H584 H 0.314 1.00105 0.55016 0.0
H585 H 0.33725 0.94122 0.34298 0.0
H586 H 0.32463 0.96289 0.30658 0.0
H587 H 0.31136 0.94481 0.36374 0.0
C588 C 0.30143 1.01588 0.30673 0.0
C589 C 0.2863 1.00525 0.26881 0.0
C590 C 0.31058 1.00814 0.37329 0.0
C591 C 0.30478 0.98963 0.40331 0.0
C592 C 0.28833 0.9799 0.37037 0.0
H593 H 0.41851 0.94576 0.54696 0.0
H594 H 0.38238 0.94297 0.56243 0.0
C595 C 0.27914 0.98767 0.30322 0.0
C596 C 0.3185 0.97957 0.45823 0.0
H597 H 0.35896 0.9497 0.44308 0.0
C598 C 0.32345 0.98924 0.52863 0.0
C599 C 0.33057 0.96382 0.4313 0.0
C600 C 0.32581 0.95251 0.35708 0.0
C601 C 0.34161 0.98557 0.56617 0.0
C602 C 0.35512 0.9722 0.53134 0.0
C603 C 0.34873 0.96025 0.46884 0.0
C604 C 0.37681 0.97419 0.54292 0.0
C605 C 0.34689 0.99728 0.63865 0.0
C606 C 0.38568 0.99267 0.52792 0.0
C607 C 0.40611 0.99422 0.51829 0.0
C608 C 0.41815 0.97732 0.52298 0.0
C609 C 0.4095 0.959 0.54266 0.0
C610 C 0.38893 0.95742 0.55201 0.0
H611 H 0.33364 0.99912 0.67677 0.0
H612 H 0.35886 0.99006 0.67314 0.0
H613 H 0.3519 1.01232 0.62107 0.0
H614 H 0.3767 1.00575 0.51832 0.0
H615 H 0.41246 1.0086 0.50489 0.0
H616 H 0.49517 0.30113 0.25708 0.0
H617 H 0.50433 0.3183 0.37737 0.0
H618 H 0.55423 0.27903 0.40768 0.0
H619 H 0.54575 0.26243 0.28426 0.0
H620 H 0.51331 0.31215 0.53471 0.0
H621 H 0.58135 0.33118 0.36227 0.0
H622 H 0.56112 0.31796 0.31711 0.0
H623 H 0.57681 0.30572 0.38748 0.0
C624 C 0.50791 0.29593 0.28997 0.0
C625 C 0.52012 0.28091 0.25992 0.0
C626 C 0.51301 0.30558 0.35933 0.0
C627 C 0.5303 0.30029 0.40025 0.0
C628 C 0.5411 0.28364 0.37587 0.0
H629 H 0.57346 0.41283 0.57819 0.0
H630 H 0.57282 0.37663 0.58957 0.0
C631 C 0.53614 0.27408 0.30563 0.0
C632 C 0.53849 0.31467 0.45725 0.0
H633 H 0.57065 0.35371 0.45523 0.0
C634 C 0.52629 0.32087 0.51938 0.0
C635 C 0.55566 0.32587 0.43831 0.0
C636 C 0.56953 0.31998 0.37267 0.0
C637 C 0.52928 0.3393 0.55545 0.0
C638 C 0.54471 0.35169 0.52821 0.0
C639 C 0.55864 0.34421 0.475 0.0
C640 C 0.54377 0.37343 0.53709 0.0
C641 C 0.51501 0.34611 0.61779 0.0
C642 C 0.52768 0.38355 0.50356 0.0
C643 C 0.52822 0.40406 0.4948 0.0
C644 C 0.54487 0.41494 0.51968 0.0
C645 C 0.56062 0.40484 0.55654 0.0
C646 C 0.56015 0.38422 0.56449 0.0
H647 H 0.50933 0.33335 0.65248 0.0
H648 H 0.52221 0.35686 0.6581 0.0
H649 H 0.50212 0.35344 0.58948 0.0
H650 H 0.51515 0.37545 0.47972 0.0
H651 H 0.51594 0.41125 0.46538 0.0
H652 H 0.24873 0.57982 0.14564 0.0
H653 H 0.23012 0.59217 0.25715 0.0
H654 H 0.26583 0.55669 0.41399 0.0
H655 H 0.28379 0.54333 0.30128 0.0
H656 H 0.22983 0.54627 0.42629 0.0
H657 H 0.22816 0.62714 0.44196 0.0
H658 H 0.22441 0.6208 0.34105 0.0
H659 H 0.24746 0.61428 0.38891 0.0
C660 C 0.25299 0.57506 0.20409 0.0
C661 C 0.26733 0.56022 0.21454 0.0
C662 C 0.24257 0.58244 0.26831 0.0
C663 C 0.24655 0.57544 0.34449 0.0
C664 C 0.2625 0.56235 0.35586 0.0
H665 H 0.13631 0.56191 0.61302 0.0
H666 H 0.17203 0.56871 0.60797 0.0
C667 C 0.2728 0.55475 0.29131 0.0
C668 C 0.23113 0.5778 0.40595 0.0
H669 H 0.19494 0.61031 0.45975 0.0
C670 C 0.22265 0.5604 0.43661 0.0
C671 C 0.22183 0.5962 0.42063 0.0
C672 C 0.23116 0.61562 0.39691 0.0
C673 C 0.20383 0.56056 0.47137 0.0
C674 C 0.19337 0.57867 0.47615 0.0
C675 C 0.20287 0.59639 0.45461 0.0
C676 C 0.17164 0.57875 0.48718 0.0
C677 C 0.19445 0.54105 0.49477 0.0
C678 C 0.15954 0.58306 0.42223 0.0
C679 C 0.13923 0.57918 0.42489 0.0
C680 C 0.13071 0.57088 0.49259 0.0
C681 C 0.14262 0.5679 0.55953 0.0
C682 C 0.16296 0.57188 0.55694 0.0
H683 H 0.20403 0.52816 0.4806 0.0
H684 H 0.19165 0.54096 0.55901 0.0
H685 H 0.17999 0.53909 0.46442 0.0
H686 H 0.16601 0.58827 0.36767 0.0
H687 H 0.13044 0.58157 0.37241 0.0
H688 H 0.03326 0.76067 0.09367 0.0
H689 H 0.04321 0.77714 0.97166 0.0
H690 H 0.99647 0.81999 0.00281 0.0
H691 H 0.98592 0.80313 0.12242 0.0
H692 H 1.0069 0.81402 0.84233 0.0
H693 H 0.07299 0.82738 0.03394 0.0
H694 H 0.06713 0.80237 0.00632 0.0
H695 H 0.05106 0.81556 0.07223 0.0
C696 C 0.02453 0.77305 0.07257 0.0
C697 C 1.00917 0.78101 0.1187 0.0
C698 C 0.03033 0.78251 0.00305 0.0
C699 C 0.02098 0.80013 0.97971 0.0
C700 C 1.00402 0.8065 0.02016 0.0
H701 H 1.01752 0.91359 0.89229 0.0
H702 H 1.01334 0.87787 0.88206 0.0
C703 C 0.99812 0.79698 0.08902 0.0
C704 C 0.03087 0.81436 0.92624 0.0
H705 H 0.06629 0.85037 0.93686 0.0
C706 C 0.02028 0.82161 0.8612 0.0
C707 C 0.04854 0.82409 0.95001 0.0
C708 C 0.06064 0.81709 0.01948 0.0
C709 C 0.02569 0.83953 0.82502 0.0
C710 C 0.04175 0.85054 0.85601 0.0
C711 C 0.05382 0.84199 0.91387 0.0
C712 C 0.04349 0.87221 0.84421 0.0
C713 C 1.01346 0.84714 0.75728 0.0
C714 C 0.06187 0.881 0.82671 0.0
C715 C 0.0644 0.9015 0.83407 0.0
C716 C 0.04864 0.91345 0.86009 0.0
C717 C 0.03006 0.9047 0.87399 0.0
C718 C 0.02752 0.88431 0.86623 0.0
H719 H 1.00833 0.83465 0.71986 0.0
H720 H 1.00008 0.85473 0.78034 0.0
H721 H 0.02196 0.85776 0.7204 0.0
H722 H 0.07447 0.87189 0.81081 0.0
H723 H 0.07888 0.90787 0.82277 0.0
H724 H 0.7867 1.01263 0.08389 0.0
H725 H 0.76848 1.01494 0.95971 0.0
H726 H 0.72498 0.9736 0.04832 0.0
H727 H 0.74364 0.97041 0.17005 0.0
H728 H 0.72625 0.97373 0.88555 0.0
H729 H 0.72195 0.05077 0.00518 0.0
H730 H 0.74568 0.0417 0.97392 0.0
H731 H 0.73398 0.03133 0.05965 0.0
C732 C 0.77381 1.00328 0.07523 0.0
C733 C 0.76614 0.99186 0.13744 0.0
C734 C 0.76333 1.00474 0.00445 0.0
C735 C 0.74495 0.99511 0.99626 0.0
C736 C 0.73898 0.98141 0.05374 0.0
H737 H 0.62856 0.99603 0.95786 0.0
H738 H 0.66372 0.98853 0.94581 0.0
C739 C 0.74955 0.97973 0.12371 0.0
C740 C 0.72976 1.00231 0.94029 0.0
H741 H 0.69603 0.0398 0.92815 0.0
C742 C 0.71997 0.98841 0.89256 0.0
C743 C 0.72165 0.02159 0.94871 0.0
C744 C 0.73123 0.03724 -0.00029 0.0
C745 C 0.70123 0.99254 0.8605 0.0
C746 C 0.69214 1.01089 0.87745 0.0
C747 C 0.70301 0.02565 0.91616 0.0
C748 C 0.67045 1.01372 0.87135 0.0
C749 C 0.6908 0.97679 0.8132 0.0
C750 C 0.66257 0.0306 0.83475 0.0
C751 C 0.64242 0.03506 0.84229 0.0
C752 C 0.62984 0.02276 0.88692 0.0
C753 C 0.63775 1.00566 0.92213 0.0
C754 C 0.65784 1.00123 0.91455 0.0
H755 H 0.70165 0.96767 0.78005 0.0
H756 H 0.68265 0.96674 0.85363 0.0
H757 H 0.68003 0.98337 0.77121 0.0
H758 H 0.67212 0.04058 0.80214 0.0
H759 H 0.63671 0.04813 0.8131 0.0
H760 H 0.46334 0.74662 0.25136 0.0
H761 H 0.4506 0.7256 0.14717 0.0
H762 H 0.4885 0.75522 0.97977 0.0
H763 H 0.50299 0.77484 0.08562 0.0
H764 H 0.43463 0.72299 0.00698 0.0
H765 H 0.51478 0.70283 0.98419 0.0
H766 H 0.50608 0.72007 0.05667 0.0
H767 H 0.50846 0.72756 0.95541 0.0
C768 C 0.46889 0.74881 0.19226 0.0
C769 C 0.48498 0.7616 0.17778 0.0
C770 C 0.46135 0.73696 0.13229 0.0
C771 C 0.46936 0.73812 0.05633 0.0
C772 C 0.4828 0.75343 0.03882 0.0
H773 H 0.47764 0.62543 0.81213 0.0
H774 H 0.47203 0.66116 0.81453 0.0
C775 C 0.49089 0.76486 0.09946 0.0
C776 C 0.46655 0.72101 0.00272 0.0
H777 H 0.49194 0.68103 0.93282 0.0
C778 C 0.44718 0.71403 0.98898 0.0
C779 C 0.48294 0.70925 0.97902 0.0
C780 C 0.50423 0.71516 0.99486 0.0
C781 C 0.4438 0.69497 0.95859 0.0
C782 C 0.46018 0.6828 0.94079 0.0
C783 C 0.47943 0.6905 0.94678 0.0
C784 C 0.45832 0.66118 0.92938 0.0
C785 C 0.4228 0.6876 0.94962 0.0
C786 C 0.45206 0.64931 0.99257 0.0
C787 C 0.45537 0.62888 0.9917 0.0
C788 C 0.46496 0.62003 0.92754 0.0
C789 C 0.46999 0.63178 0.86208 0.0
C790 C 0.46677 0.6522 0.86318 0.0
H791 H 0.41231 0.70009 0.94072 0.0
H792 H 0.42148 0.67716 0.89946 0.0
H793 H 0.41836 0.67965 0.00398 0.0
H794 H 0.44594 0.65601 0.04502 0.0
H795 H 0.45123 0.62015 0.0426 0.0
H796 H 0.81195 0.55709 0.14139 0.0
H797 H 0.82927 0.54692 0.02344 0.0
H798 H 0.78262 0.50491 0.97202 0.0
H799 H 0.76555 0.51467 0.09293 0.0
H800 H 0.81487 0.48615 0.98786 0.0
H801 H 0.83405 0.54734 0.79297 0.0
H802 H 0.8383 0.55658 0.88994 0.0
H803 H 0.81352 0.54927 0.86086 0.0
C804 C 0.80504 0.5462 0.10341 0.0
C805 C 0.78769 0.53636 0.12694 0.0
C806 C 0.8148 0.54057 0.03496 0.0
C807 C 0.80728 0.52512 0.98814 0.0
C808 C 0.7887 0.51688 0.00696 0.0
H809 H 0.92118 0.49334 0.78967 0.0
H810 H 0.88519 0.49623 0.7745 0.0
C811 C 0.77894 0.52248 0.076 0.0
C812 C 0.82116 0.51462 0.93488 0.0
H813 H 0.86326 0.52537 0.83279 0.0
C814 C 0.82499 0.49455 0.95107 0.0
C815 C 0.8341 0.52505 0.88403 0.0
C816 C 0.82954 0.54569 0.85543 0.0
C817 C 0.84301 0.48586 0.92945 0.0
C818 C 0.8576 0.49767 0.89249 0.0
C819 C 0.85239 0.51652 0.86419 0.0
C820 C 0.87891 0.49264 0.89822 0.0
C821 C 0.8469 0.46462 0.95232 0.0
C822 C 0.88732 0.48956 0.97285 0.0
C823 C 0.9078 0.48796 0.98182 0.0
C824 C 0.92034 0.48955 0.91637 0.0
C825 C 0.91188 0.49185 0.84119 0.0
C826 C 0.89133 0.49354 0.83229 0.0
H827 H 0.83311 0.45565 0.94715 0.0
H828 H 0.8586 0.45784 0.91518 0.0
H829 H 0.85169 0.46402 0.01469 0.0
H830 H 0.87811 0.48939 0.02498 0.0
H831 H 0.91387 0.48609 0.04032 0.0
H832 H 0.04753 0.24651 0.96312 0.0
H833 H 0.04947 0.21635 0.88195 0.0
H834 H 0.99109 0.19916 0.96069 0.0
H835 H 0.989 0.22922 0.03942 0.0
H836 H 0.04963 0.17938 0.93788 0.0
H837 H 0.98639 0.18513 0.73325 0.0
H838 H 0.99611 0.20631 0.78547 0.0
H839 H 0.97864 0.1898 0.83211 0.0
C840 C 0.03488 0.23661 0.96061 0.0
C841 C 1.01809 0.24025 0.00727 0.0
C842 C 0.03603 0.2193 0.91479 0.0
C843 C 0.02032 0.20547 0.91421 0.0
C844 C 1.00321 0.20969 0.9581 0.0
H845 H 0.02603 0.07811 0.88826 0.0
H846 H 0.0261 0.11318 0.92377 0.0
C847 C 1.00208 0.22687 0.00365 0.0
C848 C 0.02246 0.18565 0.87598 0.0
H849 H 0.99769 0.15193 0.76218 0.0
C850 C 0.03842 0.17352 0.89841 0.0
C851 C 1.00809 0.17794 0.82331 0.0
C852 C 0.99148 0.19058 0.79145 0.0
C853 C 0.03985 0.15371 0.87316 0.0
C854 C 0.02458 0.14549 0.82594 0.0
C855 C 1.0092 0.15795 0.79987 0.0
C856 C 0.02411 0.12401 0.80414 0.0
C857 C 0.05783 0.14188 0.89734 0.0
C858 C 0.02204 0.11819 0.72528 0.0
C859 C 0.02165 0.09806 0.70486 0.0
C860 C 0.02334 0.0832 0.76284 0.0
C861 C 0.025 0.08907 0.84188 0.0
C862 C 0.0252 0.1092 0.86227 0.0
H863 H 0.07079 0.15168 0.90853 0.0
H864 H 0.05454 0.13383 0.95275 0.0
H865 H 0.06199 0.1309 0.85169 0.0
H866 H 0.02093 0.12923 0.67922 0.0
H867 H 0.02018 0.09418 0.64337 0.0
H868 H 0.31947 0.04746 0.07295 0.0
H869 H 0.35025 0.0479 0.9969 0.0
H870 H 0.32552 1.00529 0.83566 0.0
H871 H 0.2945 1.00473 0.91233 0.0
H872 H 0.37062 1.00719 0.97327 0.0
H873 H 0.35666 0.05003 0.69862 0.0
H874 H 0.34487 0.05717 0.78967 0.0
H875 H 0.33747 0.03477 0.74157 0.0
C876 C 0.32035 0.03864 0.01992 0.0
C877 C 0.30456 0.02607 0.99857 0.0
C878 C 0.33797 0.03886 0.97664 0.0
C879 C 0.34021 0.02663 0.91068 0.0
C880 C 0.32404 1.01499 0.88597 0.0
H881 H 0.45085 1.00971 0.64171 0.0
H882 H 0.41592 1.0093 0.68176 0.0
C883 C 0.30629 1.01476 0.92949 0.0
C884 C 0.36023 0.02435 0.87496 0.0
H885 H 0.38945 0.03916 0.72143 0.0
C886 C 0.37471 1.01406 0.9179 0.0
C887 C 0.36546 0.03308 0.80234 0.0
C888 C 0.3504 0.04442 0.75479 0.0
C889 C 0.39439 1.01267 0.89129 0.0
C890 C 0.39997 0.0223 0.82061 0.0
C891 C 0.38527 0.03193 0.77592 0.0
C892 C 0.42111 0.02315 0.79449 0.0
C893 C 0.409 1.0008 0.93928 0.0
C894 C 0.4357 0.03142 0.84366 0.0
C895 C 0.4557 0.03151 0.82135 0.0
C896 C 0.46163 0.02355 0.74872 0.0
C897 C 0.44691 1.01582 0.69835 0.0
C898 C 0.42687 1.01564 0.721 0.0
H899 H 0.40137 0.98949 0.97598 0.0
H900 H 0.41996 0.9932 0.90112 0.0
H901 H 0.41714 1.01091 0.97941 0.0
H902 H 0.43162 0.03776 0.89979 0.0
H903 H 0.46651 0.03778 0.86138 0.0
H904 H 0.54243 0.29577 0.93393 0.0
H905 H 0.54377 0.32828 0.86833 0.0
H906 H 0.48492 0.34138 0.95203 0.0
H907 H 0.48363 0.30908 0.01815 0.0
H908 H 0.49723 0.35455 0.78097 0.0
H909 H 0.54549 0.37831 0.0297 0.0
H910 H 0.55139 0.35547 0.98023 0.0
H911 H 0.52908 0.35719 0.03711 0.0
C912 C 0.5295 0.30527 0.93551 0.0
C913 C 0.51284 0.29985 0.98034 0.0
C914 C 0.53034 0.3239 0.89872 0.0
C915 C 0.51449 0.33729 0.90584 0.0
C916 C 0.49728 0.33127 0.94561 0.0
H917 H 0.50588 0.46508 0.8899 0.0
H918 H 0.50426 0.42963 0.92086 0.0
C919 C 0.49651 0.31278 0.98295 0.0
C920 C 0.51662 0.35828 0.88021 0.0
H921 H 0.53733 0.40243 0.93542 0.0
C922 C 0.50617 0.365 0.81401 0.0
C923 C 0.52801 0.37193 0.92439 0.0
C924 C 0.53911 0.36553 0.99715 0.0
C925 C 0.50702 0.38502 0.79031 0.0
C926 C 0.51835 0.3987 0.83485 0.0
C927 C 0.52869 0.39194 0.90127 0.0
C928 C 0.51923 0.42019 0.81494 0.0
C929 C 0.4955 0.39151 0.71879 0.0
C930 C 0.52846 0.42673 0.7457 0.0
C931 C 0.52958 0.44701 0.72824 0.0
C932 C 0.52135 0.46123 0.77923 0.0
C933 C 0.5123 0.45461 0.84902 0.0
C934 C 0.51132 0.43432 0.86677 0.0
H935 H 0.48471 0.38005 0.69935 0.0
H936 H 0.48738 0.40549 0.73081 0.0
H937 H 0.50597 0.39437 0.66974 0.0
H938 H 0.53506 0.41616 0.70563 0.0
H939 H 0.53717 0.45155 0.67526 0.0
H940 H 0.24928 0.54996 0.91143 0.0
H941 H 0.21661 0.54469 0.85121 0.0
H942 H 0.21115 0.48904 0.9742 0.0
H943 H 0.24387 0.49438 0.03468 0.0
H944 H 0.19714 0.51343 0.7619 0.0
H945 H 0.16532 0.52394 0.06025 0.0
H946 H 0.19076 0.52995 0.03724 0.0
H947 H 0.18347 0.50458 0.05158 0.0
C948 C 0.24144 0.53622 0.92288 0.0
C949 C 0.24921 0.5224 0.97652 0.0
C950 C 0.22271 0.53329 0.88902 0.0
C951 C 0.21126 0.51663 0.90911 0.0
C952 C 0.21961 0.50211 0.95844 0.0
H953 H 0.08393 0.49451 0.85819 0.0
H954 H 0.11928 0.49254 0.89085 0.0
C955 C 0.23842 0.50501 0.9921 0.0
C956 C 0.19002 0.51552 0.88477 0.0
H957 H 0.14283 0.51778 0.95766 0.0
C958 C 0.18523 0.51426 0.80461 0.0
C959 C 0.17448 0.51678 0.94048 0.0
C960 C 0.17865 0.51906 0.02719 0.0
C961 C 0.16535 0.51391 0.77873 0.0
C962 C 0.14975 0.51536 0.83453 0.0
C963 C 0.15464 0.51654 0.91472 0.0
C964 C 0.1283 0.51604 0.81164 0.0
C965 C 0.16137 0.51161 0.69191 0.0
C966 C 0.12136 0.53004 0.75692 0.0
C967 C 0.10118 0.53097 0.73731 0.0
C968 C 0.08733 0.51825 0.77334 0.0
C969 C 0.09418 0.50453 0.82933 0.0
C970 C 0.11443 0.50338 0.84794 0.0
H971 H 0.17391 0.50413 0.66176 0.0
H972 H 0.14762 0.50297 0.68095 0.0
H973 H 0.15967 0.5265 0.66495 0.0
H974 H 0.13148 0.54053 0.73029 0.0
H975 H 0.09637 0.54201 0.6952 0.0
H976 H 0.03434 0.79394 0.45747 0.0
H977 H 0.03676 0.82493 0.53321 0.0
H978 H 0.9829 0.84585 0.42447 0.0
H979 H 0.98035 0.81504 0.35008 0.0
H980 H 0.04111 0.86177 0.4652 0.0
H981 H 0.97412 0.86153 0.65187 0.0
H982 H 0.98305 0.83946 0.60358 0.0
H983 H 0.96808 0.85709 0.55073 0.0
C984 C 0.02271 0.80491 0.45184 0.0
C985 C 1.00713 0.80206 0.39802 0.0
C986 C 0.02417 0.82267 0.49461 0.0
C987 C 1.00993 0.83772 0.48514 0.0
C988 C 0.99388 0.8344 0.43418 0.0
H989 H 1.01669 0.96449 0.49834 0.0
H990 H 1.0154 0.92908 0.4672 0.0
C991 C 0.99248 0.8168 0.3913 0.0
C992 C 1.01275 0.85768 0.52122 0.0
H993 H 0.98886 0.89363 0.6265 0.0
C994 C 0.02981 0.8686 0.50147 0.0
C995 C 0.99809 0.86666 0.56899 0.0
C996 C 0.9799 0.85549 0.59568 0.0
C997 C 0.03213 0.88848 0.52475 0.0
C998 C 1.01694 0.89778 0.56848 0.0
C999 C 1.00037 0.88659 0.59186 0.0
C1000 C 1.01771 0.91929 0.58795 0.0
C1001 C 0.05071 0.89949 0.5015 0.0
C1002 C 0.01908 0.92559 0.66629 0.0
C1003 C 0.01988 0.94585 0.68435 0.0
C1004 C 0.01908 0.96026 0.62439 0.0
C1005 C 1.01736 0.95386 0.54601 0.0
C1006 C 1.01674 0.9336 0.52803 0.0
H1007 H 0.06284 0.8892 0.48477 0.0
H1008 H 0.04744 0.90913 0.45022 0.0
H1009 H 0.05597 0.9091 0.55026 0.0
H1010 H 0.01968 0.91481 0.71338 0.0
H1011 H 0.02095 0.95021 0.74543 0.0
H1012 H 0.75153 0.98545 0.4813 0.0
H1013 H 0.71908 0.98784 0.54689 0.0
H1014 H 0.70479 0.03893 0.40532 0.0
H1015 H 0.73715 0.03663 0.34069 0.0
H1016 H 0.69042 0.04191 0.55968 0.0
H1017 H 0.6699 0.97005 0.42195 0.0
H1018 H 0.69144 0.96947 0.48419 0.0
H1019 H 0.69195 0.9836 0.39465 0.0
C1020 C 0.74173 0.99761 0.46657 0.0
C1021 C 0.7469 1.01099 0.40663 0.0
C1022 C 0.72308 0.9988 0.50312 0.0
C1023 C 0.70929 1.01333 0.4799 0.0
C1024 C 0.71509 0.02756 0.42414 0.0
H1025 H 0.58067 1.01276 0.48226 0.0
H1026 H 0.61614 1.01181 0.45062 0.0
C1027 C 0.73364 0.02633 0.3876 0.0
C1028 C 0.68832 1.01289 0.50805 0.0
H1029 H 0.6455 0.98563 0.499 0.0
C1030 C 0.68064 0.02953 0.54707 0.0
C1031 C 0.67541 0.99691 0.49015 0.0
C1032 C 0.68246 0.97904 0.44487 0.0
C1033 C 0.66047 0.03065 0.5684 0.0
C1034 C 0.64763 1.01457 0.55124 0.0
C1035 C 0.65533 0.9979 0.51256 0.0
C1036 C 0.62605 1.01496 0.57097 0.0
C1037 C 0.65294 0.04936 0.60649 0.0
C1038 C 0.61972 1.01675 0.64918 0.0
C1039 C 0.59946 1.01742 0.66736 0.0
C1040 C 0.58498 1.01605 0.60789 0.0
C1041 C 0.59135 1.01388 0.52963 0.0
C1042 C 0.61166 1.01332 0.51144 0.0
H1043 H 0.66337 0.06196 0.59825 0.0
H1044 H 0.63824 0.05358 0.58229 0.0
H1045 H 0.65122 0.04682 0.67047 0.0
H1046 H 0.63047 1.01752 0.69631 0.0
H1047 H 0.59517 0.01906 0.72817 0.0
H1048 H 0.48902 0.7437 0.46904 0.0
H1049 H 0.49268 0.71175 0.53573 0.0
H1050 H 0.55347 0.70852 0.45813 0.0
H1051 H 0.54985 0.74069 0.3919 0.0
H1052 H 0.50073 0.6783 0.44785 0.0
H1053 H 0.55674 0.68712 0.68465 0.0
H1054 H 0.54372 0.70791 0.64201 0.0
H1055 H 0.56406 0.69673 0.59044 0.0
C1056 C 0.50341 0.73656 0.46914 0.0
C1057 C 0.51922 0.74476 0.42609 0.0
C1058 C 0.50544 0.71822 0.50665 0.0
C1059 C 0.52334 0.70767 0.50206 0.0
C1060 C 0.53961 0.71648 0.46369 0.0
H1061 H 0.53442 0.57904 0.5175 0.0
H1062 H 0.5344 0.61412 0.48067 0.0
C1063 C 0.53758 0.73493 0.42618 0.0
C1064 C 0.524 0.68657 0.52822 0.0
H1065 H 0.54732 0.6541 0.65209 0.0
C1066 C 0.51088 0.67305 0.49275 0.0
C1067 C 0.53718 0.67969 0.58696 0.0
C1068 C 0.55114 0.69361 0.62887 0.0
C1069 C 0.51068 0.6529 0.51371 0.0
C1070 C 0.52415 0.64591 0.57117 0.0
C1071 C 0.53711 0.65944 0.60757 0.0
C1072 C 0.52477 0.62462 0.59445 0.0
C1073 C 0.49585 0.63927 0.47489 0.0
C1074 C 0.51965 0.61884 0.67106 0.0
C1075 C 0.51963 0.59877 0.69241 0.0
C1076 C 0.52487 0.58401 0.63767 0.0
C1077 C 0.53021 0.58991 0.56116 0.0
C1078 C 0.53018 0.60999 0.53988 0.0
H1079 H 0.48367 0.64765 0.44608 0.0
H1080 H 0.50349 0.63039 0.42919 0.0
H1081 H 0.4893 0.62886 0.51834 0.0
H1082 H 0.51539 0.62985 0.71413 0.0
H1083 H 0.51542 0.59486 0.75187 0.0
H1084 H 0.81346 0.50327 0.36416 0.0
H1085 H 0.84458 0.5017 0.43757 0.0
H1086 H 0.83237 0.55895 0.53887 0.0
H1087 H 0.8011 0.56059 0.46427 0.0
H1088 H 0.8687 0.55761 0.46824 0.0
H1089 H 0.86107 0.49257 0.66369 0.0
H1090 H 0.85441 0.48685 0.56422 0.0
H1091 H 0.83999 0.50456 0.61878 0.0
C1092 C 0.81708 0.51519 0.40432 0.0
C1093 C 0.80477 0.53195 0.40924 0.0
C1094 C 0.83489 0.51429 0.44639 0.0
C1095 C 0.84084 0.53012 0.49452 0.0
C1096 C 0.82807 0.54649 0.50258 0.0
H1097 H 0.95353 0.52407 0.7533 0.0
H1098 H 0.91846 0.52673 0.71852 0.0
C1099 C 0.81012 0.54735 0.46062 0.0
C1100 C 0.86132 0.53045 0.52818 0.0
H1101 H 0.89453 0.50281 0.63348 0.0
C1102 C 0.87425 0.54577 0.50539 0.0
C1103 C 0.86862 0.51515 0.57732 0.0
C1104 C 0.85524 0.49897 0.60813 0.0
C1105 C 0.89437 0.54579 0.5276 0.0
C1106 C 0.90198 0.52981 0.57249 0.0
C1107 C 0.88885 0.51493 0.59812 0.0
C1108 C 0.92348 0.52825 0.59317 0.0
C1109 C 0.90725 0.56302 0.50284 0.0
C1110 C 0.93813 0.52801 0.53433 0.0
C1111 C 0.95831 0.52673 0.554 0.0
C1112 C 0.96432 0.52537 0.63303 0.0
C1113 C 0.94956 0.52517 0.69175 0.0
C1114 C 0.92942 0.52663 0.67201 0.0
H1115 H 0.89825 0.57647 0.49074 0.0
H1116 H 0.91841 0.56665 0.54864 0.0
H1117 H 0.91521 0.5591 0.44797 0.0
H1118 H 0.93396 0.52872 0.47293 0.0
H1119 H 0.96917 0.52672 0.50714 0.0
loop_
_geom_bond_atom_site_label_1
_geom_bond_atom_site_label_2
_geom_bond_distance
_geom_bond_site_symmetry_2
_ccdc_geom_bond_type
H0 C5 0.930 . S
H1 C8 0.930 . S
H2 C10 0.930 . S
H3 C4 1.016 . S
C4 H3 1.016 . S
C4 N11 1.286 . S
C5 H0 0.930 . S
C5 C6 1.397 . S
C5 C7 1.361 . S
C6 C5 1.397 . S
C6 C10 1.390 . S
C7 C5 1.361 . S
C7 C8 1.393 . S
C7 N11 1.413 . S
C8 H1 0.930 . S
C8 C7 1.393 . S
C8 C9 1.399 . S
C9 C8 1.399 . S
C9 C10 1.381 . S
C10 H2 0.930 . S
C10 C6 1.390 . S
C10 C9 1.381 . S
N11 C4 1.286 . S
N11 C7 1.413 . S
H12 C17 0.930 . S
H13 C20 0.930 . S
H14 C22 0.930 . S
H15 C16 1.035 . S
C16 H15 1.035 . S
C16 N23 1.261 1_655 S
C17 H12 0.930 . S
C17 C18 1.403 . S
C17 C19 1.361 . S
C18 C17 1.403 . S
C18 C22 1.387 1_455 S
C19 C17 1.361 . S
C19 C20 1.393 . S
C19 N23 1.413 . S
C20 H13 0.930 . S
C20 C19 1.393 . S
C20 C21 1.399 . S
C21 C20 1.399 . S
C21 C22 1.381 1_455 S
C22 H14 0.930 . S
C22 C18 1.387 1_655 S
C22 C21 1.381 1_655 S
N23 C16 1.261 1_455 S
N23 C19 1.413 . S
H24 C29 0.930 . S
H25 C32 0.930 . S
H26 C34 0.930 . S
H27 C28 1.037 . S
C28 H27 1.037 . S
C28 N35 1.259 1_565 S
C29 H24 0.930 . S
C29 C30 1.402 . S
C29 C31 1.361 . S
C30 C29 1.402 . S
C30 C34 1.387 1_545 S
C31 C29 1.361 . S
C31 C32 1.393 . S
C31 N35 1.413 . S
C32 H25 0.930 . S
C32 C31 1.393 . S
C32 C33 1.398 . S
C33 C32 1.398 . S
C33 C34 1.381 1_545 S
C34 H26 0.930 . S
C34 C30 1.387 1_565 S
C34 C33 1.381 1_565 S
N35 C28 1.259 1_545 S
N35 C31 1.413 . S
H36 C41 0.930 . S
H37 C44 0.930 . S
H38 C46 0.930 . S
H39 C40 1.016 . S
C40 H39 1.016 . S
C40 N47 1.286 . S
C41 H36 0.930 . S
C41 C42 1.397 . S
C41 C43 1.361 . S
C42 C41 1.397 . S
C42 C46 1.390 . S
C43 C41 1.361 . S
C43 C44 1.393 . S
C43 N47 1.413 . S
C44 H37 0.930 . S
C44 C43 1.393 . S
C44 C45 1.399 . S
C45 C44 1.399 . S
C45 C46 1.381 . S
C46 H38 0.930 . S
C46 C42 1.390 . S
C46 C45 1.381 . S
N47 C40 1.286 . S
N47 C43 1.413 . S
H48 C53 0.930 . S
H49 C56 0.930 . S
H50 C58 0.929 1_556 S
H51 C52 1.016 . S
C52 H51 1.016 . S
C52 N59 1.286 . S
C53 H48 0.930 . S
C53 C54 1.397 . S
C53 C55 1.361 1_556 S
C54 C53 1.397 . S
C54 C58 1.390 1_556 S
C55 C53 1.361 1_554 S
C55 C56 1.393 . S
C55 N59 1.413 . S
C56 H49 0.930 . S
C56 C55 1.393 . S
C56 C57 1.399 . S
C57 C56 1.399 . S
C57 C58 1.381 . S
C58 H50 0.929 1_554 S
C58 C54 1.390 1_554 S
C58 C57 1.381 . S
N59 C52 1.286 . S
N59 C55 1.413 . S
H60 C65 0.930 . S
H61 C68 0.930 . S
H62 C70 0.931 1_556 S
H63 C64 1.011 1_655 S
C64 H63 1.011 1_455 S
C64 N71 1.286 . S
C65 H60 0.930 . S
C65 C66 1.397 . S
C65 C67 1.361 1_556 S
C66 C65 1.397 . S
C66 C70 1.390 1_556 S
C67 C65 1.361 1_554 S
C67 C68 1.393 . S
C67 N71 1.413 . S
C68 H61 0.930 . S
C68 C67 1.393 . S
C68 C69 1.399 . S
C69 C68 1.399 . S
C69 C70 1.381 . S
C70 H62 0.931 1_554 S
C70 C66 1.390 1_554 S
C70 C69 1.381 . S
N71 C64 1.286 . S
N71 C67 1.413 . S
H72 C77 0.930 . S
H73 C80 0.930 . S
H74 C82 0.931 1_556 S
H75 C76 1.010 1_565 S
C76 H75 1.010 1_545 S
C76 N83 1.286 . S
C77 H72 0.930 . S
C77 C78 1.397 . S
C77 C79 1.361 1_556 S
C78 C77 1.397 . S
C78 C82 1.390 1_556 S
C79 C77 1.361 1_554 S
C79 C80 1.393 . S
C79 N83 1.413 . S
C80 H73 0.930 . S
C80 C79 1.393 . S
C80 C81 1.399 . S
C81 C80 1.399 . S
C81 C82 1.381 . S
C82 H74 0.931 1_554 S
C82 C78 1.390 1_554 S
C82 C81 1.381 . S
N83 C76 1.286 . S
N83 C79 1.413 . S
H84 C89 0.930 . S
H85 C92 0.930 . S
H86 C94 0.929 1_556 S
H87 C88 1.016 . S
C88 H87 1.016 . S
C88 N95 1.286 . S
C89 H84 0.930 . S
C89 C90 1.397 . S
C89 C91 1.361 1_556 S
C90 C89 1.397 . S
C90 C94 1.390 1_556 S
C91 C89 1.361 1_554 S
C91 C92 1.393 . S
C91 N95 1.413 . S
C92 H85 0.930 . S
C92 C91 1.393 . S
C92 C93 1.399 . S
C93 C92 1.399 . S
C93 C94 1.381 . S
C94 H86 0.929 1_554 S
C94 C90 1.390 1_554 S
C94 C93 1.381 . S
N95 C88 1.286 . S
N95 C91 1.413 . S
Ho96 C99 2.811 . S
Ho96 O116 2.322 . S
Ho96 O118 2.378 . S
Ho96 O119 2.543 . S
Ho96 O120 2.381 . S
Ho96 O121 2.669 1_565 S
Ho96 O123 2.346 1_565 S
Ho96 O127 2.305 1_455 S
Ho97 C108 2.811 . S
Ho97 O117 2.346 1_545 S
Ho97 O121 2.305 1_655 S
Ho97 O122 2.322 . S
Ho97 O124 2.378 . S
Ho97 O125 2.524 1_655 S
Ho97 O126 2.381 . S
Ho97 O127 2.669 1_545 S
C98 O116 1.259 1_655 S
C98 O117 1.268 . S
C99 Ho96 2.811 . S
C99 C100 1.488 . S
C99 O118 1.215 . S
C99 O119 1.331 . S
C100 C99 1.488 . S
C100 C101 1.348 . S
C100 C105 1.413 . S
C101 C100 1.348 . S
C101 C102 1.442 . S
C101 H128 0.930 1_455 S
C102 C101 1.442 . S
C102 C103 1.381 . S
C102 H129 0.931 1_455 S
C103 C102 1.381 . S
C103 C104 1.321 . S
C104 C103 1.321 . S
C104 C105 1.403 . S
C104 H130 0.934 . S
C105 C100 1.413 . S
C105 C104 1.403 . S
C105 H131 0.930 . S
C106 O120 1.275 1_545 S
C106 O121 1.256 . S
C107 O122 1.259 1_455 S
C107 O123 1.268 . S
C108 Ho97 2.811 . S
C108 C109 1.488 . S
C108 O124 1.215 . S
C108 O125 1.289 1_655 S
C109 C108 1.488 . S
C109 C110 1.325 1_655 S
C109 C114 1.413 . S
C110 C109 1.325 1_455 S
C110 C111 1.439 1_455 S
C110 H132 0.957 . S
C111 C110 1.439 1_655 S
C111 C112 1.381 . S
C111 H133 0.931 1_655 S
C112 C111 1.381 . S
C112 C113 1.321 . S
C113 C112 1.321 . S
C113 C114 1.403 . S
C113 H134 0.934 . S
C114 C109 1.413 . S
C114 C113 1.403 . S
C114 H135 0.930 . S
C115 O126 1.275 . S
C115 O127 1.256 1_545 S
O116 Ho96 2.322 . S
O116 C98 1.259 1_455 S
O117 Ho97 2.346 1_565 S
O117 C98 1.268 . S
O118 Ho96 2.378 . S
O118 C99 1.215 . S
O119 Ho96 2.543 . S
O119 C99 1.331 . S
O120 Ho96 2.381 . S
O120 C106 1.275 1_565 S
O121 Ho96 2.669 1_545 S
O121 Ho97 2.305 1_455 S
O121 C106 1.256 . S
O122 Ho97 2.322 . S
O122 C107 1.259 1_655 S
O123 Ho96 2.346 1_545 S
O123 C107 1.268 . S
O124 Ho97 2.378 . S
O124 C108 1.215 . S
O125 Ho97 2.524 1_455 S
O125 C108 1.289 1_455 S
O126 Ho97 2.381 . S
O126 C115 1.275 . S
O127 Ho96 2.305 1_655 S
O127 Ho97 2.669 1_565 S
O127 C115 1.256 1_565 S
H128 C101 0.930 1_655 S
H129 C102 0.931 1_655 S
H130 C104 0.934 . S
H131 C105 0.930 . S
H132 C110 0.957 . S
H133 C111 0.931 1_455 S
H134 C113 0.934 . S
H135 C114 0.930 . S
Ho136 C139 2.811 . S
Ho136 O156 2.322 . S
Ho136 O158 2.378 . S
Ho136 O159 2.541 . S
Ho136 O160 2.381 . S
Ho136 O161 2.669 . S
Ho136 O163 2.346 . S
Ho136 O167 2.305 1_545 S
Ho137 C148 2.811 . S
Ho137 O157 2.346 . S
Ho137 O161 2.305 1_565 S
Ho137 O162 2.322 . S
Ho137 O164 2.378 . S
Ho137 O165 2.524 1_565 S
Ho137 O166 2.381 . S
Ho137 O167 2.669 . S
C138 O156 1.259 1_565 S
C138 O157 1.268 . S
C139 Ho136 2.811 . S
C139 C140 1.488 . S
C139 O158 1.215 . S
C139 O159 1.327 . S
C140 C139 1.488 . S
C140 C141 1.348 . S
C140 C145 1.413 . S
C141 C140 1.348 . S
C141 C142 1.442 . S
C141 H168 0.930 1_545 S
C142 C141 1.442 . S
C142 C143 1.381 . S
C142 H169 0.931 1_545 S
C143 C142 1.381 . S
C143 C144 1.321 . S
C144 C143 1.321 . S
C144 C145 1.403 . S
C144 H170 0.934 . S
C145 C140 1.413 . S
C145 C144 1.403 . S
C145 H171 0.930 . S
C146 O160 1.275 . S
C146 O161 1.256 . S
C147 O162 1.259 1_545 S
C147 O163 1.268 . S
C148 Ho137 2.811 . S
C148 C149 1.488 . S
C148 O164 1.215 . S
C148 O165 1.289 1_565 S
C149 C148 1.488 . S
C149 C150 1.327 1_565 S
C149 C154 1.413 . S
C150 C149 1.327 1_545 S
C150 C151 1.439 1_545 S
C150 H172 0.954 . S
C151 C150 1.439 1_565 S
C151 C152 1.381 . S
C151 H173 0.931 1_565 S
C152 C151 1.381 . S
C152 C153 1.321 . S
C153 C152 1.321 . S
C153 C154 1.403 . S
C153 H174 0.934 . S
C154 C149 1.413 . S
C154 C153 1.403 . S
C154 H175 0.930 . S
C155 O166 1.275 . S
C155 O167 1.256 . S
O156 Ho136 2.322 . S
O156 C138 1.259 1_545 S
O157 Ho137 2.346 . S
O157 C138 1.268 . S
O158 Ho136 2.378 . S
O158 C139 1.215 . S
O159 Ho136 2.541 . S
O159 C139 1.327 . S
O160 Ho136 2.381 . S
O160 C146 1.275 . S
O161 Ho136 2.669 . S
O161 Ho137 2.305 1_545 S
O161 C146 1.256 . S
O162 Ho137 2.322 . S
O162 C147 1.259 1_565 S
O163 Ho136 2.346 . S
O163 C147 1.268 . S
O164 Ho137 2.378 . S
O164 C148 1.215 . S
O165 Ho137 2.524 1_545 S
O165 C148 1.289 1_545 S
O166 Ho137 2.381 . S
O166 C155 1.275 . S
O167 Ho136 2.305 1_565 S
O167 Ho137 2.669 . S
O167 C155 1.256 . S
H168 C141 0.930 1_565 S
H169 C142 0.931 1_565 S
H170 C144 0.934 . S
H171 C145 0.930 . S
H172 C150 0.954 . S
H173 C151 0.931 1_545 S
H174 C153 0.934 . S
H175 C154 0.930 . S
Ho176 C179 2.811 . S
Ho176 O196 2.322 . S
Ho176 O198 2.378 . S
Ho176 O199 2.524 . S
Ho176 O200 2.381 . S
Ho176 O201 2.669 . S
Ho176 O203 2.346 . S
Ho176 O207 2.305 . S
Ho177 C188 2.811 . S
Ho177 O197 2.346 . S
Ho177 O201 2.305 . S
Ho177 O202 2.322 . S
Ho177 O204 2.378 . S
Ho177 O205 2.524 . S
Ho177 O206 2.381 . S
Ho177 O207 2.669 . S
C178 O196 1.259 . S
C178 O197 1.268 . S
C179 Ho176 2.811 . S
C179 C180 1.488 . S
C179 O198 1.215 . S
C179 O199 1.289 . S
C180 C179 1.488 . S
C180 C181 1.348 . S
C180 C185 1.413 . S
C181 C180 1.348 . S
C181 C182 1.442 . S
C181 H208 0.930 . S
C182 C181 1.442 . S
C182 C183 1.381 . S
C182 H209 0.931 . S
C183 C182 1.381 . S
C183 C184 1.321 . S
C184 C183 1.321 . S
C184 C185 1.403 . S
C184 H210 0.934 . S
C185 C180 1.413 . S
C185 C184 1.403 . S
C185 H211 0.930 . S
C186 O200 1.275 . S
C186 O201 1.256 . S
C187 O202 1.259 . S
C187 O203 1.268 . S
C188 Ho177 2.811 . S
C188 C189 1.488 . S
C188 O204 1.215 . S
C188 O205 1.289 . S
C189 C188 1.488 . S
C189 C190 1.348 . S
C189 C194 1.413 . S
C190 C189 1.348 . S
C190 C191 1.442 . S
C190 H212 0.930 . S
C191 C190 1.442 . S
C191 C192 1.381 . S
C191 H213 0.931 . S
C192 C191 1.381 . S
C192 C193 1.321 . S
C193 C192 1.321 . S
C193 C194 1.403 . S
C193 H214 0.934 . S
C194 C189 1.413 . S
C194 C193 1.403 . S
C194 H215 0.930 . S
C195 O206 1.275 . S
C195 O207 1.256 . S
O196 Ho176 2.322 . S
O196 C178 1.259 . S
O197 Ho177 2.346 . S
O197 C178 1.268 . S
O198 Ho176 2.378 . S
O198 C179 1.215 . S
O199 Ho176 2.524 . S
O199 C179 1.289 . S
O200 Ho176 2.381 . S
O200 C186 1.275 . S
O201 Ho176 2.669 . S
O201 Ho177 2.305 . S
O201 C186 1.256 . S
O202 Ho177 2.322 . S
O202 C187 1.259 . S
O203 Ho176 2.346 . S
O203 C187 1.268 . S
O204 Ho177 2.378 . S
O204 C188 1.215 . S
O205 Ho177 2.524 . S
O205 C188 1.289 . S
O206 Ho177 2.381 . S
O206 C195 1.275 . S
O207 Ho176 2.305 . S
O207 Ho177 2.669 . S
O207 C195 1.256 . S
H208 C181 0.930 . S
H209 C182 0.931 . S
H210 C184 0.934 . S
H211 C185 0.930 . S
H212 C190 0.930 . S
H213 C191 0.931 . S
H214 C193 0.934 . S
H215 C194 0.930 . S
Ho216 C219 2.811 . S
Ho216 O236 2.322 . S
Ho216 O238 2.378 . S
Ho216 O239 2.524 . S
Ho216 O240 2.381 . S
Ho216 O241 2.669 1_655 S
Ho216 O243 2.346 1_655 S
Ho216 O247 2.305 . S
Ho217 C228 2.811 . S
Ho217 O237 2.346 1_455 S
Ho217 O241 2.305 . S
Ho217 O242 2.322 . S
Ho217 O244 2.378 . S
Ho217 O245 2.524 . S
Ho217 O246 2.381 . S
Ho217 O247 2.669 1_455 S
C218 O236 1.259 . S
C218 O237 1.268 . S
C219 Ho216 2.811 . S
C219 C220 1.488 . S
C219 O238 1.215 . S
C219 O239 1.289 . S
C220 C219 1.488 . S
C220 C221 1.348 . S
C220 C225 1.413 . S
C221 C220 1.348 . S
C221 C222 1.442 . S
C221 H248 0.930 . S
C222 C221 1.442 . S
C222 C223 1.381 . S
C222 H249 0.931 . S
C223 C222 1.381 . S
C223 C224 1.321 . S
C224 C223 1.321 . S
C224 C225 1.403 . S
C224 H250 0.934 . S
C225 C220 1.413 . S
C225 C224 1.403 . S
C225 H251 0.930 . S
C226 O240 1.275 1_455 S
C226 O241 1.256 . S
C227 O242 1.259 . S
C227 O243 1.268 . S
C228 Ho217 2.811 . S
C228 C229 1.488 . S
C228 O244 1.215 . S
C228 O245 1.289 . S
C229 C228 1.488 . S
C229 C230 1.348 . S
C229 C234 1.413 . S
C230 C229 1.348 . S
C230 C231 1.442 . S
C230 H252 0.930 . S
C231 C230 1.442 . S
C231 C232 1.381 . S
C231 H253 0.931 . S
C232 C231 1.381 . S
C232 C233 1.321 . S
C233 C232 1.321 . S
C233 C234 1.403 . S
C233 H254 0.934 . S
C234 C229 1.413 . S
C234 C233 1.403 . S
C234 H255 0.930 . S
C235 O246 1.275 . S
C235 O247 1.256 1_455 S
O236 Ho216 2.322 . S
O236 C218 1.259 . S
O237 Ho217 2.346 1_655 S
O237 C218 1.268 . S
O238 Ho216 2.378 . S
O238 C219 1.215 . S
O239 Ho216 2.524 . S
O239 C219 1.289 . S
O240 Ho216 2.381 . S
O240 C226 1.275 1_655 S
O241 Ho216 2.669 1_455 S
O241 Ho217 2.305 . S
O241 C226 1.256 . S
O242 Ho217 2.322 . S
O242 C227 1.259 . S
O243 Ho216 2.346 1_455 S
O243 C227 1.268 . S
O244 Ho217 2.378 . S
O244 C228 1.215 . S
O245 Ho217 2.524 . S
O245 C228 1.289 . S
O246 Ho217 2.381 . S
O246 C235 1.275 . S
O247 Ho216 2.305 . S
O247 Ho217 2.669 1_655 S
O247 C235 1.256 1_655 S
H248 C221 0.930 . S
H249 C222 0.931 . S
H250 C224 0.934 . S
H251 C225 0.930 . S
H252 C230 0.930 . S
H253 C231 0.931 . S
H254 C233 0.934 . S
H255 C234 0.930 . S
H256 C264 0.929 . S
H257 C266 0.930 . S
H258 C268 0.930 . S
H259 C271 0.929 . S
H260 C274 0.930 . S
H261 C276 0.960 . S
H262 C276 0.960 . S
H263 C276 0.960 . S
C264 H256 0.929 . S
C264 C265 1.377 . S
C264 C266 1.384 . S
C265 C264 1.377 . S
C265 C271 1.390 1_545 S
C266 H257 0.930 . S
C266 C264 1.384 . S
C266 C267 1.372 . S
C267 C266 1.372 . S
C267 C268 1.400 1_545 S
C267 C272 1.490 . S
C268 H258 0.930 . S
C268 C267 1.400 1_565 S
C268 C271 1.386 . S
H269 C285 0.930 . S
H270 C286 0.931 . S
C271 H259 0.929 . S
C271 C265 1.390 1_565 S
C271 C268 1.386 . S
C272 C267 1.490 . S
C272 C274 1.395 . S
C272 C275 1.403 1_545 S
H273 C279 0.930 . S
C274 H260 0.930 . S
C274 C272 1.395 . S
C274 C277 1.403 . S
C275 C272 1.403 1_565 S
C275 C276 1.524 . S
C275 C279 1.400 . S
C276 H261 0.960 . S
C276 H262 0.960 . S
C276 H263 0.960 . S
C276 C275 1.524 . S
C277 C274 1.403 . S
C277 C278 1.392 . S
C277 C281 1.495 . S
C278 C277 1.392 . S
C278 C279 1.385 1_545 S
C278 C280 1.478 . S
C279 H273 0.930 . S
C279 C275 1.400 . S
C279 C278 1.385 1_565 S
C280 C278 1.478 . S
C280 C282 1.381 . S
C280 C286 1.383 1_545 S
C281 C277 1.495 . S
C281 H287 0.959 . S
C281 H288 0.961 . S
C281 H289 0.960 . S
C282 C280 1.381 . S
C282 C283 1.394 . S
C282 H290 0.930 . S
C283 C282 1.394 . S
C283 C284 1.383 . S
C283 H291 0.929 . S
C284 C283 1.383 . S
C284 C285 1.377 1_545 S
C285 H269 0.930 . S
C285 C284 1.377 1_565 S
C285 C286 1.379 . S
C286 H270 0.931 . S
C286 C280 1.383 1_565 S
C286 C285 1.379 . S
H287 C281 0.959 . S
H288 C281 0.961 . S
H289 C281 0.960 . S
H290 C282 0.930 . S
H291 C283 0.929 . S
H292 C300 0.929 . S
H293 C302 0.930 . S
H294 C304 0.930 . S
H295 C307 0.929 . S
H296 C310 0.930 . S
H297 C312 0.960 . S
H298 C312 0.960 . S
H299 C312 0.960 . S
C300 H292 0.929 . S
C300 C301 1.377 . S
C300 C302 1.384 . S
C301 C300 1.377 . S
C301 C307 1.390 . S
C302 H293 0.930 . S
C302 C300 1.384 . S
C302 C303 1.372 . S
C303 C302 1.372 . S
C303 C304 1.400 . S
C303 C308 1.490 . S
C304 H294 0.930 . S
C304 C303 1.400 . S
C304 C307 1.386 . S
H305 C321 0.930 . S
H306 C322 0.931 . S
C307 H295 0.929 . S
C307 C301 1.390 . S
C307 C304 1.386 . S
C308 C303 1.490 . S
C308 C310 1.395 . S
C308 C311 1.403 . S
H309 C315 0.930 . S
C310 H296 0.930 . S
C310 C308 1.395 . S
C310 C313 1.403 . S
C311 C308 1.403 . S
C311 C312 1.524 . S
C311 C315 1.400 . S
C312 H297 0.960 . S
C312 H298 0.960 . S
C312 H299 0.960 . S
C312 C311 1.524 . S
C313 C310 1.403 . S
C313 C314 1.392 . S
C313 C317 1.495 . S
C314 C313 1.392 . S
C314 C315 1.385 . S
C314 C316 1.478 . S
C315 H309 0.930 . S
C315 C311 1.400 . S
C315 C314 1.385 . S
C316 C314 1.478 . S
C316 C318 1.381 . S
C316 C322 1.383 . S
C317 C313 1.495 . S
C317 H323 0.959 . S
C317 H324 0.961 . S
C317 H325 0.960 . S
C318 C316 1.381 . S
C318 C319 1.394 . S
C318 H326 0.930 . S
C319 C318 1.394 . S
C319 C320 1.383 . S
C319 H327 0.929 . S
C320 C319 1.383 . S
C320 C321 1.377 . S
C321 H305 0.930 . S
C321 C320 1.377 . S
C321 C322 1.379 . S
C322 H306 0.931 . S
C322 C316 1.383 . S
C322 C321 1.379 . S
H323 C317 0.959 . S
H324 C317 0.961 . S
H325 C317 0.960 . S
H326 C318 0.930 . S
H327 C319 0.929 . S
H328 C336 0.929 . S
H329 C338 0.930 . S
H330 C340 0.930 . S
H331 C343 0.929 . S
H332 C346 0.930 . S
H333 C348 0.960 . S
H334 C348 0.960 . S
H335 C348 0.960 . S
C336 H328 0.929 . S
C336 C337 1.377 . S
C336 C338 1.384 . S
C337 C336 1.377 . S
C337 C343 1.390 . S
C338 H329 0.930 . S
C338 C336 1.384 . S
C338 C339 1.372 . S
C339 C338 1.372 . S
C339 C340 1.400 . S
C339 C344 1.490 . S
C340 H330 0.930 . S
C340 C339 1.400 . S
C340 C343 1.386 . S
H341 C357 0.930 . S
H342 C358 0.931 . S
C343 H331 0.929 . S
C343 C337 1.390 . S
C343 C340 1.386 . S
C344 C339 1.490 . S
C344 C346 1.395 . S
C344 C347 1.403 . S
H345 C351 0.930 . S
C346 H332 0.930 . S
C346 C344 1.395 . S
C346 C349 1.403 . S
C347 C344 1.403 . S
C347 C348 1.524 . S
C347 C351 1.400 . S
C348 H333 0.960 . S
C348 H334 0.960 . S
C348 H335 0.960 . S
C348 C347 1.524 . S
C349 C346 1.403 . S
C349 C350 1.392 . S
C349 C353 1.495 . S
C350 C349 1.392 . S
C350 C351 1.385 . S
C350 C352 1.478 . S
C351 H345 0.930 . S
C351 C347 1.400 . S
C351 C350 1.385 . S
C352 C350 1.478 . S
C352 C354 1.381 . S
C352 C358 1.383 . S
C353 C349 1.495 . S
C353 H359 0.959 . S
C353 H360 0.961 . S
C353 H361 0.960 . S
C354 C352 1.381 . S
C354 C355 1.394 . S
C354 H362 0.930 . S
C355 C354 1.394 . S
C355 C356 1.383 . S
C355 H363 0.929 . S
C356 C355 1.383 . S
C356 C357 1.377 . S
C357 H341 0.930 . S
C357 C356 1.377 . S
C357 C358 1.379 . S
C358 H342 0.931 . S
C358 C352 1.383 . S
C358 C357 1.379 . S
H359 C353 0.959 . S
H360 C353 0.961 . S
H361 C353 0.960 . S
H362 C354 0.930 . S
H363 C355 0.929 . S
H364 C372 0.929 . S
H365 C374 0.930 . S
H366 C376 0.930 . S
H367 C379 0.929 . S
H368 C382 0.930 . S
H369 C384 0.960 . S
H370 C384 0.960 . S
H371 C384 0.960 . S
C372 H364 0.929 . S
C372 C373 1.377 . S
C372 C374 1.384 . S
C373 C372 1.377 . S
C373 C379 1.390 . S
C374 H365 0.930 . S
C374 C372 1.384 . S
C374 C375 1.372 . S
C375 C374 1.372 . S
C375 C376 1.400 . S
C375 C380 1.490 . S
C376 H366 0.930 . S
C376 C375 1.400 . S
C376 C379 1.386 . S
H377 C393 0.932 . S
H378 C394 0.931 . S
C379 H367 0.929 . S
C379 C373 1.390 . S
C379 C376 1.386 . S
C380 C375 1.490 . S
C380 C382 1.395 1_455 S
C380 C383 1.403 . S
H381 C387 0.930 . S
C382 H368 0.930 . S
C382 C380 1.395 1_655 S
C382 C385 1.403 . S
C383 C380 1.403 . S
C383 C384 1.524 . S
C383 C387 1.400 . S
C384 H369 0.960 . S
C384 H370 0.960 . S
C384 H371 0.960 . S
C384 C383 1.524 . S
C385 C382 1.403 . S
C385 C386 1.352 1_655 S
C385 C389 1.495 . S
C386 C385 1.352 1_455 S
C386 C387 1.429 . S
C386 C388 1.477 . S
C387 H381 0.930 . S
C387 C383 1.400 . S
C387 C386 1.429 . S
C388 C386 1.477 . S
C388 C390 1.383 . S
C388 C394 1.382 1_455 S
C389 C385 1.495 . S
C389 H395 0.959 . S
C389 H396 0.961 . S
C389 H397 0.960 . S
C390 C388 1.383 . S
C390 C391 1.394 . S
C390 H398 0.930 . S
C391 C390 1.394 . S
C391 C392 1.383 . S
C391 H399 0.929 . S
C392 C391 1.383 . S
C392 C393 1.377 . S
C393 H377 0.932 . S
C393 C392 1.377 . S
C393 C394 1.380 1_455 S
C394 H378 0.931 . S
C394 C388 1.382 1_655 S
C394 C393 1.380 1_655 S
H395 C389 0.959 . S
H396 C389 0.961 . S
H397 C389 0.960 . S
H398 C390 0.930 . S
H399 C391 0.929 . S
H400 C408 0.929 . S
H401 C410 0.930 1_545 S
H402 C412 0.933 . S
H403 C415 0.931 . S
H404 C418 0.930 . S
H405 C420 0.960 . S
H406 C420 0.960 . S
H407 C420 0.960 . S
C408 H400 0.929 . S
C408 C409 1.377 . S
C408 C410 1.384 . S
C409 C408 1.377 . S
C409 C415 1.390 . S
C410 H401 0.930 1_565 S
C410 C408 1.384 . S
C410 C411 1.372 . S
C411 C410 1.372 . S
C411 C412 1.399 . S
C411 C416 1.489 1_565 S
C412 H402 0.933 . S
C412 C411 1.399 . S
C412 C415 1.386 . S
H413 C429 0.930 . S
H414 C430 0.931 1_554 S
C415 H403 0.931 . S
C415 C409 1.390 . S
C415 C412 1.386 . S
C416 C411 1.489 1_545 S
C416 C418 1.413 . S
C416 C419 1.385 1_545 S
H417 C423 0.930 . S
C418 H404 0.930 . S
C418 C416 1.413 . S
C418 C421 1.403 1_554 S
C419 C416 1.385 1_565 S
C419 C420 1.524 . S
C419 C423 1.400 . S
C420 H405 0.960 . S
C420 H406 0.960 . S
C420 H407 0.960 . S
C420 C419 1.524 . S
C421 C418 1.403 1_556 S
C421 C422 1.392 . S
C421 C425 1.495 . S
C422 C421 1.392 . S
C422 C423 1.385 1_546 S
C422 C424 1.478 . S
C423 H417 0.930 . S
C423 C419 1.400 . S
C423 C422 1.385 1_564 S
C424 C422 1.478 . S
C424 C426 1.381 . S
C424 C430 1.383 . S
C425 C421 1.495 . S
C425 H431 0.959 . S
C425 H432 0.961 . S
C425 H433 0.960 . S
C426 C424 1.381 . S
C426 C427 1.397 . S
C426 H434 0.930 . S
C427 C426 1.397 . S
C427 C428 1.386 . S
C427 H435 0.923 1_545 S
C428 C427 1.386 . S
C428 C429 1.377 . S
C429 H413 0.930 . S
C429 C428 1.377 . S
C429 C430 1.379 . S
C430 H414 0.931 1_556 S
C430 C424 1.383 . S
C430 C429 1.379 . S
H431 C425 0.959 . S
H432 C425 0.961 . S
H433 C425 0.960 . S
H434 C426 0.930 . S
H435 C427 0.923 1_565 S
H436 C444 0.929 . S
H437 C446 0.930 . S
H438 C448 0.930 . S
H439 C451 0.929 . S
H440 C454 0.930 . S
H441 C456 0.946 1_556 S
H442 C456 0.967 . S
H443 C456 0.962 . S
C444 H436 0.929 . S
C444 C445 1.377 . S
C444 C446 1.384 . S
C445 C444 1.377 . S
C445 C451 1.390 . S
C446 H437 0.930 . S
C446 C444 1.384 . S
C446 C447 1.372 . S
C447 C446 1.372 . S
C447 C448 1.400 . S
C447 C452 1.490 . S
C448 H438 0.930 . S
C448 C447 1.400 . S
C448 C451 1.386 . S
H449 C465 0.930 . S
H450 C466 0.931 . S
C451 H439 0.929 . S
C451 C445 1.390 . S
C451 C448 1.386 . S
C452 C447 1.490 . S
C452 C454 1.395 . S
C452 C455 1.403 . S
H453 C459 0.930 . S
C454 H440 0.930 . S
C454 C452 1.395 . S
C454 C457 1.403 . S
C455 C452 1.403 . S
C455 C456 1.529 . S
C455 C459 1.400 1_554 S
C456 H441 0.946 1_554 S
C456 H442 0.967 . S
C456 H443 0.962 . S
C456 C455 1.529 . S
C457 C454 1.403 . S
C457 C458 1.392 . S
C457 C461 1.495 . S
C458 C457 1.392 . S
C458 C459 1.385 1_554 S
C458 C460 1.478 1_554 S
C459 H453 0.930 . S
C459 C455 1.400 1_556 S
C459 C458 1.385 1_556 S
C460 C458 1.478 1_556 S
C460 C462 1.381 . S
C460 C466 1.383 . S
C461 C457 1.495 . S
C461 H467 0.959 . S
C461 H468 0.961 . S
C461 H469 0.960 . S
C462 C460 1.381 . S
C462 C463 1.394 . S
C462 H470 0.930 . S
C463 C462 1.394 . S
C463 C464 1.383 . S
C463 H471 0.929 . S
C464 C463 1.383 . S
C464 C465 1.377 . S
C465 H449 0.930 . S
C465 C464 1.377 . S
C465 C466 1.379 . S
C466 H450 0.931 . S
C466 C460 1.383 . S
C466 C465 1.379 . S
H467 C461 0.959 . S
H468 C461 0.961 . S
H469 C461 0.960 . S
H470 C462 0.930 . S
H471 C463 0.929 . S
H472 C480 0.929 . S
H473 C482 0.930 . S
H474 C484 0.930 . S
H475 C487 0.929 . S
H476 C490 0.930 . S
H477 C492 0.960 1_556 S
H478 C492 0.960 . S
H479 C492 0.960 . S
C480 H472 0.929 . S
C480 C481 1.377 . S
C480 C482 1.384 . S
C481 C480 1.377 . S
C481 C487 1.390 . S
C482 H473 0.930 . S
C482 C480 1.384 . S
C482 C483 1.372 . S
C483 C482 1.372 . S
C483 C484 1.400 . S
C483 C488 1.490 . S
C484 H474 0.930 . S
C484 C483 1.400 . S
C484 C487 1.386 . S
H485 C501 0.930 . S
H486 C502 0.931 . S
C487 H475 0.929 . S
C487 C481 1.390 . S
C487 C484 1.386 . S
C488 C483 1.490 . S
C488 C490 1.395 . S
C488 C491 1.403 . S
H489 C495 0.930 . S
C490 H476 0.930 . S
C490 C488 1.395 . S
C490 C493 1.403 . S
C491 C488 1.403 . S
C491 C492 1.524 . S
C491 C495 1.400 1_554 S
C492 H477 0.960 1_554 S
C492 H478 0.960 . S
C492 H479 0.960 . S
C492 C491 1.524 . S
C493 C490 1.403 . S
C493 C494 1.392 . S
C493 C497 1.495 . S
C494 C493 1.392 . S
C494 C495 1.385 1_554 S
C494 C496 1.478 1_554 S
C495 H489 0.930 . S
C495 C491 1.400 1_556 S
C495 C494 1.385 1_556 S
C496 C494 1.478 1_556 S
C496 C498 1.381 . S
C496 C502 1.383 . S
C497 C493 1.495 . S
C497 H503 0.959 . S
C497 H504 0.961 . S
C497 H505 0.960 . S
C498 C496 1.381 . S
C498 C499 1.394 . S
C498 H506 0.930 1_556 S
C499 C498 1.394 . S
C499 C500 1.383 . S
C499 H507 0.929 . S
C500 C499 1.383 . S
C500 C501 1.377 . S
C501 H485 0.930 . S
C501 C500 1.377 . S
C501 C502 1.379 . S
C502 H486 0.931 . S
C502 C496 1.383 . S
C502 C501 1.379 . S
H503 C497 0.959 . S
H504 C497 0.961 . S
H505 C497 0.960 . S
H506 C498 0.930 1_554 S
H507 C499 0.929 . S
H508 C516 0.929 . S
H509 C518 0.930 . S
H510 C520 0.930 . S
H511 C523 0.929 . S
H512 C526 0.930 . S
H513 C528 0.960 . S
H514 C528 0.960 . S
H515 C528 0.960 . S
C516 H508 0.929 . S
C516 C517 1.369 1_455 S
C516 C518 1.384 . S
C517 C516 1.369 1_655 S
C517 C523 1.398 . S
C518 H509 0.930 . S
C518 C516 1.384 . S
C518 C519 1.386 . S
C519 C518 1.386 . S
C519 C520 1.385 1_455 S
C519 C524 1.491 . S
C520 H510 0.930 . S
C520 C519 1.385 1_655 S
C520 C523 1.386 . S
H521 C537 0.930 . S
H522 C538 0.931 1_554 S
C523 H511 0.929 . S
C523 C517 1.398 . S
C523 C520 1.386 . S
C524 C519 1.491 . S
C524 C526 1.395 . S
C524 C527 1.403 1_455 S
H525 C531 0.930 1_556 S
C526 H512 0.930 . S
C526 C524 1.395 . S
C526 C529 1.403 . S
C527 C524 1.403 1_655 S
C527 C528 1.524 . S
C527 C531 1.400 . S
C528 H513 0.960 . S
C528 H514 0.960 . S
C528 H515 0.960 . S
C528 C527 1.524 . S
C529 C526 1.403 . S
C529 C530 1.392 1_554 S
C529 C533 1.495 . S
C530 C529 1.392 1_556 S
C530 C531 1.385 1_456 S
C530 C532 1.478 . S
C531 H525 0.930 1_554 S
C531 C527 1.400 . S
C531 C530 1.385 1_654 S
C532 C530 1.478 . S
C532 C534 1.381 . S
C532 C538 1.383 1_455 S
C533 C529 1.495 . S
C533 H539 0.959 . S
C533 H540 0.961 . S
C533 H541 0.960 1_554 S
C534 C532 1.381 . S
C534 C535 1.394 . S
C534 H542 0.930 . S
C535 C534 1.394 . S
C535 C536 1.383 . S
C535 H543 0.929 . S
C536 C535 1.383 . S
C536 C537 1.377 1_455 S
C537 H521 0.930 . S
C537 C536 1.377 1_655 S
C537 C538 1.379 . S
C538 H522 0.931 1_556 S
C538 C532 1.383 1_655 S
C538 C537 1.379 . S
H539 C533 0.959 . S
H540 C533 0.961 . S
H541 C533 0.960 1_556 S
H542 C534 0.930 . S
H543 C535 0.929 . S
H544 C552 0.929 . S
H545 C554 0.930 . S
H546 C556 0.930 . S
H547 C559 0.929 . S
H548 C562 0.930 . S
H549 C564 0.960 . S
H550 C564 0.962 1_655 S
H551 C564 0.960 . S
C552 H544 0.929 . S
C552 C553 1.377 1_655 S
C552 C554 1.384 . S
C553 C552 1.377 1_455 S
C553 C559 1.390 . S
C554 H545 0.930 . S
C554 C552 1.384 . S
C554 C555 1.372 . S
C555 C554 1.372 . S
C555 C556 1.400 1_655 S
C555 C560 1.490 . S
C556 H546 0.930 . S
C556 C555 1.400 1_455 S
C556 C559 1.386 . S
H557 C573 0.930 1_455 S
H558 C574 0.931 1_455 S
C559 H547 0.929 . S
C559 C553 1.390 . S
C559 C556 1.386 . S
C560 C555 1.490 . S
C560 C562 1.395 . S
C560 C563 1.418 . S
H561 C567 0.930 . S
C562 H548 0.930 . S
C562 C560 1.395 . S
C562 C565 1.403 . S
C563 C560 1.418 . S
C563 C564 1.501 1_655 S
C563 C567 1.412 . S
C564 H549 0.960 . S
C564 H550 0.962 1_455 S
C564 H551 0.960 . S
C564 C563 1.501 1_455 S
C565 C562 1.403 . S
C565 C566 1.392 . S
C565 C569 1.495 . S
C566 C565 1.392 . S
C566 C567 1.385 . S
C566 C568 1.478 . S
C567 H561 0.930 . S
C567 C563 1.412 . S
C567 C566 1.385 . S
C568 C566 1.478 . S
C568 C570 1.381 . S
C568 C574 1.383 . S
C569 C565 1.495 . S
C569 H575 0.959 . S
C569 H576 0.961 . S
C569 H577 0.960 . S
C570 C568 1.381 . S
C570 C571 1.394 . S
C570 H578 0.930 . S
C571 C570 1.394 . S
C571 C572 1.383 . S
C571 H579 0.929 . S
C572 C571 1.383 . S
C572 C573 1.377 . S
C573 H557 0.930 1_655 S
C573 C572 1.377 . S
C573 C574 1.379 . S
C574 H558 0.931 1_655 S
C574 C568 1.383 . S
C574 C573 1.379 . S
H575 C569 0.959 . S
H576 C569 0.961 . S
H577 C569 0.960 . S
H578 C570 0.930 . S
H579 C571 0.929 . S
H580 C588 0.929 . S
H581 C590 0.930 . S
H582 C592 0.930 . S
H583 C595 0.929 . S
H584 C598 0.942 . S
H585 C600 0.960 . S
H586 C600 0.960 1_545 S
H587 C600 0.960 . S
C588 H580 0.929 . S
C588 C589 1.377 . S
C588 C590 1.384 . S
C589 C588 1.377 . S
C589 C595 1.390 1_545 S
C590 H581 0.930 . S
C590 C588 1.384 . S
C590 C591 1.372 1_545 S
C591 C590 1.372 1_565 S
C591 C592 1.400 . S
C591 C596 1.490 . S
C592 H582 0.930 . S
C592 C591 1.400 . S
C592 C595 1.386 . S
H593 C609 0.930 . S
H594 C610 0.931 . S
C595 H583 0.929 . S
C595 C589 1.390 1_565 S
C595 C592 1.386 . S
C596 C591 1.490 . S
C596 C598 1.395 . S
C596 C599 1.403 . S
H597 C603 0.930 . S
C598 H584 0.942 . S
C598 C596 1.395 . S
C598 C601 1.403 . S
C599 C596 1.403 . S
C599 C600 1.524 . S
C599 C603 1.400 . S
C600 H585 0.960 . S
C600 H586 0.960 1_565 S
C600 H587 0.960 . S
C600 C599 1.524 . S
C601 C598 1.403 . S
C601 C602 1.392 . S
C601 C605 1.495 . S
C602 C601 1.392 . S
C602 C603 1.385 . S
C602 C604 1.478 . S
C603 H597 0.930 . S
C603 C599 1.400 . S
C603 C602 1.385 . S
C604 C602 1.478 . S
C604 C606 1.381 . S
C604 C610 1.383 . S
C605 C601 1.495 . S
C605 H611 0.959 . S
C605 H612 0.961 . S
C605 H613 0.960 1_565 S
C606 C604 1.381 . S
C606 C607 1.394 . S
C606 H614 0.930 1_565 S
C607 C606 1.394 . S
C607 C608 1.383 . S
C607 H615 0.929 1_565 S
C608 C607 1.383 . S
C608 C609 1.377 . S
C609 H593 0.930 . S
C609 C608 1.377 . S
C609 C610 1.379 . S
C610 H594 0.931 . S
C610 C604 1.383 . S
C610 C609 1.379 . S
H611 C605 0.959 . S
H612 C605 0.961 . S
H613 C605 0.960 1_545 S
H614 C606 0.930 1_545 S
H615 C607 0.929 1_545 S
H616 C624 0.929 . S
H617 C626 0.930 . S
H618 C628 0.930 . S
H619 C631 0.929 . S
H620 C634 0.930 . S
H621 C636 0.960 . S
H622 C636 0.960 . S
H623 C636 0.960 . S
C624 H616 0.929 . S
C624 C625 1.377 . S
C624 C626 1.384 . S
C625 C624 1.377 . S
C625 C631 1.390 . S
C626 H617 0.930 . S
C626 C624 1.384 . S
C626 C627 1.372 . S
C627 C626 1.372 . S
C627 C628 1.400 . S
C627 C632 1.490 . S
C628 H618 0.930 . S
C628 C627 1.400 . S
C628 C631 1.386 . S
H629 C645 0.930 . S
H630 C646 0.931 . S
C631 H619 0.929 . S
C631 C625 1.390 . S
C631 C628 1.386 . S
C632 C627 1.490 . S
C632 C634 1.395 . S
C632 C635 1.403 . S
H633 C639 0.930 . S
C634 H620 0.930 . S
C634 C632 1.395 . S
C634 C637 1.403 . S
C635 C632 1.403 . S
C635 C636 1.524 . S
C635 C639 1.400 . S
C636 H621 0.960 . S
C636 H622 0.960 . S
C636 H623 0.960 . S
C636 C635 1.524 . S
C637 C634 1.403 . S
C637 C638 1.392 . S
C637 C641 1.495 . S
C638 C637 1.392 . S
C638 C639 1.385 . S
C638 C640 1.478 . S
C639 H633 0.930 . S
C639 C635 1.400 . S
C639 C638 1.385 . S
C640 C638 1.478 . S
C640 C642 1.381 . S
C640 C646 1.383 . S
C641 C637 1.495 . S
C641 H647 0.959 . S
C641 H648 0.961 . S
C641 H649 0.960 . S
C642 C640 1.381 . S
C642 C643 1.394 . S
C642 H650 0.930 . S
C643 C642 1.394 . S
C643 C644 1.383 . S
C643 H651 0.929 . S
C644 C643 1.383 . S
C644 C645 1.377 . S
C645 H629 0.930 . S
C645 C644 1.377 . S
C645 C646 1.379 . S
C646 H630 0.931 . S
C646 C640 1.383 . S
C646 C645 1.379 . S
H647 C641 0.959 . S
H648 C641 0.961 . S
H649 C641 0.960 . S
H650 C642 0.930 . S
H651 C643 0.929 . S
H652 C660 0.929 . S
H653 C662 0.930 . S
H654 C664 0.930 . S
H655 C667 0.929 . S
H656 C670 0.930 . S
H657 C672 0.960 . S
H658 C672 0.960 . S
H659 C672 0.960 . S
C660 H652 0.929 . S
C660 C661 1.377 . S
C660 C662 1.384 . S
C661 C660 1.377 . S
C661 C667 1.390 . S
C662 H653 0.930 . S
C662 C660 1.384 . S
C662 C663 1.372 . S
C663 C662 1.372 . S
C663 C664 1.400 . S
C663 C668 1.490 . S
C664 H654 0.930 . S
C664 C663 1.400 . S
C664 C667 1.386 . S
H665 C681 0.930 . S
H666 C682 0.931 . S
C667 H655 0.929 . S
C667 C661 1.390 . S
C667 C664 1.386 . S
C668 C663 1.490 . S
C668 C670 1.395 . S
C668 C671 1.403 . S
H669 C675 0.930 . S
C670 H656 0.930 . S
C670 C668 1.395 . S
C670 C673 1.403 . S
C671 C668 1.403 . S
C671 C672 1.524 . S
C671 C675 1.400 . S
C672 H657 0.960 . S
C672 H658 0.960 . S
C672 H659 0.960 . S
C672 C671 1.524 . S
C673 C670 1.403 . S
C673 C674 1.392 . S
C673 C677 1.495 . S
C674 C673 1.392 . S
C674 C675 1.385 . S
C674 C676 1.478 . S
C675 H669 0.930 . S
C675 C671 1.400 . S
C675 C674 1.385 . S
C676 C674 1.478 . S
C676 C678 1.381 . S
C676 C682 1.383 . S
C677 C673 1.495 . S
C677 H683 0.959 . S
C677 H684 0.961 . S
C677 H685 0.960 . S
C678 C676 1.381 . S
C678 C679 1.394 . S
C678 H686 0.930 . S
C679 C678 1.394 . S
C679 C680 1.383 . S
C679 H687 0.929 . S
C680 C679 1.383 . S
C680 C681 1.377 . S
C681 H665 0.930 . S
C681 C680 1.377 . S
C681 C682 1.379 . S
C682 H666 0.931 . S
C682 C676 1.383 . S
C682 C681 1.379 . S
H683 C677 0.959 . S
H684 C677 0.961 . S
H685 C677 0.960 . S
H686 C678 0.930 . S
H687 C679 0.929 . S
H688 C696 0.929 . S
H689 C698 0.930 . S
H690 C700 0.930 . S
H691 C703 0.929 . S
H692 C706 0.930 . S
H693 C708 0.960 . S
H694 C708 0.960 . S
H695 C708 0.960 . S
C696 H688 0.929 . S
C696 C697 1.377 1_455 S
C696 C698 1.384 . S
C697 C696 1.377 1_655 S
C697 C703 1.390 . S
C698 H689 0.930 . S
C698 C696 1.384 . S
C698 C699 1.372 . S
C699 C698 1.372 . S
C699 C700 1.400 1_455 S
C699 C704 1.490 . S
C700 H690 0.930 . S
C700 C699 1.400 1_655 S
C700 C703 1.386 . S
H701 C717 0.930 . S
H702 C718 0.931 . S
C703 H691 0.929 . S
C703 C697 1.390 . S
C703 C700 1.386 . S
C704 C699 1.490 . S
C704 C706 1.395 . S
C704 C707 1.403 1_455 S
H705 C711 0.930 1_655 S
C706 H692 0.930 . S
C706 C704 1.395 . S
C706 C709 1.403 . S
C707 C704 1.403 1_655 S
C707 C708 1.524 . S
C707 C711 1.400 1_655 S
C708 H693 0.960 . S
C708 H694 0.960 . S
C708 H695 0.960 . S
C708 C707 1.524 . S
C709 C706 1.403 . S
C709 C710 1.392 . S
C709 C713 1.495 . S
C710 C709 1.392 . S
C710 C711 1.385 . S
C710 C712 1.478 . S
C711 H705 0.930 1_455 S
C711 C707 1.400 1_455 S
C711 C710 1.385 . S
C712 C710 1.478 . S
C712 C714 1.381 . S
C712 C718 1.383 1_554 S
C713 C709 1.495 . S
C713 H719 0.959 . S
C713 H720 0.961 . S
C713 H721 0.960 . S
C714 C712 1.381 . S
C714 C715 1.394 . S
C714 H722 0.930 . S
C715 C714 1.394 . S
C715 C716 1.383 1_554 S
C715 H723 0.929 . S
C716 C715 1.383 1_556 S
C716 C717 1.377 . S
C717 H701 0.930 . S
C717 C716 1.377 . S
C717 C718 1.379 . S
C718 H702 0.931 . S
C718 C712 1.383 1_556 S
C718 C717 1.379 . S
H719 C713 0.959 . S
H720 C713 0.961 . S
H721 C713 0.960 . S
H722 C714 0.930 . S
H723 C715 0.929 . S
H724 C732 0.929 . S
H725 C734 0.930 . S
H726 C736 0.930 . S
H727 C739 0.929 . S
H728 C742 0.930 . S
H729 C744 0.960 . S
H730 C744 0.960 . S
H731 C744 0.960 1_565 S
C732 H724 0.929 . S
C732 C733 1.377 1_545 S
C732 C734 1.384 . S
C733 C732 1.377 1_565 S
C733 C739 1.390 . S
C734 H725 0.930 . S
C734 C732 1.384 . S
C734 C735 1.372 . S
C735 C734 1.372 . S
C735 C736 1.400 1_545 S
C735 C740 1.490 . S
C736 H726 0.930 . S
C736 C735 1.400 1_565 S
C736 C739 1.386 . S
H737 C753 0.905 1_566 S
H738 C754 0.931 1_565 S
C739 H727 0.929 . S
C739 C733 1.390 . S
C739 C736 1.386 . S
C740 C735 1.490 . S
C740 C742 1.395 . S
C740 C743 1.403 . S
H741 C747 0.930 . S
C742 H728 0.930 . S
C742 C740 1.395 . S
C742 C745 1.403 . S
C743 C740 1.403 . S
C743 C744 1.524 . S
C743 C747 1.400 . S
C744 H729 0.960 . S
C744 H730 0.960 . S
C744 H731 0.960 1_545 S
C744 C743 1.524 . S
C745 C742 1.403 . S
C745 C746 1.392 . S
C745 C749 1.495 1_554 S
C746 C745 1.392 . S
C746 C747 1.385 . S
C746 C748 1.478 . S
C747 H741 0.930 . S
C747 C743 1.400 . S
C747 C746 1.385 . S
C748 C746 1.478 . S
C748 C750 1.381 . S
C748 C754 1.383 . S
C749 C745 1.495 1_556 S
C749 H755 0.959 . S
C749 H756 0.961 . S
C749 H757 0.960 . S
C750 C748 1.381 . S
C750 C751 1.394 1_554 S
C750 H758 0.930 . S
C751 C750 1.394 1_556 S
C751 C752 1.383 . S
C751 H759 0.929 . S
C752 C751 1.383 . S
C752 C753 1.377 1_556 S
C753 H737 0.905 1_544 S
C753 C752 1.377 1_554 S
C753 C754 1.379 . S
C754 H738 0.931 1_545 S
C754 C748 1.383 . S
C754 C753 1.379 . S
H755 C749 0.959 . S
H756 C749 0.961 . S
H757 C749 0.960 . S
H758 C750 0.930 . S
H759 C751 0.929 . S
H760 C768 0.929 . S
H761 C770 0.930 . S
H762 C772 0.930 . S
H763 C775 0.929 . S
H764 C778 0.930 . S
H765 C780 0.960 . S
H766 C780 0.960 . S
H767 C780 0.960 . S
C768 H760 0.929 . S
C768 C769 1.377 . S
C768 C770 1.384 . S
C769 C768 1.377 . S
C769 C775 1.390 . S
C770 H761 0.930 . S
C770 C768 1.384 . S
C770 C771 1.372 . S
C771 C770 1.372 . S
C771 C772 1.400 . S
C771 C776 1.490 . S
C772 H762 0.930 . S
C772 C771 1.400 . S
C772 C775 1.386 . S
H773 C789 0.930 . S
H774 C790 0.931 . S
C775 H763 0.929 . S
C775 C769 1.390 . S
C775 C772 1.386 . S
C776 C771 1.490 . S
C776 C778 1.395 . S
C776 C779 1.403 . S
H777 C783 0.930 . S
C778 H764 0.930 . S
C778 C776 1.395 . S
C778 C781 1.403 . S
C779 C776 1.403 . S
C779 C780 1.524 . S
C779 C783 1.400 . S
C780 H765 0.960 . S
C780 H766 0.960 . S
C780 H767 0.960 . S
C780 C779 1.524 . S
C781 C778 1.403 . S
C781 C782 1.392 . S
C781 C785 1.495 . S
C782 C781 1.392 . S
C782 C783 1.385 . S
C782 C784 1.478 . S
C783 H777 0.930 . S
C783 C779 1.400 . S
C783 C782 1.385 . S
C784 C782 1.478 . S
C784 C786 1.381 . S
C784 C790 1.383 1_554 S
C785 C781 1.495 . S
C785 H791 0.959 . S
C785 H792 0.961 1_554 S
C785 H793 0.960 . S
C786 C784 1.381 . S
C786 C787 1.394 . S
C786 H794 0.930 . S
C787 C786 1.394 . S
C787 C788 1.383 1_554 S
C787 H795 0.929 . S
C788 C787 1.383 1_556 S
C788 C789 1.377 . S
C789 H773 0.930 . S
C789 C788 1.377 . S
C789 C790 1.379 . S
C790 H774 0.931 . S
C790 C784 1.383 1_556 S
C790 C789 1.379 . S
H791 C785 0.959 . S
H792 C785 0.961 1_556 S
H793 C785 0.960 . S
H794 C786 0.930 . S
H795 C787 0.929 . S
H796 C804 0.929 . S
H797 C806 0.930 . S
H798 C808 0.930 . S
H799 C811 0.929 . S
H800 C814 0.930 . S
H801 C816 0.960 1_556 S
H802 C816 0.960 . S
H803 C816 0.960 . S
C804 H796 0.929 . S
C804 C805 1.377 . S
C804 C806 1.384 . S
C805 C804 1.377 . S
C805 C811 1.390 . S
C806 H797 0.930 . S
C806 C804 1.384 . S
C806 C807 1.372 . S
C807 C806 1.372 . S
C807 C808 1.400 . S
C807 C812 1.490 . S
C808 H798 0.930 . S
C808 C807 1.400 . S
C808 C811 1.386 . S
H809 C825 0.930 . S
H810 C826 0.931 . S
C811 H799 0.929 . S
C811 C805 1.390 . S
C811 C808 1.386 . S
C812 C807 1.490 . S
C812 C814 1.395 . S
C812 C815 1.403 . S
H813 C819 0.930 . S
C814 H800 0.930 . S
C814 C812 1.395 . S
C814 C817 1.403 . S
C815 C812 1.403 . S
C815 C816 1.524 . S
C815 C819 1.400 . S
C816 H801 0.960 1_554 S
C816 H802 0.960 . S
C816 H803 0.960 . S
C816 C815 1.524 . S
C817 C814 1.403 . S
C817 C818 1.392 . S
C817 C821 1.495 . S
C818 C817 1.392 . S
C818 C819 1.385 . S
C818 C820 1.478 . S
C819 H813 0.930 . S
C819 C815 1.400 . S
C819 C818 1.385 . S
C820 C818 1.478 . S
C820 C822 1.381 . S
C820 C826 1.383 . S
C821 C817 1.495 . S
C821 H827 0.959 . S
C821 H828 0.961 . S
C821 H829 0.960 . S
C822 C820 1.381 . S
C822 C823 1.394 . S
C822 H830 0.930 . S
C823 C822 1.394 . S
C823 C824 1.383 1_554 S
C823 H831 0.929 . S
C824 C823 1.383 1_556 S
C824 C825 1.377 . S
C825 H809 0.930 . S
C825 C824 1.377 . S
C825 C826 1.379 1_556 S
C826 H810 0.931 . S
C826 C820 1.383 . S
C826 C825 1.379 1_554 S
H827 C821 0.959 . S
H828 C821 0.961 . S
H829 C821 0.960 . S
H830 C822 0.930 . S
H831 C823 0.929 . S
H832 C840 0.929 . S
H833 C842 0.930 . S
H834 C844 0.930 . S
H835 C847 0.929 . S
H836 C850 0.930 . S
H837 C852 0.960 . S
H838 C852 0.960 . S
H839 C852 0.960 . S
C840 H832 0.929 . S
C840 C841 1.377 . S
C840 C842 1.384 . S
C841 C840 1.377 . S
C841 C847 1.390 1_455 S
C842 H833 0.930 . S
C842 C840 1.384 . S
C842 C843 1.372 . S
C843 C842 1.372 . S
C843 C844 1.400 1_455 S
C843 C848 1.490 . S
C844 H834 0.930 . S
C844 C843 1.400 1_655 S
C844 C847 1.386 . S
H845 C861 0.930 . S
H846 C862 0.931 . S
C847 H835 0.929 . S
C847 C841 1.390 1_655 S
C847 C844 1.386 . S
C848 C843 1.490 . S
C848 C850 1.395 . S
C848 C851 1.403 1_455 S
H849 C855 0.930 . S
C850 H836 0.930 . S
C850 C848 1.395 . S
C850 C853 1.403 . S
C851 C848 1.403 1_655 S
C851 C852 1.524 . S
C851 C855 1.400 . S
C852 H837 0.960 . S
C852 H838 0.960 . S
C852 H839 0.960 . S
C852 C851 1.524 . S
C853 C850 1.403 . S
C853 C854 1.392 . S
C853 C857 1.495 . S
C854 C853 1.392 . S
C854 C855 1.385 1_455 S
C854 C856 1.478 . S
C855 H849 0.930 . S
C855 C851 1.400 . S
C855 C854 1.385 1_655 S
C856 C854 1.478 . S
C856 C858 1.381 . S
C856 C862 1.383 1_455 S
C857 C853 1.495 . S
C857 H863 0.959 . S
C857 H864 0.961 . S
C857 H865 0.960 . S
C858 C856 1.381 . S
C858 C859 1.394 . S
C858 H866 0.930 . S
C859 C858 1.394 . S
C859 C860 1.383 . S
C859 H867 0.929 . S
C860 C859 1.383 . S
C860 C861 1.377 1_455 S
C861 H845 0.930 . S
C861 C860 1.377 1_655 S
C861 C862 1.379 . S
C862 H846 0.931 . S
C862 C856 1.383 1_655 S
C862 C861 1.379 . S
H863 C857 0.959 . S
H864 C857 0.961 . S
H865 C857 0.960 . S
H866 C858 0.930 . S
H867 C859 0.929 . S
H868 C876 0.929 . S
H869 C878 0.930 . S
H870 C880 0.930 . S
H871 C883 0.929 . S
H872 C886 0.930 . S
H873 C888 0.960 . S
H874 C888 0.960 . S
H875 C888 0.960 1_565 S
C876 H868 0.929 . S
C876 C877 1.377 . S
C876 C878 1.384 . S
C877 C876 1.377 . S
C877 C883 1.390 1_545 S
C878 H869 0.930 . S
C878 C876 1.384 . S
C878 C879 1.372 . S
C879 C878 1.372 . S
C879 C880 1.400 1_545 S
C879 C884 1.490 . S
C880 H870 0.930 . S
C880 C879 1.400 1_565 S
C880 C883 1.386 . S
H881 C897 0.930 . S
H882 C898 0.931 . S
C883 H871 0.929 . S
C883 C877 1.390 1_565 S
C883 C880 1.386 . S
C884 C879 1.490 . S
C884 C886 1.395 . S
C884 C887 1.403 . S
H885 C891 0.930 . S
C886 H872 0.930 . S
C886 C884 1.395 . S
C886 C889 1.403 . S
C887 C884 1.403 . S
C887 C888 1.524 . S
C887 C891 1.400 . S
C888 H873 0.960 . S
C888 H874 0.960 . S
C888 H875 0.960 1_545 S
C888 C887 1.524 . S
C889 C886 1.403 . S
C889 C890 1.392 . S
C889 C893 1.495 . S
C890 C889 1.392 . S
C890 C891 1.385 . S
C890 C892 1.478 . S
C891 H885 0.930 . S
C891 C887 1.400 . S
C891 C890 1.385 . S
C892 C890 1.478 . S
C892 C894 1.381 . S
C892 C898 1.383 1_545 S
C893 C889 1.495 . S
C893 H899 0.959 1_556 S
C893 H900 0.961 . S
C893 H901 0.960 . S
C894 C892 1.381 . S
C894 C895 1.394 . S
C894 H902 0.930 . S
C895 C894 1.394 . S
C895 C896 1.383 . S
C895 H903 0.929 . S
C896 C895 1.383 . S
C896 C897 1.377 1_545 S
C897 H881 0.930 . S
C897 C896 1.377 1_565 S
C897 C898 1.379 . S
C898 H882 0.931 . S
C898 C892 1.383 1_565 S
C898 C897 1.379 . S
H899 C893 0.959 1_554 S
H900 C893 0.961 . S
H901 C893 0.960 . S
H902 C894 0.930 . S
H903 C895 0.929 . S
H904 C912 0.929 . S
H905 C914 0.930 . S
H906 C916 0.930 . S
H907 C919 0.929 . S
H908 C922 0.930 . S
H909 C924 0.960 1_554 S
H910 C924 0.960 1_554 S
H911 C924 0.960 . S
C912 H904 0.929 . S
C912 C913 1.377 . S
C912 C914 1.384 . S
C913 C912 1.377 . S
C913 C919 1.390 . S
C914 H905 0.930 . S
C914 C912 1.384 . S
C914 C915 1.372 . S
C915 C914 1.372 . S
C915 C916 1.400 . S
C915 C920 1.490 . S
C916 H906 0.930 . S
C916 C915 1.400 . S
C916 C919 1.386 . S
H917 C933 0.930 . S
H918 C934 0.931 . S
C919 H907 0.929 . S
C919 C913 1.390 . S
C919 C916 1.386 . S
C920 C915 1.490 . S
C920 C922 1.395 . S
C920 C923 1.403 . S
H921 C927 0.930 . S
C922 H908 0.930 . S
C922 C920 1.395 . S
C922 C925 1.403 . S
C923 C920 1.403 . S
C923 C924 1.524 . S
C923 C927 1.400 . S
C924 H909 0.960 1_556 S
C924 H910 0.960 1_556 S
C924 H911 0.960 . S
C924 C923 1.524 . S
C925 C922 1.403 . S
C925 C926 1.392 . S
C925 C929 1.495 . S
C926 C925 1.392 . S
C926 C927 1.385 . S
C926 C928 1.478 . S
C927 H921 0.930 . S
C927 C923 1.400 . S
C927 C926 1.385 . S
C928 C926 1.478 . S
C928 C930 1.381 . S
C928 C934 1.383 . S
C929 C925 1.495 . S
C929 H935 0.959 . S
C929 H936 0.961 . S
C929 H937 0.960 . S
C930 C928 1.381 . S
C930 C931 1.394 . S
C930 H938 0.930 . S
C931 C930 1.394 . S
C931 C932 1.383 . S
C931 H939 0.929 . S
C932 C931 1.383 . S
C932 C933 1.377 . S
C933 H917 0.930 . S
C933 C932 1.377 . S
C933 C934 1.379 . S
C934 H918 0.931 . S
C934 C928 1.383 . S
C934 C933 1.379 . S
H935 C929 0.959 . S
H936 C929 0.961 . S
H937 C929 0.960 . S
H938 C930 0.930 . S
H939 C931 0.929 . S
H940 C948 0.929 . S
H941 C950 0.930 . S
H942 C952 0.930 . S
H943 C955 0.929 . S
H944 C958 0.930 . S
H945 C960 0.960 . S
H946 C960 0.965 . S
H947 C960 0.960 . S
C948 H940 0.929 . S
C948 C949 1.377 . S
C948 C950 1.384 . S
C949 C948 1.377 . S
C949 C955 1.390 . S
C950 H941 0.930 . S
C950 C948 1.384 . S
C950 C951 1.372 . S
C951 C950 1.372 . S
C951 C952 1.400 . S
C951 C956 1.490 . S
C952 H942 0.930 . S
C952 C951 1.400 . S
C952 C955 1.386 . S
H953 C969 0.930 . S
H954 C970 0.931 . S
C955 H943 0.929 . S
C955 C949 1.390 . S
C955 C952 1.386 . S
C956 C951 1.490 . S
C956 C958 1.395 . S
C956 C959 1.403 . S
H957 C963 0.930 . S
C958 H944 0.930 . S
C958 C956 1.395 . S
C958 C961 1.403 . S
C959 C956 1.403 . S
C959 C960 1.524 . S
C959 C963 1.400 . S
C960 H945 0.960 . S
C960 H946 0.965 . S
C960 H947 0.960 . S
C960 C959 1.524 . S
C961 C958 1.403 . S
C961 C962 1.392 . S
C961 C965 1.495 . S
C962 C961 1.392 . S
C962 C963 1.385 . S
C962 C964 1.478 . S
C963 H957 0.930 . S
C963 C959 1.400 . S
C963 C962 1.385 . S
C964 C962 1.478 . S
C964 C966 1.381 . S
C964 C970 1.383 . S
C965 C961 1.495 . S
C965 H971 0.959 . S
C965 H972 0.961 . S
C965 H973 0.960 . S
C966 C964 1.381 . S
C966 C967 1.394 . S
C966 H974 0.930 . S
C967 C966 1.394 . S
C967 C968 1.383 . S
C967 H975 0.929 . S
C968 C967 1.383 . S
C968 C969 1.377 . S
C969 H953 0.930 . S
C969 C968 1.377 . S
C969 C970 1.379 . S
C970 H954 0.931 . S
C970 C964 1.383 . S
C970 C969 1.379 . S
H971 C965 0.959 . S
H972 C965 0.961 . S
H973 C965 0.960 . S
H974 C966 0.930 . S
H975 C967 0.929 . S
H976 C984 0.929 . S
H977 C986 0.930 . S
H978 C988 0.930 . S
H979 C991 0.929 . S
H980 C994 0.930 . S
H981 C996 0.960 . S
H982 C996 0.960 1_455 S
H983 C996 0.960 . S
C984 H976 0.929 . S
C984 C985 1.346 1_455 S
C984 C986 1.384 . S
C985 C984 1.346 1_655 S
C985 C991 1.423 . S
C986 H977 0.930 . S
C986 C984 1.384 . S
C986 C987 1.372 1_455 S
C987 C986 1.372 1_655 S
C987 C988 1.400 . S
C987 C992 1.490 . S
C988 H978 0.930 . S
C988 C987 1.400 . S
C988 C991 1.386 . S
H989 C1005 0.930 . S
H990 C1006 0.931 . S
C991 H979 0.929 . S
C991 C985 1.423 . S
C991 C988 1.386 . S
C992 C987 1.490 . S
C992 C994 1.395 . S
C992 C995 1.403 . S
H993 C999 0.930 . S
C994 H980 0.930 . S
C994 C992 1.395 . S
C994 C997 1.403 . S
C995 C992 1.403 . S
C995 C996 1.524 . S
C995 C999 1.400 . S
C996 H981 0.960 . S
C996 H982 0.960 1_655 S
C996 H983 0.960 . S
C996 C995 1.524 . S
C997 C994 1.403 . S
C997 C998 1.392 . S
C997 C1001 1.495 . S
C998 C997 1.392 . S
C998 C999 1.385 . S
C998 C1000 1.478 . S
C999 H993 0.930 . S
C999 C995 1.400 . S
C999 C998 1.385 . S
C1000 C998 1.478 . S
C1000 C1002 1.381 1_655 S
C1000 C1006 1.383 . S
C1001 C997 1.495 . S
C1001 H1007 0.959 . S
C1001 H1008 0.961 . S
C1001 H1009 0.960 1_655 S
C1002 C1000 1.381 1_455 S
C1002 C1003 1.394 . S
C1002 H1010 0.930 . S
C1003 C1002 1.394 . S
C1003 C1004 1.383 1_455 S
C1003 H1011 0.929 . S
C1004 C1003 1.383 1_655 S
C1004 C1005 1.377 . S
C1005 H989 0.930 . S
C1005 C1004 1.377 . S
C1005 C1006 1.379 . S
C1006 H990 0.931 . S
C1006 C1000 1.383 . S
C1006 C1005 1.379 . S
H1007 C1001 0.959 . S
H1008 C1001 0.961 . S
H1009 C1001 0.960 1_455 S
H1010 C1002 0.930 . S
H1011 C1003 0.929 . S
H1012 C1020 0.929 . S
H1013 C1022 0.930 . S
H1014 C1024 0.929 1_545 S
H1015 C1027 0.929 . S
H1016 C1030 0.930 . S
H1017 C1032 0.960 . S
H1018 C1032 0.960 . S
H1019 C1032 0.960 . S
C1020 H1012 0.929 . S
C1020 C1021 1.377 . S
C1020 C1022 1.384 . S
C1021 C1020 1.377 . S
C1021 C1027 1.390 1_565 S
C1022 H1013 0.930 . S
C1022 C1020 1.384 . S
C1022 C1023 1.372 . S
C1023 C1022 1.372 . S
C1023 C1024 1.405 . S
C1023 C1028 1.490 . S
C1024 H1014 0.929 1_565 S
C1024 C1023 1.405 . S
C1024 C1027 1.384 1_565 S
H1025 C1041 0.924 1_545 S
H1026 C1042 0.946 . S
C1027 H1015 0.929 . S
C1027 C1021 1.390 1_545 S
C1027 C1024 1.384 1_545 S
C1028 C1023 1.490 . S
C1028 C1030 1.395 1_565 S
C1028 C1031 1.403 . S
H1029 C1035 0.930 . S
C1030 H1016 0.930 . S
C1030 C1028 1.395 1_545 S
C1030 C1033 1.403 . S
C1031 C1028 1.403 . S
C1031 C1032 1.524 . S
C1031 C1035 1.400 . S
C1032 H1017 0.960 . S
C1032 H1018 0.960 . S
C1032 H1019 0.960 . S
C1032 C1031 1.524 . S
C1033 C1030 1.403 . S
C1033 C1034 1.392 1_545 S
C1033 C1037 1.495 . S
C1034 C1033 1.392 1_565 S
C1034 C1035 1.385 . S
C1034 C1036 1.478 . S
C1035 H1029 0.930 . S
C1035 C1031 1.400 . S
C1035 C1034 1.385 . S
C1036 C1034 1.478 . S
C1036 C1038 1.381 . S
C1036 C1042 1.375 1_565 S
C1037 C1033 1.495 . S
C1037 H1043 0.959 . S
C1037 H1044 0.961 . S
C1037 H1045 0.960 . S
C1038 C1036 1.381 . S
C1038 C1039 1.394 . S
C1038 H1046 0.930 . S
C1039 C1038 1.394 . S
C1039 C1040 1.383 . S
C1039 H1047 0.929 . S
C1040 C1039 1.383 . S
C1040 C1041 1.389 . S
C1041 H1025 0.924 1_565 S
C1041 C1040 1.389 . S
C1041 C1042 1.374 1_565 S
C1042 H1026 0.946 . S
C1042 C1036 1.375 1_545 S
C1042 C1041 1.374 1_545 S
H1043 C1037 0.959 . S
H1044 C1037 0.961 . S
H1045 C1037 0.960 . S
H1046 C1038 0.930 . S
H1047 C1039 0.929 . S
H1048 C1056 0.929 . S
H1049 C1058 0.930 . S
H1050 C1060 0.930 . S
H1051 C1063 0.929 . S
H1052 C1066 0.930 . S
H1053 C1068 0.960 . S
H1054 C1068 0.960 . S
H1055 C1068 0.960 . S
C1056 H1048 0.929 . S
C1056 C1057 1.377 . S
C1056 C1058 1.384 . S
C1057 C1056 1.377 . S
C1057 C1063 1.390 . S
C1058 H1049 0.930 . S
C1058 C1056 1.384 . S
C1058 C1059 1.372 . S
C1059 C1058 1.372 . S
C1059 C1060 1.400 . S
C1059 C1064 1.490 . S
C1060 H1050 0.930 . S
C1060 C1059 1.400 . S
C1060 C1063 1.386 . S
H1061 C1077 0.930 . S
H1062 C1078 0.931 . S
C1063 H1051 0.929 . S
C1063 C1057 1.390 . S
C1063 C1060 1.386 . S
C1064 C1059 1.490 . S
C1064 C1066 1.395 . S
C1064 C1067 1.403 . S
H1065 C1071 0.930 . S
C1066 H1052 0.930 . S
C1066 C1064 1.395 . S
C1066 C1069 1.403 . S
C1067 C1064 1.403 . S
C1067 C1068 1.524 . S
C1067 C1071 1.400 . S
C1068 H1053 0.960 . S
C1068 H1054 0.960 . S
C1068 H1055 0.960 . S
C1068 C1067 1.524 . S
C1069 C1066 1.403 . S
C1069 C1070 1.392 . S
C1069 C1073 1.495 . S
C1070 C1069 1.392 . S
C1070 C1071 1.385 . S
C1070 C1072 1.478 . S
C1071 H1065 0.930 . S
C1071 C1067 1.400 . S
C1071 C1070 1.385 . S
C1072 C1070 1.478 . S
C1072 C1074 1.381 . S
C1072 C1078 1.383 . S
C1073 C1069 1.495 . S
C1073 H1079 0.959 . S
C1073 H1080 0.961 . S
C1073 H1081 0.960 . S
C1074 C1072 1.381 . S
C1074 C1075 1.394 . S
C1074 H1082 0.930 . S
C1075 C1074 1.394 . S
C1075 C1076 1.383 . S
C1075 H1083 0.929 . S
C1076 C1075 1.383 . S
C1076 C1077 1.377 . S
C1077 H1061 0.930 . S
C1077 C1076 1.377 . S
C1077 C1078 1.379 . S
C1078 H1062 0.931 . S
C1078 C1072 1.383 . S
C1078 C1077 1.379 . S
H1079 C1073 0.959 . S
H1080 C1073 0.961 . S
H1081 C1073 0.960 . S
H1082 C1074 0.930 . S
H1083 C1075 0.929 . S
H1084 C1092 0.929 . S
H1085 C1094 0.930 . S
H1086 C1096 0.930 . S
H1087 C1099 0.929 . S
H1088 C1102 0.930 . S
H1089 C1104 0.960 . S
H1090 C1104 0.960 . S
H1091 C1104 0.960 . S
C1092 H1084 0.929 . S
C1092 C1093 1.377 . S
C1092 C1094 1.384 . S
C1093 C1092 1.377 . S
C1093 C1099 1.390 . S
C1094 H1085 0.930 . S
C1094 C1092 1.384 . S
C1094 C1095 1.372 . S
C1095 C1094 1.372 . S
C1095 C1096 1.400 . S
C1095 C1100 1.490 . S
C1096 H1086 0.930 . S
C1096 C1095 1.400 . S
C1096 C1099 1.386 . S
H1097 C1113 0.930 . S
H1098 C1114 0.931 . S
C1099 H1087 0.929 . S
C1099 C1093 1.390 . S
C1099 C1096 1.386 . S
C1100 C1095 1.490 . S
C1100 C1102 1.395 . S
C1100 C1103 1.403 . S
H1101 C1107 0.930 . S
C1102 H1088 0.930 . S
C1102 C1100 1.395 . S
C1102 C1105 1.403 . S
C1103 C1100 1.403 . S
C1103 C1104 1.524 . S
C1103 C1107 1.400 . S
C1104 H1089 0.960 . S
C1104 H1090 0.960 . S
C1104 H1091 0.960 . S
C1104 C1103 1.524 . S
C1105 C1102 1.403 . S
C1105 C1106 1.392 . S
C1105 C1109 1.495 . S
C1106 C1105 1.392 . S
C1106 C1107 1.385 . S
C1106 C1108 1.478 . S
C1107 H1101 0.930 . S
C1107 C1103 1.400 . S
C1107 C1106 1.385 . S
C1108 C1106 1.478 . S
C1108 C1110 1.381 . S
C1108 C1114 1.383 . S
C1109 C1105 1.495 . S
C1109 H1115 0.959 . S
C1109 H1116 0.961 . S
C1109 H1117 0.960 . S
C1110 C1108 1.381 . S
C1110 C1111 1.394 . S
C1110 H1118 0.930 . S
C1111 C1110 1.394 . S
C1111 C1112 1.383 . S
C1111 H1119 0.929 . S
C1112 C1111 1.383 . S
C1112 C1113 1.377 . S
C1113 H1097 0.930 . S
C1113 C1112 1.377 . S
C1113 C1114 1.379 . S
C1114 H1098 0.931 . S
C1114 C1108 1.383 . S
C1114 C1113 1.379 . S
H1115 C1109 0.959 . S
H1116 C1109 0.961 . S
H1117 C1109 0.960 . S
H1118 C1110 0.930 . S
H1119 C1111 0.929 . S
C265 C76 1.719 . S
C284 C106 1.829 . S
C320 C146 1.813 . S
C301 C88 1.728 . S
C356 C186 1.814 . S
C337 C52 1.727 . S
C392 C226 1.815 . S
C373 C64 1.728 . S
C428 C115 1.811 . S
C409 C28 1.720 . S
C445 C40 1.724 . S
C464 C155 1.829 . S
C481 C4 1.725 . S
C500 C195 1.831 . S
C517 C16 1.718 . S
C536 C235 1.815 . S
C572 C112 0.358 . S
C553 C69 0.386 . S
C608 C152 0.327 . S
C589 C81 0.372 . S
C644 C192 0.289 . S
C625 C93 0.363 . S
C661 C57 0.363 . S
C680 C232 0.269 . S
C697 C21 0.372 1_655 S
C716 C103 0.385 . S
C752 C143 0.328 . S
C733 C33 0.376 1_565 S
C788 C183 0.370 . S
C769 C45 0.371 . S
C805 C9 0.403 . S
C824 C223 0.349 . S
C841 C66 1.883 . S
C860 C107 2.070 . S
C877 C78 1.880 . S
C896 C147 2.060 . S
C932 C187 2.062 . S
C913 C90 1.874 . S
C968 C227 2.056 . S
C949 C54 1.871 . S
C985 C18 1.880 1_655 S
C1004 C98 2.061 . S
C1040 C138 2.051 . S
C1021 C30 1.882 1_565 S
C1076 C178 2.049 . S
C1057 C42 1.886 . S
C1093 C6 1.882 . S
C1112 C218 2.062 . S
