# Generated by pormake.
# Topology pth, (4,4)-cn, num edge types: 1
# Building blocks:
#     Node 0, Type 0, BuildingBlock: UXUYUI_clean_sbu_0, # of connection points: 4
#     Node 1, Type 0, BuildingBlock: UXUYUI_clean_sbu_0, # of connection points: 4
#     Node 2, Type 0, BuildingBlock: UXUYUI_clean_sbu_0, # of connection points: 4
#     Node 3, Type 1, BuildingBlock: AZAVOO_clean_linker_0, # of connection points: 4
#     Node 4, Type 1, BuildingBlock: AZAVOO_clean_linker_0, # of connection points: 4
#     Node 5, Type 1, BuildingBlock: AZAVOO_clean_linker_0, # of connection points: 4
#     Edge 6, Type (0, 1), None
#     Edge 7, Type (0, 1), None
#     Edge 8, Type (0, 1), None
#     Edge 9, Type (0, 1), None
#     Edge 10, Type (0, 1), None
#     Edge 11, Type (0, 1), None
#     Edge 12, Type (0, 1), None
#     Edge 13, Type (0, 1), None
#     Edge 14, Type (0, 1), None
#     Edge 15, Type (0, 1), None
#     Edge 16, Type (0, 1), None
#     Edge 17, Type (0, 1), None
# Relax obj value: 0.201
# Max RMSD: 0.238
# Mean RMSD: 0.228
data_MOF--net-pth--node1-UXUYUI_clean_sbu_0--node2-AZAVOO_clean_linker_0--edge1-none
_symmetry_space_group_name_H-M    P1
_symmetry_Int_Tables_number       1
_symmetry_cell_setting            triclinic
loop_
_symmetry_equiv_pos_as_xyz
'x, y, z'
_cell_length_a     19.235147
_cell_length_b     19.265648
_cell_length_c     51.763959
_cell_angle_alpha  91.312172
_cell_angle_beta   88.586018
_cell_angle_gamma 119.98387
loop_
_atom_site_label
_atom_site_type_symbol
_atom_site_fract_x
_atom_site_fract_y
_atom_site_fract_z
_atom_type_partial_charge
Li0 Li 0.18185 0.12763 0.07014 0.0
Li1 Li 0.07683 0.10168 0.1022 0.0
Li2 Li 0.11986 0.00591 0.09379 0.0
Li3 Li 0.04454 0.03041 0.06154 0.0
C4 C 0.25724 0.17969 0.11272 0.0
N5 N 0.40565 0.31387 0.12063 0.0
C6 C 0.2626 0.2509 0.122 0.0
C7 C 0.32734 0.17672 0.10745 0.0
C8 C 0.33821 0.31806 0.1259 0.0
C9 C 0.40181 0.24522 0.11157 0.0
C10 C 0.05451 0.16468 0.0485 0.0
C11 C 0.93965 0.1665 0.03163 0.0
N12 N 0.97938 0.19344 0.0087 0.0
C13 C 0.09425 0.19248 0.02476 0.0
C14 C 0.97663 0.15169 0.05199 0.0
C15 C 0.05524 0.20665 0.00489 0.0
C16 C 0.31254 0.18582 0.03521 0.0
N17 N 0.27341 0.20763 0.05288 0.0
C18 C 0.34233 0.34221 0.03796 0.0
C19 C 0.28851 0.28432 0.05502 0.0
C20 C 0.38034 0.32047 0.01853 0.0
C21 C 0.36716 0.2419 0.01781 0.0
H22 H 0.29758 0.12389 0.03353 0.0
H23 H 0.25474 0.29919 0.06885 0.0
C24 C 0.06963 0.13204 0.15404 0.0
N25 N 0.04743 0.14514 0.13073 0.0
C26 C 0.05932 0.16779 0.17638 0.0
C27 C 0.00033 0.2273 0.15042 0.0
C28 C 0.0125 0.19091 0.1285 0.0
C29 C 0.02555 0.21721 0.17464 0.0
H30 H 0.09796 0.09582 0.15511 0.0
H31 H 0.99676 0.20147 0.10968 0.0
C32 C 0.15044 0.95464 0.05142 0.0
N33 N 0.16779 0.82159 0.04403 0.0
C34 C 0.08608 0.88249 0.04255 0.0
C35 C 0.2236 0.95913 0.05654 0.0
C36 C 0.0961 0.81592 0.03891 0.0
C37 C 0.23115 0.89118 0.0527 0.0
C38 C 0.95106 0.96695 0.11497 0.0
C39 C 0.95798 0.9376 0.13865 0.0
C40 C 0.88754 0.98117 0.11125 0.0
C41 C 0.90119 0.92304 0.15823 0.0
C42 C 0.83202 0.96592 0.13132 0.0
N43 N 0.83993 0.93742 0.1542 0.0
C44 C 0.19031 0.95007 0.12853 0.0
C45 C 0.0696 0.85 0.10948 0.0
C46 C 0.18813 0.895 0.14602 0.0
N47 N 0.13059 0.92702 0.11119 0.0
C48 C 0.06477 0.79311 0.12669 0.0
C49 C 0.12321 0.81616 0.14576 0.0
H50 H 0.23681 0.0122 0.12986 0.0
H51 H 0.02194 0.83411 0.0959 0.0
C52 C 0.01439 0.9984 0.00966 0.0
N53 N 0.97581 0.9866 0.0329 0.0
C54 C 0.97115 0.96363 0.98727 0.0
C55 C 0.8488 0.90762 0.01301 0.0
C56 C 0.89457 0.94292 0.035 0.0
C57 C 0.88737 0.9166 0.98886 0.0
H58 H 0.07922 0.0332 0.00868 0.0
H59 H 0.86553 0.93345 0.05375 0.0
O60 O 0.18387 0.11367 0.10827 0.0
O61 O 0.09105 0.14888 0.06804 0.0
O62 O 0.14143 0.02006 0.05566 0.0
O63 O 0.00688 0.98297 0.0957 0.0
H64 H 0.20914 0.25477 0.12585 0.0
H65 H 0.32426 0.12236 0.09997 0.0
H66 H 0.34326 0.37363 0.13299 0.0
H67 H 0.45655 0.24388 0.10748 0.0
H68 H 0.87926 0.15636 0.03404 0.0
H69 H 0.15407 0.20188 0.02153 0.0
H70 H 0.94468 0.12957 0.07011 0.0
H71 H 0.08515 0.22779 0.98639 0.0
H72 H 0.35152 0.40241 0.03924 0.0
H73 H 0.39464 0.22266 0.00293 0.0
H74 H 0.07952 0.1587 0.19468 0.0
H75 H 0.97529 0.26618 0.14826 0.0
H76 H 0.02868 0.8775 0.03881 0.0
H77 H 0.27371 0.01427 0.0637 0.0
H78 H 0.04674 0.75963 0.03214 0.0
H79 H 0.28731 0.89369 0.05669 0.0
H80 H 0.00727 0.92726 0.14207 0.0
H81 H 0.88164 0.00463 0.09319 0.0
H82 H 0.90604 0.90068 0.17669 0.0
H83 H 0.78278 0.97699 0.12872 0.0
H84 H 0.23383 0.91517 0.16062 0.0
H85 H 0.01415 0.73264 0.12579 0.0
H86 H 0.00293 0.97185 0.96901 0.0
H87 H 0.78427 0.87059 0.01508 0.0
Li88 Li 0.07956 0.96546 0.40285 0.0
Li89 Li 0.17233 0.07893 0.42832 0.0
Li90 Li 0.03107 0.02414 0.43609 0.0
Li91 Li 0.09793 0.10206 0.39626 0.0
C92 C 0.04752 0.89682 0.45096 0.0
N93 N 0.95271 0.74778 0.47251 0.0
C94 C 0.07727 0.87115 0.4707 0.0
C95 C 0.96948 0.84685 0.4422 0.0
C96 C 0.02841 0.79554 0.48135 0.0
C97 C 0.92253 0.77167 0.45334 0.0
C98 C 0.25073 0.0966 0.38012 0.0
C99 C 0.36859 0.20792 0.36132 0.0
N100 N 0.40297 0.16123 0.35856 0.0
C101 C 0.28685 0.04946 0.37687 0.0
C102 C 0.29147 0.1762 0.37205 0.0
C103 C 0.364 0.08334 0.36601 0.0
C104 C 0.01278 0.83843 0.36628 0.0
N105 N 0.06432 0.87039 0.38626 0.0
C106 C 0.10602 0.7731 0.38043 0.0
C107 C 0.10949 0.83847 0.39383 0.0
C108 C 0.05501 0.74009 0.35922 0.0
C109 C 0.00684 0.77261 0.35249 0.0
H110 H 0.97824 0.86569 0.36057 0.0
H111 H 0.15012 0.8655 0.4098 0.0
C112 C 0.24355 0.10849 0.47408 0.0
N113 N 0.26577 0.11667 0.44875 0.0
C114 C 0.2972 0.11777 0.49308 0.0
C115 C 0.39852 0.14841 0.45981 0.0
C116 C 0.3423 0.13861 0.44127 0.0
C117 C 0.37478 0.1349 0.48597 0.0
H118 H 0.18262 0.09104 0.47941 0.0
H119 H 0.35899 0.14493 0.42106 0.0
C120 C 0.92936 0.00386 0.39465 0.0
N121 N 0.80075 0.02389 0.38359 0.0
C122 C 0.93081 0.07516 0.40156 0.0
C123 C 0.86226 0.94253 0.38231 0.0
C124 C 0.8655 0.08435 0.3956 0.0
C125 C 0.79766 0.95368 0.37698 0.0
C126 C 0.16316 0.20527 0.44672 0.0
C127 C 0.13788 0.22109 0.47056 0.0
C128 C 0.24033 0.25821 0.43733 0.0
C129 C 0.19082 0.28883 0.48485 0.0
C130 C 0.29155 0.32525 0.4522 0.0
N131 N 0.26596 0.33901 0.47547 0.0
C132 C 0.99064 0.0196 0.48756 0.0
C133 C 0.87827 0.98252 0.46113 0.0
C134 C 0.94767 0.02004 0.50955 0.0
N135 N 0.95673 0.00428 0.46386 0.0
C136 C 0.83252 0.98117 0.4827 0.0
C137 C 0.86825 0.00252 0.50713 0.0
H138 H 0.05243 0.03508 0.48926 0.0
H139 H 0.85166 0.96874 0.44226 0.0
C140 C 0.06163 0.14497 0.34849 0.0
N141 N 0.09612 0.17358 0.37184 0.0
C142 C 0.05366 0.19544 0.3313 0.0
C143 C 0.11806 0.30388 0.36238 0.0
C144 C 0.12414 0.25127 0.37901 0.0
C145 C 0.08201 0.27607 0.33823 0.0
H146 H 0.03902 0.08259 0.34344 0.0
H147 H 0.1498 0.27211 0.39786 0.0
O148 O 0.09483 0.97086 0.44049 0.0
O149 O 0.17457 0.06395 0.39013 0.0
O150 O 0.99405 0.99468 0.39916 0.0
O151 O 0.11228 0.13872 0.43259 0.0
H152 H 0.13752 0.90934 0.47772 0.0
H153 H 0.9453 0.86574 0.42699 0.0
H154 H 0.05065 0.77484 0.49663 0.0
H155 H 0.86206 0.73232 0.44675 0.0
H156 H 0.40097 0.26954 0.35508 0.0
H157 H 0.2558 0.98751 0.38275 0.0
H158 H 0.26366 0.21297 0.37389 0.0
H159 H 0.39287 0.04771 0.36348 0.0
H160 H 0.1441 0.74979 0.3862 0.0
H161 H 0.96787 0.74997 0.33595 0.0
H162 H 0.27707 0.10819 0.51309 0.0
H163 H 0.45809 0.16165 0.45366 0.0
H164 H 0.98185 0.1231 0.4113 0.0
H165 H 0.86024 0.88698 0.37683 0.0
H166 H 0.86644 0.13968 0.40048 0.0
H167 H 0.74529 0.9067 0.36745 0.0
H168 H 0.07784 0.18194 0.47789 0.0
H169 H 0.2608 0.2471 0.41891 0.0
H170 H 0.17206 0.30163 0.50336 0.0
H171 H 0.35166 0.36628 0.44525 0.0
H172 H 0.97685 0.03614 0.52811 0.0
H173 H 0.77125 0.96768 0.48013 0.0
H174 H 0.02612 0.17183 0.31276 0.0
H175 H 0.13976 0.36529 0.36861 0.0
Li176 Li 0.20052 0.08251 0.73571 0.0
Li177 Li 0.19653 0.18929 0.76168 0.0
Li178 Li 0.08845 0.04477 0.76698 0.0
Li179 Li 0.09193 0.11696 0.72882 0.0
C180 C 0.2373 0.05714 0.78552 0.0
N181 N 0.30307 0.97643 0.80895 0.0
C182 C 0.30227 0.09819 0.80203 0.0
C183 C 0.20589 0.97525 0.78081 0.0
C184 C 0.33464 0.05625 0.81373 0.0
C185 C 0.23997 0.93546 0.79287 0.0
C186 C 0.24199 0.257 0.71229 0.0
C187 C 0.24318 0.38111 0.70594 0.0
N188 N 0.30799 0.40574 0.68982 0.0
C189 C 0.30868 0.28349 0.69574 0.0
C190 C 0.20902 0.30611 0.71754 0.0
C191 C 0.34118 0.35893 0.68455 0.0
C192 C 0.26575 0.01407 0.69983 0.0
N193 N 0.28042 0.06446 0.72035 0.0
C194 C 0.42166 0.11467 0.71621 0.0
C195 C 0.35619 0.11329 0.72894 0.0
C196 C 0.40879 0.06514 0.69447 0.0
C197 C 0.32946 0.01282 0.6867 0.0
H198 H 0.20524 0.97792 0.69288 0.0
H199 H 0.366 0.154 0.74498 0.0
C200 C 0.25106 0.31533 0.79951 0.0
N201 N 0.27098 0.2859 0.77827 0.0
C202 C 0.31094 0.37931 0.81353 0.0
C203 C 0.41009 0.38185 0.78331 0.0
C204 C 0.34836 0.31828 0.76982 0.0
C205 C 0.39186 0.41216 0.80575 0.0
H206 H 0.18935 0.28671 0.80626 0.0
H207 H 0.36249 0.29221 0.75321 0.0
C208 C 0.02346 0.93393 0.72514 0.0
N209 N 0.90042 0.77993 0.71526 0.0
C210 C 0.94419 0.9178 0.72418 0.0
C211 C 0.04023 0.87182 0.72085 0.0
C212 C 0.88282 0.83954 0.71922 0.0
C213 C 0.97717 0.79434 0.71595 0.0
C214 C 0.01489 0.15401 0.77005 0.0
C215 C 0.93677 0.08875 0.76916 0.0
C216 C 0.02709 0.23059 0.77567 0.0
C217 C 0.87198 0.10135 0.77362 0.0
C218 C 0.96071 0.24072 0.78001 0.0
N219 N 0.88518 0.17645 0.77889 0.0
C220 C 0.99382 0.99855 0.81233 0.0
C221 C 0.98466 0.88836 0.78831 0.0
C222 C 0.93435 0.94696 0.82964 0.0
N223 N 0.01643 0.96869 0.7918 0.0
C224 C 0.92453 0.83459 0.80497 0.0
C225 C 0.89761 0.86356 0.82582 0.0
H226 H 0.02081 0.06269 0.81495 0.0
H227 H 0.00463 0.86552 0.77236 0.0
C228 C 0.00345 0.07193 0.6828 0.0
N229 N 0.02421 0.12321 0.70339 0.0
C230 C 0.94627 0.06594 0.66535 0.0
C231 C 0.93528 0.16809 0.68997 0.0
C232 C 0.99303 0.17249 0.70678 0.0
C233 C 0.91009 0.11339 0.66907 0.0
H234 H 0.02987 0.03409 0.68027 0.0
H235 H 0.01142 0.21416 0.72284 0.0
O236 O 0.2055 0.09749 0.77374 0.0
O237 O 0.21051 0.18404 0.72376 0.0
O238 O 0.08459 0.01013 0.72994 0.0
O239 O 0.0793 0.14322 0.76567 0.0
H240 H 0.32734 0.16176 0.80575 0.0
H241 H 0.15617 0.943 0.76785 0.0
H242 H 0.38485 0.08715 0.82661 0.0
H243 H 0.21636 0.87205 0.78941 0.0
H244 H 0.21835 0.41985 0.70983 0.0
H245 H 0.33508 0.24615 0.69163 0.0
H246 H 0.15818 0.28682 0.73064 0.0
H247 H 0.39276 0.38025 0.67167 0.0
H248 H 0.48183 0.1561 0.7227 0.0
H249 H 0.31708 0.97499 0.66966 0.0
H250 H 0.29453 0.39967 0.83109 0.0
H251 H 0.47164 0.40525 0.77677 0.0
H252 H 0.93016 0.96518 0.72708 0.0
H253 H 0.10115 0.88307 0.72166 0.0
H254 H 0.8212 0.82622 0.71847 0.0
H255 H 0.98922 0.74563 0.71276 0.0
H256 H 0.92624 0.02898 0.76524 0.0
H257 H 0.08717 0.2818 0.77637 0.0
H258 H 0.8112 0.05139 0.77295 0.0
H259 H 0.96924 0.29971 0.78422 0.0
H260 H 0.91736 0.97232 0.84579 0.0
H261 H 0.89815 0.77097 0.8011 0.0
H262 H 0.93045 0.02433 0.64921 0.0
H263 H 0.90914 0.20576 0.6938 0.0
H264 H 0.99053 0.37405 0.08282 0.0
H265 H 0.20662 0.02967 0.30881 0.0
H266 H 0.91594 0.34739 0.22124 0.0
H267 H 0.90347 0.24075 0.19179 0.0
H268 H 0.14789 0.30462 0.20778 0.0
H269 H 0.15993 0.41145 0.23702 0.0
H270 H 0.94828 0.48144 0.18568 0.0
H271 H 0.94477 0.43602 0.1409 0.0
H272 H 0.18388 0.47177 0.14871 0.0
H273 H 0.18684 0.51791 0.19333 0.0
H274 H 0.96911 0.63212 0.20879 0.0
H275 H 0.98684 0.72242 0.17352 0.0
H276 H 0.23601 0.78622 0.16563 0.0
H277 H 0.21756 0.69572 0.2011 0.0
H278 H 0.96358 0.65692 0.26613 0.0
H279 H 0.98144 0.78305 0.28441 0.0
H280 H 0.23898 0.88666 0.2779 0.0
H281 H 0.22009 0.7601 0.2596 0.0
H282 H 0.93673 0.52605 0.30183 0.0
H283 H 0.92928 0.6048 0.33847 0.0
H284 H 0.18826 0.73805 0.34112 0.0
H285 H 0.19497 0.65904 0.3046 0.0
H286 H 0.94164 0.33869 0.27972 0.0
H287 H 0.95173 0.24749 0.30977 0.0
H288 H 0.19572 0.42933 0.32642 0.0
H289 H 0.18548 0.51937 0.29626 0.0
O290 O 0.99417 0.39478 0.10024 0.0
O291 O 0.11761 0.41532 0.10517 0.0
O292 O 0.06509 0.92661 0.30162 0.0
O293 O 0.19783 0.98063 0.30038 0.0
C294 C 0.05553 0.46775 0.23966 0.0
C295 C 0.0672 0.52389 0.22048 0.0
C296 C 0.07987 0.60007 0.22767 0.0
C297 C 0.0797 0.62009 0.25394 0.0
C298 C 0.0704 0.56489 0.27321 0.0
C299 C 0.06045 0.48921 0.26611 0.0
C300 C 0.03901 0.38725 0.23106 0.0
C301 C 0.96544 0.33576 0.2193 0.0
C302 C 0.95872 0.27568 0.20227 0.0
C303 C 0.02518 0.26564 0.19716 0.0
C304 C 0.09564 0.31098 0.21141 0.0
C305 C 0.10255 0.37168 0.22827 0.0
C306 C 0.06777 0.50289 0.19268 0.0
C307 C 0.00019 0.48043 0.17754 0.0
C308 C 0.99823 0.45413 0.15203 0.0
C309 C 0.06393 0.44994 0.14125 0.0
C310 C 0.13224 0.47418 0.1564 0.0
C311 C 0.13417 0.50067 0.18186 0.0
C312 C 0.09221 0.65817 0.20747 0.0
C313 C 0.02752 0.66601 0.1995 0.0
C314 C 0.03757 0.71673 0.17921 0.0
C315 C 0.11264 0.76057 0.16669 0.0
C316 C 0.17763 0.75318 0.17498 0.0
C317 C 0.16731 0.70192 0.19519 0.0
C318 C 0.09055 0.69962 0.26157 0.0
C319 C 0.02372 0.70741 0.26828 0.0
C320 C 0.03414 0.77935 0.27884 0.0
C321 C 0.11171 0.84475 0.28285 0.0
C322 C 0.17847 0.8374 0.27521 0.0
C323 C 0.16792 0.76544 0.26459 0.0
C324 C 0.06637 0.58686 0.3006 0.0
C325 C 0.99166 0.56932 0.31122 0.0
C326 C 0.98755 0.61518 0.33187 0.0
C327 C 0.05819 0.67852 0.34231 0.0
C328 C 0.13278 0.68945 0.33358 0.0
C329 C 0.13681 0.64393 0.31282 0.0
C330 C 0.06264 0.43592 0.28593 0.0
C331 C 0.99703 0.35885 0.28999 0.0
C332 C 0.00308 0.30675 0.30701 0.0
C333 C 0.07461 0.33124 0.3204 0.0
C334 C 0.13955 0.40904 0.31662 0.0
C335 C 0.13369 0.46067 0.29947 0.0
C336 C 0.06059 0.41924 0.11447 0.0
C337 C 0.12314 0.91972 0.29543 0.0
H338 H 0.64958 0.98311 0.41501 0.0
H339 H 0.27466 0.25578 0.63526 0.0
H340 H 0.63717 0.93081 0.55516 0.0
H341 H 0.71792 0.89862 0.52527 0.0
H342 H 0.92173 0.1344 0.53826 0.0
H343 H 0.83991 0.16697 0.56764 0.0
H344 H 0.53633 0.97 0.52176 0.0
H345 H 0.56121 0.95538 0.47588 0.0
H346 H 0.78341 0.18197 0.47913 0.0
H347 H 0.75749 0.19598 0.52494 0.0
H348 H 0.41566 0.00627 0.55336 0.0
H349 H 0.33248 0.01664 0.52058 0.0
H350 H 0.53359 0.24125 0.49537 0.0
H351 H 0.6168 0.23098 0.5288 0.0
H352 H 0.40835 0.00231 0.60781 0.0
H353 H 0.30283 0.02671 0.62511 0.0
H354 H 0.45158 0.27872 0.60833 0.0
H355 H 0.55693 0.25347 0.59123 0.0
H356 H 0.52197 0.96556 0.63541 0.0
H357 H 0.43321 0.94847 0.67236 0.0
H358 H 0.537 0.20537 0.67822 0.0
H359 H 0.62547 0.22176 0.64138 0.0
H360 H 0.68691 0.96566 0.61674 0.0
H361 H 0.79031 0.97669 0.64605 0.0
H362 H 0.88463 0.23263 0.65213 0.0
H363 H 0.77949 0.22009 0.62377 0.0
O364 O 0.64043 0.99027 0.4331 0.0
O365 O 0.74742 0.11251 0.43489 0.0
O366 O 0.24539 0.11619 0.63931 0.0
O367 O 0.31522 0.24449 0.62833 0.0
C368 C 0.6772 0.07854 0.57296 0.0
C369 C 0.63141 0.09126 0.55467 0.0
C370 C 0.57199 0.1093 0.56301 0.0
C371 C 0.55649 0.11213 0.58965 0.0
C372 C 0.60372 0.10132 0.60799 0.0
C373 C 0.66639 0.08781 0.59961 0.0
C374 C 0.7328 0.0513 0.56342 0.0
C375 C 0.70021 0.97428 0.55238 0.0
C376 C 0.74592 0.95625 0.53513 0.0
C377 C 0.82537 0.01445 0.52927 0.0
C378 C 0.86052 0.08848 0.54257 0.0
C379 C 0.81423 0.10702 0.55949 0.0
C380 C 0.64504 0.08409 0.52659 0.0
C381 C 0.58999 0.01663 0.51245 0.0
C382 C 0.60456 0.00829 0.4863 0.0
C383 C 0.67431 0.0675 0.47386 0.0
C384 C 0.72903 0.13535 0.48811 0.0
C385 C 0.71443 0.14352 0.51426 0.0
C386 C 0.52165 0.11851 0.54373 0.0
C387 C 0.44142 0.05841 0.5411 0.0
C388 C 0.39421 0.06438 0.52233 0.0
C389 C 0.42659 0.13022 0.50565 0.0
C390 C 0.5074 0.19001 0.50802 0.0
C391 C 0.55458 0.1844 0.5271 0.0
C392 C 0.49039 0.12625 0.59846 0.0
C393 C 0.41793 0.0627 0.60786 0.0
C394 C 0.35785 0.07683 0.61776 0.0
C395 C 0.36903 0.1548 0.61829 0.0
C396 C 0.44112 0.21802 0.60829 0.0
C397 C 0.50127 0.2038 0.59843 0.0
C398 C 0.57962 0.09486 0.63562 0.0
C399 C 0.52859 0.01828 0.64557 0.0
C400 C 0.4771 0.00854 0.66642 0.0
C401 C 0.47702 0.07544 0.67778 0.0
C402 C 0.53575 0.15265 0.66991 0.0
C403 C 0.58683 0.16229 0.64895 0.0
C404 C 0.72546 0.09197 0.61832 0.0
C405 C 0.7296 0.02381 0.62465 0.0
C406 C 0.78929 0.03053 0.64118 0.0
C407 C 0.84626 0.1057 0.65148 0.0
C408 C 0.84127 0.17363 0.64502 0.0
C409 C 0.7813 0.16668 0.62873 0.0
C410 C 0.68986 0.05839 0.44613 0.0
C411 C 0.306 0.17032 0.62929 0.0
H412 H 0.70506 0.76752 0.08061 0.0
H413 H 0.24693 0.10923 0.8597 0.0
H414 H 0.65335 0.79339 0.94229 0.0
H415 H 0.74604 0.89845 0.97172 0.0
H416 H 0.92292 0.82701 0.95542 0.0
H417 H 0.82966 0.72197 0.92614 0.0
H418 H 0.55216 0.66161 0.97989 0.0
H419 H 0.59562 0.70693 0.02423 0.0
H420 H 0.79117 0.65892 0.01262 0.0
H421 H 0.74658 0.61319 0.96845 0.0
H422 H 0.41562 0.50706 0.95686 0.0
H423 H 0.34019 0.41554 0.99206 0.0
H424 H 0.52496 0.35145 0.99757 0.0
H425 H 0.59969 0.44289 0.96209 0.0
H426 H 0.38653 0.48668 0.90031 0.0
H427 H 0.27652 0.36122 0.8831 0.0
H428 H 0.4261 0.25292 0.88648 0.0
H429 H 0.53568 0.37896 0.90356 0.0
H430 H 0.49133 0.61944 0.86605 0.0
H431 H 0.40379 0.54549 0.82993 0.0
H432 H 0.52498 0.40853 0.82063 0.0
H433 H 0.61197 0.48271 0.8567 0.0
H434 H 0.6732 0.79098 0.87946 0.0
H435 H 0.77726 0.88173 0.84908 0.0
H436 H 0.8686 0.71725 0.84266 0.0
H437 H 0.76252 0.62613 0.87206 0.0
O438 O 0.68698 0.74643 0.0634 0.0
O439 O 0.7849 0.71822 0.0567 0.0
O440 O 0.21429 0.21739 0.86576 0.0
O441 O 0.2884 0.1586 0.86733 0.0
C442 C 0.67003 0.67009 0.92406 0.0
C443 C 0.62452 0.61404 0.94343 0.0
C444 C 0.55942 0.53896 0.93656 0.0
C445 C 0.53841 0.52037 0.91044 0.0
C446 C 0.58498 0.57588 0.89099 0.0
C447 C 0.65259 0.64978 0.89775 0.0
C448 C 0.73488 0.75005 0.93226 0.0
C449 C 0.71361 0.80316 0.9441 0.0
C450 C 0.76607 0.86228 0.96116 0.0
C451 C 0.84082 0.8696 0.96623 0.0
C452 C 0.86567 0.82277 0.95183 0.0
C453 C 0.8128 0.76311 0.93493 0.0
C454 C 0.64631 0.63427 0.97103 0.0
C455 C 0.60367 0.65993 0.98712 0.0
C456 C 0.6289 0.68615 0.01237 0.0
C457 C 0.69712 0.68691 0.02194 0.0
C458 C 0.73848 0.65922 0.00587 0.0
C459 C 0.71308 0.63292 0.98067 0.0
C460 C 0.51247 0.48081 0.95694 0.0
C461 C 0.43941 0.47288 0.96562 0.0
C462 C 0.39711 0.42145 0.98588 0.0
C463 C 0.42726 0.37708 0.99771 0.0
C464 C 0.50036 0.38482 0.98877 0.0
C465 C 0.54287 0.43668 0.96856 0.0
C466 C 0.46884 0.44167 0.90314 0.0
C467 C 0.39494 0.43541 0.89763 0.0
C468 C 0.3324 0.36383 0.8877 0.0
C469 C 0.34272 0.29716 0.88323 0.0
C470 C 0.41622 0.30312 0.88959 0.0
C471 C 0.47873 0.37481 0.89949 0.0
C472 C 0.55796 0.55641 0.86392 0.0
C473 C 0.50164 0.57636 0.85533 0.0
C474 C 0.45088 0.53323 0.83498 0.0
C475 C 0.45668 0.47038 0.82277 0.0
C476 C 0.5193 0.45688 0.82957 0.0
C477 C 0.56957 0.4996 0.85005 0.0
C478 C 0.70996 0.70178 0.87767 0.0
C479 C 0.71505 0.77431 0.87109 0.0
C480 C 0.77523 0.82642 0.854 0.0
C481 C 0.83191 0.80721 0.84344 0.0
C482 C 0.82554 0.7337 0.84998 0.0
C483 C 0.76498 0.68147 0.86683 0.0
C484 C 0.72573 0.7178 0.04839 0.0
C485 C 0.27771 0.22211 0.87163 0.0
loop_
_geom_bond_atom_site_label_1
_geom_bond_atom_site_label_2
_geom_bond_distance
_geom_bond_site_symmetry_2
_ccdc_geom_bond_type
Li0 N17 1.990 . S
Li0 O60 1.956 . S
Li0 O61 1.970 . S
Li0 O62 1.961 . S
Li1 N25 1.990 . S
Li1 O60 1.970 . S
Li1 O61 1.956 . S
Li1 O63 1.961 1_455 S
Li2 N47 1.990 1_545 S
Li2 O60 1.961 . S
Li2 O62 1.956 . S
Li2 O63 1.970 1_455 S
Li3 N53 1.990 1_445 S
Li3 O61 1.961 . S
Li3 O62 1.970 . S
Li3 O63 1.956 1_455 S
C4 C6 1.348 . S
C4 C7 1.356 . S
C4 O60 1.325 . S
N5 C8 1.314 . S
N5 C9 1.279 . S
C6 C4 1.348 . S
C6 C8 1.353 . S
C6 H64 0.929 . S
C7 C4 1.356 . S
C7 C9 1.358 . S
C7 H65 0.930 . S
C8 N5 1.314 . S
C8 C6 1.353 . S
C8 H66 0.930 . S
C9 N5 1.279 . S
C9 C7 1.358 . S
C9 H67 0.930 . S
C10 C13 1.348 . S
C10 C14 1.356 1_455 S
C10 O61 1.325 . S
C11 N12 1.279 1_655 S
C11 C14 1.358 . S
C11 H68 0.930 . S
N12 C11 1.279 1_455 S
N12 C15 1.314 . S
C13 C10 1.348 . S
C13 C15 1.353 . S
C13 H69 0.929 . S
C14 C10 1.356 1_655 S
C14 C11 1.358 . S
C14 H70 0.930 . S
C15 N12 1.314 . S
C15 C13 1.353 . S
C15 H71 0.930 . S
C16 N17 1.314 . S
C16 C21 1.353 . S
C16 H22 0.930 . S
N17 Li0 1.990 . S
N17 C16 1.314 . S
N17 C19 1.279 . S
C18 C19 1.358 . S
C18 C20 1.356 . S
C18 H72 0.930 . S
C19 N17 1.279 . S
C19 C18 1.358 . S
C19 H23 0.930 . S
C20 C18 1.356 . S
C20 C21 1.348 . S
C21 C16 1.353 . S
C21 C20 1.348 . S
C21 H73 0.929 1_554 S
H22 C16 0.930 . S
H23 C19 0.930 . S
C24 N25 1.314 . S
C24 C26 1.353 1_455 S
C24 H30 0.930 . S
N25 Li1 1.990 . S
N25 C24 1.314 . S
N25 C28 1.279 . S
C26 C24 1.353 1_655 S
C26 C29 1.348 . S
C26 H74 0.929 . S
C27 C28 1.358 . S
C27 C29 1.356 1_455 S
C27 H75 0.930 . S
C28 N25 1.279 . S
C28 C27 1.358 . S
C28 H31 0.930 . S
C29 C26 1.348 . S
C29 C27 1.356 1_655 S
H30 C24 0.930 . S
H31 C28 0.930 . S
C32 C34 1.348 . S
C32 C35 1.356 . S
C32 O62 1.325 1_565 S
N33 C36 1.314 . S
N33 C37 1.279 . S
C34 C32 1.348 . S
C34 C36 1.353 . S
C34 H76 0.929 . S
C35 C32 1.356 . S
C35 C37 1.358 . S
C35 H77 0.930 1_565 S
C36 N33 1.314 . S
C36 C34 1.353 . S
C36 H78 0.930 . S
C37 N33 1.279 . S
C37 C35 1.358 . S
C37 H79 0.930 . S
C38 C39 1.348 . S
C38 C40 1.356 . S
C38 O63 1.325 1_565 S
C39 C38 1.348 . S
C39 C41 1.353 . S
C39 H80 0.929 . S
C40 C38 1.356 . S
C40 C42 1.358 . S
C40 H81 0.930 1_565 S
C41 C39 1.353 . S
C41 N43 1.314 . S
C41 H82 0.930 . S
C42 C40 1.358 . S
C42 N43 1.279 . S
C42 H83 0.930 . S
N43 C41 1.314 . S
N43 C42 1.279 . S
C44 C46 1.353 . S
C44 N47 1.314 . S
C44 H50 0.930 . S
C45 N47 1.279 . S
C45 C48 1.358 . S
C45 H51 0.930 . S
C46 C44 1.353 . S
C46 C49 1.348 . S
C46 H84 0.929 . S
N47 Li2 1.990 1_565 S
N47 C44 1.314 . S
N47 C45 1.279 . S
C48 C45 1.358 . S
C48 C49 1.356 . S
C48 H85 0.930 . S
C49 C46 1.348 . S
C49 C48 1.356 . S
H50 C44 0.930 . S
H51 C45 0.930 . S
C52 N53 1.314 . S
C52 C54 1.353 . S
C52 H58 0.930 1_565 S
N53 Li3 1.990 1_665 S
N53 C52 1.314 . S
N53 C56 1.279 . S
C54 C52 1.353 . S
C54 C57 1.348 . S
C54 H86 0.929 1_554 S
C55 C56 1.358 . S
C55 C57 1.356 . S
C55 H87 0.930 . S
C56 N53 1.279 . S
C56 C55 1.358 . S
C56 H59 0.930 . S
C57 C54 1.348 . S
C57 C55 1.356 . S
H58 C52 0.930 1_545 S
H59 C56 0.930 . S
O60 Li0 1.956 . S
O60 Li1 1.970 . S
O60 Li2 1.961 . S
O60 C4 1.325 . S
O61 Li0 1.970 . S
O61 Li1 1.956 . S
O61 Li3 1.961 . S
O61 C10 1.325 . S
O62 Li0 1.961 . S
O62 Li2 1.956 . S
O62 Li3 1.970 . S
O62 C32 1.325 1_545 S
O63 Li1 1.961 1_655 S
O63 Li2 1.970 1_655 S
O63 Li3 1.956 1_655 S
O63 C38 1.325 1_545 S
H64 C6 0.929 . S
H65 C7 0.930 . S
H66 C8 0.930 . S
H67 C9 0.930 . S
H68 C11 0.930 . S
H69 C13 0.929 . S
H70 C14 0.930 . S
H71 C15 0.930 . S
H72 C18 0.930 . S
H73 C21 0.929 1_556 S
H74 C26 0.929 . S
H75 C27 0.930 . S
H76 C34 0.929 . S
H77 C35 0.930 1_545 S
H78 C36 0.930 . S
H79 C37 0.930 . S
H80 C39 0.929 . S
H81 C40 0.930 1_545 S
H82 C41 0.930 . S
H83 C42 0.930 . S
H84 C46 0.929 . S
H85 C48 0.930 . S
H86 C54 0.929 1_556 S
H87 C55 0.930 . S
Li88 N105 1.990 . S
Li88 O148 1.956 . S
Li88 O149 1.970 1_565 S
Li88 O150 1.954 1_565 S
Li89 N113 1.990 . S
Li89 O148 1.970 1_545 S
Li89 O149 1.956 . S
Li89 O151 1.961 . S
Li90 N135 1.990 1_445 S
Li90 O148 1.961 1_545 S
Li90 O150 1.956 . S
Li90 O151 1.970 . S
Li91 N141 1.990 . S
Li91 O149 1.961 . S
Li91 O150 1.979 . S
Li91 O151 1.956 . S
C92 C94 1.348 . S
C92 C95 1.356 1_455 S
C92 O148 1.325 . S
N93 C96 1.314 . S
N93 C97 1.279 1_455 S
C94 C92 1.348 . S
C94 C96 1.353 . S
C94 H152 0.929 . S
C95 C92 1.356 1_655 S
C95 C97 1.358 . S
C95 H153 0.930 . S
C96 N93 1.314 . S
C96 C94 1.353 . S
C96 H154 0.930 . S
C97 N93 1.279 1_655 S
C97 C95 1.358 . S
C97 H155 0.930 . S
C98 C101 1.347 . S
C98 C102 1.356 . S
C98 O149 1.325 . S
C99 N100 1.279 . S
C99 C102 1.358 . S
C99 H156 0.930 . S
N100 C99 1.279 . S
N100 C103 1.314 . S
C101 C98 1.347 . S
C101 C103 1.353 . S
C101 H157 0.930 1_545 S
C102 C98 1.356 . S
C102 C99 1.358 . S
C102 H158 0.930 . S
C103 N100 1.314 . S
C103 C101 1.353 . S
C103 H159 0.930 1_545 S
C104 N105 1.314 . S
C104 C109 1.353 1_455 S
C104 H110 0.930 . S
N105 Li88 1.990 . S
N105 C104 1.314 . S
N105 C107 1.279 . S
C106 C107 1.358 . S
C106 C108 1.356 1_455 S
C106 H160 0.930 . S
C107 N105 1.279 . S
C107 C106 1.358 . S
C107 H111 0.930 . S
C108 C106 1.356 1_655 S
C108 C109 1.348 . S
C109 C104 1.353 1_655 S
C109 C108 1.348 . S
C109 H161 0.929 . S
H110 C104 0.930 . S
H111 C107 0.930 . S
C112 N113 1.314 . S
C112 C114 1.353 . S
C112 H118 0.930 . S
N113 Li89 1.990 . S
N113 C112 1.314 . S
N113 C116 1.279 . S
C114 C112 1.353 . S
C114 C117 1.348 . S
C114 H162 0.929 . S
C115 C116 1.358 . S
C115 C117 1.356 . S
C115 H163 0.930 . S
C116 N113 1.279 . S
C116 C115 1.358 . S
C116 H119 0.930 . S
C117 C114 1.348 . S
C117 C115 1.356 . S
H118 C112 0.930 . S
H119 C116 0.930 . S
C120 C122 1.348 1_565 S
C120 C123 1.356 . S
C120 O150 1.323 1_665 S
N121 C124 1.314 1_565 S
N121 C125 1.279 . S
C122 C120 1.348 1_545 S
C122 C124 1.353 . S
C122 H164 0.929 . S
C123 C120 1.356 . S
C123 C125 1.358 . S
C123 H165 0.930 . S
C124 N121 1.314 1_545 S
C124 C122 1.353 . S
C124 H166 0.930 . S
C125 N121 1.279 . S
C125 C123 1.358 . S
C125 H167 0.930 . S
C126 C127 1.348 . S
C126 C128 1.356 . S
C126 O151 1.325 . S
C127 C126 1.348 . S
C127 C129 1.353 . S
C127 H168 0.929 . S
C128 C126 1.356 . S
C128 C130 1.358 . S
C128 H169 0.930 . S
C129 C127 1.353 . S
C129 N131 1.314 . S
C129 H170 0.930 . S
C130 C128 1.358 . S
C130 N131 1.279 . S
C130 H171 0.930 . S
N131 C129 1.314 . S
N131 C130 1.279 . S
C132 C134 1.353 . S
C132 N135 1.314 . S
C132 H138 0.930 . S
C133 N135 1.279 . S
C133 C136 1.358 . S
C133 H139 0.930 . S
C134 C132 1.353 . S
C134 C137 1.348 . S
C134 H172 0.929 . S
N135 Li90 1.990 1_665 S
N135 C132 1.314 . S
N135 C133 1.279 . S
C136 C133 1.358 . S
C136 C137 1.356 . S
C136 H173 0.930 . S
C137 C134 1.348 . S
C137 C136 1.356 . S
H138 C132 0.930 . S
H139 C133 0.930 . S
C140 N141 1.314 . S
C140 C142 1.353 . S
C140 H146 0.930 . S
N141 Li91 1.990 . S
N141 C140 1.314 . S
N141 C144 1.279 . S
C142 C140 1.353 . S
C142 C145 1.348 . S
C142 H174 0.929 . S
C143 C144 1.358 . S
C143 C145 1.356 . S
C143 H175 0.930 . S
C144 N141 1.279 . S
C144 C143 1.358 . S
C144 H147 0.930 . S
C145 C142 1.348 . S
C145 C143 1.356 . S
H146 C140 0.930 . S
H147 C144 0.930 . S
O148 Li88 1.956 . S
O148 Li89 1.970 1_565 S
O148 Li90 1.961 1_565 S
O148 C92 1.325 . S
O149 Li88 1.970 1_545 S
O149 Li89 1.956 . S
O149 Li91 1.961 . S
O149 C98 1.325 . S
O150 Li88 1.954 1_545 S
O150 Li90 1.956 . S
O150 Li91 1.979 . S
O150 C120 1.323 1_445 S
O151 Li89 1.961 . S
O151 Li90 1.970 . S
O151 Li91 1.956 . S
O151 C126 1.325 . S
H152 C94 0.929 . S
H153 C95 0.930 . S
H154 C96 0.930 . S
H155 C97 0.930 . S
H156 C99 0.930 . S
H157 C101 0.930 1_565 S
H158 C102 0.930 . S
H159 C103 0.930 1_565 S
H160 C106 0.930 . S
H161 C109 0.929 . S
H162 C114 0.929 . S
H163 C115 0.930 . S
H164 C122 0.929 . S
H165 C123 0.930 . S
H166 C124 0.930 . S
H167 C125 0.930 . S
H168 C127 0.929 . S
H169 C128 0.930 . S
H170 C129 0.930 . S
H171 C130 0.930 . S
H172 C134 0.929 . S
H173 C136 0.930 . S
H174 C142 0.929 . S
H175 C143 0.930 . S
Li176 N193 1.990 . S
Li176 O236 1.956 . S
Li176 O237 1.970 . S
Li176 O238 1.961 . S
Li177 N201 1.990 . S
Li177 O236 1.970 . S
Li177 O237 1.956 . S
Li177 O239 1.961 . S
Li178 N223 1.990 1_545 S
Li178 O236 1.961 . S
Li178 O238 1.956 . S
Li178 O239 1.970 . S
Li179 N229 1.990 . S
Li179 O237 1.961 . S
Li179 O238 1.970 . S
Li179 O239 1.956 . S
C180 C182 1.348 . S
C180 C183 1.356 . S
C180 O236 1.325 . S
N181 C184 1.314 . S
N181 C185 1.279 1_545 S
C182 C180 1.348 . S
C182 C184 1.353 . S
C182 H240 0.929 . S
C183 C180 1.356 . S
C183 C185 1.358 1_545 S
C183 H241 0.930 1_545 S
C184 N181 1.314 . S
C184 C182 1.353 . S
C184 H242 0.930 . S
C185 N181 1.279 1_565 S
C185 C183 1.358 1_565 S
C185 H243 0.930 . S
C186 C189 1.348 . S
C186 C190 1.356 . S
C186 O237 1.325 . S
C187 N188 1.279 . S
C187 C190 1.358 . S
C187 H244 0.930 . S
N188 C187 1.279 . S
N188 C191 1.314 . S
C189 C186 1.348 . S
C189 C191 1.353 . S
C189 H245 0.929 . S
C190 C186 1.356 . S
C190 C187 1.358 . S
C190 H246 0.930 . S
C191 N188 1.314 . S
C191 C189 1.353 . S
C191 H247 0.930 . S
C192 N193 1.314 . S
C192 C197 1.353 . S
C192 H198 0.930 . S
N193 Li176 1.990 . S
N193 C192 1.314 . S
N193 C195 1.279 . S
C194 C195 1.358 . S
C194 C196 1.356 . S
C194 H248 0.930 . S
C195 N193 1.279 . S
C195 C194 1.358 . S
C195 H199 0.930 . S
C196 C194 1.356 . S
C196 C197 1.348 . S
C197 C192 1.353 . S
C197 C196 1.348 . S
C197 H249 0.929 . S
H198 C192 0.930 . S
H199 C195 0.930 . S
C200 N201 1.314 . S
C200 C202 1.353 . S
C200 H206 0.930 . S
N201 Li177 1.990 . S
N201 C200 1.314 . S
N201 C204 1.279 . S
C202 C200 1.353 . S
C202 C205 1.348 . S
C202 H250 0.929 . S
C203 C204 1.358 . S
C203 C205 1.356 . S
C203 H251 0.930 . S
C204 N201 1.279 . S
C204 C203 1.358 . S
C204 H207 0.930 . S
C205 C202 1.348 . S
C205 C203 1.356 . S
H206 C200 0.930 . S
H207 C204 0.930 . S
C208 C210 1.348 . S
C208 C211 1.356 . S
C208 O238 1.325 1_565 S
N209 C212 1.314 . S
N209 C213 1.279 1_655 S
C210 C208 1.348 . S
C210 C212 1.353 1_455 S
C210 H252 0.929 1_455 S
C211 C208 1.356 . S
C211 C213 1.358 . S
C211 H253 0.930 . S
C212 N209 1.314 . S
C212 C210 1.353 1_655 S
C212 H254 0.930 . S
C213 N209 1.279 1_455 S
C213 C211 1.358 . S
C213 H255 0.930 . S
C214 C215 1.348 1_455 S
C214 C216 1.356 . S
C214 O239 1.325 . S
C215 C214 1.348 1_655 S
C215 C217 1.353 . S
C215 H256 0.929 . S
C216 C214 1.356 . S
C216 C218 1.358 . S
C216 H257 0.930 . S
C217 C215 1.353 . S
C217 N219 1.314 . S
C217 H258 0.930 . S
C218 C216 1.358 . S
C218 N219 1.279 1_455 S
C218 H259 0.930 . S
N219 C217 1.314 . S
N219 C218 1.279 1_655 S
C220 C222 1.353 . S
C220 N223 1.314 . S
C220 H226 0.930 . S
C221 N223 1.279 1_655 S
C221 C224 1.358 . S
C221 H227 0.930 . S
C222 C220 1.353 . S
C222 C225 1.348 1_455 S
C222 H260 0.929 . S
N223 Li178 1.990 1_565 S
N223 C220 1.314 . S
N223 C221 1.279 1_455 S
C224 C221 1.358 . S
C224 C225 1.356 . S
C224 H261 0.930 . S
C225 C222 1.348 1_655 S
C225 C224 1.356 . S
H226 C220 0.930 . S
H227 C221 0.930 . S
C228 N229 1.314 . S
C228 C230 1.353 . S
C228 H234 0.930 . S
N229 Li179 1.990 . S
N229 C228 1.314 . S
N229 C232 1.279 1_455 S
C230 C228 1.353 . S
C230 C233 1.348 1_455 S
C230 H262 0.929 . S
C231 C232 1.358 . S
C231 C233 1.356 . S
C231 H263 0.930 . S
C232 N229 1.279 1_655 S
C232 C231 1.358 . S
C232 H235 0.930 . S
C233 C230 1.348 1_655 S
C233 C231 1.356 . S
H234 C228 0.930 . S
H235 C232 0.930 . S
O236 Li176 1.956 . S
O236 Li177 1.970 . S
O236 Li178 1.961 . S
O236 C180 1.325 . S
O237 Li176 1.970 . S
O237 Li177 1.956 . S
O237 Li179 1.961 . S
O237 C186 1.325 . S
O238 Li176 1.961 . S
O238 Li178 1.956 . S
O238 Li179 1.970 . S
O238 C208 1.325 1_545 S
O239 Li177 1.961 . S
O239 Li178 1.970 . S
O239 Li179 1.956 . S
O239 C214 1.325 . S
H240 C182 0.929 . S
H241 C183 0.930 1_565 S
H242 C184 0.930 . S
H243 C185 0.930 . S
H244 C187 0.930 . S
H245 C189 0.929 . S
H246 C190 0.930 . S
H247 C191 0.930 . S
H248 C194 0.930 . S
H249 C197 0.929 . S
H250 C202 0.929 . S
H251 C203 0.930 . S
H252 C210 0.929 1_655 S
H253 C211 0.930 . S
H254 C212 0.930 . S
H255 C213 0.930 . S
H256 C215 0.929 . S
H257 C216 0.930 . S
H258 C217 0.930 . S
H259 C218 0.930 . S
H260 C222 0.929 . S
H261 C224 0.930 . S
H262 C230 0.929 . S
H263 C231 0.930 . S
H264 O290 0.856 . S
H265 O293 0.854 . S
H266 C301 0.930 1_655 S
H267 C302 0.930 . S
H268 C304 0.930 . S
H269 C305 0.930 . S
H270 C307 0.931 1_655 S
H271 C308 0.930 1_655 S
H272 C310 0.930 . S
H273 C311 0.929 . S
H274 C313 0.930 1_655 S
H275 C314 0.931 . S
H276 C316 0.930 . S
H277 C317 0.929 . S
H278 C319 0.931 1_655 S
H279 C320 0.930 1_655 S
H280 C322 0.930 . S
H281 C323 0.932 . S
H282 C325 0.930 1_655 S
H283 C326 0.929 . S
H284 C328 0.931 . S
H285 C329 0.930 . S
H286 C331 0.929 1_655 S
H287 C332 0.931 1_655 S
H288 C334 0.930 . S
H289 C335 0.929 . S
O290 H264 0.856 . S
O290 C336 1.300 . S
O291 C336 1.209 . S
O292 C337 1.199 . S
O293 H265 0.854 . S
O293 C337 1.297 1_545 S
C294 C295 1.404 . S
C294 C299 1.397 . S
C294 C300 1.492 . S
C295 C294 1.404 . S
C295 C296 1.396 . S
C295 C306 1.492 . S
C296 C295 1.396 . S
C296 C297 1.397 . S
C296 C312 1.509 . S
C297 C296 1.397 . S
C297 C298 1.412 . S
C297 C318 1.485 . S
C298 C297 1.412 . S
C298 C299 1.388 . S
C298 C324 1.490 . S
C299 C294 1.397 . S
C299 C298 1.388 . S
C299 C330 1.519 . S
C300 C294 1.492 . S
C300 C301 1.363 . S
C300 C305 1.390 . S
C301 H266 0.930 1_455 S
C301 C300 1.363 . S
C301 C302 1.372 1_455 S
C302 H267 0.930 . S
C302 C301 1.372 1_655 S
C302 C303 1.383 1_655 S
C303 C302 1.383 1_455 S
C303 C304 1.395 . S
C304 H268 0.930 . S
C304 C303 1.395 . S
C304 C305 1.362 . S
C305 H269 0.930 . S
C305 C300 1.390 . S
C305 C304 1.362 . S
C306 C295 1.492 . S
C306 C307 1.377 . S
C306 C311 1.397 . S
C307 H270 0.931 1_455 S
C307 C306 1.377 . S
C307 C308 1.376 . S
C308 H271 0.930 1_455 S
C308 C307 1.376 . S
C308 C309 1.376 . S
C309 C308 1.376 . S
C309 C310 1.378 . S
C309 C336 1.486 . S
C310 H272 0.930 . S
C310 C309 1.378 . S
C310 C311 1.376 . S
C311 H273 0.929 . S
C311 C306 1.397 . S
C311 C310 1.376 . S
C312 C296 1.509 . S
C312 C313 1.391 . S
C312 C317 1.386 . S
C313 H274 0.930 1_455 S
C313 C312 1.391 . S
C313 C314 1.375 . S
C314 H275 0.931 . S
C314 C313 1.375 . S
C314 C315 1.375 . S
C315 C314 1.375 . S
C315 C316 1.361 . S
C316 H276 0.930 . S
C316 C315 1.361 . S
C316 C317 1.399 . S
C317 H277 0.929 . S
C317 C312 1.386 . S
C317 C316 1.399 . S
C318 C297 1.485 . S
C318 C319 1.394 . S
C318 C323 1.360 . S
C319 H278 0.931 1_455 S
C319 C318 1.394 . S
C319 C320 1.372 . S
C320 H279 0.930 1_455 S
C320 C319 1.372 . S
C320 C321 1.397 . S
C321 C320 1.397 . S
C321 C322 1.390 . S
C321 C337 1.476 . S
C322 H280 0.930 . S
C322 C321 1.390 . S
C322 C323 1.366 . S
C323 H281 0.932 . S
C323 C318 1.360 . S
C323 C322 1.366 . S
C324 C298 1.490 . S
C324 C325 1.380 . S
C324 C329 1.386 . S
C325 H282 0.930 1_455 S
C325 C324 1.380 . S
C325 C326 1.381 1_455 S
C326 H283 0.929 . S
C326 C325 1.381 1_655 S
C326 C327 1.371 1_655 S
C327 C326 1.371 1_455 S
C327 C328 1.380 . S
C328 H284 0.931 . S
C328 C327 1.380 . S
C328 C329 1.387 . S
C329 H285 0.930 . S
C329 C324 1.386 . S
C329 C328 1.387 . S
C330 C299 1.519 . S
C330 C331 1.377 . S
C330 C335 1.361 . S
C331 H286 0.929 1_455 S
C331 C330 1.377 . S
C331 C332 1.386 . S
C332 H287 0.931 1_455 S
C332 C331 1.386 . S
C332 C333 1.363 . S
C333 C332 1.363 . S
C333 C334 1.385 . S
C334 H288 0.930 . S
C334 C333 1.385 . S
C334 C335 1.396 . S
C335 H289 0.929 . S
C335 C330 1.361 . S
C335 C334 1.396 . S
C336 O290 1.300 . S
C336 O291 1.209 . S
C336 C309 1.486 . S
C337 O292 1.199 . S
C337 O293 1.297 1_565 S
C337 C321 1.476 . S
H338 O364 0.856 . S
H339 O367 0.854 . S
H340 C375 0.930 1_565 S
H341 C376 0.930 . S
H342 C378 0.930 . S
H343 C379 0.930 . S
H344 C381 0.931 1_565 S
H345 C382 0.930 1_565 S
H346 C384 0.930 . S
H347 C385 0.929 . S
H348 C387 0.930 1_565 S
H349 C388 0.931 1_565 S
H350 C390 0.930 . S
H351 C391 0.929 . S
H352 C393 0.934 . S
H353 C394 0.930 . S
H354 C396 0.930 . S
H355 C397 0.932 . S
H356 C399 0.930 1_565 S
H357 C400 0.929 1_565 S
H358 C402 0.931 . S
H359 C403 0.930 . S
H360 C405 0.929 1_565 S
H361 C406 0.931 . S
H362 C408 0.930 . S
H363 C409 0.929 . S
O364 H338 0.856 . S
O364 C410 1.300 . S
O365 C410 1.209 . S
O366 C411 1.199 . S
O367 H339 0.854 . S
O367 C411 1.297 . S
C368 C369 1.404 . S
C368 C373 1.397 . S
C368 C374 1.492 . S
C369 C368 1.404 . S
C369 C370 1.396 . S
C369 C380 1.492 . S
C370 C369 1.396 . S
C370 C371 1.397 . S
C370 C386 1.509 . S
C371 C370 1.397 . S
C371 C372 1.412 . S
C371 C392 1.485 . S
C372 C371 1.412 . S
C372 C373 1.388 . S
C372 C398 1.490 . S
C373 C368 1.397 . S
C373 C372 1.388 . S
C373 C404 1.519 . S
C374 C368 1.492 . S
C374 C375 1.363 . S
C374 C379 1.390 . S
C375 H340 0.930 1_545 S
C375 C374 1.363 . S
C375 C376 1.372 1_545 S
C376 H341 0.930 . S
C376 C375 1.372 1_565 S
C376 C377 1.383 1_565 S
C377 C376 1.383 1_545 S
C377 C378 1.395 . S
C378 H342 0.930 . S
C378 C377 1.395 . S
C378 C379 1.362 . S
C379 H343 0.930 . S
C379 C374 1.390 . S
C379 C378 1.362 . S
C380 C369 1.492 . S
C380 C381 1.377 . S
C380 C385 1.397 . S
C381 H344 0.931 1_545 S
C381 C380 1.377 . S
C381 C382 1.376 . S
C382 H345 0.930 1_545 S
C382 C381 1.376 . S
C382 C383 1.376 . S
C383 C382 1.376 . S
C383 C384 1.378 . S
C383 C410 1.486 . S
C384 H346 0.930 . S
C384 C383 1.378 . S
C384 C385 1.376 . S
C385 H347 0.929 . S
C385 C380 1.397 . S
C385 C384 1.376 . S
C386 C370 1.509 . S
C386 C387 1.391 . S
C386 C391 1.386 . S
C387 H348 0.930 1_545 S
C387 C386 1.391 . S
C387 C388 1.375 . S
C388 H349 0.931 1_545 S
C388 C387 1.375 . S
C388 C389 1.375 . S
C389 C388 1.375 . S
C389 C390 1.361 . S
C390 H350 0.930 . S
C390 C389 1.361 . S
C390 C391 1.399 . S
C391 H351 0.929 . S
C391 C386 1.386 . S
C391 C390 1.399 . S
C392 C371 1.485 . S
C392 C393 1.394 . S
C392 C397 1.360 . S
C393 H352 0.934 . S
C393 C392 1.394 . S
C393 C394 1.372 . S
C394 H353 0.930 . S
C394 C393 1.372 . S
C394 C395 1.397 . S
C395 C394 1.397 . S
C395 C396 1.390 . S
C395 C411 1.476 . S
C396 H354 0.930 . S
C396 C395 1.390 . S
C396 C397 1.366 . S
C397 H355 0.932 . S
C397 C392 1.360 . S
C397 C396 1.366 . S
C398 C372 1.490 . S
C398 C399 1.380 . S
C398 C403 1.386 . S
C399 H356 0.930 1_545 S
C399 C398 1.380 . S
C399 C400 1.381 . S
C400 H357 0.929 1_545 S
C400 C399 1.381 . S
C400 C401 1.371 . S
C401 C400 1.371 . S
C401 C402 1.380 . S
C402 H358 0.931 . S
C402 C401 1.380 . S
C402 C403 1.387 . S
C403 H359 0.930 . S
C403 C398 1.386 . S
C403 C402 1.387 . S
C404 C373 1.519 . S
C404 C405 1.377 . S
C404 C409 1.361 . S
C405 H360 0.929 1_545 S
C405 C404 1.377 . S
C405 C406 1.386 . S
C406 H361 0.931 . S
C406 C405 1.386 . S
C406 C407 1.363 . S
C407 C406 1.363 . S
C407 C408 1.385 . S
C408 H362 0.930 . S
C408 C407 1.385 . S
C408 C409 1.396 . S
C409 H363 0.929 . S
C409 C404 1.361 . S
C409 C408 1.396 . S
C410 O364 1.300 . S
C410 O365 1.209 . S
C410 C383 1.486 . S
C411 O366 1.199 . S
C411 O367 1.297 . S
C411 C395 1.476 . S
H412 O438 0.856 . S
H413 O441 0.854 . S
H414 C449 0.930 . S
H415 C450 0.930 . S
H416 C452 0.930 . S
H417 C453 0.930 . S
H418 C455 0.931 1_556 S
H419 C456 0.930 . S
H420 C458 0.930 . S
H421 C459 0.929 . S
H422 C461 0.930 . S
H423 C462 0.931 1_554 S
H424 C464 0.930 . S
H425 C465 0.929 . S
H426 C467 0.931 . S
H427 C468 0.930 . S
H428 C470 0.930 . S
H429 C471 0.932 . S
H430 C473 0.930 . S
H431 C474 0.929 . S
H432 C476 0.931 . S
H433 C477 0.930 . S
H434 C479 0.929 . S
H435 C480 0.931 . S
H436 C482 0.930 . S
H437 C483 0.929 . S
O438 H412 0.856 . S
O438 C484 1.300 . S
O439 C484 1.209 . S
O440 C485 1.199 . S
O441 H413 0.854 . S
O441 C485 1.297 . S
C442 C443 1.404 . S
C442 C447 1.397 . S
C442 C448 1.492 . S
C443 C442 1.404 . S
C443 C444 1.396 . S
C443 C454 1.492 . S
C444 C443 1.396 . S
C444 C445 1.397 . S
C444 C460 1.509 . S
C445 C444 1.397 . S
C445 C446 1.412 . S
C445 C466 1.485 . S
C446 C445 1.412 . S
C446 C447 1.388 . S
C446 C472 1.490 . S
C447 C442 1.397 . S
C447 C446 1.388 . S
C447 C478 1.519 . S
C448 C442 1.492 . S
C448 C449 1.363 . S
C448 C453 1.390 . S
C449 H414 0.930 . S
C449 C448 1.363 . S
C449 C450 1.372 . S
C450 H415 0.930 . S
C450 C449 1.372 . S
C450 C451 1.383 . S
C451 C450 1.383 . S
C451 C452 1.395 . S
C452 H416 0.930 . S
C452 C451 1.395 . S
C452 C453 1.362 . S
C453 H417 0.930 . S
C453 C448 1.390 . S
C453 C452 1.362 . S
C454 C443 1.492 . S
C454 C455 1.377 1_556 S
C454 C459 1.397 . S
C455 H418 0.931 1_554 S
C455 C454 1.377 1_554 S
C455 C456 1.376 . S
C456 H419 0.930 . S
C456 C455 1.376 . S
C456 C457 1.376 . S
C457 C456 1.376 . S
C457 C458 1.378 . S
C457 C484 1.486 . S
C458 H420 0.930 . S
C458 C457 1.378 . S
C458 C459 1.376 1_554 S
C459 H421 0.929 . S
C459 C454 1.397 . S
C459 C458 1.376 1_556 S
C460 C444 1.509 . S
C460 C461 1.391 . S
C460 C465 1.386 . S
C461 H422 0.930 . S
C461 C460 1.391 . S
C461 C462 1.375 . S
C462 H423 0.931 1_556 S
C462 C461 1.375 . S
C462 C463 1.375 1_556 S
C463 C462 1.375 1_554 S
C463 C464 1.361 . S
C464 H424 0.930 . S
C464 C463 1.361 . S
C464 C465 1.399 1_554 S
C465 H425 0.929 . S
C465 C460 1.386 . S
C465 C464 1.399 1_556 S
C466 C445 1.485 . S
C466 C467 1.394 . S
C466 C471 1.360 . S
C467 H426 0.931 . S
C467 C466 1.394 . S
C467 C468 1.372 . S
C468 H427 0.930 . S
C468 C467 1.372 . S
C468 C469 1.397 . S
C469 C468 1.397 . S
C469 C470 1.390 . S
C469 C485 1.476 . S
C470 H428 0.930 . S
C470 C469 1.390 . S
C470 C471 1.366 . S
C471 H429 0.932 . S
C471 C466 1.360 . S
C471 C470 1.366 . S
C472 C446 1.490 . S
C472 C473 1.380 . S
C472 C477 1.386 . S
C473 H430 0.930 . S
C473 C472 1.380 . S
C473 C474 1.381 . S
C474 H431 0.929 . S
C474 C473 1.381 . S
C474 C475 1.371 . S
C475 C474 1.371 . S
C475 C476 1.380 . S
C476 H432 0.931 . S
C476 C475 1.380 . S
C476 C477 1.387 . S
C477 H433 0.930 . S
C477 C472 1.386 . S
C477 C476 1.387 . S
C478 C447 1.519 . S
C478 C479 1.377 . S
C478 C483 1.361 . S
C479 H434 0.929 . S
C479 C478 1.377 . S
C479 C480 1.386 . S
C480 H435 0.931 . S
C480 C479 1.386 . S
C480 C481 1.363 . S
C481 C480 1.363 . S
C481 C482 1.385 . S
C482 H436 0.930 . S
C482 C481 1.385 . S
C482 C483 1.396 . S
C483 H437 0.929 . S
C483 C478 1.361 . S
C483 C482 1.396 . S
C484 O438 1.300 . S
C484 O439 1.209 . S
C484 C457 1.486 . S
C485 O440 1.199 . S
C485 O441 1.297 . S
C485 C469 1.476 . S
C303 C29 2.663 1_455 S
C137 C377 2.776 1_565 S
C225 C481 2.800 . S
C49 C315 0.695 . S
C389 C117 0.481 . S
C205 C475 2.025 . S
C407 C233 2.801 . S
C57 C451 2.668 1_554 S
C327 C108 2.098 1_455 S
C401 C196 2.094 . S
C463 C20 0.696 . S
C145 C333 2.700 . S
