# Generated by pormake.
# Topology zzz, (3,6)-cn, num edge types: 1
# Building blocks:
#     Node 0, Type 0, BuildingBlock: PAMTOO_clean_linker_0, # of connection points: 3
#     Node 1, Type 0, BuildingBlock: PAMTOO_clean_linker_0, # of connection points: 3
#     Node 2, Type 0, BuildingBlock: PAMTOO_clean_linker_0, # of connection points: 3
#     Node 3, Type 0, BuildingBlock: PAMTOO_clean_linker_0, # of connection points: 3
#     Node 4, Type 0, BuildingBlock: PAMTOO_clean_linker_0, # of connection points: 3
#     Node 5, Type 0, BuildingBlock: PAMTOO_clean_linker_0, # of connection points: 3
#     Node 6, Type 0, BuildingBlock: PAMTOO_clean_linker_0, # of connection points: 3
#     Node 7, Type 0, BuildingBlock: PAMTOO_clean_linker_0, # of connection points: 3
#     Node 8, Type 1, BuildingBlock: KUMBUR_clean_sbu_0, # of connection points: 6
#     Node 9, Type 1, BuildingBlock: KUMBUR_clean_sbu_0, # of connection points: 6
#     Node 10, Type 1, BuildingBlock: KUMBUR_clean_sbu_0, # of connection points: 6
#     Node 11, Type 1, BuildingBlock: KUMBUR_clean_sbu_0, # of connection points: 6
#     Edge 12, Type (0, 1), BuildingBlock: OJICUG_clean_linker_0, # of connection points: 2
#     Edge 13, Type (0, 1), BuildingBlock: OJICUG_clean_linker_0, # of connection points: 2
#     Edge 14, Type (0, 1), BuildingBlock: OJICUG_clean_linker_0, # of connection points: 2
#     Edge 15, Type (0, 1), BuildingBlock: OJICUG_clean_linker_0, # of connection points: 2
#     Edge 16, Type (0, 1), BuildingBlock: OJICUG_clean_linker_0, # of connection points: 2
#     Edge 17, Type (0, 1), BuildingBlock: OJICUG_clean_linker_0, # of connection points: 2
#     Edge 18, Type (0, 1), BuildingBlock: OJICUG_clean_linker_0, # of connection points: 2
#     Edge 19, Type (0, 1), BuildingBlock: OJICUG_clean_linker_0, # of connection points: 2
#     Edge 20, Type (0, 1), BuildingBlock: OJICUG_clean_linker_0, # of connection points: 2
#     Edge 21, Type (0, 1), BuildingBlock: OJICUG_clean_linker_0, # of connection points: 2
#     Edge 22, Type (0, 1), BuildingBlock: OJICUG_clean_linker_0, # of connection points: 2
#     Edge 23, Type (0, 1), BuildingBlock: OJICUG_clean_linker_0, # of connection points: 2
#     Edge 24, Type (0, 1), BuildingBlock: OJICUG_clean_linker_0, # of connection points: 2
#     Edge 25, Type (0, 1), BuildingBlock: OJICUG_clean_linker_0, # of connection points: 2
#     Edge 26, Type (0, 1), BuildingBlock: OJICUG_clean_linker_0, # of connection points: 2
#     Edge 27, Type (0, 1), BuildingBlock: OJICUG_clean_linker_0, # of connection points: 2
#     Edge 28, Type (0, 1), BuildingBlock: OJICUG_clean_linker_0, # of connection points: 2
#     Edge 29, Type (0, 1), BuildingBlock: OJICUG_clean_linker_0, # of connection points: 2
#     Edge 30, Type (0, 1), BuildingBlock: OJICUG_clean_linker_0, # of connection points: 2
#     Edge 31, Type (0, 1), BuildingBlock: OJICUG_clean_linker_0, # of connection points: 2
#     Edge 32, Type (0, 1), BuildingBlock: OJICUG_clean_linker_0, # of connection points: 2
#     Edge 33, Type (0, 1), BuildingBlock: OJICUG_clean_linker_0, # of connection points: 2
#     Edge 34, Type (0, 1), BuildingBlock: OJICUG_clean_linker_0, # of connection points: 2
#     Edge 35, Type (0, 1), BuildingBlock: OJICUG_clean_linker_0, # of connection points: 2
# Relax obj value: 0.231
# Max RMSD: 0.184
# Mean RMSD: 0.118
data_MOF--net-zzz--node1-KUMBUR_clean_sbu_0--node2-PAMTOO_clean_linker_0--edge1-OJICUG_clean_linker_0
_symmetry_space_group_name_H-M    P1
_symmetry_Int_Tables_number       1
_symmetry_cell_setting            triclinic
loop_
_symmetry_equiv_pos_as_xyz
'x, y, z'
_cell_length_a     35.55581
_cell_length_b     35.710055
_cell_length_c     10.720788
_cell_angle_alpha  92.387998
_cell_angle_beta   90.257079
_cell_angle_gamma 90.47904
loop_
_atom_site_label
_atom_site_type_symbol
_atom_site_fract_x
_atom_site_fract_y
_atom_site_fract_z
_atom_type_partial_charge
H0 H 0.878 0.53573 0.26513 0.0
H1 H 0.76574 0.55381 0.13459 0.0
H2 H 0.79222 0.57278 0.52549 0.0
H3 H 0.69044 0.55367 0.42615 0.0
C4 C 0.70712 0.54881 0.33984 0.0
O5 O 0.73715 0.57448 0.34341 0.0
H6 H 0.71806 0.51974 0.34401 0.0
C7 C 0.84944 0.54454 0.28538 0.0
C8 C 0.83959 0.55474 0.40857 0.0
C9 C 0.82289 0.54403 0.18825 0.0
C10 C 0.78597 0.55453 0.21072 0.0
C11 C 0.77417 0.56461 0.33059 0.0
C12 C 0.80108 0.56492 0.43164 0.0
H13 H 0.99235 0.86914 0.222 0.0
H14 H 0.97891 0.75104 0.14739 0.0
H15 H 0.04298 0.79171 0.46783 0.0
H16 H 0.07752 0.71174 0.28146 0.0
C17 C 0.0506 0.71356 0.22916 0.0
O18 O 1.02408 0.72973 0.31219 0.0
H19 H 0.05649 0.73268 0.15211 0.0
C20 C 0.99549 0.84081 0.25209 0.0
C21 C 1.01504 0.83535 0.36407 0.0
C22 C 0.9841 0.81057 0.17128 0.0
C23 C 0.98823 0.77404 0.2092 0.0
C24 C 1.01225 0.76638 0.3071 0.0
C25 C 1.02505 0.79721 0.38894 0.0
H26 H 0.70356 0.98198 0.30688 0.0
H27 H 0.81996 0.98383 0.20066 0.0
H28 H 0.77934 0.06232 0.48188 0.0
H29 H 0.84844 0.09622 0.28957 0.0
C30 C 0.84756 0.06804 0.24149 0.0
O31 O 0.83877 0.04203 0.33166 0.0
H32 H 0.82463 0.06889 0.17055 0.0
C33 C 0.7319 0.99249 0.31951 0.0
C34 C 0.7381 1.02063 0.41317 0.0
C35 C 0.76013 0.98207 0.23243 0.0
C36 C 0.7971 0.99411 0.25824 0.0
C37 C 0.80412 1.0249 0.33918 0.0
C38 C 0.77435 0.03848 0.4181 0.0
H39 H 0.61356 0.7294 0.32408 0.0
H40 H 0.61679 0.84534 0.2301 0.0
H41 H 0.54294 0.80924 0.51801 0.0
H42 H 0.50799 0.87991 0.31775 0.0
C43 C 0.53581 0.87636 0.27221 0.0
O44 O 0.56163 0.86639 0.36421 0.0
H45 H 0.53194 0.85292 0.20133 0.0
C46 C 0.60522 0.7582 0.34087 0.0
C47 C 0.58037 0.76609 0.4402 0.0
C48 C 0.61575 0.78584 0.25644 0.0
C49 C 0.60624 0.8231 0.28609 0.0
C50 C 0.57723 0.83139 0.36896 0.0
C51 C 0.5644 0.80283 0.44928 0.0
H52 H 0.23074 0.47063 0.22489 0.0
H53 H 0.34736 0.46604 0.33049 0.0
H54 H 0.31197 0.54047 0.04865 0.0
H55 H 0.35895 0.54435 0.3841 0.0
C56 C 0.38033 0.54507 0.30866 0.0
O57 O 0.36952 0.52111 0.20727 0.0
H58 H 0.38003 0.57418 0.27604 0.0
C59 C 0.25985 0.47855 0.21138 0.0
C60 C 0.26796 0.50328 0.11605 0.0
C61 C 0.28769 0.4679 0.29735 0.0
C62 C 0.32525 0.47652 0.272 0.0
C63 C 0.33405 0.50561 0.19462 0.0
C64 C 0.30529 0.51892 0.11327 0.0
H65 H 0.98045 0.21549 0.13872 0.0
H66 H 0.99652 0.32511 0.30734 0.0
H67 H 0.06705 0.28823 0.99966 0.0
H68 H 0.10539 0.35492 0.24077 0.0
C69 C 0.07609 0.3554 0.27628 0.0
O70 O 0.05213 0.34544 0.17521 0.0
H71 H 0.07448 0.33379 0.34799 0.0
C72 C 0.99483 0.24237 0.13801 0.0
C73 C 1.02335 0.24792 0.04993 0.0
C74 C 0.98488 0.26989 0.2287 0.0
C75 C 1.00432 0.30394 0.23692 0.0
C76 C 1.03461 0.31091 0.15877 0.0
C77 C 0.04439 0.2827 0.06353 0.0
H78 H 0.37461 0.10152 0.22548 0.0
H79 H 0.25703 0.11579 0.30497 0.0
H80 H 0.29159 0.05308 0.97468 0.0
H81 H 0.2361 1.03263 0.26228 0.0
C82 C 0.2155 0.04438 0.19611 0.0
O83 O 0.23246 0.07262 0.12815 0.0
H84 H 0.2081 1.02083 0.12927 0.0
C85 C 0.34546 0.09893 0.19727 0.0
C86 C 0.33732 0.08009 0.08259 0.0
C87 C 0.31681 0.10989 0.28174 0.0
C88 C 0.27929 0.10592 0.24365 0.0
C89 C 0.26961 0.08304 0.14022 0.0
C90 C 0.29876 0.07036 0.05686 0.0
H91 H 0.54763 0.38336 0.25972 0.0
H92 H 0.52717 0.2728 0.38545 0.0
H93 H 0.51663 0.29405 0.99365 0.0
H94 H 0.56767 0.22637 0.21652 0.0
C95 C 0.54027 0.21329 0.18783 0.0
O96 O 0.51295 0.2409 0.17371 0.0
H97 H 0.5451 0.19947 0.09473 0.0
C98 C 0.53902 0.35458 0.2381 0.0
C99 C 0.53119 0.34315 0.11386 0.0
C100 C 0.53795 0.32919 0.33433 0.0
C101 C 0.5275 0.2921 0.30999 0.0
C102 C 0.52045 0.27858 0.1888 0.0
C103 C 0.52206 0.30422 0.08856 0.0
Tb104 Tb 0.06426 0.03494 0.81179 0.0
C105 C 0.95977 0.97737 0.48367 0.0
C106 C 0.9774 0.97254 0.26665 0.0
C107 C 0.93761 0.92449 0.35114 0.0
C108 C 0.97767 0.99222 0.38334 0.0
C109 C 0.93917 0.94339 0.46846 0.0
C110 C 0.95704 0.93891 0.25057 0.0
C111 C 0.92517 0.94778 0.68768 0.0
N112 N 0.9636 0.9955 0.59684 0.0
C113 C 0.94648 0.98085 0.69847 0.0
C114 C 0.92141 0.92895 0.57208 0.0
Tb115 Tb 0.99442 0.053 0.5976 0.0
N116 N 0.99544 1.02588 0.39955 0.0
C117 C 1.00972 0.0429 0.29784 0.0
C118 C 0.99822 0.987 0.17003 0.0
C119 C 1.01508 1.02217 0.18719 0.0
H120 H 0.94902 0.99374 0.78913 0.0
H121 H 1.0332 1.03326 0.11816 0.0
H122 H 0.95612 0.92396 0.16062 0.0
H123 H 0.912 0.93664 0.76926 0.0
H124 H 1.02073 0.07126 0.3058 0.0
H125 H 0.03626 0.14286 0.1764 0.0
H126 H 1.00042 0.97158 0.08168 0.0
H127 H 0.14633 1.00573 0.69192 0.0
H128 H 1.01926 0.09387 0.02555 0.0
H129 H 0.21275 1.02514 0.70002 0.0
H130 H 0.92211 0.89836 0.33785 0.0
H131 H 0.10166 0.16603 0.19249 0.0
H132 H 0.16758 0.16329 0.11502 0.0
H133 H 0.90537 0.90302 0.56429 0.0
H134 H 0.21497 0.13317 0.97963 0.0
N135 N 0.07497 0.08503 0.95394 0.0
C136 C 0.04834 0.10146 0.03045 0.0
C137 C 0.0946 0.14336 0.12598 0.0
C138 C 0.12178 0.12739 0.04744 0.0
C139 C 0.05775 0.13028 0.11739 0.0
C140 C 0.11117 0.09768 0.96257 0.0
H141 H 0.2323 0.08113 0.82795 0.0
N142 N 0.12739 0.05079 0.8126 0.0
C143 C 0.19205 0.04107 0.75297 0.0
C144 C 0.13806 0.08043 0.88813 0.0
C145 C 0.15423 1.0301 0.74917 0.0
C146 C 0.20293 0.07274 0.82486 0.0
C147 C 0.17601 0.09249 0.89509 0.0
O148 O 0.10201 1.00514 0.9242 0.0
O149 O 1.02491 1.00764 0.67717 0.0
O150 O 0.96607 0.06036 0.78005 0.0
O151 O 1.01005 0.03802 0.91802 0.0
O152 O 0.07928 0.99183 0.6659 0.0
O153 O 0.04378 0.99142 0.91676 0.0
O154 O 0.93588 0.05905 0.60847 0.0
O155 O 1.02683 0.07808 0.75333 0.0
O156 O 0.0937 0.05925 0.65207 0.0
O157 O 0.0492 0.05338 0.49469 0.0
O158 O 1.02006 0.10995 0.6055 0.0
O159 O 0.96834 0.09181 0.48344 0.0
C160 C 0.04669 0.98461 0.61896 0.0
C161 C 0.08442 0.94102 0.9009 0.0
C162 C 0.05448 0.88123 0.84159 0.0
C163 C 0.05575 0.91473 0.91473 0.0
C164 C 0.08467 0.87263 0.76145 0.0
C165 C 0.11491 0.93178 0.82276 0.0
C166 C 0.11502 0.89761 0.75396 0.0
C167 C 0.97553 0.05004 0.89292 0.0
C168 C 0.07695 0.97981 0.94559 0.0
C169 C 0.18612 0.12318 0.97444 0.0
C170 C 0.15916 0.14029 0.0516 0.0
C171 C 1.03497 0.11061 0.71574 0.0
C172 C 0.91687 0.12148 0.58446 0.0
C173 C 0.91845 0.1535 0.51437 0.0
C174 C 0.90529 0.18794 0.56321 0.0
C175 C 0.88921 0.19019 0.68227 0.0
C176 C 0.89955 0.12362 0.70253 0.0
C177 C 0.88572 0.15784 0.75066 0.0
C178 C 0.08453 0.05901 0.53239 0.0
C179 C 0.93568 0.08722 0.5358 0.0
H180 H 1.03336 0.92148 0.97977 0.0
H181 H 0.08476 0.84688 0.70447 0.0
H182 H 0.13776 0.95142 0.81068 0.0
H183 H 0.13819 0.89094 0.69201 0.0
H184 H 0.93205 0.15215 0.42383 0.0
H185 H 0.87981 0.21683 0.72227 0.0
H186 H 0.89753 0.09927 0.75909 0.0
H187 H 0.87318 0.15945 0.84253 0.0
Tb188 Tb 0.54854 0.08885 0.85155 0.0
C189 C 0.58111 0.94184 0.58775 0.0
C190 C 0.61753 0.95625 0.4061 0.0
C191 C 0.63016 0.89934 0.51461 0.0
C192 C 0.58974 0.96592 0.49523 0.0
C193 C 0.60012 0.90749 0.59573 0.0
C194 C 0.63865 0.92358 0.41905 0.0
C195 C 0.55436 0.88924 0.74776 0.0
N196 N 0.55155 0.95052 0.6622 0.0
C197 C 0.53648 0.92368 0.73612 0.0
C198 C 0.58692 0.88147 0.67958 0.0
Tb199 Tb 0.52735 1.01013 0.64875 0.0
N200 N 0.5684 0.997 0.48559 0.0
C201 C 0.57016 1.0164 0.37796 0.0
C202 C 0.62206 0.97883 0.30391 0.0
C203 C 0.59793 1.00875 0.28898 0.0
H204 H 0.51168 0.92982 0.79117 0.0
H205 H 0.59957 1.02494 0.20599 0.0
H206 H 0.66052 0.91606 0.35277 0.0
H207 H 0.54315 0.86883 0.80992 0.0
H208 H 0.5494 0.03671 0.35504 0.0
H209 H 0.46461 0.07981 0.27464 0.0
H210 H 0.64226 0.97201 0.23175 0.0
H211 H 0.57294 0.16622 0.7066 0.0
H212 H 0.51419 0.0612 0.13171 0.0
H213 H 0.54844 0.22997 0.68347 0.0
H214 H 0.64549 0.87337 0.52037 0.0
H215 H 0.42974 0.13825 0.24514 0.0
H216 H 0.42066 0.19593 0.12472 0.0
H217 H 0.60059 0.85468 0.68806 0.0
H218 H 0.44351 0.23717 0.96264 0.0
N219 N 0.50511 0.10528 1.00494 0.0
C220 C 0.49804 0.08519 0.10889 0.0
C221 C 0.45039 0.12909 0.17686 0.0
C222 C 0.45948 0.15116 0.07683 0.0
C223 C 0.47011 0.0962 0.19386 0.0
C224 C 0.48766 0.13865 0.99283 0.0
H225 H 0.49191 0.25054 0.80016 0.0
N226 N 0.53013 0.15019 0.83325 0.0
C227 C 0.53455 0.21106 0.74518 0.0
C228 C 0.50056 0.1619 0.90312 0.0
C229 C 0.54845 0.17496 0.75919 0.0
C230 C 0.50252 0.22248 0.81055 0.0
C231 C 0.48563 0.19816 0.89297 0.0
O232 O 0.58959 0.1283 0.91355 0.0
O233 O 0.57207 0.0452 0.72586 0.0
O234 O 0.55759 0.99039 0.81432 0.0
O235 O 0.54309 0.03699 0.96123 0.0
O236 O 0.59272 0.09781 0.71068 0.0
O237 O 0.58629 0.07463 0.99385 0.0
O238 O 0.48889 0.96743 0.59342 0.0
O239 O 0.50365 0.05412 0.77261 0.0
O240 O 0.51876 0.10998 0.68693 0.0
O241 O 0.53148 0.06247 0.5408 0.0
O242 O 0.48342 1.00142 0.79097 0.0
O243 O 0.48673 1.02106 0.51183 0.0
C244 C 0.59693 0.06386 0.66964 0.0
C245 C 0.64637 0.09539 0.93096 0.0
C246 C 0.69457 0.04812 0.88461 0.0
C247 C 0.66198 0.06005 0.94907 0.0
C248 C 0.71154 0.07288 0.80218 0.0
C249 C 0.66514 0.12016 0.85329 0.0
C250 C 0.6973 0.10878 0.78881 0.0
C251 C 0.55227 1.00166 0.93196 0.0
C252 C 0.6077 0.10354 0.97474 0.0
C253 C 0.45563 0.20959 0.96979 0.0
C254 C 0.44265 0.18614 0.06207 0.0
C255 C 0.47869 0.03564 0.82906 0.0
C256 C 0.42939 0.9952 0.5809 0.0
C257 C 0.41145 1.02955 0.56799 0.0
C258 C 0.37895 0.03887 0.63658 0.0
C259 C 0.3638 1.01236 0.71631 0.0
C260 C 0.41298 0.96861 0.6577 0.0
C261 C 0.38047 0.9773 0.72515 0.0
C262 C 0.52308 0.09808 0.56934 0.0
C263 C 0.46815 0.99039 0.53341 0.0
H264 H 0.64836 0.042 1.01405 0.0
H265 H 0.73595 0.06488 0.74788 0.0
H266 H 0.65389 0.14765 0.83719 0.0
H267 H 0.71082 0.12759 0.72594 0.0
H268 H 0.42321 0.04908 0.50381 0.0
H269 H 0.33892 1.01849 0.77103 0.0
H270 H 0.42623 0.94182 0.67024 0.0
H271 H 0.36855 0.95703 0.7864 0.0
Tb272 Tb 0.59142 0.54653 0.68925 0.0
C273 C 0.44174 0.51773 0.92802 0.0
C274 C 0.39509 0.53084 0.77141 0.0
C275 C 0.38325 0.48192 0.91744 0.0
C276 C 0.4311 0.53683 0.82462 0.0
C277 C 0.41779 0.49025 0.97651 0.0
C278 C 0.37176 0.50243 0.81579 0.0
C279 C 0.46162 0.48451 0.14645 0.0
N280 N 0.47519 0.5271 0.98358 0.0
C281 C 0.48384 0.51275 0.0973 0.0
C282 C 0.4288 0.47269 0.08469 0.0
Tb283 Tb 0.51288 0.56837 0.87671 0.0
N284 N 0.45473 0.56359 0.78316 0.0
C285 C 0.44196 0.58861 0.69978 0.0
C286 C 0.38301 0.55475 0.67961 0.0
C287 C 0.40608 0.58449 0.64669 0.0
H288 H 0.50844 0.5215 0.14972 0.0
H289 H 0.39645 0.604 0.5791 0.0
H290 H 0.34439 0.49674 0.77483 0.0
H291 H 0.46978 0.47201 0.23263 0.0
H292 H 0.45931 0.61183 0.67325 0.0
H293 H 0.71721 0.62457 0.82408 0.0
H294 H 0.35552 0.55141 0.63677 0.0
H295 H 0.5502 0.53668 0.39231 0.0
H296 H 0.66718 0.57767 0.84508 0.0
H297 H 0.53949 0.5798 0.23093 0.0
H298 H 0.36458 0.46069 0.95263 0.0
H299 H 0.71954 0.66268 0.63674 0.0
H300 H 0.69085 0.67872 0.4313 0.0
H301 H 0.41138 0.45117 0.12416 0.0
H302 H 0.64117 0.66756 0.27328 0.0
N303 N 0.64034 0.58882 0.67325 0.0
C304 C 0.66738 0.59404 0.7636 0.0
C305 C 0.69762 0.64169 0.64515 0.0
C306 C 0.67069 0.63551 0.55106 0.0
C307 C 0.69621 0.62047 0.75127 0.0
C308 C 0.64298 0.60753 0.56612 0.0
H309 H 0.58278 0.63323 0.2035 0.0
N310 N 0.59189 0.57084 0.49024 0.0
C311 C 0.56232 0.58508 0.29574 0.0
C312 C 0.61655 0.5997 0.47461 0.0
C313 C 0.56733 0.56148 0.39476 0.0
C314 C 0.5862 0.61556 0.2824 0.0
C315 C 0.615 0.62209 0.36915 0.0
O316 O 0.63167 0.51316 0.59462 0.0
O317 O 0.53085 0.55574 0.68807 0.0
O318 O 0.5145 0.50646 0.86788 0.0
O319 O 0.57521 0.49566 0.79547 0.0
O320 O 0.54921 0.51179 0.58109 0.0
O321 O 0.63263 0.5212 0.79551 0.0
O322 O 0.52679 0.61049 1.01273 0.0
O323 O 0.57452 0.56798 0.8684 0.0
O324 O 0.58815 0.60749 0.73591 0.0
O325 O 0.52433 0.61053 0.73093 0.0
O326 O 0.55067 0.55152 0.02804 0.0
O327 O 0.47172 0.6075 0.93595 0.0
C328 C 0.51897 0.52956 0.61431 0.0
C329 C 0.65263 0.46355 0.71792 0.0
C330 C 0.62636 0.40054 0.70135 0.0
C331 C 0.62678 0.43785 0.66598 0.0
C332 C 0.65378 0.38845 0.78497 0.0
C333 C 0.67974 0.45151 0.80254 0.0
C334 C 0.6805 0.41395 0.83489 0.0
C335 C 0.54353 0.48398 0.84888 0.0
C336 C 0.64739 0.50357 0.69948 0.0
C337 C 0.64176 0.65067 0.35469 0.0
C338 C 0.67007 0.65688 0.44426 0.0
C339 C 0.58254 0.55641 0.97568 0.0
C340 C 0.50096 0.66699 0.94963 0.0
C341 C 0.5353 0.68563 0.97111 0.0
C342 C 0.54512 0.71774 0.90638 0.0
C343 C 0.51835 0.73252 0.82499 0.0
C344 C 0.4745 0.68254 0.86942 0.0
C345 C 0.48314 0.7153 0.80845 0.0
C346 C 0.55754 0.6267 0.71174 0.0
C347 C 0.49607 0.62873 0.99495 0.0
H348 H 0.60618 0.44733 0.59969 0.0
H349 H 0.65423 0.35964 0.81268 0.0
H350 H 0.69957 0.47131 0.84587 0.0
H351 H 0.70134 0.40477 0.90062 0.0
H352 H 0.55457 0.67441 0.03811 0.0
H353 H 0.52449 0.75706 0.77269 0.0
H354 H 0.4477 0.66877 0.85048 0.0
H355 H 0.46288 0.72678 0.74514 0.0
Tb356 Tb 0.06931 0.57132 0.66434 0.0
C357 C 0.09586 0.47277 0.0757 0.0
C358 C 0.12911 0.41696 1.00473 0.0
C359 C 0.14605 0.44768 0.20293 0.0
C360 C 0.10228 0.44512 0.98562 0.0
C361 C 0.11829 0.47467 0.18491 0.0
C362 C 0.15097 0.4184 0.11406 0.0
C363 C 0.0838 0.52905 0.25291 0.0
N364 N 0.06829 0.49819 0.05517 0.0
C365 C 0.0603 0.5242 0.14888 0.0
C366 C 0.11289 0.50418 0.27145 0.0
Tb367 Tb 0.04394 0.49716 0.8521 0.0
N368 N 0.08332 0.44687 0.8761 0.0
C369 C 0.08663 0.41831 0.78777 0.0
C370 C 0.13368 0.38868 0.91218 0.0
C371 C 0.11186 0.38906 0.80397 0.0
H372 H 0.03666 0.54249 0.14648 0.0
H373 H 0.11455 0.36693 0.73252 0.0
H374 H 0.17207 0.39738 0.12988 0.0
H375 H 0.07955 0.55246 0.31787 0.0
H376 H 0.06969 0.41753 0.7047 0.0
H377 H 0.11338 0.68895 0.96517 0.0
H378 H 0.15374 0.36639 0.92366 0.0
H379 H 1.01999 0.57205 0.38948 0.0
H380 H 0.11523 0.6244 0.87916 0.0
H381 H 0.97768 0.61415 0.28678 0.0
H382 H 0.16344 0.44892 0.28624 0.0
H383 H 0.06692 0.73318 0.88674 0.0
H384 H 1.01545 0.74637 0.73377 0.0
H385 H 0.13062 0.50756 0.35343 0.0
H386 H 0.97845 0.72589 0.54912 0.0
N387 N 0.06849 0.63054 0.75614 0.0
C388 C 0.09404 0.64279 0.84501 0.0
C389 C 0.06698 0.70456 0.84956 0.0
C390 C 0.0425 0.69274 0.75313 0.0
C391 C 0.0934 0.6797 0.89365 0.0
C392 C 0.04454 0.6553 0.7059 0.0
H393 H 0.96451 0.67686 0.38115 0.0
N394 N 1.03038 0.60893 0.54956 0.0
C395 C 0.99058 0.6229 0.375 0.0
C396 C 1.02479 0.64417 0.59916 0.0
C397 C 1.01503 0.59893 0.43475 0.0
C398 C 0.98311 0.6582 0.42875 0.0
C399 C 1.00099 0.66963 0.54039 0.0
O400 O 0.1113 0.55427 0.5376 0.0
O401 O 0.06683 0.51028 0.67556 0.0
O402 O 0.1052 0.49737 0.81426 0.0
O403 O 0.11175 0.56072 0.81521 0.0
O404 O 0.05101 0.53101 0.51194 0.0
O405 O 0.10967 0.61073 0.60662 0.0
O406 O 1.00805 0.45906 0.93948 0.0
O407 O 0.05602 0.55724 0.85279 0.0
O408 O 1.00714 0.5721 0.66351 0.0
O409 O 0.99332 0.51356 0.74023 0.0
O410 O 1.01131 0.54178 0.95436 0.0
O411 O 1.01653 0.45628 0.73971 0.0
C412 C 0.05468 0.50012 0.56762 0.0
C413 C 0.16859 0.58107 0.60504 0.0
C414 C 0.21955 0.53819 0.65153 0.0
C415 C 0.18716 0.54706 0.58365 0.0
C416 C 0.23443 0.56537 0.73768 0.0
C417 C 0.1843 0.60805 0.68955 0.0
C418 C 0.21718 0.60021 0.75475 0.0
C419 C 0.12627 0.52748 0.83825 0.0
C420 C 0.13031 0.58513 0.55378 0.0
C421 C 0.99676 0.70606 0.59252 0.0
C422 C 1.01772 0.71769 0.6981 0.0
C423 C 1.03036 0.57098 0.92247 0.0
C424 C 0.95831 0.43638 0.80616 0.0
C425 C 0.93201 0.46155 0.85502 0.0
C426 C 0.89431 0.45943 0.8163 0.0
C427 C 0.88276 0.43081 0.73048 0.0
C428 C 0.94673 0.408 0.71952 0.0
C429 C 0.90901 0.40515 0.68242 0.0
C430 C 0.9831 0.54439 0.68257 0.0
C431 C 0.99839 0.44248 0.83236 0.0
H432 H 0.17581 0.52739 0.51358 0.0
H433 H 0.2592 0.55987 0.79269 0.0
H434 H 0.1706 0.63465 0.70837 0.0
H435 H 0.22881 0.62084 0.82136 0.0
H436 H 0.94113 0.48321 0.92266 0.0
H437 H 0.85368 0.42847 0.70036 0.0
H438 H 0.96699 0.38862 0.67879 0.0
H439 H 0.90021 0.3833 0.61531 0.0
C440 C 0.14393 0.04319 0.23365 0.0
C441 C 0.18001 0.05628 0.27114 0.0
H442 H 0.08656 1.03289 0.28463 0.0
C443 C 0.18298 0.07408 0.39082 0.0
H444 H 0.14026 1.02885 0.14341 0.0
C445 C 0.15173 0.07678 0.4721 0.0
C446 C 0.11617 0.0616 0.43759 0.0
H447 H 0.20999 0.08417 0.42478 0.0
H448 H 0.15586 0.08974 0.56429 0.0
C449 C 0.11275 0.04568 0.31525 0.0
C450 C 0.50634 0.18777 0.38435 0.0
C451 C 0.53114 0.18283 0.28243 0.0
H452 H 0.48367 0.16506 0.55263 0.0
C453 C 0.55218 0.1495 0.27612 0.0
H454 H 0.49008 0.21316 0.39492 0.0
C455 C 0.54872 0.12214 0.36649 0.0
C456 C 0.52396 0.12667 0.46809 0.0
H457 H 0.57234 0.14492 0.20173 0.0
H458 H 0.56689 0.09808 0.35895 0.0
C459 C 0.50276 0.16008 0.4754 0.0
C460 C 0.42562 0.50494 0.43902 0.0
C461 C 0.41914 0.53704 0.36907 0.0
H462 H 0.46178 0.47704 0.56856 0.0
C463 C 0.44689 0.56559 0.37767 0.0
H464 H 0.40484 0.48265 0.43818 0.0
C465 C 0.4786 0.56309 0.45673 0.0
C466 C 0.48471 0.53152 0.52894 0.0
H467 H 0.44299 0.59116 0.32849 0.0
H468 H 0.49772 0.5868 0.46502 0.0
C469 C 0.45818 0.50194 0.51559 0.0
C470 C 0.09797 0.40934 0.42477 0.0
C471 C 0.06937 0.39416 0.34484 0.0
H472 H 0.11643 0.45384 0.55383 0.0
C473 C 1.0352 0.41402 0.34253 0.0
H474 H 0.12458 0.39498 0.43112 0.0
C475 C 1.03034 0.44786 0.41578 0.0
C476 C 0.05896 0.46254 0.4967 0.0
H477 H 1.01217 0.40344 0.28446 0.0
H478 H 1.00389 0.46251 0.4098 0.0
C479 C 0.09319 0.44304 0.49701 0.0
C480 C 0.90447 0.09296 0.12524 0.0
C481 C 0.88484 0.06159 0.16948 0.0
H482 H 0.94775 0.11401 1.006 0.0
C483 C 0.89685 1.0259 0.12516 0.0
H484 H 0.89567 0.121 0.15353 0.0
C485 C 0.92701 1.02195 0.03944 0.0
C486 C 0.94618 0.05349 0.99465 0.0
H487 H 0.88228 1.001 0.15358 0.0
H488 H 0.93455 0.99408 1.00542 0.0
C489 C 0.93437 0.08902 0.03956 0.0
C490 C 0.52292 0.94421 0.21293 0.0
C491 C 0.54588 0.91215 0.20167 0.0
H492 H 0.50638 0.99662 0.13829 0.0
C493 C 0.57318 0.91171 0.1064 0.0
H494 H 0.50113 0.94571 0.28313 0.0
C495 C 0.57629 0.94123 1.02268 0.0
C496 C 0.55231 0.97252 0.03105 0.0
H497 H 0.59106 0.88769 0.09234 0.0
H498 H 0.59692 0.93902 0.94877 0.0
C499 C 0.52599 0.9737 0.12924 0.0
C500 C 0.67349 0.58319 0.15938 0.0
C501 C 0.67984 0.55064 0.2268 0.0
H502 H 0.63801 0.61099 0.02767 0.0
C503 C 0.65579 0.51968 0.20003 0.0
H504 H 0.69054 0.60802 0.17879 0.0
C505 C 0.62632 0.52114 0.11201 0.0
C506 C 0.61947 0.55357 0.04564 0.0
H507 H 0.65881 0.49443 0.25166 0.0
H508 H 0.6077 0.49709 0.09956 0.0
C509 C 0.64351 0.58475 0.07124 0.0
C510 C 1.00902 0.66767 0.08832 0.0
C511 C 0.04072 0.67427 0.16695 0.0
H512 H 0.98054 0.6306 0.9524 0.0
C513 C 0.06806 0.64568 0.16547 0.0
H514 H 0.98762 0.68884 0.08284 0.0
C515 C 0.06468 0.61293 0.08699 0.0
C516 C 1.03349 0.60661 1.00667 0.0
H517 H 0.09345 0.64949 0.22083 0.0
H518 H 0.0875 0.59307 0.08584 0.0
C519 C 1.00517 0.63422 1.0116 0.0
C520 C 0.92285 0.24228 0.28372 0.0
C521 C 0.95614 0.26089 0.32209 0.0
H522 H 0.879 0.20466 0.33515 0.0
C523 C 0.96505 0.26422 0.4499 0.0
H524 H 0.91511 0.23993 0.1858 0.0
C525 C 0.94403 0.24448 0.53551 0.0
C526 C 0.91411 0.22136 0.49349 0.0
H527 H 0.99056 0.2785 0.48174 0.0
H528 H 0.95406 0.24354 0.63095 0.0
C529 C 0.90194 0.22254 0.36911 0.0
C530 C 0.30277 0.09099 0.49694 0.0
C531 C 0.32531 0.11241 0.41806 0.0
H532 H 0.30271 0.04985 0.63365 0.0
C533 C 0.36136 0.1232 0.46078 0.0
H534 H 0.27415 0.08329 0.47272 0.0
C535 C 0.37788 0.10399 0.5575 0.0
C536 C 0.35845 0.07359 0.60811 0.0
H537 H 0.37868 0.14183 0.4078 0.0
H538 H 0.40751 0.10867 0.57707 0.0
C539 C 0.3194 0.07135 0.59136 0.0
C540 C 0.58747 0.32328 0.49414 0.0
C541 C 0.55399 0.34012 0.45627 0.0
H542 H 0.63733 0.3297 0.60518 0.0
C543 C 0.54009 0.37129 0.52349 0.0
H544 H 0.59837 0.29893 0.44302 0.0
C545 C 0.5618 0.38821 0.61823 0.0
C546 C 0.59812 0.37486 0.6432 0.0
H547 H 0.51402 0.38422 0.49612 0.0
H548 H 0.55191 0.41413 0.66169 0.0
C549 C 0.60962 0.3407 0.58733 0.0
C550 C 0.23985 0.4524 0.45937 0.0
C551 C 0.27704 0.46231 0.43023 0.0
H552 H 0.19118 0.46856 0.5641 0.0
C553 C 0.29801 0.48233 0.5238 0.0
H554 H 0.22358 0.43392 0.3969 0.0
C555 C 0.27925 0.50373 0.6146 0.0
C556 C 0.23992 0.50297 0.61763 0.0
H557 H 0.32769 0.48822 0.51381 0.0
H558 H 0.29523 0.52492 0.6668 0.0
C559 C 0.22122 0.47271 0.55437 0.0
C560 C 0.96803 0.84952 0.99155 0.0
C561 C 0.98296 0.81637 0.03542 0.0
H562 H 0.97918 0.89679 0.88244 0.0
C563 C 1.01035 0.79745 0.96264 0.0
H564 H 0.94543 0.86367 0.04122 0.0
C565 C 1.03105 0.81705 0.8767 0.0
C566 C 1.0229 0.85476 0.86015 0.0
H567 H 1.02117 0.7707 0.98916 0.0
H568 H 0.05678 0.80467 0.8413 0.0
C569 C 0.98779 0.86856 0.90143 0.0
C570 C 0.77073 0.98905 1.00483 0.0
C571 C 0.74937 0.97246 0.099 0.0
H572 H 0.7699 1.02892 0.8644 0.0
C573 C 0.71163 0.96382 0.06918 0.0
H574 H 0.80089 0.99254 1.0121 0.0
C575 C 0.69321 0.98444 0.97941 0.0
C576 C 0.71318 1.01247 0.91763 0.0
H577 H 0.69505 0.9464 0.12855 0.0
H578 H 0.66294 0.9818 0.97096 0.0
C579 C 0.75262 1.01033 0.91733 0.0
C580 C 0.60504 0.79548 0.03044 0.0
C581 C 0.62324 0.77481 0.12237 0.0
H582 H 0.56298 0.79314 0.88959 0.0
C583 C 0.632 0.73743 0.08921 0.0
H584 H 0.60104 0.8253 0.04142 0.0
C585 C 0.61086 0.71856 0.99566 0.0
C586 C 0.58133 0.73747 0.93703 0.0
H587 H 0.64993 0.72135 0.1483 0.0
H588 H 0.61384 0.68847 0.98357 0.0
C589 C 0.5828 0.77673 0.94059 0.0
C590 C 0.86211 0.54392 0.99839 0.0
C591 C 0.83299 0.52791 0.06574 0.0
H592 H 0.90338 0.53485 0.85736 0.0
C593 C 0.81776 0.493 0.02662 0.0
H594 H 0.87371 0.57112 0.02688 0.0
C595 C 0.8351 0.47186 0.93155 0.0
C596 C 0.86754 0.48582 0.87519 0.0
H597 H 0.79497 0.48052 0.07785 0.0
H598 H 0.82571 0.44325 0.91246 0.0
C599 C 0.87888 0.52318 0.90164 0.0
C600 C 0.06347 0.20231 0.90715 0.0
C601 C 1.02829 0.21608 0.9492 0.0
H602 H 0.09354 0.15909 0.80055 0.0
C603 C 0.99615 0.19561 0.90454 0.0
H604 H 0.08908 0.21667 0.93717 0.0
C605 C 0.99884 0.16185 0.83201 0.0
C606 C 1.03376 0.14691 0.79618 0.0
H607 H 0.96819 0.20525 0.9284 0.0
H608 H 0.97322 0.14716 0.8041 0.0
C609 C 0.06607 0.16865 0.83034 0.0
C610 C 0.38989 0.09217 0.92603 0.0
C611 C 0.37076 0.06732 1.00393 0.0
H612 H 0.43809 0.10214 0.8087 0.0
C613 C 0.38857 1.03315 0.02642 0.0
H614 H 0.37789 0.11927 0.90925 0.0
C615 C 0.42367 1.02391 0.97216 0.0
C616 C 0.44289 0.0486 0.89426 0.0
H617 H 0.37568 1.01378 0.08885 0.0
H618 H 0.43597 0.99712 0.99171 0.0
C619 C 0.42505 0.08276 0.8707 0.0
C620 C 0.56993 0.39148 1.00155 0.0
C621 C 0.53484 0.37339 1.01816 0.0
H622 H 0.60022 0.43963 0.93824 0.0
C623 C 0.50289 0.39118 0.97022 0.0
H624 H 0.59513 0.37966 0.04051 0.0
C625 C 0.50587 0.42603 0.91157 0.0
C626 C 0.54088 0.44465 0.89876 0.0
H627 H 0.47523 0.37923 0.98449 0.0
H628 H 0.48042 0.43897 0.87908 0.0
C629 C 0.57288 0.42624 0.94304 0.0
C630 C 0.21886 0.4842 0.95216 0.0
C631 C 0.23548 0.51279 0.02958 0.0
H632 H 0.17298 0.46642 0.8315 0.0
C633 C 0.21588 0.54704 0.04139 0.0
H634 H 0.23216 0.45706 0.94297 0.0
C635 C 0.18106 0.55227 0.97843 0.0
C636 C 0.16447 0.52342 0.90149 0.0
H637 H 0.22676 0.56935 0.10319 0.0
H638 H 0.1667 0.57873 0.99221 0.0
C639 C 0.18434 0.48943 0.88934 0.0
C640 C 1.00979 0.88211 0.55422 0.0
C641 C 1.0271 0.87105 0.44017 0.0
H642 H 1.00209 0.92551 0.69893 0.0
C643 C 0.05017 0.89849 0.38587 0.0
H644 H 0.99091 0.86281 0.59831 0.0
C645 C 0.05591 0.93481 0.44281 0.0
C646 C 0.03788 0.9462 0.55504 0.0
H647 H 0.06332 0.89208 0.29667 0.0
H648 H 0.07409 0.95444 0.39712 0.0
C649 C 1.01539 0.91869 0.6107 0.0
C650 C 0.68646 0.06743 0.46978 0.0
C651 C 0.70423 1.03312 0.49012 0.0
H652 H 0.63884 0.10306 0.50642 0.0
C653 C 0.68542 1.00806 0.56819 0.0
H654 H 0.69924 0.08711 0.40818 0.0
C655 C 0.65056 1.01726 0.62531 0.0
C656 C 0.63238 0.05121 0.60223 0.0
H657 H 0.6977 0.98105 0.58475 0.0
H658 H 0.63803 0.99789 0.68846 0.0
C659 C 0.65132 0.07625 0.5247 0.0
C660 C 0.53735 0.71304 0.51321 0.0
C661 C 0.57113 0.73408 0.52499 0.0
H662 H 0.50638 0.66325 0.56109 0.0
C663 C 0.59959 0.71958 0.60092 0.0
H664 H 0.5152 0.72235 0.45252 0.0
C665 C 0.59467 0.68564 0.6625 0.0
C666 C 0.5612 0.66427 0.65015 0.0
H667 H 0.62638 0.73412 0.61008 0.0
H668 H 0.61749 0.67596 0.71972 0.0
C669 C 0.53246 0.67878 0.57476 0.0
C670 C 0.89114 0.58497 0.54797 0.0
C671 C 0.87092 0.55265 0.50561 0.0
H672 H 0.94145 0.608 0.63628 0.0
C673 C 0.88741 0.5177 0.52889 0.0
H674 H 0.88052 0.61242 0.52796 0.0
C675 C 0.92277 0.51509 0.58916 0.0
C676 C 0.94342 0.54731 0.62916 0.0
H677 H 0.87378 0.49211 0.49383 0.0
H678 H 0.93488 0.48765 0.5985 0.0
C679 C 0.92662 0.58235 0.60856 0.0
loop_
_geom_bond_atom_site_label_1
_geom_bond_atom_site_label_2
_geom_bond_distance
_geom_bond_site_symmetry_2
_ccdc_geom_bond_type
H0 C7 0.929 . S
H1 C10 0.930 . S
H2 C12 0.929 . S
H3 C4 0.969 . S
C4 H3 0.969 . S
C4 O5 1.550 . S
C4 H6 0.973 . S
O5 C4 1.550 . S
O5 C11 1.412 . S
H6 C4 0.973 . S
C7 H0 0.929 . S
C7 C8 1.400 . S
C7 C9 1.364 . S
C8 C7 1.400 . S
C8 C12 1.377 . S
C9 C7 1.364 . S
C9 C10 1.374 . S
C10 H1 0.930 . S
C10 C9 1.374 . S
C10 C11 1.383 . S
C11 O5 1.412 . S
C11 C10 1.383 . S
C11 C12 1.394 . S
C12 H2 0.929 . S
C12 C8 1.377 . S
C12 C11 1.394 . S
H13 C20 0.929 . S
H14 C23 0.930 . S
H15 C25 0.929 . S
H16 C17 0.969 . S
C17 H16 0.969 . S
C17 O18 1.550 . S
C17 H19 0.973 . S
O18 C17 1.550 . S
O18 C24 1.412 . S
H19 C17 0.973 . S
C20 H13 0.929 . S
C20 C21 1.400 . S
C20 C22 1.364 . S
C21 C20 1.400 . S
C21 C25 1.377 . S
C22 C20 1.364 . S
C22 C23 1.374 . S
C23 H14 0.930 . S
C23 C22 1.374 . S
C23 C24 1.383 . S
C24 O18 1.412 . S
C24 C23 1.383 . S
C24 C25 1.394 . S
C25 H15 0.929 . S
C25 C21 1.377 . S
C25 C24 1.394 . S
H26 C33 0.929 . S
H27 C36 0.930 . S
H28 C38 0.929 . S
H29 C30 0.943 1_545 S
C30 H29 0.943 1_565 S
C30 O31 1.550 . S
C30 H32 0.973 . S
O31 C30 1.550 . S
O31 C37 1.412 . S
H32 C30 0.973 . S
C33 H26 0.929 . S
C33 C34 1.400 . S
C33 C35 1.364 . S
C34 C33 1.400 . S
C34 C38 1.377 . S
C35 C33 1.364 . S
C35 C36 1.374 . S
C36 H27 0.930 . S
C36 C35 1.374 . S
C36 C37 1.383 . S
C37 O31 1.412 . S
C37 C36 1.383 . S
C37 C38 1.394 . S
C38 H28 0.929 . S
C38 C34 1.377 . S
C38 C37 1.394 . S
H39 C46 0.929 . S
H40 C49 0.930 . S
H41 C51 0.929 . S
H42 C43 0.969 . S
C43 H42 0.969 . S
C43 O44 1.550 . S
C43 H45 0.973 . S
O44 C43 1.550 . S
O44 C50 1.412 . S
H45 C43 0.973 . S
C46 H39 0.929 . S
C46 C47 1.400 . S
C46 C48 1.364 . S
C47 C46 1.400 . S
C47 C51 1.377 . S
C48 C46 1.364 . S
C48 C49 1.374 . S
C49 H40 0.930 . S
C49 C48 1.374 . S
C49 C50 1.383 . S
C50 O44 1.412 . S
C50 C49 1.383 . S
C50 C51 1.394 . S
C51 H41 0.929 . S
C51 C47 1.377 . S
C51 C50 1.394 . S
H52 C59 0.929 . S
H53 C62 0.930 . S
H54 C64 0.929 . S
H55 C56 0.969 . S
C56 H55 0.969 . S
C56 O57 1.550 . S
C56 H58 0.973 . S
O57 C56 1.550 . S
O57 C63 1.412 . S
H58 C56 0.973 . S
C59 H52 0.929 . S
C59 C60 1.400 . S
C59 C61 1.364 1_556 S
C60 C59 1.400 . S
C60 C64 1.377 . S
C61 C59 1.364 1_554 S
C61 C62 1.374 . S
C62 H53 0.930 . S
C62 C61 1.374 . S
C62 C63 1.383 . S
C63 O57 1.412 . S
C63 C62 1.383 . S
C63 C64 1.394 1_554 S
C64 H54 0.929 . S
C64 C60 1.377 . S
C64 C63 1.394 1_556 S
H65 C72 0.929 . S
H66 C75 0.930 . S
H67 C77 0.929 . S
H68 C69 0.969 . S
C69 H68 0.969 . S
C69 O70 1.550 . S
C69 H71 0.973 . S
O70 C69 1.550 . S
O70 C76 1.412 . S
H71 C69 0.973 . S
C72 H65 0.929 . S
C72 C73 1.400 . S
C72 C74 1.364 1_556 S
C73 C72 1.400 . S
C73 C77 1.377 . S
C74 C72 1.364 1_554 S
C74 C75 1.374 . S
C75 H66 0.930 . S
C75 C74 1.374 . S
C75 C76 1.383 . S
C76 O70 1.412 . S
C76 C75 1.383 . S
C76 C77 1.394 1_554 S
C77 H67 0.929 . S
C77 C73 1.377 . S
C77 C76 1.394 1_556 S
H78 C85 0.929 . S
H79 C88 0.930 . S
H80 C90 0.929 . S
H81 C82 0.969 . S
C82 H81 0.969 . S
C82 O83 1.550 . S
C82 H84 0.973 . S
O83 C82 1.550 . S
O83 C89 1.412 . S
H84 C82 0.973 . S
C85 H78 0.929 . S
C85 C86 1.400 . S
C85 C87 1.364 1_556 S
C86 C85 1.400 . S
C86 C90 1.377 . S
C87 C85 1.364 1_554 S
C87 C88 1.374 . S
C88 H79 0.930 . S
C88 C87 1.374 . S
C88 C89 1.383 . S
C89 O83 1.412 . S
C89 C88 1.383 . S
C89 C90 1.394 1_554 S
C90 H80 0.929 . S
C90 C86 1.377 . S
C90 C89 1.394 1_556 S
H91 C98 0.929 . S
H92 C101 0.930 . S
H93 C103 0.929 . S
H94 C95 0.969 . S
C95 H94 0.969 . S
C95 O96 1.550 . S
C95 H97 0.973 . S
O96 C95 1.550 . S
O96 C102 1.412 . S
H97 C95 0.973 . S
C98 H91 0.929 . S
C98 C99 1.400 . S
C98 C100 1.364 1_556 S
C99 C98 1.400 . S
C99 C103 1.377 . S
C100 C98 1.364 1_554 S
C100 C101 1.374 . S
C101 H92 0.930 . S
C101 C100 1.374 . S
C101 C102 1.383 . S
C102 O96 1.412 . S
C102 C101 1.383 . S
C102 C103 1.394 1_554 S
C103 H93 0.929 . S
C103 C99 1.377 . S
C103 C102 1.394 1_556 S
Tb104 N135 2.660 1_566 S
Tb104 N142 2.600 1_565 S
Tb104 O148 2.546 . S
Tb104 O149 2.610 1_455 S
Tb104 O151 2.320 1_455 S
Tb104 O152 2.552 . S
Tb104 O153 2.413 1_556 S
Tb104 O155 2.362 1_565 S
Tb104 O156 2.421 . S
Tb104 C168 2.833 . S
C105 C108 1.432 . S
C105 C109 1.414 . S
C105 N112 1.359 1_565 S
C106 C108 1.417 . S
C106 C110 1.432 . S
C106 C118 1.410 . S
C107 C109 1.444 . S
C107 C110 1.317 . S
C107 H130 0.929 . S
C108 C105 1.432 . S
C108 C106 1.417 . S
C108 N116 1.360 . S
C109 C105 1.414 . S
C109 C107 1.444 . S
C109 C114 1.385 1_565 S
C110 C106 1.432 . S
C110 C107 1.317 . S
C110 H122 0.930 . S
C111 C113 1.392 . S
C111 C114 1.370 . S
C111 H123 0.931 . S
N112 C105 1.359 1_545 S
N112 C113 1.327 . S
N112 Tb115 2.600 . S
C113 C111 1.392 . S
C113 N112 1.327 . S
C113 H120 0.930 . S
C114 C109 1.385 1_545 S
C114 C111 1.370 . S
C114 H133 0.930 . S
Tb115 N112 2.600 . S
Tb115 N116 2.660 1_545 S
Tb115 O149 2.362 1_545 S
Tb115 O150 2.421 . S
Tb115 O154 2.546 . S
Tb115 O155 2.610 1_655 S
Tb115 O157 2.320 1_655 S
Tb115 O158 2.552 1_655 S
Tb115 O159 2.413 . S
Tb115 C179 2.833 . S
N116 C108 1.360 . S
N116 Tb115 2.660 1_565 S
N116 C117 1.305 1_655 S
C117 N116 1.305 1_455 S
C117 C119 1.407 . S
C117 H124 0.930 . S
C118 C106 1.410 . S
C118 C119 1.345 1_655 S
C118 H126 0.930 . S
C119 C117 1.407 . S
C119 C118 1.345 1_455 S
C119 H121 0.930 . S
H120 C113 0.930 . S
H121 C119 0.930 . S
H122 C110 0.930 . S
H123 C111 0.931 . S
H124 C117 0.930 . S
H125 C139 0.930 1_655 S
H126 C118 0.930 . S
H127 C145 0.930 . S
H128 C136 0.930 1_655 S
H129 C143 0.931 . S
H130 C107 0.929 . S
H131 C137 0.930 . S
H132 C170 0.930 . S
H133 C114 0.930 . S
H134 C169 0.929 . S
N135 Tb104 2.660 1_544 S
N135 C136 1.305 . S
N135 C140 1.360 . S
C136 H128 0.930 1_455 S
C136 N135 1.305 . S
C136 C139 1.407 . S
C137 H131 0.930 . S
C137 C138 1.410 . S
C137 C139 1.345 . S
C138 C137 1.410 . S
C138 C140 1.417 . S
C138 C170 1.432 . S
C139 H125 0.930 1_455 S
C139 C136 1.407 . S
C139 C137 1.345 . S
C140 N135 1.360 . S
C140 C138 1.417 . S
C140 C144 1.432 . S
H141 C146 0.930 . S
N142 Tb104 2.600 1_545 S
N142 C144 1.359 1_556 S
N142 C145 1.327 1_545 S
C143 H129 0.931 . S
C143 C145 1.392 . S
C143 C146 1.370 1_566 S
C144 C140 1.432 . S
C144 N142 1.359 1_554 S
C144 C147 1.414 . S
C145 H127 0.930 . S
C145 N142 1.327 1_565 S
C145 C143 1.392 . S
C146 H141 0.930 . S
C146 C143 1.370 1_544 S
C146 C147 1.385 . S
C147 C144 1.414 . S
C147 C146 1.385 . S
C147 C169 1.444 . S
O148 Tb104 2.546 . S
O148 C168 1.251 . S
O149 Tb104 2.610 1_655 S
O149 Tb115 2.362 1_565 S
O149 C160 1.283 . S
O150 Tb115 2.421 . S
O150 C167 1.262 . S
O151 Tb104 2.320 1_655 S
O151 C167 1.260 1_565 S
O152 Tb104 2.552 . S
O152 C160 1.243 1_455 S
O153 Tb104 2.413 1_554 S
O153 C168 1.256 1_554 S
O154 Tb115 2.546 . S
O154 C179 1.251 . S
O155 Tb104 2.362 1_545 S
O155 Tb115 2.610 1_455 S
O155 C171 1.283 . S
O156 Tb104 2.421 . S
O156 C178 1.262 1_565 S
O157 Tb115 2.320 1_455 S
O157 C178 1.260 . S
O158 Tb115 2.552 1_455 S
O158 C171 1.243 . S
O159 Tb115 2.413 . S
O159 C179 1.256 . S
C160 O149 1.283 . S
C160 O152 1.243 1_655 S
C161 C163 1.382 . S
C161 C165 1.393 . S
C161 C168 1.500 1_554 S
C162 C163 1.400 . S
C162 C164 1.384 . S
C163 C161 1.382 . S
C163 C162 1.400 . S
C163 H180 0.930 . S
C164 C162 1.384 . S
C164 C166 1.392 . S
C164 H181 0.931 . S
C165 C161 1.393 . S
C165 C166 1.401 . S
C165 H182 0.930 . S
C166 C164 1.392 . S
C166 C165 1.401 . S
C166 H183 0.930 . S
C167 O150 1.262 . S
C167 O151 1.260 1_545 S
C168 Tb104 2.833 . S
C168 O148 1.251 . S
C168 O153 1.256 1_556 S
C168 C161 1.500 1_556 S
C169 H134 0.929 . S
C169 C147 1.444 . S
C169 C170 1.317 . S
C170 H132 0.930 . S
C170 C138 1.432 . S
C170 C169 1.317 . S
C171 O155 1.283 . S
C171 O158 1.243 . S
C172 C173 1.382 . S
C172 C176 1.393 . S
C172 C179 1.500 . S
C173 C172 1.382 . S
C173 C174 1.400 . S
C173 H184 0.930 1_655 S
C174 C173 1.400 . S
C174 C175 1.384 . S
C175 C174 1.384 . S
C175 C177 1.392 . S
C175 H185 0.931 . S
C176 C172 1.393 . S
C176 C177 1.401 . S
C176 H186 0.930 . S
C177 C175 1.392 . S
C177 C176 1.401 . S
C177 H187 0.930 . S
C178 O156 1.262 1_545 S
C178 O157 1.260 . S
C179 Tb115 2.833 . S
C179 O154 1.251 . S
C179 O159 1.256 . S
C179 C172 1.500 . S
H180 C163 0.930 . S
H181 C164 0.931 . S
H182 C165 0.930 . S
H183 C166 0.930 . S
H184 C173 0.930 1_455 S
H185 C175 0.931 . S
H186 C176 0.930 . S
H187 C177 0.930 . S
Tb188 N219 2.660 1_556 S
Tb188 N226 2.600 . S
Tb188 O232 2.546 . S
Tb188 O233 2.610 1_545 S
Tb188 O235 2.320 1_545 S
Tb188 O236 2.552 . S
Tb188 O237 2.413 1_556 S
Tb188 O239 2.362 . S
Tb188 O240 2.421 . S
Tb188 C252 2.833 . S
C189 C192 1.432 . S
C189 C193 1.414 . S
C189 N196 1.359 . S
C190 C192 1.417 . S
C190 C194 1.432 . S
C190 C202 1.410 . S
C191 C193 1.444 . S
C191 C194 1.317 . S
C191 H214 0.929 . S
C192 C189 1.432 . S
C192 C190 1.417 . S
C192 N200 1.360 . S
C193 C189 1.414 . S
C193 C191 1.444 . S
C193 C198 1.385 . S
C194 C190 1.432 . S
C194 C191 1.317 . S
C194 H206 0.930 . S
C195 C197 1.392 . S
C195 C198 1.370 . S
C195 H207 0.931 . S
N196 C189 1.359 . S
N196 C197 1.327 . S
N196 Tb199 2.600 . S
C197 C195 1.392 . S
C197 N196 1.327 . S
C197 H204 0.930 . S
C198 C193 1.385 . S
C198 C195 1.370 . S
C198 H217 0.930 . S
Tb199 N196 2.600 . S
Tb199 N200 2.660 . S
Tb199 O233 2.362 . S
Tb199 O234 2.421 . S
Tb199 O238 2.546 . S
Tb199 O239 2.610 1_565 S
Tb199 O241 2.320 1_565 S
Tb199 O242 2.552 1_565 S
Tb199 O243 2.413 . S
Tb199 C263 2.833 . S
N200 C192 1.360 . S
N200 Tb199 2.660 . S
N200 C201 1.305 1_565 S
C201 N200 1.305 1_545 S
C201 C203 1.407 . S
C201 H208 0.930 . S
C202 C190 1.410 . S
C202 C203 1.345 1_565 S
C202 H210 0.930 . S
C203 C201 1.407 . S
C203 C202 1.345 1_545 S
C203 H205 0.930 . S
H204 C197 0.930 . S
H205 C203 0.930 . S
H206 C194 0.930 . S
H207 C195 0.931 . S
H208 C201 0.930 . S
H209 C223 0.930 1_565 S
H210 C202 0.930 . S
H211 C229 0.930 . S
H212 C220 0.930 1_565 S
H213 C227 0.931 . S
H214 C191 0.929 . S
H215 C221 0.930 . S
H216 C254 0.930 . S
H217 C198 0.930 . S
H218 C253 0.929 . S
N219 Tb188 2.660 1_554 S
N219 C220 1.305 . S
N219 C224 1.360 . S
C220 H212 0.930 1_545 S
C220 N219 1.305 . S
C220 C223 1.407 . S
C221 H215 0.930 . S
C221 C222 1.410 . S
C221 C223 1.345 . S
C222 C221 1.410 . S
C222 C224 1.417 . S
C222 C254 1.432 . S
C223 H209 0.930 1_545 S
C223 C220 1.407 . S
C223 C221 1.345 . S
C224 N219 1.360 . S
C224 C222 1.417 . S
C224 C228 1.432 . S
H225 C230 0.930 . S
N226 Tb188 2.600 . S
N226 C228 1.359 1_556 S
N226 C229 1.327 . S
C227 H213 0.931 . S
C227 C229 1.392 . S
C227 C230 1.370 1_556 S
C228 C224 1.432 . S
C228 N226 1.359 1_554 S
C228 C231 1.414 . S
C229 H211 0.930 . S
C229 N226 1.327 . S
C229 C227 1.392 . S
C230 H225 0.930 . S
C230 C227 1.370 1_554 S
C230 C231 1.385 . S
C231 C228 1.414 . S
C231 C230 1.385 . S
C231 C253 1.444 . S
O232 Tb188 2.546 . S
O232 C252 1.251 . S
O233 Tb188 2.610 1_565 S
O233 Tb199 2.362 . S
O233 C244 1.283 . S
O234 Tb199 2.421 . S
O234 C251 1.262 . S
O235 Tb188 2.320 1_565 S
O235 C251 1.260 . S
O236 Tb188 2.552 . S
O236 C244 1.243 1_545 S
O237 Tb188 2.413 1_554 S
O237 C252 1.256 1_554 S
O238 Tb199 2.546 . S
O238 C263 1.251 . S
O239 Tb188 2.362 . S
O239 Tb199 2.610 1_545 S
O239 C255 1.283 . S
O240 Tb188 2.421 . S
O240 C262 1.262 . S
O241 Tb199 2.320 1_545 S
O241 C262 1.260 . S
O242 Tb199 2.552 1_545 S
O242 C255 1.243 . S
O243 Tb199 2.413 . S
O243 C263 1.256 . S
C244 O233 1.283 . S
C244 O236 1.243 1_565 S
C245 C247 1.382 . S
C245 C249 1.393 . S
C245 C252 1.500 1_554 S
C246 C247 1.400 . S
C246 C248 1.384 . S
C247 C245 1.382 . S
C247 C246 1.400 . S
C247 H264 0.930 . S
C248 C246 1.384 . S
C248 C250 1.392 . S
C248 H265 0.931 . S
C249 C245 1.393 . S
C249 C250 1.401 . S
C249 H266 0.930 . S
C250 C248 1.392 . S
C250 C249 1.401 . S
C250 H267 0.930 . S
C251 O234 1.262 . S
C251 O235 1.260 . S
C252 Tb188 2.833 . S
C252 O232 1.251 . S
C252 O237 1.256 1_556 S
C252 C245 1.500 1_556 S
C253 H218 0.929 . S
C253 C231 1.444 . S
C253 C254 1.317 . S
C254 H216 0.930 . S
C254 C222 1.432 . S
C254 C253 1.317 . S
C255 O239 1.283 . S
C255 O242 1.243 . S
C256 C257 1.382 . S
C256 C260 1.393 . S
C256 C263 1.500 . S
C257 C256 1.382 . S
C257 C258 1.400 . S
C257 H268 0.930 1_565 S
C258 C257 1.400 . S
C258 C259 1.384 . S
C259 C258 1.384 . S
C259 C261 1.392 . S
C259 H269 0.931 . S
C260 C256 1.393 . S
C260 C261 1.401 . S
C260 H270 0.930 . S
C261 C259 1.392 . S
C261 C260 1.401 . S
C261 H271 0.930 . S
C262 O240 1.262 . S
C262 O241 1.260 . S
C263 Tb199 2.833 . S
C263 O238 1.251 . S
C263 O243 1.256 . S
C263 C256 1.500 . S
H264 C247 0.930 . S
H265 C248 0.931 . S
H266 C249 0.930 . S
H267 C250 0.930 . S
H268 C257 0.930 1_545 S
H269 C259 0.931 . S
H270 C260 0.930 . S
H271 C261 0.930 . S
Tb272 N303 2.660 . S
Tb272 N310 2.600 . S
Tb272 O316 2.546 . S
Tb272 O317 2.610 . S
Tb272 O319 2.320 . S
Tb272 O320 2.552 . S
Tb272 O321 2.413 . S
Tb272 O323 2.362 . S
Tb272 O324 2.421 . S
Tb272 C336 2.833 . S
C273 C276 1.432 . S
C273 C277 1.414 . S
C273 N280 1.359 . S
C274 C276 1.417 . S
C274 C278 1.432 . S
C274 C286 1.410 . S
C275 C277 1.444 . S
C275 C278 1.317 . S
C275 H298 0.929 . S
C276 C273 1.432 . S
C276 C274 1.417 . S
C276 N284 1.360 . S
C277 C273 1.414 . S
C277 C275 1.444 . S
C277 C282 1.385 1_556 S
C278 C274 1.432 . S
C278 C275 1.317 . S
C278 H290 0.930 . S
C279 C281 1.392 . S
C279 C282 1.370 . S
C279 H291 0.931 . S
N280 C273 1.359 . S
N280 C281 1.327 1_556 S
N280 Tb283 2.600 . S
C281 C279 1.392 . S
C281 N280 1.327 1_554 S
C281 H288 0.930 . S
C282 C277 1.385 1_554 S
C282 C279 1.370 . S
C282 H301 0.930 . S
Tb283 N280 2.600 . S
Tb283 N284 2.660 . S
Tb283 O317 2.362 . S
Tb283 O318 2.421 . S
Tb283 O322 2.546 1_556 S
Tb283 O323 2.610 . S
Tb283 O325 2.320 . S
Tb283 O326 2.552 . S
Tb283 O327 2.413 . S
Tb283 C347 2.833 1_556 S
N284 C276 1.360 . S
N284 Tb283 2.660 . S
N284 C285 1.305 . S
C285 N284 1.305 . S
C285 C287 1.407 . S
C285 H292 0.930 . S
C286 C274 1.410 . S
C286 C287 1.345 . S
C286 H294 0.930 . S
C287 C285 1.407 . S
C287 C286 1.345 . S
C287 H289 0.930 . S
H288 C281 0.930 . S
H289 C287 0.930 . S
H290 C278 0.930 . S
H291 C279 0.931 . S
H292 C285 0.930 . S
H293 C307 0.930 . S
H294 C286 0.930 . S
H295 C313 0.930 . S
H296 C304 0.930 . S
H297 C311 0.931 . S
H298 C275 0.929 . S
H299 C305 0.930 . S
H300 C338 0.930 . S
H301 C282 0.930 . S
H302 C337 0.929 . S
N303 Tb272 2.660 . S
N303 C304 1.305 . S
N303 C308 1.360 . S
C304 H296 0.930 . S
C304 N303 1.305 . S
C304 C307 1.407 . S
C305 H299 0.930 . S
C305 C306 1.410 . S
C305 C307 1.345 . S
C306 C305 1.410 . S
C306 C308 1.417 . S
C306 C338 1.432 . S
C307 H293 0.930 . S
C307 C304 1.407 . S
C307 C305 1.345 . S
C308 N303 1.360 . S
C308 C306 1.417 . S
C308 C312 1.432 . S
H309 C314 0.930 . S
N310 Tb272 2.600 . S
N310 C312 1.359 . S
N310 C313 1.327 . S
C311 H297 0.931 . S
C311 C313 1.392 . S
C311 C314 1.370 . S
C312 C308 1.432 . S
C312 N310 1.359 . S
C312 C315 1.414 . S
C313 H295 0.930 . S
C313 N310 1.327 . S
C313 C311 1.392 . S
C314 H309 0.930 . S
C314 C311 1.370 . S
C314 C315 1.385 . S
C315 C312 1.414 . S
C315 C314 1.385 . S
C315 C337 1.444 . S
O316 Tb272 2.546 . S
O316 C336 1.251 . S
O317 Tb272 2.610 . S
O317 Tb283 2.362 . S
O317 C328 1.283 . S
O318 Tb283 2.421 . S
O318 C335 1.262 . S
O319 Tb272 2.320 . S
O319 C335 1.260 . S
O320 Tb272 2.552 . S
O320 C328 1.243 . S
O321 Tb272 2.413 . S
O321 C336 1.256 . S
O322 Tb283 2.546 1_554 S
O322 C347 1.251 . S
O323 Tb272 2.362 . S
O323 Tb283 2.610 . S
O323 C339 1.283 . S
O324 Tb272 2.421 . S
O324 C346 1.262 . S
O325 Tb283 2.320 . S
O325 C346 1.260 . S
O326 Tb283 2.552 . S
O326 C339 1.243 . S
O327 Tb283 2.413 . S
O327 C347 1.256 1_556 S
C328 O317 1.283 . S
C328 O320 1.243 . S
C329 C331 1.382 . S
C329 C333 1.393 . S
C329 C336 1.500 . S
C330 C331 1.400 . S
C330 C332 1.384 . S
C331 C329 1.382 . S
C331 C330 1.400 . S
C331 H348 0.930 . S
C332 C330 1.384 . S
C332 C334 1.392 . S
C332 H349 0.931 . S
C333 C329 1.393 . S
C333 C334 1.401 . S
C333 H350 0.930 . S
C334 C332 1.392 . S
C334 C333 1.401 . S
C334 H351 0.930 . S
C335 O318 1.262 . S
C335 O319 1.260 . S
C336 Tb272 2.833 . S
C336 O316 1.251 . S
C336 O321 1.256 . S
C336 C329 1.500 . S
C337 H302 0.929 . S
C337 C315 1.444 . S
C337 C338 1.317 . S
C338 H300 0.930 . S
C338 C306 1.432 . S
C338 C337 1.317 . S
C339 O323 1.283 . S
C339 O326 1.243 . S
C340 C341 1.382 . S
C340 C344 1.393 . S
C340 C347 1.500 . S
C341 C340 1.382 . S
C341 C342 1.400 . S
C341 H352 0.930 . S
C342 C341 1.400 . S
C342 C343 1.384 . S
C343 C342 1.384 . S
C343 C345 1.392 . S
C343 H353 0.931 . S
C344 C340 1.393 . S
C344 C345 1.401 . S
C344 H354 0.930 . S
C345 C343 1.392 . S
C345 C344 1.401 . S
C345 H355 0.930 . S
C346 O324 1.262 . S
C346 O325 1.260 . S
C347 Tb283 2.833 1_554 S
C347 O322 1.251 . S
C347 O327 1.256 1_554 S
C347 C340 1.500 . S
H348 C331 0.930 . S
H349 C332 0.931 . S
H350 C333 0.930 . S
H351 C334 0.930 . S
H352 C341 0.930 . S
H353 C343 0.931 . S
H354 C344 0.930 . S
H355 C345 0.930 . S
Tb356 N387 2.660 . S
Tb356 N394 2.600 . S
Tb356 O400 2.546 . S
Tb356 O401 2.610 . S
Tb356 O403 2.320 . S
Tb356 O404 2.552 . S
Tb356 O405 2.413 . S
Tb356 O407 2.362 . S
Tb356 O408 2.421 1_455 S
Tb356 C420 2.833 . S
C357 C360 1.432 . S
C357 C361 1.414 . S
C357 N364 1.365 . S
C358 C360 1.417 . S
C358 C362 1.432 . S
C358 C370 1.410 . S
C359 C361 1.444 . S
C359 C362 1.317 . S
C359 H382 0.929 . S
C360 C357 1.432 . S
C360 C358 1.417 . S
C360 N368 1.360 . S
C361 C357 1.414 . S
C361 C359 1.444 . S
C361 C366 1.385 1_656 S
C362 C358 1.432 . S
C362 C359 1.317 . S
C362 H374 0.930 . S
C363 C365 1.392 . S
C363 C366 1.370 . S
C363 H375 0.931 . S
N364 C357 1.365 . S
N364 C365 1.319 1_656 S
N364 Tb367 2.604 . S
C365 C363 1.392 . S
C365 N364 1.319 1_454 S
C365 H372 0.930 . S
C366 C361 1.385 1_454 S
C366 C363 1.370 . S
C366 H385 0.930 . S
Tb367 N364 2.604 . S
Tb367 N368 2.660 . S
Tb367 O401 2.362 1_655 S
Tb367 O402 2.421 1_655 S
Tb367 O406 2.546 1_556 S
Tb367 O407 2.610 1_655 S
Tb367 O409 2.320 . S
Tb367 O410 2.552 . S
Tb367 O411 2.413 . S
Tb367 C431 2.833 1_556 S
N368 C360 1.360 . S
N368 Tb367 2.660 . S
N368 C369 1.305 . S
C369 N368 1.305 . S
C369 C371 1.407 . S
C369 H376 0.930 . S
C370 C358 1.410 . S
C370 C371 1.345 . S
C370 H378 0.930 . S
C371 C369 1.407 . S
C371 C370 1.345 . S
C371 H373 0.930 . S
H372 C365 0.930 . S
H373 C371 0.930 . S
H374 C362 0.930 . S
H375 C363 0.931 . S
H376 C369 0.930 . S
H377 C391 0.930 . S
H378 C370 0.930 . S
H379 C397 0.930 . S
H380 C388 0.930 . S
H381 C395 0.931 . S
H382 C359 0.929 . S
H383 C389 0.930 . S
H384 C422 0.930 . S
H385 C366 0.930 . S
H386 C421 0.929 . S
N387 Tb356 2.660 . S
N387 C388 1.305 . S
N387 C392 1.360 . S
C388 H380 0.930 . S
C388 N387 1.305 . S
C388 C391 1.407 . S
C389 H383 0.930 . S
C389 C390 1.410 . S
C389 C391 1.345 . S
C390 C389 1.410 . S
C390 C392 1.417 . S
C390 C422 1.432 . S
C391 H377 0.930 . S
C391 C388 1.407 . S
C391 C389 1.345 . S
C392 N387 1.360 . S
C392 C390 1.417 . S
C392 C396 1.432 . S
H393 C398 0.930 1_655 S
N394 Tb356 2.600 . S
N394 C396 1.359 . S
N394 C397 1.327 1_455 S
C395 H381 0.931 . S
C395 C397 1.392 . S
C395 C398 1.370 1_655 S
C396 C392 1.432 . S
C396 N394 1.359 . S
C396 C399 1.414 . S
C397 H379 0.930 . S
C397 N394 1.327 1_655 S
C397 C395 1.392 . S
C398 H393 0.930 1_455 S
C398 C395 1.370 1_455 S
C398 C399 1.385 . S
C399 C396 1.414 . S
C399 C398 1.385 . S
C399 C421 1.444 . S
O400 Tb356 2.546 . S
O400 C420 1.251 . S
O401 Tb356 2.610 . S
O401 Tb367 2.362 1_455 S
O401 C412 1.283 . S
O402 Tb367 2.421 1_455 S
O402 C419 1.262 . S
O403 Tb356 2.320 . S
O403 C419 1.260 . S
O404 Tb356 2.552 . S
O404 C412 1.243 . S
O405 Tb356 2.413 . S
O405 C420 1.256 . S
O406 Tb367 2.546 1_554 S
O406 C431 1.251 . S
O407 Tb356 2.362 . S
O407 Tb367 2.610 1_455 S
O407 C423 1.283 1_455 S
O408 Tb356 2.421 1_655 S
O408 C430 1.262 . S
O409 Tb367 2.320 . S
O409 C430 1.260 . S
O410 Tb367 2.552 . S
O410 C423 1.243 . S
O411 Tb367 2.413 . S
O411 C431 1.256 1_556 S
C412 O401 1.283 . S
C412 O404 1.243 . S
C413 C415 1.382 . S
C413 C417 1.393 . S
C413 C420 1.500 . S
C414 C415 1.400 . S
C414 C416 1.384 . S
C415 C413 1.382 . S
C415 C414 1.400 . S
C415 H432 0.930 . S
C416 C414 1.384 . S
C416 C418 1.392 . S
C416 H433 0.931 . S
C417 C413 1.393 . S
C417 C418 1.401 . S
C417 H434 0.930 . S
C418 C416 1.392 . S
C418 C417 1.401 . S
C418 H435 0.930 . S
C419 O402 1.262 . S
C419 O403 1.260 . S
C420 Tb356 2.833 . S
C420 O400 1.251 . S
C420 O405 1.256 . S
C420 C413 1.500 . S
C421 H386 0.929 . S
C421 C399 1.444 . S
C421 C422 1.317 . S
C422 H384 0.930 . S
C422 C390 1.432 . S
C422 C421 1.317 . S
C423 O407 1.283 1_655 S
C423 O410 1.243 . S
C424 C425 1.382 . S
C424 C428 1.393 . S
C424 C431 1.500 . S
C425 C424 1.382 . S
C425 C426 1.400 . S
C425 H436 0.930 . S
C426 C425 1.400 . S
C426 C427 1.384 . S
C427 C426 1.384 . S
C427 C429 1.392 . S
C427 H437 0.931 . S
C428 C424 1.393 . S
C428 C429 1.401 . S
C428 H438 0.930 . S
C429 C427 1.392 . S
C429 C428 1.401 . S
C429 H439 0.930 . S
C430 O408 1.262 . S
C430 O409 1.260 . S
C431 Tb367 2.833 1_554 S
C431 O406 1.251 . S
C431 O411 1.256 1_554 S
C431 C424 1.500 . S
H432 C415 0.930 . S
H433 C416 0.931 . S
H434 C417 0.930 . S
H435 C418 0.930 . S
H436 C425 0.930 . S
H437 C427 0.931 . S
H438 C428 0.930 . S
H439 C429 0.930 . S
C440 C441 1.387 . S
C440 H444 0.950 1_545 S
C440 C449 1.390 . S
C441 C440 1.387 . S
C441 C443 1.387 . S
H442 C449 0.950 1_565 S
C443 C441 1.387 . S
C443 C445 1.390 . S
C443 H447 0.950 . S
H444 C440 0.950 1_565 S
C445 C443 1.390 . S
C445 C446 1.387 . S
C445 H448 0.950 . S
C446 C445 1.387 . S
C446 C449 1.387 . S
H447 C443 0.950 . S
H448 C445 0.950 . S
C449 C440 1.390 . S
C449 H442 0.950 1_545 S
C449 C446 1.387 . S
C450 C451 1.387 . S
C450 H454 0.950 . S
C450 C459 1.390 . S
C451 C450 1.387 . S
C451 C453 1.387 . S
H452 C459 0.950 . S
C453 C451 1.387 . S
C453 C455 1.390 . S
C453 H457 0.950 . S
H454 C450 0.950 . S
C455 C453 1.390 . S
C455 C456 1.387 . S
C455 H458 0.950 . S
C456 C455 1.387 . S
C456 C459 1.387 . S
H457 C453 0.950 . S
H458 C455 0.950 . S
C459 C450 1.390 . S
C459 H452 0.950 . S
C459 C456 1.387 . S
C460 C461 1.387 . S
C460 H464 0.950 . S
C460 C469 1.390 . S
C461 C460 1.387 . S
C461 C463 1.387 . S
H462 C469 0.950 . S
C463 C461 1.387 . S
C463 C465 1.390 . S
C463 H467 0.950 . S
H464 C460 0.950 . S
C465 C463 1.390 . S
C465 C466 1.387 . S
C465 H468 0.950 . S
C466 C465 1.387 . S
C466 C469 1.387 . S
H467 C463 0.950 . S
H468 C465 0.950 . S
C469 C460 1.390 . S
C469 H462 0.950 . S
C469 C466 1.387 . S
C470 C471 1.387 . S
C470 H474 0.950 . S
C470 C479 1.390 . S
C471 C470 1.387 . S
C471 C473 1.387 . S
H472 C479 0.950 . S
C473 C471 1.387 . S
C473 C475 1.390 . S
C473 H477 0.950 . S
H474 C470 0.950 . S
C475 C473 1.390 . S
C475 C476 1.387 . S
C475 H478 0.950 . S
C476 C475 1.387 . S
C476 C479 1.387 . S
H477 C473 0.950 . S
H478 C475 0.950 . S
C479 C470 1.390 . S
C479 H472 0.950 . S
C479 C476 1.387 . S
C480 C481 1.387 1_545 S
C480 H484 0.950 . S
C480 C489 1.390 . S
C481 C480 1.387 1_565 S
C481 C483 1.387 . S
H482 C489 0.950 . S
C483 C481 1.387 . S
C483 C485 1.390 . S
C483 H487 0.950 . S
H484 C480 0.950 . S
C485 C483 1.390 . S
C485 C486 1.391 . S
C485 H488 0.950 1_554 S
C486 C485 1.391 . S
C486 C489 1.393 1_565 S
H487 C483 0.950 . S
H488 C485 0.950 1_556 S
C489 C480 1.390 . S
C489 H482 0.950 . S
C489 C486 1.393 1_545 S
C490 C491 1.387 . S
C490 H494 0.950 . S
C490 C499 1.390 . S
C491 C490 1.387 . S
C491 C493 1.387 . S
H492 C499 0.950 . S
C493 C491 1.387 . S
C493 C495 1.390 . S
C493 H497 0.950 . S
H494 C490 0.950 . S
C495 C493 1.390 . S
C495 C496 1.387 1_554 S
C495 H498 0.950 1_554 S
C496 C495 1.387 1_556 S
C496 C499 1.387 1_556 S
H497 C493 0.950 . S
H498 C495 0.950 1_556 S
C499 C490 1.390 . S
C499 H492 0.950 . S
C499 C496 1.387 1_554 S
C500 C501 1.387 . S
C500 H504 0.950 . S
C500 C509 1.390 . S
C501 C500 1.387 . S
C501 C503 1.387 . S
H502 C509 0.950 1_556 S
C503 C501 1.387 . S
C503 C505 1.390 . S
C503 H507 0.950 . S
H504 C500 0.950 . S
C505 C503 1.390 . S
C505 C506 1.387 1_554 S
C505 H508 0.950 . S
C506 C505 1.387 1_556 S
C506 C509 1.387 1_556 S
H507 C503 0.950 . S
H508 C505 0.950 . S
C509 C500 1.390 . S
C509 H502 0.950 1_554 S
C509 C506 1.387 1_554 S
C510 C511 1.387 . S
C510 H514 0.950 . S
C510 C519 1.390 . S
C511 C510 1.387 . S
C511 C513 1.387 . S
H512 C519 0.950 . S
C513 C511 1.387 . S
C513 C515 1.390 . S
C513 H517 0.950 . S
H514 C510 0.950 . S
C515 C513 1.390 . S
C515 C516 1.387 1_554 S
C515 H518 0.950 1_554 S
C516 C515 1.387 1_556 S
C516 C519 1.387 1_556 S
H517 C513 0.950 . S
H518 C515 0.950 1_556 S
C519 C510 1.390 . S
C519 H512 0.950 . S
C519 C516 1.387 1_554 S
C520 C521 1.387 . S
C520 H524 0.950 1_554 S
C520 C529 1.390 . S
C521 C520 1.387 . S
C521 C523 1.387 . S
H522 C529 0.950 1_655 S
C523 C521 1.387 . S
C523 C525 1.390 . S
C523 H527 0.950 . S
H524 C520 0.950 1_556 S
C525 C523 1.390 . S
C525 C526 1.380 1_455 S
C525 H528 0.950 . S
C526 C525 1.380 1_655 S
C526 C529 1.383 1_655 S
H527 C523 0.950 . S
H528 C525 0.950 . S
C529 C520 1.390 . S
C529 H522 0.950 1_455 S
C529 C526 1.383 1_455 S
C530 C531 1.387 . S
C530 H534 0.950 . S
C530 C539 1.390 1_545 S
C531 C530 1.387 . S
C531 C533 1.387 . S
H532 C539 0.950 . S
C533 C531 1.387 . S
C533 C535 1.390 . S
C533 H537 0.950 . S
H534 C530 0.950 . S
C535 C533 1.390 . S
C535 C536 1.362 1_545 S
C535 H538 0.950 . S
C536 C535 1.362 1_565 S
C536 C539 1.393 . S
H537 C533 0.950 . S
H538 C535 0.950 . S
C539 C530 1.390 1_565 S
C539 H532 0.950 . S
C539 C536 1.393 . S
C540 C541 1.387 . S
C540 H544 0.950 1_554 S
C540 C549 1.390 . S
C541 C540 1.387 . S
C541 C543 1.387 . S
H542 C549 0.950 . S
C543 C541 1.387 . S
C543 C545 1.390 . S
C543 H547 0.950 . S
H544 C540 0.950 1_556 S
C545 C543 1.390 . S
C545 C546 1.387 . S
C545 H548 0.950 . S
C546 C545 1.387 . S
C546 C549 1.387 . S
H547 C543 0.950 . S
H548 C545 0.950 . S
C549 C540 1.390 . S
C549 H542 0.950 . S
C549 C546 1.387 . S
C550 C551 1.387 . S
C550 H554 0.950 . S
C550 C559 1.390 . S
C551 C550 1.387 . S
C551 C553 1.387 . S
H552 C559 0.950 . S
C553 C551 1.387 . S
C553 C555 1.390 . S
C553 H557 0.950 1_554 S
H554 C550 0.950 . S
C555 C553 1.390 . S
C555 C556 1.387 . S
C555 H558 0.950 . S
C556 C555 1.387 . S
C556 C559 1.387 . S
H557 C553 0.950 1_556 S
H558 C555 0.950 . S
C559 C550 1.390 . S
C559 H552 0.950 . S
C559 C556 1.387 . S
C560 C561 1.387 . S
C560 H564 0.950 . S
C560 C569 1.390 . S
C561 C560 1.387 . S
C561 C563 1.387 . S
H562 C569 0.950 . S
C563 C561 1.387 . S
C563 C565 1.390 1_655 S
C563 H567 0.950 1_655 S
H564 C560 0.950 . S
C565 C563 1.390 1_455 S
C565 C566 1.387 . S
C565 H568 0.950 . S
C566 C565 1.387 . S
C566 C569 1.387 1_455 S
H567 C563 0.950 1_455 S
H568 C565 0.950 . S
C569 C560 1.390 . S
C569 H562 0.950 . S
C569 C566 1.387 1_655 S
C570 C571 1.387 1_545 S
C570 H574 0.950 . S
C570 C579 1.390 . S
C571 C570 1.387 1_565 S
C571 C573 1.387 . S
H572 C579 0.950 . S
C573 C571 1.387 . S
C573 C575 1.390 . S
C573 H577 0.950 . S
H574 C570 0.950 . S
C575 C573 1.390 . S
C575 C576 1.387 1_565 S
C575 H578 0.950 . S
C576 C575 1.387 1_545 S
C576 C579 1.387 . S
H577 C573 0.950 . S
H578 C575 0.950 . S
C579 C570 1.390 . S
C579 H572 0.950 . S
C579 C576 1.387 . S
C580 C581 1.387 . S
C580 H584 0.950 . S
C580 C589 1.390 . S
C581 C580 1.387 . S
C581 C583 1.387 . S
H582 C589 0.950 . S
C583 C581 1.387 . S
C583 C585 1.390 . S
C583 H587 0.950 . S
H584 C580 0.950 . S
C585 C583 1.390 . S
C585 C586 1.387 . S
C585 H588 0.950 . S
C586 C585 1.387 . S
C586 C589 1.387 . S
H587 C583 0.950 . S
H588 C585 0.950 . S
C589 C580 1.390 . S
C589 H582 0.950 . S
C589 C586 1.387 . S
C590 C591 1.387 . S
C590 H594 0.950 . S
C590 C599 1.390 . S
C591 C590 1.387 . S
C591 C593 1.387 . S
H592 C599 0.950 . S
C593 C591 1.387 . S
C593 C595 1.390 . S
C593 H597 0.950 . S
H594 C590 0.950 . S
C595 C593 1.390 . S
C595 C596 1.387 . S
C595 H598 0.950 . S
C596 C595 1.387 . S
C596 C599 1.387 . S
H597 C593 0.950 . S
H598 C595 0.950 . S
C599 C590 1.390 . S
C599 H592 0.950 . S
C599 C596 1.387 . S
C600 C601 1.387 . S
C600 H604 0.950 . S
C600 C609 1.390 . S
C601 C600 1.387 . S
C601 C603 1.387 . S
H602 C609 0.950 . S
C603 C601 1.387 . S
C603 C605 1.390 . S
C603 H607 0.950 . S
H604 C600 0.950 . S
C605 C603 1.390 . S
C605 C606 1.387 . S
C605 H608 0.950 . S
C606 C605 1.387 . S
C606 C609 1.387 . S
H607 C603 0.950 . S
H608 C605 0.950 . S
C609 C600 1.390 . S
C609 H602 0.950 . S
C609 C606 1.387 . S
C610 C611 1.387 . S
C610 H614 0.950 . S
C610 C619 1.390 . S
C611 C610 1.387 . S
C611 C613 1.387 . S
H612 C619 0.950 . S
C613 C611 1.387 . S
C613 C615 1.390 . S
C613 H617 0.950 . S
H614 C610 0.950 . S
C615 C613 1.390 . S
C615 C616 1.387 . S
C615 H618 0.950 . S
C616 C615 1.387 . S
C616 C619 1.387 . S
H617 C613 0.950 . S
H618 C615 0.950 . S
C619 C610 1.390 . S
C619 H612 0.950 . S
C619 C616 1.387 . S
C620 C621 1.387 . S
C620 H624 0.950 1_556 S
C620 C629 1.390 . S
C621 C620 1.387 . S
C621 C623 1.387 . S
H622 C629 0.950 1_554 S
C623 C621 1.387 . S
C623 C625 1.390 . S
C623 H627 0.950 . S
H624 C620 0.950 1_554 S
C625 C623 1.390 . S
C625 C626 1.387 . S
C625 H628 0.950 . S
C626 C625 1.387 . S
C626 C629 1.387 . S
H627 C623 0.950 . S
H628 C625 0.950 . S
C629 C620 1.390 . S
C629 H622 0.950 1_556 S
C629 C626 1.387 . S
C630 C631 1.387 . S
C630 H634 0.950 . S
C630 C639 1.390 . S
C631 C630 1.387 . S
C631 C633 1.387 . S
H632 C639 0.950 . S
C633 C631 1.387 . S
C633 C635 1.390 . S
C633 H637 0.950 1_556 S
H634 C630 0.950 . S
C635 C633 1.390 . S
C635 C636 1.387 . S
C635 H638 0.950 1_556 S
C636 C635 1.387 . S
C636 C639 1.387 . S
H637 C633 0.950 1_554 S
H638 C635 0.950 1_554 S
C639 C630 1.390 . S
C639 H632 0.950 . S
C639 C636 1.387 . S
C640 C641 1.387 . S
C640 H644 0.950 . S
C640 C649 1.390 . S
C641 C640 1.387 . S
C641 C643 1.387 . S
H642 C649 0.950 . S
C643 C641 1.387 . S
C643 C645 1.390 . S
C643 H647 0.950 . S
H644 C640 0.950 . S
C645 C643 1.390 . S
C645 C646 1.387 . S
C645 H648 0.950 . S
C646 C645 1.387 . S
C646 C649 1.387 . S
H647 C643 0.950 . S
H648 C645 0.950 . S
C649 C640 1.390 . S
C649 H642 0.950 . S
C649 C646 1.387 . S
C650 C651 1.387 . S
C650 H654 0.950 . S
C650 C659 1.390 . S
C651 C650 1.387 . S
C651 C653 1.387 . S
H652 C659 0.950 1_545 S
C653 C651 1.387 . S
C653 C655 1.390 . S
C653 H657 0.950 . S
H654 C650 0.950 . S
C655 C653 1.390 . S
C655 C656 1.387 . S
C655 H658 0.950 . S
C656 C655 1.387 . S
C656 C659 1.387 . S
H657 C653 0.950 . S
H658 C655 0.950 . S
C659 C650 1.390 . S
C659 H652 0.950 1_565 S
C659 C656 1.387 . S
C660 C661 1.387 . S
C660 H664 0.950 . S
C660 C669 1.390 . S
C661 C660 1.387 . S
C661 C663 1.387 . S
H662 C669 0.950 . S
C663 C661 1.387 . S
C663 C665 1.390 . S
C663 H667 0.950 . S
H664 C660 0.950 . S
C665 C663 1.390 . S
C665 C666 1.387 . S
C665 H668 0.950 . S
C666 C665 1.387 . S
C666 C669 1.387 . S
H667 C663 0.950 . S
H668 C665 0.950 . S
C669 C660 1.390 . S
C669 H662 0.950 . S
C669 C666 1.387 . S
C670 C671 1.387 . S
C670 H674 0.950 . S
C670 C679 1.390 . S
C671 C670 1.387 . S
C671 C673 1.387 . S
H672 C679 0.950 . S
C673 C671 1.387 . S
C673 C675 1.390 . S
C673 H677 0.950 . S
H674 C670 0.950 . S
C675 C673 1.390 . S
C675 C676 1.387 . S
C675 H678 0.950 . S
C676 C675 1.387 . S
C676 C679 1.387 . S
H677 C673 0.950 . S
H678 C675 0.950 . S
C679 C670 1.390 . S
C679 H672 0.950 . S
C679 C676 1.387 . S
C441 C82 1.805 . S
C446 C178 2.086 . S
C456 C262 2.095 . S
C451 C95 1.817 . S
C466 C328 1.997 . S
C461 C56 1.892 . S
C476 C412 1.991 . S
C471 C69 1.881 . S
C486 C167 2.076 1_564 S
C481 C30 1.746 . S
C491 C43 1.751 . S
C496 C251 2.095 . S
C501 C4 1.826 . S
C506 C339 2.001 . S
C511 C17 1.817 . S
C516 C423 1.992 . S
C526 C174 0.967 . S
C521 C74 0.896 . S
C536 C258 0.941 . S
C531 C87 0.877 . S
C546 C330 0.892 . S
C541 C100 0.847 . S
C551 C61 0.874 . S
C556 C414 0.927 . S
C561 C22 0.898 . S
C566 C162 0.953 . S
C576 C246 0.917 . S
C571 C35 0.871 . S
C586 C342 0.893 . S
C581 C48 0.843 . S
C591 C9 0.870 . S
C596 C426 0.925 . S
C601 C73 2.109 . S
C606 C171 2.207 . S
C611 C86 2.088 . S
C616 C255 2.184 . S
C626 C335 2.280 . S
C621 C99 2.009 . S
C636 C419 2.301 . S
C631 C60 2.029 . S
C641 C21 2.105 . S
C646 C160 2.205 . S
C656 C244 2.187 . S
C651 C34 2.085 . S
C666 C346 2.282 . S
C661 C47 2.004 . S
C671 C8 2.024 . S
C676 C430 2.300 . S
