# Generated by pormake.
# Topology wbl, (4,4)-cn, num edge types: 1
# Building blocks:
#     Node 0, Type 0, BuildingBlock: MIFKUJ_clean_linker_1, # of connection points: 4
#     Node 1, Type 0, BuildingBlock: MIFKUJ_clean_linker_1, # of connection points: 4
#     Node 2, Type 0, BuildingBlock: MIFKUJ_clean_linker_1, # of connection points: 4
#     Node 3, Type 0, BuildingBlock: MIFKUJ_clean_linker_1, # of connection points: 4
#     Node 4, Type 0, BuildingBlock: MIFKUJ_clean_linker_1, # of connection points: 4
#     Node 5, Type 0, BuildingBlock: MIFKUJ_clean_linker_1, # of connection points: 4
#     Node 6, Type 0, BuildingBlock: MIFKUJ_clean_linker_1, # of connection points: 4
#     Node 7, Type 0, BuildingBlock: MIFKUJ_clean_linker_1, # of connection points: 4
#     Node 8, Type 1, BuildingBlock: CEKHIL_clean_sbu_0, # of connection points: 4
#     Node 9, Type 1, BuildingBlock: CEKHIL_clean_sbu_0, # of connection points: 4
#     Node 10, Type 1, BuildingBlock: CEKHIL_clean_sbu_0, # of connection points: 4
#     Node 11, Type 1, BuildingBlock: CEKHIL_clean_sbu_0, # of connection points: 4
#     Node 12, Type 1, BuildingBlock: CEKHIL_clean_sbu_0, # of connection points: 4
#     Node 13, Type 1, BuildingBlock: CEKHIL_clean_sbu_0, # of connection points: 4
#     Node 14, Type 1, BuildingBlock: CEKHIL_clean_sbu_0, # of connection points: 4
#     Node 15, Type 1, BuildingBlock: CEKHIL_clean_sbu_0, # of connection points: 4
#     Edge 16, Type (0, 1), BuildingBlock: ZUJKAS_clean_linker_0, # of connection points: 2
#     Edge 17, Type (0, 1), BuildingBlock: ZUJKAS_clean_linker_0, # of connection points: 2
#     Edge 18, Type (0, 1), BuildingBlock: ZUJKAS_clean_linker_0, # of connection points: 2
#     Edge 19, Type (0, 1), BuildingBlock: ZUJKAS_clean_linker_0, # of connection points: 2
#     Edge 20, Type (0, 1), BuildingBlock: ZUJKAS_clean_linker_0, # of connection points: 2
#     Edge 21, Type (0, 1), BuildingBlock: ZUJKAS_clean_linker_0, # of connection points: 2
#     Edge 22, Type (0, 1), BuildingBlock: ZUJKAS_clean_linker_0, # of connection points: 2
#     Edge 23, Type (0, 1), BuildingBlock: ZUJKAS_clean_linker_0, # of connection points: 2
#     Edge 24, Type (0, 1), BuildingBlock: ZUJKAS_clean_linker_0, # of connection points: 2
#     Edge 25, Type (0, 1), BuildingBlock: ZUJKAS_clean_linker_0, # of connection points: 2
#     Edge 26, Type (0, 1), BuildingBlock: ZUJKAS_clean_linker_0, # of connection points: 2
#     Edge 27, Type (0, 1), BuildingBlock: ZUJKAS_clean_linker_0, # of connection points: 2
#     Edge 28, Type (0, 1), BuildingBlock: ZUJKAS_clean_linker_0, # of connection points: 2
#     Edge 29, Type (0, 1), BuildingBlock: ZUJKAS_clean_linker_0, # of connection points: 2
#     Edge 30, Type (0, 1), BuildingBlock: ZUJKAS_clean_linker_0, # of connection points: 2
#     Edge 31, Type (0, 1), BuildingBlock: ZUJKAS_clean_linker_0, # of connection points: 2
#     Edge 32, Type (0, 1), BuildingBlock: ZUJKAS_clean_linker_0, # of connection points: 2
#     Edge 33, Type (0, 1), BuildingBlock: ZUJKAS_clean_linker_0, # of connection points: 2
#     Edge 34, Type (0, 1), BuildingBlock: ZUJKAS_clean_linker_0, # of connection points: 2
#     Edge 35, Type (0, 1), BuildingBlock: ZUJKAS_clean_linker_0, # of connection points: 2
#     Edge 36, Type (0, 1), BuildingBlock: ZUJKAS_clean_linker_0, # of connection points: 2
#     Edge 37, Type (0, 1), BuildingBlock: ZUJKAS_clean_linker_0, # of connection points: 2
#     Edge 38, Type (0, 1), BuildingBlock: ZUJKAS_clean_linker_0, # of connection points: 2
#     Edge 39, Type (0, 1), BuildingBlock: ZUJKAS_clean_linker_0, # of connection points: 2
#     Edge 40, Type (0, 1), BuildingBlock: ZUJKAS_clean_linker_0, # of connection points: 2
#     Edge 41, Type (0, 1), BuildingBlock: ZUJKAS_clean_linker_0, # of connection points: 2
#     Edge 42, Type (0, 1), BuildingBlock: ZUJKAS_clean_linker_0, # of connection points: 2
#     Edge 43, Type (0, 1), BuildingBlock: ZUJKAS_clean_linker_0, # of connection points: 2
#     Edge 44, Type (0, 1), BuildingBlock: ZUJKAS_clean_linker_0, # of connection points: 2
#     Edge 45, Type (0, 1), BuildingBlock: ZUJKAS_clean_linker_0, # of connection points: 2
#     Edge 46, Type (0, 1), BuildingBlock: ZUJKAS_clean_linker_0, # of connection points: 2
#     Edge 47, Type (0, 1), BuildingBlock: ZUJKAS_clean_linker_0, # of connection points: 2
# Relax obj value: 0.159
# Max RMSD: 0.158
# Mean RMSD: 0.137
data_MOF--net-wbl--node1-CEKHIL_clean_sbu_0--node2-MIFKUJ_clean_linker_1--edge1-ZUJKAS_clean_linker_0
_symmetry_space_group_name_H-M    P1
_symmetry_Int_Tables_number       1
_symmetry_cell_setting            triclinic
loop_
_symmetry_equiv_pos_as_xyz
'x, y, z'
_cell_length_a     57.099719
_cell_length_b     57.380478
_cell_length_c     93.668115
_cell_angle_alpha  90.330875
_cell_angle_beta   90.103117
_cell_angle_gamma 89.989073
loop_
_atom_site_label
_atom_site_type_symbol
_atom_site_fract_x
_atom_site_fract_y
_atom_site_fract_z
_atom_type_partial_charge
H0 H 0.00843 0.06046 0.3457 0.0
H1 H 0.98282 0.08494 0.36025 0.0
H2 H 0.92309 0.04418 0.34652 0.0
H3 H 0.94889 0.02021 0.33162 0.0
H4 H 0.01436 0.01183 0.34812 0.0
H5 H 0.98756 0.06834 0.3137 0.0
H6 H 0.95545 0.08929 0.30226 0.0
H7 H 0.93067 0.02461 0.28377 0.0
H8 H 0.96209 0.00363 0.29587 0.0
H9 H 0.02003 0.95494 0.29765 0.0
H10 H 0.05017 0.93013 0.28658 0.0
H11 H 0.10381 0.97663 0.30258 0.0
H12 H 0.0738 0.00125 0.31335 0.0
H13 H 0.00917 0.00481 0.29534 0.0
H14 H 0.02934 0.94814 0.33046 0.0
H15 H 0.05533 0.9235 0.3447 0.0
H16 H 0.08971 0.98496 0.36137 0.0
H17 H 0.06365 0.00956 0.34705 0.0
C18 C 0.98054 0.03858 0.3376 0.0
C19 C 0.9898 0.0569 0.3458 0.0
C20 C 0.97512 0.07079 0.35415 0.0
C21 C 0.95088 0.06644 0.35466 0.0
C22 C 0.94161 0.04822 0.34626 0.0
C23 C 0.95633 0.03442 0.33779 0.0
C24 C 0.99645 0.02346 0.32919 0.0
C25 C 0.01339 0.01057 0.33657 0.0
C26 C 0.99464 0.02119 0.31416 0.0
C27 C 0.9769 0.03435 0.3059 0.0
C28 C 0.97516 0.05868 0.3072 0.0
C29 C 0.95694 0.07068 0.30051 0.0
C30 C 0.94031 0.0586 0.29222 0.0
C31 C 0.94287 0.03438 0.29033 0.0
C32 C 0.96097 0.02238 0.29712 0.0
C33 C 0.04477 0.97985 0.30631 0.0
C34 C 0.03829 0.9599 0.29852 0.0
C35 C 0.05549 0.94569 0.29233 0.0
C36 C 0.07934 0.95145 0.2937 0.0
C37 C 0.08559 0.97187 0.30115 0.0
C38 C 0.06848 0.98591 0.30737 0.0
C39 C 0.02719 0.99358 0.31431 0.0
C40 C 0.01006 0.00618 0.30688 0.0
C41 C 0.02848 0.9954 0.32933 0.0
C42 C 0.04464 0.98064 0.33771 0.0
C43 C 0.04261 0.95628 0.3371 0.0
C44 C 0.05738 0.94225 0.34525 0.0
C45 C 0.07453 0.95235 0.3541 0.0
C46 C 0.0768 0.97674 0.35452 0.0
C47 C 0.06184 0.99079 0.34646 0.0
H48 H 0.00142 0.46165 0.54554 0.0
H49 H 0.97793 0.43035 0.53487 0.0
H50 H 0.91544 0.46049 0.55323 0.0
H51 H 0.93898 0.49177 0.56378 0.0
H52 H 0.00252 0.51039 0.54535 0.0
H53 H 0.98736 0.4485 0.57866 0.0
H54 H 0.96314 0.42112 0.59206 0.0
H55 H 0.92681 0.47902 0.61177 0.0
H56 H 0.9505 0.50622 0.59797 0.0
H57 H 0.99763 0.56262 0.59726 0.0
H58 H 0.02122 0.58885 0.61222 0.0
H59 H 0.08433 0.55651 0.59618 0.0
H60 H 0.06065 0.53019 0.58142 0.0
H61 H 0.99745 0.51301 0.59829 0.0
H62 H 0.00529 0.5731 0.56212 0.0
H63 H 0.03053 0.60329 0.55232 0.0
H64 H 0.08169 0.55084 0.54087 0.0
H65 H 0.0557 0.52057 0.55029 0.0
C66 C 0.97198 0.4788 0.55561 0.0
C67 C 0.9826 0.4618 0.54697 0.0
C68 C 0.96915 0.44394 0.54089 0.0
C69 C 0.94488 0.44283 0.54338 0.0
C70 C 0.93414 0.46068 0.55134 0.0
C71 C 0.94756 0.47859 0.55732 0.0
C72 C 0.98654 0.49529 0.56401 0.0
C73 C 0.00159 0.51072 0.55691 0.0
C74 C 0.98515 0.49605 0.57911 0.0
C75 C 0.97059 0.47939 0.58725 0.0
C76 C 0.97397 0.45526 0.58574 0.0
C77 C 0.96022 0.43965 0.59346 0.0
C78 C 0.94298 0.4479 0.60292 0.0
C79 C 0.93964 0.47209 0.60438 0.0
C80 C 0.95335 0.48767 0.59664 0.0
C81 C 0.02742 0.54454 0.58823 0.0
C82 C 0.01655 0.56131 0.59694 0.0
C83 C 0.03004 0.57639 0.60536 0.0
C84 C 0.05461 0.57473 0.60534 0.0
C85 C 0.06543 0.55809 0.59647 0.0
C86 C 0.05195 0.54314 0.58798 0.0
C87 C 0.01314 0.52809 0.57964 0.0
C88 C 0.99831 0.51258 0.58672 0.0
C89 C 0.01469 0.52724 0.56461 0.0
C90 C 0.0287 0.54472 0.5569 0.0
C91 C 0.02176 0.56812 0.55725 0.0
C92 C 0.03636 0.58535 0.55181 0.0
C93 C 0.05836 0.57955 0.54605 0.0
C94 C 0.06484 0.5559 0.54517 0.0
C95 C 0.05004 0.53859 0.55052 0.0
H96 H 0.4972 0.55843 0.84592 0.0
H97 H 0.47177 0.58312 0.86047 0.0
H98 H 0.41214 0.54114 0.84795 0.0
H99 H 0.43773 0.51727 0.83286 0.0
H100 H 0.49885 0.50561 0.84975 0.0
H101 H 0.48583 0.56729 0.81394 0.0
H102 H 0.45607 0.59214 0.80285 0.0
H103 H 0.42031 0.53082 0.78708 0.0
H104 H 0.45004 0.50609 0.79828 0.0
H105 H 0.51208 0.45774 0.7952 0.0
H106 H 0.54307 0.43268 0.78524 0.0
H107 H 0.59449 0.46962 0.81055 0.0
H108 H 0.56379 0.4947 0.82019 0.0
H109 H 0.50255 0.50526 0.79677 0.0
H110 H 0.51966 0.44334 0.82842 0.0
H111 H 0.54413 0.41708 0.84242 0.0
H112 H 0.5669 0.47536 0.86844 0.0
H113 H 0.54352 0.50165 0.85384 0.0
C114 C 0.4693 0.53604 0.83843 0.0
C115 C 0.4786 0.55477 0.84622 0.0
C116 C 0.46402 0.56875 0.8546 0.0
C117 C 0.43989 0.56396 0.85558 0.0
C118 C 0.43055 0.54552 0.84737 0.0
C119 C 0.44515 0.53173 0.83882 0.0
C120 C 0.48519 0.52041 0.83043 0.0
C121 C 0.49989 0.50564 0.83819 0.0
C122 C 0.48577 0.51993 0.81537 0.0
C123 C 0.46997 0.53491 0.80696 0.0
C124 C 0.47178 0.55927 0.80788 0.0
C125 C 0.45486 0.57341 0.80151 0.0
C126 C 0.43583 0.56336 0.79422 0.0
C127 C 0.43468 0.53898 0.79278 0.0
C128 C 0.4517 0.52486 0.79906 0.0
C129 C 0.53562 0.47779 0.8086 0.0
C130 C 0.53009 0.46065 0.79837 0.0
C131 C 0.54773 0.44632 0.79276 0.0
C132 C 0.57103 0.44895 0.79738 0.0
C133 C 0.57658 0.46688 0.80707 0.0
C134 C 0.55909 0.48128 0.81252 0.0
C135 C 0.51699 0.49092 0.81614 0.0
C136 C 0.50161 0.50511 0.80833 0.0
C137 C 0.51554 0.49061 0.83124 0.0
C138 C 0.52994 0.47452 0.83998 0.0
C139 C 0.53021 0.4505 0.83701 0.0
C140 C 0.54404 0.43546 0.84512 0.0
C141 C 0.55759 0.44409 0.85654 0.0
C142 C 0.55709 0.46814 0.85955 0.0
C143 C 0.54345 0.48319 0.85134 0.0
H144 H 0.50645 0.95418 0.04736 0.0
H145 H 0.48384 0.92301 0.03596 0.0
H146 H 0.41966 0.95572 0.05011 0.0
H147 H 0.44246 0.98653 0.06171 0.0
H148 H 0.50719 0.00402 0.04599 0.0
H149 H 0.48968 0.94273 0.0796 0.0
H150 H 0.46511 0.91572 0.0931 0.0
H151 H 0.4263 0.97406 0.11037 0.0
H152 H 0.45044 0.00083 0.09656 0.0
H153 H 0.49628 0.05562 0.09826 0.0
H154 H 0.51752 0.08315 0.11354 0.0
H155 H 0.58319 0.05545 0.09804 0.0
H156 H 0.56181 0.02814 0.08272 0.0
H157 H 0.49736 0.00783 0.09864 0.0
H158 H 0.50835 0.06769 0.06346 0.0
H159 H 0.53374 0.09791 0.05384 0.0
H160 H 0.58427 0.04535 0.04161 0.0
H161 H 0.55823 0.01504 0.05095 0.0
C162 C 0.47612 0.97244 0.05551 0.0
C163 C 0.4875 0.95483 0.04775 0.0
C164 C 0.47452 0.93708 0.04121 0.0
C165 C 0.44992 0.93675 0.04225 0.0
C166 C 0.43857 0.95521 0.04934 0.0
C167 C 0.45156 0.97289 0.05591 0.0
C168 C 0.48984 0.98914 0.06424 0.0
C169 C 0.50527 0.00462 0.0575 0.0
C170 C 0.48702 0.99028 0.07924 0.0
C171 C 0.47178 0.97378 0.08703 0.0
C172 C 0.47564 0.94964 0.08613 0.0
C173 C 0.4617 0.93425 0.09391 0.0
C174 C 0.44371 0.94275 0.10276 0.0
C175 C 0.43974 0.96692 0.10347 0.0
C176 C 0.45368 0.98227 0.09571 0.0
C177 C 0.52746 0.0399 0.08933 0.0
C178 C 0.51525 0.05556 0.09813 0.0
C179 C 0.52742 0.07126 0.10686 0.0
C180 C 0.55206 0.07149 0.10701 0.0
C181 C 0.56423 0.056 0.098 0.0
C182 C 0.55204 0.04031 0.08928 0.0
C183 C 0.51447 0.02278 0.08041 0.0
C184 C 0.49929 0.00715 0.08712 0.0
C185 C 0.51734 0.02162 0.06544 0.0
C186 C 0.53153 0.03924 0.05796 0.0
C187 C 0.52475 0.06269 0.05852 0.0
C188 C 0.53941 0.07993 0.05315 0.0
C189 C 0.56125 0.07408 0.0472 0.0
C190 C 0.56755 0.05042 0.04609 0.0
C191 C 0.55272 0.03309 0.05139 0.0
H192 H -0.00041 0.5664 0.90275 0.0
H193 H 0.02499 0.59114 0.88835 0.0
H194 H 0.08491 0.55011 0.90112 0.0
H195 H 0.05939 0.5257 0.91571 0.0
H196 H 0.99258 0.51932 0.89945 0.0
H197 H 0.01806 0.57197 0.93615 0.0
H198 H 0.04988 0.59404 0.94724 0.0
H199 H 0.08227 0.5296 0.96054 0.0
H200 H 0.05065 0.50759 0.94901 0.0
H201 H 0.99254 0.45767 0.9477 0.0
H202 H 0.96445 0.43008 0.95806 0.0
H203 H 0.90746 0.47485 0.9451 0.0
H204 H 0.93543 0.50208 0.93481 0.0
H205 H 0.0019 0.50613 0.95151 0.0
H206 H 0.97522 0.45373 0.91448 0.0
H207 H 0.94788 0.4327 0.89899 0.0
H208 H 0.91748 0.49818 0.88584 0.0
H209 H 0.9451 0.51908 0.90124 0.0
C210 C 0.02762 0.54428 0.9103 0.0
C211 C 0.01822 0.56286 0.9025 0.0
C212 C 0.03276 0.57691 0.89425 0.0
C213 C 0.05697 0.57251 0.89352 0.0
C214 C 0.0664 0.55416 0.9016 0.0
C215 C 0.05184 0.54014 0.90989 0.0
C216 C 0.01191 0.52865 0.91838 0.0
C217 C 0.99438 0.51669 0.91087 0.0
C218 C 0.01465 0.52489 0.9332 0.0
C219 C 0.0322 0.53815 0.9416 0.0
C220 C 0.03193 0.56262 0.94156 0.0
C221 C 0.05005 0.57521 0.94799 0.0
C222 C 0.06871 0.56356 0.95466 0.0
C223 C 0.06833 0.53906 0.95528 0.0
C224 C 0.05018 0.52646 0.94883 0.0
C225 C 0.96598 0.48169 0.94033 0.0
C226 C 0.974 0.46162 0.9473 0.0
C227 C 0.95797 0.4459 0.95318 0.0
C228 C 0.93377 0.45012 0.95214 0.0
C229 C 0.92597 0.47083 0.94575 0.0
C230 C 0.94192 0.48648 0.93994 0.0
C231 C 0.9824 0.49696 0.93255 0.0
C232 C 6e-05 0.50881 0.94011 0.0
C233 C 0.97967 0.50082 0.91773 0.0
C234 C 0.96216 0.48796 0.90902 0.0
C235 C 0.96244 0.46352 0.90841 0.0
C236 C 0.94672 0.45152 0.89959 0.0
C237 C 0.9305 0.46376 0.89115 0.0
C238 C 0.92995 0.48824 0.89205 0.0
C239 C 0.94569 0.50021 0.90085 0.0
H240 H 0.50338 0.54794 0.20199 0.0
H241 H 0.48042 0.57879 0.21337 0.0
H242 H 0.41659 0.54498 0.19944 0.0
H243 H 0.43978 0.5145 0.18782 0.0
H244 H 0.50457 0.49773 0.20352 0.0
H245 H 0.48657 0.55928 0.16921 0.0
H246 H 0.46222 0.58524 0.15479 0.0
H247 H 0.42277 0.52579 0.13949 0.0
H248 H 0.44753 0.50001 0.15366 0.0
H249 H 0.49767 0.44837 0.14979 0.0
H250 H 0.52084 0.42223 0.13472 0.0
H251 H 0.58443 0.45124 0.15255 0.0
H252 H 0.5611 0.47715 0.16769 0.0
H253 H 0.49614 0.49543 0.15074 0.0
H254 H 0.51189 0.43398 0.18233 0.0
H255 H 0.53907 0.4049 0.19157 0.0
H256 H 0.57938 0.45927 0.21208 0.0
H257 H 0.55232 0.48866 0.20239 0.0
C258 C 0.47327 0.52914 0.19396 0.0
C259 C 0.48444 0.54697 0.20165 0.0
C260 C 0.47125 0.56455 0.20818 0.0
C261 C 0.44663 0.56448 0.20722 0.0
C262 C 0.43551 0.54581 0.20016 0.0
C263 C 0.44871 0.52831 0.19359 0.0
C264 C 0.48722 0.51265 0.18525 0.0
C265 C 0.50294 0.49739 0.19199 0.0
C266 C 0.48464 0.51177 0.17024 0.0
C267 C 0.46885 0.52775 0.16245 0.0
C268 C 0.47249 0.55193 0.16287 0.0
C269 C 0.45849 0.56674 0.15467 0.0
C270 C 0.44066 0.55758 0.1459 0.0
C271 C 0.43664 0.53339 0.1459 0.0
C272 C 0.45069 0.51862 0.15403 0.0
C273 C 0.52765 0.46465 0.15987 0.0
C274 C 0.5166 0.44909 0.15043 0.0
C275 C 0.52987 0.43417 0.14183 0.0
C276 C 0.55449 0.43465 0.14243 0.0
C277 C 0.56551 0.45017 0.15199 0.0
C278 C 0.55221 0.46507 0.16059 0.0
C279 C 0.51347 0.48051 0.16895 0.0
C280 C 0.49777 0.49572 0.16229 0.0
C281 C 0.51575 0.48099 0.184 0.0
C282 C 0.53037 0.4635 0.19144 0.0
C283 C 0.52654 0.43969 0.18883 0.0
C284 C 0.54209 0.42312 0.19406 0.0
C285 C 0.5615 0.42996 0.20228 0.0
C286 C 0.56458 0.45365 0.20568 0.0
C287 C 0.54913 0.47037 0.20022 0.0
H288 H 0.50768 0.94872 0.40565 0.0
H289 H 0.48239 0.9247 0.39051 0.0
H290 H 0.42289 0.96708 0.40255 0.0
H291 H 0.44828 0.9906 0.41797 0.0
H292 H 0.51513 0.9971 0.40316 0.0
H293 H 0.48877 0.9422 0.43904 0.0
H294 H 0.45629 0.92032 0.44953 0.0
H295 H 0.42304 0.98505 0.46175 0.0
H296 H 0.45551 0.00683 0.45115 0.0
H297 H 0.51626 0.05638 0.4524 0.0
H298 H 0.54505 0.08151 0.46455 0.0
H299 H 0.60011 0.03356 0.4527 0.0
H300 H 0.57144 0.00876 0.44058 0.0
H301 H 0.50525 0.00634 0.45555 0.0
H302 H 0.53159 0.06145 0.42137 0.0
H303 H 0.55816 0.08473 0.40688 0.0
H304 H 0.5892 0.0216 0.39006 0.0
H305 H 0.56241 0.9984 0.40456 0.0
C306 C 0.47985 0.97139 0.41293 0.0
C307 C 0.48915 0.95271 0.40508 0.0
C308 C 0.47467 0.93907 0.39639 0.0
C309 C 0.45059 0.94403 0.39522 0.0
C310 C 0.44125 0.96254 0.40333 0.0
C311 C 0.45576 0.97609 0.4121 0.0
C312 C 0.49552 0.98644 0.4216 0.0
C313 C 0.51323 0.99884 0.41464 0.0
C314 C 0.49252 0.98927 0.43648 0.0
C315 C 0.47437 0.97609 0.44424 0.0
C316 C 0.4746 0.95163 0.44413 0.0
C317 C 0.45613 0.93917 0.45017 0.0
C318 C 0.43712 0.95102 0.45635 0.0
C319 C 0.43738 0.97551 0.45691 0.0
C320 C 0.45595 0.98795 0.45097 0.0
C321 C 0.54181 0.0308 0.4456 0.0
C322 C 0.5345 0.0512 0.45263 0.0
C323 C 0.55092 0.06556 0.45946 0.0
C324 C 0.57476 0.05942 0.45959 0.0
C325 C 0.58182 0.03857 0.45293 0.0
C326 C 0.56551 0.02445 0.44595 0.0
C327 C 0.52512 0.01671 0.43711 0.0
C328 C 0.50725 0.00451 0.44409 0.0
C329 C 0.52789 0.01415 0.42218 0.0
C330 C 0.54511 0.02819 0.4141 0.0
C331 C 0.54442 0.05263 0.41477 0.0
C332 C 0.55966 0.06592 0.4065 0.0
C333 C 0.5758 0.05502 0.39731 0.0
C334 C 0.57679 0.03052 0.3969 0.0
C335 C 0.56153 0.01724 0.40519 0.0
H336 H 0.00415 0.05641 0.70726 0.0
H337 H 0.97916 0.08455 0.7198 0.0
H338 H 0.91924 0.05972 0.69597 0.0
H339 H 0.94413 0.03133 0.6837 0.0
H340 H 0.00561 0.00981 0.70458 0.0
H341 H 0.99227 0.07454 0.67283 0.0
H342 H 0.97009 0.10258 0.65855 0.0
H343 H 0.93834 0.04557 0.63515 0.0
H344 H 0.95966 0.01783 0.6498 0.0
H345 H 0.00022 0.96166 0.65193 0.0
H346 H 0.02152 0.93345 0.63727 0.0
H347 H 0.08699 0.95916 0.65449 0.0
H348 H 0.06541 0.98685 0.66944 0.0
H349 H 0.00456 0.01051 0.65158 0.0
H350 H 0.00915 0.94755 0.68525 0.0
H351 H 0.03187 0.91638 0.69621 0.0
H352 H 0.07948 0.96737 0.71408 0.0
H353 H 0.05666 0.99863 0.70283 0.0
C354 C 0.97611 0.04214 0.69433 0.0
C355 C 0.98557 0.05679 0.70491 0.0
C356 C 0.97129 0.07278 0.71208 0.0
C357 C 0.94733 0.0744 0.70875 0.0
C358 C 0.93772 0.05903 0.6986 0.0
C359 C 0.95193 0.04289 0.69156 0.0
C360 C 0.99151 0.02656 0.68585 0.0
C361 C 0.00566 0.01031 0.693 0.0
C362 C 0.99133 0.02684 0.67072 0.0
C363 C 0.97753 0.04406 0.66244 0.0
C364 C 0.98022 0.06813 0.66477 0.0
C365 C 0.96767 0.08414 0.65653 0.0
C366 C 0.95233 0.07636 0.64573 0.0
C367 C 0.9496 0.05223 0.64354 0.0
C368 C 0.96203 0.0363 0.6518 0.0
C369 C 0.03125 0.97634 0.66172 0.0
C370 C 0.01916 0.96112 0.65256 0.0
C371 C 0.03139 0.94506 0.64417 0.0
C372 C 0.05601 0.94411 0.64462 0.0
C373 C 0.06805 0.95917 0.65401 0.0
C374 C 0.05576 0.97512 0.66249 0.0
C375 C 0.01811 0.9937 0.6703 0.0
C376 C 0.00461 0.01033 0.66317 0.0
C377 C 0.0187 0.99371 0.68536 0.0
C378 C 0.03133 0.9753 0.6932 0.0
C379 C 0.02436 0.95201 0.69164 0.0
C380 C 0.03728 0.93425 0.69798 0.0
C381 C 0.05744 0.93944 0.70603 0.0
C382 C 0.06411 0.96287 0.70785 0.0
C383 C 0.05104 0.98071 0.70155 0.0
Co384 Co 0.32151 0.6743 0.00597 0.0
O385 O 0.29839 0.65014 0.00492 0.0
O386 O 0.29262 0.68665 0.9982 0.0
C387 C 0.33385 0.66621 0.02826 0.0
O388 O 0.34105 0.70404 0.00619 0.0
Co389 Co 0.37408 0.66102 0.0092 0.0
O390 O 0.37814 0.695 0.0122 0.0
C391 C 0.34988 0.65301 0.98188 0.0
C392 C 0.28431 0.66569 -0.00026 0.0
C393 C 0.36217 0.70989 0.0095 0.0
O394 O 0.33269 0.66576 0.98615 0.0
O395 O 0.3669 0.6471 0.99001 0.0
O396 O 0.31516 0.67876 0.02634 0.0
O397 O 0.34288 0.65736 0.01684 0.0
Co398 Co 0.32806 0.83052 0.24614 0.0
O399 O 0.30614 0.85568 0.24791 0.0
O400 O 0.29893 0.81915 0.25404 0.0
C401 C 0.33988 0.83916 0.22384 0.0
O402 O 0.34602 0.79982 0.24515 0.0
Co403 Co 0.38115 0.84091 0.24218 0.0
O404 O 0.38315 0.80697 0.23843 0.0
C405 C 0.35858 0.84952 0.26997 0.0
C406 C 0.29152 0.84053 0.25297 0.0
C407 C 0.36654 0.7929 0.24127 0.0
O408 O 0.3405 0.83777 0.26591 0.0
O409 O 0.3755 0.85458 0.26159 0.0
O410 O 0.3207 0.82739 0.22576 0.0
O411 O 0.34982 0.84688 0.23529 0.0
Co412 Co 0.17506 0.82797 0.49679 0.0
O413 O 0.14973 0.80636 0.49915 0.0
O414 O 0.18678 0.79921 0.50472 0.0
C415 C 0.16557 0.83914 0.47451 0.0
O416 O 0.20602 0.84539 0.49528 0.0
Co417 Co 0.16549 0.88081 0.49227 0.0
O418 O 0.19946 0.88221 0.48818 0.0
C419 C 0.16009 0.86038 0.52095 0.0
C420 C 0.16524 0.7919 0.50404 0.0
C421 C 0.21329 0.86549 0.49116 0.0
O422 O 0.16905 0.84103 0.51655 0.0
O423 O 0.15563 0.87748 0.51265 0.0
O424 O 0.17731 0.82001 0.4765 0.0
O425 O 0.15829 0.8495 0.48592 0.0
Co426 Co 0.17669 0.69003 0.7538 0.0
O427 O 0.15042 0.71067 0.75192 0.0
O428 O 0.18699 0.71955 0.74623 0.0
C429 C 0.16792 0.67763 0.77593 0.0
O430 O 0.20843 0.67388 0.7549 0.0
Co431 Co 0.16954 0.6367 0.75734 0.0
O432 O 0.20356 0.63646 0.76129 0.0
C433 C 0.16296 0.65811 0.72907 0.0
C434 C 0.16517 0.72592 0.74711 0.0
C435 C 0.21661 0.65388 0.75858 0.0
O436 O 0.17076 0.6777 0.73387 0.0
O437 O 0.15976 0.64023 0.73693 0.0
O438 O 0.17888 0.69725 0.77417 0.0
O439 O 0.161 0.66733 0.76438 0.0
Co440 Co 0.83583 0.18707 0.49459 0.0
O441 O 0.86165 0.20834 0.49639 0.0
O442 O 0.82515 0.2162 0.50279 0.0
C443 C 0.84397 0.17531 0.47215 0.0
O444 O 0.80445 0.17006 0.49366 0.0
Co445 Co 0.84422 0.13402 0.49007 0.0
O446 O 0.81053 0.1339 0.48506 0.0
C447 C 0.85217 0.15518 0.51847 0.0
C448 C 0.84675 0.22315 0.50165 0.0
C449 C 0.79687 0.15049 0.48865 0.0
O450 O 0.84295 0.17443 0.51423 0.0
O451 O 0.8557 0.13773 0.51016 0.0
O452 O 0.83267 0.19467 0.47433 0.0
O453 O 0.8516 0.16502 0.48346 0.0
Co454 Co 0.82061 0.3352 0.74262 0.0
O455 O 0.79858 0.36039 0.74395 0.0
O456 O 0.79204 0.32441 0.75145 0.0
C457 C 0.83127 0.34182 0.71989 0.0
O458 O 0.83867 0.3045 0.74239 0.0
Co459 Co 0.87355 0.34518 0.73731 0.0
O460 O 0.87508 0.31107 0.73422 0.0
C461 C 0.85314 0.35418 0.76573 0.0
C462 C 0.78436 0.34557 0.74975 0.0
C463 C 0.85881 0.29728 0.73804 0.0
O464 O 0.83399 0.34402 0.76191 0.0
O465 O 0.87011 0.35795 0.75713 0.0
O466 O 0.81213 0.3304 0.72251 0.0
O467 O 0.84187 0.35054 0.73085 0.0
Co468 Co 0.67795 0.32162 0.99614 0.0
O469 O 0.65232 0.30089 -0.00016 0.0
O470 O 0.68972 0.29265 0.00372 0.0
C471 C 0.66572 0.33258 0.97431 0.0
O472 O 0.7092 0.338 0.99311 0.0
Co473 Co 0.66985 0.37464 0.99155 0.0
O474 O 0.7028 0.37426 0.98506 0.0
C475 C 0.66677 0.35487 0.02056 0.0
C476 C 0.66795 0.28601 0.00408 0.0
C477 C 0.71653 0.35741 0.98793 0.0
O478 O 0.67472 0.3352 0.01599 0.0
O479 O 0.66209 0.37199 0.01232 0.0
O480 O 0.67716 0.31317 0.97586 0.0
O481 O 0.66054 0.34351 0.98595 0.0
Co482 Co 0.67715 0.18313 0.25594 0.0
O483 O 0.65221 0.2054 0.25457 0.0
O484 O 0.6888 0.21178 0.24777 0.0
C485 C 0.66888 0.17189 0.2784 0.0
O486 O 0.70775 0.16484 0.25643 0.0
Co487 Co 0.66656 0.13051 0.26046 0.0
O488 O 0.70065 0.12845 0.26409 0.0
C489 C 0.65891 0.15167 0.23215 0.0
C490 C 0.66754 0.2196 0.24927 0.0
C491 C 0.71476 0.14464 0.26059 0.0
O492 O 0.6691 0.17059 0.2363 0.0
O493 O 0.65463 0.13467 0.24053 0.0
O494 O 0.68111 0.19065 0.27625 0.0
O495 O 0.66069 0.1619 0.26709 0.0
H496 H 0.08214 0.90385 0.29546 0.0
H497 H 0.11552 0.87911 0.28877 0.0
H498 H 0.15196 0.93934 0.27282 0.0
H499 H 0.11872 0.96407 0.27925 0.0
H500 H 0.14196 0.87436 0.26057 0.0
H501 H 0.19349 0.91039 0.30592 0.0
H502 H 0.16192 0.91203 0.30511 0.0
H503 H 0.17947 0.93189 0.29494 0.0
C504 C 0.09706 0.91171 0.29024 0.0
C505 C 0.09794 0.93594 0.28801 0.0
C506 C 0.11611 0.89759 0.28649 0.0
C507 C 0.13624 0.90753 0.28052 0.0
C508 C 0.13665 0.93146 0.27761 0.0
H509 H 0.27325 0.88418 0.25233 0.0
H510 H 0.2343 0.89672 0.25962 0.0
C511 C 0.1177 0.94554 0.28132 0.0
C512 C 0.1575 0.89343 0.27801 0.0
H513 H 0.21479 0.8896 0.28808 0.0
C514 C 0.15782 0.8773 0.2667 0.0
C515 C 0.17802 0.89727 0.28615 0.0
C516 C 0.17827 0.91368 0.2988 0.0
C517 C 0.17868 0.86593 0.26277 0.0
C518 C 0.19947 0.87077 0.27045 0.0
C519 C 0.19879 0.88601 0.28219 0.0
C520 C 0.22261 0.8623 0.26563 0.0
C521 C 0.1787 0.84982 0.24999 0.0
C522 C 0.22893 0.83873 0.26662 0.0
C523 C 0.25136 0.83144 0.26248 0.0
C524 C 0.26768 0.84768 0.2573 0.0
C525 C 0.26113 0.87122 0.25627 0.0
C526 C 0.23886 0.87844 0.26043 0.0
H527 H 0.16161 0.84978 0.24431 0.0
H528 H 0.19265 0.85502 0.2424 0.0
H529 H 0.18256 0.8318 0.25353 0.0
H530 H 0.21666 0.82608 0.27077 0.0
H531 H 0.25594 0.81319 0.26339 0.0
H532 H 0.0663 0.62136 0.55921 0.0
H533 H 0.09038 0.65352 0.5509 0.0
H534 H 0.11291 0.61202 0.51491 0.0
H535 H 0.08766 0.58005 0.52274 0.0
H536 H 0.13666 0.65856 0.54608 0.0
H537 H 0.08673 0.66897 0.49544 0.0
H538 H 0.07682 0.65031 0.50962 0.0
H539 H 0.09997 0.64091 0.49795 0.0
C540 C 0.07611 0.61911 0.54942 0.0
C541 C 0.0746 0.5983 0.54146 0.0
C542 C 0.09013 0.63743 0.54478 0.0
C543 C 0.10312 0.63534 0.53215 0.0
C544 C 0.10262 0.6142 0.52452 0.0
H545 H 0.19391 0.75476 0.50983 0.0
H546 H 0.18192 0.71498 0.51594 0.0
C547 C 0.08836 0.59586 0.52909 0.0
C548 C 0.11618 0.65584 0.52682 0.0
H549 H 0.11694 0.69569 0.49993 0.0
C550 C 0.13257 0.66659 0.53592 0.0
C551 C 0.11065 0.66632 0.5136 0.0
C552 C 0.09246 0.6562 0.50361 0.0
C553 C 0.14284 0.68804 0.53244 0.0
C554 C 0.13697 0.6987 0.51933 0.0
C555 C 0.12141 0.68743 0.50996 0.0
C556 C 0.14478 0.72258 0.51571 0.0
C557 C 0.15886 0.69967 0.54315 0.0
C558 C 0.1279 0.7399 0.51332 0.0
C559 C 0.13465 0.76242 0.50965 0.0
C560 C 0.15846 0.76814 0.50837 0.0
C561 C 0.17543 0.75087 0.51087 0.0
C562 C 0.16862 0.72818 0.51441 0.0
H563 H 0.15756 0.69159 0.55388 0.0
H564 H 0.17725 0.69799 0.53949 0.0
H565 H 0.15473 0.71852 0.54418 0.0
H566 H 0.10941 0.73599 0.5143 0.0
H567 H 0.12117 0.77534 0.50782 0.0
H568 H 0.43834 0.6038 0.7788 0.0
H569 H 0.40547 0.62834 0.77088 0.0
H570 H 0.35681 0.58076 0.79039 0.0
H571 H 0.38933 0.5563 0.79828 0.0
H572 H 0.36326 0.61016 0.75346 0.0
H573 H 0.34186 0.64951 0.80613 0.0
H574 H 0.37065 0.63843 0.80179 0.0
H575 H 0.34751 0.61867 0.80639 0.0
C576 C 0.42061 0.59868 0.7814 0.0
C577 C 0.41632 0.5781 0.78907 0.0
C578 C 0.40193 0.61264 0.77688 0.0
C579 C 0.37885 0.60639 0.78021 0.0
C580 C 0.37457 0.58592 0.78785 0.0
H581 H 0.2406 0.61302 0.75717 0.0
H582 H 0.28249 0.60689 0.76043 0.0
C583 C 0.39312 0.57187 0.79222 0.0
C584 C 0.35882 0.62058 0.7754 0.0
H585 H 0.31141 0.64981 0.78846 0.0
C586 C 0.35218 0.61937 0.76101 0.0
C587 C 0.34461 0.63273 0.78528 0.0
C588 C 0.35155 0.63515 0.80076 0.0
C589 C 0.33063 0.62846 0.75645 0.0
C590 C 0.31551 0.63884 0.76658 0.0
C591 C 0.32304 0.64174 0.78073 0.0
C592 C 0.29066 0.64343 0.76325 0.0
C593 C 0.32366 0.62589 0.74099 0.0
C594 C 0.2814 0.66607 0.76385 0.0
C595 C 0.25734 0.66969 0.7619 0.0
C596 C 0.24223 0.65063 0.75967 0.0
C597 C 0.25173 0.62806 0.75895 0.0
C598 C 0.27569 0.62452 0.76068 0.0
H599 H 0.33923 0.62386 0.73399 0.0
H600 H 0.31261 0.6101 0.73971 0.0
H601 H 0.31334 0.64117 0.73738 0.0
H602 H 0.29272 0.68083 0.76599 0.0
H603 H 0.2505 0.68727 0.76257 0.0
H604 H 0.41306 0.91521 0.05527 0.0
H605 H 0.39343 0.87927 0.04798 0.0
H606 H 0.43704 0.87525 0.01052 0.0
H607 H 0.45628 0.91177 0.01745 0.0
H608 H 0.38874 0.86211 0.0059 0.0
H609 H 0.4297 0.81742 0.05218 0.0
H610 H 0.41274 0.84282 0.05657 0.0
H611 H 0.43905 0.84579 0.04624 0.0
C612 C 0.41812 0.90705 0.04528 0.0
C613 C 0.43638 0.9163 0.03698 0.0
C614 C 0.407 0.88639 0.04121 0.0
C615 C 0.41405 0.87447 0.02884 0.0
C616 C 0.43144 0.88418 0.02015 0.0
H617 H 0.40595 0.7287 0.01077 0.0
H618 H 0.41662 0.76938 0.01438 0.0
C619 C 0.44255 0.90491 0.02419 0.0
C620 C 0.40464 0.85101 0.02557 0.0
H621 H 0.40387 0.79525 0.03796 0.0
C622 C 0.39193 0.84746 0.0129 0.0
C623 C 0.4091 0.83195 0.03469 0.0
C624 C 0.42355 0.83453 0.04812 0.0
C625 C 0.38357 0.82522 0.00909 0.0
C626 C 0.38793 0.80622 0.01827 0.0
C627 C 0.40047 0.80989 0.03098 0.0
C628 C 0.38094 0.78204 0.01466 0.0
C629 C 0.37079 0.82208 0.99511 0.0
C630 C 0.35727 0.77568 0.01343 0.0
C631 C 0.35104 0.75229 0.0113 0.0
C632 C 0.36841 0.73492 0.01053 0.0
C633 C 0.39209 0.74155 0.01143 0.0
C634 C 0.39825 0.76483 0.01347 0.0
H635 H 0.37319 0.83727 0.98795 0.0
H636 H 0.3769 0.80612 0.98948 0.0
H637 H 0.35178 0.8201 0.99722 0.0
H638 H 0.34361 0.78865 0.01457 0.0
H639 H 0.33265 0.74776 0.01072 0.0
H640 H 0.11502 0.55282 0.95178 0.0
H641 H 0.14876 0.57523 0.96016 0.0
H642 H 0.10258 0.62739 0.97779 0.0
H643 H 0.06858 0.60469 0.96979 0.0
H644 H 0.16044 0.62186 0.9529 0.0
H645 H 0.14669 0.61063 0.0113 0.0
H646 H 0.13233 0.59243 0.99816 0.0
H647 H 0.12228 0.62167 0.00124 0.0
C648 C 0.11199 0.56885 0.95766 0.0
C649 C 0.08911 0.57687 0.96023 0.0
C650 C 0.13129 0.58174 0.96231 0.0
C651 C 0.12813 0.60286 0.96967 0.0
C652 C 0.10536 0.61099 0.97227 0.0
H653 H 0.25093 0.69291 0.98675 0.0
H654 H 0.21118 0.68111 0.97961 0.0
C655 C 0.08599 0.59809 0.9676 0.0
C656 C 0.14886 0.61627 0.97446 0.0
H657 H 0.17958 0.63235 0.00421 0.0
C658 C 0.16454 0.62443 0.96411 0.0
C659 C 0.15409 0.61947 0.9891 0.0
C660 C 0.13811 0.61049 0.00064 0.0
C661 C 0.18574 0.63509 0.96802 0.0
C662 C 0.19121 0.63785 0.98265 0.0
C663 C 0.17518 0.63035 0.993 0.0
C664 C 0.21459 0.64584 0.98743 0.0
C665 C 0.20265 0.64228 0.95649 0.0
C666 C 0.22938 0.63007 0.9944 0.0
C667 C 0.25189 0.63672 0.99846 0.0
C668 C 0.26009 0.65934 0.9957 0.0
C669 C 0.24511 0.67534 0.98896 0.0
C670 C 0.22247 0.66861 0.98485 0.0
H671 H 0.19726 0.63578 0.94578 0.0
H672 H 0.20357 0.66158 0.9561 0.0
H673 H 0.2205 0.63565 0.95886 0.0
H674 H 0.22361 0.61242 0.99648 0.0
H675 H 0.26294 0.62399 0.00368 0.0
H676 H 0.40885 0.5852 0.19451 0.0
H677 H 0.38909 0.62108 0.20175 0.0
H678 H 0.43405 0.62634 0.23865 0.0
H679 H 0.45331 0.58984 0.23184 0.0
H680 H 0.38693 0.63989 0.24398 0.0
H681 H 0.4242 0.68262 0.19594 0.0
H682 H 0.40657 0.65732 0.19238 0.0
H683 H 0.43376 0.65433 0.2019 0.0
C684 C 0.41416 0.5936 0.20438 0.0
C685 C 0.43285 0.58473 0.21253 0.0
C686 C 0.40298 0.61425 0.20841 0.0
C687 C 0.41041 0.62655 0.22058 0.0
C688 C 0.42816 0.61714 0.22917 0.0
H689 H 0.40901 0.77179 0.23829 0.0
H690 H 0.41708 0.73069 0.2341 0.0
C691 C 0.43928 0.59641 0.22519 0.0
C692 C 0.40118 0.65014 0.2237 0.0
H693 H 0.40038 0.70563 0.21082 0.0
C694 C 0.38969 0.65428 0.23671 0.0
C695 C 0.40506 0.66887 0.21423 0.0
C696 C 0.41823 0.66572 0.20038 0.0
C697 C 0.38222 0.67679 0.24059 0.0
C698 C 0.3862 0.69548 0.23113 0.0
C699 C 0.39728 0.69121 0.21802 0.0
C700 C 0.38079 0.71997 0.23494 0.0
C701 C 0.37093 0.68058 0.25496 0.0
C702 C 0.35766 0.72756 0.23698 0.0
C703 C 0.35292 0.75121 0.23946 0.0
C704 C 0.37126 0.76761 0.23977 0.0
C705 C 0.39442 0.75973 0.23802 0.0
C706 C 0.3991 0.73621 0.23563 0.0
H707 H 0.37311 0.66527 0.26205 0.0
H708 H 0.37846 0.69615 0.26036 0.0
H709 H 0.3519 0.68368 0.25346 0.0
H710 H 0.34324 0.71535 0.23627 0.0
H711 H 0.33489 0.75671 0.24071 0.0
H712 H 0.43623 0.91224 0.47328 0.0
H713 H 0.40153 0.89036 0.4811 0.0
H714 H 0.357 0.93832 0.45844 0.0
H715 H 0.39139 0.96018 0.45063 0.0
H716 H 0.35896 0.91266 0.49648 0.0
H717 H 0.34006 0.86857 0.44475 0.0
H718 H 0.36898 0.87872 0.44965 0.0
H719 H 0.34722 0.89906 0.44368 0.0
C720 C 0.41901 0.91803 0.46997 0.0
C721 C 0.41643 0.93795 0.46142 0.0
C722 C 0.3993 0.90558 0.47444 0.0
C723 C 0.37686 0.91269 0.47021 0.0
C724 C 0.37426 0.93253 0.4617 0.0
H725 H 0.23569 0.90735 0.49047 0.0
H726 H 0.27742 0.91457 0.48726 0.0
C727 C 0.39386 0.94509 0.45736 0.0
C728 C 0.35583 0.89997 0.47489 0.0
H729 H 0.30893 0.86989 0.46176 0.0
C730 C 0.34821 0.90287 0.48901 0.0
C731 C 0.34206 0.88708 0.46511 0.0
C732 C 0.35 0.88294 0.44996 0.0
C733 C 0.32629 0.89448 0.49334 0.0
C734 C 0.31179 0.88305 0.48326 0.0
C735 C 0.32012 0.87875 0.46943 0.0
C736 C 0.28694 0.87811 0.48631 0.0
C737 C 0.31836 0.89868 0.50848 0.0
C738 C 0.27853 0.85517 0.48675 0.0
C739 C 0.2546 0.85093 0.48867 0.0
C740 C 0.23875 0.86963 0.48988 0.0
C741 C 0.24739 0.89256 0.48951 0.0
C742 C 0.27125 0.89674 0.48778 0.0
H743 H 0.33342 0.90206 0.51573 0.0
H744 H 0.30671 0.91416 0.50878 0.0
H745 H 0.30832 0.88352 0.51253 0.0
H746 H 0.29044 0.84061 0.48549 0.0
H747 H 0.24846 0.83308 0.48885 0.0
H748 H 0.04201 0.90052 0.71967 0.0
H749 H 0.06507 0.86663 0.72681 0.0
H750 H 0.1282 0.90077 0.71283 0.0
H751 H 0.10517 0.93477 0.70551 0.0
H752 H 0.09361 0.84118 0.70648 0.0
H753 H 0.14455 0.87413 0.75322 0.0
H754 H 0.11786 0.88798 0.74727 0.0
H755 H 0.14439 0.89159 0.73731 0.0
C756 C 0.06083 0.9009 0.71822 0.0
C757 C 0.07177 0.92023 0.71195 0.0
C758 C 0.07396 0.88159 0.72235 0.0
C759 C 0.09829 0.88129 0.72039 0.0
C760 C 0.10946 0.90085 0.71461 0.0
H761 H 0.19166 0.76229 0.73718 0.0
H762 H 0.17765 0.80091 0.72983 0.0
C763 C 0.09629 0.92024 0.71046 0.0
C764 C 0.11146 0.85968 0.72335 0.0
H765 H 0.15065 0.83499 0.74631 0.0
C766 C 0.10621 0.83985 0.71513 0.0
C767 C 0.12806 0.85816 0.73451 0.0
C768 C 0.13407 0.87901 0.74368 0.0
C769 C 0.11664 0.81831 0.71802 0.0
C770 C 0.13242 0.81649 0.7296 0.0
C771 C 0.13846 0.83651 0.73748 0.0
C772 C 0.14126 0.79359 0.73433 0.0
C773 C 0.11048 0.79758 0.70877 0.0
C774 C 0.12544 0.77697 0.73948 0.0
C775 C 0.13332 0.75506 0.74366 0.0
C776 C 0.15721 0.74935 0.74282 0.0
C777 C 0.17314 0.76617 0.73788 0.0
C778 C 0.1652 0.7882 0.73371 0.0
H779 H 0.10366 0.80304 0.69818 0.0
H780 H 0.12593 0.78612 0.70711 0.0
H781 H 0.09664 0.78724 0.71411 0.0
H782 H 0.10694 0.78097 0.74025 0.0
H783 H 0.12062 0.74257 0.7475 0.0
H784 H 0.60281 0.42607 0.81375 0.0
H785 H 0.6367 0.40353 0.80566 0.0
H786 H 0.61551 0.41338 0.76189 0.0
H787 H 0.58127 0.43576 0.76996 0.0
H788 H 0.63403 0.36794 0.76789 0.0
H789 H 0.69144 0.43939 0.78765 0.0
H790 H 0.67229 0.42743 0.80091 0.0
H791 H 0.66015 0.44266 0.7859 0.0
C792 C 0.60529 0.42325 0.8024 0.0
C793 C 0.58971 0.43297 0.79244 0.0
C794 C 0.6246 0.41037 0.79781 0.0
C795 C 0.62882 0.40723 0.78319 0.0
C796 C 0.61256 0.41572 0.77323 0.0
H797 H 0.76255 0.38643 0.74379 0.0
H798 H 0.72388 0.39927 0.75148 0.0
C799 C 0.59306 0.42848 0.77783 0.0
C800 C 0.65115 0.39681 0.77832 0.0
H801 H 0.71021 0.40562 0.77888 0.0
C802 C 0.65073 0.37611 0.77027 0.0
C803 C 0.67283 0.40772 0.78133 0.0
C804 C 0.67431 0.43064 0.7893 0.0
C805 C 0.67154 0.36595 0.76519 0.0
C806 C 0.69323 0.37669 0.76842 0.0
C807 C 0.69356 0.39735 0.77649 0.0
C808 C 0.71586 0.36767 0.76299 0.0
C809 C 0.6701 0.3442 0.7561 0.0
C810 C 0.72418 0.34555 0.76686 0.0
C811 C 0.74635 0.33807 0.76239 0.0
C812 C 0.76059 0.35274 0.75414 0.0
C813 C 0.75207 0.37476 0.7502 0.0
C814 C 0.72994 0.38212 0.75457 0.0
H815 H 0.65215 0.34134 0.75184 0.0
H816 H 0.68251 0.3451 0.74701 0.0
H817 H 0.67488 0.3289 0.76268 0.0
H818 H 0.71379 0.33432 0.77361 0.0
H819 H 0.75251 0.32104 0.76563 0.0
H820 H 0.57013 0.11537 0.06073 0.0
H821 H 0.59399 0.14767 0.05233 0.0
H822 H 0.61444 0.10713 0.01547 0.0
H823 H 0.58949 0.07501 0.02345 0.0
H824 H 0.6403 0.15256 0.04646 0.0
H825 H 0.58677 0.16486 0.99737 0.0
H826 H 0.57774 0.14591 0.01162 0.0
H827 H 0.59991 0.13661 -0.00076 0.0
C828 C 0.57948 0.11336 0.05075 0.0
C829 C 0.57747 0.0928 0.04259 0.0
C830 C 0.59336 0.13175 0.04605 0.0
C831 C 0.60566 0.12997 0.03315 0.0
C832 C 0.60469 0.10905 0.02531 0.0
H833 H 0.69625 0.24825 0.00889 0.0
H834 H 0.68396 0.20873 0.01535 0.0
C835 C 0.59061 0.09064 0.02996 0.0
C836 C 0.61842 0.15058 0.02775 0.0
H837 H 0.61754 0.19119 0.00129 0.0
C838 C 0.63554 0.16092 0.03651 0.0
C839 C 0.61198 0.1615 0.01482 0.0
C840 C 0.59298 0.15182 0.00525 0.0
C841 C 0.64578 0.18236 0.03296 0.0
C842 C 0.63907 0.19342 0.02014 0.0
C843 C 0.62266 0.1826 0.01111 0.0
C844 C 0.64705 0.2172 0.01647 0.0
C845 C 0.66275 0.19352 0.04331 0.0
C846 C 0.63038 0.23493 0.01476 0.0
C847 C 0.63729 0.25732 0.01092 0.0
C848 C 0.66106 0.26248 0.00875 0.0
C849 C 0.67783 0.2448 0.01061 0.0
C850 C 0.67085 0.22226 0.01434 0.0
H851 H 0.66219 0.18517 0.05398 0.0
H852 H 0.68081 0.19173 0.03909 0.0
H853 H 0.65894 0.21239 0.04462 0.0
H854 H 0.61193 0.23142 0.01638 0.0
H855 H 0.62396 0.27057 0.0096 0.0
H856 H 0.93851 0.10217 0.2801 0.0
H857 H 0.9037 0.12282 0.2714 0.0
H858 H 0.86083 0.06359 0.28198 0.0
H859 H 0.89515 0.0431 0.291 0.0
H860 H 0.85465 0.08464 0.25293 0.0
H861 H 0.84926 0.14742 0.29852 0.0
H862 H 0.87687 0.14344 0.28953 0.0
H863 H 0.865 0.12023 0.29999 0.0
C864 C 0.92165 0.09359 0.28064 0.0
C865 C 0.91965 0.07094 0.28623 0.0
C866 C 0.90184 0.10539 0.27563 0.0
C867 C 0.87979 0.09471 0.27612 0.0
C868 C 0.87777 0.07205 0.28147 0.0
H869 H 0.73567 0.10271 0.26547 0.0
H870 H 0.77728 0.09414 0.267 0.0
C871 C 0.89746 0.06031 0.28653 0.0
C872 C 0.85846 0.10697 0.27133 0.0
H873 H 0.8176 0.14643 0.2825 0.0
C874 C 0.84672 0.09846 0.25923 0.0
C875 C 0.84834 0.1251 0.27952 0.0
C876 C 0.86036 0.13466 0.29266 0.0
C877 C 0.8245 0.10683 0.25548 0.0
C878 C 0.81362 0.12378 0.26426 0.0
C879 C 0.826 0.13338 0.27583 0.0
C880 C 0.78847 0.12942 0.26271 0.0
C881 C 0.81253 0.09695 0.24241 0.0
C882 C 0.78093 0.15228 0.2601 0.0
C883 C 0.75696 0.15733 0.25924 0.0
C884 C 0.74021 0.13963 0.26119 0.0
C885 C 0.74799 0.1168 0.26389 0.0
C886 C 0.77182 0.11179 0.26466 0.0
H887 H 0.8255 0.09039 0.23452 0.0
H888 H 0.80133 0.08206 0.2456 0.0
H889 H 0.80127 0.1102 0.2372 0.0
H890 H 0.79357 0.16616 0.25872 0.0
H891 H 0.75158 0.17512 0.25721 0.0
H892 H 0.91288 0.41828 0.55877 0.0
H893 H 0.89256 0.38244 0.55174 0.0
H894 H 0.92596 0.38455 0.51053 0.0
H895 H 0.94626 0.42061 0.51742 0.0
H896 H 0.8729 0.37327 0.51222 0.0
H897 H 0.9325 0.31968 0.54589 0.0
H898 H 0.91975 0.34533 0.55387 0.0
H899 H 0.94051 0.34832 0.53966 0.0
C900 C 0.91556 0.41138 0.5481 0.0
C901 C 0.93117 0.42224 0.53863 0.0
C902 C 0.90405 0.39086 0.54416 0.0
C903 C 0.90788 0.38091 0.53067 0.0
C904 C 0.92282 0.39205 0.521 0.0
H905 H 0.89019 0.242 0.49898 0.0
H906 H 0.90313 0.28086 0.50612 0.0
C907 C 0.93448 0.41252 0.52497 0.0
C908 C 0.89741 0.35813 0.52696 0.0
H909 H 0.90252 0.29995 0.53353 0.0
C910 C 0.87923 0.3572 0.51689 0.0
C911 C 0.90591 0.33732 0.53306 0.0
C912 C 0.92583 0.33749 0.54367 0.0
C913 C 0.86935 0.3358 0.51268 0.0
C914 C 0.87787 0.31495 0.51879 0.0
C915 C 0.89596 0.31599 0.52893 0.0
C916 C 0.86935 0.2917 0.51421 0.0
C917 C 0.85039 0.3356 0.50144 0.0
C918 C 0.84604 0.28486 0.51646 0.0
C919 C 0.83853 0.26257 0.51235 0.0
C920 C 0.85429 0.24678 0.50601 0.0
C921 C 0.87761 0.25373 0.50384 0.0
C922 C 0.88505 0.27593 0.50791 0.0
H923 H 0.84921 0.3525 0.49575 0.0
H924 H 0.85353 0.32152 0.49349 0.0
H925 H 0.83325 0.33224 0.5066 0.0
H926 H 0.83376 0.29663 0.52155 0.0
H927 H 0.82048 0.25767 0.51421 0.0
H928 H 0.61046 0.04771 0.47751 0.0
H929 H 0.64332 0.07219 0.485 0.0
H930 H 0.61265 0.13085 0.46326 0.0
H931 H 0.57974 0.10627 0.45558 0.0
H932 H 0.65822 0.1211 0.45496 0.0
H933 H 0.6527 0.12531 0.51386 0.0
H934 H 0.64965 0.0961 0.50716 0.0
H935 H 0.62796 0.11765 0.50271 0.0
C936 C 0.61052 0.06594 0.47455 0.0
C937 C 0.59262 0.07509 0.46594 0.0
C938 C 0.62916 0.07997 0.47896 0.0
C939 C 0.63026 0.10342 0.47484 0.0
C940 C 0.61197 0.11286 0.46668 0.0
H941 H 0.76065 0.17922 0.49705 0.0
H942 H 0.71847 0.17234 0.49386 0.0
C943 C 0.59318 0.09884 0.46235 0.0
C944 C 0.65198 0.11688 0.47748 0.0
H945 H 0.69129 0.13098 0.50365 0.0
C946 C 0.6652 0.12379 0.46562 0.0
C947 C 0.66098 0.12059 0.49139 0.0
C948 C 0.64696 0.11474 0.50451 0.0
C949 C 0.6879 0.13269 0.46727 0.0
C950 C 0.69764 0.13454 0.48111 0.0
C951 C 0.68382 0.12931 0.49304 0.0
C952 C 0.72289 0.1391 0.4832 0.0
C953 C 0.7017 0.13912 0.45415 0.0
C954 C 0.73916 0.12252 0.47846 0.0
C955 C 0.76307 0.12628 0.4803 0.0
C956 C 0.77131 0.14675 0.48696 0.0
C957 C 0.75492 0.16331 0.49184 0.0
C958 C 0.73085 0.15943 0.49004 0.0
H959 H 0.69 0.14295 0.44497 0.0
H960 H 0.713 0.15453 0.45624 0.0
H961 H 0.71316 0.12429 0.45109 0.0
H962 H 0.7333 0.10656 0.47335 0.0
H963 H 0.77508 0.11308 0.47642 0.0
H964 H 0.94423 0.0876 0.73683 0.0
H965 H 0.9226 0.12095 0.74667 0.0
H966 H 0.8974 0.13749 0.70446 0.0
H967 H 0.91829 0.10397 0.69473 0.0
H968 H 0.93017 0.16435 0.74143 0.0
H969 H 0.83861 0.14717 0.7263 0.0
H970 H 0.86082 0.12481 0.72543 0.0
H971 H 0.85672 0.1447 0.71078 0.0
C972 C 0.9337 0.09817 0.72974 0.0
C973 C 0.93279 0.09317 0.71505 0.0
C974 C 0.9213 0.11714 0.73536 0.0
C975 C 0.90793 0.13148 0.72637 0.0
C976 C 0.90682 0.12624 0.71172 0.0
H977 H 0.89487 0.27567 0.72443 0.0
H978 H 0.90459 0.23448 0.72428 0.0
C979 C 0.91893 0.10716 0.70614 0.0
C980 C 0.89755 0.1535 0.73182 0.0
H981 H 0.84942 0.18841 0.72857 0.0
C982 C 0.91231 0.16935 0.73891 0.0
C983 C 0.8741 0.15999 0.72889 0.0
C984 C 0.85663 0.1431 0.72258 0.0
C985 C 0.90489 0.19206 0.74208 0.0
C986 C 0.88236 0.19933 0.73765 0.0
C987 C 0.86689 0.18297 0.73167 0.0
C988 C 0.87564 0.22425 0.73774 0.0
C989 C 0.92156 0.20826 0.74976 0.0
C990 C 0.85545 0.23209 0.74483 0.0
C991 C 0.84959 0.25582 0.7448 0.0
C992 C 0.86387 0.27197 0.73765 0.0
C993 C 0.88368 0.26383 0.73025 0.0
C994 C 0.88938 0.24025 0.73022 0.0
H995 H 0.93369 0.1984 0.75678 0.0
H996 H 0.93234 0.21764 0.74179 0.0
H997 H 0.91202 0.22131 0.75634 0.0
H998 H 0.84444 0.21993 0.75054 0.0
H999 H 0.83417 0.26153 0.75055 0.0
H1000 H 0.89453 0.43528 0.93839 0.0
H1001 H 0.8634 0.41065 0.94773 0.0
H1002 H 0.90284 0.4005 0.98652 0.0
H1003 H 0.93396 0.4259 0.97736 0.0
H1004 H 0.86141 0.36471 0.958 0.0
H1005 H 0.84157 0.4308 0.00018 0.0
H1006 H 0.86077 0.4371 0.98544 0.0
H1007 H 0.87069 0.41892 -0.00024 0.0
C1008 C 0.89661 0.42781 0.94892 0.0
C1009 C 0.91642 0.43292 0.95728 0.0
C1010 C 0.87893 0.41353 0.95417 0.0
C1011 C 0.88069 0.40403 0.96788 0.0
C1012 C 0.90104 0.40795 0.97598 0.0
H1013 H 0.75276 0.32745 0.99424 0.0
H1014 H 0.79486 0.33463 0.99129 0.0
C1015 C 0.91882 0.42233 0.97071 0.0
C1016 C 0.86009 0.39193 0.9739 0.0
H1017 H 0.81433 0.40099 0.99663 0.0
C1018 C 0.85133 0.37224 0.96669 0.0
C1019 C 0.847 0.40195 0.98518 0.0
C1020 C 0.8553 0.42343 0.99308 0.0
C1021 C 0.8291 0.36321 0.96986 0.0
C1022 C 0.81551 0.37409 0.98057 0.0
C1023 C 0.82492 0.39274 0.98843 0.0
C1024 C 0.79032 0.36895 0.98227 0.0
C1025 C 0.81957 0.34322 0.96108 0.0
C1026 C 0.77398 0.38588 0.97818 0.0
C1027 C 0.7501 0.38191 0.97985 0.0
C1028 C 0.74197 0.3609 0.9857 0.0
C1029 C 0.75841 0.34379 0.98967 0.0
C1030 C 0.78245 0.34782 0.98798 0.0
H1031 H 0.83172 0.33788 0.9524 0.0
H1032 H 0.81651 0.32799 0.96809 0.0
H1033 H 0.80249 0.34812 0.95627 0.0
H1034 H 0.77977 0.40227 0.9737 0.0
H1035 H 0.73803 0.39548 0.97662 0.0
H1036 H 0.58357 0.39787 0.18574 0.0
H1037 H 0.60734 0.36489 0.19367 0.0
H1038 H 0.60103 0.3885 0.23731 0.0
H1039 H 0.57758 0.42194 0.22933 0.0
H1040 H 0.64584 0.36934 0.23051 0.0
H1041 H 0.57255 0.31177 0.2136 0.0
H1042 H 0.58381 0.32986 0.19963 0.0
H1043 H 0.56961 0.34301 0.21479 0.0
C1044 C 0.58754 0.39616 0.197 0.0
C1045 C 0.57849 0.41214 0.20698 0.0
C1046 C 0.60109 0.37737 0.20151 0.0
C1047 C 0.60548 0.37402 0.21609 0.0
C1048 C 0.59772 0.39077 0.22601 0.0
H1049 H 0.62738 0.24213 0.25621 0.0
H1050 H 0.6147 0.28071 0.24875 0.0
C1051 C 0.58435 0.40979 0.22147 0.0
C1052 C 0.61616 0.352 0.22104 0.0
H1053 H 0.60702 0.29329 0.22156 0.0
C1054 C 0.63743 0.35267 0.22857 0.0
C1055 C 0.60491 0.33036 0.21865 0.0
C1056 C 0.58136 0.32862 0.21135 0.0
C1057 C 0.64783 0.33214 0.23373 0.0
C1058 C 0.63677 0.31047 0.23106 0.0
C1059 C 0.61554 0.3099 0.22351 0.0
C1060 C 0.64599 0.28812 0.23658 0.0
C1061 C 0.67018 0.33386 0.24228 0.0
C1062 C 0.66796 0.27952 0.23234 0.0
C1063 C 0.67538 0.2574 0.23671 0.0
C1064 C 0.66075 0.24349 0.2452 0.0
C1065 C 0.63898 0.25235 0.24959 0.0
C1066 C 0.63172 0.27443 0.24536 0.0
H1067 H 0.6733 0.35187 0.24626 0.0
H1068 H 0.66978 0.32185 0.25153 0.0
H1069 H 0.68517 0.32884 0.2354 0.0
H1070 H 0.67906 0.2896 0.22533 0.0
H1071 H 0.69222 0.25096 0.23314 0.0
H1072 H 0.12199 0.95418 0.35808 0.0
H1073 H 0.14546 0.93124 0.37487 0.0
H1074 H 0.08303 0.89531 0.38848 0.0
H1075 H 0.05981 0.91759 0.37149 0.0
H1076 H 0.14316 0.9317 0.40243 0.0
H1077 H 0.12636 0.84133 0.3853 0.0
H1078 H 0.1189 0.86591 0.37423 0.0
H1079 H 0.099 0.85601 0.38786 0.0
C1080 C 0.11342 0.94111 0.36453 0.0
C1081 C 0.08913 0.93754 0.36346 0.0
C1082 C 0.12682 0.92798 0.37407 0.0
C1083 C 0.11612 0.91117 0.38275 0.0
C1084 C 0.09187 0.90752 0.38157 0.0
H1085 H 0.13895 0.87679 0.46809 0.0
H1086 H 0.13158 0.89352 0.4447 0.0
C1087 C 0.07856 0.9204 0.37192 0.0
C1088 C 0.1296 0.89924 0.39413 0.0
H1089 H 0.13571 0.84669 0.41061 0.0
C1090 C 0.14196 0.91302 0.40402 0.0
C1091 C 0.12865 0.87481 0.39609 0.0
C1092 C 0.11773 0.85869 0.38518 0.0
C1093 C 0.15175 0.90331 0.41636 0.0
C1094 C 0.14843 0.87931 0.4191 0.0
C1095 C 0.13778 0.86519 0.40867 0.0
C1096 C 0.15371 0.86914 0.43325 0.0
C1097 C 0.16506 0.91899 0.42649 0.0
C1098 C 0.16796 0.84931 0.43456 0.0
C1099 C 0.17194 0.83943 0.44799 0.0
C1100 C 0.16165 0.84923 0.46025 0.0
C1101 C 0.14731 0.86896 0.45886 0.0
C1102 C 0.14323 0.87868 0.44549 0.0
H1103 H 0.17346 0.9336 0.42069 0.0
H1104 H 0.15269 0.92669 0.43434 0.0
H1105 H 0.17879 0.90927 0.43239 0.0
H1106 H 0.17599 0.84152 0.42521 0.0
H1107 H 0.18304 0.82418 0.44876 0.0
H1108 H 0.09032 0.56056 0.62249 0.0
H1109 H 0.11167 0.58353 0.64024 0.0
H1110 H 0.07265 0.64478 0.62823 0.0
H1111 H 0.05081 0.62165 0.61057 0.0
H1112 H 0.13959 0.62208 0.63885 0.0
H1113 H 0.05927 0.64108 0.67052 0.0
H1114 H 0.05945 0.62016 0.65609 0.0
H1115 H 0.05888 0.65084 0.65235 0.0
C1116 C 0.08648 0.57898 0.6235 0.0
C1117 C 0.06879 0.58929 0.61522 0.0
C1118 C 0.09867 0.59209 0.63366 0.0
C1119 C 0.0935 0.61578 0.63572 0.0
C1120 C 0.07654 0.6264 0.62705 0.0
H1121 H 0.14833 0.69244 0.71084 0.0
H1122 H 0.13373 0.68725 0.6863 0.0
C1123 C 0.06413 0.6132 0.61696 0.0
C1124 C 0.10525 0.62873 0.64747 0.0
H1125 H 0.09509 0.65326 0.68019 0.0
C1126 C 0.12985 0.62924 0.64778 0.0
C1127 C 0.0925 0.63816 0.65911 0.0
C1128 C 0.06609 0.63744 0.65963 0.0
C1129 C 0.14201 0.63783 0.65973 0.0
C1130 C 0.12925 0.64606 0.67162 0.0
C1131 C 0.10475 0.647 0.67097 0.0
C1132 C 0.14064 0.6502 0.68558 0.0
C1133 C 0.16841 0.63719 0.65981 0.0
C1134 C 0.14936 0.6311 0.69318 0.0
C1135 C 0.1573 0.63391 0.70716 0.0
C1136 C 0.15684 0.65594 0.71379 0.0
C1137 C 0.14899 0.67529 0.70596 0.0
C1138 C 0.14065 0.67237 0.69198 0.0
H1139 H 0.17561 0.6364 0.64881 0.0
H1140 H 0.17569 0.65272 0.66539 0.0
H1141 H 0.17437 0.62143 0.6656 0.0
H1142 H 0.14917 0.6138 0.68848 0.0
H1143 H 0.16335 0.61871 0.71289 0.0
H1144 H 0.3938 0.57766 0.85251 0.0
H1145 H 0.36912 0.59732 0.87033 0.0
H1146 H 0.42755 0.59999 0.89948 0.0
H1147 H 0.45195 0.57968 0.88219 0.0
H1148 H 0.36158 0.57975 0.8999 0.0
H1149 H 0.40031 0.66824 0.89829 0.0
H1150 H 0.40241 0.64783 0.88356 0.0
H1151 H 0.42167 0.64525 0.89867 0.0
C1152 C 0.40139 0.58239 0.86273 0.0
C1153 C 0.42497 0.57718 0.86584 0.0
C1154 C 0.3873 0.59377 0.87283 0.0
C1155 C 0.39668 0.60042 0.88608 0.0
C1156 C 0.42016 0.59546 0.88916 0.0
H1157 H 0.37263 0.61518 0.97122 0.0
H1158 H 0.3771 0.60376 0.94628 0.0
C1159 C 0.43412 0.58391 0.8792 0.0
C1160 C 0.38191 0.61105 0.8973 0.0
H1161 H 0.38089 0.65753 0.92015 0.0
C1162 C 0.36526 0.59702 0.90411 0.0
C1163 C 0.38658 0.63365 0.90267 0.0
C1164 C 0.40357 0.64974 0.89534 0.0
C1165 C 0.35472 0.60425 0.91692 0.0
C1166 C 0.36112 0.62593 0.92299 0.0
C1167 C 0.37612 0.64083 0.9155 0.0
C1168 C 0.35569 0.63173 0.93802 0.0
C1169 C 0.3378 0.58814 0.92427 0.0
C1170 C 0.34212 0.65128 0.94163 0.0
C1171 C 0.33936 0.65781 0.95597 0.0
C1172 C 0.35065 0.64517 0.96682 0.0
C1173 C 0.36384 0.62537 0.96312 0.0
C1174 C 0.36626 0.61869 0.94887 0.0
H1175 H 0.32954 0.57582 0.91657 0.0
H1176 H 0.34741 0.57776 0.93235 0.0
H1177 H 0.32385 0.59815 0.92984 0.0
H1178 H 0.33405 0.66168 0.93335 0.0
H1179 H 0.32917 0.6732 0.95851 0.0
H1180 H 0.39657 0.94341 0.10803 0.0
H1181 H 0.37534 0.92084 0.12595 0.0
H1182 H 0.43868 0.88359 0.13624 0.0
H1183 H 0.46008 0.90615 0.11844 0.0
H1184 H 0.39558 0.85552 0.13603 0.0
H1185 H 0.3903 0.93695 0.16849 0.0
H1186 H 0.37881 0.93865 0.15064 0.0
H1187 H 0.40961 0.93405 0.15336 0.0
C1188 C 0.40591 0.93024 0.11401 0.0
C1189 C 0.43007 0.92678 0.11197 0.0
C1190 C 0.39375 0.91731 0.12418 0.0
C1191 C 0.40555 0.90079 0.1325 0.0
C1192 C 0.42929 0.89625 0.12988 0.0
H1193 H 0.38226 0.85807 0.21792 0.0
H1194 H 0.39711 0.87032 0.19478 0.0
C1195 C 0.44147 0.90914 0.1197 0.0
C1196 C 0.39394 0.89014 0.14496 0.0
H1197 H 0.37347 0.90331 0.17821 0.0
C1198 C 0.39054 0.86591 0.14523 0.0
C1199 C 0.38771 0.9038 0.15697 0.0
C1200 C 0.39191 0.92978 0.15749 0.0
C1201 C 0.38118 0.85494 0.15734 0.0
C1202 C 0.37504 0.86865 0.16935 0.0
C1203 C 0.37813 0.89289 0.16894 0.0
C1204 C 0.36686 0.85836 0.18289 0.0
C1205 C 0.37865 0.82879 0.15741 0.0
C1206 C 0.34506 0.84716 0.18383 0.0
C1207 C 0.3365 0.84001 0.19711 0.0
C1208 C 0.34957 0.84421 0.2096 0.0
C1209 C 0.37171 0.85471 0.20851 0.0
C1210 C 0.38025 0.8617 0.19529 0.0
H1211 H 0.38798 0.82044 0.14833 0.0
H1212 H 0.38551 0.82149 0.16755 0.0
H1213 H 0.35982 0.82418 0.15663 0.0
H1214 H 0.33431 0.84474 0.1744 0.0
H1215 H 0.31936 0.832 0.19767 0.0
H1216 H 0.04654 0.58663 0.8665 0.0
H1217 H 0.07147 0.60786 0.84996 0.0
H1218 H 0.12663 0.61002 0.88143 0.0
H1219 H 0.10155 0.58898 0.89827 0.0
H1220 H 0.09391 0.65263 0.85381 0.0
H1221 H 0.15659 0.57942 0.84518 0.0
H1222 H 0.12804 0.57498 0.85295 0.0
H1223 H 0.15086 0.58846 0.86327 0.0
C1224 C 0.06382 0.59192 0.87003 0.0
C1225 C 0.07203 0.58616 0.88373 0.0
C1226 C 0.07808 0.60394 0.86053 0.0
C1227 C 0.10089 0.61034 0.86446 0.0
C1228 C 0.10915 0.60496 0.87817 0.0
H1229 H 0.17638 0.6975 0.8021 0.0
H1230 H 0.16424 0.68258 0.82547 0.0
C1231 C 0.09482 0.59292 0.88773 0.0
C1232 C 0.1159 0.62219 0.85392 0.0
H1233 H 0.16102 0.61247 0.83079 0.0
C1234 C 0.10888 0.64411 0.84893 0.0
C1235 C 0.13529 0.61086 0.84759 0.0
C1236 C 0.1432 0.58707 0.85241 0.0
C1237 C 0.12007 0.65457 0.83729 0.0
C1238 C 0.13894 0.64286 0.83062 0.0
C1239 C 0.14664 0.62142 0.83603 0.0
C1240 C 0.1487 0.65105 0.81693 0.0
C1241 C 0.11074 0.67737 0.83168 0.0
C1242 C 0.14463 0.63788 0.80452 0.0
C1243 C 0.15152 0.64629 0.79124 0.0
C1244 C 0.1627 0.668 0.79014 0.0
C1245 C 0.16768 0.68076 0.80264 0.0
C1246 C 0.16071 0.67232 0.81597 0.0
H1247 H 0.09395 0.68244 0.83682 0.0
H1248 H 0.12371 0.69138 0.83378 0.0
H1249 H 0.10796 0.67627 0.81996 0.0
H1250 H 0.1354 0.62141 0.80506 0.0
H1251 H 0.14757 0.63599 0.78182 0.0
H1252 H 0.42778 0.54838 0.11839 0.0
H1253 H 0.40641 0.57349 0.10202 0.0
H1254 H 0.40232 0.62696 0.13444 0.0
H1255 H 0.42338 0.60161 0.15116 0.0
H1256 H 0.35999 0.59542 0.10673 0.0
H1257 H 0.4334 0.65782 0.09803 0.0
H1258 H 0.43839 0.62891 0.10492 0.0
H1259 H 0.42517 0.65073 0.11605 0.0
C1260 C 0.42204 0.5653 0.12217 0.0
C1261 C 0.42719 0.57291 0.13613 0.0
C1262 C 0.40995 0.57968 0.11276 0.0
C1263 C 0.40291 0.60204 0.11703 0.0
C1264 C 0.40782 0.60979 0.13094 0.0
H1265 H 0.3153 0.67731 0.0544 0.0
H1266 H 0.33067 0.66614 0.07791 0.0
C1267 C 0.41989 0.59532 0.14044 0.0
C1268 C 0.39074 0.61706 0.10662 0.0
H1269 H 0.40042 0.66131 0.08317 0.0
C1270 C 0.36853 0.61017 0.10176 0.0
C1271 C 0.40211 0.63616 0.10018 0.0
C1272 C 0.42613 0.64394 0.10495 0.0
C1273 C 0.35785 0.62119 0.09012 0.0
C1274 C 0.36968 0.63963 0.08326 0.0
C1275 C 0.39139 0.64725 0.08855 0.0
C1276 C 0.36137 0.64884 0.06944 0.0
C1277 C 0.3347 0.61207 0.08464 0.0
C1278 C 0.3739 0.64335 0.05702 0.0
C1279 C 0.36519 0.64959 0.04367 0.0
C1280 C 0.34384 0.66159 0.0425 0.0
C1281 C 0.33176 0.66799 0.05499 0.0
C1282 C 0.34047 0.6616 0.0684 0.0
H1283 H 0.32916 0.59593 0.0902 0.0
H1284 H 0.32097 0.62551 0.08628 0.0
H1285 H 0.33578 0.60836 0.07301 0.0
H1286 H 0.39006 0.63349 0.05763 0.0
H1287 H 0.37497 0.64454 0.03425 0.0
H1288 H 0.46229 0.92882 0.36849 0.0
H1289 H 0.43767 0.90847 0.35121 0.0
H1290 H 0.38007 0.90966 0.38088 0.0
H1291 H 0.40489 0.92961 0.39856 0.0
H1292 H 0.41024 0.86386 0.35534 0.0
H1293 H 0.3574 0.94284 0.3425 0.0
H1294 H 0.386 0.94528 0.35063 0.0
H1295 H 0.36178 0.93469 0.36087 0.0
C1296 C 0.44456 0.92439 0.37152 0.0
C1297 C 0.43563 0.93081 0.38497 0.0
C1298 C 0.43047 0.91285 0.36158 0.0
C1299 C 0.4071 0.90764 0.36478 0.0
C1300 C 0.39807 0.91368 0.37821 0.0
H1301 H 0.33497 0.83334 0.29359 0.0
H1302 H 0.34089 0.84552 0.31859 0.0
C1303 C 0.41224 0.92517 0.38825 0.0
C1304 C 0.39232 0.89671 0.35364 0.0
H1305 H 0.35453 0.91092 0.3268 0.0
C1306 C 0.3975 0.87383 0.34932 0.0
C1307 C 0.37581 0.90989 0.34584 0.0
C1308 C 0.36981 0.93458 0.35009 0.0
C1309 C 0.38771 0.86431 0.33683 0.0
C1310 C 0.37249 0.8781 0.3285 0.0
C1311 C 0.36609 0.9004 0.33332 0.0
C1312 C 0.36697 0.87156 0.31359 0.0
C1313 C 0.3951 0.84031 0.33198 0.0
C1314 C 0.37942 0.88242 0.30263 0.0
C1315 C 0.37628 0.87544 0.2885 0.0
C1316 C 0.36045 0.85753 0.28499 0.0
C1317 C 0.34731 0.84716 0.29596 0.0
C1318 C 0.35067 0.85406 0.31021 0.0
H1319 H 0.40713 0.83182 0.3397 0.0
H1320 H 0.37941 0.82911 0.33056 0.0
H1321 H 0.40402 0.84143 0.32148 0.0
H1322 H 0.39208 0.89595 0.30505 0.0
H1323 H 0.3865 0.88401 0.28033 0.0
H1324 H 0.04578 0.93425 0.61675 0.0
H1325 H 0.06804 0.91045 0.60004 0.0
H1326 H 0.11868 0.89533 0.6329 0.0
H1327 H 0.09611 0.91888 0.64994 0.0
H1328 H 0.13858 0.91142 0.6079 0.0
H1329 H 0.07674 0.84012 0.59567 0.0
H1330 H 0.06265 0.86798 0.59446 0.0
H1331 H 0.074 0.85834 0.61138 0.0
C1332 C 0.06128 0.92539 0.62059 0.0
C1333 C 0.06904 0.9284 0.63474 0.0
C1334 C 0.074 0.91174 0.611 0.0
C1335 C 0.09475 0.90073 0.6153 0.0
C1336 C 0.10256 0.90349 0.62942 0.0
H1337 H 0.15874 0.82704 0.54202 0.0
H1338 H 0.14747 0.83272 0.56712 0.0
C1339 C 0.08974 0.9171 0.6391 0.0
C1340 C 0.1092 0.88846 0.60451 0.0
H1341 H 0.1044 0.84988 0.57682 0.0
C1342 C 0.1314 0.89751 0.60133 0.0
C1343 C 0.10009 0.86998 0.59612 0.0
C1344 C 0.07716 0.85837 0.59969 0.0
C1345 C 0.14367 0.89013 0.58917 0.0
C1346 C 0.13329 0.87355 0.57989 0.0
C1347 C 0.11219 0.86285 0.58383 0.0
C1348 C 0.14203 0.86988 0.56518 0.0
C1349 C 0.16714 0.90096 0.586 0.0
C1350 C 0.14246 0.88882 0.55581 0.0
C1351 C 0.1487 0.88567 0.54157 0.0
C1352 C 0.15457 0.86342 0.5363 0.0
C1353 C 0.15442 0.84441 0.54575 0.0
C1354 C 0.148 0.84761 0.56007 0.0
H1355 H 0.17621 0.90633 0.59599 0.0
H1356 H 0.17861 0.88874 0.57999 0.0
H1357 H 0.1645 0.91681 0.57945 0.0
H1358 H 0.13734 0.90605 0.55943 0.0
H1359 H 0.14862 0.90074 0.53466 0.0
H1360 H 0.54568 0.40022 0.86551 0.0
H1361 H 0.56676 0.37569 0.88243 0.0
H1362 H 0.62124 0.42748 0.8858 0.0
H1363 H 0.601 0.45155 0.86825 0.0
H1364 H 0.6387 0.38251 0.88648 0.0
H1365 H 0.56457 0.39375 0.92434 0.0
H1366 H 0.55682 0.38051 0.90758 0.0
H1367 H 0.56682 0.41022 0.90808 0.0
C1368 C 0.56242 0.40618 0.86956 0.0
C1369 C 0.57145 0.42808 0.86568 0.0
C1370 C 0.57433 0.39222 0.87935 0.0
C1371 C 0.59526 0.40003 0.88561 0.0
C1372 C 0.60499 0.42122 0.88117 0.0
H1373 H 0.64924 0.37582 0.9685 0.0
H1374 H 0.63399 0.39019 0.94591 0.0
C1375 C 0.59324 0.43508 0.87128 0.0
C1376 C 0.60607 0.38724 0.89762 0.0
H1377 H 0.59637 0.37121 0.93211 0.0
C1378 C 0.62945 0.37985 0.89644 0.0
C1379 C 0.59397 0.38407 0.91064 0.0
C1380 C 0.56924 0.39271 0.91284 0.0
C1381 C 0.64121 0.36976 0.90807 0.0
C1382 C 0.6291 0.36672 0.92107 0.0
C1383 C 0.60556 0.37353 0.92209 0.0
C1384 C 0.64075 0.35828 0.93419 0.0
C1385 C 0.6667 0.36333 0.90653 0.0
C1386 C 0.65002 0.33566 0.93504 0.0
C1387 C 0.65902 0.32743 0.94799 0.0
C1388 C 0.65853 0.34163 0.96027 0.0
C1389 C 0.64976 0.36442 0.95925 0.0
C1390 C 0.64103 0.37266 0.94635 0.0
H1391 H 0.67466 0.37115 0.89686 0.0
H1392 H 0.67684 0.36909 0.91605 0.0
H1393 H 0.66831 0.34411 0.90564 0.0
H1394 H 0.64961 0.32414 0.92584 0.0
H1395 H 0.66558 0.30974 0.94851 0.0
H1396 H 0.59231 0.09661 0.10232 0.0
H1397 H 0.61511 0.11891 0.11993 0.0
H1398 H 0.56394 0.10294 0.15222 0.0
H1399 H 0.54124 0.08062 0.13484 0.0
H1400 H 0.58001 0.14987 0.15292 0.0
H1401 H 0.65298 0.08534 0.1512 0.0
H1402 H 0.64453 0.09873 0.13467 0.0
H1403 H 0.6247 0.07923 0.14343 0.0
C1404 C 0.58591 0.09792 0.11317 0.0
C1405 C 0.56501 0.08673 0.1172 0.0
C1406 C 0.59892 0.1107 0.12319 0.0
C1407 C 0.5913 0.11238 0.13739 0.0
C1408 C 0.57006 0.10195 0.14129 0.0
H1409 H 0.64007 0.1132 0.21945 0.0
H1410 H 0.62721 0.10842 0.19492 0.0
C1411 C 0.55707 0.08924 0.13132 0.0
C1412 C 0.60589 0.12351 0.1486 0.0
H1413 H 0.65407 0.11355 0.16929 0.0
C1414 C 0.59649 0.14233 0.15634 0.0
C1415 C 0.62737 0.11355 0.153 0.0
C1416 C 0.63805 0.09302 0.14524 0.0
C1417 C 0.60724 0.15048 0.16892 0.0
C1418 C 0.62796 0.13959 0.17375 0.0
C1419 C 0.63821 0.12187 0.16548 0.0
C1420 C 0.63683 0.14323 0.18845 0.0
C1421 C 0.59548 0.16948 0.17749 0.0
C1422 C 0.64666 0.16447 0.19296 0.0
C1423 C 0.65408 0.16736 0.20715 0.0
C1424 C 0.65173 0.14904 0.21699 0.0
C1425 C 0.64212 0.12776 0.21226 0.0
C1426 C 0.6348 0.12493 0.19819 0.0
H1427 H 0.5784 0.17476 0.17283 0.0
H1428 H 0.59254 0.16357 0.18862 0.0
H1429 H 0.60704 0.18501 0.17795 0.0
H1430 H 0.64855 0.17874 0.18554 0.0
H1431 H 0.66147 0.18395 0.21042 0.0
H1432 H 0.90599 0.08217 0.34984 0.0
H1433 H 0.88094 0.10426 0.36634 0.0
H1434 H 0.93619 0.10419 0.39775 0.0
H1435 H 0.96099 0.08168 0.38166 0.0
H1436 H 0.86759 0.09053 0.39517 0.0
H1437 H 0.9164 0.17394 0.39411 0.0
H1438 H 0.91905 0.15206 0.38024 0.0
H1439 H 0.93487 0.14897 0.39674 0.0
C1440 C 0.91276 0.08677 0.36029 0.0
C1441 C 0.9356 0.08029 0.36437 0.0
C1442 C 0.89848 0.09951 0.36964 0.0
C1443 C 0.90691 0.10618 0.38313 0.0
C1444 C 0.92958 0.09966 0.38725 0.0
H1445 H 0.86148 0.13256 0.46562 0.0
H1446 H 0.87143 0.11717 0.44211 0.0
C1447 C 0.94376 0.08684 0.37799 0.0
C1448 C 0.89193 0.11902 0.39335 0.0
H1449 H 0.89173 0.16758 0.41451 0.0
C1450 C 0.87251 0.1076 0.3992 0.0
C1451 C 0.89818 0.14143 0.39842 0.0
C1452 C 0.91813 0.15495 0.39196 0.0
C1453 C 0.86025 0.11729 0.41078 0.0
C1454 C 0.86782 0.13877 0.41666 0.0
C1455 C 0.88608 0.151 0.41007 0.0
C1456 C 0.85915 0.1474 0.4306 0.0
C1457 C 0.83983 0.10409 0.41694 0.0
C1458 C 0.84909 0.16964 0.43194 0.0
C1459 C 0.84336 0.17854 0.44545 0.0
C1460 C 0.84801 0.16546 0.45777 0.0
C1461 C 0.85768 0.14306 0.45633 0.0
C1462 C 0.86319 0.13414 0.44288 0.0
H1463 H 0.83157 0.09257 0.40879 0.0
H1464 H 0.84615 0.09291 0.42578 0.0
H1465 H 0.82635 0.11616 0.42126 0.0
H1466 H 0.84608 0.18023 0.42258 0.0
H1467 H 0.83598 0.19589 0.44626 0.0
H1468 H 0.8962 0.44951 0.60934 0.0
H1469 H 0.87522 0.42554 0.6267 0.0
H1470 H 0.9378 0.38526 0.63394 0.0
H1471 H 0.95907 0.40938 0.61689 0.0
H1472 H 0.87067 0.37199 0.63003 0.0
H1473 H 0.91919 0.4197 0.67276 0.0
H1474 H 0.91656 0.43081 0.65483 0.0
H1475 H 0.93636 0.40731 0.65853 0.0
C1476 C 0.90544 0.43542 0.61455 0.0
C1477 C 0.92937 0.43152 0.61187 0.0
C1478 C 0.89337 0.42163 0.62433 0.0
C1479 C 0.90505 0.40378 0.63159 0.0
C1480 C 0.92854 0.399 0.6284 0.0
H1481 H 0.87628 0.33732 0.71145 0.0
H1482 H 0.89299 0.34812 0.68852 0.0
C1483 C 0.94063 0.41275 0.61862 0.0
C1484 C 0.89355 0.39198 0.64365 0.0
H1485 H 0.89367 0.39012 0.67995 0.0
C1486 C 0.87566 0.37578 0.64098 0.0
C1487 C 0.90015 0.39715 0.65785 0.0
C1488 C 0.919 0.41479 0.66127 0.0
C1489 C 0.86447 0.36412 0.65224 0.0
C1490 C 0.87101 0.36939 0.6665 0.0
C1491 C 0.88878 0.38585 0.66905 0.0
C1492 C 0.8599 0.35844 0.67912 0.0
C1493 C 0.84621 0.34598 0.6487 0.0
C1494 C 0.83557 0.35969 0.68133 0.0
C1495 C 0.82589 0.35264 0.69434 0.0
C1496 C 0.84052 0.34507 0.70543 0.0
C1497 C 0.86466 0.34309 0.70305 0.0
C1498 C 0.8742 0.34933 0.68995 0.0
H1499 H 0.84879 0.33869 0.6378 0.0
H1500 H 0.84654 0.33145 0.65648 0.0
H1501 H 0.82862 0.35419 0.64901 0.0
H1502 H 0.8242 0.36724 0.67334 0.0
H1503 H 0.80723 0.35458 0.69606 0.0
H1504 H 0.59899 0.09602 0.40298 0.0
H1505 H 0.61968 0.12088 0.38584 0.0
H1506 H 0.60588 0.07086 0.35239 0.0
H1507 H 0.5849 0.04619 0.36923 0.0
H1508 H 0.65966 0.10106 0.36122 0.0
H1509 H 0.57599 0.14325 0.34485 0.0
H1510 H 0.58086 0.13277 0.36278 0.0
H1511 H 0.57562 0.11244 0.34852 0.0
C1512 C 0.60048 0.09028 0.39198 0.0
C1513 C 0.59029 0.06914 0.38745 0.0
C1514 C 0.61242 0.10441 0.38227 0.0
C1515 C 0.61425 0.09758 0.36794 0.0
C1516 C 0.60471 0.07626 0.36347 0.0
H1517 H 0.64506 0.13241 0.28462 0.0
H1518 H 0.63457 0.11763 0.30807 0.0
C1519 C 0.59284 0.06215 0.37313 0.0
C1520 C 0.62461 0.11319 0.35722 0.0
H1521 H 0.60877 0.14869 0.3298 0.0
C1522 C 0.64873 0.11196 0.35453 0.0
C1523 C 0.61016 0.12727 0.34859 0.0
C1524 C 0.5842 0.12924 0.35129 0.0
C1525 C 0.65858 0.12356 0.34281 0.0
C1526 C 0.64386 0.13654 0.3337 0.0
C1527 C 0.61997 0.13874 0.33688 0.0
C1528 C 0.65204 0.14519 0.31977 0.0
C1529 C 0.68432 0.12077 0.33966 0.0
C1530 C 0.66556 0.16551 0.31866 0.0
C1531 C 0.67162 0.1741 0.30518 0.0
C1532 C 0.66414 0.16245 0.29273 0.0
C1533 C 0.65105 0.14183 0.29399 0.0
C1534 C 0.64503 0.13334 0.30738 0.0
H1535 H 0.69337 0.10986 0.34773 0.0
H1536 H 0.68663 0.11265 0.32896 0.0
H1537 H 0.69281 0.13816 0.33941 0.0
H1538 H 0.67097 0.17492 0.32816 0.0
H1539 H 0.68171 0.19004 0.3045 0.0
H1540 H 0.90755 0.07371 0.63534 0.0
H1541 H 0.89038 0.09683 0.61622 0.0
H1542 H 0.95166 0.14074 0.61575 0.0
H1543 H 0.96956 0.11689 0.63436 0.0
H1544 H 0.87937 0.14305 0.61117 0.0
H1545 H 0.95178 0.1125 0.57594 0.0
H1546 H 0.94715 0.10069 0.59349 0.0
H1547 H 0.96053 0.12884 0.59145 0.0
C1548 C 0.91738 0.08832 0.63121 0.0
C1549 C 0.94019 0.09306 0.63614 0.0
C1550 C 0.90741 0.10171 0.62039 0.0
C1551 C 0.91996 0.12018 0.61435 0.0
C1552 C 0.94188 0.12624 0.62007 0.0
H1553 H 0.85844 0.18994 0.53855 0.0
H1554 H 0.8747 0.18573 0.56271 0.0
C1555 C 0.95199 0.1127 0.63082 0.0
C1556 C 0.91107 0.1311 0.60109 0.0
H1557 H 0.92159 0.13363 0.56527 0.0
C1558 C 0.88872 0.14138 0.60115 0.0
C1559 C 0.92329 0.12869 0.58802 0.0
C1560 C 0.94692 0.11694 0.58711 0.0
C1561 C 0.87786 0.14839 0.58839 0.0
C1562 C 0.8898 0.1452 0.57533 0.0
C1563 C 0.91257 0.13606 0.57536 0.0
C1564 C 0.87812 0.14823 0.56134 0.0
C1565 C 0.85325 0.1579 0.58883 0.0
C1566 C 0.87456 0.12857 0.55268 0.0
C1567 C 0.8655 0.13087 0.53895 0.0
C1568 C 0.85976 0.15296 0.53354 0.0
C1569 C 0.8626 0.17267 0.54242 0.0
C1570 C 0.87184 0.17032 0.55622 0.0
H1571 H 0.8455 0.15695 0.59968 0.0
H1572 H 0.85338 0.1764 0.58545 0.0
H1573 H 0.84187 0.14811 0.58127 0.0
H1574 H 0.87924 0.11137 0.55646 0.0
H1575 H 0.86337 0.11529 0.5325 0.0
H1576 H 0.9202 0.47633 0.8638 0.0
H1577 H 0.89828 0.45428 0.84597 0.0
H1578 H 0.88518 0.40021 0.87674 0.0
H1579 H 0.90708 0.42238 0.8948 0.0
H1580 H 0.90322 0.38323 0.85201 0.0
H1581 H 0.82927 0.44162 0.83943 0.0
H1582 H 0.85659 0.45696 0.83871 0.0
H1583 H 0.84676 0.445 0.8554 0.0
C1584 C 0.91214 0.46006 0.86693 0.0
C1585 C 0.91535 0.45116 0.88075 0.0
C1586 C 0.89954 0.44748 0.85671 0.0
C1587 C 0.8897 0.4258 0.86009 0.0
C1588 C 0.89246 0.41701 0.87395 0.0
H1589 H 0.82002 0.35579 0.78709 0.0
H1590 H 0.82549 0.36971 0.81173 0.0
C1591 C 0.9051 0.42962 0.88421 0.0
C1592 C 0.87891 0.41142 0.84865 0.0
H1593 H 0.84093 0.41471 0.82054 0.0
C1594 C 0.8892 0.38985 0.84533 0.0
C1595 C 0.86035 0.41982 0.84007 0.0
C1596 C 0.84744 0.44201 0.84369 0.0
C1597 C 0.88274 0.37742 0.83302 0.0
C1598 C 0.86583 0.38699 0.8237 0.0
C1599 C 0.85415 0.40756 0.82761 0.0
C1600 C 0.86228 0.37756 0.80912 0.0
C1601 C 0.89474 0.35457 0.8298 0.0
C1602 C 0.88106 0.37768 0.79952 0.0
C1603 C 0.87803 0.3699 0.78553 0.0
C1604 C 0.85607 0.36187 0.78077 0.0
C1605 C 0.83719 0.36173 0.79043 0.0
C1606 C 0.84026 0.36968 0.80449 0.0
H1607 H 0.90098 0.34607 0.83973 0.0
H1608 H 0.88285 0.3424 0.82404 0.0
H1609 H 0.91024 0.35783 0.82296 0.0
H1610 H 0.89807 0.38417 0.80279 0.0
H1611 H 0.89298 0.37032 0.77843 0.0
H1612 H 0.54624 0.42569 0.11425 0.0
H1613 H 0.5703 0.40328 0.09771 0.0
H1614 H 0.6192 0.38819 0.13156 0.0
H1615 H 0.59495 0.41057 0.14834 0.0
H1616 H 0.64073 0.40467 0.10767 0.0
H1617 H 0.5803 0.33375 0.09245 0.0
H1618 H 0.5662 0.36154 0.09088 0.0
H1619 H 0.57581 0.35164 0.10815 0.0
C1620 C 0.5618 0.41717 0.11829 0.0
C1621 C 0.5686 0.41983 0.13264 0.0
C1622 C 0.57553 0.4043 0.10881 0.0
C1623 C 0.59629 0.39365 0.11347 0.0
C1624 C 0.60312 0.39609 0.1278 0.0
H1625 H 0.66389 0.32124 0.04133 0.0
H1626 H 0.65181 0.32676 0.06627 0.0
C1627 C 0.58933 0.40899 0.13733 0.0
C1628 C 0.61167 0.38192 0.10293 0.0
H1629 H 0.60954 0.34423 0.07468 0.0
C1630 C 0.63416 0.39103 0.10067 0.0
C1631 C 0.60338 0.36373 0.094 0.0
C1632 C 0.58019 0.35193 0.0966 0.0
C1633 C 0.64765 0.38394 0.08892 0.0
C1634 C 0.63817 0.36769 0.07908 0.0
C1635 C 0.61666 0.35698 0.0821 0.0
C1636 C 0.64842 0.36422 0.06471 0.0
C1637 C 0.67152 0.39464 0.08685 0.0
C1638 C 0.65055 0.38342 0.05562 0.0
C1639 C 0.65732 0.38036 0.04146 0.0
C1640 C 0.66198 0.35796 0.03599 0.0
C1641 C 0.66052 0.33873 0.04522 0.0
C1642 C 0.65361 0.34184 0.05945 0.0
H1643 H 0.67966 0.39921 0.09728 0.0
H1644 H 0.68342 0.38269 0.08097 0.0
H1645 H 0.66969 0.41098 0.08067 0.0
H1646 H 0.64604 0.40078 0.05931 0.0
H1647 H 0.6583 0.39558 0.0347 0.0
loop_
_geom_bond_atom_site_label_1
_geom_bond_atom_site_label_2
_geom_bond_distance
_geom_bond_site_symmetry_2
_ccdc_geom_bond_type
H0 C19 0.949 . S
H1 C20 0.950 . S
H2 C22 0.950 . S
H3 C23 0.950 . S
H4 C25 0.950 . S
H5 C28 0.950 . S
H6 C29 0.950 . S
H7 C31 0.951 . S
H8 C32 0.949 . S
H9 C34 0.949 . S
H10 C35 0.950 . S
H11 C37 0.950 . S
H12 C38 0.950 . S
H13 C40 0.947 1_565 S
H14 C43 0.950 . S
H15 C44 0.950 . S
H16 C46 0.951 . S
H17 C47 0.949 1_545 S
C18 C19 1.376 . S
C18 C23 1.386 . S
C18 C24 1.483 . S
C19 H0 0.949 . S
C19 C18 1.376 . S
C19 C20 1.397 . S
C20 H1 0.950 . S
C20 C19 1.397 . S
C20 C21 1.391 . S
C21 C20 1.391 . S
C21 C22 1.405 . S
C22 H2 0.950 . S
C22 C21 1.405 . S
C22 C23 1.367 . S
C23 H3 0.950 . S
C23 C18 1.386 . S
C23 C22 1.367 . S
C24 C18 1.483 . S
C24 C25 1.382 1_655 S
C24 C26 1.403 . S
C25 H4 0.950 . S
C25 C24 1.382 1_455 S
C25 C41 1.411 1_545 S
C26 C24 1.403 . S
C26 C27 1.489 . S
C26 C40 1.411 1_655 S
C27 C26 1.489 . S
C27 C28 1.383 . S
C27 C32 1.382 . S
C28 H5 0.950 . S
C28 C27 1.383 . S
C28 C29 1.395 . S
C29 H6 0.950 . S
C29 C28 1.395 . S
C29 C30 1.288 . S
C30 C29 1.288 . S
C30 C31 1.392 . S
C31 H7 0.951 . S
C31 C30 1.392 . S
C31 C32 1.392 . S
C32 H8 0.949 . S
C32 C27 1.382 . S
C32 C31 1.392 . S
C33 C34 1.376 . S
C33 C38 1.386 . S
C33 C39 1.483 . S
C34 H9 0.949 . S
C34 C33 1.376 . S
C34 C35 1.397 . S
C35 H10 0.950 . S
C35 C34 1.397 . S
C35 C36 1.391 . S
C36 C35 1.391 . S
C36 C37 1.405 . S
C37 H11 0.950 . S
C37 C36 1.405 . S
C37 C38 1.367 . S
C38 H12 0.950 . S
C38 C33 1.386 . S
C38 C37 1.367 . S
C39 C33 1.483 . S
C39 C40 1.382 1_565 S
C39 C41 1.403 . S
C40 H13 0.947 1_545 S
C40 C26 1.411 1_455 S
C40 C39 1.382 1_545 S
C41 C25 1.411 1_565 S
C41 C39 1.403 . S
C41 C42 1.489 . S
C42 C41 1.489 . S
C42 C43 1.383 . S
C42 C47 1.382 . S
C43 H14 0.950 . S
C43 C42 1.383 . S
C43 C44 1.395 . S
C44 H15 0.950 . S
C44 C43 1.395 . S
C44 C45 1.288 . S
C45 C44 1.288 . S
C45 C46 1.392 . S
C46 H16 0.951 . S
C46 C45 1.392 . S
C46 C47 1.392 . S
C47 H17 0.949 1_565 S
C47 C42 1.382 . S
C47 C46 1.392 . S
H48 C67 0.949 1_455 S
H49 C68 0.950 . S
H50 C70 0.950 . S
H51 C71 0.950 . S
H52 C73 0.950 . S
H53 C76 0.950 . S
H54 C77 0.950 . S
H55 C79 0.951 . S
H56 C80 0.949 . S
H57 C82 0.949 . S
H58 C83 0.950 . S
H59 C85 0.950 . S
H60 C86 0.950 . S
H61 C88 0.950 1_655 S
H62 C91 0.950 . S
H63 C92 0.950 . S
H64 C94 0.951 . S
H65 C95 0.949 . S
C66 C67 1.376 . S
C66 C71 1.386 . S
C66 C72 1.483 . S
C67 H48 0.949 1_655 S
C67 C66 1.376 . S
C67 C68 1.397 . S
C68 H49 0.950 . S
C68 C67 1.397 . S
C68 C69 1.391 . S
C69 C68 1.391 . S
C69 C70 1.405 . S
C70 H50 0.950 . S
C70 C69 1.405 . S
C70 C71 1.367 . S
C71 H51 0.950 . S
C71 C66 1.386 . S
C71 C70 1.367 . S
C72 C66 1.483 . S
C72 C73 1.382 1_655 S
C72 C74 1.403 . S
C73 H52 0.950 . S
C73 C72 1.382 1_455 S
C73 C89 1.411 . S
C74 C72 1.403 . S
C74 C75 1.489 . S
C74 C88 1.411 1_655 S
C75 C74 1.489 . S
C75 C76 1.383 . S
C75 C80 1.382 . S
C76 H53 0.950 . S
C76 C75 1.383 . S
C76 C77 1.395 . S
C77 H54 0.950 . S
C77 C76 1.395 . S
C77 C78 1.288 . S
C78 C77 1.288 . S
C78 C79 1.392 . S
C79 H55 0.951 . S
C79 C78 1.392 . S
C79 C80 1.392 . S
C80 H56 0.949 . S
C80 C75 1.382 . S
C80 C79 1.392 . S
C81 C82 1.376 . S
C81 C86 1.386 . S
C81 C87 1.483 . S
C82 H57 0.949 . S
C82 C81 1.376 . S
C82 C83 1.397 . S
C83 H58 0.950 . S
C83 C82 1.397 . S
C83 C84 1.391 . S
C84 C83 1.391 . S
C84 C85 1.405 . S
C85 H59 0.950 . S
C85 C84 1.405 . S
C85 C86 1.367 . S
C86 H60 0.950 . S
C86 C81 1.386 . S
C86 C85 1.367 . S
C87 C81 1.483 . S
C87 C88 1.382 . S
C87 C89 1.403 . S
C88 H61 0.950 1_455 S
C88 C74 1.411 1_455 S
C88 C87 1.382 . S
C89 C73 1.411 . S
C89 C87 1.403 . S
C89 C90 1.489 . S
C90 C89 1.489 . S
C90 C91 1.383 . S
C90 C95 1.382 . S
C91 H62 0.950 . S
C91 C90 1.383 . S
C91 C92 1.395 . S
C92 H63 0.950 . S
C92 C91 1.395 . S
C92 C93 1.288 . S
C93 C92 1.288 . S
C93 C94 1.392 . S
C94 H64 0.951 . S
C94 C93 1.392 . S
C94 C95 1.392 . S
C95 H65 0.949 . S
C95 C90 1.382 . S
C95 C94 1.392 . S
H96 C115 0.949 . S
H97 C116 0.950 . S
H98 C118 0.950 . S
H99 C119 0.950 . S
H100 C121 0.950 . S
H101 C124 0.950 . S
H102 C125 0.950 . S
H103 C127 0.951 . S
H104 C128 0.949 . S
H105 C130 0.949 . S
H106 C131 0.950 . S
H107 C133 0.950 . S
H108 C134 0.950 . S
H109 C136 0.950 . S
H110 C139 0.950 . S
H111 C140 0.950 . S
H112 C142 0.951 . S
H113 C143 0.949 . S
C114 C115 1.376 . S
C114 C119 1.386 . S
C114 C120 1.483 . S
C115 H96 0.949 . S
C115 C114 1.376 . S
C115 C116 1.397 . S
C116 H97 0.950 . S
C116 C115 1.397 . S
C116 C117 1.391 . S
C117 C116 1.391 . S
C117 C118 1.405 . S
C118 H98 0.950 . S
C118 C117 1.405 . S
C118 C119 1.367 . S
C119 H99 0.950 . S
C119 C114 1.386 . S
C119 C118 1.367 . S
C120 C114 1.483 . S
C120 C121 1.382 . S
C120 C122 1.403 . S
C121 H100 0.950 . S
C121 C120 1.382 . S
C121 C137 1.411 . S
C122 C120 1.403 . S
C122 C123 1.489 . S
C122 C136 1.411 . S
C123 C122 1.489 . S
C123 C124 1.383 . S
C123 C128 1.382 . S
C124 H101 0.950 . S
C124 C123 1.383 . S
C124 C125 1.395 . S
C125 H102 0.950 . S
C125 C124 1.395 . S
C125 C126 1.288 . S
C126 C125 1.288 . S
C126 C127 1.392 . S
C127 H103 0.951 . S
C127 C126 1.392 . S
C127 C128 1.392 . S
C128 H104 0.949 . S
C128 C123 1.382 . S
C128 C127 1.392 . S
C129 C130 1.376 . S
C129 C134 1.386 . S
C129 C135 1.483 . S
C130 H105 0.949 . S
C130 C129 1.376 . S
C130 C131 1.397 . S
C131 H106 0.950 . S
C131 C130 1.397 . S
C131 C132 1.391 . S
C132 C131 1.391 . S
C132 C133 1.405 . S
C133 H107 0.950 . S
C133 C132 1.405 . S
C133 C134 1.367 . S
C134 H108 0.950 . S
C134 C129 1.386 . S
C134 C133 1.367 . S
C135 C129 1.483 . S
C135 C136 1.382 . S
C135 C137 1.403 . S
C136 H109 0.950 . S
C136 C122 1.411 . S
C136 C135 1.382 . S
C137 C121 1.411 . S
C137 C135 1.403 . S
C137 C138 1.489 . S
C138 C137 1.489 . S
C138 C139 1.383 . S
C138 C143 1.382 . S
C139 H110 0.950 . S
C139 C138 1.383 . S
C139 C140 1.395 . S
C140 H111 0.950 . S
C140 C139 1.395 . S
C140 C141 1.288 . S
C141 C140 1.288 . S
C141 C142 1.392 . S
C142 H112 0.951 . S
C142 C141 1.392 . S
C142 C143 1.392 . S
C143 H113 0.949 . S
C143 C138 1.382 . S
C143 C142 1.392 . S
H144 C163 0.949 . S
H145 C164 0.950 . S
H146 C166 0.950 . S
H147 C167 0.950 . S
H148 C169 0.950 . S
H149 C172 0.950 . S
H150 C173 0.950 . S
H151 C175 0.951 . S
H152 C176 0.949 . S
H153 C178 0.949 . S
H154 C179 0.950 . S
H155 C181 0.950 . S
H156 C182 0.950 . S
H157 C184 0.950 . S
H158 C187 0.950 . S
H159 C188 0.950 . S
H160 C190 0.951 . S
H161 C191 0.949 . S
C162 C163 1.376 . S
C162 C167 1.386 . S
C162 C168 1.483 . S
C163 H144 0.949 . S
C163 C162 1.376 . S
C163 C164 1.397 . S
C164 H145 0.950 . S
C164 C163 1.397 . S
C164 C165 1.391 . S
C165 C164 1.391 . S
C165 C166 1.405 . S
C166 H146 0.950 . S
C166 C165 1.405 . S
C166 C167 1.367 . S
C167 H147 0.950 . S
C167 C162 1.386 . S
C167 C166 1.367 . S
C168 C162 1.483 . S
C168 C169 1.382 . S
C168 C170 1.403 . S
C169 H148 0.950 . S
C169 C168 1.382 . S
C169 C185 1.411 1_565 S
C170 C168 1.403 . S
C170 C171 1.489 . S
C170 C184 1.411 1_565 S
C171 C170 1.489 . S
C171 C172 1.383 . S
C171 C176 1.382 . S
C172 H149 0.950 . S
C172 C171 1.383 . S
C172 C173 1.395 . S
C173 H150 0.950 . S
C173 C172 1.395 . S
C173 C174 1.288 . S
C174 C173 1.288 . S
C174 C175 1.392 . S
C175 H151 0.951 . S
C175 C174 1.392 . S
C175 C176 1.392 . S
C176 H152 0.949 . S
C176 C171 1.382 . S
C176 C175 1.392 . S
C177 C178 1.376 . S
C177 C182 1.386 . S
C177 C183 1.483 . S
C178 H153 0.949 . S
C178 C177 1.376 . S
C178 C179 1.397 . S
C179 H154 0.950 . S
C179 C178 1.397 . S
C179 C180 1.391 . S
C180 C179 1.391 . S
C180 C181 1.405 . S
C181 H155 0.950 . S
C181 C180 1.405 . S
C181 C182 1.367 . S
C182 H156 0.950 . S
C182 C177 1.386 . S
C182 C181 1.367 . S
C183 C177 1.483 . S
C183 C184 1.382 . S
C183 C185 1.403 . S
C184 H157 0.950 . S
C184 C170 1.411 1_545 S
C184 C183 1.382 . S
C185 C169 1.411 1_545 S
C185 C183 1.403 . S
C185 C186 1.489 . S
C186 C185 1.489 . S
C186 C187 1.383 . S
C186 C191 1.382 . S
C187 H158 0.950 . S
C187 C186 1.383 . S
C187 C188 1.395 . S
C188 H159 0.950 . S
C188 C187 1.395 . S
C188 C189 1.288 . S
C189 C188 1.288 . S
C189 C190 1.392 . S
C190 H160 0.951 . S
C190 C189 1.392 . S
C190 C191 1.392 . S
C191 H161 0.949 . S
C191 C186 1.382 . S
C191 C190 1.392 . S
H192 C211 0.949 . S
H193 C212 0.950 . S
H194 C214 0.950 . S
H195 C215 0.950 . S
H196 C217 0.950 . S
H197 C220 0.950 . S
H198 C221 0.950 . S
H199 C223 0.951 . S
H200 C224 0.949 . S
H201 C226 0.949 . S
H202 C227 0.950 . S
H203 C229 0.950 . S
H204 C230 0.950 . S
H205 C232 0.950 . S
H206 C235 0.950 . S
H207 C236 0.950 . S
H208 C238 0.951 . S
H209 C239 0.949 . S
C210 C211 1.376 . S
C210 C215 1.386 . S
C210 C216 1.483 . S
C211 H192 0.949 . S
C211 C210 1.376 . S
C211 C212 1.397 . S
C212 H193 0.950 . S
C212 C211 1.397 . S
C212 C213 1.391 . S
C213 C212 1.391 . S
C213 C214 1.405 . S
C214 H194 0.950 . S
C214 C213 1.405 . S
C214 C215 1.367 . S
C215 H195 0.950 . S
C215 C210 1.386 . S
C215 C214 1.367 . S
C216 C210 1.483 . S
C216 C217 1.382 1_455 S
C216 C218 1.403 . S
C217 H196 0.950 . S
C217 C216 1.382 1_655 S
C217 C233 1.411 . S
C218 C216 1.403 . S
C218 C219 1.489 . S
C218 C232 1.411 . S
C219 C218 1.489 . S
C219 C220 1.383 . S
C219 C224 1.382 . S
C220 H197 0.950 . S
C220 C219 1.383 . S
C220 C221 1.395 . S
C221 H198 0.950 . S
C221 C220 1.395 . S
C221 C222 1.288 . S
C222 C221 1.288 . S
C222 C223 1.392 . S
C223 H199 0.951 . S
C223 C222 1.392 . S
C223 C224 1.392 . S
C224 H200 0.949 . S
C224 C219 1.382 . S
C224 C223 1.392 . S
C225 C226 1.376 . S
C225 C230 1.386 . S
C225 C231 1.483 . S
C226 H201 0.949 . S
C226 C225 1.376 . S
C226 C227 1.397 . S
C227 H202 0.950 . S
C227 C226 1.397 . S
C227 C228 1.391 . S
C228 C227 1.391 . S
C228 C229 1.405 . S
C229 H203 0.950 . S
C229 C228 1.405 . S
C229 C230 1.367 . S
C230 H204 0.950 . S
C230 C225 1.386 . S
C230 C229 1.367 . S
C231 C225 1.483 . S
C231 C232 1.382 1_655 S
C231 C233 1.403 . S
C232 H205 0.950 . S
C232 C218 1.411 . S
C232 C231 1.382 1_455 S
C233 C217 1.411 . S
C233 C231 1.403 . S
C233 C234 1.489 . S
C234 C233 1.489 . S
C234 C235 1.383 . S
C234 C239 1.382 . S
C235 H206 0.950 . S
C235 C234 1.383 . S
C235 C236 1.395 . S
C236 H207 0.950 . S
C236 C235 1.395 . S
C236 C237 1.288 . S
C237 C236 1.288 . S
C237 C238 1.392 . S
C238 H208 0.951 . S
C238 C237 1.392 . S
C238 C239 1.392 . S
C239 H209 0.949 . S
C239 C234 1.382 . S
C239 C238 1.392 . S
H240 C259 0.949 . S
H241 C260 0.950 . S
H242 C262 0.950 . S
H243 C263 0.950 . S
H244 C265 0.950 . S
H245 C268 0.950 . S
H246 C269 0.950 . S
H247 C271 0.951 . S
H248 C272 0.949 . S
H249 C274 0.949 . S
H250 C275 0.950 . S
H251 C277 0.950 . S
H252 C278 0.950 . S
H253 C280 0.950 . S
H254 C283 0.950 . S
H255 C284 0.950 . S
H256 C286 0.951 . S
H257 C287 0.949 . S
C258 C259 1.376 . S
C258 C263 1.386 . S
C258 C264 1.483 . S
C259 H240 0.949 . S
C259 C258 1.376 . S
C259 C260 1.397 . S
C260 H241 0.950 . S
C260 C259 1.397 . S
C260 C261 1.391 . S
C261 C260 1.391 . S
C261 C262 1.405 . S
C262 H242 0.950 . S
C262 C261 1.405 . S
C262 C263 1.367 . S
C263 H243 0.950 . S
C263 C258 1.386 . S
C263 C262 1.367 . S
C264 C258 1.483 . S
C264 C265 1.382 . S
C264 C266 1.403 . S
C265 H244 0.950 . S
C265 C264 1.382 . S
C265 C281 1.411 . S
C266 C264 1.403 . S
C266 C267 1.489 . S
C266 C280 1.411 . S
C267 C266 1.489 . S
C267 C268 1.383 . S
C267 C272 1.382 . S
C268 H245 0.950 . S
C268 C267 1.383 . S
C268 C269 1.395 . S
C269 H246 0.950 . S
C269 C268 1.395 . S
C269 C270 1.288 . S
C270 C269 1.288 . S
C270 C271 1.392 . S
C271 H247 0.951 . S
C271 C270 1.392 . S
C271 C272 1.392 . S
C272 H248 0.949 . S
C272 C267 1.382 . S
C272 C271 1.392 . S
C273 C274 1.376 . S
C273 C278 1.386 . S
C273 C279 1.483 . S
C274 H249 0.949 . S
C274 C273 1.376 . S
C274 C275 1.397 . S
C275 H250 0.950 . S
C275 C274 1.397 . S
C275 C276 1.391 . S
C276 C275 1.391 . S
C276 C277 1.405 . S
C277 H251 0.950 . S
C277 C276 1.405 . S
C277 C278 1.367 . S
C278 H252 0.950 . S
C278 C273 1.386 . S
C278 C277 1.367 . S
C279 C273 1.483 . S
C279 C280 1.382 . S
C279 C281 1.403 . S
C280 H253 0.950 . S
C280 C266 1.411 . S
C280 C279 1.382 . S
C281 C265 1.411 . S
C281 C279 1.403 . S
C281 C282 1.489 . S
C282 C281 1.489 . S
C282 C283 1.383 . S
C282 C287 1.382 . S
C283 H254 0.950 . S
C283 C282 1.383 . S
C283 C284 1.395 . S
C284 H255 0.950 . S
C284 C283 1.395 . S
C284 C285 1.288 . S
C285 C284 1.288 . S
C285 C286 1.392 . S
C286 H256 0.951 . S
C286 C285 1.392 . S
C286 C287 1.392 . S
C287 H257 0.949 . S
C287 C282 1.382 . S
C287 C286 1.392 . S
H288 C307 0.949 . S
H289 C308 0.950 . S
H290 C310 0.950 . S
H291 C311 0.950 . S
H292 C313 0.946 1_565 S
H293 C316 0.950 . S
H294 C317 0.950 . S
H295 C319 0.951 . S
H296 C320 0.949 1_545 S
H297 C322 0.949 . S
H298 C323 0.950 . S
H299 C325 0.950 . S
H300 C326 0.950 . S
H301 C328 0.950 . S
H302 C331 0.950 . S
H303 C332 0.950 . S
H304 C334 0.951 . S
H305 C335 0.952 1_565 S
C306 C307 1.376 . S
C306 C311 1.386 . S
C306 C312 1.483 . S
C307 H288 0.949 . S
C307 C306 1.376 . S
C307 C308 1.397 . S
C308 H289 0.950 . S
C308 C307 1.397 . S
C308 C309 1.391 . S
C309 C308 1.391 . S
C309 C310 1.405 . S
C310 H290 0.950 . S
C310 C309 1.405 . S
C310 C311 1.367 . S
C311 H291 0.950 . S
C311 C306 1.386 . S
C311 C310 1.367 . S
C312 C306 1.483 . S
C312 C313 1.368 1_565 S
C312 C314 1.403 . S
C313 H292 0.946 1_545 S
C313 C312 1.368 1_545 S
C313 C329 1.429 . S
C314 C312 1.403 . S
C314 C315 1.489 . S
C314 C328 1.411 1_565 S
C315 C314 1.489 . S
C315 C316 1.383 . S
C315 C320 1.382 . S
C316 H293 0.950 . S
C316 C315 1.383 . S
C316 C317 1.395 . S
C317 H294 0.950 . S
C317 C316 1.395 . S
C317 C318 1.288 . S
C318 C317 1.288 . S
C318 C319 1.392 . S
C319 H295 0.951 . S
C319 C318 1.392 . S
C319 C320 1.392 . S
C320 H296 0.949 1_565 S
C320 C315 1.382 . S
C320 C319 1.392 . S
C321 C322 1.376 . S
C321 C326 1.386 . S
C321 C327 1.483 . S
C322 H297 0.949 . S
C322 C321 1.376 . S
C322 C323 1.397 . S
C323 H298 0.950 . S
C323 C322 1.397 . S
C323 C324 1.391 . S
C324 C323 1.391 . S
C324 C325 1.405 . S
C325 H299 0.950 . S
C325 C324 1.405 . S
C325 C326 1.367 . S
C326 H300 0.950 . S
C326 C321 1.386 . S
C326 C325 1.367 . S
C327 C321 1.483 . S
C327 C328 1.382 . S
C327 C329 1.403 . S
C328 H301 0.950 . S
C328 C314 1.411 1_545 S
C328 C327 1.382 . S
C329 C313 1.429 . S
C329 C327 1.403 . S
C329 C330 1.489 . S
C330 C329 1.489 . S
C330 C331 1.383 . S
C330 C335 1.382 . S
C331 H302 0.950 . S
C331 C330 1.383 . S
C331 C332 1.395 . S
C332 H303 0.950 . S
C332 C331 1.395 . S
C332 C333 1.288 . S
C333 C332 1.288 . S
C333 C334 1.392 . S
C334 H304 0.951 . S
C334 C333 1.392 . S
C334 C335 1.392 . S
C335 H305 0.952 1_545 S
C335 C330 1.382 . S
C335 C334 1.392 . S
H336 C355 0.949 1_455 S
H337 C356 0.950 . S
H338 C358 0.950 . S
H339 C359 0.950 . S
H340 C361 0.950 . S
H341 C364 0.950 . S
H342 C365 0.950 . S
H343 C367 0.951 . S
H344 C368 0.949 . S
H345 C370 0.949 . S
H346 C371 0.950 . S
H347 C373 0.950 . S
H348 C374 0.950 . S
H349 C376 0.950 . S
H350 C379 0.950 . S
H351 C380 0.950 . S
H352 C382 0.951 . S
H353 C383 0.949 1_545 S
C354 C355 1.376 . S
C354 C359 1.386 . S
C354 C360 1.483 . S
C355 H336 0.949 1_655 S
C355 C354 1.376 . S
C355 C356 1.397 . S
C356 H337 0.950 . S
C356 C355 1.397 . S
C356 C357 1.391 . S
C357 C356 1.391 . S
C357 C358 1.405 . S
C358 H338 0.950 . S
C358 C357 1.405 . S
C358 C359 1.367 . S
C359 H339 0.950 . S
C359 C354 1.386 . S
C359 C358 1.367 . S
C360 C354 1.483 . S
C360 C361 1.382 1_655 S
C360 C362 1.403 . S
C361 H340 0.950 . S
C361 C360 1.382 1_455 S
C361 C377 1.411 1_545 S
C362 C360 1.403 . S
C362 C363 1.489 . S
C362 C376 1.411 1_655 S
C363 C362 1.489 . S
C363 C364 1.383 . S
C363 C368 1.382 . S
C364 H341 0.950 . S
C364 C363 1.383 . S
C364 C365 1.395 . S
C365 H342 0.950 . S
C365 C364 1.395 . S
C365 C366 1.288 . S
C366 C365 1.288 . S
C366 C367 1.392 . S
C367 H343 0.951 . S
C367 C366 1.392 . S
C367 C368 1.392 . S
C368 H344 0.949 . S
C368 C363 1.382 . S
C368 C367 1.392 . S
C369 C370 1.376 . S
C369 C374 1.386 . S
C369 C375 1.483 . S
C370 H345 0.949 . S
C370 C369 1.376 . S
C370 C371 1.397 . S
C371 H346 0.950 . S
C371 C370 1.397 . S
C371 C372 1.391 . S
C372 C371 1.391 . S
C372 C373 1.405 . S
C373 H347 0.950 . S
C373 C372 1.405 . S
C373 C374 1.367 . S
C374 H348 0.950 . S
C374 C369 1.386 . S
C374 C373 1.367 . S
C375 C369 1.483 . S
C375 C376 1.382 1_565 S
C375 C377 1.403 . S
C376 H349 0.950 . S
C376 C362 1.411 1_455 S
C376 C375 1.382 1_545 S
C377 C361 1.411 1_565 S
C377 C375 1.403 . S
C377 C378 1.489 . S
C378 C377 1.489 . S
C378 C379 1.383 . S
C378 C383 1.382 . S
C379 H350 0.950 . S
C379 C378 1.383 . S
C379 C380 1.395 . S
C380 H351 0.950 . S
C380 C379 1.395 . S
C380 C381 1.288 . S
C381 C380 1.288 . S
C381 C382 1.392 . S
C382 H352 0.951 . S
C382 C381 1.392 . S
C382 C383 1.392 . S
C383 H353 0.949 1_565 S
C383 C378 1.382 . S
C383 C382 1.392 . S
Co384 O385 2.207 1_554 S
Co384 O386 2.084 1_554 S
Co384 O388 2.004 . S
Co384 O394 2.021 1_554 S
Co384 O396 2.137 . S
Co384 O397 2.244 . S
O385 Co384 2.207 1_556 S
O385 C392 1.253 . S
O386 Co384 2.084 1_556 S
O386 C392 1.266 . S
C387 O396 1.247 . S
C387 O397 1.272 . S
O388 Co384 2.004 . S
O388 C393 1.259 . S
Co389 O390 2.061 . S
Co389 O395 2.052 1_554 S
Co389 O397 2.135 . S
O390 Co389 2.061 . S
O390 C393 1.235 . S
C391 O394 1.238 . S
C391 O395 1.241 . S
C392 O385 1.253 . S
C392 O386 1.266 . S
C393 O388 1.259 . S
C393 O390 1.235 . S
O394 Co384 2.021 1_556 S
O394 C391 1.238 . S
O395 Co389 2.052 1_556 S
O395 C391 1.241 . S
O396 Co384 2.137 . S
O396 C387 1.247 . S
O397 Co384 2.244 . S
O397 C387 1.272 . S
O397 Co389 2.135 . S
Co398 O399 2.216 . S
Co398 O400 2.091 . S
Co398 O402 2.004 . S
Co398 O408 2.021 . S
Co398 O410 2.137 . S
Co398 O411 2.244 . S
O399 Co398 2.216 . S
O399 C406 1.247 . S
O400 Co398 2.091 . S
O400 C406 1.261 . S
C401 O410 1.247 . S
C401 O411 1.272 . S
O402 Co398 2.004 . S
O402 C407 1.259 . S
Co403 O404 2.061 . S
Co403 O409 2.052 . S
Co403 O411 2.135 . S
O404 Co403 2.061 . S
O404 C407 1.235 . S
C405 O408 1.238 . S
C405 O409 1.241 . S
C406 O399 1.247 . S
C406 O400 1.261 . S
C407 O402 1.259 . S
C407 O404 1.235 . S
O408 Co398 2.021 . S
O408 C405 1.238 . S
O409 Co403 2.052 . S
O409 C405 1.241 . S
O410 Co398 2.137 . S
O410 C401 1.247 . S
O411 Co398 2.244 . S
O411 C401 1.272 . S
O411 Co403 2.135 . S
Co412 O413 2.216 . S
Co412 O414 2.091 . S
Co412 O416 2.004 . S
Co412 O422 2.021 . S
Co412 O424 2.137 . S
Co412 O425 2.244 . S
O413 Co412 2.216 . S
O413 C420 1.247 . S
O414 Co412 2.091 . S
O414 C420 1.261 . S
C415 O424 1.247 . S
C415 O425 1.272 . S
O416 Co412 2.004 . S
O416 C421 1.259 . S
Co417 O418 2.061 . S
Co417 O423 2.052 . S
Co417 O425 2.135 . S
O418 Co417 2.061 . S
O418 C421 1.235 . S
C419 O422 1.238 . S
C419 O423 1.241 . S
C420 O413 1.247 . S
C420 O414 1.261 . S
C421 O416 1.259 . S
C421 O418 1.235 . S
O422 Co412 2.021 . S
O422 C419 1.238 . S
O423 Co417 2.052 . S
O423 C419 1.241 . S
O424 Co412 2.137 . S
O424 C415 1.247 . S
O425 Co412 2.244 . S
O425 C415 1.272 . S
O425 Co417 2.135 . S
Co426 O427 2.216 . S
Co426 O428 2.091 . S
Co426 O430 2.004 . S
Co426 O436 2.021 . S
Co426 O438 2.137 . S
Co426 O439 2.244 . S
O427 Co426 2.216 . S
O427 C434 1.247 . S
O428 Co426 2.091 . S
O428 C434 1.261 . S
C429 O438 1.247 . S
C429 O439 1.272 . S
O430 Co426 2.004 . S
O430 C435 1.259 . S
Co431 O432 2.061 . S
Co431 O437 2.052 . S
Co431 O439 2.135 . S
O432 Co431 2.061 . S
O432 C435 1.235 . S
C433 O436 1.238 . S
C433 O437 1.241 . S
C434 O427 1.247 . S
C434 O428 1.261 . S
C435 O430 1.259 . S
C435 O432 1.235 . S
O436 Co426 2.021 . S
O436 C433 1.238 . S
O437 Co431 2.052 . S
O437 C433 1.241 . S
O438 Co426 2.137 . S
O438 C429 1.247 . S
O439 Co426 2.244 . S
O439 C429 1.272 . S
O439 Co431 2.135 . S
Co440 O441 2.216 . S
Co440 O442 2.091 . S
Co440 O444 2.004 . S
Co440 O450 2.021 . S
Co440 O452 2.137 . S
Co440 O453 2.244 . S
O441 Co440 2.216 . S
O441 C448 1.247 . S
O442 Co440 2.091 . S
O442 C448 1.261 . S
C443 O452 1.247 . S
C443 O453 1.272 . S
O444 Co440 2.004 . S
O444 C449 1.259 . S
Co445 O446 2.061 . S
Co445 O451 2.052 . S
Co445 O453 2.135 . S
O446 Co445 2.061 . S
O446 C449 1.235 . S
C447 O450 1.238 . S
C447 O451 1.241 . S
C448 O441 1.247 . S
C448 O442 1.261 . S
C449 O444 1.259 . S
C449 O446 1.235 . S
O450 Co440 2.021 . S
O450 C447 1.238 . S
O451 Co445 2.052 . S
O451 C447 1.241 . S
O452 Co440 2.137 . S
O452 C443 1.247 . S
O453 Co440 2.244 . S
O453 C443 1.272 . S
O453 Co445 2.135 . S
Co454 O455 2.216 . S
Co454 O456 2.091 . S
Co454 O458 2.004 . S
Co454 O464 2.021 . S
Co454 O466 2.137 . S
Co454 O467 2.244 . S
O455 Co454 2.216 . S
O455 C462 1.247 . S
O456 Co454 2.091 . S
O456 C462 1.261 . S
C457 O466 1.247 . S
C457 O467 1.272 . S
O458 Co454 2.004 . S
O458 C463 1.259 . S
Co459 O460 2.061 . S
Co459 O465 2.052 . S
Co459 O467 2.135 . S
O460 Co459 2.061 . S
O460 C463 1.235 . S
C461 O464 1.238 . S
C461 O465 1.241 . S
C462 O455 1.247 . S
C462 O456 1.261 . S
C463 O458 1.259 . S
C463 O460 1.235 . S
O464 Co454 2.021 . S
O464 C461 1.238 . S
O465 Co459 2.052 . S
O465 C461 1.241 . S
O466 Co454 2.137 . S
O466 C457 1.247 . S
O467 Co454 2.244 . S
O467 C457 1.272 . S
O467 Co459 2.135 . S
Co468 O469 2.216 1_556 S
Co468 O470 2.091 1_556 S
Co468 O472 2.004 . S
Co468 O478 2.021 1_556 S
Co468 O480 2.137 . S
Co468 O481 2.244 . S
O469 Co468 2.216 1_554 S
O469 C476 1.247 . S
O470 Co468 2.091 1_554 S
O470 C476 1.261 . S
C471 O480 1.247 . S
C471 O481 1.272 . S
O472 Co468 2.004 . S
O472 C477 1.259 . S
Co473 O474 2.061 . S
Co473 O479 2.052 1_556 S
Co473 O481 2.135 . S
O474 Co473 2.061 . S
O474 C477 1.235 . S
C475 O478 1.238 . S
C475 O479 1.241 . S
C476 O469 1.247 . S
C476 O470 1.261 . S
C477 O472 1.259 . S
C477 O474 1.235 . S
O478 Co468 2.021 1_554 S
O478 C475 1.238 . S
O479 Co473 2.052 1_554 S
O479 C475 1.241 . S
O480 Co468 2.137 . S
O480 C471 1.247 . S
O481 Co468 2.244 . S
O481 C471 1.272 . S
O481 Co473 2.135 . S
Co482 O483 2.216 . S
Co482 O484 2.091 . S
Co482 O486 2.004 . S
Co482 O492 2.021 . S
Co482 O494 2.137 . S
Co482 O495 2.244 . S
O483 Co482 2.216 . S
O483 C490 1.247 . S
O484 Co482 2.091 . S
O484 C490 1.261 . S
C485 O494 1.247 . S
C485 O495 1.272 . S
O486 Co482 2.004 . S
O486 C491 1.259 . S
Co487 O488 2.061 . S
Co487 O493 2.052 . S
Co487 O495 2.135 . S
O488 Co487 2.061 . S
O488 C491 1.235 . S
C489 O492 1.238 . S
C489 O493 1.241 . S
C490 O483 1.247 . S
C490 O484 1.261 . S
C491 O486 1.259 . S
C491 O488 1.235 . S
O492 Co482 2.021 . S
O492 C489 1.238 . S
O493 Co487 2.052 . S
O493 C489 1.241 . S
O494 Co482 2.137 . S
O494 C485 1.247 . S
O495 Co482 2.244 . S
O495 C485 1.272 . S
O495 Co487 2.135 . S
H496 C504 0.929 . S
H497 C506 0.930 . S
H498 C508 0.930 . S
H499 C511 0.929 . S
H500 C514 0.930 . S
H501 C516 0.960 . S
H502 C516 0.960 . S
H503 C516 0.960 . S
C504 H496 0.929 . S
C504 C505 1.377 . S
C504 C506 1.384 . S
C505 C504 1.377 . S
C505 C511 1.390 . S
C506 H497 0.930 . S
C506 C504 1.384 . S
C506 C507 1.372 . S
C507 C506 1.372 . S
C507 C508 1.400 . S
C507 C512 1.490 . S
C508 H498 0.930 . S
C508 C507 1.400 . S
C508 C511 1.386 . S
H509 C525 0.930 . S
H510 C526 0.931 . S
C511 H499 0.929 . S
C511 C505 1.390 . S
C511 C508 1.386 . S
C512 C507 1.490 . S
C512 C514 1.395 . S
C512 C515 1.403 . S
H513 C519 0.930 . S
C514 H500 0.930 . S
C514 C512 1.395 . S
C514 C517 1.403 . S
C515 C512 1.403 . S
C515 C516 1.524 . S
C515 C519 1.400 . S
C516 H501 0.960 . S
C516 H502 0.960 . S
C516 H503 0.960 . S
C516 C515 1.524 . S
C517 C514 1.403 . S
C517 C518 1.392 . S
C517 C521 1.495 . S
C518 C517 1.392 . S
C518 C519 1.385 . S
C518 C520 1.478 . S
C519 H513 0.930 . S
C519 C515 1.400 . S
C519 C518 1.385 . S
C520 C518 1.478 . S
C520 C522 1.381 . S
C520 C526 1.383 . S
C521 C517 1.495 . S
C521 H527 0.959 . S
C521 H528 0.961 . S
C521 H529 0.960 . S
C522 C520 1.381 . S
C522 C523 1.394 . S
C522 H530 0.930 . S
C523 C522 1.394 . S
C523 C524 1.383 . S
C523 H531 0.929 . S
C524 C523 1.383 . S
C524 C525 1.377 . S
C525 H509 0.930 . S
C525 C524 1.377 . S
C525 C526 1.379 . S
C526 H510 0.931 . S
C526 C520 1.383 . S
C526 C525 1.379 . S
H527 C521 0.959 . S
H528 C521 0.961 . S
H529 C521 0.960 . S
H530 C522 0.930 . S
H531 C523 0.929 . S
H532 C540 0.929 . S
H533 C542 0.930 . S
H534 C544 0.930 . S
H535 C547 0.929 . S
H536 C550 0.930 . S
H537 C552 0.960 . S
H538 C552 0.960 . S
H539 C552 0.960 . S
C540 H532 0.929 . S
C540 C541 1.377 . S
C540 C542 1.384 . S
C541 C540 1.377 . S
C541 C547 1.390 . S
C542 H533 0.930 . S
C542 C540 1.384 . S
C542 C543 1.372 . S
C543 C542 1.372 . S
C543 C544 1.400 . S
C543 C548 1.490 . S
C544 H534 0.930 . S
C544 C543 1.400 . S
C544 C547 1.386 . S
H545 C561 0.930 . S
H546 C562 0.931 . S
C547 H535 0.929 . S
C547 C541 1.390 . S
C547 C544 1.386 . S
C548 C543 1.490 . S
C548 C550 1.395 . S
C548 C551 1.403 . S
H549 C555 0.930 . S
C550 H536 0.930 . S
C550 C548 1.395 . S
C550 C553 1.403 . S
C551 C548 1.403 . S
C551 C552 1.524 . S
C551 C555 1.400 . S
C552 H537 0.960 . S
C552 H538 0.960 . S
C552 H539 0.960 . S
C552 C551 1.524 . S
C553 C550 1.403 . S
C553 C554 1.392 . S
C553 C557 1.495 . S
C554 C553 1.392 . S
C554 C555 1.385 . S
C554 C556 1.478 . S
C555 H549 0.930 . S
C555 C551 1.400 . S
C555 C554 1.385 . S
C556 C554 1.478 . S
C556 C558 1.381 . S
C556 C562 1.383 . S
C557 C553 1.495 . S
C557 H563 0.959 . S
C557 H564 0.961 . S
C557 H565 0.960 . S
C558 C556 1.381 . S
C558 C559 1.394 . S
C558 H566 0.930 . S
C559 C558 1.394 . S
C559 C560 1.383 . S
C559 H567 0.929 . S
C560 C559 1.383 . S
C560 C561 1.377 . S
C561 H545 0.930 . S
C561 C560 1.377 . S
C561 C562 1.379 . S
C562 H546 0.931 . S
C562 C556 1.383 . S
C562 C561 1.379 . S
H563 C557 0.959 . S
H564 C557 0.961 . S
H565 C557 0.960 . S
H566 C558 0.930 . S
H567 C559 0.929 . S
H568 C576 0.929 . S
H569 C578 0.930 . S
H570 C580 0.930 . S
H571 C583 0.929 . S
H572 C586 0.930 . S
H573 C588 0.960 . S
H574 C588 0.960 . S
H575 C588 0.960 . S
C576 H568 0.929 . S
C576 C577 1.377 . S
C576 C578 1.384 . S
C577 C576 1.377 . S
C577 C583 1.390 . S
C578 H569 0.930 . S
C578 C576 1.384 . S
C578 C579 1.372 . S
C579 C578 1.372 . S
C579 C580 1.400 . S
C579 C584 1.490 . S
C580 H570 0.930 . S
C580 C579 1.400 . S
C580 C583 1.386 . S
H581 C597 0.930 . S
H582 C598 0.931 . S
C583 H571 0.929 . S
C583 C577 1.390 . S
C583 C580 1.386 . S
C584 C579 1.490 . S
C584 C586 1.395 . S
C584 C587 1.403 . S
H585 C591 0.930 . S
C586 H572 0.930 . S
C586 C584 1.395 . S
C586 C589 1.403 . S
C587 C584 1.403 . S
C587 C588 1.524 . S
C587 C591 1.400 . S
C588 H573 0.960 . S
C588 H574 0.960 . S
C588 H575 0.960 . S
C588 C587 1.524 . S
C589 C586 1.403 . S
C589 C590 1.392 . S
C589 C593 1.495 . S
C590 C589 1.392 . S
C590 C591 1.385 . S
C590 C592 1.478 . S
C591 H585 0.930 . S
C591 C587 1.400 . S
C591 C590 1.385 . S
C592 C590 1.478 . S
C592 C594 1.381 . S
C592 C598 1.383 . S
C593 C589 1.495 . S
C593 H599 0.959 . S
C593 H600 0.961 . S
C593 H601 0.960 . S
C594 C592 1.381 . S
C594 C595 1.394 . S
C594 H602 0.930 . S
C595 C594 1.394 . S
C595 C596 1.383 . S
C595 H603 0.929 . S
C596 C595 1.383 . S
C596 C597 1.377 . S
C597 H581 0.930 . S
C597 C596 1.377 . S
C597 C598 1.379 . S
C598 H582 0.931 . S
C598 C592 1.383 . S
C598 C597 1.379 . S
H599 C593 0.959 . S
H600 C593 0.961 . S
H601 C593 0.960 . S
H602 C594 0.930 . S
H603 C595 0.929 . S
H604 C612 0.929 . S
H605 C614 0.930 . S
H606 C616 0.930 . S
H607 C619 0.929 . S
H608 C622 0.930 . S
H609 C624 0.960 . S
H610 C624 0.960 . S
H611 C624 0.960 . S
C612 H604 0.929 . S
C612 C613 1.377 . S
C612 C614 1.384 . S
C613 C612 1.377 . S
C613 C619 1.390 . S
C614 H605 0.930 . S
C614 C612 1.384 . S
C614 C615 1.372 . S
C615 C614 1.372 . S
C615 C616 1.400 . S
C615 C620 1.490 . S
C616 H606 0.930 . S
C616 C615 1.400 . S
C616 C619 1.386 . S
H617 C633 0.930 1_556 S
H618 C634 0.915 1_556 S
C619 H607 0.929 . S
C619 C613 1.390 . S
C619 C616 1.386 . S
C620 C615 1.490 . S
C620 C622 1.395 . S
C620 C623 1.403 . S
H621 C627 0.930 . S
C622 H608 0.930 . S
C622 C620 1.395 . S
C622 C625 1.403 . S
C623 C620 1.403 . S
C623 C624 1.524 . S
C623 C627 1.400 . S
C624 H609 0.960 . S
C624 H610 0.960 . S
C624 H611 0.960 . S
C624 C623 1.524 . S
C625 C622 1.403 . S
C625 C626 1.392 . S
C625 C629 1.495 . S
C626 C625 1.392 . S
C626 C627 1.385 . S
C626 C628 1.478 . S
C627 H621 0.930 . S
C627 C623 1.400 . S
C627 C626 1.385 . S
C628 C626 1.478 . S
C628 C630 1.381 . S
C628 C634 1.383 . S
C629 C625 1.495 . S
C629 H635 0.959 . S
C629 H636 0.998 . S
C629 H637 0.960 . S
C630 C628 1.381 . S
C630 C631 1.394 . S
C630 H638 0.930 . S
C631 C630 1.394 . S
C631 C632 1.383 . S
C631 H639 0.929 . S
C632 C631 1.383 . S
C632 C633 1.377 . S
C633 H617 0.930 1_554 S
C633 C632 1.377 . S
C633 C634 1.379 . S
C634 H618 0.915 1_554 S
C634 C628 1.383 . S
C634 C633 1.379 . S
H635 C629 0.959 . S
H636 C629 0.998 . S
H637 C629 0.960 . S
H638 C630 0.930 . S
H639 C631 0.929 . S
H640 C648 0.929 . S
H641 C650 0.930 . S
H642 C652 0.930 . S
H643 C655 0.929 . S
H644 C658 0.930 . S
H645 C660 1.005 . S
H646 C660 0.986 . S
H647 C660 0.935 1_556 S
C648 H640 0.929 . S
C648 C649 1.377 . S
C648 C650 1.384 . S
C649 C648 1.377 . S
C649 C655 1.390 . S
C650 H641 0.930 . S
C650 C648 1.384 . S
C650 C651 1.372 . S
C651 C650 1.372 . S
C651 C652 1.400 . S
C651 C656 1.490 . S
C652 H642 0.930 . S
C652 C651 1.400 . S
C652 C655 1.386 . S
H653 C669 0.930 . S
H654 C670 0.931 . S
C655 H643 0.929 . S
C655 C649 1.390 . S
C655 C652 1.386 . S
C656 C651 1.490 . S
C656 C658 1.395 . S
C656 C659 1.403 . S
H657 C663 0.955 . S
C658 H644 0.930 . S
C658 C656 1.395 . S
C658 C661 1.403 . S
C659 C656 1.403 . S
C659 C660 1.482 1_556 S
C659 C663 1.400 . S
C660 H645 1.005 . S
C660 H646 0.986 . S
C660 H647 0.935 1_554 S
C660 C659 1.482 1_554 S
C661 C658 1.403 . S
C661 C662 1.392 . S
C661 C665 1.495 . S
C662 C661 1.392 . S
C662 C663 1.385 . S
C662 C664 1.478 . S
C663 H657 0.955 . S
C663 C659 1.400 . S
C663 C662 1.385 . S
C664 C662 1.478 . S
C664 C666 1.381 . S
C664 C670 1.383 . S
C665 C661 1.495 . S
C665 H671 0.959 . S
C665 H672 0.961 . S
C665 H673 0.960 . S
C666 C664 1.381 . S
C666 C667 1.394 . S
C666 H674 0.930 . S
C667 C666 1.394 . S
C667 C668 1.383 . S
C667 H675 0.929 . S
C668 C667 1.383 . S
C668 C669 1.377 . S
C669 H653 0.930 . S
C669 C668 1.377 . S
C669 C670 1.379 . S
C670 H654 0.931 . S
C670 C664 1.383 . S
C670 C669 1.379 . S
H671 C665 0.959 . S
H672 C665 0.961 . S
H673 C665 0.960 . S
H674 C666 0.930 . S
H675 C667 0.929 . S
H676 C684 0.929 . S
H677 C686 0.930 . S
H678 C688 0.930 . S
H679 C691 0.929 . S
H680 C694 0.930 . S
H681 C696 0.960 . S
H682 C696 0.960 . S
H683 C696 0.960 . S
C684 H676 0.929 . S
C684 C685 1.377 . S
C684 C686 1.384 . S
C685 C684 1.377 . S
C685 C691 1.390 . S
C686 H677 0.930 . S
C686 C684 1.384 . S
C686 C687 1.372 . S
C687 C686 1.372 . S
C687 C688 1.400 . S
C687 C692 1.490 . S
C688 H678 0.930 . S
C688 C687 1.400 . S
C688 C691 1.386 . S
H689 C705 0.930 . S
H690 C706 0.931 . S
C691 H679 0.929 . S
C691 C685 1.390 . S
C691 C688 1.386 . S
C692 C687 1.490 . S
C692 C694 1.395 . S
C692 C695 1.403 . S
H693 C699 0.930 . S
C694 H680 0.930 . S
C694 C692 1.395 . S
C694 C697 1.403 . S
C695 C692 1.403 . S
C695 C696 1.524 . S
C695 C699 1.400 . S
C696 H681 0.960 . S
C696 H682 0.960 . S
C696 H683 0.960 . S
C696 C695 1.524 . S
C697 C694 1.403 . S
C697 C698 1.392 . S
C697 C701 1.495 . S
C698 C697 1.392 . S
C698 C699 1.385 . S
C698 C700 1.478 . S
C699 H693 0.930 . S
C699 C695 1.400 . S
C699 C698 1.385 . S
C700 C698 1.478 . S
C700 C702 1.381 . S
C700 C706 1.383 . S
C701 C697 1.495 . S
C701 H707 0.959 . S
C701 H708 0.961 . S
C701 H709 0.960 . S
C702 C700 1.381 . S
C702 C703 1.394 . S
C702 H710 0.930 . S
C703 C702 1.394 . S
C703 C704 1.383 . S
C703 H711 0.929 . S
C704 C703 1.383 . S
C704 C705 1.377 . S
C705 H689 0.930 . S
C705 C704 1.377 . S
C705 C706 1.379 . S
C706 H690 0.931 . S
C706 C700 1.383 . S
C706 C705 1.379 . S
H707 C701 0.959 . S
H708 C701 0.961 . S
H709 C701 0.960 . S
H710 C702 0.930 . S
H711 C703 0.929 . S
H712 C720 0.929 . S
H713 C722 0.930 . S
H714 C724 0.930 . S
H715 C727 0.929 . S
H716 C730 0.930 . S
H717 C732 0.960 . S
H718 C732 0.960 . S
H719 C732 0.960 . S
C720 H712 0.929 . S
C720 C721 1.377 . S
C720 C722 1.384 . S
C721 C720 1.377 . S
C721 C727 1.390 . S
C722 H713 0.930 . S
C722 C720 1.384 . S
C722 C723 1.372 . S
C723 C722 1.372 . S
C723 C724 1.400 . S
C723 C728 1.490 . S
C724 H714 0.930 . S
C724 C723 1.400 . S
C724 C727 1.386 . S
H725 C741 0.930 . S
H726 C742 0.931 . S
C727 H715 0.929 . S
C727 C721 1.390 . S
C727 C724 1.386 . S
C728 C723 1.490 . S
C728 C730 1.395 . S
C728 C731 1.403 . S
H729 C735 0.930 . S
C730 H716 0.930 . S
C730 C728 1.395 . S
C730 C733 1.403 . S
C731 C728 1.403 . S
C731 C732 1.524 . S
C731 C735 1.400 . S
C732 H717 0.960 . S
C732 H718 0.960 . S
C732 H719 0.960 . S
C732 C731 1.524 . S
C733 C730 1.403 . S
C733 C734 1.392 . S
C733 C737 1.495 . S
C734 C733 1.392 . S
C734 C735 1.385 . S
C734 C736 1.478 . S
C735 H729 0.930 . S
C735 C731 1.400 . S
C735 C734 1.385 . S
C736 C734 1.478 . S
C736 C738 1.381 . S
C736 C742 1.383 . S
C737 C733 1.495 . S
C737 H743 0.959 . S
C737 H744 0.961 . S
C737 H745 0.960 . S
C738 C736 1.381 . S
C738 C739 1.394 . S
C738 H746 0.930 . S
C739 C738 1.394 . S
C739 C740 1.383 . S
C739 H747 0.929 . S
C740 C739 1.383 . S
C740 C741 1.377 . S
C741 H725 0.930 . S
C741 C740 1.377 . S
C741 C742 1.379 . S
C742 H726 0.931 . S
C742 C736 1.383 . S
C742 C741 1.379 . S
H743 C737 0.959 . S
H744 C737 0.961 . S
H745 C737 0.960 . S
H746 C738 0.930 . S
H747 C739 0.929 . S
H748 C756 0.929 . S
H749 C758 0.930 . S
H750 C760 0.930 . S
H751 C763 0.929 . S
H752 C766 0.930 . S
H753 C768 0.960 . S
H754 C768 0.960 . S
H755 C768 0.960 . S
C756 H748 0.929 . S
C756 C757 1.377 . S
C756 C758 1.384 . S
C757 C756 1.377 . S
C757 C763 1.390 . S
C758 H749 0.930 . S
C758 C756 1.384 . S
C758 C759 1.372 . S
C759 C758 1.372 . S
C759 C760 1.400 . S
C759 C764 1.490 . S
C760 H750 0.930 . S
C760 C759 1.400 . S
C760 C763 1.386 . S
H761 C777 0.930 . S
H762 C778 0.931 . S
C763 H751 0.929 . S
C763 C757 1.390 . S
C763 C760 1.386 . S
C764 C759 1.490 . S
C764 C766 1.395 . S
C764 C767 1.403 . S
H765 C771 0.930 . S
C766 H752 0.930 . S
C766 C764 1.395 . S
C766 C769 1.403 . S
C767 C764 1.403 . S
C767 C768 1.524 . S
C767 C771 1.400 . S
C768 H753 0.960 . S
C768 H754 0.960 . S
C768 H755 0.960 . S
C768 C767 1.524 . S
C769 C766 1.403 . S
C769 C770 1.392 . S
C769 C773 1.495 . S
C770 C769 1.392 . S
C770 C771 1.385 . S
C770 C772 1.478 . S
C771 H765 0.930 . S
C771 C767 1.400 . S
C771 C770 1.385 . S
C772 C770 1.478 . S
C772 C774 1.381 . S
C772 C778 1.383 . S
C773 C769 1.495 . S
C773 H779 0.959 . S
C773 H780 0.961 . S
C773 H781 0.960 . S
C774 C772 1.381 . S
C774 C775 1.394 . S
C774 H782 0.930 . S
C775 C774 1.394 . S
C775 C776 1.383 . S
C775 H783 0.929 . S
C776 C775 1.383 . S
C776 C777 1.377 . S
C777 H761 0.930 . S
C777 C776 1.377 . S
C777 C778 1.379 . S
C778 H762 0.931 . S
C778 C772 1.383 . S
C778 C777 1.379 . S
H779 C773 0.959 . S
H780 C773 0.961 . S
H781 C773 0.960 . S
H782 C774 0.930 . S
H783 C775 0.929 . S
H784 C792 0.929 . S
H785 C794 0.930 . S
H786 C796 0.930 . S
H787 C799 0.929 . S
H788 C802 0.930 . S
H789 C804 0.960 . S
H790 C804 0.960 . S
H791 C804 0.960 . S
C792 H784 0.929 . S
C792 C793 1.377 . S
C792 C794 1.384 . S
C793 C792 1.377 . S
C793 C799 1.390 . S
C794 H785 0.930 . S
C794 C792 1.384 . S
C794 C795 1.372 . S
C795 C794 1.372 . S
C795 C796 1.400 . S
C795 C800 1.490 . S
C796 H786 0.930 . S
C796 C795 1.400 . S
C796 C799 1.386 . S
H797 C813 0.930 . S
H798 C814 0.931 . S
C799 H787 0.929 . S
C799 C793 1.390 . S
C799 C796 1.386 . S
C800 C795 1.490 . S
C800 C802 1.395 . S
C800 C803 1.403 . S
H801 C807 0.930 . S
C802 H788 0.930 . S
C802 C800 1.395 . S
C802 C805 1.403 . S
C803 C800 1.403 . S
C803 C804 1.524 . S
C803 C807 1.400 . S
C804 H789 0.960 . S
C804 H790 0.960 . S
C804 H791 0.960 . S
C804 C803 1.524 . S
C805 C802 1.403 . S
C805 C806 1.392 . S
C805 C809 1.495 . S
C806 C805 1.392 . S
C806 C807 1.385 . S
C806 C808 1.478 . S
C807 H801 0.930 . S
C807 C803 1.400 . S
C807 C806 1.385 . S
C808 C806 1.478 . S
C808 C810 1.381 . S
C808 C814 1.383 . S
C809 C805 1.495 . S
C809 H815 0.959 . S
C809 H816 0.961 . S
C809 H817 0.960 . S
C810 C808 1.381 . S
C810 C811 1.394 . S
C810 H818 0.930 . S
C811 C810 1.394 . S
C811 C812 1.383 . S
C811 H819 0.929 . S
C812 C811 1.383 . S
C812 C813 1.377 . S
C813 H797 0.930 . S
C813 C812 1.377 . S
C813 C814 1.379 . S
C814 H798 0.931 . S
C814 C808 1.383 . S
C814 C813 1.379 . S
H815 C809 0.959 . S
H816 C809 0.961 . S
H817 C809 0.960 . S
H818 C810 0.930 . S
H819 C811 0.929 . S
H820 C828 0.929 . S
H821 C830 0.930 . S
H822 C832 0.930 . S
H823 C835 0.929 . S
H824 C838 0.930 . S
H825 C840 0.960 1_556 S
H826 C840 0.960 . S
H827 C840 0.944 1_556 S
C828 H820 0.929 . S
C828 C829 1.377 . S
C828 C830 1.384 . S
C829 C828 1.377 . S
C829 C835 1.390 . S
C830 H821 0.930 . S
C830 C828 1.384 . S
C830 C831 1.372 . S
C831 C830 1.372 . S
C831 C832 1.400 . S
C831 C836 1.490 . S
C832 H822 0.930 . S
C832 C831 1.400 . S
C832 C835 1.386 . S
H833 C849 0.880 1_556 S
H834 C850 0.906 1_556 S
C835 H823 0.929 . S
C835 C829 1.390 . S
C835 C832 1.386 . S
C836 C831 1.490 . S
C836 C838 1.395 . S
C836 C839 1.403 . S
H837 C843 0.930 . S
C838 H824 0.930 . S
C838 C836 1.395 . S
C838 C841 1.403 . S
C839 C836 1.403 . S
C839 C840 1.524 . S
C839 C843 1.400 . S
C840 H825 0.960 1_554 S
C840 H826 0.960 . S
C840 H827 0.944 1_554 S
C840 C839 1.524 . S
C841 C838 1.403 . S
C841 C842 1.392 . S
C841 C845 1.495 . S
C842 C841 1.392 . S
C842 C843 1.385 . S
C842 C844 1.478 . S
C843 H837 0.930 . S
C843 C839 1.400 . S
C843 C842 1.385 . S
C844 C842 1.478 . S
C844 C846 1.381 . S
C844 C850 1.383 . S
C845 C841 1.495 . S
C845 H851 0.959 . S
C845 H852 0.961 . S
C845 H853 0.960 . S
C846 C844 1.381 . S
C846 C847 1.394 . S
C846 H854 0.930 . S
C847 C846 1.394 . S
C847 C848 1.383 . S
C847 H855 0.929 . S
C848 C847 1.383 . S
C848 C849 1.410 . S
C849 H833 0.880 1_554 S
C849 C848 1.410 . S
C849 C850 1.398 . S
C850 H834 0.906 1_554 S
C850 C844 1.383 . S
C850 C849 1.398 . S
H851 C845 0.959 . S
H852 C845 0.961 . S
H853 C845 0.960 . S
H854 C846 0.930 . S
H855 C847 0.929 . S
H856 C864 0.929 . S
H857 C866 0.930 . S
H858 C868 0.930 . S
H859 C871 0.929 . S
H860 C874 0.930 . S
H861 C876 0.960 . S
H862 C876 0.960 . S
H863 C876 0.960 . S
C864 H856 0.929 . S
C864 C865 1.377 . S
C864 C866 1.384 . S
C865 C864 1.377 . S
C865 C871 1.390 . S
C866 H857 0.930 . S
C866 C864 1.384 . S
C866 C867 1.372 . S
C867 C866 1.372 . S
C867 C868 1.400 . S
C867 C872 1.490 . S
C868 H858 0.930 . S
C868 C867 1.400 . S
C868 C871 1.386 . S
H869 C885 0.930 . S
H870 C886 0.931 . S
C871 H859 0.929 . S
C871 C865 1.390 . S
C871 C868 1.386 . S
C872 C867 1.490 . S
C872 C874 1.395 . S
C872 C875 1.403 . S
H873 C879 0.930 . S
C874 H860 0.930 . S
C874 C872 1.395 . S
C874 C877 1.403 . S
C875 C872 1.403 . S
C875 C876 1.524 . S
C875 C879 1.400 . S
C876 H861 0.960 . S
C876 H862 0.960 . S
C876 H863 0.960 . S
C876 C875 1.524 . S
C877 C874 1.403 . S
C877 C878 1.392 . S
C877 C881 1.495 . S
C878 C877 1.392 . S
C878 C879 1.385 . S
C878 C880 1.478 . S
C879 H873 0.930 . S
C879 C875 1.400 . S
C879 C878 1.385 . S
C880 C878 1.478 . S
C880 C882 1.381 . S
C880 C886 1.383 . S
C881 C877 1.495 . S
C881 H887 0.959 . S
C881 H888 0.961 . S
C881 H889 0.960 . S
C882 C880 1.381 . S
C882 C883 1.394 . S
C882 H890 0.930 . S
C883 C882 1.394 . S
C883 C884 1.383 . S
C883 H891 0.929 . S
C884 C883 1.383 . S
C884 C885 1.377 . S
C885 H869 0.930 . S
C885 C884 1.377 . S
C885 C886 1.379 . S
C886 H870 0.931 . S
C886 C880 1.383 . S
C886 C885 1.379 . S
H887 C881 0.959 . S
H888 C881 0.961 . S
H889 C881 0.960 . S
H890 C882 0.930 . S
H891 C883 0.929 . S
H892 C900 0.929 . S
H893 C902 0.930 . S
H894 C904 0.930 . S
H895 C907 0.929 . S
H896 C910 0.930 . S
H897 C912 0.960 . S
H898 C912 0.960 . S
H899 C912 0.960 . S
C900 H892 0.929 . S
C900 C901 1.377 . S
C900 C902 1.384 . S
C901 C900 1.377 . S
C901 C907 1.390 . S
C902 H893 0.930 . S
C902 C900 1.384 . S
C902 C903 1.372 . S
C903 C902 1.372 . S
C903 C904 1.400 . S
C903 C908 1.490 . S
C904 H894 0.930 . S
C904 C903 1.400 . S
C904 C907 1.386 . S
H905 C921 0.930 . S
H906 C922 0.931 . S
C907 H895 0.929 . S
C907 C901 1.390 . S
C907 C904 1.386 . S
C908 C903 1.490 . S
C908 C910 1.395 . S
C908 C911 1.403 . S
H909 C915 0.930 . S
C910 H896 0.930 . S
C910 C908 1.395 . S
C910 C913 1.403 . S
C911 C908 1.403 . S
C911 C912 1.524 . S
C911 C915 1.400 . S
C912 H897 0.960 . S
C912 H898 0.960 . S
C912 H899 0.960 . S
C912 C911 1.524 . S
C913 C910 1.403 . S
C913 C914 1.392 . S
C913 C917 1.495 . S
C914 C913 1.392 . S
C914 C915 1.385 . S
C914 C916 1.478 . S
C915 H909 0.930 . S
C915 C911 1.400 . S
C915 C914 1.385 . S
C916 C914 1.478 . S
C916 C918 1.381 . S
C916 C922 1.383 . S
C917 C913 1.495 . S
C917 H923 0.959 . S
C917 H924 0.961 . S
C917 H925 0.960 . S
C918 C916 1.381 . S
C918 C919 1.394 . S
C918 H926 0.930 . S
C919 C918 1.394 . S
C919 C920 1.383 . S
C919 H927 0.929 . S
C920 C919 1.383 . S
C920 C921 1.377 . S
C921 H905 0.930 . S
C921 C920 1.377 . S
C921 C922 1.379 . S
C922 H906 0.931 . S
C922 C916 1.383 . S
C922 C921 1.379 . S
H923 C917 0.959 . S
H924 C917 0.961 . S
H925 C917 0.960 . S
H926 C918 0.930 . S
H927 C919 0.929 . S
H928 C936 0.929 . S
H929 C938 0.930 . S
H930 C940 0.930 . S
H931 C943 0.929 . S
H932 C946 0.930 . S
H933 C948 0.960 . S
H934 C948 0.960 . S
H935 C948 0.960 . S
C936 H928 0.929 . S
C936 C937 1.377 . S
C936 C938 1.384 . S
C937 C936 1.377 . S
C937 C943 1.390 . S
C938 H929 0.930 . S
C938 C936 1.384 . S
C938 C939 1.372 . S
C939 C938 1.372 . S
C939 C940 1.400 . S
C939 C944 1.490 . S
C940 H930 0.930 . S
C940 C939 1.400 . S
C940 C943 1.386 . S
H941 C957 0.930 . S
H942 C958 0.931 . S
C943 H931 0.929 . S
C943 C937 1.390 . S
C943 C940 1.386 . S
C944 C939 1.490 . S
C944 C946 1.395 . S
C944 C947 1.403 . S
H945 C951 0.930 . S
C946 H932 0.930 . S
C946 C944 1.395 . S
C946 C949 1.403 . S
C947 C944 1.403 . S
C947 C948 1.524 . S
C947 C951 1.400 . S
C948 H933 0.960 . S
C948 H934 0.960 . S
C948 H935 0.960 . S
C948 C947 1.524 . S
C949 C946 1.403 . S
C949 C950 1.392 . S
C949 C953 1.495 . S
C950 C949 1.392 . S
C950 C951 1.385 . S
C950 C952 1.478 . S
C951 H945 0.930 . S
C951 C947 1.400 . S
C951 C950 1.385 . S
C952 C950 1.478 . S
C952 C954 1.381 . S
C952 C958 1.383 . S
C953 C949 1.495 . S
C953 H959 0.959 . S
C953 H960 0.961 . S
C953 H961 0.960 . S
C954 C952 1.381 . S
C954 C955 1.394 . S
C954 H962 0.930 . S
C955 C954 1.394 . S
C955 C956 1.383 . S
C955 H963 0.929 . S
C956 C955 1.383 . S
C956 C957 1.377 . S
C957 H941 0.930 . S
C957 C956 1.377 . S
C957 C958 1.379 . S
C958 H942 0.931 . S
C958 C952 1.383 . S
C958 C957 1.379 . S
H959 C953 0.959 . S
H960 C953 0.961 . S
H961 C953 0.960 . S
H962 C954 0.930 . S
H963 C955 0.929 . S
H964 C972 0.929 . S
H965 C974 0.930 . S
H966 C976 0.930 . S
H967 C979 0.929 . S
H968 C982 0.930 . S
H969 C984 0.960 . S
H970 C984 0.960 . S
H971 C984 0.960 . S
C972 H964 0.929 . S
C972 C973 1.377 . S
C972 C974 1.384 . S
C973 C972 1.377 . S
C973 C979 1.390 . S
C974 H965 0.930 . S
C974 C972 1.384 . S
C974 C975 1.372 . S
C975 C974 1.372 . S
C975 C976 1.400 . S
C975 C980 1.490 . S
C976 H966 0.930 . S
C976 C975 1.400 . S
C976 C979 1.386 . S
H977 C993 0.930 . S
H978 C994 0.931 . S
C979 H967 0.929 . S
C979 C973 1.390 . S
C979 C976 1.386 . S
C980 C975 1.490 . S
C980 C982 1.395 . S
C980 C983 1.403 . S
H981 C987 0.930 . S
C982 H968 0.930 . S
C982 C980 1.395 . S
C982 C985 1.403 . S
C983 C980 1.403 . S
C983 C984 1.524 . S
C983 C987 1.400 . S
C984 H969 0.960 . S
C984 H970 0.960 . S
C984 H971 0.960 . S
C984 C983 1.524 . S
C985 C982 1.403 . S
C985 C986 1.392 . S
C985 C989 1.495 . S
C986 C985 1.392 . S
C986 C987 1.385 . S
C986 C988 1.478 . S
C987 H981 0.930 . S
C987 C983 1.400 . S
C987 C986 1.385 . S
C988 C986 1.478 . S
C988 C990 1.381 . S
C988 C994 1.383 . S
C989 C985 1.495 . S
C989 H995 0.959 . S
C989 H996 0.961 . S
C989 H997 0.960 . S
C990 C988 1.381 . S
C990 C991 1.394 . S
C990 H998 0.930 . S
C991 C990 1.394 . S
C991 C992 1.383 . S
C991 H999 0.929 . S
C992 C991 1.383 . S
C992 C993 1.377 . S
C993 H977 0.930 . S
C993 C992 1.377 . S
C993 C994 1.379 . S
C994 H978 0.931 . S
C994 C988 1.383 . S
C994 C993 1.379 . S
H995 C989 0.959 . S
H996 C989 0.961 . S
H997 C989 0.960 . S
H998 C990 0.930 . S
H999 C991 0.929 . S
H1000 C1008 0.929 . S
H1001 C1010 0.930 . S
H1002 C1012 0.930 . S
H1003 C1015 0.929 . S
H1004 C1018 0.930 . S
H1005 C1020 0.960 . S
H1006 C1020 0.960 1_556 S
H1007 C1020 0.960 . S
C1008 H1000 0.929 . S
C1008 C1009 1.377 . S
C1008 C1010 1.384 . S
C1009 C1008 1.377 . S
C1009 C1015 1.390 . S
C1010 H1001 0.930 . S
C1010 C1008 1.384 . S
C1010 C1011 1.372 . S
C1011 C1010 1.372 . S
C1011 C1012 1.400 . S
C1011 C1016 1.490 . S
C1012 H1002 0.930 . S
C1012 C1011 1.400 . S
C1012 C1015 1.386 . S
H1013 C1029 0.930 1_554 S
H1014 C1030 0.931 . S
C1015 H1003 0.929 . S
C1015 C1009 1.390 . S
C1015 C1012 1.386 . S
C1016 C1011 1.490 . S
C1016 C1018 1.395 . S
C1016 C1019 1.403 . S
H1017 C1023 0.950 . S
C1018 H1004 0.930 . S
C1018 C1016 1.395 . S
C1018 C1021 1.403 . S
C1019 C1016 1.403 . S
C1019 C1020 1.524 1_556 S
C1019 C1023 1.400 . S
C1020 H1005 0.960 . S
C1020 H1006 0.960 1_554 S
C1020 H1007 0.960 . S
C1020 C1019 1.524 1_554 S
C1021 C1018 1.403 . S
C1021 C1022 1.392 . S
C1021 C1025 1.495 . S
C1022 C1021 1.392 . S
C1022 C1023 1.385 . S
C1022 C1024 1.478 . S
C1023 H1017 0.950 . S
C1023 C1019 1.400 . S
C1023 C1022 1.385 . S
C1024 C1022 1.478 . S
C1024 C1026 1.381 . S
C1024 C1030 1.383 . S
C1025 C1021 1.495 . S
C1025 H1031 0.959 . S
C1025 H1032 0.961 . S
C1025 H1033 0.960 . S
C1026 C1024 1.381 . S
C1026 C1027 1.394 . S
C1026 H1034 0.930 . S
C1027 C1026 1.394 . S
C1027 C1028 1.383 . S
C1027 H1035 0.929 . S
C1028 C1027 1.383 . S
C1028 C1029 1.377 . S
C1029 H1013 0.930 1_556 S
C1029 C1028 1.377 . S
C1029 C1030 1.379 . S
C1030 H1014 0.931 . S
C1030 C1024 1.383 . S
C1030 C1029 1.379 . S
H1031 C1025 0.959 . S
H1032 C1025 0.961 . S
H1033 C1025 0.960 . S
H1034 C1026 0.930 . S
H1035 C1027 0.929 . S
H1036 C1044 0.929 . S
H1037 C1046 0.930 . S
H1038 C1048 0.930 . S
H1039 C1051 0.929 . S
H1040 C1054 0.930 . S
H1041 C1056 0.960 . S
H1042 C1056 0.960 . S
H1043 C1056 0.960 . S
C1044 H1036 0.929 . S
C1044 C1045 1.377 . S
C1044 C1046 1.384 . S
C1045 C1044 1.377 . S
C1045 C1051 1.390 . S
C1046 H1037 0.930 . S
C1046 C1044 1.384 . S
C1046 C1047 1.372 . S
C1047 C1046 1.372 . S
C1047 C1048 1.400 . S
C1047 C1052 1.490 . S
C1048 H1038 0.930 . S
C1048 C1047 1.400 . S
C1048 C1051 1.386 . S
H1049 C1065 0.930 . S
H1050 C1066 0.931 . S
C1051 H1039 0.929 . S
C1051 C1045 1.390 . S
C1051 C1048 1.386 . S
C1052 C1047 1.490 . S
C1052 C1054 1.395 . S
C1052 C1055 1.403 . S
H1053 C1059 0.930 . S
C1054 H1040 0.930 . S
C1054 C1052 1.395 . S
C1054 C1057 1.403 . S
C1055 C1052 1.403 . S
C1055 C1056 1.524 . S
C1055 C1059 1.400 . S
C1056 H1041 0.960 . S
C1056 H1042 0.960 . S
C1056 H1043 0.960 . S
C1056 C1055 1.524 . S
C1057 C1054 1.403 . S
C1057 C1058 1.392 . S
C1057 C1061 1.495 . S
C1058 C1057 1.392 . S
C1058 C1059 1.385 . S
C1058 C1060 1.478 . S
C1059 H1053 0.930 . S
C1059 C1055 1.400 . S
C1059 C1058 1.385 . S
C1060 C1058 1.478 . S
C1060 C1062 1.381 . S
C1060 C1066 1.383 . S
C1061 C1057 1.495 . S
C1061 H1067 0.959 . S
C1061 H1068 0.961 . S
C1061 H1069 0.960 . S
C1062 C1060 1.381 . S
C1062 C1063 1.394 . S
C1062 H1070 0.930 . S
C1063 C1062 1.394 . S
C1063 C1064 1.383 . S
C1063 H1071 0.929 . S
C1064 C1063 1.383 . S
C1064 C1065 1.377 . S
C1065 H1049 0.930 . S
C1065 C1064 1.377 . S
C1065 C1066 1.379 . S
C1066 H1050 0.931 . S
C1066 C1060 1.383 . S
C1066 C1065 1.379 . S
H1067 C1061 0.959 . S
H1068 C1061 0.961 . S
H1069 C1061 0.960 . S
H1070 C1062 0.930 . S
H1071 C1063 0.929 . S
H1072 C1080 0.929 . S
H1073 C1082 0.930 . S
H1074 C1084 0.930 . S
H1075 C1087 0.929 . S
H1076 C1090 0.930 . S
H1077 C1092 0.960 . S
H1078 C1092 0.960 . S
H1079 C1092 0.960 . S
C1080 H1072 0.929 . S
C1080 C1081 1.377 . S
C1080 C1082 1.384 . S
C1081 C1080 1.377 . S
C1081 C1087 1.390 . S
C1082 H1073 0.930 . S
C1082 C1080 1.384 . S
C1082 C1083 1.372 . S
C1083 C1082 1.372 . S
C1083 C1084 1.400 . S
C1083 C1088 1.490 . S
C1084 H1074 0.930 . S
C1084 C1083 1.400 . S
C1084 C1087 1.386 . S
H1085 C1101 0.930 . S
H1086 C1102 0.931 . S
C1087 H1075 0.929 . S
C1087 C1081 1.390 . S
C1087 C1084 1.386 . S
C1088 C1083 1.490 . S
C1088 C1090 1.395 . S
C1088 C1091 1.403 . S
H1089 C1095 0.930 . S
C1090 H1076 0.930 . S
C1090 C1088 1.395 . S
C1090 C1093 1.403 . S
C1091 C1088 1.403 . S
C1091 C1092 1.524 . S
C1091 C1095 1.400 . S
C1092 H1077 0.960 . S
C1092 H1078 0.960 . S
C1092 H1079 0.960 . S
C1092 C1091 1.524 . S
C1093 C1090 1.403 . S
C1093 C1094 1.392 . S
C1093 C1097 1.495 . S
C1094 C1093 1.392 . S
C1094 C1095 1.385 . S
C1094 C1096 1.478 . S
C1095 H1089 0.930 . S
C1095 C1091 1.400 . S
C1095 C1094 1.385 . S
C1096 C1094 1.478 . S
C1096 C1098 1.381 . S
C1096 C1102 1.383 . S
C1097 C1093 1.495 . S
C1097 H1103 0.959 . S
C1097 H1104 0.961 . S
C1097 H1105 0.960 . S
C1098 C1096 1.381 . S
C1098 C1099 1.394 . S
C1098 H1106 0.930 . S
C1099 C1098 1.394 . S
C1099 C1100 1.383 . S
C1099 H1107 0.929 . S
C1100 C1099 1.383 . S
C1100 C1101 1.377 . S
C1101 H1085 0.930 . S
C1101 C1100 1.377 . S
C1101 C1102 1.379 . S
C1102 H1086 0.931 . S
C1102 C1096 1.383 . S
C1102 C1101 1.379 . S
H1103 C1097 0.959 . S
H1104 C1097 0.961 . S
H1105 C1097 0.960 . S
H1106 C1098 0.930 . S
H1107 C1099 0.929 . S
H1108 C1116 0.929 . S
H1109 C1118 0.930 . S
H1110 C1120 0.930 . S
H1111 C1123 0.929 . S
H1112 C1126 0.930 . S
H1113 C1128 0.960 . S
H1114 C1128 0.960 . S
H1115 C1128 0.960 . S
C1116 H1108 0.929 . S
C1116 C1117 1.377 . S
C1116 C1118 1.384 . S
C1117 C1116 1.377 . S
C1117 C1123 1.390 . S
C1118 H1109 0.930 . S
C1118 C1116 1.384 . S
C1118 C1119 1.372 . S
C1119 C1118 1.372 . S
C1119 C1120 1.400 . S
C1119 C1124 1.490 . S
C1120 H1110 0.930 . S
C1120 C1119 1.400 . S
C1120 C1123 1.386 . S
H1121 C1137 0.930 . S
H1122 C1138 0.931 . S
C1123 H1111 0.929 . S
C1123 C1117 1.390 . S
C1123 C1120 1.386 . S
C1124 C1119 1.490 . S
C1124 C1126 1.395 . S
C1124 C1127 1.403 . S
H1125 C1131 0.930 . S
C1126 H1112 0.930 . S
C1126 C1124 1.395 . S
C1126 C1129 1.403 . S
C1127 C1124 1.403 . S
C1127 C1128 1.524 . S
C1127 C1131 1.400 . S
C1128 H1113 0.960 . S
C1128 H1114 0.960 . S
C1128 H1115 0.960 . S
C1128 C1127 1.524 . S
C1129 C1126 1.403 . S
C1129 C1130 1.392 . S
C1129 C1133 1.495 . S
C1130 C1129 1.392 . S
C1130 C1131 1.385 . S
C1130 C1132 1.478 . S
C1131 H1125 0.930 . S
C1131 C1127 1.400 . S
C1131 C1130 1.385 . S
C1132 C1130 1.478 . S
C1132 C1134 1.381 . S
C1132 C1138 1.383 . S
C1133 C1129 1.495 . S
C1133 H1139 0.959 . S
C1133 H1140 0.961 . S
C1133 H1141 0.960 . S
C1134 C1132 1.381 . S
C1134 C1135 1.394 . S
C1134 H1142 0.930 . S
C1135 C1134 1.394 . S
C1135 C1136 1.383 . S
C1135 H1143 0.929 . S
C1136 C1135 1.383 . S
C1136 C1137 1.377 . S
C1137 H1121 0.930 . S
C1137 C1136 1.377 . S
C1137 C1138 1.379 . S
C1138 H1122 0.931 . S
C1138 C1132 1.383 . S
C1138 C1137 1.379 . S
H1139 C1133 0.959 . S
H1140 C1133 0.961 . S
H1141 C1133 0.960 . S
H1142 C1134 0.930 . S
H1143 C1135 0.929 . S
H1144 C1152 0.929 . S
H1145 C1154 0.930 . S
H1146 C1156 0.930 . S
H1147 C1159 0.929 . S
H1148 C1162 0.930 . S
H1149 C1164 0.960 . S
H1150 C1164 0.960 . S
H1151 C1164 0.960 . S
C1152 H1144 0.929 . S
C1152 C1153 1.377 . S
C1152 C1154 1.384 . S
C1153 C1152 1.377 . S
C1153 C1159 1.390 . S
C1154 H1145 0.930 . S
C1154 C1152 1.384 . S
C1154 C1155 1.372 . S
C1155 C1154 1.372 . S
C1155 C1156 1.400 . S
C1155 C1160 1.490 . S
C1156 H1146 0.930 . S
C1156 C1155 1.400 . S
C1156 C1159 1.386 . S
H1157 C1173 0.930 . S
H1158 C1174 0.931 . S
C1159 H1147 0.929 . S
C1159 C1153 1.390 . S
C1159 C1156 1.386 . S
C1160 C1155 1.490 . S
C1160 C1162 1.395 . S
C1160 C1163 1.403 . S
H1161 C1167 0.930 . S
C1162 H1148 0.930 . S
C1162 C1160 1.395 . S
C1162 C1165 1.403 . S
C1163 C1160 1.403 . S
C1163 C1164 1.524 . S
C1163 C1167 1.400 . S
C1164 H1149 0.960 . S
C1164 H1150 0.960 . S
C1164 H1151 0.960 . S
C1164 C1163 1.524 . S
C1165 C1162 1.403 . S
C1165 C1166 1.392 . S
C1165 C1169 1.495 . S
C1166 C1165 1.392 . S
C1166 C1167 1.385 . S
C1166 C1168 1.478 . S
C1167 H1161 0.930 . S
C1167 C1163 1.400 . S
C1167 C1166 1.385 . S
C1168 C1166 1.478 . S
C1168 C1170 1.381 . S
C1168 C1174 1.383 . S
C1169 C1165 1.495 . S
C1169 H1175 0.959 . S
C1169 H1176 0.961 . S
C1169 H1177 0.960 . S
C1170 C1168 1.381 . S
C1170 C1171 1.394 . S
C1170 H1178 0.930 . S
C1171 C1170 1.394 . S
C1171 C1172 1.383 . S
C1171 H1179 0.929 . S
C1172 C1171 1.383 . S
C1172 C1173 1.377 . S
C1173 H1157 0.930 . S
C1173 C1172 1.377 . S
C1173 C1174 1.379 . S
C1174 H1158 0.931 . S
C1174 C1168 1.383 . S
C1174 C1173 1.379 . S
H1175 C1169 0.959 . S
H1176 C1169 0.961 . S
H1177 C1169 0.960 . S
H1178 C1170 0.930 . S
H1179 C1171 0.929 . S
H1180 C1188 0.929 . S
H1181 C1190 0.930 . S
H1182 C1192 0.930 . S
H1183 C1195 0.929 . S
H1184 C1198 0.930 . S
H1185 C1200 0.960 . S
H1186 C1200 0.960 . S
H1187 C1200 0.960 . S
C1188 H1180 0.929 . S
C1188 C1189 1.377 . S
C1188 C1190 1.384 . S
C1189 C1188 1.377 . S
C1189 C1195 1.390 . S
C1190 H1181 0.930 . S
C1190 C1188 1.384 . S
C1190 C1191 1.372 . S
C1191 C1190 1.372 . S
C1191 C1192 1.400 . S
C1191 C1196 1.490 . S
C1192 H1182 0.930 . S
C1192 C1191 1.400 . S
C1192 C1195 1.386 . S
H1193 C1209 0.930 . S
H1194 C1210 0.931 . S
C1195 H1183 0.929 . S
C1195 C1189 1.390 . S
C1195 C1192 1.386 . S
C1196 C1191 1.490 . S
C1196 C1198 1.395 . S
C1196 C1199 1.403 . S
H1197 C1203 0.930 . S
C1198 H1184 0.930 . S
C1198 C1196 1.395 . S
C1198 C1201 1.403 . S
C1199 C1196 1.403 . S
C1199 C1200 1.524 . S
C1199 C1203 1.400 . S
C1200 H1185 0.960 . S
C1200 H1186 0.960 . S
C1200 H1187 0.960 . S
C1200 C1199 1.524 . S
C1201 C1198 1.403 . S
C1201 C1202 1.392 . S
C1201 C1205 1.495 . S
C1202 C1201 1.392 . S
C1202 C1203 1.385 . S
C1202 C1204 1.478 . S
C1203 H1197 0.930 . S
C1203 C1199 1.400 . S
C1203 C1202 1.385 . S
C1204 C1202 1.478 . S
C1204 C1206 1.381 . S
C1204 C1210 1.383 . S
C1205 C1201 1.495 . S
C1205 H1211 0.959 . S
C1205 H1212 0.961 . S
C1205 H1213 0.960 . S
C1206 C1204 1.381 . S
C1206 C1207 1.394 . S
C1206 H1214 0.930 . S
C1207 C1206 1.394 . S
C1207 C1208 1.383 . S
C1207 H1215 0.929 . S
C1208 C1207 1.383 . S
C1208 C1209 1.377 . S
C1209 H1193 0.930 . S
C1209 C1208 1.377 . S
C1209 C1210 1.379 . S
C1210 H1194 0.931 . S
C1210 C1204 1.383 . S
C1210 C1209 1.379 . S
H1211 C1205 0.959 . S
H1212 C1205 0.961 . S
H1213 C1205 0.960 . S
H1214 C1206 0.930 . S
H1215 C1207 0.929 . S
H1216 C1224 0.929 . S
H1217 C1226 0.930 . S
H1218 C1228 0.930 . S
H1219 C1231 0.929 . S
H1220 C1234 0.930 . S
H1221 C1236 0.960 . S
H1222 C1236 0.960 . S
H1223 C1236 0.960 . S
C1224 H1216 0.929 . S
C1224 C1225 1.377 . S
C1224 C1226 1.384 . S
C1225 C1224 1.377 . S
C1225 C1231 1.390 . S
C1226 H1217 0.930 . S
C1226 C1224 1.384 . S
C1226 C1227 1.372 . S
C1227 C1226 1.372 . S
C1227 C1228 1.400 . S
C1227 C1232 1.490 . S
C1228 H1218 0.930 . S
C1228 C1227 1.400 . S
C1228 C1231 1.386 . S
H1229 C1245 0.930 . S
H1230 C1246 0.931 . S
C1231 H1219 0.929 . S
C1231 C1225 1.390 . S
C1231 C1228 1.386 . S
C1232 C1227 1.490 . S
C1232 C1234 1.395 . S
C1232 C1235 1.403 . S
H1233 C1239 0.930 . S
C1234 H1220 0.930 . S
C1234 C1232 1.395 . S
C1234 C1237 1.403 . S
C1235 C1232 1.403 . S
C1235 C1236 1.524 . S
C1235 C1239 1.400 . S
C1236 H1221 0.960 . S
C1236 H1222 0.960 . S
C1236 H1223 0.960 . S
C1236 C1235 1.524 . S
C1237 C1234 1.403 . S
C1237 C1238 1.392 . S
C1237 C1241 1.495 . S
C1238 C1237 1.392 . S
C1238 C1239 1.385 . S
C1238 C1240 1.478 . S
C1239 H1233 0.930 . S
C1239 C1235 1.400 . S
C1239 C1238 1.385 . S
C1240 C1238 1.478 . S
C1240 C1242 1.381 . S
C1240 C1246 1.383 . S
C1241 C1237 1.495 . S
C1241 H1247 0.959 . S
C1241 H1248 0.961 . S
C1241 H1249 0.960 . S
C1242 C1240 1.381 . S
C1242 C1243 1.394 . S
C1242 H1250 0.930 . S
C1243 C1242 1.394 . S
C1243 C1244 1.383 . S
C1243 H1251 0.929 . S
C1244 C1243 1.383 . S
C1244 C1245 1.377 . S
C1245 H1229 0.930 . S
C1245 C1244 1.377 . S
C1245 C1246 1.379 . S
C1246 H1230 0.931 . S
C1246 C1240 1.383 . S
C1246 C1245 1.379 . S
H1247 C1241 0.959 . S
H1248 C1241 0.961 . S
H1249 C1241 0.960 . S
H1250 C1242 0.930 . S
H1251 C1243 0.929 . S
H1252 C1260 0.929 . S
H1253 C1262 0.930 . S
H1254 C1264 0.930 . S
H1255 C1267 0.929 . S
H1256 C1270 0.930 . S
H1257 C1272 0.960 . S
H1258 C1272 0.960 . S
H1259 C1272 0.960 . S
C1260 H1252 0.929 . S
C1260 C1261 1.377 . S
C1260 C1262 1.384 . S
C1261 C1260 1.377 . S
C1261 C1267 1.390 . S
C1262 H1253 0.930 . S
C1262 C1260 1.384 . S
C1262 C1263 1.372 . S
C1263 C1262 1.372 . S
C1263 C1264 1.400 . S
C1263 C1268 1.490 . S
C1264 H1254 0.930 . S
C1264 C1263 1.400 . S
C1264 C1267 1.386 . S
H1265 C1281 0.930 . S
H1266 C1282 0.931 . S
C1267 H1255 0.929 . S
C1267 C1261 1.390 . S
C1267 C1264 1.386 . S
C1268 C1263 1.490 . S
C1268 C1270 1.395 . S
C1268 C1271 1.403 . S
H1269 C1275 0.930 . S
C1270 H1256 0.930 . S
C1270 C1268 1.395 . S
C1270 C1273 1.403 . S
C1271 C1268 1.403 . S
C1271 C1272 1.524 . S
C1271 C1275 1.400 . S
C1272 H1257 0.960 . S
C1272 H1258 0.960 . S
C1272 H1259 0.960 . S
C1272 C1271 1.524 . S
C1273 C1270 1.403 . S
C1273 C1274 1.392 . S
C1273 C1277 1.495 . S
C1274 C1273 1.392 . S
C1274 C1275 1.385 . S
C1274 C1276 1.478 . S
C1275 H1269 0.930 . S
C1275 C1271 1.400 . S
C1275 C1274 1.385 . S
C1276 C1274 1.478 . S
C1276 C1278 1.381 . S
C1276 C1282 1.383 . S
C1277 C1273 1.495 . S
C1277 H1283 0.959 . S
C1277 H1284 0.961 . S
C1277 H1285 0.960 . S
C1278 C1276 1.381 . S
C1278 C1279 1.394 . S
C1278 H1286 0.930 . S
C1279 C1278 1.394 . S
C1279 C1280 1.383 . S
C1279 H1287 0.929 . S
C1280 C1279 1.383 . S
C1280 C1281 1.377 . S
C1281 H1265 0.930 . S
C1281 C1280 1.377 . S
C1281 C1282 1.379 . S
C1282 H1266 0.931 . S
C1282 C1276 1.383 . S
C1282 C1281 1.379 . S
H1283 C1277 0.959 . S
H1284 C1277 0.961 . S
H1285 C1277 0.960 . S
H1286 C1278 0.930 . S
H1287 C1279 0.929 . S
H1288 C1296 0.929 . S
H1289 C1298 0.930 . S
H1290 C1300 0.930 . S
H1291 C1303 0.929 . S
H1292 C1306 0.930 . S
H1293 C1308 0.960 . S
H1294 C1308 0.960 . S
H1295 C1308 0.960 . S
C1296 H1288 0.929 . S
C1296 C1297 1.377 . S
C1296 C1298 1.384 . S
C1297 C1296 1.377 . S
C1297 C1303 1.390 . S
C1298 H1289 0.930 . S
C1298 C1296 1.384 . S
C1298 C1299 1.372 . S
C1299 C1298 1.372 . S
C1299 C1300 1.400 . S
C1299 C1304 1.490 . S
C1300 H1290 0.930 . S
C1300 C1299 1.400 . S
C1300 C1303 1.386 . S
H1301 C1317 0.930 . S
H1302 C1318 0.931 . S
C1303 H1291 0.929 . S
C1303 C1297 1.390 . S
C1303 C1300 1.386 . S
C1304 C1299 1.490 . S
C1304 C1306 1.395 . S
C1304 C1307 1.403 . S
H1305 C1311 0.930 . S
C1306 H1292 0.930 . S
C1306 C1304 1.395 . S
C1306 C1309 1.403 . S
C1307 C1304 1.403 . S
C1307 C1308 1.524 . S
C1307 C1311 1.400 . S
C1308 H1293 0.960 . S
C1308 H1294 0.960 . S
C1308 H1295 0.960 . S
C1308 C1307 1.524 . S
C1309 C1306 1.403 . S
C1309 C1310 1.392 . S
C1309 C1313 1.495 . S
C1310 C1309 1.392 . S
C1310 C1311 1.385 . S
C1310 C1312 1.478 . S
C1311 H1305 0.930 . S
C1311 C1307 1.400 . S
C1311 C1310 1.385 . S
C1312 C1310 1.478 . S
C1312 C1314 1.381 . S
C1312 C1318 1.383 . S
C1313 C1309 1.495 . S
C1313 H1319 0.959 . S
C1313 H1320 0.961 . S
C1313 H1321 0.960 . S
C1314 C1312 1.381 . S
C1314 C1315 1.394 . S
C1314 H1322 0.930 . S
C1315 C1314 1.394 . S
C1315 C1316 1.383 . S
C1315 H1323 0.929 . S
C1316 C1315 1.383 . S
C1316 C1317 1.377 . S
C1317 H1301 0.930 . S
C1317 C1316 1.377 . S
C1317 C1318 1.379 . S
C1318 H1302 0.931 . S
C1318 C1312 1.383 . S
C1318 C1317 1.379 . S
H1319 C1313 0.959 . S
H1320 C1313 0.961 . S
H1321 C1313 0.960 . S
H1322 C1314 0.930 . S
H1323 C1315 0.929 . S
H1324 C1332 0.929 . S
H1325 C1334 0.930 . S
H1326 C1336 0.930 . S
H1327 C1339 0.929 . S
H1328 C1342 0.930 . S
H1329 C1344 0.960 . S
H1330 C1344 0.960 . S
H1331 C1344 0.960 . S
C1332 H1324 0.929 . S
C1332 C1333 1.377 . S
C1332 C1334 1.384 . S
C1333 C1332 1.377 . S
C1333 C1339 1.390 . S
C1334 H1325 0.930 . S
C1334 C1332 1.384 . S
C1334 C1335 1.372 . S
C1335 C1334 1.372 . S
C1335 C1336 1.400 . S
C1335 C1340 1.490 . S
C1336 H1326 0.930 . S
C1336 C1335 1.400 . S
C1336 C1339 1.386 . S
H1337 C1353 0.930 . S
H1338 C1354 0.931 . S
C1339 H1327 0.929 . S
C1339 C1333 1.390 . S
C1339 C1336 1.386 . S
C1340 C1335 1.490 . S
C1340 C1342 1.395 . S
C1340 C1343 1.403 . S
H1341 C1347 0.930 . S
C1342 H1328 0.930 . S
C1342 C1340 1.395 . S
C1342 C1345 1.403 . S
C1343 C1340 1.403 . S
C1343 C1344 1.524 . S
C1343 C1347 1.400 . S
C1344 H1329 0.960 . S
C1344 H1330 0.960 . S
C1344 H1331 0.960 . S
C1344 C1343 1.524 . S
C1345 C1342 1.403 . S
C1345 C1346 1.392 . S
C1345 C1349 1.495 . S
C1346 C1345 1.392 . S
C1346 C1347 1.385 . S
C1346 C1348 1.478 . S
C1347 H1341 0.930 . S
C1347 C1343 1.400 . S
C1347 C1346 1.385 . S
C1348 C1346 1.478 . S
C1348 C1350 1.381 . S
C1348 C1354 1.383 . S
C1349 C1345 1.495 . S
C1349 H1355 0.959 . S
C1349 H1356 0.961 . S
C1349 H1357 0.960 . S
C1350 C1348 1.381 . S
C1350 C1351 1.394 . S
C1350 H1358 0.930 . S
C1351 C1350 1.394 . S
C1351 C1352 1.383 . S
C1351 H1359 0.929 . S
C1352 C1351 1.383 . S
C1352 C1353 1.377 . S
C1353 H1337 0.930 . S
C1353 C1352 1.377 . S
C1353 C1354 1.379 . S
C1354 H1338 0.931 . S
C1354 C1348 1.383 . S
C1354 C1353 1.379 . S
H1355 C1349 0.959 . S
H1356 C1349 0.961 . S
H1357 C1349 0.960 . S
H1358 C1350 0.930 . S
H1359 C1351 0.929 . S
H1360 C1368 0.929 . S
H1361 C1370 0.930 . S
H1362 C1372 0.930 . S
H1363 C1375 0.929 . S
H1364 C1378 0.930 . S
H1365 C1380 0.960 . S
H1366 C1380 0.960 . S
H1367 C1380 0.960 . S
C1368 H1360 0.929 . S
C1368 C1369 1.377 . S
C1368 C1370 1.384 . S
C1369 C1368 1.377 . S
C1369 C1375 1.390 . S
C1370 H1361 0.930 . S
C1370 C1368 1.384 . S
C1370 C1371 1.372 . S
C1371 C1370 1.372 . S
C1371 C1372 1.400 . S
C1371 C1376 1.490 . S
C1372 H1362 0.930 . S
C1372 C1371 1.400 . S
C1372 C1375 1.386 . S
H1373 C1389 0.930 . S
H1374 C1390 0.931 . S
C1375 H1363 0.929 . S
C1375 C1369 1.390 . S
C1375 C1372 1.386 . S
C1376 C1371 1.490 . S
C1376 C1378 1.395 . S
C1376 C1379 1.403 . S
H1377 C1383 0.930 . S
C1378 H1364 0.930 . S
C1378 C1376 1.395 . S
C1378 C1381 1.403 . S
C1379 C1376 1.403 . S
C1379 C1380 1.524 . S
C1379 C1383 1.400 . S
C1380 H1365 0.960 . S
C1380 H1366 0.960 . S
C1380 H1367 0.960 . S
C1380 C1379 1.524 . S
C1381 C1378 1.403 . S
C1381 C1382 1.392 . S
C1381 C1385 1.495 . S
C1382 C1381 1.392 . S
C1382 C1383 1.385 . S
C1382 C1384 1.478 . S
C1383 H1377 0.930 . S
C1383 C1379 1.400 . S
C1383 C1382 1.385 . S
C1384 C1382 1.478 . S
C1384 C1386 1.381 . S
C1384 C1390 1.383 . S
C1385 C1381 1.495 . S
C1385 H1391 0.959 . S
C1385 H1392 0.961 . S
C1385 H1393 0.960 . S
C1386 C1384 1.381 . S
C1386 C1387 1.394 . S
C1386 H1394 0.930 . S
C1387 C1386 1.394 . S
C1387 C1388 1.383 . S
C1387 H1395 0.929 . S
C1388 C1387 1.383 . S
C1388 C1389 1.377 . S
C1389 H1373 0.930 . S
C1389 C1388 1.377 . S
C1389 C1390 1.379 . S
C1390 H1374 0.931 . S
C1390 C1384 1.383 . S
C1390 C1389 1.379 . S
H1391 C1385 0.959 . S
H1392 C1385 0.961 . S
H1393 C1385 0.960 . S
H1394 C1386 0.930 . S
H1395 C1387 0.929 . S
H1396 C1404 0.929 . S
H1397 C1406 0.930 . S
H1398 C1408 0.930 . S
H1399 C1411 0.929 . S
H1400 C1414 0.930 . S
H1401 C1416 0.960 . S
H1402 C1416 0.960 . S
H1403 C1416 0.960 . S
C1404 H1396 0.929 . S
C1404 C1405 1.377 . S
C1404 C1406 1.384 . S
C1405 C1404 1.377 . S
C1405 C1411 1.390 . S
C1406 H1397 0.930 . S
C1406 C1404 1.384 . S
C1406 C1407 1.372 . S
C1407 C1406 1.372 . S
C1407 C1408 1.400 . S
C1407 C1412 1.490 . S
C1408 H1398 0.930 . S
C1408 C1407 1.400 . S
C1408 C1411 1.386 . S
H1409 C1425 0.930 . S
H1410 C1426 0.931 . S
C1411 H1399 0.929 . S
C1411 C1405 1.390 . S
C1411 C1408 1.386 . S
C1412 C1407 1.490 . S
C1412 C1414 1.395 . S
C1412 C1415 1.403 . S
H1413 C1419 0.930 . S
C1414 H1400 0.930 . S
C1414 C1412 1.395 . S
C1414 C1417 1.403 . S
C1415 C1412 1.403 . S
C1415 C1416 1.524 . S
C1415 C1419 1.400 . S
C1416 H1401 0.960 . S
C1416 H1402 0.960 . S
C1416 H1403 0.960 . S
C1416 C1415 1.524 . S
C1417 C1414 1.403 . S
C1417 C1418 1.392 . S
C1417 C1421 1.495 . S
C1418 C1417 1.392 . S
C1418 C1419 1.385 . S
C1418 C1420 1.478 . S
C1419 H1413 0.930 . S
C1419 C1415 1.400 . S
C1419 C1418 1.385 . S
C1420 C1418 1.478 . S
C1420 C1422 1.381 . S
C1420 C1426 1.383 . S
C1421 C1417 1.495 . S
C1421 H1427 0.959 . S
C1421 H1428 0.961 . S
C1421 H1429 0.960 . S
C1422 C1420 1.381 . S
C1422 C1423 1.394 . S
C1422 H1430 0.930 . S
C1423 C1422 1.394 . S
C1423 C1424 1.383 . S
C1423 H1431 0.929 . S
C1424 C1423 1.383 . S
C1424 C1425 1.377 . S
C1425 H1409 0.930 . S
C1425 C1424 1.377 . S
C1425 C1426 1.379 . S
C1426 H1410 0.931 . S
C1426 C1420 1.383 . S
C1426 C1425 1.379 . S
H1427 C1421 0.959 . S
H1428 C1421 0.961 . S
H1429 C1421 0.960 . S
H1430 C1422 0.930 . S
H1431 C1423 0.929 . S
H1432 C1440 0.929 . S
H1433 C1442 0.930 . S
H1434 C1444 0.930 . S
H1435 C1447 0.929 . S
H1436 C1450 0.930 . S
H1437 C1452 0.960 . S
H1438 C1452 0.960 . S
H1439 C1452 0.960 . S
C1440 H1432 0.929 . S
C1440 C1441 1.377 . S
C1440 C1442 1.384 . S
C1441 C1440 1.377 . S
C1441 C1447 1.390 . S
C1442 H1433 0.930 . S
C1442 C1440 1.384 . S
C1442 C1443 1.372 . S
C1443 C1442 1.372 . S
C1443 C1444 1.400 . S
C1443 C1448 1.490 . S
C1444 H1434 0.930 . S
C1444 C1443 1.400 . S
C1444 C1447 1.386 . S
H1445 C1461 0.930 . S
H1446 C1462 0.931 . S
C1447 H1435 0.929 . S
C1447 C1441 1.390 . S
C1447 C1444 1.386 . S
C1448 C1443 1.490 . S
C1448 C1450 1.395 . S
C1448 C1451 1.403 . S
H1449 C1455 0.930 . S
C1450 H1436 0.930 . S
C1450 C1448 1.395 . S
C1450 C1453 1.403 . S
C1451 C1448 1.403 . S
C1451 C1452 1.524 . S
C1451 C1455 1.400 . S
C1452 H1437 0.960 . S
C1452 H1438 0.960 . S
C1452 H1439 0.960 . S
C1452 C1451 1.524 . S
C1453 C1450 1.403 . S
C1453 C1454 1.392 . S
C1453 C1457 1.495 . S
C1454 C1453 1.392 . S
C1454 C1455 1.385 . S
C1454 C1456 1.478 . S
C1455 H1449 0.930 . S
C1455 C1451 1.400 . S
C1455 C1454 1.385 . S
C1456 C1454 1.478 . S
C1456 C1458 1.381 . S
C1456 C1462 1.383 . S
C1457 C1453 1.495 . S
C1457 H1463 0.959 . S
C1457 H1464 0.961 . S
C1457 H1465 0.960 . S
C1458 C1456 1.381 . S
C1458 C1459 1.394 . S
C1458 H1466 0.930 . S
C1459 C1458 1.394 . S
C1459 C1460 1.383 . S
C1459 H1467 0.929 . S
C1460 C1459 1.383 . S
C1460 C1461 1.377 . S
C1461 H1445 0.930 . S
C1461 C1460 1.377 . S
C1461 C1462 1.379 . S
C1462 H1446 0.931 . S
C1462 C1456 1.383 . S
C1462 C1461 1.379 . S
H1463 C1457 0.959 . S
H1464 C1457 0.961 . S
H1465 C1457 0.960 . S
H1466 C1458 0.930 . S
H1467 C1459 0.929 . S
H1468 C1476 0.929 . S
H1469 C1478 0.930 . S
H1470 C1480 0.930 . S
H1471 C1483 0.929 . S
H1472 C1486 0.930 . S
H1473 C1488 0.960 . S
H1474 C1488 0.960 . S
H1475 C1488 0.960 . S
C1476 H1468 0.929 . S
C1476 C1477 1.377 . S
C1476 C1478 1.384 . S
C1477 C1476 1.377 . S
C1477 C1483 1.390 . S
C1478 H1469 0.930 . S
C1478 C1476 1.384 . S
C1478 C1479 1.372 . S
C1479 C1478 1.372 . S
C1479 C1480 1.400 . S
C1479 C1484 1.490 . S
C1480 H1470 0.930 . S
C1480 C1479 1.400 . S
C1480 C1483 1.386 . S
H1481 C1497 0.930 . S
H1482 C1498 0.931 . S
C1483 H1471 0.929 . S
C1483 C1477 1.390 . S
C1483 C1480 1.386 . S
C1484 C1479 1.490 . S
C1484 C1486 1.395 . S
C1484 C1487 1.403 . S
H1485 C1491 0.930 . S
C1486 H1472 0.930 . S
C1486 C1484 1.395 . S
C1486 C1489 1.403 . S
C1487 C1484 1.403 . S
C1487 C1488 1.524 . S
C1487 C1491 1.400 . S
C1488 H1473 0.960 . S
C1488 H1474 0.960 . S
C1488 H1475 0.960 . S
C1488 C1487 1.524 . S
C1489 C1486 1.403 . S
C1489 C1490 1.392 . S
C1489 C1493 1.495 . S
C1490 C1489 1.392 . S
C1490 C1491 1.385 . S
C1490 C1492 1.478 . S
C1491 H1485 0.930 . S
C1491 C1487 1.400 . S
C1491 C1490 1.385 . S
C1492 C1490 1.478 . S
C1492 C1494 1.381 . S
C1492 C1498 1.383 . S
C1493 C1489 1.495 . S
C1493 H1499 0.959 . S
C1493 H1500 0.961 . S
C1493 H1501 0.960 . S
C1494 C1492 1.381 . S
C1494 C1495 1.394 . S
C1494 H1502 0.930 . S
C1495 C1494 1.394 . S
C1495 C1496 1.383 . S
C1495 H1503 0.929 . S
C1496 C1495 1.383 . S
C1496 C1497 1.377 . S
C1497 H1481 0.930 . S
C1497 C1496 1.377 . S
C1497 C1498 1.379 . S
C1498 H1482 0.931 . S
C1498 C1492 1.383 . S
C1498 C1497 1.379 . S
H1499 C1493 0.959 . S
H1500 C1493 0.961 . S
H1501 C1493 0.960 . S
H1502 C1494 0.930 . S
H1503 C1495 0.929 . S
H1504 C1512 0.929 . S
H1505 C1514 0.930 . S
H1506 C1516 0.930 . S
H1507 C1519 0.929 . S
H1508 C1522 0.930 . S
H1509 C1524 0.960 . S
H1510 C1524 0.960 . S
H1511 C1524 0.960 . S
C1512 H1504 0.929 . S
C1512 C1513 1.377 . S
C1512 C1514 1.384 . S
C1513 C1512 1.377 . S
C1513 C1519 1.390 . S
C1514 H1505 0.930 . S
C1514 C1512 1.384 . S
C1514 C1515 1.372 . S
C1515 C1514 1.372 . S
C1515 C1516 1.400 . S
C1515 C1520 1.490 . S
C1516 H1506 0.930 . S
C1516 C1515 1.400 . S
C1516 C1519 1.386 . S
H1517 C1533 0.930 . S
H1518 C1534 0.931 . S
C1519 H1507 0.929 . S
C1519 C1513 1.390 . S
C1519 C1516 1.386 . S
C1520 C1515 1.490 . S
C1520 C1522 1.395 . S
C1520 C1523 1.403 . S
H1521 C1527 0.930 . S
C1522 H1508 0.930 . S
C1522 C1520 1.395 . S
C1522 C1525 1.403 . S
C1523 C1520 1.403 . S
C1523 C1524 1.524 . S
C1523 C1527 1.400 . S
C1524 H1509 0.960 . S
C1524 H1510 0.960 . S
C1524 H1511 0.960 . S
C1524 C1523 1.524 . S
C1525 C1522 1.403 . S
C1525 C1526 1.392 . S
C1525 C1529 1.495 . S
C1526 C1525 1.392 . S
C1526 C1527 1.385 . S
C1526 C1528 1.478 . S
C1527 H1521 0.930 . S
C1527 C1523 1.400 . S
C1527 C1526 1.385 . S
C1528 C1526 1.478 . S
C1528 C1530 1.381 . S
C1528 C1534 1.383 . S
C1529 C1525 1.495 . S
C1529 H1535 0.959 . S
C1529 H1536 0.961 . S
C1529 H1537 0.960 . S
C1530 C1528 1.381 . S
C1530 C1531 1.394 . S
C1530 H1538 0.930 . S
C1531 C1530 1.394 . S
C1531 C1532 1.383 . S
C1531 H1539 0.929 . S
C1532 C1531 1.383 . S
C1532 C1533 1.377 . S
C1533 H1517 0.930 . S
C1533 C1532 1.377 . S
C1533 C1534 1.379 . S
C1534 H1518 0.931 . S
C1534 C1528 1.383 . S
C1534 C1533 1.379 . S
H1535 C1529 0.959 . S
H1536 C1529 0.961 . S
H1537 C1529 0.960 . S
H1538 C1530 0.930 . S
H1539 C1531 0.929 . S
H1540 C1548 0.929 . S
H1541 C1550 0.930 . S
H1542 C1552 0.930 . S
H1543 C1555 0.929 . S
H1544 C1558 0.930 . S
H1545 C1560 0.960 . S
H1546 C1560 0.960 . S
H1547 C1560 0.960 . S
C1548 H1540 0.929 . S
C1548 C1549 1.377 . S
C1548 C1550 1.384 . S
C1549 C1548 1.377 . S
C1549 C1555 1.390 . S
C1550 H1541 0.930 . S
C1550 C1548 1.384 . S
C1550 C1551 1.372 . S
C1551 C1550 1.372 . S
C1551 C1552 1.400 . S
C1551 C1556 1.490 . S
C1552 H1542 0.930 . S
C1552 C1551 1.400 . S
C1552 C1555 1.386 . S
H1553 C1569 0.930 . S
H1554 C1570 0.931 . S
C1555 H1543 0.929 . S
C1555 C1549 1.390 . S
C1555 C1552 1.386 . S
C1556 C1551 1.490 . S
C1556 C1558 1.395 . S
C1556 C1559 1.403 . S
H1557 C1563 0.930 . S
C1558 H1544 0.930 . S
C1558 C1556 1.395 . S
C1558 C1561 1.403 . S
C1559 C1556 1.403 . S
C1559 C1560 1.524 . S
C1559 C1563 1.400 . S
C1560 H1545 0.960 . S
C1560 H1546 0.960 . S
C1560 H1547 0.960 . S
C1560 C1559 1.524 . S
C1561 C1558 1.403 . S
C1561 C1562 1.392 . S
C1561 C1565 1.495 . S
C1562 C1561 1.392 . S
C1562 C1563 1.385 . S
C1562 C1564 1.478 . S
C1563 H1557 0.930 . S
C1563 C1559 1.400 . S
C1563 C1562 1.385 . S
C1564 C1562 1.478 . S
C1564 C1566 1.381 . S
C1564 C1570 1.383 . S
C1565 C1561 1.495 . S
C1565 H1571 0.959 . S
C1565 H1572 0.961 . S
C1565 H1573 0.960 . S
C1566 C1564 1.381 . S
C1566 C1567 1.394 . S
C1566 H1574 0.930 . S
C1567 C1566 1.394 . S
C1567 C1568 1.383 . S
C1567 H1575 0.929 . S
C1568 C1567 1.383 . S
C1568 C1569 1.377 . S
C1569 H1553 0.930 . S
C1569 C1568 1.377 . S
C1569 C1570 1.379 . S
C1570 H1554 0.931 . S
C1570 C1564 1.383 . S
C1570 C1569 1.379 . S
H1571 C1565 0.959 . S
H1572 C1565 0.961 . S
H1573 C1565 0.960 . S
H1574 C1566 0.930 . S
H1575 C1567 0.929 . S
H1576 C1584 0.929 . S
H1577 C1586 0.930 . S
H1578 C1588 0.930 . S
H1579 C1591 0.929 . S
H1580 C1594 0.930 . S
H1581 C1596 0.960 . S
H1582 C1596 0.960 . S
H1583 C1596 0.960 . S
C1584 H1576 0.929 . S
C1584 C1585 1.377 . S
C1584 C1586 1.384 . S
C1585 C1584 1.377 . S
C1585 C1591 1.390 . S
C1586 H1577 0.930 . S
C1586 C1584 1.384 . S
C1586 C1587 1.372 . S
C1587 C1586 1.372 . S
C1587 C1588 1.400 . S
C1587 C1592 1.490 . S
C1588 H1578 0.930 . S
C1588 C1587 1.400 . S
C1588 C1591 1.386 . S
H1589 C1605 0.930 . S
H1590 C1606 0.931 . S
C1591 H1579 0.929 . S
C1591 C1585 1.390 . S
C1591 C1588 1.386 . S
C1592 C1587 1.490 . S
C1592 C1594 1.395 . S
C1592 C1595 1.403 . S
H1593 C1599 0.930 . S
C1594 H1580 0.930 . S
C1594 C1592 1.395 . S
C1594 C1597 1.403 . S
C1595 C1592 1.403 . S
C1595 C1596 1.524 . S
C1595 C1599 1.400 . S
C1596 H1581 0.960 . S
C1596 H1582 0.960 . S
C1596 H1583 0.960 . S
C1596 C1595 1.524 . S
C1597 C1594 1.403 . S
C1597 C1598 1.392 . S
C1597 C1601 1.495 . S
C1598 C1597 1.392 . S
C1598 C1599 1.385 . S
C1598 C1600 1.478 . S
C1599 H1593 0.930 . S
C1599 C1595 1.400 . S
C1599 C1598 1.385 . S
C1600 C1598 1.478 . S
C1600 C1602 1.381 . S
C1600 C1606 1.383 . S
C1601 C1597 1.495 . S
C1601 H1607 0.959 . S
C1601 H1608 0.961 . S
C1601 H1609 0.960 . S
C1602 C1600 1.381 . S
C1602 C1603 1.394 . S
C1602 H1610 0.930 . S
C1603 C1602 1.394 . S
C1603 C1604 1.383 . S
C1603 H1611 0.929 . S
C1604 C1603 1.383 . S
C1604 C1605 1.377 . S
C1605 H1589 0.930 . S
C1605 C1604 1.377 . S
C1605 C1606 1.379 . S
C1606 H1590 0.931 . S
C1606 C1600 1.383 . S
C1606 C1605 1.379 . S
H1607 C1601 0.959 . S
H1608 C1601 0.961 . S
H1609 C1601 0.960 . S
H1610 C1602 0.930 . S
H1611 C1603 0.929 . S
H1612 C1620 0.929 . S
H1613 C1622 0.930 . S
H1614 C1624 0.930 . S
H1615 C1627 0.929 . S
H1616 C1630 0.930 . S
H1617 C1632 0.960 . S
H1618 C1632 0.960 . S
H1619 C1632 0.960 . S
C1620 H1612 0.929 . S
C1620 C1621 1.377 . S
C1620 C1622 1.384 . S
C1621 C1620 1.377 . S
C1621 C1627 1.390 . S
C1622 H1613 0.930 . S
C1622 C1620 1.384 . S
C1622 C1623 1.372 . S
C1623 C1622 1.372 . S
C1623 C1624 1.400 . S
C1623 C1628 1.490 . S
C1624 H1614 0.930 . S
C1624 C1623 1.400 . S
C1624 C1627 1.386 . S
H1625 C1641 0.930 . S
H1626 C1642 0.931 . S
C1627 H1615 0.929 . S
C1627 C1621 1.390 . S
C1627 C1624 1.386 . S
C1628 C1623 1.490 . S
C1628 C1630 1.395 . S
C1628 C1631 1.403 . S
H1629 C1635 0.930 . S
C1630 H1616 0.930 . S
C1630 C1628 1.395 . S
C1630 C1633 1.403 . S
C1631 C1628 1.403 . S
C1631 C1632 1.524 . S
C1631 C1635 1.400 . S
C1632 H1617 0.960 . S
C1632 H1618 0.960 . S
C1632 H1619 0.960 . S
C1632 C1631 1.524 . S
C1633 C1630 1.403 . S
C1633 C1634 1.392 . S
C1633 C1637 1.495 . S
C1634 C1633 1.392 . S
C1634 C1635 1.385 . S
C1634 C1636 1.478 . S
C1635 H1629 0.930 . S
C1635 C1631 1.400 . S
C1635 C1634 1.385 . S
C1636 C1634 1.478 . S
C1636 C1638 1.381 . S
C1636 C1642 1.383 . S
C1637 C1633 1.495 . S
C1637 H1643 0.959 . S
C1637 H1644 0.961 . S
C1637 H1645 0.960 . S
C1638 C1636 1.381 . S
C1638 C1639 1.394 . S
C1638 H1646 0.930 . S
C1639 C1638 1.394 . S
C1639 C1640 1.383 . S
C1639 H1647 0.929 . S
C1640 C1639 1.383 . S
C1640 C1641 1.377 . S
C1641 H1625 0.930 . S
C1641 C1640 1.377 . S
C1641 C1642 1.379 . S
C1642 H1626 0.931 . S
C1642 C1636 1.383 . S
C1642 C1641 1.379 . S
H1643 C1637 0.959 . S
H1644 C1637 0.961 . S
H1645 C1637 0.960 . S
H1646 C1638 0.930 . S
H1647 C1639 0.929 . S
C524 C406 1.244 . S
C505 C36 1.211 . S
C560 C420 1.250 . S
C541 C93 1.236 . S
C596 C435 1.246 . S
C577 C126 1.238 . S
C613 C165 1.206 . S
C632 C393 1.240 . S
C649 C222 1.200 . S
C668 C392 1.217 . S
C685 C261 1.197 . S
C704 C407 1.224 . S
C740 C421 1.268 . S
C721 C318 1.254 . S
C776 C434 1.249 . S
C757 C381 1.248 . S
C793 C132 1.196 . S
C812 C462 1.232 . S
C848 C476 1.276 . S
C829 C189 1.251 . S
C865 C30 1.214 . S
C884 C491 1.197 . S
C920 C448 1.211 . S
C901 C69 1.172 . S
C937 C324 1.233 . S
C956 C449 1.193 . S
C973 C357 1.236 . S
C992 C463 1.197 . S
C1028 C477 1.233 . S
C1009 C228 1.240 . S
C1045 C285 1.256 . S
C1064 C490 1.279 . S
C1100 C415 1.724 . S
C1081 C45 1.733 . S
C1136 C433 1.702 . S
C1117 C84 1.732 . S
C1153 C117 1.726 . S
C1172 C391 1.705 . S
C1189 C174 1.712 . S
C1208 C401 1.756 . S
C1225 C213 1.723 . S
C1244 C429 1.735 . S
C1280 C387 1.735 . S
C1261 C270 1.706 . S
C1316 C405 1.666 . S
C1297 C309 1.723 . S
C1352 C419 1.661 . S
C1333 C372 1.733 . S
C1388 C471 1.732 . S
C1369 C141 1.726 . S
C1424 C489 1.691 . S
C1405 C180 1.723 . S
C1441 C21 1.723 . S
C1460 C443 1.714 . S
C1496 C457 1.731 . S
C1477 C78 1.693 . S
C1532 C485 1.740 . S
C1513 C333 1.744 . S
C1549 C366 1.708 . S
C1568 C447 1.718 . S
C1604 C461 1.687 . S
C1585 C237 1.729 . S
C1640 C475 1.671 . S
C1621 C276 1.734 . S
