# Generated by pormake.
# Topology ssa, (4,4)-cn, num edge types: 1
# Building blocks:
#     Node 0, Type 0, BuildingBlock: KOZSID_clean_sbu_0, # of connection points: 4
#     Node 1, Type 0, BuildingBlock: KOZSID_clean_sbu_0, # of connection points: 4
#     Node 2, Type 0, BuildingBlock: KOZSID_clean_sbu_0, # of connection points: 4
#     Node 3, Type 0, BuildingBlock: KOZSID_clean_sbu_0, # of connection points: 4
#     Node 4, Type 0, BuildingBlock: KOZSID_clean_sbu_0, # of connection points: 4
#     Node 5, Type 0, BuildingBlock: KOZSID_clean_sbu_0, # of connection points: 4
#     Node 6, Type 1, BuildingBlock: AZAVOO_clean_linker_0, # of connection points: 4
#     Node 7, Type 1, BuildingBlock: AZAVOO_clean_linker_0, # of connection points: 4
#     Node 8, Type 1, BuildingBlock: AZAVOO_clean_linker_0, # of connection points: 4
#     Node 9, Type 1, BuildingBlock: AZAVOO_clean_linker_0, # of connection points: 4
#     Node 10, Type 1, BuildingBlock: AZAVOO_clean_linker_0, # of connection points: 4
#     Node 11, Type 1, BuildingBlock: AZAVOO_clean_linker_0, # of connection points: 4
#     Edge 12, Type (0, 1), BuildingBlock: CIFDUS_clean_linker_0, # of connection points: 2
#     Edge 13, Type (0, 1), BuildingBlock: CIFDUS_clean_linker_0, # of connection points: 2
#     Edge 14, Type (0, 1), BuildingBlock: CIFDUS_clean_linker_0, # of connection points: 2
#     Edge 15, Type (0, 1), BuildingBlock: CIFDUS_clean_linker_0, # of connection points: 2
#     Edge 16, Type (0, 1), BuildingBlock: CIFDUS_clean_linker_0, # of connection points: 2
#     Edge 17, Type (0, 1), BuildingBlock: CIFDUS_clean_linker_0, # of connection points: 2
#     Edge 18, Type (0, 1), BuildingBlock: CIFDUS_clean_linker_0, # of connection points: 2
#     Edge 19, Type (0, 1), BuildingBlock: CIFDUS_clean_linker_0, # of connection points: 2
#     Edge 20, Type (0, 1), BuildingBlock: CIFDUS_clean_linker_0, # of connection points: 2
#     Edge 21, Type (0, 1), BuildingBlock: CIFDUS_clean_linker_0, # of connection points: 2
#     Edge 22, Type (0, 1), BuildingBlock: CIFDUS_clean_linker_0, # of connection points: 2
#     Edge 23, Type (0, 1), BuildingBlock: CIFDUS_clean_linker_0, # of connection points: 2
#     Edge 24, Type (0, 1), BuildingBlock: CIFDUS_clean_linker_0, # of connection points: 2
#     Edge 25, Type (0, 1), BuildingBlock: CIFDUS_clean_linker_0, # of connection points: 2
#     Edge 26, Type (0, 1), BuildingBlock: CIFDUS_clean_linker_0, # of connection points: 2
#     Edge 27, Type (0, 1), BuildingBlock: CIFDUS_clean_linker_0, # of connection points: 2
#     Edge 28, Type (0, 1), BuildingBlock: CIFDUS_clean_linker_0, # of connection points: 2
#     Edge 29, Type (0, 1), BuildingBlock: CIFDUS_clean_linker_0, # of connection points: 2
#     Edge 30, Type (0, 1), BuildingBlock: CIFDUS_clean_linker_0, # of connection points: 2
#     Edge 31, Type (0, 1), BuildingBlock: CIFDUS_clean_linker_0, # of connection points: 2
#     Edge 32, Type (0, 1), BuildingBlock: CIFDUS_clean_linker_0, # of connection points: 2
#     Edge 33, Type (0, 1), BuildingBlock: CIFDUS_clean_linker_0, # of connection points: 2
#     Edge 34, Type (0, 1), BuildingBlock: CIFDUS_clean_linker_0, # of connection points: 2
#     Edge 35, Type (0, 1), BuildingBlock: CIFDUS_clean_linker_0, # of connection points: 2
# Relax obj value: 0.074
# Max RMSD: 0.233
# Mean RMSD: 0.121
data_MOF--net-ssa--node1-KOZSID_clean_sbu_0--node2-AZAVOO_clean_linker_0--edge1-CIFDUS_clean_linker_0
_symmetry_space_group_name_H-M    P1
_symmetry_Int_Tables_number       1
_symmetry_cell_setting            triclinic
loop_
_symmetry_equiv_pos_as_xyz
'x, y, z'
_cell_length_a     48.600693
_cell_length_b     50.08692
_cell_length_c     46.900515
_cell_angle_alpha  87.20287
_cell_angle_beta   92.771995
_cell_angle_gamma 122.73999
loop_
_atom_site_label
_atom_site_type_symbol
_atom_site_fract_x
_atom_site_fract_y
_atom_site_fract_z
_atom_type_partial_charge
C0 C 0.09172 0.57127 0.02036 0.0
C1 C 0.06587 0.56572 0.03662 0.0
C2 C 0.06382 0.54649 0.05913 0.0
C3 C 0.08879 0.54191 0.05566 0.0
N4 N 0.10688 0.55735 0.03249 0.0
Co5 Co 0.14795 0.56065 0.02174 0.0
N6 N 0.14221 0.52878 0.05233 0.0
C7 C 0.11675 0.51245 0.07007 0.0
C8 C 0.11875 0.49107 0.08793 0.0
C9 C 0.14723 0.49392 0.08126 0.0
C10 C 0.16111 0.51717 0.05974 0.0
N11 N 0.19024 0.56546 0.01231 0.0
C12 C 0.20597 0.55234 0.02518 0.0
C13 C 0.23609 0.56385 0.01325 0.0
C14 C 0.23964 0.58521 0.99216 0.0
C15 C 0.21166 0.58559 0.99254 0.0
N16 N 0.1521 0.59065 0.98973 0.0
C17 C 0.17626 0.60505 0.97056 0.0
C18 C 0.17057 0.6208 0.94877 0.0
C19 C 0.14074 0.61582 0.95406 0.0
C20 C 0.13012 0.59768 0.97922 0.0
N21 N 0.17272 0.59621 0.04853 0.0
C22 C 0.20591 0.64696 0.08631 0.0
C23 C 0.21205 0.65189 0.05718 0.0
C24 C 0.19555 0.62633 0.03884 0.0
C25 C 0.18334 0.61623 0.09632 0.0
C26 C 0.16711 0.59146 0.07726 0.0
N27 N 0.1233 0.52542 0.99499 0.0
C28 C 0.1191 0.50179 0.95001 0.0
C29 C 0.08704 0.47707 0.9555 0.0
C30 C 0.07367 0.4766 0.9814 0.0
C31 C 0.09211 0.50081 0.00073 0.0
C32 C 0.13666 0.52552 0.96989 0.0
H33 H 0.08059 0.49932 0.02009 0.0
H34 H 0.16086 0.54395 0.9643 0.0
H35 H 0.20171 0.6317 0.01694 0.0
H36 H 0.14995 0.56879 0.0864 0.0
C37 C 0.09347 0.52043 0.07167 0.0
C38 C 0.09892 0.58723 0.9923 0.0
C39 C 0.19348 0.52919 0.04882 0.0
C40 C 0.2037 0.60281 0.97342 0.0
H41 H 0.0494 0.57376 0.03209 0.0
H42 H 0.04555 0.53612 0.07545 0.0
H43 H 0.10211 0.47605 0.10453 0.0
H44 H 0.15721 0.48109 0.09171 0.0
H45 H 0.25358 0.55738 0.01919 0.0
H46 H 0.26005 0.59863 0.97806 0.0
H47 H 0.1859 0.63372 0.93078 0.0
H48 H 0.12823 0.62423 0.94048 0.0
H49 H 0.2297 0.67532 0.04858 0.0
H50 H 0.17761 0.61137 0.11876 0.0
H51 H 0.13041 0.50331 0.93014 0.0
H52 H 0.04909 0.4576 0.98682 0.0
C53 C 0.61742 0.01685 0.61003 0.0
C54 C 0.61258 0.99971 0.63548 0.0
C55 C 0.58423 0.97082 0.63193 0.0
C56 C 0.57338 0.97193 0.60463 0.0
N57 N 0.59319 -0.00016 0.59053 0.0
Co58 Co 0.58649 0.01203 0.55068 0.0
N59 N 0.54435 0.97004 0.54573 0.0
C60 C 0.53223 0.94436 0.56359 0.0
C61 C 0.50667 0.91726 0.55179 0.0
C62 C 0.50153 0.92661 0.52526 0.0
C63 C 0.523 0.95933 0.52311 0.0
N64 N 0.57953 0.02406 0.51097 0.0
C65 C 0.55456 0.00708 0.49212 0.0
C66 C 0.56288 0.02008 0.46467 0.0
C67 C 0.59224 0.04832 0.46704 0.0
C68 C 0.60095 0.04999 0.49542 0.0
N69 N 0.62861 0.0541 0.55526 0.0
C70 C 0.64275 0.0782 0.53562 0.0
C71 C 0.67121 0.10447 0.54518 0.0
C72 C 0.67558 0.09671 0.57255 0.0
C73 C 0.64949 0.06589 0.57805 0.0
N74 N 0.61085 0.99414 0.53546 0.0
C75 C 0.64011 0.96567 0.51061 0.0
C76 C 0.64933 0.99653 0.50271 0.0
C77 C 0.63452 0.01026 0.51538 0.0
C78 C 0.6177 0.94998 0.53215 0.0
C79 C 0.60406 0.96477 0.54456 0.0
N80 N 0.5626 0.02964 0.56618 0.0
C81 C 0.56042 0.07529 0.5763 0.0
C82 C 0.5399 0.05872 0.5992 0.0
C83 C 0.52808 0.0265 0.60309 0.0
C84 C 0.53935 0.01243 0.58622 0.0
C85 C 0.57124 0.06019 0.55988 0.0
H86 H 0.53013 0.98796 0.59067 0.0
H87 H 0.58764 0.07386 0.54302 0.0
H88 H 0.6426 0.0338 0.50838 0.0
H89 H 0.5881 0.95169 0.5614 0.0
C90 C 0.54566 0.94668 0.59117 0.0
C91 C 0.64579 0.04884 0.60513 0.0
C92 C 0.52217 0.98021 0.50036 0.0
C93 C 0.62927 0.07507 0.50806 0.0
H94 H 0.62815 0.00721 0.65453 0.0
H95 H 0.5731 0.95117 0.64728 0.0
H96 H 0.49355 0.89351 0.5612 0.0
H97 H 0.48382 0.91097 0.50945 0.0
H98 H 0.54876 0.01069 0.44505 0.0
H99 H 0.60566 0.06546 0.4501 0.0
H100 H 0.68702 0.12655 0.53358 0.0
H101 H 0.69582 0.11199 0.58679 0.0
H102 H 0.66709 0.00961 0.48624 0.0
H103 H 0.61053 0.9262 0.53929 0.0
H104 H 0.56956 0.10016 0.57215 0.0
H105 H 0.51122 0.0125 0.61993 0.0
C106 C 0.63788 0.54403 0.02546 0.0
C107 C 0.64278 0.56331 0.00146 0.0
C108 C 0.61731 0.5676 0.9997 0.0
C109 C 0.59836 0.55066 0.02255 0.0
N110 N 0.61049 0.53633 0.03917 0.0
Co111 Co 0.58924 0.50705 0.07302 0.0
N112 N 0.55116 0.51244 0.06993 0.0
C113 C 0.54716 0.53142 0.051 0.0
C114 C 0.52024 0.5326 0.05568 0.0
C115 C 0.50657 0.51383 0.07943 0.0
C116 C 0.52592 0.50205 0.08778 0.0
N117 N 0.56721 0.47648 0.10586 0.0
C118 C 0.53961 0.46831 0.11942 0.0
C119 C 0.53281 0.44614 0.14135 0.0
C120 C 0.55752 0.44074 0.14217 0.0
C121 C 0.57777 0.45967 0.12064 0.0
N122 N 0.62808 0.50297 0.07713 0.0
C123 C 0.63355 0.48642 0.09774 0.0
C124 C 0.6624 0.48806 0.09498 0.0
C125 C 0.67601 0.50653 0.07103 0.0
C126 C 0.6545 0.51498 0.06049 0.0
N127 N 0.61117 0.54313 0.09946 0.0
C128 C 0.63313 0.59184 0.13897 0.0
C129 C 0.62913 0.56277 0.1473 0.0
C130 C 0.61867 0.5391 0.12727 0.0
C131 C 0.62824 0.59678 0.11008 0.0
C132 C 0.61718 0.57233 0.09094 0.0
N133 N 0.56726 0.47103 0.0465 0.0
C134 C 0.55965 0.42267 0.02923 0.0
C135 C 0.54207 0.42369 0.00519 0.0
C136 C 0.5361 0.44804 0.00286 0.0
C137 C 0.54874 0.4712 0.02358 0.0
C138 C 0.57172 0.44624 0.04956 0.0
H139 H 0.54383 0.48942 0.02018 0.0
H140 H 0.5851 0.44422 0.0673 0.0
H141 H 0.6159 0.51741 0.135 0.0
H142 H 0.61288 0.57749 0.06953 0.0
C143 C 0.5694 0.54818 0.02932 0.0
C144 C 0.65919 0.53268 0.03368 0.0
C145 C 0.52054 0.48265 0.11369 0.0
C146 C 0.60911 0.46604 0.11675 0.0
H147 H 0.66248 0.57289 0.98655 0.0
H148 H 0.61293 0.58114 0.98352 0.0
H149 H 0.512 0.54614 0.04367 0.0
H150 H 0.48524 0.50995 0.0898 0.0
H151 H 0.51276 0.43593 0.15596 0.0
H152 H 0.56122 0.42611 0.15761 0.0
H153 H 0.67166 0.47602 0.10803 0.0
H154 H 0.69865 0.51228 0.0618 0.0
H155 H 0.63276 0.55767 0.16937 0.0
H156 H 0.63218 0.61925 0.1022 0.0
H157 H 0.56431 0.40386 0.03229 0.0
H158 H 0.52269 0.44994 0.98459 0.0
C159 C 0.99355 0.41312 0.56918 0.0
C160 C 0.96133 0.38958 0.56254 0.0
C161 C 0.94998 0.40258 0.54271 0.0
C162 C 0.97576 0.43319 0.53827 0.0
N163 N 0.00291 0.44019 0.55367 0.0
Co164 Co 0.04498 0.48224 0.55425 0.0
N165 N 0.03214 0.49722 0.51921 0.0
C166 C 0.00162 0.48465 0.50825 0.0
C167 C 0.0006 0.50005 0.48355 0.0
C168 C 0.03251 0.52376 0.47872 0.0
C169 C 0.05117 0.52142 0.50085 0.0
N170 N 0.087 0.52416 0.55456 0.0
C171 C 0.1014 0.54582 0.53302 0.0
C172 C 0.13107 0.57198 0.54203 0.0
C173 C 0.13525 0.56629 0.57032 0.0
C174 C 0.108 0.53713 0.57692 0.0
N175 N 0.05784 0.46768 0.58965 0.0
C176 C 0.08244 0.48649 0.60802 0.0
C177 C 0.0854 0.47008 0.63095 0.0
C178 C 0.06075 0.43909 0.62715 0.0
C179 C 0.04389 0.43835 0.6021 0.0
N180 N 0.06479 0.46608 0.53082 0.0
C181 C 0.09957 0.45571 0.49168 0.0
C182 C 0.11312 0.46764 0.51871 0.0
C183 C 0.09542 0.47269 0.53787 0.0
C184 C 0.0671 0.44658 0.48567 0.0
C185 C 0.05006 0.45172 0.50563 0.0
N186 N 0.0256 0.49907 0.57747 0.0
C187 C 0.99314 0.4935 0.61714 0.0
C188 C 0.00147 0.52478 0.61273 0.0
C189 C 0.02144 0.54279 0.59001 0.0
C190 C 0.03285 0.52933 0.57236 0.0
C191 C 0.00569 0.48121 0.59945 0.0
H192 H 0.04798 0.54366 0.55483 0.0
H193 H 0.99965 0.45743 0.60394 0.0
H194 H 0.1073 0.48354 0.55777 0.0
H195 H 0.02562 0.44568 0.49999 0.0
C196 C 0.97617 0.45509 0.5183 0.0
C197 C 0.01222 0.41038 0.59348 0.0
C198 C 0.08661 0.543 0.5045 0.0
C199 C 0.10429 0.51875 0.60155 0.0
H200 H 0.94709 0.36588 0.5719 0.0
H201 H 0.9258 0.39107 0.53274 0.0
H202 H 0.97949 0.49377 0.46986 0.0
H203 H 0.04107 0.54058 0.46085 0.0
H204 H 0.1479 0.59287 0.52949 0.0
H205 H 0.15636 0.58099 0.584 0.0
H206 H 0.10347 0.47945 0.64824 0.0
H207 H 0.05504 0.41942 0.64172 0.0
H208 H 0.13775 0.47413 0.52472 0.0
H209 H 0.05547 0.43715 0.46514 0.0
H210 H 0.97782 0.47896 0.63466 0.0
H211 H 0.02814 0.56705 0.58592 0.0
C212 C 0.52612 0.0274 0.13614 0.0
C213 C 0.528 0.04491 0.15907 0.0
C214 C 0.55511 0.07465 0.15538 0.0
C215 C 0.56839 0.07362 0.13068 0.0
N216 N 0.55108 0.04514 0.11801 0.0
Co217 Co 0.56347 0.03226 0.08333 0.0
N218 N 0.60584 0.07457 0.08037 0.0
C219 C 0.61686 0.09957 0.09749 0.0
C220 C 0.64625 0.1258 0.08959 0.0
C221 C 0.65436 0.11721 0.06577 0.0
C222 C 0.62934 0.08609 0.06056 0.0
N223 N 0.5759 0.01909 0.04893 0.0
C224 C 0.60242 0.03581 0.03234 0.0
C225 C 0.60155 0.01781 0.01031 0.0
C226 C 0.57316 0.98879 0.01277 0.0
C227 C 0.55845 0.99069 0.03611 0.0
N228 N 0.52107 0.99006 0.08618 0.0
C229 C 0.50904 0.96572 0.06807 0.0
C230 C 0.47945 0.93966 0.07581 0.0
C231 C 0.47243 0.94755 0.10066 0.0
C232 C 0.49842 0.978 0.10677 0.0
N233 N 0.5421 0.04915 0.05784 0.0
C234 C 0.52378 0.07865 0.01534 0.0
C235 C 0.51577 0.04764 0.01237 0.0
C236 C 0.52468 0.03331 0.03388 0.0
C237 C 0.53843 0.09361 0.04102 0.0
C238 C 0.54722 0.07847 0.0619 0.0
N239 N 0.58523 0.01571 0.10843 0.0
C240 C 0.59543 0.97447 0.12137 0.0
C241 C 0.61613 0.99217 0.14398 0.0
C242 C 0.62124 0.02188 0.14849 0.0
C243 C 0.6058 0.03318 0.13049 0.0
C244 C 0.58018 0.9865 0.10411 0.0
H245 H 0.61075 0.05605 0.13493 0.0
H246 H 0.56417 0.97162 0.08759 0.0
H247 H 0.51826 0.00986 0.03007 0.0
H248 H 0.55926 0.09149 0.0806 0.0
C249 C 0.59862 0.09794 0.12038 0.0
C250 C 0.50146 0.99356 0.13331 0.0
C251 C 0.62824 0.06905 0.03579 0.0
C252 C 0.52749 0.96693 0.04553 0.0
H253 H 0.51218 0.0369 0.17715 0.0
H254 H 0.56482 0.09427 0.16971 0.0
H255 H 0.65986 0.14863 0.09964 0.0
H256 H 0.67595 0.13234 0.05333 0.0
H257 H 0.61932 0.02515 0.99383 0.0
H258 H 0.56396 0.96893 0.99882 0.0
H259 H 0.46528 0.91716 0.06524 0.0
H260 H 0.45113 0.93224 0.11338 0.0
H261 H 0.50349 0.03479 0.99313 0.0
H262 H 0.54471 0.11755 0.04438 0.0
H263 H 0.59034 0.95105 0.11743 0.0
H264 H 0.63718 0.03641 0.16577 0.0
C265 C 0.60378 0.60747 0.56222 0.0
C266 C 0.60134 0.63315 0.56747 0.0
C267 C 0.5773 0.6228 0.58685 0.0
C268 C 0.56664 0.5916 0.59248 0.0
N269 N 0.58284 0.58154 0.57824 0.0
Co270 Co 0.57512 0.53797 0.57992 0.0
N271 N 0.53914 0.52252 0.60785 0.0
C272 C 0.52711 0.53894 0.61798 0.0
C273 C 0.50454 0.52273 0.63884 0.0
C274 C 0.50277 0.49465 0.64287 0.0
C275 C 0.5244 0.49546 0.62411 0.0
N276 N 0.56726 0.49434 0.58159 0.0
C277 C 0.54926 0.46994 0.60014 0.0
C278 C 0.55161 0.44412 0.59552 0.0
C279 C 0.57269 0.4529 0.57365 0.0
C280 C 0.58189 0.48344 0.56628 0.0
N281 N 0.61144 0.55344 0.55232 0.0
C282 C 0.62241 0.53629 0.54163 0.0
C283 C 0.64637 0.55274 0.52203 0.0
C284 C 0.65076 0.58202 0.51972 0.0
C285 C 0.62927 0.5819 0.53833 0.0
N286 N 0.60682 0.54986 0.61245 0.0
C287 C 0.64501 0.55765 0.66217 0.0
C288 C 0.64817 0.54466 0.63778 0.0
C289 C 0.62905 0.54105 0.61338 0.0
C290 C 0.62383 0.56848 0.66062 0.0
C291 C 0.60528 0.5646 0.63564 0.0
N292 N 0.54308 0.52574 0.54731 0.0
C293 C 0.52413 0.50444 0.50008 0.0
C294 C 0.49941 0.51073 0.49988 0.0
C295 C 0.49666 0.52423 0.52413 0.0
C296 C 0.51866 0.53168 0.54725 0.0
C297 C 0.54522 0.51177 0.52382 0.0
H298 H 0.51549 0.54245 0.56469 0.0
H299 H 0.56329 0.50623 0.52235 0.0
H300 H 0.63201 0.53024 0.5958 0.0
H301 H 0.58911 0.57279 0.63588 0.0
C302 C 0.54088 0.57096 0.61037 0.0
C303 C 0.62491 0.60843 0.54052 0.0
C304 C 0.53265 0.47161 0.62427 0.0
C305 C 0.60769 0.50394 0.54846 0.0
H306 H 0.615 0.65672 0.55774 0.0
H307 H 0.56824 0.63624 0.59539 0.0
H308 H 0.4924 0.53114 0.65094 0.0
H309 H 0.48845 0.47632 0.6587 0.0
H310 H 0.54054 0.42193 0.60769 0.0
H311 H 0.58186 0.43942 0.56543 0.0
H312 H 0.65826 0.54406 0.50996 0.0
H313 H 0.66721 0.60078 0.50515 0.0
H314 H 0.66503 0.53684 0.63758 0.0
H315 H 0.62064 0.57889 0.67888 0.0
H316 H 0.52784 0.49449 0.48177 0.0
H317 H 0.47761 0.52911 0.52543 0.0
H318 H 0.31485 0.44878 0.47696 0.0
H319 H 0.1039 0.42877 0.21001 0.0
H320 H 0.36669 0.49725 0.31037 0.0
H321 H 0.40942 0.50583 0.34511 0.0
H322 H 0.35776 0.40466 0.36288 0.0
H323 H 0.31625 0.39625 0.32644 0.0
H324 H 0.31377 0.48439 0.35644 0.0
H325 H 0.31925 0.47903 0.40824 0.0
H326 H 0.26264 0.37681 0.40173 0.0
H327 H 0.2576 0.38259 0.34992 0.0
H328 H 0.25048 0.48622 0.32072 0.0
H329 H 0.2121 0.48388 0.35411 0.0
H330 H 0.16897 0.38281 0.36624 0.0
H331 H 0.20667 0.3853 0.33177 0.0
H332 H 0.25924 0.49852 0.25642 0.0
H333 H 0.21533 0.50258 0.23341 0.0
H334 H 0.14878 0.401 0.24412 0.0
H335 H 0.19307 0.39724 0.26672 0.0
H336 H 0.32512 0.5084 0.23667 0.0
H337 H 0.32047 0.53091 0.1908 0.0
H338 H 0.23536 0.43964 0.16857 0.0
H339 H 0.24145 0.4169 0.21395 0.0
H340 H 0.36845 0.49966 0.25829 0.0
H341 H 0.40715 0.50252 0.22484 0.0
H342 H 0.34149 0.40235 0.20943 0.0
H343 H 0.30274 0.39997 0.24251 0.0
O344 O 0.31217 0.45036 0.45649 0.0
O345 O 0.28247 0.39793 0.45206 0.0
O346 O 0.15691 0.47998 0.21409 0.0
O347 O 0.12167 0.42788 0.21921 0.0
C348 C 0.30892 0.44244 0.30113 0.0
C349 C 0.28309 0.43738 0.31808 0.0
C350 C 0.25664 0.43825 0.30546 0.0
C351 C 0.25635 0.44494 0.27593 0.0
C352 C 0.28217 0.45 0.25887 0.0
C353 C 0.30803 0.44794 0.27139 0.0
C354 C 0.33852 0.44612 0.31565 0.0
C355 C 0.36547 0.47682 0.32066 0.0
C356 C 0.38948 0.4817 0.34107 0.0
C357 C 0.3866 0.45601 0.35737 0.0
C358 C 0.36086 0.425 0.3507 0.0
C359 C 0.33711 0.42011 0.32984 0.0
C360 C 0.2852 0.43388 0.34957 0.0
C361 C 0.30246 0.46089 0.36631 0.0
C362 C 0.30559 0.45774 0.39586 0.0
C363 C 0.29138 0.42749 0.40913 0.0
C364 C 0.27386 0.40045 0.3922 0.0
C365 C 0.27084 0.40366 0.36265 0.0
C366 C 0.23141 0.43597 0.32393 0.0
C367 C 0.23239 0.46352 0.33028 0.0
C368 C 0.21065 0.46215 0.34959 0.0
C369 C 0.18767 0.4332 0.36317 0.0
C370 C 0.18615 0.40544 0.35605 0.0
C371 C 0.2078 0.40683 0.33653 0.0
C372 C 0.22936 0.44756 0.26302 0.0
C373 C 0.23517 0.47718 0.25371 0.0
C374 C 0.21004 0.47943 0.24063 0.0
C375 C 0.17854 0.45208 0.23685 0.0
C376 C 0.17274 0.4225 0.24663 0.0
C377 C 0.19795 0.42028 0.25961 0.0
C378 C 0.28367 0.46099 0.22866 0.0
C379 C 0.3064 0.4929 0.22136 0.0
C380 C 0.30337 0.50585 0.1953 0.0
C381 C 0.27718 0.48725 0.17622 0.0
C382 C 0.25596 0.45462 0.18263 0.0
C383 C 0.25929 0.44157 0.20862 0.0
C384 C 0.33289 0.44956 0.25295 0.0
C385 C 0.36267 0.47827 0.24798 0.0
C386 C 0.38476 0.47983 0.22887 0.0
C387 C 0.37742 0.45267 0.21435 0.0
C388 C 0.34774 0.42381 0.21989 0.0
C389 C 0.32569 0.42233 0.23895 0.0
C390 C 0.29498 0.42423 0.4405 0.0
C391 C 0.15182 0.45429 0.22271 0.0
H392 H 0.92639 0.3229 0.98778 0.0
H393 H 0.67293 0.02276 0.80893 0.0
H394 H 0.88299 0.307 0.81572 0.0
H395 H 0.92629 0.35814 0.83415 0.0
H396 H 0.97896 0.31544 0.86686 0.0
H397 H 0.93646 0.26492 0.84677 0.0
H398 H 0.86164 0.28183 0.87576 0.0
H399 H 0.88606 0.30548 0.92194 0.0
H400 H 0.91227 0.23612 0.93824 0.0
H401 H 0.88825 0.21306 0.89173 0.0
H402 H 0.7925 0.21853 0.87486 0.0
H403 H 0.75746 0.192 0.91584 0.0
H404 H 0.78816 0.12538 0.92177 0.0
H405 H 0.82376 0.15265 0.88093 0.0
H406 H 0.75702 0.18097 0.81342 0.0
H407 H 0.70474 0.13029 0.80757 0.0
H408 H 0.75478 0.08062 0.82013 0.0
H409 H 0.80688 0.13152 0.82568 0.0
H410 H 0.79665 0.22472 0.76552 0.0
H411 H 0.75835 0.19495 0.7267 0.0
H412 H 0.79158 0.13028 0.73058 0.0
H413 H 0.83127 0.16153 0.76831 0.0
H414 H 0.84724 0.2763 0.76986 0.0
H415 H 0.87495 0.31165 0.729 0.0
H416 H 0.94295 0.28119 0.7307 0.0
H417 H 0.91433 0.24509 0.7714 0.0
O418 O 0.9166 0.31299 0.96973 0.0
O419 O 0.92871 0.27626 0.97745 0.0
O420 O 0.66871 0.0698 0.80474 0.0
O421 O 0.69322 0.04312 0.81136 0.0
C422 C 0.87657 0.25023 0.82671 0.0
C423 C 0.86018 0.23267 0.85166 0.0
C424 C 0.83042 0.2031 0.84938 0.0
C425 C 0.81738 0.19059 0.82229 0.0
C426 C 0.83339 0.20824 0.79732 0.0
C427 C 0.86286 0.23828 0.79944 0.0
C428 C 0.90662 0.28227 0.82985 0.0
C429 C 0.9047 0.3091 0.82551 0.0
C430 C 0.92918 0.33817 0.83658 0.0
C431 C 0.9557 0.34071 0.8526 0.0
C432 C 0.95901 0.31445 0.85455 0.0
C433 C 0.93473 0.2855 0.84308 0.0
C434 C 0.87345 0.24592 0.88035 0.0
C435 C 0.87272 0.27183 0.88933 0.0
C436 C 0.88664 0.28525 0.91573 0.0
C437 C 0.90121 0.27276 0.93375 0.0
C438 C 0.90131 0.24637 0.92486 0.0
C439 C 0.88753 0.23308 0.89837 0.0
C440 C 0.81053 0.18742 0.87501 0.0
C441 C 0.79178 0.19833 0.88517 0.0
C442 C 0.77164 0.18302 0.90841 0.0
C443 C 0.76985 0.15645 0.92191 0.0
C444 C 0.7892 0.14593 0.91195 0.0
C445 C 0.80937 0.1613 0.8886 0.0
C446 C 0.78559 0.15978 0.81997 0.0
C447 C 0.75655 0.15908 0.81498 0.0
C448 C 0.72678 0.13012 0.81162 0.0
C449 C 0.72559 0.10138 0.81336 0.0
C450 C 0.75482 0.10228 0.81866 0.0
C451 C 0.78458 0.13127 0.82192 0.0
C452 C 0.81718 0.19565 0.76932 0.0
C453 C 0.79684 0.20512 0.75699 0.0
C454 C 0.77439 0.18758 0.73527 0.0
C455 C 0.77143 0.15986 0.72592 0.0
C456 C 0.79335 0.15161 0.73711 0.0
C457 C 0.81614 0.16948 0.75859 0.0
C458 C 0.87856 0.25791 0.7734 0.0
C459 C 0.86769 0.27676 0.76106 0.0
C460 C 0.8838 0.29721 0.73791 0.0
C461 C 0.91131 0.2994 0.72669 0.0
C462 C 0.92167 0.27984 0.73867 0.0
C463 C 0.90548 0.25933 0.76195 0.0
C464 C 0.91634 0.28732 0.96164 0.0
C465 C 0.69407 0.07057 0.80956 0.0
H466 H 0.66393 0.74665 0.13805 0.0
H467 H 0.72327 0.00669 0.34322 0.0
H468 H 0.63361 0.73713 0.29182 0.0
H469 H 0.62622 0.6929 0.26565 0.0
H470 H 0.72956 0.73004 0.27611 0.0
H471 H 0.73638 0.77363 0.30393 0.0
H472 H 0.64331 0.78396 0.24729 0.0
H473 H 0.64261 0.76622 0.19938 0.0
H474 H 0.74554 0.80105 0.20967 0.0
H475 H 0.74584 0.81868 0.25754 0.0
H476 H 0.63911 0.83594 0.27858 0.0
H477 H 0.6309 0.86909 0.24387 0.0
H478 H 0.73044 0.91328 0.21685 0.0
H479 H 0.73882 0.88015 0.25242 0.0
H480 H 0.64383 0.84881 0.33878 0.0
H481 H 0.6442 0.89639 0.34914 0.0
H482 H 0.74489 0.95491 0.3234 0.0
H483 H 0.74434 0.90707 0.31359 0.0
H484 H 0.63802 0.79096 0.37609 0.0
H485 H 0.62534 0.81046 0.41657 0.0
H486 H 0.72166 0.89686 0.41287 0.0
H487 H 0.73541 0.875 0.37507 0.0
H488 H 0.63289 0.7376 0.3422 0.0
H489 H 0.6174 0.69881 0.38086 0.0
H490 H 0.7084 0.76328 0.42584 0.0
H491 H 0.72539 0.80038 0.38488 0.0
O492 O 0.66498 0.7547 0.15666 0.0
O493 O 0.71825 0.77436 0.16244 0.0
O494 O 0.67077 0.95632 0.35253 0.0
O495 O 0.72243 0.98748 0.33925 0.0
C496 C 0.69077 0.78909 0.30821 0.0
C497 C 0.69425 0.81057 0.28577 0.0
C498 C 0.6946 0.83798 0.29165 0.0
C499 C 0.69422 0.8455 0.32014 0.0
C500 C 0.69161 0.82457 0.34288 0.0
C501 C 0.68881 0.7957 0.33684 0.0
C502 C 0.68539 0.75825 0.30036 0.0
C503 C 0.65434 0.73481 0.2899 0.0
C504 C 0.65032 0.70992 0.27436 0.0
C505 C 0.67745 0.70839 0.26824 0.0
C506 C 0.70818 0.73053 0.28055 0.0
C507 C 0.7121 0.75533 0.29657 0.0
C508 C 0.69466 0.80269 0.25574 0.0
C509 C 0.66576 0.78811 0.23896 0.0
C510 C 0.6654 0.77785 0.21169 0.0
C511 C 0.69399 0.7821 0.20074 0.0
C512 C 0.72309 0.79737 0.21747 0.0
C513 C 0.72338 0.80759 0.24474 0.0
C514 C 0.68965 0.85598 0.26818 0.0
C515 C 0.65913 0.85266 0.2651 0.0
C516 C 0.65452 0.87163 0.2454 0.0
C517 C 0.68021 0.89395 0.22809 0.0
C518 C 0.71037 0.89625 0.23011 0.0
C519 C 0.71515 0.87742 0.25026 0.0
C520 C 0.6942 0.8745 0.32579 0.0
C521 C 0.66599 0.87192 0.33556 0.0
C522 C 0.66624 0.89914 0.34136 0.0
C523 C 0.69463 0.92947 0.33718 0.0
C524 C 0.72267 0.93193 0.32694 0.0
C525 C 0.72243 0.90467 0.32127 0.0
C526 C 0.68755 0.8317 0.37228 0.0
C527 C 0.65703 0.81327 0.38509 0.0
C528 C 0.64952 0.82501 0.40783 0.0
C529 C 0.6718 0.85606 0.41732 0.0
C530 C 0.70359 0.87296 0.40638 0.0
C531 C 0.71157 0.86053 0.38452 0.0
C532 C 0.6808 0.77144 0.36005 0.0
C533 C 0.65024 0.74275 0.35967 0.0
C534 C 0.64094 0.72093 0.38246 0.0
C535 C 0.66132 0.72783 0.40698 0.0
C536 C 0.69213 0.75668 0.40729 0.0
C537 C 0.70188 0.7781 0.38392 0.0
C538 C 0.69329 0.77026 0.17214 0.0
C539 C 0.69509 0.95847 0.34347 0.0
H540 H 0.78996 0.62186 0.66374 0.0
H541 H 0.02984 0.55037 0.83353 0.0
H542 H 0.84338 0.64542 0.80971 0.0
H543 H 0.79636 0.64413 0.78754 0.0
H544 H 0.73332 0.54686 0.81742 0.0
H545 H 0.78097 0.54802 0.83842 0.0
H546 H 0.878 0.63886 0.76069 0.0
H547 H 0.84889 0.64039 0.71715 0.0
H548 H 0.769 0.54435 0.73592 0.0
H549 H 0.79851 0.54309 0.77921 0.0
H550 H 0.93408 0.62895 0.767 0.0
H551 H 0.95112 0.61653 0.72382 0.0
H552 H 0.87258 0.51796 0.73423 0.0
H553 H 0.85497 0.53114 0.7761 0.0
H554 H 0.96034 0.63386 0.84098 0.0
H555 H 0.00909 0.63105 0.84559 0.0
H556 H 0.95122 0.53309 0.82033 0.0
H557 H 0.90259 0.5361 0.81627 0.0
H558 H 0.92243 0.62884 0.89474 0.0
H559 H 0.95733 0.62277 0.93031 0.0
H560 H 0.91405 0.52572 0.9046 0.0
H561 H 0.87778 0.53145 0.87146 0.0
H562 H 0.85284 0.63579 0.87733 0.0
H563 H 0.81968 0.62953 0.9178 0.0
H564 H 0.79228 0.53207 0.92981 0.0
H565 H 0.8245 0.53827 0.88869 0.0
O566 O 0.80149 0.62044 0.68058 0.0
O567 O 0.76103 0.57111 0.69134 0.0
O568 O 0.03967 0.60267 0.84443 0.0
O569 O 0.01108 0.5523 0.83139 0.0
C570 C 0.84423 0.59336 0.82673 0.0
C571 C 0.85658 0.5911 0.8008 0.0
C572 C 0.88338 0.58756 0.80124 0.0
C573 C 0.89821 0.58666 0.82747 0.0
C574 C 0.88441 0.58647 0.85348 0.0
C575 C 0.85735 0.58988 0.8532 0.0
C576 C 0.81563 0.59664 0.82514 0.0
C577 C 0.81921 0.62433 0.81262 0.0
C578 C 0.7922 0.62351 0.79993 0.0
C579 C 0.76121 0.59506 0.79998 0.0
C580 C 0.75706 0.56887 0.81637 0.0
C581 C 0.78418 0.5696 0.82877 0.0
C582 C 0.84027 0.59095 0.77311 0.0
C583 C 0.8544 0.61808 0.75514 0.0
C584 C 0.83763 0.61892 0.73039 0.0
C585 C 0.80649 0.59257 0.72317 0.0
C586 C 0.79285 0.5651 0.74091 0.0
C587 C 0.80966 0.56429 0.7656 0.0
C588 C 0.89335 0.58091 0.77452 0.0
C589 C 0.92046 0.60482 0.75959 0.0
C590 C 0.93025 0.59757 0.7351 0.0
C591 C 0.91328 0.56617 0.72542 0.0
C592 C 0.88587 0.54248 0.74051 0.0
C593 C 0.87588 0.54987 0.76463 0.0
C594 C 0.92806 0.58532 0.82796 0.0
C595 C 0.95834 0.61192 0.83619 0.0
C596 C 0.98611 0.61021 0.83889 0.0
C597 C 0.98406 0.58183 0.83331 0.0
C598 C 0.95368 0.55533 0.82471 0.0
C599 C 0.92591 0.55705 0.82212 0.0
C600 C 0.8978 0.58064 0.88044 0.0
C601 C 0.91958 0.60591 0.8979 0.0
C602 C 0.94003 0.60252 0.91775 0.0
C603 C 0.93944 0.574 0.91996 0.0
C604 C 0.91538 0.548 0.90403 0.0
C605 C 0.89447 0.55119 0.88487 0.0
C606 C 0.84116 0.58752 0.88009 0.0
C607 C 0.84 0.61323 0.88897 0.0
C608 C 0.82114 0.60962 0.91218 0.0
C609 C 0.80312 0.58021 0.92698 0.0
C610 C 0.80542 0.55488 0.91864 0.0
C611 C 0.82416 0.55849 0.89537 0.0
C612 C 0.78823 0.59391 0.69742 0.0
C613 C 0.01334 0.5797 0.83671 0.0
H614 H 0.25861 0.8303 0.51185 0.0
H615 H 0.15606 0.61388 0.24301 0.0
H616 H 0.30038 0.87871 0.36168 0.0
H617 H 0.33737 0.91438 0.39946 0.0
H618 H 0.39356 0.87111 0.39795 0.0
H619 H 0.35671 0.83554 0.36091 0.0
H620 H 0.23923 0.81893 0.38784 0.0
H621 H 0.24034 0.8259 0.43931 0.0
H622 H 0.31095 0.79885 0.45177 0.0
H623 H 0.30932 0.79171 0.40033 0.0
H624 H 0.18816 0.75371 0.35835 0.0
H625 H 0.15059 0.70854 0.38922 0.0
H626 H 0.22531 0.68746 0.40601 0.0
H627 H 0.26199 0.73182 0.37433 0.0
H628 H 0.18857 0.74752 0.30085 0.0
H629 H 0.14997 0.69799 0.27663 0.0
H630 H 0.22391 0.67492 0.27795 0.0
H631 H 0.26204 0.7243 0.3025 0.0
H632 H 0.23685 0.78895 0.25436 0.0
H633 H 0.23288 0.76418 0.20937 0.0
H634 H 0.31925 0.76338 0.23411 0.0
H635 H 0.32252 0.78743 0.27932 0.0
H636 H 0.291 0.8596 0.27301 0.0
H637 H 0.33008 0.89845 0.2389 0.0
H638 H 0.40576 0.88752 0.27869 0.0
H639 H 0.36572 0.84685 0.31107 0.0
O640 O 0.25822 0.82702 0.49164 0.0
O641 O 0.29496 0.81355 0.49679 0.0
O642 O 0.13317 0.64586 0.25354 0.0
O643 O 0.17059 0.63331 0.25303 0.0
C644 C 0.29954 0.82745 0.34273 0.0
C645 C 0.27459 0.80212 0.35916 0.0
C646 C 0.25086 0.77355 0.34617 0.0
C647 C 0.25183 0.7702 0.31669 0.0
C648 C 0.27666 0.79548 0.30014 0.0
C649 C 0.30042 0.82431 0.31304 0.0
C650 C 0.32643 0.85514 0.35798 0.0
C651 C 0.32157 0.878 0.36863 0.0
C652 C 0.34237 0.89805 0.3903 0.0
C653 C 0.36797 0.89514 0.40142 0.0
C654 C 0.37395 0.8737 0.38948 0.0
C655 C 0.35331 0.85382 0.36798 0.0
C656 C 0.27429 0.80497 0.39047 0.0
C657 C 0.25475 0.81437 0.40179 0.0
C658 C 0.25551 0.81839 0.43116 0.0
C659 C 0.27584 0.81305 0.44965 0.0
C660 C 0.29508 0.80322 0.43815 0.0
C661 C 0.2942 0.79912 0.4088 0.0
C662 C 0.22764 0.74585 0.36414 0.0
C663 C 0.19615 0.73906 0.36853 0.0
C664 C 0.17489 0.71342 0.38632 0.0
C665 C 0.18492 0.69433 0.40013 0.0
C666 C 0.21653 0.70125 0.39537 0.0
C667 C 0.23763 0.72671 0.37747 0.0
C668 C 0.22799 0.73938 0.30342 0.0
C669 C 0.19621 0.73154 0.29614 0.0
C670 C 0.1743 0.70333 0.28221 0.0
C671 C 0.18389 0.68252 0.27529 0.0
C672 C 0.21573 0.69039 0.28294 0.0
C673 C 0.23754 0.71853 0.29698 0.0
C674 C 0.2798 0.78972 0.27012 0.0
C675 C 0.25553 0.78442 0.24959 0.0
C676 C 0.25336 0.77032 0.2239 0.0
C677 C 0.2755 0.76143 0.21846 0.0
C678 C 0.30159 0.76957 0.23796 0.0
C679 C 0.30371 0.78361 0.26362 0.0
C680 C 0.3256 0.85088 0.29505 0.0
C681 C 0.31615 0.86594 0.27455 0.0
C682 C 0.33867 0.88833 0.25513 0.0
C683 C 0.37132 0.8964 0.25593 0.0
C684 C 0.38083 0.88174 0.27706 0.0
C685 C 0.35811 0.85893 0.29613 0.0
C686 C 0.27699 0.81783 0.48078 0.0
C687 C 0.16093 0.65282 0.26 0.0
H688 H 0.51687 0.2919 0.60355 0.0
H689 H 0.44505 0.03291 0.83038 0.0
H690 H 0.54718 0.3096 0.7567 0.0
H691 H 0.54853 0.35405 0.73165 0.0
H692 H 0.44974 0.31743 0.75748 0.0
H693 H 0.44841 0.27232 0.78189 0.0
H694 H 0.53987 0.25789 0.71938 0.0
H695 H 0.53936 0.27404 0.66934 0.0
H696 H 0.44149 0.25344 0.67823 0.0
H697 H 0.44217 0.23695 0.7281 0.0
H698 H 0.54081 0.20194 0.75776 0.0
H699 H 0.54726 0.1736 0.72038 0.0
H700 H 0.45241 0.14654 0.68432 0.0
H701 H 0.44588 0.17472 0.72229 0.0
H702 H 0.53618 0.19109 0.81859 0.0
H703 H 0.53081 0.14111 0.83382 0.0
H704 H 0.43037 0.08947 0.80242 0.0
H705 H 0.43594 0.13973 0.78774 0.0
H706 H 0.54447 0.24142 0.85137 0.0
H707 H 0.54746 0.2181 0.89781 0.0
H708 H 0.44276 0.15243 0.89451 0.0
H709 H 0.43991 0.17528 0.84768 0.0
H710 H 0.55103 0.3049 0.81868 0.0
H711 H 0.56415 0.34033 0.85818 0.0
H712 H 0.46647 0.27746 0.88965 0.0
H713 H 0.45327 0.24259 0.84942 0.0
O714 O 0.51647 0.28519 0.62331 0.0
O715 O 0.46629 0.2745 0.62909 0.0
O716 O 0.4995 0.08076 0.8406 0.0
O717 O 0.4479 0.05303 0.82441 0.0
C718 C 0.49424 0.25719 0.77939 0.0
C719 C 0.49154 0.237 0.75782 0.0
C720 C 0.49009 0.20863 0.76531 0.0
C721 C 0.48915 0.19945 0.79436 0.0
C722 C 0.49123 0.21934 0.81591 0.0
C723 C 0.49462 0.24863 0.80847 0.0
C724 C 0.49764 0.28771 0.7709 0.0
C725 C 0.52619 0.3117 0.75763 0.0
C726 C 0.52691 0.33715 0.74339 0.0
C727 C 0.49909 0.33915 0.7423 0.0
C728 C 0.47137 0.31629 0.75756 0.0
C729 C 0.47067 0.29073 0.77177 0.0
C730 C 0.491 0.24613 0.72727 0.0
C731 C 0.51827 0.25666 0.71038 0.0
C732 C 0.51794 0.26597 0.68186 0.0
C733 C 0.49038 0.26504 0.66978 0.0
C734 C 0.46309 0.25444 0.68684 0.0
C735 C 0.46341 0.24502 0.71532 0.0
C736 C 0.49275 0.19014 0.74294 0.0
C737 C 0.5212 0.18953 0.74205 0.0
C738 C 0.52488 0.1734 0.72065 0.0
C739 C 0.50029 0.15779 0.69948 0.0
C740 C 0.47183 0.15856 0.70026 0.0
C741 C 0.468 0.17447 0.72195 0.0
C742 C 0.48635 0.16901 0.80233 0.0
C743 C 0.513 0.16896 0.81514 0.0
C744 C 0.50989 0.14038 0.82374 0.0
C745 C 0.4801 0.11127 0.81943 0.0
C746 C 0.45361 0.11144 0.80613 0.0
C747 C 0.45674 0.14008 0.79765 0.0
C748 C 0.49199 0.20998 0.84626 0.0
C749 C 0.52209 0.22263 0.86106 0.0
C750 C 0.52379 0.20932 0.88741 0.0
C751 C 0.49531 0.18368 0.8995 0.0
C752 C 0.46491 0.17243 0.8856 0.0
C753 C 0.46328 0.1854 0.85899 0.0
C754 C 0.50117 0.27125 0.83111 0.0
C755 C 0.53229 0.29907 0.83383 0.0
C756 C 0.53985 0.31907 0.85661 0.0
C757 C 0.51645 0.31157 0.87725 0.0
C758 C 0.48496 0.28405 0.87403 0.0
C759 C 0.4774 0.26405 0.85115 0.0
C760 C 0.49019 0.27516 0.63953 0.0
C761 C 0.47656 0.08085 0.8288 0.0
H762 H 0.23113 0.55987 0.09437 0.0
H763 H 0.2024 0.48086 0.0411 0.0
H764 H 0.2291 0.46214 0.07483 0.0
H765 H 0.25519 0.46538 0.12216 0.0
H766 H 0.28059 0.5433 0.17629 0.0
H767 H 0.26138 0.5657 0.13945 0.0
C768 C 0.23162 0.53906 0.08992 0.0
C769 C 0.21529 0.52177 0.06547 0.0
C770 C 0.24617 0.52815 0.1097 0.0
C771 C 0.21531 0.49456 0.0598 0.0
C772 C 0.23028 0.48379 0.07917 0.0
C773 C 0.25678 0.4874 0.12575 0.0
C774 C 0.26937 0.50257 0.152 0.0
C775 C 0.24491 0.49988 0.10464 0.0
C776 C 0.27156 0.53131 0.15618 0.0
C777 C 0.26027 0.54405 0.1352 0.0
H778 H 0.64236 0.07626 0.65161 0.0
H779 H 0.70605 0.05773 0.60804 0.0
H780 H 0.75099 0.09037 0.6419 0.0
H781 H 0.77273 0.12677 0.682 0.0
H782 H 0.70823 0.14419 0.72622 0.0
H783 H 0.66316 0.10988 0.69374 0.0
C784 C 0.666 0.07906 0.65 0.0
C785 C 0.67123 0.06477 0.62778 0.0
C786 C 0.69161 0.09807 0.66925 0.0
C787 C 0.70179 0.06854 0.62533 0.0
C788 C 0.72739 0.08729 0.6445 0.0
C789 C 0.74874 0.1228 0.68473 0.0
C790 C 0.74409 0.1385 0.70622 0.0
C791 C 0.72272 0.1026 0.66626 0.0
C792 C 0.71281 0.13317 0.70935 0.0
C793 C 0.68688 0.11326 0.69099 0.0
H794 H 0.67235 0.60789 0.18759 0.0
H795 H 0.60911 0.63007 0.13873 0.0
H796 H 0.61902 0.66895 0.17337 0.0
H797 H 0.64392 0.69562 0.21796 0.0
H798 H 0.70405 0.67177 0.26941 0.0
H799 H 0.69701 0.63456 0.23331 0.0
C800 C 0.66052 0.62102 0.1846 0.0
C801 C 0.64022 0.61608 0.16028 0.0
C802 C 0.66561 0.64296 0.20513 0.0
C803 C 0.6255 0.63375 0.15673 0.0
C804 C 0.63085 0.65584 0.17673 0.0
C805 C 0.65511 0.68193 0.22157 0.0
C806 C 0.67396 0.68599 0.2466 0.0
C807 C 0.65058 0.66042 0.20107 0.0
C808 C 0.68931 0.66897 0.25036 0.0
C809 C 0.68519 0.64764 0.22978 0.0
H810 H 0.93901 0.50491 0.6236 0.0
H811 H 0.03909 0.57561 0.64613 0.0
H812 H 0.02075 0.59583 0.68242 0.0
H813 H 0.97627 0.59066 0.70981 0.0
H814 H 0.8759 0.52231 0.68472 0.0
H815 H 0.89436 0.50372 0.64752 0.0
C816 C 0.95667 0.52492 0.63635 0.0
C817 C 0.99023 0.53873 0.63253 0.0
C818 C 0.94594 0.53659 0.65683 0.0
C819 C 0.01309 0.56478 0.64883 0.0
C820 C 0.00262 0.57621 0.66958 0.0
C821 C 0.95834 0.5722 0.69585 0.0
C822 C 0.92468 0.5576 0.70055 0.0
C823 C 0.96909 0.562 0.67404 0.0
C824 C 0.90196 0.53344 0.68226 0.0
C825 C 0.91246 0.52288 0.66079 0.0
H826 H 0.45467 0.99774 0.15869 0.0
H827 H 0.50177 0.94541 0.16191 0.0
H828 H 0.46589 0.91071 0.20016 0.0
H829 H 0.42003 0.8943 0.23131 0.0
H830 H 0.3757 0.94937 0.23094 0.0
H831 H 0.41149 0.98385 0.1929 0.0
C832 C 0.45731 0.97903 0.16817 0.0
C833 C 0.48085 0.97415 0.1578 0.0
C834 C 0.43698 0.95956 0.19045 0.0
C835 C 0.48381 0.94955 0.16976 0.0
C836 C 0.46333 0.92976 0.19156 0.0
C837 C 0.41852 0.91419 0.22345 0.0
C838 C 0.39483 0.91888 0.23405 0.0
C839 C 0.43971 0.93446 0.20198 0.0
C840 C 0.39308 0.94458 0.22291 0.0
C841 C 0.41374 0.96454 0.20124 0.0
H842 H 0.47954 0.41559 0.64121 0.0
H843 H 0.57925 0.48568 0.66516 0.0
H844 H 0.57675 0.45221 0.70618 0.0
H845 H 0.54738 0.40123 0.73279 0.0
H846 H 0.44845 0.32979 0.70699 0.0
H847 H 0.44896 0.36577 0.66979 0.0
C848 C 0.5004 0.42352 0.65579 0.0
C849 C 0.52947 0.45277 0.65055 0.0
C850 C 0.49886 0.40396 0.67896 0.0
C851 C 0.55665 0.46312 0.66913 0.0
C852 C 0.55522 0.44401 0.69244 0.0
C853 C 0.52587 0.3936 0.71913 0.0
C854 C 0.49799 0.36279 0.72267 0.0
C855 C 0.52665 0.41409 0.69721 0.0
C856 C 0.47012 0.35349 0.70506 0.0
C857 C 0.47049 0.37393 0.68353 0.0
H858 H 0.60402 0.91551 0.4775 0.0
H859 H 0.70222 0.97822 0.51007 0.0
H860 H 0.72046 0.94807 0.48604 0.0
H861 H 0.70792 0.90377 0.45585 0.0
H862 H 0.61033 0.84561 0.41887 0.0
H863 H 0.59221 0.87322 0.4455 0.0
C864 C 0.62941 0.92249 0.47922 0.0
C865 C 0.65184 0.94878 0.49539 0.0
C866 C 0.63966 0.90552 0.465 0.0
C867 C 0.68471 0.95801 0.49752 0.0
C868 C 0.69501 0.94072 0.48393 0.0
C869 C 0.68275 0.89719 0.45329 0.0
C870 C 0.66063 0.87202 0.43547 0.0
C871 C 0.67265 0.9144 0.46755 0.0
C872 C 0.62794 0.86389 0.43305 0.0
C873 C 0.61751 0.88009 0.44795 0.0
H874 H 0.72149 0.58269 0.02712 0.0
H875 H 0.65014 0.49044 0.99471 0.0
H876 H 0.6887 0.4965 0.95919 0.0
H877 H 0.74185 0.52893 0.93641 0.0
H878 H 0.81386 0.62117 0.96911 0.0
H879 H 0.7759 0.61449 0.00529 0.0
C880 C 0.7147 0.56398 0.01231 0.0
C881 C 0.68333 0.5362 0.01325 0.0
C882 C 0.73696 0.56773 0.99198 0.0
C883 C 0.67435 0.51195 0.99414 0.0
C884 C 0.69631 0.51546 0.9739 0.0
C885 C 0.7495 0.54738 0.95173 0.0
C886 C 0.78072 0.57552 0.95 0.0
C887 C 0.72761 0.54333 0.97252 0.0
C888 C 0.78987 0.59943 0.96971 0.0
C889 C 0.76823 0.59557 0.9905 0.0
H890 H 0.09088 0.59867 0.49548 0.0
H891 H 0.12423 0.54171 0.46443 0.0
H892 H 0.15684 0.5831 0.42834 0.0
H893 H 0.17633 0.63582 0.40644 0.0
H894 H 0.14438 0.69359 0.43907 0.0
H895 H 0.11013 0.65132 0.47332 0.0
C896 C 0.10524 0.59547 0.48062 0.0
C897 C 0.10536 0.5675 0.48223 0.0
C898 C 0.12393 0.61935 0.46024 0.0
C899 C 0.12395 0.56323 0.46325 0.0
C900 C 0.14251 0.58682 0.44274 0.0
C901 C 0.16205 0.63927 0.42115 0.0
C902 C 0.16301 0.66793 0.42013 0.0
C903 C 0.14283 0.61507 0.44117 0.0
C904 C 0.14382 0.67168 0.43905 0.0
C905 C 0.1244 0.64761 0.45883 0.0
H906 H 0.49679 0.11439 0.01519 0.0
H907 H 0.54168 0.08216 0.96083 0.0
H908 H 0.53716 0.11222 0.92039 0.0
H909 H 0.52125 0.14827 0.90052 0.0
H910 H 0.4743 0.1792 0.95351 0.0
H911 H 0.47891 0.14928 0.99461 0.0
C912 C 0.50552 0.11402 0.99446 0.0
C913 C 0.51943 0.09604 0.99092 0.0
C914 C 0.50264 0.13123 0.97119 0.0
C915 C 0.53048 0.0955 0.96394 0.0
C916 C 0.52811 0.11283 0.94087 0.0
C917 C 0.5122 0.14847 0.92117 0.0
C918 C 0.49788 0.16601 0.92439 0.0
C919 C 0.51439 0.13085 0.94428 0.0
C920 C 0.48561 0.16588 0.95088 0.0
C921 C 0.48823 0.14881 0.97424 0.0
H922 H 0.47519 0.46147 0.46316 0.0
H923 H 0.47409 0.54525 0.47864 0.0
H924 H 0.43867 0.53505 0.43668 0.0
H925 H 0.40852 0.50297 0.39545 0.0
H926 H 0.41295 0.42172 0.37727 0.0
H927 H 0.44683 0.43056 0.42042 0.0
C928 C 0.46762 0.4778 0.45723 0.0
C929 C 0.47737 0.50407 0.47432 0.0
C930 C 0.44792 0.47233 0.43252 0.0
C931 C 0.46657 0.52447 0.46642 0.0
C932 C 0.44653 0.51886 0.44219 0.0
C933 C 0.4174 0.4875 0.40051 0.0
C934 C 0.40842 0.46189 0.38287 0.0
C935 C 0.43722 0.49299 0.42504 0.0
C936 C 0.41932 0.44152 0.39046 0.0
C937 C 0.43879 0.44664 0.41509 0.0
H938 H 0.0234 0.45199 0.93985 0.0
H939 H 0.10689 0.44689 0.92288 0.0
H940 H 0.07437 0.40597 0.88783 0.0
H941 H 0.02161 0.37036 0.86321 0.0
H942 H 0.93762 0.37375 0.88272 0.0
H943 H 0.97107 0.41685 0.91522 0.0
C944 C 0.03441 0.44173 0.92868 0.0
C945 C 0.06743 0.45232 0.93412 0.0
C946 C 0.01556 0.41807 0.90879 0.0
C947 C 0.08155 0.4393 0.91896 0.0
C948 C 0.06295 0.41582 0.899 0.0
C949 C 0.01065 0.38055 0.87455 0.0
C950 C 0.97718 0.36893 0.87026 0.0
C951 C 0.02985 0.40487 0.89388 0.0
C952 C 0.96345 0.38265 0.88499 0.0
C953 C 0.98247 0.40708 0.90391 0.0
H954 H 0.03651 0.5404 0.98047 0.0
H955 H 0.10339 0.6417 0.97165 0.0
H956 H 0.06023 0.64655 0.94783 0.0
H957 H 0.0036 0.62168 0.92963 0.0
H958 H 0.93445 0.52176 0.9476 0.0
H959 H 0.97839 0.5168 0.96807 0.0
C960 C 0.04157 0.56354 0.97332 0.0
C961 C 0.07329 0.59053 0.97693 0.0
C962 C 0.01619 0.56639 0.96155 0.0
C963 C 0.07946 0.62044 0.9681 0.0
C964 C 0.05469 0.62325 0.95489 0.0
C965 C 0.9977 0.5989 0.93863 0.0
C966 C 0.96547 0.57204 0.93638 0.0
C967 C 0.02289 0.59636 0.95161 0.0
C968 C 0.95898 0.54275 0.94799 0.0
C969 C 0.98412 0.53984 0.95995 0.0
H970 H 0.45561 0.93319 0.5112 0.0
H971 H 0.51164 0.02019 0.4628 0.0
H972 H 0.46719 0.00252 0.42802 0.0
H973 H 0.41699 0.95706 0.40568 0.0
H974 H 0.36155 0.86947 0.45438 0.0
H975 H 0.40164 0.8917 0.49397 0.0
C976 C 0.45969 0.94725 0.49192 0.0
C977 C 0.49069 0.97457 0.48591 0.0
C978 C 0.43353 0.93678 0.47208 0.0
C979 C 0.49107 0.99606 0.46495 0.0
C980 C 0.46493 0.98646 0.44543 0.0
C981 C 0.41337 0.9433 0.42532 0.0
C982 C 0.38688 0.91169 0.42722 0.0
C983 C 0.43702 0.95581 0.44759 0.0
C984 C 0.38206 0.89389 0.45265 0.0
C985 C 0.40501 0.90651 0.47515 0.0
H986 H 0.57666 0.40209 0.98252 0.0
H987 H 0.48339 0.39355 0.97558 0.0
H988 H 0.46703 0.35789 0.93564 0.0
H989 H 0.47991 0.33031 0.90177 0.0
H990 H 0.57303 0.3385 0.90945 0.0
H991 H 0.5887 0.37307 0.94998 0.0
C992 C 0.55255 0.39205 0.97257 0.0
C993 C 0.53129 0.40047 0.98206 0.0
C994 C 0.54336 0.37167 0.94958 0.0
C995 C 0.50036 0.3877 0.96853 0.0
C996 C 0.49095 0.36723 0.94574 0.0
C997 C 0.50349 0.3394 0.9125 0.0
C998 C 0.52533 0.33198 0.9024 0.0
C999 C 0.51235 0.35924 0.93593 0.0
C1000 C 0.55595 0.34427 0.91641 0.0
C1001 C 0.56488 0.36389 0.93973 0.0
H1002 H 0.08181 0.41069 0.45144 0.0
H1003 H 0.16357 0.50027 0.48121 0.0
H1004 H 0.19774 0.50071 0.44477 0.0
H1005 H 0.20472 0.47613 0.40442 0.0
H1006 H 0.12286 0.38806 0.37247 0.0
H1007 H 0.08855 0.38661 0.40977 0.0
C1008 C 0.10704 0.43039 0.44986 0.0
C1009 C 0.12009 0.45519 0.46939 0.0
C1010 C 0.12661 0.43082 0.42844 0.0
C1011 C 0.15297 0.48042 0.46704 0.0
C1012 C 0.17254 0.48088 0.44599 0.0
C1013 C 0.17925 0.4568 0.4053 0.0
C1014 C 0.16642 0.43234 0.38552 0.0
C1015 C 0.15962 0.45627 0.42657 0.0
C1016 C 0.13352 0.40709 0.38754 0.0
C1017 C 0.11382 0.40632 0.40879 0.0
H1018 H 0.69071 0.08425 0.03312 0.0
H1019 H 0.61668 0.09185 0.98637 0.0
H1020 H 0.65395 0.11955 0.94675 0.0
H1021 H 0.70728 0.14095 0.92545 0.0
H1022 H 0.78181 0.13373 0.97211 0.0
H1023 H 0.74463 0.10614 0.01165 0.0
C1024 C 0.68303 0.09217 0.01422 0.0
C1025 C 0.65136 0.0864 0.01239 0.0
C1026 C 0.70453 0.10789 0.99159 0.0
C1027 C 0.64116 0.09635 0.98797 0.0
C1028 C 0.66238 0.11207 0.96543 0.0
C1029 C 0.71551 0.13362 0.94439 0.0
C1030 C 0.74731 0.13949 0.94588 0.0
C1031 C 0.6941 0.11795 0.96701 0.0
C1032 C 0.75736 0.12925 0.97033 0.0
C1033 C 0.73619 0.11364 0.993 0.0
H1034 H 0.58942 0.62141 0.50329 0.0
H1035 H 0.68876 0.65298 0.52811 0.0
H1036 H 0.70907 0.6925 0.48866 0.0
H1037 H 0.69802 0.71616 0.44599 0.0
H1038 H 0.59848 0.68895 0.42571 0.0
H1039 H 0.57886 0.64943 0.4643 0.0
C1040 C 0.61552 0.63719 0.50012 0.0
C1041 C 0.63762 0.63397 0.51797 0.0
C1042 C 0.62693 0.66035 0.47808 0.0
C1043 C 0.67137 0.65472 0.5141 0.0
C1044 C 0.68292 0.6773 0.49166 0.0
C1045 C 0.67208 0.70209 0.45018 0.0
C1046 C 0.64987 0.70526 0.43217 0.0
C1047 C 0.66086 0.6801 0.4733 0.0
C1048 C 0.61628 0.68642 0.43822 0.0
C1049 C 0.60492 0.66395 0.46062 0.0
H1050 H 0.51768 0.09855 0.59059 0.0
H1051 H 0.54792 0.05571 0.65637 0.0
H1052 H 0.53778 0.08198 0.69304 0.0
H1053 H 0.52065 0.1172 0.70662 0.0
H1054 H 0.48943 0.15997 0.64177 0.0
H1055 H 0.49912 0.13342 0.60459 0.0
C1056 C 0.52205 0.0951 0.61296 0.0
C1057 C 0.53336 0.07512 0.6208 0.0
C1058 C 0.51583 0.11011 0.63409 0.0
C1059 C 0.53881 0.07066 0.64985 0.0
C1060 C 0.53313 0.08575 0.67083 0.0
C1061 C 0.5161 0.1208 0.68433 0.0
C1062 C 0.50456 0.14064 0.67692 0.0
C1063 C 0.52166 0.1055 0.66322 0.0
C1064 C 0.49816 0.14464 0.648 0.0
C1065 C 0.50387 0.12962 0.62675 0.0
H1066 H 0.45414 0.44857 0.11087 0.0
H1067 H 0.53675 0.51016 0.16528 0.0
H1068 H 0.49995 0.50609 0.20166 0.0
H1069 H 0.44418 0.48518 0.21768 0.0
H1070 H 0.36151 0.42454 0.16247 0.0
H1071 H 0.39825 0.42777 0.12688 0.0
C1072 C 0.46388 0.46108 0.13071 0.0
C1073 C 0.49788 0.47979 0.13552 0.0
C1074 C 0.44259 0.45871 0.15136 0.0
C1075 C 0.51054 0.49575 0.16129 0.0
C1076 C 0.48955 0.49342 0.18199 0.0
C1077 C 0.4342 0.47287 0.19778 0.0
C1078 C 0.40007 0.45458 0.19287 0.0
C1079 C 0.45551 0.47507 0.17721 0.0
C1080 C 0.38761 0.4384 0.16708 0.0
C1081 C 0.40862 0.44039 0.14658 0.0
H1082 H 0.98667 0.41613 0.64055 0.0
H1083 H 0.9965 0.34886 0.59578 0.0
H1084 H 0.96617 0.30814 0.6332 0.0
H1085 H 0.93676 0.2921 0.67887 0.0
H1086 H 0.92816 0.36077 0.72309 0.0
H1087 H 0.95795 0.40052 0.68566 0.0
C1088 C 0.98211 0.39251 0.63907 0.0
C1089 C 0.99373 0.3853 0.61571 0.0
C1090 C 0.96486 0.36955 0.66052 0.0
C1091 C 0.98774 0.35474 0.61375 0.0
C1092 C 0.97047 0.33159 0.6351 0.0
C1093 C 0.9416 0.31582 0.68035 0.0
C1094 C 0.92996 0.32332 0.70368 0.0
C1095 C 0.95895 0.33877 0.65866 0.0
C1096 C 0.93626 0.35414 0.70516 0.0
C1097 C 0.95349 0.37698 0.68384 0.0
H1098 H 0.64785 0.9638 0.12983 0.0
H1099 H 0.61721 0.9908 0.202 0.0
H1100 H 0.63703 0.96491 0.23459 0.0
H1101 H 0.65907 0.93114 0.24232 0.0
H1102 H 0.68986 0.90378 0.17066 0.0
H1103 H 0.67434 0.93357 0.13799 0.0
C1104 C 0.6457 0.96408 0.15272 0.0
C1105 C 0.63089 0.97892 0.16355 0.0
C1106 C 0.65709 0.94909 0.17132 0.0
C1107 C 0.62867 0.97964 0.19321 0.0
C1108 C 0.63983 0.96472 0.21183 0.0
C1109 C 0.66259 0.93199 0.21954 0.0
C1110 C 0.67515 0.91513 0.20871 0.0
C1111 C 0.65349 0.94889 0.20108 0.0
C1112 C 0.6802 0.91667 0.17932 0.0
C1113 C 0.67115 0.93349 0.16071 0.0
H1114 H 0.67486 0.60532 0.70071 0.0
H1115 H 0.65509 0.51229 0.68444 0.0
H1116 H 0.68715 0.51484 0.72694 0.0
H1117 H 0.7234 0.54455 0.76668 0.0
H1118 H 0.7428 0.63705 0.78439 0.0
H1119 H 0.70769 0.63335 0.74353 0.0
C1120 C 0.67716 0.58542 0.7067 0.0
C1121 C 0.66303 0.55889 0.68909 0.0
C1122 C 0.69544 0.58687 0.73141 0.0
C1123 C 0.66643 0.53337 0.69713 0.0
C1124 C 0.6845 0.53465 0.72159 0.0
C1125 C 0.71926 0.56357 0.76223 0.0
C1126 C 0.73563 0.59098 0.77872 0.0
C1127 C 0.69944 0.56143 0.73864 0.0
C1128 C 0.73059 0.61573 0.77199 0.0
C1129 C 0.71059 0.61365 0.7486 0.0
H1130 H 0.2347 0.64851 0.13758 0.0
H1131 H 0.21357 0.70506 0.07963 0.0
H1132 H 0.2358 0.74705 0.11464 0.0
H1133 H 0.25742 0.76574 0.16325 0.0
H1134 H 0.27713 0.70805 0.22118 0.0
H1135 H 0.2596 0.66864 0.18463 0.0
C1136 C 0.23508 0.6701 0.13262 0.0
C1137 C 0.22225 0.67361 0.10626 0.0
C1138 C 0.24765 0.69392 0.15285 0.0
C1139 C 0.22343 0.7019 0.0998 0.0
C1140 C 0.23595 0.72581 0.11985 0.0
C1141 C 0.25813 0.74466 0.1677 0.0
C1142 C 0.26865 0.73989 0.19483 0.0
C1143 C 0.24757 0.72181 0.14666 0.0
C1144 C 0.26966 0.71257 0.20032 0.0
C1145 C 0.25933 0.68985 0.17952 0.0
loop_
_geom_bond_atom_site_label_1
_geom_bond_atom_site_label_2
_geom_bond_distance
_geom_bond_site_symmetry_2
_ccdc_geom_bond_type
C0 C1 1.443 . S
C0 N4 1.404 . S
C0 C38 1.389 . S
C1 C0 1.443 . S
C1 C2 1.340 1_556 S
C1 H41 0.951 . S
C2 C1 1.340 1_554 S
C2 C3 1.439 . S
C2 H42 0.950 . S
C3 C2 1.439 . S
C3 N4 1.350 1_554 S
C3 C37 1.395 . S
N4 C0 1.404 . S
N4 C3 1.350 1_556 S
N4 Co5 2.010 1_556 S
Co5 N4 2.010 1_554 S
Co5 N6 1.999 . S
Co5 N11 2.008 . S
Co5 N16 1.991 1_554 S
Co5 N21 2.286 . S
Co5 N27 2.279 1_554 S
N6 Co5 1.999 . S
N6 C7 1.376 . S
N6 C10 1.383 . S
C7 N6 1.376 . S
C7 C8 1.446 . S
C7 C37 1.391 . S
C8 C7 1.446 . S
C8 C9 1.339 . S
C8 H43 0.949 . S
C9 C8 1.339 . S
C9 C10 1.439 . S
C9 H44 0.950 . S
C10 N6 1.383 . S
C10 C9 1.439 . S
C10 C39 1.392 . S
N11 Co5 2.008 . S
N11 C12 1.376 . S
N11 C15 1.374 1_554 S
C12 N11 1.376 . S
C12 C13 1.443 . S
C12 C39 1.389 . S
C13 C12 1.443 . S
C13 C14 1.340 1_554 S
C13 H45 0.951 . S
C14 C13 1.340 1_556 S
C14 C15 1.439 . S
C14 H46 0.950 . S
C15 N11 1.374 1_556 S
C15 C14 1.439 . S
C15 C40 1.395 . S
N16 Co5 1.991 1_556 S
N16 C17 1.376 . S
N16 C20 1.383 . S
C17 N16 1.376 . S
C17 C18 1.446 . S
C17 C40 1.391 . S
C18 C17 1.446 . S
C18 C19 1.339 . S
C18 H47 0.949 . S
C19 C18 1.339 . S
C19 C20 1.439 . S
C19 H48 0.950 . S
C20 N16 1.383 . S
C20 C19 1.439 . S
C20 C38 1.392 . S
N21 Co5 2.286 . S
N21 C24 1.332 . S
N21 C26 1.332 . S
C22 C23 1.386 . S
C22 C25 1.388 . S
C23 C22 1.386 . S
C23 C24 1.382 . S
C23 H49 0.950 . S
C24 N21 1.332 . S
C24 C23 1.382 . S
C24 H35 0.952 . S
C25 C22 1.388 . S
C25 C26 1.382 . S
C25 H50 0.950 . S
C26 N21 1.332 . S
C26 C25 1.382 . S
C26 H36 0.948 . S
N27 Co5 2.279 1_556 S
N27 C31 1.332 . S
N27 C32 1.332 . S
C28 C29 1.388 . S
C28 C32 1.382 . S
C28 H51 0.950 . S
C29 C28 1.388 . S
C29 C30 1.386 . S
C30 C29 1.386 . S
C30 C31 1.382 . S
C30 H52 0.950 . S
C31 N27 1.332 . S
C31 C30 1.382 . S
C31 H33 0.952 . S
C32 N27 1.332 . S
C32 C28 1.382 . S
C32 H34 0.948 . S
H33 C31 0.952 . S
H34 C32 0.948 . S
H35 C24 0.952 . S
H36 C26 0.948 . S
C37 C3 1.395 . S
C37 C7 1.391 . S
C38 C0 1.389 . S
C38 C20 1.392 . S
C39 C10 1.392 . S
C39 C12 1.389 . S
C40 C15 1.395 . S
C40 C17 1.391 . S
H41 C1 0.951 . S
H42 C2 0.950 . S
H43 C8 0.949 . S
H44 C9 0.950 . S
H45 C13 0.951 . S
H46 C14 0.950 . S
H47 C18 0.949 . S
H48 C19 0.950 . S
H49 C23 0.950 . S
H50 C25 0.950 . S
H51 C28 0.950 . S
H52 C30 0.950 . S
C53 C54 1.443 . S
C53 N57 1.371 1_545 S
C53 C91 1.389 . S
C54 C53 1.443 . S
C54 C55 1.340 1_545 S
C54 H94 0.951 . S
C55 C54 1.340 1_565 S
C55 C56 1.439 . S
C55 H95 0.950 . S
C56 C55 1.439 . S
C56 N57 1.385 . S
C56 C90 1.395 . S
N57 C53 1.371 1_565 S
N57 C56 1.385 . S
N57 Co58 2.001 1_565 S
Co58 N57 2.001 1_545 S
Co58 N59 1.995 1_545 S
Co58 N64 2.008 . S
Co58 N69 1.995 . S
Co58 N74 2.282 1_545 S
Co58 N80 2.282 . S
N59 Co58 1.995 1_565 S
N59 C60 1.376 . S
N59 C63 1.383 . S
C60 N59 1.376 . S
C60 C61 1.446 . S
C60 C90 1.391 . S
C61 C60 1.446 . S
C61 C62 1.339 . S
C61 H96 0.949 . S
C62 C61 1.339 . S
C62 C63 1.439 . S
C62 H97 0.950 . S
C63 N59 1.383 . S
C63 C62 1.439 . S
C63 C92 1.392 . S
N64 Co58 2.008 . S
N64 C65 1.376 . S
N64 C68 1.374 . S
C65 N64 1.376 . S
C65 C66 1.443 . S
C65 C92 1.389 1_545 S
C66 C65 1.443 . S
C66 C67 1.340 . S
C66 H98 0.951 . S
C67 C66 1.340 . S
C67 C68 1.439 . S
C67 H99 0.950 . S
C68 N64 1.374 . S
C68 C67 1.439 . S
C68 C93 1.395 . S
N69 Co58 1.995 . S
N69 C70 1.376 . S
N69 C73 1.383 . S
C70 N69 1.376 . S
C70 C71 1.446 . S
C70 C93 1.391 . S
C71 C70 1.446 . S
C71 C72 1.339 . S
C71 H100 0.949 . S
C72 C71 1.339 . S
C72 C73 1.439 . S
C72 H101 0.950 . S
C73 N69 1.383 . S
C73 C72 1.439 . S
C73 C91 1.392 . S
N74 Co58 2.282 1_565 S
N74 C77 1.332 1_565 S
N74 C79 1.332 . S
C75 C76 1.386 . S
C75 C78 1.388 . S
C76 C75 1.386 . S
C76 C77 1.382 1_565 S
C76 H102 0.950 1_565 S
C77 N74 1.332 1_545 S
C77 C76 1.382 1_545 S
C77 H88 0.952 . S
C78 C75 1.388 . S
C78 C79 1.382 . S
C78 H103 0.950 . S
C79 N74 1.332 . S
C79 C78 1.382 . S
C79 H89 0.948 . S
N80 Co58 2.282 . S
N80 C84 1.332 . S
N80 C85 1.332 . S
C81 C82 1.388 . S
C81 C85 1.382 . S
C81 H104 0.950 . S
C82 C81 1.388 . S
C82 C83 1.386 . S
C83 C82 1.386 . S
C83 C84 1.382 . S
C83 H105 0.950 . S
C84 N80 1.332 . S
C84 C83 1.382 . S
C84 H86 0.952 1_545 S
C85 N80 1.332 . S
C85 C81 1.382 . S
C85 H87 0.948 . S
H86 C84 0.952 1_565 S
H87 C85 0.948 . S
H88 C77 0.952 . S
H89 C79 0.948 . S
C90 C56 1.395 . S
C90 C60 1.391 . S
C91 C53 1.389 . S
C91 C73 1.392 . S
C92 C63 1.392 . S
C92 C65 1.389 1_565 S
C93 C68 1.395 . S
C93 C70 1.391 . S
H94 C54 0.951 . S
H95 C55 0.950 . S
H96 C61 0.949 . S
H97 C62 0.950 . S
H98 C66 0.951 . S
H99 C67 0.950 . S
H100 C71 0.949 . S
H101 C72 0.950 . S
H102 C76 0.950 1_545 S
H103 C78 0.950 . S
H104 C81 0.950 . S
H105 C83 0.950 . S
C106 C107 1.443 . S
C106 N110 1.376 . S
C106 C144 1.389 . S
C107 C106 1.443 . S
C107 C108 1.340 . S
C107 H147 0.951 . S
C108 C107 1.340 . S
C108 C109 1.439 . S
C108 H148 0.950 . S
C109 C108 1.439 . S
C109 N110 1.374 . S
C109 C143 1.395 . S
N110 C106 1.376 . S
N110 C109 1.374 . S
N110 Co111 2.008 . S
Co111 N110 2.008 . S
Co111 N112 1.995 . S
Co111 N117 2.008 . S
Co111 N122 1.995 . S
Co111 N127 2.282 . S
Co111 N133 2.282 . S
N112 Co111 1.995 . S
N112 C113 1.376 . S
N112 C116 1.383 . S
C113 N112 1.376 . S
C113 C114 1.446 . S
C113 C143 1.391 . S
C114 C113 1.446 . S
C114 C115 1.339 . S
C114 H149 0.949 . S
C115 C114 1.339 . S
C115 C116 1.439 . S
C115 H150 0.950 . S
C116 N112 1.383 . S
C116 C115 1.439 . S
C116 C145 1.392 . S
N117 Co111 2.008 . S
N117 C118 1.376 . S
N117 C121 1.374 . S
C118 N117 1.376 . S
C118 C119 1.443 . S
C118 C145 1.389 . S
C119 C118 1.443 . S
C119 C120 1.340 . S
C119 H151 0.951 . S
C120 C119 1.340 . S
C120 C121 1.439 . S
C120 H152 0.950 . S
C121 N117 1.374 . S
C121 C120 1.439 . S
C121 C146 1.395 . S
N122 Co111 1.995 . S
N122 C123 1.376 . S
N122 C126 1.383 . S
C123 N122 1.376 . S
C123 C124 1.446 . S
C123 C146 1.391 . S
C124 C123 1.446 . S
C124 C125 1.339 . S
C124 H153 0.949 . S
C125 C124 1.339 . S
C125 C126 1.439 . S
C125 H154 0.950 . S
C126 N122 1.383 . S
C126 C125 1.439 . S
C126 C144 1.392 . S
N127 Co111 2.282 . S
N127 C130 1.332 . S
N127 C132 1.332 . S
C128 C129 1.386 . S
C128 C131 1.388 . S
C129 C128 1.386 . S
C129 C130 1.382 . S
C129 H155 0.950 . S
C130 N127 1.332 . S
C130 C129 1.382 . S
C130 H141 0.952 . S
C131 C128 1.388 . S
C131 C132 1.382 . S
C131 H156 0.950 . S
C132 N127 1.332 . S
C132 C131 1.382 . S
C132 H142 0.948 . S
N133 Co111 2.282 . S
N133 C137 1.332 . S
N133 C138 1.332 . S
C134 C135 1.388 . S
C134 C138 1.382 . S
C134 H157 0.950 . S
C135 C134 1.388 . S
C135 C136 1.386 . S
C136 C135 1.386 . S
C136 C137 1.382 . S
C136 H158 0.950 . S
C137 N133 1.332 . S
C137 C136 1.382 . S
C137 H139 0.952 . S
C138 N133 1.332 . S
C138 C134 1.382 . S
C138 H140 0.948 . S
H139 C137 0.952 . S
H140 C138 0.948 . S
H141 C130 0.952 . S
H142 C132 0.948 . S
C143 C109 1.395 . S
C143 C113 1.391 . S
C144 C106 1.389 . S
C144 C126 1.392 . S
C145 C116 1.392 . S
C145 C118 1.389 . S
C146 C121 1.395 . S
C146 C123 1.391 . S
H147 C107 0.951 . S
H148 C108 0.950 . S
H149 C114 0.949 . S
H150 C115 0.950 . S
H151 C119 0.951 . S
H152 C120 0.950 . S
H153 C124 0.949 . S
H154 C125 0.950 . S
H155 C129 0.950 . S
H156 C131 0.950 . S
H157 C134 0.950 . S
H158 C136 0.950 . S
C159 C160 1.443 . S
C159 N163 1.376 . S
C159 C197 1.389 . S
C160 C159 1.443 . S
C160 C161 1.340 . S
C160 H200 0.951 . S
C161 C160 1.340 . S
C161 C162 1.439 . S
C161 H201 0.950 . S
C162 C161 1.439 . S
C162 N163 1.374 . S
C162 C196 1.395 . S
N163 C159 1.376 . S
N163 C162 1.374 . S
N163 Co164 2.008 1_655 S
Co164 N163 2.008 1_455 S
Co164 N165 1.995 1_455 S
Co164 N170 2.008 . S
Co164 N175 1.995 . S
Co164 N180 2.282 . S
Co164 N186 2.282 1_455 S
N165 Co164 1.995 1_655 S
N165 C166 1.376 . S
N165 C169 1.383 1_655 S
C166 N165 1.376 . S
C166 C167 1.446 . S
C166 C196 1.391 . S
C167 C166 1.446 . S
C167 C168 1.339 . S
C167 H202 0.949 . S
C168 C167 1.339 . S
C168 C169 1.439 1_655 S
C168 H203 0.950 1_655 S
C169 N165 1.383 1_455 S
C169 C168 1.439 1_455 S
C169 C198 1.392 . S
N170 Co164 2.008 . S
N170 C171 1.376 . S
N170 C174 1.374 . S
C171 N170 1.376 . S
C171 C172 1.443 . S
C171 C198 1.389 . S
C172 C171 1.443 . S
C172 C173 1.340 . S
C172 H204 0.951 . S
C173 C172 1.340 . S
C173 C174 1.439 . S
C173 H205 0.950 . S
C174 N170 1.374 . S
C174 C173 1.439 . S
C174 C199 1.395 . S
N175 Co164 1.995 . S
N175 C176 1.376 . S
N175 C179 1.383 1_455 S
C176 N175 1.376 . S
C176 C177 1.446 . S
C176 C199 1.391 . S
C177 C176 1.446 . S
C177 C178 1.339 . S
C177 H206 0.949 . S
C178 C177 1.339 . S
C178 C179 1.439 1_455 S
C178 H207 0.950 . S
C179 N175 1.383 1_655 S
C179 C178 1.439 1_655 S
C179 C197 1.392 . S
N180 Co164 2.282 . S
N180 C183 1.332 . S
N180 C185 1.332 . S
C181 C182 1.386 . S
C181 C184 1.388 . S
C182 C181 1.386 . S
C182 C183 1.382 . S
C182 H208 0.950 . S
C183 N180 1.332 . S
C183 C182 1.382 . S
C183 H194 0.952 . S
C184 C181 1.388 . S
C184 C185 1.382 . S
C184 H209 0.950 . S
C185 N180 1.332 . S
C185 C184 1.382 . S
C185 H195 0.948 1_455 S
N186 Co164 2.282 1_655 S
N186 C190 1.332 . S
N186 C191 1.332 . S
C187 C188 1.388 . S
C187 C191 1.382 . S
C187 H210 0.950 . S
C188 C187 1.388 . S
C188 C189 1.386 . S
C189 C188 1.386 . S
C189 C190 1.382 . S
C189 H211 0.950 . S
C190 N186 1.332 . S
C190 C189 1.382 . S
C190 H192 0.952 . S
C191 N186 1.332 . S
C191 C187 1.382 . S
C191 H193 0.948 1_655 S
H192 C190 0.952 . S
H193 C191 0.948 1_455 S
H194 C183 0.952 . S
H195 C185 0.948 1_655 S
C196 C162 1.395 . S
C196 C166 1.391 . S
C197 C159 1.389 . S
C197 C179 1.392 . S
C198 C169 1.392 . S
C198 C171 1.389 . S
C199 C174 1.395 . S
C199 C176 1.391 . S
H200 C160 0.951 . S
H201 C161 0.950 . S
H202 C167 0.949 . S
H203 C168 0.950 1_455 S
H204 C172 0.951 . S
H205 C173 0.950 . S
H206 C177 0.949 . S
H207 C178 0.950 . S
H208 C182 0.950 . S
H209 C184 0.950 . S
H210 C187 0.950 . S
H211 C189 0.950 . S
C212 C213 1.443 . S
C212 N216 1.376 . S
C212 C250 1.389 . S
C213 C212 1.443 . S
C213 C214 1.340 . S
C213 H253 0.951 . S
C214 C213 1.340 . S
C214 C215 1.439 . S
C214 H254 0.950 . S
C215 C214 1.439 . S
C215 N216 1.374 . S
C215 C249 1.395 . S
N216 C212 1.376 . S
N216 C215 1.374 . S
N216 Co217 2.008 . S
Co217 N216 2.008 . S
Co217 N218 1.995 . S
Co217 N223 2.008 . S
Co217 N228 1.995 . S
Co217 N233 2.282 . S
Co217 N239 2.282 . S
N218 Co217 1.995 . S
N218 C219 1.376 . S
N218 C222 1.383 . S
C219 N218 1.376 . S
C219 C220 1.446 . S
C219 C249 1.391 . S
C220 C219 1.446 . S
C220 C221 1.339 . S
C220 H255 0.949 . S
C221 C220 1.339 . S
C221 C222 1.439 . S
C221 H256 0.950 . S
C222 N218 1.383 . S
C222 C221 1.439 . S
C222 C251 1.392 . S
N223 Co217 2.008 . S
N223 C224 1.376 . S
N223 C227 1.374 . S
C224 N223 1.376 . S
C224 C225 1.443 . S
C224 C251 1.389 . S
C225 C224 1.443 . S
C225 C226 1.340 . S
C225 H257 0.951 1_554 S
C226 C225 1.340 . S
C226 C227 1.439 . S
C226 H258 0.950 1_554 S
C227 N223 1.374 . S
C227 C226 1.439 . S
C227 C252 1.395 1_545 S
N228 Co217 1.995 . S
N228 C229 1.376 1_545 S
N228 C232 1.383 . S
C229 N228 1.376 1_565 S
C229 C230 1.446 . S
C229 C252 1.391 . S
C230 C229 1.446 . S
C230 C231 1.339 . S
C230 H259 0.949 . S
C231 C230 1.339 . S
C231 C232 1.439 1_565 S
C231 H260 0.950 . S
C232 N228 1.383 . S
C232 C231 1.439 1_545 S
C232 C250 1.392 . S
N233 Co217 2.282 . S
N233 C236 1.332 . S
N233 C238 1.332 . S
C234 C235 1.386 . S
C234 C237 1.388 . S
C235 C234 1.386 . S
C235 C236 1.382 . S
C235 H261 0.950 . S
C236 N233 1.332 . S
C236 C235 1.382 . S
C236 H247 0.952 . S
C237 C234 1.388 . S
C237 C238 1.382 . S
C237 H262 0.950 . S
C238 N233 1.332 . S
C238 C237 1.382 . S
C238 H248 0.948 . S
N239 Co217 2.282 . S
N239 C243 1.332 . S
N239 C244 1.318 1_545 S
C240 C241 1.381 1_565 S
C240 C244 1.393 . S
C240 H263 0.950 . S
C241 C240 1.381 1_545 S
C241 C242 1.418 . S
C242 C241 1.418 . S
C242 C243 1.382 . S
C242 H264 0.950 . S
C243 N239 1.332 . S
C243 C242 1.382 . S
C243 H245 0.952 . S
C244 N239 1.318 1_565 S
C244 C240 1.393 . S
C244 H246 0.952 . S
H245 C243 0.952 . S
H246 C244 0.952 . S
H247 C236 0.952 . S
H248 C238 0.948 . S
C249 C215 1.395 . S
C249 C219 1.391 . S
C250 C212 1.389 . S
C250 C232 1.392 . S
C251 C222 1.392 . S
C251 C224 1.389 . S
C252 C227 1.395 1_565 S
C252 C229 1.391 . S
H253 C213 0.951 . S
H254 C214 0.950 . S
H255 C220 0.949 . S
H256 C221 0.950 . S
H257 C225 0.951 1_556 S
H258 C226 0.950 1_556 S
H259 C230 0.949 . S
H260 C231 0.950 . S
H261 C235 0.950 . S
H262 C237 0.950 . S
H263 C240 0.950 . S
H264 C242 0.950 . S
C265 C266 1.443 . S
C265 N269 1.376 . S
C265 C303 1.389 . S
C266 C265 1.443 . S
C266 C267 1.340 . S
C266 H306 0.951 . S
C267 C266 1.340 . S
C267 C268 1.439 . S
C267 H307 0.950 . S
C268 C267 1.439 . S
C268 N269 1.374 . S
C268 C302 1.395 . S
N269 C265 1.376 . S
N269 C268 1.374 . S
N269 Co270 2.008 . S
Co270 N269 2.008 . S
Co270 N271 1.995 . S
Co270 N276 2.008 . S
Co270 N281 1.995 . S
Co270 N286 2.282 . S
Co270 N292 2.282 . S
N271 Co270 1.995 . S
N271 C272 1.376 . S
N271 C275 1.383 . S
C272 N271 1.376 . S
C272 C273 1.446 . S
C272 C302 1.391 . S
C273 C272 1.446 . S
C273 C274 1.339 . S
C273 H308 0.949 . S
C274 C273 1.339 . S
C274 C275 1.439 . S
C274 H309 0.950 . S
C275 N271 1.383 . S
C275 C274 1.439 . S
C275 C304 1.392 . S
N276 Co270 2.008 . S
N276 C277 1.376 . S
N276 C280 1.374 . S
C277 N276 1.376 . S
C277 C278 1.443 . S
C277 C304 1.389 . S
C278 C277 1.443 . S
C278 C279 1.340 . S
C278 H310 0.951 . S
C279 C278 1.340 . S
C279 C280 1.439 . S
C279 H311 0.950 . S
C280 N276 1.374 . S
C280 C279 1.439 . S
C280 C305 1.395 . S
N281 Co270 1.995 . S
N281 C282 1.376 . S
N281 C285 1.383 . S
C282 N281 1.376 . S
C282 C283 1.446 . S
C282 C305 1.391 . S
C283 C282 1.446 . S
C283 C284 1.339 . S
C283 H312 0.949 . S
C284 C283 1.339 . S
C284 C285 1.439 . S
C284 H313 0.950 . S
C285 N281 1.383 . S
C285 C284 1.439 . S
C285 C303 1.392 . S
N286 Co270 2.282 . S
N286 C289 1.332 . S
N286 C291 1.332 . S
C287 C288 1.386 . S
C287 C290 1.388 . S
C288 C287 1.386 . S
C288 C289 1.382 . S
C288 H314 0.950 . S
C289 N286 1.332 . S
C289 C288 1.382 . S
C289 H300 0.952 . S
C290 C287 1.388 . S
C290 C291 1.382 . S
C290 H315 0.950 . S
C291 N286 1.332 . S
C291 C290 1.382 . S
C291 H301 0.948 . S
N292 Co270 2.282 . S
N292 C296 1.332 . S
N292 C297 1.332 . S
C293 C294 1.388 . S
C293 C297 1.382 . S
C293 H316 0.950 . S
C294 C293 1.388 . S
C294 C295 1.386 . S
C295 C294 1.386 . S
C295 C296 1.382 . S
C295 H317 0.950 . S
C296 N292 1.332 . S
C296 C295 1.382 . S
C296 H298 0.952 . S
C297 N292 1.332 . S
C297 C293 1.382 . S
C297 H299 0.948 . S
H298 C296 0.952 . S
H299 C297 0.948 . S
H300 C289 0.952 . S
H301 C291 0.948 . S
C302 C268 1.395 . S
C302 C272 1.391 . S
C303 C265 1.389 . S
C303 C285 1.392 . S
C304 C275 1.392 . S
C304 C277 1.389 . S
C305 C280 1.395 . S
C305 C282 1.391 . S
H306 C266 0.951 . S
H307 C267 0.950 . S
H308 C273 0.949 . S
H309 C274 0.950 . S
H310 C278 0.951 . S
H311 C279 0.950 . S
H312 C283 0.949 . S
H313 C284 0.950 . S
H314 C288 0.950 . S
H315 C290 0.950 . S
H316 C293 0.950 . S
H317 C295 0.950 . S
H318 O344 0.856 . S
H319 O347 0.854 . S
H320 C355 0.930 . S
H321 C356 0.930 . S
H322 C358 0.930 . S
H323 C359 0.930 . S
H324 C361 0.931 . S
H325 C362 0.930 . S
H326 C364 0.930 . S
H327 C365 0.929 . S
H328 C367 0.930 . S
H329 C368 0.931 . S
H330 C370 0.930 . S
H331 C371 0.929 . S
H332 C373 0.931 . S
H333 C374 0.930 . S
H334 C376 0.930 . S
H335 C377 0.932 . S
H336 C379 0.930 . S
H337 C380 0.929 . S
H338 C382 0.931 . S
H339 C383 0.930 . S
H340 C385 0.929 . S
H341 C386 0.931 . S
H342 C388 0.930 . S
H343 C389 0.929 . S
O344 H318 0.856 . S
O344 C390 1.300 . S
O345 C390 1.209 . S
O346 C391 1.199 . S
O347 H319 0.854 . S
O347 C391 1.297 . S
C348 C349 1.404 . S
C348 C353 1.397 . S
C348 C354 1.492 . S
C349 C348 1.404 . S
C349 C350 1.396 . S
C349 C360 1.492 . S
C350 C349 1.396 . S
C350 C351 1.397 . S
C350 C366 1.509 . S
C351 C350 1.397 . S
C351 C352 1.412 . S
C351 C372 1.485 . S
C352 C351 1.412 . S
C352 C353 1.388 . S
C352 C378 1.490 . S
C353 C348 1.397 . S
C353 C352 1.388 . S
C353 C384 1.519 . S
C354 C348 1.492 . S
C354 C355 1.363 . S
C354 C359 1.390 . S
C355 H320 0.930 . S
C355 C354 1.363 . S
C355 C356 1.372 . S
C356 H321 0.930 . S
C356 C355 1.372 . S
C356 C357 1.383 . S
C357 C356 1.383 . S
C357 C358 1.395 . S
C358 H322 0.930 . S
C358 C357 1.395 . S
C358 C359 1.362 . S
C359 H323 0.930 . S
C359 C354 1.390 . S
C359 C358 1.362 . S
C360 C349 1.492 . S
C360 C361 1.377 . S
C360 C365 1.397 . S
C361 H324 0.931 . S
C361 C360 1.377 . S
C361 C362 1.376 . S
C362 H325 0.930 . S
C362 C361 1.376 . S
C362 C363 1.376 . S
C363 C362 1.376 . S
C363 C364 1.378 . S
C363 C390 1.486 . S
C364 H326 0.930 . S
C364 C363 1.378 . S
C364 C365 1.376 . S
C365 H327 0.929 . S
C365 C360 1.397 . S
C365 C364 1.376 . S
C366 C350 1.509 . S
C366 C367 1.391 . S
C366 C371 1.386 . S
C367 H328 0.930 . S
C367 C366 1.391 . S
C367 C368 1.375 . S
C368 H329 0.931 . S
C368 C367 1.375 . S
C368 C369 1.375 . S
C369 C368 1.375 . S
C369 C370 1.361 . S
C370 H330 0.930 . S
C370 C369 1.361 . S
C370 C371 1.399 . S
C371 H331 0.929 . S
C371 C366 1.386 . S
C371 C370 1.399 . S
C372 C351 1.485 . S
C372 C373 1.394 . S
C372 C377 1.360 . S
C373 H332 0.931 . S
C373 C372 1.394 . S
C373 C374 1.372 . S
C374 H333 0.930 . S
C374 C373 1.372 . S
C374 C375 1.397 . S
C375 C374 1.397 . S
C375 C376 1.390 . S
C375 C391 1.476 . S
C376 H334 0.930 . S
C376 C375 1.390 . S
C376 C377 1.366 . S
C377 H335 0.932 . S
C377 C372 1.360 . S
C377 C376 1.366 . S
C378 C352 1.490 . S
C378 C379 1.380 . S
C378 C383 1.386 . S
C379 H336 0.930 . S
C379 C378 1.380 . S
C379 C380 1.381 . S
C380 H337 0.929 . S
C380 C379 1.381 . S
C380 C381 1.371 . S
C381 C380 1.371 . S
C381 C382 1.380 . S
C382 H338 0.931 . S
C382 C381 1.380 . S
C382 C383 1.387 . S
C383 H339 0.930 . S
C383 C378 1.386 . S
C383 C382 1.387 . S
C384 C353 1.519 . S
C384 C385 1.377 . S
C384 C389 1.361 . S
C385 H340 0.929 . S
C385 C384 1.377 . S
C385 C386 1.386 . S
C386 H341 0.931 . S
C386 C385 1.386 . S
C386 C387 1.363 . S
C387 C386 1.363 . S
C387 C388 1.385 . S
C388 H342 0.930 . S
C388 C387 1.385 . S
C388 C389 1.396 . S
C389 H343 0.929 . S
C389 C384 1.361 . S
C389 C388 1.396 . S
C390 O344 1.300 . S
C390 O345 1.209 . S
C390 C363 1.486 . S
C391 O346 1.199 . S
C391 O347 1.297 . S
C391 C375 1.476 . S
H392 O418 0.856 . S
H393 O421 0.854 . S
H394 C429 0.930 . S
H395 C430 0.930 . S
H396 C432 0.930 . S
H397 C433 0.930 . S
H398 C435 0.931 . S
H399 C436 0.930 . S
H400 C438 0.930 . S
H401 C439 0.929 . S
H402 C441 0.930 . S
H403 C442 0.931 . S
H404 C444 0.930 . S
H405 C445 0.929 . S
H406 C447 0.931 . S
H407 C448 0.930 . S
H408 C450 0.930 . S
H409 C451 0.932 . S
H410 C453 0.930 . S
H411 C454 0.929 . S
H412 C456 0.931 . S
H413 C457 0.930 . S
H414 C459 0.929 . S
H415 C460 0.931 . S
H416 C462 0.930 . S
H417 C463 0.929 . S
O418 H392 0.856 . S
O418 C464 1.300 . S
O419 C464 1.209 . S
O420 C465 1.199 . S
O421 H393 0.854 . S
O421 C465 1.297 . S
C422 C423 1.404 . S
C422 C427 1.397 . S
C422 C428 1.492 . S
C423 C422 1.404 . S
C423 C424 1.396 . S
C423 C434 1.492 . S
C424 C423 1.396 . S
C424 C425 1.397 . S
C424 C440 1.509 . S
C425 C424 1.397 . S
C425 C426 1.412 . S
C425 C446 1.485 . S
C426 C425 1.412 . S
C426 C427 1.388 . S
C426 C452 1.490 . S
C427 C422 1.397 . S
C427 C426 1.388 . S
C427 C458 1.519 . S
C428 C422 1.492 . S
C428 C429 1.363 . S
C428 C433 1.390 . S
C429 H394 0.930 . S
C429 C428 1.363 . S
C429 C430 1.372 . S
C430 H395 0.930 . S
C430 C429 1.372 . S
C430 C431 1.383 . S
C431 C430 1.383 . S
C431 C432 1.395 . S
C432 H396 0.930 . S
C432 C431 1.395 . S
C432 C433 1.362 . S
C433 H397 0.930 . S
C433 C428 1.390 . S
C433 C432 1.362 . S
C434 C423 1.492 . S
C434 C435 1.377 . S
C434 C439 1.397 . S
C435 H398 0.931 . S
C435 C434 1.377 . S
C435 C436 1.376 . S
C436 H399 0.930 . S
C436 C435 1.376 . S
C436 C437 1.376 . S
C437 C436 1.376 . S
C437 C438 1.378 . S
C437 C464 1.486 . S
C438 H400 0.930 . S
C438 C437 1.378 . S
C438 C439 1.376 . S
C439 H401 0.929 . S
C439 C434 1.397 . S
C439 C438 1.376 . S
C440 C424 1.509 . S
C440 C441 1.391 . S
C440 C445 1.386 . S
C441 H402 0.930 . S
C441 C440 1.391 . S
C441 C442 1.375 . S
C442 H403 0.931 . S
C442 C441 1.375 . S
C442 C443 1.375 . S
C443 C442 1.375 . S
C443 C444 1.361 . S
C444 H404 0.930 . S
C444 C443 1.361 . S
C444 C445 1.399 . S
C445 H405 0.929 . S
C445 C440 1.386 . S
C445 C444 1.399 . S
C446 C425 1.485 . S
C446 C447 1.394 . S
C446 C451 1.360 . S
C447 H406 0.931 . S
C447 C446 1.394 . S
C447 C448 1.372 . S
C448 H407 0.930 . S
C448 C447 1.372 . S
C448 C449 1.397 . S
C449 C448 1.397 . S
C449 C450 1.390 . S
C449 C465 1.476 . S
C450 H408 0.930 . S
C450 C449 1.390 . S
C450 C451 1.366 . S
C451 H409 0.932 . S
C451 C446 1.360 . S
C451 C450 1.366 . S
C452 C426 1.490 . S
C452 C453 1.380 . S
C452 C457 1.386 . S
C453 H410 0.930 . S
C453 C452 1.380 . S
C453 C454 1.381 . S
C454 H411 0.929 . S
C454 C453 1.381 . S
C454 C455 1.371 . S
C455 C454 1.371 . S
C455 C456 1.380 . S
C456 H412 0.931 . S
C456 C455 1.380 . S
C456 C457 1.387 . S
C457 H413 0.930 . S
C457 C452 1.386 . S
C457 C456 1.387 . S
C458 C427 1.519 . S
C458 C459 1.377 . S
C458 C463 1.361 . S
C459 H414 0.929 . S
C459 C458 1.377 . S
C459 C460 1.386 . S
C460 H415 0.931 . S
C460 C459 1.386 . S
C460 C461 1.363 . S
C461 C460 1.363 . S
C461 C462 1.385 . S
C462 H416 0.930 . S
C462 C461 1.385 . S
C462 C463 1.396 . S
C463 H417 0.929 . S
C463 C458 1.361 . S
C463 C462 1.396 . S
C464 O418 1.300 . S
C464 O419 1.209 . S
C464 C437 1.486 . S
C465 O420 1.199 . S
C465 O421 1.297 . S
C465 C449 1.476 . S
H466 O492 0.856 . S
H467 O495 0.854 . S
H468 C503 0.930 . S
H469 C504 0.930 . S
H470 C506 0.930 . S
H471 C507 0.930 . S
H472 C509 0.931 . S
H473 C510 0.930 . S
H474 C512 0.930 . S
H475 C513 0.929 . S
H476 C515 0.930 . S
H477 C516 0.931 . S
H478 C518 0.930 . S
H479 C519 0.929 . S
H480 C521 0.931 . S
H481 C522 0.930 . S
H482 C524 0.930 . S
H483 C525 0.932 . S
H484 C527 0.930 . S
H485 C528 0.929 . S
H486 C530 0.931 . S
H487 C531 0.930 . S
H488 C533 0.929 . S
H489 C534 0.931 . S
H490 C536 0.930 . S
H491 C537 0.929 . S
O492 H466 0.856 . S
O492 C538 1.300 . S
O493 C538 1.209 . S
O494 C539 1.199 . S
O495 H467 0.854 . S
O495 C539 1.297 1_545 S
C496 C497 1.404 . S
C496 C501 1.397 . S
C496 C502 1.492 . S
C497 C496 1.404 . S
C497 C498 1.396 . S
C497 C508 1.492 . S
C498 C497 1.396 . S
C498 C499 1.397 . S
C498 C514 1.509 . S
C499 C498 1.397 . S
C499 C500 1.412 . S
C499 C520 1.485 . S
C500 C499 1.412 . S
C500 C501 1.388 . S
C500 C526 1.490 . S
C501 C496 1.397 . S
C501 C500 1.388 . S
C501 C532 1.519 . S
C502 C496 1.492 . S
C502 C503 1.363 . S
C502 C507 1.390 . S
C503 H468 0.930 . S
C503 C502 1.363 . S
C503 C504 1.372 . S
C504 H469 0.930 . S
C504 C503 1.372 . S
C504 C505 1.383 . S
C505 C504 1.383 . S
C505 C506 1.395 . S
C506 H470 0.930 . S
C506 C505 1.395 . S
C506 C507 1.362 . S
C507 H471 0.930 . S
C507 C502 1.390 . S
C507 C506 1.362 . S
C508 C497 1.492 . S
C508 C509 1.377 . S
C508 C513 1.397 . S
C509 H472 0.931 . S
C509 C508 1.377 . S
C509 C510 1.376 . S
C510 H473 0.930 . S
C510 C509 1.376 . S
C510 C511 1.376 . S
C511 C510 1.376 . S
C511 C512 1.378 . S
C511 C538 1.486 . S
C512 H474 0.930 . S
C512 C511 1.378 . S
C512 C513 1.376 . S
C513 H475 0.929 . S
C513 C508 1.397 . S
C513 C512 1.376 . S
C514 C498 1.509 . S
C514 C515 1.391 . S
C514 C519 1.386 . S
C515 H476 0.930 . S
C515 C514 1.391 . S
C515 C516 1.375 . S
C516 H477 0.931 . S
C516 C515 1.375 . S
C516 C517 1.375 . S
C517 C516 1.375 . S
C517 C518 1.361 . S
C518 H478 0.930 . S
C518 C517 1.361 . S
C518 C519 1.399 . S
C519 H479 0.929 . S
C519 C514 1.386 . S
C519 C518 1.399 . S
C520 C499 1.485 . S
C520 C521 1.394 . S
C520 C525 1.360 . S
C521 H480 0.931 . S
C521 C520 1.394 . S
C521 C522 1.372 . S
C522 H481 0.930 . S
C522 C521 1.372 . S
C522 C523 1.397 . S
C523 C522 1.397 . S
C523 C524 1.390 . S
C523 C539 1.476 . S
C524 H482 0.930 . S
C524 C523 1.390 . S
C524 C525 1.366 . S
C525 H483 0.932 . S
C525 C520 1.360 . S
C525 C524 1.366 . S
C526 C500 1.490 . S
C526 C527 1.380 . S
C526 C531 1.386 . S
C527 H484 0.930 . S
C527 C526 1.380 . S
C527 C528 1.381 . S
C528 H485 0.929 . S
C528 C527 1.381 . S
C528 C529 1.371 . S
C529 C528 1.371 . S
C529 C530 1.380 . S
C530 H486 0.931 . S
C530 C529 1.380 . S
C530 C531 1.387 . S
C531 H487 0.930 . S
C531 C526 1.386 . S
C531 C530 1.387 . S
C532 C501 1.519 . S
C532 C533 1.377 . S
C532 C537 1.361 . S
C533 H488 0.929 . S
C533 C532 1.377 . S
C533 C534 1.386 . S
C534 H489 0.931 . S
C534 C533 1.386 . S
C534 C535 1.363 . S
C535 C534 1.363 . S
C535 C536 1.385 . S
C536 H490 0.930 . S
C536 C535 1.385 . S
C536 C537 1.396 . S
C537 H491 0.929 . S
C537 C532 1.361 . S
C537 C536 1.396 . S
C538 O492 1.300 . S
C538 O493 1.209 . S
C538 C511 1.486 . S
C539 O494 1.199 . S
C539 O495 1.297 1_565 S
C539 C523 1.476 . S
H540 O566 0.856 . S
H541 O569 0.854 . S
H542 C577 0.930 . S
H543 C578 0.930 . S
H544 C580 0.930 . S
H545 C581 0.930 . S
H546 C583 0.931 . S
H547 C584 0.930 . S
H548 C586 0.930 . S
H549 C587 0.929 . S
H550 C589 0.930 . S
H551 C590 0.931 . S
H552 C592 0.930 . S
H553 C593 0.929 . S
H554 C595 0.931 . S
H555 C596 0.930 . S
H556 C598 0.930 . S
H557 C599 0.932 . S
H558 C601 0.930 . S
H559 C602 0.929 . S
H560 C604 0.931 . S
H561 C605 0.930 . S
H562 C607 0.929 . S
H563 C608 0.931 . S
H564 C610 0.930 . S
H565 C611 0.929 . S
O566 H540 0.856 . S
O566 C612 1.300 . S
O567 C612 1.209 . S
O568 C613 1.199 . S
O569 H541 0.854 . S
O569 C613 1.297 . S
C570 C571 1.404 . S
C570 C575 1.397 . S
C570 C576 1.492 . S
C571 C570 1.404 . S
C571 C572 1.396 . S
C571 C582 1.492 . S
C572 C571 1.396 . S
C572 C573 1.397 . S
C572 C588 1.509 . S
C573 C572 1.397 . S
C573 C574 1.412 . S
C573 C594 1.485 . S
C574 C573 1.412 . S
C574 C575 1.388 . S
C574 C600 1.490 . S
C575 C570 1.397 . S
C575 C574 1.388 . S
C575 C606 1.519 . S
C576 C570 1.492 . S
C576 C577 1.363 . S
C576 C581 1.390 . S
C577 H542 0.930 . S
C577 C576 1.363 . S
C577 C578 1.372 . S
C578 H543 0.930 . S
C578 C577 1.372 . S
C578 C579 1.383 . S
C579 C578 1.383 . S
C579 C580 1.395 . S
C580 H544 0.930 . S
C580 C579 1.395 . S
C580 C581 1.362 . S
C581 H545 0.930 . S
C581 C576 1.390 . S
C581 C580 1.362 . S
C582 C571 1.492 . S
C582 C583 1.377 . S
C582 C587 1.397 . S
C583 H546 0.931 . S
C583 C582 1.377 . S
C583 C584 1.376 . S
C584 H547 0.930 . S
C584 C583 1.376 . S
C584 C585 1.376 . S
C585 C584 1.376 . S
C585 C586 1.378 . S
C585 C612 1.486 . S
C586 H548 0.930 . S
C586 C585 1.378 . S
C586 C587 1.376 . S
C587 H549 0.929 . S
C587 C582 1.397 . S
C587 C586 1.376 . S
C588 C572 1.509 . S
C588 C589 1.391 . S
C588 C593 1.386 . S
C589 H550 0.930 . S
C589 C588 1.391 . S
C589 C590 1.375 . S
C590 H551 0.931 . S
C590 C589 1.375 . S
C590 C591 1.375 . S
C591 C590 1.375 . S
C591 C592 1.361 . S
C592 H552 0.930 . S
C592 C591 1.361 . S
C592 C593 1.399 . S
C593 H553 0.929 . S
C593 C588 1.386 . S
C593 C592 1.399 . S
C594 C573 1.485 . S
C594 C595 1.394 . S
C594 C599 1.360 . S
C595 H554 0.931 . S
C595 C594 1.394 . S
C595 C596 1.372 1_655 S
C596 H555 0.930 . S
C596 C595 1.372 1_455 S
C596 C597 1.397 . S
C597 C596 1.397 . S
C597 C598 1.390 1_455 S
C597 C613 1.476 . S
C598 H556 0.930 . S
C598 C597 1.390 1_655 S
C598 C599 1.366 . S
C599 H557 0.932 . S
C599 C594 1.360 . S
C599 C598 1.366 . S
C600 C574 1.490 . S
C600 C601 1.380 . S
C600 C605 1.386 . S
C601 H558 0.930 . S
C601 C600 1.380 . S
C601 C602 1.381 . S
C602 H559 0.929 . S
C602 C601 1.381 . S
C602 C603 1.371 . S
C603 C602 1.371 . S
C603 C604 1.380 . S
C604 H560 0.931 . S
C604 C603 1.380 . S
C604 C605 1.387 . S
C605 H561 0.930 . S
C605 C600 1.386 . S
C605 C604 1.387 . S
C606 C575 1.519 . S
C606 C607 1.377 . S
C606 C611 1.361 . S
C607 H562 0.929 . S
C607 C606 1.377 . S
C607 C608 1.386 . S
C608 H563 0.931 . S
C608 C607 1.386 . S
C608 C609 1.363 . S
C609 C608 1.363 . S
C609 C610 1.385 . S
C610 H564 0.930 . S
C610 C609 1.385 . S
C610 C611 1.396 . S
C611 H565 0.929 . S
C611 C606 1.361 . S
C611 C610 1.396 . S
C612 O566 1.300 . S
C612 O567 1.209 . S
C612 C585 1.486 . S
C613 O568 1.199 . S
C613 O569 1.297 . S
C613 C597 1.476 . S
H614 O640 0.856 . S
H615 O643 0.854 . S
H616 C651 0.930 . S
H617 C652 0.930 . S
H618 C654 0.930 . S
H619 C655 0.930 . S
H620 C657 0.931 . S
H621 C658 0.930 . S
H622 C660 0.930 . S
H623 C661 0.929 . S
H624 C663 0.930 . S
H625 C664 0.931 . S
H626 C666 0.930 . S
H627 C667 0.929 . S
H628 C669 0.931 . S
H629 C670 0.930 . S
H630 C672 0.930 . S
H631 C673 0.932 . S
H632 C675 0.930 . S
H633 C676 0.929 . S
H634 C678 0.931 . S
H635 C679 0.930 . S
H636 C681 0.929 . S
H637 C682 0.931 . S
H638 C684 0.930 . S
H639 C685 0.929 . S
O640 H614 0.856 . S
O640 C686 1.300 . S
O641 C686 1.209 . S
O642 C687 1.199 . S
O643 H615 0.854 . S
O643 C687 1.297 . S
C644 C645 1.404 . S
C644 C649 1.397 . S
C644 C650 1.492 . S
C645 C644 1.404 . S
C645 C646 1.396 . S
C645 C656 1.492 . S
C646 C645 1.396 . S
C646 C647 1.397 . S
C646 C662 1.509 . S
C647 C646 1.397 . S
C647 C648 1.412 . S
C647 C668 1.485 . S
C648 C647 1.412 . S
C648 C649 1.388 . S
C648 C674 1.490 . S
C649 C644 1.397 . S
C649 C648 1.388 . S
C649 C680 1.519 . S
C650 C644 1.492 . S
C650 C651 1.363 . S
C650 C655 1.390 . S
C651 H616 0.930 . S
C651 C650 1.363 . S
C651 C652 1.372 . S
C652 H617 0.930 . S
C652 C651 1.372 . S
C652 C653 1.383 . S
C653 C652 1.383 . S
C653 C654 1.395 . S
C654 H618 0.930 . S
C654 C653 1.395 . S
C654 C655 1.362 . S
C655 H619 0.930 . S
C655 C650 1.390 . S
C655 C654 1.362 . S
C656 C645 1.492 . S
C656 C657 1.377 . S
C656 C661 1.397 . S
C657 H620 0.931 . S
C657 C656 1.377 . S
C657 C658 1.376 . S
C658 H621 0.930 . S
C658 C657 1.376 . S
C658 C659 1.376 . S
C659 C658 1.376 . S
C659 C660 1.378 . S
C659 C686 1.486 . S
C660 H622 0.930 . S
C660 C659 1.378 . S
C660 C661 1.376 . S
C661 H623 0.929 . S
C661 C656 1.397 . S
C661 C660 1.376 . S
C662 C646 1.509 . S
C662 C663 1.391 . S
C662 C667 1.386 . S
C663 H624 0.930 . S
C663 C662 1.391 . S
C663 C664 1.375 . S
C664 H625 0.931 . S
C664 C663 1.375 . S
C664 C665 1.375 . S
C665 C664 1.375 . S
C665 C666 1.361 . S
C666 H626 0.930 . S
C666 C665 1.361 . S
C666 C667 1.399 . S
C667 H627 0.929 . S
C667 C662 1.386 . S
C667 C666 1.399 . S
C668 C647 1.485 . S
C668 C669 1.394 . S
C668 C673 1.360 . S
C669 H628 0.931 . S
C669 C668 1.394 . S
C669 C670 1.372 . S
C670 H629 0.930 . S
C670 C669 1.372 . S
C670 C671 1.397 . S
C671 C670 1.397 . S
C671 C672 1.390 . S
C671 C687 1.476 . S
C672 H630 0.930 . S
C672 C671 1.390 . S
C672 C673 1.366 . S
C673 H631 0.932 . S
C673 C668 1.360 . S
C673 C672 1.366 . S
C674 C648 1.490 . S
C674 C675 1.380 . S
C674 C679 1.386 . S
C675 H632 0.930 . S
C675 C674 1.380 . S
C675 C676 1.381 . S
C676 H633 0.929 . S
C676 C675 1.381 . S
C676 C677 1.371 . S
C677 C676 1.371 . S
C677 C678 1.380 . S
C678 H634 0.931 . S
C678 C677 1.380 . S
C678 C679 1.387 . S
C679 H635 0.930 . S
C679 C674 1.386 . S
C679 C678 1.387 . S
C680 C649 1.519 . S
C680 C681 1.377 . S
C680 C685 1.361 . S
C681 H636 0.929 . S
C681 C680 1.377 . S
C681 C682 1.386 . S
C682 H637 0.931 . S
C682 C681 1.386 . S
C682 C683 1.363 . S
C683 C682 1.363 . S
C683 C684 1.385 . S
C684 H638 0.930 . S
C684 C683 1.385 . S
C684 C685 1.396 . S
C685 H639 0.929 . S
C685 C680 1.361 . S
C685 C684 1.396 . S
C686 O640 1.300 . S
C686 O641 1.209 . S
C686 C659 1.486 . S
C687 O642 1.199 . S
C687 O643 1.297 . S
C687 C671 1.476 . S
H688 O714 0.856 . S
H689 O717 0.854 . S
H690 C725 0.930 . S
H691 C726 0.930 . S
H692 C728 0.930 . S
H693 C729 0.930 . S
H694 C731 0.931 . S
H695 C732 0.930 . S
H696 C734 0.930 . S
H697 C735 0.929 . S
H698 C737 0.930 . S
H699 C738 0.931 . S
H700 C740 0.930 . S
H701 C741 0.929 . S
H702 C743 0.931 . S
H703 C744 0.930 . S
H704 C746 0.930 . S
H705 C747 0.932 . S
H706 C749 0.930 . S
H707 C750 0.929 . S
H708 C752 0.931 . S
H709 C753 0.930 . S
H710 C755 0.929 . S
H711 C756 0.931 . S
H712 C758 0.930 . S
H713 C759 0.929 . S
O714 H688 0.856 . S
O714 C760 1.300 . S
O715 C760 1.209 . S
O716 C761 1.199 . S
O717 H689 0.854 . S
O717 C761 1.297 . S
C718 C719 1.404 . S
C718 C723 1.397 . S
C718 C724 1.492 . S
C719 C718 1.404 . S
C719 C720 1.396 . S
C719 C730 1.492 . S
C720 C719 1.396 . S
C720 C721 1.397 . S
C720 C736 1.509 . S
C721 C720 1.397 . S
C721 C722 1.412 . S
C721 C742 1.485 . S
C722 C721 1.412 . S
C722 C723 1.388 . S
C722 C748 1.490 . S
C723 C718 1.397 . S
C723 C722 1.388 . S
C723 C754 1.519 . S
C724 C718 1.492 . S
C724 C725 1.363 . S
C724 C729 1.390 . S
C725 H690 0.930 . S
C725 C724 1.363 . S
C725 C726 1.372 . S
C726 H691 0.930 . S
C726 C725 1.372 . S
C726 C727 1.383 . S
C727 C726 1.383 . S
C727 C728 1.395 . S
C728 H692 0.930 . S
C728 C727 1.395 . S
C728 C729 1.362 . S
C729 H693 0.930 . S
C729 C724 1.390 . S
C729 C728 1.362 . S
C730 C719 1.492 . S
C730 C731 1.377 . S
C730 C735 1.397 . S
C731 H694 0.931 . S
C731 C730 1.377 . S
C731 C732 1.376 . S
C732 H695 0.930 . S
C732 C731 1.376 . S
C732 C733 1.376 . S
C733 C732 1.376 . S
C733 C734 1.378 . S
C733 C760 1.486 . S
C734 H696 0.930 . S
C734 C733 1.378 . S
C734 C735 1.376 . S
C735 H697 0.929 . S
C735 C730 1.397 . S
C735 C734 1.376 . S
C736 C720 1.509 . S
C736 C737 1.391 . S
C736 C741 1.386 . S
C737 H698 0.930 . S
C737 C736 1.391 . S
C737 C738 1.375 . S
C738 H699 0.931 . S
C738 C737 1.375 . S
C738 C739 1.375 . S
C739 C738 1.375 . S
C739 C740 1.361 . S
C740 H700 0.930 . S
C740 C739 1.361 . S
C740 C741 1.399 . S
C741 H701 0.929 . S
C741 C736 1.386 . S
C741 C740 1.399 . S
C742 C721 1.485 . S
C742 C743 1.394 . S
C742 C747 1.360 . S
C743 H702 0.931 . S
C743 C742 1.394 . S
C743 C744 1.372 . S
C744 H703 0.930 . S
C744 C743 1.372 . S
C744 C745 1.397 . S
C745 C744 1.397 . S
C745 C746 1.390 . S
C745 C761 1.476 . S
C746 H704 0.930 . S
C746 C745 1.390 . S
C746 C747 1.366 . S
C747 H705 0.932 . S
C747 C742 1.360 . S
C747 C746 1.366 . S
C748 C722 1.490 . S
C748 C749 1.380 . S
C748 C753 1.386 . S
C749 H706 0.930 . S
C749 C748 1.380 . S
C749 C750 1.381 . S
C750 H707 0.929 . S
C750 C749 1.381 . S
C750 C751 1.371 . S
C751 C750 1.371 . S
C751 C752 1.380 . S
C752 H708 0.931 . S
C752 C751 1.380 . S
C752 C753 1.387 . S
C753 H709 0.930 . S
C753 C748 1.386 . S
C753 C752 1.387 . S
C754 C723 1.519 . S
C754 C755 1.377 . S
C754 C759 1.361 . S
C755 H710 0.929 . S
C755 C754 1.377 . S
C755 C756 1.386 . S
C756 H711 0.931 . S
C756 C755 1.386 . S
C756 C757 1.363 . S
C757 C756 1.363 . S
C757 C758 1.385 . S
C758 H712 0.930 . S
C758 C757 1.385 . S
C758 C759 1.396 . S
C759 H713 0.929 . S
C759 C754 1.361 . S
C759 C758 1.396 . S
C760 O714 1.300 . S
C760 O715 1.209 . S
C760 C733 1.486 . S
C761 O716 1.199 . S
C761 O717 1.297 . S
C761 C745 1.476 . S
H762 C768 0.930 . S
H763 C771 0.930 . S
H764 C772 0.930 . S
H765 C773 0.930 . S
H766 C776 0.930 . S
H767 C777 0.930 . S
C768 H762 0.930 . S
C768 C769 1.355 . S
C768 C770 1.415 . S
C769 C768 1.355 . S
C769 C771 1.419 . S
C770 C768 1.415 . S
C770 C775 1.425 . S
C770 C777 1.409 . S
C771 H763 0.930 . S
C771 C769 1.419 . S
C771 C772 1.362 . S
C772 H764 0.930 . S
C772 C771 1.362 . S
C772 C775 1.409 . S
C773 H765 0.930 . S
C773 C774 1.355 . S
C773 C775 1.415 . S
C774 C773 1.355 . S
C774 C776 1.419 . S
C775 C770 1.425 . S
C775 C772 1.409 . S
C775 C773 1.415 . S
C776 H766 0.930 . S
C776 C774 1.419 . S
C776 C777 1.362 . S
C777 H767 0.930 . S
C777 C770 1.409 . S
C777 C776 1.362 . S
H778 C784 0.930 . S
H779 C787 0.930 . S
H780 C788 0.930 . S
H781 C789 0.930 . S
H782 C792 0.930 . S
H783 C793 0.930 . S
C784 H778 0.930 . S
C784 C785 1.355 . S
C784 C786 1.415 . S
C785 C784 1.355 . S
C785 C787 1.419 . S
C786 C784 1.415 . S
C786 C791 1.425 . S
C786 C793 1.409 . S
C787 H779 0.930 . S
C787 C785 1.419 . S
C787 C788 1.362 . S
C788 H780 0.930 . S
C788 C787 1.362 . S
C788 C791 1.409 . S
C789 H781 0.930 . S
C789 C790 1.355 . S
C789 C791 1.415 . S
C790 C789 1.355 . S
C790 C792 1.419 . S
C791 C786 1.425 . S
C791 C788 1.409 . S
C791 C789 1.415 . S
C792 H782 0.930 . S
C792 C790 1.419 . S
C792 C793 1.362 . S
C793 H783 0.930 . S
C793 C786 1.409 . S
C793 C792 1.362 . S
H794 C800 0.930 . S
H795 C803 0.930 . S
H796 C804 0.930 . S
H797 C805 0.930 . S
H798 C808 0.930 . S
H799 C809 0.930 . S
C800 H794 0.930 . S
C800 C801 1.355 . S
C800 C802 1.415 . S
C801 C800 1.355 . S
C801 C803 1.419 . S
C802 C800 1.415 . S
C802 C807 1.425 . S
C802 C809 1.409 . S
C803 H795 0.930 . S
C803 C801 1.419 . S
C803 C804 1.362 . S
C804 H796 0.930 . S
C804 C803 1.362 . S
C804 C807 1.409 . S
C805 H797 0.930 . S
C805 C806 1.355 . S
C805 C807 1.415 . S
C806 C805 1.355 . S
C806 C808 1.419 . S
C807 C802 1.425 . S
C807 C804 1.409 . S
C807 C805 1.415 . S
C808 H798 0.930 . S
C808 C806 1.419 . S
C808 C809 1.362 . S
C809 H799 0.930 . S
C809 C802 1.409 . S
C809 C808 1.362 . S
H810 C816 0.930 . S
H811 C819 0.930 . S
H812 C820 0.930 1_455 S
H813 C821 0.930 . S
H814 C824 0.930 . S
H815 C825 0.930 . S
C816 H810 0.930 . S
C816 C817 1.355 . S
C816 C818 1.415 . S
C817 C816 1.355 . S
C817 C819 1.419 . S
C818 C816 1.415 . S
C818 C823 1.425 . S
C818 C825 1.409 . S
C819 H811 0.930 . S
C819 C817 1.419 . S
C819 C820 1.362 . S
C820 H812 0.930 1_655 S
C820 C819 1.362 . S
C820 C823 1.409 . S
C821 H813 0.930 . S
C821 C822 1.355 . S
C821 C823 1.415 . S
C822 C821 1.355 . S
C822 C824 1.419 . S
C823 C818 1.425 . S
C823 C820 1.409 . S
C823 C821 1.415 . S
C824 H814 0.930 . S
C824 C822 1.419 . S
C824 C825 1.362 . S
C825 H815 0.930 . S
C825 C818 1.409 . S
C825 C824 1.362 . S
H826 C832 0.930 1_545 S
H827 C835 0.930 . S
H828 C836 0.930 . S
H829 C837 0.930 . S
H830 C840 0.930 . S
H831 C841 0.930 . S
C832 H826 0.930 1_565 S
C832 C833 1.355 . S
C832 C834 1.415 . S
C833 C832 1.355 . S
C833 C835 1.419 . S
C834 C832 1.415 . S
C834 C839 1.425 . S
C834 C841 1.409 . S
C835 H827 0.930 . S
C835 C833 1.419 . S
C835 C836 1.362 . S
C836 H828 0.930 . S
C836 C835 1.362 . S
C836 C839 1.409 . S
C837 H829 0.930 . S
C837 C838 1.355 . S
C837 C839 1.415 . S
C838 C837 1.355 . S
C838 C840 1.419 . S
C839 C834 1.425 . S
C839 C836 1.409 . S
C839 C837 1.415 . S
C840 H830 0.930 . S
C840 C838 1.419 . S
C840 C841 1.362 . S
C841 H831 0.930 . S
C841 C834 1.409 . S
C841 C840 1.362 . S
H842 C848 0.930 . S
H843 C851 0.930 . S
H844 C852 0.930 . S
H845 C853 0.930 . S
H846 C856 0.930 . S
H847 C857 0.930 . S
C848 H842 0.930 . S
C848 C849 1.355 . S
C848 C850 1.415 . S
C849 C848 1.355 . S
C849 C851 1.419 . S
C850 C848 1.415 . S
C850 C855 1.425 . S
C850 C857 1.409 . S
C851 H843 0.930 . S
C851 C849 1.419 . S
C851 C852 1.362 . S
C852 H844 0.930 . S
C852 C851 1.362 . S
C852 C855 1.409 . S
C853 H845 0.930 . S
C853 C854 1.355 . S
C853 C855 1.415 . S
C854 C853 1.355 . S
C854 C856 1.419 . S
C855 C850 1.425 . S
C855 C852 1.409 . S
C855 C853 1.415 . S
C856 H846 0.930 . S
C856 C854 1.419 . S
C856 C857 1.362 . S
C857 H847 0.930 . S
C857 C850 1.409 . S
C857 C856 1.362 . S
H858 C864 0.930 . S
H859 C867 0.930 . S
H860 C868 0.930 . S
H861 C869 0.930 . S
H862 C872 0.930 . S
H863 C873 0.930 . S
C864 H858 0.930 . S
C864 C865 1.355 . S
C864 C866 1.415 . S
C865 C864 1.355 . S
C865 C867 1.419 . S
C866 C864 1.415 . S
C866 C871 1.425 . S
C866 C873 1.409 . S
C867 H859 0.930 . S
C867 C865 1.419 . S
C867 C868 1.362 . S
C868 H860 0.930 . S
C868 C867 1.362 . S
C868 C871 1.409 . S
C869 H861 0.930 . S
C869 C870 1.355 . S
C869 C871 1.415 . S
C870 C869 1.355 . S
C870 C872 1.419 . S
C871 C866 1.425 . S
C871 C868 1.409 . S
C871 C869 1.415 . S
C872 H862 0.930 . S
C872 C870 1.419 . S
C872 C873 1.362 . S
C873 H863 0.930 . S
C873 C866 1.409 . S
C873 C872 1.362 . S
H874 C880 0.930 . S
H875 C883 0.930 . S
H876 C884 0.930 . S
H877 C885 0.930 . S
H878 C888 0.930 . S
H879 C889 0.930 . S
C880 H874 0.930 . S
C880 C881 1.355 . S
C880 C882 1.415 1_554 S
C881 C880 1.355 . S
C881 C883 1.419 . S
C882 C880 1.415 1_556 S
C882 C887 1.425 . S
C882 C889 1.409 . S
C883 H875 0.930 . S
C883 C881 1.419 . S
C883 C884 1.362 1_554 S
C884 H876 0.930 . S
C884 C883 1.362 1_556 S
C884 C887 1.409 . S
C885 H877 0.930 . S
C885 C886 1.355 . S
C885 C887 1.415 . S
C886 C885 1.355 . S
C886 C888 1.419 . S
C887 C882 1.425 . S
C887 C884 1.409 . S
C887 C885 1.415 . S
C888 H878 0.930 . S
C888 C886 1.419 . S
C888 C889 1.362 . S
C889 H879 0.930 . S
C889 C882 1.409 . S
C889 C888 1.362 . S
H890 C896 0.930 . S
H891 C899 0.930 . S
H892 C900 0.930 . S
H893 C901 0.930 . S
H894 C904 0.930 . S
H895 C905 0.930 . S
C896 H890 0.930 . S
C896 C897 1.355 . S
C896 C898 1.415 . S
C897 C896 1.355 . S
C897 C899 1.419 . S
C898 C896 1.415 . S
C898 C903 1.425 . S
C898 C905 1.409 . S
C899 H891 0.930 . S
C899 C897 1.419 . S
C899 C900 1.362 . S
C900 H892 0.930 . S
C900 C899 1.362 . S
C900 C903 1.409 . S
C901 H893 0.930 . S
C901 C902 1.355 . S
C901 C903 1.415 . S
C902 C901 1.355 . S
C902 C904 1.419 . S
C903 C898 1.425 . S
C903 C900 1.409 . S
C903 C901 1.415 . S
C904 H894 0.930 . S
C904 C902 1.419 . S
C904 C905 1.362 . S
C905 H895 0.930 . S
C905 C898 1.409 . S
C905 C904 1.362 . S
H906 C912 0.930 . S
H907 C915 0.930 . S
H908 C916 0.930 . S
H909 C917 0.930 . S
H910 C920 0.930 . S
H911 C921 0.930 . S
C912 H906 0.930 . S
C912 C913 1.351 1_554 S
C912 C914 1.415 1_554 S
C913 C912 1.351 1_556 S
C913 C915 1.444 . S
C914 C912 1.415 1_556 S
C914 C919 1.425 . S
C914 C921 1.409 . S
C915 H907 0.930 . S
C915 C913 1.444 . S
C915 C916 1.362 . S
C916 H908 0.930 . S
C916 C915 1.362 . S
C916 C919 1.409 . S
C917 H909 0.930 . S
C917 C918 1.355 . S
C917 C919 1.415 . S
C918 C917 1.355 . S
C918 C920 1.419 . S
C919 C914 1.425 . S
C919 C916 1.409 . S
C919 C917 1.415 . S
C920 H910 0.930 . S
C920 C918 1.419 . S
C920 C921 1.362 . S
C921 H911 0.930 . S
C921 C914 1.409 . S
C921 C920 1.362 . S
H922 C928 0.930 . S
H923 C931 0.930 . S
H924 C932 0.930 . S
H925 C933 0.930 . S
H926 C936 0.930 . S
H927 C937 0.930 . S
C928 H922 0.930 . S
C928 C929 1.355 . S
C928 C930 1.415 . S
C929 C928 1.355 . S
C929 C931 1.419 . S
C930 C928 1.415 . S
C930 C935 1.425 . S
C930 C937 1.409 . S
C931 H923 0.930 . S
C931 C929 1.419 . S
C931 C932 1.362 . S
C932 H924 0.930 . S
C932 C931 1.362 . S
C932 C935 1.409 . S
C933 H925 0.930 . S
C933 C934 1.355 . S
C933 C935 1.415 . S
C934 C933 1.355 . S
C934 C936 1.419 . S
C935 C930 1.425 . S
C935 C932 1.409 . S
C935 C933 1.415 . S
C936 H926 0.930 . S
C936 C934 1.419 . S
C936 C937 1.362 . S
C937 H927 0.930 . S
C937 C930 1.409 . S
C937 C936 1.362 . S
H938 C944 0.930 . S
H939 C947 0.930 . S
H940 C948 0.930 . S
H941 C949 0.930 . S
H942 C952 0.930 . S
H943 C953 0.926 1_655 S
C944 H938 0.930 . S
C944 C945 1.355 . S
C944 C946 1.415 . S
C945 C944 1.355 . S
C945 C947 1.419 . S
C946 C944 1.415 . S
C946 C951 1.425 . S
C946 C953 1.414 . S
C947 H939 0.930 . S
C947 C945 1.419 . S
C947 C948 1.362 . S
C948 H940 0.930 . S
C948 C947 1.362 . S
C948 C951 1.409 . S
C949 H941 0.930 . S
C949 C950 1.355 1_455 S
C949 C951 1.415 . S
C950 C949 1.355 1_655 S
C950 C952 1.419 . S
C951 C946 1.425 . S
C951 C948 1.409 . S
C951 C949 1.415 . S
C952 H942 0.930 . S
C952 C950 1.419 . S
C952 C953 1.361 1_655 S
C953 H943 0.926 1_455 S
C953 C946 1.414 . S
C953 C952 1.361 1_455 S
H954 C960 0.930 . S
H955 C963 0.930 . S
H956 C964 0.930 . S
H957 C965 0.930 . S
H958 C968 0.930 . S
H959 C969 0.930 1_655 S
C960 H954 0.930 . S
C960 C961 1.355 . S
C960 C962 1.415 . S
C961 C960 1.355 . S
C961 C963 1.419 . S
C962 C960 1.415 . S
C962 C967 1.425 . S
C962 C969 1.409 . S
C963 H955 0.930 . S
C963 C961 1.419 . S
C963 C964 1.362 . S
C964 H956 0.930 . S
C964 C963 1.362 . S
C964 C967 1.409 . S
C965 H957 0.930 . S
C965 C966 1.355 . S
C965 C967 1.415 . S
C966 C965 1.355 . S
C966 C968 1.419 1_455 S
C967 C962 1.425 . S
C967 C964 1.409 . S
C967 C965 1.415 . S
C968 H958 0.930 . S
C968 C966 1.419 1_655 S
C968 C969 1.362 1_655 S
C969 H959 0.930 1_455 S
C969 C962 1.409 . S
C969 C968 1.362 1_455 S
H970 C976 0.930 . S
H971 C979 0.930 . S
H972 C980 0.930 . S
H973 C981 0.930 . S
H974 C984 0.930 . S
H975 C985 0.930 . S
C976 H970 0.930 . S
C976 C977 1.355 . S
C976 C978 1.415 . S
C977 C976 1.355 . S
C977 C979 1.419 . S
C978 C976 1.415 . S
C978 C983 1.425 . S
C978 C985 1.409 . S
C979 H971 0.930 . S
C979 C977 1.419 . S
C979 C980 1.362 . S
C980 H972 0.930 . S
C980 C979 1.362 . S
C980 C983 1.409 . S
C981 H973 0.930 . S
C981 C982 1.355 . S
C981 C983 1.415 . S
C982 C981 1.355 . S
C982 C984 1.419 . S
C983 C978 1.425 . S
C983 C980 1.409 . S
C983 C981 1.415 . S
C984 H974 0.930 . S
C984 C982 1.419 . S
C984 C985 1.362 . S
C985 H975 0.930 . S
C985 C978 1.409 . S
C985 C984 1.362 . S
H986 C992 0.930 . S
H987 C995 0.930 1_554 S
H988 C996 0.930 . S
H989 C997 0.930 . S
H990 C1000 0.930 . S
H991 C1001 0.930 . S
C992 H986 0.930 . S
C992 C993 1.355 . S
C992 C994 1.415 . S
C993 C992 1.355 . S
C993 C995 1.419 . S
C994 C992 1.415 . S
C994 C999 1.425 . S
C994 C1001 1.409 . S
C995 H987 0.930 1_556 S
C995 C993 1.419 . S
C995 C996 1.362 . S
C996 H988 0.930 . S
C996 C995 1.362 . S
C996 C999 1.409 . S
C997 H989 0.930 . S
C997 C998 1.355 . S
C997 C999 1.415 . S
C998 C997 1.355 . S
C998 C1000 1.419 . S
C999 C994 1.425 . S
C999 C996 1.409 . S
C999 C997 1.415 . S
C1000 H990 0.930 . S
C1000 C998 1.419 . S
C1000 C1001 1.362 . S
C1001 H991 0.930 . S
C1001 C994 1.409 . S
C1001 C1000 1.362 . S
H1002 C1008 0.930 . S
H1003 C1011 0.930 . S
H1004 C1012 0.930 . S
H1005 C1013 0.930 . S
H1006 C1016 0.930 . S
H1007 C1017 0.930 . S
C1008 H1002 0.930 . S
C1008 C1009 1.355 . S
C1008 C1010 1.415 . S
C1009 C1008 1.355 . S
C1009 C1011 1.419 . S
C1010 C1008 1.415 . S
C1010 C1015 1.425 . S
C1010 C1017 1.409 . S
C1011 H1003 0.930 . S
C1011 C1009 1.419 . S
C1011 C1012 1.362 . S
C1012 H1004 0.930 . S
C1012 C1011 1.362 . S
C1012 C1015 1.409 . S
C1013 H1005 0.930 . S
C1013 C1014 1.355 . S
C1013 C1015 1.415 . S
C1014 C1013 1.355 . S
C1014 C1016 1.419 . S
C1015 C1010 1.425 . S
C1015 C1012 1.409 . S
C1015 C1013 1.415 . S
C1016 H1006 0.930 . S
C1016 C1014 1.419 . S
C1016 C1017 1.362 . S
C1017 H1007 0.930 . S
C1017 C1010 1.409 . S
C1017 C1016 1.362 . S
H1018 C1024 0.930 . S
H1019 C1027 0.930 . S
H1020 C1028 0.930 . S
H1021 C1029 0.930 . S
H1022 C1032 0.930 . S
H1023 C1033 0.930 . S
C1024 H1018 0.930 . S
C1024 C1025 1.355 . S
C1024 C1026 1.415 1_554 S
C1025 C1024 1.355 . S
C1025 C1027 1.419 1_554 S
C1026 C1024 1.415 1_556 S
C1026 C1031 1.425 . S
C1026 C1033 1.409 1_556 S
C1027 H1019 0.930 . S
C1027 C1025 1.419 1_556 S
C1027 C1028 1.362 . S
C1028 H1020 0.930 . S
C1028 C1027 1.362 . S
C1028 C1031 1.409 . S
C1029 H1021 0.930 . S
C1029 C1030 1.355 . S
C1029 C1031 1.415 . S
C1030 C1029 1.355 . S
C1030 C1032 1.419 . S
C1031 C1026 1.425 . S
C1031 C1028 1.409 . S
C1031 C1029 1.415 . S
C1032 H1022 0.930 . S
C1032 C1030 1.419 . S
C1032 C1033 1.362 1_556 S
C1033 H1023 0.930 . S
C1033 C1026 1.409 1_554 S
C1033 C1032 1.362 1_554 S
H1034 C1040 0.930 . S
H1035 C1043 0.930 . S
H1036 C1044 0.930 . S
H1037 C1045 0.930 . S
H1038 C1048 0.930 . S
H1039 C1049 0.930 . S
C1040 H1034 0.930 . S
C1040 C1041 1.355 . S
C1040 C1042 1.415 . S
C1041 C1040 1.355 . S
C1041 C1043 1.419 . S
C1042 C1040 1.415 . S
C1042 C1047 1.425 . S
C1042 C1049 1.409 . S
C1043 H1035 0.930 . S
C1043 C1041 1.419 . S
C1043 C1044 1.362 . S
C1044 H1036 0.930 . S
C1044 C1043 1.362 . S
C1044 C1047 1.409 . S
C1045 H1037 0.930 . S
C1045 C1046 1.355 . S
C1045 C1047 1.415 . S
C1046 C1045 1.355 . S
C1046 C1048 1.419 . S
C1047 C1042 1.425 . S
C1047 C1044 1.409 . S
C1047 C1045 1.415 . S
C1048 H1038 0.930 . S
C1048 C1046 1.419 . S
C1048 C1049 1.362 . S
C1049 H1039 0.930 . S
C1049 C1042 1.409 . S
C1049 C1048 1.362 . S
H1050 C1056 0.930 . S
H1051 C1059 0.930 . S
H1052 C1060 0.930 . S
H1053 C1061 0.930 . S
H1054 C1064 0.930 . S
H1055 C1065 0.930 . S
C1056 H1050 0.930 . S
C1056 C1057 1.355 . S
C1056 C1058 1.415 . S
C1057 C1056 1.355 . S
C1057 C1059 1.419 . S
C1058 C1056 1.415 . S
C1058 C1063 1.425 . S
C1058 C1065 1.409 . S
C1059 H1051 0.930 . S
C1059 C1057 1.419 . S
C1059 C1060 1.362 . S
C1060 H1052 0.930 . S
C1060 C1059 1.362 . S
C1060 C1063 1.409 . S
C1061 H1053 0.930 . S
C1061 C1062 1.355 . S
C1061 C1063 1.415 . S
C1062 C1061 1.355 . S
C1062 C1064 1.419 . S
C1063 C1058 1.425 . S
C1063 C1060 1.409 . S
C1063 C1061 1.415 . S
C1064 H1054 0.930 . S
C1064 C1062 1.419 . S
C1064 C1065 1.362 . S
C1065 H1055 0.930 . S
C1065 C1058 1.409 . S
C1065 C1064 1.362 . S
H1066 C1072 0.930 . S
H1067 C1075 0.930 . S
H1068 C1076 0.930 . S
H1069 C1077 0.930 . S
H1070 C1080 0.930 . S
H1071 C1081 0.930 . S
C1072 H1066 0.930 . S
C1072 C1073 1.355 . S
C1072 C1074 1.415 . S
C1073 C1072 1.355 . S
C1073 C1075 1.419 . S
C1074 C1072 1.415 . S
C1074 C1079 1.425 . S
C1074 C1081 1.409 . S
C1075 H1067 0.930 . S
C1075 C1073 1.419 . S
C1075 C1076 1.362 . S
C1076 H1068 0.930 . S
C1076 C1075 1.362 . S
C1076 C1079 1.409 . S
C1077 H1069 0.930 . S
C1077 C1078 1.355 . S
C1077 C1079 1.415 . S
C1078 C1077 1.355 . S
C1078 C1080 1.419 . S
C1079 C1074 1.425 . S
C1079 C1076 1.409 . S
C1079 C1077 1.415 . S
C1080 H1070 0.930 . S
C1080 C1078 1.419 . S
C1080 C1081 1.362 . S
C1081 H1071 0.930 . S
C1081 C1074 1.409 . S
C1081 C1080 1.362 . S
H1082 C1088 0.930 . S
H1083 C1091 0.930 . S
H1084 C1092 0.930 . S
H1085 C1093 0.930 . S
H1086 C1096 0.930 . S
H1087 C1097 0.930 1_455 S
C1088 H1082 0.930 . S
C1088 C1089 1.355 . S
C1088 C1090 1.415 . S
C1089 C1088 1.355 . S
C1089 C1091 1.419 . S
C1090 C1088 1.415 . S
C1090 C1095 1.425 . S
C1090 C1097 1.409 . S
C1091 H1083 0.930 . S
C1091 C1089 1.419 . S
C1091 C1092 1.362 . S
C1092 H1084 0.930 . S
C1092 C1091 1.362 . S
C1092 C1095 1.409 . S
C1093 H1085 0.930 . S
C1093 C1094 1.355 . S
C1093 C1095 1.415 . S
C1094 C1093 1.355 . S
C1094 C1096 1.419 . S
C1095 C1090 1.425 . S
C1095 C1092 1.409 . S
C1095 C1093 1.415 . S
C1096 H1086 0.930 . S
C1096 C1094 1.419 . S
C1096 C1097 1.362 . S
C1097 H1087 0.930 1_655 S
C1097 C1090 1.409 . S
C1097 C1096 1.362 . S
H1098 C1104 0.930 . S
H1099 C1107 0.930 . S
H1100 C1108 0.930 . S
H1101 C1109 0.930 . S
H1102 C1112 0.930 . S
H1103 C1113 0.930 . S
C1104 H1098 0.930 . S
C1104 C1105 1.355 . S
C1104 C1106 1.415 . S
C1105 C1104 1.355 . S
C1105 C1107 1.419 1_565 S
C1106 C1104 1.415 . S
C1106 C1111 1.425 . S
C1106 C1113 1.409 . S
C1107 H1099 0.930 . S
C1107 C1105 1.419 1_545 S
C1107 C1108 1.362 . S
C1108 H1100 0.930 . S
C1108 C1107 1.362 . S
C1108 C1111 1.409 1_545 S
C1109 H1101 0.930 . S
C1109 C1110 1.355 . S
C1109 C1111 1.415 . S
C1110 C1109 1.355 . S
C1110 C1112 1.419 . S
C1111 C1106 1.425 . S
C1111 C1108 1.409 1_565 S
C1111 C1109 1.415 . S
C1112 H1102 0.930 . S
C1112 C1110 1.419 . S
C1112 C1113 1.362 . S
C1113 H1103 0.930 . S
C1113 C1106 1.409 . S
C1113 C1112 1.362 . S
H1114 C1120 0.930 . S
H1115 C1123 0.930 . S
H1116 C1124 0.930 . S
H1117 C1125 0.930 . S
H1118 C1128 0.930 . S
H1119 C1129 0.930 . S
C1120 H1114 0.930 . S
C1120 C1121 1.355 . S
C1120 C1122 1.415 . S
C1121 C1120 1.355 . S
C1121 C1123 1.419 . S
C1122 C1120 1.415 . S
C1122 C1127 1.425 . S
C1122 C1129 1.409 . S
C1123 H1115 0.930 . S
C1123 C1121 1.419 . S
C1123 C1124 1.362 . S
C1124 H1116 0.930 . S
C1124 C1123 1.362 . S
C1124 C1127 1.409 . S
C1125 H1117 0.930 . S
C1125 C1126 1.355 . S
C1125 C1127 1.415 . S
C1126 C1125 1.355 . S
C1126 C1128 1.419 . S
C1127 C1122 1.425 . S
C1127 C1124 1.409 . S
C1127 C1125 1.415 . S
C1128 H1118 0.930 . S
C1128 C1126 1.419 . S
C1128 C1129 1.362 . S
C1129 H1119 0.930 . S
C1129 C1122 1.409 . S
C1129 C1128 1.362 . S
H1130 C1136 0.930 . S
H1131 C1139 0.930 . S
H1132 C1140 0.930 . S
H1133 C1141 0.930 . S
H1134 C1144 0.930 . S
H1135 C1145 0.930 . S
C1136 H1130 0.930 . S
C1136 C1137 1.355 . S
C1136 C1138 1.415 . S
C1137 C1136 1.355 . S
C1137 C1139 1.419 . S
C1138 C1136 1.415 . S
C1138 C1143 1.425 . S
C1138 C1145 1.409 . S
C1139 H1131 0.930 . S
C1139 C1137 1.419 . S
C1139 C1140 1.362 . S
C1140 H1132 0.930 . S
C1140 C1139 1.362 . S
C1140 C1143 1.409 . S
C1141 H1133 0.930 . S
C1141 C1142 1.355 . S
C1141 C1143 1.415 . S
C1142 C1141 1.355 . S
C1142 C1144 1.419 . S
C1143 C1138 1.425 . S
C1143 C1140 1.409 . S
C1143 C1141 1.415 . S
C1144 H1134 0.930 . S
C1144 C1142 1.419 . S
C1144 C1145 1.362 . S
C1145 H1135 0.930 . S
C1145 C1138 1.409 . S
C1145 C1144 1.362 . S
C769 C39 2.253 . S
C774 C381 2.170 . S
C785 C91 1.439 . S
C790 C455 1.386 . S
C806 C505 1.712 . S
C801 C128 1.754 . S
C822 C591 1.167 . S
C817 C188 1.152 . S
C838 C683 1.888 . S
C833 C250 1.877 1_565 S
C854 C727 1.866 . S
C849 C304 1.906 . S
C865 C75 1.268 . S
C870 C529 1.161 . S
C881 C144 2.475 . S
C886 C609 2.457 . S
C902 C665 1.450 . S
C897 C198 1.431 . S
C918 C751 1.319 . S
C913 C234 1.298 1_556 S
C929 C294 2.140 . S
C934 C357 2.022 . S
C950 C431 1.799 . S
C945 C29 1.841 . S
C966 C603 2.089 1_455 S
C961 C38 2.300 . S
C977 C92 2.188 . S
C982 C653 2.012 . S
C998 C757 2.176 . S
C993 C135 2.309 1_556 S
C1009 C181 1.308 . S
C1014 C369 1.293 . S
C1025 C251 1.976 . S
C1030 C443 1.915 . S
C1041 C303 2.410 . S
C1046 C535 2.276 . S
C1057 C82 1.902 . S
C1062 C739 1.815 . S
C1078 C387 2.229 . S
C1073 C145 2.250 . S
C1089 C197 2.325 . S
C1094 C461 2.217 . S
C1105 C241 1.694 1_565 S
C1110 C517 1.600 . S
C1121 C287 1.623 . S
C1126 C579 1.506 . S
C1137 C22 1.949 . S
C1142 C677 1.815 . S
