# Generated by pormake.
# Topology tsx, (6,3)-cn, num edge types: 1
# Building blocks:
#     Node 0, Type 0, BuildingBlock: FUNLAD_clean_sbu_0, # of connection points: 6
#     Node 1, Type 0, BuildingBlock: FUNLAD_clean_sbu_0, # of connection points: 6
#     Node 2, Type 1, BuildingBlock: KAKCAD_clean_linker_0, # of connection points: 3
#     Node 3, Type 1, BuildingBlock: KAKCAD_clean_linker_0, # of connection points: 3
#     Node 4, Type 1, BuildingBlock: KAKCAD_clean_linker_0, # of connection points: 3
#     Node 5, Type 1, BuildingBlock: KAKCAD_clean_linker_0, # of connection points: 3
#     Edge 6, Type (0, 1), BuildingBlock: FUNLAD_clean_linker_0, # of connection points: 2
#     Edge 7, Type (0, 1), BuildingBlock: FUNLAD_clean_linker_0, # of connection points: 2
#     Edge 8, Type (0, 1), BuildingBlock: FUNLAD_clean_linker_0, # of connection points: 2
#     Edge 9, Type (0, 1), BuildingBlock: FUNLAD_clean_linker_0, # of connection points: 2
#     Edge 10, Type (0, 1), BuildingBlock: FUNLAD_clean_linker_0, # of connection points: 2
#     Edge 11, Type (0, 1), BuildingBlock: FUNLAD_clean_linker_0, # of connection points: 2
#     Edge 12, Type (0, 1), BuildingBlock: FUNLAD_clean_linker_0, # of connection points: 2
#     Edge 13, Type (0, 1), BuildingBlock: FUNLAD_clean_linker_0, # of connection points: 2
#     Edge 14, Type (0, 1), BuildingBlock: FUNLAD_clean_linker_0, # of connection points: 2
#     Edge 15, Type (0, 1), BuildingBlock: FUNLAD_clean_linker_0, # of connection points: 2
#     Edge 16, Type (0, 1), BuildingBlock: FUNLAD_clean_linker_0, # of connection points: 2
#     Edge 17, Type (0, 1), BuildingBlock: FUNLAD_clean_linker_0, # of connection points: 2
# Relax obj value: 0.165
# Max RMSD: 0.156
# Mean RMSD: 0.093
data_MOF--net-tsx--node1-FUNLAD_clean_sbu_0--node2-KAKCAD_clean_linker_0--edge1-FUNLAD_clean_linker_0
_symmetry_space_group_name_H-M    P1
_symmetry_Int_Tables_number       1
_symmetry_cell_setting            triclinic
loop_
_symmetry_equiv_pos_as_xyz
'x, y, z'
_cell_length_a     26.340439
_cell_length_b     29.576606
_cell_length_c     55.578525
_cell_angle_alpha  91.315214
_cell_angle_beta   92.012107
_cell_angle_gamma 89.641176
loop_
_atom_site_label
_atom_site_type_symbol
_atom_site_fract_x
_atom_site_fract_y
_atom_site_fract_z
_atom_type_partial_charge
C0 C 0.92677 0.94784 1.0016 0.0
N1 N 0.9964 0.00654 0.06362 0.0
C2 C 0.95066 0.00317 0.07405 0.0
C3 C 0.94806 -0.00037 0.09899 0.0
C4 C 0.99295 -0.00028 0.11343 0.0
C5 C 0.03967 0.00308 0.10214 0.0
C6 C 0.04052 0.00642 0.07711 0.0
Zn7 Zn 0.99832 0.01182 0.02697 0.0
C8 C 0.07422 0.95013 0.00577 0.0
N9 N 0.00094 0.02246 0.9503 0.0
C10 C 0.95693 0.02227 0.93672 0.0
C11 C 0.04683 0.02401 0.93984 0.0
C12 C 0.04971 0.02482 0.91481 0.0
C13 C 0.00494 0.02395 0.90029 0.0
C14 C 0.95806 0.02301 0.9116 0.0
Zn15 Zn -0.00119 0.0179 0.98702 0.0
O16 O 0.94333 0.96052 0.02241 0.0
C17 C 0.92242 0.07926 0.00865 0.0
O18 O 0.94337 0.96655 0.98312 0.0
H19 H 0.0814 0.02417 0.95094 0.0
H20 H 0.91603 0.00321 0.06301 0.0
H21 H 0.92084 0.02086 0.94537 0.0
O22 O 0.94042 0.06158 0.02777 0.0
O23 O 0.94021 0.06744 0.98844 0.0
H24 H 0.07649 0.00915 0.06847 0.0
O25 O 0.05478 0.06888 0.99148 0.0
O26 O 0.05405 0.06253 0.03073 0.0
O27 O 0.05712 0.96794 0.9865 0.0
O28 O 0.05596 0.96227 0.02577 0.0
C29 C 0.07197 0.08059 0.01234 0.0
H30 H 0.91123 -0.00354 0.10683 0.0
H31 H 0.0752 0.00391 0.11253 0.0
H32 H 0.08667 0.02627 0.90694 0.0
H33 H 0.92259 0.0218 0.90116 0.0
C34 C 0.42683 0.44739 0.49999 0.0
N35 N 0.50023 0.50643 0.56088 0.0
C36 C 0.45499 0.50698 0.57198 0.0
C37 C 0.45361 0.50472 0.59703 0.0
C38 C 0.49923 0.50186 0.61083 0.0
C39 C 0.54533 0.50131 0.59884 0.0
C40 C 0.54496 0.50365 0.57378 0.0
Zn41 Zn 0.50149 0.50941 0.52415 0.0
C42 C 0.57489 0.44371 0.50379 0.0
N43 N 0.50549 0.51549 0.44737 0.0
C44 C 0.46111 0.51565 0.43407 0.0
C45 C 0.55111 0.51524 0.43661 0.0
C46 C 0.5533 0.5146 0.41153 0.0
C47 C 0.50811 0.514 0.39733 0.0
C48 C 0.46155 0.51484 0.40893 0.0
Zn49 Zn 0.50381 0.5132 0.48417 0.0
O50 O 0.44299 0.46114 0.52067 0.0
C51 C 0.43023 0.57887 0.50474 0.0
O52 O 0.44592 0.46331 0.4813 0.0
H53 H 0.58595 0.51487 0.44749 0.0
H54 H 0.41986 0.50927 0.5614 0.0
H55 H 0.42525 0.51595 0.44298 0.0
O56 O 0.44657 0.5616 0.52427 0.0
O57 O 0.44796 0.56508 0.48486 0.0
H58 H 0.58051 0.5031 0.56461 0.0
O59 O 0.56211 0.56242 0.48765 0.0
O60 O 0.56048 0.5577 0.52696 0.0
O61 O 0.5595 0.46158 0.48426 0.0
O62 O 0.55627 0.45701 0.52352 0.0
C63 C 0.57955 0.57434 0.50844 0.0
H64 H 0.41722 0.50583 0.60551 0.0
H65 H 0.58138 0.49853 0.6087 0.0
H66 H 0.59002 0.51345 0.40336 0.0
H67 H 0.4258 0.51498 0.3987 0.0
C68 C 0.9847 0.93325 0.34944 0.0
C69 C 0.00401 0.96959 0.3367 0.0
C70 C 0.98157 0.93598 0.37454 0.0
C71 C 0.99735 0.97521 0.38736 0.0
C72 C 0.01791 0.01095 0.37471 0.0
C73 C 0.02135 0.00813 0.34973 0.0
C74 C 0.9911 0.97985 0.41375 0.0
C75 C 0.00622 0.94511 0.4293 0.0
C76 C 0.00282 0.95101 0.45441 0.0
C77 C 0.98253 0.99143 0.46382 0.0
C78 C 0.96701 0.02617 0.44846 0.0
C79 C 0.9714 0.02016 0.42352 0.0
C80 C 0.94645 0.06909 0.45829 0.0
C81 C 0.90747 0.06884 0.47485 0.0
C82 C 0.9639 0.11057 0.45011 0.0
C83 C 0.94112 0.15102 0.45746 0.0
C84 C 0.90006 0.15077 0.47295 0.0
C85 C 0.02554 0.91713 0.47081 0.0
C86 C 0.0173 0.87072 0.46667 0.0
C87 C 0.05953 0.93114 0.48949 0.0
C88 C 0.08715 0.89941 0.50279 0.0
C89 C 0.08194 0.85298 0.49742 0.0
C90 C 0.04519 0.83887 0.4799 0.0
C91 C 0.8843 0.10932 0.48205 0.0
H92 H 0.97064 0.9032 0.33998 0.0
H93 H 0.96537 0.908 0.38384 0.0
H94 H 0.03135 0.04125 0.38417 0.0
H95 H 0.03763 0.03628 0.34061 0.0
H96 H 0.02317 0.91453 0.42195 0.0
H97 H 0.95877 0.04683 0.41161 0.0
H98 H 0.98003 -0.0037 0.48314 0.0
H99 H 0.89333 0.03722 0.48137 0.0
H100 H 0.99464 0.11163 0.43769 0.0
H101 H 0.95495 0.18243 0.45057 0.0
H102 H 0.99085 0.8591 0.45252 0.0
H103 H 0.06705 0.9667 0.49287 0.0
H104 H 0.85249 0.10786 0.49382 0.0
H105 H 0.04038 0.80337 0.47526 0.0
H106 H 0.1145 0.91132 0.51647 0.0
C107 C 0.02886 0.02991 0.6649 0.0
C108 C 0.04097 0.99056 0.67766 0.0
C109 C 0.0299 0.02986 0.63978 0.0
C110 C 0.04317 0.99047 0.62674 0.0
C111 C 0.05559 0.95115 0.63948 0.0
C112 C 0.05455 0.95121 0.66464 0.0
C113 C 0.04292 0.9904 0.59993 0.0
C114 C 0.06108 0.02787 0.58783 0.0
C115 C 0.05788 0.0296 0.56255 0.0
C116 C 0.03667 -0.00708 0.54931 0.0
C117 C 0.01962 0.95463 0.56103 0.0
C118 C 0.02286 0.95367 0.58633 0.0
C119 C 0.99542 0.91662 0.54718 0.0
C120 C 0.95747 0.9249 0.52939 0.0
C121 C 0.00713 0.87174 0.55307 0.0
C122 C 0.97869 0.83611 0.54285 0.0
C123 C 0.93773 0.84466 0.52666 0.0
C124 C 0.07692 0.06977 0.55013 0.0
C125 C 0.06934 0.11343 0.55989 0.0
C126 C 0.10444 0.06475 0.52899 0.0
C127 C 0.12566 0.10239 0.51846 0.0
C128 C 0.11999 0.14585 0.52888 0.0
C129 C 0.09078 0.15095 0.54948 0.0
C130 C 0.92886 0.88922 0.51921 0.0
H131 H 0.01881 0.06095 0.67434 0.0
H132 H 0.0195 0.06059 0.63055 0.0
H133 H 0.06636 0.92034 0.63002 0.0
H134 H 0.06363 0.92018 0.67387 0.0
H135 H 0.07838 0.05557 0.59817 0.0
H136 H 0.00761 0.92504 0.59547 0.0
H137 H 0.03291 -0.00564 0.5299 0.0
H138 H 0.94775 0.95917 0.52443 0.0
H139 H 0.03712 0.86434 0.56625 0.0
H140 H 0.98726 0.80198 0.54845 0.0
H141 H 0.04748 0.11861 0.57587 0.0
H142 H 0.11111 0.03157 0.52103 0.0
H143 H 0.89757 0.89697 0.5068 0.0
H144 H 0.08599 0.18375 0.55818 0.0
H145 H 0.14733 0.09732 0.50241 0.0
C146 C 0.45911 0.43479 0.84616 0.0
C147 C 0.47726 0.47079 0.83283 0.0
C148 C 0.45796 0.43812 0.8713 0.0
C149 C 0.47477 0.47758 0.88363 0.0
C150 C 0.49315 0.51343 0.87029 0.0
C151 C 0.49432 0.5101 0.84522 0.0
C152 C 0.47309 0.48168 0.91031 0.0
C153 C 0.48767 0.44537 0.9249 0.0
C154 C 0.48819 0.45 0.95014 0.0
C155 C 0.47318 0.4911 0.96089 0.0
C156 C 0.45781 0.52747 0.94652 0.0
C157 C 0.45794 0.52249 0.92133 0.0
C158 C 0.44021 0.5706 0.95743 0.0
C159 C 0.40215 0.57091 0.97448 0.0
C160 C 0.45798 0.61187 0.94911 0.0
C161 C 0.43604 0.65261 0.95661 0.0
C162 C 0.39549 0.65292 0.9724 0.0
C163 C 0.50819 0.41262 0.96492 0.0
C164 C 0.48876 0.36884 0.96146 0.0
C165 C 0.55074 0.41954 0.98042 0.0
C166 C 0.576 0.38271 0.99075 0.0
C167 C 0.55896 0.33834 0.98579 0.0
C168 C 0.51361 0.33206 0.972 0.0
C169 C 0.37982 0.61171 0.98184 0.0
H170 H 0.44615 0.40386 0.83719 0.0
H171 H 0.44326 0.41002 0.88104 0.0
H172 H 0.50701 0.54408 0.87924 0.0
H173 H 0.508 0.53867 0.83552 0.0
H174 H 0.50075 0.41403 0.91666 0.0
H175 H 0.44509 0.5503 0.91025 0.0
H176 H 0.47387 0.49485 0.98036 0.0
H177 H 0.38768 0.53948 0.98107 0.0
H178 H 0.48791 0.61249 0.93624 0.0
H179 H 0.44985 0.68382 0.94946 0.0
H180 H 0.45551 0.3629 0.94981 0.0
H181 H 0.56647 0.45309 0.98322 0.0
H182 H 0.34845 0.61066 0.99389 0.0
H183 H 0.49866 0.29847 0.96838 0.0
H184 H 0.61085 0.3889 1.00119 0.0
C185 C 0.55151 0.53201 0.16092 0.0
C186 C 0.5575 0.49388 0.1754 0.0
C187 C 0.55282 0.52772 0.13586 0.0
C188 C 0.56044 0.48522 0.12464 0.0
C189 C 0.56643 0.44705 0.13914 0.0
C190 C 0.56487 0.45133 0.16423 0.0
C191 C 0.5617 0.48083 0.09791 0.0
C192 C 0.58544 0.51392 0.08455 0.0
C193 C 0.58516 0.51102 0.05928 0.0
C194 C 0.56111 0.47444 0.04725 0.0
C195 C 0.53752 0.44094 0.06026 0.0
C196 C 0.53812 0.44422 0.08555 0.0
C197 C 0.50914 0.40403 0.04757 0.0
C198 C 0.47289 0.41389 0.02926 0.0
C199 C 0.51488 0.3593 0.05513 0.0
C200 C 0.48246 0.32563 0.04582 0.0
C201 C 0.44346 0.33618 0.02893 0.0
C202 C 0.61011 0.54639 0.04555 0.0
C203 C 0.60273 0.59225 0.05159 0.0
C204 C 0.64302 0.53457 0.02704 0.0
C205 C 0.67 0.56797 0.01562 0.0
C206 C 0.66408 0.61374 0.02235 0.0
C207 C 0.62934 0.6256 0.04007 0.0
C208 C 0.44025 0.38022 0.02002 0.0
H209 H 0.54497 0.56515 0.16896 0.0
H210 H 0.54707 0.55771 0.12526 0.0
H211 H 0.57303 0.41391 0.13113 0.0
H212 H 0.57026 0.42138 0.1749 0.0
H213 H 0.60498 0.54171 0.09386 0.0
H214 H 0.51828 0.41916 0.09555 0.0
H215 H 0.56019 0.47234 0.02776 0.0
H216 H 0.46779 0.44815 0.02309 0.0
H217 H 0.54325 0.35074 0.06889 0.0
H218 H 0.4864 0.29172 0.05264 0.0
H219 H 0.57702 0.60228 0.06557 0.0
H220 H 0.64936 0.49942 0.02203 0.0
H221 H 0.41053 0.38938 0.00705 0.0
H222 H 0.62436 0.66054 0.04581 0.0
H223 H 0.69634 0.55796 1.00191 0.0
C224 C 0.13774 0.13003 0.99492 0.0
C225 C 0.1154 0.11189 0.01516 0.0
C226 C 0.18187 0.156 0.99755 0.0
C227 C 0.20442 0.16437 0.02054 0.0
C228 C 0.1815 0.14686 0.04073 0.0
C229 C 0.1374 0.12113 0.03812 0.0
C230 C 0.2528 0.18937 0.0244 0.0
C231 C 0.27024 0.21999 0.00914 0.0
C232 C 0.31705 0.24706 0.01427 0.0
C233 C 0.33922 0.26979 0.99536 0.0
C234 C 0.38139 0.29773 0.99979 0.0
C235 C 0.4023 0.30332 0.02326 0.0
H236 H 0.32183 0.23769 0.05313 0.0
C237 C 0.38058 0.28021 0.04208 0.0
C238 C 0.33837 0.25275 0.03774 0.0
H239 H 0.39486 0.28491 0.06049 0.0
H240 H 0.12194 0.12318 0.97696 0.0
H241 H 0.19892 0.16799 0.98149 0.0
H242 H 0.19808 0.15273 0.05864 0.0
H243 H 0.12133 0.10755 0.05409 0.0
H244 H 0.27397 0.18253 0.041 0.0
H245 H 0.24918 0.22642 0.99242 0.0
H246 H 0.32346 0.2664 0.97714 0.0
H247 H 0.39727 0.31533 0.98494 0.0
C248 C 0.13794 0.90437 0.9832 0.0
C249 C 0.11503 0.91565 0.00499 0.0
C250 C 0.17628 0.8716 0.98244 0.0
C251 C 0.19269 0.8495 0.00352 0.0
C252 C 0.16945 0.8605 0.02523 0.0
C253 C 0.13127 0.89344 0.02602 0.0
C254 C 0.23169 0.81307 0.0032 0.0
C255 C 0.26835 0.81072 0.98692 0.0
C256 C 0.30395 0.77187 0.98459 0.0
C257 C 0.32515 0.76325 0.96214 0.0
C258 C 0.35586 0.72533 0.95843 0.0
C259 C 0.36669 0.69533 0.97721 0.0
H260 H 0.30226 0.74925 0.02154 0.0
C261 C 0.34726 0.70496 1.00002 0.0
C262 C 0.31629 0.7429 0.00371 0.0
H263 H 0.35575 0.68301 0.01498 0.0
H264 H 0.12605 0.92063 0.96665 0.0
H265 H 0.1919 0.86296 0.96517 0.0
H266 H 0.18094 0.84361 0.04166 0.0
H267 H 0.11424 0.90122 0.0431 0.0
H268 H 0.22917 0.78719 0.01663 0.0
H269 H 0.27079 0.83707 0.97373 0.0
H270 H 0.31653 0.78509 0.94713 0.0
H271 H 0.36954 0.71872 0.94053 0.0
C272 C 0.88232 0.88221 0.01849 0.0
C273 C 0.8901 0.91041 0.99899 0.0
C274 C 0.84955 0.84549 0.01592 0.0
C275 C 0.82354 0.83638 0.99384 0.0
C276 C 0.82989 0.86536 0.97457 0.0
C277 C 0.86343 0.90181 0.97701 0.0
C278 C 0.78857 0.79751 0.99107 0.0
C279 C 0.7995 0.75787 1.0015 0.0
C280 C 0.76337 0.71984 0.00249 0.0
C281 C 0.7827 0.6766 0.00744 0.0
C282 C 0.75007 0.64131 0.01242 0.0
C283 C 0.6974 0.64875 0.01284 0.0
H284 H 0.6941 0.75972 0.99828 0.0
C285 C 0.67778 0.69142 0.00673 0.0
C286 C 0.71043 0.72669 1.00158 0.0
H287 H 0.63727 0.69796 0.00682 0.0
H288 H 0.90212 0.88807 0.03568 0.0
H289 H 0.8442 0.8245 0.03133 0.0
H290 H 0.80966 0.85928 0.9575 0.0
H291 H 0.86841 0.92324 0.96173 0.0
H292 H 0.75396 0.80158 0.98012 0.0
H293 H 0.83664 0.75329 0.01032 0.0
H294 H 0.82333 0.67053 0.0084 0.0
H295 H 0.76634 0.60894 0.01734 0.0
C296 C 0.85182 0.12363 0.98901 0.0
C297 C 0.87977 0.11188 0.00994 0.0
C298 C 0.80991 0.15264 0.9904 0.0
C299 C 0.7952 0.17065 0.01277 0.0
C300 C 0.82403 0.16003 0.03359 0.0
C301 C 0.86558 0.13053 0.03225 0.0
C302 C 0.75123 0.20201 0.01464 0.0
C303 C 0.70946 0.19782 1.0001 0.0
C304 C 0.66716 0.23135 0.99887 0.0
C305 C 0.63489 0.23039 0.97826 0.0
C306 C 0.59812 0.26386 0.97468 0.0
C307 C 0.59218 0.29906 0.9918 0.0
H308 H 0.68211 0.2662 0.03333 0.0
C309 C 0.62225 0.29855 0.01321 0.0
C310 C 0.65938 0.26501 0.01676 0.0
H311 H 0.6179 0.32467 0.02698 0.0
H312 H 0.8619 0.11 0.97154 0.0
H313 H 0.78956 0.16137 0.97387 0.0
H314 H 0.81389 0.17399 0.05097 0.0
H315 H 0.88656 0.12234 0.04871 0.0
H316 H 0.7541 0.22898 0.02816 0.0
H317 H 0.70742 0.16957 0.98724 0.0
H318 H 0.63962 0.20475 0.96425 0.0
H319 H 0.57626 0.26334 0.9578 0.0
C320 C 0.64548 0.62372 0.49089 0.0
C321 C 0.6237 0.60499 0.51113 0.0
C322 C 0.68925 0.65029 0.49349 0.0
C323 C 0.71207 0.65858 0.51644 0.0
C324 C 0.69004 0.64001 0.53659 0.0
C325 C 0.64627 0.61378 0.53402 0.0
C326 C 0.75958 0.68502 0.52032 0.0
C327 C 0.77515 0.71713 0.50541 0.0
C328 C 0.82025 0.74654 0.51071 0.0
C329 C 0.83811 0.77373 0.49239 0.0
C330 C 0.87765 0.80448 0.49714 0.0
C331 C 0.90029 0.8086 0.52034 0.0
H332 H 0.83096 0.73148 0.54885 0.0
C333 C 0.88335 0.78069 0.53849 0.0
C334 C 0.8438 0.7503 0.53383 0.0
H335 H 0.89903 0.78382 0.55673 0.0
H336 H 0.62925 0.61724 0.47297 0.0
H337 H 0.70568 0.66306 0.47745 0.0
H338 H 0.70686 0.64572 0.55447 0.0
H339 H 0.63072 0.59972 0.54999 0.0
H340 H 0.78121 0.67831 0.53679 0.0
H341 H 0.75318 0.72348 0.48894 0.0
H342 H 0.82075 0.77182 0.47444 0.0
H343 H 0.88996 0.82552 0.48277 0.0
C344 C 0.63863 0.39681 0.48208 0.0
C345 C 0.61497 0.40861 0.5036 0.0
C346 C 0.67729 0.36438 0.48189 0.0
C347 C 0.69329 0.34317 0.50328 0.0
C348 C 0.66898 0.3543 0.52469 0.0
C349 C 0.63043 0.38696 0.52492 0.0
C350 C 0.73329 0.3077 0.50349 0.0
C351 C 0.77121 0.30689 0.48786 0.0
C352 C 0.80757 0.26873 0.48551 0.0
C353 C 0.82956 0.26103 0.46317 0.0
C354 C 0.86065 0.22344 0.45934 0.0
C355 C 0.87107 0.19293 0.47793 0.0
H356 H 0.80491 0.24508 0.52222 0.0
C357 C 0.85103 0.20178 0.50068 0.0
C358 C 0.81962 0.23936 0.50448 0.0
H359 H 0.85927 0.17944 0.51551 0.0
H360 H 0.62734 0.41261 0.46531 0.0
H361 H 0.69371 0.35544 0.46484 0.0
H362 H 0.68013 0.33796 0.54132 0.0
H363 H 0.61275 0.39518 0.54178 0.0
H364 H 0.73043 0.28129 0.5166 0.0
H365 H 0.77389 0.33388 0.47504 0.0
H366 H 0.82114 0.28326 0.4483 0.0
H367 H 0.87488 0.21743 0.4415 0.0
C368 C 0.35799 0.40262 0.51779 0.0
C369 C 0.38691 0.41253 0.49784 0.0
C370 C 0.32165 0.36846 0.51621 0.0
C371 C 0.31366 0.34323 0.49466 0.0
C372 C 0.34249 0.35314 0.47471 0.0
C373 C 0.37838 0.38785 0.47617 0.0
C374 C 0.27853 0.3042 0.49331 0.0
C375 C 0.23616 0.30298 0.50612 0.0
C376 C 0.20488 0.26182 0.50824 0.0
C377 C 0.15408 0.26658 0.5147 0.0
C378 C 0.12553 0.22873 0.52012 0.0
C379 C 0.1475 0.18526 0.51961 0.0
H380 H 0.26563 0.21318 0.50232 0.0
C381 C 0.19781 0.18035 0.51224 0.0
C382 C 0.2262 0.21817 0.5066 0.0
H383 H 0.21631 0.14755 0.51205 0.0
H384 H 0.36375 0.42099 0.53475 0.0
H385 H 0.30116 0.36087 0.53216 0.0
H386 H 0.33742 0.33383 0.458 0.0
H387 H 0.4003 0.39457 0.46052 0.0
H388 H 0.28812 0.2758 0.48155 0.0
H389 H 0.2242 0.33322 0.51592 0.0
H390 H 0.13679 0.29983 0.51615 0.0
H391 H 0.08662 0.23369 0.52534 0.0
C392 C 0.36346 0.62303 0.5262 0.0
C393 C 0.39038 0.6142 0.50518 0.0
C394 C 0.32533 0.65609 0.52654 0.0
C395 C 0.31366 0.68113 0.50585 0.0
C396 C 0.34101 0.67267 0.48498 0.0
C397 C 0.37867 0.63928 0.48455 0.0
C398 C 0.27481 0.71754 0.50559 0.0
C399 C 0.23372 0.71804 0.51937 0.0
C400 C 0.19478 0.75423 0.51721 0.0
C401 C 0.14307 0.74358 0.51838 0.0
C402 C 0.10581 0.77626 0.51319 0.0
C403 C 0.11986 0.82024 0.50712 0.0
H404 H 0.24826 0.80857 0.51252 0.0
C405 C 0.17167 0.83152 0.50772 0.0
C406 C 0.20868 0.79896 0.51278 0.0
H407 H 0.18393 0.86495 0.50299 0.0
H408 H 0.3717 0.60429 0.54241 0.0
H409 H 0.30587 0.66252 0.54311 0.0
H410 H 0.33299 0.69179 0.46887 0.0
H411 H 0.39886 0.63341 0.46811 0.0
H412 H 0.27876 0.74368 0.49235 0.0
H413 H 0.22627 0.68974 0.53082 0.0
H414 H 0.13151 0.70945 0.52215 0.0
H415 H 0.06615 0.76679 0.5132 0.0
C416 C 0.02716 0.97168 0.15331 0.0
C417 C 0.99093 -0.00299 0.1401 0.0
C418 C 0.02555 0.96977 0.17841 0.0
C419 C 0.9873 -0.00705 0.1909 0.0
C420 C 0.95126 0.0183 0.17765 0.0
C421 C 0.95296 0.02029 0.15261 0.0
C422 C 0.98458 -0.00654 0.21764 0.0
C423 C 0.00928 0.96407 0.2322 0.0
C424 C 0.00681 0.96615 0.25896 0.0
C425 C 0.01902 0.92732 0.27212 0.0
C426 C 0.01793 0.92818 0.29729 0.0
C427 C 0.00494 0.96811 0.30992 0.0
H428 H 0.98623 0.03738 0.26243 0.0
C429 C 0.99302 0.00702 0.29674 0.0
C430 C 0.99429 0.00621 0.27164 0.0
H431 H 0.98239 0.03828 0.30582 0.0
H432 H 0.05675 0.95309 0.14425 0.0
H433 H 0.05492 0.95072 0.1878 0.0
H434 H 0.92169 0.03694 0.18672 0.0
H435 H 0.92497 0.04081 0.1431 0.0
H436 H 0.95961 0.01865 0.22549 0.0
H437 H 0.03083 0.93635 0.22443 0.0
H438 H 0.02942 0.89612 0.2629 0.0
H439 H 0.02804 0.89776 0.30687 0.0
C440 C 0.04448 -0.00237 0.86183 0.0
C441 C 0.00721 0.02333 0.87355 0.0
C442 C 0.04658 -0.00322 0.83671 0.0
C443 C 0.0111 0.02145 0.82262 0.0
C444 C 0.97426 0.0475 0.83438 0.0
C445 C 0.97217 0.04834 0.8595 0.0
C446 C 0.01181 0.02205 0.7958 0.0
C447 C 0.03534 0.99058 0.78211 0.0
C448 C 0.0358 0.99151 0.75532 0.0
C449 C 0.07459 0.96819 0.74343 0.0
C450 C 0.07637 0.96787 0.71831 0.0
C451 C 0.03907 0.99061 0.70441 0.0
H452 H 0.96637 0.0307 0.74968 0.0
C453 C -0.00023 0.01338 0.71627 0.0
C454 C 0.99802 0.01375 0.7414 0.0
H455 H 0.96974 0.03033 0.70611 0.0
H456 H 0.07189 0.97771 0.87207 0.0
H457 H 0.07658 0.97724 0.82863 0.0
H458 H 0.94675 0.06724 0.82408 0.0
H459 H 0.94346 0.06907 0.86791 0.0
H460 H 0.99155 0.04965 0.78714 0.0
H461 H 0.05592 0.96305 0.79063 0.0
H462 H 0.10401 0.95049 0.75364 0.0
H463 H 0.10741 0.95029 0.7098 0.0
C464 C 0.46248 0.47373 0.64885 0.0
C465 C 0.49885 0.4997 0.63753 0.0
C466 C 0.46225 0.4717 0.67397 0.0
C467 C 0.49867 0.4955 0.68839 0.0
C468 C 0.53463 0.52174 0.67701 0.0
C469 C 0.53485 0.52375 0.65193 0.0
C470 C 0.50004 0.49517 0.71521 0.0
C471 C 0.47594 0.46471 0.72838 0.0
C472 C 0.47784 0.46572 0.75517 0.0
C473 C 0.43736 0.44726 0.76739 0.0
C474 C 0.4373 0.44844 0.79256 0.0
C475 C 0.47806 0.46778 0.80609 0.0
H476 H 0.55223 0.4968 0.76007 0.0
C477 C 0.5193 0.48503 0.79387 0.0
C478 C 0.51932 0.48393 0.76872 0.0
H479 H 0.5519 0.4991 0.80375 0.0
H480 H 0.43437 0.45459 0.63829 0.0
H481 H 0.43297 0.45193 0.68181 0.0
H482 H 0.56284 0.5408 0.68757 0.0
H483 H 0.56287 0.5447 0.64383 0.0
H484 H 0.52224 0.52152 0.72443 0.0
H485 H 0.45283 0.43862 0.71954 0.0
H486 H 0.40516 0.43263 0.75742 0.0
H487 H 0.40478 0.4351 0.80139 0.0
C488 C 0.54487 0.53704 0.35833 0.0
C489 C 0.50961 0.5115 0.3706 0.0
C490 C 0.54703 0.53393 0.33323 0.0
C491 C 0.51413 0.50477 0.31977 0.0
C492 C 0.47846 0.47979 0.3321 0.0
C493 C 0.47622 0.48304 0.35717 0.0
C494 C 0.51494 0.49954 0.29301 0.0
C495 C 0.5526 0.51438 0.27941 0.0
C496 C 0.55264 0.50837 0.25275 0.0
C497 C 0.58002 0.539 0.23937 0.0
C498 C 0.58146 0.5344 0.21432 0.0
C499 C 0.55607 0.4986 0.20206 0.0
H500 H 0.50745 0.44702 0.2502 0.0
C501 C 0.52935 0.46743 0.21546 0.0
C502 C 0.52764 0.4722 0.24052 0.0
H503 H 0.50932 0.43953 0.20654 0.0
H504 H 0.57049 0.55993 0.36813 0.0
H505 H 0.57417 0.55495 0.32469 0.0
H506 H 0.45245 0.4572 0.32231 0.0
H507 H 0.44891 0.46255 0.36606 0.0
H508 H 0.48284 0.48229 0.28422 0.0
H509 H 0.58452 0.53244 0.28775 0.0
H510 H 0.60014 0.56684 0.24832 0.0
H511 H 0.60304 0.55858 0.20456 0.0
loop_
_geom_bond_atom_site_label_1
_geom_bond_atom_site_label_2
_geom_bond_distance
_geom_bond_site_symmetry_2
_ccdc_geom_bond_type
C0 O16 1.251 . S
C0 O18 1.254 1_554 S
N1 C2 1.333 1_445 S
N1 C6 1.307 . S
N1 Zn7 2.020 . S
C2 N1 1.333 1_665 S
C2 C3 1.379 . S
C2 H20 0.952 . S
C3 C2 1.379 . S
C3 C4 1.390 1_665 S
C3 H30 0.949 . S
C4 C3 1.390 1_445 S
C4 C5 1.357 . S
C5 C4 1.357 . S
C5 C6 1.370 . S
C5 H31 0.950 . S
C6 N1 1.307 . S
C6 C5 1.370 . S
C6 H24 0.948 . S
Zn7 N1 2.020 . S
Zn7 O16 2.039 1_445 S
Zn7 O22 2.034 1_455 S
Zn7 O26 2.025 . S
Zn7 O28 2.024 1_545 S
C8 O27 1.246 1_554 S
C8 O28 1.249 . S
N9 C10 1.307 1_445 S
N9 C11 1.333 . S
N9 Zn15 2.020 . S
C10 N9 1.307 1_665 S
C10 C14 1.370 . S
C10 H21 0.948 . S
C11 N9 1.333 . S
C11 C12 1.379 . S
C11 H19 0.952 . S
C12 C11 1.379 . S
C12 C13 1.390 . S
C12 H32 0.949 . S
C13 C12 1.390 . S
C13 C14 1.357 1_445 S
C14 C10 1.370 . S
C14 C13 1.357 1_665 S
C14 H33 0.950 . S
Zn15 N9 2.020 . S
Zn15 O18 2.025 1_445 S
Zn15 O23 2.024 1_455 S
Zn15 O25 2.039 . S
Zn15 O27 2.034 1_545 S
O16 C0 1.251 . S
O16 Zn7 2.039 1_665 S
C17 O22 1.246 . S
C17 O23 1.249 1_554 S
O18 C0 1.254 1_556 S
O18 Zn15 2.025 1_665 S
H19 C11 0.952 . S
H20 C2 0.952 . S
H21 C10 0.948 . S
O22 Zn7 2.034 1_655 S
O22 C17 1.246 . S
O23 Zn15 2.024 1_655 S
O23 C17 1.249 1_556 S
H24 C6 0.948 . S
O25 Zn15 2.039 . S
O25 C29 1.251 1_556 S
O26 Zn7 2.025 . S
O26 C29 1.254 . S
O27 C8 1.246 1_556 S
O27 Zn15 2.034 1_565 S
O28 Zn7 2.024 1_565 S
O28 C8 1.249 . S
C29 O25 1.251 1_554 S
C29 O26 1.254 . S
H30 C3 0.949 . S
H31 C5 0.950 . S
H32 C12 0.949 . S
H33 C14 0.950 . S
C34 O50 1.251 . S
C34 O52 1.254 . S
N35 C36 1.333 . S
N35 C40 1.307 . S
N35 Zn41 2.020 . S
C36 N35 1.333 . S
C36 C37 1.379 . S
C36 H54 0.952 . S
C37 C36 1.379 . S
C37 C38 1.390 . S
C37 H64 0.949 . S
C38 C37 1.390 . S
C38 C39 1.357 . S
C39 C38 1.357 . S
C39 C40 1.370 . S
C39 H65 0.950 . S
C40 N35 1.307 . S
C40 C39 1.370 . S
C40 H58 0.948 . S
Zn41 N35 2.020 . S
Zn41 O50 2.039 . S
Zn41 O56 2.034 . S
Zn41 O60 2.025 . S
Zn41 O62 2.024 . S
C42 O61 1.246 . S
C42 O62 1.249 . S
N43 C44 1.307 . S
N43 C45 1.333 . S
N43 Zn49 2.020 . S
C44 N43 1.307 . S
C44 C48 1.370 . S
C44 H55 0.948 . S
C45 N43 1.333 . S
C45 C46 1.379 . S
C45 H53 0.952 . S
C46 C45 1.379 . S
C46 C47 1.390 . S
C46 H66 0.949 . S
C47 C46 1.390 . S
C47 C48 1.357 . S
C48 C44 1.370 . S
C48 C47 1.357 . S
C48 H67 0.950 . S
Zn49 N43 2.020 . S
Zn49 O52 2.025 . S
Zn49 O57 2.024 . S
Zn49 O59 2.039 . S
Zn49 O61 2.034 . S
O50 C34 1.251 . S
O50 Zn41 2.039 . S
C51 O56 1.246 . S
C51 O57 1.249 . S
O52 C34 1.254 . S
O52 Zn49 2.025 . S
H53 C45 0.952 . S
H54 C36 0.952 . S
H55 C44 0.948 . S
O56 Zn41 2.034 . S
O56 C51 1.246 . S
O57 Zn49 2.024 . S
O57 C51 1.249 . S
H58 C40 0.948 . S
O59 Zn49 2.039 . S
O59 C63 1.251 . S
O60 Zn41 2.025 . S
O60 C63 1.254 . S
O61 C42 1.246 . S
O61 Zn49 2.034 . S
O62 Zn41 2.024 . S
O62 C42 1.249 . S
C63 O59 1.251 . S
C63 O60 1.254 . S
H64 C37 0.949 . S
H65 C39 0.950 . S
H66 C46 0.949 . S
H67 C48 0.950 . S
C68 C69 1.386 1_565 S
C68 C70 1.397 . S
C68 H92 0.931 . S
C69 C68 1.386 1_545 S
C69 C73 1.397 1_655 S
C70 C68 1.397 . S
C70 C71 1.404 1_655 S
C70 H93 0.930 . S
C71 C70 1.404 1_455 S
C71 C72 1.357 1_565 S
C71 C74 1.481 . S
C72 C71 1.357 1_545 S
C72 C73 1.389 . S
C72 H94 0.929 . S
C73 C69 1.397 1_455 S
C73 C72 1.389 . S
C73 H95 0.931 . S
C74 C71 1.481 . S
C74 C75 1.388 . S
C74 C79 1.389 1_465 S
C75 C74 1.388 . S
C75 C76 1.401 . S
C75 H96 0.930 . S
C76 C75 1.401 . S
C76 C77 1.370 1_455 S
C76 C85 1.511 . S
C77 C76 1.370 1_655 S
C77 C78 1.397 1_565 S
C77 H98 0.932 . S
C78 C77 1.397 1_545 S
C78 C79 1.361 . S
C78 C80 1.500 . S
C79 C74 1.389 1_645 S
C79 C78 1.361 . S
C79 H97 0.931 . S
C80 C78 1.500 . S
C80 C81 1.371 . S
C80 C82 1.365 . S
C81 C80 1.371 . S
C81 C91 1.386 . S
C81 H99 0.931 . S
C82 C80 1.365 . S
C82 C83 1.409 . S
C82 H100 0.929 . S
C83 C82 1.409 . S
C83 C84 1.380 . S
C83 H101 0.930 . S
C84 C83 1.380 . S
C84 C91 1.357 . S
C85 C76 1.511 . S
C85 C86 1.341 . S
C85 C87 1.371 . S
C86 C85 1.341 . S
C86 C90 1.394 . S
C86 H102 0.930 . S
C87 C85 1.371 . S
C87 C88 1.392 . S
C87 H103 0.931 . S
C88 C87 1.392 . S
C88 C89 1.331 . S
C88 H106 0.932 . S
C89 C88 1.331 . S
C89 C90 1.336 . S
C90 C86 1.394 . S
C90 C89 1.336 . S
C90 H105 0.929 . S
C91 C81 1.386 . S
C91 C84 1.357 . S
C91 H104 0.928 . S
H92 C68 0.931 . S
H93 C70 0.930 . S
H94 C72 0.929 . S
H95 C73 0.931 . S
H96 C75 0.930 . S
H97 C79 0.931 . S
H98 C77 0.932 . S
H99 C81 0.931 . S
H100 C82 0.929 . S
H101 C83 0.930 . S
H102 C86 0.930 . S
H103 C87 0.931 . S
H104 C91 0.928 . S
H105 C90 0.929 . S
H106 C88 0.932 . S
C107 C108 1.386 . S
C107 C109 1.397 . S
C107 H131 0.931 . S
C108 C107 1.386 . S
C108 C112 1.397 1_545 S
C109 C107 1.397 . S
C109 C110 1.384 . S
C109 H132 0.930 . S
C110 C109 1.384 . S
C110 C111 1.377 1_545 S
C110 C113 1.481 . S
C111 C110 1.377 1_565 S
C111 C112 1.389 . S
C111 H133 0.929 . S
C112 C108 1.397 1_565 S
C112 C111 1.389 . S
C112 H134 0.931 . S
C113 C110 1.481 . S
C113 C114 1.387 . S
C113 C118 1.390 1_445 S
C114 C113 1.387 . S
C114 C115 1.401 . S
C114 H135 0.930 . S
C115 C114 1.401 . S
C115 C116 1.376 . S
C115 C124 1.511 . S
C116 C115 1.376 . S
C116 C117 1.392 1_445 S
C116 H137 0.931 . S
C117 C116 1.392 1_665 S
C117 C118 1.361 . S
C117 C119 1.500 . S
C118 C113 1.390 1_665 S
C118 C117 1.361 . S
C118 H136 0.931 . S
C119 C117 1.500 . S
C119 C120 1.371 . S
C119 C121 1.365 . S
C120 C119 1.371 . S
C120 C130 1.386 . S
C120 H138 0.931 . S
C121 C119 1.365 . S
C121 C122 1.409 . S
C121 H139 0.929 . S
C122 C121 1.409 . S
C122 C123 1.380 . S
C122 H140 0.930 . S
C123 C122 1.380 . S
C123 C130 1.357 . S
C124 C115 1.511 . S
C124 C125 1.341 . S
C124 C126 1.371 . S
C125 C124 1.341 . S
C125 C129 1.394 . S
C125 H141 0.930 . S
C126 C124 1.371 . S
C126 C127 1.392 . S
C126 H142 0.931 . S
C127 C126 1.392 . S
C127 C128 1.331 . S
C127 H145 0.932 . S
C128 C127 1.331 . S
C128 C129 1.336 . S
C129 C125 1.394 . S
C129 C128 1.336 . S
C129 H144 0.929 . S
C130 C120 1.386 . S
C130 C123 1.357 . S
C130 H143 0.928 . S
H131 C107 0.931 . S
H132 C109 0.930 . S
H133 C111 0.929 . S
H134 C112 0.931 . S
H135 C114 0.930 . S
H136 C118 0.931 . S
H137 C116 0.931 . S
H138 C120 0.931 . S
H139 C121 0.929 . S
H140 C122 0.930 . S
H141 C125 0.930 . S
H142 C126 0.931 . S
H143 C130 0.928 . S
H144 C129 0.929 . S
H145 C127 0.932 . S
C146 C147 1.386 . S
C146 C148 1.397 . S
C146 H170 0.931 . S
C147 C146 1.386 . S
C147 C151 1.397 . S
C148 C146 1.397 . S
C148 C149 1.384 . S
C148 H171 0.930 . S
C149 C148 1.384 . S
C149 C150 1.377 . S
C149 C152 1.481 . S
C150 C149 1.377 . S
C150 C151 1.389 . S
C150 H172 0.929 . S
C151 C147 1.397 . S
C151 C150 1.389 . S
C151 H173 0.931 . S
C152 C149 1.481 . S
C152 C153 1.387 . S
C152 C157 1.390 . S
C153 C152 1.387 . S
C153 C154 1.401 . S
C153 H174 0.930 . S
C154 C153 1.401 . S
C154 C155 1.376 . S
C154 C163 1.511 . S
C155 C154 1.376 . S
C155 C156 1.392 . S
C155 H176 0.931 . S
C156 C155 1.392 . S
C156 C157 1.361 . S
C156 C158 1.500 . S
C157 C152 1.390 . S
C157 C156 1.361 . S
C157 H175 0.931 . S
C158 C156 1.500 . S
C158 C159 1.371 . S
C158 C160 1.365 . S
C159 C158 1.371 . S
C159 C169 1.386 . S
C159 H177 0.931 . S
C160 C158 1.365 . S
C160 C161 1.409 . S
C160 H178 0.929 . S
C161 C160 1.409 . S
C161 C162 1.380 . S
C161 H179 0.930 . S
C162 C161 1.380 . S
C162 C169 1.357 . S
C163 C154 1.511 . S
C163 C164 1.341 . S
C163 C165 1.371 . S
C164 C163 1.341 . S
C164 C168 1.394 . S
C164 H180 0.930 . S
C165 C163 1.371 . S
C165 C166 1.392 . S
C165 H181 0.931 . S
C166 C165 1.392 . S
C166 C167 1.331 . S
C166 H184 0.932 1_556 S
C167 C166 1.331 . S
C167 C168 1.336 . S
C168 C164 1.394 . S
C168 C167 1.336 . S
C168 H183 0.929 . S
C169 C159 1.386 . S
C169 C162 1.357 . S
C169 H182 0.928 1_556 S
H170 C146 0.931 . S
H171 C148 0.930 . S
H172 C150 0.929 . S
H173 C151 0.931 . S
H174 C153 0.930 . S
H175 C157 0.931 . S
H176 C155 0.931 . S
H177 C159 0.931 . S
H178 C160 0.929 . S
H179 C161 0.930 . S
H180 C164 0.930 . S
H181 C165 0.931 . S
H182 C169 0.928 1_554 S
H183 C168 0.929 . S
H184 C166 0.932 1_554 S
C185 C186 1.386 . S
C185 C187 1.397 . S
C185 H209 0.931 . S
C186 C185 1.386 . S
C186 C190 1.397 . S
C187 C185 1.397 . S
C187 C188 1.384 . S
C187 H210 0.930 . S
C188 C187 1.384 . S
C188 C189 1.377 . S
C188 C191 1.481 . S
C189 C188 1.377 . S
C189 C190 1.389 . S
C189 H211 0.929 . S
C190 C186 1.397 . S
C190 C189 1.389 . S
C190 H212 0.931 . S
C191 C188 1.481 . S
C191 C192 1.387 . S
C191 C196 1.390 . S
C192 C191 1.387 . S
C192 C193 1.401 . S
C192 H213 0.930 . S
C193 C192 1.401 . S
C193 C194 1.376 . S
C193 C202 1.511 . S
C194 C193 1.376 . S
C194 C195 1.392 . S
C194 H215 0.931 . S
C195 C194 1.392 . S
C195 C196 1.361 . S
C195 C197 1.500 . S
C196 C191 1.390 . S
C196 C195 1.361 . S
C196 H214 0.931 . S
C197 C195 1.500 . S
C197 C198 1.371 . S
C197 C199 1.365 . S
C198 C197 1.371 . S
C198 C208 1.386 . S
C198 H216 0.931 . S
C199 C197 1.365 . S
C199 C200 1.409 . S
C199 H217 0.929 . S
C200 C199 1.409 . S
C200 C201 1.380 . S
C200 H218 0.930 . S
C201 C200 1.380 . S
C201 C208 1.357 . S
C202 C193 1.511 . S
C202 C203 1.341 . S
C202 C204 1.371 . S
C203 C202 1.341 . S
C203 C207 1.394 . S
C203 H219 0.930 . S
C204 C202 1.371 . S
C204 C205 1.392 . S
C204 H220 0.931 . S
C205 C204 1.392 . S
C205 C206 1.331 . S
C205 H223 0.932 1_554 S
C206 C205 1.331 . S
C206 C207 1.336 . S
C207 C203 1.394 . S
C207 C206 1.336 . S
C207 H222 0.929 . S
C208 C198 1.386 . S
C208 C201 1.357 . S
C208 H221 0.928 1_554 S
H209 C185 0.931 . S
H210 C187 0.930 . S
H211 C189 0.929 . S
H212 C190 0.931 . S
H213 C192 0.930 . S
H214 C196 0.931 . S
H215 C194 0.931 . S
H216 C198 0.931 . S
H217 C199 0.929 . S
H218 C200 0.930 . S
H219 C203 0.930 . S
H220 C204 0.931 . S
H221 C208 0.928 1_556 S
H222 C207 0.929 . S
H223 C205 0.932 1_556 S
C224 C225 1.386 1_556 S
C224 C226 1.383 . S
C224 H240 0.951 . S
C225 C224 1.386 1_554 S
C225 C229 1.383 . S
C226 C224 1.383 . S
C226 C227 1.402 1_556 S
C226 H241 0.951 . S
C227 C226 1.402 1_554 S
C227 C228 1.375 . S
C227 C230 1.481 . S
C228 C227 1.375 . S
C228 C229 1.367 . S
C228 H242 0.951 . S
C229 C225 1.383 . S
C229 C228 1.367 . S
C229 H243 0.950 . S
C230 C227 1.481 . S
C230 C231 1.297 . S
C230 H244 0.950 . S
C231 C230 1.297 . S
C231 C232 1.479 . S
C231 H245 0.950 1_554 S
C232 C231 1.479 . S
C232 C233 1.375 1_554 S
C232 C238 1.404 . S
C233 C232 1.375 1_556 S
C233 C234 1.369 . S
C233 H246 0.950 . S
C234 C233 1.369 . S
C234 C235 1.392 1_556 S
C234 H247 0.951 . S
C235 C234 1.392 1_554 S
C235 C237 1.384 . S
H236 C238 0.949 . S
C237 C235 1.384 . S
C237 C238 1.385 . S
C237 H239 0.950 . S
C238 C232 1.404 . S
C238 H236 0.949 . S
C238 C237 1.385 . S
H239 C237 0.950 . S
H240 C224 0.951 . S
H241 C226 0.951 . S
H242 C228 0.951 . S
H243 C229 0.950 . S
H244 C230 0.950 . S
H245 C231 0.950 1_556 S
H246 C233 0.950 . S
H247 C234 0.951 . S
C248 C249 1.386 1_556 S
C248 C250 1.383 . S
C248 H264 0.951 . S
C249 C248 1.386 1_554 S
C249 C253 1.383 . S
C250 C248 1.383 . S
C250 C251 1.402 1_556 S
C250 H265 0.951 . S
C251 C250 1.402 1_554 S
C251 C252 1.375 . S
C251 C254 1.481 . S
C252 C251 1.375 . S
C252 C253 1.367 . S
C252 H266 0.951 . S
C253 C249 1.383 . S
C253 C252 1.367 . S
C253 H267 0.950 . S
C254 C251 1.481 . S
C254 C255 1.297 1_554 S
C254 H268 0.950 . S
C255 C254 1.297 1_556 S
C255 C256 1.479 . S
C255 H269 0.950 . S
C256 C255 1.479 . S
C256 C257 1.375 . S
C256 C262 1.404 1_556 S
C257 C256 1.375 . S
C257 C258 1.369 . S
C257 H270 0.950 . S
C258 C257 1.369 . S
C258 C259 1.392 . S
C258 H271 0.951 . S
C259 C258 1.392 . S
C259 C261 1.384 1_556 S
H260 C262 0.949 . S
C261 C259 1.384 1_554 S
C261 C262 1.385 . S
C261 H263 0.950 . S
C262 C256 1.404 1_554 S
C262 H260 0.949 . S
C262 C261 1.385 . S
H263 C261 0.950 . S
H264 C248 0.951 . S
H265 C250 0.951 . S
H266 C252 0.951 . S
H267 C253 0.950 . S
H268 C254 0.950 . S
H269 C255 0.950 . S
H270 C257 0.950 . S
H271 C258 0.951 . S
C272 C273 1.386 . S
C272 C274 1.383 . S
C272 H288 0.951 . S
C273 C272 1.386 . S
C273 C277 1.383 1_554 S
C274 C272 1.383 . S
C274 C275 1.402 . S
C274 H289 0.951 . S
C275 C274 1.402 . S
C275 C276 1.375 1_554 S
C275 C278 1.481 . S
C276 C275 1.375 1_556 S
C276 C277 1.367 . S
C276 H290 0.951 . S
C277 C273 1.383 1_556 S
C277 C276 1.367 . S
C277 H291 0.950 . S
C278 C275 1.481 . S
C278 C279 1.297 . S
C278 H292 0.950 1_554 S
C279 C278 1.297 . S
C279 C280 1.479 . S
C279 H293 0.950 . S
C280 C279 1.479 . S
C280 C281 1.375 . S
C280 C286 1.404 . S
C281 C280 1.375 . S
C281 C282 1.369 . S
C281 H294 0.950 . S
C282 C281 1.369 . S
C282 C283 1.392 . S
C282 H295 0.951 . S
C283 C282 1.392 . S
C283 C285 1.384 . S
H284 C286 0.949 1_556 S
C285 C283 1.384 . S
C285 C286 1.385 . S
C285 H287 0.950 1_554 S
C286 C280 1.404 . S
C286 H284 0.949 1_554 S
C286 C285 1.385 . S
H287 C285 0.950 1_556 S
H288 C272 0.951 . S
H289 C274 0.951 . S
H290 C276 0.951 . S
H291 C277 0.950 . S
H292 C278 0.950 1_556 S
H293 C279 0.950 . S
H294 C281 0.950 . S
H295 C282 0.951 . S
C296 C297 1.386 1_556 S
C296 C298 1.383 . S
C296 H312 0.951 . S
C297 C296 1.386 1_554 S
C297 C301 1.383 . S
C298 C296 1.383 . S
C298 C299 1.402 1_556 S
C298 H313 0.951 . S
C299 C298 1.402 1_554 S
C299 C300 1.375 . S
C299 C302 1.481 . S
C300 C299 1.375 . S
C300 C301 1.367 . S
C300 H314 0.951 . S
C301 C297 1.383 . S
C301 C300 1.367 . S
C301 H315 0.950 . S
C302 C299 1.481 . S
C302 C303 1.297 1_554 S
C302 H316 0.950 . S
C303 C302 1.297 1_556 S
C303 C304 1.479 . S
C303 H317 0.950 . S
C304 C303 1.479 . S
C304 C305 1.375 . S
C304 C310 1.404 1_556 S
C305 C304 1.375 . S
C305 C306 1.369 . S
C305 H318 0.950 . S
C306 C305 1.369 . S
C306 C307 1.392 . S
C306 H319 0.951 . S
C307 C306 1.392 . S
C307 C309 1.384 1_556 S
H308 C310 0.949 . S
C309 C307 1.384 1_554 S
C309 C310 1.385 . S
C309 H311 0.950 . S
C310 C304 1.404 1_554 S
C310 H308 0.949 . S
C310 C309 1.385 . S
H311 C309 0.950 . S
H312 C296 0.951 . S
H313 C298 0.951 . S
H314 C300 0.951 . S
H315 C301 0.950 . S
H316 C302 0.950 . S
H317 C303 0.950 . S
H318 C305 0.950 . S
H319 C306 0.951 . S
C320 C321 1.386 . S
C320 C322 1.383 . S
C320 H336 0.951 . S
C321 C320 1.386 . S
C321 C325 1.383 . S
C322 C320 1.383 . S
C322 C323 1.402 . S
C322 H337 0.951 . S
C323 C322 1.402 . S
C323 C324 1.375 . S
C323 C326 1.481 . S
C324 C323 1.375 . S
C324 C325 1.367 . S
C324 H338 0.951 . S
C325 C321 1.383 . S
C325 C324 1.367 . S
C325 H339 0.950 . S
C326 C323 1.481 . S
C326 C327 1.297 . S
C326 H340 0.950 . S
C327 C326 1.297 . S
C327 C328 1.479 . S
C327 H341 0.950 . S
C328 C327 1.479 . S
C328 C329 1.375 . S
C328 C334 1.404 . S
C329 C328 1.375 . S
C329 C330 1.369 . S
C329 H342 0.950 . S
C330 C329 1.369 . S
C330 C331 1.392 . S
C330 H343 0.951 . S
C331 C330 1.392 . S
C331 C333 1.384 . S
H332 C334 0.949 . S
C333 C331 1.384 . S
C333 C334 1.385 . S
C333 H335 0.950 . S
C334 C328 1.404 . S
C334 H332 0.949 . S
C334 C333 1.385 . S
H335 C333 0.950 . S
H336 C320 0.951 . S
H337 C322 0.951 . S
H338 C324 0.951 . S
H339 C325 0.950 . S
H340 C326 0.950 . S
H341 C327 0.950 . S
H342 C329 0.950 . S
H343 C330 0.951 . S
C344 C345 1.386 . S
C344 C346 1.383 . S
C344 H360 0.951 . S
C345 C344 1.386 . S
C345 C349 1.383 . S
C346 C344 1.383 . S
C346 C347 1.402 . S
C346 H361 0.951 . S
C347 C346 1.402 . S
C347 C348 1.375 . S
C347 C350 1.481 . S
C348 C347 1.375 . S
C348 C349 1.367 . S
C348 H362 0.951 . S
C349 C345 1.383 . S
C349 C348 1.367 . S
C349 H363 0.950 . S
C350 C347 1.481 . S
C350 C351 1.297 . S
C350 H364 0.950 . S
C351 C350 1.297 . S
C351 C352 1.479 . S
C351 H365 0.950 . S
C352 C351 1.479 . S
C352 C353 1.375 . S
C352 C358 1.404 . S
C353 C352 1.375 . S
C353 C354 1.369 . S
C353 H366 0.950 . S
C354 C353 1.369 . S
C354 C355 1.392 . S
C354 H367 0.951 . S
C355 C354 1.392 . S
C355 C357 1.384 . S
H356 C358 0.949 . S
C357 C355 1.384 . S
C357 C358 1.385 . S
C357 H359 0.950 . S
C358 C352 1.404 . S
C358 H356 0.949 . S
C358 C357 1.385 . S
H359 C357 0.950 . S
H360 C344 0.951 . S
H361 C346 0.951 . S
H362 C348 0.951 . S
H363 C349 0.950 . S
H364 C350 0.950 . S
H365 C351 0.950 . S
H366 C353 0.950 . S
H367 C354 0.951 . S
C368 C369 1.386 . S
C368 C370 1.383 . S
C368 H384 0.951 . S
C369 C368 1.386 . S
C369 C373 1.383 . S
C370 C368 1.383 . S
C370 C371 1.402 . S
C370 H385 0.951 . S
C371 C370 1.402 . S
C371 C372 1.375 . S
C371 C374 1.481 . S
C372 C371 1.375 . S
C372 C373 1.367 . S
C372 H386 0.951 . S
C373 C369 1.383 . S
C373 C372 1.367 . S
C373 H387 0.950 . S
C374 C371 1.481 . S
C374 C375 1.297 . S
C374 H388 0.950 . S
C375 C374 1.297 . S
C375 C376 1.479 . S
C375 H389 0.950 . S
C376 C375 1.479 . S
C376 C377 1.375 . S
C376 C382 1.404 . S
C377 C376 1.375 . S
C377 C378 1.369 . S
C377 H390 0.950 . S
C378 C377 1.369 . S
C378 C379 1.392 . S
C378 H391 0.951 . S
C379 C378 1.392 . S
C379 C381 1.384 . S
H380 C382 0.949 . S
C381 C379 1.384 . S
C381 C382 1.385 . S
C381 H383 0.950 . S
C382 C376 1.404 . S
C382 H380 0.949 . S
C382 C381 1.385 . S
H383 C381 0.950 . S
H384 C368 0.951 . S
H385 C370 0.951 . S
H386 C372 0.951 . S
H387 C373 0.950 . S
H388 C374 0.950 . S
H389 C375 0.950 . S
H390 C377 0.950 . S
H391 C378 0.951 . S
C392 C393 1.386 . S
C392 C394 1.383 . S
C392 H408 0.951 . S
C393 C392 1.386 . S
C393 C397 1.383 . S
C394 C392 1.383 . S
C394 C395 1.402 . S
C394 H409 0.951 . S
C395 C394 1.402 . S
C395 C396 1.375 . S
C395 C398 1.481 . S
C396 C395 1.375 . S
C396 C397 1.367 . S
C396 H410 0.951 . S
C397 C393 1.383 . S
C397 C396 1.367 . S
C397 H411 0.950 . S
C398 C395 1.481 . S
C398 C399 1.297 . S
C398 H412 0.950 . S
C399 C398 1.297 . S
C399 C400 1.479 . S
C399 H413 0.950 . S
C400 C399 1.479 . S
C400 C401 1.375 . S
C400 C406 1.404 . S
C401 C400 1.375 . S
C401 C402 1.369 . S
C401 H414 0.950 . S
C402 C401 1.369 . S
C402 C403 1.392 . S
C402 H415 0.951 . S
C403 C402 1.392 . S
C403 C405 1.384 . S
H404 C406 0.949 . S
C405 C403 1.384 . S
C405 C406 1.385 . S
C405 H407 0.950 . S
C406 C400 1.404 . S
C406 H404 0.949 . S
C406 C405 1.385 . S
H407 C405 0.950 . S
H408 C392 0.951 . S
H409 C394 0.951 . S
H410 C396 0.951 . S
H411 C397 0.950 . S
H412 C398 0.950 . S
H413 C399 0.950 . S
H414 C401 0.950 . S
H415 C402 0.951 . S
C416 C417 1.386 1_565 S
C416 C418 1.383 . S
C416 H432 0.951 . S
C417 C416 1.386 1_545 S
C417 C421 1.383 1_455 S
C418 C416 1.383 . S
C418 C419 1.402 1_565 S
C418 H433 0.951 . S
C419 C418 1.402 1_545 S
C419 C420 1.375 1_455 S
C419 C422 1.481 . S
C420 C419 1.375 1_655 S
C420 C421 1.367 . S
C420 H434 0.951 . S
C421 C417 1.383 1_655 S
C421 C420 1.367 . S
C421 H435 0.950 . S
C422 C419 1.481 . S
C422 C423 1.297 . S
C422 H436 0.950 1_455 S
C423 C422 1.297 . S
C423 C424 1.479 . S
C423 H437 0.950 1_545 S
C424 C423 1.479 . S
C424 C425 1.375 1_545 S
C424 C430 1.409 . S
C425 C424 1.375 1_565 S
C425 C426 1.369 . S
C425 H438 0.950 . S
C426 C425 1.369 . S
C426 C427 1.392 1_565 S
C426 H439 0.951 . S
C427 C426 1.392 1_545 S
C427 C429 1.384 1_455 S
H428 C430 0.946 1_655 S
C429 C427 1.384 1_655 S
C429 C430 1.383 1_655 S
C429 H431 0.950 . S
C430 C424 1.409 . S
C430 H428 0.946 1_455 S
C430 C429 1.383 1_455 S
H431 C429 0.950 . S
H432 C416 0.951 . S
H433 C418 0.951 . S
H434 C420 0.951 . S
H435 C421 0.950 . S
H436 C422 0.950 1_655 S
H437 C423 0.950 1_565 S
H438 C425 0.950 . S
H439 C426 0.951 . S
C440 C441 1.386 1_565 S
C440 C442 1.383 . S
C440 H456 0.951 . S
C441 C440 1.386 1_545 S
C441 C445 1.383 1_455 S
C442 C440 1.383 . S
C442 C443 1.401 1_465 S
C442 H457 0.951 . S
C443 C442 1.401 1_645 S
C443 C444 1.375 . S
C443 C446 1.481 . S
C444 C443 1.375 . S
C444 C445 1.367 . S
C444 H458 0.951 . S
C445 C441 1.383 1_655 S
C445 C444 1.367 . S
C445 H459 0.950 . S
C446 C443 1.481 . S
C446 C447 1.297 1_645 S
C446 H460 0.950 . S
C447 C446 1.297 1_465 S
C447 C448 1.479 . S
C447 H461 0.950 . S
C448 C447 1.479 . S
C448 C449 1.375 . S
C448 C454 1.404 1_465 S
C449 C448 1.375 . S
C449 C450 1.369 . S
C449 H462 0.950 . S
C450 C449 1.369 . S
C450 C451 1.392 1_565 S
C450 H463 0.951 . S
C451 C450 1.392 1_545 S
C451 C453 1.384 1_455 S
H452 C454 0.949 . S
C453 C451 1.384 1_655 S
C453 C454 1.385 . S
C453 H455 0.950 . S
C454 C448 1.404 1_645 S
C454 H452 0.949 . S
C454 C453 1.385 . S
H455 C453 0.950 . S
H456 C440 0.951 . S
H457 C442 0.951 . S
H458 C444 0.951 . S
H459 C445 0.950 . S
H460 C446 0.950 . S
H461 C447 0.950 . S
H462 C449 0.950 . S
H463 C450 0.951 . S
C464 C465 1.386 . S
C464 C466 1.383 . S
C464 H480 0.951 . S
C465 C464 1.386 . S
C465 C469 1.383 . S
C466 C464 1.383 . S
C466 C467 1.402 . S
C466 H481 0.951 . S
C467 C466 1.402 . S
C467 C468 1.375 . S
C467 C470 1.481 . S
C468 C467 1.375 . S
C468 C469 1.367 . S
C468 H482 0.951 . S
C469 C465 1.383 . S
C469 C468 1.367 . S
C469 H483 0.950 . S
C470 C467 1.481 . S
C470 C471 1.297 . S
C470 H484 0.950 . S
C471 C470 1.297 . S
C471 C472 1.479 . S
C471 H485 0.950 . S
C472 C471 1.479 . S
C472 C473 1.375 . S
C472 C478 1.404 . S
C473 C472 1.375 . S
C473 C474 1.369 . S
C473 H486 0.950 . S
C474 C473 1.369 . S
C474 C475 1.392 . S
C474 H487 0.951 . S
C475 C474 1.392 . S
C475 C477 1.384 . S
H476 C478 0.949 . S
C477 C475 1.384 . S
C477 C478 1.385 . S
C477 H479 0.950 . S
C478 C472 1.404 . S
C478 H476 0.949 . S
C478 C477 1.385 . S
H479 C477 0.950 . S
H480 C464 0.951 . S
H481 C466 0.951 . S
H482 C468 0.951 . S
H483 C469 0.950 . S
H484 C470 0.950 . S
H485 C471 0.950 . S
H486 C473 0.950 . S
H487 C474 0.951 . S
C488 C489 1.386 . S
C488 C490 1.383 . S
C488 H504 0.951 . S
C489 C488 1.386 . S
C489 C493 1.383 . S
C490 C488 1.383 . S
C490 C491 1.402 . S
C490 H505 0.951 . S
C491 C490 1.402 . S
C491 C492 1.375 . S
C491 C494 1.481 . S
C492 C491 1.375 . S
C492 C493 1.367 . S
C492 H506 0.951 . S
C493 C489 1.383 . S
C493 C492 1.367 . S
C493 H507 0.950 . S
C494 C491 1.481 . S
C494 C495 1.297 . S
C494 H508 0.950 . S
C495 C494 1.297 . S
C495 C496 1.479 . S
C495 H509 0.950 . S
C496 C495 1.479 . S
C496 C497 1.375 . S
C496 C502 1.404 . S
C497 C496 1.375 . S
C497 C498 1.369 . S
C497 H510 0.950 . S
C498 C497 1.369 . S
C498 C499 1.392 . S
C498 H511 0.951 . S
C499 C498 1.392 . S
C499 C501 1.384 . S
H500 C502 0.949 . S
C501 C499 1.384 . S
C501 C502 1.385 . S
C501 H503 0.950 . S
C502 C496 1.404 . S
C502 H500 0.949 . S
C502 C501 1.385 . S
H503 C501 0.950 . S
H504 C488 0.951 . S
H505 C490 0.951 . S
H506 C492 0.951 . S
H507 C493 0.950 . S
H508 C494 0.950 . S
H509 C495 0.950 . S
H510 C497 0.950 . S
H511 C498 0.951 . S
C235 C201 1.378 . S
C225 C29 1.444 . S
C249 C8 1.431 . S
C259 C162 1.376 . S
C273 C0 1.428 . S
C283 C206 1.353 . S
C297 C17 1.440 . S
C307 C167 1.395 . S
C321 C63 1.444 . S
C331 C123 1.383 . S
C345 C42 1.432 . S
C355 C84 1.392 . S
C379 C128 1.427 . S
C369 C34 1.429 . S
C403 C89 1.442 . S
C393 C51 1.451 . S
C417 C4 1.474 . S
C427 C69 1.470 1_455 S
C441 C13 1.475 . S
C451 C108 1.470 . S
C475 C147 1.470 . S
C465 C38 1.474 . S
C489 C47 1.471 . S
C499 C186 1.474 . S
