# Generated by pormake.
# Topology zzz, (3,6)-cn, num edge types: 1
# Building blocks:
#     Node 0, Type 0, BuildingBlock: BELTOD_clean_linker_0, # of connection points: 3
#     Node 1, Type 0, BuildingBlock: BELTOD_clean_linker_0, # of connection points: 3
#     Node 2, Type 0, BuildingBlock: BELTOD_clean_linker_0, # of connection points: 3
#     Node 3, Type 0, BuildingBlock: BELTOD_clean_linker_0, # of connection points: 3
#     Node 4, Type 0, BuildingBlock: BELTOD_clean_linker_0, # of connection points: 3
#     Node 5, Type 0, BuildingBlock: BELTOD_clean_linker_0, # of connection points: 3
#     Node 6, Type 0, BuildingBlock: BELTOD_clean_linker_0, # of connection points: 3
#     Node 7, Type 0, BuildingBlock: BELTOD_clean_linker_0, # of connection points: 3
#     Node 8, Type 1, BuildingBlock: HISSIN_clean_sbu_0, # of connection points: 6
#     Node 9, Type 1, BuildingBlock: HISSIN_clean_sbu_0, # of connection points: 6
#     Node 10, Type 1, BuildingBlock: HISSIN_clean_sbu_0, # of connection points: 6
#     Node 11, Type 1, BuildingBlock: HISSIN_clean_sbu_0, # of connection points: 6
#     Edge 12, Type (0, 1), BuildingBlock: AJUNOK_clean_linker_0, # of connection points: 2
#     Edge 13, Type (0, 1), BuildingBlock: AJUNOK_clean_linker_0, # of connection points: 2
#     Edge 14, Type (0, 1), BuildingBlock: AJUNOK_clean_linker_0, # of connection points: 2
#     Edge 15, Type (0, 1), BuildingBlock: AJUNOK_clean_linker_0, # of connection points: 2
#     Edge 16, Type (0, 1), BuildingBlock: AJUNOK_clean_linker_0, # of connection points: 2
#     Edge 17, Type (0, 1), BuildingBlock: AJUNOK_clean_linker_0, # of connection points: 2
#     Edge 18, Type (0, 1), BuildingBlock: AJUNOK_clean_linker_0, # of connection points: 2
#     Edge 19, Type (0, 1), BuildingBlock: AJUNOK_clean_linker_0, # of connection points: 2
#     Edge 20, Type (0, 1), BuildingBlock: AJUNOK_clean_linker_0, # of connection points: 2
#     Edge 21, Type (0, 1), BuildingBlock: AJUNOK_clean_linker_0, # of connection points: 2
#     Edge 22, Type (0, 1), BuildingBlock: AJUNOK_clean_linker_0, # of connection points: 2
#     Edge 23, Type (0, 1), BuildingBlock: AJUNOK_clean_linker_0, # of connection points: 2
#     Edge 24, Type (0, 1), BuildingBlock: AJUNOK_clean_linker_0, # of connection points: 2
#     Edge 25, Type (0, 1), BuildingBlock: AJUNOK_clean_linker_0, # of connection points: 2
#     Edge 26, Type (0, 1), BuildingBlock: AJUNOK_clean_linker_0, # of connection points: 2
#     Edge 27, Type (0, 1), BuildingBlock: AJUNOK_clean_linker_0, # of connection points: 2
#     Edge 28, Type (0, 1), BuildingBlock: AJUNOK_clean_linker_0, # of connection points: 2
#     Edge 29, Type (0, 1), BuildingBlock: AJUNOK_clean_linker_0, # of connection points: 2
#     Edge 30, Type (0, 1), BuildingBlock: AJUNOK_clean_linker_0, # of connection points: 2
#     Edge 31, Type (0, 1), BuildingBlock: AJUNOK_clean_linker_0, # of connection points: 2
#     Edge 32, Type (0, 1), BuildingBlock: AJUNOK_clean_linker_0, # of connection points: 2
#     Edge 33, Type (0, 1), BuildingBlock: AJUNOK_clean_linker_0, # of connection points: 2
#     Edge 34, Type (0, 1), BuildingBlock: AJUNOK_clean_linker_0, # of connection points: 2
#     Edge 35, Type (0, 1), BuildingBlock: AJUNOK_clean_linker_0, # of connection points: 2
# Relax obj value: 0.451
# Max RMSD: 0.242
# Mean RMSD: 0.185
data_MOF--net-zzz--node1-HISSIN_clean_sbu_0--node2-BELTOD_clean_linker_0--edge1-AJUNOK_clean_linker_0
_symmetry_space_group_name_H-M    P1
_symmetry_Int_Tables_number       1
_symmetry_cell_setting            triclinic
loop_
_symmetry_equiv_pos_as_xyz
'x, y, z'
_cell_length_a     40.236826
_cell_length_b     40.182709
_cell_length_c     15.498122
_cell_angle_alpha  89.83917
_cell_angle_beta   92.234027
_cell_angle_gamma 91.180343
loop_
_atom_site_label
_atom_site_type_symbol
_atom_site_fract_x
_atom_site_fract_y
_atom_site_fract_z
_atom_type_partial_charge
P0 P 0.72429 0.49924 0.3412 0.0
H1 H 0.73972 0.51132 0.52531 0.0
H2 H 0.79238 0.52414 0.60293 0.0
H3 H 0.83772 0.54668 0.36129 0.0
H4 H 0.78476 0.53415 0.28383 0.0
H5 H 0.65268 0.49056 0.31439 0.0
H6 H 0.61461 0.50725 0.19766 0.0
H7 H 0.69057 0.57309 0.09956 0.0
H8 H 0.7294 0.5548 0.21541 0.0
H9 H 0.7809 0.4565 0.37342 0.0
H10 H 0.71049 0.47521 0.16221 0.0
O11 O 0.70375 0.47704 0.41354 0.0
H12 H 0.81504 0.42557 0.27676 0.0
H13 H 0.74398 0.4432 0.06619 0.0
C14 C 0.75798 0.52191 0.39834 0.0
C15 C 0.76054 0.52027 0.48892 0.0
C16 C 0.79089 0.52723 0.53344 0.0
C17 C 0.81948 0.53617 0.48855 0.0
C18 C 0.8162 0.54031 0.39828 0.0
C19 C 0.78575 0.53335 0.35373 0.0
C20 C 0.69399 0.52165 0.27477 0.0
C21 C 0.66103 0.50939 0.26959 0.0
C22 C 0.63911 0.51893 0.20211 0.0
C23 C 0.64953 0.54101 0.13751 0.0
C24 C 0.68187 0.55525 0.14649 0.0
C25 C 0.704 0.54536 0.21388 0.0
C26 C 0.744 0.46953 0.27434 0.0
C27 C 0.77234 0.45328 0.30678 0.0
C28 C 0.79159 0.43507 0.25169 0.0
C29 C 0.78227 0.43216 0.16366 0.0
C30 C 0.75192 0.44544 0.13357 0.0
C31 C 0.73288 0.464 0.18854 0.0
P32 P 0.04957 0.73167 0.36414 0.0
H33 H 0.05494 0.757 0.54007 0.0
H34 H 0.04383 0.81084 0.60037 0.0
H35 H 0.98639 0.83598 0.36879 0.0
H36 H 1.00087 0.78301 0.30502 0.0
H37 H 0.0622 0.66177 0.33227 0.0
H38 H 0.04725 0.62431 0.21339 0.0
H39 H 0.9801 0.69717 0.10573 0.0
H40 H 0.995 0.73483 0.22612 0.0
H41 H 0.10834 0.76966 0.42454 0.0
H42 H 0.05812 0.7469 0.17995 0.0
O43 O 0.06937 0.70963 0.44106 0.0
H44 H 0.14072 0.81373 0.35481 0.0
H45 H 0.08954 0.79067 0.11149 0.0
C46 C 0.02821 0.76499 0.41798 0.0
C47 C 0.03915 0.77354 0.50251 0.0
C48 C 0.03282 0.80485 0.53734 0.0
C49 C 1.01485 0.82878 0.48939 0.0
C50 C 1.00159 0.81916 0.40708 0.0
C51 C 1.00886 0.78806 0.37113 0.0
C52 C 0.02962 0.70139 0.28973 0.0
C53 C 0.04338 0.66955 0.28505 0.0
C54 C 0.03493 0.64799 0.21634 0.0
C55 C 1.01286 0.65781 0.14899 0.0
C56 C 0.9976 0.68896 0.15581 0.0
C57 C 1.00579 0.71045 0.22559 0.0
C58 C 0.08066 0.75492 0.30779 0.0
C59 C 0.10503 0.77331 0.3555 0.0
C60 C 0.12332 0.79865 0.3159 0.0
C61 C 0.11727 0.80593 0.22809 0.0
C62 C 0.09493 0.78553 0.17921 0.0
C63 C 0.07668 0.76039 0.21875 0.0
P64 P 0.80884 0.07013 0.31854 0.0
H65 H 0.77905 0.09603 0.46936 0.0
H66 H 0.72901 0.08375 0.54481 0.0
H67 H 0.70959 0.99776 0.38287 0.0
H68 H 0.75981 1.0117 0.30253 0.0
H69 H 0.87584 0.08625 0.27516 0.0
H70 H 0.91212 0.06799 0.16498 0.0
H71 H 0.84199 0.98922 0.09442 0.0
H72 H 0.80504 1.00798 0.20719 0.0
H73 H 0.79029 0.13982 0.3385 0.0
H74 H 0.78409 0.0649 0.1392 0.0
O75 O 0.83308 0.0917 0.38927 0.0
H76 H 0.75976 0.17821 0.24219 0.0
H77 H 0.75477 0.10303 0.0434 0.0
C78 C 0.77452 0.05408 0.38188 0.0
C79 C 0.76483 0.07383 0.45096 0.0
C80 C 0.73589 0.06662 0.4951 0.0
C81 C 0.71539 0.03896 0.47296 0.0
C82 C 0.72485 0.01906 0.40301 0.0
C83 C 0.75392 0.02673 0.35742 0.0
C84 C 0.83801 0.04786 0.25314 0.0
C85 C 0.86869 0.06398 0.23954 0.0
C86 C 0.88952 0.05369 0.17521 0.0
C87 C 0.88029 0.02707 0.12046 0.0
C88 C 0.84992 1.01001 0.13505 0.0
C89 C 0.82893 0.02035 0.20071 0.0
C90 C 0.79008 0.0997 0.24549 0.0
C91 C 0.78327 0.13194 0.27346 0.0
C92 C 0.76608 0.1539 0.21846 0.0
C93 C 0.75584 0.14388 0.13467 0.0
C94 C 0.76349 0.11186 0.10647 0.0
C95 C 0.7801 0.08987 0.16168 0.0
P96 P 0.49241 0.81816 0.3349 0.0
H97 H 0.51563 0.80353 0.51275 0.0
H98 H 0.52998 0.75098 0.58267 0.0
H99 H 0.53322 0.7042 0.33277 0.0
H100 H 0.52006 0.7572 0.26317 0.0
H101 H 0.48625 0.88995 0.32126 0.0
H102 H 0.50159 0.92994 0.21171 0.0
H103 H 0.55732 0.85469 0.08545 0.0
H104 H 0.54036 0.81391 0.19478 0.0
H105 H 0.45181 0.75864 0.36372 0.0
H106 H 0.45713 0.83573 0.16997 0.0
O107 O 0.47496 0.83798 0.41507 0.0
H108 H 0.41845 0.72414 0.26481 0.0
H109 H 0.42135 0.8022 0.07234 0.0
C110 C 0.51667 0.78453 0.38236 0.0
C111 C 0.52077 0.78239 0.47259 0.0
C112 C 0.52855 0.75206 0.51279 0.0
C113 C 0.53236 0.72304 0.46377 0.0
C114 C 0.53097 0.72595 0.37299 0.0
C115 C 0.52355 0.75645 0.33279 0.0
C116 C 0.51288 0.84896 0.26811 0.0
C117 C 0.50276 0.88213 0.27197 0.0
C118 C 0.51169 0.90523 0.20884 0.0
C119 C 0.53129 0.89596 0.13996 0.0
C120 C 0.5423 0.86284 0.13758 0.0
C121 C 0.53303 0.83954 0.20077 0.0
C122 C 0.4588 0.79874 0.27222 0.0
C123 C 0.44496 0.76859 0.30064 0.0
C124 C 0.42509 0.74909 0.24431 0.0
C125 C 0.41758 0.76015 0.1597 0.0
C126 C 0.42739 0.79266 0.13636 0.0
C127 C 0.44807 0.81178 0.19211 0.0
P128 P 0.30215 0.45575 0.06464 0.0
H129 H 0.28086 0.43978 0.8858 0.0
H130 H 0.23179 0.45905 0.80394 0.0
H131 H 0.2256 0.54224 0.9766 0.0
H132 H 0.27511 0.52334 0.05804 0.0
H133 H 0.35484 0.41614 0.14226 0.0
H134 H 0.40095 0.42965 0.24274 0.0
H135 H 0.38417 0.53436 0.20189 0.0
H136 H 0.33732 0.52049 0.1008 0.0
H137 H 0.23327 0.43308 0.06856 0.0
H138 H 0.30358 0.48532 0.23993 0.0
O139 O 0.30351 0.41621 0.03235 0.0
H140 H 0.18742 0.45589 0.14752 0.0
H141 H 0.25806 0.50833 0.31675 0.0
C142 C 0.28201 0.47996 0.97876 0.0
C143 C 0.27037 0.46328 0.90346 0.0
C144 C 0.24202 0.47416 0.85673 0.0
C145 C 0.22484 0.50203 0.88415 0.0
C146 C 0.23859 0.52087 0.95352 0.0
C147 C 0.26723 0.51021 0.99961 0.0
C148 C 0.34275 0.46724 0.11234 0.0
C149 C 0.36179 0.44208 0.15174 0.0
C150 C 0.38834 0.44985 0.2097 0.0
C151 C 0.39653 0.48311 0.23047 0.0
C152 C 0.37856 0.50845 0.18738 0.0
C153 C 0.35199 0.5006 0.12865 0.0
C154 C 0.27192 0.45799 0.14685 0.0
C155 C 0.23897 0.44822 0.12516 0.0
C156 C 0.21279 0.46165 0.1692 0.0
C157 C 0.21943 0.48467 0.23581 0.0
C158 C 0.25241 0.49093 0.26468 0.0
C159 C 0.27853 0.4777 0.22036 0.0
P160 P 0.07254 0.29247 0.12416 0.0
H161 H 0.08768 0.28944 0.94126 0.0
H162 H 0.07175 0.24452 0.84221 0.0
H163 H 0.98822 0.2192 0.99702 0.0
H164 H 1.00446 0.26426 0.09726 0.0
H165 H 0.09533 0.30739 0.29903 0.0
H166 H 0.08468 0.35167 0.4005 0.0
H167 H 1.01195 0.39234 0.2193 0.0
H168 H 0.02346 0.34769 0.11624 0.0
H169 H 0.10728 0.23281 0.07718 0.0
H170 H 0.04082 0.26244 0.27365 0.0
O171 O 0.11045 0.30428 0.09465 0.0
H172 H 0.09236 0.17423 0.10336 0.0
H173 H 0.02743 0.2042 0.30242 0.0
C174 C 0.04778 0.28013 0.02843 0.0
C175 C 0.06485 0.2756 0.95205 0.0
C176 C 0.05604 0.24936 0.89578 0.0
C177 C 0.02964 0.22731 0.91394 0.0
C178 C 1.00917 0.23526 0.98225 0.0
C179 C 0.01812 0.26158 0.03892 0.0
C180 C 0.05962 0.32356 0.20063 0.0
C181 C 0.07665 0.32547 0.28132 0.0
C182 C 0.07057 0.35098 0.33955 0.0
C183 C 0.04748 0.37584 0.31867 0.0
C184 C 0.03025 0.37396 0.23746 0.0
C185 C 0.03644 0.34816 0.17876 0.0
C186 C 0.07563 0.25214 0.17446 0.0
C187 C 0.09114 0.22673 0.12954 0.0
C188 C 0.0824 0.19333 0.14358 0.0
C189 C 0.05883 0.18508 0.20459 0.0
C190 C 0.04596 0.2102 0.25558 0.0
C191 C 0.05398 0.24353 0.23994 0.0
P192 P 0.26218 0.03719 0.18883 0.0
H193 H 0.27163 0.08317 0.04211 0.0
H194 H 0.31405 0.08534 0.932 0.0
H195 H 0.34464 0.98674 1.00549 0.0
H196 H 0.30364 0.98474 0.11366 0.0
H197 H 0.22839 0.09637 0.25044 0.0
H198 H 0.17704 0.10054 0.32749 0.0
H199 H 0.14867 1.00083 0.24733 0.0
H200 H 0.19927 0.99751 0.16672 0.0
H201 H 0.28899 0.02768 0.36433 0.0
H202 H 0.24765 0.96559 0.15852 0.0
O203 O 0.28397 0.0679 0.2384 0.0
H204 H 0.30477 0.97854 0.44574 0.0
H205 H 0.26374 0.91573 0.24068 0.0
C206 C 0.28294 0.03342 0.08604 0.0
C207 C 0.28647 0.06143 0.03214 0.0
C208 C 0.31128 0.0629 0.97006 0.0
C209 C 0.33324 0.03631 0.96026 0.0
C210 C 0.32817 1.00759 1.01017 0.0
C211 C 0.30386 1.00633 0.07247 0.0
C212 C 0.21844 0.04633 0.20311 0.0
C213 C 0.21059 0.07583 0.24587 0.0
C214 C 0.18122 0.07805 0.29148 0.0
C215 C 0.15874 0.05083 0.29576 0.0
C216 C 0.16501 0.02254 0.24561 0.0
C217 C 0.19427 0.02054 0.19908 0.0
C218 C 0.26854 1.00035 0.25367 0.0
C219 C 0.28287 1.00348 0.33695 0.0
C220 C 0.29137 0.97524 0.38425 0.0
C221 C 0.28566 0.9433 0.34913 0.0
C222 C 0.26849 0.94007 0.26895 0.0
C223 C 0.25949 0.96852 0.22205 0.0
P224 P 0.49478 0.26382 0.171 0.0
H225 H 0.45371 0.27078 1.01057 0.0
H226 H 0.45446 0.31356 0.89658 0.0
H227 H 0.54956 0.34995 0.99849 0.0
H228 H 0.54848 0.30879 0.11102 0.0
H229 H 0.43729 0.22736 0.23644 0.0
H230 H 0.43696 0.17616 0.32057 0.0
H231 H 0.53224 0.15127 0.22423 0.0
H232 H 0.53259 0.20273 0.13862 0.0
H233 H 0.5002 0.28655 0.34952 0.0
H234 H 0.56662 0.25211 0.15848 0.0
O235 O 0.46314 0.28416 0.21144 0.0
H236 H 0.54746 0.3005 0.44554 0.0
H237 H 0.61453 0.26649 0.25505 0.0
C238 C 0.50151 0.28518 0.06892 0.0
C239 C 0.47538 0.28704 1.0062 0.0
C240 C 0.47556 0.31193 0.94184 0.0
C241 C 0.50201 0.33543 0.93872 0.0
C242 C 0.52897 0.33213 0.99807 0.0
C243 C 0.52851 0.30781 0.06269 0.0
C244 C 0.48534 0.21962 0.18203 0.0
C245 C 0.45744 0.21029 0.2291 0.0
C246 C 0.45724 0.18092 0.2779 0.0
C247 C 0.48474 0.16001 0.2798 0.0
C248 C 0.51066 0.16695 0.22374 0.0
C249 C 0.5108 0.19643 0.17451 0.0
C250 C 0.52997 0.2698 0.24531 0.0
C251 C 0.52496 0.2816 0.3285 0.0
C252 C 0.55207 0.28892 0.38421 0.0
C253 C 0.58473 0.28442 0.35781 0.0
C254 C 0.58962 0.27001 0.27701 0.0
C255 C 0.5623 0.26214 0.22172 0.0
Eu256 Eu 0.98191 0.03902 0.63212 0.0
Eu257 Eu 0.04516 0.01963 0.75978 0.0
C258 C 0.01977 0.09438 0.75381 0.0
C259 C 0.93547 0.06051 0.42987 0.0
C260 C 0.92908 0.09253 0.3979 0.0
C261 C 0.96918 0.05014 0.3067 0.0
C262 C 0.94538 0.10425 0.32572 0.0
C263 C 0.95321 0.03842 0.37949 0.0
C264 C 0.96789 0.08389 0.28487 0.0
C265 C 0.93382 0.05503 0.52353 0.0
O266 O 1.00127 0.02199 0.8475 0.0
O267 O 0.9576 0.01659 0.74887 0.0
C268 C 0.96925 0.01737 0.82938 0.0
O269 O 0.99976 0.98936 0.58589 0.0
O270 O 0.07089 0.02217 0.88674 0.0
O271 O 0.09366 0.99753 0.78087 0.0
O272 O 0.02258 0.97011 0.71312 0.0
C273 C 1.01081 0.96465 0.63382 0.0
O274 O 0.02605 0.05067 0.54819 0.0
O275 O 0.06908 0.02947 0.63239 0.0
O276 O 0.04609 0.07572 0.75183 0.0
O277 O 0.93792 0.02469 0.55194 0.0
O278 O 0.95146 0.0767 0.56925 0.0
O279 O 0.99078 0.08275 0.72408 0.0
C280 C 0.10546 0.97697 0.92031 0.0
C281 C 0.09293 0.94468 0.90457 0.0
C282 C 0.13736 0.95673 0.04519 0.0
C283 C 0.10269 0.91857 0.95842 0.0
C284 C 0.12776 0.98292 0.99071 0.0
C285 C 0.12487 0.92436 0.0293 0.0
C286 C 0.09567 1.00441 0.86302 0.0
C287 C 0.05748 0.04245 0.55968 0.0
H288 H 0.91525 0.1099 0.43522 0.0
H289 H 0.98542 0.03387 0.27359 0.0
H290 H 0.9439 0.13043 0.30938 0.0
H291 H 0.95825 0.01338 0.40181 0.0
H292 H 0.07551 0.93967 0.85085 0.0
H293 H 0.15439 0.96168 0.09963 0.0
H294 H 0.09225 0.8939 0.94586 0.0
H295 H 0.13763 1.00778 1.00363 0.0
Eu296 Eu 0.53475 0.06279 0.76887 0.0
Eu297 Eu 0.51181 0.99714 0.65923 0.0
C298 C 0.53828 0.99051 0.85232 0.0
C299 C 0.58418 0.13639 0.86604 0.0
C300 C 0.61431 0.12469 0.83704 0.0
C301 C 0.61386 0.18155 0.94065 0.0
C302 C 0.64421 0.14005 0.86435 0.0
C303 C 0.58389 0.16578 0.91431 0.0
C304 C 0.6444 0.16767 0.92018 0.0
C305 C 0.55407 0.11543 0.85749 0.0
O306 O 0.46739 1.00821 0.74076 0.0
O307 O 0.47872 0.06261 0.77626 0.0
C308 C 0.45832 0.03664 0.77389 0.0
O309 O 0.53007 0.07919 0.63001 0.0
O310 O 0.49998 0.94412 0.66725 0.0
O311 O 0.49875 0.96857 0.5428 0.0
O312 O 0.49226 0.04025 0.57794 0.0
C313 C 0.5075 0.06942 0.57164 0.0
O314 O 0.58311 0.0433 0.71796 0.0
O315 O 0.56213 1.01069 0.60632 0.0
O316 O 0.54364 0.98046 0.77389 0.0
O317 O 0.53708 0.11694 0.78436 0.0
O318 O 0.55742 0.08493 0.88496 0.0
O319 O 0.52763 0.02068 0.86409 0.0
C320 C 0.458 0.92755 0.56832 0.0
C321 C 0.43033 0.9475 0.57818 0.0
C322 C 0.42161 0.88192 0.51952 0.0
C323 C 0.3986 0.93509 0.55666 0.0
C324 C 0.45352 0.89437 0.54231 0.0
C325 C 0.39401 0.90255 0.52455 0.0
C326 C 0.49134 0.94162 0.58578 0.0
C327 C 0.5872 0.02678 0.64565 0.0
H328 H 0.61488 0.10203 0.79941 0.0
H329 H 0.61321 0.2029 0.98303 0.0
H330 H 0.66706 0.12808 0.84862 0.0
H331 H 0.56071 0.1752 0.9367 0.0
H332 H 0.43337 0.97305 0.59979 0.0
H333 H 0.41855 0.85676 0.49517 0.0
H334 H 0.37784 0.95174 0.55999 0.0
H335 H 0.47482 0.87858 0.53786 0.0
Eu336 Eu 0.48745 0.53702 0.73452 0.0
Eu337 Eu 0.55425 0.51414 0.64219 0.0
C338 C 0.55975 0.54468 0.82999 0.0
C339 C 0.42637 0.58645 0.85874 0.0
C340 C 0.45224 0.60663 0.89373 0.0
C341 C 0.38608 0.62568 0.90767 0.0
C342 C 0.44513 0.6361 0.93538 0.0
C343 C 0.39325 0.59595 0.86609 0.0
C344 C 0.41205 0.6461 0.94207 0.0
C345 C 0.43417 0.55687 0.80936 0.0
O346 O 0.53936 0.47175 0.73028 0.0
O347 O 0.48373 0.48076 0.73435 0.0
C348 C 0.50921 0.46123 0.7474 0.0
O349 O 0.47193 0.52941 0.5945 0.0
O350 O 0.60563 0.49927 0.66388 0.0
O351 O 0.58454 0.50142 0.53362 0.0
O352 O 0.5125 0.49474 0.55173 0.0
C353 C 0.48351 0.50882 0.53792 0.0
O354 O 0.5128 0.58532 0.69353 0.0
O355 O 0.54454 0.56516 0.58628 0.0
O356 O 0.57107 0.54765 0.75225 0.0
O357 O 0.44007 0.56242 0.72859 0.0
O358 O 0.45576 0.53695 0.84565 0.0
O359 O 0.52848 0.53587 0.83973 0.0
C360 C 0.61873 0.45674 0.57084 0.0
C361 C 0.59509 0.43124 0.5823 0.0
C362 C 0.65873 0.41593 0.52949 0.0
C363 C 0.60297 0.39841 0.56627 0.0
C364 C 0.65094 0.44894 0.54782 0.0
C365 C 0.63456 0.39047 0.53755 0.0
C366 C 0.60916 0.49121 0.58359 0.0
C367 C 0.53035 0.59013 0.6242 0.0
H368 H 0.47797 0.59979 0.88783 0.0
H369 H 0.36042 0.633 0.91135 0.0
H370 H 0.4656 0.65119 0.96235 0.0
H371 H 0.37306 0.5807 0.83838 0.0
H372 H 0.57016 0.43687 0.60103 0.0
H373 H 0.68311 0.4104 0.50662 0.0
H374 H 0.58356 0.37947 0.57095 0.0
H375 H 0.66961 0.46847 0.54239 0.0
Eu376 Eu 0.02968 0.55633 0.6472 0.0
Eu377 Eu 1.00899 0.49472 0.77153 0.0
C378 C 0.0859 0.51836 0.76322 0.0
C379 C 0.073 0.59968 0.47129 0.0
C380 C 0.064 0.58371 0.39284 0.0
C381 C 0.13116 0.59292 0.4411 0.0
C382 C 0.08838 0.57034 0.34242 0.0
C383 C 0.10683 0.60642 0.49131 0.0
C384 C 0.122 0.57299 0.36951 0.0
C385 C 0.04857 0.60227 0.53957 0.0
O386 O 0.99511 0.54033 0.84779 0.0
O387 O 0.02643 0.5799 0.77895 0.0
C388 C 1.00889 0.57034 0.84483 0.0
O389 O 0.97385 0.55939 0.65415 0.0
O390 O 1.00144 0.47182 0.8976 0.0
O391 O 0.99454 0.44239 0.78151 0.0
O392 O 0.96291 0.50496 0.6874 0.0
C393 C 0.95314 0.53373 0.65586 0.0
O394 O 0.02419 0.5111 0.55953 0.0
O395 O 0.03571 0.47171 0.66138 0.0
O396 O 0.06207 0.50751 0.81217 0.0
O397 O 0.02124 0.58454 0.52814 0.0
O398 O 0.06066 0.59986 0.61867 0.0
O399 O 0.07877 0.53244 0.68805 0.0
C400 C 0.95927 0.43043 0.896 0.0
C401 C 0.93043 0.42938 0.84189 0.0
C402 C 0.92649 0.41306 1.01675 0.0
C403 C 0.89975 0.42085 0.87545 0.0
C404 C 0.95726 0.42125 0.98293 0.0
C405 C 0.89733 0.41364 0.96375 0.0
C406 C 0.99091 0.44356 0.86457 0.0
C407 C 0.03209 0.48044 0.57993 0.0
H408 H 0.03812 0.57879 0.37437 0.0
H409 H 0.15706 0.59594 0.46194 0.0
H410 H 0.08072 0.55543 0.2868 0.0
H411 H 0.11456 0.61936 0.5502 0.0
H412 H 0.93131 0.43645 0.77449 0.0
H413 H 0.92534 0.40842 0.08545 0.0
H414 H 0.87765 0.4215 0.83327 0.0
H415 H 0.97925 0.422 0.02563 0.0
C416 C 0.1377 0.06244 0.44425 0.0
C417 C 0.1312 0.05085 0.35918 0.0
C418 C 0.11348 0.0604 0.50746 0.0
C419 C 0.08132 0.04726 0.48855 0.0
H420 H 0.16219 0.07214 0.46334 0.0
H421 H 0.12018 0.06884 0.57228 0.0
S422 S 0.05137 0.01301 0.27679 0.0
N423 N 0.08981 0.02575 0.26002 0.0
N424 N 0.04447 0.02189 0.37856 0.0
C425 C 0.07418 0.03608 0.40363 0.0
C426 C 0.09902 0.03782 0.3393 0.0
C427 C 0.48623 0.10169 0.3432 0.0
C428 C 0.48964 0.13642 0.35332 0.0
C429 C 0.49098 0.07995 0.41437 0.0
C430 C 0.49991 0.09224 0.49751 0.0
H431 H 0.47984 0.09134 0.28013 0.0
H432 H 0.48846 0.05337 0.4038 0.0
S433 S 0.51102 0.18143 0.55708 0.0
N434 N 0.50162 0.18205 0.45247 0.0
N435 N 0.51093 0.14175 0.585 0.0
C436 C 0.5031 0.12702 0.50778 0.0
C437 C 0.49789 0.14893 0.43605 0.0
C438 C 0.4117 0.51284 0.3694 0.0
C439 C 0.42073 0.49091 0.30412 0.0
C440 C 0.43217 0.51831 0.44372 0.0
C441 C 0.46285 0.50222 0.45672 0.0
H442 H 0.38803 0.52521 0.36439 0.0
H443 H 0.42347 0.5352 0.49186 0.0
S444 S 0.4993 0.444 0.30212 0.0
N445 N 0.46337 0.45419 0.25512 0.0
N446 N 0.50182 0.46433 0.39472 0.0
C447 C 0.47262 0.48075 0.39089 0.0
C448 C 0.45162 0.47512 0.31495 0.0
C449 C 0.03954 0.39565 0.47095 0.0
C450 C 0.04204 0.40326 0.38249 0.0
C451 C 0.03656 0.42065 0.53343 0.0
C452 C 0.03578 0.45467 0.51093 0.0
H453 H 0.03985 0.36998 0.4924 0.0
H454 H 0.03463 0.41305 0.60018 0.0
S455 S 0.04241 0.48838 0.28849 0.0
N456 N 0.04431 0.44768 0.27603 0.0
N457 N 0.03817 0.49456 0.39277 0.0
C458 C 0.03806 0.46273 0.42257 0.0
C459 C 0.04123 0.43715 0.35875 0.0
C460 C 0.93674 0.01872 0.05864 0.0
C461 C 0.90185 0.01944 0.04595 0.0
C462 C 0.95803 0.01673 0.98888 0.0
C463 C 0.9456 0.01546 0.90247 0.0
H464 H 0.94784 0.02057 0.12332 0.0
H465 H 0.9846 0.01714 1.00314 0.0
S466 S 0.85597 0.01566 0.83356 0.0
N467 N 0.85582 0.01795 0.93989 0.0
N468 N 0.89547 0.01388 0.80911 0.0
C469 C 0.91063 0.01497 0.88897 0.0
C470 C 0.88893 0.01699 0.96035 0.0
C471 C 0.53344 0.90948 0.98084 0.0
C472 C 0.53744 0.91999 0.06746 0.0
C473 C 0.53514 0.93221 0.91174 0.0
C474 C 0.54053 0.96655 0.92607 0.0
H475 H 0.52758 0.88364 0.96613 0.0
H476 H 0.53077 0.9229 0.84666 0.0
S477 S 0.55732 1.00657 0.13925 0.0
N478 N 0.55102 0.96686 0.16247 0.0
N479 N 0.55293 1.0095 0.03314 0.0
C480 C 0.54599 0.97725 1.01192 0.0
C481 C 0.54476 0.95405 0.08227 0.0
C482 C 0.5929 0.54976 0.06457 0.0
C483 C 0.62757 0.54635 0.05809 0.0
C484 C 0.57129 0.55038 0.99079 0.0
C485 C 0.58334 0.54793 0.90694 0.0
H486 H 0.5822 0.55126 0.12746 0.0
H487 H 0.54483 0.55216 0.9998 0.0
S488 S 0.67201 0.53864 0.85355 0.0
N489 N 0.67274 0.54026 0.95996 0.0
N490 N 0.63264 0.54261 0.82217 0.0
C491 C 0.61808 0.54566 0.89937 0.0
C492 C 0.64001 0.54461 0.97449 0.0
C493 C 1.00167 0.602 0.07651 0.0
C494 C 1.00818 0.63652 0.06959 0.0
C495 C 1.0005 0.58106 1.00339 0.0
C496 C 1.00644 0.59356 0.9201 0.0
H497 H 0.99791 0.59095 0.13931 0.0
H498 H 0.9961 0.55464 1.01288 0.0
S499 S 0.02394 0.68228 0.8663 0.0
N500 N 0.01993 0.68226 0.9719 0.0
N501 N 0.01796 0.64326 0.83537 0.0
C502 C 1.01229 0.62818 0.91217 0.0
C503 C 1.01307 0.64951 0.98643 0.0
C504 C 0.04774 0.13215 0.28196 0.0
C505 C 0.0432 0.15166 0.20747 0.0
C506 C 0.02498 0.1066 0.30059 0.0
C507 C 0.9967 0.10037 0.24618 0.0
H508 H 0.06727 0.13854 0.32953 0.0
H509 H 0.02757 0.09409 0.36246 0.0
S510 S 0.97692 0.1408 0.03653 0.0
N511 N 1.01147 0.15987 0.07275 0.0
N512 N 0.96778 0.11254 0.11003 0.0
C513 C 0.99368 0.1175 0.1677 0.0
C514 C 0.01728 0.14304 0.14773 0.0
C515 C 0.30396 0.9115 0.47922 0.0
C516 C 0.3041 0.91539 0.38901 0.0
C517 C 0.33241 0.90083 0.52529 0.0
C518 C 0.36153 0.89378 0.48205 0.0
H519 H 0.28376 0.92134 0.51499 0.0
H520 H 0.3332 0.90284 0.59506 0.0
S521 S 0.37009 0.88874 0.24546 0.0
N522 N 0.33222 0.90268 0.25735 0.0
N523 N 0.38565 0.88246 0.34416 0.0
C524 C 0.35946 0.89101 0.3917 0.0
C525 C 0.33055 0.90194 0.34478 0.0
C526 C 0.62936 0.32764 0.36414 0.0
C527 C 0.61226 0.3018 0.40631 0.0
C528 C 0.64247 0.35502 0.41067 0.0
C529 C 0.63873 0.35712 0.50025 0.0
H530 H 0.62852 0.32911 0.29427 0.0
H531 H 0.65113 0.3765 0.37484 0.0
S532 S 0.60701 0.2905 0.64252 0.0
N533 N 0.60068 0.2757 0.54374 0.0
N534 N 0.62531 0.32738 0.6314 0.0
C535 C 0.6275 0.32868 0.54418 0.0
C536 C 0.61417 0.30085 0.49692 0.0
C537 C 0.18877 0.50853 0.35692 0.0
C538 C 0.19281 0.5055 0.26783 0.0
C539 C 0.16596 0.53071 0.38883 0.0
C540 C 0.1466 0.55082 0.33276 0.0
H541 H 0.2035 0.49379 0.40219 0.0
H542 H 0.16325 0.53193 0.45804 0.0
S543 S 0.14915 0.55333 0.09412 0.0
N544 N 0.17658 0.5251 0.12394 0.0
N545 N 0.13335 0.56671 0.18419 0.0
C546 C 0.1503 0.54793 0.24348 0.0
C547 C 0.17355 0.52531 0.21095 0.0
C548 C 0.14105 0.83692 0.1046 0.0
C549 C 0.12948 0.83733 0.18904 0.0
C550 C 0.14244 0.86605 0.0552 0.0
C551 C 0.13257 0.89658 0.08887 0.0
H552 H 0.1466 0.81352 0.07428 0.0
H553 H 0.1491 0.86431 0.98831 0.0
S554 S 0.10565 0.91205 0.31082 0.0
N555 N 0.11185 0.87158 0.30766 0.0
N556 N 0.11504 0.92645 0.21475 0.0
C557 C 0.12439 0.89801 0.17598 0.0
C558 C 0.12275 0.8683 0.22625 0.0
C559 C 0.70103 0.17037 0.11724 0.0
C560 C 0.73177 0.16339 0.0822 0.0
C561 C 0.67311 0.17642 0.06345 0.0
C562 C 0.67511 0.17578 0.97287 0.0
H563 H 0.69756 0.16735 0.18583 0.0
H564 H 0.64926 0.17766 0.09321 0.0
S565 S 0.75235 0.16927 0.85172 0.0
N566 N 0.76446 0.16366 0.95373 0.0
N567 N 0.71197 0.17598 0.85211 0.0
C568 C 0.70681 0.17408 0.93813 0.0
C569 C 0.73518 0.16758 0.99298 0.0
C570 C 0.42553 0.73446 1.01656 0.0
C571 C 0.40727 0.73546 0.09217 0.0
C572 C 0.42461 0.70629 0.96407 0.0
C573 C 0.4056 0.67795 0.98532 0.0
H574 H 0.443 0.7543 1.00148 0.0
H575 H 0.44069 0.70585 0.9096 0.0
S576 S 0.34771 0.67051 0.16498 0.0
N577 N 0.36481 0.70805 0.17638 0.0
N578 N 0.3642 0.65426 0.07913 0.0
C579 C 0.3845 0.67981 0.05517 0.0
C580 C 0.38512 0.70878 0.10835 0.0
C581 C 0.81402 0.44278 0.03201 0.0
C582 C 0.80705 0.4216 0.10167 0.0
C583 C 0.84214 0.43842 0.98373 0.0
C584 C 0.8644 0.4127 1.00318 0.0
H585 H 0.79907 0.46444 1.01853 0.0
H586 H 0.84767 0.45684 0.93486 0.0
S587 S 0.85395 0.3467 0.16812 0.0
N588 N 0.82196 0.3712 0.1799 0.0
N589 N 0.87517 0.36295 0.08856 0.0
C590 C 0.85631 0.38969 0.06793 0.0
C591 C 0.82754 0.39415 0.11728 0.0
C592 C 0.99728 0.18177 0.8312 0.0
C593 C 0.02715 0.19385 0.87113 0.0
C594 C 0.99515 0.14991 0.79256 0.0
C595 C 0.0227 0.12861 0.79301 0.0
H596 H 0.97544 0.1971 0.8295 0.0
H597 H 0.97159 0.14191 0.76251 0.0
S598 S 0.10581 0.14753 0.89719 0.0
N599 N 0.08422 0.18124 0.91349 0.0
N600 N 0.08045 0.12194 0.84206 0.0
C601 C 0.05252 0.14037 0.83445 0.0
C602 C 0.05466 0.17273 0.87314 0.0
C603 C 0.37173 1.01198 0.85207 0.0
C604 C 0.36316 0.03887 0.90467 0.0
C605 C 0.40179 1.01196 0.80805 0.0
C606 C 0.42497 0.03878 0.8146 0.0
H607 H 0.35527 0.99037 0.84603 0.0
H608 H 0.40715 0.9903 0.76994 0.0
S609 S 0.41471 0.11543 0.94439 0.0
N610 N 0.38058 0.09315 0.96045 0.0
N611 N 0.43655 0.09342 0.87789 0.0
C612 C 0.41629 0.06623 0.86538 0.0
C613 C 0.38564 0.06621 0.91015 0.0
C614 C 0.5293 0.37448 0.83396 0.0
C615 C 0.50101 0.36513 0.87981 0.0
C616 C 0.5311 0.40486 0.78891 0.0
C617 C 0.50473 0.42749 0.7876 0.0
H618 H 0.55067 0.35849 0.83475 0.0
H619 H 0.55383 0.41095 0.75655 0.0
S620 S 0.42471 0.41477 0.89635 0.0
N621 N 0.44572 0.38085 0.91992 0.0
N622 N 0.44887 0.43766 0.83495 0.0
C623 C 0.47577 0.41792 0.83069 0.0
C624 C 0.47398 0.38689 0.87672 0.0
C625 C 0.18153 0.5248 0.77755 0.0
C626 C 0.18971 0.50691 0.85332 0.0
C627 C 0.14803 0.52843 0.74856 0.0
C628 C 0.12146 0.51425 0.79426 0.0
H629 H 0.20111 0.53601 0.74049 0.0
H630 H 0.14298 0.54251 0.68998 0.0
S631 S 0.13064 0.46369 0.99528 0.0
N632 N 0.16914 0.47402 0.97169 0.0
N633 N 0.10668 0.48079 0.91925 0.0
C634 C 0.12975 0.4961 0.87011 0.0
C635 C 0.16368 0.49243 0.89899 0.0
C636 C 1.00929 0.86945 0.61368 0.0
C637 C 1.01194 0.8638 0.52409 0.0
C638 C 1.00915 0.90184 0.6487 0.0
C639 C 1.01088 0.93032 0.59583 0.0
H640 H 1.00732 0.84862 0.65774 0.0
H641 H 1.0073 0.90456 0.71786 0.0
S642 S 0.01903 0.93035 0.35784 0.0
N643 N 0.01782 0.89054 0.38408 0.0
N644 N 0.0156 0.95081 0.44909 0.0
C645 C 1.01305 0.92524 0.50622 0.0
C646 C 1.01398 0.89229 0.47067 0.0
C647 C 0.65366 0.02374 0.47424 0.0
C648 C 0.68353 0.03263 0.51996 0.0
C649 C 0.62303 0.02109 0.51563 0.0
C650 C 0.62058 0.02749 0.60476 0.0
H651 H 0.65365 0.01986 0.40512 0.0
H652 H 0.60086 0.01496 0.47654 0.0
S653 S 0.69169 0.04765 0.7569 0.0
N654 N 0.70881 0.04437 0.66229 0.0
N655 N 0.65147 0.04069 0.73844 0.0
C656 C 0.65036 0.0353 0.65184 0.0
C657 C 0.68163 0.03752 0.61004 0.0
C658 C 0.51275 0.68154 0.57428 0.0
C659 C 0.53429 0.6896 0.50726 0.0
C660 C 0.51225 0.64978 0.61281 0.0
C661 C 0.53318 0.6244 0.58604 0.0
H662 H 0.49533 0.69966 0.59574 0.0
H663 H 0.49464 0.64494 0.66268 0.0
S664 S 0.59646 0.63335 0.41834 0.0
N665 N 0.57878 0.67004 0.42005 0.0
N666 N 0.57763 0.6104 0.49105 0.0
C667 C 0.55549 0.63236 0.52055 0.0
C668 C 0.55606 0.66482 0.48154 0.0
C669 C 0.86269 0.51163 0.59079 0.0
C670 C 0.85298 0.53768 0.53473 0.0
C671 C 0.89467 0.51099 0.63079 0.0
C672 C 0.91849 0.53653 0.61737 0.0
H673 H 0.84569 0.49095 0.60207 0.0
H674 H 0.90084 0.48996 0.67185 0.0
S675 S 0.90503 0.6115 0.48007 0.0
N676 N 0.86941 0.59042 0.4707 0.0
N677 N 0.92936 0.5894 0.54545 0.0
C678 C 0.9088 0.56322 0.56311 0.0
C679 C 0.87622 0.5637 0.52183 0.0
loop_
_geom_bond_atom_site_label_1
_geom_bond_atom_site_label_2
_geom_bond_distance
_geom_bond_site_symmetry_2
_ccdc_geom_bond_type
P0 O11 1.490 . S
P0 C14 1.812 . S
P0 C20 1.803 . S
P0 C26 1.819 . S
H1 C15 0.941 . S
H2 C16 0.939 . S
H3 C18 0.940 . S
H4 C19 0.940 . S
H5 C21 0.939 . S
H6 C22 0.942 . S
H7 C24 0.940 . S
H8 C25 0.939 . S
H9 C27 0.941 . S
H10 C31 0.939 . S
O11 P0 1.490 . S
H12 C28 0.939 . S
H13 C30 0.940 . S
C14 P0 1.812 . S
C14 C15 1.389 . S
C14 C19 1.391 . S
C15 H1 0.941 . S
C15 C14 1.389 . S
C15 C16 1.397 . S
C16 H2 0.939 . S
C16 C15 1.397 . S
C16 C17 1.378 . S
C17 C16 1.378 . S
C17 C18 1.378 . S
C18 H3 0.940 . S
C18 C17 1.378 . S
C18 C19 1.396 . S
C19 H4 0.940 . S
C19 C14 1.391 . S
C19 C18 1.396 . S
C20 P0 1.803 . S
C20 C21 1.378 . S
C20 C25 1.400 . S
C21 H5 0.939 . S
C21 C20 1.378 . S
C21 C22 1.361 . S
C22 H6 0.942 . S
C22 C21 1.361 . S
C22 C23 1.369 . S
C23 C22 1.369 . S
C23 C24 1.404 . S
C24 H7 0.940 . S
C24 C23 1.404 . S
C24 C25 1.389 . S
C25 H8 0.939 . S
C25 C20 1.400 . S
C25 C24 1.389 . S
C26 P0 1.819 . S
C26 C27 1.391 . S
C26 C31 1.391 . S
C27 H9 0.941 . S
C27 C26 1.391 . S
C27 C28 1.396 . S
C28 H12 0.939 . S
C28 C27 1.396 . S
C28 C29 1.397 . S
C29 C28 1.397 . S
C29 C30 1.385 . S
C30 H13 0.940 . S
C30 C29 1.385 . S
C30 C31 1.388 . S
C31 H10 0.939 . S
C31 C26 1.391 . S
C31 C30 1.388 . S
P32 O43 1.490 . S
P32 C46 1.812 1_455 S
P32 C52 1.803 1_455 S
P32 C58 1.819 1_455 S
H33 C47 0.941 . S
H34 C48 0.932 1_455 S
H35 C50 0.940 . S
H36 C51 0.940 . S
H37 C53 0.939 . S
H38 C54 0.957 . S
H39 C56 0.940 . S
H40 C57 0.939 . S
H41 C59 0.941 . S
H42 C63 0.939 . S
O43 P32 1.490 . S
H44 C60 0.939 1_455 S
H45 C62 0.940 . S
C46 P32 1.812 1_655 S
C46 C47 1.389 1_655 S
C46 C51 1.391 . S
C47 H33 0.941 . S
C47 C46 1.389 1_455 S
C47 C48 1.390 1_455 S
C48 H34 0.932 1_655 S
C48 C47 1.390 1_655 S
C48 C49 1.392 . S
C49 C48 1.392 . S
C49 C50 1.378 . S
C50 H35 0.940 . S
C50 C49 1.378 . S
C50 C51 1.396 . S
C51 H36 0.940 . S
C51 C46 1.391 . S
C51 C50 1.396 . S
C52 P32 1.803 1_655 S
C52 C53 1.378 1_655 S
C52 C57 1.400 . S
C53 H37 0.939 . S
C53 C52 1.378 1_455 S
C53 C54 1.368 . S
C54 H38 0.957 . S
C54 C53 1.368 . S
C54 C55 1.348 1_455 S
C55 C54 1.348 1_655 S
C55 C56 1.404 . S
C56 H39 0.940 . S
C56 C55 1.404 . S
C56 C57 1.389 . S
C57 H40 0.939 . S
C57 C52 1.400 . S
C57 C56 1.389 . S
C58 P32 1.819 1_655 S
C58 C59 1.391 1_655 S
C58 C63 1.391 . S
C59 H41 0.941 . S
C59 C58 1.391 1_455 S
C59 C60 1.396 1_455 S
C60 H44 0.939 1_655 S
C60 C59 1.396 1_655 S
C60 C61 1.397 . S
C61 C60 1.397 . S
C61 C62 1.385 . S
C62 H45 0.940 . S
C62 C61 1.385 . S
C62 C63 1.388 . S
C63 H42 0.939 . S
C63 C58 1.391 . S
C63 C62 1.388 . S
P64 O75 1.490 . S
P64 C78 1.812 . S
P64 C84 1.803 . S
P64 C90 1.819 . S
H65 C79 0.941 . S
H66 C80 0.939 . S
H67 C82 0.940 . S
H68 C83 0.940 . S
H69 C85 0.939 . S
H70 C86 0.942 . S
H71 C88 0.940 . S
H72 C89 0.939 . S
H73 C91 0.941 . S
H74 C95 0.939 . S
O75 P64 1.490 . S
H76 C92 0.939 . S
H77 C94 0.940 . S
C78 P64 1.812 . S
C78 C79 1.389 . S
C78 C83 1.391 1_545 S
C79 H65 0.941 . S
C79 C78 1.389 . S
C79 C80 1.397 . S
C80 H66 0.939 . S
C80 C79 1.397 . S
C80 C81 1.378 1_545 S
C81 C80 1.378 1_565 S
C81 C82 1.378 . S
C82 H67 0.940 . S
C82 C81 1.378 . S
C82 C83 1.396 . S
C83 H68 0.940 . S
C83 C78 1.391 1_565 S
C83 C82 1.396 . S
C84 P64 1.803 . S
C84 C85 1.378 . S
C84 C89 1.400 1_545 S
C85 H69 0.939 . S
C85 C84 1.378 . S
C85 C86 1.361 . S
C86 H70 0.942 . S
C86 C85 1.361 . S
C86 C87 1.369 1_545 S
C87 C86 1.369 1_565 S
C87 C88 1.404 . S
C88 H71 0.940 . S
C88 C87 1.404 . S
C88 C89 1.389 . S
C89 H72 0.939 . S
C89 C84 1.400 1_565 S
C89 C88 1.389 . S
C90 P64 1.819 . S
C90 C91 1.391 . S
C90 C95 1.391 1_545 S
C91 H73 0.941 . S
C91 C90 1.391 . S
C91 C92 1.396 . S
C92 H76 0.939 . S
C92 C91 1.396 . S
C92 C93 1.397 1_545 S
C93 C92 1.397 1_565 S
C93 C94 1.385 . S
C94 H77 0.940 . S
C94 C93 1.385 . S
C94 C95 1.388 . S
C95 H74 0.939 . S
C95 C90 1.391 1_565 S
C95 C94 1.388 . S
P96 O107 1.490 . S
P96 C110 1.812 . S
P96 C116 1.803 . S
P96 C122 1.819 . S
H97 C111 0.941 . S
H98 C112 0.939 . S
H99 C114 0.940 . S
H100 C115 0.940 . S
H101 C117 0.939 . S
H102 C118 0.942 . S
H103 C120 0.940 . S
H104 C121 0.939 . S
H105 C123 0.941 . S
H106 C127 0.939 . S
O107 P96 1.490 . S
H108 C124 0.939 . S
H109 C126 0.940 . S
C110 P96 1.812 . S
C110 C111 1.389 . S
C110 C115 1.391 . S
C111 H97 0.941 . S
C111 C110 1.389 . S
C111 C112 1.397 . S
C112 H98 0.939 . S
C112 C111 1.397 . S
C112 C113 1.378 . S
C113 C112 1.378 . S
C113 C114 1.378 . S
C114 H99 0.940 . S
C114 C113 1.378 . S
C114 C115 1.396 . S
C115 H100 0.940 . S
C115 C110 1.391 . S
C115 C114 1.396 . S
C116 P96 1.803 . S
C116 C117 1.378 . S
C116 C121 1.400 . S
C117 H101 0.939 . S
C117 C116 1.378 . S
C117 C118 1.361 . S
C118 H102 0.942 . S
C118 C117 1.361 . S
C118 C119 1.369 . S
C119 C118 1.369 . S
C119 C120 1.404 . S
C120 H103 0.940 . S
C120 C119 1.404 . S
C120 C121 1.389 . S
C121 H104 0.939 . S
C121 C116 1.400 . S
C121 C120 1.389 . S
C122 P96 1.819 . S
C122 C123 1.391 . S
C122 C127 1.391 . S
C123 H105 0.941 . S
C123 C122 1.391 . S
C123 C124 1.396 . S
C124 H108 0.939 . S
C124 C123 1.396 . S
C124 C125 1.397 . S
C125 C124 1.397 . S
C125 C126 1.385 . S
C126 H109 0.940 . S
C126 C125 1.385 . S
C126 C127 1.388 . S
C127 H106 0.939 . S
C127 C122 1.391 . S
C127 C126 1.388 . S
P128 O139 1.490 . S
P128 C142 1.812 1_554 S
P128 C148 1.803 . S
P128 C154 1.819 . S
H129 C143 0.941 . S
H130 C144 0.939 . S
H131 C146 0.940 . S
H132 C147 0.940 1_554 S
H133 C149 0.939 . S
H134 C150 0.942 . S
H135 C152 0.940 . S
H136 C153 0.939 . S
H137 C155 0.941 . S
H138 C159 0.939 . S
O139 P128 1.490 . S
H140 C156 0.939 . S
H141 C158 0.940 . S
C142 P128 1.812 1_556 S
C142 C143 1.389 . S
C142 C147 1.391 . S
C143 H129 0.941 . S
C143 C142 1.389 . S
C143 C144 1.397 . S
C144 H130 0.939 . S
C144 C143 1.397 . S
C144 C145 1.378 . S
C145 C144 1.378 . S
C145 C146 1.378 . S
C146 H131 0.940 . S
C146 C145 1.378 . S
C146 C147 1.396 . S
C147 H132 0.940 1_556 S
C147 C142 1.391 . S
C147 C146 1.396 . S
C148 P128 1.803 . S
C148 C149 1.378 . S
C148 C153 1.400 . S
C149 H133 0.939 . S
C149 C148 1.378 . S
C149 C150 1.361 . S
C150 H134 0.942 . S
C150 C149 1.361 . S
C150 C151 1.369 . S
C151 C150 1.369 . S
C151 C152 1.404 . S
C152 H135 0.940 . S
C152 C151 1.404 . S
C152 C153 1.389 . S
C153 H136 0.939 . S
C153 C148 1.400 . S
C153 C152 1.389 . S
C154 P128 1.819 . S
C154 C155 1.391 . S
C154 C159 1.391 . S
C155 H137 0.941 . S
C155 C154 1.391 . S
C155 C156 1.396 . S
C156 H140 0.939 . S
C156 C155 1.396 . S
C156 C157 1.397 . S
C157 C156 1.397 . S
C157 C158 1.385 . S
C158 H141 0.940 . S
C158 C157 1.385 . S
C158 C159 1.388 . S
C159 H138 0.939 . S
C159 C154 1.391 . S
C159 C158 1.388 . S
P160 O171 1.490 . S
P160 C174 1.812 1_554 S
P160 C180 1.803 . S
P160 C186 1.819 . S
H161 C175 0.941 . S
H162 C176 0.939 . S
H163 C178 0.940 . S
H164 C179 0.940 . S
H165 C181 0.939 . S
H166 C182 0.942 . S
H167 C184 0.940 . S
H168 C185 0.939 1_556 S
H169 C187 0.941 . S
H170 C191 0.939 . S
O171 P160 1.490 . S
H172 C188 0.939 . S
H173 C190 0.940 . S
C174 P160 1.812 1_556 S
C174 C175 1.389 . S
C174 C179 1.391 . S
C175 H161 0.941 . S
C175 C174 1.389 . S
C175 C176 1.397 . S
C176 H162 0.939 . S
C176 C175 1.397 . S
C176 C177 1.378 . S
C177 C176 1.378 . S
C177 C178 1.378 . S
C178 H163 0.940 . S
C178 C177 1.378 . S
C178 C179 1.396 . S
C179 H164 0.940 . S
C179 C174 1.391 . S
C179 C178 1.396 . S
C180 P160 1.803 . S
C180 C181 1.378 . S
C180 C185 1.400 . S
C181 H165 0.939 . S
C181 C180 1.378 . S
C181 C182 1.361 . S
C182 H166 0.942 . S
C182 C181 1.361 . S
C182 C183 1.369 . S
C183 C182 1.369 . S
C183 C184 1.404 . S
C184 H167 0.940 . S
C184 C183 1.404 . S
C184 C185 1.389 . S
C185 H168 0.939 1_554 S
C185 C180 1.400 . S
C185 C184 1.389 . S
C186 P160 1.819 . S
C186 C187 1.391 . S
C186 C191 1.391 . S
C187 H169 0.941 . S
C187 C186 1.391 . S
C187 C188 1.396 . S
C188 H172 0.939 . S
C188 C187 1.396 . S
C188 C189 1.397 . S
C189 C188 1.397 . S
C189 C190 1.385 . S
C190 H173 0.940 . S
C190 C189 1.385 . S
C190 C191 1.388 . S
C191 H170 0.939 . S
C191 C186 1.391 . S
C191 C190 1.388 . S
P192 O203 1.490 . S
P192 C206 1.812 1_554 S
P192 C212 1.803 . S
P192 C218 1.819 . S
H193 C207 0.941 . S
H194 C208 0.939 . S
H195 C210 0.940 . S
H196 C211 0.940 . S
H197 C213 0.939 . S
H198 C214 0.942 . S
H199 C216 0.940 . S
H200 C217 0.939 1_556 S
H201 C219 0.941 . S
H202 C223 0.939 . S
O203 P192 1.490 . S
H204 C220 0.939 . S
H205 C222 0.940 . S
C206 P192 1.812 1_556 S
C206 C207 1.389 . S
C206 C211 1.391 . S
C207 H193 0.941 . S
C207 C206 1.389 . S
C207 C208 1.397 . S
C208 H194 0.939 . S
C208 C207 1.397 . S
C208 C209 1.378 . S
C209 C208 1.378 . S
C209 C210 1.378 . S
C210 H195 0.940 . S
C210 C209 1.378 . S
C210 C211 1.396 . S
C211 H196 0.940 . S
C211 C206 1.391 . S
C211 C210 1.396 . S
C212 P192 1.803 . S
C212 C213 1.378 . S
C212 C217 1.400 . S
C213 H197 0.939 . S
C213 C212 1.378 . S
C213 C214 1.361 . S
C214 H198 0.942 . S
C214 C213 1.361 . S
C214 C215 1.369 . S
C215 C214 1.369 . S
C215 C216 1.404 . S
C216 H199 0.940 . S
C216 C215 1.404 . S
C216 C217 1.389 . S
C217 H200 0.939 1_554 S
C217 C212 1.400 . S
C217 C216 1.389 . S
C218 P192 1.819 . S
C218 C219 1.391 . S
C218 C223 1.391 . S
C219 H201 0.941 . S
C219 C218 1.391 . S
C219 C220 1.396 . S
C220 H204 0.939 . S
C220 C219 1.396 . S
C220 C221 1.397 . S
C221 C220 1.397 . S
C221 C222 1.385 . S
C222 H205 0.940 . S
C222 C221 1.385 . S
C222 C223 1.388 . S
C223 H202 0.939 . S
C223 C218 1.391 . S
C223 C222 1.388 . S
P224 O235 1.490 . S
P224 C238 1.812 1_554 S
P224 C244 1.803 . S
P224 C250 1.819 . S
H225 C239 0.941 . S
H226 C240 0.939 . S
H227 C242 0.940 . S
H228 C243 0.940 1_554 S
H229 C245 0.939 . S
H230 C246 0.942 . S
H231 C248 0.940 . S
H232 C249 0.939 . S
H233 C251 0.941 . S
H234 C255 0.939 . S
O235 P224 1.490 . S
H236 C252 0.939 . S
H237 C254 0.940 . S
C238 P224 1.812 1_556 S
C238 C239 1.389 . S
C238 C243 1.391 . S
C239 H225 0.941 . S
C239 C238 1.389 . S
C239 C240 1.397 . S
C240 H226 0.939 . S
C240 C239 1.397 . S
C240 C241 1.378 . S
C241 C240 1.378 . S
C241 C242 1.378 . S
C242 H227 0.940 . S
C242 C241 1.378 . S
C242 C243 1.396 . S
C243 H228 0.940 1_556 S
C243 C238 1.391 . S
C243 C242 1.396 . S
C244 P224 1.803 . S
C244 C245 1.378 . S
C244 C249 1.400 . S
C245 H229 0.939 . S
C245 C244 1.378 . S
C245 C246 1.361 . S
C246 H230 0.942 . S
C246 C245 1.361 . S
C246 C247 1.369 . S
C247 C246 1.369 . S
C247 C248 1.404 . S
C248 H231 0.940 . S
C248 C247 1.404 . S
C248 C249 1.389 . S
C249 H232 0.939 . S
C249 C244 1.400 . S
C249 C248 1.389 . S
C250 P224 1.819 . S
C250 C251 1.391 . S
C250 C255 1.391 . S
C251 H233 0.941 . S
C251 C250 1.391 . S
C251 C252 1.396 . S
C252 H236 0.939 . S
C252 C251 1.396 . S
C252 C253 1.397 . S
C253 C252 1.397 . S
C253 C254 1.385 . S
C254 H237 0.940 . S
C254 C253 1.385 . S
C254 C255 1.388 . S
C255 H234 0.939 . S
C255 C250 1.391 . S
C255 C254 1.388 . S
Eu256 C265 2.828 . S
Eu256 O267 2.392 . S
Eu256 O269 2.418 1_545 S
Eu256 O274 2.373 1_655 S
Eu256 O277 2.488 . S
Eu256 O278 2.471 . S
Eu256 O279 2.349 1_655 S
Eu257 O266 2.373 1_455 S
Eu257 O270 2.488 . S
Eu257 O271 2.471 . S
Eu257 O272 2.349 . S
Eu257 O275 2.392 1_565 S
Eu257 O276 2.418 1_565 S
Eu257 C286 2.828 . S
C258 O276 1.244 . S
C258 O279 1.265 . S
C259 C260 1.379 1_655 S
C259 C263 1.373 . S
C259 C265 1.505 . S
C260 C259 1.379 1_455 S
C260 C262 1.369 . S
C260 H288 0.930 . S
C261 C263 1.383 . S
C261 C264 1.382 . S
C261 H289 0.930 . S
C262 C260 1.369 . S
C262 C264 1.392 1_455 S
C262 H290 0.930 . S
C263 C259 1.373 . S
C263 C261 1.383 . S
C263 H291 0.931 . S
C264 C261 1.382 . S
C264 C262 1.392 1_655 S
C265 Eu256 2.828 . S
C265 C259 1.505 . S
C265 O277 1.249 . S
C265 O278 1.244 . S
O266 Eu257 2.373 1_655 S
O266 C268 1.258 . S
O267 Eu256 2.392 . S
O267 C268 1.242 1_545 S
C268 O266 1.258 . S
C268 O267 1.242 1_565 S
O269 Eu256 2.418 1_565 S
O269 C273 1.244 . S
O270 Eu257 2.488 . S
O270 C286 1.249 . S
O271 Eu257 2.471 . S
O271 C286 1.244 . S
O272 Eu257 2.349 . S
O272 C273 1.265 1_455 S
C273 O269 1.244 . S
C273 O272 1.265 1_655 S
O274 Eu256 2.373 1_455 S
O274 C287 1.258 . S
O275 Eu257 2.392 1_545 S
O275 C287 1.242 . S
O276 Eu257 2.418 1_545 S
O276 C258 1.244 . S
O277 Eu256 2.488 . S
O277 C265 1.249 . S
O278 Eu256 2.471 . S
O278 C265 1.244 . S
O279 Eu256 2.349 1_455 S
O279 C258 1.265 . S
C280 C281 1.379 . S
C280 C284 1.373 1_556 S
C280 C286 1.505 . S
C281 C280 1.379 . S
C281 C283 1.369 1_556 S
C281 H292 0.930 1_455 S
C282 C284 1.383 . S
C282 C285 1.382 . S
C282 H293 0.930 . S
C283 C281 1.369 1_554 S
C283 C285 1.392 . S
C283 H294 0.930 1_455 S
C284 C280 1.373 1_554 S
C284 C282 1.383 . S
C284 H295 0.931 . S
C285 C282 1.382 . S
C285 C283 1.392 . S
C286 Eu257 2.828 . S
C286 O270 1.249 . S
C286 O271 1.244 . S
C286 C280 1.505 . S
C287 O274 1.258 . S
C287 O275 1.242 . S
H288 C260 0.930 . S
H289 C261 0.930 . S
H290 C262 0.930 . S
H291 C263 0.931 . S
H292 C281 0.930 1_655 S
H293 C282 0.930 . S
H294 C283 0.930 1_655 S
H295 C284 0.931 . S
Eu296 C305 2.828 . S
Eu296 O307 2.392 . S
Eu296 O309 2.418 . S
Eu296 O314 2.373 . S
Eu296 O317 2.488 . S
Eu296 O318 2.471 . S
Eu296 O319 2.349 1_545 S
Eu297 O306 2.373 1_565 S
Eu297 O310 2.488 . S
Eu297 O311 2.471 1_565 S
Eu297 O312 2.349 1_565 S
Eu297 O315 2.392 . S
Eu297 O316 2.418 . S
Eu297 C326 2.828 . S
C298 O316 1.244 . S
C298 O319 1.265 . S
C299 C300 1.379 . S
C299 C303 1.373 . S
C299 C305 1.505 . S
C300 C299 1.379 . S
C300 C302 1.369 . S
C300 H328 0.930 1_545 S
C301 C303 1.383 . S
C301 C304 1.382 . S
C301 H329 0.930 . S
C302 C300 1.369 . S
C302 C304 1.392 . S
C302 H330 0.930 1_546 S
C303 C299 1.373 . S
C303 C301 1.383 . S
C303 H331 0.931 . S
C304 C301 1.382 . S
C304 C302 1.392 . S
C305 Eu296 2.828 . S
C305 C299 1.505 . S
C305 O317 1.249 . S
C305 O318 1.244 . S
O306 Eu297 2.373 1_545 S
O306 C308 1.258 . S
O307 Eu296 2.392 . S
O307 C308 1.242 . S
C308 O306 1.258 . S
C308 O307 1.242 . S
O309 Eu296 2.418 . S
O309 C313 1.244 . S
O310 Eu297 2.488 . S
O310 C326 1.249 . S
O311 Eu297 2.471 1_545 S
O311 C326 1.244 1_545 S
O312 Eu297 2.349 1_545 S
O312 C313 1.265 . S
C313 O309 1.244 . S
C313 O312 1.265 . S
O314 Eu296 2.373 . S
O314 C327 1.258 1_545 S
O315 Eu297 2.392 . S
O315 C327 1.242 . S
O316 Eu297 2.418 . S
O316 C298 1.244 . S
O317 Eu296 2.488 . S
O317 C305 1.249 . S
O318 Eu296 2.471 . S
O318 C305 1.244 . S
O319 Eu296 2.349 1_565 S
O319 C298 1.265 . S
C320 C321 1.379 1_565 S
C320 C324 1.373 . S
C320 C326 1.505 . S
C321 C320 1.379 1_545 S
C321 C323 1.369 . S
C321 H332 0.930 . S
C322 C324 1.383 . S
C322 C325 1.382 . S
C322 H333 0.930 . S
C323 C321 1.369 . S
C323 C325 1.392 1_545 S
C323 H334 0.930 . S
C324 C320 1.373 . S
C324 C322 1.383 . S
C324 H335 0.931 . S
C325 C322 1.382 . S
C325 C323 1.392 1_565 S
C326 Eu297 2.828 . S
C326 O310 1.249 . S
C326 O311 1.244 1_565 S
C326 C320 1.505 . S
C327 O314 1.258 1_565 S
C327 O315 1.242 . S
H328 C300 0.930 1_565 S
H329 C301 0.930 . S
H330 C302 0.930 1_564 S
H331 C303 0.931 . S
H332 C321 0.930 . S
H333 C322 0.930 . S
H334 C323 0.930 . S
H335 C324 0.931 . S
Eu336 C345 2.828 . S
Eu336 O347 2.392 . S
Eu336 O349 2.418 . S
Eu336 O354 2.373 . S
Eu336 O357 2.488 . S
Eu336 O358 2.471 . S
Eu336 O359 2.349 . S
Eu337 O346 2.373 . S
Eu337 O350 2.488 . S
Eu337 O351 2.471 . S
Eu337 O352 2.349 . S
Eu337 O355 2.392 . S
Eu337 O356 2.418 . S
Eu337 C366 2.828 . S
C338 O356 1.244 . S
C338 O359 1.265 . S
C339 C340 1.379 . S
C339 C343 1.373 . S
C339 C345 1.505 . S
C340 C339 1.379 . S
C340 C342 1.369 . S
C340 H368 0.930 . S
C341 C343 1.383 . S
C341 C344 1.382 . S
C341 H369 0.930 . S
C342 C340 1.369 . S
C342 C344 1.392 . S
C342 H370 0.930 . S
C343 C339 1.373 . S
C343 C341 1.383 . S
C343 H371 0.931 . S
C344 C341 1.382 . S
C344 C342 1.392 . S
C345 Eu336 2.828 . S
C345 C339 1.505 . S
C345 O357 1.249 . S
C345 O358 1.244 . S
O346 Eu337 2.373 . S
O346 C348 1.258 . S
O347 Eu336 2.392 . S
O347 C348 1.242 . S
C348 O346 1.258 . S
C348 O347 1.242 . S
O349 Eu336 2.418 . S
O349 C353 1.244 . S
O350 Eu337 2.488 . S
O350 C366 1.249 . S
O351 Eu337 2.471 . S
O351 C366 1.244 . S
O352 Eu337 2.349 . S
O352 C353 1.265 . S
C353 O349 1.244 . S
C353 O352 1.265 . S
O354 Eu336 2.373 . S
O354 C367 1.258 . S
O355 Eu337 2.392 . S
O355 C367 1.242 . S
O356 Eu337 2.418 . S
O356 C338 1.244 . S
O357 Eu336 2.488 . S
O357 C345 1.249 . S
O358 Eu336 2.471 . S
O358 C345 1.244 . S
O359 Eu336 2.349 . S
O359 C338 1.265 . S
C360 C361 1.379 . S
C360 C364 1.373 . S
C360 C366 1.505 . S
C361 C360 1.379 . S
C361 C363 1.369 . S
C361 H372 0.930 . S
C362 C364 1.383 . S
C362 C365 1.382 . S
C362 H373 0.930 . S
C363 C361 1.369 . S
C363 C365 1.392 . S
C363 H374 0.930 . S
C364 C360 1.373 . S
C364 C362 1.383 . S
C364 H375 0.931 . S
C365 C362 1.382 . S
C365 C363 1.392 . S
C366 Eu337 2.828 . S
C366 O350 1.249 . S
C366 O351 1.244 . S
C366 C360 1.505 . S
C367 O354 1.258 . S
C367 O355 1.242 . S
H368 C340 0.930 . S
H369 C341 0.930 . S
H370 C342 0.930 . S
H371 C343 0.931 . S
H372 C361 0.930 . S
H373 C362 0.930 . S
H374 C363 0.930 . S
H375 C364 0.931 . S
Eu376 C385 2.828 . S
Eu376 O387 2.392 . S
Eu376 O389 2.418 1_455 S
Eu376 O394 2.373 . S
Eu376 O397 2.488 . S
Eu376 O398 2.471 . S
Eu376 O399 2.349 . S
Eu377 O386 2.373 . S
Eu377 O390 2.488 . S
Eu377 O391 2.471 . S
Eu377 O392 2.349 . S
Eu377 O395 2.392 1_655 S
Eu377 O396 2.418 1_655 S
Eu377 C406 2.828 . S
C378 O396 1.244 . S
C378 O399 1.265 . S
C379 C380 1.379 . S
C379 C383 1.373 . S
C379 C385 1.505 . S
C380 C379 1.379 . S
C380 C382 1.369 . S
C380 H408 0.930 . S
C381 C383 1.383 . S
C381 C384 1.382 . S
C381 H409 0.930 . S
C382 C380 1.369 . S
C382 C384 1.392 . S
C382 H410 0.930 . S
C383 C379 1.373 . S
C383 C381 1.383 . S
C383 H411 0.931 . S
C384 C381 1.382 . S
C384 C382 1.392 . S
C385 Eu376 2.828 . S
C385 C379 1.505 . S
C385 O397 1.249 . S
C385 O398 1.244 . S
O386 Eu377 2.373 . S
O386 C388 1.258 . S
O387 Eu376 2.392 . S
O387 C388 1.242 1_455 S
C388 O386 1.258 . S
C388 O387 1.242 1_655 S
O389 Eu376 2.418 1_655 S
O389 C393 1.244 . S
O390 Eu377 2.488 . S
O390 C406 1.249 . S
O391 Eu377 2.471 . S
O391 C406 1.244 . S
O392 Eu377 2.349 . S
O392 C393 1.265 . S
C393 O389 1.244 . S
C393 O392 1.265 . S
O394 Eu376 2.373 . S
O394 C407 1.258 . S
O395 Eu377 2.392 1_455 S
O395 C407 1.242 . S
O396 Eu377 2.418 1_455 S
O396 C378 1.244 . S
O397 Eu376 2.488 . S
O397 C385 1.249 . S
O398 Eu376 2.471 . S
O398 C385 1.244 . S
O399 Eu376 2.349 . S
O399 C378 1.265 . S
C400 C401 1.379 . S
C400 C404 1.373 1_556 S
C400 C406 1.505 . S
C401 C400 1.379 . S
C401 C403 1.369 1_556 S
C401 H412 0.930 . S
C402 C404 1.383 . S
C402 C405 1.382 . S
C402 H413 0.930 . S
C403 C401 1.369 1_554 S
C403 C405 1.392 . S
C403 H414 0.930 1_554 S
C404 C400 1.373 1_554 S
C404 C402 1.383 . S
C404 H415 0.931 . S
C405 C402 1.382 . S
C405 C403 1.392 . S
C406 Eu377 2.828 . S
C406 O390 1.249 . S
C406 O391 1.244 . S
C406 C400 1.505 . S
C407 O394 1.258 . S
C407 O395 1.242 . S
H408 C380 0.930 . S
H409 C381 0.930 . S
H410 C382 0.930 . S
H411 C383 0.931 . S
H412 C401 0.930 . S
H413 C402 0.930 . S
H414 C403 0.930 1_556 S
H415 C404 0.931 . S
C416 C417 1.369 . S
C416 C418 1.419 . S
C416 H420 0.930 . S
C417 C416 1.369 . S
C417 C426 1.429 . S
C418 C416 1.419 . S
C418 C419 1.363 . S
C418 H421 0.929 . S
C419 C418 1.363 . S
C419 C425 1.428 . S
H420 C416 0.930 . S
H421 C418 0.929 . S
S422 N423 1.613 . S
S422 N424 1.610 . S
N423 S422 1.613 . S
N423 C426 1.350 1_565 S
N424 S422 1.610 . S
N424 C425 1.351 1_565 S
C425 C419 1.428 . S
C425 N424 1.351 1_545 S
C425 C426 1.434 . S
C426 C417 1.429 . S
C426 N423 1.350 1_545 S
C426 C425 1.434 . S
C427 C428 1.369 . S
C427 C429 1.419 . S
C427 H431 0.930 . S
C428 C427 1.369 . S
C428 C437 1.429 . S
C429 C427 1.419 . S
C429 C430 1.363 . S
C429 H432 0.929 . S
C430 C429 1.363 . S
C430 C436 1.428 . S
H431 C427 0.930 . S
H432 C429 0.929 . S
S433 N434 1.613 . S
S433 N435 1.610 . S
N434 S433 1.613 . S
N434 C437 1.350 . S
N435 S433 1.610 . S
N435 C436 1.351 . S
C436 C430 1.428 . S
C436 N435 1.351 . S
C436 C437 1.434 . S
C437 C428 1.429 . S
C437 N434 1.350 . S
C437 C436 1.434 . S
C438 C439 1.369 . S
C438 C440 1.419 . S
C438 H442 0.930 . S
C439 C438 1.369 . S
C439 C448 1.429 . S
C440 C438 1.419 . S
C440 C441 1.363 . S
C440 H443 0.929 . S
C441 C440 1.363 . S
C441 C447 1.428 . S
H442 C438 0.930 . S
H443 C440 0.929 . S
S444 N445 1.613 . S
S444 N446 1.610 . S
N445 S444 1.613 . S
N445 C448 1.350 . S
N446 S444 1.610 . S
N446 C447 1.351 . S
C447 C441 1.428 . S
C447 N446 1.351 . S
C447 C448 1.434 . S
C448 C439 1.429 . S
C448 N445 1.350 . S
C448 C447 1.434 . S
C449 C450 1.369 . S
C449 C451 1.419 . S
C449 H453 0.930 . S
C450 C449 1.369 . S
C450 C459 1.429 . S
C451 C449 1.419 . S
C451 C452 1.363 . S
C451 H454 0.929 . S
C452 C451 1.363 . S
C452 C458 1.428 . S
H453 C449 0.930 . S
H454 C451 0.929 . S
S455 N456 1.613 . S
S455 N457 1.610 . S
N456 S455 1.613 . S
N456 C459 1.350 1_655 S
N457 S455 1.610 . S
N457 C458 1.351 1_655 S
C458 C452 1.428 . S
C458 N457 1.351 1_455 S
C458 C459 1.434 . S
C459 C450 1.429 . S
C459 N456 1.350 1_455 S
C459 C458 1.434 . S
C460 C461 1.369 . S
C460 C462 1.419 . S
C460 H464 0.930 . S
C461 C460 1.369 . S
C461 C470 1.429 . S
C462 C460 1.419 . S
C462 C463 1.363 1_554 S
C462 H465 0.929 . S
C463 C462 1.363 1_556 S
C463 C469 1.428 1_556 S
H464 C460 0.930 . S
H465 C462 0.929 . S
S466 N467 1.613 . S
S466 N468 1.610 1_554 S
N467 S466 1.613 . S
N467 C470 1.350 . S
N468 S466 1.610 1_556 S
N468 C469 1.351 1_556 S
C469 C463 1.428 1_554 S
C469 N468 1.351 1_554 S
C469 C470 1.434 . S
C470 C461 1.429 . S
C470 N467 1.350 . S
C470 C469 1.434 . S
C471 C472 1.369 . S
C471 C473 1.419 1_554 S
C471 H475 0.930 . S
C472 C471 1.369 . S
C472 C481 1.429 . S
C473 C471 1.419 1_556 S
C473 C474 1.363 . S
C473 H476 0.929 . S
C474 C473 1.363 . S
C474 C480 1.428 . S
H475 C471 0.930 . S
H476 C473 0.929 . S
S477 N478 1.613 . S
S477 N479 1.610 1_554 S
N478 S477 1.613 . S
N478 C481 1.350 . S
N479 S477 1.610 1_556 S
N479 C480 1.351 . S
C480 C474 1.428 . S
C480 N479 1.351 . S
C480 C481 1.434 1_556 S
C481 C472 1.429 . S
C481 N478 1.350 . S
C481 C480 1.434 1_554 S
C482 C483 1.369 . S
C482 C484 1.419 1_554 S
C482 H486 0.930 . S
C483 C482 1.369 . S
C483 C492 1.429 . S
C484 C482 1.419 1_556 S
C484 C485 1.363 . S
C484 H487 0.929 . S
C485 C484 1.363 . S
C485 C491 1.428 . S
H486 C482 0.930 . S
H487 C484 0.929 . S
S488 N489 1.613 . S
S488 N490 1.610 1_554 S
N489 S488 1.613 . S
N489 C492 1.350 . S
N490 S488 1.610 1_556 S
N490 C491 1.351 . S
C491 C485 1.428 . S
C491 N490 1.351 . S
C491 C492 1.434 1_556 S
C492 C483 1.429 . S
C492 N489 1.350 . S
C492 C491 1.434 1_554 S
C493 C494 1.369 . S
C493 C495 1.419 1_554 S
C493 H497 0.930 . S
C494 C493 1.369 . S
C494 C503 1.429 1_655 S
C495 C493 1.419 1_556 S
C495 C496 1.363 . S
C495 H498 0.929 . S
C496 C495 1.363 . S
C496 C502 1.428 1_656 S
H497 C493 0.930 . S
H498 C495 0.929 . S
S499 N500 1.613 . S
S499 N501 1.610 1_554 S
N500 S499 1.613 . S
N500 C503 1.350 . S
N501 S499 1.610 1_556 S
N501 C502 1.351 1_556 S
C502 C496 1.428 1_454 S
C502 N501 1.351 1_554 S
C502 C503 1.434 . S
C503 C494 1.429 1_455 S
C503 N500 1.350 . S
C503 C502 1.434 . S
C504 C505 1.369 . S
C504 C506 1.419 . S
C504 H508 0.930 . S
C505 C504 1.369 . S
C505 C514 1.429 . S
C506 C504 1.419 . S
C506 C507 1.363 1_455 S
C506 H509 0.929 . S
C507 C506 1.363 1_655 S
C507 C513 1.428 . S
H508 C504 0.930 . S
H509 C506 0.929 . S
S510 N511 1.613 1_655 S
S510 N512 1.610 . S
N511 S510 1.613 1_455 S
N511 C514 1.350 . S
N512 S510 1.610 . S
N512 C513 1.351 . S
C513 C507 1.428 . S
C513 N512 1.351 . S
C513 C514 1.434 1_655 S
C514 C505 1.429 . S
C514 N511 1.350 . S
C514 C513 1.434 1_455 S
C515 C516 1.369 . S
C515 C517 1.419 1_545 S
C515 H519 0.930 . S
C516 C515 1.369 . S
C516 C525 1.429 . S
C517 C515 1.419 1_565 S
C517 C518 1.363 . S
C517 H520 0.929 . S
C518 C517 1.363 . S
C518 C524 1.428 1_565 S
H519 C515 0.930 . S
H520 C517 0.929 . S
S521 N522 1.613 . S
S521 N523 1.610 . S
N522 S521 1.613 . S
N522 C525 1.350 . S
N523 S521 1.610 . S
N523 C524 1.351 . S
C524 C518 1.428 1_545 S
C524 N523 1.351 . S
C524 C525 1.434 . S
C525 C516 1.429 . S
C525 N522 1.350 . S
C525 C524 1.434 . S
C526 C527 1.369 . S
C526 C528 1.419 . S
C526 H530 0.930 . S
C527 C526 1.369 . S
C527 C536 1.429 . S
C528 C526 1.419 . S
C528 C529 1.363 . S
C528 H531 0.929 . S
C529 C528 1.363 . S
C529 C535 1.428 . S
H530 C526 0.930 . S
H531 C528 0.929 . S
S532 N533 1.613 . S
S532 N534 1.610 . S
N533 S532 1.613 . S
N533 C536 1.350 . S
N534 S532 1.610 . S
N534 C535 1.351 . S
C535 C529 1.428 . S
C535 N534 1.351 . S
C535 C536 1.434 . S
C536 C527 1.429 . S
C536 N533 1.350 . S
C536 C535 1.434 . S
C537 C538 1.369 . S
C537 C539 1.419 . S
C537 H541 0.930 . S
C538 C537 1.369 . S
C538 C547 1.429 . S
C539 C537 1.419 . S
C539 C540 1.363 . S
C539 H542 0.929 . S
C540 C539 1.363 . S
C540 C546 1.428 . S
H541 C537 0.930 . S
H542 C539 0.929 . S
S543 N544 1.613 . S
S543 N545 1.610 . S
N544 S543 1.613 . S
N544 C547 1.350 . S
N545 S543 1.610 . S
N545 C546 1.351 . S
C546 C540 1.428 . S
C546 N545 1.351 . S
C546 C547 1.434 . S
C547 C538 1.429 . S
C547 N544 1.350 . S
C547 C546 1.434 . S
C548 C549 1.369 . S
C548 C550 1.419 1_655 S
C548 H552 0.930 1_655 S
C549 C548 1.369 . S
C549 C558 1.429 . S
C550 C548 1.419 1_455 S
C550 C551 1.363 . S
C550 H553 0.929 . S
C551 C550 1.363 . S
C551 C557 1.428 1_455 S
H552 C548 0.930 1_455 S
H553 C550 0.929 . S
S554 N555 1.613 . S
S554 N556 1.610 . S
N555 S554 1.613 . S
N555 C558 1.350 . S
N556 S554 1.610 . S
N556 C557 1.351 . S
C557 C551 1.428 1_655 S
C557 N556 1.351 . S
C557 C558 1.434 . S
C558 C549 1.429 . S
C558 N555 1.350 . S
C558 C557 1.434 . S
C559 C560 1.369 . S
C559 C561 1.419 1_565 S
C559 H563 0.930 . S
C560 C559 1.369 . S
C560 C569 1.429 1_565 S
C561 C559 1.419 1_545 S
C561 C562 1.363 . S
C561 H564 0.929 . S
C562 C561 1.363 . S
C562 C568 1.428 . S
H563 C559 0.930 . S
H564 C561 0.929 . S
S565 N566 1.613 . S
S565 N567 1.610 . S
N566 S565 1.613 . S
N566 C569 1.350 . S
N567 S565 1.610 . S
N567 C568 1.351 . S
C568 C562 1.428 . S
C568 N567 1.351 . S
C568 C569 1.434 . S
C569 C560 1.429 1_545 S
C569 N566 1.350 . S
C569 C568 1.434 . S
C570 C571 1.369 . S
C570 C572 1.419 1_554 S
C570 H574 0.930 . S
C571 C570 1.369 . S
C571 C580 1.429 . S
C572 C570 1.419 1_556 S
C572 C573 1.363 . S
C572 H575 0.929 . S
C573 C572 1.363 . S
C573 C579 1.428 1_556 S
H574 C570 0.930 . S
H575 C572 0.929 . S
S576 N577 1.613 . S
S576 N578 1.610 . S
N577 S576 1.613 . S
N577 C580 1.350 . S
N578 S576 1.610 . S
N578 C579 1.351 . S
C579 C573 1.428 1_554 S
C579 N578 1.351 . S
C579 C580 1.434 . S
C580 C571 1.429 . S
C580 N577 1.350 . S
C580 C579 1.434 . S
C581 C582 1.369 . S
C581 C583 1.419 . S
C581 H585 0.930 . S
C582 C581 1.369 . S
C582 C591 1.429 . S
C583 C581 1.419 . S
C583 C584 1.363 . S
C583 H586 0.929 . S
C584 C583 1.363 . S
C584 C590 1.428 . S
H585 C581 0.930 . S
H586 C583 0.929 . S
S587 N588 1.613 . S
S587 N589 1.610 . S
N588 S587 1.613 . S
N588 C591 1.350 . S
N589 S587 1.610 . S
N589 C590 1.351 . S
C590 C584 1.428 . S
C590 N589 1.351 . S
C590 C591 1.434 . S
C591 C582 1.429 . S
C591 N588 1.350 . S
C591 C590 1.434 . S
C592 C593 1.369 . S
C592 C594 1.419 . S
C592 H596 0.930 . S
C593 C592 1.369 . S
C593 C602 1.429 . S
C594 C592 1.419 . S
C594 C595 1.363 . S
C594 H597 0.929 . S
C595 C594 1.363 . S
C595 C601 1.428 . S
H596 C592 0.930 . S
H597 C594 0.929 . S
S598 N599 1.613 . S
S598 N600 1.610 . S
N599 S598 1.613 . S
N599 C602 1.350 . S
N600 S598 1.610 . S
N600 C601 1.351 . S
C601 C595 1.428 . S
C601 N600 1.351 . S
C601 C602 1.434 . S
C602 C593 1.429 . S
C602 N599 1.350 . S
C602 C601 1.434 . S
C603 C604 1.369 . S
C603 C605 1.419 . S
C603 H607 0.930 1_545 S
C604 C603 1.369 . S
C604 C613 1.429 . S
C605 C603 1.419 . S
C605 C606 1.363 . S
C605 H608 0.929 1_545 S
C606 C605 1.363 . S
C606 C612 1.428 . S
H607 C603 0.930 1_565 S
H608 C605 0.929 1_565 S
S609 N610 1.613 . S
S609 N611 1.610 . S
N610 S609 1.613 . S
N610 C613 1.350 . S
N611 S609 1.610 . S
N611 C612 1.351 . S
C612 C606 1.428 . S
C612 N611 1.351 . S
C612 C613 1.434 . S
C613 C604 1.429 . S
C613 N610 1.350 . S
C613 C612 1.434 . S
C614 C615 1.369 . S
C614 C616 1.419 . S
C614 H618 0.930 . S
C615 C614 1.369 . S
C615 C624 1.429 . S
C616 C614 1.419 . S
C616 C617 1.363 . S
C616 H619 0.929 . S
C617 C616 1.363 . S
C617 C623 1.428 . S
H618 C614 0.930 . S
H619 C616 0.929 . S
S620 N621 1.613 . S
S620 N622 1.610 . S
N621 S620 1.613 . S
N621 C624 1.350 . S
N622 S620 1.610 . S
N622 C623 1.351 . S
C623 C617 1.428 . S
C623 N622 1.351 . S
C623 C624 1.434 . S
C624 C615 1.429 . S
C624 N621 1.350 . S
C624 C623 1.434 . S
C625 C626 1.369 . S
C625 C627 1.419 . S
C625 H629 0.930 . S
C626 C625 1.369 . S
C626 C635 1.429 . S
C627 C625 1.419 . S
C627 C628 1.363 . S
C627 H630 0.929 . S
C628 C627 1.363 . S
C628 C634 1.428 . S
H629 C625 0.930 . S
H630 C627 0.929 . S
S631 N632 1.613 . S
S631 N633 1.610 . S
N632 S631 1.613 . S
N632 C635 1.350 . S
N633 S631 1.610 . S
N633 C634 1.351 . S
C634 C628 1.428 . S
C634 N633 1.351 . S
C634 C635 1.434 . S
C635 C626 1.429 . S
C635 N632 1.350 . S
C635 C634 1.434 . S
C636 C637 1.369 . S
C636 C638 1.419 . S
C636 H640 0.930 . S
C637 C636 1.369 . S
C637 C646 1.429 . S
C638 C636 1.419 . S
C638 C639 1.363 . S
C638 H641 0.929 . S
C639 C638 1.363 . S
C639 C645 1.428 . S
H640 C636 0.930 . S
H641 C638 0.929 . S
S642 N643 1.613 . S
S642 N644 1.610 . S
N643 S642 1.613 . S
N643 C646 1.350 . S
N644 S642 1.610 . S
N644 C645 1.351 . S
C645 C639 1.428 . S
C645 N644 1.351 . S
C645 C646 1.434 . S
C646 C637 1.429 . S
C646 N643 1.350 . S
C646 C645 1.434 . S
C647 C648 1.369 . S
C647 C649 1.419 . S
C647 H651 0.930 . S
C648 C647 1.369 . S
C648 C657 1.429 . S
C649 C647 1.419 . S
C649 C650 1.363 . S
C649 H652 0.929 . S
C650 C649 1.363 . S
C650 C656 1.428 . S
H651 C647 0.930 . S
H652 C649 0.929 . S
S653 N654 1.613 . S
S653 N655 1.610 . S
N654 S653 1.613 . S
N654 C657 1.350 . S
N655 S653 1.610 . S
N655 C656 1.351 . S
C656 C650 1.428 . S
C656 N655 1.351 . S
C656 C657 1.434 . S
C657 C648 1.429 . S
C657 N654 1.350 . S
C657 C656 1.434 . S
C658 C659 1.369 . S
C658 C660 1.419 . S
C658 H662 0.930 . S
C659 C658 1.369 . S
C659 C668 1.429 . S
C660 C658 1.419 . S
C660 C661 1.363 . S
C660 H663 0.929 . S
C661 C660 1.363 . S
C661 C667 1.428 . S
H662 C658 0.930 . S
H663 C660 0.929 . S
S664 N665 1.613 . S
S664 N666 1.610 . S
N665 S664 1.613 . S
N665 C668 1.350 . S
N666 S664 1.610 . S
N666 C667 1.351 . S
C667 C661 1.428 . S
C667 N666 1.351 . S
C667 C668 1.434 . S
C668 C659 1.429 . S
C668 N665 1.350 . S
C668 C667 1.434 . S
C669 C670 1.369 . S
C669 C671 1.419 . S
C669 H673 0.930 . S
C670 C669 1.369 . S
C670 C679 1.429 . S
C671 C669 1.419 . S
C671 C672 1.363 . S
C671 H674 0.929 . S
C672 C671 1.363 . S
C672 C678 1.428 . S
H673 C669 0.930 . S
H674 C671 0.929 . S
S675 N676 1.613 . S
S675 N677 1.610 . S
N676 S675 1.613 . S
N676 C679 1.350 . S
N677 S675 1.610 . S
N677 C678 1.351 . S
C678 C672 1.428 . S
C678 N677 1.351 . S
C678 C679 1.434 . S
C679 C670 1.429 . S
C679 N676 1.350 . S
C679 C678 1.434 . S
C417 C215 2.749 . S
C419 C287 2.955 . S
C430 C313 2.645 . S
C428 C247 2.297 . S
C441 C353 2.570 . S
C439 C151 2.310 . S
C452 C407 2.886 . S
C450 C183 2.709 . S
C463 C268 2.958 . S
C461 C87 2.686 . S
C472 C119 2.376 . S
C474 C298 2.643 . S
C483 C23 2.267 . S
C485 C338 2.570 . S
C494 C55 2.627 . S
C496 C388 2.888 . S
C507 C264 0.854 . S
C505 C189 0.876 . S
C518 C325 0.939 . S
C516 C221 1.018 . S
C529 C365 0.693 . S
C527 C253 0.672 . S
C538 C157 0.708 . S
C540 C384 0.739 . S
C549 C61 0.809 . S
C551 C285 0.839 . S
C562 C304 0.955 1_554 S
C560 C93 0.861 . S
C573 C344 0.695 . S
C571 C125 0.696 . S
C582 C29 0.723 . S
C584 C405 0.739 . S
C593 C177 2.593 . S
C595 C258 2.983 . S
C604 C209 3.019 . S
C606 C308 3.364 . S
C617 C348 3.161 . S
C615 C241 2.771 . S
C628 C378 2.750 . S
C626 C145 2.372 . S
C637 C49 2.539 . S
C639 C273 2.984 . S
C650 C327 3.363 . S
C648 C81 3.002 . S
C661 C367 3.161 . S
C659 C113 2.868 . S
C670 C17 2.353 . S
C672 C393 2.750 . S
