# Generated by pormake.
# Topology pth, (4,4)-cn, num edge types: 1
# Building blocks:
#     Node 0, Type 0, BuildingBlock: QUQFOY_clean_sbu_3, # of connection points: 4
#     Node 1, Type 0, BuildingBlock: QUQFOY_clean_sbu_3, # of connection points: 4
#     Node 2, Type 0, BuildingBlock: QUQFOY_clean_sbu_3, # of connection points: 4
#     Node 3, Type 1, BuildingBlock: MUDLON_clean_linker_0, # of connection points: 4
#     Node 4, Type 1, BuildingBlock: MUDLON_clean_linker_0, # of connection points: 4
#     Node 5, Type 1, BuildingBlock: MUDLON_clean_linker_0, # of connection points: 4
#     Edge 6, Type (0, 1), BuildingBlock: CIFDUS_clean_linker_0, # of connection points: 2
#     Edge 7, Type (0, 1), BuildingBlock: CIFDUS_clean_linker_0, # of connection points: 2
#     Edge 8, Type (0, 1), BuildingBlock: CIFDUS_clean_linker_0, # of connection points: 2
#     Edge 9, Type (0, 1), BuildingBlock: CIFDUS_clean_linker_0, # of connection points: 2
#     Edge 10, Type (0, 1), BuildingBlock: CIFDUS_clean_linker_0, # of connection points: 2
#     Edge 11, Type (0, 1), BuildingBlock: CIFDUS_clean_linker_0, # of connection points: 2
#     Edge 12, Type (0, 1), BuildingBlock: CIFDUS_clean_linker_0, # of connection points: 2
#     Edge 13, Type (0, 1), BuildingBlock: CIFDUS_clean_linker_0, # of connection points: 2
#     Edge 14, Type (0, 1), BuildingBlock: CIFDUS_clean_linker_0, # of connection points: 2
#     Edge 15, Type (0, 1), BuildingBlock: CIFDUS_clean_linker_0, # of connection points: 2
#     Edge 16, Type (0, 1), BuildingBlock: CIFDUS_clean_linker_0, # of connection points: 2
#     Edge 17, Type (0, 1), BuildingBlock: CIFDUS_clean_linker_0, # of connection points: 2
# Relax obj value: 0.039
# Max RMSD: 0.098
# Mean RMSD: 0.090
data_MOF--net-pth--node1-QUQFOY_clean_sbu_3--node2-MUDLON_clean_linker_0--edge1-CIFDUS_clean_linker_0
_symmetry_space_group_name_H-M    P1
_symmetry_Int_Tables_number       1
_symmetry_cell_setting            triclinic
loop_
_symmetry_equiv_pos_as_xyz
'x, y, z'
_cell_length_a     30.746429
_cell_length_b     30.49591
_cell_length_c     63.841013
_cell_angle_alpha  89.999009
_cell_angle_beta   90.724891
_cell_angle_gamma 120.61578
loop_
_atom_site_label
_atom_site_type_symbol
_atom_site_fract_x
_atom_site_fract_y
_atom_site_fract_z
_atom_type_partial_charge
C0 C 0.96541 0.09559 0.05564 0.0
O1 O 0.93403 0.08822 0.04103 0.0
Cd2 Cd 0.94498 0.05791 0.008 0.0
O3 O 0.99512 0.07822 0.054 0.0
Cd4 Cd 0.01059 0.02246 0.03087 0.0
C5 C 0.07558 0.12897 0.00382 0.0
O6 O 0.93242 0.97372 0.00987 0.0
O7 O 0.00103 0.97979 -0.00201 0.0
O8 O 0.98166 0.96093 0.05852 0.0
C9 C 0.95352 0.96016 -0.00362 0.0
O10 O 0.0317 0.12093 -0.00082 0.0
C11 C 0.02077 0.95708 0.0599 0.0
O12 O 0.08154 0.09875 0.01567 0.0
O13 O 0.05737 0.98559 0.04803 0.0
C14 C 0.11304 0.02128 0.39024 0.0
O15 O 0.1416 0.04806 0.37549 0.0
Cd16 Cd 0.11239 0.07261 0.34507 0.0
O17 O 0.0662 0.00706 0.38995 0.0
Cd18 Cd 0.00259 0.01427 0.36837 0.0
C19 C 0.02132 0.95202 0.32846 0.0
O20 O 0.05958 0.10238 0.35807 0.0
O21 O 0.9844 0.06628 0.34467 0.0
O22 O 0.96856 0.01688 0.40226 0.0
C23 C 0.02794 0.1056 0.34626 0.0
O24 O 0.06367 0.99272 0.32587 0.0
C25 C 0.92249 0.98847 0.39687 0.0
O26 O 0.99224 0.9486 0.34322 0.0
O27 O 0.91353 0.9709 0.37828 0.0
C28 C 0.96392 0.0939 0.67355 0.0
O29 O 0.96564 0.11923 0.68966 0.0
Cd30 Cd 0.01201 0.12568 0.72117 0.0
O31 O 0.98724 0.06929 0.67328 0.0
Cd32 Cd 0.04149 0.05068 0.69625 0.0
C33 C 0.95101 0.99822 0.73363 0.0
O34 O 0.09093 0.13709 0.71003 0.0
O35 O 0.10906 0.08294 0.72291 0.0
O36 O 0.08199 0.05114 0.66374 0.0
C37 C 0.1178 0.12825 0.72254 0.0
O38 O 0.96104 0.04336 0.73764 0.0
C39 C 0.08403 0.01137 0.6676 0.0
O40 O 0.97291 0.98945 0.71875 0.0
O41 O 0.06529 0.98897 0.68476 0.0
H42 H 0.89377 0.66588 0.21045 0.0
N43 N 0.95706 0.64302 0.19238 0.0
H44 H 0.91281 0.72754 0.23871 0.0
H45 H 0.04419 0.6897 0.21627 0.0
H46 H 0.06294 0.74981 0.24488 0.0
H47 H 0.04308 0.73135 0.1812 0.0
H48 H 0.04996 0.78704 0.15254 0.0
H49 H 0.89166 0.62077 0.1609 0.0
H50 H 0.89894 0.67555 0.13151 0.0
H51 H 0.90377 0.54943 0.20723 0.0
H52 H 0.04662 0.65324 0.17906 0.0
H53 H 0.92891 0.48544 0.21034 0.0
H54 H 0.07133 0.58913 0.18138 0.0
H55 H 0.97516 0.32595 0.22628 0.0
H56 H 0.96501 0.27856 0.258 0.0
H57 H 0.12771 0.34938 0.26378 0.0
H58 H 0.13658 0.39204 0.23043 0.0
H59 H 0.13052 0.39601 0.17635 0.0
H60 H 0.11897 0.33919 0.14686 0.0
H61 H 0.96483 0.23764 0.16545 0.0
H62 H 0.97631 0.29387 0.19446 0.0
H63 H 0.9688 0.3654 0.19421 0.0
H64 H 0.94393 0.42879 0.18998 0.0
H65 H 0.09549 0.54753 0.20698 0.0
N66 N 0.06357 0.38358 0.2051 0.0
H67 H 0.12059 0.48348 0.21048 0.0
C68 C 0.96725 0.67302 0.21123 0.0
C69 C 0.93039 0.6834 0.21823 0.0
C70 C 0.94134 0.71851 0.23441 0.0
C71 C 0.98956 0.74392 0.24394 0.0
C72 C 0.0257 0.73151 0.23763 0.0
C73 C 0.01481 0.69664 0.22137 0.0
C74 C 0.96629 0.672 0.17339 0.0
C75 C 0.01169 0.71838 0.17027 0.0
C76 C 0.01574 0.75021 0.15373 0.0
C77 C 0.97469 0.73619 0.13991 0.0
C78 C 0.93085 0.68804 0.14216 0.0
C79 C 0.92673 0.65645 0.1588 0.0
C80 C 0.97283 0.60585 0.19279 0.0
C81 C 0.94026 0.55808 0.20147 0.0
C82 C 0.95465 0.52155 0.20312 0.0
C83 C 0.00212 0.53205 0.19604 0.0
C84 C 0.03474 0.57997 0.18721 0.0
C85 C 0.02037 0.61661 0.18566 0.0
C86 C 0.05669 0.36116 0.22555 0.0
C87 C 0.00862 0.33072 0.23415 0.0
C88 C 0.003 0.30427 0.25272 0.0
C89 C 0.04547 0.30913 0.2636 0.0
C90 C 0.09382 0.34285 0.25564 0.0
C91 C 0.09918 0.36793 0.23668 0.0
C92 C 0.05458 0.34975 0.18765 0.0
C93 C 0.09424 0.36158 0.17395 0.0
C94 C 0.08765 0.32901 0.15723 0.0
C95 C 0.04093 0.284 0.15386 0.0
C96 C 0.00105 0.27237 0.16748 0.0
C97 C 0.00777 0.30472 0.18423 0.0
C98 C 0.04697 0.41976 0.20254 0.0
C99 C 0.99691 0.4049 0.19693 0.0
C100 C 0.98254 0.44136 0.19466 0.0
C101 C 0.01768 0.49335 0.19812 0.0
C102 C 0.06762 0.50797 0.20384 0.0
C103 C 0.08199 0.47148 0.206 0.0
H104 H 0.77645 0.12713 0.53719 0.0
N105 N 0.68367 0.04946 0.52992 0.0
H106 H 0.82894 0.14379 0.56887 0.0
H107 H 0.65302 0.9973 0.56729 0.0
H108 H 0.70461 0.01525 0.59896 0.0
H109 H 0.70109 0.97049 0.53539 0.0
H110 H 0.74435 0.94445 0.51077 0.0
H111 H 0.70468 0.07731 0.4902 0.0
H112 H 0.74674 0.05037 0.46528 0.0
H113 H 0.63758 0.10279 0.52864 0.0
H114 H 0.60875 0.94932 0.53326 0.0
H115 H 0.54702 0.0711 0.53062 0.0
H116 H 0.51817 0.91718 0.53596 0.0
H117 H 0.32544 0.01998 0.54156 0.0
H118 H 0.27983 0.03977 0.56692 0.0
H119 H 0.2014 0.883 0.58727 0.0
H120 H 0.24966 0.86404 0.56229 0.0
H121 H 0.23043 0.86321 0.51168 0.0
H122 H 0.19957 0.88166 0.47921 0.0
H123 H 0.33433 0.03072 0.4775 0.0
H124 H 0.36512 0.01177 0.50962 0.0
H125 H 0.39145 0.00865 0.55527 0.0
H126 H 0.47978 0.03485 0.55499 0.0
H127 H 0.44598 0.90513 0.51603 0.0
N128 N 0.31348 0.926 0.53356 0.0
H129 H 0.35616 0.87765 0.51685 0.0
C130 C 0.71066 0.06144 0.54976 0.0
C131 C 0.76032 0.10303 0.55073 0.0
C132 C 0.7902 0.11239 0.56872 0.0
C133 C 0.77045 0.08085 0.58622 0.0
C134 C 0.72027 0.04031 0.58565 0.0
C135 C 0.69074 0.03019 0.56749 0.0
C136 C 0.70051 0.02664 0.51468 0.0
C137 C 0.7102 0.98756 0.52002 0.0
C138 C 0.73489 0.9727 0.50597 0.0
C139 C 0.7491 0.99568 0.48623 0.0
C140 C 0.73591 0.03186 0.48036 0.0
C141 C 0.71206 0.04735 0.49454 0.0
C142 C 0.62985 0.02864 0.53076 0.0
C143 C 0.61155 0.06224 0.53015 0.0
C144 C 0.55986 0.04402 0.53149 0.0
C145 C 0.52525 0.99156 0.53365 0.0
C146 C 0.54367 0.95773 0.53411 0.0
C147 C 0.59549 0.97605 0.53261 0.0
C148 C 0.29146 0.94037 0.55015 0.0
C149 C 0.29926 0.98994 0.55171 0.0
C150 C 0.27253 0.00111 0.56611 0.0
C151 C 0.23628 0.96284 0.57897 0.0
C152 C 0.22934 0.91357 0.57777 0.0
C153 C 0.25681 0.90259 0.56351 0.0
C154 C 0.29989 0.93583 0.51309 0.0
C155 C 0.25361 0.89943 0.50403 0.0
C156 C 0.23594 0.91021 0.48563 0.0
C157 C 0.26437 0.95781 0.47591 0.0
C158 C 0.31178 0.99355 0.4845 0.0
C159 C 0.32936 0.98277 0.50293 0.0
C160 C 0.3662 0.94076 0.53587 0.0
C161 C 0.40208 0.98513 0.54673 0.0
C162 C 0.45331 0.00057 0.54648 0.0
C163 C 0.47024 0.97259 0.53524 0.0
C164 C 0.43433 0.92745 0.52499 0.0
C165 C 0.38297 0.91174 0.52539 0.0
H166 H 0.70279 0.75748 0.86402 0.0
N167 N 0.70085 0.66795 0.85617 0.0
H168 H 0.7416 0.81342 0.89435 0.0
H169 H 0.74714 0.65405 0.8886 0.0
H170 H 0.7869 0.71056 0.91899 0.0
H171 H 0.78244 0.67636 0.8387 0.0
H172 H 0.82853 0.72898 0.80872 0.0
H173 H 0.66708 0.71532 0.82907 0.0
H174 H 0.71214 0.76678 0.79918 0.0
H175 H 0.62273 0.68711 0.85892 0.0
H176 H 0.65825 0.5675 0.85675 0.0
H177 H 0.53384 0.6246 0.86155 0.0
H178 H 0.56899 0.50404 0.86124 0.0
H179 H 0.24953 0.3966 0.89098 0.0
H180 H 0.21319 0.34097 0.92105 0.0
H181 H 0.33927 0.31541 0.92253 0.0
H182 H 0.37397 0.36928 0.89176 0.0
H183 H 0.30733 0.31831 0.86015 0.0
H184 H 0.26361 0.27019 0.82892 0.0
H185 H 0.25924 0.40056 0.80486 0.0
H186 H 0.30023 0.44755 0.83718 0.0
H187 H 0.38337 0.5081 0.88698 0.0
H188 H 0.47376 0.5689 0.8844 0.0
H189 H 0.48961 0.4615 0.84566 0.0
N190 N 0.33097 0.41585 0.86994 0.0
H191 H 0.40044 0.39988 0.84982 0.0
C192 C 0.72192 0.70126 0.87411 0.0
C193 C 0.72027 0.74637 0.87604 0.0
C194 C 0.74243 0.77839 0.89341 0.0
C195 C 0.76718 0.76625 0.90898 0.0
C196 C 0.7683 0.72092 0.90712 0.0
C197 C 0.74564 0.68866 0.88987 0.0
C198 C 0.72145 0.69179 0.83635 0.0
C199 C 0.76638 0.6951 0.82981 0.0
C200 C 0.79255 0.72504 0.81266 0.0
C201 C 0.77418 0.75244 0.80174 0.0
C202 C 0.72761 0.74671 0.80751 0.0
C203 C 0.70153 0.71684 0.82466 0.0
C204 C 0.64737 0.63194 0.85707 0.0
C205 C 0.61154 0.64734 0.85882 0.0
C206 C 0.56035 0.61125 0.86079 0.0
C207 C 0.54379 0.55894 0.86175 0.0
C208 C 0.57989 0.54376 0.86015 0.0
C209 C 0.63102 0.57993 0.85769 0.0
C210 C 0.31442 0.38748 0.88919 0.0
C211 C 0.26961 0.37955 0.89802 0.0
C212 C 0.24916 0.34797 0.91532 0.0
C213 C 0.27344 0.32381 0.92437 0.0
C214 C 0.31933 0.333 0.91587 0.0
C215 C 0.33954 0.3643 0.89838 0.0
C216 C 0.30617 0.38649 0.85125 0.0
C217 C 0.29646 0.33652 0.84836 0.0
C218 C 0.27205 0.30916 0.83021 0.0
C219 C 0.25789 0.3314 0.81422 0.0
C220 C 0.26871 0.38181 0.81695 0.0
C221 C 0.29238 0.40887 0.83533 0.0
C222 C 0.38481 0.44995 0.86834 0.0
C223 C 0.40663 0.49777 0.87808 0.0
C224 C 0.45825 0.53262 0.87636 0.0
C225 C 0.48921 0.52068 0.86449 0.0
C226 C 0.46734 0.47211 0.85508 0.0
C227 C 0.41589 0.43686 0.85722 0.0
H228 H 0.04239 0.13818 0.08413 0.0
H229 H 0.89939 0.12524 0.0682 0.0
H230 H 0.90997 0.18201 0.09735 0.0
H231 H 0.9611 0.23731 0.12669 0.0
H232 H 0.10489 0.25157 0.14195 0.0
H233 H 0.09303 0.19275 0.11349 0.0
C234 C 0.01326 0.14736 0.08712 0.0
C235 C 0.97005 0.12731 0.07404 0.0
C236 C 0.02001 0.18069 0.10363 0.0
C237 C 0.933 0.14012 0.07803 0.0
C238 C 0.93907 0.17265 0.09466 0.0
C239 C 0.98964 0.22721 0.12386 0.0
C240 C 0.03382 0.24878 0.13639 0.0
C241 C 0.9826 0.19346 0.10746 0.0
C242 C 0.07084 0.23596 0.13237 0.0
C243 C 0.06393 0.20209 0.11619 0.0
H244 H 0.92726 0.99532 0.43922 0.0
H245 H 0.82577 0.96175 0.38648 0.0
H246 H 0.76116 0.9576 0.40974 0.0
H247 H 0.73643 0.97078 0.44477 0.0
H248 H 0.83724 0.00162 0.4975 0.0
H249 H 0.89897 -0.00107 0.47463 0.0
C250 C 0.89078 0.98656 0.43287 0.0
C251 C 0.88144 0.97946 0.41118 0.0
C252 C 0.85378 0.98386 0.44633 0.0
C253 C 0.83383 0.96743 0.40315 0.0
C254 C 0.79697 0.96527 0.41642 0.0
C255 C 0.77168 0.97623 0.45121 0.0
C256 C 0.7825 0.9866 0.47271 0.0
C257 C 0.80694 0.9745 0.43797 0.0
C258 C 0.82802 0.99321 0.481 0.0
C259 C 0.86345 0.99204 0.46792 0.0
H260 H 0.92763 0.89871 0.73384 0.0
H261 H 0.88985 0.0028 0.7629 0.0
H262 H 0.83029 0.9353 0.78552 0.0
H263 H 0.79168 0.84831 0.79829 0.0
H264 H 0.82903 0.74327 0.77018 0.0
H265 H 0.88615 0.80964 0.74603 0.0
C266 C 0.90615 0.90653 0.74504 0.0
C267 C 0.91351 0.95593 0.74668 0.0
C268 C 0.872 0.86746 0.75823 0.0
C269 C 0.88534 0.96533 0.76132 0.0
C270 C 0.85112 0.92671 0.77429 0.0
C271 C 0.81155 0.83956 0.78662 0.0
C272 C 0.80587 0.79086 0.78593 0.0
C273 C 0.84448 0.87784 0.77301 0.0
C274 C 0.83293 0.78058 0.77106 0.0
C275 C 0.86551 0.81847 0.75725 0.0
H276 H 0.9442 0.88811 0.08345 0.0
H277 H 0.09931 0.94053 0.06806 0.0
H278 H 0.09856 0.87565 0.091 0.0
H279 H 0.05318 0.80373 0.11543 0.0
H280 H 0.89827 0.75369 0.1306 0.0
H281 H 0.89942 0.81732 0.10733 0.0
C282 C 0.97803 0.88561 0.08512 0.0
C283 C 0.02184 0.9193 0.07413 0.0
C284 C 0.97715 0.84819 0.09812 0.0
C285 C 0.06514 0.91517 0.07641 0.0
C286 C 0.06466 0.87801 0.08948 0.0
C287 C 0.01974 0.80684 0.11366 0.0
C288 C 0.97556 0.77351 0.12466 0.0
C289 C 0.0208 0.84425 0.10041 0.0
C290 C 0.93244 0.77789 0.12203 0.0
C291 C 0.93318 0.8147 0.10888 0.0
H292 H 0.20852 0.0376 0.39453 0.0
H293 H 0.06452 0.96939 0.42544 0.0
H294 H 0.09837 0.9427 0.45423 0.0
H295 H 0.16897 0.93988 0.47097 0.0
H296 H 0.31283 0.00723 0.44017 0.0
H297 H 0.2789 0.03338 0.41103 0.0
C298 C 0.18451 0.01696 0.40756 0.0
C299 C 0.13405 0.00567 0.40779 0.0
C300 C 0.20415 0.00155 0.42409 0.0
C301 C 0.10349 0.97868 0.42481 0.0
C302 C 0.12279 0.96333 0.44131 0.0
C303 C 0.1927 0.95962 0.45773 0.0
C304 C 0.24327 0.97142 0.45769 0.0
C305 C 0.17301 0.97455 0.4411 0.0
C306 C 0.27386 0.998 0.44064 0.0
C307 C 0.25445 0.01284 0.42396 0.0
H308 H 0.11413 0.20931 0.73767 0.0
H309 H 0.19865 0.13203 0.74205 0.0
H310 H 0.25254 0.19127 0.76958 0.0
H311 H 0.27265 0.2619 0.79348 0.0
H312 H 0.18214 0.33332 0.79173 0.0
H313 H 0.13461 0.28052 0.76169 0.0
C314 C 0.14476 0.20591 0.7445 0.0
C315 C 0.15259 0.16655 0.73788 0.0
C316 C 0.1745 0.23905 0.76077 0.0
C317 C 0.19192 0.16203 0.74698 0.0
C318 C 0.22267 0.19583 0.76271 0.0
C319 C 0.24223 0.26572 0.78672 0.0
C320 C 0.23097 0.30148 0.79506 0.0
C321 C 0.2137 0.23388 0.76997 0.0
C322 C 0.19227 0.30669 0.78557 0.0
C323 C 0.16466 0.27613 0.76847 0.0
H324 H 0.88327 0.10744 0.67255 0.0
H325 H 0.97724 0.07621 0.63299 0.0
H326 H 0.92717 0.07237 0.60226 0.0
H327 H 0.85531 0.07577 0.58675 0.0
H328 H 0.75745 0.10035 0.62652 0.0
H329 H 0.81041 0.10916 0.65714 0.0
C330 C 0.89293 0.10011 0.65718 0.0
C331 C 0.93397 0.09234 0.655 0.0
C332 C 0.86326 0.09675 0.63968 0.0
C333 C 0.94569 0.08216 0.63505 0.0
C334 C 0.91717 0.08006 0.61748 0.0
C335 C 0.84603 0.08349 0.60214 0.0
C336 C 0.80314 0.08795 0.60453 0.0
C337 C 0.87576 0.08704 0.61963 0.0
C338 C 0.79056 0.097 0.62447 0.0
C339 C 0.82075 0.10198 0.6419 0.0
H340 H 0.85556 0.92387 0.98426 0.0
H341 H 0.98669 0.91224 0.97097 0.0
H342 H 0.94004 0.85024 0.94328 0.0
H343 H 0.86272 0.80024 0.92243 0.0
H344 H 0.73199 0.81306 0.93448 0.0
H345 H 0.77773 0.87383 0.963 0.0
C346 C 0.87379 0.90763 0.97532 0.0
C347 C 0.92446 0.9226 0.97968 0.0
C348 C 0.84689 0.8723 0.95919 0.0
C349 C 0.94775 0.9015 0.96789 0.0
C350 C 0.92111 0.86595 0.95207 0.0
C351 C 0.84413 0.81598 0.93147 0.0
C352 C 0.79408 0.80206 0.92654 0.0
C353 C 0.87076 0.85117 0.94756 0.0
C354 C 0.77064 0.82343 0.93802 0.0
C355 C 0.79671 0.85803 0.95432 0.0
H356 H 0.07802 0.94496 0.29798 0.0
H357 H 0.93266 0.8596 0.32743 0.0
H358 H 0.91045 0.78697 0.30431 0.0
H359 H 0.93248 0.74798 0.27558 0.0
H360 H 0.07764 0.83522 0.24612 0.0
H361 H 0.10001 0.90647 0.26974 0.0
C362 C 0.04136 0.91058 0.29938 0.0
C363 C 0.00702 0.90791 0.3144 0.0
C364 C 0.02896 0.86907 0.28615 0.0
C365 C 0.95983 0.86281 0.31599 0.0
C366 C 0.94712 0.82122 0.30279 0.0
C367 C 0.96893 0.78265 0.2743 0.0
C368 C 0.00341 0.78602 0.25916 0.0
C369 C 0.9814 0.82397 0.28779 0.0
C370 C 0.05072 0.83109 0.25787 0.0
C371 C 0.0634 0.87211 0.27124 0.0
H372 H 0.1107 0.04088 0.62755 0.0
H373 H 0.11344 0.94188 0.67516 0.0
H374 H 0.16018 0.91729 0.65187 0.0
H375 H 0.20376 0.92727 0.61853 0.0
H376 H 0.19683 0.02356 0.57057 0.0
H377 H 0.14892 0.04633 0.5936 0.0
C378 C 0.12132 0.01374 0.63282 0.0
C379 C 0.10895 0.99351 0.65308 0.0
C380 C 0.14793 -0.00032 0.61936 0.0
C381 C 0.12253 0.95801 0.6596 0.0
C382 C 0.1494 0.94407 0.64633 0.0
C383 C 0.19125 0.95271 0.613 0.0
C384 C 0.2048 0.97429 0.59292 0.0
C385 C 0.16277 0.96509 0.62623 0.0
C386 C 0.18834 0.00744 0.58613 0.0
C387 C 0.16048 0.0202 0.59923 0.0
H388 H 0.15154 0.13159 0.98172 0.0
H389 H 0.09502 0.22563 0.00483 0.0
H390 H 0.15752 0.29762 0.98444 0.0
H391 H 0.22074 0.33026 0.957 0.0
H392 H 0.27011 0.23299 0.93039 0.0
H393 H 0.21941 0.16664 0.95552 0.0
C394 C 0.154 0.16831 0.98262 0.0
C395 C 0.11922 0.17375 0.99472 0.0
C396 C 0.18849 0.20881 0.97008 0.0
C397 C 0.12172 0.22096 0.99558 0.0
C398 C 0.15723 0.26194 0.98388 0.0
C399 C 0.22052 0.29459 0.95667 0.0
C400 C 0.24874 0.28656 0.94158 0.0
C401 C 0.18955 0.25573 0.97052 0.0
C402 C 0.24908 0.24056 0.94187 0.0
C403 C 0.21965 0.20228 0.95613 0.0
H404 H 0.97365 0.15053 0.33763 0.0
H405 H 0.1146 0.15855 0.32441 0.0
H406 H 0.13376 0.22412 0.29806 0.0
H407 H 0.10627 0.27245 0.27677 0.0
H408 H 0.97004 0.27238 0.29302 0.0
H409 H 0.9529 0.20968 0.32004 0.0
C410 C 0.00883 0.16728 0.32913 0.0
C411 C 0.0425 0.14972 0.33267 0.0
C412 C 0.02003 0.20564 0.3144 0.0
C413 C 0.08827 0.17179 0.32188 0.0
C414 C 0.09904 0.20899 0.30677 0.0
C415 C 0.07351 0.26021 0.2865 0.0
C416 C 0.03897 0.27672 0.28225 0.0
C417 C 0.06469 0.22547 0.30263 0.0
C418 C 0.9965 0.25924 0.29517 0.0
C419 C 0.98679 0.22362 0.31085 0.0
loop_
_geom_bond_atom_site_label_1
_geom_bond_atom_site_label_2
_geom_bond_distance
_geom_bond_site_symmetry_2
_ccdc_geom_bond_type
C0 O1 1.306 1_455 S
C0 O3 1.160 . S
O1 C0 1.306 1_655 S
O1 Cd2 2.228 . S
Cd2 O1 2.228 . S
Cd2 O6 2.273 1_545 S
Cd2 O10 2.277 1_655 S
O3 C0 1.160 . S
O3 Cd4 2.203 . S
Cd4 O3 2.203 . S
Cd4 O6 2.411 1_445 S
Cd4 O7 2.333 1_445 S
Cd4 O8 2.352 1_445 S
Cd4 O12 2.277 . S
Cd4 O13 2.356 1_545 S
C5 O10 1.209 . S
C5 O12 1.226 . S
O6 Cd2 2.273 1_565 S
O6 Cd4 2.411 1_665 S
O6 C9 1.320 . S
O7 Cd4 2.333 1_665 S
O7 C9 1.214 . S
O8 Cd4 2.352 1_665 S
O8 C11 1.258 1_655 S
C9 O6 1.320 . S
C9 O7 1.214 . S
O10 Cd2 2.277 1_455 S
O10 C5 1.209 . S
C11 O8 1.258 1_455 S
C11 O13 1.282 . S
O12 Cd4 2.277 . S
O12 C5 1.226 . S
O13 Cd4 2.356 1_565 S
O13 C11 1.282 . S
C14 O15 1.306 . S
C14 O17 1.160 1_545 S
O15 C14 1.306 . S
O15 Cd16 2.228 . S
Cd16 O15 2.228 . S
Cd16 O20 2.273 . S
Cd16 O24 2.277 1_545 S
O17 C14 1.160 1_565 S
O17 Cd18 2.203 1_465 S
Cd18 O17 2.203 1_645 S
Cd18 O20 2.411 1_655 S
Cd18 O21 2.333 . S
Cd18 O22 2.352 . S
Cd18 O26 2.277 1_545 S
Cd18 O27 2.356 1_545 S
C19 O24 1.209 . S
C19 O26 1.226 1_455 S
O20 Cd16 2.273 . S
O20 Cd18 2.411 1_455 S
O20 C23 1.320 . S
O21 Cd18 2.333 . S
O21 C23 1.214 1_655 S
O22 Cd18 2.352 . S
O22 C25 1.258 . S
C23 O20 1.320 . S
C23 O21 1.214 1_455 S
O24 Cd16 2.277 1_565 S
O24 C19 1.209 . S
C25 O22 1.258 . S
C25 O27 1.282 1_545 S
O26 Cd18 2.277 1_565 S
O26 C19 1.226 1_655 S
O27 Cd18 2.356 1_565 S
O27 C25 1.282 1_565 S
C28 O29 1.306 . S
C28 O31 1.160 1_545 S
O29 C28 1.306 . S
O29 Cd30 2.228 . S
Cd30 O29 2.228 . S
Cd30 O34 2.273 1_655 S
Cd30 O38 2.277 1_545 S
O31 C28 1.160 1_565 S
O31 Cd32 2.203 1_665 S
Cd32 O31 2.203 1_445 S
Cd32 O34 2.411 . S
Cd32 O35 2.333 . S
Cd32 O36 2.352 . S
Cd32 O40 2.277 1_445 S
Cd32 O41 2.356 1_545 S
C33 O38 1.209 . S
C33 O40 1.226 . S
O34 Cd30 2.273 1_455 S
O34 Cd32 2.411 . S
O34 C37 1.320 . S
O35 Cd32 2.333 . S
O35 C37 1.214 . S
O36 Cd32 2.352 . S
O36 C39 1.258 . S
C37 O34 1.320 . S
C37 O35 1.214 . S
O38 Cd30 2.277 1_565 S
O38 C33 1.209 . S
C39 O36 1.258 . S
C39 O41 1.282 1_545 S
O40 Cd32 2.277 1_665 S
O40 C33 1.226 . S
O41 Cd32 2.356 1_565 S
O41 C39 1.282 1_565 S
H42 C69 0.929 . S
N43 C68 1.433 . S
N43 C74 1.435 . S
N43 C80 1.423 . S
H44 C70 0.930 1_655 S
H45 C73 0.931 . S
H46 C72 0.929 . S
H47 C75 0.930 . S
H48 C76 0.932 . S
H49 C79 0.929 . S
H50 C78 0.938 . S
H51 C81 0.929 . S
H52 C85 0.932 . S
H53 C82 0.931 . S
H54 C84 0.929 . S
H55 C87 0.929 . S
H56 C88 0.930 1_655 S
H57 C90 0.929 . S
H58 C91 0.931 . S
H59 C93 0.930 . S
H60 C94 0.932 . S
H61 C96 0.940 . S
H62 C97 0.929 . S
H63 C99 0.929 . S
H64 C100 0.931 . S
H65 C102 0.929 . S
N66 C86 1.433 . S
N66 C92 1.435 . S
N66 C98 1.423 . S
H67 C103 0.932 . S
C68 N43 1.433 . S
C68 C69 1.363 1_455 S
C68 C73 1.370 . S
C69 H42 0.929 . S
C69 C68 1.363 1_655 S
C69 C70 1.385 1_655 S
C70 H44 0.930 1_455 S
C70 C69 1.385 1_455 S
C70 C71 1.357 . S
C71 C70 1.357 . S
C71 C72 1.406 . S
C72 H46 0.929 . S
C72 C71 1.406 . S
C72 C73 1.391 . S
C73 H45 0.931 . S
C73 C68 1.370 . S
C73 C72 1.391 . S
C74 N43 1.435 . S
C74 C75 1.358 . S
C74 C79 1.371 1_455 S
C75 H47 0.930 . S
C75 C74 1.358 . S
C75 C76 1.405 . S
C76 H48 0.932 . S
C76 C75 1.405 . S
C76 C77 1.383 . S
C77 C76 1.383 . S
C77 C78 1.389 1_455 S
C78 H50 0.938 . S
C78 C77 1.389 1_655 S
C78 C79 1.379 . S
C79 H49 0.929 . S
C79 C74 1.371 1_655 S
C79 C78 1.379 . S
C80 N43 1.423 . S
C80 C81 1.362 1_455 S
C80 C85 1.388 . S
C81 H51 0.929 . S
C81 C80 1.362 1_655 S
C81 C82 1.376 . S
C82 H53 0.931 . S
C82 C81 1.376 . S
C82 C83 1.412 . S
C83 C82 1.412 . S
C83 C84 1.343 1_655 S
C83 C101 1.472 . S
C84 H54 0.929 . S
C84 C83 1.343 1_455 S
C84 C85 1.443 . S
C85 H52 0.932 . S
C85 C80 1.388 . S
C85 C84 1.443 . S
C86 N66 1.433 . S
C86 C87 1.363 1_455 S
C86 C91 1.370 . S
C87 H55 0.929 . S
C87 C86 1.363 1_655 S
C87 C88 1.385 1_655 S
C88 H56 0.930 1_455 S
C88 C87 1.385 1_455 S
C88 C89 1.357 . S
C89 C88 1.357 . S
C89 C90 1.406 . S
C90 H57 0.929 . S
C90 C89 1.406 . S
C90 C91 1.391 . S
C91 H58 0.931 . S
C91 C86 1.370 . S
C91 C90 1.391 . S
C92 N66 1.435 . S
C92 C93 1.358 . S
C92 C97 1.371 1_455 S
C93 H59 0.930 . S
C93 C92 1.358 . S
C93 C94 1.405 . S
C94 H60 0.932 . S
C94 C93 1.405 . S
C94 C95 1.383 . S
C95 C94 1.383 . S
C95 C96 1.377 1_455 S
C96 H61 0.940 . S
C96 C95 1.377 1_655 S
C96 C97 1.390 . S
C97 H62 0.929 . S
C97 C92 1.371 1_655 S
C97 C96 1.390 . S
C98 N66 1.423 . S
C98 C99 1.362 1_455 S
C98 C103 1.388 . S
C99 H63 0.929 . S
C99 C98 1.362 1_655 S
C99 C100 1.376 . S
C100 H64 0.931 . S
C100 C99 1.376 . S
C100 C101 1.400 . S
C101 C83 1.472 . S
C101 C100 1.400 . S
C101 C102 1.332 1_655 S
C102 H65 0.929 . S
C102 C101 1.332 1_455 S
C102 C103 1.443 . S
C103 H67 0.932 . S
C103 C98 1.388 . S
C103 C102 1.443 . S
H104 C131 0.929 . S
N105 C130 1.433 . S
N105 C136 1.435 . S
N105 C142 1.423 . S
H106 C132 0.930 . S
H107 C135 0.931 1_565 S
H108 C134 0.929 . S
H109 C137 0.930 . S
H110 C138 0.932 . S
H111 C141 0.929 . S
H112 C140 0.931 . S
H113 C143 0.929 . S
H114 C147 0.932 1_565 S
H115 C144 0.931 . S
H116 C146 0.929 . S
H117 C149 0.929 . S
H118 C150 0.930 . S
H119 C152 0.929 . S
H120 C153 0.931 1_565 S
H121 C155 0.930 . S
H122 C156 0.932 . S
H123 C158 0.931 . S
H124 C159 0.929 . S
H125 C161 0.929 . S
H126 C162 0.931 . S
H127 C164 0.929 . S
N128 C148 1.433 . S
N128 C154 1.435 . S
N128 C160 1.423 . S
H129 C165 0.932 1_565 S
C130 N105 1.433 . S
C130 C131 1.363 . S
C130 C135 1.370 . S
C131 H104 0.929 . S
C131 C130 1.363 . S
C131 C132 1.385 . S
C132 H106 0.930 . S
C132 C131 1.385 . S
C132 C133 1.357 . S
C133 C132 1.357 . S
C133 C134 1.406 1_545 S
C134 H108 0.929 . S
C134 C133 1.406 1_565 S
C134 C135 1.391 1_565 S
C135 H107 0.931 1_545 S
C135 C130 1.370 . S
C135 C134 1.391 1_545 S
C136 N105 1.435 . S
C136 C137 1.358 1_545 S
C136 C141 1.371 . S
C137 H109 0.930 . S
C137 C136 1.358 1_565 S
C137 C138 1.405 . S
C138 H110 0.932 . S
C138 C137 1.405 . S
C138 C139 1.383 1_565 S
C139 C138 1.383 1_545 S
C139 C140 1.393 . S
C140 H112 0.931 . S
C140 C139 1.393 . S
C140 C141 1.382 . S
C141 H111 0.929 . S
C141 C136 1.371 . S
C141 C140 1.382 . S
C142 N105 1.423 . S
C142 C143 1.362 . S
C142 C147 1.388 . S
C143 H113 0.929 . S
C143 C142 1.362 . S
C143 C144 1.376 . S
C144 H115 0.931 . S
C144 C143 1.376 . S
C144 C145 1.396 . S
C145 C144 1.396 . S
C145 C146 1.348 . S
C145 C163 1.472 . S
C146 H116 0.929 . S
C146 C145 1.348 . S
C146 C147 1.443 . S
C147 H114 0.932 1_545 S
C147 C142 1.388 . S
C147 C146 1.443 . S
C148 N128 1.433 . S
C148 C149 1.363 . S
C148 C153 1.370 . S
C149 H117 0.929 . S
C149 C148 1.363 . S
C149 C150 1.385 . S
C150 H118 0.930 . S
C150 C149 1.385 . S
C150 C151 1.357 . S
C151 C150 1.357 . S
C151 C152 1.406 1_545 S
C152 H119 0.929 . S
C152 C151 1.406 1_565 S
C152 C153 1.391 1_565 S
C153 H120 0.931 1_545 S
C153 C148 1.370 . S
C153 C152 1.391 1_545 S
C154 N128 1.435 . S
C154 C155 1.358 1_545 S
C154 C159 1.371 . S
C155 H121 0.930 . S
C155 C154 1.358 1_565 S
C155 C156 1.405 . S
C156 H122 0.932 . S
C156 C155 1.405 . S
C156 C157 1.383 1_565 S
C157 C156 1.383 1_545 S
C157 C158 1.393 . S
C158 H123 0.931 . S
C158 C157 1.393 . S
C158 C159 1.382 . S
C159 H124 0.929 . S
C159 C154 1.371 . S
C159 C158 1.382 . S
C160 N128 1.423 . S
C160 C161 1.362 . S
C160 C165 1.388 . S
C161 H125 0.929 . S
C161 C160 1.362 . S
C161 C162 1.376 . S
C162 H126 0.931 . S
C162 C161 1.376 . S
C162 C163 1.396 . S
C163 C145 1.472 . S
C163 C162 1.396 . S
C163 C164 1.348 . S
C164 H127 0.929 . S
C164 C163 1.348 . S
C164 C165 1.443 . S
C165 H129 0.932 1_545 S
C165 C160 1.388 . S
C165 C164 1.443 . S
H166 C193 0.929 . S
N167 C192 1.433 . S
N167 C198 1.435 . S
N167 C204 1.423 . S
H168 C194 0.930 . S
H169 C197 0.931 . S
H170 C196 0.929 . S
H171 C199 0.930 . S
H172 C200 0.932 . S
H173 C203 0.929 . S
H174 C202 0.931 . S
H175 C205 0.929 . S
H176 C209 0.932 . S
H177 C206 0.931 . S
H178 C208 0.929 . S
H179 C211 0.929 . S
H180 C212 0.930 . S
H181 C214 0.929 . S
H182 C215 0.931 . S
H183 C217 0.930 . S
H184 C218 0.932 . S
H185 C220 0.931 . S
H186 C221 0.929 . S
H187 C223 0.929 . S
H188 C224 0.931 . S
H189 C226 0.929 . S
N190 C210 1.433 . S
N190 C216 1.435 . S
N190 C222 1.423 . S
H191 C227 0.932 . S
C192 N167 1.433 . S
C192 C193 1.363 . S
C192 C197 1.370 . S
C193 H166 0.929 . S
C193 C192 1.363 . S
C193 C194 1.385 . S
C194 H168 0.930 . S
C194 C193 1.385 . S
C194 C195 1.357 . S
C195 C194 1.357 . S
C195 C196 1.406 . S
C196 H170 0.929 . S
C196 C195 1.406 . S
C196 C197 1.391 . S
C197 H169 0.931 . S
C197 C192 1.370 . S
C197 C196 1.391 . S
C198 N167 1.435 . S
C198 C199 1.358 . S
C198 C203 1.371 . S
C199 H171 0.930 . S
C199 C198 1.358 . S
C199 C200 1.405 . S
C200 H172 0.932 . S
C200 C199 1.405 . S
C200 C201 1.383 . S
C201 C200 1.383 . S
C201 C202 1.393 . S
C202 H174 0.931 . S
C202 C201 1.393 . S
C202 C203 1.382 . S
C203 H173 0.929 . S
C203 C198 1.371 . S
C203 C202 1.382 . S
C204 N167 1.423 . S
C204 C205 1.362 . S
C204 C209 1.388 . S
C205 H175 0.929 . S
C205 C204 1.362 . S
C205 C206 1.376 . S
C206 H177 0.931 . S
C206 C205 1.376 . S
C206 C207 1.396 . S
C207 C206 1.396 . S
C207 C208 1.348 . S
C207 C225 1.472 . S
C208 H178 0.929 . S
C208 C207 1.348 . S
C208 C209 1.443 . S
C209 H176 0.932 . S
C209 C204 1.388 . S
C209 C208 1.443 . S
C210 N190 1.433 . S
C210 C211 1.363 . S
C210 C215 1.370 . S
C211 H179 0.929 . S
C211 C210 1.363 . S
C211 C212 1.385 . S
C212 H180 0.930 . S
C212 C211 1.385 . S
C212 C213 1.357 . S
C213 C212 1.357 . S
C213 C214 1.406 . S
C214 H181 0.929 . S
C214 C213 1.406 . S
C214 C215 1.391 . S
C215 H182 0.931 . S
C215 C210 1.370 . S
C215 C214 1.391 . S
C216 N190 1.435 . S
C216 C217 1.358 . S
C216 C221 1.371 . S
C217 H183 0.930 . S
C217 C216 1.358 . S
C217 C218 1.405 . S
C218 H184 0.932 . S
C218 C217 1.405 . S
C218 C219 1.383 . S
C219 C218 1.383 . S
C219 C220 1.393 . S
C220 H185 0.931 . S
C220 C219 1.393 . S
C220 C221 1.382 . S
C221 H186 0.929 . S
C221 C216 1.371 . S
C221 C220 1.382 . S
C222 N190 1.423 . S
C222 C223 1.362 . S
C222 C227 1.388 . S
C223 H187 0.929 . S
C223 C222 1.362 . S
C223 C224 1.376 . S
C224 H188 0.931 . S
C224 C223 1.376 . S
C224 C225 1.396 . S
C225 C207 1.472 . S
C225 C224 1.396 . S
C225 C226 1.348 . S
C226 H189 0.929 . S
C226 C225 1.348 . S
C226 C227 1.443 . S
C227 H191 0.932 . S
C227 C222 1.388 . S
C227 C226 1.443 . S
H228 C234 0.930 . S
H229 C237 0.930 . S
H230 C238 0.930 . S
H231 C239 0.930 . S
H232 C242 0.930 . S
H233 C243 0.930 . S
C234 H228 0.930 . S
C234 C235 1.355 . S
C234 C236 1.415 . S
C235 C234 1.355 . S
C235 C237 1.419 1_455 S
C236 C234 1.415 . S
C236 C241 1.425 . S
C236 C243 1.409 . S
C237 H229 0.930 . S
C237 C235 1.419 1_655 S
C237 C238 1.362 . S
C238 H230 0.930 . S
C238 C237 1.362 . S
C238 C241 1.409 1_655 S
C239 H231 0.930 . S
C239 C240 1.355 . S
C239 C241 1.415 . S
C240 C239 1.355 . S
C240 C242 1.419 . S
C241 C236 1.425 . S
C241 C238 1.409 1_455 S
C241 C239 1.415 . S
C242 H232 0.930 . S
C242 C240 1.419 . S
C242 C243 1.362 . S
C243 H233 0.930 . S
C243 C236 1.409 . S
C243 C242 1.362 . S
H244 C250 0.930 . S
H245 C253 0.930 . S
H246 C254 0.930 . S
H247 C255 0.930 . S
H248 C258 0.930 . S
H249 C259 0.930 . S
C250 H244 0.930 . S
C250 C251 1.355 1_565 S
C250 C252 1.415 1_565 S
C251 C250 1.355 1_545 S
C251 C253 1.419 . S
C252 C250 1.415 1_545 S
C252 C257 1.425 . S
C252 C259 1.409 1_545 S
C253 H245 0.930 . S
C253 C251 1.419 . S
C253 C254 1.362 . S
C254 H246 0.930 . S
C254 C253 1.362 . S
C254 C257 1.409 . S
C255 H247 0.930 . S
C255 C256 1.355 . S
C255 C257 1.415 . S
C256 C255 1.355 . S
C256 C258 1.419 1_545 S
C257 C252 1.425 . S
C257 C254 1.409 . S
C257 C255 1.415 . S
C258 H248 0.930 . S
C258 C256 1.419 1_565 S
C258 C259 1.362 . S
C259 H249 0.930 . S
C259 C252 1.409 1_565 S
C259 C258 1.362 . S
H260 C266 0.930 . S
H261 C269 0.930 . S
H262 C270 0.930 . S
H263 C271 0.930 . S
H264 C274 0.930 . S
H265 C275 0.930 . S
C266 H260 0.930 . S
C266 C267 1.355 . S
C266 C268 1.415 . S
C267 C266 1.355 . S
C267 C269 1.419 . S
C268 C266 1.415 . S
C268 C273 1.425 . S
C268 C275 1.409 . S
C269 H261 0.930 . S
C269 C267 1.419 . S
C269 C270 1.362 . S
C270 H262 0.930 . S
C270 C269 1.362 . S
C270 C273 1.409 . S
C271 H263 0.930 . S
C271 C272 1.355 . S
C271 C273 1.415 . S
C272 C271 1.355 . S
C272 C274 1.419 . S
C273 C268 1.425 . S
C273 C270 1.409 . S
C273 C271 1.415 . S
C274 H264 0.930 . S
C274 C272 1.419 . S
C274 C275 1.362 . S
C275 H265 0.930 . S
C275 C268 1.409 . S
C275 C274 1.362 . S
H276 C282 0.930 . S
H277 C285 0.930 . S
H278 C286 0.930 . S
H279 C287 0.930 . S
H280 C290 0.930 . S
H281 C291 0.930 . S
C282 H276 0.930 . S
C282 C283 1.355 . S
C282 C284 1.415 . S
C283 C282 1.355 . S
C283 C285 1.419 . S
C284 C282 1.415 . S
C284 C289 1.425 . S
C284 C291 1.409 . S
C285 H277 0.930 . S
C285 C283 1.419 . S
C285 C286 1.362 . S
C286 H278 0.930 . S
C286 C285 1.362 . S
C286 C289 1.409 . S
C287 H279 0.930 . S
C287 C288 1.355 . S
C287 C289 1.415 . S
C288 C287 1.355 . S
C288 C290 1.419 . S
C289 C284 1.425 . S
C289 C286 1.409 . S
C289 C287 1.415 . S
C290 H280 0.930 . S
C290 C288 1.419 . S
C290 C291 1.362 . S
C291 H281 0.930 . S
C291 C284 1.409 . S
C291 C290 1.362 . S
H292 C298 0.937 . S
H293 C301 0.930 . S
H294 C302 0.930 . S
H295 C303 0.930 . S
H296 C306 0.930 . S
H297 C307 0.930 . S
C298 H292 0.937 . S
C298 C299 1.344 1_565 S
C298 C300 1.418 1_565 S
C299 C298 1.344 1_545 S
C299 C301 1.419 . S
C300 C298 1.418 1_545 S
C300 C305 1.425 . S
C300 C307 1.409 1_545 S
C301 H293 0.930 . S
C301 C299 1.419 . S
C301 C302 1.362 . S
C302 H294 0.930 . S
C302 C301 1.362 . S
C302 C305 1.409 . S
C303 H295 0.930 . S
C303 C304 1.355 . S
C303 C305 1.415 . S
C304 C303 1.355 . S
C304 C306 1.419 1_545 S
C305 C300 1.425 . S
C305 C302 1.409 . S
C305 C303 1.415 . S
C306 H296 0.930 . S
C306 C304 1.419 1_565 S
C306 C307 1.362 . S
C307 H297 0.930 . S
C307 C300 1.409 1_565 S
C307 C306 1.362 . S
H308 C314 0.930 . S
H309 C317 0.930 . S
H310 C318 0.930 . S
H311 C319 0.930 . S
H312 C322 0.930 . S
H313 C323 0.930 . S
C314 H308 0.930 . S
C314 C315 1.355 . S
C314 C316 1.415 . S
C315 C314 1.355 . S
C315 C317 1.419 . S
C316 C314 1.415 . S
C316 C321 1.425 . S
C316 C323 1.409 . S
C317 H309 0.930 . S
C317 C315 1.419 . S
C317 C318 1.362 . S
C318 H310 0.930 . S
C318 C317 1.362 . S
C318 C321 1.409 . S
C319 H311 0.930 . S
C319 C320 1.355 . S
C319 C321 1.415 . S
C320 C319 1.355 . S
C320 C322 1.419 . S
C321 C316 1.425 . S
C321 C318 1.409 . S
C321 C319 1.415 . S
C322 H312 0.930 . S
C322 C320 1.419 . S
C322 C323 1.362 . S
C323 H313 0.930 . S
C323 C316 1.409 . S
C323 C322 1.362 . S
H324 C330 0.930 . S
H325 C333 0.930 . S
H326 C334 0.930 . S
H327 C335 0.930 . S
H328 C338 0.930 . S
H329 C339 0.930 . S
C330 H324 0.930 . S
C330 C331 1.355 . S
C330 C332 1.415 . S
C331 C330 1.355 . S
C331 C333 1.419 . S
C332 C330 1.415 . S
C332 C337 1.425 . S
C332 C339 1.409 . S
C333 H325 0.930 . S
C333 C331 1.419 . S
C333 C334 1.362 . S
C334 H326 0.930 . S
C334 C333 1.362 . S
C334 C337 1.409 . S
C335 H327 0.930 . S
C335 C336 1.355 . S
C335 C337 1.415 . S
C336 C335 1.355 . S
C336 C338 1.419 . S
C337 C332 1.425 . S
C337 C334 1.409 . S
C337 C335 1.415 . S
C338 H328 0.930 . S
C338 C336 1.419 . S
C338 C339 1.362 . S
C339 H329 0.930 . S
C339 C332 1.409 . S
C339 C338 1.362 . S
H340 C346 0.930 1_554 S
H341 C349 0.930 . S
H342 C350 0.930 . S
H343 C351 0.930 . S
H344 C354 0.930 . S
H345 C355 0.930 . S
C346 H340 0.930 1_556 S
C346 C347 1.355 . S
C346 C348 1.415 . S
C347 C346 1.355 . S
C347 C349 1.419 . S
C348 C346 1.415 . S
C348 C353 1.425 . S
C348 C355 1.409 . S
C349 H341 0.930 . S
C349 C347 1.419 . S
C349 C350 1.362 . S
C350 H342 0.930 . S
C350 C349 1.362 . S
C350 C353 1.409 . S
C351 H343 0.930 . S
C351 C352 1.355 . S
C351 C353 1.415 . S
C352 C351 1.355 . S
C352 C354 1.419 . S
C353 C348 1.425 . S
C353 C350 1.409 . S
C353 C351 1.415 . S
C354 H344 0.930 . S
C354 C352 1.419 . S
C354 C355 1.362 . S
C355 H345 0.930 . S
C355 C348 1.409 . S
C355 C354 1.362 . S
H356 C362 0.930 . S
H357 C365 0.930 . S
H358 C366 0.930 . S
H359 C367 0.930 . S
H360 C370 0.930 . S
H361 C371 0.930 . S
C362 H356 0.930 . S
C362 C363 1.355 . S
C362 C364 1.415 . S
C363 C362 1.355 . S
C363 C365 1.419 1_455 S
C364 C362 1.415 . S
C364 C369 1.418 1_455 S
C364 C371 1.409 . S
C365 H357 0.930 . S
C365 C363 1.419 1_655 S
C365 C366 1.362 . S
C366 H358 0.930 . S
C366 C365 1.362 . S
C366 C369 1.420 . S
C367 H359 0.930 . S
C367 C368 1.355 1_655 S
C367 C369 1.411 . S
C368 C367 1.355 1_455 S
C368 C370 1.419 . S
C369 C364 1.418 1_655 S
C369 C366 1.420 . S
C369 C367 1.411 . S
C370 H360 0.930 . S
C370 C368 1.419 . S
C370 C371 1.362 . S
C371 H361 0.930 . S
C371 C364 1.409 . S
C371 C370 1.362 . S
H372 C378 0.930 . S
H373 C381 0.930 . S
H374 C382 0.930 . S
H375 C383 0.930 . S
H376 C386 0.930 . S
H377 C387 0.930 . S
C378 H372 0.930 . S
C378 C379 1.355 . S
C378 C380 1.415 . S
C379 C378 1.355 . S
C379 C381 1.419 . S
C380 C378 1.415 . S
C380 C385 1.425 . S
C380 C387 1.409 . S
C381 H373 0.930 . S
C381 C379 1.419 . S
C381 C382 1.362 . S
C382 H374 0.930 . S
C382 C381 1.362 . S
C382 C385 1.409 . S
C383 H375 0.930 . S
C383 C384 1.355 . S
C383 C385 1.415 . S
C384 C383 1.355 . S
C384 C386 1.419 . S
C385 C380 1.425 . S
C385 C382 1.409 . S
C385 C383 1.415 . S
C386 H376 0.930 . S
C386 C384 1.419 . S
C386 C387 1.362 . S
C387 H377 0.930 . S
C387 C380 1.409 . S
C387 C386 1.362 . S
H388 C394 0.930 . S
H389 C397 0.930 1_554 S
H390 C398 0.930 . S
H391 C399 0.930 . S
H392 C402 0.930 . S
H393 C403 0.930 . S
C394 H388 0.930 . S
C394 C395 1.355 . S
C394 C396 1.415 . S
C395 C394 1.355 . S
C395 C397 1.419 . S
C396 C394 1.415 . S
C396 C401 1.425 . S
C396 C403 1.409 . S
C397 H389 0.930 1_556 S
C397 C395 1.419 . S
C397 C398 1.362 . S
C398 H390 0.930 . S
C398 C397 1.362 . S
C398 C401 1.409 . S
C399 H391 0.930 . S
C399 C400 1.355 . S
C399 C401 1.415 . S
C400 C399 1.355 . S
C400 C402 1.419 . S
C401 C396 1.425 . S
C401 C398 1.409 . S
C401 C399 1.415 . S
C402 H392 0.930 . S
C402 C400 1.419 . S
C402 C403 1.362 . S
C403 H393 0.930 . S
C403 C396 1.409 . S
C403 C402 1.362 . S
H404 C410 0.930 1_655 S
H405 C413 0.930 . S
H406 C414 0.930 . S
H407 C415 0.930 . S
H408 C418 0.930 . S
H409 C419 0.930 1_655 S
C410 H404 0.930 1_455 S
C410 C411 1.355 . S
C410 C412 1.415 . S
C411 C410 1.355 . S
C411 C413 1.419 . S
C412 C410 1.415 . S
C412 C417 1.425 . S
C412 C419 1.409 . S
C413 H405 0.930 . S
C413 C411 1.419 . S
C413 C414 1.362 . S
C414 H406 0.930 . S
C414 C413 1.362 . S
C414 C417 1.409 . S
C415 H407 0.930 . S
C415 C416 1.355 . S
C415 C417 1.415 . S
C416 C415 1.355 . S
C416 C418 1.419 . S
C417 C412 1.425 . S
C417 C414 1.409 . S
C417 C415 1.415 . S
C418 H408 0.930 . S
C418 C416 1.419 . S
C418 C419 1.362 . S
C419 H409 0.930 1_455 S
C419 C412 1.409 . S
C419 C418 1.362 . S
C240 C95 1.372 . S
C235 C0 1.377 . S
C251 C25 1.415 . S
C256 C139 1.395 . S
C267 C33 1.445 . S
C272 C201 1.436 . S
C283 C11 1.379 . S
C288 C77 1.356 . S
C304 C157 1.408 . S
C299 C14 1.407 . S
C315 C37 1.445 . S
C320 C219 1.447 . S
C336 C133 1.620 . S
C331 C28 1.693 . S
C347 C9 1.720 1_556 S
C352 C195 1.641 . S
C368 C71 1.675 . S
C363 C19 1.769 . S
C384 C151 1.557 . S
C379 C39 1.688 . S
C400 C213 1.603 . S
C395 C5 1.710 1_556 S
C411 C23 1.768 . S
C416 C89 1.698 . S
