# Generated by pormake.
# Topology rtl, (3,6)-cn, num edge types: 1
# Building blocks:
#     Node 0, Type 0, BuildingBlock: ESEHIV_clean_linker_0, # of connection points: 3
#     Node 1, Type 0, BuildingBlock: ESEHIV_clean_linker_0, # of connection points: 3
#     Node 2, Type 0, BuildingBlock: ESEHIV_clean_linker_0, # of connection points: 3
#     Node 3, Type 0, BuildingBlock: ESEHIV_clean_linker_0, # of connection points: 3
#     Node 4, Type 1, BuildingBlock: CIFDUS_clean_sbu_1, # of connection points: 6
#     Node 5, Type 1, BuildingBlock: CIFDUS_clean_sbu_1, # of connection points: 6
#     Edge 6, Type (0, 1), BuildingBlock: FUNLAD_clean_linker_1, # of connection points: 2
#     Edge 7, Type (0, 1), BuildingBlock: FUNLAD_clean_linker_1, # of connection points: 2
#     Edge 8, Type (0, 1), BuildingBlock: FUNLAD_clean_linker_1, # of connection points: 2
#     Edge 9, Type (0, 1), BuildingBlock: FUNLAD_clean_linker_1, # of connection points: 2
#     Edge 10, Type (0, 1), BuildingBlock: FUNLAD_clean_linker_1, # of connection points: 2
#     Edge 11, Type (0, 1), BuildingBlock: FUNLAD_clean_linker_1, # of connection points: 2
#     Edge 12, Type (0, 1), BuildingBlock: FUNLAD_clean_linker_1, # of connection points: 2
#     Edge 13, Type (0, 1), BuildingBlock: FUNLAD_clean_linker_1, # of connection points: 2
#     Edge 14, Type (0, 1), BuildingBlock: FUNLAD_clean_linker_1, # of connection points: 2
#     Edge 15, Type (0, 1), BuildingBlock: FUNLAD_clean_linker_1, # of connection points: 2
#     Edge 16, Type (0, 1), BuildingBlock: FUNLAD_clean_linker_1, # of connection points: 2
#     Edge 17, Type (0, 1), BuildingBlock: FUNLAD_clean_linker_1, # of connection points: 2
# Relax obj value: 0.028
# Max RMSD: 0.063
# Mean RMSD: 0.047
data_MOF--net-rtl--node1-CIFDUS_clean_sbu_1--node2-ESEHIV_clean_linker_0--edge1-FUNLAD_clean_linker_1
_symmetry_space_group_name_H-M    P1
_symmetry_Int_Tables_number       1
_symmetry_cell_setting            triclinic
loop_
_symmetry_equiv_pos_as_xyz
'x, y, z'
_cell_length_a     30.049009
_cell_length_b     33.615128
_cell_length_c     23.624522
_cell_angle_alpha  90.211126
_cell_angle_beta   98.252079
_cell_angle_gamma 90.205131
loop_
_atom_site_label
_atom_site_type_symbol
_atom_site_fract_x
_atom_site_fract_y
_atom_site_fract_z
_atom_type_partial_charge
H0 H 0.20253 0.92827 0.11222 0.0
H1 H 0.27815 0.83588 0.20614 0.0
H2 H 0.26443 0.83737 0.02195 0.0
C3 C 0.22332 0.90195 0.11282 0.0
C4 C 0.2309 0.88484 0.06078 0.0
C5 C 0.24016 0.88413 0.16524 0.0
C6 C 0.26544 0.84909 0.16539 0.0
C7 C 0.27458 0.83194 0.11379 0.0
C8 C 0.25716 0.85018 0.06174 0.0
H9 H 0.62452 0.67892 0.55636 0.0
H10 H 0.705 0.77076 0.49457 0.0
H11 H 0.71119 0.75079 0.6755 0.0
C12 C 0.64865 0.7031 0.56452 0.0
C13 C 0.66678 0.71228 0.621 0.0
C14 C 0.66183 0.72397 0.51842 0.0
C15 C 0.69347 0.75501 0.52965 0.0
C16 C 0.71164 0.76523 0.58623 0.0
C17 C 0.69802 0.74356 0.63176 0.0
H18 H 0.82945 0.12812 0.02211 0.0
H19 H 0.74538 0.2115 0.09462 0.0
H20 H 0.74156 0.20433 0.91166 0.0
C21 C 0.80447 0.15153 0.01657 0.0
C22 C 0.78642 0.16351 0.96118 0.0
C23 C 0.78942 0.16846 0.06477 0.0
C24 C 0.75663 0.19824 0.05724 0.0
C25 C 0.74 0.21249 1.00233 0.0
C26 C 0.75437 0.19426 0.95424 0.0
H27 H 0.39587 0.36274 0.54069 0.0
H28 H 0.2908 0.29447 0.60035 0.0
H29 H 0.29582 0.30447 0.41979 0.0
C30 C 0.36663 0.34352 0.53196 0.0
C31 C 0.34798 0.33573 0.47501 0.0
C32 C 0.346 0.32883 0.57742 0.0
C33 C 0.30704 0.30548 0.56532 0.0
C34 C 0.28939 0.29549 0.50872 0.0
C35 C 0.30976 0.31111 0.46361 0.0
O36 O 0.97818 0.05518 0.48951 0.0
Mn37 Mn 0.01113 0.02547 0.56175 0.0
O38 O 0.95263 1.0074 0.42537 0.0
Mn39 Mn 0.98106 0.96447 0.46418 0.0
O40 O 0.04469 0.99518 0.6331 0.0
O41 O 0.04321 0.07558 0.58777 0.0
Mn42 Mn 0.04354 0.08464 0.66113 0.0
O43 O 0.95793 0.04013 0.60718 0.0
O44 O 0.07282 0.04142 0.69796 0.0
O45 O 0.06423 0.01162 0.516 0.0
O46 O 0.0415 0.95966 0.45857 0.0
O47 O 0.07511 0.12601 0.63321 0.0
O48 O 0.98353 0.08905 0.66911 0.0
C49 C 0.95472 0.94393 0.53911 0.0
C50 C 0.9564 0.04385 0.44106 0.0
C51 C 0.0678 1.00531 0.68123 0.0
C52 C 0.06646 0.10737 0.5848 0.0
C53 C 0.95209 0.0663 0.64546 0.0
C54 C 0.07154 0.98454 0.47982 0.0
O55 O 0.97907 0.97513 0.53643 0.0
O56 O 0.94805 0.924 0.49163 0.0
O57 O 0.53344 0.57162 0.109 0.0
Mn58 Mn 0.51328 0.52499 0.05112 0.0
O59 O 0.59051 0.54884 0.17256 0.0
Mn60 Mn 0.57858 0.49568 0.15683 0.0
O61 O 0.49369 0.47875 0.99227 0.0
O62 O 0.45959 0.55737 0.02072 0.0
Mn63 Mn 0.44804 0.55492 0.94584 0.0
O64 O 0.5502 0.55134 0.99296 0.0
O65 O 0.4365 0.50187 0.92918 0.0
O66 O 0.47635 0.49848 0.10939 0.0
O67 O 0.52699 0.47605 0.18202 0.0
O68 O 0.40602 0.58902 0.96978 0.0
O69 O 0.49966 0.575 0.92115 0.0
C70 C 0.59835 0.46685 0.0824 0.0
C71 C 0.56514 0.57694 0.15118 0.0
C72 C 0.46238 0.4738 0.94949 0.0
C73 C 0.42745 0.58256 0.02044 0.0
C74 C 0.54008 0.56993 0.94546 0.0
C75 C 0.48657 0.4804 0.15734 0.0
O76 O 0.56684 0.49265 0.08189 0.0
O77 O 0.61999 0.46079 0.13305 0.0
H78 H 0.2288 0.26728 0.53353 0.0
C79 C 0.2489 0.26958 0.49882 0.0
H80 H 0.25811 0.24548 0.41804 0.0
H81 H 0.1604 0.09275 0.50755 0.0
H82 H 0.23255 0.0655 0.49272 0.0
H83 H 0.28994 0.10791 0.45764 0.0
H84 H 0.27536 0.17798 0.43721 0.0
C85 C 0.23743 0.24664 0.45207 0.0
C86 C 0.19899 0.2185 0.45078 0.0
C87 C 0.20734 0.17742 0.45977 0.0
C88 C 0.1742 0.15298 0.47986 0.0
C89 C 0.18428 0.1126 0.49215 0.0
C90 C 0.22556 0.09659 0.48371 0.0
C91 C 0.25788 0.12047 0.46392 0.0
C92 C 0.24917 0.16056 0.45242 0.0
H93 H 0.07827 0.10355 0.49395 0.0
C94 C 0.08431 0.12094 0.53317 0.0
H95 H 0.11417 0.17159 0.57568 0.0
H96 H 0.16815 0.29238 0.41875 0.0
H97 H 0.09299 0.31805 0.42415 0.0
H98 H 0.03542 0.2756 0.45895 0.0
H99 H 0.05266 0.20715 0.48845 0.0
C100 C 0.10977 0.15401 0.53652 0.0
C101 C 0.13304 0.17001 0.49022 0.0
C102 C 0.12205 0.20904 0.47116 0.0
C103 C 0.15514 0.23344 0.4514 0.0
C104 C 0.14401 0.27291 0.43467 0.0
C105 C 0.10111 0.28782 0.43736 0.0
C106 C 0.06868 0.26391 0.45695 0.0
C107 C 0.07893 0.22492 0.47393 0.0
H108 H 0.31102 0.78665 0.07039 0.0
C109 C 0.3021 0.79519 0.1118 0.0
H110 H 0.30574 0.77662 0.19835 0.0
H111 H 0.32711 0.59731 0.11835 0.0
H112 H 0.25651 0.59427 0.15771 0.0
H113 H 0.22363 0.65501 0.19335 0.0
H114 H 0.26093 0.71904 0.19005 0.0
C115 C 0.31534 0.77107 0.15658 0.0
C116 C 0.33978 0.73346 0.14802 0.0
C117 C 0.318 0.69632 0.15181 0.0
C118 C 0.33666 0.66135 0.13083 0.0
C119 C 0.31377 0.62471 0.13322 0.0
C120 C 0.27349 0.62259 0.15586 0.0
C121 C 0.25501 0.6568 0.176 0.0
C122 C 0.27675 0.69336 0.17387 0.0
H123 H 0.44126 0.60446 0.11049 0.0
C124 C 0.41866 0.60634 0.07036 0.0
H125 H 0.36211 0.63386 0.02353 0.0
H126 H 0.39601 0.79762 0.15079 0.0
H127 H 0.46905 0.79948 0.11772 0.0
H128 H 0.50049 0.73915 0.07898 0.0
H129 H 0.45948 0.67661 0.07357 0.0
C130 C 0.38499 0.63297 0.06356 0.0
C131 C 0.37683 0.66363 0.10626 0.0
C132 C 0.40163 0.69971 0.10974 0.0
C133 C 0.38313 0.73468 0.13102 0.0
C134 C 0.40825 0.77048 0.13375 0.0
C135 C 0.45021 0.77187 0.11522 0.0
C136 C 0.46793 0.73788 0.09344 0.0
C137 C 0.44399 0.70217 0.09041 0.0
H138 H 0.75773 0.80948 0.55711 0.0
C139 C 0.74599 0.79763 0.59519 0.0
H140 H 0.75478 0.8023 0.68617 0.0
H141 H 0.95548 0.86039 0.67127 0.0
H142 H 0.9686 0.80084 0.73013 0.0
H143 H 0.90482 0.76014 0.75249 0.0
H144 H 0.82771 0.77865 0.71661 0.0
C145 C 0.76426 0.8128 0.64631 0.0
C146 C 0.80116 0.84272 0.649 0.0
C147 C 0.84558 0.83196 0.672 0.0
C148 C 0.88234 0.85511 0.65878 0.0
C149 C 0.92665 0.84325 0.67999 0.0
C150 C 0.93448 0.8094 0.71378 0.0
C151 C 0.89854 0.78651 0.72643 0.0
C152 C 0.8545 0.79739 0.70559 0.0
H153 H 0.92926 0.95504 0.62173 0.0
C154 C 0.93153 0.93344 0.58795 0.0
H155 H 0.9124 0.87726 0.55264 0.0
H156 H 0.72006 0.87797 0.61599 0.0
H157 H 0.70724 0.94052 0.56452 0.0
H158 H 0.77106 0.97994 0.5395 0.0
H159 H 0.84785 0.95744 0.5662 0.0
C160 C 0.90869 0.89893 0.58593 0.0
C161 C 0.87446 0.88859 0.62281 0.0
C162 C 0.83004 0.90293 0.60812 0.0
C163 C 0.79324 0.87994 0.62158 0.0
C164 C 0.74901 0.89416 0.60557 0.0
C165 C 0.74129 0.92997 0.57636 0.0
C166 C 0.77723 0.95218 0.56231 0.0
C167 C 0.82117 0.93887 0.57769 0.0
H168 H 0.6961 0.25625 0.03679 0.0
C169 C 0.70931 0.24748 0.99806 0.0
H170 H 0.7154 0.26558 0.91355 0.0
H171 H 0.55886 0.37447 0.02313 0.0
H172 H 0.51286 0.31463 0.01259 0.0
H173 H 0.54158 0.25261 0.97511 0.0
H174 H 0.61685 0.25006 0.94838 0.0
C175 C 0.70095 0.27151 0.95217 0.0
C176 C 0.67824 0.31051 0.95748 0.0
C177 C 0.63372 0.31197 0.97069 0.0
C178 C 0.61688 0.34794 0.99128 0.0
C179 C 0.57318 0.34805 1.00696 0.0
C180 C 0.54641 0.31392 1.00097 0.0
C181 C 0.5626 0.27898 0.9799 0.0
C182 C 0.6058 0.27782 0.965 0.0
H183 H 0.58423 0.44502 0.9923 0.0
C184 C 0.60584 0.44189 0.03301 0.0
H185 H 0.65903 0.41089 0.08145 0.0
H186 H 0.7608 0.32035 0.92249 0.0
H187 H 0.80343 0.38189 0.92406 0.0
H188 H 0.77338 0.44437 0.9583 0.0
H189 H 0.70021 0.44553 0.99137 0.0
C190 C 0.63712 0.41311 0.04076 0.0
C191 C 0.64454 0.38235 0.99782 0.0
C192 C 0.68618 0.38225 0.9765 0.0
C193 C 0.7032 0.34629 0.95626 0.0
C194 C 0.74603 0.34682 0.93791 0.0
C195 C 0.77086 0.38197 0.93859 0.0
C196 C 0.75397 0.41716 0.95793 0.0
C197 C 0.71219 0.41743 0.97696 0.0
H198 H 0.22229 0.8777 0.25222 0.0
C199 C 0.22816 0.89944 0.22008 0.0
H200 H 0.22952 0.96045 0.19972 0.0
H201 H 0.07409 1.00147 0.34469 0.0
H202 H 0.04362 0.0242 0.2498 0.0
H203 H 0.08512 0.01375 0.16818 0.0
H204 H 0.15746 0.98096 0.18106 0.0
C205 C 0.22289 0.93836 0.23091 0.0
C206 C 0.20231 0.95149 0.28172 0.0
C207 C 0.16041 0.97155 0.27334 0.0
C208 C 0.13616 0.97715 0.32018 0.0
C209 C 0.09379 0.99622 0.31052 0.0
C210 C 0.0759 1.00944 0.25626 0.0
C211 C 0.09932 1.00363 0.21036 0.0
C212 C 0.14096 0.98478 0.21845 0.0
H213 H 0.13527 0.01176 0.46096 0.0
C214 C 0.11411 0.98535 0.45501 0.0
H215 H 0.10125 0.93058 0.41155 0.0
H216 H 0.2869 0.92253 0.31529 0.0
H217 H 0.31866 0.90278 0.41158 0.0
H218 H 0.275 0.91005 0.4919 0.0
H219 H 0.19942 0.93772 0.47652 0.0
C220 C 0.12261 0.95684 0.41787 0.0
C221 C 0.15369 0.96253 0.37505 0.0
C222 C 0.19744 0.94635 0.38459 0.0
C223 C 0.22213 0.94129 0.33799 0.0
C224 C 0.2662 0.92577 0.34891 0.0
C225 C 0.28489 0.91462 0.40398 0.0
C226 C 0.26031 0.91876 0.44923 0.0
C227 C 0.21702 0.93445 0.43989 0.0
H228 H 0.61763 0.67616 0.65942 0.0
C229 C 0.65121 0.68908 0.66766 0.0
H230 H 0.71077 0.69323 0.7276 0.0
H231 H 0.59424 0.66659 0.93003 0.0
H232 H 0.62567 0.7324 0.9521 0.0
H233 H 0.6725 0.76504 0.88801 0.0
H234 H 0.68811 0.73211 0.80141 0.0
C235 C 0.67677 0.68159 0.718 0.0
C236 C 0.65775 0.65862 0.76267 0.0
C237 C 0.65025 0.67784 0.81391 0.0
C238 C 0.62338 0.65898 0.85094 0.0
C239 C 0.61467 0.67945 0.90063 0.0
C240 C 0.63248 0.71725 0.91377 0.0
C241 C 0.65884 0.73563 0.87767 0.0
C242 C 0.66755 0.7164 0.82811 0.0
H243 H 0.61148 0.58283 0.93803 0.0
C244 C 0.57698 0.58626 0.9174 0.0
H245 H 0.53427 0.60776 0.8451 0.0
H246 H 0.67602 0.60975 0.67608 0.0
H247 H 0.6474 0.54263 0.65626 0.0
H248 H 0.59877 0.51071 0.71884 0.0
H249 H 0.57895 0.54551 0.80201 0.0
C250 C 0.56849 0.60505 0.86694 0.0
C251 C 0.60456 0.62093 0.83662 0.0
C252 C 0.6157 0.6002 0.78836 0.0
C253 C 0.64288 0.61887 0.7517 0.0
C254 C 0.65429 0.59729 0.7043 0.0
C255 C 0.63838 0.55869 0.69273 0.0
C256 C 0.61104 0.5407 0.728 0.0
C257 C 0.59978 0.56104 0.77541 0.0
H258 H 0.78271 0.1486 0.15246 0.0
C259 C 0.80677 0.15437 0.1232 0.0
H260 H 0.87483 0.15555 0.11153 0.0
H261 H 0.86882 0.12528 0.39316 0.0
H262 H 0.83072 0.18871 0.39341 0.0
H263 H 0.8119 0.22699 0.30435 0.0
H264 H 0.82994 0.20152 0.21423 0.0
C265 C 0.85096 0.14886 0.14068 0.0
C266 C 0.86827 0.12952 0.19642 0.0
C267 C 0.85988 0.14599 0.24939 0.0
C268 C 0.87313 0.125 0.30143 0.0
C269 C 0.86126 0.14067 0.35287 0.0
C270 C 0.83919 0.17701 0.35358 0.0
C271 C 0.82842 0.19848 0.30339 0.0
C272 C 0.83861 0.18334 0.25182 0.0
H273 H 0.95135 0.10421 0.40267 0.0
C274 C 0.93773 0.07418 0.39885 0.0
H275 H 0.89457 0.03356 0.34977 0.0
H276 H 0.89194 0.09006 0.10314 0.0
H277 H 0.9362 0.03009 0.1043 0.0
H278 H 0.96456 0.9969 0.19516 0.0
H279 H 0.9483 0.02332 0.2854 0.0
C280 C 0.90759 0.06383 0.35317 0.0
C281 C 0.8972 0.08881 0.30087 0.0
C282 C 0.90852 0.07396 0.24843 0.0
C283 C 0.89345 0.09388 0.19619 0.0
C284 C 0.90344 0.077 0.14436 0.0
C285 C 0.92874 0.04238 0.14429 0.0
C286 C 0.9446 0.02364 0.19541 0.0
C287 C 0.93474 0.03906 0.24692 0.0
H288 H 0.33703 0.34598 0.66539 0.0
C289 C 0.3622 0.34033 0.63757 0.0
H290 H 0.43146 0.33801 0.63157 0.0
H291 H 0.48169 0.47253 0.81794 0.0
H292 H 0.51034 0.49925 0.73499 0.0
H293 H 0.49821 0.46358 0.6426 0.0
H294 H 0.45752 0.40107 0.63259 0.0
C295 C 0.40604 0.34438 0.65865 0.0
C296 C 0.4204 0.36194 0.71662 0.0
C297 C 0.4451 0.39816 0.72173 0.0
C298 C 0.45174 0.41897 0.77483 0.0
C299 C 0.47545 0.45563 0.77853 0.0
C300 C 0.49217 0.47128 0.73128 0.0
C301 C 0.48537 0.45117 0.6793 0.0
C302 C 0.46196 0.41517 0.67422 0.0
H303 H 0.48857 0.41577 0.92368 0.0
C304 C 0.46041 0.43621 0.91622 0.0
H305 H 0.40047 0.4516 0.86284 0.0
H306 H 0.38335 0.28815 0.72582 0.0
H307 H 0.35767 0.26037 0.81042 0.0
H308 H 0.3663 0.2981 0.90121 0.0
H309 H 0.40136 0.36371 0.90816 0.0
C310 C 0.42834 0.43089 0.87074 0.0
C311 C 0.43353 0.40368 0.82248 0.0
C312 C 0.41295 0.36572 0.81899 0.0
C313 C 0.40693 0.34448 0.7662 0.0
C314 C 0.38724 0.30612 0.76431 0.0
C315 C 0.37273 0.28975 0.81265 0.0
C316 C 0.37764 0.31097 0.86381 0.0
C317 C 0.39756 0.34857 0.86721 0.0
H318 H 0.62951 0.68036 0.4555 0.0
C319 C 0.64382 0.71021 0.45958 0.0
H320 H 0.65753 0.76151 0.41275 0.0
H321 H 0.67285 0.649 0.19794 0.0
H322 H 0.74744 0.67891 0.21572 0.0
H323 H 0.76804 0.72478 0.29716 0.0
H324 H 0.71428 0.7412 0.36111 0.0
C325 C 0.6439 0.73156 0.41145 0.0
C326 C 0.62826 0.71267 0.35474 0.0
C327 C 0.65973 0.70432 0.31712 0.0
C328 C 0.64806 0.67749 0.27063 0.0
C329 C 0.6804 0.66876 0.23438 0.0
C330 C 0.72315 0.68583 0.24397 0.0
C331 C 0.73473 0.7117 0.28979 0.0
C332 C 0.70358 0.72085 0.3262 0.0
H333 H 0.54987 0.64112 0.1615 0.0
C334 C 0.57085 0.61658 0.17905 0.0
H335 H 0.62113 0.59718 0.24472 0.0
H336 H 0.55674 0.73218 0.40826 0.0
H337 H 0.48112 0.70457 0.38833 0.0
H338 H 0.46177 0.65513 0.31116 0.0
H339 H 0.51731 0.63351 0.25306 0.0
C340 C 0.59951 0.62153 0.22796 0.0
C341 C 0.60515 0.659 0.26203 0.0
C342 C 0.57197 0.67103 0.29559 0.0
C343 C 0.58345 0.69849 0.34142 0.0
C344 C 0.54988 0.7105 0.3741 0.0
C345 C 0.50641 0.69506 0.36291 0.0
C346 C 0.49551 0.66729 0.31938 0.0
C347 C 0.5278 0.65515 0.28619 0.0
H348 H 0.83823 0.13362 0.91906 0.0
C349 C 0.80398 0.14485 0.91178 0.0
H350 H 0.74535 0.15051 0.85096 0.0
H351 H 0.86312 0.15428 0.64759 0.0
H352 H 0.82418 0.21777 0.63667 0.0
H353 H 0.77426 0.23882 0.70547 0.0
H354 H 0.76277 0.19667 0.78531 0.0
C355 C 0.77988 0.14031 0.85948 0.0
C356 C 0.8014 0.12399 0.81121 0.0
C357 C 0.80672 0.14866 0.76413 0.0
C358 C 0.83592 0.13681 0.72487 0.0
C359 C 0.84173 0.16233 0.67898 0.0
C360 C 0.81948 0.19866 0.67214 0.0
C361 C 0.79133 0.21048 0.71084 0.0
C362 C 0.78501 0.18598 0.7565 0.0
H363 H 0.88059 0.04946 0.64854 0.0
C364 C 0.90766 0.06957 0.66554 0.0
H365 H 0.92837 0.11693 0.72246 0.0
H366 H 0.78747 0.06497 0.88593 0.0
H367 H 0.82392 1.00034 0.89426 0.0
H368 H 0.87768 0.98118 0.8293 0.0
H369 H 0.89472 0.02608 0.75513 0.0
C370 C 0.90165 0.09613 0.70668 0.0
C371 C 0.85981 0.10056 0.73287 0.0
C372 C 0.85034 0.07382 0.77587 0.0
C373 C 0.82048 0.08536 0.81457 0.0
C374 C 0.81104 0.05805 0.85674 0.0
C375 C 0.83149 0.02085 0.86171 0.0
C376 C 0.86169 0.01004 0.82506 0.0
C377 C 0.87124 0.03614 0.78266 0.0
H378 H 0.40507 0.36032 0.43666 0.0
C379 C 0.36923 0.3538 0.42833 0.0
H380 H 0.30953 0.36174 0.36971 0.0
H381 H 0.41115 0.505 0.26172 0.0
H382 H 0.35871 0.54176 0.31071 0.0
H383 H 0.30998 0.50707 0.37044 0.0
H384 H 0.31366 0.43529 0.38177 0.0
C385 C 0.34587 0.36483 0.37799 0.0
C386 C 0.36914 0.38467 0.33433 0.0
C387 C 0.36539 0.42636 0.32655 0.0
C388 C 0.39307 0.44628 0.29148 0.0
C389 C 0.39038 0.48822 0.28689 0.0
C390 C 0.3605 0.50973 0.31498 0.0
C391 C 0.33308 0.4902 0.34865 0.0
C392 C 0.33551 0.44902 0.35477 0.0
H393 H 0.4155 0.46513 0.1637 0.0
C394 C 0.44993 0.46315 0.18514 0.0
H395 H 0.4932 0.4415 0.25673 0.0
H396 H 0.37836 0.30379 0.33247 0.0
H397 H 0.42815 0.26638 0.27985 0.0
H398 H 0.47612 0.30075 0.21879 0.0
H399 H 0.47451 0.3727 0.20987 0.0
C400 C 0.45873 0.44464 0.23588 0.0
C401 C 0.42372 0.42417 0.26356 0.0
C402 C 0.42487 0.38214 0.26797 0.0
C403 C 0.39744 0.36234 0.30329 0.0
C404 C 0.39912 0.32032 0.30689 0.0
C405 C 0.42735 0.2985 0.2767 0.0
C406 C 0.45435 0.31785 0.24232 0.0
C407 C 0.45325 0.35916 0.23779 0.0
H408 H 0.20319 0.93583 1.00818 0.0
C409 C 0.21116 0.90434 1.00642 0.0
H410 H 0.2044 0.85295 0.95362 0.0
H411 H 0.04365 0.93335 0.78763 0.0
H412 H 0.00437 0.88124 0.83102 0.0
H413 H 0.04395 0.83974 0.90807 0.0
H414 H 0.12317 0.85032 0.9424 0.0
C415 C 0.20022 0.88492 0.9563 0.0
C416 C 0.17807 0.90623 0.90443 0.0
C417 C 0.13213 0.89884 0.88343 0.0
C418 C 0.10944 0.92243 0.83822 0.0
C419 C 0.06294 0.91579 0.82058 0.0
C420 C 0.03984 0.88607 0.84541 0.0
C421 C 0.06212 0.86272 0.88882 0.0
C422 C 0.10762 0.86906 0.90804 0.0
H423 H 0.08921 0.94339 0.70389 0.0
C424 C 0.08946 0.97385 0.71953 0.0
H425 H 0.10984 0.01302 0.78852 0.0
H426 H 0.26793 0.92335 0.92767 0.0
H427 H 0.30836 0.97347 0.88147 0.0
H428 H 0.2693 0.01435 0.80329 0.0
H429 H 0.18961 1.00524 0.77065 0.0
C430 C 0.10886 0.98243 0.77332 0.0
C431 C 0.13313 0.95279 0.81323 0.0
C432 C 0.17979 0.95832 0.83184 0.0
C433 C 0.20229 0.93497 0.87724 0.0
C434 C 0.24898 0.94088 0.89428 0.0
C435 C 0.27267 0.96937 0.86787 0.0
C436 C 0.25069 0.99237 0.82384 0.0
C437 C 0.20486 0.98698 0.80575 0.0
loop_
_geom_bond_atom_site_label_1
_geom_bond_atom_site_label_2
_geom_bond_distance
_geom_bond_site_symmetry_2
_ccdc_geom_bond_type
H0 C3 0.931 . S
H1 C6 0.928 . S
H2 C8 0.930 . S
C3 H0 0.931 . S
C3 C4 1.413 . S
C3 C5 1.360 . S
C4 C3 1.413 . S
C4 C8 1.429 . S
C5 C3 1.360 . S
C5 C6 1.372 . S
C6 H1 0.928 . S
C6 C5 1.372 . S
C6 C7 1.404 . S
C7 C6 1.404 . S
C7 C8 1.391 . S
C8 H2 0.930 . S
C8 C4 1.429 . S
C8 C7 1.391 . S
H9 C12 0.931 . S
H10 C15 0.928 . S
H11 C17 0.930 . S
C12 H9 0.931 . S
C12 C13 1.413 . S
C12 C14 1.360 . S
C13 C12 1.413 . S
C13 C17 1.429 . S
C14 C12 1.360 . S
C14 C15 1.372 . S
C15 H10 0.928 . S
C15 C14 1.372 . S
C15 C16 1.404 . S
C16 C15 1.404 . S
C16 C17 1.391 . S
C17 H11 0.930 . S
C17 C13 1.429 . S
C17 C16 1.391 . S
H18 C21 0.931 . S
H19 C24 0.928 . S
H20 C26 0.930 . S
C21 H18 0.931 . S
C21 C22 1.413 1_554 S
C21 C23 1.360 . S
C22 C21 1.413 1_556 S
C22 C26 1.429 . S
C23 C21 1.360 . S
C23 C24 1.372 . S
C24 H19 0.928 . S
C24 C23 1.372 . S
C24 C25 1.409 . S
C25 C24 1.409 . S
C25 C26 1.385 1_554 S
C26 H20 0.930 . S
C26 C22 1.429 . S
C26 C25 1.385 1_556 S
H27 C30 0.931 . S
H28 C33 0.928 . S
H29 C35 0.930 . S
C30 H27 0.931 . S
C30 C31 1.413 . S
C30 C32 1.360 . S
C31 C30 1.413 . S
C31 C35 1.429 . S
C32 C30 1.360 . S
C32 C33 1.372 . S
C33 H28 0.928 . S
C33 C32 1.372 . S
C33 C34 1.404 . S
C34 C33 1.404 . S
C34 C35 1.391 . S
C35 H29 0.930 . S
C35 C31 1.429 . S
C35 C34 1.391 . S
O36 Mn37 2.163 1_655 S
O36 C50 1.244 . S
Mn37 O36 2.163 1_455 S
Mn37 O40 2.160 1_545 S
Mn37 O41 2.221 . S
Mn37 O43 2.163 1_455 S
Mn37 O45 2.160 1_545 S
Mn37 O55 2.221 1_445 S
O38 Mn39 2.087 1_545 S
O38 C50 1.256 . S
Mn39 O38 2.087 1_565 S
Mn39 O46 2.089 1_655 S
Mn39 O55 2.290 . S
Mn39 O56 2.251 . S
O40 Mn37 2.160 1_565 S
O40 C51 1.239 . S
O41 Mn37 2.221 . S
O41 Mn42 2.290 . S
O41 C52 1.278 . S
Mn42 O41 2.290 . S
Mn42 O44 2.089 . S
Mn42 O47 2.251 . S
Mn42 O48 2.087 1_455 S
O43 Mn37 2.163 1_655 S
O43 C53 1.244 . S
O44 Mn42 2.089 . S
O44 C51 1.256 1_545 S
O45 Mn37 2.160 1_565 S
O45 C54 1.239 . S
O46 Mn39 2.089 1_455 S
O46 C54 1.256 . S
O47 Mn42 2.251 . S
O47 C52 1.241 . S
O48 Mn42 2.087 1_655 S
O48 C53 1.256 . S
C49 O55 1.278 . S
C49 O56 1.241 . S
C50 O36 1.244 . S
C50 O38 1.256 . S
C51 O40 1.239 . S
C51 O44 1.256 1_565 S
C52 O41 1.278 . S
C52 O47 1.241 . S
C53 O43 1.244 . S
C53 O48 1.256 . S
C54 O45 1.239 . S
C54 O46 1.256 . S
O55 Mn37 2.221 1_665 S
O55 Mn39 2.290 . S
O55 C49 1.278 . S
O56 Mn39 2.251 . S
O56 C49 1.241 . S
O57 Mn58 2.163 . S
O57 C71 1.244 . S
Mn58 O57 2.163 . S
Mn58 O61 2.160 1_554 S
Mn58 O62 2.221 . S
Mn58 O64 2.163 1_554 S
Mn58 O66 2.160 . S
Mn58 O76 2.221 . S
O59 Mn60 2.087 . S
O59 C71 1.256 . S
Mn60 O59 2.087 . S
Mn60 O67 2.089 . S
Mn60 O76 2.290 . S
Mn60 O77 2.251 . S
O61 Mn58 2.160 1_556 S
O61 C72 1.239 . S
O62 Mn58 2.221 . S
O62 Mn63 2.290 1_554 S
O62 C73 1.278 . S
Mn63 O62 2.290 1_556 S
Mn63 O65 2.089 . S
Mn63 O68 2.251 . S
Mn63 O69 2.087 . S
O64 Mn58 2.163 1_556 S
O64 C74 1.244 . S
O65 Mn63 2.089 . S
O65 C72 1.256 . S
O66 Mn58 2.160 . S
O66 C75 1.239 . S
O67 Mn60 2.089 . S
O67 C75 1.256 . S
O68 Mn63 2.251 . S
O68 C73 1.241 1_556 S
O69 Mn63 2.087 . S
O69 C74 1.256 . S
C70 O76 1.278 . S
C70 O77 1.241 . S
C71 O57 1.244 . S
C71 O59 1.256 . S
C72 O61 1.239 . S
C72 O65 1.256 . S
C73 O62 1.278 . S
C73 O68 1.241 1_554 S
C74 O64 1.244 . S
C74 O69 1.256 . S
C75 O66 1.239 . S
C75 O67 1.256 . S
O76 Mn58 2.221 . S
O76 Mn60 2.290 . S
O76 C70 1.278 . S
O77 Mn60 2.251 . S
O77 C70 1.241 . S
H78 C79 0.951 . S
C79 H78 0.951 . S
C79 C85 1.265 . S
H80 C85 0.950 . S
H81 C89 0.949 . S
H82 C90 0.950 . S
H83 C91 0.951 . S
H84 C92 0.951 . S
C85 C79 1.265 . S
C85 H80 0.950 . S
C85 C86 1.478 . S
C86 C85 1.478 . S
C86 C87 1.397 . S
C86 C103 1.394 . S
C87 C86 1.397 . S
C87 C88 1.438 . S
C87 C92 1.429 . S
C88 C87 1.438 . S
C88 C89 1.428 . S
C88 C101 1.394 . S
C89 H81 0.949 . S
C89 C88 1.428 . S
C89 C90 1.345 . S
C90 H82 0.950 . S
C90 C89 1.345 . S
C90 C91 1.424 . S
C91 H83 0.951 . S
C91 C90 1.424 . S
C91 C92 1.347 . S
C92 H84 0.951 . S
C92 C87 1.429 . S
C92 C91 1.347 . S
H93 C94 0.951 . S
C94 H93 0.951 . S
C94 C100 1.265 . S
H95 C100 0.950 . S
H96 C104 0.949 . S
H97 C105 0.950 . S
H98 C106 0.951 . S
H99 C107 0.951 . S
C100 C94 1.265 . S
C100 H95 0.950 . S
C100 C101 1.478 . S
C101 C88 1.394 . S
C101 C100 1.478 . S
C101 C102 1.397 . S
C102 C101 1.397 . S
C102 C103 1.438 . S
C102 C107 1.429 . S
C103 C86 1.394 . S
C103 C102 1.438 . S
C103 C104 1.428 . S
C104 H96 0.949 . S
C104 C103 1.428 . S
C104 C105 1.345 . S
C105 H97 0.950 . S
C105 C104 1.345 . S
C105 C106 1.424 . S
C106 H98 0.951 . S
C106 C105 1.424 . S
C106 C107 1.347 . S
C107 H99 0.951 . S
C107 C102 1.429 . S
C107 C106 1.347 . S
H108 C109 0.951 . S
C109 H108 0.951 . S
C109 C115 1.265 . S
H110 C115 0.950 . S
H111 C119 0.949 . S
H112 C120 0.950 . S
H113 C121 0.951 . S
H114 C122 0.951 . S
C115 C109 1.265 . S
C115 H110 0.950 . S
C115 C116 1.478 . S
C116 C115 1.478 . S
C116 C117 1.397 . S
C116 C133 1.394 . S
C117 C116 1.397 . S
C117 C118 1.438 . S
C117 C122 1.429 . S
C118 C117 1.438 . S
C118 C119 1.428 . S
C118 C131 1.394 . S
C119 H111 0.949 . S
C119 C118 1.428 . S
C119 C120 1.345 . S
C120 H112 0.950 . S
C120 C119 1.345 . S
C120 C121 1.424 . S
C121 H113 0.951 . S
C121 C120 1.424 . S
C121 C122 1.347 . S
C122 H114 0.951 . S
C122 C117 1.429 . S
C122 C121 1.347 . S
H123 C124 0.951 . S
C124 H123 0.951 . S
C124 C130 1.265 . S
H125 C130 0.950 . S
H126 C134 0.949 . S
H127 C135 0.950 . S
H128 C136 0.951 . S
H129 C137 0.951 . S
C130 C124 1.265 . S
C130 H125 0.950 . S
C130 C131 1.478 . S
C131 C118 1.394 . S
C131 C130 1.478 . S
C131 C132 1.397 . S
C132 C131 1.397 . S
C132 C133 1.438 . S
C132 C137 1.429 1_554 S
C133 C116 1.394 . S
C133 C132 1.438 . S
C133 C134 1.428 1_554 S
C134 H126 0.949 . S
C134 C133 1.428 1_556 S
C134 C135 1.345 . S
C135 H127 0.950 . S
C135 C134 1.345 . S
C135 C136 1.424 . S
C136 H128 0.951 . S
C136 C135 1.424 . S
C136 C137 1.347 . S
C137 H129 0.951 . S
C137 C132 1.429 1_556 S
C137 C136 1.347 . S
H138 C139 0.951 . S
C139 H138 0.951 . S
C139 C145 1.265 . S
H140 C145 0.950 . S
H141 C149 0.949 . S
H142 C150 0.950 . S
H143 C151 0.951 . S
H144 C152 0.951 . S
C145 C139 1.265 . S
C145 H140 0.950 . S
C145 C146 1.478 . S
C146 C145 1.478 . S
C146 C147 1.397 . S
C146 C163 1.394 . S
C147 C146 1.397 . S
C147 C148 1.438 . S
C147 C152 1.429 . S
C148 C147 1.438 . S
C148 C149 1.428 . S
C148 C161 1.394 . S
C149 H141 0.949 . S
C149 C148 1.428 . S
C149 C150 1.345 . S
C150 H142 0.950 . S
C150 C149 1.345 . S
C150 C151 1.424 . S
C151 H143 0.951 . S
C151 C150 1.424 . S
C151 C152 1.347 . S
C152 H144 0.951 . S
C152 C147 1.429 . S
C152 C151 1.347 . S
H153 C154 0.951 . S
C154 H153 0.951 . S
C154 C160 1.265 . S
H155 C160 0.950 . S
H156 C164 0.949 . S
H157 C165 0.950 . S
H158 C166 0.951 . S
H159 C167 0.951 . S
C160 C154 1.265 . S
C160 H155 0.950 . S
C160 C161 1.478 . S
C161 C148 1.394 . S
C161 C160 1.478 . S
C161 C162 1.397 . S
C162 C161 1.397 . S
C162 C163 1.438 . S
C162 C167 1.429 . S
C163 C146 1.394 . S
C163 C162 1.438 . S
C163 C164 1.428 . S
C164 H156 0.949 . S
C164 C163 1.428 . S
C164 C165 1.345 . S
C165 H157 0.950 . S
C165 C164 1.345 . S
C165 C166 1.424 . S
C166 H158 0.951 . S
C166 C165 1.424 . S
C166 C167 1.347 . S
C167 H159 0.951 . S
C167 C162 1.429 . S
C167 C166 1.347 . S
H168 C169 0.951 . S
C169 H168 0.951 . S
C169 C175 1.265 . S
H170 C175 0.950 . S
H171 C179 0.949 . S
H172 C180 0.950 . S
H173 C181 0.951 . S
H174 C182 0.951 . S
C175 C169 1.265 . S
C175 H170 0.950 . S
C175 C176 1.478 . S
C176 C175 1.478 . S
C176 C177 1.397 . S
C176 C193 1.394 1_554 S
C177 C176 1.397 . S
C177 C178 1.438 . S
C177 C182 1.429 . S
C178 C177 1.438 . S
C178 C179 1.428 . S
C178 C191 1.394 . S
C179 H171 0.949 . S
C179 C178 1.428 . S
C179 C180 1.345 . S
C180 H172 0.950 . S
C180 C179 1.345 . S
C180 C181 1.424 . S
C181 H173 0.951 . S
C181 C180 1.424 . S
C181 C182 1.347 . S
C182 H174 0.951 . S
C182 C177 1.429 . S
C182 C181 1.347 . S
H183 C184 0.951 . S
C184 H183 0.951 . S
C184 C190 1.265 . S
H185 C190 0.950 . S
H186 C194 0.949 . S
H187 C195 0.950 . S
H188 C196 0.951 . S
H189 C197 0.951 . S
C190 C184 1.265 . S
C190 H185 0.950 . S
C190 C191 1.478 . S
C191 C178 1.394 . S
C191 C190 1.478 . S
C191 C192 1.397 1_554 S
C192 C191 1.397 1_556 S
C192 C193 1.438 . S
C192 C197 1.429 . S
C193 C176 1.394 1_556 S
C193 C192 1.438 . S
C193 C194 1.428 . S
C194 H186 0.949 . S
C194 C193 1.428 . S
C194 C195 1.345 . S
C195 H187 0.950 . S
C195 C194 1.345 . S
C195 C196 1.424 . S
C196 H188 0.951 . S
C196 C195 1.424 . S
C196 C197 1.347 . S
C197 H189 0.951 . S
C197 C192 1.429 . S
C197 C196 1.347 . S
H198 C199 0.951 . S
C199 H198 0.951 . S
C199 C205 1.265 . S
H200 C205 0.950 . S
H201 C209 0.949 . S
H202 C210 0.950 . S
H203 C211 0.951 . S
H204 C212 0.951 . S
C205 C199 1.265 . S
C205 H200 0.950 . S
C205 C206 1.478 . S
C206 C205 1.478 . S
C206 C207 1.397 . S
C206 C223 1.394 . S
C207 C206 1.397 . S
C207 C208 1.438 . S
C207 C212 1.429 . S
C208 C207 1.438 . S
C208 C209 1.428 . S
C208 C221 1.394 . S
C209 H201 0.949 . S
C209 C208 1.428 . S
C209 C210 1.345 . S
C210 H202 0.950 . S
C210 C209 1.345 . S
C210 C211 1.424 . S
C211 H203 0.951 . S
C211 C210 1.424 . S
C211 C212 1.347 . S
C212 H204 0.951 . S
C212 C207 1.429 . S
C212 C211 1.347 . S
H213 C214 0.951 . S
C214 H213 0.951 . S
C214 C220 1.265 . S
H215 C220 0.950 . S
H216 C224 0.948 1_565 S
H217 C225 0.950 . S
H218 C226 0.951 . S
H219 C227 0.951 . S
C220 C214 1.265 . S
C220 H215 0.950 . S
C220 C221 1.478 . S
C221 C208 1.394 . S
C221 C220 1.478 . S
C221 C222 1.397 . S
C222 C221 1.397 . S
C222 C223 1.438 . S
C222 C227 1.429 1_565 S
C223 C206 1.394 . S
C223 C222 1.438 . S
C223 C224 1.426 1_565 S
C224 H216 0.948 1_545 S
C224 C223 1.426 1_545 S
C224 C225 1.347 . S
C225 H217 0.950 . S
C225 C224 1.347 . S
C225 C226 1.424 . S
C226 H218 0.951 . S
C226 C225 1.424 . S
C226 C227 1.347 . S
C227 H219 0.951 . S
C227 C222 1.429 1_545 S
C227 C226 1.347 . S
H228 C229 0.951 . S
C229 H228 0.951 . S
C229 C235 1.265 . S
H230 C235 0.950 . S
H231 C239 0.949 . S
H232 C240 0.950 . S
H233 C241 0.951 . S
H234 C242 0.951 . S
C235 C229 1.265 . S
C235 H230 0.950 . S
C235 C236 1.478 . S
C236 C235 1.478 . S
C236 C237 1.397 . S
C236 C253 1.394 . S
C237 C236 1.397 . S
C237 C238 1.438 . S
C237 C242 1.429 . S
C238 C237 1.438 . S
C238 C239 1.428 . S
C238 C251 1.394 . S
C239 H231 0.949 . S
C239 C238 1.428 . S
C239 C240 1.345 . S
C240 H232 0.950 . S
C240 C239 1.345 . S
C240 C241 1.424 . S
C241 H233 0.951 . S
C241 C240 1.424 . S
C241 C242 1.347 . S
C242 H234 0.951 . S
C242 C237 1.429 . S
C242 C241 1.347 . S
H243 C244 0.951 . S
C244 H243 0.951 . S
C244 C250 1.265 . S
H245 C250 0.950 . S
H246 C254 0.949 . S
H247 C255 0.950 . S
H248 C256 0.951 . S
H249 C257 0.951 . S
C250 C244 1.265 . S
C250 H245 0.950 . S
C250 C251 1.478 . S
C251 C238 1.394 . S
C251 C250 1.478 . S
C251 C252 1.397 . S
C252 C251 1.397 . S
C252 C253 1.438 . S
C252 C257 1.429 . S
C253 C236 1.394 . S
C253 C252 1.438 . S
C253 C254 1.428 . S
C254 H246 0.949 . S
C254 C253 1.428 . S
C254 C255 1.345 . S
C255 H247 0.950 . S
C255 C254 1.345 . S
C255 C256 1.424 . S
C256 H248 0.951 . S
C256 C255 1.424 . S
C256 C257 1.347 . S
C257 H249 0.951 . S
C257 C252 1.429 . S
C257 C256 1.347 . S
H258 C259 0.951 . S
C259 H258 0.951 . S
C259 C265 1.265 . S
H260 C265 0.950 . S
H261 C269 0.949 . S
H262 C270 0.950 . S
H263 C271 0.951 . S
H264 C272 0.951 . S
C265 C259 1.265 . S
C265 H260 0.950 . S
C265 C266 1.478 . S
C266 C265 1.478 . S
C266 C267 1.397 . S
C266 C283 1.394 . S
C267 C266 1.397 . S
C267 C268 1.438 . S
C267 C272 1.429 . S
C268 C267 1.438 . S
C268 C269 1.428 . S
C268 C281 1.394 . S
C269 H261 0.949 . S
C269 C268 1.428 . S
C269 C270 1.345 . S
C270 H262 0.950 . S
C270 C269 1.345 . S
C270 C271 1.424 . S
C271 H263 0.951 . S
C271 C270 1.424 . S
C271 C272 1.347 . S
C272 H264 0.951 . S
C272 C267 1.429 . S
C272 C271 1.347 . S
H273 C274 0.951 . S
C274 H273 0.951 . S
C274 C280 1.265 . S
H275 C280 0.950 . S
H276 C284 0.949 . S
H277 C285 0.950 . S
H278 C286 0.951 . S
H279 C287 0.948 1_565 S
C280 C274 1.265 . S
C280 H275 0.950 . S
C280 C281 1.478 . S
C281 C268 1.394 . S
C281 C280 1.478 . S
C281 C282 1.397 . S
C282 C281 1.397 . S
C282 C283 1.438 . S
C282 C287 1.429 . S
C283 C266 1.394 . S
C283 C282 1.438 . S
C283 C284 1.428 . S
C284 H276 0.949 . S
C284 C283 1.428 . S
C284 C285 1.345 1_545 S
C285 H277 0.950 . S
C285 C284 1.345 1_565 S
C285 C286 1.424 . S
C286 H278 0.951 . S
C286 C285 1.424 . S
C286 C287 1.347 1_565 S
C287 H279 0.948 1_545 S
C287 C282 1.429 . S
C287 C286 1.347 1_545 S
H288 C289 0.951 . S
C289 H288 0.951 . S
C289 C295 1.265 . S
H290 C295 0.950 . S
H291 C299 0.949 . S
H292 C300 0.950 . S
H293 C301 0.951 . S
H294 C302 0.951 . S
C295 C289 1.265 . S
C295 H290 0.950 . S
C295 C296 1.478 . S
C296 C295 1.478 . S
C296 C297 1.397 . S
C296 C313 1.394 . S
C297 C296 1.397 . S
C297 C298 1.438 . S
C297 C302 1.429 . S
C298 C297 1.438 . S
C298 C299 1.428 . S
C298 C311 1.394 . S
C299 H291 0.949 . S
C299 C298 1.428 . S
C299 C300 1.345 . S
C300 H292 0.950 . S
C300 C299 1.345 . S
C300 C301 1.424 . S
C301 H293 0.951 . S
C301 C300 1.424 . S
C301 C302 1.347 . S
C302 H294 0.951 . S
C302 C297 1.429 . S
C302 C301 1.347 . S
H303 C304 0.951 . S
C304 H303 0.951 . S
C304 C310 1.265 . S
H305 C310 0.950 . S
H306 C314 0.949 . S
H307 C315 0.950 . S
H308 C316 0.951 . S
H309 C317 0.951 . S
C310 C304 1.265 . S
C310 H305 0.950 . S
C310 C311 1.478 . S
C311 C298 1.394 . S
C311 C310 1.478 . S
C311 C312 1.397 . S
C312 C311 1.397 . S
C312 C313 1.438 . S
C312 C317 1.429 . S
C313 C296 1.394 . S
C313 C312 1.438 . S
C313 C314 1.428 . S
C314 H306 0.949 . S
C314 C313 1.428 . S
C314 C315 1.345 . S
C315 H307 0.950 . S
C315 C314 1.345 . S
C315 C316 1.424 . S
C316 H308 0.951 . S
C316 C315 1.424 . S
C316 C317 1.347 . S
C317 H309 0.951 . S
C317 C312 1.429 . S
C317 C316 1.347 . S
H318 C319 0.951 . S
C319 H318 0.951 . S
C319 C325 1.265 . S
H320 C325 0.950 . S
H321 C329 0.949 . S
H322 C330 0.950 . S
H323 C331 0.951 . S
H324 C332 0.951 . S
C325 C319 1.265 . S
C325 H320 0.950 . S
C325 C326 1.478 . S
C326 C325 1.478 . S
C326 C327 1.397 . S
C326 C343 1.394 . S
C327 C326 1.397 . S
C327 C328 1.438 . S
C327 C332 1.429 . S
C328 C327 1.438 . S
C328 C329 1.428 . S
C328 C341 1.394 . S
C329 H321 0.949 . S
C329 C328 1.428 . S
C329 C330 1.345 . S
C330 H322 0.950 . S
C330 C329 1.345 . S
C330 C331 1.424 . S
C331 H323 0.951 . S
C331 C330 1.424 . S
C331 C332 1.347 . S
C332 H324 0.951 . S
C332 C327 1.429 . S
C332 C331 1.347 . S
H333 C334 0.951 . S
C334 H333 0.951 . S
C334 C340 1.265 . S
H335 C340 0.950 . S
H336 C344 0.949 . S
H337 C345 0.950 . S
H338 C346 0.951 . S
H339 C347 0.951 . S
C340 C334 1.265 . S
C340 H335 0.950 . S
C340 C341 1.478 . S
C341 C328 1.394 . S
C341 C340 1.478 . S
C341 C342 1.397 . S
C342 C341 1.397 . S
C342 C343 1.438 . S
C342 C347 1.429 . S
C343 C326 1.394 . S
C343 C342 1.438 . S
C343 C344 1.428 . S
C344 H336 0.949 . S
C344 C343 1.428 . S
C344 C345 1.345 . S
C345 H337 0.950 . S
C345 C344 1.345 . S
C345 C346 1.424 . S
C346 H338 0.951 . S
C346 C345 1.424 . S
C346 C347 1.347 . S
C347 H339 0.951 . S
C347 C342 1.429 . S
C347 C346 1.347 . S
H348 C349 0.951 . S
C349 H348 0.951 . S
C349 C355 1.265 . S
H350 C355 0.950 . S
H351 C359 0.949 . S
H352 C360 0.950 . S
H353 C361 0.951 . S
H354 C362 0.951 . S
C355 C349 1.265 . S
C355 H350 0.950 . S
C355 C356 1.478 . S
C356 C355 1.478 . S
C356 C357 1.397 . S
C356 C373 1.394 . S
C357 C356 1.397 . S
C357 C358 1.438 . S
C357 C362 1.429 . S
C358 C357 1.438 . S
C358 C359 1.428 . S
C358 C371 1.394 . S
C359 H351 0.949 . S
C359 C358 1.428 . S
C359 C360 1.345 . S
C360 H352 0.950 . S
C360 C359 1.345 . S
C360 C361 1.424 . S
C361 H353 0.951 . S
C361 C360 1.424 . S
C361 C362 1.347 . S
C362 H354 0.951 . S
C362 C357 1.429 . S
C362 C361 1.347 . S
H363 C364 0.951 . S
C364 H363 0.951 . S
C364 C370 1.265 . S
H365 C370 0.950 . S
H366 C374 0.949 . S
H367 C375 0.950 1_565 S
H368 C376 0.951 . S
H369 C377 0.951 . S
C370 C364 1.265 . S
C370 H365 0.950 . S
C370 C371 1.478 . S
C371 C358 1.394 . S
C371 C370 1.478 . S
C371 C372 1.397 . S
C372 C371 1.397 . S
C372 C373 1.438 . S
C372 C377 1.429 . S
C373 C356 1.394 . S
C373 C372 1.438 . S
C373 C374 1.428 . S
C374 H366 0.949 . S
C374 C373 1.428 . S
C374 C375 1.345 . S
C375 H367 0.950 1_545 S
C375 C374 1.345 . S
C375 C376 1.424 1_545 S
C376 H368 0.951 . S
C376 C375 1.424 1_565 S
C376 C377 1.347 1_565 S
C377 H369 0.951 . S
C377 C372 1.429 . S
C377 C376 1.347 1_545 S
H378 C379 0.951 . S
C379 H378 0.951 . S
C379 C385 1.265 . S
H380 C385 0.950 . S
H381 C389 0.949 . S
H382 C390 0.950 . S
H383 C391 0.951 . S
H384 C392 0.951 . S
C385 C379 1.265 . S
C385 H380 0.950 . S
C385 C386 1.478 . S
C386 C385 1.478 . S
C386 C387 1.397 . S
C386 C403 1.394 . S
C387 C386 1.397 . S
C387 C388 1.438 . S
C387 C392 1.429 . S
C388 C387 1.438 . S
C388 C389 1.428 . S
C388 C401 1.394 . S
C389 H381 0.949 . S
C389 C388 1.428 . S
C389 C390 1.345 . S
C390 H382 0.950 . S
C390 C389 1.345 . S
C390 C391 1.424 . S
C391 H383 0.951 . S
C391 C390 1.424 . S
C391 C392 1.347 . S
C392 H384 0.951 . S
C392 C387 1.429 . S
C392 C391 1.347 . S
H393 C394 0.951 . S
C394 H393 0.951 . S
C394 C400 1.265 . S
H395 C400 0.950 . S
H396 C404 0.949 . S
H397 C405 0.950 . S
H398 C406 0.951 . S
H399 C407 0.951 . S
C400 C394 1.265 . S
C400 H395 0.950 . S
C400 C401 1.478 . S
C401 C388 1.394 . S
C401 C400 1.478 . S
C401 C402 1.397 . S
C402 C401 1.397 . S
C402 C403 1.438 . S
C402 C407 1.429 . S
C403 C386 1.394 . S
C403 C402 1.438 . S
C403 C404 1.428 . S
C404 H396 0.949 . S
C404 C403 1.428 . S
C404 C405 1.345 . S
C405 H397 0.950 . S
C405 C404 1.345 . S
C405 C406 1.424 . S
C406 H398 0.951 . S
C406 C405 1.424 . S
C406 C407 1.347 . S
C407 H399 0.951 . S
C407 C402 1.429 . S
C407 C406 1.347 . S
H408 C409 0.951 . S
C409 H408 0.951 . S
C409 C415 1.265 . S
H410 C415 0.950 . S
H411 C419 0.949 . S
H412 C420 0.950 . S
H413 C421 0.951 . S
H414 C422 0.951 . S
C415 C409 1.265 . S
C415 H410 0.950 . S
C415 C416 1.478 . S
C416 C415 1.478 . S
C416 C417 1.397 . S
C416 C433 1.394 . S
C417 C416 1.397 . S
C417 C418 1.438 . S
C417 C422 1.429 . S
C418 C417 1.438 . S
C418 C419 1.428 . S
C418 C431 1.394 . S
C419 H411 0.949 . S
C419 C418 1.428 . S
C419 C420 1.345 . S
C420 H412 0.950 . S
C420 C419 1.345 . S
C420 C421 1.424 . S
C421 H413 0.951 . S
C421 C420 1.424 . S
C421 C422 1.347 . S
C422 H414 0.951 . S
C422 C417 1.429 . S
C422 C421 1.347 . S
H423 C424 0.951 . S
C424 H423 0.951 . S
C424 C430 1.265 . S
H425 C430 0.950 . S
H426 C434 0.949 1_565 S
H427 C435 0.950 . S
H428 C436 0.951 . S
H429 C437 0.951 . S
C430 C424 1.265 . S
C430 H425 0.950 . S
C430 C431 1.478 . S
C431 C418 1.394 . S
C431 C430 1.478 . S
C431 C432 1.397 . S
C432 C431 1.397 . S
C432 C433 1.438 . S
C432 C437 1.429 1_565 S
C433 C416 1.394 . S
C433 C432 1.438 . S
C433 C434 1.428 1_565 S
C434 H426 0.949 1_545 S
C434 C433 1.428 1_545 S
C434 C435 1.345 . S
C435 H427 0.950 . S
C435 C434 1.345 . S
C435 C436 1.424 . S
C436 H428 0.951 . S
C436 C435 1.424 . S
C436 C437 1.347 . S
C437 H429 0.951 . S
C437 C432 1.429 1_545 S
C437 C436 1.347 . S
C94 C52 1.272 . S
C79 C34 1.446 . S
C109 C7 1.404 . S
C124 C73 1.243 . S
C139 C16 1.599 . S
C154 C49 1.386 . S
C169 C25 1.565 . S
C184 C70 1.374 . S
C214 C54 1.439 . S
C199 C5 1.531 . S
C244 C74 1.504 . S
C229 C13 1.513 . S
C259 C23 1.533 . S
C274 C50 1.481 . S
C289 C32 1.494 . S
C304 C72 1.401 . S
C334 C71 1.456 . S
C319 C14 1.506 . S
C364 C53 1.512 . S
C349 C22 1.509 . S
C394 C75 1.494 . S
C379 C31 1.491 . S
C409 C4 1.502 1_556 S
C424 C51 1.481 . S
