# Generated by pormake.
# Topology apo, (3,6)-cn, num edge types: 1
# Building blocks:
#     Node 0, Type 0, BuildingBlock: BETDIP_clean_linker_0, # of connection points: 3
#     Node 1, Type 0, BuildingBlock: BETDIP_clean_linker_0, # of connection points: 3
#     Node 2, Type 0, BuildingBlock: BETDIP_clean_linker_0, # of connection points: 3
#     Node 3, Type 0, BuildingBlock: BETDIP_clean_linker_0, # of connection points: 3
#     Node 4, Type 0, BuildingBlock: BETDIP_clean_linker_0, # of connection points: 3
#     Node 5, Type 0, BuildingBlock: BETDIP_clean_linker_0, # of connection points: 3
#     Node 6, Type 0, BuildingBlock: BETDIP_clean_linker_0, # of connection points: 3
#     Node 7, Type 0, BuildingBlock: BETDIP_clean_linker_0, # of connection points: 3
#     Node 8, Type 1, BuildingBlock: MIDCAF_clean_sbu_0, # of connection points: 6
#     Node 9, Type 1, BuildingBlock: MIDCAF_clean_sbu_0, # of connection points: 6
#     Node 10, Type 1, BuildingBlock: MIDCAF_clean_sbu_0, # of connection points: 6
#     Node 11, Type 1, BuildingBlock: MIDCAF_clean_sbu_0, # of connection points: 6
#     Edge 12, Type (0, 1), BuildingBlock: ZUJKAS_clean_linker_0, # of connection points: 2
#     Edge 13, Type (0, 1), BuildingBlock: ZUJKAS_clean_linker_0, # of connection points: 2
#     Edge 14, Type (0, 1), BuildingBlock: ZUJKAS_clean_linker_0, # of connection points: 2
#     Edge 15, Type (0, 1), BuildingBlock: ZUJKAS_clean_linker_0, # of connection points: 2
#     Edge 16, Type (0, 1), BuildingBlock: ZUJKAS_clean_linker_0, # of connection points: 2
#     Edge 17, Type (0, 1), BuildingBlock: ZUJKAS_clean_linker_0, # of connection points: 2
#     Edge 18, Type (0, 1), BuildingBlock: ZUJKAS_clean_linker_0, # of connection points: 2
#     Edge 19, Type (0, 1), BuildingBlock: ZUJKAS_clean_linker_0, # of connection points: 2
#     Edge 20, Type (0, 1), BuildingBlock: ZUJKAS_clean_linker_0, # of connection points: 2
#     Edge 21, Type (0, 1), BuildingBlock: ZUJKAS_clean_linker_0, # of connection points: 2
#     Edge 22, Type (0, 1), BuildingBlock: ZUJKAS_clean_linker_0, # of connection points: 2
#     Edge 23, Type (0, 1), BuildingBlock: ZUJKAS_clean_linker_0, # of connection points: 2
#     Edge 24, Type (0, 1), BuildingBlock: ZUJKAS_clean_linker_0, # of connection points: 2
#     Edge 25, Type (0, 1), BuildingBlock: ZUJKAS_clean_linker_0, # of connection points: 2
#     Edge 26, Type (0, 1), BuildingBlock: ZUJKAS_clean_linker_0, # of connection points: 2
#     Edge 27, Type (0, 1), BuildingBlock: ZUJKAS_clean_linker_0, # of connection points: 2
#     Edge 28, Type (0, 1), BuildingBlock: ZUJKAS_clean_linker_0, # of connection points: 2
#     Edge 29, Type (0, 1), BuildingBlock: ZUJKAS_clean_linker_0, # of connection points: 2
#     Edge 30, Type (0, 1), BuildingBlock: ZUJKAS_clean_linker_0, # of connection points: 2
#     Edge 31, Type (0, 1), BuildingBlock: ZUJKAS_clean_linker_0, # of connection points: 2
#     Edge 32, Type (0, 1), BuildingBlock: ZUJKAS_clean_linker_0, # of connection points: 2
#     Edge 33, Type (0, 1), BuildingBlock: ZUJKAS_clean_linker_0, # of connection points: 2
#     Edge 34, Type (0, 1), BuildingBlock: ZUJKAS_clean_linker_0, # of connection points: 2
#     Edge 35, Type (0, 1), BuildingBlock: ZUJKAS_clean_linker_0, # of connection points: 2
# Relax obj value: 0.012
# Max RMSD: 0.062
# Mean RMSD: 0.056
data_MOF--net-apo--node1-MIDCAF_clean_sbu_0--node2-BETDIP_clean_linker_0--edge1-ZUJKAS_clean_linker_0
_symmetry_space_group_name_H-M    P1
_symmetry_Int_Tables_number       1
_symmetry_cell_setting            triclinic
loop_
_symmetry_equiv_pos_as_xyz
'x, y, z'
_cell_length_a     47.688814
_cell_length_b     53.683914
_cell_length_c     45.624884
_cell_angle_alpha  89.947529
_cell_angle_beta   90.001875
_cell_angle_gamma 90.177899
loop_
_atom_site_label
_atom_site_type_symbol
_atom_site_fract_x
_atom_site_fract_y
_atom_site_fract_z
_atom_type_partial_charge
H0 H 0.31825 0.3018 0.43178 0.0
H1 H 0.33727 0.33437 0.34793 0.0
H2 H 0.38016 0.36001 0.42502 0.0
H3 H 0.3197 0.29803 0.33072 0.0
C4 C 0.3026 0.29386 0.34568 0.0
C5 C 0.33045 0.31472 0.41866 0.0
C6 C 0.35 0.33064 0.43219 0.0
C7 C 0.32598 0.31562 0.38829 0.0
C8 C 0.34106 0.33298 0.37124 0.0
C9 C 0.36075 0.34904 0.38432 0.0
C10 C 0.36517 0.34758 0.41475 0.0
N11 N 0.30509 0.29979 0.37596 0.0
H12 H 0.19665 0.19532 0.93106 0.0
H13 H 0.17829 0.15714 0.85024 0.0
H14 H 0.13083 0.1403 0.92744 0.0
H15 H 0.20102 0.18782 0.82936 0.0
C16 C 0.21597 0.19549 0.84485 0.0
C17 C 0.18433 0.18185 0.91887 0.0
C18 C 0.16284 0.16842 0.933 0.0
C19 C 0.18976 0.17847 0.88887 0.0
C20 C 0.17396 0.16074 0.87308 0.0
C21 C 0.15236 0.14725 0.88682 0.0
C22 C 0.14691 0.15129 0.91665 0.0
N23 N 0.21152 0.19287 0.87559 0.0
H24 H 0.8157 0.20356 0.58735 0.0
H25 H 0.83224 0.1615 0.66574 0.0
H26 H 0.87564 0.1437 0.58621 0.0
H27 H 0.78907 0.17339 0.67799 0.0
C28 C 0.78617 0.19182 0.66869 0.0
C29 C 0.82676 0.18862 0.59833 0.0
C30 C 0.84654 0.1743 0.58291 0.0
C31 C 0.82097 0.18388 0.628 0.0
C32 C 0.8359 0.16501 0.64272 0.0
C33 C 0.85566 0.15042 0.62772 0.0
C34 C 0.86063 0.15511 0.59786 0.0
N35 N 0.80028 0.19861 0.64234 0.0
H36 H 0.68671 0.29677 0.09576 0.0
H37 H 0.66665 0.33258 0.17749 0.0
H38 H 0.6224 0.35259 0.09902 0.0
H39 H 0.68947 0.30199 0.19796 0.0
C40 C 0.70421 0.29426 0.18236 0.0
C41 C 0.67439 0.31005 0.10811 0.0
C42 C 0.65364 0.32411 0.09389 0.0
C43 C 0.67896 0.31251 0.13837 0.0
C44 C 0.66305 0.32996 0.15434 0.0
C45 C 0.64239 0.34444 0.1404 0.0
C46 C 0.63776 0.34117 0.11021 0.0
N47 N 0.70005 0.29747 0.15167 0.0
H48 H 0.69819 0.69467 0.5759 0.0
H49 H 0.68059 0.65649 0.65692 0.0
H50 H 0.63697 0.63559 0.57854 0.0
H51 H 0.70246 0.6872 0.67798 0.0
C52 C 0.71645 0.6961 0.66242 0.0
C53 C 0.68652 0.68071 0.58803 0.0
C54 C 0.66706 0.66539 0.57342 0.0
C55 C 0.69147 0.67795 0.61819 0.0
C56 C 0.67681 0.65937 0.63383 0.0
C57 C 0.65694 0.64418 0.6197 0.0
C58 C 0.6522 0.64734 0.58954 0.0
N59 N 0.7118 0.69375 0.63169 0.0
H60 H 0.81254 0.80499 0.07896 0.0
H61 H 0.82983 0.84042 0.1616 0.0
H62 H 0.87524 0.8626 0.08467 0.0
H63 H 0.78506 0.8303 0.17103 0.0
C64 C 0.78215 0.81223 0.1608 0.0
C65 C 0.82414 0.81861 0.09166 0.0
C66 C 0.84515 0.83308 0.07819 0.0
C67 C 0.81793 0.82153 0.12154 0.0
C68 C 0.83349 0.83875 0.1383 0.0
C69 C 0.85444 0.8535 0.12522 0.0
C70 C 0.85991 0.8506 0.09516 0.0
N71 N 0.79637 0.80654 0.13419 0.0
H72 H 0.18936 0.80085 0.4164 0.0
H73 H 0.17136 0.83563 0.33349 0.0
H74 H 0.12972 0.86076 0.41118 0.0
H75 H 0.18993 0.80187 0.31423 0.0
C76 C 0.20504 0.79457 0.32978 0.0
C77 C 0.1777 0.81437 0.40369 0.0
C78 C 0.15914 0.8308 0.41779 0.0
C79 C 0.18189 0.81549 0.37324 0.0
C80 C 0.16751 0.83362 0.35672 0.0
C81 C 0.1489 0.8502 0.37038 0.0
C82 C 0.14467 0.84845 0.40078 0.0
N83 N 0.20165 0.79888 0.36037 0.0
H84 H 0.31286 0.70258 0.92086 0.0
H85 H 0.3348 0.66705 0.83937 0.0
H86 H 0.37023 0.64102 0.92021 0.0
H87 H 0.31734 0.70068 0.81877 0.0
C88 C 0.30112 0.70771 0.8332 0.0
C89 C 0.32459 0.68864 0.90888 0.0
C90 C 0.34194 0.67197 0.92412 0.0
C91 C 0.32179 0.68715 0.87828 0.0
C92 C 0.33687 0.66876 0.86286 0.0
C93 C 0.35477 0.65226 0.87777 0.0
C94 C 0.3569 0.65391 0.90841 0.0
N95 N 0.30285 0.70372 0.86403 0.0
Zn96 Zn 0.02184 0.11862 0.30896 0.0
Zn97 Zn 0.98402 0.12954 0.20461 0.0
Zn98 Zn 0.00368 0.12459 0.25758 0.0
C99 C 0.03785 0.14873 0.20257 0.0
C100 C 0.9829 0.07866 0.21695 0.0
O101 O 0.97198 0.14078 0.28876 0.0
O102 O 0.98727 0.12533 0.33068 0.0
C103 C 0.05761 0.15305 0.28296 0.0
O104 O 0.03663 0.14363 0.23023 0.0
O105 O 0.01734 0.144 0.18605 0.0
O106 O 0.97552 0.09384 0.19726 0.0
O107 O 0.9947 0.08668 0.24059 0.0
O108 O 0.0506 0.14524 0.30801 0.0
O109 O 0.04402 0.14567 0.26008 0.0
O110 O 0.01104 0.08389 0.2656 0.0
O111 O 0.03362 0.08355 0.30787 0.0
C112 C 0.02423 0.07196 0.28592 0.0
O113 O 0.96363 0.14625 0.26015 0.0
O114 O 0.95316 0.15264 0.21346 0.0
C115 C 0.9688 0.13701 0.31653 0.0
C116 C 0.948 0.15619 0.24024 0.0
Zn117 Zn 0.52822 0.37607 0.71721 0.0
Zn118 Zn 0.47929 0.38148 0.81395 0.0
Zn119 Zn 0.5042 0.3774 0.76398 0.0
C120 C 0.48716 0.4297 0.79634 0.0
C121 C 0.44254 0.35491 0.77823 0.0
O122 O 0.54288 0.35426 0.76904 0.0
O123 O 0.54905 0.34461 0.72247 0.0
C124 C 0.53645 0.42332 0.73421 0.0
O125 O 0.49713 0.41776 0.77412 0.0
O126 O 0.47882 0.41799 0.81868 0.0
O127 O 0.4437 0.36485 0.80325 0.0
O128 O 0.46321 0.35734 0.76017 0.0
O129 O 0.54999 0.40756 0.71947 0.0
O130 O 0.51566 0.4161 0.75022 0.0
O131 O 0.47458 0.36049 0.73172 0.0
O132 O 0.49447 0.37565 0.69185 0.0
C133 C 0.47394 0.36494 0.70396 0.0
O134 O 0.53163 0.35861 0.79718 0.0
O135 O 0.50624 0.36222 0.83748 0.0
C136 C 0.55527 0.34137 0.74905 0.0
C137 C 0.52812 0.3546 0.82484 0.0
Zn138 Zn 0.0288 0.87412 0.799 0.0
Zn139 Zn 0.9836 0.87944 0.70198 0.0
Zn140 Zn 0.00517 0.87713 0.74965 0.0
C141 C 0.97558 0.92561 0.72404 0.0
C142 C 0.95445 0.84286 0.7297 0.0
O143 O 0.04491 0.85511 0.74435 0.0
O144 O 0.05547 0.84725 0.79059 0.0
C145 C 0.03134 0.92398 0.78333 0.0
O146 O 0.99558 0.91709 0.74021 0.0
O147 O 0.96273 0.91107 0.70694 0.0
O148 O 0.96204 0.84778 0.70384 0.0
O149 O 0.96588 0.85454 0.75134 0.0
O150 O 0.04325 0.90892 0.80052 0.0
O151 O 0.01399 0.91592 0.76385 0.0
O152 O 0.9746 0.85886 0.78017 0.0
O153 O 0.99595 0.86453 0.82271 0.0
C154 C 0.97484 0.85723 0.8084 0.0
O155 O 0.03525 0.86168 0.71671 0.0
O156 O 0.01797 0.88019 0.67754 0.0
C157 C 0.05997 0.84378 0.7637 0.0
C158 C 0.03736 0.86789 0.68946 0.0
Zn159 Zn 0.52346 0.61914 0.19741 0.0
Zn160 Zn 0.48308 0.62742 0.30436 0.0
Zn161 Zn 0.50274 0.62319 0.25033 0.0
C162 C 0.53664 0.64681 0.30621 0.0
C163 C 0.48193 0.57666 0.2902 0.0
O164 O 0.4729 0.64149 0.21927 0.0
O165 O 0.49481 0.6389 0.1766 0.0
C166 C 0.56364 0.64468 0.22969 0.0
O167 O 0.5351 0.6417 0.27861 0.0
O168 O 0.51641 0.64198 0.32307 0.0
O169 O 0.47525 0.59141 0.31058 0.0
O170 O 0.49309 0.58512 0.26644 0.0
O171 O 0.56016 0.6351 0.20469 0.0
O172 O 0.54443 0.64239 0.24946 0.0
O173 O 0.50813 0.58283 0.24006 0.0
O174 O 0.52255 0.58237 0.194 0.0
C175 C 0.51596 0.57073 0.21705 0.0
O176 O 0.46304 0.64506 0.24802 0.0
O177 O 0.45197 0.65027 0.29478 0.0
C178 C 0.47403 0.64598 0.1915 0.0
C179 C 0.44712 0.6544 0.26804 0.0
H180 H 0.14322 0.89921 0.38466 0.0
H181 H 0.1182 0.93159 0.35767 0.0
H182 H 0.09707 0.87864 0.29016 0.0
H183 H 0.122 0.84586 0.31731 0.0
H184 H 0.128 0.94682 0.29512 0.0
H185 H 0.02048 0.91127 0.31941 0.0
H186 H 0.05011 0.90291 0.34198 0.0
H187 H 0.04674 0.8901 0.3059 0.0
C188 C 0.13314 0.89438 0.36415 0.0
C189 C 0.13439 0.86992 0.35323 0.0
C190 C 0.11901 0.91294 0.34867 0.0
C191 C 0.10566 0.90745 0.32205 0.0
C192 C 0.10711 0.88318 0.31077 0.0
H193 H 0.03666 0.04327 0.23765 0.0
H194 H 0.0529 -0.00031 0.23821 0.0
C195 C 0.12147 0.86455 0.32621 0.0
C196 C 0.09007 0.92743 0.30669 0.0
H197 H 0.02418 0.95129 0.29889 0.0
C198 C 0.10528 0.94759 0.29518 0.0
C199 C 0.06045 0.92828 0.30691 0.0
C200 C 0.04328 0.90709 0.31924 0.0
C201 C 0.09169 0.96928 0.28553 0.0
C202 C 0.06212 0.97075 0.2874 0.0
C203 C 0.04682 0.94998 0.29724 0.0
C204 C 0.04765 0.99508 0.28504 0.0
C205 C 0.10915 0.99118 0.27551 0.0
C206 C 0.03828 0.00642 0.31087 0.0
C207 C 0.0292 0.03105 0.31059 0.0
C208 C 0.02898 0.04482 0.28441 0.0
C209 C 0.03651 0.03299 0.25809 0.0
C210 C 0.0459 0.00821 0.25842 0.0
H211 H 0.13201 0.98752 0.27721 0.0
H212 H 0.10414 0.99554 0.25232 0.0
H213 H 0.10411 0.00789 0.28882 0.0
H214 H 0.03947 0.99664 0.33162 0.0
H215 H 0.02335 0.03967 0.33116 0.0
H216 H 0.40933 0.63857 0.88654 0.0
H217 H 0.43479 0.60449 0.86338 0.0
H218 H 0.36306 0.58857 0.80888 0.0
H219 H 0.337 0.62212 0.83281 0.0
H220 H 0.38234 0.54749 0.83578 0.0
H221 H 0.47188 0.59658 0.78444 0.0
H222 H 0.46843 0.60411 0.82256 0.0
H223 H 0.44109 0.61275 0.79732 0.0
C224 C 0.39897 0.62788 0.86954 0.0
C225 C 0.37105 0.633 0.86165 0.0
C226 C 0.41374 0.60863 0.85599 0.0
C227 C 0.40105 0.59422 0.834 0.0
C228 C 0.37338 0.59962 0.82558 0.0
H229 H 0.46147 0.45605 0.75323 0.0
H230 H 0.4427 0.49849 0.75737 0.0
C231 C 0.35855 0.61887 0.83919 0.0
C232 C 0.41567 0.57203 0.82205 0.0
H233 H 0.47753 0.55233 0.79209 0.0
C234 C 0.40291 0.54863 0.82571 0.0
C235 C 0.44256 0.57348 0.80891 0.0
C236 C 0.45666 0.59812 0.80279 0.0
C237 C 0.41678 0.52664 0.81782 0.0
C238 C 0.44409 0.52805 0.80594 0.0
C239 C 0.45659 0.55139 0.80132 0.0
C240 C 0.46034 0.50514 0.80032 0.0
C241 C 0.40265 0.50186 0.82322 0.0
C242 C 0.47719 0.49533 0.82267 0.0
C243 C 0.48795 0.47125 0.82028 0.0
C244 C 0.48232 0.45676 0.79535 0.0
C245 C 0.4669 0.46719 0.77219 0.0
C246 C 0.45598 0.49129 0.77465 0.0
H247 H 0.38133 0.50395 0.83271 0.0
H248 H 0.40094 0.49141 0.8023 0.0
H249 H 0.41556 0.49053 0.83845 0.0
H250 H 0.48052 0.5057 0.84275 0.0
H251 H 0.4994 0.46342 0.83861 0.0
H252 H 0.60066 0.63424 0.61818 0.0
H253 H 0.57518 0.60127 0.64416 0.0
H254 H 0.65247 0.5769 0.68393 0.0
H255 H 0.6779 0.61007 0.65841 0.0
H256 H 0.58129 0.55241 0.63889 0.0
H257 H 0.60202 0.57767 0.75432 0.0
H258 H 0.60903 0.59877 0.72435 0.0
H259 H 0.63388 0.57484 0.73375 0.0
C260 C 0.61216 0.62193 0.63262 0.0
C261 C 0.64127 0.62477 0.63632 0.0
C262 C 0.59757 0.60318 0.64756 0.0
C263 C 0.61177 0.58686 0.66648 0.0
C264 C 0.64085 0.58971 0.67021 0.0
H265 H 0.58887 0.44242 0.73696 0.0
H266 H 0.60378 0.4847 0.72393 0.0
C267 C 0.65542 0.60859 0.65548 0.0
C268 C 0.59664 0.56569 0.68045 0.0
H269 H 0.58675 0.53543 0.74565 0.0
C270 C 0.58205 0.54897 0.66231 0.0
C271 C 0.59754 0.5612 0.71105 0.0
C272 C 0.61122 0.57923 0.73201 0.0
C273 C 0.56956 0.52731 0.67367 0.0
C274 C 0.57152 0.5223 0.70403 0.0
C275 C 0.5853 0.53935 0.72237 0.0
C276 C 0.56174 0.49827 0.71639 0.0
C277 C 0.55545 0.5093 0.65294 0.0
C278 C 0.53309 0.49216 0.71735 0.0
C279 C 0.52454 0.46801 0.72495 0.0
C280 C 0.54452 0.44976 0.73175 0.0
C281 C 0.57306 0.45627 0.73204 0.0
C282 C 0.58158 0.48037 0.72465 0.0
H283 H 0.55893 0.51436 0.6296 0.0
H284 H 0.56333 0.49011 0.65664 0.0
H285 H 0.53254 0.5092 0.65716 0.0
H286 H 0.51747 0.50574 0.71098 0.0
H287 H 0.50257 0.46316 0.72352 0.0
H288 H 0.83383 0.88508 0.16725 0.0
H289 H 0.85835 0.91954 0.19129 0.0
H290 H 0.93435 0.90047 0.14545 0.0
H291 H 0.91036 0.86533 0.12225 0.0
H292 H 0.94373 0.91654 0.20395 0.0
H293 H 0.87522 0.98133 0.1415 0.0
H294 H 0.85697 0.9595 0.1645 0.0
H295 H 0.87674 0.94846 0.13361 0.0
C296 C 0.85593 0.88781 0.1628 0.0
C297 C 0.87 0.87265 0.14244 0.0
C298 C 0.86986 0.90765 0.1764 0.0
C299 C 0.89802 0.91284 0.16973 0.0
C300 C 0.91257 0.89689 0.15078 0.0
H301 H 0.98027 0.0537 0.16549 0.0
H302 H 0.96236 0.0117 0.15711 0.0
C303 C 0.89872 0.87698 0.13729 0.0
C304 C 0.9116 0.93611 0.18014 0.0
H305 H 0.90834 0.99931 0.17317 0.0
C306 C 0.93596 0.93468 0.19742 0.0
C307 C 0.90158 0.95972 0.17124 0.0
C308 C 0.87635 0.96248 0.15149 0.0
C309 C 0.95067 0.95631 0.20586 0.0
C310 C 0.94057 0.97985 0.19688 0.0
C311 C 0.916 0.98121 0.18003 0.0
C312 C 0.95571 0.00345 0.20302 0.0
C313 C 0.97731 0.95384 0.22344 0.0
C314 C 0.9587 0.01252 0.23173 0.0
C315 C 0.96912 0.03662 0.2366 0.0
C316 C 0.97648 0.05196 0.21279 0.0
C317 C 0.97465 0.04234 0.18425 0.0
C318 C 0.96445 0.01834 0.17943 0.0
H319 H 0.9852 0.93439 0.22364 0.0
H320 H 0.99394 0.96625 0.21454 0.0
H321 H 0.97324 0.95954 0.24642 0.0
H322 H 0.95166 0.00151 0.25024 0.0
H323 H 0.96994 0.0437 0.2588 0.0
H324 H 0.88004 0.15123 0.68231 0.0
H325 H 0.9064 0.11777 0.7064 0.0
H326 H 0.89216 0.07021 0.63173 0.0
H327 H 0.86582 0.10335 0.60768 0.0
H328 H 0.89007 0.07042 0.7223 0.0
H329 H 0.97671 0.06545 0.64212 0.0
H330 H 0.95263 0.09133 0.64343 0.0
H331 H 0.94314 0.06306 0.6246 0.0
C332 C 0.88244 0.13359 0.6711 0.0
C333 C 0.87105 0.13004 0.64294 0.0
C334 C 0.89764 0.11456 0.68482 0.0
C335 C 0.90184 0.09169 0.67057 0.0
C336 C 0.88995 0.08795 0.64278 0.0
H337 H 0.923 0.9435 0.71952 0.0
H338 H 0.90857 0.9866 0.71274 0.0
C339 C 0.87483 0.10691 0.62907 0.0
C340 C 0.91768 0.07125 0.68494 0.0
H341 H 0.96962 0.02897 0.67227 0.0
C342 C 0.9078 0.06163 0.71165 0.0
C343 C 0.94127 0.06012 0.67148 0.0
C344 C 0.95426 0.0707 0.64399 0.0
C345 C 0.91955 0.04008 0.72406 0.0
C346 C 0.94141 0.02762 0.70912 0.0
C347 C 0.95266 0.03832 0.6836 0.0
C348 C 0.95034 0.00204 0.71728 0.0
C349 C 0.90794 0.03052 0.7527 0.0
C350 C 0.97875 0.9962 0.7219 0.0
C351 C 0.9871 0.97134 0.72564 0.0
C352 C 0.96717 0.95205 0.7246 0.0
C353 C 0.93877 0.95805 0.72068 0.0
C354 C 0.93046 0.98272 0.71706 0.0
H355 H 0.89952 0.04601 0.76621 0.0
H356 H 0.89039 0.01746 0.74817 0.0
H357 H 0.92416 0.02051 0.76556 0.0
H358 H 0.99451 0.01078 0.72174 0.0
H359 H 0.00919 0.96713 0.72784 0.0
H360 H 0.66179 0.37658 0.18261 0.0
H361 H 0.63636 0.41033 0.20655 0.0
H362 H 0.56174 0.39076 0.15827 0.0
H363 H 0.5866 0.35621 0.13536 0.0
H364 H 0.61585 0.44937 0.17884 0.0
H365 H 0.52842 0.40366 0.23778 0.0
H366 H 0.55825 0.38653 0.22417 0.0
H367 H 0.52969 0.39439 0.20006 0.0
C368 C 0.63974 0.37894 0.17771 0.0
C369 C 0.6263 0.36365 0.15695 0.0
C370 C 0.62525 0.39838 0.19133 0.0
C371 C 0.59699 0.40296 0.18456 0.0
C372 C 0.5833 0.38731 0.16445 0.0
H373 H 0.50982 0.53872 0.1716 0.0
H374 H 0.52692 0.49594 0.16871 0.0
C375 C 0.59773 0.36778 0.15095 0.0
C376 C 0.58293 0.42578 0.19568 0.0
H377 H 0.52262 0.44755 0.22717 0.0
C378 C 0.59572 0.44886 0.18991 0.0
C379 C 0.55666 0.42524 0.21024 0.0
C380 C 0.5426 0.40109 0.2187 0.0
C381 C 0.58248 0.47132 0.19703 0.0
C382 C 0.55559 0.47078 0.21001 0.0
C383 C 0.54317 0.44783 0.21699 0.0
C384 C 0.53968 0.49412 0.2141 0.0
C385 C 0.5969 0.49562 0.18975 0.0
C386 C 0.54018 0.50683 0.24098 0.0
C387 C 0.53039 0.5314 0.24271 0.0
C388 C 0.52003 0.54344 0.21757 0.0
C389 C 0.51775 0.52993 0.1913 0.0
C390 C 0.52741 0.50548 0.18962 0.0
H391 H 0.61932 0.49294 0.18397 0.0
H392 H 0.58618 0.50445 0.17083 0.0
H393 H 0.59557 0.50867 0.20856 0.0
H394 H 0.54974 0.49835 0.26005 0.0
H395 H 0.53269 0.54146 0.26314 0.0
H396 H 0.41609 0.36278 0.38758 0.0
H397 H 0.43884 0.39828 0.36357 0.0
H398 H 0.3624 0.41415 0.31682 0.0
H399 H 0.3392 0.37919 0.34139 0.0
H400 H 0.44662 0.41386 0.30277 0.0
H401 H 0.37777 0.4768 0.36744 0.0
H402 H 0.38129 0.44412 0.37584 0.0
H403 H 0.36001 0.4539 0.34547 0.0
C404 C 0.40415 0.37374 0.37207 0.0
C405 C 0.3757 0.36835 0.36674 0.0
C406 C 0.41727 0.39386 0.35816 0.0
C407 C 0.40221 0.40899 0.33869 0.0
C408 C 0.37432 0.40281 0.33198 0.0
H409 H 0.46542 0.54289 0.24844 0.0
H410 H 0.44838 0.50024 0.25696 0.0
C411 C 0.36115 0.38272 0.34592 0.0
C412 C 0.41479 0.43257 0.32789 0.0
H413 H 0.40992 0.49564 0.33535 0.0
C414 C 0.43854 0.43178 0.30966 0.0
C415 C 0.40434 0.45588 0.33722 0.0
C416 C 0.3796 0.45789 0.35775 0.0
C417 C 0.45221 0.45381 0.30067 0.0
C418 C 0.44176 0.47704 0.31021 0.0
C419 C 0.41782 0.47776 0.32805 0.0
C420 C 0.45605 0.50098 0.30371 0.0
C421 C 0.47815 0.45214 0.28186 0.0
C422 C 0.46635 0.51533 0.32704 0.0
C423 C 0.47601 0.53952 0.32223 0.0
C424 C 0.47566 0.54988 0.29396 0.0
C425 C 0.46645 0.53517 0.27034 0.0
C426 C 0.45669 0.51085 0.27519 0.0
H427 H 0.48605 0.43275 0.28017 0.0
H428 H 0.47324 0.45891 0.25946 0.0
H429 H 0.49506 0.46419 0.29084 0.0
H430 H 0.46598 0.50808 0.34921 0.0
H431 H 0.48299 0.55043 0.34084 0.0
H432 H 0.09544 0.14143 0.88544 0.0
H433 H 0.06852 0.10825 0.8615 0.0
H434 H 0.14523 0.07672 0.82811 0.0
H435 H 0.17214 0.11021 0.85141 0.0
H436 H 0.10342 0.07525 0.78738 0.0
H437 H 0.06439 0.03851 0.89385 0.0
H438 H 0.05532 0.07036 0.88679 0.0
H439 H 0.09149 0.0619 0.89162 0.0
C440 C 0.10651 0.12745 0.87288 0.0
C441 C 0.1359 0.12826 0.87048 0.0
C442 C 0.09113 0.10847 0.85931 0.0
C443 C 0.10489 0.08967 0.84355 0.0
C444 C 0.13415 0.09097 0.84024 0.0
H445 H 0.0833 0.94355 0.78195 0.0
H446 H 0.0972 0.98658 0.79213 0.0
C447 C 0.14952 0.11012 0.85352 0.0
C448 C 0.08911 0.06809 0.8314 0.0
H449 H 0.0493 0.01778 0.85127 0.0
C450 C 0.09139 0.06282 0.80133 0.0
C451 C 0.07334 0.05184 0.84959 0.0
C452 C 0.07113 0.05574 0.88228 0.0
C453 C 0.07895 0.04144 0.78915 0.0
C454 C 0.06393 0.02492 0.80749 0.0
C455 C 0.06064 0.03067 0.83726 0.0
C456 C 0.05477 2e-05 0.79727 0.0
C457 C 0.08243 0.03632 0.75687 0.0
C458 C 0.02624 0.99337 0.79663 0.0
C459 C 0.01825 0.96874 0.79053 0.0
C460 C 0.03875 0.95054 0.78542 0.0
C461 C 0.06716 0.95739 0.78553 0.0
C462 C 0.07509 0.98193 0.79121 0.0
H463 H 0.08817 0.05345 0.74455 0.0
H464 H 0.09941 0.02247 0.75377 0.0
H465 H 0.06286 0.02841 0.74745 0.0
H466 H 0.01029 0.00704 0.80161 0.0
H467 H 0.99625 0.9637 0.79104 0.0
H468 H 0.20074 0.17225 0.97829 0.0
H469 H 0.19056 0.17273 0.03111 0.0
H470 H 0.10197 0.1717 0.01248 0.0
H471 H 0.11184 0.17166 0.95995 0.0
H472 H 0.15219 0.20663 0.06759 0.0
H473 H 0.12088 0.10706 0.06284 0.0
H474 H 0.14257 0.12159 0.03517 0.0
H475 H 0.10529 0.12637 0.03509 0.0
C476 C 0.1791 0.17263 0.98546 0.0
C477 C 0.15709 0.17158 0.96489 0.0
C478 C 0.17334 0.17282 0.01562 0.0
C479 C 0.14553 0.17192 0.02562 0.0
C480 C 0.12359 0.17208 0.00517 0.0
H481 H 0.04347 0.19129 0.1717 0.0
H482 H 0.07798 0.19878 0.13322 0.0
C483 C 0.12928 0.17194 0.97516 0.0
C484 C 0.13899 0.16928 0.05724 0.0
H485 H 0.10671 0.12973 0.10509 0.0
C486 C 0.14268 0.18971 0.07603 0.0
C487 C 0.12714 0.14703 0.06832 0.0
C488 C 0.12392 0.12414 0.04943 0.0
C489 C 0.13311 0.18894 0.10523 0.0
C490 C 0.11923 0.1673 0.11563 0.0
C491 C 0.11727 0.14638 0.09726 0.0
C492 C 0.10345 0.16667 0.14379 0.0
C493 C 0.13751 0.21145 0.12443 0.0
C494 C 0.10657 0.14654 0.16329 0.0
C495 C 0.08665 0.14221 0.1853 0.0
C496 C 0.06348 0.15805 0.18829 0.0
C497 C 0.06161 0.17923 0.17035 0.0
C498 C 0.08141 0.18353 0.14833 0.0
H499 H 0.15675 0.22179 0.11794 0.0
H500 H 0.11947 0.22427 0.12179 0.0
H501 H 0.13919 0.2062 0.14791 0.0
H502 H 0.12322 0.13313 0.16007 0.0
H503 H 0.08806 0.12534 0.19828 0.0
H504 H 0.35445 0.28973 0.46811 0.0
H505 H 0.36448 0.2891 0.52085 0.0
H506 H 0.36659 0.36941 0.52167 0.0
H507 H 0.35569 0.3702 0.46947 0.0
H508 H 0.41127 0.30696 0.54705 0.0
H509 H 0.31956 0.35541 0.59334 0.0
H510 H 0.31981 0.34315 0.55648 0.0
H511 H 0.33506 0.37318 0.56424 0.0
C512 C 0.35647 0.30725 0.47969 0.0
C513 C 0.35439 0.33002 0.46453 0.0
C514 C 0.36229 0.30685 0.5098 0.0
C515 C 0.36584 0.3292 0.52538 0.0
C516 C 0.36329 0.35192 0.51036 0.0
H517 H 0.44797 0.39437 0.66481 0.0
H518 H 0.41617 0.38147 0.6257 0.0
C519 C 0.35749 0.35233 0.48035 0.0
C520 C 0.37483 0.32905 0.5566 0.0
H521 H 0.36213 0.35684 0.62261 0.0
C522 C 0.40017 0.3173 0.56381 0.0
C523 C 0.36025 0.34243 0.57854 0.0
C524 C 0.332 0.35402 0.57282 0.0
C525 C 0.41243 0.32023 0.59161 0.0
C526 C 0.39878 0.33505 0.61289 0.0
C527 C 0.37258 0.3455 0.60629 0.0
C528 C 0.41346 0.3431 0.63998 0.0
C529 C 0.44086 0.30893 0.59731 0.0
C530 C 0.42155 0.32603 0.66179 0.0
C531 C 0.4397 0.33348 0.6844 0.0
C532 C 0.44987 0.35804 0.68535 0.0
C533 C 0.44028 0.37535 0.6646 0.0
C534 C 0.42211 0.368 0.64227 0.0
H535 H 0.45006 0.30045 0.5773 0.0
H536 H 0.4556 0.32329 0.60572 0.0
H537 H 0.43889 0.29418 0.61425 0.0
H538 H 0.41495 0.30674 0.6605 0.0
H539 H 0.44735 0.31969 0.69971 0.0
H540 H 0.60341 0.31674 0.06691 0.0
H541 H 0.59382 0.31491 0.01424 0.0
H542 H 0.68195 0.32382 0.99594 0.0
H543 H 0.69179 0.32537 0.0489 0.0
H544 H 0.63935 0.35921 0.96706 0.0
H545 H 0.61698 0.25856 0.95205 0.0
H546 H 0.60178 0.27249 0.98417 0.0
H547 H 0.63922 0.27033 0.98105 0.0
C548 C 0.62078 0.31807 0.05167 0.0
C549 C 0.64834 0.32122 0.06197 0.0
C550 C 0.6153 0.31688 0.02163 0.0
C551 C 0.6372 0.31902 1.00125 0.0
C552 C 0.66482 0.32192 0.01137 0.0
H553 H 0.5857 0.35662 0.81979 0.0
H554 H 0.61979 0.34405 0.85752 0.0
C555 C 0.67039 0.32274 0.04155 0.0
C556 C 0.6305 0.32001 0.96954 0.0
H557 H 0.59908 0.28615 0.91541 0.0
C558 C 0.6312 0.34318 0.95535 0.0
C559 C 0.61996 0.29901 0.95448 0.0
C560 C 0.61959 0.27359 0.96855 0.0
C561 C 0.61938 0.34636 0.92735 0.0
C562 C 0.60717 0.3256 0.91292 0.0
C563 C 0.60847 0.30205 0.92635 0.0
C564 C 0.58852 0.32876 0.88701 0.0
C565 C 0.61803 0.37229 0.9146 0.0
C566 C 0.56003 0.32279 0.89006 0.0
C567 C 0.54083 0.32951 0.86848 0.0
C568 C 0.54961 0.34235 0.84323 0.0
C569 C 0.57841 0.34656 0.8389 0.0
C570 C 0.59781 0.33973 0.86066 0.0
H571 H 0.62468 0.38675 0.93058 0.0
H572 H 0.6321 0.3735 0.89529 0.0
H573 H 0.59638 0.37661 0.90723 0.0
H574 H 0.5523 0.31423 0.91002 0.0
H575 H 0.51878 0.32584 0.87234 0.0
H576 H 0.8094 0.18698 0.53895 0.0
H577 H 0.81912 0.19112 0.48647 0.0
H578 H 0.90629 0.17473 0.50237 0.0
H579 H 0.8972 0.17231 0.55473 0.0
H580 H 0.90155 0.20986 0.46186 0.0
H581 H 0.82879 0.13207 0.43412 0.0
H582 H 0.81318 0.15868 0.45134 0.0
H583 H 0.83754 0.13973 0.47146 0.0
C584 C 0.83075 0.18474 0.53135 0.0
C585 C 0.85242 0.17885 0.55117 0.0
C586 C 0.8362 0.18678 0.50122 0.0
C587 C 0.86332 0.18259 0.49025 0.0
C588 C 0.88513 0.17784 0.51015 0.0
H589 H 0.9413 0.1112 0.35785 0.0
H590 H 0.90881 0.12718 0.39412 0.0
C591 C 0.8798 0.17614 0.54017 0.0
C592 C 0.86937 0.18187 0.4582 0.0
H593 H 0.85767 0.14701 0.39676 0.0
C594 C 0.89164 0.19642 0.44741 0.0
C595 C 0.85628 0.16445 0.43928 0.0
C596 C 0.83276 0.14769 0.44956 0.0
C597 C 0.90279 0.19255 0.41925 0.0
C598 C 0.89073 0.17409 0.40094 0.0
C599 C 0.86683 0.16117 0.41077 0.0
C600 C 0.90605 0.16406 0.37508 0.0
C601 C 0.92883 0.20676 0.41044 0.0
C602 C 0.91441 0.17904 0.35122 0.0
C603 C 0.93344 0.16984 0.33032 0.0
C604 C 0.94396 0.14552 0.33298 0.0
C605 C 0.93364 0.13008 0.35538 0.0
C606 C 0.91495 0.1392 0.37612 0.0
H607 H 0.93755 0.21797 0.42877 0.0
H608 H 0.94531 0.19376 0.40271 0.0
H609 H 0.92372 0.21964 0.3922 0.0
H610 H 0.90732 0.19812 0.34953 0.0
H611 H 0.94121 0.18215 0.31332 0.0
H612 H 0.80845 0.82809 0.0319 0.0
H613 H 0.81987 0.82798 0.97934 0.0
H614 H 0.90785 0.83286 1.00018 0.0
H615 H 0.8968 0.8325 0.05242 0.0
H616 H 0.88252 0.87157 0.95954 0.0
H617 H 0.86356 0.77267 0.92799 0.0
H618 H 0.83862 0.78862 0.95099 0.0
H619 H 0.8726 0.78114 0.96515 0.0
C620 C 0.83025 0.82863 0.02527 0.0
C621 C 0.85171 0.83053 0.04638 0.0
C622 C 0.8367 0.82864 0.99526 0.0
C623 C 0.86469 0.83044 0.98595 0.0
C624 C 0.88611 0.83154 0.00694 0.0
H625 H 0.97629 0.81996 0.84779 0.0
H626 H 0.94201 0.81191 0.88644 0.0
C627 C 0.87973 0.83146 0.03679 0.0
C628 C 0.87204 0.83285 0.9545 0.0
H629 H 0.88429 0.79885 0.89258 0.0
C630 C 0.88238 0.85585 0.94462 0.0
C631 C 0.87188 0.81224 0.93529 0.0
C632 C 0.86115 0.78716 0.94517 0.0
C633 C 0.8939 0.85853 0.91648 0.0
C634 C 0.89477 0.83766 0.89752 0.0
C635 C 0.88328 0.81488 0.90698 0.0
C636 C 0.91158 0.8383 0.87009 0.0
C637 C 0.90675 0.88326 0.90803 0.0
C638 C 0.90522 0.85482 0.84709 0.0
C639 C 0.92489 0.85939 0.82482 0.0
C640 C 0.95094 0.8473 0.82524 0.0
C641 C 0.95619 0.82929 0.84685 0.0
C642 C 0.93662 0.8247 0.86896 0.0
H643 H 0.90795 0.89634 0.92686 0.0
H644 H 0.92822 0.88059 0.89919 0.0
H645 H 0.89384 0.89207 0.89067 0.0
H646 H 0.88589 0.86536 0.84741 0.0
H647 H 0.92066 0.87375 0.80874 0.0
H648 H 0.65949 0.70846 0.54205 0.0
H649 H 0.64688 0.71243 0.49008 0.0
H650 H 0.65011 0.63262 0.48064 0.0
H651 H 0.66296 0.62849 0.53237 0.0
H652 H 0.67547 0.66434 0.43151 0.0
H653 H 0.56596 0.68765 0.46396 0.0
H654 H 0.59407 0.70493 0.48075 0.0
H655 H 0.58991 0.67242 0.48878 0.0
C656 C 0.658 0.6918 0.52877 0.0
C657 C 0.66193 0.66814 0.54139 0.0
C658 C 0.65072 0.6941 0.49913 0.0
C659 C 0.64744 0.6728 0.48161 0.0
C660 C 0.65257 0.64927 0.4938 0.0
H661 H 0.58278 0.62044 0.32028 0.0
H662 H 0.61544 0.63114 0.35958 0.0
C663 C 0.65965 0.64694 0.52341 0.0
C664 C 0.63626 0.67469 0.45136 0.0
H665 H 0.57515 0.68323 0.41401 0.0
C666 C 0.65363 0.66877 0.42752 0.0
C667 C 0.60783 0.68059 0.44628 0.0
C668 C 0.58817 0.68665 0.47119 0.0
C669 C 0.64311 0.6682 0.39868 0.0
C670 C 0.6143 0.673 0.39373 0.0
C671 C 0.59727 0.6797 0.4176 0.0
C672 C 0.60039 0.66893 0.36484 0.0
C673 C 0.663 0.66246 0.37392 0.0
C674 C 0.58154 0.68675 0.35384 0.0
C675 C 0.56252 0.6804 0.33171 0.0
C676 C 0.56244 0.65634 0.31979 0.0
C677 C 0.58303 0.63933 0.32863 0.0
C678 C 0.60173 0.64549 0.35116 0.0
H679 H 0.6846 0.66887 0.37916 0.0
H680 H 0.66381 0.64199 0.37064 0.0
H681 H 0.65624 0.67133 0.35311 0.0
H682 H 0.58002 0.70493 0.36398 0.0
H683 H 0.54642 0.69363 0.32561 0.0
H684 H 0.3334 0.63453 0.96329 0.0
H685 H 0.34468 0.63439 0.0156 0.0
H686 H 0.37054 0.71135 0.00969 0.0
H687 H 0.35815 0.71171 0.95752 0.0
H688 H 0.39505 0.63953 0.03586 0.0
H689 H 0.33066 0.71329 0.08668 0.0
H690 H 0.32362 0.70146 0.05037 0.0
H691 H 0.35031 0.7248 0.056 0.0
C692 C 0.34085 0.65157 0.97339 0.0
C693 C 0.34494 0.67313 0.95645 0.0
C694 C 0.34729 0.6515 1.00327 0.0
C695 C 0.35826 0.67292 0.01683 0.0
C696 C 0.36141 0.69477 1.00008 0.0
H697 H 0.47639 0.6851 0.15432 0.0
H698 H 0.44248 0.69443 0.11557 0.0
C699 C 0.35452 0.69495 0.97021 0.0
C700 C 0.36971 0.67127 0.04717 0.0
H701 H 0.37111 0.69977 0.11431 0.0
C702 C 0.38934 0.65246 0.05308 0.0
C703 C 0.36245 0.68818 0.06979 0.0
C704 C 0.34038 0.7079 0.06549 0.0
C705 C 0.40246 0.65053 0.08047 0.0
C706 C 0.39596 0.66792 0.10266 0.0
C707 C 0.37599 0.68648 0.09718 0.0
C708 C 0.41169 0.66772 0.13064 0.0
C709 C 0.42393 0.63034 0.08534 0.0
C710 C 0.40491 0.6505 0.15276 0.0
C711 C 0.4242 0.64533 0.17513 0.0
C712 C 0.45044 0.65725 0.17546 0.0
C713 C 0.4561 0.67595 0.15473 0.0
C714 C 0.43678 0.68128 0.1326 0.0
H715 H 0.42689 0.61845 0.06567 0.0
H716 H 0.44443 0.63881 0.09127 0.0
H717 H 0.4173 0.6183 0.1039 0.0
H718 H 0.38579 0.63962 0.15134 0.0
H719 H 0.41976 0.6303 0.1903 0.0
H720 H 0.15517 0.78954 0.4536 0.0
H721 H 0.14506 0.78853 0.50625 0.0
H722 H 0.14211 0.86879 0.50768 0.0
H723 H 0.15354 0.87002 0.45564 0.0
H724 H 0.16881 0.85018 0.5559 0.0
H725 H 0.06733 0.80072 0.53859 0.0
H726 H 0.09802 0.78491 0.52557 0.0
H727 H 0.08732 0.81357 0.50861 0.0
C728 C 0.15281 0.80699 0.46521 0.0
C729 C 0.15475 0.82986 0.45019 0.0
C730 C 0.14671 0.80636 0.49528 0.0
C731 C 0.1422 0.82857 0.51085 0.0
C732 C 0.14527 0.85139 0.49615 0.0
H733 H 0.06481 0.89666 0.65047 0.0
H734 H 0.09677 0.88304 0.61201 0.0
C735 C 0.15152 0.85204 0.46625 0.0
C736 C 0.13312 0.82845 0.54207 0.0
H737 H 0.07747 0.81404 0.58623 0.0
C738 C 0.14904 0.84192 0.56263 0.0
C739 C 0.10739 0.81756 0.551 0.0
C740 C 0.08885 0.80352 0.52983 0.0
C741 C 0.13928 0.84583 0.59132 0.0
C742 C 0.11286 0.83616 0.59966 0.0
C743 C 0.09781 0.82131 0.5798 0.0
C744 C 0.09828 0.8447 0.62657 0.0
C745 C 0.15683 0.86106 0.6122 0.0
C746 C 0.08891 0.82777 0.64802 0.0
C747 C 0.07079 0.83567 0.67042 0.0
C748 C 0.06139 0.86044 0.67112 0.0
C749 C 0.07189 0.8775 0.65049 0.0
C750 C 0.09025 0.86975 0.62856 0.0
H751 H 0.17942 0.86029 0.60632 0.0
H752 H 0.15011 0.88081 0.61106 0.0
H753 H 0.15417 0.8545 0.63513 0.0
H754 H 0.09464 0.8083 0.64669 0.0
H755 H 0.06265 0.82213 0.68587 0.0
H756 H 0.25386 0.28229 0.37486 0.0
H757 H 0.21284 0.26033 0.3554 0.0
H758 H 0.25368 0.25336 0.27152 0.0
H759 H 0.29491 0.27545 0.29086 0.0
H760 H 0.17995 0.27474 0.30199 0.0
H761 H 0.22861 0.18059 0.29623 0.0
H762 H 0.24242 0.20483 0.31962 0.0
H763 H 0.24757 0.20652 0.28075 0.0
C764 C 0.2542 0.27603 0.3523 0.0
C765 C 0.27766 0.28044 0.33437 0.0
C766 C 0.23071 0.26355 0.34121 0.0
C767 C 0.23035 0.25509 0.31212 0.0
C768 C 0.25368 0.25954 0.29412 0.0
H769 H 0.09831 0.15707 0.24055 0.0
H770 H 0.13982 0.1844 0.24129 0.0
C771 C 0.27714 0.27217 0.30515 0.0
C772 C 0.20538 0.24171 0.30081 0.0
H773 H 0.181 0.18366 0.28366 0.0
C774 C 0.18021 0.25487 0.29767 0.0
C775 C 0.20592 0.21588 0.29481 0.0
C776 C 0.23247 0.20095 0.29809 0.0
C777 C 0.15528 0.24272 0.28957 0.0
C778 C 0.15541 0.21662 0.28522 0.0
C779 C 0.1809 0.20366 0.28699 0.0
C780 C 0.12902 0.20206 0.28241 0.0
C781 C 0.12894 0.25794 0.28612 0.0
C782 C 0.1092 0.20294 0.30508 0.0
C783 C 0.08556 0.18762 0.30443 0.0
C784 C 0.08118 0.17096 0.28113 0.0
C785 C 0.10071 0.17031 0.25814 0.0
C786 C 0.12456 0.18569 0.2588 0.0
H787 H 0.13392 0.27744 0.27975 0.0
H788 H 0.11472 0.24977 0.2694 0.0
H789 H 0.11768 0.25853 0.30739 0.0
H790 H 0.11249 0.21489 0.3239 0.0
H791 H 0.07096 0.18843 0.3226 0.0
H792 H 0.22909 0.20295 0.78775 0.0
H793 H 0.26823 0.2271 0.76738 0.0
H794 H 0.29552 0.24549 0.85488 0.0
H795 H 0.25681 0.22101 0.87532 0.0
H796 H 0.28003 0.2763 0.77265 0.0
H797 H 0.36769 0.22114 0.81801 0.0
H798 H 0.33198 0.20989 0.81787 0.0
H799 H 0.34373 0.23102 0.84596 0.0
C800 C 0.2436 0.21202 0.80261 0.0
C801 C 0.23997 0.21 0.83309 0.0
C802 C 0.26591 0.22581 0.79096 0.0
C803 C 0.28512 0.23778 0.80957 0.0
C804 C 0.2814 0.23592 0.84007 0.0
H805 H 0.38871 0.3641 0.79304 0.0
H806 H 0.3499 0.33447 0.79353 0.0
C807 C 0.25912 0.22206 0.85174 0.0
C808 C 0.30836 0.25304 0.79718 0.0
H809 H 0.37911 0.26235 0.80114 0.0
C810 C 0.30174 0.27304 0.77856 0.0
C811 C 0.33678 0.24849 0.80426 0.0
C812 C 0.34553 0.2263 0.82236 0.0
C813 C 0.32258 0.28941 0.76824 0.0
C814 C 0.35072 0.28596 0.77719 0.0
C815 C 0.35753 0.26515 0.79442 0.0
C816 C 0.37281 0.30503 0.77181 0.0
C817 C 0.31418 0.31044 0.74817 0.0
C818 C 0.39866 0.29854 0.75912 0.0
C819 C 0.42103 0.31558 0.75887 0.0
C820 C 0.41787 0.33924 0.77151 0.0
C821 C 0.3916 0.34607 0.78283 0.0
C822 C 0.36933 0.32916 0.78299 0.0
H823 H 0.29521 0.3055 0.73526 0.0
H824 H 0.30905 0.32708 0.76154 0.0
H825 H 0.33136 0.31544 0.7328 0.0
H826 H 0.40193 0.27993 0.75066 0.0
H827 H 0.44129 0.30962 0.75084 0.0
H828 H 0.77255 0.23997 0.65363 0.0
H829 H 0.73572 0.2659 0.67506 0.0
H830 H 0.71393 0.20636 0.73448 0.0
H831 H 0.75119 0.18061 0.7136 0.0
H832 H 0.68074 0.25716 0.67486 0.0
H833 H 0.71607 0.26466 0.7901 0.0
H834 H 0.73856 0.25339 0.76121 0.0
H835 H 0.7132 0.23297 0.77798 0.0
C836 C 0.76011 0.2325 0.67146 0.0
C837 C 0.7647 0.20824 0.68197 0.0
C838 C 0.73908 0.24735 0.68373 0.0
C839 C 0.72229 0.23827 0.70674 0.0
C840 C 0.72703 0.21408 0.71733 0.0
H841 H 0.55492 0.2918 0.7397 0.0
H842 H 0.59636 0.26542 0.734 0.0
C843 C 0.74816 0.19929 0.7052 0.0
C844 C 0.69847 0.25335 0.71802 0.0
H845 H 0.66867 0.27689 0.78035 0.0
C846 C 0.67826 0.26158 0.69791 0.0
C847 C 0.6953 0.25938 0.74808 0.0
C848 C 0.71709 0.25236 0.77056 0.0
C849 C 0.65476 0.27519 0.70699 0.0
C850 C 0.65089 0.28023 0.73719 0.0
C851 C 0.6714 0.27259 0.7573 0.0
C852 C 0.62578 0.29386 0.74774 0.0
C853 C 0.63442 0.28433 0.68403 0.0
C854 C 0.62842 0.31792 0.75953 0.0
C855 C 0.60462 0.33285 0.76339 0.0
C856 C 0.578 0.32379 0.75562 0.0
C857 C 0.57522 0.29901 0.74627 0.0
C858 C 0.59889 0.28406 0.74269 0.0
H859 H 0.64399 0.28453 0.66182 0.0
H860 H 0.61595 0.27172 0.68339 0.0
H861 H 0.62696 0.3034 0.6892 0.0
H862 H 0.64898 0.32583 0.7636 0.0
H863 H 0.60732 0.35212 0.76986 0.0
H864 H 0.7444 0.26866 0.15136 0.0
H865 H 0.78343 0.24444 0.17124 0.0
H866 H 0.75682 0.262 0.25914 0.0
H867 H 0.71769 0.28639 0.23934 0.0
H868 H 0.8147 0.26894 0.24963 0.0
H869 H 0.77964 0.17588 0.21177 0.0
H870 H 0.78038 0.1988 0.18309 0.0
H871 H 0.75646 0.2024 0.21325 0.0
C872 C 0.74676 0.26729 0.17491 0.0
C873 C 0.72793 0.27935 0.19385 0.0
C874 C 0.76899 0.25332 0.18626 0.0
C875 C 0.77278 0.25109 0.21669 0.0
C876 C 0.75416 0.26332 0.2356 0.0
H877 H 0.903 0.14586 0.27572 0.0
H878 H 0.85887 0.16964 0.27783 0.0
C879 C 0.73185 0.27721 0.22428 0.0
C880 C 0.79677 0.2367 0.2286 0.0
H881 H 0.82785 0.17952 0.22612 0.0
C882 C 0.81738 0.24929 0.24489 0.0
C883 C 0.80001 0.21096 0.22294 0.0
C884 C 0.77782 0.19612 0.20706 0.0
C885 C 0.84197 0.23718 0.25403 0.0
C886 C 0.84611 0.21191 0.2465 0.0
C887 C 0.82472 0.19893 0.23182 0.0
C888 C 0.87373 0.19957 0.24997 0.0
C889 C 0.86364 0.25169 0.27105 0.0
C890 C 0.89676 0.20875 0.23414 0.0
C891 C 0.92163 0.19523 0.23284 0.0
C892 C 0.92412 0.17237 0.24753 0.0
C893 C 0.90168 0.1637 0.26468 0.0
C894 C 0.8765 0.17716 0.26572 0.0
H895 H 0.85397 0.26747 0.28309 0.0
H896 H 0.87478 0.23957 0.28695 0.0
H897 H 0.87931 0.25953 0.25558 0.0
H898 H 0.89497 0.22567 0.22133 0.0
H899 H 0.93857 0.2021 0.21917 0.0
H900 H 0.73189 0.70107 0.71926 0.0
H901 H 0.77087 0.72566 0.73935 0.0
H902 H 0.79298 0.7497 0.65214 0.0
H903 H 0.75415 0.72518 0.63193 0.0
H904 H 0.82942 0.72139 0.72499 0.0
H905 H 0.78703 0.81525 0.70037 0.0
H906 H 0.76531 0.78761 0.70109 0.0
H907 H 0.78685 0.79426 0.6697 0.0
C908 C 0.74504 0.71169 0.70442 0.0
C909 C 0.73995 0.71126 0.67408 0.0
C910 C 0.76726 0.72569 0.71591 0.0
C911 C 0.78457 0.73973 0.69728 0.0
C912 C 0.77957 0.7393 0.66694 0.0
H913 H 0.94744 0.79974 0.70021 0.0
H914 H 0.90572 0.7733 0.69912 0.0
C915 C 0.75746 0.72518 0.65541 0.0
C916 C 0.8084 0.75428 0.70936 0.0
H917 H 0.83558 0.81311 0.71293 0.0
C918 C 0.83063 0.74148 0.72271 0.0
C919 C 0.80973 0.78051 0.70683 0.0
C920 C 0.78586 0.79531 0.69397 0.0
C921 C 0.85485 0.75413 0.73214 0.0
C922 C 0.85688 0.78017 0.72797 0.0
C923 C 0.83402 0.79312 0.71607 0.0
C924 C 0.88355 0.79393 0.73255 0.0
C925 C 0.87833 0.73946 0.74595 0.0
C926 C 0.88513 0.81417 0.75202 0.0
C927 C 0.9092 0.82925 0.75284 0.0
C928 C 0.93171 0.82449 0.73385 0.0
C929 C 0.93043 0.80369 0.71525 0.0
C930 C 0.90665 0.78851 0.71468 0.0
H931 H 0.87057 0.72168 0.75549 0.0
H932 H 0.8941 0.73489 0.72891 0.0
H933 H 0.88892 0.75042 0.76339 0.0
H934 H 0.86737 0.81884 0.76574 0.0
H935 H 0.9094 0.84554 0.76676 0.0
H936 H 0.76831 0.76478 0.1429 0.0
H937 H 0.73297 0.73704 0.1645 0.0
H938 H 0.71386 0.79262 0.22959 0.0
H939 H 0.74912 0.82051 0.20805 0.0
H940 H 0.72867 0.71921 0.2254 0.0
H941 H 0.63723 0.77606 0.18988 0.0
H942 H 0.67154 0.77962 0.17365 0.0
H943 H 0.66467 0.79199 0.20945 0.0
C944 C 0.75659 0.7711 0.1618 0.0
C945 C 0.76129 0.79489 0.1737 0.0
C946 C 0.73648 0.75521 0.17417 0.0
C947 C 0.72064 0.76288 0.19846 0.0
C948 C 0.72562 0.78646 0.21064 0.0
H949 H 0.57055 0.68572 0.26497 0.0
H950 H 0.61077 0.71448 0.26499 0.0
C951 C 0.74578 0.80232 0.19836 0.0
C952 C 0.6986 0.74629 0.21066 0.0
H953 H 0.62759 0.73911 0.21554 0.0
C954 C 0.70657 0.72363 0.22349 0.0
C955 C 0.6698 0.75226 0.20849 0.0
C956 C 0.66011 0.77621 0.19448 0.0
C957 C 0.68644 0.70645 0.23353 0.0
C958 C 0.6576 0.71185 0.23002 0.0
C959 C 0.64968 0.735 0.21834 0.0
C960 C 0.63546 0.6927 0.23459 0.0
C961 C 0.69629 0.68257 0.24754 0.0
C962 C 0.63621 0.6707 0.21805 0.0
C963 C 0.61347 0.65433 0.21816 0.0
C964 C 0.58934 0.65958 0.2347 0.0
C965 C 0.58906 0.68095 0.25247 0.0
C966 C 0.61192 0.69748 0.25228 0.0
H967 H 0.71703 0.68512 0.25824 0.0
H968 H 0.68108 0.67568 0.26413 0.0
H969 H 0.69869 0.66812 0.23036 0.0
H970 H 0.65375 0.66684 0.2037 0.0
H971 H 0.61427 0.63804 0.20417 0.0
H972 H 0.21706 0.78462 0.27291 0.0
H973 H 0.25604 0.75996 0.25333 0.0
H974 H 0.28523 0.74604 0.34127 0.0
H975 H 0.24632 0.7705 0.36095 0.0
H976 H 0.31398 0.76781 0.26058 0.0
H977 H 0.28134 0.67602 0.30482 0.0
H978 H 0.25779 0.70225 0.30271 0.0
H979 H 0.28277 0.70006 0.33213 0.0
C980 C 0.23174 0.77617 0.28804 0.0
C981 C 0.22857 0.77939 0.31843 0.0
C982 C 0.25398 0.76213 0.27683 0.0
C983 C 0.27329 0.75086 0.29584 0.0
C984 C 0.27025 0.75416 0.32622 0.0
H985 H 0.44027 0.70171 0.28565 0.0
H986 H 0.39687 0.72573 0.28521 0.0
C987 C 0.24808 0.76827 0.33744 0.0
C988 C 0.29716 0.73627 0.284 0.0
H989 H 0.32878 0.67941 0.28814 0.0
C990 C 0.31705 0.74838 0.26627 0.0
C991 C 0.30088 0.7108 0.29093 0.0
C992 C 0.27943 0.69641 0.30845 0.0
C993 C 0.34134 0.73607 0.25667 0.0
C994 C 0.34597 0.71109 0.26526 0.0
C995 C 0.32532 0.69859 0.28163 0.0
C996 C 0.37324 0.69843 0.26047 0.0
C997 C 0.36208 0.75004 0.23781 0.0
C998 C 0.3746 0.67516 0.24636 0.0
C999 C 0.39959 0.66144 0.24649 0.0
C1000 C 0.42338 0.67076 0.26091 0.0
C1001 C 0.4223 0.69442 0.27388 0.0
C1002 C 0.39752 0.70816 0.27358 0.0
H1003 H 0.35169 0.76523 0.22536 0.0
H1004 H 0.37829 0.75864 0.25205 0.0
H1005 H 0.37268 0.7374 0.2221 0.0
H1006 H 0.356 0.66715 0.23645 0.0
H1007 H 0.3997 0.64288 0.23725 0.0
H1008 H 0.25721 0.73082 0.86123 0.0
H1009 H 0.21843 0.75364 0.83861 0.0
H1010 H 0.25331 0.73985 0.75298 0.0
H1011 H 0.29218 0.71687 0.77549 0.0
H1012 H 0.22135 0.79643 0.80069 0.0
H1013 H 0.17095 0.7147 0.74696 0.0
H1014 H 0.19621 0.71142 0.77618 0.0
H1015 H 0.2077 0.71946 0.73993 0.0
C1016 C 0.25665 0.73263 0.83759 0.0
C1017 C 0.27769 0.72199 0.82008 0.0
C1018 C 0.2345 0.7457 0.8247 0.0
C1019 C 0.23284 0.74822 0.7941 0.0
C1020 C 0.25396 0.73784 0.77659 0.0
H1021 H 0.10436 0.85243 0.72669 0.0
H1022 H 0.1485 0.82861 0.72604 0.0
C1023 C 0.27619 0.72483 0.78948 0.0
C1024 C 0.20896 0.76183 0.78076 0.0
H1025 H 0.14878 0.75349 0.74122 0.0
C1026 C 0.20567 0.78718 0.78732 0.0
C1027 C 0.18855 0.74963 0.76337 0.0
C1028 C 0.19075 0.72227 0.75625 0.0
C1029 C 0.18201 0.80048 0.77784 0.0
C1030 C 0.1612 0.78814 0.76107 0.0
C1031 C 0.16496 0.76298 0.75368 0.0
C1032 C 0.13353 0.79984 0.75551 0.0
C1033 C 0.17865 0.82724 0.78729 0.0
C1034 C 0.11014 0.79076 0.7708 0.0
C1035 C 0.0852 0.8042 0.7711 0.0
C1036 C 0.08298 0.82682 0.75582 0.0
C1037 C 0.10551 0.83487 0.73835 0.0
C1038 C 0.13074 0.82144 0.73824 0.0
H1039 H 0.19495 0.83304 0.80331 0.0
H1040 H 0.18024 0.83958 0.76783 0.0
H1041 H 0.15769 0.83012 0.79733 0.0
H1042 H 0.11178 0.77416 0.78422 0.0
H1043 H 0.06813 0.79771 0.78484 0.0
loop_
_geom_bond_atom_site_label_1
_geom_bond_atom_site_label_2
_geom_bond_distance
_geom_bond_site_symmetry_2
_ccdc_geom_bond_type
H0 C5 0.930 . S
H1 C8 0.930 . S
H2 C10 0.930 . S
H3 C4 1.016 . S
C4 H3 1.016 . S
C4 N11 1.286 . S
C5 H0 0.930 . S
C5 C6 1.397 . S
C5 C7 1.361 . S
C6 C5 1.397 . S
C6 C10 1.390 . S
C7 C5 1.361 . S
C7 C8 1.393 . S
C7 N11 1.413 . S
C8 H1 0.930 . S
C8 C7 1.393 . S
C8 C9 1.399 . S
C9 C8 1.399 . S
C9 C10 1.381 . S
C10 H2 0.930 . S
C10 C6 1.390 . S
C10 C9 1.381 . S
N11 C4 1.286 . S
N11 C7 1.413 . S
H12 C17 0.930 . S
H13 C20 0.930 . S
H14 C22 0.930 . S
H15 C16 1.016 . S
C16 H15 1.016 . S
C16 N23 1.286 . S
C17 H12 0.930 . S
C17 C18 1.397 . S
C17 C19 1.361 . S
C18 C17 1.397 . S
C18 C22 1.390 . S
C19 C17 1.361 . S
C19 C20 1.393 . S
C19 N23 1.413 . S
C20 H13 0.930 . S
C20 C19 1.393 . S
C20 C21 1.399 . S
C21 C20 1.399 . S
C21 C22 1.381 . S
C22 H14 0.930 . S
C22 C18 1.390 . S
C22 C21 1.381 . S
N23 C16 1.286 . S
N23 C19 1.413 . S
H24 C29 0.930 . S
H25 C32 0.930 . S
H26 C34 0.930 . S
H27 C28 1.016 . S
C28 H27 1.016 . S
C28 N35 1.286 . S
C29 H24 0.930 . S
C29 C30 1.397 . S
C29 C31 1.361 . S
C30 C29 1.397 . S
C30 C34 1.390 . S
C31 C29 1.361 . S
C31 C32 1.393 . S
C31 N35 1.413 . S
C32 H25 0.930 . S
C32 C31 1.393 . S
C32 C33 1.399 . S
C33 C32 1.399 . S
C33 C34 1.381 . S
C34 H26 0.930 . S
C34 C30 1.390 . S
C34 C33 1.381 . S
N35 C28 1.286 . S
N35 C31 1.413 . S
H36 C41 0.930 . S
H37 C44 0.930 . S
H38 C46 0.930 . S
H39 C40 1.016 . S
C40 H39 1.016 . S
C40 N47 1.286 . S
C41 H36 0.930 . S
C41 C42 1.397 . S
C41 C43 1.361 . S
C42 C41 1.397 . S
C42 C46 1.390 . S
C43 C41 1.361 . S
C43 C44 1.393 . S
C43 N47 1.413 . S
C44 H37 0.930 . S
C44 C43 1.393 . S
C44 C45 1.399 . S
C45 C44 1.399 . S
C45 C46 1.381 . S
C46 H38 0.930 . S
C46 C42 1.390 . S
C46 C45 1.381 . S
N47 C40 1.286 . S
N47 C43 1.413 . S
H48 C53 0.930 . S
H49 C56 0.930 . S
H50 C58 0.930 . S
H51 C52 1.016 . S
C52 H51 1.016 . S
C52 N59 1.286 . S
C53 H48 0.930 . S
C53 C54 1.397 . S
C53 C55 1.361 . S
C54 C53 1.397 . S
C54 C58 1.390 . S
C55 C53 1.361 . S
C55 C56 1.393 . S
C55 N59 1.413 . S
C56 H49 0.930 . S
C56 C55 1.393 . S
C56 C57 1.399 . S
C57 C56 1.399 . S
C57 C58 1.381 . S
C58 H50 0.930 . S
C58 C54 1.390 . S
C58 C57 1.381 . S
N59 C52 1.286 . S
N59 C55 1.413 . S
H60 C65 0.930 . S
H61 C68 0.930 . S
H62 C70 0.930 . S
H63 C64 1.016 . S
C64 H63 1.016 . S
C64 N71 1.286 . S
C65 H60 0.930 . S
C65 C66 1.397 . S
C65 C67 1.361 . S
C66 C65 1.397 . S
C66 C70 1.390 . S
C67 C65 1.361 . S
C67 C68 1.393 . S
C67 N71 1.413 . S
C68 H61 0.930 . S
C68 C67 1.393 . S
C68 C69 1.399 . S
C69 C68 1.399 . S
C69 C70 1.381 . S
C70 H62 0.930 . S
C70 C66 1.390 . S
C70 C69 1.381 . S
N71 C64 1.286 . S
N71 C67 1.413 . S
H72 C77 0.930 . S
H73 C80 0.930 . S
H74 C82 0.930 . S
H75 C76 1.016 . S
C76 H75 1.016 . S
C76 N83 1.286 . S
C77 H72 0.930 . S
C77 C78 1.397 . S
C77 C79 1.361 . S
C78 C77 1.397 . S
C78 C82 1.390 . S
C79 C77 1.361 . S
C79 C80 1.393 . S
C79 N83 1.413 . S
C80 H73 0.930 . S
C80 C79 1.393 . S
C80 C81 1.399 . S
C81 C80 1.399 . S
C81 C82 1.381 . S
C82 H74 0.930 . S
C82 C78 1.390 . S
C82 C81 1.381 . S
N83 C76 1.286 . S
N83 C79 1.413 . S
H84 C89 0.930 . S
H85 C92 0.930 . S
H86 C94 0.930 . S
H87 C88 1.016 . S
C88 H87 1.016 . S
C88 N95 1.286 . S
C89 H84 0.930 . S
C89 C90 1.397 . S
C89 C91 1.361 . S
C90 C89 1.397 . S
C90 C94 1.390 . S
C91 C89 1.361 . S
C91 C92 1.393 . S
C91 N95 1.413 . S
C92 H85 0.930 . S
C92 C91 1.393 . S
C92 C93 1.399 . S
C93 C92 1.399 . S
C93 C94 1.381 . S
C94 H86 0.930 . S
C94 C90 1.390 . S
C94 C93 1.381 . S
N95 C88 1.286 . S
N95 C91 1.413 . S
Zn96 O102 1.920 1_455 S
Zn96 O108 1.898 . S
Zn96 O111 1.905 . S
Zn97 O105 1.905 1_655 S
Zn97 O106 1.898 . S
Zn97 O114 1.920 . S
Zn98 O101 2.080 1_455 S
Zn98 O104 2.114 . S
Zn98 O107 2.120 1_455 S
Zn98 O109 2.120 . S
Zn98 O110 2.114 . S
Zn98 O113 2.080 1_455 S
C99 O104 1.166 . S
C99 O105 1.182 . S
C100 O106 1.167 . S
C100 O107 1.299 . S
O101 Zn98 2.080 1_655 S
O101 C115 1.305 . S
O102 Zn96 1.920 1_655 S
O102 C115 1.234 . S
C103 O108 1.167 . S
C103 O109 1.299 . S
O104 Zn98 2.114 . S
O104 C99 1.166 . S
O105 Zn97 1.905 1_455 S
O105 C99 1.182 . S
O106 Zn97 1.898 . S
O106 C100 1.167 . S
O107 Zn98 2.120 1_655 S
O107 C100 1.299 . S
O108 Zn96 1.898 . S
O108 C103 1.167 . S
O109 Zn98 2.120 . S
O109 C103 1.299 . S
O110 Zn98 2.114 . S
O110 C112 1.166 . S
O111 Zn96 1.905 . S
O111 C112 1.182 . S
C112 O110 1.166 . S
C112 O111 1.182 . S
O113 Zn98 2.080 1_655 S
O113 C116 1.305 . S
O114 Zn97 1.920 . S
O114 C116 1.234 . S
C115 O101 1.305 . S
C115 O102 1.234 . S
C116 O113 1.305 . S
C116 O114 1.234 . S
Zn117 O123 1.920 . S
Zn117 O129 1.898 . S
Zn117 O132 1.905 . S
Zn118 O126 1.905 . S
Zn118 O127 1.898 . S
Zn118 O135 1.920 . S
Zn119 O122 2.080 . S
Zn119 O125 2.114 . S
Zn119 O128 2.120 . S
Zn119 O130 2.120 . S
Zn119 O131 2.114 . S
Zn119 O134 2.080 . S
C120 O125 1.166 . S
C120 O126 1.182 . S
C121 O127 1.167 . S
C121 O128 1.299 . S
O122 Zn119 2.080 . S
O122 C136 1.305 . S
O123 Zn117 1.920 . S
O123 C136 1.234 . S
C124 O129 1.167 . S
C124 O130 1.299 . S
O125 Zn119 2.114 . S
O125 C120 1.166 . S
O126 Zn118 1.905 . S
O126 C120 1.182 . S
O127 Zn118 1.898 . S
O127 C121 1.167 . S
O128 Zn119 2.120 . S
O128 C121 1.299 . S
O129 Zn117 1.898 . S
O129 C124 1.167 . S
O130 Zn119 2.120 . S
O130 C124 1.299 . S
O131 Zn119 2.114 . S
O131 C133 1.166 . S
O132 Zn117 1.905 . S
O132 C133 1.182 . S
C133 O131 1.166 . S
C133 O132 1.182 . S
O134 Zn119 2.080 . S
O134 C137 1.305 . S
O135 Zn118 1.920 . S
O135 C137 1.234 . S
C136 O122 1.305 . S
C136 O123 1.234 . S
C137 O134 1.305 . S
C137 O135 1.234 . S
Zn138 O144 1.920 . S
Zn138 O150 1.898 . S
Zn138 O153 1.905 1_455 S
Zn139 O147 1.905 . S
Zn139 O148 1.898 . S
Zn139 O156 1.920 1_655 S
Zn140 O143 2.080 . S
Zn140 O146 2.114 1_455 S
Zn140 O149 2.120 1_455 S
Zn140 O151 2.120 . S
Zn140 O152 2.114 1_455 S
Zn140 O155 2.080 . S
C141 O146 1.166 . S
C141 O147 1.182 . S
C142 O148 1.167 . S
C142 O149 1.299 . S
O143 Zn140 2.080 . S
O143 C157 1.305 . S
O144 Zn138 1.920 . S
O144 C157 1.234 . S
C145 O150 1.167 . S
C145 O151 1.299 . S
O146 Zn140 2.114 1_655 S
O146 C141 1.166 . S
O147 Zn139 1.905 . S
O147 C141 1.182 . S
O148 Zn139 1.898 . S
O148 C142 1.167 . S
O149 Zn140 2.120 1_655 S
O149 C142 1.299 . S
O150 Zn138 1.898 . S
O150 C145 1.167 . S
O151 Zn140 2.120 . S
O151 C145 1.299 . S
O152 Zn140 2.114 1_655 S
O152 C154 1.166 . S
O153 Zn138 1.905 1_655 S
O153 C154 1.182 . S
C154 O152 1.166 . S
C154 O153 1.182 . S
O155 Zn140 2.080 . S
O155 C158 1.305 . S
O156 Zn139 1.920 1_455 S
O156 C158 1.234 . S
C157 O143 1.305 . S
C157 O144 1.234 . S
C158 O155 1.305 . S
C158 O156 1.234 . S
Zn159 O165 1.920 . S
Zn159 O171 1.898 . S
Zn159 O174 1.905 . S
Zn160 O168 1.905 . S
Zn160 O169 1.898 . S
Zn160 O177 1.920 . S
Zn161 O164 2.080 . S
Zn161 O167 2.114 . S
Zn161 O170 2.120 . S
Zn161 O172 2.120 . S
Zn161 O173 2.114 . S
Zn161 O176 2.080 . S
C162 O167 1.166 . S
C162 O168 1.182 . S
C163 O169 1.167 . S
C163 O170 1.299 . S
O164 Zn161 2.080 . S
O164 C178 1.305 . S
O165 Zn159 1.920 . S
O165 C178 1.234 . S
C166 O171 1.167 . S
C166 O172 1.299 . S
O167 Zn161 2.114 . S
O167 C162 1.166 . S
O168 Zn160 1.905 . S
O168 C162 1.182 . S
O169 Zn160 1.898 . S
O169 C163 1.167 . S
O170 Zn161 2.120 . S
O170 C163 1.299 . S
O171 Zn159 1.898 . S
O171 C166 1.167 . S
O172 Zn161 2.120 . S
O172 C166 1.299 . S
O173 Zn161 2.114 . S
O173 C175 1.166 . S
O174 Zn159 1.905 . S
O174 C175 1.182 . S
C175 O173 1.166 . S
C175 O174 1.182 . S
O176 Zn161 2.080 . S
O176 C179 1.305 . S
O177 Zn160 1.920 . S
O177 C179 1.234 . S
C178 O164 1.305 . S
C178 O165 1.234 . S
C179 O176 1.305 . S
C179 O177 1.234 . S
H180 C188 0.929 . S
H181 C190 0.930 . S
H182 C192 0.930 . S
H183 C195 0.929 . S
H184 C198 0.930 . S
H185 C200 0.960 . S
H186 C200 0.960 . S
H187 C200 0.960 . S
C188 H180 0.929 . S
C188 C189 1.377 . S
C188 C190 1.384 . S
C189 C188 1.377 . S
C189 C195 1.390 . S
C190 H181 0.930 . S
C190 C188 1.384 . S
C190 C191 1.372 . S
C191 C190 1.372 . S
C191 C192 1.400 . S
C191 C196 1.490 . S
C192 H182 0.930 . S
C192 C191 1.400 . S
C192 C195 1.386 . S
H193 C209 0.930 . S
H194 C210 0.931 1_565 S
C195 H183 0.929 . S
C195 C189 1.390 . S
C195 C192 1.386 . S
C196 C191 1.490 . S
C196 C198 1.395 . S
C196 C199 1.403 . S
H197 C203 0.930 . S
C198 H184 0.930 . S
C198 C196 1.395 . S
C198 C201 1.403 . S
C199 C196 1.403 . S
C199 C200 1.524 . S
C199 C203 1.400 . S
C200 H185 0.960 . S
C200 H186 0.960 . S
C200 H187 0.960 . S
C200 C199 1.524 . S
C201 C198 1.403 . S
C201 C202 1.392 . S
C201 C205 1.495 1_565 S
C202 C201 1.392 . S
C202 C203 1.385 . S
C202 C204 1.478 1_565 S
C203 H197 0.930 . S
C203 C199 1.400 . S
C203 C202 1.385 . S
C204 C202 1.478 1_545 S
C204 C206 1.381 . S
C204 C210 1.383 . S
C205 C201 1.495 1_545 S
C205 H211 0.959 1_545 S
C205 H212 0.961 . S
C205 H213 0.960 . S
C206 C204 1.381 . S
C206 C207 1.394 . S
C206 H214 0.930 . S
C207 C206 1.394 . S
C207 C208 1.383 . S
C207 H215 0.929 . S
C208 C207 1.383 . S
C208 C209 1.377 . S
C209 H193 0.930 . S
C209 C208 1.377 . S
C209 C210 1.379 . S
C210 H194 0.931 1_545 S
C210 C204 1.383 . S
C210 C209 1.379 . S
H211 C205 0.959 1_565 S
H212 C205 0.961 . S
H213 C205 0.960 . S
H214 C206 0.930 . S
H215 C207 0.929 . S
H216 C224 0.929 . S
H217 C226 0.930 . S
H218 C228 0.930 . S
H219 C231 0.929 . S
H220 C234 0.930 . S
H221 C236 0.960 . S
H222 C236 0.960 . S
H223 C236 0.960 . S
C224 H216 0.929 . S
C224 C225 1.377 . S
C224 C226 1.384 . S
C225 C224 1.377 . S
C225 C231 1.390 . S
C226 H217 0.930 . S
C226 C224 1.384 . S
C226 C227 1.372 . S
C227 C226 1.372 . S
C227 C228 1.400 . S
C227 C232 1.490 . S
C228 H218 0.930 . S
C228 C227 1.400 . S
C228 C231 1.386 . S
H229 C245 0.930 . S
H230 C246 0.931 . S
C231 H219 0.929 . S
C231 C225 1.390 . S
C231 C228 1.386 . S
C232 C227 1.490 . S
C232 C234 1.395 . S
C232 C235 1.403 . S
H233 C239 0.930 . S
C234 H220 0.930 . S
C234 C232 1.395 . S
C234 C237 1.403 . S
C235 C232 1.403 . S
C235 C236 1.524 . S
C235 C239 1.400 . S
C236 H221 0.960 . S
C236 H222 0.960 . S
C236 H223 0.960 . S
C236 C235 1.524 . S
C237 C234 1.403 . S
C237 C238 1.392 . S
C237 C241 1.495 . S
C238 C237 1.392 . S
C238 C239 1.385 . S
C238 C240 1.478 . S
C239 H233 0.930 . S
C239 C235 1.400 . S
C239 C238 1.385 . S
C240 C238 1.478 . S
C240 C242 1.381 . S
C240 C246 1.383 . S
C241 C237 1.495 . S
C241 H247 0.959 . S
C241 H248 0.961 . S
C241 H249 0.960 . S
C242 C240 1.381 . S
C242 C243 1.394 . S
C242 H250 0.930 . S
C243 C242 1.394 . S
C243 C244 1.383 . S
C243 H251 0.929 . S
C244 C243 1.383 . S
C244 C245 1.377 . S
C245 H229 0.930 . S
C245 C244 1.377 . S
C245 C246 1.379 . S
C246 H230 0.931 . S
C246 C240 1.383 . S
C246 C245 1.379 . S
H247 C241 0.959 . S
H248 C241 0.961 . S
H249 C241 0.960 . S
H250 C242 0.930 . S
H251 C243 0.929 . S
H252 C260 0.929 . S
H253 C262 0.930 . S
H254 C264 0.930 . S
H255 C267 0.929 . S
H256 C270 0.930 . S
H257 C272 0.960 . S
H258 C272 0.960 . S
H259 C272 0.960 . S
C260 H252 0.929 . S
C260 C261 1.377 . S
C260 C262 1.384 . S
C261 C260 1.377 . S
C261 C267 1.390 . S
C262 H253 0.930 . S
C262 C260 1.384 . S
C262 C263 1.372 . S
C263 C262 1.372 . S
C263 C264 1.400 . S
C263 C268 1.490 . S
C264 H254 0.930 . S
C264 C263 1.400 . S
C264 C267 1.386 . S
H265 C281 0.930 . S
H266 C282 0.931 . S
C267 H255 0.929 . S
C267 C261 1.390 . S
C267 C264 1.386 . S
C268 C263 1.490 . S
C268 C270 1.395 . S
C268 C271 1.403 . S
H269 C275 0.930 . S
C270 H256 0.930 . S
C270 C268 1.395 . S
C270 C273 1.403 . S
C271 C268 1.403 . S
C271 C272 1.524 . S
C271 C275 1.400 . S
C272 H257 0.960 . S
C272 H258 0.960 . S
C272 H259 0.960 . S
C272 C271 1.524 . S
C273 C270 1.403 . S
C273 C274 1.392 . S
C273 C277 1.495 . S
C274 C273 1.392 . S
C274 C275 1.385 . S
C274 C276 1.478 . S
C275 H269 0.930 . S
C275 C271 1.400 . S
C275 C274 1.385 . S
C276 C274 1.478 . S
C276 C278 1.381 . S
C276 C282 1.383 . S
C277 C273 1.495 . S
C277 H283 0.959 . S
C277 H284 0.961 . S
C277 H285 0.960 . S
C278 C276 1.381 . S
C278 C279 1.394 . S
C278 H286 0.930 . S
C279 C278 1.394 . S
C279 C280 1.383 . S
C279 H287 0.929 . S
C280 C279 1.383 . S
C280 C281 1.377 . S
C281 H265 0.930 . S
C281 C280 1.377 . S
C281 C282 1.379 . S
C282 H266 0.931 . S
C282 C276 1.383 . S
C282 C281 1.379 . S
H283 C277 0.959 . S
H284 C277 0.961 . S
H285 C277 0.960 . S
H286 C278 0.930 . S
H287 C279 0.929 . S
H288 C296 0.929 . S
H289 C298 0.930 . S
H290 C300 0.930 . S
H291 C303 0.929 . S
H292 C306 0.930 . S
H293 C308 0.960 . S
H294 C308 0.960 . S
H295 C308 0.960 . S
C296 H288 0.929 . S
C296 C297 1.377 . S
C296 C298 1.384 . S
C297 C296 1.377 . S
C297 C303 1.390 . S
C298 H289 0.930 . S
C298 C296 1.384 . S
C298 C299 1.372 . S
C299 C298 1.372 . S
C299 C300 1.400 . S
C299 C304 1.490 . S
C300 H290 0.930 . S
C300 C299 1.400 . S
C300 C303 1.386 . S
H301 C317 0.930 . S
H302 C318 0.931 1_565 S
C303 H291 0.929 . S
C303 C297 1.390 . S
C303 C300 1.386 . S
C304 C299 1.490 . S
C304 C306 1.395 . S
C304 C307 1.403 . S
H305 C311 0.930 . S
C306 H292 0.930 . S
C306 C304 1.395 . S
C306 C309 1.403 . S
C307 C304 1.403 . S
C307 C308 1.524 . S
C307 C311 1.400 . S
C308 H293 0.960 . S
C308 H294 0.960 . S
C308 H295 0.960 . S
C308 C307 1.524 . S
C309 C306 1.403 . S
C309 C310 1.392 . S
C309 C313 1.495 . S
C310 C309 1.392 . S
C310 C311 1.385 . S
C310 C312 1.478 1_565 S
C311 H305 0.930 . S
C311 C307 1.400 . S
C311 C310 1.385 . S
C312 C310 1.478 1_545 S
C312 C314 1.381 . S
C312 C318 1.383 . S
C313 C309 1.495 . S
C313 H319 0.959 . S
C313 H320 0.961 . S
C313 H321 0.960 . S
C314 C312 1.381 . S
C314 C315 1.394 . S
C314 H322 0.930 . S
C315 C314 1.394 . S
C315 C316 1.383 . S
C315 H323 0.929 . S
C316 C315 1.383 . S
C316 C317 1.377 . S
C317 H301 0.930 . S
C317 C316 1.377 . S
C317 C318 1.379 . S
C318 H302 0.931 1_545 S
C318 C312 1.383 . S
C318 C317 1.379 . S
H319 C313 0.959 . S
H320 C313 0.961 . S
H321 C313 0.960 . S
H322 C314 0.930 . S
H323 C315 0.929 . S
H324 C332 0.929 . S
H325 C334 0.930 . S
H326 C336 0.930 . S
H327 C339 0.929 . S
H328 C342 0.930 . S
H329 C344 0.960 . S
H330 C344 0.960 . S
H331 C344 0.960 . S
C332 H324 0.929 . S
C332 C333 1.377 . S
C332 C334 1.384 . S
C333 C332 1.377 . S
C333 C339 1.390 . S
C334 H325 0.930 . S
C334 C332 1.384 . S
C334 C335 1.372 . S
C335 C334 1.372 . S
C335 C336 1.400 . S
C335 C340 1.490 . S
C336 H326 0.930 . S
C336 C335 1.400 . S
C336 C339 1.386 . S
H337 C353 0.930 . S
H338 C354 0.931 . S
C339 H327 0.929 . S
C339 C333 1.390 . S
C339 C336 1.386 . S
C340 C335 1.490 . S
C340 C342 1.395 . S
C340 C343 1.403 . S
H341 C347 0.930 . S
C342 H328 0.930 . S
C342 C340 1.395 . S
C342 C345 1.403 . S
C343 C340 1.403 . S
C343 C344 1.524 . S
C343 C347 1.400 . S
C344 H329 0.960 . S
C344 H330 0.960 . S
C344 H331 0.960 . S
C344 C343 1.524 . S
C345 C342 1.403 . S
C345 C346 1.392 . S
C345 C349 1.495 . S
C346 C345 1.392 . S
C346 C347 1.385 . S
C346 C348 1.478 1_545 S
C347 H341 0.930 . S
C347 C343 1.400 . S
C347 C346 1.385 . S
C348 C346 1.478 1_565 S
C348 C350 1.381 . S
C348 C354 1.383 . S
C349 C345 1.495 . S
C349 H355 0.959 . S
C349 H356 0.961 . S
C349 H357 0.960 . S
C350 C348 1.381 . S
C350 C351 1.394 . S
C350 H358 0.930 1_565 S
C351 C350 1.394 . S
C351 C352 1.383 . S
C351 H359 0.929 . S
C352 C351 1.383 . S
C352 C353 1.377 . S
C353 H337 0.930 . S
C353 C352 1.377 . S
C353 C354 1.379 . S
C354 H338 0.931 . S
C354 C348 1.383 . S
C354 C353 1.379 . S
H355 C349 0.959 . S
H356 C349 0.961 . S
H357 C349 0.960 . S
H358 C350 0.930 1_545 S
H359 C351 0.929 . S
H360 C368 0.929 . S
H361 C370 0.930 . S
H362 C372 0.930 . S
H363 C375 0.929 . S
H364 C378 0.930 . S
H365 C380 0.960 . S
H366 C380 0.960 . S
H367 C380 0.960 . S
C368 H360 0.929 . S
C368 C369 1.377 . S
C368 C370 1.384 . S
C369 C368 1.377 . S
C369 C375 1.390 . S
C370 H361 0.930 . S
C370 C368 1.384 . S
C370 C371 1.372 . S
C371 C370 1.372 . S
C371 C372 1.400 . S
C371 C376 1.490 . S
C372 H362 0.930 . S
C372 C371 1.400 . S
C372 C375 1.386 . S
H373 C389 0.930 . S
H374 C390 0.931 . S
C375 H363 0.929 . S
C375 C369 1.390 . S
C375 C372 1.386 . S
C376 C371 1.490 . S
C376 C378 1.395 . S
C376 C379 1.403 . S
H377 C383 0.930 . S
C378 H364 0.930 . S
C378 C376 1.395 . S
C378 C381 1.403 . S
C379 C376 1.403 . S
C379 C380 1.524 . S
C379 C383 1.400 . S
C380 H365 0.960 . S
C380 H366 0.960 . S
C380 H367 0.960 . S
C380 C379 1.524 . S
C381 C378 1.403 . S
C381 C382 1.392 . S
C381 C385 1.495 . S
C382 C381 1.392 . S
C382 C383 1.385 . S
C382 C384 1.478 . S
C383 H377 0.930 . S
C383 C379 1.400 . S
C383 C382 1.385 . S
C384 C382 1.478 . S
C384 C386 1.381 . S
C384 C390 1.383 . S
C385 C381 1.495 . S
C385 H391 0.959 . S
C385 H392 0.961 . S
C385 H393 0.960 . S
C386 C384 1.381 . S
C386 C387 1.394 . S
C386 H394 0.930 . S
C387 C386 1.394 . S
C387 C388 1.383 . S
C387 H395 0.929 . S
C388 C387 1.383 . S
C388 C389 1.377 . S
C389 H373 0.930 . S
C389 C388 1.377 . S
C389 C390 1.379 . S
C390 H374 0.931 . S
C390 C384 1.383 . S
C390 C389 1.379 . S
H391 C385 0.959 . S
H392 C385 0.961 . S
H393 C385 0.960 . S
H394 C386 0.930 . S
H395 C387 0.929 . S
H396 C404 0.929 . S
H397 C406 0.930 . S
H398 C408 0.930 . S
H399 C411 0.929 . S
H400 C414 0.930 . S
H401 C416 0.960 . S
H402 C416 0.960 . S
H403 C416 0.960 . S
C404 H396 0.929 . S
C404 C405 1.377 . S
C404 C406 1.384 . S
C405 C404 1.377 . S
C405 C411 1.390 . S
C406 H397 0.930 . S
C406 C404 1.384 . S
C406 C407 1.372 . S
C407 C406 1.372 . S
C407 C408 1.400 . S
C407 C412 1.490 . S
C408 H398 0.930 . S
C408 C407 1.400 . S
C408 C411 1.386 . S
H409 C425 0.930 . S
H410 C426 0.931 . S
C411 H399 0.929 . S
C411 C405 1.390 . S
C411 C408 1.386 . S
C412 C407 1.490 . S
C412 C414 1.395 . S
C412 C415 1.403 . S
H413 C419 0.930 . S
C414 H400 0.930 . S
C414 C412 1.395 . S
C414 C417 1.403 . S
C415 C412 1.403 . S
C415 C416 1.524 . S
C415 C419 1.400 . S
C416 H401 0.960 . S
C416 H402 0.960 . S
C416 H403 0.960 . S
C416 C415 1.524 . S
C417 C414 1.403 . S
C417 C418 1.392 . S
C417 C421 1.495 . S
C418 C417 1.392 . S
C418 C419 1.385 . S
C418 C420 1.478 . S
C419 H413 0.930 . S
C419 C415 1.400 . S
C419 C418 1.385 . S
C420 C418 1.478 . S
C420 C422 1.381 . S
C420 C426 1.383 . S
C421 C417 1.495 . S
C421 H427 0.959 . S
C421 H428 0.961 . S
C421 H429 0.960 . S
C422 C420 1.381 . S
C422 C423 1.394 . S
C422 H430 0.930 . S
C423 C422 1.394 . S
C423 C424 1.383 . S
C423 H431 0.929 . S
C424 C423 1.383 . S
C424 C425 1.377 . S
C425 H409 0.930 . S
C425 C424 1.377 . S
C425 C426 1.379 . S
C426 H410 0.931 . S
C426 C420 1.383 . S
C426 C425 1.379 . S
H427 C421 0.959 . S
H428 C421 0.961 . S
H429 C421 0.960 . S
H430 C422 0.930 . S
H431 C423 0.929 . S
H432 C440 0.929 . S
H433 C442 0.930 . S
H434 C444 0.930 . S
H435 C447 0.929 . S
H436 C450 0.930 . S
H437 C452 0.960 . S
H438 C452 0.960 . S
H439 C452 0.960 . S
C440 H432 0.929 . S
C440 C441 1.377 . S
C440 C442 1.384 . S
C441 C440 1.377 . S
C441 C447 1.390 . S
C442 H433 0.930 . S
C442 C440 1.384 . S
C442 C443 1.372 . S
C443 C442 1.372 . S
C443 C444 1.400 . S
C443 C448 1.490 . S
C444 H434 0.930 . S
C444 C443 1.400 . S
C444 C447 1.386 . S
H445 C461 0.930 . S
H446 C462 0.931 . S
C447 H435 0.929 . S
C447 C441 1.390 . S
C447 C444 1.386 . S
C448 C443 1.490 . S
C448 C450 1.395 . S
C448 C451 1.403 . S
H449 C455 0.930 . S
C450 H436 0.930 . S
C450 C448 1.395 . S
C450 C453 1.403 . S
C451 C448 1.403 . S
C451 C452 1.524 . S
C451 C455 1.400 . S
C452 H437 0.960 . S
C452 H438 0.960 . S
C452 H439 0.960 . S
C452 C451 1.524 . S
C453 C450 1.403 . S
C453 C454 1.392 . S
C453 C457 1.495 . S
C454 C453 1.392 . S
C454 C455 1.385 . S
C454 C456 1.478 1_545 S
C455 H449 0.930 . S
C455 C451 1.400 . S
C455 C454 1.385 . S
C456 C454 1.478 1_565 S
C456 C458 1.383 . S
C456 C462 1.383 . S
C457 C453 1.495 . S
C457 H463 0.959 . S
C457 H464 0.961 . S
C457 H465 0.960 . S
C458 C456 1.383 . S
C458 C459 1.428 . S
C458 H466 0.896 1_565 S
C459 C458 1.428 . S
C459 C460 1.383 . S
C459 H467 0.929 . S
C460 C459 1.383 . S
C460 C461 1.377 . S
C461 H445 0.930 . S
C461 C460 1.377 . S
C461 C462 1.379 . S
C462 H446 0.931 . S
C462 C456 1.383 . S
C462 C461 1.379 . S
H463 C457 0.959 . S
H464 C457 0.961 . S
H465 C457 0.960 . S
H466 C458 0.896 1_545 S
H467 C459 0.929 . S
H468 C476 0.929 . S
H469 C478 0.930 . S
H470 C480 0.930 . S
H471 C483 0.929 . S
H472 C486 0.930 . S
H473 C488 0.960 . S
H474 C488 0.960 . S
H475 C488 0.973 . S
C476 H468 0.929 . S
C476 C477 1.377 . S
C476 C478 1.384 1_556 S
C477 C476 1.377 . S
C477 C483 1.390 . S
C478 H469 0.930 . S
C478 C476 1.384 1_554 S
C478 C479 1.372 . S
C479 C478 1.372 . S
C479 C480 1.400 1_554 S
C479 C484 1.490 . S
C480 H470 0.930 . S
C480 C479 1.400 1_556 S
C480 C483 1.386 . S
H481 C497 0.930 . S
H482 C498 0.931 . S
C483 H471 0.929 . S
C483 C477 1.390 . S
C483 C480 1.386 . S
C484 C479 1.490 . S
C484 C486 1.395 . S
C484 C487 1.403 . S
H485 C491 0.930 . S
C486 H472 0.930 . S
C486 C484 1.395 . S
C486 C489 1.403 . S
C487 C484 1.403 . S
C487 C488 1.524 . S
C487 C491 1.400 . S
C488 H473 0.960 . S
C488 H474 0.960 . S
C488 H475 0.973 . S
C488 C487 1.524 . S
C489 C486 1.403 . S
C489 C490 1.392 . S
C489 C493 1.495 . S
C490 C489 1.392 . S
C490 C491 1.385 . S
C490 C492 1.478 . S
C491 H485 0.930 . S
C491 C487 1.400 . S
C491 C490 1.385 . S
C492 C490 1.478 . S
C492 C494 1.381 . S
C492 C498 1.383 . S
C493 C489 1.495 . S
C493 H499 0.959 . S
C493 H500 0.961 . S
C493 H501 0.960 . S
C494 C492 1.381 . S
C494 C495 1.394 . S
C494 H502 0.930 . S
C495 C494 1.394 . S
C495 C496 1.383 . S
C495 H503 0.929 . S
C496 C495 1.383 . S
C496 C497 1.377 . S
C497 H481 0.930 . S
C497 C496 1.377 . S
C497 C498 1.379 . S
C498 H482 0.931 . S
C498 C492 1.383 . S
C498 C497 1.379 . S
H499 C493 0.959 . S
H500 C493 0.961 . S
H501 C493 0.960 . S
H502 C494 0.930 . S
H503 C495 0.929 . S
H504 C512 0.929 . S
H505 C514 0.930 . S
H506 C516 0.930 . S
H507 C519 0.929 . S
H508 C522 0.930 . S
H509 C524 0.960 . S
H510 C524 0.960 . S
H511 C524 0.960 . S
C512 H504 0.929 . S
C512 C513 1.377 . S
C512 C514 1.384 . S
C513 C512 1.377 . S
C513 C519 1.390 . S
C514 H505 0.930 . S
C514 C512 1.384 . S
C514 C515 1.372 . S
C515 C514 1.372 . S
C515 C516 1.400 . S
C515 C520 1.490 . S
C516 H506 0.930 . S
C516 C515 1.400 . S
C516 C519 1.386 . S
H517 C533 0.930 . S
H518 C534 0.931 . S
C519 H507 0.929 . S
C519 C513 1.390 . S
C519 C516 1.386 . S
C520 C515 1.490 . S
C520 C522 1.395 . S
C520 C523 1.403 . S
H521 C527 0.930 . S
C522 H508 0.930 . S
C522 C520 1.395 . S
C522 C525 1.403 . S
C523 C520 1.403 . S
C523 C524 1.524 . S
C523 C527 1.400 . S
C524 H509 0.960 . S
C524 H510 0.960 . S
C524 H511 0.960 . S
C524 C523 1.524 . S
C525 C522 1.403 . S
C525 C526 1.392 . S
C525 C529 1.495 . S
C526 C525 1.392 . S
C526 C527 1.385 . S
C526 C528 1.478 . S
C527 H521 0.930 . S
C527 C523 1.400 . S
C527 C526 1.385 . S
C528 C526 1.478 . S
C528 C530 1.381 . S
C528 C534 1.383 . S
C529 C525 1.495 . S
C529 H535 0.959 . S
C529 H536 0.961 . S
C529 H537 0.960 . S
C530 C528 1.381 . S
C530 C531 1.394 . S
C530 H538 0.930 . S
C531 C530 1.394 . S
C531 C532 1.383 . S
C531 H539 0.929 . S
C532 C531 1.383 . S
C532 C533 1.377 . S
C533 H517 0.930 . S
C533 C532 1.377 . S
C533 C534 1.379 . S
C534 H518 0.931 . S
C534 C528 1.383 . S
C534 C533 1.379 . S
H535 C529 0.959 . S
H536 C529 0.961 . S
H537 C529 0.960 . S
H538 C530 0.930 . S
H539 C531 0.929 . S
H540 C548 0.929 . S
H541 C550 0.930 . S
H542 C552 0.930 . S
H543 C555 0.929 . S
H544 C558 0.930 . S
H545 C560 0.960 . S
H546 C560 0.960 . S
H547 C560 0.960 . S
C548 H540 0.929 . S
C548 C549 1.377 . S
C548 C550 1.384 . S
C549 C548 1.377 . S
C549 C555 1.390 . S
C550 H541 0.930 . S
C550 C548 1.384 . S
C550 C551 1.372 1_554 S
C551 C550 1.372 1_556 S
C551 C552 1.400 . S
C551 C556 1.490 . S
C552 H542 0.930 . S
C552 C551 1.400 . S
C552 C555 1.386 1_556 S
H553 C569 0.930 . S
H554 C570 0.931 . S
C555 H543 0.929 . S
C555 C549 1.390 . S
C555 C552 1.386 1_554 S
C556 C551 1.490 . S
C556 C558 1.395 . S
C556 C559 1.403 . S
H557 C563 0.930 . S
C558 H544 0.930 . S
C558 C556 1.395 . S
C558 C561 1.403 . S
C559 C556 1.403 . S
C559 C560 1.524 . S
C559 C563 1.400 . S
C560 H545 0.960 . S
C560 H546 0.960 . S
C560 H547 0.960 . S
C560 C559 1.524 . S
C561 C558 1.403 . S
C561 C562 1.392 . S
C561 C565 1.495 . S
C562 C561 1.392 . S
C562 C563 1.385 . S
C562 C564 1.478 . S
C563 H557 0.930 . S
C563 C559 1.400 . S
C563 C562 1.385 . S
C564 C562 1.478 . S
C564 C566 1.381 . S
C564 C570 1.383 . S
C565 C561 1.495 . S
C565 H571 0.959 . S
C565 H572 0.961 . S
C565 H573 0.960 . S
C566 C564 1.381 . S
C566 C567 1.394 . S
C566 H574 0.930 . S
C567 C566 1.394 . S
C567 C568 1.383 . S
C567 H575 0.929 . S
C568 C567 1.383 . S
C568 C569 1.377 . S
C569 H553 0.930 . S
C569 C568 1.377 . S
C569 C570 1.379 . S
C570 H554 0.931 . S
C570 C564 1.383 . S
C570 C569 1.379 . S
H571 C565 0.959 . S
H572 C565 0.961 . S
H573 C565 0.960 . S
H574 C566 0.930 . S
H575 C567 0.929 . S
H576 C584 0.929 . S
H577 C586 0.930 . S
H578 C588 0.930 . S
H579 C591 0.929 . S
H580 C594 0.930 . S
H581 C596 0.960 . S
H582 C596 0.960 . S
H583 C596 0.960 . S
C584 H576 0.929 . S
C584 C585 1.377 . S
C584 C586 1.384 . S
C585 C584 1.377 . S
C585 C591 1.390 . S
C586 H577 0.930 . S
C586 C584 1.384 . S
C586 C587 1.372 . S
C587 C586 1.372 . S
C587 C588 1.400 . S
C587 C592 1.490 . S
C588 H578 0.930 . S
C588 C587 1.400 . S
C588 C591 1.386 . S
H589 C605 0.930 . S
H590 C606 0.931 . S
C591 H579 0.929 . S
C591 C585 1.390 . S
C591 C588 1.386 . S
C592 C587 1.490 . S
C592 C594 1.395 . S
C592 C595 1.403 . S
H593 C599 0.930 . S
C594 H580 0.930 . S
C594 C592 1.395 . S
C594 C597 1.403 . S
C595 C592 1.403 . S
C595 C596 1.524 . S
C595 C599 1.400 . S
C596 H581 0.960 . S
C596 H582 0.960 . S
C596 H583 0.960 . S
C596 C595 1.524 . S
C597 C594 1.403 . S
C597 C598 1.392 . S
C597 C601 1.495 . S
C598 C597 1.392 . S
C598 C599 1.385 . S
C598 C600 1.478 . S
C599 H593 0.930 . S
C599 C595 1.400 . S
C599 C598 1.385 . S
C600 C598 1.478 . S
C600 C602 1.381 . S
C600 C606 1.383 . S
C601 C597 1.495 . S
C601 H607 0.959 . S
C601 H608 0.961 . S
C601 H609 0.960 . S
C602 C600 1.381 . S
C602 C603 1.394 . S
C602 H610 0.930 . S
C603 C602 1.394 . S
C603 C604 1.383 . S
C603 H611 0.929 . S
C604 C603 1.383 . S
C604 C605 1.377 . S
C605 H589 0.930 . S
C605 C604 1.377 . S
C605 C606 1.379 . S
C606 H590 0.931 . S
C606 C600 1.383 . S
C606 C605 1.379 . S
H607 C601 0.959 . S
H608 C601 0.961 . S
H609 C601 0.960 . S
H610 C602 0.930 . S
H611 C603 0.929 . S
H612 C620 0.929 . S
H613 C622 0.925 1_556 S
H614 C624 0.930 . S
H615 C627 0.929 . S
H616 C630 0.930 . S
H617 C632 0.960 . S
H618 C632 0.960 . S
H619 C632 0.960 . S
C620 H612 0.929 . S
C620 C621 1.377 . S
C620 C622 1.391 . S
C621 C620 1.377 . S
C621 C627 1.390 . S
C622 H613 0.925 1_554 S
C622 C620 1.391 . S
C622 C623 1.369 1_554 S
C623 C622 1.369 1_556 S
C623 C624 1.400 1_556 S
C623 C628 1.490 . S
C624 H614 0.930 . S
C624 C623 1.400 1_554 S
C624 C627 1.386 . S
H625 C641 0.930 . S
H626 C642 0.931 . S
C627 H615 0.929 . S
C627 C621 1.390 . S
C627 C624 1.386 . S
C628 C623 1.490 . S
C628 C630 1.395 . S
C628 C631 1.403 . S
H629 C635 0.930 . S
C630 H616 0.930 . S
C630 C628 1.395 . S
C630 C633 1.403 . S
C631 C628 1.403 . S
C631 C632 1.524 . S
C631 C635 1.400 . S
C632 H617 0.960 . S
C632 H618 0.960 . S
C632 H619 0.960 . S
C632 C631 1.524 . S
C633 C630 1.403 . S
C633 C634 1.392 . S
C633 C637 1.495 . S
C634 C633 1.392 . S
C634 C635 1.385 . S
C634 C636 1.478 . S
C635 H629 0.930 . S
C635 C631 1.400 . S
C635 C634 1.385 . S
C636 C634 1.478 . S
C636 C638 1.381 . S
C636 C642 1.383 . S
C637 C633 1.495 . S
C637 H643 0.959 . S
C637 H644 0.961 . S
C637 H645 0.960 . S
C638 C636 1.381 . S
C638 C639 1.394 . S
C638 H646 0.930 . S
C639 C638 1.394 . S
C639 C640 1.383 . S
C639 H647 0.929 . S
C640 C639 1.383 . S
C640 C641 1.377 . S
C641 H625 0.930 . S
C641 C640 1.377 . S
C641 C642 1.379 . S
C642 H626 0.931 . S
C642 C636 1.383 . S
C642 C641 1.379 . S
H643 C637 0.959 . S
H644 C637 0.961 . S
H645 C637 0.960 . S
H646 C638 0.930 . S
H647 C639 0.929 . S
H648 C656 0.929 . S
H649 C658 0.930 . S
H650 C660 0.930 . S
H651 C663 0.929 . S
H652 C666 0.930 . S
H653 C668 0.960 . S
H654 C668 0.960 . S
H655 C668 0.960 . S
C656 H648 0.929 . S
C656 C657 1.377 . S
C656 C658 1.384 . S
C657 C656 1.377 . S
C657 C663 1.390 . S
C658 H649 0.930 . S
C658 C656 1.384 . S
C658 C659 1.372 . S
C659 C658 1.372 . S
C659 C660 1.400 . S
C659 C664 1.490 . S
C660 H650 0.930 . S
C660 C659 1.400 . S
C660 C663 1.386 . S
H661 C677 0.930 . S
H662 C678 0.931 . S
C663 H651 0.929 . S
C663 C657 1.390 . S
C663 C660 1.386 . S
C664 C659 1.490 . S
C664 C666 1.395 . S
C664 C667 1.403 . S
H665 C671 0.930 . S
C666 H652 0.930 . S
C666 C664 1.395 . S
C666 C669 1.403 . S
C667 C664 1.403 . S
C667 C668 1.524 . S
C667 C671 1.400 . S
C668 H653 0.960 . S
C668 H654 0.960 . S
C668 H655 0.960 . S
C668 C667 1.524 . S
C669 C666 1.403 . S
C669 C670 1.392 . S
C669 C673 1.495 . S
C670 C669 1.392 . S
C670 C671 1.385 . S
C670 C672 1.478 . S
C671 H665 0.930 . S
C671 C667 1.400 . S
C671 C670 1.385 . S
C672 C670 1.478 . S
C672 C674 1.381 . S
C672 C678 1.383 . S
C673 C669 1.495 . S
C673 H679 0.959 . S
C673 H680 0.961 . S
C673 H681 0.960 . S
C674 C672 1.381 . S
C674 C675 1.394 . S
C674 H682 0.930 . S
C675 C674 1.394 . S
C675 C676 1.383 . S
C675 H683 0.929 . S
C676 C675 1.383 . S
C676 C677 1.377 . S
C677 H661 0.930 . S
C677 C676 1.377 . S
C677 C678 1.379 . S
C678 H662 0.931 . S
C678 C672 1.383 . S
C678 C677 1.379 . S
H679 C673 0.959 . S
H680 C673 0.961 . S
H681 C673 0.960 . S
H682 C674 0.930 . S
H683 C675 0.929 . S
H684 C692 0.929 . S
H685 C694 0.930 . S
H686 C696 0.912 1_554 S
H687 C699 0.929 . S
H688 C702 0.930 . S
H689 C704 0.960 . S
H690 C704 0.960 . S
H691 C704 0.960 . S
C692 H684 0.929 . S
C692 C693 1.377 . S
C692 C694 1.384 . S
C693 C692 1.377 . S
C693 C699 1.390 . S
C694 H685 0.930 . S
C694 C692 1.384 . S
C694 C695 1.372 1_556 S
C695 C694 1.372 1_554 S
C695 C696 1.395 1_554 S
C695 C700 1.490 . S
C696 H686 0.912 1_556 S
C696 C695 1.395 1_556 S
C696 C699 1.408 . S
H697 C713 0.930 . S
H698 C714 0.931 . S
C699 H687 0.929 . S
C699 C693 1.390 . S
C699 C696 1.408 . S
C700 C695 1.490 . S
C700 C702 1.395 . S
C700 C703 1.403 . S
H701 C707 0.930 . S
C702 H688 0.930 . S
C702 C700 1.395 . S
C702 C705 1.403 . S
C703 C700 1.403 . S
C703 C704 1.524 . S
C703 C707 1.400 . S
C704 H689 0.960 . S
C704 H690 0.960 . S
C704 H691 0.960 . S
C704 C703 1.524 . S
C705 C702 1.403 . S
C705 C706 1.392 . S
C705 C709 1.495 . S
C706 C705 1.392 . S
C706 C707 1.385 . S
C706 C708 1.478 . S
C707 H701 0.930 . S
C707 C703 1.400 . S
C707 C706 1.385 . S
C708 C706 1.478 . S
C708 C710 1.381 . S
C708 C714 1.383 . S
C709 C705 1.495 . S
C709 H715 0.959 . S
C709 H716 0.961 . S
C709 H717 0.960 . S
C710 C708 1.381 . S
C710 C711 1.394 . S
C710 H718 0.930 . S
C711 C710 1.394 . S
C711 C712 1.383 . S
C711 H719 0.929 . S
C712 C711 1.383 . S
C712 C713 1.377 . S
C713 H697 0.930 . S
C713 C712 1.377 . S
C713 C714 1.379 . S
C714 H698 0.931 . S
C714 C708 1.383 . S
C714 C713 1.379 . S
H715 C709 0.959 . S
H716 C709 0.961 . S
H717 C709 0.960 . S
H718 C710 0.930 . S
H719 C711 0.929 . S
H720 C728 0.929 . S
H721 C730 0.930 . S
H722 C732 0.930 . S
H723 C735 0.929 . S
H724 C738 0.930 . S
H725 C740 0.960 . S
H726 C740 0.960 . S
H727 C740 0.960 . S
C728 H720 0.929 . S
C728 C729 1.377 . S
C728 C730 1.384 . S
C729 C728 1.377 . S
C729 C735 1.390 . S
C730 H721 0.930 . S
C730 C728 1.384 . S
C730 C731 1.372 . S
C731 C730 1.372 . S
C731 C732 1.400 . S
C731 C736 1.490 . S
C732 H722 0.930 . S
C732 C731 1.400 . S
C732 C735 1.386 . S
H733 C749 0.930 . S
H734 C750 0.931 . S
C735 H723 0.929 . S
C735 C729 1.390 . S
C735 C732 1.386 . S
C736 C731 1.490 . S
C736 C738 1.395 . S
C736 C739 1.403 . S
H737 C743 0.930 . S
C738 H724 0.930 . S
C738 C736 1.395 . S
C738 C741 1.403 . S
C739 C736 1.403 . S
C739 C740 1.524 . S
C739 C743 1.400 . S
C740 H725 0.960 . S
C740 H726 0.960 . S
C740 H727 0.960 . S
C740 C739 1.524 . S
C741 C738 1.403 . S
C741 C742 1.392 . S
C741 C745 1.495 . S
C742 C741 1.392 . S
C742 C743 1.385 . S
C742 C744 1.478 . S
C743 H737 0.930 . S
C743 C739 1.400 . S
C743 C742 1.385 . S
C744 C742 1.478 . S
C744 C746 1.381 . S
C744 C750 1.383 . S
C745 C741 1.495 . S
C745 H751 0.959 . S
C745 H752 0.961 . S
C745 H753 0.960 . S
C746 C744 1.381 . S
C746 C747 1.394 . S
C746 H754 0.930 . S
C747 C746 1.394 . S
C747 C748 1.383 . S
C747 H755 0.929 . S
C748 C747 1.383 . S
C748 C749 1.377 . S
C749 H733 0.930 . S
C749 C748 1.377 . S
C749 C750 1.379 . S
C750 H734 0.931 . S
C750 C744 1.383 . S
C750 C749 1.379 . S
H751 C745 0.959 . S
H752 C745 0.961 . S
H753 C745 0.960 . S
H754 C746 0.930 . S
H755 C747 0.929 . S
H756 C764 0.929 . S
H757 C766 0.930 . S
H758 C768 0.930 . S
H759 C771 0.929 . S
H760 C774 0.930 . S
H761 C776 0.960 . S
H762 C776 0.960 . S
H763 C776 0.960 . S
C764 H756 0.929 . S
C764 C765 1.377 . S
C764 C766 1.384 . S
C765 C764 1.377 . S
C765 C771 1.390 . S
C766 H757 0.930 . S
C766 C764 1.384 . S
C766 C767 1.372 . S
C767 C766 1.372 . S
C767 C768 1.400 . S
C767 C772 1.490 . S
C768 H758 0.930 . S
C768 C767 1.400 . S
C768 C771 1.386 . S
H769 C785 0.930 . S
H770 C786 0.931 . S
C771 H759 0.929 . S
C771 C765 1.390 . S
C771 C768 1.386 . S
C772 C767 1.490 . S
C772 C774 1.395 . S
C772 C775 1.403 . S
H773 C779 0.930 . S
C774 H760 0.930 . S
C774 C772 1.395 . S
C774 C777 1.403 . S
C775 C772 1.403 . S
C775 C776 1.524 . S
C775 C779 1.400 . S
C776 H761 0.960 . S
C776 H762 0.960 . S
C776 H763 0.960 . S
C776 C775 1.524 . S
C777 C774 1.403 . S
C777 C778 1.392 . S
C777 C781 1.495 . S
C778 C777 1.392 . S
C778 C779 1.385 . S
C778 C780 1.478 . S
C779 H773 0.930 . S
C779 C775 1.400 . S
C779 C778 1.385 . S
C780 C778 1.478 . S
C780 C782 1.381 . S
C780 C786 1.383 . S
C781 C777 1.495 . S
C781 H787 0.959 . S
C781 H788 0.961 . S
C781 H789 0.960 . S
C782 C780 1.381 . S
C782 C783 1.394 . S
C782 H790 0.930 . S
C783 C782 1.394 . S
C783 C784 1.383 . S
C783 H791 0.929 . S
C784 C783 1.383 . S
C784 C785 1.377 . S
C785 H769 0.930 . S
C785 C784 1.377 . S
C785 C786 1.379 . S
C786 H770 0.931 . S
C786 C780 1.383 . S
C786 C785 1.379 . S
H787 C781 0.959 . S
H788 C781 0.961 . S
H789 C781 0.960 . S
H790 C782 0.930 . S
H791 C783 0.929 . S
H792 C800 0.929 . S
H793 C802 0.930 . S
H794 C804 0.930 . S
H795 C807 0.929 . S
H796 C810 0.930 . S
H797 C812 0.960 . S
H798 C812 0.960 . S
H799 C812 0.960 . S
C800 H792 0.929 . S
C800 C801 1.377 . S
C800 C802 1.384 . S
C801 C800 1.377 . S
C801 C807 1.390 . S
C802 H793 0.930 . S
C802 C800 1.384 . S
C802 C803 1.372 . S
C803 C802 1.372 . S
C803 C804 1.400 . S
C803 C808 1.490 . S
C804 H794 0.930 . S
C804 C803 1.400 . S
C804 C807 1.386 . S
H805 C821 0.930 . S
H806 C822 0.931 . S
C807 H795 0.929 . S
C807 C801 1.390 . S
C807 C804 1.386 . S
C808 C803 1.490 . S
C808 C810 1.395 . S
C808 C811 1.403 . S
H809 C815 0.930 . S
C810 H796 0.930 . S
C810 C808 1.395 . S
C810 C813 1.403 . S
C811 C808 1.403 . S
C811 C812 1.524 . S
C811 C815 1.400 . S
C812 H797 0.960 . S
C812 H798 0.960 . S
C812 H799 0.960 . S
C812 C811 1.524 . S
C813 C810 1.403 . S
C813 C814 1.392 . S
C813 C817 1.495 . S
C814 C813 1.392 . S
C814 C815 1.385 . S
C814 C816 1.478 . S
C815 H809 0.930 . S
C815 C811 1.400 . S
C815 C814 1.385 . S
C816 C814 1.478 . S
C816 C818 1.381 . S
C816 C822 1.383 . S
C817 C813 1.495 . S
C817 H823 0.959 . S
C817 H824 0.961 . S
C817 H825 0.960 . S
C818 C816 1.381 . S
C818 C819 1.394 . S
C818 H826 0.930 . S
C819 C818 1.394 . S
C819 C820 1.383 . S
C819 H827 0.929 . S
C820 C819 1.383 . S
C820 C821 1.377 . S
C821 H805 0.930 . S
C821 C820 1.377 . S
C821 C822 1.379 . S
C822 H806 0.931 . S
C822 C816 1.383 . S
C822 C821 1.379 . S
H823 C817 0.959 . S
H824 C817 0.961 . S
H825 C817 0.960 . S
H826 C818 0.930 . S
H827 C819 0.929 . S
H828 C836 0.929 . S
H829 C838 0.930 . S
H830 C840 0.930 . S
H831 C843 0.929 . S
H832 C846 0.930 . S
H833 C848 0.960 . S
H834 C848 0.960 . S
H835 C848 0.960 . S
C836 H828 0.929 . S
C836 C837 1.377 . S
C836 C838 1.384 . S
C837 C836 1.377 . S
C837 C843 1.390 . S
C838 H829 0.930 . S
C838 C836 1.384 . S
C838 C839 1.372 . S
C839 C838 1.372 . S
C839 C840 1.400 . S
C839 C844 1.490 . S
C840 H830 0.930 . S
C840 C839 1.400 . S
C840 C843 1.386 . S
H841 C857 0.930 . S
H842 C858 0.931 . S
C843 H831 0.929 . S
C843 C837 1.390 . S
C843 C840 1.386 . S
C844 C839 1.490 . S
C844 C846 1.395 . S
C844 C847 1.403 . S
H845 C851 0.930 . S
C846 H832 0.930 . S
C846 C844 1.395 . S
C846 C849 1.403 . S
C847 C844 1.403 . S
C847 C848 1.524 . S
C847 C851 1.400 . S
C848 H833 0.960 . S
C848 H834 0.960 . S
C848 H835 0.960 . S
C848 C847 1.524 . S
C849 C846 1.403 . S
C849 C850 1.392 . S
C849 C853 1.495 . S
C850 C849 1.392 . S
C850 C851 1.385 . S
C850 C852 1.478 . S
C851 H845 0.930 . S
C851 C847 1.400 . S
C851 C850 1.385 . S
C852 C850 1.478 . S
C852 C854 1.381 . S
C852 C858 1.383 . S
C853 C849 1.495 . S
C853 H859 0.959 . S
C853 H860 0.961 . S
C853 H861 0.960 . S
C854 C852 1.381 . S
C854 C855 1.394 . S
C854 H862 0.930 . S
C855 C854 1.394 . S
C855 C856 1.383 . S
C855 H863 0.929 . S
C856 C855 1.383 . S
C856 C857 1.377 . S
C857 H841 0.930 . S
C857 C856 1.377 . S
C857 C858 1.379 . S
C858 H842 0.931 . S
C858 C852 1.383 . S
C858 C857 1.379 . S
H859 C853 0.959 . S
H860 C853 0.961 . S
H861 C853 0.960 . S
H862 C854 0.930 . S
H863 C855 0.929 . S
H864 C872 0.929 . S
H865 C874 0.930 . S
H866 C876 0.930 . S
H867 C879 0.929 . S
H868 C882 0.930 . S
H869 C884 0.960 . S
H870 C884 0.960 . S
H871 C884 0.960 . S
C872 H864 0.929 . S
C872 C873 1.377 . S
C872 C874 1.384 . S
C873 C872 1.377 . S
C873 C879 1.390 . S
C874 H865 0.930 . S
C874 C872 1.384 . S
C874 C875 1.372 . S
C875 C874 1.372 . S
C875 C876 1.400 . S
C875 C880 1.490 . S
C876 H866 0.930 . S
C876 C875 1.400 . S
C876 C879 1.386 . S
H877 C893 0.930 . S
H878 C894 0.931 . S
C879 H867 0.929 . S
C879 C873 1.390 . S
C879 C876 1.386 . S
C880 C875 1.490 . S
C880 C882 1.395 . S
C880 C883 1.403 . S
H881 C887 0.930 . S
C882 H868 0.930 . S
C882 C880 1.395 . S
C882 C885 1.403 . S
C883 C880 1.403 . S
C883 C884 1.524 . S
C883 C887 1.400 . S
C884 H869 0.960 . S
C884 H870 0.960 . S
C884 H871 0.960 . S
C884 C883 1.524 . S
C885 C882 1.403 . S
C885 C886 1.392 . S
C885 C889 1.495 . S
C886 C885 1.392 . S
C886 C887 1.385 . S
C886 C888 1.478 . S
C887 H881 0.930 . S
C887 C883 1.400 . S
C887 C886 1.385 . S
C888 C886 1.478 . S
C888 C890 1.381 . S
C888 C894 1.383 . S
C889 C885 1.495 . S
C889 H895 0.959 . S
C889 H896 0.961 . S
C889 H897 0.960 . S
C890 C888 1.381 . S
C890 C891 1.394 . S
C890 H898 0.930 . S
C891 C890 1.394 . S
C891 C892 1.383 . S
C891 H899 0.929 . S
C892 C891 1.383 . S
C892 C893 1.377 . S
C893 H877 0.930 . S
C893 C892 1.377 . S
C893 C894 1.379 . S
C894 H878 0.931 . S
C894 C888 1.383 . S
C894 C893 1.379 . S
H895 C889 0.959 . S
H896 C889 0.961 . S
H897 C889 0.960 . S
H898 C890 0.930 . S
H899 C891 0.929 . S
H900 C908 0.929 . S
H901 C910 0.930 . S
H902 C912 0.930 . S
H903 C915 0.929 . S
H904 C918 0.930 . S
H905 C920 0.960 . S
H906 C920 0.960 . S
H907 C920 0.960 . S
C908 H900 0.929 . S
C908 C909 1.377 . S
C908 C910 1.384 . S
C909 C908 1.377 . S
C909 C915 1.390 . S
C910 H901 0.930 . S
C910 C908 1.384 . S
C910 C911 1.372 . S
C911 C910 1.372 . S
C911 C912 1.400 . S
C911 C916 1.490 . S
C912 H902 0.930 . S
C912 C911 1.400 . S
C912 C915 1.386 . S
H913 C929 0.930 . S
H914 C930 0.931 . S
C915 H903 0.929 . S
C915 C909 1.390 . S
C915 C912 1.386 . S
C916 C911 1.490 . S
C916 C918 1.395 . S
C916 C919 1.403 . S
H917 C923 0.930 . S
C918 H904 0.930 . S
C918 C916 1.395 . S
C918 C921 1.403 . S
C919 C916 1.403 . S
C919 C920 1.524 . S
C919 C923 1.400 . S
C920 H905 0.960 . S
C920 H906 0.960 . S
C920 H907 0.960 . S
C920 C919 1.524 . S
C921 C918 1.403 . S
C921 C922 1.392 . S
C921 C925 1.495 . S
C922 C921 1.392 . S
C922 C923 1.385 . S
C922 C924 1.478 . S
C923 H917 0.930 . S
C923 C919 1.400 . S
C923 C922 1.385 . S
C924 C922 1.478 . S
C924 C926 1.381 . S
C924 C930 1.383 . S
C925 C921 1.495 . S
C925 H931 0.959 . S
C925 H932 0.961 . S
C925 H933 0.960 . S
C926 C924 1.381 . S
C926 C927 1.394 . S
C926 H934 0.930 . S
C927 C926 1.394 . S
C927 C928 1.383 . S
C927 H935 0.929 . S
C928 C927 1.383 . S
C928 C929 1.377 . S
C929 H913 0.930 . S
C929 C928 1.377 . S
C929 C930 1.379 . S
C930 H914 0.931 . S
C930 C924 1.383 . S
C930 C929 1.379 . S
H931 C925 0.959 . S
H932 C925 0.961 . S
H933 C925 0.960 . S
H934 C926 0.930 . S
H935 C927 0.929 . S
H936 C944 0.929 . S
H937 C946 0.930 . S
H938 C948 0.930 . S
H939 C951 0.929 . S
H940 C954 0.930 . S
H941 C956 0.960 . S
H942 C956 0.960 . S
H943 C956 0.960 . S
C944 H936 0.929 . S
C944 C945 1.377 . S
C944 C946 1.384 . S
C945 C944 1.377 . S
C945 C951 1.390 . S
C946 H937 0.930 . S
C946 C944 1.384 . S
C946 C947 1.372 . S
C947 C946 1.372 . S
C947 C948 1.400 . S
C947 C952 1.490 . S
C948 H938 0.930 . S
C948 C947 1.400 . S
C948 C951 1.386 . S
H949 C965 0.930 . S
H950 C966 0.931 . S
C951 H939 0.929 . S
C951 C945 1.390 . S
C951 C948 1.386 . S
C952 C947 1.490 . S
C952 C954 1.395 . S
C952 C955 1.403 . S
H953 C959 0.930 . S
C954 H940 0.930 . S
C954 C952 1.395 . S
C954 C957 1.403 . S
C955 C952 1.403 . S
C955 C956 1.524 . S
C955 C959 1.400 . S
C956 H941 0.960 . S
C956 H942 0.960 . S
C956 H943 0.960 . S
C956 C955 1.524 . S
C957 C954 1.403 . S
C957 C958 1.392 . S
C957 C961 1.495 . S
C958 C957 1.392 . S
C958 C959 1.385 . S
C958 C960 1.478 . S
C959 H953 0.930 . S
C959 C955 1.400 . S
C959 C958 1.385 . S
C960 C958 1.478 . S
C960 C962 1.381 . S
C960 C966 1.383 . S
C961 C957 1.495 . S
C961 H967 0.959 . S
C961 H968 0.961 . S
C961 H969 0.960 . S
C962 C960 1.381 . S
C962 C963 1.394 . S
C962 H970 0.930 . S
C963 C962 1.394 . S
C963 C964 1.383 . S
C963 H971 0.929 . S
C964 C963 1.383 . S
C964 C965 1.377 . S
C965 H949 0.930 . S
C965 C964 1.377 . S
C965 C966 1.379 . S
C966 H950 0.931 . S
C966 C960 1.383 . S
C966 C965 1.379 . S
H967 C961 0.959 . S
H968 C961 0.961 . S
H969 C961 0.960 . S
H970 C962 0.930 . S
H971 C963 0.929 . S
H972 C980 0.929 . S
H973 C982 0.930 . S
H974 C984 0.930 . S
H975 C987 0.929 . S
H976 C990 0.930 . S
H977 C992 0.960 . S
H978 C992 0.960 . S
H979 C992 0.960 . S
C980 H972 0.929 . S
C980 C981 1.377 . S
C980 C982 1.384 . S
C981 C980 1.377 . S
C981 C987 1.390 . S
C982 H973 0.930 . S
C982 C980 1.384 . S
C982 C983 1.372 . S
C983 C982 1.372 . S
C983 C984 1.400 . S
C983 C988 1.490 . S
C984 H974 0.930 . S
C984 C983 1.400 . S
C984 C987 1.386 . S
H985 C1001 0.930 . S
H986 C1002 0.931 . S
C987 H975 0.929 . S
C987 C981 1.390 . S
C987 C984 1.386 . S
C988 C983 1.490 . S
C988 C990 1.395 . S
C988 C991 1.403 . S
H989 C995 0.930 . S
C990 H976 0.930 . S
C990 C988 1.395 . S
C990 C993 1.403 . S
C991 C988 1.403 . S
C991 C992 1.524 . S
C991 C995 1.400 . S
C992 H977 0.960 . S
C992 H978 0.960 . S
C992 H979 0.960 . S
C992 C991 1.524 . S
C993 C990 1.403 . S
C993 C994 1.392 . S
C993 C997 1.495 . S
C994 C993 1.392 . S
C994 C995 1.385 . S
C994 C996 1.478 . S
C995 H989 0.930 . S
C995 C991 1.400 . S
C995 C994 1.385 . S
C996 C994 1.478 . S
C996 C998 1.381 . S
C996 C1002 1.383 . S
C997 C993 1.495 . S
C997 H1003 0.959 . S
C997 H1004 0.961 . S
C997 H1005 0.960 . S
C998 C996 1.381 . S
C998 C999 1.394 . S
C998 H1006 0.930 . S
C999 C998 1.394 . S
C999 C1000 1.383 . S
C999 H1007 0.929 . S
C1000 C999 1.383 . S
C1000 C1001 1.377 . S
C1001 H985 0.930 . S
C1001 C1000 1.377 . S
C1001 C1002 1.379 . S
C1002 H986 0.931 . S
C1002 C996 1.383 . S
C1002 C1001 1.379 . S
H1003 C997 0.959 . S
H1004 C997 0.961 . S
H1005 C997 0.960 . S
H1006 C998 0.930 . S
H1007 C999 0.929 . S
H1008 C1016 0.929 . S
H1009 C1018 0.930 . S
H1010 C1020 0.930 . S
H1011 C1023 0.929 . S
H1012 C1026 0.930 . S
H1013 C1028 0.960 . S
H1014 C1028 0.960 . S
H1015 C1028 0.960 . S
C1016 H1008 0.929 . S
C1016 C1017 1.377 . S
C1016 C1018 1.384 . S
C1017 C1016 1.377 . S
C1017 C1023 1.390 . S
C1018 H1009 0.930 . S
C1018 C1016 1.384 . S
C1018 C1019 1.372 . S
C1019 C1018 1.372 . S
C1019 C1020 1.400 . S
C1019 C1024 1.490 . S
C1020 H1010 0.930 . S
C1020 C1019 1.400 . S
C1020 C1023 1.386 . S
H1021 C1037 0.930 . S
H1022 C1038 0.931 . S
C1023 H1011 0.929 . S
C1023 C1017 1.390 . S
C1023 C1020 1.386 . S
C1024 C1019 1.490 . S
C1024 C1026 1.395 . S
C1024 C1027 1.403 . S
H1025 C1031 0.930 . S
C1026 H1012 0.930 . S
C1026 C1024 1.395 . S
C1026 C1029 1.403 . S
C1027 C1024 1.403 . S
C1027 C1028 1.524 . S
C1027 C1031 1.400 . S
C1028 H1013 0.960 . S
C1028 H1014 0.960 . S
C1028 H1015 0.960 . S
C1028 C1027 1.524 . S
C1029 C1026 1.403 . S
C1029 C1030 1.392 . S
C1029 C1033 1.495 . S
C1030 C1029 1.392 . S
C1030 C1031 1.385 . S
C1030 C1032 1.478 . S
C1031 H1025 0.930 . S
C1031 C1027 1.400 . S
C1031 C1030 1.385 . S
C1032 C1030 1.478 . S
C1032 C1034 1.381 . S
C1032 C1038 1.383 . S
C1033 C1029 1.495 . S
C1033 H1039 0.959 . S
C1033 H1040 0.961 . S
C1033 H1041 0.960 . S
C1034 C1032 1.381 . S
C1034 C1035 1.394 . S
C1034 H1042 0.930 . S
C1035 C1034 1.394 . S
C1035 C1036 1.383 . S
C1035 H1043 0.929 . S
C1036 C1035 1.383 . S
C1036 C1037 1.377 . S
C1037 H1021 0.930 . S
C1037 C1036 1.377 . S
C1037 C1038 1.379 . S
C1038 H1022 0.931 . S
C1038 C1032 1.383 . S
C1038 C1037 1.379 . S
H1039 C1033 0.959 . S
H1040 C1033 0.961 . S
H1041 C1033 0.960 . S
H1042 C1034 0.930 . S
H1043 C1035 0.929 . S
C189 C81 1.390 . S
C208 C112 1.316 . S
C244 C120 1.292 . S
C225 C93 1.396 . S
C280 C124 1.287 . S
C261 C57 1.395 . S
C297 C69 1.391 . S
C316 C100 1.349 . S
C352 C141 1.351 . S
C333 C33 1.394 . S
C388 C175 1.286 . S
C369 C45 1.401 . S
C405 C9 1.391 . S
C424 C163 1.339 . S
C441 C21 1.391 . S
C460 C145 1.346 . S
C496 C99 1.377 . S
C477 C18 1.473 . S
C532 C133 1.295 . S
C513 C6 1.476 . S
C568 C137 1.315 . S
C549 C42 1.474 . S
C604 C115 1.324 . S
C585 C30 1.475 . S
C640 C154 1.314 . S
C621 C66 1.469 . S
C657 C54 1.470 . S
C676 C162 1.381 . S
C712 C178 1.292 . S
C693 C90 1.467 . S
C729 C78 1.472 . S
C748 C158 1.373 . S
C784 C103 1.374 . S
C765 C4 1.528 . S
C820 C121 1.392 . S
C801 C16 1.524 . S
C837 C28 1.522 . S
C856 C136 1.326 . S
C892 C116 1.385 . S
C873 C40 1.522 . S
C928 C142 1.389 . S
C909 C52 1.529 . S
C945 C64 1.531 . S
C964 C166 1.373 . S
C981 C76 1.523 . S
C1000 C179 1.394 . S
C1017 C88 1.521 . S
C1036 C157 1.338 . S
