# Generated by pormake.
# Topology ptr, (4,4)-cn, num edge types: 1
# Building blocks:
#     Node 0, Type 0, BuildingBlock: CEKHIL_clean_sbu_0, # of connection points: 4
#     Node 1, Type 0, BuildingBlock: CEKHIL_clean_sbu_0, # of connection points: 4
#     Node 2, Type 0, BuildingBlock: CEKHIL_clean_sbu_0, # of connection points: 4
#     Node 3, Type 0, BuildingBlock: CEKHIL_clean_sbu_0, # of connection points: 4
#     Node 4, Type 0, BuildingBlock: CEKHIL_clean_sbu_0, # of connection points: 4
#     Node 5, Type 0, BuildingBlock: CEKHIL_clean_sbu_0, # of connection points: 4
#     Node 6, Type 0, BuildingBlock: CEKHIL_clean_sbu_0, # of connection points: 4
#     Node 7, Type 0, BuildingBlock: CEKHIL_clean_sbu_0, # of connection points: 4
#     Node 8, Type 0, BuildingBlock: CEKHIL_clean_sbu_0, # of connection points: 4
#     Node 9, Type 0, BuildingBlock: CEKHIL_clean_sbu_0, # of connection points: 4
#     Node 10, Type 0, BuildingBlock: CEKHIL_clean_sbu_0, # of connection points: 4
#     Node 11, Type 0, BuildingBlock: CEKHIL_clean_sbu_0, # of connection points: 4
#     Node 12, Type 0, BuildingBlock: CEKHIL_clean_sbu_0, # of connection points: 4
#     Node 13, Type 0, BuildingBlock: CEKHIL_clean_sbu_0, # of connection points: 4
#     Node 14, Type 0, BuildingBlock: CEKHIL_clean_sbu_0, # of connection points: 4
#     Node 15, Type 0, BuildingBlock: CEKHIL_clean_sbu_0, # of connection points: 4
#     Node 16, Type 0, BuildingBlock: CEKHIL_clean_sbu_0, # of connection points: 4
#     Node 17, Type 0, BuildingBlock: CEKHIL_clean_sbu_0, # of connection points: 4
#     Node 18, Type 1, BuildingBlock: AZAVOO_clean_linker_0, # of connection points: 4
#     Node 19, Type 1, BuildingBlock: AZAVOO_clean_linker_0, # of connection points: 4
#     Node 20, Type 1, BuildingBlock: AZAVOO_clean_linker_0, # of connection points: 4
#     Node 21, Type 1, BuildingBlock: AZAVOO_clean_linker_0, # of connection points: 4
#     Node 22, Type 1, BuildingBlock: AZAVOO_clean_linker_0, # of connection points: 4
#     Node 23, Type 1, BuildingBlock: AZAVOO_clean_linker_0, # of connection points: 4
#     Node 24, Type 1, BuildingBlock: AZAVOO_clean_linker_0, # of connection points: 4
#     Node 25, Type 1, BuildingBlock: AZAVOO_clean_linker_0, # of connection points: 4
#     Node 26, Type 1, BuildingBlock: AZAVOO_clean_linker_0, # of connection points: 4
#     Node 27, Type 1, BuildingBlock: AZAVOO_clean_linker_0, # of connection points: 4
#     Node 28, Type 1, BuildingBlock: AZAVOO_clean_linker_0, # of connection points: 4
#     Node 29, Type 1, BuildingBlock: AZAVOO_clean_linker_0, # of connection points: 4
#     Node 30, Type 1, BuildingBlock: AZAVOO_clean_linker_0, # of connection points: 4
#     Node 31, Type 1, BuildingBlock: AZAVOO_clean_linker_0, # of connection points: 4
#     Node 32, Type 1, BuildingBlock: AZAVOO_clean_linker_0, # of connection points: 4
#     Node 33, Type 1, BuildingBlock: AZAVOO_clean_linker_0, # of connection points: 4
#     Node 34, Type 1, BuildingBlock: AZAVOO_clean_linker_0, # of connection points: 4
#     Node 35, Type 1, BuildingBlock: AZAVOO_clean_linker_0, # of connection points: 4
#     Edge 36, Type (0, 1), BuildingBlock: UVAHIK_clean_linker_0, # of connection points: 2
#     Edge 37, Type (0, 1), BuildingBlock: UVAHIK_clean_linker_0, # of connection points: 2
#     Edge 38, Type (0, 1), BuildingBlock: UVAHIK_clean_linker_0, # of connection points: 2
#     Edge 39, Type (0, 1), BuildingBlock: UVAHIK_clean_linker_0, # of connection points: 2
#     Edge 40, Type (0, 1), BuildingBlock: UVAHIK_clean_linker_0, # of connection points: 2
#     Edge 41, Type (0, 1), BuildingBlock: UVAHIK_clean_linker_0, # of connection points: 2
#     Edge 42, Type (0, 1), BuildingBlock: UVAHIK_clean_linker_0, # of connection points: 2
#     Edge 43, Type (0, 1), BuildingBlock: UVAHIK_clean_linker_0, # of connection points: 2
#     Edge 44, Type (0, 1), BuildingBlock: UVAHIK_clean_linker_0, # of connection points: 2
#     Edge 45, Type (0, 1), BuildingBlock: UVAHIK_clean_linker_0, # of connection points: 2
#     Edge 46, Type (0, 1), BuildingBlock: UVAHIK_clean_linker_0, # of connection points: 2
#     Edge 47, Type (0, 1), BuildingBlock: UVAHIK_clean_linker_0, # of connection points: 2
#     Edge 48, Type (0, 1), BuildingBlock: UVAHIK_clean_linker_0, # of connection points: 2
#     Edge 49, Type (0, 1), BuildingBlock: UVAHIK_clean_linker_0, # of connection points: 2
#     Edge 50, Type (0, 1), BuildingBlock: UVAHIK_clean_linker_0, # of connection points: 2
#     Edge 51, Type (0, 1), BuildingBlock: UVAHIK_clean_linker_0, # of connection points: 2
#     Edge 52, Type (0, 1), BuildingBlock: UVAHIK_clean_linker_0, # of connection points: 2
#     Edge 53, Type (0, 1), BuildingBlock: UVAHIK_clean_linker_0, # of connection points: 2
#     Edge 54, Type (0, 1), BuildingBlock: UVAHIK_clean_linker_0, # of connection points: 2
#     Edge 55, Type (0, 1), BuildingBlock: UVAHIK_clean_linker_0, # of connection points: 2
#     Edge 56, Type (0, 1), BuildingBlock: UVAHIK_clean_linker_0, # of connection points: 2
#     Edge 57, Type (0, 1), BuildingBlock: UVAHIK_clean_linker_0, # of connection points: 2
#     Edge 58, Type (0, 1), BuildingBlock: UVAHIK_clean_linker_0, # of connection points: 2
#     Edge 59, Type (0, 1), BuildingBlock: UVAHIK_clean_linker_0, # of connection points: 2
#     Edge 60, Type (0, 1), BuildingBlock: UVAHIK_clean_linker_0, # of connection points: 2
#     Edge 61, Type (0, 1), BuildingBlock: UVAHIK_clean_linker_0, # of connection points: 2
#     Edge 62, Type (0, 1), BuildingBlock: UVAHIK_clean_linker_0, # of connection points: 2
#     Edge 63, Type (0, 1), BuildingBlock: UVAHIK_clean_linker_0, # of connection points: 2
#     Edge 64, Type (0, 1), BuildingBlock: UVAHIK_clean_linker_0, # of connection points: 2
#     Edge 65, Type (0, 1), BuildingBlock: UVAHIK_clean_linker_0, # of connection points: 2
#     Edge 66, Type (0, 1), BuildingBlock: UVAHIK_clean_linker_0, # of connection points: 2
#     Edge 67, Type (0, 1), BuildingBlock: UVAHIK_clean_linker_0, # of connection points: 2
#     Edge 68, Type (0, 1), BuildingBlock: UVAHIK_clean_linker_0, # of connection points: 2
#     Edge 69, Type (0, 1), BuildingBlock: UVAHIK_clean_linker_0, # of connection points: 2
#     Edge 70, Type (0, 1), BuildingBlock: UVAHIK_clean_linker_0, # of connection points: 2
#     Edge 71, Type (0, 1), BuildingBlock: UVAHIK_clean_linker_0, # of connection points: 2
#     Edge 72, Type (0, 1), BuildingBlock: UVAHIK_clean_linker_0, # of connection points: 2
#     Edge 73, Type (0, 1), BuildingBlock: UVAHIK_clean_linker_0, # of connection points: 2
#     Edge 74, Type (0, 1), BuildingBlock: UVAHIK_clean_linker_0, # of connection points: 2
#     Edge 75, Type (0, 1), BuildingBlock: UVAHIK_clean_linker_0, # of connection points: 2
#     Edge 76, Type (0, 1), BuildingBlock: UVAHIK_clean_linker_0, # of connection points: 2
#     Edge 77, Type (0, 1), BuildingBlock: UVAHIK_clean_linker_0, # of connection points: 2
#     Edge 78, Type (0, 1), BuildingBlock: UVAHIK_clean_linker_0, # of connection points: 2
#     Edge 79, Type (0, 1), BuildingBlock: UVAHIK_clean_linker_0, # of connection points: 2
#     Edge 80, Type (0, 1), BuildingBlock: UVAHIK_clean_linker_0, # of connection points: 2
#     Edge 81, Type (0, 1), BuildingBlock: UVAHIK_clean_linker_0, # of connection points: 2
#     Edge 82, Type (0, 1), BuildingBlock: UVAHIK_clean_linker_0, # of connection points: 2
#     Edge 83, Type (0, 1), BuildingBlock: UVAHIK_clean_linker_0, # of connection points: 2
#     Edge 84, Type (0, 1), BuildingBlock: UVAHIK_clean_linker_0, # of connection points: 2
#     Edge 85, Type (0, 1), BuildingBlock: UVAHIK_clean_linker_0, # of connection points: 2
#     Edge 86, Type (0, 1), BuildingBlock: UVAHIK_clean_linker_0, # of connection points: 2
#     Edge 87, Type (0, 1), BuildingBlock: UVAHIK_clean_linker_0, # of connection points: 2
#     Edge 88, Type (0, 1), BuildingBlock: UVAHIK_clean_linker_0, # of connection points: 2
#     Edge 89, Type (0, 1), BuildingBlock: UVAHIK_clean_linker_0, # of connection points: 2
#     Edge 90, Type (0, 1), BuildingBlock: UVAHIK_clean_linker_0, # of connection points: 2
#     Edge 91, Type (0, 1), BuildingBlock: UVAHIK_clean_linker_0, # of connection points: 2
#     Edge 92, Type (0, 1), BuildingBlock: UVAHIK_clean_linker_0, # of connection points: 2
#     Edge 93, Type (0, 1), BuildingBlock: UVAHIK_clean_linker_0, # of connection points: 2
#     Edge 94, Type (0, 1), BuildingBlock: UVAHIK_clean_linker_0, # of connection points: 2
#     Edge 95, Type (0, 1), BuildingBlock: UVAHIK_clean_linker_0, # of connection points: 2
#     Edge 96, Type (0, 1), BuildingBlock: UVAHIK_clean_linker_0, # of connection points: 2
#     Edge 97, Type (0, 1), BuildingBlock: UVAHIK_clean_linker_0, # of connection points: 2
#     Edge 98, Type (0, 1), BuildingBlock: UVAHIK_clean_linker_0, # of connection points: 2
#     Edge 99, Type (0, 1), BuildingBlock: UVAHIK_clean_linker_0, # of connection points: 2
#     Edge 100, Type (0, 1), BuildingBlock: UVAHIK_clean_linker_0, # of connection points: 2
#     Edge 101, Type (0, 1), BuildingBlock: UVAHIK_clean_linker_0, # of connection points: 2
#     Edge 102, Type (0, 1), BuildingBlock: UVAHIK_clean_linker_0, # of connection points: 2
#     Edge 103, Type (0, 1), BuildingBlock: UVAHIK_clean_linker_0, # of connection points: 2
#     Edge 104, Type (0, 1), BuildingBlock: UVAHIK_clean_linker_0, # of connection points: 2
#     Edge 105, Type (0, 1), BuildingBlock: UVAHIK_clean_linker_0, # of connection points: 2
#     Edge 106, Type (0, 1), BuildingBlock: UVAHIK_clean_linker_0, # of connection points: 2
#     Edge 107, Type (0, 1), BuildingBlock: UVAHIK_clean_linker_0, # of connection points: 2
# Relax obj value: 0.048
# Max RMSD: 0.178
# Mean RMSD: 0.118
data_MOF--net-ptr--node1-CEKHIL_clean_sbu_0--node2-AZAVOO_clean_linker_0--edge1-UVAHIK_clean_linker_0
_symmetry_space_group_name_H-M    P1
_symmetry_Int_Tables_number       1
_symmetry_cell_setting            triclinic
loop_
_symmetry_equiv_pos_as_xyz
'x, y, z'
_cell_length_a     102.13787
_cell_length_b     99.382761
_cell_length_c     86.497922
_cell_angle_alpha  93.217802
_cell_angle_beta   91.657356
_cell_angle_gamma 121.18115
loop_
_atom_site_label
_atom_site_type_symbol
_atom_site_fract_x
_atom_site_fract_y
_atom_site_fract_z
_atom_type_partial_charge
Co0 Co 0.00805 0.35065 0.01342 0.0
O1 O 0.01067 0.3395 0.02941 0.0
O2 O 0.02932 0.36193 0.02157 0.0
C3 C 0.99408 0.32916 0.99667 0.0
O4 O 0.00949 0.36501 0.99668 0.0
Co5 Co 0.97533 0.34286 0.0029 0.0
O6 O 0.98593 0.35413 0.98476 0.0
C7 C 0.99076 0.36283 0.032 0.0
C8 C 0.02506 0.35044 0.03053 0.0
C9 C 0.00033 0.36402 0.98551 0.0
O10 O 0.00305 0.36278 0.02919 0.0
O11 O 0.97824 0.35486 0.02343 0.0
O12 O 0.00896 0.33638 0.99757 0.0
O13 O 0.98826 0.33435 0.00667 0.0
Co14 Co 0.64316 0.63614 0.05749 0.0
O15 O 0.65718 0.64772 0.04236 0.0
O16 O 0.65223 0.62448 0.0492 0.0
C17 C 0.65212 0.65715 0.07499 0.0
O18 O 0.62993 0.62122 0.07331 0.0
Co19 Co 0.61954 0.64483 0.06795 0.0
O20 O 0.61789 0.632 0.08536 0.0
C21 C 0.61454 0.6275 0.0374 0.0
C22 C 0.66003 0.63646 0.04102 0.0
C23 C 0.62197 0.62185 0.08429 0.0
O24 O 0.62576 0.62555 0.04092 0.0
O25 O 0.61103 0.63588 0.04609 0.0
O26 O 0.65886 0.6491 0.07408 0.0
O27 O 0.64093 0.65288 0.06475 0.0
Co28 Co 0.36918 0.0004 0.01734 0.0
O29 O 0.35826 0.0056 0.00291 0.0
O30 O 0.38089 0.0229 0.01483 0.0
C31 C 0.3491 0.98553 0.03137 0.0
O32 O 0.38344 0.99906 0.03341 0.0
Co33 Co 0.35986 0.96541 0.0175 0.0
O34 O 0.37458 0.97336 0.03598 0.0
C35 C 0.37738 0.98366 0.9922 0.0
C36 C 0.36955 0.02008 0.00519 0.0
C37 C 0.38388 0.98796 0.03998 0.0
O38 O 0.37942 0.99622 -0.0003 0.0
O39 O 0.36872 0.96984 0.99664 0.0
O40 O 0.35699 0.00079 0.03399 0.0
O41 O 0.35257 0.97992 0.01937 0.0
Co42 Co 0.99552 0.65124 0.04469 0.0
O43 O 0.99286 0.66352 0.03003 0.0
O44 O 0.97441 0.64007 0.03606 0.0
C45 C 0.00874 0.6713 0.06317 0.0
O46 O 0.99423 0.63548 0.05967 0.0
Co47 Co 0.02881 0.6597 0.05401 0.0
O48 O 0.0183 0.6427 0.06808 0.0
C49 C 0.01402 0.64254 0.02373 0.0
C50 C 0.97863 0.65218 0.02798 0.0
C51 C 0.00379 0.63366 0.06799 0.0
O52 O 0.00125 0.64093 0.02766 0.0
O53 O 0.02664 0.65086 0.03204 0.0
O54 O 0.99385 0.6638 0.06193 0.0
O55 O 0.01498 0.66741 0.05246 0.0
Co56 Co 0.35793 0.36455 0.00023 0.0
O57 O 0.3448 0.35494 0.01668 0.0
O58 O 0.3507 0.37799 0.00825 0.0
C59 C 0.34706 0.34277 0.98357 0.0
O60 O 0.37077 0.37776 0.98322 0.0
Co61 Co 0.37926 0.3526 0.98965 0.0
O62 O 0.38238 0.36595 0.97227 0.0
C63 C 0.38658 0.37182 0.01936 0.0
C64 C 0.34322 0.36708 0.01763 0.0
C65 C 0.37883 0.37652 0.97269 0.0
O66 O 0.3763 0.3751 0.01567 0.0
O67 O 0.38854 0.3619 0.01125 0.0
O68 O 0.34101 0.35147 0.98475 0.0
O69 O 0.35846 0.34667 0.9934 0.0
Co70 Co 0.63704 0.00751 0.04208 0.0
O71 O 0.64919 0.00317 0.05572 0.0
O72 O 0.62615 0.98512 0.04531 0.0
C73 C 0.65615 0.0221 0.02692 0.0
O74 O 0.62163 0.0079 0.02677 0.0
Co75 Co 0.64527 0.04196 0.04084 0.0
O76 O 0.63112 0.0332 0.02193 0.0
C77 C 0.62907 0.02451 0.06721 0.0
C78 C 0.63829 0.98849 0.05398 0.0
C79 C 0.6214 0.0185 0.01902 0.0
O80 O 0.62767 0.01194 0.06041 0.0
O81 O 0.63666 0.03804 0.06181 0.0
O82 O 0.64826 0.00683 0.02464 0.0
O83 O 0.65323 0.02802 0.0391 0.0
Co84 Co 0.67019 0.68869 0.34587 0.0
O85 O 0.67222 0.67774 0.3625 0.0
O86 O 0.69124 0.69979 0.35444 0.0
C87 C 0.65639 0.66708 0.3292 0.0
O88 O 0.67255 0.70296 0.3287 0.0
Co89 Co 0.63803 0.68144 0.33378 0.0
O90 O 0.64939 0.69406 0.31664 0.0
C91 C 0.65236 0.70077 0.36342 0.0
C92 C 0.68667 0.6886 0.36378 0.0
C93 C 0.66393 0.7032 0.31768 0.0
O94 O 0.66492 0.70112 0.36102 0.0
O95 O 0.64011 0.69271 0.35449 0.0
O96 O 0.67125 0.67406 0.33059 0.0
O97 O 0.65044 0.67257 0.3387 0.0
Co98 Co 0.30872 0.9665 0.3936 0.0
O99 O 0.32163 0.97619 0.37695 0.0
O100 O 0.31625 0.9534 0.38555 0.0
C101 C 0.31911 0.98848 0.40998 0.0
O102 O 0.29647 0.95317 0.41082 0.0
Co103 Co 0.28663 0.97713 0.40506 0.0
O104 O 0.28464 0.96432 0.4226 0.0
C105 C 0.2795 0.95826 0.37506 0.0
C106 C 0.32346 0.96418 0.37598 0.0
C107 C 0.28866 0.95412 0.42181 0.0
O108 O 0.29019 0.95545 0.37833 0.0
O109 O 0.27718 0.96769 0.38359 0.0
O110 O 0.32569 0.98027 0.40892 0.0
O111 O 0.30744 0.9839 0.40033 0.0
Co112 Co 0.04437 0.33312 0.35257 0.0
O113 O 0.03399 0.33753 0.33667 0.0
O114 O 0.05672 0.35506 0.34825 0.0
C115 C 0.02386 0.32016 0.36671 0.0
O116 O 0.05826 0.33298 0.36992 0.0
Co117 Co 0.03435 0.29853 0.35736 0.0
O118 O 0.04897 0.30801 0.37589 0.0
C119 C 0.05115 0.31318 0.33015 0.0
C120 C 0.04555 0.35195 0.33823 0.0
C121 C 0.0585 0.3228 0.37833 0.0
O122 O 0.05424 0.32672 0.33622 0.0
O123 O 0.04216 0.30023 0.33607 0.0
O124 O 0.03212 0.33547 0.3681 0.0
O125 O 0.02742 0.31328 0.35595 0.0
Co126 Co 0.66037 0.97394 0.3789 0.0
O127 O 0.65825 0.98323 0.36076 0.0
O128 O 0.63974 0.96119 0.36944 0.0
C129 C 0.67235 0.99652 0.39455 0.0
O130 O 0.65798 0.96098 0.39726 0.0
Co131 Co 0.69233 0.98381 0.39415 0.0
O132 O 0.68047 0.97155 0.41127 0.0
C133 C 0.68076 0.96327 0.36479 0.0
C134 C 0.64409 0.9716 0.35927 0.0
C135 C 0.66609 0.96168 0.40931 0.0
O136 O 0.66752 0.9618 0.36584 0.0
O137 O 0.69233 0.9724 0.37426 0.0
O138 O 0.6575 0.98862 0.39229 0.0
O139 O 0.6794 0.99122 0.38647 0.0
Co140 Co 0.02803 0.70319 0.3374 0.0
O141 O 0.01447 0.68948 0.35189 0.0
O142 O 0.01722 0.71239 0.34689 0.0
C143 C 0.02133 0.68412 0.31816 0.0
O144 O 0.04036 0.72007 0.32272 0.0
Co145 Co 0.05421 0.69904 0.32527 0.0
O146 O 0.05397 0.71222 0.30897 0.0
C147 C 0.05727 0.71328 0.35708 0.0
C148 C 0.01034 0.69972 0.35432 0.0
C149 C 0.04857 0.72114 0.31131 0.0
O150 O 0.04522 0.71401 0.35418 0.0
O151 O 0.06196 0.7066 0.34755 0.0
O152 O 0.01294 0.69032 0.32025 0.0
O153 O 0.03255 0.68867 0.32841 0.0
Co154 Co 0.29925 0.33849 0.3746 0.0
O155 O 0.31198 0.33587 0.38928 0.0
O156 O 0.28888 0.31677 0.37997 0.0
C157 C 0.31792 0.35173 0.35852 0.0
O158 O 0.2832 0.33676 0.35865 0.0
Co159 Co 0.30623 0.37188 0.36908 0.0
O160 O 0.29157 0.3609 0.35076 0.0
C161 C 0.29162 0.3576 0.39742 0.0
C162 C 0.30123 0.32113 0.38874 0.0
C163 C 0.28222 0.34601 0.34946 0.0
O164 O 0.29014 0.34449 0.3921 0.0
O165 O 0.29871 0.3703 0.39049 0.0
O166 O 0.31032 0.33642 0.35766 0.0
O167 O 0.31491 0.35859 0.36981 0.0
Co168 Co 0.34231 0.02618 0.6806 0.0
O169 O 0.34415 0.0162 0.69824 0.0
O170 O 0.3631 0.03817 0.68995 0.0
C171 C 0.32933 0.0036 0.66501 0.0
O172 O 0.34499 0.03954 0.66249 0.0
Co173 Co 0.3106 0.01771 0.66596 0.0
O174 O 0.32257 0.02847 0.64825 0.0
C175 C 0.3233 0.0384 0.69519 0.0
C176 C 0.35849 0.02736 0.69974 0.0
C177 C 0.33694 0.03835 0.65018 0.0
O178 O 0.33606 0.0388 0.6942 0.0
O179 O 0.31159 0.02998 0.68564 0.0
O180 O 0.34421 0.01107 0.66674 0.0
O181 O 0.3229 0.00946 0.67332 0.0
Co182 Co 0.97492 0.29866 0.71889 0.0
O183 O 0.99003 0.31159 0.70515 0.0
O184 O 0.98581 0.28853 0.71181 0.0
C185 C 0.98055 0.31813 0.73732 0.0
O186 O 0.96063 0.2825 0.7333 0.0
Co187 Co 0.94869 0.30495 0.72586 0.0
O188 O 0.94441 0.28984 0.74176 0.0
C189 C 0.94848 0.29005 0.69544 0.0
C190 C 0.99361 0.30083 0.70404 0.0
C191 C 0.95001 0.28097 0.74205 0.0
O192 O 0.9592 0.288 0.70069 0.0
O193 O 0.94378 0.29791 0.70319 0.0
O194 O 0.98865 0.31148 0.73696 0.0
O195 O 0.97057 0.31394 0.72578 0.0
Co196 Co 0.70487 0.66531 0.68292 0.0
O197 O 0.69337 0.66931 0.66793 0.0
O198 O 0.71647 0.68726 0.67845 0.0
C199 C 0.68538 0.65209 0.69819 0.0
O200 O 0.71983 0.66558 0.69925 0.0
Co201 Co 0.6959 0.63095 0.68724 0.0
O202 O 0.71127 0.64073 0.70518 0.0
C203 C 0.71113 0.64574 0.65939 0.0
C204 C 0.70473 0.68383 0.66913 0.0
C205 C 0.72066 0.65557 0.70742 0.0
O206 O 0.71409 0.65918 0.6656 0.0
O207 O 0.70275 0.63276 0.66552 0.0
O208 O 0.69345 0.66741 0.69952 0.0
O209 O 0.68845 0.64533 0.68685 0.0
Co210 Co 0.33139 0.3115 0.70985 0.0
O211 O 0.33016 0.32222 0.69258 0.0
O212 O 0.31083 0.29998 0.69994 0.0
C213 C 0.34385 0.33324 0.72658 0.0
O214 O 0.3282 0.29739 0.72744 0.0
Co215 Co 0.3629 0.31939 0.7246 0.0
O216 O 0.3505 0.30802 0.74183 0.0
C217 C 0.35038 0.29918 0.69517 0.0
C218 C 0.31581 0.31116 0.69054 0.0
C219 C 0.33612 0.2982 0.73972 0.0
O220 O 0.33789 0.29933 0.69589 0.0
O221 O 0.36191 0.30696 0.70505 0.0
O222 O 0.32903 0.32591 0.72415 0.0
O223 O 0.35065 0.32798 0.71802 0.0
Co224 Co 0.69492 0.03292 0.66449 0.0
O225 O 0.68132 0.02253 0.6804 0.0
O226 O 0.68775 0.04614 0.67334 0.0
C227 C 0.68416 0.01178 0.647 0.0
O228 O 0.7081 0.04696 0.64804 0.0
Co229 Co 0.71629 0.02143 0.65294 0.0
O230 O 0.71882 0.03483 0.63582 0.0
C231 C 0.72393 0.04007 0.68313 0.0
C232 C 0.67982 0.0347 0.68206 0.0
C233 C 0.71567 0.04569 0.63697 0.0
O234 O 0.71302 0.04266 0.68028 0.0
O235 O 0.72641 0.03101 0.67419 0.0
O236 O 0.67822 0.02056 0.64859 0.0
O237 O 0.69544 0.01525 0.65683 0.0
Co238 Co 0.95905 0.66803 0.70419 0.0
O239 O 0.97016 0.66401 0.71967 0.0
O240 O 0.94704 0.64626 0.7091 0.0
C241 C 0.97897 0.68079 0.6893 0.0
O242 O 0.94433 0.66755 0.68737 0.0
Co243 Co 0.96809 0.70202 0.69829 0.0
O244 O 0.95442 0.69182 0.67922 0.0
C245 C 0.95109 0.68786 0.7256 0.0
C246 C 0.95859 0.6496 0.71867 0.0
C247 C 0.94443 0.67711 0.67784 0.0
O248 O 0.9498 0.67466 0.72103 0.0
O249 O 0.95849 0.70042 0.71855 0.0
O250 O 0.97067 0.66547 0.6881 0.0
O251 O 0.9757 0.68785 0.70016 0.0
H252 H 0.1703 0.3368 0.05385 0.0
H253 H 0.23663 0.28061 0.17363 0.0
H254 H 0.16209 0.33831 0.13603 0.0
H255 H 0.14417 0.34444 0.12413 0.0
H256 H 0.10667 0.29746 0.13093 0.0
H257 H 0.12504 0.29112 0.14187 0.0
H258 H 0.18565 0.33701 0.11958 0.0
H259 H 0.18306 0.34134 0.09238 0.0
H260 H 0.14205 0.29496 0.08537 0.0
H261 H 0.14489 0.29071 0.11255 0.0
H262 H 0.20845 0.33338 0.14478 0.0
H263 H 0.22977 0.34092 0.12823 0.0
H264 H 0.20015 0.30153 0.09519 0.0
H265 H 0.17886 0.29345 0.11229 0.0
H266 H 0.20479 0.32475 0.17577 0.0
H267 H 0.22522 0.32046 0.18462 0.0
H268 H 0.2043 0.27686 0.15512 0.0
H269 H 0.18384 0.2812 0.14651 0.0
H270 H 0.1763 0.32723 0.18922 0.0
H271 H 0.18444 0.32785 0.21606 0.0
H272 H 0.17848 0.28171 0.2067 0.0
H273 H 0.16902 0.28067 0.18007 0.0
H274 H 0.15351 0.33137 0.17003 0.0
H275 H 0.13699 0.33162 0.18971 0.0
H276 H 0.1215 0.283 0.19686 0.0
H277 H 0.13737 0.28261 0.17646 0.0
O278 O 0.17113 0.33483 0.06456 0.0
O279 O 0.15004 0.31095 0.06161 0.0
O280 O 0.23898 0.30509 0.18534 0.0
O281 O 0.2287 0.2826 0.17033 0.0
C282 C 0.15637 0.31019 0.14492 0.0
C283 C 0.16706 0.31078 0.13451 0.0
C284 C 0.17923 0.30898 0.13983 0.0
C285 C 0.18019 0.30563 0.15534 0.0
C286 C 0.16945 0.30489 0.16578 0.0
C287 C 0.15748 0.30715 0.16055 0.0
C288 C 0.14491 0.31419 0.13958 0.0
C289 C 0.14999 0.32934 0.13495 0.0
C290 C 0.13965 0.33288 0.12831 0.0
C291 C 0.12388 0.32145 0.12646 0.0
C292 C 0.11874 0.30647 0.13185 0.0
C293 C 0.12918 0.30285 0.13827 0.0
C294 C 0.16554 0.31349 0.11799 0.0
C295 C 0.17618 0.32776 0.11211 0.0
C296 C 0.17464 0.33022 0.09659 0.0
C297 C 0.16236 0.31848 0.08669 0.0
C298 C 0.15165 0.30423 0.09267 0.0
C299 C 0.15324 0.30177 0.10818 0.0
C300 C 0.19213 0.31276 0.12985 0.0
C301 C 0.20661 0.32613 0.13416 0.0
C302 C 0.21874 0.33048 0.12468 0.0
C303 C 0.21654 0.32178 0.11051 0.0
C304 C 0.20206 0.30841 0.10609 0.0
C305 C 0.18996 0.3038 0.11581 0.0
C306 C 0.19275 0.3032 0.16063 0.0
C307 C 0.2046 0.31423 0.17131 0.0
C308 C 0.21627 0.31178 0.17631 0.0
C309 C 0.21637 0.29828 0.1706 0.0
C310 C 0.20455 0.28735 0.15977 0.0
C311 C 0.19286 0.2898 0.15482 0.0
C312 C 0.17209 0.30394 0.18262 0.0
C313 C 0.17623 0.31702 0.19308 0.0
C314 C 0.18117 0.31746 0.20839 0.0
C315 C 0.18254 0.30501 0.21351 0.0
C316 C 0.17756 0.2915 0.20323 0.0
C317 C 0.17224 0.29092 0.18796 0.0
C318 C 0.14657 0.30693 0.17169 0.0
C319 C 0.14626 0.32066 0.17557 0.0
C320 C 0.13697 0.32084 0.18701 0.0
C321 C 0.12798 0.30737 0.19501 0.0
C322 C 0.12809 0.29353 0.19084 0.0
C323 C 0.13724 0.29331 0.17925 0.0
C324 C 0.16075 0.32113 0.0702 0.0
C325 C 0.22872 0.29559 0.1759 0.0
H326 H 0.68221 0.8323 0.06955 0.0
H327 H 0.71524 0.95794 0.19848 0.0
H328 H 0.67891 0.82432 0.15151 0.0
H329 H 0.67726 0.80002 0.1415 0.0
H330 H 0.72472 0.81937 0.15703 0.0
H331 H 0.72627 0.84384 0.1671 0.0
H332 H 0.67635 0.84718 0.13441 0.0
H333 H 0.67429 0.83957 0.10666 0.0
H334 H 0.72234 0.85446 0.10912 0.0
H335 H 0.72428 0.86219 0.13685 0.0
H336 H 0.67316 0.8703 0.1579 0.0
H337 H 0.66383 0.88216 0.14007 0.0
H338 H 0.70724 0.904 0.11887 0.0
H339 H 0.71661 0.89223 0.13707 0.0
H340 H 0.68099 0.87943 0.19143 0.0
H341 H 0.68109 0.90315 0.20093 0.0
H342 H 0.72458 0.93207 0.18109 0.0
H343 H 0.72443 0.90825 0.17186 0.0
H344 H 0.68304 0.8541 0.20691 0.0
H345 H 0.68225 0.86451 0.23292 0.0
H346 H 0.72812 0.90436 0.22978 0.0
H347 H 0.7287 0.89392 0.20366 0.0
H348 H 0.68141 0.82547 0.18518 0.0
H349 H 0.68045 0.80706 0.20309 0.0
H350 H 0.72612 0.84213 0.22225 0.0
H351 H 0.72732 0.86019 0.20336 0.0
O352 O 0.68331 0.83549 0.08052 0.0
O353 O 0.70805 0.84329 0.08241 0.0
O354 O 0.69257 0.93297 0.20489 0.0
O355 O 0.71488 0.94836 0.19481 0.0
C356 C 0.70361 0.85074 0.16535 0.0
C357 C 0.70177 0.85986 0.15449 0.0
C358 C 0.7008 0.87299 0.15976 0.0
C359 C 0.70299 0.87779 0.17575 0.0
C360 C 0.70501 0.86879 0.18662 0.0
C361 C 0.70485 0.85496 0.18146 0.0
C362 C 0.70278 0.83591 0.15978 0.0
C363 C 0.68898 0.82336 0.15267 0.0
C364 C 0.68807 0.80951 0.14696 0.0
C365 C 0.70093 0.8079 0.14831 0.0
C366 C 0.71464 0.82031 0.15586 0.0
C367 C 0.71556 0.83426 0.16154 0.0
C368 C 0.7005 0.85539 0.13759 0.0
C369 C 0.68645 0.84893 0.1289 0.0
C370 C 0.68529 0.84452 0.11306 0.0
C371 C 0.69816 0.84643 0.10566 0.0
C372 C 0.71221 0.85286 0.11445 0.0
C373 C 0.71336 0.85729 0.13028 0.0
C374 C 0.69558 0.8805 0.14882 0.0
C375 C 0.68067 0.8777 0.14944 0.0
C376 C 0.67531 0.88434 0.13914 0.0
C377 C 0.68476 0.89394 0.128 0.0
C378 C 0.69973 0.89673 0.12739 0.0
C379 C 0.70509 0.89002 0.13772 0.0
C380 C 0.70278 0.89215 0.18111 0.0
C381 C 0.69056 0.89091 0.18923 0.0
C382 C 0.69063 0.90447 0.19459 0.0
C383 C 0.70288 0.91952 0.19181 0.0
C384 C 0.71499 0.92068 0.18347 0.0
C385 C 0.71493 0.9071 0.17816 0.0
C386 C 0.70591 0.87329 0.20342 0.0
C387 C 0.69308 0.86483 0.21204 0.0
C388 C 0.69265 0.87081 0.22689 0.0
C389 C 0.70506 0.88536 0.23333 0.0
C390 C 0.71829 0.89326 0.22502 0.0
C391 C 0.7187 0.88726 0.21019 0.0
C392 C 0.70449 0.84411 0.19283 0.0
C393 C 0.69129 0.82913 0.19311 0.0
C394 C 0.6907 0.81869 0.20355 0.0
C395 C 0.70316 0.82311 0.21429 0.0
C396 C 0.71638 0.83824 0.21407 0.0
C397 C 0.71704 0.84863 0.20338 0.0
C398 C 0.69687 0.84167 0.08884 0.0
C399 C 0.70307 0.93397 0.19758 0.0
H400 H 0.14185 0.85048 0.06307 0.0
H401 H 0.26997 0.95165 0.18399 0.0
H402 H 0.13215 0.85857 0.145 0.0
H403 H 0.10786 0.83422 0.13675 0.0
H404 H 0.12496 0.80704 0.15717 0.0
H405 H 0.149 0.8314 0.16554 0.0
H406 H 0.16113 0.88304 0.12538 0.0
H407 H 0.15288 0.87324 0.09813 0.0
H408 H 0.15407 0.83141 0.10669 0.0
H409 H 0.16248 0.84144 0.13385 0.0
H410 H 0.1937 0.91123 0.14118 0.0
H411 H 0.2139 0.92359 0.12301 0.0
H412 H 0.21563 0.88102 0.1179 0.0
H413 H 0.1954 0.86879 0.13588 0.0
H414 H 0.1937 0.91677 0.17968 0.0
H415 H 0.21905 0.94021 0.18648 0.0
H416 H 0.24019 0.91396 0.17177 0.0
H417 H 0.21478 0.89056 0.16522 0.0
H418 H 0.16702 0.89213 0.20223 0.0
H419 H 0.17665 0.89972 0.22952 0.0
H420 H 0.21052 0.88697 0.22081 0.0
H421 H 0.20024 0.87861 0.19396 0.0
H422 H 0.13451 0.86326 0.18095 0.0
H423 H 0.11641 0.8471 0.19973 0.0
H424 H 0.14895 0.83529 0.21709 0.0
H425 H 0.16669 0.85079 0.19784 0.0
O426 O 0.14514 0.85415 0.07388 0.0
O427 O 0.14587 0.83283 0.07891 0.0
O428 O 0.24837 0.95548 0.18897 0.0
O429 O 0.25981 0.94254 0.18145 0.0
C430 C 0.15739 0.86128 0.15994 0.0
C431 C 0.1673 0.86893 0.14812 0.0
C432 C 0.18211 0.88214 0.15203 0.0
C433 C 0.18695 0.88786 0.16774 0.0
C434 C 0.17715 0.88002 0.17959 0.0
C435 C 0.16228 0.86681 0.17569 0.0
C436 C 0.1423 0.8467 0.15583 0.0
C437 C 0.13053 0.84734 0.14781 0.0
C438 C 0.11671 0.83344 0.14309 0.0
C439 C 0.11448 0.81868 0.1463 0.0
C440 C 0.12618 0.81819 0.15474 0.0
C441 C 0.13996 0.83208 0.15945 0.0
C442 C 0.1623 0.86291 0.13159 0.0
C443 C 0.15962 0.87178 0.12133 0.0
C444 C 0.15489 0.86614 0.10578 0.0
C445 C 0.15278 0.85152 0.10023 0.0
C446 C 0.15555 0.8427 0.11058 0.0
C447 C 0.16031 0.84837 0.12611 0.0
C448 C 0.19311 0.88913 0.13982 0.0
C449 C 0.19833 0.90455 0.13594 0.0
C450 C 0.20991 0.91159 0.12566 0.0
C451 C 0.21642 0.9033 0.11907 0.0
C452 C 0.21074 0.88765 0.12259 0.0
C453 C 0.1992 0.88065 0.13288 0.0
C454 C 0.20241 0.90202 0.17186 0.0
C455 C 0.20383 0.91611 0.17796 0.0
C456 C 0.21831 0.92948 0.18181 0.0
C457 C 0.23166 0.92897 0.17962 0.0
C458 C 0.23017 0.91478 0.17356 0.0
C459 C 0.21567 0.90141 0.16975 0.0
C460 C 0.18301 0.88493 0.1961 0.0
C461 C 0.17645 0.89091 0.2063 0.0
C462 C 0.18204 0.89533 0.22184 0.0
C463 C 0.19437 0.89395 0.2274 0.0
C464 C 0.20085 0.88794 0.21706 0.0
C465 C 0.19514 0.88336 0.20163 0.0
C466 C 0.15196 0.85826 0.18805 0.0
C467 C 0.13776 0.85724 0.18885 0.0
C468 C 0.12747 0.84806 0.19955 0.0
C469 C 0.13138 0.84008 0.20985 0.0
C470 C 0.14578 0.84151 0.20938 0.0
C471 C 0.15591 0.85038 0.19844 0.0
C472 C 0.14773 0.84555 0.08372 0.0
C473 C 0.24708 0.94316 0.18365 0.0
H474 H 0.29168 0.16233 0.98854 0.0
H475 H 0.32408 0.06588 0.87235 0.0
H476 H 0.27594 0.15612 0.90436 0.0
H477 H 0.27612 0.18066 0.91047 0.0
H478 H 0.32195 0.20741 0.89484 0.0
H479 H 0.32164 0.18297 0.88884 0.0
H480 H 0.27998 0.1307 0.92619 0.0
H481 H 0.28083 0.14004 0.95321 0.0
H482 H 0.32425 0.18246 0.94734 0.0
H483 H 0.32333 0.17289 0.92041 0.0
H484 H 0.28626 0.10318 0.91249 0.0
H485 H 0.29599 0.09115 0.92983 0.0
H486 H 0.33969 0.13508 0.93582 0.0
H487 H 0.32984 0.14696 0.91864 0.0
H488 H 0.27981 0.09704 0.87521 0.0
H489 H 0.2826 0.0743 0.86929 0.0
H490 H 0.33102 0.10319 0.88316 0.0
H491 H 0.3281 0.12587 0.88884 0.0
H492 H 0.27656 0.11664 0.85203 0.0
H493 H 0.27824 0.10631 0.82614 0.0
H494 H 0.32756 0.13094 0.83396 0.0
H495 H 0.32575 0.14109 0.85973 0.0
H496 H 0.27468 0.15018 0.86593 0.0
H497 H 0.27557 0.16842 0.84731 0.0
H498 H 0.32326 0.18473 0.84158 0.0
H499 H 0.32232 0.16668 0.86018 0.0
O500 O 0.29159 0.15885 0.97784 0.0
O501 O 0.31387 0.18046 0.9742 0.0
O502 O 0.29775 0.0604 0.86739 0.0
O503 O 0.32267 0.07469 0.87454 0.0
C504 C 0.29895 0.15314 0.89264 0.0
C505 C 0.30088 0.14541 0.90495 0.0
C506 C 0.30269 0.13241 0.90166 0.0
C507 C 0.30192 0.12676 0.88609 0.0
C508 C 0.30007 0.13455 0.87383 0.0
C509 C 0.29867 0.14779 0.87707 0.0
C510 C 0.29873 0.16781 0.89605 0.0
C511 C 0.28595 0.16731 0.90219 0.0
C512 C 0.28608 0.18129 0.90568 0.0
C513 C 0.29899 0.19595 0.90299 0.0
C514 C 0.3117 0.19631 0.89672 0.0
C515 C 0.31159 0.18238 0.89334 0.0
C516 C 0.30151 0.15118 0.92132 0.0
C517 C 0.28966 0.142 0.93078 0.0
C518 C 0.29017 0.14738 0.94619 0.0
C519 C 0.30259 0.16203 0.95242 0.0
C520 C 0.3145 0.17115 0.9429 0.0
C521 C 0.31397 0.16575 0.9275 0.0
C522 C 0.30735 0.12592 0.9143 0.0
C523 C 0.29781 0.11027 0.91785 0.0
C524 C 0.30343 0.10341 0.92765 0.0
C525 C 0.31867 0.11212 0.93408 0.0
C526 C 0.32786 0.12809 0.93121 0.0
C527 C 0.32225 0.13491 0.92139 0.0
C528 C 0.30373 0.11304 0.88253 0.0
C529 C 0.29101 0.09842 0.87693 0.0
C530 C 0.29263 0.08546 0.87358 0.0
C531 C 0.30703 0.08692 0.87579 0.0
C532 C 0.31977 0.10165 0.88135 0.0
C533 C 0.31813 0.11461 0.88464 0.0
C534 C 0.30104 0.1296 0.85766 0.0
C535 C 0.28771 0.11995 0.84801 0.0
C536 C 0.28869 0.11401 0.83332 0.0
C537 C 0.30303 0.11784 0.82807 0.0
C538 C 0.31638 0.12795 0.83762 0.0
C539 C 0.31537 0.13371 0.85233 0.0
C540 C 0.29841 0.15704 0.8643 0.0
C541 C 0.28521 0.15749 0.8604 0.0
C542 C 0.28573 0.16788 0.8498 0.0
C543 C 0.29952 0.17806 0.84313 0.0
C544 C 0.31253 0.17714 0.84668 0.0
C545 C 0.31197 0.16672 0.85715 0.0
C546 C 0.30308 0.16772 0.96879 0.0
C547 C 0.30881 0.07318 0.8723 0.0
H548 H 0.83854 0.15556 0.99215 0.0
H549 H 0.7527 0.02693 0.86284 0.0
H550 H 0.84551 0.16284 0.90887 0.0
H551 H 0.86706 0.18861 0.91855 0.0
H552 H 0.89797 0.17156 0.91171 0.0
H553 H 0.87618 0.14584 0.90135 0.0
H554 H 0.82019 0.1385 0.92591 0.0
H555 H 0.82452 0.14672 0.95371 0.0
H556 H 0.86036 0.13586 0.95686 0.0
H557 H 0.85579 0.12752 0.92907 0.0
H558 H 0.79388 0.11135 0.9007 0.0
H559 H 0.77281 0.09855 0.91767 0.0
H560 H 0.79932 0.08512 0.94548 0.0
H561 H 0.82027 0.09735 0.9279 0.0
H562 H 0.7948 0.10565 0.86883 0.0
H563 H 0.77156 0.08113 0.85879 0.0
H564 H 0.78802 0.05435 0.88124 0.0
H565 H 0.81132 0.07897 0.89103 0.0
H566 H 0.82302 0.13513 0.85708 0.0
H567 H 0.81339 0.12789 0.82993 0.0
H568 H 0.81719 0.08657 0.83058 0.0
H569 H 0.82753 0.09436 0.85766 0.0
H570 H 0.84815 0.16164 0.87706 0.0
H571 H 0.8649 0.17988 0.85901 0.0
H572 H 0.87805 0.14658 0.84378 0.0
H573 H 0.8618 0.12869 0.86272 0.0
O574 O 0.83698 0.1522 0.98119 0.0
O575 O 0.85534 0.14648 0.98218 0.0
O576 O 0.75392 0.05112 0.85521 0.0
O577 O 0.76182 0.0368 0.8666 0.0
C578 C 0.84598 0.13701 0.89842 0.0
C579 C 0.83501 0.12736 0.90864 0.0
C580 C 0.82134 0.11352 0.90269 0.0
C581 C 0.81902 0.10895 0.88659 0.0
C582 C 0.82988 0.11876 0.87633 0.0
C583 C 0.84334 0.13285 0.88225 0.0
C584 C 0.8593 0.15249 0.90454 0.0
C585 C 0.85694 0.16467 0.90952 0.0
C586 C 0.86929 0.17937 0.91513 0.0
C587 C 0.88428 0.18215 0.91609 0.0
C588 C 0.88661 0.16988 0.911 0.0
C589 C 0.8742 0.15516 0.90519 0.0
C590 C 0.83758 0.13228 0.92553 0.0
C591 C 0.82889 0.13781 0.93266 0.0
C592 C 0.83143 0.14254 0.94852 0.0
C593 C 0.84277 0.14192 0.95752 0.0
C594 C 0.85152 0.13646 0.95028 0.0
C595 C 0.84894 0.13169 0.93442 0.0
C596 C 0.80852 0.10508 0.9129 0.0
C597 C 0.79504 0.10533 0.91022 0.0
C598 C 0.78306 0.09811 0.91995 0.0
C599 C 0.78449 0.09084 0.93278 0.0
C600 C 0.79802 0.09068 0.93562 0.0
C601 C 0.80992 0.09761 0.92561 0.0
C602 C 0.80484 0.09408 0.88049 0.0
C603 C 0.79344 0.09447 0.87143 0.0
C604 C 0.78014 0.08045 0.86578 0.0
C605 C 0.77795 0.06577 0.86918 0.0
C606 C 0.78935 0.06544 0.87837 0.0
C607 C 0.80267 0.07948 0.88398 0.0
C608 C 0.82605 0.11531 0.85932 0.0
C609 C 0.8222 0.12476 0.85123 0.0
C610 C 0.81649 0.12048 0.83578 0.0
C611 C 0.81432 0.10654 0.82815 0.0
C612 C 0.81882 0.09744 0.83608 0.0
C613 C 0.82468 0.10182 0.85155 0.0
C614 C 0.85394 0.14395 0.8714 0.0
C615 C 0.85489 0.15841 0.87008 0.0
C616 C 0.86429 0.16871 0.85954 0.0
C617 C 0.87273 0.16464 0.8498 0.0
C618 C 0.87183 0.15015 0.8512 0.0
C619 C 0.86251 0.13988 0.86194 0.0
C620 C 0.84545 0.14699 0.97436 0.0
C621 C 0.76383 0.05084 0.86321 0.0
H622 H 0.86482 0.70386 0.0094 0.0
H623 H 0.74378 0.67998 0.88684 0.0
H624 H 0.87568 0.71433 0.93016 0.0
H625 H 0.89457 0.70915 0.94195 0.0
H626 H 0.87153 0.66295 0.91703 0.0
H627 H 0.85272 0.66821 0.90534 0.0
H628 H 0.84783 0.71469 0.94823 0.0
H629 H 0.85547 0.71442 0.97523 0.0
H630 H 0.84833 0.66793 0.96474 0.0
H631 H 0.84047 0.66825 0.93784 0.0
H632 H 0.8142 0.70903 0.93284 0.0
H633 H 0.79294 0.70031 0.94977 0.0
H634 H 0.79071 0.6558 0.95218 0.0
H635 H 0.81105 0.66417 0.93439 0.0
H636 H 0.82013 0.71763 0.89649 0.0
H637 H 0.7969 0.71796 0.8896 0.0
H638 H 0.76927 0.66859 0.89776 0.0
H639 H 0.7926 0.66838 0.90446 0.0
H640 H 0.84435 0.71762 0.87371 0.0
H641 H 0.83519 0.71651 0.84673 0.0
H642 H 0.79917 0.66801 0.84979 0.0
H643 H 0.80842 0.66918 0.87641 0.0
H644 H 0.87553 0.71547 0.89331 0.0
H645 H 0.89132 0.71484 0.87298 0.0
H646 H 0.8521 0.67141 0.85198 0.0
H647 H 0.83715 0.67132 0.87327 0.0
O648 O 0.86158 0.70364 0.99872 0.0
O649 O 0.85786 0.6798 0.99269 0.0
O650 O 0.76789 0.70551 0.88532 0.0
O651 O 0.75315 0.68016 0.88946 0.0
C652 C 0.84941 0.69311 0.91283 0.0
C653 C 0.83963 0.69213 0.92456 0.0
C654 C 0.8258 0.69152 0.92066 0.0
C655 C 0.82224 0.69297 0.90518 0.0
C656 C 0.83198 0.69397 0.89343 0.0
C657 C 0.84548 0.69379 0.89719 0.0
C658 C 0.8628 0.69162 0.91696 0.0
C659 C 0.87498 0.70327 0.92694 0.0
C660 C 0.88565 0.70023 0.93376 0.0
C661 C 0.88439 0.68555 0.93059 0.0
C662 C 0.87286 0.6744 0.91965 0.0
C663 C 0.86213 0.6774 0.91292 0.0
C664 C 0.84374 0.69157 0.94106 0.0
C665 C 0.84785 0.70443 0.95181 0.0
C666 C 0.85225 0.70426 0.96721 0.0
C667 C 0.85259 0.69118 0.97213 0.0
C668 C 0.84825 0.67821 0.96133 0.0
C669 C 0.8438 0.67838 0.94595 0.0
C670 C 0.81417 0.68724 0.93235 0.0
C671 C 0.8091 0.69742 0.93707 0.0
C672 C 0.79702 0.69244 0.94685 0.0
C673 C 0.78997 0.67726 0.95229 0.0
C674 C 0.79556 0.66739 0.94797 0.0
C675 C 0.80739 0.67226 0.93799 0.0
C676 C 0.80803 0.69302 0.90108 0.0
C677 C 0.80904 0.7069 0.89677 0.0
C678 C 0.79576 0.70706 0.89285 0.0
C679 C 0.78121 0.6933 0.89317 0.0
C680 C 0.78027 0.67939 0.89743 0.0
C681 C 0.79357 0.67925 0.90131 0.0
C682 C 0.82702 0.69349 0.87699 0.0
C683 C 0.83455 0.70677 0.86845 0.0
C684 C 0.82928 0.70613 0.85313 0.0
C685 C 0.81654 0.69214 0.84613 0.0
C686 C 0.80916 0.67887 0.85475 0.0
C687 C 0.81434 0.67955 0.87 0.0
C688 C 0.85509 0.69357 0.88468 0.0
C689 C 0.87046 0.70574 0.88439 0.0
C690 C 0.87941 0.70544 0.87259 0.0
C691 C 0.87307 0.69312 0.86061 0.0
C692 C 0.85762 0.68097 0.86104 0.0
C693 C 0.84887 0.68104 0.87308 0.0
C694 C 0.85748 0.69113 0.98844 0.0
C695 C 0.76706 0.69342 0.88907 0.0
H696 H 0.82852 0.66964 0.3834 0.0
H697 H 0.90187 0.62161 0.50573 0.0
H698 H 0.82195 0.67246 0.46998 0.0
H699 H 0.80451 0.67939 0.45812 0.0
H700 H 0.76858 0.6301 0.4534 0.0
H701 H 0.78615 0.62337 0.46584 0.0
H702 H 0.84415 0.671 0.44931 0.0
H703 H 0.84117 0.67502 0.42207 0.0
H704 H 0.80355 0.6266 0.41436 0.0
H705 H 0.80675 0.62272 0.44159 0.0
H706 H 0.8674 0.66992 0.47106 0.0
H707 H 0.88869 0.67697 0.45456 0.0
H708 H 0.86213 0.63154 0.42841 0.0
H709 H 0.84079 0.62452 0.44515 0.0
H710 H 0.86566 0.66146 0.50446 0.0
H711 H 0.88735 0.65944 0.51388 0.0
H712 H 0.86822 0.61448 0.48702 0.0
H713 H 0.8465 0.61657 0.47784 0.0
H714 H 0.83674 0.66138 0.51886 0.0
H715 H 0.84522 0.66215 0.54566 0.0
H716 H 0.83991 0.61633 0.53612 0.0
H717 H 0.8303 0.61519 0.50954 0.0
H718 H 0.81405 0.66502 0.49971 0.0
H719 H 0.79727 0.66506 0.51916 0.0
H720 H 0.78163 0.61631 0.52589 0.0
H721 H 0.79774 0.61615 0.50562 0.0
O722 O 0.82955 0.66778 0.39411 0.0
O723 O 0.81027 0.64281 0.39077 0.0
O724 O 0.90276 0.64584 0.51583 0.0
O725 O 0.89343 0.62272 0.50219 0.0
C726 C 0.81667 0.64347 0.47427 0.0
C727 C 0.82738 0.64411 0.46391 0.0
C728 C 0.83984 0.64292 0.46937 0.0
C729 C 0.84117 0.6402 0.48501 0.0
C730 C 0.83025 0.63914 0.49537 0.0
C731 C 0.81798 0.64086 0.49 0.0
C732 C 0.80527 0.64744 0.46879 0.0
C733 C 0.81023 0.6632 0.46662 0.0
C734 C 0.80028 0.6671 0.45969 0.0
C735 C 0.7852 0.65528 0.45459 0.0
C736 C 0.78009 0.6395 0.45729 0.0
C737 C 0.79008 0.63561 0.46436 0.0
C738 C 0.82575 0.64654 0.44735 0.0
C739 C 0.83536 0.66125 0.44167 0.0
C740 C 0.83359 0.66353 0.42613 0.0
C741 C 0.82213 0.65112 0.41603 0.0
C742 C 0.8125 0.6364 0.42182 0.0
C743 C 0.8143 0.63414 0.43735 0.0
C744 C 0.85262 0.64671 0.4593 0.0
C745 C 0.86621 0.66148 0.46179 0.0
C746 C 0.87829 0.66552 0.45229 0.0
C747 C 0.87703 0.65484 0.44015 0.0
C748 C 0.86343 0.63996 0.43774 0.0
C749 C 0.85125 0.63596 0.44722 0.0
C750 C 0.85446 0.6391 0.49058 0.0
C751 C 0.86615 0.65116 0.50069 0.0
C752 C 0.87854 0.64999 0.50602 0.0
C753 C 0.8795 0.63677 0.50123 0.0
C754 C 0.86782 0.6248 0.49096 0.0
C755 C 0.85541 0.62596 0.48568 0.0
C756 C 0.83291 0.63824 0.5122 0.0
C757 C 0.83688 0.65126 0.52269 0.0
C758 C 0.84199 0.65179 0.53795 0.0
C759 C 0.84361 0.63947 0.54299 0.0
C760 C 0.83877 0.62601 0.5327 0.0
C761 C 0.83335 0.62536 0.51746 0.0
C762 C 0.80695 0.64051 0.50104 0.0
C763 C 0.80666 0.65422 0.50505 0.0
C764 C 0.79725 0.65429 0.5164 0.0
C765 C 0.78814 0.64072 0.52422 0.0
C766 C 0.78829 0.62691 0.51998 0.0
C767 C 0.79757 0.62681 0.50846 0.0
C768 C 0.82025 0.65359 0.39954 0.0
C769 C 0.89262 0.63545 0.50689 0.0
H770 H 0.34163 0.16076 0.4026 0.0
H771 H 0.37847 0.28912 0.52989 0.0
H772 H 0.34261 0.1557 0.48797 0.0
H773 H 0.33889 0.12996 0.48028 0.0
H774 H 0.38787 0.14969 0.48653 0.0
H775 H 0.39133 0.17542 0.49491 0.0
H776 H 0.33993 0.17763 0.46809 0.0
H777 H 0.33607 0.16903 0.4404 0.0
H778 H 0.38422 0.18481 0.43942 0.0
H779 H 0.38794 0.19349 0.46709 0.0
H780 H 0.33795 0.20127 0.48975 0.0
H781 H 0.32861 0.21388 0.47288 0.0
H782 H 0.37231 0.23738 0.45228 0.0
H783 H 0.38161 0.2247 0.46939 0.0
H784 H 0.3472 0.21098 0.52452 0.0
H785 H 0.34665 0.23428 0.53417 0.0
H786 H 0.38835 0.26399 0.51177 0.0
H787 H 0.3889 0.24059 0.50243 0.0
H788 H 0.35192 0.1864 0.54059 0.0
H789 H 0.35206 0.19759 0.5666 0.0
H790 H 0.39473 0.23999 0.55923 0.0
H791 H 0.39502 0.22844 0.5335 0.0
H792 H 0.3473 0.16006 0.52087 0.0
H793 H 0.34751 0.1415 0.53799 0.0
H794 H 0.39632 0.17285 0.54809 0.0
H795 H 0.39595 0.19153 0.53082 0.0
O796 O 0.34342 0.1643 0.41352 0.0
O797 O 0.36825 0.17259 0.41365 0.0
O798 O 0.35709 0.26393 0.53768 0.0
O799 O 0.37838 0.2797 0.52617 0.0
C800 C 0.36902 0.18273 0.49715 0.0
C801 C 0.36661 0.19149 0.48634 0.0
C802 C 0.36595 0.20479 0.4916 0.0
C803 C 0.36881 0.21001 0.50752 0.0
C804 C 0.37162 0.20147 0.51836 0.0
C805 C 0.37127 0.18755 0.51319 0.0
C806 C 0.36723 0.1674 0.49184 0.0
C807 C 0.35253 0.15447 0.48758 0.0
C808 C 0.35046 0.13978 0.48311 0.0
C809 C 0.3631 0.13775 0.4826 0.0
C810 C 0.37787 0.15079 0.48691 0.0
C811 C 0.37991 0.16551 0.49157 0.0
C812 C 0.36424 0.18632 0.46953 0.0
C813 C 0.34964 0.17933 0.46183 0.0
C814 C 0.34746 0.17437 0.44604 0.0
C815 C 0.35984 0.17626 0.43768 0.0
C816 C 0.37445 0.18321 0.44549 0.0
C817 C 0.37661 0.18818 0.46129 0.0
C818 C 0.36045 0.21215 0.4808 0.0
C819 C 0.34547 0.20909 0.48153 0.0
C820 C 0.34013 0.2162 0.47182 0.0
C821 C 0.34972 0.22658 0.46124 0.0
C822 C 0.36471 0.2295 0.46041 0.0
C823 C 0.37002 0.22227 0.47009 0.0
C824 C 0.36816 0.22413 0.5129 0.0
C825 C 0.35623 0.22254 0.52176 0.0
C826 C 0.35592 0.23586 0.52722 0.0
C827 C 0.36748 0.25101 0.52377 0.0
C828 C 0.37929 0.25251 0.51467 0.0
C829 C 0.37962 0.23917 0.50929 0.0
C830 C 0.37352 0.20656 0.53517 0.0
C831 C 0.36169 0.19777 0.54484 0.0
C832 C 0.3617 0.2042 0.55962 0.0
C833 C 0.37337 0.21962 0.56475 0.0
C834 C 0.38565 0.22806 0.55545 0.0
C835 C 0.38583 0.22147 0.54083 0.0
C836 C 0.37162 0.17705 0.52451 0.0
C837 C 0.35804 0.16293 0.52678 0.0
C838 C 0.35821 0.15231 0.53649 0.0
C839 C 0.37199 0.1556 0.54421 0.0
C840 C 0.38555 0.17001 0.5423 0.0
C841 C 0.38536 0.18066 0.53247 0.0
C842 C 0.35749 0.17096 0.42091 0.0
C843 C 0.36728 0.26522 0.52965 0.0
H844 H 0.80471 0.18724 0.38604 0.0
H845 H 0.93723 0.27495 0.50608 0.0
H846 H 0.7972 0.18591 0.46876 0.0
H847 H 0.77239 0.16152 0.46176 0.0
H848 H 0.7911 0.13419 0.47807 0.0
H849 H 0.81575 0.15843 0.48474 0.0
H850 H 0.82657 0.21399 0.45009 0.0
H851 H 0.81733 0.20679 0.42271 0.0
H852 H 0.81678 0.16314 0.42505 0.0
H853 H 0.82619 0.17056 0.45235 0.0
H854 H 0.86179 0.24118 0.46744 0.0
H855 H 0.88327 0.25499 0.4512 0.0
H856 H 0.87841 0.21041 0.43545 0.0
H857 H 0.85799 0.19704 0.45285 0.0
H858 H 0.86134 0.24292 0.5045 0.0
H859 H 0.88723 0.26522 0.51191 0.0
H860 H 0.90625 0.23877 0.49172 0.0
H861 H 0.88031 0.21648 0.48457 0.0
H862 H 0.83493 0.21757 0.52537 0.0
H863 H 0.84656 0.22572 0.55199 0.0
H864 H 0.87891 0.21169 0.54016 0.0
H865 H 0.86672 0.20289 0.51395 0.0
H866 H 0.8022 0.18936 0.50715 0.0
H867 H 0.78557 0.17135 0.52583 0.0
H868 H 0.81794 0.15634 0.53346 0.0
H869 H 0.83423 0.17404 0.51462 0.0
O870 O 0.80834 0.18984 0.39688 0.0
O871 O 0.80817 0.16752 0.39873 0.0
O872 O 0.91651 0.27936 0.51361 0.0
O873 O 0.92687 0.2663 0.50331 0.0
C874 C 0.82333 0.18852 0.48158 0.0
C875 C 0.83269 0.19729 0.4698 0.0
C876 C 0.84771 0.2102 0.47378 0.0
C877 C 0.85318 0.21459 0.48957 0.0
C878 C 0.84381 0.20585 0.50131 0.0
C879 C 0.82889 0.19285 0.49734 0.0
C880 C 0.80822 0.17393 0.47738 0.0
C881 C 0.79588 0.17463 0.47081 0.0
C882 C 0.78177 0.16074 0.46684 0.0
C883 C 0.77978 0.14599 0.46955 0.0
C884 C 0.79219 0.14539 0.47615 0.0
C885 C 0.80628 0.15921 0.47992 0.0
C886 C 0.82692 0.19275 0.45323 0.0
C887 C 0.82444 0.20288 0.44466 0.0
C888 C 0.81915 0.19873 0.42903 0.0
C889 C 0.81628 0.18437 0.4217 0.0
C890 C 0.81883 0.17426 0.43035 0.0
C891 C 0.82414 0.17844 0.44596 0.0
C892 C 0.8584 0.21812 0.46147 0.0
C893 C 0.8653 0.23441 0.46035 0.0
C894 C 0.87753 0.24227 0.45094 0.0
C895 C 0.88284 0.23389 0.44214 0.0
C896 C 0.87502 0.21736 0.4424 0.0
C897 C 0.86309 0.20961 0.45212 0.0
C898 C 0.86896 0.22814 0.49392 0.0
C899 C 0.87113 0.24197 0.50171 0.0
C900 C 0.88592 0.25469 0.50591 0.0
C901 C 0.89882 0.25379 0.50237 0.0
C902 C 0.89658 0.23987 0.49459 0.0
C903 C 0.88178 0.22714 0.49045 0.0
C904 C 0.85009 0.2098 0.51772 0.0
C905 C 0.84438 0.21607 0.52865 0.0
C906 C 0.85113 0.22083 0.54379 0.0
C907 C 0.86376 0.21948 0.54821 0.0
C908 C 0.86911 0.21274 0.53727 0.0
C909 C 0.86227 0.20785 0.52223 0.0
C910 C 0.81942 0.18302 0.50958 0.0
C911 C 0.80571 0.18226 0.51298 0.0
C912 C 0.79628 0.17203 0.52367 0.0
C913 C 0.80041 0.16236 0.53102 0.0
C914 C 0.81434 0.16348 0.52782 0.0
C915 C 0.82374 0.17369 0.5172 0.0
C916 C 0.81069 0.18001 0.40509 0.0
C917 C 0.91456 0.26728 0.50679 0.0
H918 H 0.0016 0.52032 0.3221 0.0
H919 H 0.02062 0.41554 0.20278 0.0
H920 H 0.97762 0.50874 0.24013 0.0
H921 H 0.97831 0.53351 0.24624 0.0
H922 H 0.02081 0.55876 0.22372 0.0
H923 H 0.02026 0.53409 0.21816 0.0
H924 H 0.98258 0.48519 0.26098 0.0
H925 H 0.98651 0.49626 0.28789 0.0
H926 H 0.03002 0.5363 0.27754 0.0
H927 H 0.02601 0.52501 0.25071 0.0
H928 H 0.98262 0.45688 0.24702 0.0
H929 H 0.98916 0.44206 0.26401 0.0
H930 H 0.03695 0.47912 0.26553 0.0
H931 H 0.03016 0.49404 0.24888 0.0
H932 H 0.97734 0.44743 0.21153 0.0
H933 H 0.97934 0.4242 0.20557 0.0
H934 H 0.02876 0.45352 0.21224 0.0
H935 H 0.02657 0.47664 0.21805 0.0
H936 H 0.97249 0.46421 0.18813 0.0
H937 H 0.9717 0.45068 0.16324 0.0
H938 H 0.02122 0.47893 0.16408 0.0
H939 H 0.02183 0.49183 0.18921 0.0
H940 H 0.97089 0.49878 0.20264 0.0
H941 H 0.96674 0.51268 0.1823 0.0
H942 H 0.01286 0.52997 0.16866 0.0
H943 H 0.01677 0.51593 0.18883 0.0
O944 O 0.00028 0.51615 0.31141 0.0
O945 O 0.02253 0.53651 0.30548 0.0
O946 O 0.99405 0.40997 0.20171 0.0
O947 O 0.01949 0.42452 0.20507 0.0
C948 C 0.99882 0.50483 0.2254 0.0
C949 C 0.00156 0.49754 0.23763 0.0
C950 C 0.00235 0.48393 0.23428 0.0
C951 C 0.00053 0.47771 0.21877 0.0
C952 C 0.99793 0.48505 0.20658 0.0
C953 C 0.99686 0.49849 0.20986 0.0
C954 C 0.99889 0.51966 0.22873 0.0
C955 C 0.98705 0.51965 0.23653 0.0
C956 C 0.9874 0.53376 0.23988 0.0
C957 C 0.99963 0.54809 0.23546 0.0
C958 C 0.01134 0.54796 0.22743 0.0
C959 C 0.011 0.53388 0.22415 0.0
C960 C 0.00398 0.50432 0.25392 0.0
C961 C 0.99296 0.49633 0.26457 0.0
C962 C 0.99523 0.50269 0.27992 0.0
C963 C 0.00857 0.51718 0.28487 0.0
C964 C 0.01961 0.52514 0.27412 0.0
C965 C 0.01734 0.51874 0.25878 0.0
C966 C 0.00592 0.47649 0.24677 0.0
C967 C 0.99443 0.46194 0.25137 0.0
C968 C 0.99823 0.45344 0.26093 0.0
C969 C 0.01362 0.45929 0.26593 0.0
C970 C 0.02499 0.47432 0.26198 0.0
C971 C 0.02115 0.48286 0.25248 0.0
C972 C 0.0018 0.46366 0.21521 0.0
C973 C 0.98857 0.44878 0.21166 0.0
C974 C 0.98976 0.43555 0.20828 0.0
C975 C 0.00422 0.437 0.20844 0.0
C976 C 0.01745 0.45198 0.21203 0.0
C977 C 0.01624 0.4652 0.21537 0.0
C978 C 0.9972 0.47898 0.19037 0.0
C979 C 0.98311 0.46765 0.18273 0.0
C980 C 0.98271 0.45997 0.16852 0.0
C981 C 0.99642 0.4636 0.16173 0.0
C982 C 0.01047 0.47561 0.16912 0.0
C983 C 0.01085 0.48314 0.18337 0.0
C984 C 0.99406 0.50619 0.19705 0.0
C985 C 0.98001 0.50546 0.19512 0.0
C986 C 0.9777 0.51347 0.18358 0.0
C987 C 0.98943 0.52236 0.17379 0.0
C988 C 0.00346 0.52297 0.17577 0.0
C989 C 0.00574 0.51497 0.18729 0.0
C990 C 0.01094 0.52391 0.30118 0.0
C991 C 0.00555 0.42299 0.20486 0.0
H992 H 0.4988 0.4904 0.32647 0.0
H993 H 0.42079 0.36106 0.19543 0.0
H994 H 0.50832 0.49877 0.24219 0.0
H995 H 0.52952 0.525 0.25138 0.0
H996 H 0.56095 0.50819 0.24819 0.0
H997 H 0.53958 0.48206 0.23828 0.0
H998 H 0.48236 0.473 0.25997 0.0
H999 H 0.48576 0.48117 0.28774 0.0
H1000 H 0.52292 0.4724 0.29238 0.0
H1001 H 0.51929 0.46411 0.26461 0.0
H1002 H 0.45692 0.44467 0.23489 0.0
H1003 H 0.43565 0.43022 0.25128 0.0
H1004 H 0.46378 0.4191 0.27949 0.0
H1005 H 0.48495 0.4329 0.26243 0.0
H1006 H 0.45835 0.43974 0.20371 0.0
H1007 H 0.43616 0.41465 0.19307 0.0
H1008 H 0.45537 0.38972 0.21431 0.0
H1009 H 0.47766 0.41494 0.22466 0.0
H1010 H 0.48363 0.46876 0.19309 0.0
H1011 H 0.47302 0.46069 0.16615 0.0
H1012 H 0.48535 0.42517 0.16423 0.0
H1013 H 0.49578 0.43315 0.19142 0.0
H1014 H 0.50906 0.49572 0.20939 0.0
H1015 H 0.52721 0.51512 0.19286 0.0
H1016 H 0.54767 0.4868 0.18511 0.0
H1017 H 0.5292 0.46726 0.2016 0.0
O1018 O 0.49762 0.48708 0.31553 0.0
O1019 O 0.51668 0.48243 0.31729 0.0
O1020 O 0.42019 0.38456 0.18862 0.0
O1021 O 0.4295 0.37116 0.19942 0.0
C1022 C 0.50947 0.47292 0.23348 0.0
C1023 C 0.49846 0.46295 0.24348 0.0
C1024 C 0.48522 0.44878 0.23729 0.0
C1025 C 0.48332 0.4444 0.22116 0.0
C1026 C 0.49413 0.45466 0.21114 0.0
C1027 C 0.50721 0.46888 0.21731 0.0
C1028 C 0.52244 0.48856 0.2397 0.0
C1029 C 0.51979 0.50078 0.24355 0.0
C1030 C 0.53193 0.51573 0.24887 0.0
C1031 C 0.54698 0.51873 0.25067 0.0
C1032 C 0.54957 0.50637 0.24679 0.0
C1033 C 0.53738 0.49142 0.24127 0.0
C1034 C 0.5005 0.46785 0.26034 0.0
C1035 C 0.49116 0.47277 0.26704 0.0
C1036 C 0.49316 0.47747 0.28288 0.0
C1037 C 0.5046 0.47742 0.29229 0.0
C1038 C 0.51399 0.47256 0.28548 0.0
C1039 C 0.51196 0.46783 0.26963 0.0
C1040 C 0.47241 0.43961 0.24728 0.0
C1041 C 0.45842 0.43881 0.24436 0.0
C1042 C 0.44633 0.43066 0.25376 0.0
C1043 C 0.44815 0.42355 0.26652 0.0
C1044 C 0.46219 0.42451 0.26965 0.0
C1045 C 0.47422 0.43235 0.25996 0.0
C1046 C 0.46973 0.42917 0.21476 0.0
C1047 C 0.45784 0.42887 0.20589 0.0
C1048 C 0.44513 0.4145 0.19991 0.0
C1049 C 0.44401 0.40016 0.2028 0.0
C1050 C 0.45589 0.40053 0.21182 0.0
C1051 C 0.46863 0.41492 0.21776 0.0
C1052 C 0.49049 0.45155 0.19415 0.0
C1053 C 0.48442 0.45952 0.18674 0.0
C1054 C 0.47828 0.45485 0.17144 0.0
C1055 C 0.47836 0.44231 0.16325 0.0
C1056 C 0.48528 0.43494 0.17035 0.0
C1057 C 0.49122 0.43947 0.18579 0.0
C1058 C 0.51794 0.4802 0.20677 0.0
C1059 C 0.51748 0.49373 0.20413 0.0
C1060 C 0.52791 0.50482 0.19476 0.0
C1061 C 0.53901 0.5026 0.18783 0.0
C1062 C 0.53923 0.48882 0.19024 0.0
C1063 C 0.52874 0.47769 0.19966 0.0
C1064 C 0.50671 0.48244 0.30912 0.0
C1065 C 0.4305 0.38487 0.1965 0.0
H1066 H 0.5019 0.98569 0.33836 0.0
H1067 H 0.39954 0.98381 0.20816 0.0
H1068 H 0.52466 0.01348 0.26469 0.0
H1069 H 0.54473 0.01014 0.27612 0.0
H1070 H 0.53155 0.97065 0.24239 0.0
H1071 H 0.5106 0.97329 0.23199 0.0
H1072 H 0.49614 0.00956 0.27986 0.0
H1073 H 0.49908 0.00365 0.30636 0.0
H1074 H 0.49284 0.959 0.2886 0.0
H1075 H 0.48974 0.96499 0.26217 0.0
H1076 H 0.47148 0.01283 0.26208 0.0
H1077 H 0.45083 0.00732 0.27909 0.0
H1078 H 0.4365 0.95792 0.27541 0.0
H1079 H 0.45745 0.96368 0.25873 0.0
H1080 H 0.47489 0.02071 0.22627 0.0
H1081 H 0.45238 0.02176 0.21782 0.0
H1082 H 0.42385 0.97126 0.21999 0.0
H1083 H 0.44649 0.97037 0.22827 0.0
H1084 H 0.50015 0.02403 0.20679 0.0
H1085 H 0.49261 0.02701 0.18052 0.0
H1086 H 0.45901 0.97699 0.175 0.0
H1087 H 0.46671 0.97418 0.20099 0.0
H1088 H 0.52939 0.02205 0.22663 0.0
H1089 H 0.54837 0.02632 0.20778 0.0
H1090 H 0.51563 0.9817 0.18272 0.0
H1091 H 0.49698 0.97733 0.20189 0.0
O1092 O 0.50063 0.98776 0.32779 0.0
O1093 O 0.49739 0.96495 0.31807 0.0
O1094 O 0.42382 0.00966 0.21045 0.0
O1095 O 0.40863 0.98373 0.21147 0.0
C1096 C 0.50233 0.99412 0.2424 0.0
C1097 C 0.49104 0.99139 0.25302 0.0
C1098 C 0.47797 0.99188 0.24827 0.0
C1099 C 0.47603 0.99491 0.2329 0.0
C1100 C 0.48702 0.99717 0.22216 0.0
C1101 C 0.50024 0.99691 0.2269 0.0
C1102 C 0.51606 0.99356 0.24758 0.0
C1103 C 0.52616 0.00415 0.25974 0.0
C1104 C 0.53777 0.00229 0.26616 0.0
C1105 C 0.53982 0.99003 0.2603 0.0
C1106 C 0.53016 0.97999 0.24751 0.0
C1107 C 0.51831 0.98164 0.24134 0.0
C1108 C 0.49273 0.98771 0.26911 0.0
C1109 C 0.49533 0.99848 0.28173 0.0
C1110 C 0.49705 0.99509 0.29685 0.0
C1111 C 0.49621 0.98085 0.2996 0.0
C1112 C 0.49356 0.97007 0.28689 0.0
C1113 C 0.49181 0.97346 0.27179 0.0
C1114 C 0.46594 0.98866 0.25921 0.0
C1115 C 0.46393 0.00086 0.26507 0.0
C1116 C 0.45206 0.99765 0.27469 0.0
C1117 C 0.44194 0.98215 0.27856 0.0
C1118 C 0.44419 0.97001 0.27284 0.0
C1119 C 0.4561 0.97325 0.26327 0.0
C1120 C 0.46229 0.99548 0.22791 0.0
C1121 C 0.46377 0.00989 0.22489 0.0
C1122 C 0.4509 0.01045 0.22008 0.0
C1123 C 0.43631 0.99658 0.21825 0.0
C1124 C 0.4349 0.98216 0.22131 0.0
C1125 C 0.4478 0.98161 0.22607 0.0
C1126 C 0.48399 0.99888 0.20572 0.0
C1127 C 0.49137 0.01372 0.19973 0.0
C1128 C 0.48697 0.0154 0.18482 0.0
C1129 C 0.47522 0.00223 0.17567 0.0
C1130 C 0.46825 0.98733 0.18161 0.0
C1131 C 0.47259 0.98569 0.19648 0.0
C1132 C 0.51179 -0.00057 0.21557 0.0
C1133 C 0.52638 0.01318 0.2171 0.0
C1134 C 0.53716 0.01564 0.20627 0.0
C1135 C 0.53351 0.00436 0.19371 0.0
C1136 C 0.51889 0.99053 0.19233 0.0
C1137 C 0.50816 0.98808 0.20318 0.0
C1138 C 0.4981 0.97732 0.31568 0.0
C1139 C 0.42259 0.99712 0.21315 0.0
H1140 H 0.51076 0.03084 0.72423 0.0
H1141 H 0.59096 0.98938 0.84396 0.0
H1142 H 0.50412 0.03286 0.80619 0.0
H1143 H 0.48401 0.03599 0.79458 0.0
H1144 H 0.45021 0.98827 0.80414 0.0
H1145 H 0.47076 0.9849 0.81458 0.0
H1146 H 0.52925 0.03376 0.78956 0.0
H1147 H 0.52521 0.03703 0.76235 0.0
H1148 H 0.48587 0.98943 0.75706 0.0
H1149 H 0.49016 0.98625 0.78424 0.0
H1150 H 0.55381 0.03318 0.8104 0.0
H1151 H 0.57385 0.03816 0.7927 0.0
H1152 H 0.54367 0.99255 0.76799 0.0
H1153 H 0.52375 0.98761 0.78591 0.0
H1154 H 0.55132 0.02572 0.84564 0.0
H1155 H 0.57384 0.0248 0.85434 0.0
H1156 H 0.55657 0.98099 0.82592 0.0
H1157 H 0.53403 0.98196 0.81747 0.0
H1158 H 0.52152 0.02196 0.86222 0.0
H1159 H 0.52878 0.01975 0.88865 0.0
H1160 H 0.52509 0.97557 0.8737 0.0
H1161 H 0.51676 0.97738 0.84756 0.0
H1162 H 0.49704 0.0256 0.8422 0.0
H1163 H 0.47879 0.02303 0.86117 0.0
H1164 H 0.46694 0.97502 0.86629 0.0
H1165 H 0.48458 0.97746 0.84663 0.0
O1166 O 0.5122 0.02927 0.73495 0.0
O1167 O 0.49203 0.00474 0.73286 0.0
O1168 O 0.59052 0.01255 0.85519 0.0
O1169 O 0.58217 0.99004 0.84071 0.0
C1170 C 0.50168 0.00632 0.81613 0.0
C1171 C 0.51245 0.00774 0.80539 0.0
C1172 C 0.52539 0.00711 0.81034 0.0
C1173 C 0.52728 0.00437 0.82585 0.0
C1174 C 0.51623 0.0023 0.8365 0.0
C1175 C 0.50346 0.0034 0.83167 0.0
C1176 C 0.48896 0.00859 0.81104 0.0
C1177 C 0.49236 0.02308 0.80577 0.0
C1178 C 0.48076 0.0249 0.7993 0.0
C1179 C 0.46537 0.01237 0.7983 0.0
C1180 C 0.46193 0.99808 0.80435 0.0
C1181 C 0.47363 0.99617 0.81053 0.0
C1182 C 0.51006 0.00974 0.78884 0.0
C1183 C 0.51985 0.02402 0.78247 0.0
C1184 C 0.51747 0.02587 0.76694 0.0
C1185 C 0.50522 0.01348 0.75752 0.0
C1186 C 0.49542 0.9992 0.76398 0.0
C1187 C 0.49783 0.99735 0.7795 0.0
C1188 C 0.53738 0.01003 0.79944 0.0
C1189 C 0.55156 0.02428 0.80116 0.0
C1190 C 0.56293 0.02714 0.79098 0.0
C1191 C 0.56033 0.01575 0.77895 0.0
C1192 C 0.54606 0.00148 0.77724 0.0
C1193 C 0.53466 0.99866 0.78739 0.0
C1194 C 0.54104 0.00389 0.83096 0.0
C1195 C 0.55241 0.01592 0.84135 0.0
C1196 C 0.56527 0.01537 0.84627 0.0
C1197 C 0.567 0.00281 0.84083 0.0
C1198 C 0.5556 0.99082 0.83034 0.0
C1199 C 0.54274 0.99136 0.82546 0.0
C1200 C 0.51869 -0.00012 0.85292 0.0
C1201 C 0.52188 0.0116 0.86476 0.0
C1202 C 0.52626 0.01041 0.87983 0.0
C1203 C 0.52784 0.99762 0.88332 0.0
C1204 C 0.52392 0.98553 0.87155 0.0
C1205 C 0.51926 0.9866 0.85654 0.0
C1206 C 0.49211 0.00171 0.84298 0.0
C1207 C 0.49033 0.01446 0.84726 0.0
C1208 C 0.48001 0.01301 0.85826 0.0
C1209 C 0.47141 0.99883 0.86536 0.0
C1210 C 0.47317 0.98604 0.86093 0.0
C1211 C 0.48336 0.98745 0.8498 0.0
C1212 C 0.5027 0.0155 0.74104 0.0
C1213 C 0.58062 0.00215 0.84604 0.0
H1214 H 0.96867 0.46512 0.74174 0.0
H1215 H 0.01338 0.60494 0.85742 0.0
H1216 H 0.97724 0.46839 0.82936 0.0
H1217 H 0.97451 0.44276 0.82312 0.0
H1218 H 0.02386 0.46549 0.82287 0.0
H1219 H 0.0264 0.49104 0.82979 0.0
H1220 H 0.97216 0.48887 0.80609 0.0
H1221 H 0.96613 0.47738 0.77919 0.0
H1222 H 0.01385 0.49253 0.77507 0.0
H1223 H 0.01972 0.50409 0.80196 0.0
H1224 H 0.97205 0.51517 0.82265 0.0
H1225 H 0.9646 0.52942 0.80581 0.0
H1226 H 0.00928 0.55158 0.78722 0.0
H1227 H 0.01664 0.53724 0.8042 0.0
H1228 H 0.98204 0.52703 0.85773 0.0
H1229 H 0.98147 0.55084 0.86515 0.0
H1230 H 0.02338 0.57874 0.84236 0.0
H1231 H 0.02392 0.55485 0.83522 0.0
H1232 H 0.98809 0.50573 0.87667 0.0
H1233 H 0.99017 0.51947 0.90181 0.0
H1234 H 0.03406 0.55864 0.89103 0.0
H1235 H 0.03209 0.54453 0.86618 0.0
H1236 H 0.98501 0.4779 0.86249 0.0
H1237 H 0.98854 0.46288 0.88188 0.0
H1238 H 0.03764 0.49476 0.88301 0.0
H1239 H 0.03394 0.50971 0.8634 0.0
O1240 O 0.97131 0.46977 0.75234 0.0
O1241 O 0.99596 0.47777 0.75085 0.0
O1242 O 0.99185 0.58048 0.86629 0.0
O1243 O 0.01332 0.59534 0.85463 0.0
C1244 C 0.00339 0.49687 0.83381 0.0
C1245 C 1.00002 0.5043 0.82222 0.0
C1246 C 0.99983 0.51813 0.82627 0.0
C1247 C 0.00351 0.52481 0.84177 0.0
C1248 C 0.00709 0.51748 0.85331 0.0
C1249 C 0.00685 0.5034 0.84936 0.0
C1250 C 0.00199 0.48149 0.82989 0.0
C1251 C 0.98743 0.46778 0.82797 0.0
C1252 C 0.98592 0.45318 0.82434 0.0
C1253 C 0.99897 0.45206 0.82237 0.0
C1254 C 0.01359 0.46589 0.82448 0.0
C1255 C 0.01508 0.48049 0.82829 0.0
C1256 C 0.99638 0.49738 0.8059 0.0
C1257 C 0.9813 0.48977 0.79932 0.0
C1258 C 0.97788 0.48318 0.78397 0.0
C1259 C 0.98951 0.48405 0.77497 0.0
C1260 C 0.00463 0.49166 0.78167 0.0
C1261 C 0.00802 0.49827 0.79701 0.0
C1262 C 0.99486 0.52522 0.8146 0.0
C1263 C 0.98011 0.52288 0.81472 0.0
C1264 C 0.97587 0.53098 0.80507 0.0
C1265 C 0.98638 0.54164 0.79524 0.0
C1266 C 0.001 0.54353 0.79478 0.0
C1267 C 0.00519 0.53531 0.80436 0.0
C1268 C 0.00305 0.53925 0.846 0.0
C1269 C 0.99111 0.53831 0.8544 0.0
C1270 C 0.9908 0.55192 0.85859 0.0
C1271 C 0.0024 0.56671 0.85435 0.0
C1272 C 0.01429 0.56755 0.84582 0.0
C1273 C 0.01461 0.55393 0.84169 0.0
C1274 C 0.00996 0.52413 0.86966 0.0
C1275 C 0.9984 0.51701 0.88001 0.0
C1276 C 0.99952 0.52498 0.89425 0.0
C1277 C 0.01218 0.54024 0.89831 0.0
C1278 C 0.02422 0.54686 0.88832 0.0
C1279 C 0.02312 0.53884 0.87411 0.0
C1280 C 0.00921 0.49487 0.86161 0.0
C1281 C 0.99651 0.48168 0.867 0.0
C1282 C 0.99856 0.47319 0.87812 0.0
C1283 C 0.01337 0.4777 0.88403 0.0
C1284 C 0.02611 0.49097 0.87861 0.0
C1285 C 0.02402 0.49955 0.86751 0.0
C1286 C 0.98585 0.47703 0.75866 0.0
C1287 C 0.00215 0.58121 0.85881 0.0
H1288 H 0.47688 0.51693 0.72609 0.0
H1289 H 0.60254 0.61681 0.84974 0.0
H1290 H 0.46585 0.51974 0.80883 0.0
H1291 H 0.44187 0.49492 0.80074 0.0
H1292 H 0.46134 0.46881 0.81862 0.0
H1293 H 0.48514 0.49358 0.82662 0.0
H1294 H 0.49447 0.54648 0.78964 0.0
H1295 H 0.48669 0.53786 0.76212 0.0
H1296 H 0.49018 0.49689 0.76813 0.0
H1297 H 0.49811 0.50575 0.79558 0.0
H1298 H 0.52652 0.57498 0.80577 0.0
H1299 H 0.547 0.58891 0.78823 0.0
H1300 H 0.55112 0.54782 0.7817 0.0
H1301 H 0.53055 0.53402 0.79895 0.0
H1302 H 0.52603 0.57878 0.84444 0.0
H1303 H 0.5508 0.60274 0.85205 0.0
H1304 H 0.57401 0.57901 0.83606 0.0
H1305 H 0.54918 0.55509 0.82871 0.0
H1306 H 0.49995 0.55229 0.86605 0.0
H1307 H 0.51003 0.56058 0.89316 0.0
H1308 H 0.54562 0.55051 0.8838 0.0
H1309 H 0.53496 0.5415 0.8571 0.0
H1310 H 0.469 0.52321 0.84693 0.0
H1311 H 0.45195 0.50447 0.86486 0.0
H1312 H 0.48596 0.49224 0.87531 0.0
H1313 H 0.50272 0.51068 0.8572 0.0
O1314 O 0.47998 0.52012 0.737 0.0
O1315 O 0.48187 0.49921 0.74073 0.0
O1316 O 0.58011 0.61913 0.855 0.0
O1317 O 0.59259 0.60749 0.84686 0.0
C1318 C 0.49187 0.52336 0.82287 0.0
C1319 C 0.50155 0.53204 0.81128 0.0
C1320 C 0.51605 0.54562 0.81556 0.0
C1321 C 0.52072 0.55075 0.8314 0.0
C1322 C 0.51115 0.54193 0.843 0.0
C1323 C 0.49672 0.52825 0.83874 0.0
C1324 C 0.47716 0.50843 0.81839 0.0
C1325 C 0.46485 0.50864 0.81105 0.0
C1326 C 0.45122 0.49448 0.80642 0.0
C1327 C 0.44969 0.47992 0.80912 0.0
C1328 C 0.46204 0.47983 0.81663 0.0
C1329 C 0.47566 0.49395 0.82116 0.0
C1330 C 0.49674 0.52668 0.79461 0.0
C1331 C 0.49355 0.53566 0.78498 0.0
C1332 C 0.48909 0.53069 0.76927 0.0
C1333 C 0.48777 0.51666 0.76293 0.0
C1334 C 0.49104 0.50773 0.77264 0.0
C1335 C 0.49552 0.51272 0.78834 0.0
C1336 C 0.52706 0.5535 0.80357 0.0
C1337 C 0.53171 0.56896 0.80032 0.0
C1338 C 0.54347 0.57691 0.79041 0.0
C1339 C 0.55075 0.5695 0.78362 0.0
C1340 C 0.54563 0.5538 0.78653 0.0
C1341 C 0.53389 0.54589 0.7964 0.0
C1342 C 0.53582 0.56526 0.83592 0.0
C1343 C 0.53648 0.5788 0.8426 0.0
C1344 C 0.55064 0.59246 0.84692 0.0
C1345 C 0.56439 0.5928 0.84462 0.0
C1346 C 0.56365 0.57917 0.83795 0.0
C1347 C 0.54949 0.56551 0.83369 0.0
C1348 C 0.51682 0.54645 0.85959 0.0
C1349 C 0.50981 0.55173 0.86996 0.0
C1350 C 0.51567 0.55657 0.8854 0.0
C1351 C 0.5287 0.55629 0.89069 0.0
C1352 C 0.53546 0.55069 0.88025 0.0
C1353 C 0.52951 0.54571 0.86491 0.0
C1354 C 0.48709 0.5183 0.85081 0.0
C1355 C 0.4728 0.51659 0.85325 0.0
C1356 C 0.46311 0.50595 0.8635 0.0
C1357 C 0.46758 0.49681 0.87138 0.0
C1358 C 0.48212 0.49895 0.86924 0.0
C1359 C 0.49177 0.50959 0.85903 0.0
C1360 C 0.48303 0.51142 0.74624 0.0
C1361 C 0.57946 0.60729 0.84916 0.0
H1362 H 0.62818 0.83212 0.65774 0.0
H1363 H 0.66046 0.73318 0.54595 0.0
H1364 H 0.61226 0.8238 0.57451 0.0
H1365 H 0.61231 0.84839 0.57973 0.0
H1366 H 0.65704 0.87448 0.56151 0.0
H1367 H 0.65687 0.85 0.55639 0.0
H1368 H 0.61606 0.79893 0.59614 0.0
H1369 H 0.6171 0.80896 0.62293 0.0
H1370 H 0.66045 0.8511 0.61617 0.0
H1371 H 0.65934 0.84085 0.58946 0.0
H1372 H 0.62102 0.77127 0.58317 0.0
H1373 H 0.6301 0.75834 0.60003 0.0
H1374 H 0.67502 0.80086 0.60503 0.0
H1375 H 0.66574 0.81369 0.58846 0.0
H1376 H 0.61589 0.76403 0.54647 0.0
H1377 H 0.61877 0.74119 0.54176 0.0
H1378 H 0.66734 0.7708 0.55464 0.0
H1379 H 0.66432 0.79356 0.55912 0.0
H1380 H 0.61309 0.78217 0.52203 0.0
H1381 H 0.61555 0.77083 0.49716 0.0
H1382 H 0.66495 0.79851 0.50513 0.0
H1383 H 0.66228 0.80918 0.53014 0.0
H1384 H 0.6095 0.81613 0.53727 0.0
H1385 H 0.60796 0.83221 0.51762 0.0
H1386 H 0.65476 0.84837 0.50736 0.0
H1387 H 0.65623 0.83243 0.52706 0.0
O1388 O 0.62802 0.82836 0.64713 0.0
O1389 O 0.65026 0.84981 0.64305 0.0
O1390 O 0.63404 0.72738 0.54083 0.0
O1391 O 0.65902 0.74203 0.54761 0.0
C1392 C 0.63481 0.82047 0.56203 0.0
C1393 C 0.63682 0.81305 0.57461 0.0
C1394 C 0.63852 0.79995 0.5717 0.0
C1395 C 0.63798 0.79411 0.55628 0.0
C1396 C 0.63616 0.80163 0.54375 0.0
C1397 C 0.63443 0.81472 0.54657 0.0
C1398 C 0.63452 0.83515 0.565 0.0
C1399 C 0.62201 0.83485 0.57161 0.0
C1400 C 0.62207 0.84887 0.57457 0.0
C1401 C 0.63462 0.86334 0.57089 0.0
C1402 C 0.64706 0.8635 0.56416 0.0
C1403 C 0.64703 0.84955 0.56131 0.0
C1404 C 0.63756 0.81922 0.59085 0.0
C1405 C 0.62578 0.81032 0.60049 0.0
C1406 C 0.6264 0.81609 0.61577 0.0
C1407 C 0.63884 0.83086 0.62168 0.0
C1408 C 0.65068 0.8397 0.61197 0.0
C1409 C 0.65005 0.83391 0.5967 0.0
C1410 C 0.64274 0.79338 0.58459 0.0
C1411 C 0.63268 0.7779 0.58831 0.0
C1412 C 0.63794 0.77051 0.5978 0.0
C1413 C 0.65336 0.77849 0.60368 0.0
C1414 C 0.66307 0.7944 0.60082 0.0
C1415 C 0.65779 0.80177 0.59135 0.0
C1416 C 0.63988 0.78039 0.55318 0.0
C1417 C 0.62714 0.76555 0.5482 0.0
C1418 C 0.62882 0.75254 0.54555 0.0
C1419 C 0.64329 0.75417 0.54786 0.0
C1420 C 0.65604 0.76912 0.55277 0.0
C1421 C 0.65435 0.78213 0.55536 0.0
C1422 C 0.63751 0.79649 0.52779 0.0
C1423 C 0.62441 0.78591 0.51823 0.0
C1424 C 0.62586 0.77949 0.50403 0.0
C1425 C 0.64046 0.78364 0.4992 0.0
C1426 C 0.65354 0.79479 0.50862 0.0
C1427 C 0.65206 0.80105 0.52282 0.0
C1428 C 0.6329 0.82295 0.53345 0.0
C1429 C 0.61932 0.82297 0.53059 0.0
C1430 C 0.6185 0.83222 0.51946 0.0
C1431 C 0.63123 0.84154 0.51093 0.0
C1432 C 0.64468 0.84113 0.51355 0.0
C1433 C 0.64552 0.83198 0.52475 0.0
C1434 C 0.63944 0.83697 0.63791 0.0
C1435 C 0.64511 0.74036 0.5452 0.0
H1436 H 0.18732 0.83501 0.66745 0.0
H1437 H 0.08146 0.70424 0.53265 0.0
H1438 H 0.18393 0.83899 0.57212 0.0
H1439 H 0.20685 0.86382 0.58213 0.0
H1440 H 0.22811 0.83819 0.59646 0.0
H1441 H 0.20503 0.81328 0.58629 0.0
H1442 H 0.16991 0.82534 0.60095 0.0
H1443 H 0.17685 0.83329 0.62867 0.0
H1444 H 0.1829 0.79371 0.63341 0.0
H1445 H 0.17604 0.78597 0.60562 0.0
H1446 H 0.13859 0.79802 0.59535 0.0
H1447 H 0.1174 0.78383 0.61179 0.0
H1448 H 0.12219 0.7431 0.60593 0.0
H1449 H 0.14325 0.75741 0.58909 0.0
H1450 H 0.12123 0.77812 0.5654 0.0
H1451 H 0.09655 0.7545 0.55681 0.0
H1452 H 0.12016 0.7311 0.54108 0.0
H1453 H 0.14475 0.75475 0.5499 0.0
H1454 H 0.13682 0.79386 0.53879 0.0
H1455 H 0.12644 0.78628 0.51193 0.0
H1456 H 0.16091 0.77482 0.50155 0.0
H1457 H 0.17071 0.78169 0.52884 0.0
H1458 H 0.17002 0.82472 0.53999 0.0
H1459 H 0.18776 0.84324 0.52245 0.0
H1460 H 0.21926 0.82749 0.5319 0.0
H1461 H 0.20131 0.80882 0.54931 0.0
O1462 O 0.18468 0.8317 0.6565 0.0
O1463 O 0.18788 0.81133 0.65828 0.0
O1464 O 0.07946 0.72624 0.54456 0.0
O1465 O 0.09105 0.71371 0.53622 0.0
C1466 C 0.17846 0.80942 0.57336 0.0
C1467 C 0.16836 0.80035 0.58447 0.0
C1468 C 0.15394 0.78694 0.57959 0.0
C1469 C 0.14976 0.78241 0.5636 0.0
C1470 C 0.15973 0.7917 0.55247 0.0
C1471 C 0.17414 0.80514 0.55736 0.0
C1472 C 0.19286 0.82439 0.5785 0.0
C1473 C 0.19361 0.83876 0.57724 0.0
C1474 C 0.20665 0.85289 0.58302 0.0
C1475 C 0.2192 0.85289 0.59013 0.0
C1476 C 0.21863 0.83851 0.59094 0.0
C1477 C 0.20548 0.82432 0.58523 0.0
C1478 C 0.17261 0.80517 0.60129 0.0
C1479 C 0.17285 0.81848 0.60798 0.0
C1480 C 0.17676 0.82296 0.62382 0.0
C1481 C 0.18046 0.81415 0.63326 0.0
C1482 C 0.18014 0.80077 0.62648 0.0
C1483 C 0.17622 0.79631 0.61062 0.0
C1484 C 0.14246 0.77875 0.59109 0.0
C1485 C 0.13524 0.78614 0.59787 0.0
C1486 C 0.12315 0.778 0.60729 0.0
C1487 C 0.11806 0.7623 0.61019 0.0
C1488 C 0.12569 0.7551 0.60377 0.0
C1489 C 0.13779 0.76327 0.59427 0.0
C1490 C 0.13475 0.76808 0.55841 0.0
C1491 C 0.12103 0.76783 0.56022 0.0
C1492 C 0.10696 0.75435 0.55525 0.0
C1493 C 0.10638 0.74089 0.54828 0.0
C1494 C 0.12018 0.74124 0.54642 0.0
C1495 C 0.13424 0.75473 0.55143 0.0
C1496 C 0.15438 0.78813 0.53579 0.0
C1497 C 0.1421 0.78968 0.53071 0.0
C1498 C 0.13631 0.78551 0.51529 0.0
C1499 C 0.14283 0.77993 0.50451 0.0
C1500 C 0.15546 0.77884 0.50957 0.0
C1501 C 0.16116 0.78287 0.5251 0.0
C1502 C 0.18437 0.8154 0.54583 0.0
C1503 C 0.18066 0.82513 0.53809 0.0
C1504 C 0.19085 0.83578 0.52821 0.0
C1505 C 0.20493 0.83687 0.52588 0.0
C1506 C 0.20845 0.82682 0.53338 0.0
C1507 C 0.19826 0.8162 0.54333 0.0
C1508 C 0.18457 0.81892 0.6501 0.0
C1509 C 0.09146 0.72654 0.54293 0.0
H1510 H 0.20028 0.36477 0.67999 0.0
H1511 H 0.08445 0.3509 0.55726 0.0
H1512 H 0.21433 0.379 0.60045 0.0
H1513 H 0.23323 0.37313 0.61085 0.0
H1514 H 0.20833 0.32703 0.58569 0.0
H1515 H 0.18963 0.33307 0.5753 0.0
H1516 H 0.18726 0.38006 0.61931 0.0
H1517 H 0.19365 0.37805 0.64624 0.0
H1518 H 0.18321 0.33055 0.63402 0.0
H1519 H 0.17667 0.33265 0.60718 0.0
H1520 H 0.15666 0.37832 0.60497 0.0
H1521 H 0.13593 0.37142 0.62239 0.0
H1522 H 0.12601 0.32342 0.6201 0.0
H1523 H 0.14681 0.3305 0.60303 0.0
H1524 H 0.16053 0.38562 0.56744 0.0
H1525 H 0.13797 0.38721 0.56062 0.0
H1526 H 0.10864 0.33781 0.56794 0.0
H1527 H 0.1313 0.33635 0.57455 0.0
H1528 H 0.18284 0.38416 0.54407 0.0
H1529 H 0.17338 0.38284 0.51718 0.0
H1530 H 0.13797 0.33411 0.52047 0.0
H1531 H 0.14758 0.33551 0.54699 0.0
H1532 H 0.21291 0.38321 0.56234 0.0
H1533 H 0.22884 0.38321 0.54167 0.0
H1534 H 0.19245 0.33639 0.52436 0.0
H1535 H 0.17685 0.33638 0.54528 0.0
O1536 O 0.19761 0.36527 0.6693 0.0
O1537 O 0.19219 0.34093 0.6624 0.0
O1538 O 0.10916 0.37592 0.55618 0.0
O1539 O 0.09356 0.35059 0.55988 0.0
C1540 C 0.18768 0.35871 0.5832 0.0
C1541 C 0.17801 0.35801 0.59493 0.0
C1542 C 0.16469 0.35839 0.5911 0.0
C1543 C 0.16132 0.36009 0.57564 0.0
C1544 C 0.17084 0.3606 0.56388 0.0
C1545 C 0.18403 0.3599 0.56764 0.0
C1546 C 0.20063 0.35647 0.58712 0.0
C1547 C 0.21319 0.3678 0.59692 0.0
C1548 C 0.22388 0.36436 0.60294 0.0
C1549 C 0.22219 0.34954 0.59922 0.0
C1550 C 0.21007 0.3386 0.58867 0.0
C1551 C 0.19938 0.34203 0.58269 0.0
C1552 C 0.18163 0.35656 0.61129 0.0
C1553 C 0.18633 0.36922 0.6225 0.0
C1554 C 0.18999 0.36805 0.63786 0.0
C1555 C 0.189 0.35416 0.64227 0.0
C1556 C 0.18415 0.34143 0.631 0.0
C1557 C 0.18045 0.34261 0.61566 0.0
C1558 C 0.15325 0.35492 0.60281 0.0
C1559 C 0.15012 0.36639 0.60845 0.0
C1560 C 0.13822 0.36239 0.6183 0.0
C1561 C 0.12928 0.34685 0.62263 0.0
C1562 C 0.1328 0.33554 0.61724 0.0
C1563 C 0.14466 0.33955 0.60745 0.0
C1564 C 0.14753 0.36091 0.5716 0.0
C1565 C 0.14922 0.37516 0.56755 0.0
C1566 C 0.13632 0.37604 0.56368 0.0
C1567 C 0.12149 0.36264 0.56378 0.0
C1568 C 0.11987 0.34836 0.56779 0.0
C1569 C 0.13279 0.34749 0.57162 0.0
C1570 C 0.16587 0.35993 0.54742 0.0
C1571 C 0.17314 0.3732 0.53886 0.0
C1572 C 0.16768 0.37244 0.52358 0.0
C1573 C 0.15499 0.35834 0.51667 0.0
C1574 C 0.14793 0.34506 0.52532 0.0
C1575 C 0.15332 0.34586 0.54052 0.0
C1576 C 0.19371 0.35985 0.55521 0.0
C1577 C 0.20844 0.37296 0.55409 0.0
C1578 C 0.21747 0.37296 0.54224 0.0
C1579 C 0.2119 0.35981 0.53135 0.0
C1580 C 0.19715 0.34664 0.53264 0.0
C1581 C 0.18816 0.34665 0.54449 0.0
C1582 C 0.19301 0.35299 0.65857 0.0
C1583 C 0.10775 0.36351 0.55971 0.0
C1584 C 0.00374 0.38023 0.05655 0.0
C1585 C 0.99119 0.37299 0.04546 0.0
C1586 C 0.00429 0.3902 0.06895 0.0
C1587 C 0.97972 0.40079 0.09088 0.0
H1588 H 0.01858 0.43859 0.10444 0.0
C1589 C 0.98463 0.44897 0.13557 0.0
C1590 C 0.99617 0.45421 0.14761 0.0
C1591 C 0.98409 0.43949 0.1227 0.0
C1592 C 0.00767 0.42803 0.10082 0.0
H1593 H 0.96939 0.37062 0.03873 0.0
H1594 H 0.97052 0.38819 0.0601 0.0
H1595 H 0.01744 0.42097 0.08295 0.0
H1596 H 0.0161 0.45339 0.15557 0.0
H1597 H 0.0153 0.43717 0.13301 0.0
H1598 H 0.96995 0.408 0.10869 0.0
C1599 C 0.97979 0.38593 0.05943 0.0
C1600 C 0.00702 0.41789 0.08856 0.0
C1601 C 0.97919 0.37588 0.04711 0.0
C1602 C 0.00725 0.44989 0.14637 0.0
C1603 C 0.00678 0.44054 0.13347 0.0
C1604 C 0.98036 0.411 0.10306 0.0
C1605 C 0.99236 0.39325 0.07048 0.0
C1606 C 0.99305 0.40409 0.08348 0.0
C1607 C 0.99513 0.43514 0.12156 0.0
C1608 C 0.99435 0.42467 0.1082 0.0
H1609 H 0.01314 0.37819 0.05568 0.0
H1610 H 0.01402 0.39543 0.07739 0.0
H1611 H 0.96881 0.39015 0.08744 0.0
H1612 H 0.97604 0.45223 0.13606 0.0
H1613 H 0.97508 0.43562 0.11359 0.0
C1614 C 0.61264 0.61331 0.11035 0.0
C1615 C 0.61656 0.60996 0.09582 0.0
C1616 C 0.60613 0.60175 0.12081 0.0
C1617 C 0.5982 0.56212 0.1297 0.0
H1618 H 0.56507 0.56148 0.15114 0.0
C1619 C 0.55398 0.51032 0.16395 0.0
C1620 C 0.55024 0.51469 0.17813 0.0
C1621 C 0.56355 0.52184 0.15428 0.0
C1622 C 0.5744 0.56159 0.14537 0.0
H1623 H 0.6173 0.59202 0.08109 0.0
H1624 H 0.60545 0.57157 0.09925 0.0
H1625 H 0.57899 0.58167 0.13353 0.0
H1626 H 0.55444 0.53457 0.19377 0.0
H1627 H 0.5709 0.55458 0.17685 0.0
H1628 H 0.59315 0.54163 0.14142 0.0
C1629 C 0.60765 0.58325 0.10264 0.0
C1630 C 0.58244 0.57321 0.1353 0.0
C1631 C 0.6144 0.59494 0.09221 0.0
C1632 C 0.55678 0.53081 0.18274 0.0
C1633 C 0.56624 0.54227 0.17308 0.0
C1634 C 0.59002 0.55035 0.13973 0.0
C1635 C 0.60312 0.58644 0.11693 0.0
C1636 C 0.59456 0.57377 0.12745 0.0
C1637 C 0.56946 0.53791 0.15861 0.0
C1638 C 0.57815 0.5501 0.14778 0.0
H1639 H 0.61442 0.62486 0.11358 0.0
H1640 H 0.60322 0.60478 0.13188 0.0
H1641 H 0.60752 0.56225 0.12391 0.0
H1642 H 0.54906 0.498 0.16004 0.0
H1643 H 0.56579 0.51816 0.14315 0.0
C1644 C 0.39985 0.98097 0.05597 0.0
C1645 C 0.39568 0.99199 0.05269 0.0
C1646 C 0.41005 0.98391 0.06854 0.0
C1647 C 0.43898 0.01475 0.0976 0.0
H1648 H 0.42821 0.97829 0.12045 0.0
C1649 C 0.46671 0.0162 0.15834 0.0
C1650 C 0.46951 0.00392 0.16033 0.0
C1651 C 0.45928 0.01642 0.14457 0.0
C1652 C 0.43148 0.98856 0.11411 0.0
H1653 H 0.3994 0.01505 0.05976 0.0
H1654 H 0.41707 0.02007 0.08216 0.0
H1655 H 0.41201 0.97561 0.09799 0.0
H1656 H 0.46779 0.98299 0.149 0.0
H1657 H 0.45477 0.98333 0.12511 0.0
H1658 H 0.45837 0.02771 0.11418 0.0
C1659 C 0.41254 0.00921 0.0748 0.0
C1660 C 0.4222 0.98703 0.10119 0.0
C1661 C 0.40239 0.00633 0.06201 0.0
C1662 C 0.46551 0.99242 0.14796 0.0
C1663 C 0.45806 0.99261 0.13427 0.0
C1664 C 0.44825 0.01631 0.11069 0.0
C1665 C 0.41623 0.99786 0.07839 0.0
C1666 C 0.42594 1e-05 0.0926 0.0
C1667 C 0.45447 0.00435 0.1326 0.0
C1668 C 0.44469 0.00314 0.11892 0.0
H1669 H 0.39513 0.96994 0.04885 0.0
H1670 H 0.41298 0.97511 0.07064 0.0
H1671 H 0.44222 0.02498 0.09122 0.0
H1672 H 0.46955 0.02517 0.1677 0.0
H1673 H 0.45661 0.02558 0.14361 0.0
C1674 C 0.38253 0.9721 0.96823 0.0
C1675 C 0.38596 0.98538 0.97817 0.0
C1676 C 0.39111 0.97371 0.95539 0.0
C1677 C 0.42913 0.99922 0.94159 0.0
H1678 H 0.41008 0.97858 0.90091 0.0
C1679 C 0.46505 0.01036 0.88848 0.0
C1680 C 0.46095 0.99751 0.87762 0.0
C1681 C 0.45547 0.00904 0.90025 0.0
C1682 C 0.4156 0.98426 0.91223 0.0
H1683 H 0.40098 0.01081 0.98221 0.0
H1684 H 0.41599 0.01352 0.95993 0.0
H1685 H 0.39403 0.97581 0.92234 0.0
H1686 H 0.44329 0.97324 0.87052 0.0
H1687 H 0.42691 0.97074 0.89141 0.0
H1688 H 0.45066 0.00735 0.93175 0.0
C1689 C 0.40669 0.00188 0.96211 0.0
C1690 C 0.40639 0.9827 0.92448 0.0
C1691 C 0.39802 0.00031 0.97483 0.0
C1692 C 0.44694 0.98333 0.87879 0.0
C1693 C 0.43742 0.98196 0.89066 0.0
C1694 C 0.43833 0.00064 0.92941 0.0
C1695 C 0.4034 0.98859 0.95233 0.0
C1696 C 0.41307 0.99022 0.93927 0.0
C1697 C 0.44159 0.99478 0.90161 0.0
C1698 C 0.4317 0.99323 0.91455 0.0
H1699 H 0.37329 0.96043 0.97041 0.0
H1700 H 0.38838 0.96325 0.94809 0.0
H1701 H 0.43459 0.00493 0.95293 0.0
H1702 H 0.47582 0.02141 0.8881 0.0
H1703 H 0.45897 0.01925 0.9083 0.0
C1704 C 0.01834 0.3912 0.97739 0.0
C1705 C 0.00612 0.37563 0.97369 0.0
C1706 C 0.02161 0.40283 0.96712 0.0
C1707 C 0.00084 0.41061 0.93712 0.0
H1708 H 0.04068 0.4462 0.9294 0.0
C1709 C 0.00561 0.46288 0.90784 0.0
C1710 C 0.01535 0.46828 0.89559 0.0
C1711 C 0.0063 0.45271 0.91784 0.0
C1712 C 0.02948 0.43628 0.93142 0.0
H1713 H 0.9888 0.35967 0.9558 0.0
H1714 H 0.99474 0.37974 0.93784 0.0
H1715 H 0.03903 0.42553 0.94497 0.0
H1716 H 0.03391 0.46777 0.88461 0.0
H1717 H 0.03509 0.44984 0.90211 0.0
H1718 H 0.99121 0.42108 0.92356 0.0
C1719 C 0.00146 0.38316 0.94882 0.0
C1720 C 0.02855 0.42452 0.9404 0.0
C1721 C 0.99811 0.37164 0.95908 0.0
C1722 C 0.02631 0.46386 0.894 0.0
C1723 C 0.02699 0.45361 0.90402 0.0
C1724 C 0.00177 0.42231 0.92826 0.0
C1725 C 0.01278 0.39901 0.95299 0.0
C1726 C 0.01418 0.41152 0.94328 0.0
C1727 C 0.01673 0.44762 0.91581 0.0
C1728 C 0.01607 0.43532 0.92533 0.0
H1729 H 0.02469 0.39461 0.98858 0.0
H1730 H 0.03041 0.41494 0.97067 0.0
H1731 H 0.98958 0.40092 0.93933 0.0
H1732 H 0.99726 0.46635 0.90955 0.0
H1733 H 0.99847 0.44859 0.92703 0.0
C1734 C 0.59544 0.62447 0.01657 0.0
C1735 C 0.60516 0.61968 0.02267 0.0
C1736 C 0.5866 0.6172 0.00267 0.0
C1737 C 0.56895 0.58074 0.97721 0.0
H1738 H 0.56952 0.60696 0.94538 0.0
C1739 C 0.54223 0.55519 0.91491 0.0
C1740 C 0.53563 0.56236 0.9068 0.0
C1741 C 0.5499 0.56168 0.9295 0.0
C1742 C 0.56898 0.59943 0.95423 0.0
H1743 H 0.61308 0.60334 0.01896 0.0
H1744 H 0.59743 0.59049 0.9947 0.0
H1745 H 0.58457 0.61928 0.96989 0.0
H1746 H 0.53158 0.58177 0.90799 0.0
H1747 H 0.54432 0.59264 0.93369 0.0
H1748 H 0.55315 0.56087 0.96172 0.0
C1749 C 0.59673 0.59992 0.00074 0.0
C1750 C 0.57769 0.60652 0.96824 0.0
C1751 C 0.60575 0.60735 0.01457 0.0
C1752 C 0.5364 0.57584 0.91392 0.0
C1753 C 0.54394 0.58224 0.92859 0.0
C1754 C 0.56008 0.57363 0.96326 0.0
C1755 C 0.58714 0.60484 0.99464 0.0
C1756 C 0.57781 0.59724 0.97983 0.0
C1757 C 0.55103 0.57541 0.93645 0.0
C1758 C 0.56003 0.58289 0.95155 0.0
H1759 H 0.59473 0.63395 0.02248 0.0
H1760 H 0.57921 0.62113 0.99826 0.0
H1761 H 0.5687 0.57332 0.98605 0.0
H1762 H 0.54163 0.54463 0.90991 0.0
H1763 H 0.5553 0.55615 0.93512 0.0
C1764 C 0.02747 0.63402 0.00548 0.0
C1765 C 0.01397 0.63349 0.0095 0.0
C1766 C 0.02719 0.62435 0.99299 0.0
C1767 C 0.00075 0.58706 0.96989 0.0
H1768 H 0.03418 0.60135 0.94267 0.0
C1769 C 0.99867 0.54979 0.91522 0.0
C1770 C 0.01212 0.54985 0.91203 0.0
C1771 C 0.9988 0.55981 0.92726 0.0
C1772 C 0.02485 0.59715 0.9503 0.0
H1773 H 0.98969 0.6228 0.00302 0.0
H1774 H 0.98929 0.60607 0.98107 0.0
H1775 H 0.03449 0.6199 0.96259 0.0
H1776 H 0.03614 0.56013 0.9193 0.0
H1777 H 0.03636 0.57768 0.94039 0.0
H1778 H 0.99111 0.56431 0.95757 0.0
C1779 C 1.00003 0.61378 0.98782 0.0
C1780 C 0.025 0.60778 0.96168 0.0
C1781 C 0.00029 0.62345 0.00034 0.0
C1782 C 0.02564 0.55993 0.92137 0.0
C1783 C 0.02577 0.57 0.93341 0.0
C1784 C 0.00058 0.57644 0.95849 0.0
C1785 C 0.01343 0.61393 0.98417 0.0
C1786 C 0.01298 0.60284 0.97164 0.0
C1787 C 0.01239 0.57016 0.93636 0.0
C1788 C 0.01265 0.58136 0.94861 0.0
H1789 H 0.03823 0.6416 0.01224 0.0
H1790 H 0.03769 0.62465 0.99058 0.0
H1791 H 0.99144 0.58281 0.97756 0.0
H1792 H 0.98814 0.54242 0.90804 0.0
H1793 H 0.98836 0.55981 0.92912 0.0
C1794 C 0.39262 0.3862 0.94859 0.0
C1795 C 0.38523 0.38839 0.96109 0.0
C1796 C 0.4002 0.39801 0.93857 0.0
C1797 C 0.40469 0.4345 0.92481 0.0
H1798 H 0.44513 0.44278 0.91601 0.0
C1799 C 0.44849 0.48769 0.89194 0.0
C1800 C 0.45694 0.48458 0.88131 0.0
C1801 C 0.43893 0.47619 0.90162 0.0
C1802 C 0.4338 0.44052 0.9182 0.0
H1803 H 0.37937 0.40448 0.97234 0.0
H1804 H 0.39277 0.42524 0.95475 0.0
H1805 H 0.42956 0.42217 0.9327 0.0
H1806 H 0.46138 0.46674 0.87191 0.0
H1807 H 0.44472 0.44674 0.88867 0.0
H1808 H 0.40902 0.45293 0.91018 0.0
C1809 C 0.39262 0.4143 0.95277 0.0
C1810 C 0.42487 0.4287 0.92777 0.0
C1811 C 0.38498 0.40242 0.96285 0.0
C1812 C 0.4553 0.46962 0.88025 0.0
C1813 C 0.44575 0.45816 0.88986 0.0
C1814 C 0.41365 0.44637 0.91516 0.0
C1815 C 0.40064 0.41235 0.94077 0.0
C1816 C 0.41014 0.4254 0.93102 0.0
C1817 C 0.43763 0.46137 0.90082 0.0
C1818 C 0.42823 0.44935 0.91159 0.0
H1819 H 0.39287 0.37547 0.94671 0.0
H1820 H 0.40598 0.39602 0.9292 0.0
H1821 H 0.39336 0.43219 0.92711 0.0
H1822 H 0.44957 0.49914 0.89303 0.0
H1823 H 0.43288 0.47905 0.91002 0.0
C1824 C 0.60896 0.02553 0.9983 0.0
C1825 C 0.60936 0.0138 0.00631 0.0
C1826 C 0.59781 0.02153 0.98637 0.0
C1827 C 0.57134 0.98979 0.9574 0.0
H1828 H 0.55483 0.01701 0.9537 0.0
C1829 C 0.52979 0.98331 0.90574 0.0
C1830 C 0.53457 0.9975 0.89881 0.0
C1831 C 0.5368 0.98334 0.91993 0.0
C1832 C 0.55931 0.00928 0.95459 0.0
H1833 H 0.59826 0.98853 0.00785 0.0
H1834 H 0.5786 0.98151 0.98681 0.0
H1835 H 0.57074 0.02029 0.9768 0.0
H1836 H 0.55076 0.02282 0.90141 0.0
H1837 H 0.56251 0.02287 0.9262 0.0
H1838 H 0.56003 0.97899 0.93494 0.0
C1839 C 0.58705 0.99384 0.98989 0.0
C1840 C 0.56844 0.01117 0.9678 0.0
C1841 C 0.59827 0.99787 0.00196 0.0
C1842 C 0.54642 0.0117 0.90652 0.0
C1843 C 0.55324 0.01174 0.92073 0.0
C1844 C 0.56207 0.98783 0.94417 0.0
C1845 C 0.58666 0.00567 0.98204 0.0
C1846 C 0.57501 0.00183 0.96914 0.0
C1847 C 0.54857 0.99758 0.92757 0.0
C1848 C 0.55638 0.99791 0.94244 0.0
H1849 H 0.61731 0.03793 0.00118 0.0
H1850 H 0.59808 0.03093 0.98035 0.0
H1851 H 0.57625 0.98244 0.95806 0.0
H1852 H 0.5206 0.97216 0.90024 0.0
H1853 H 0.53293 0.97227 0.92499 0.0
C1854 C 0.62116 0.03632 0.08871 0.0
C1855 C 0.621 0.02315 0.08157 0.0
C1856 C 0.61281 0.03484 0.10168 0.0
C1857 C 0.59374 0.00919 0.13323 0.0
H1858 H 0.56979 0.0293 0.13362 0.0
C1859 C 0.54636 0.99466 0.17576 0.0
C1860 C 0.54478 0.00711 0.18192 0.0
C1861 C 0.55651 0.99709 0.16424 0.0
C1862 C 0.57658 0.02379 0.13383 0.0
H1863 H 0.61217 0.99815 0.08285 0.0
H1864 H 0.59756 0.99559 0.10542 0.0
H1865 H 0.5861 0.03274 0.11237 0.0
H1866 H 0.55276 0.03192 0.18085 0.0
H1867 H 0.57071 0.03625 0.16101 0.0
H1868 H 0.58414 0.00017 0.15467 0.0
C1869 C 0.60425 0.00709 0.10101 0.0
C1870 C 0.58593 0.02576 0.12163 0.0
C1871 C 0.61257 0.00855 0.088 0.0
C1872 C 0.55378 0.02211 0.17646 0.0
C1873 C 0.56394 0.02455 0.16495 0.0
C1874 C 0.58441 0.00724 0.14547 0.0
C1875 C 0.60412 0.02018 0.10788 0.0
C1876 C 0.59457 0.01843 0.12115 0.0
C1877 C 0.56534 0.01204 0.1586 0.0
C1878 C 0.57566 0.01447 0.14587 0.0
H1879 H 0.62756 0.04777 0.08415 0.0
H1880 H 0.61313 0.0452 0.10685 0.0
H1881 H 0.60041 0.00355 0.1333 0.0
H1882 H 0.53973 0.983 0.17984 0.0
H1883 H 0.55719 0.98716 0.15952 0.0
C1884 C 0.00461 0.61035 0.07487 0.0
C1885 C 0.99814 0.61972 0.0769 0.0
C1886 C 0.00116 0.5983 0.08445 0.0
C1887 C 0.97568 0.57437 0.11444 0.0
H1888 H 0.01135 0.5721 0.12639 0.0
C1889 C 0.98002 0.53984 0.16502 0.0
C1890 C 0.98733 0.53135 0.16179 0.0
C1891 C 0.97935 0.54943 0.15416 0.0
C1892 C 0.00124 0.57246 0.12305 0.0
H1893 H 0.98248 0.62357 0.09 0.0
H1894 H 0.97678 0.60269 0.10737 0.0
H1895 H 0.01374 0.59107 0.10855 0.0
H1896 H 0.99871 0.52549 0.14422 0.0
H1897 H 0.99776 0.5424 0.12546 0.0
H1898 H 0.96338 0.55589 0.12951 0.0
C1899 C 0.9843 0.60446 0.09813 0.0
C1900 C 0.00257 0.58331 0.11276 0.0
C1901 C 0.98756 0.61641 0.08825 0.0
C1902 C 0.99334 0.53215 0.14723 0.0
C1903 C 0.99274 0.54179 0.13646 0.0
C1904 C 0.97439 0.56355 0.12494 0.0
C1905 C 0.99145 0.59559 0.09661 0.0
C1906 C 0.98978 0.58426 0.10808 0.0
C1907 C 0.98605 0.55079 0.13993 0.0
C1908 C 0.98714 0.56236 0.12915 0.0
H1909 H 0.01263 0.61257 0.06601 0.0
H1910 H 0.00646 0.59137 0.08256 0.0
H1911 H 0.9656 0.57477 0.11107 0.0
H1912 H 0.97538 0.53957 0.17617 0.0
H1913 H 0.9742 0.55632 0.15716 0.0
C1914 C 0.39964 0.39478 0.03944 0.0
C1915 C 0.39672 0.37995 0.03356 0.0
C1916 C 0.4094 0.40251 0.05277 0.0
C1917 C 0.43872 0.40158 0.0789 0.0
H1918 H 0.42954 0.42669 0.10729 0.0
C1919 C 0.47725 0.43504 0.13483 0.0
C1920 C 0.46992 0.43603 0.14792 0.0
C1921 C 0.46906 0.42918 0.12036 0.0
C1922 C 0.4322 0.41958 0.09961 0.0
H1923 H 0.40148 0.36145 0.03717 0.0
H1924 H 0.41785 0.37449 0.06076 0.0
H1925 H 0.41359 0.41417 0.08349 0.0
H1926 H 0.44836 0.43131 0.15646 0.0
H1927 H 0.43386 0.42042 0.13152 0.0
H1928 H 0.45673 0.40617 0.09552 0.0
C1929 C 0.41314 0.38052 0.05483 0.0
C1930 C 0.42318 0.4126 0.08575 0.0
C1931 C 0.40364 0.37295 0.04134 0.0
C1932 C 0.45428 0.43086 0.14643 0.0
C1933 C 0.44603 0.42473 0.13209 0.0
C1934 C 0.44757 0.40833 0.09291 0.0
C1935 C 0.41622 0.39545 0.06072 0.0
C1936 C 0.42623 0.40341 0.07523 0.0
C1937 C 0.4533 0.4239 0.1188 0.0
C1938 C 0.44436 0.41732 0.10352 0.0
H1939 H 0.39458 0.40054 0.0336 0.0
H1940 H 0.41169 0.41411 0.05673 0.0
H1941 H 0.44167 0.39488 0.07099 0.0
H1942 H 0.48935 0.43903 0.13576 0.0
H1943 H 0.47513 0.42895 0.11039 0.0
C1944 C 0.63988 0.71314 0.37792 0.0
C1945 C 0.6519 0.71017 0.37707 0.0
C1946 C 0.63908 0.72166 0.39085 0.0
C1947 C 0.66208 0.74888 0.42513 0.0
H1948 H 0.62197 0.73534 0.44006 0.0
C1949 C 0.6533 0.77169 0.48446 0.0
C1950 C 0.64209 0.77589 0.4848 0.0
C1951 C 0.65479 0.76421 0.47108 0.0
C1952 C 0.63323 0.73935 0.43593 0.0
H1953 H 0.67257 0.71393 0.38915 0.0
H1954 H 0.67098 0.7285 0.41196 0.0
H1955 H 0.62415 0.7211 0.41741 0.0
H1956 H 0.62374 0.77559 0.47121 0.0
H1957 H 0.62618 0.76221 0.44788 0.0
H1958 H 0.67113 0.76694 0.44394 0.0
C1959 C 0.66232 0.72449 0.40246 0.0
C1960 C 0.6345 0.73122 0.42293 0.0
C1961 C 0.6632 0.71606 0.38942 0.0
C1962 C 0.63236 0.77235 0.47142 0.0
C1963 C 0.63378 0.76473 0.45805 0.0
C1964 C 0.66081 0.75693 0.43822 0.0
C1965 C 0.65018 0.7273 0.40336 0.0
C1966 C 0.64893 0.73591 0.41732 0.0
C1967 C 0.64502 0.7606 0.45776 0.0
C1968 C 0.64637 0.75225 0.44373 0.0
H1969 H 0.63107 0.70895 0.36854 0.0
H1970 H 0.62977 0.72389 0.39097 0.0
H1971 H 0.67335 0.75296 0.421 0.0
H1972 H 0.66076 0.77389 0.49466 0.0
H1973 H 0.66339 0.76093 0.47126 0.0
C1974 C 0.28442 0.92889 0.43162 0.0
C1975 C 0.28347 0.9425 0.43367 0.0
C1976 C 0.27845 0.91744 0.44234 0.0
C1977 C 0.26557 0.91084 0.48231 0.0
H1978 H 0.23847 0.86742 0.46578 0.0
C1979 C 0.219 0.8643 0.51745 0.0
C1980 C 0.21607 0.84882 0.51605 0.0
C1981 C 0.22925 0.87557 0.50807 0.0
C1982 C 0.24621 0.87943 0.47061 0.0
H1983 H 0.27601 0.95499 0.44893 0.0
H1984 H 0.26562 0.93508 0.46748 0.0
H1985 H 0.2532 0.88762 0.4482 0.0
H1986 H 0.22172 0.83303 0.50384 0.0
H1987 H 0.23975 0.85281 0.4874 0.0
H1988 H 0.25829 0.90274 0.50467 0.0
C1989 C 0.27103 0.93327 0.45766 0.0
C1990 C 0.25466 0.89101 0.46054 0.0
C1991 C 0.27688 0.94463 0.44692 0.0
C1992 C 0.2238 0.84489 0.5052 0.0
C1993 C 0.23402 0.85617 0.49573 0.0
C1994 C 0.25714 0.89928 0.49237 0.0
C1995 C 0.27155 0.91945 0.4554 0.0
C1996 C 0.26415 0.9069 0.46624 0.0
C1997 C 0.23682 0.87163 0.49704 0.0
C1998 C 0.24709 0.88352 0.4866 0.0
H1999 H 0.28944 0.92689 0.42155 0.0
H2000 H 0.27913 0.90697 0.44036 0.0
H2001 H 0.273 0.92294 0.48709 0.0
H2002 H 0.21337 0.86773 0.52585 0.0
H2003 H 0.231 0.88731 0.50925 0.0
C2004 C 0.07816 0.344 0.39786 0.0
C2005 C 0.07032 0.32828 0.39135 0.0
C2006 C 0.08868 0.3487 0.41075 0.0
C2007 C 0.09827 0.33143 0.44287 0.0
H2008 H 0.13613 0.37216 0.44868 0.0
C2009 C 0.14354 0.34374 0.49066 0.0
C2010 C 0.14859 0.35736 0.50072 0.0
C2011 C 0.13548 0.34162 0.47656 0.0
C2012 C 0.12555 0.36079 0.4472 0.0
H2013 H 0.06799 0.30541 0.39277 0.0
H2014 H 0.08647 0.31364 0.41476 0.0
H2015 H 0.11896 0.36566 0.42542 0.0
H2016 H 0.14998 0.3799 0.50342 0.0
H2017 H 0.13596 0.37623 0.47855 0.0
H2018 H 0.10488 0.32644 0.46444 0.0
C2019 C 0.08418 0.32226 0.41034 0.0
C2020 C 0.1157 0.35707 0.43394 0.0
C2021 C 0.07361 0.31754 0.39764 0.0
C2022 C 0.14628 0.3693 0.49589 0.0
C2023 C 0.13824 0.3672 0.48168 0.0
C2024 C 0.10814 0.33507 0.45596 0.0
C2025 C 0.09163 0.33779 0.41728 0.0
C2026 C 0.10201 0.34225 0.43154 0.0
C2027 C 0.13235 0.35311 0.47213 0.0
C2028 C 0.12195 0.3497 0.45821 0.0
H2029 H 0.07588 0.35256 0.39328 0.0
H2030 H 0.09415 0.36074 0.41585 0.0
H2031 H 0.08764 0.32009 0.44168 0.0
H2032 H 0.14545 0.33448 0.49389 0.0
H2033 H 0.13134 0.33079 0.46927 0.0
C2034 C 0.07088 0.32627 0.31073 0.0
C2035 C 0.0584 0.31252 0.31576 0.0
C2036 C 0.0778 0.32557 0.29725 0.0
C2037 C 0.08136 0.29734 0.27026 0.0
H2038 H 0.0972 0.33183 0.24362 0.0
C2039 C 0.10468 0.29476 0.21067 0.0
C2040 C 0.11905 0.30795 0.20807 0.0
C2041 C 0.09667 0.29517 0.22335 0.0
C2042 C 0.09288 0.32215 0.251 0.0
H2043 H 0.04321 0.2873 0.31033 0.0
H2044 H 0.05497 0.28616 0.28664 0.0
H2045 H 0.08425 0.33277 0.26654 0.0
H2046 H 0.13621 0.33188 0.21694 0.0
H2047 H 0.12202 0.33267 0.23875 0.0
H2048 H 0.08984 0.28667 0.25451 0.0
C2049 C 0.05971 0.29743 0.29332 0.0
C2050 C 0.08552 0.32271 0.26418 0.0
C2051 C 0.0529 0.2981 0.30688 0.0
C2052 C 0.12506 0.32162 0.21834 0.0
C2053 C 0.11696 0.32207 0.2309 0.0
C2054 C 0.08857 0.29672 0.25699 0.0
C2055 C 0.0723 0.31114 0.28835 0.0
C2056 C 0.07977 0.31037 0.27406 0.0
C2057 C 0.10275 0.30882 0.2336 0.0
C2058 C 0.09451 0.30917 0.24729 0.0
H2059 H 0.07546 0.33757 0.31733 0.0
H2060 H 0.08763 0.33634 0.29395 0.0
H2061 H 0.07733 0.28775 0.27772 0.0
H2062 H 0.09958 0.28413 0.20288 0.0
H2063 H 0.08565 0.28484 0.22508 0.0
C2064 C 0.66136 0.71579 0.29449 0.0
C2065 C 0.67086 0.71504 0.30607 0.0
C2066 C 0.66745 0.72738 0.28404 0.0
C2067 C 0.70053 0.76696 0.2791 0.0
H2068 H 0.68103 0.75757 0.23753 0.0
C2069 C 0.71499 0.81079 0.22987 0.0
C2070 C 0.70217 0.81188 0.22559 0.0
C2071 C 0.71359 0.79943 0.23971 0.0
C2072 C 0.68666 0.76031 0.24906 0.0
H2073 H 0.69441 0.72582 0.31542 0.0
H2074 H 0.70513 0.74604 0.29687 0.0
H2075 H 0.67454 0.73612 0.25399 0.0
H2076 H 0.67806 0.80243 0.22918 0.0
H2077 H 0.67557 0.7823 0.24567 0.0
H2078 H 0.71262 0.79128 0.27392 0.0
C2079 C 0.69288 0.7377 0.29611 0.0
C2080 C 0.68288 0.74808 0.25854 0.0
C2081 C 0.68674 0.72606 0.30668 0.0
C2082 C 0.68808 0.80167 0.23179 0.0
C2083 C 0.68664 0.79021 0.24134 0.0
C2084 C 0.70449 0.77922 0.26946 0.0
C2085 C 0.68326 0.73854 0.28471 0.0
C2086 C 0.68932 0.75129 0.27389 0.0
C2087 C 0.69931 0.78887 0.24522 0.0
C2088 C 0.69719 0.77599 0.25457 0.0
H2089 H 0.64907 0.70759 0.29364 0.0
H2090 H 0.65961 0.72783 0.27568 0.0
H2091 H 0.70566 0.76989 0.29086 0.0
H2092 H 0.72599 0.81835 0.22525 0.0
H2093 H 0.7235 0.79855 0.24259 0.0
C2094 C 0.26919 0.93776 0.35237 0.0
C2095 C 0.26948 0.95051 0.36066 0.0
C2096 C 0.2599 0.93076 0.33861 0.0
C2097 C 0.24247 0.93972 0.30658 0.0
H2098 H 0.21567 0.89438 0.29874 0.0
C2099 C 0.20223 0.91279 0.25124 0.0
C2100 C 0.2008 0.89913 0.24375 0.0
C2101 C 0.20935 0.91831 0.26618 0.0
C2102 C 0.22322 0.90706 0.30066 0.0
H2103 H 0.26017 0.96583 0.361 0.0
H2104 H 0.24421 0.95376 0.33696 0.0
H2105 H 0.23104 0.90543 0.32338 0.0
H2106 H 0.20507 0.88012 0.24648 0.0
H2107 H 0.21808 0.89012 0.27214 0.0
H2108 H 0.23518 0.94148 0.28382 0.0
C2109 C 0.25113 0.94918 0.34113 0.0
C2110 C 0.23198 0.91335 0.31478 0.0
C2111 C 0.26023 0.95603 0.35494 0.0
C2112 C 0.20624 0.89086 0.25176 0.0
C2113 C 0.21351 0.89648 0.26661 0.0
C2114 C 0.23389 0.93344 0.29241 0.0
C2115 C 0.25092 0.93654 0.3328 0.0
C2116 C 0.24166 0.92974 0.31787 0.0
C2117 C 0.21537 0.91041 0.27393 0.0
C2118 C 0.22413 0.91703 0.28926 0.0
H2119 H 0.27614 0.93319 0.35648 0.0
H2120 H 0.26 0.92107 0.33234 0.0
H2121 H 0.25 0.9524 0.30861 0.0
H2122 H 0.19827 0.91953 0.24542 0.0
H2123 H 0.21029 0.9289 0.27157 0.0
C2124 C 0.69687 0.95458 0.35139 0.0
C2125 C 0.6829 0.95412 0.35204 0.0
C2126 C 0.69923 0.94644 0.3392 0.0
C2127 C 0.7048 0.93732 0.30728 0.0
H2128 H 0.67306 0.89533 0.29069 0.0
C2129 C 0.70862 0.9091 0.24901 0.0
C2130 C 0.70362 0.89295 0.24792 0.0
C2131 C 0.70637 0.91615 0.26223 0.0
C2132 C 0.68209 0.90699 0.2953 0.0
H2133 H 0.66033 0.94446 0.3404 0.0
H2134 H 0.66455 0.93035 0.31898 0.0
H2135 H 0.66828 0.90811 0.31293 0.0
H2136 H 0.69261 0.87163 0.26002 0.0
H2137 H 0.68871 0.88401 0.28323 0.0
H2138 H 0.71867 0.93619 0.2898 0.0
C2139 C 0.67361 0.93692 0.32805 0.0
C2140 C 0.67928 0.91438 0.30791 0.0
C2141 C 0.67123 0.94507 0.34029 0.0
C2142 C 0.69647 0.88406 0.26046 0.0
C2143 C 0.69421 0.89114 0.27372 0.0
C2144 C 0.70759 0.92996 0.29469 0.0
C2145 C 0.68771 0.93765 0.32731 0.0
C2146 C 0.69061 0.92965 0.31401 0.0
C2147 C 0.69905 0.90724 0.2747 0.0
C2148 C 0.69625 0.91475 0.2885 0.0
H2149 H 0.70609 0.9613 0.36028 0.0
H2150 H 0.71012 0.94703 0.33912 0.0
H2151 H 0.71372 0.94915 0.31159 0.0
H2152 H 0.71384 0.91621 0.23941 0.0
H2153 H 0.71 0.92852 0.2625 0.0
C2154 C 0.06094 0.74959 0.3068 0.0
C2155 C 0.05282 0.73374 0.3009 0.0
C2156 C 0.0671 0.7616 0.29668 0.0
C2157 C 0.07795 0.76732 0.25567 0.0
H2158 H 0.08775 0.81001 0.267 0.0
C2159 C 0.1057 0.81705 0.21446 0.0
C2160 C 0.12017 0.82947 0.22044 0.0
C2161 C 0.09566 0.80597 0.22415 0.0
C2162 C 0.08498 0.79809 0.26372 0.0
H2163 H 0.04375 0.71781 0.28009 0.0
H2164 H 0.05339 0.73864 0.26238 0.0
H2165 H 0.07251 0.7891 0.28383 0.0
H2166 H 0.13531 0.84054 0.24122 0.0
H2167 H 0.11749 0.82131 0.25834 0.0
H2168 H 0.09014 0.77637 0.23538 0.0
C2169 C 0.05583 0.74199 0.27472 0.0
C2170 C 0.07637 0.78612 0.27338 0.0
C2171 C 0.05011 0.73002 0.28483 0.0
C2172 C 0.1242 0.83103 0.23639 0.0
C2173 C 0.11401 0.82013 0.24615 0.0
C2174 C 0.0862 0.7792 0.24588 0.0
C2175 C 0.06491 0.75796 0.28046 0.0
C2176 C 0.07293 0.77058 0.26963 0.0
C2177 C 0.09981 0.80733 0.24003 0.0
C2178 C 0.08998 0.7947 0.24992 0.0
H2179 H 0.06326 0.75267 0.3192 0.0
H2180 H 0.07416 0.77367 0.30165 0.0
H2181 H 0.07599 0.75571 0.25247 0.0
H2182 H 0.10241 0.81556 0.20217 0.0
H2183 H 0.08476 0.79616 0.21921 0.0
C2184 C 0.25889 0.32308 0.33466 0.0
C2185 C 0.2697 0.33938 0.33696 0.0
C2186 C 0.24716 0.31713 0.32276 0.0
C2187 C 0.22668 0.33002 0.29714 0.0
H2188 H 0.21793 0.29404 0.26915 0.0
C2189 C 0.20272 0.32163 0.2348 0.0
C2190 C 0.19025 0.30679 0.22903 0.0
C2191 C 0.21018 0.32359 0.24922 0.0
C2192 C 0.22007 0.30393 0.27704 0.0
H2193 H 0.27666 0.36213 0.32838 0.0
H2194 H 0.25654 0.35182 0.3078 0.0
H2195 H 0.23526 0.3012 0.2924 0.0
H2196 H 0.17611 0.28228 0.234 0.0
H2197 H 0.18962 0.28571 0.25918 0.0
H2198 H 0.21209 0.33321 0.28148 0.0
C2199 C 0.25688 0.34362 0.3153 0.0
C2200 C 0.22996 0.30803 0.29034 0.0
C2201 C 0.26853 0.34953 0.32709 0.0
C2202 C 0.18569 0.29386 0.23802 0.0
C2203 C 0.19337 0.2958 0.25244 0.0
C2204 C 0.21692 0.32601 0.28386 0.0
C2205 C 0.24599 0.32738 0.31303 0.0
C2206 C 0.23376 0.32144 0.30026 0.0
C2207 C 0.20559 0.31074 0.25821 0.0
C2208 C 0.21389 0.31323 0.27344 0.0
H2209 H 0.25946 0.31491 0.34202 0.0
H2210 H 0.23893 0.30455 0.3213 0.0
H2211 H 0.22905 0.34017 0.30475 0.0
H2212 H 0.20696 0.33177 0.22806 0.0
H2213 H 0.2198 0.33517 0.25323 0.0
C2214 C 0.27693 0.34444 0.42032 0.0
C2215 C 0.28452 0.35795 0.41205 0.0
C2216 C 0.26987 0.34467 0.43385 0.0
C2217 C 0.26895 0.37174 0.46447 0.0
H2218 H 0.22872 0.33577 0.47033 0.0
C2219 C 0.22973 0.37336 0.51047 0.0
C2220 C 0.22131 0.35984 0.51855 0.0
C2221 C 0.23811 0.37318 0.49805 0.0
C2222 C 0.24004 0.34582 0.46898 0.0
H2223 H 0.29071 0.38239 0.41171 0.0
H2224 H 0.27826 0.38271 0.43515 0.0
H2225 H 0.24213 0.33531 0.44766 0.0
H2226 H 0.21553 0.33569 0.52023 0.0
H2227 H 0.23013 0.33538 0.49854 0.0
H2228 H 0.26675 0.38231 0.48573 0.0
C2229 C 0.27795 0.37198 0.43128 0.0
C2230 C 0.24773 0.34556 0.45598 0.0
C2231 C 0.28502 0.37176 0.41776 0.0
C2232 C 0.22167 0.34622 0.51407 0.0
C2233 C 0.23004 0.34603 0.50165 0.0
C2234 C 0.26124 0.37201 0.47746 0.0
C2235 C 0.27021 0.35842 0.43944 0.0
C2236 C 0.26226 0.35854 0.45353 0.0
C2237 C 0.23826 0.35947 0.49342 0.0
C2238 C 0.24667 0.35908 0.47984 0.0
H2239 H 0.27638 0.33362 0.41633 0.0
H2240 H 0.26419 0.33409 0.43998 0.0
H2241 H 0.28022 0.38184 0.46305 0.0
H2242 H 0.22952 0.38397 0.51349 0.0
H2243 H 0.24415 0.38366 0.49183 0.0
C2244 C 0.64435 0.93602 0.41723 0.0
C2245 C 0.65882 0.94975 0.42076 0.0
C2246 C 0.63842 0.92394 0.42729 0.0
C2247 C 0.63567 0.89662 0.44443 0.0
H2248 H 0.64149 0.90508 0.4892 0.0
C2249 C 0.63731 0.85375 0.4855 0.0
C2250 C 0.63086 0.85227 0.49989 0.0
C2251 C 0.63805 0.86475 0.47563 0.0
C2252 C 0.63957 0.90246 0.47673 0.0
H2253 H 0.67801 0.96187 0.43805 0.0
H2254 H 0.66771 0.94089 0.45548 0.0
H2255 H 0.64725 0.92647 0.47287 0.0
H2256 H 0.61986 0.86096 0.5151 0.0
H2257 H 0.62101 0.88008 0.49777 0.0
H2258 H 0.6282 0.87266 0.44829 0.0
C2259 C 0.66091 0.93943 0.44498 0.0
C2260 C 0.64301 0.91475 0.46737 0.0
C2261 C 0.66687 0.95144 0.43491 0.0
C2262 C 0.62478 0.86173 0.50402 0.0
C2263 C 0.62558 0.87278 0.49417 0.0
C2264 C 0.63228 0.88434 0.45379 0.0
C2265 C 0.64677 0.9254 0.44115 0.0
C2266 C 0.64138 0.91204 0.45111 0.0
C2267 C 0.6324 0.87456 0.47995 0.0
C2268 C 0.63447 0.88718 0.47004 0.0
H2269 H 0.63783 0.93433 0.40644 0.0
H2270 H 0.62741 0.91333 0.4241 0.0
H2271 H 0.6344 0.89416 0.43194 0.0
H2272 H 0.64197 0.84653 0.48194 0.0
H2273 H 0.64352 0.86592 0.46483 0.0
C2274 C 0.06529 0.73249 0.38058 0.0
C2275 C 0.06632 0.72066 0.37204 0.0
C2276 C 0.07425 0.73974 0.39446 0.0
C2277 C 0.10867 0.74532 0.41699 0.0
H2278 H 0.09201 0.7575 0.45099 0.0
C2279 C 0.13474 0.76123 0.4805 0.0
C2280 C 0.136 0.77471 0.48828 0.0
C2281 C 0.12719 0.75559 0.46574 0.0
C2282 C 0.09685 0.75429 0.44153 0.0
H2283 H 0.07723 0.70685 0.37159 0.0
H2284 H 0.09234 0.71899 0.39602 0.0
H2285 H 0.07653 0.7454 0.42664 0.0
H2286 H 0.13093 0.79326 0.48621 0.0
H2287 H 0.11737 0.7831 0.46065 0.0
H2288 H 0.12878 0.75375 0.43223 0.0
C2289 C 0.08506 0.72312 0.39179 0.0
C2290 C 0.08802 0.7474 0.42754 0.0
C2291 C 0.0763 0.71606 0.37781 0.0
C2292 C 0.12989 0.78265 0.48073 0.0
C2293 C 0.12217 0.77689 0.46608 0.0
C2294 C 0.1174 0.752 0.43107 0.0
C2295 C 0.08427 0.73515 0.40026 0.0
C2296 C 0.09379 0.74279 0.41508 0.0
C2297 C 0.12059 0.76321 0.45853 0.0
C2298 C 0.11156 0.75653 0.44346 0.0
H2299 H 0.0578 0.73637 0.37638 0.0
H2300 H 0.07348 0.74912 0.40051 0.0
H2301 H 0.11365 0.74225 0.40758 0.0
H2302 H 0.1391 0.75468 0.48601 0.0
H2303 H 0.12603 0.74494 0.4602 0.0
C2304 C 0.30978 0.05088 0.7073 0.0
C2305 C 0.32188 0.048 0.708 0.0
C2306 C 0.30793 0.05935 0.71956 0.0
C2307 C 0.32796 0.08625 0.75497 0.0
H2308 H 0.28643 0.07169 0.76606 0.0
C2309 C 0.29467 0.09431 0.80932 0.0
C2310 C 0.30414 0.11063 0.81309 0.0
C2311 C 0.29661 0.08723 0.79589 0.0
C2312 C 0.29811 0.07585 0.7632 0.0
H2313 H 0.34166 0.05195 0.7221 0.0
H2314 H 0.33821 0.06643 0.74372 0.0
H2315 H 0.29069 0.0582 0.74428 0.0
H2316 H 0.32265 0.13245 0.80551 0.0
H2317 H 0.32583 0.12017 0.78183 0.0
H2318 H 0.3354 0.1035 0.77431 0.0
C2319 C 0.33031 0.06239 0.73353 0.0
C2320 C 0.30055 0.06824 0.75056 0.0
C2321 C 0.33225 0.05402 0.72117 0.0
C2322 C 0.3153 0.11981 0.80295 0.0
C2323 C 0.31716 0.11275 0.78944 0.0
C2324 C 0.32552 0.0938 0.76769 0.0
C2325 C 0.31803 0.06503 0.73293 0.0
C2326 C 0.31551 0.07332 0.74629 0.0
C2327 C 0.30799 0.09634 0.78586 0.0
C2328 C 0.31056 0.08866 0.772 0.0
H2329 H 0.30168 0.04659 0.69725 0.0
H2330 H 0.29856 0.06145 0.71854 0.0
H2331 H 0.33961 0.09059 0.75191 0.0
H2332 H 0.28612 0.08692 0.81706 0.0
H2333 H 0.28949 0.07453 0.79364 0.0
C2334 C 0.93051 0.26502 0.76049 0.0
C2335 C 0.94377 0.2684 0.75296 0.0
C2336 C 0.92466 0.25365 0.77116 0.0
C2337 C 0.92436 0.21888 0.78418 0.0
H2338 H 0.90762 0.22809 0.82016 0.0
C2339 C 0.89662 0.17794 0.83496 0.0
C2340 C 0.8821 0.17546 0.83808 0.0
C2341 C 0.90569 0.18895 0.82461 0.0
C2342 C 0.91228 0.22537 0.81019 0.0
H2343 H 0.96113 0.26219 0.75058 0.0
H2344 H 0.9509 0.24228 0.76953 0.0
H2345 H 0.92118 0.24834 0.80238 0.0
H2346 H 0.86539 0.18189 0.83195 0.0
H2347 H 0.88136 0.20132 0.8144 0.0
H2348 H 0.91528 0.19577 0.79221 0.0
C2349 C 0.94503 0.24845 0.76701 0.0
C2350 C 0.91999 0.23693 0.79996 0.0
C2351 C 0.9509 0.25988 0.75619 0.0
C2352 C 0.87668 0.18382 0.83022 0.0
C2353 C 0.88578 0.1949 0.82009 0.0
C2354 C 0.91673 0.2073 0.79458 0.0
C2355 C 0.93194 0.24538 0.77474 0.0
C2356 C 0.92568 0.23367 0.78656 0.0
C2357 C 0.90044 0.19775 0.81737 0.0
C2358 C 0.91024 0.21035 0.8074 0.0
H2359 H 0.92455 0.27115 0.75816 0.0
H2360 H 0.91432 0.25128 0.77657 0.0
H2361 H 0.92859 0.216 0.77396 0.0
H2362 H 0.90117 0.17175 0.84086 0.0
H2363 H 0.91698 0.19098 0.82267 0.0
C2364 C 0.73676 0.65087 0.72599 0.0
C2365 C 0.73288 0.66133 0.72007 0.0
C2366 C 0.74748 0.65575 0.73858 0.0
C2367 C 0.7782 0.69069 0.76275 0.0
H2368 H 0.76776 0.65975 0.79286 0.0
C2369 C 0.80808 0.70303 0.82507 0.0
C2370 C 0.81048 0.69119 0.83004 0.0
C2371 C 0.80026 0.70088 0.8107 0.0
C2372 C 0.77094 0.66847 0.78449 0.0
H2373 H 0.73762 0.68531 0.72245 0.0
H2374 H 0.75616 0.69377 0.74481 0.0
H2375 H 0.75077 0.65323 0.76985 0.0
H2376 H 0.80778 0.6685 0.82335 0.0
H2377 H 0.79415 0.66474 0.7984 0.0
H2378 H 0.79831 0.70604 0.77783 0.0
C2379 C 0.75103 0.68183 0.73953 0.0
C2380 C 0.76121 0.66473 0.77125 0.0
C2381 C 0.74037 0.67697 0.72675 0.0
C2382 C 0.8058 0.67766 0.81998 0.0
C2383 C 0.798 0.67552 0.8057 0.0
C2384 C 0.78794 0.6945 0.77614 0.0
C2385 C 0.75449 0.67116 0.74577 0.0
C2386 C 0.7648 0.67567 0.76008 0.0
C2387 C 0.79472 0.68685 0.80112 0.0
C2388 C 0.78448 0.68332 0.78702 0.0
H2389 H 0.73143 0.63882 0.72097 0.0
H2390 H 0.75018 0.64734 0.74279 0.0
H2391 H 0.78134 0.69938 0.75436 0.0
H2392 H 0.81152 0.71356 0.83262 0.0
H2393 H 0.79787 0.7098 0.80746 0.0
C2394 C 0.71239 0.63085 0.63568 0.0
C2395 C 0.71796 0.64524 0.64464 0.0
C2396 C 0.71902 0.63025 0.62196 0.0
C2397 C 0.74477 0.65559 0.59276 0.0
H2398 H 0.74928 0.61965 0.58323 0.0
C2399 C 0.78492 0.65479 0.54752 0.0
C2400 C 0.77904 0.64118 0.53718 0.0
C2401 C 0.77664 0.65516 0.55993 0.0
C2402 C 0.74795 0.62967 0.58566 0.0
H2403 H 0.73487 0.67031 0.64614 0.0
H2404 H 0.74675 0.66921 0.62249 0.0
H2405 H 0.73661 0.62065 0.60632 0.0
H2406 H 0.75963 0.61737 0.53175 0.0
H2407 H 0.74539 0.61793 0.55372 0.0
H2408 H 0.75661 0.66479 0.57229 0.0
C2409 C 0.737 0.65842 0.62584 0.0
C2410 C 0.74064 0.63025 0.59887 0.0
C2411 C 0.73025 0.65904 0.63948 0.0
C2412 C 0.76464 0.62796 0.53959 0.0
C2413 C 0.75644 0.62829 0.55213 0.0
C2414 C 0.75224 0.65509 0.57965 0.0
C2415 C 0.73152 0.644 0.61693 0.0
C2416 C 0.73899 0.64324 0.60263 0.0
C2417 C 0.76237 0.64189 0.56243 0.0
C2418 C 0.75394 0.64215 0.576 0.0
H2419 H 0.70283 0.62 0.63922 0.0
H2420 H 0.71427 0.61899 0.61527 0.0
H2421 H 0.74346 0.66564 0.5951 0.0
H2422 H 0.7961 0.66508 0.54627 0.0
H2423 H 0.78159 0.66573 0.56783 0.0
C2424 C 0.33755 0.04575 0.62302 0.0
C2425 C 0.34414 0.04973 0.6383 0.0
C2426 C 0.34284 0.05704 0.61221 0.0
C2427 C 0.37389 0.09761 0.6046 0.0
H2428 H 0.3411 0.09569 0.57894 0.0
C2429 C 0.37974 0.14844 0.56889 0.0
C2430 C 0.37196 0.14384 0.55409 0.0
C2431 C 0.37823 0.13705 0.57873 0.0
C2432 C 0.35043 0.0963 0.58588 0.0
H2433 H 0.36196 0.06845 0.65405 0.0
H2434 H 0.37095 0.08839 0.63526 0.0
H2435 H 0.3351 0.07562 0.5968 0.0
H2436 H 0.35751 0.1238 0.53756 0.0
H2437 H 0.3548 0.10402 0.55471 0.0
H2438 H 0.38913 0.11872 0.59381 0.0
C2439 C 0.36185 0.07646 0.63154 0.0
C2440 C 0.347 0.08473 0.59611 0.0
C2441 C 0.35668 0.06505 0.64233 0.0
C2442 C 0.36333 0.1277 0.54904 0.0
C2443 C 0.3618 0.11638 0.55884 0.0
C2444 C 0.37732 0.10932 0.5944 0.0
C2445 C 0.35468 0.07269 0.61646 0.0
C2446 C 0.35867 0.08513 0.60553 0.0
C2447 C 0.36891 0.12089 0.57393 0.0
C2448 C 0.3656 0.10868 0.58486 0.0
H2449 H 0.32803 0.03397 0.61949 0.0
H2450 H 0.33736 0.05357 0.60058 0.0
H2451 H 0.38318 0.09824 0.61162 0.0
H2452 H 0.38644 0.16079 0.57311 0.0
H2453 H 0.3838 0.14087 0.59032 0.0
C2454 C 0.93245 0.28825 0.67214 0.0
C2455 C 0.94093 0.28282 0.67983 0.0
C2456 C 0.92486 0.28124 0.65766 0.0
C2457 C 0.90721 0.24437 0.63324 0.0
H2458 H 0.91007 0.27042 0.60023 0.0
C2459 C 0.87799 0.21802 0.57167 0.0
C2460 C 0.87187 0.22579 0.56385 0.0
C2461 C 0.88663 0.22462 0.58581 0.0
C2462 C 0.90896 0.26297 0.60938 0.0
H2463 H 0.94817 0.26578 0.67827 0.0
H2464 H 0.93462 0.25332 0.65291 0.0
H2465 H 0.92524 0.28277 0.62469 0.0
H2466 H 0.86983 0.24649 0.565 0.0
H2467 H 0.88426 0.25761 0.58991 0.0
H2468 H 0.89061 0.22458 0.61814 0.0
C2469 C 0.93395 0.26307 0.65818 0.0
C2470 C 0.91774 0.27005 0.62335 0.0
C2471 C 0.94175 0.27025 0.67263 0.0
C2472 C 0.87422 0.24008 0.57074 0.0
C2473 C 0.88273 0.24661 0.58493 0.0
C2474 C 0.8983 0.23727 0.61931 0.0
C2475 C 0.92543 0.26851 0.65058 0.0
C2476 C 0.91686 0.26084 0.63545 0.0
C2477 C 0.88925 0.23909 0.59253 0.0
C2478 C 0.89896 0.2465 0.60725 0.0
H2479 H 0.93163 0.29795 0.67732 0.0
H2480 H 0.91826 0.28557 0.65212 0.0
H2481 H 0.90621 0.23701 0.64247 0.0
H2482 H 0.87623 0.20687 0.5668 0.0
H2483 H 0.89154 0.21854 0.59127 0.0
C2484 C 0.36054 0.28277 0.68454 0.0
C2485 C 0.35163 0.28959 0.68231 0.0
C2486 C 0.36226 0.27417 0.67229 0.0
C2487 C 0.34667 0.25565 0.63194 0.0
H2488 H 0.38568 0.2579 0.63038 0.0
C2489 C 0.36957 0.2403 0.57735 0.0
C2490 C 0.37168 0.22754 0.57878 0.0
C2491 C 0.36683 0.24724 0.59033 0.0
C2492 C 0.37472 0.25713 0.63077 0.0
H2493 H 0.33749 0.29279 0.66557 0.0
H2494 H 0.34113 0.27853 0.64393 0.0
H2495 H 0.38136 0.27143 0.6522 0.0
H2496 H 0.37279 0.21205 0.59467 0.0
H2497 H 0.36861 0.22473 0.61772 0.0
H2498 H 0.34053 0.24204 0.60994 0.0
C2499 C 0.34637 0.27927 0.65524 0.0
C2500 C 0.37214 0.26476 0.64331 0.0
C2501 C 0.34435 0.28755 0.66762 0.0
C2502 C 0.37128 0.22195 0.59341 0.0
C2503 C 0.36888 0.22915 0.60649 0.0
C2504 C 0.34941 0.24834 0.61924 0.0
C2505 C 0.35544 0.27252 0.65738 0.0
C2506 C 0.35807 0.26413 0.6441 0.0
C2507 C 0.36646 0.24171 0.60497 0.0
C2508 C 0.36344 0.24903 0.61859 0.0
H2509 H 0.36612 0.28398 0.69582 0.0
H2510 H 0.36896 0.26881 0.67458 0.0
H2511 H 0.33558 0.25457 0.63221 0.0
H2512 H 0.36968 0.24464 0.5661 0.0
H2513 H 0.36502 0.25694 0.58897 0.0
C2514 C 0.72829 0.05516 0.61229 0.0
C2515 C 0.72188 0.0577 0.62549 0.0
C2516 C 0.7356 0.06691 0.60216 0.0
C2517 C 0.74056 0.1038 0.58925 0.0
H2518 H 0.77953 0.11013 0.57721 0.0
C2519 C 0.78291 0.15484 0.553 0.0
C2520 C 0.79008 0.15074 0.54162 0.0
C2521 C 0.77382 0.14396 0.56343 0.0
C2522 C 0.7686 0.10842 0.58032 0.0
H2523 H 0.7175 0.07439 0.63794 0.0
H2524 H 0.73044 0.09509 0.62012 0.0
H2525 H 0.76483 0.0903 0.59495 0.0
H2526 H 0.79263 0.13178 0.53165 0.0
H2527 H 0.77684 0.11287 0.54972 0.0
H2528 H 0.74441 0.12197 0.57443 0.0
C2529 C 0.72973 0.08391 0.6177 0.0
C2530 C 0.76018 0.09707 0.5905 0.0
C2531 C 0.72235 0.07207 0.6279 0.0
C2532 C 0.78757 0.13541 0.54054 0.0
C2533 C 0.77852 0.12458 0.5509 0.0
C2534 C 0.74903 0.11522 0.57898 0.0
C2535 C 0.73676 0.08156 0.60495 0.0
C2536 C 0.74594 0.09441 0.59487 0.0
C2537 C 0.77176 0.12879 0.56264 0.0
C2538 C 0.76302 0.11744 0.57421 0.0
H2539 H 0.72794 0.04416 0.60989 0.0
H2540 H 0.74058 0.0646 0.59223 0.0
H2541 H 0.72961 0.10199 0.59241 0.0
H2542 H 0.78467 0.16658 0.55412 0.0
H2543 H 0.76881 0.14756 0.57239 0.0
C2544 C 0.92054 0.65507 0.66294 0.0
C2545 C 0.93226 0.67109 0.66504 0.0
C2546 C 0.90895 0.64976 0.651 0.0
C2547 C 0.89049 0.66464 0.62534 0.0
H2548 H 0.87857 0.62735 0.59785 0.0
C2549 C 0.86414 0.65616 0.56394 0.0
C2550 C 0.85153 0.64134 0.55841 0.0
C2551 C 0.87196 0.65813 0.57814 0.0
C2552 C 0.88159 0.63764 0.6056 0.0
H2553 H 0.94107 0.69398 0.65594 0.0
H2554 H 0.92112 0.68473 0.63528 0.0
H2555 H 0.8962 0.63379 0.62068 0.0
H2556 H 0.83737 0.6169 0.56357 0.0
H2557 H 0.85139 0.62035 0.5884 0.0
H2558 H 0.87635 0.66881 0.61007 0.0
C2559 C 0.92067 0.6763 0.64299 0.0
C2560 C 0.89168 0.64132 0.61865 0.0
C2561 C 0.93221 0.68158 0.65482 0.0
C2562 C 0.84707 0.62846 0.56743 0.0
C2563 C 0.85506 0.63042 0.58165 0.0
C2564 C 0.8805 0.661 0.61233 0.0
C2565 C 0.90883 0.66038 0.64101 0.0
C2566 C 0.89658 0.65514 0.62839 0.0
C2567 C 0.86753 0.64532 0.58716 0.0
C2568 C 0.8763 0.64773 0.60208 0.0
H2569 H 0.92024 0.64666 0.67057 0.0
H2570 H 0.89996 0.63741 0.64975 0.0
H2571 H 0.89375 0.67515 0.63284 0.0
H2572 H 0.86825 0.66625 0.55715 0.0
H2573 H 0.88175 0.66968 0.58192 0.0
C2574 C 0.9443 0.681 0.7527 0.0
C2575 C 0.9437 0.68857 0.73974 0.0
C2576 C 0.93766 0.68204 0.76627 0.0
C2577 C 0.92073 0.70406 0.78528 0.0
H2578 H 0.90566 0.66988 0.81215 0.0
C2579 C 0.89414 0.7071 0.84239 0.0
C2580 C 0.88238 0.69295 0.84765 0.0
C2581 C 0.90252 0.70688 0.82997 0.0
C2582 C 0.90953 0.67946 0.8047 0.0
H2583 H 0.9354 0.70279 0.73051 0.0
H2584 H 0.9228 0.70367 0.75364 0.0
H2585 H 0.91732 0.66839 0.78878 0.0
H2586 H 0.87071 0.66739 0.84399 0.0
H2587 H 0.88415 0.66702 0.82169 0.0
H2588 H 0.91175 0.71447 0.80049 0.0
C2589 C 0.92904 0.69759 0.75382 0.0
C2590 C 0.91661 0.67877 0.79135 0.0
C2591 C 0.93613 0.69698 0.74044 0.0
C2592 C 0.87936 0.67859 0.84014 0.0
C2593 C 0.8874 0.67837 0.82745 0.0
C2594 C 0.91323 0.70452 0.79838 0.0
C2595 C 0.9298 0.69026 0.76702 0.0
C2596 C 0.92235 0.69106 0.78141 0.0
C2597 C 0.89913 0.69251 0.82213 0.0
C2598 C 0.90749 0.69222 0.80832 0.0
H2599 H 0.95024 0.67459 0.75246 0.0
H2600 H 0.93891 0.67655 0.77619 0.0
H2601 H 0.92526 0.71399 0.77824 0.0
H2602 H 0.89678 0.71845 0.84763 0.0
H2603 H 0.91165 0.71805 0.82656 0.0
C2604 C 0.31523 0.27187 0.7475 0.0
C2605 C 0.32885 0.28647 0.75133 0.0
C2606 C 0.30995 0.25996 0.75779 0.0
C2607 C 0.32598 0.24743 0.78815 0.0
H2608 H 0.28408 0.2195 0.79856 0.0
C2609 C 0.31317 0.20583 0.83584 0.0
C2610 C 0.30074 0.19025 0.83314 0.0
C2611 C 0.31506 0.21728 0.82604 0.0
C2612 C 0.29581 0.22712 0.79562 0.0
H2613 H 0.34682 0.30049 0.76947 0.0
H2614 H 0.33757 0.2799 0.7873 0.0
H2615 H 0.28982 0.24024 0.78108 0.0
H2616 H 0.2802 0.17455 0.81842 0.0
H2617 H 0.28364 0.19462 0.80098 0.0
H2618 H 0.33208 0.2344 0.80236 0.0
C2619 C 0.33118 0.27747 0.77624 0.0
C2620 C 0.29908 0.23898 0.78565 0.0
C2621 C 0.33645 0.28928 0.76602 0.0
C2622 C 0.28989 0.18648 0.82073 0.0
C2623 C 0.29185 0.19797 0.8108 0.0
C2624 C 0.32273 0.23561 0.79799 0.0
C2625 C 0.31821 0.2625 0.77204 0.0
C2626 C 0.31426 0.24942 0.78204 0.0
C2627 C 0.30464 0.21344 0.81319 0.0
C2628 C 0.30767 0.22547 0.80207 0.0
H2629 H 0.3091 0.26935 0.73628 0.0
H2630 H 0.29989 0.24853 0.75426 0.0
H2631 H 0.33774 0.255 0.78525 0.0
H2632 H 0.3215 0.20915 0.84554 0.0
H2633 H 0.3248 0.22917 0.82848 0.0
C2634 C 0.73114 0.0567 0.70847 0.0
C2635 C 0.73419 0.04792 0.6974 0.0
C2636 C 0.7407 0.06383 0.72202 0.0
C2637 C 0.76906 0.06139 0.74728 0.0
H2638 H 0.77904 0.10284 0.76417 0.0
C2639 C 0.81122 0.09396 0.80114 0.0
C2640 C 0.80645 0.10101 0.81236 0.0
C2641 C 0.80331 0.08823 0.78653 0.0
C2642 C 0.77628 0.09121 0.75964 0.0
H2643 H 0.74989 0.04004 0.69185 0.0
H2644 H 0.76659 0.05262 0.71534 0.0
H2645 H 0.76341 0.09141 0.73977 0.0
H2646 H 0.7895 0.10738 0.81708 0.0
H2647 H 0.77585 0.09755 0.79165 0.0
H2648 H 0.78187 0.06117 0.76719 0.0
C2649 C 0.75667 0.05376 0.71367 0.0
C2650 C 0.7673 0.08465 0.74568 0.0
C2651 C 0.7471 0.0466 0.70015 0.0
C2652 C 0.79369 0.10233 0.80861 0.0
C2653 C 0.78584 0.09667 0.79402 0.0
C2654 C 0.77808 0.06797 0.76121 0.0
C2655 C 0.75354 0.06238 0.72481 0.0
C2656 C 0.76348 0.06961 0.7394 0.0
C2657 C 0.7905 0.08948 0.78285 0.0
C2658 C 0.78167 0.08289 0.76761 0.0
H2659 H 0.72128 0.05793 0.70677 0.0
H2660 H 0.73785 0.07022 0.73046 0.0
H2661 H 0.76616 0.04968 0.74288 0.0
H2662 H 0.82109 0.09291 0.80362 0.0
H2663 H 0.80727 0.0829 0.77809 0.0
C2664 C 0.0506 0.36215 0.04562 0.0
C2665 C 0.03597 0.34911 0.04097 0.0
C2666 C 0.06072 0.36038 0.05539 0.0
C2667 C 0.07078 0.33189 0.06497 0.0
H2668 H 0.08546 0.35378 0.106 0.0
C2669 C 0.10087 0.31321 0.1082 0.0
C2670 C 0.11312 0.32494 0.11812 0.0
C2671 C 0.0916 0.3168 0.09933 0.0
C2672 C 0.08171 0.34775 0.09448 0.0
H2673 H 0.02051 0.32403 0.04279 0.0
H2674 H 0.03829 0.32093 0.05936 0.0
H2675 H 0.06998 0.35982 0.08894 0.0
H2676 H 0.12466 0.34958 0.12697 0.0
H2677 H 0.10911 0.35601 0.11089 0.0
H2678 H 0.08267 0.3201 0.07008 0.0
C2679 C 0.04185 0.33251 0.05564 0.0
C2680 C 0.07283 0.35122 0.08476 0.0
C2681 C 0.03168 0.33432 0.04621 0.0
C2682 C 0.11555 0.34027 0.11923 0.0
C2683 C 0.10644 0.34393 0.11015 0.0
C2684 C 0.07986 0.32864 0.07453 0.0
C2685 C 0.05645 0.34548 0.06029 0.0
C2686 C 0.0671 0.34312 0.07004 0.0
C2687 C 0.09447 0.33229 0.09989 0.0
C2688 C 0.08524 0.3363 0.08954 0.0
H2689 H 0.05417 0.37368 0.04177 0.0
H2690 H 0.07197 0.37053 0.05886 0.0
H2691 H 0.06655 0.32559 0.05359 0.0
H2692 H 0.09867 0.3013 0.10687 0.0
H2693 H 0.08225 0.30738 0.0919 0.0
C2694 C 0.6529 0.68196 0.08312 0.0
C2695 C 0.65827 0.67171 0.08535 0.0
C2696 C 0.66001 0.69675 0.09132 0.0
C2697 C 0.68119 0.72066 0.12558 0.0
H2698 H 0.69711 0.75525 0.09901 0.0
C2699 C 0.70561 0.7855 0.1498 0.0
C2700 C 0.69991 0.79336 0.14149 0.0
C2701 C 0.70348 0.77113 0.1436 0.0
C2702 C 0.69272 0.74574 0.10661 0.0
H2703 H 0.67468 0.66847 0.09855 0.0
H2704 H 0.68691 0.69442 0.1133 0.0
H2705 H 0.68673 0.72836 0.08763 0.0
H2706 H 0.68822 0.7928 0.11992 0.0
H2707 H 0.68421 0.76775 0.1093 0.0
H2708 H 0.68629 0.7379 0.14448 0.0
C2709 C 0.67734 0.69096 0.105 0.0
C2710 C 0.68686 0.7304 0.10009 0.0
C2711 C 0.67036 0.67618 0.09658 0.0
C2712 C 0.69255 0.7869 0.12668 0.0
C2713 C 0.69045 0.77263 0.12051 0.0
C2714 C 0.68689 0.73605 0.13212 0.0
C2715 C 0.67246 0.70148 0.10208 0.0
C2716 C 0.68066 0.71772 0.10946 0.0
C2717 C 0.69572 0.76447 0.12894 0.0
C2718 C 0.69224 0.74868 0.12261 0.0
H2719 H 0.64359 0.67884 0.07459 0.0
H2720 H 0.65599 0.70467 0.08904 0.0
H2721 H 0.67643 0.71098 0.13298 0.0
H2722 H 0.71129 0.79022 0.16127 0.0
H2723 H 0.70776 0.76516 0.15032 0.0
C2724 C 0.32608 0.9595 0.03636 0.0
C2725 C 0.33634 0.97556 0.0409 0.0
C2726 C 0.31334 0.95052 0.04488 0.0
C2727 C 0.2978 0.94984 0.08309 0.0
H2728 H 0.2581 0.92421 0.06049 0.0
C2729 C 0.24166 0.92674 0.11352 0.0
C2730 C 0.22968 0.91118 0.10929 0.0
C2731 C 0.25465 0.93385 0.10497 0.0
C2732 C 0.26911 0.93114 0.06697 0.0
H2733 H 0.3416 0.99469 0.05815 0.0
H2734 H 0.31948 0.97908 0.07296 0.0
H2735 H 0.28123 0.93745 0.04625 0.0
H2736 H 0.22176 0.89103 0.09249 0.0
H2737 H 0.24457 0.90336 0.0777 0.0
H2738 H 0.28575 0.94366 0.10381 0.0
C2739 C 0.32126 0.97337 0.06289 0.0
C2740 C 0.28236 0.9387 0.05881 0.0
C2741 C 0.33389 0.98234 0.05434 0.0
C2742 C 0.23086 0.90298 0.09613 0.0
C2743 C 0.24387 0.9101 0.08758 0.0
C2744 C 0.28458 0.94227 0.09124 0.0
C2745 C 0.31073 0.95742 0.05816 0.0
C2746 C 0.29682 0.94831 0.06679 0.0
C2747 C 0.25598 0.92556 0.09201 0.0
C2748 C 0.27006 0.93301 0.08328 0.0
H2749 H 0.32771 0.95397 0.02605 0.0
H2750 H 0.30549 0.93821 0.04104 0.0
H2751 H 0.3088 0.95697 0.08957 0.0
H2752 H 0.24121 0.93332 0.12369 0.0
H2753 H 0.26366 0.94586 0.10855 0.0
C2754 C 0.37664 0.04826 0.00372 0.0
C2755 C 0.36894 0.03254 0.99729 0.0
C2756 C 0.3742 0.05937 0.99697 0.0
C2757 C 0.35944 0.0666 0.96077 0.0
H2758 H 0.3459 0.08895 0.98765 0.0
C2759 C 0.32238 0.08935 0.93678 0.0
C2760 C 0.32543 0.10428 0.9425 0.0
C2761 C 0.32964 0.08241 0.94381 0.0
C2762 C 0.34989 0.08301 0.98001 0.0
H2763 H 0.35334 0.01627 0.97842 0.0
H2764 H 0.34932 0.03554 0.9666 0.0
H2765 H 0.35646 0.07428 0.999 0.0
H2766 H 0.33824 0.12347 0.96036 0.0
H2767 H 0.35107 0.11135 0.97261 0.0
H2768 H 0.35259 0.07496 0.94178 0.0
C2769 C 0.35716 0.03937 0.97683 0.0
C2770 C 0.35598 0.07465 0.98652 0.0
C2771 C 0.35939 0.0283 0.98366 0.0
C2772 C 0.33572 0.11199 0.95563 0.0
C2773 C 0.34299 0.10501 0.9627 0.0
C2774 C 0.35341 0.07496 0.95429 0.0
C2775 C 0.36429 0.05495 0.98354 0.0
C2776 C 0.3604 0.066 0.97693 0.0
C2777 C 0.34018 0.09023 0.95673 0.0
C2778 C 0.34814 0.08287 0.9638 0.0
H2779 H 0.384 0.05179 0.01427 0.0
H2780 H 0.37988 0.07132 0.00234 0.0
H2781 H 0.36298 0.06024 0.95311 0.0
H2782 H 0.3147 0.08318 0.92657 0.0
H2783 H 0.327 0.07088 0.93909 0.0
C2784 C 0.96831 0.30816 0.98529 0.0
C2785 C 0.98432 0.31573 0.98521 0.0
C2786 C 0.95888 0.29488 0.97517 0.0
C2787 C 0.9586 0.26233 0.95248 0.0
H2788 H 0.91904 0.25432 0.93674 0.0
C2789 C 0.91169 0.20473 0.91611 0.0
C2790 C 0.89728 0.19781 0.92247 0.0
C2791 C 0.9236 0.2198 0.92179 0.0
C2792 C 0.93008 0.25645 0.941 0.0
H2793 H 0.00307 0.31565 0.97419 0.0
H2794 H 0.98651 0.29243 0.95625 0.0
H2795 H 0.93778 0.28016 0.94946 0.0
H2796 H 0.88442 0.20107 0.94034 0.0
H2797 H 0.90496 0.22744 0.94979 0.0
H2798 H 0.95068 0.23843 0.94401 0.0
C2799 C 0.98127 0.29667 0.96432 0.0
C2800 C 0.94079 0.27119 0.94834 0.0
C2801 C 0.99075 0.30999 0.97453 0.0
C2802 C 0.89519 0.20617 0.93484 0.0
C2803 C 0.90696 0.22126 0.94032 0.0
C2804 C 0.94791 0.24759 0.94494 0.0
C2805 C 0.96522 0.28889 0.96463 0.0
C2806 C 0.95496 0.27414 0.95466 0.0
C2807 C 0.92121 0.22826 0.93377 0.0
C2808 C 0.93339 0.2444 0.9396 0.0
H2809 H 0.963 0.31227 0.99342 0.0
H2810 H 0.94659 0.28903 0.97597 0.0
H2811 H 0.96936 0.26416 0.95728 0.0
H2812 H 0.91367 0.19868 0.90649 0.0
H2813 H 0.93453 0.225 0.91659 0.0
C2814 C 0.68343 0.65323 0.02732 0.0
C2815 C 0.67258 0.63818 0.03164 0.0
C2816 C 0.69597 0.65554 0.01933 0.0
C2817 C 0.70969 0.63879 0.99193 0.0
H2818 H 0.75018 0.66963 0.01067 0.0
C2819 C 0.76456 0.65561 0.96026 0.0
C2820 C 0.77659 0.67152 0.96204 0.0
C2821 C 0.75199 0.65014 0.96938 0.0
C2822 C 0.73898 0.66113 0.00517 0.0
H2823 H 0.66613 0.61364 0.03064 0.0
H2824 H 0.68807 0.61768 0.01599 0.0
H2825 H 0.72765 0.66223 0.02524 0.0
H2826 H 0.78471 0.6941 0.97493 0.0
H2827 H 0.76246 0.68481 0.99018 0.0
H2828 H 0.72077 0.63832 0.97151 0.0
C2829 C 0.68682 0.62764 0.01911 0.0
C2830 C 0.72612 0.65678 0.0136 0.0
C2831 C 0.67434 0.62536 0.02745 0.0
C2832 C 0.77562 0.68183 0.9731 0.0
C2833 C 0.76293 0.6764 0.98206 0.0
C2834 C 0.72254 0.64334 0.98336 0.0
C2835 C 0.69782 0.64282 0.01522 0.0
C2836 C 0.71138 0.64575 0.00697 0.0
C2837 C 0.75096 0.66047 0.98036 0.0
C2838 C 0.73735 0.65478 0.98979 0.0
H2839 H 0.68246 0.66338 0.03042 0.0
H2840 H 0.70426 0.66731 0.01632 0.0
H2841 H 0.69838 0.63039 0.98656 0.0
H2842 H 0.76472 0.64735 0.95168 0.0
H2843 H 0.74311 0.63777 0.96783 0.0
C2844 C 0.95227 0.64197 0.01538 0.0
C2845 C 0.96802 0.65337 0.01692 0.0
C2846 C 0.94244 0.64369 0.00511 0.0
C2847 C 0.94256 0.66477 0.971 0.0
H2848 H 0.90449 0.65886 0.98544 0.0
C2849 C 0.89653 0.6848 0.95582 0.0
C2850 C 0.89412 0.68132 0.93965 0.0
C2851 C 0.90487 0.68003 0.9646 0.0
C2852 C 0.91511 0.66059 0.98126 0.0
H2853 H 0.98585 0.67537 0.00878 0.0
H2854 H 0.96884 0.67836 0.99112 0.0
H2855 H 0.9202 0.65262 0.00181 0.0
H2856 H 0.8987 0.67024 0.91997 0.0
H2857 H 0.91328 0.66184 0.93534 0.0
H2858 H 0.93774 0.67323 0.95069 0.0
C2859 C 0.96402 0.66802 0.99763 0.0
C2860 C 0.92401 0.65683 0.99055 0.0
C2861 C 0.97377 0.66635 0.00788 0.0
C2862 C 0.90034 0.67306 0.93242 0.0
C2863 C 0.90876 0.66833 0.94121 0.0
C2864 C 0.93365 0.66849 0.9617 0.0
C2865 C 0.94824 0.65677 0.99615 0.0
C2866 C 0.93797 0.65915 0.98564 0.0
C2867 C 0.91102 0.67168 0.95742 0.0
C2868 C 0.91995 0.6667 0.96683 0.0
H2869 H 0.94751 0.63184 0.02218 0.0
H2870 H 0.93033 0.63478 0.00415 0.0
H2871 H 0.95318 0.66651 0.96681 0.0
H2872 H 0.89166 0.69093 0.96177 0.0
H2873 H 0.90658 0.68298 0.97703 0.0
C2874 C 0.32722 0.32353 0.96324 0.0
C2875 C 0.34115 0.32913 0.97198 0.0
C2876 C 0.32119 0.30998 0.95298 0.0
C2877 C 0.30699 0.275 0.9421 0.0
H2878 H 0.33348 0.26744 0.91654 0.0
C2879 C 0.29502 0.21322 0.92205 0.0
C2880 C 0.29977 0.21095 0.90756 0.0
C2881 C 0.29783 0.22808 0.92736 0.0
C2882 C 0.32584 0.26944 0.92339 0.0
H2883 H 0.3599 0.32528 0.97653 0.0
H2884 H 0.34943 0.30174 0.9586 0.0
H2885 H 0.34346 0.2933 0.93031 0.0
H2886 H 0.31005 0.22211 0.88674 0.0
H2887 H 0.31503 0.2481 0.89606 0.0
H2888 H 0.28948 0.25097 0.93549 0.0
C2889 C 0.34319 0.30781 0.95961 0.0
C2890 C 0.33161 0.2842 0.9314 0.0
C2891 C 0.34914 0.32123 0.96996 0.0
C2892 C 0.30654 0.2236 0.8981 0.0
C2893 C 0.30937 0.23845 0.90341 0.0
C2894 C 0.30123 0.26018 0.93415 0.0
C2895 C 0.32908 0.30194 0.95115 0.0
C2896 C 0.32236 0.28701 0.94112 0.0
C2897 C 0.30545 0.24096 0.91828 0.0
C2898 C 0.31071 0.25715 0.92499 0.0
H2899 H 0.32083 0.32941 0.96457 0.0
H2900 H 0.31033 0.30575 0.94652 0.0
H2901 H 0.29962 0.27683 0.94957 0.0
H2902 H 0.2899 0.20375 0.92967 0.0
H2903 H 0.29481 0.22967 0.93894 0.0
C2904 C 0.66866 0.02566 0.00201 0.0
C2905 C 0.6687 0.03171 0.01708 0.0
C2906 C 0.68124 0.03381 0.99315 0.0
C2907 C 0.72226 0.0591 0.99695 0.0
H2908 H 0.71825 0.06665 0.95407 0.0
C2909 C 0.77443 0.0889 0.95909 0.0
C2910 C 0.77186 0.0838 0.94325 0.0
C2911 C 0.76211 0.08348 0.9686 0.0
C2912 C 0.71957 0.06442 0.96596 0.0
H2913 H 0.68169 0.05114 0.03463 0.0
H2914 H 0.70401 0.06527 0.01917 0.0
H2915 H 0.69598 0.05608 0.96957 0.0
H2916 H 0.75472 0.06858 0.92498 0.0
H2917 H 0.7333 0.0585 0.94161 0.0
H2918 H 0.74562 0.06669 0.99323 0.0
C2919 C 0.69413 0.05429 0.01423 0.0
C2920 C 0.70683 0.05852 0.97485 0.0
C2921 C 0.68137 0.04628 0.023 0.0
C2922 C 0.75692 0.07276 0.93716 0.0
C2923 C 0.74465 0.06715 0.94668 0.0
C2924 C 0.73497 0.06478 0.98798 0.0
C2925 C 0.69421 0.04801 -0.0007 0.0
C2926 C 0.70802 0.05567 0.99037 0.0
C2927 C 0.74702 0.07268 0.96246 0.0
C2928 C 0.73374 0.06732 0.9723 0.0
H2929 H 0.65901 0.01445 0.99718 0.0
H2930 H 0.68108 0.02869 0.98169 0.0
H2931 H 0.72339 0.05681 0.00886 0.0
H2932 H 0.78587 0.09755 0.96397 0.0
H2933 H 0.76438 0.08813 0.98063 0.0
C2934 C 0.62959 0.96018 0.05816 0.0
C2935 C 0.6405 0.97641 0.06076 0.0
C2936 C 0.63279 0.94907 0.06365 0.0
C2937 C 0.66555 0.945 0.07387 0.0
H2938 H 0.63917 0.9128 0.10039 0.0
C2939 C 0.68848 0.9173 0.11466 0.0
C2940 C 0.67908 0.90136 0.11744 0.0
C2941 C 0.68279 0.92463 0.10568 0.0
C2942 C 0.64655 0.92152 0.09275 0.0
H2943 H 0.66302 0.99369 0.07159 0.0
H2944 H 0.66849 0.97448 0.08093 0.0
H2945 H 0.63031 0.9287 0.08844 0.0
H2946 H 0.65652 0.88042 0.11243 0.0
H2947 H 0.64658 0.89322 0.09665 0.0
H2948 H 0.68188 0.93812 0.07826 0.0
C2949 C 0.6576 0.97029 0.07456 0.0
C2950 C 0.64146 0.93061 0.08594 0.0
C2951 C 0.65439 0.98129 0.06926 0.0
C2952 C 0.66397 0.89279 0.11068 0.0
C2953 C 0.65827 0.90012 0.10166 0.0
C2954 C 0.67058 0.93589 0.08057 0.0
C2955 C 0.64698 0.95408 0.0716 0.0
C2956 C 0.65112 0.94275 0.07683 0.0
C2957 C 0.66757 0.91618 0.09919 0.0
C2958 C 0.66135 0.92437 0.09047 0.0
H2959 H 0.6188 0.95608 0.05165 0.0
H2960 H 0.62439 0.9366 0.06131 0.0
H2961 H 0.67312 0.95413 0.06667 0.0
H2962 H 0.70009 0.92428 0.11989 0.0
H2963 H 0.69019 0.93709 0.10425 0.0
C2964 C 0.03405 0.69138 0.07629 0.0
C2965 C 0.01808 0.68454 0.07495 0.0
C2966 C 0.04326 0.70519 0.08583 0.0
C2967 C 0.04364 0.73214 0.11729 0.0
H2968 H 0.07899 0.7633 0.09717 0.0
C2969 C 0.09371 0.79045 0.14839 0.0
C2970 C 0.1006 0.8038 0.13981 0.0
C2971 C 0.08197 0.77589 0.14147 0.0
C2972 C 0.06908 0.75482 0.1029 0.0
H2973 H 0.99909 0.68621 0.08322 0.0
H2974 H 0.01528 0.71058 0.09984 0.0
H2975 H 0.06203 0.73743 0.08383 0.0
H2976 H 0.10003 0.81246 0.11747 0.0
H2977 H 0.07935 0.78721 0.10558 0.0
H2978 H 0.05075 0.74978 0.13635 0.0
C2979 C 0.02065 0.70518 0.09356 0.0
C2980 C 0.05948 0.73989 0.09535 0.0
C2981 C 0.0114 0.69127 0.08402 0.0
C2982 C 0.09492 0.80246 0.12445 0.0
C2983 C 0.08319 0.78794 0.11757 0.0
C2984 C 0.05332 0.74715 0.12491 0.0
C2985 C 0.0367 0.71253 0.09418 0.0
C2986 C 0.04672 0.72834 0.10247 0.0
C2987 C 0.07691 0.7744 0.12584 0.0
C2988 C 0.06615 0.75863 0.11777 0.0
H2989 H 0.03952 0.68634 0.0696 0.0
H2990 H 0.05558 0.71037 0.08636 0.0
H2991 H 0.03389 0.72346 0.12306 0.0
H2992 H 0.09767 0.79117 0.16033 0.0
H2993 H 0.07738 0.76566 0.14814 0.0
C2994 C 0.33041 0.36057 0.04237 0.0
C2995 C 0.33253 0.36763 0.02832 0.0
C2996 C 0.31866 0.35869 0.05154 0.0
C2997 C 0.28019 0.34984 0.04787 0.0
H2998 H 0.28505 0.36066 0.09227 0.0
C2999 C 0.22801 0.33074 0.08518 0.0
C3000 C 0.22939 0.32705 0.10033 0.0
C3001 C 0.24071 0.33727 0.07615 0.0
C3002 C 0.28344 0.35735 0.07991 0.0
H3003 H 0.32443 0.37866 0.01296 0.0
H3004 H 0.30337 0.37483 0.02888 0.0
H3005 H 0.30768 0.37041 0.07732 0.0
H3006 H 0.24474 0.32662 0.11778 0.0
H3007 H 0.26669 0.33722 0.10185 0.0
H3008 H 0.25607 0.33597 0.05045 0.0
C3009 C 0.31102 0.37105 0.03285 0.0
C3010 C 0.29642 0.36311 0.07136 0.0
C3011 C 0.32308 0.37332 0.02384 0.0
C3012 C 0.24347 0.3295 0.10615 0.0
C3013 C 0.25608 0.33575 0.09706 0.0
C3014 C 0.2672 0.34381 0.05646 0.0
C3015 C 0.3086 0.36348 0.04664 0.0
C3016 C 0.2949 0.35923 0.05532 0.0
C3017 C 0.25497 0.34001 0.08204 0.0
C3018 C 0.26867 0.34726 0.07265 0.0
H3019 H 0.33756 0.35608 0.04604 0.0
H3020 H 0.31695 0.35273 0.06208 0.0
H3021 H 0.27877 0.34652 0.03551 0.0
H3022 H 0.21726 0.32909 0.08055 0.0
H3023 H 0.23942 0.34053 0.06473 0.0
C3024 C 0.69162 0.67629 0.3858 0.0
C3025 C 0.69738 0.68758 0.37482 0.0
C3026 C 0.70156 0.67418 0.39537 0.0
C3027 C 0.73951 0.67888 0.39625 0.0
H3028 H 0.73322 0.67136 0.43969 0.0
C3029 C 0.78134 0.67082 0.43503 0.0
C3030 C 0.77517 0.65944 0.44592 0.0
C3031 C 0.7721 0.67493 0.42688 0.0
C3032 C 0.73502 0.67325 0.42753 0.0
H3033 H 0.7181 0.70586 0.36557 0.0
H3034 H 0.73552 0.70213 0.38231 0.0
H3035 H 0.71693 0.67804 0.4249 0.0
H3036 H 0.75436 0.64342 0.45671 0.0
H3037 H 0.73808 0.65027 0.44212 0.0
H3038 H 0.75734 0.67377 0.3987 0.0
C3039 C 0.72328 0.69485 0.38342 0.0
C3040 C 0.72573 0.67715 0.41909 0.0
C3041 C 0.71333 0.69706 0.37392 0.0
C3042 C 0.75946 0.65216 0.44834 0.0
C3043 C 0.75018 0.65623 0.44011 0.0
C3044 C 0.74873 0.67489 0.40466 0.0
C3045 C 0.71748 0.68324 0.3941 0.0
C3046 C 0.72785 0.67996 0.40334 0.0
C3047 C 0.7564 0.66768 0.42928 0.0
C3048 C 0.74659 0.67199 0.42039 0.0
H3049 H 0.67939 0.66881 0.38681 0.0
H3050 H 0.69672 0.66505 0.40337 0.0
H3051 H 0.74124 0.68069 0.38407 0.0
H3052 H 0.79333 0.67648 0.43265 0.0
H3053 H 0.77734 0.68391 0.41876 0.0
C3054 C 0.33793 0.00815 0.43096 0.0
C3055 C 0.32439 0.00216 0.42141 0.0
C3056 C 0.34318 0.02175 0.44105 0.0
C3057 C 0.33037 0.04748 0.45912 0.0
H3058 H 0.37276 0.08123 0.4577 0.0
C3059 C 0.34935 0.11235 0.46574 0.0
C3060 C 0.36068 0.12202 0.47756 0.0
C3061 C 0.34614 0.09713 0.46167 0.0
C3062 C 0.36098 0.0718 0.45842 0.0
H3063 H 0.30556 0.00545 0.41518 0.0
H3064 H 0.31468 0.02901 0.43247 0.0
H3065 H 0.36442 0.05478 0.44589 0.0
H3066 H 0.37793 0.12338 0.49396 0.0
H3067 H 0.37262 0.09678 0.48626 0.0
H3068 H 0.32672 0.06476 0.4707 0.0
C3069 C 0.3212 0.0232 0.43244 0.0
C3070 C 0.3562 0.05667 0.45173 0.0
C3071 C 0.31602 0.00974 0.4224 0.0
C3072 C 0.3692 0.1163 0.48474 0.0
C3073 C 0.36613 0.10108 0.48044 0.0
C3074 C 0.33509 0.06259 0.46561 0.0
C3075 C 0.33488 0.02946 0.44181 0.0
C3076 C 0.3407 0.04451 0.4515 0.0
C3077 C 0.35436 0.09132 0.46909 0.0
C3078 C 0.3503 0.07496 0.46485 0.0
H3079 H 0.3446 0.00252 0.43043 0.0
H3080 H 0.35373 0.02627 0.44817 0.0
H3081 H 0.31844 0.03828 0.45947 0.0
H3082 H 0.34287 0.11649 0.45963 0.0
H3083 H 0.3372 0.08987 0.45267 0.0
C3084 C 0.00327 0.31914 0.38232 0.0
C3085 C 0.0102 0.31138 0.37558 0.0
C3086 C 0.98962 0.31068 0.38963 0.0
C3087 C 0.96686 0.27657 0.41042 0.0
H3088 H 0.93146 0.27723 0.39404 0.0
C3089 C 0.90716 0.23675 0.43269 0.0
C3090 C 0.89706 0.24239 0.43363 0.0
C3091 C 0.92081 0.24496 0.42534 0.0
C3092 C 0.94125 0.27711 0.39898 0.0
H3093 H 0.00865 0.28885 0.37165 0.0
H3094 H 0.98495 0.27411 0.38502 0.0
H3095 H 0.95598 0.29235 0.38248 0.0
H3096 H 0.89354 0.26117 0.42726 0.0
H3097 H 0.91775 0.27597 0.41534 0.0
H3098 H 0.95253 0.26197 0.42734 0.0
C3099 C 0.99002 0.28669 0.38437 0.0
C3100 C 0.95526 0.28569 0.39226 0.0
C3101 C 0.00351 0.29509 0.37673 0.0
C3102 C 0.90106 0.25651 0.42697 0.0
C3103 C 0.91489 0.26491 0.41988 0.0
C3104 C 0.95295 0.26825 0.41737 0.0
C3105 C 0.98285 0.29439 0.39064 0.0
C3106 C 0.96813 0.28541 0.39788 0.0
C3107 C 0.925 0.25927 0.419 0.0
C3108 C 0.9399 0.26831 0.41169 0.0
H3109 H 0.00816 0.33167 0.38154 0.0
H3110 H 0.98431 0.31684 0.39447 0.0
H3111 H 0.97671 0.27633 0.41501 0.0
H3112 H 0.90473 0.22612 0.43792 0.0
H3113 H 0.92808 0.24002 0.42466 0.0
C3114 C 0.05474 0.38034 0.33466 0.0
C3115 C 0.04519 0.36424 0.32974 0.0
C3116 C 0.05265 0.39163 0.32786 0.0
C3117 C 0.02214 0.39419 0.30701 0.0
H3118 H 0.05483 0.43542 0.29725 0.0
C3119 C 0.01065 0.43305 0.26944 0.0
C3120 C 0.01786 0.44923 0.27416 0.0
C3121 C 0.01473 0.42349 0.2768 0.0
C3122 C 0.0456 0.42401 0.3001 0.0
H3123 H 0.02677 0.34745 0.31317 0.0
H3124 H 0.0234 0.36705 0.30115 0.0
H3125 H 0.06116 0.41723 0.30854 0.0
H3126 H 0.03514 0.46805 0.2903 0.0
H3127 H 0.04235 0.45125 0.30314 0.0
H3128 H 0.00659 0.4008 0.29849 0.0
C3129 C 0.03216 0.37097 0.31054 0.0
C3130 C 0.04922 0.4136 0.30653 0.0
C3131 C 0.03417 0.35974 0.31736 0.0
C3132 C 0.02941 0.45565 0.28633 0.0
C3133 C 0.03356 0.44605 0.29367 0.0
C3134 C 0.01855 0.40452 0.30057 0.0
C3135 C 0.04104 0.38698 0.31601 0.0
C3136 C 0.0375 0.39848 0.30982 0.0
C3137 C 0.02618 0.42986 0.28902 0.0
C3138 C 0.03021 0.41944 0.29682 0.0
H3139 H 0.06332 0.38413 0.3442 0.0
H3140 H 0.05967 0.40388 0.33233 0.0
H3141 H 0.01283 0.3828 0.30981 0.0
H3142 H 0.00202 0.42779 0.25983 0.0
H3143 H 0.00905 0.41112 0.27274 0.0
C3144 C 0.65325 0.64732 0.30777 0.0
C3145 C 0.64675 0.65353 0.3178 0.0
C3146 C 0.64384 0.63387 0.29768 0.0
C3147 C 0.60363 0.6087 0.28075 0.0
H3148 H 0.61272 0.57531 0.27868 0.0
C3149 C 0.55739 0.54364 0.26806 0.0
C3150 C 0.55981 0.53468 0.2566 0.0
C3151 C 0.56913 0.55886 0.27325 0.0
C3152 C 0.61018 0.58463 0.27897 0.0
H3153 H 0.62537 0.65078 0.32495 0.0
H3154 H 0.60906 0.62734 0.30772 0.0
H3155 H 0.63145 0.60118 0.29162 0.0
H3156 H 0.57667 0.53475 0.24182 0.0
H3157 H 0.59741 0.56128 0.25142 0.0
H3158 H 0.58203 0.59187 0.26883 0.0
C3159 C 0.62137 0.63291 0.30733 0.0
C3160 C 0.6209 0.59945 0.28632 0.0
C3161 C 0.63074 0.6463 0.31733 0.0
C3162 C 0.57444 0.54123 0.25077 0.0
C3163 C 0.58629 0.55643 0.25617 0.0
C3164 C 0.59288 0.59387 0.27359 0.0
C3165 C 0.62778 0.62643 0.29746 0.0
C3166 C 0.61754 0.61152 0.28768 0.0
C3167 C 0.58364 0.56542 0.26731 0.0
C3168 C 0.59589 0.5816 0.273 0.0
H3169 H 0.66558 0.6527 0.30786 0.0
H3170 H 0.64914 0.62926 0.29013 0.0
H3171 H 0.60084 0.61785 0.28124 0.0
H3172 H 0.54644 0.53887 0.27314 0.0
H3173 H 0.5669 0.56546 0.28209 0.0
C3174 C 0.33929 0.97381 0.35316 0.0
C3175 C 0.33369 0.96326 0.36481 0.0
C3176 C 0.34971 0.97374 0.34312 0.0
C3177 C 0.37962 0.96416 0.34102 0.0
H3178 H 0.37648 0.96888 0.29711 0.0
C3179 C 0.42449 0.96761 0.29944 0.0
C3180 C 0.42887 0.97861 0.2882 0.0
C3181 C 0.41209 0.96421 0.30836 0.0
C3182 C 0.37762 0.96772 0.30937 0.0
H3183 H 0.33438 0.94414 0.37491 0.0
H3184 H 0.3528 0.94413 0.35738 0.0
H3185 H 0.35592 0.96534 0.31326 0.0
H3186 H 0.42344 0.99449 0.27741 0.0
H3187 H 0.40223 0.98899 0.29328 0.0
H3188 H 0.4015 0.96703 0.33728 0.0
C3189 C 0.34909 0.95246 0.35607 0.0
C3190 C 0.3658 0.96562 0.3186 0.0
C3191 C 0.3385 0.95241 0.36603 0.0
C3192 C 0.42054 0.98612 0.2861 0.0
C3193 C 0.4082 0.98277 0.29506 0.0
C3194 C 0.3915 0.96638 0.33181 0.0
C3195 C 0.35488 0.96321 0.34459 0.0
C3196 C 0.36677 0.96403 0.33456 0.0
C3197 C 0.40379 0.97176 0.30628 0.0
C3198 C 0.39074 0.96841 0.31591 0.0
H3199 H 0.33578 0.9823 0.3519 0.0
H3200 H 0.35409 0.98228 0.3345 0.0
H3201 H 0.38075 0.96315 0.35333 0.0
H3202 H 0.43074 0.96172 0.30147 0.0
H3203 H 0.40894 0.95557 0.3168 0.0
C3204 C 0.63878 0.97831 0.33337 0.0
C3205 C 0.63331 0.97089 0.34706 0.0
C3206 C 0.62882 0.97884 0.32235 0.0
C3207 C 0.58708 0.96287 0.31183 0.0
H3208 H 0.60378 0.00064 0.28976 0.0
C3209 C 0.54853 0.97188 0.26886 0.0
C3210 C 0.55142 0.98729 0.26803 0.0
C3211 C 0.55893 0.96922 0.27694 0.0
C3212 C 0.59882 0.99008 0.29594 0.0
H3213 H 0.61314 0.95805 0.35995 0.0
H3214 H 0.59587 0.95968 0.34123 0.0
H3215 H 0.62055 0.99712 0.30711 0.0
H3216 H 0.568 0.01202 0.27471 0.0
H3217 H 0.58545 0.00733 0.28962 0.0
H3218 H 0.56515 0.95643 0.30159 0.0
C3219 C 0.60771 0.96461 0.33858 0.0
C3220 C 0.60856 0.98789 0.30573 0.0
C3221 C 0.61763 0.96373 0.34941 0.0
C3222 C 0.56515 -5e-05 0.2753 0.0
C3223 C 0.57537 0.99726 0.28367 0.0
C3224 C 0.57727 0.96524 0.30232 0.0
C3225 C 0.61319 0.97235 0.32495 0.0
C3226 C 0.60285 0.97428 0.3139 0.0
C3227 C 0.57238 0.98184 0.28472 0.0
C3228 C 0.58297 0.97894 0.29429 0.0
H3229 H 0.65082 0.98378 0.33121 0.0
H3230 H 0.63347 0.98449 0.31185 0.0
H3231 H 0.58221 0.95208 0.31763 0.0
H3232 H 0.53803 0.96175 0.26363 0.0
H3233 H 0.5563 0.95719 0.27714 0.0
C3234 C 0.00403 0.6645 0.29647 0.0
C3235 C 0.01827 0.67251 0.30507 0.0
C3236 C 0.00074 0.65239 0.28509 0.0
C3237 C 0.01862 0.63515 0.261 0.0
H3238 H 0.98223 0.59488 0.26696 0.0
C3239 C 0.01463 0.57655 0.24542 0.0
C3240 C 0.00056 0.56324 0.23977 0.0
C3241 C 0.01557 0.59069 0.25006 0.0
C3242 C 0.99225 0.60607 0.26485 0.0
H3243 H 0.04047 0.67472 0.30805 0.0
H3244 H 0.03482 0.6538 0.28818 0.0
H3245 H 0.98612 0.61891 0.28073 0.0
H3246 H 0.97648 0.55444 0.23421 0.0
H3247 H 0.97811 0.57925 0.24243 0.0
H3248 H 0.02503 0.62231 0.24552 0.0
C3249 C 0.02619 0.65681 0.29017 0.0
C3250 C 0.99448 0.61984 0.27275 0.0
C3251 C 0.02938 0.66871 0.30164 0.0
C3252 C 0.98745 0.56445 0.23868 0.0
C3253 C 0.98839 0.57865 0.24335 0.0
C3254 C 0.01637 0.62143 0.25305 0.0
C3255 C 0.01175 0.64832 0.28199 0.0
C3256 C 0.00795 0.63441 0.27133 0.0
C3257 C 0.00246 0.5919 0.24918 0.0
C3258 C 0.00345 0.60667 0.25535 0.0
H3259 H 0.99526 0.66721 0.29889 0.0
H3260 H 0.98954 0.64604 0.2789 0.0
H3261 H 0.02899 0.64629 0.25951 0.0
H3262 H 0.02488 0.57593 0.24668 0.0
H3263 H 0.02651 0.60055 0.25484 0.0
C3264 C 0.34247 0.37594 0.35309 0.0
C3265 C 0.33043 0.36056 0.34834 0.0
C3266 C 0.35522 0.38353 0.34425 0.0
C3267 C 0.36852 0.38466 0.30552 0.0
H3268 H 0.40818 0.39834 0.32613 0.0
C3269 C 0.42113 0.403 0.27033 0.0
C3270 C 0.43537 0.41551 0.27661 0.0
C3271 C 0.40852 0.39636 0.2794 0.0
C3272 C 0.39727 0.39485 0.32022 0.0
H3273 H 0.32187 0.3413 0.33036 0.0
H3274 H 0.34396 0.35478 0.31468 0.0
H3275 H 0.3855 0.38774 0.34111 0.0
H3276 H 0.44783 0.43091 0.29719 0.0
H3277 H 0.42568 0.41978 0.313 0.0
H3278 H 0.38013 0.39208 0.28473 0.0
C3279 C 0.34361 0.36086 0.32531 0.0
C3280 C 0.38429 0.38875 0.32881 0.0
C3281 C 0.33102 0.35316 0.33429 0.0
C3282 C 0.43694 0.42113 0.2922 0.0
C3283 C 0.42425 0.4147 0.30122 0.0
C3284 C 0.38151 0.39101 0.29697 0.0
C3285 C 0.35595 0.37597 0.33038 0.0
C3286 C 0.3698 0.38345 0.32149 0.0
C3287 C 0.4098 0.40236 0.29487 0.0
C3288 C 0.39605 0.396 0.30415 0.0
H3289 H 0.3423 0.38187 0.36391 0.0
H3290 H 0.36459 0.39523 0.34832 0.0
H3291 H 0.35746 0.38075 0.29967 0.0
H3292 H 0.41973 0.39847 0.25832 0.0
H3293 H 0.39774 0.38661 0.2742 0.0
C3294 C 0.29357 0.2935 0.39444 0.0
C3295 C 0.30384 0.30989 0.39677 0.0
C3296 C 0.29731 0.28309 0.40067 0.0
C3297 C 0.33116 0.28152 0.4125 0.0
H3298 H 0.30412 0.24666 0.43612 0.0
C3299 C 0.35354 0.25109 0.45037 0.0
C3300 C 0.34421 0.2348 0.45164 0.0
C3301 C 0.34796 0.25912 0.44237 0.0
C3302 C 0.31172 0.25617 0.42932 0.0
H3303 H 0.32566 0.32822 0.40811 0.0
H3304 H 0.33209 0.31017 0.41887 0.0
H3305 H 0.29494 0.26258 0.42488 0.0
H3306 H 0.32191 0.21402 0.44506 0.0
H3307 H 0.31221 0.228 0.43088 0.0
H3308 H 0.34795 0.27525 0.41684 0.0
C3309 C 0.3213 0.30532 0.41206 0.0
C3310 C 0.30646 0.2653 0.42293 0.0
C3311 C 0.31755 0.31566 0.40596 0.0
C3312 C 0.3293 0.22663 0.44442 0.0
C3313 C 0.32373 0.23464 0.43634 0.0
C3314 C 0.33638 0.27237 0.41876 0.0
C3315 C 0.31141 0.28895 0.4092 0.0
C3316 C 0.31626 0.27826 0.41476 0.0
C3317 C 0.33294 0.25102 0.43537 0.0
C3318 C 0.32685 0.25979 0.42753 0.0
H3319 H 0.28293 0.28873 0.3874 0.0
H3320 H 0.28948 0.27049 0.39834 0.0
H3321 H 0.33886 0.29127 0.40598 0.0
H3322 H 0.36499 0.25775 0.45602 0.0
H3323 H 0.35529 0.27178 0.4421 0.0
C3324 C 0.69669 0.01771 0.40855 0.0
C3325 C 0.68083 0.01079 0.40544 0.0
C3326 C 0.70506 0.0317 0.41806 0.0
C3327 C 0.71898 0.05717 0.44452 0.0
H3328 H 0.7135 0.09189 0.4359 0.0
C3329 C 0.75896 0.11884 0.47489 0.0
C3330 C 0.7651 0.13111 0.46496 0.0
C3331 C 0.74624 0.1041 0.46986 0.0
C3332 C 0.71513 0.08229 0.43847 0.0
H3333 H 0.6612 0.01291 0.41007 0.0
H3334 H 0.67594 0.03758 0.42676 0.0
H3335 H 0.69599 0.0656 0.42306 0.0
H3336 H 0.76232 0.1378 0.44224 0.0
H3337 H 0.74021 0.112 0.43334 0.0
H3338 H 0.73851 0.07387 0.45931 0.0
C3339 C 0.68186 0.03213 0.42175 0.0
C3340 C 0.70501 0.06721 0.43124 0.0
C3341 C 0.67343 0.018 0.41228 0.0
C3342 C 0.75777 0.12859 0.45018 0.0
C3343 C 0.74507 0.11381 0.44511 0.0
C3344 C 0.72905 0.07219 0.45175 0.0
C3345 C 0.69779 0.03916 0.42466 0.0
C3346 C 0.70709 0.05459 0.43389 0.0
C3347 C 0.73942 0.10127 0.45474 0.0
C3348 C 0.72747 0.08502 0.44854 0.0
H3349 H 0.70274 0.01245 0.40344 0.0
H3350 H 0.71735 0.03694 0.41988 0.0
H3351 H 0.72075 0.04763 0.44694 0.0
H3352 H 0.76423 0.12055 0.48646 0.0
H3353 H 0.74197 0.09479 0.47767 0.0
C3354 C 0.98992 0.68198 0.3711 0.0
C3355 C 0.99759 0.69636 0.36422 0.0
C3356 C 0.97697 0.67794 0.37927 0.0
C3357 C 0.95623 0.69401 0.39947 0.0
H3358 H 0.92127 0.65144 0.39081 0.0
C3359 C 0.8979 0.67436 0.42467 0.0
C3360 C 0.89003 0.65929 0.4302 0.0
C3361 C 0.91072 0.67897 0.41609 0.0
C3362 C 0.93097 0.66331 0.3935 0.0
H3363 H 0.998 0.71804 0.36093 0.0
H3364 H 0.97531 0.71099 0.37534 0.0
H3365 H 0.94461 0.65968 0.37743 0.0
H3366 H 0.8893 0.63716 0.43096 0.0
H3367 H 0.91182 0.64524 0.41612 0.0
H3368 H 0.94269 0.69758 0.41571 0.0
C3369 C 0.97937 0.70286 0.37438 0.0
C3370 C 0.94434 0.66804 0.38581 0.0
C3371 C 0.99233 0.70688 0.36612 0.0
C3372 C 0.89505 0.64879 0.4267 0.0
C3373 C 0.90795 0.65343 0.41819 0.0
C3374 C 0.94288 0.68925 0.40723 0.0
C3375 C 0.97141 0.68821 0.3808 0.0
C3376 C 0.95714 0.6834 0.38877 0.0
C3377 C 0.91603 0.66864 0.41291 0.0
C3378 C 0.9301 0.67382 0.40438 0.0
H3379 H 0.99371 0.67363 0.36992 0.0
H3380 H 0.97124 0.6667 0.38432 0.0
H3381 H 0.96596 0.70587 0.40209 0.0
H3382 H 0.89413 0.68261 0.42699 0.0
H3383 H 0.91647 0.69064 0.41193 0.0
C3384 C 0.38367 0.04038 0.7156 0.0
C3385 C 0.36912 0.02699 0.71142 0.0
C3386 C 0.39386 0.0395 0.72611 0.0
C3387 C 0.4049 0.01266 0.73805 0.0
H3388 H 0.4209 0.03786 0.77743 0.0
C3389 C 0.44094 0.00105 0.78129 0.0
C3390 C 0.45321 0.01398 0.79017 0.0
C3391 C 0.43025 0.00283 0.77264 0.0
C3392 C 0.41678 0.0309 0.76637 0.0
H3393 H 0.3538 0.00228 0.715 0.0
H3394 H 0.37177 0.0007 0.73291 0.0
H3395 H 0.40374 0.04143 0.76018 0.0
H3396 H 0.46326 0.03887 0.7974 0.0
H3397 H 0.44532 0.04219 0.78158 0.0
H3398 H 0.41825 0.00254 0.74365 0.0
C3399 C 0.37517 0.01186 0.72824 0.0
C3400 C 0.40689 0.03292 0.75656 0.0
C3401 C 0.3649 0.01281 0.71804 0.0
C3402 C 0.45421 0.02867 0.79045 0.0
C3403 C 0.4437 0.03053 0.78154 0.0
C3404 C 0.41501 0.01086 0.74766 0.0
C3405 C 0.38975 0.02515 0.73228 0.0
C3406 C 0.40077 0.0237 0.74241 0.0
C3407 C 0.43168 0.01768 0.77233 0.0
C3408 C 0.42098 0.01981 0.76206 0.0
H3409 H 0.38719 0.05145 0.71069 0.0
H3410 H 0.40509 0.04988 0.72907 0.0
H3411 H 0.4004 0.00552 0.7271 0.0
H3412 H 0.43979 0.98957 0.78058 0.0
H3413 H 0.42095 0.99253 0.76606 0.0
C3414 C 0.9943 0.33531 0.76173 0.0
C3415 C 0.98228 0.32946 0.75014 0.0
C3416 C 0.99626 0.34673 0.77334 0.0
C3417 C 0.97619 0.36506 0.7916 0.0
H3418 H 0.01657 0.40301 0.79726 0.0
C3419 C 0.98522 0.42589 0.80679 0.0
C3420 C 0.99722 0.43659 0.81758 0.0
C3421 C 0.98358 0.41145 0.802 0.0
C3422 C 0.0053 0.39238 0.79607 0.0
H3423 H 0.96265 0.33057 0.74184 0.0
H3424 H 0.96606 0.35039 0.76192 0.0
H3425 H 0.01323 0.37953 0.78269 0.0
H3426 H 0.01681 0.44035 0.83191 0.0
H3427 H 0.01414 0.41514 0.82311 0.0
H3428 H 0.96812 0.37814 0.80431 0.0
C3429 C 0.97391 0.34613 0.76221 0.0
C3430 C 0.00339 0.37893 0.78775 0.0
C3431 C 0.97203 0.33486 0.7506 0.0
C3432 C 0.00756 0.43246 0.82345 0.0
C3433 C 0.00599 0.41802 0.81849 0.0
C3434 C 0.97809 0.37848 0.79985 0.0
C3435 C 0.98613 0.35232 0.77361 0.0
C3436 C 0.9887 0.36535 0.78494 0.0
C3437 C 0.99397 0.40739 0.80773 0.0
C3438 C 0.99255 0.39244 0.80166 0.0
H3439 H 0.00236 0.33132 0.76166 0.0
H3440 H 0.00575 0.35126 0.78202 0.0
H3441 H 0.96479 0.35464 0.7899 0.0
H3442 H 0.97727 0.4288 0.80173 0.0
H3443 H 0.9744 0.40364 0.79341 0.0
C3444 C 0.66222 0.62693 0.70459 0.0
C3445 C 0.67262 0.64314 0.70811 0.0
C3446 C 0.64933 0.61884 0.71314 0.0
C3447 C 0.62461 0.62615 0.73827 0.0
H3448 H 0.60868 0.58293 0.74789 0.0
C3449 C 0.57553 0.59406 0.77892 0.0
C3450 C 0.5642 0.57831 0.77426 0.0
C3451 C 0.5887 0.60202 0.77076 0.0
C3452 C 0.61293 0.59495 0.74515 0.0
H3453 H 0.67812 0.66346 0.72377 0.0
H3454 H 0.65587 0.64929 0.73893 0.0
H3455 H 0.6323 0.59661 0.73447 0.0
H3456 H 0.55763 0.55878 0.75703 0.0
H3457 H 0.58073 0.57267 0.74288 0.0
H3458 H 0.60529 0.62451 0.74908 0.0
C3459 C 0.6574 0.64289 0.72931 0.0
C3460 C 0.62645 0.60279 0.73746 0.0
C3461 C 0.67022 0.65099 0.7207 0.0
C3462 C 0.56624 0.57082 0.76107 0.0
C3463 C 0.57946 0.57875 0.75297 0.0
C3464 C 0.61115 0.61835 0.74603 0.0
C3465 C 0.64665 0.62679 0.72546 0.0
C3466 C 0.63244 0.61848 0.73391 0.0
C3467 C 0.59089 0.59439 0.75781 0.0
C3468 C 0.60515 0.60266 0.74952 0.0
H3469 H 0.66377 0.62059 0.69492 0.0
H3470 H 0.64122 0.60648 0.70977 0.0
H3471 H 0.62872 0.63813 0.73546 0.0
H3472 H 0.57446 0.6001 0.78918 0.0
H3473 H 0.59739 0.61402 0.77486 0.0
C3474 C 0.69275 0.69104 0.64832 0.0
C3475 C 0.70358 0.69585 0.66096 0.0
C3476 C 0.69002 0.70188 0.64166 0.0
C3477 C 0.69064 0.73815 0.65169 0.0
H3478 H 0.68313 0.73691 0.60729 0.0
C3479 C 0.67083 0.77715 0.62388 0.0
C3480 C 0.65972 0.76988 0.61134 0.0
C3481 C 0.67777 0.76945 0.63006 0.0
C3482 C 0.68506 0.73731 0.61973 0.0
H3483 H 0.72044 0.71585 0.67625 0.0
H3484 H 0.7155 0.73493 0.66464 0.0
H3485 H 0.69344 0.72158 0.61731 0.0
H3486 H 0.64715 0.74875 0.59554 0.0
H3487 H 0.65877 0.73516 0.60663 0.0
H3488 H 0.68176 0.75345 0.65415 0.0
C3489 C 0.70917 0.72272 0.65991 0.0
C3490 C 0.69105 0.72861 0.62544 0.0
C3491 C 0.71207 0.71186 0.66647 0.0
C3492 C 0.65548 0.75462 0.60535 0.0
C3493 C 0.66236 0.74692 0.61154 0.0
C3494 C 0.68455 0.74681 0.64597 0.0
C3495 C 0.69795 0.71776 0.64759 0.0
C3496 C 0.69362 0.72868 0.64149 0.0
C3497 C 0.67375 0.75432 0.62381 0.0
C3498 C 0.68137 0.74621 0.62993 0.0
H3499 H 0.68605 0.67877 0.64382 0.0
H3500 H 0.6812 0.69767 0.63228 0.0
H3501 H 0.69235 0.73828 0.66413 0.0
H3502 H 0.67429 0.78887 0.62882 0.0
H3503 H 0.68653 0.7755 0.63948 0.0
C3504 C 0.3268 0.98123 0.64739 0.0
C3505 C 0.32001 0.98855 0.65535 0.0
C3506 C 0.31762 0.96614 0.63969 0.0
C3507 C 0.27999 0.93062 0.64184 0.0
H3508 H 0.28272 0.91916 0.59897 0.0
C3509 C 0.22967 0.87778 0.60721 0.0
C3510 C 0.23236 0.86779 0.59751 0.0
C3511 C 0.24187 0.89185 0.61429 0.0
C3512 C 0.28201 0.92213 0.61104 0.0
H3513 H 0.29835 0.98618 0.66086 0.0
H3514 H 0.2825 0.96006 0.64756 0.0
H3515 H 0.30172 0.94555 0.61099 0.0
H3516 H 0.24992 0.86466 0.58754 0.0
H3517 H 0.27147 0.88953 0.59997 0.0
H3518 H 0.26021 0.90748 0.64194 0.0
C3519 C 0.29485 0.96581 0.64741 0.0
C3520 C 0.29284 0.9372 0.61788 0.0
C3521 C 0.30395 0.98083 0.65496 0.0
C3522 C 0.24756 0.87215 0.59503 0.0
C3523 C 0.25984 0.88638 0.60204 0.0
C3524 C 0.26925 0.91564 0.63506 0.0
C3525 C 0.30157 0.95817 0.64 0.0
C3526 C 0.29161 0.94171 0.6332 0.0
C3527 C 0.25708 0.89631 0.61182 0.0
C3528 C 0.26984 0.91139 0.61946 0.0
H3529 H 0.33916 0.98694 0.64748 0.0
H3530 H 0.32305 0.96049 0.63399 0.0
H3531 H 0.27898 0.93369 0.65378 0.0
H3532 H 0.21807 0.87463 0.60945 0.0
H3533 H 0.23937 0.89935 0.6216 0.0
C3534 C 0.01349 0.29435 0.6968 0.0
C3535 C 0.00631 0.303 0.69466 0.0
C3536 C 0.02638 0.29761 0.68872 0.0
C3537 C 0.04684 0.31614 0.65433 0.0
H3538 H 0.0833 0.32406 0.67805 0.0
C3539 C 0.10589 0.34771 0.62901 0.0
C3540 C 0.11576 0.34209 0.63194 0.0
C3541 C 0.09249 0.34225 0.63682 0.0
C3542 C 0.07317 0.32168 0.6712 0.0
H3543 H 0.0066 0.3214 0.68203 0.0
H3544 H 0.02885 0.3269 0.66788 0.0
H3545 H 0.05934 0.31452 0.69076 0.0
H3546 H 0.11954 0.32677 0.64587 0.0
H3547 H 0.09596 0.31693 0.65921 0.0
H3548 H 0.06054 0.32325 0.63478 0.0
C3549 C 0.02461 0.31766 0.67578 0.0
C3550 C 0.05945 0.31619 0.67849 0.0
C3551 C 0.01191 0.31456 0.68396 0.0
C3552 C 0.11209 0.33118 0.64318 0.0
C3553 C 0.09864 0.32566 0.65095 0.0
C3554 C 0.0605 0.32151 0.64703 0.0
C3555 C 0.03211 0.30938 0.67821 0.0
C3556 C 0.04622 0.31361 0.67018 0.0
C3557 C 0.08857 0.33097 0.64771 0.0
C3558 C 0.0739 0.3246 0.65542 0.0
H3559 H 0.00942 0.2854 0.70501 0.0
H3560 H 0.03191 0.29099 0.69073 0.0
H3561 H 0.03676 0.31405 0.6476 0.0
H3562 H 0.10827 0.35598 0.62032 0.0
H3563 H 0.08515 0.34682 0.63425 0.0
C3564 C 0.31174 0.32416 0.66862 0.0
C3565 C 0.30559 0.31203 0.67871 0.0
C3566 C 0.30213 0.32622 0.65851 0.0
C3567 C 0.26298 0.31864 0.65477 0.0
H3568 H 0.27447 0.33354 0.61397 0.0
C3569 C 0.236 0.34879 0.62327 0.0
C3570 C 0.23223 0.345 0.60723 0.0
C3571 C 0.24454 0.34364 0.63111 0.0
C3572 C 0.271 0.32923 0.62527 0.0
H3573 H 0.28456 0.29212 0.68566 0.0
H3574 H 0.26771 0.29564 0.66785 0.0
H3575 H 0.2896 0.32533 0.62855 0.0
H3576 H 0.23475 0.33308 0.58679 0.0
H3577 H 0.24952 0.3239 0.60053 0.0
H3578 H 0.24437 0.32249 0.65149 0.0
C3579 C 0.27999 0.30368 0.66793 0.0
C3580 C 0.27975 0.32466 0.63368 0.0
C3581 C 0.28963 0.3016 0.67805 0.0
C3582 C 0.23739 0.33612 0.59917 0.0
C3583 C 0.24595 0.33096 0.60702 0.0
C3584 C 0.25425 0.32321 0.64636 0.0
C3585 C 0.28613 0.3162 0.65824 0.0
C3586 C 0.27598 0.31953 0.64863 0.0
C3587 C 0.24949 0.33453 0.62312 0.0
C3588 C 0.25829 0.3288 0.63162 0.0
H3589 H 0.324 0.33239 0.66882 0.0
H3590 H 0.30726 0.33608 0.65136 0.0
H3591 H 0.25984 0.3149 0.6663 0.0
H3592 H 0.23203 0.35542 0.62988 0.0
H3593 H 0.24727 0.34681 0.64346 0.0
C3594 C 0.66386 0.99253 0.627 0.0
C3595 C 0.67807 0.99827 0.63522 0.0
C3596 C 0.65753 0.97887 0.61685 0.0
C3597 C 0.64312 0.94364 0.60691 0.0
H3598 H 0.66848 0.93519 0.58043 0.0
C3599 C 0.63126 0.88144 0.58944 0.0
C3600 C 0.63534 0.87843 0.57485 0.0
C3601 C 0.63404 0.89644 0.59407 0.0
C3602 C 0.66113 0.93742 0.58753 0.0
H3603 H 0.69707 0.99463 0.63885 0.0
H3604 H 0.68611 0.97091 0.62113 0.0
H3605 H 0.67879 0.96155 0.59313 0.0
H3606 H 0.64434 0.88837 0.55317 0.0
H3607 H 0.64927 0.91461 0.5613 0.0
H3608 H 0.62562 0.91935 0.60166 0.0
C3609 C 0.67986 0.97694 0.62246 0.0
C3610 C 0.6671 0.95248 0.59492 0.0
C3611 C 0.68609 0.99047 0.6327 0.0
C3612 C 0.64138 0.89044 0.56462 0.0
C3613 C 0.64417 0.90544 0.56925 0.0
C3614 C 0.63717 0.92852 0.59957 0.0
C3615 C 0.66541 0.97085 0.61462 0.0
C3616 C 0.65831 0.95563 0.605 0.0
C3617 C 0.64095 0.90872 0.58419 0.0
C3618 C 0.64625 0.92516 0.59012 0.0
H3619 H 0.65743 0.99833 0.62873 0.0
H3620 H 0.64642 0.97446 0.61088 0.0
H3621 H 0.63611 0.94572 0.61468 0.0
H3622 H 0.62672 0.87248 0.59764 0.0
H3623 H 0.63159 0.89864 0.60572 0.0
C3624 C 0.00259 0.70572 0.68334 0.0
C3625 C 0.99232 0.68945 0.67997 0.0
C3626 C 0.01601 0.71362 0.67552 0.0
C3627 C 0.03439 0.71116 0.64039 0.0
H3628 H 0.07226 0.7385 0.66552 0.0
C3629 C 0.09327 0.73749 0.6144 0.0
C3630 C 0.10432 0.75331 0.61915 0.0
C3631 C 0.07975 0.72944 0.62205 0.0
C3632 C 0.06179 0.73106 0.6583 0.0
H3633 H 0.98774 0.6688 0.66539 0.0
H3634 H 0.01114 0.68262 0.65166 0.0
H3635 H 0.048 0.72546 0.67784 0.0
H3636 H 0.11005 0.77284 0.63607 0.0
H3637 H 0.0863 0.759 0.64904 0.0
H3638 H 0.04809 0.7169 0.62081 0.0
C3639 C 0.00882 0.68926 0.66035 0.0
C3640 C 0.04789 0.7236 0.66537 0.0
C3641 C 0.99545 0.68134 0.66825 0.0
C3642 C 0.10169 0.76074 0.63197 0.0
C3643 C 0.08813 0.75272 0.63954 0.0
C3644 C 0.04828 0.71872 0.63329 0.0
C3645 C 0.01936 0.70542 0.6641 0.0
C3646 C 0.03405 0.71357 0.65649 0.0
C3647 C 0.07691 0.73702 0.63456 0.0
C3648 C 0.06216 0.72876 0.64216 0.0
H3649 H 0.00045 0.71229 0.69229 0.0
H3650 H 0.02384 0.72612 0.67849 0.0
H3651 H 0.02387 0.7036 0.63324 0.0
H3652 H 0.09483 0.73145 0.60447 0.0
H3653 H 0.07148 0.71727 0.61806 0.0
C3654 C 0.97184 0.64203 0.7378 0.0
C3655 C 0.95906 0.63759 0.72759 0.0
C3656 C 0.97302 0.63075 0.74556 0.0
C3657 C 0.95948 0.58842 0.74304 0.0
H3658 H 0.97833 0.59877 0.78497 0.0
C3659 C 0.96798 0.54509 0.7785 0.0
C3660 C 0.98245 0.5516 0.78645 0.0
C3661 C 0.96394 0.55478 0.77123 0.0
C3662 C 0.97312 0.59575 0.77323 0.0
H3663 H 0.93729 0.61786 0.71776 0.0
H3664 H 0.93928 0.59805 0.73154 0.0
H3665 H 0.97263 0.61697 0.7731 0.0
H3666 H 0.00405 0.5733 0.79295 0.0
H3667 H 0.99705 0.59018 0.7802 0.0
H3668 H 0.96006 0.56716 0.74325 0.0
C3669 C 0.94847 0.61029 0.73336 0.0
C3670 C 0.96985 0.60617 0.76642 0.0
C3671 C 0.94729 0.62163 0.72556 0.0
C3672 C 0.99289 0.56792 0.78677 0.0
C3673 C 0.98881 0.57761 0.77964 0.0
C3674 C 0.96268 0.57792 0.74991 0.0
C3675 C 0.96143 0.61473 0.74337 0.0
C3676 C 0.96329 0.6028 0.75113 0.0
C3677 C 0.97424 0.57117 0.77194 0.0
C3678 C 0.96982 0.58166 0.76496 0.0
H3679 H 0.98114 0.65422 0.7396 0.0
H3680 H 0.98327 0.63458 0.75297 0.0
H3681 H 0.95456 0.58553 0.73119 0.0
H3682 H 0.95974 0.53252 0.77802 0.0
H3683 H 0.95263 0.54951 0.76541 0.0
C3684 C 0.36832 0.35355 0.74112 0.0
C3685 C 0.35249 0.34692 0.73811 0.0
C3686 C 0.37679 0.36707 0.75127 0.0
C3687 C 0.39087 0.39146 0.77879 0.0
H3688 H 0.38515 0.42651 0.77277 0.0
C3689 C 0.42945 0.45188 0.81265 0.0
C3690 C 0.43562 0.4648 0.8035 0.0
C3691 C 0.41719 0.43718 0.80672 0.0
C3692 C 0.38685 0.41681 0.77461 0.0
H3693 H 0.333 0.349 0.74363 0.0
H3694 H 0.34788 0.37277 0.76141 0.0
H3695 H 0.36784 0.40084 0.75872 0.0
H3696 H 0.43344 0.47253 0.78113 0.0
H3697 H 0.41209 0.44688 0.77076 0.0
H3698 H 0.41025 0.40753 0.79414 0.0
C3699 C 0.35372 0.3675 0.75583 0.0
C3700 C 0.37685 0.40208 0.76669 0.0
C3701 C 0.34521 0.35388 0.74573 0.0
C3702 C 0.42884 0.46286 0.78853 0.0
C3703 C 0.41658 0.44815 0.7826 0.0
C3704 C 0.40083 0.40615 0.78673 0.0
C3705 C 0.36963 0.37431 0.7586 0.0
C3706 C 0.37899 0.38935 0.76843 0.0
C3707 C 0.41084 0.43507 0.7915 0.0
C3708 C 0.39913 0.41909 0.78448 0.0
H3709 H 0.37426 0.34845 0.73543 0.0
H3710 H 0.38906 0.37214 0.753 0.0
H3711 H 0.3927 0.38182 0.78049 0.0
H3712 H 0.43426 0.45309 0.82433 0.0
H3713 H 0.41285 0.42738 0.81395 0.0
C3714 C 0.66009 0.02162 0.70114 0.0
C3715 C 0.6688 0.03479 0.69272 0.0
C3716 C 0.64865 0.02074 0.71019 0.0
C3717 C 0.63469 0.04363 0.73056 0.0
H3718 H 0.59579 0.00383 0.72582 0.0
C3719 C 0.58138 0.03338 0.76234 0.0
C3720 C 0.57257 0.01864 0.7684 0.0
C3721 C 0.59305 0.03611 0.75257 0.0
C3722 C 0.60661 0.01496 0.72742 0.0
H3723 H 0.67272 0.05766 0.68763 0.0
H3724 H 0.65264 0.05616 0.7037 0.0
H3725 H 0.61664 0.00757 0.71013 0.0
H3726 H 0.56927 0.99533 0.76919 0.0
H3727 H 0.58967 0.0001 0.75232 0.0
H3728 H 0.62473 0.0509 0.74812 0.0
C3729 C 0.65473 0.04651 0.70318 0.0
C3730 C 0.61854 0.01712 0.71839 0.0
C3731 C 0.66618 0.04736 0.69399 0.0
C3732 C 0.57568 0.00671 0.7645 0.0
C3733 C 0.58737 0.00946 0.7548 0.0
C3734 C 0.62274 0.04144 0.7397 0.0
C3735 C 0.64565 0.03303 0.71111 0.0
C3736 C 0.63278 0.03137 0.72002 0.0
C3737 C 0.59618 0.02418 0.74869 0.0
C3738 C 0.60863 0.02698 0.73839 0.0
H3739 H 0.66187 0.01177 0.70052 0.0
H3740 H 0.64205 0.01034 0.71641 0.0
H3741 H 0.64557 0.05471 0.7321 0.0
H3742 H 0.57913 0.04274 0.76502 0.0
H3743 H 0.59947 0.0475 0.74791 0.0
loop_
_geom_bond_atom_site_label_1
_geom_bond_atom_site_label_2
_geom_bond_distance
_geom_bond_site_symmetry_2
_ccdc_geom_bond_type
Co0 O1 2.216 . S
Co0 O2 2.091 . S
Co0 O4 2.004 . S
Co0 O10 2.021 . S
Co0 O12 2.137 1_455 S
Co0 O13 2.244 1_455 S
O1 Co0 2.216 . S
O1 C8 1.247 . S
O2 Co0 2.091 . S
O2 C8 1.261 . S
C3 O12 1.247 . S
C3 O13 1.272 . S
O4 Co0 2.004 . S
O4 C9 1.259 1_554 S
Co5 O6 2.061 . S
Co5 O11 2.052 . S
Co5 O13 2.135 . S
O6 Co5 2.061 . S
O6 C9 1.235 1_654 S
C7 O10 1.238 1_655 S
C7 O11 1.241 . S
C8 O1 1.247 . S
C8 O2 1.261 . S
C9 O4 1.259 1_556 S
C9 O6 1.235 1_456 S
O10 Co0 2.021 . S
O10 C7 1.238 1_455 S
O11 Co5 2.052 . S
O11 C7 1.241 . S
O12 Co0 2.137 1_655 S
O12 C3 1.247 . S
O13 Co0 2.244 1_655 S
O13 C3 1.272 . S
O13 Co5 2.135 . S
Co14 O15 2.216 . S
Co14 O16 2.091 . S
Co14 O18 2.004 . S
Co14 O24 2.021 . S
Co14 O26 2.137 . S
Co14 O27 2.244 . S
O15 Co14 2.216 . S
O15 C22 1.247 . S
O16 Co14 2.091 . S
O16 C22 1.261 . S
C17 O26 1.247 . S
C17 O27 1.272 . S
O18 Co14 2.004 . S
O18 C23 1.259 . S
Co19 O20 2.061 . S
Co19 O25 2.052 . S
Co19 O27 2.135 . S
O20 Co19 2.061 . S
O20 C23 1.235 . S
C21 O24 1.238 . S
C21 O25 1.241 . S
C22 O15 1.247 . S
C22 O16 1.261 . S
C23 O18 1.259 . S
C23 O20 1.235 . S
O24 Co14 2.021 . S
O24 C21 1.238 . S
O25 Co19 2.052 . S
O25 C21 1.241 . S
O26 Co14 2.137 . S
O26 C17 1.247 . S
O27 Co14 2.244 . S
O27 C17 1.272 . S
O27 Co19 2.135 . S
Co28 O29 2.216 . S
Co28 O30 2.091 . S
Co28 O32 2.004 . S
Co28 O38 2.021 . S
Co28 O40 2.132 . S
Co28 O41 2.244 1_545 S
O29 Co28 2.216 . S
O29 C36 1.247 . S
O30 Co28 2.091 . S
O30 C36 1.261 . S
C31 O40 1.164 1_565 S
C31 O41 1.272 . S
O32 Co28 2.004 . S
O32 C37 1.259 . S
Co33 O34 2.061 . S
Co33 O39 2.052 . S
Co33 O41 2.135 . S
O34 Co33 2.061 . S
O34 C37 1.235 1_565 S
C35 O38 1.238 1_565 S
C35 O39 1.241 . S
C36 O29 1.247 . S
C36 O30 1.261 . S
C37 O32 1.259 . S
C37 O34 1.235 1_545 S
O38 Co28 2.021 . S
O38 C35 1.238 1_545 S
O39 Co33 2.052 . S
O39 C35 1.241 . S
O40 Co28 2.132 . S
O40 C31 1.164 1_545 S
O41 Co28 2.244 1_565 S
O41 C31 1.272 . S
O41 Co33 2.135 . S
Co42 O43 2.216 . S
Co42 O44 2.091 . S
Co42 O46 2.004 . S
Co42 O52 2.021 . S
Co42 O54 2.137 1_655 S
Co42 O55 2.244 1_655 S
O43 Co42 2.216 . S
O43 C50 1.247 . S
O44 Co42 2.091 . S
O44 C50 1.261 . S
C45 O54 1.247 . S
C45 O55 1.272 . S
O46 Co42 2.004 . S
O46 C51 1.298 . S
Co47 O48 2.061 . S
Co47 O53 2.052 . S
Co47 O55 2.135 . S
O48 Co47 2.061 . S
O48 C51 1.194 1_455 S
C49 O52 1.238 1_455 S
C49 O53 1.241 . S
C50 O43 1.247 . S
C50 O44 1.261 . S
C51 O46 1.298 . S
C51 O48 1.194 1_655 S
O52 Co42 2.021 . S
O52 C49 1.238 1_655 S
O53 Co47 2.052 . S
O53 C49 1.241 . S
O54 Co42 2.137 1_455 S
O54 C45 1.247 . S
O55 Co42 2.244 1_455 S
O55 C45 1.272 . S
O55 Co47 2.135 . S
Co56 O57 2.216 . S
Co56 O58 2.091 . S
Co56 O60 2.004 1_554 S
Co56 O66 2.021 . S
Co56 O68 2.137 1_554 S
Co56 O69 2.244 1_554 S
O57 Co56 2.216 . S
O57 C64 1.247 . S
O58 Co56 2.091 . S
O58 C64 1.261 . S
C59 O68 1.247 . S
C59 O69 1.272 . S
O60 Co56 2.004 1_556 S
O60 C65 1.259 . S
Co61 O62 2.061 . S
Co61 O67 2.052 1_556 S
Co61 O69 2.135 . S
O62 Co61 2.061 . S
O62 C65 1.235 . S
C63 O66 1.238 . S
C63 O67 1.241 . S
C64 O57 1.247 . S
C64 O58 1.261 . S
C65 O60 1.259 . S
C65 O62 1.235 . S
O66 Co56 2.021 . S
O66 C63 1.238 . S
O67 Co61 2.052 1_554 S
O67 C63 1.241 . S
O68 Co56 2.137 1_556 S
O68 C59 1.247 . S
O69 Co56 2.244 1_556 S
O69 C59 1.272 . S
O69 Co61 2.135 . S
Co70 O71 2.216 . S
Co70 O72 2.091 . S
Co70 O74 2.004 . S
Co70 O80 2.021 . S
Co70 O82 2.137 1_565 S
Co70 O83 2.244 1_565 S
O71 Co70 2.216 . S
O71 C78 1.247 . S
O72 Co70 2.091 . S
O72 C78 1.261 . S
C73 O82 1.247 . S
C73 O83 1.272 . S
O74 Co70 2.004 . S
O74 C79 1.259 . S
Co75 O76 2.061 . S
Co75 O81 2.052 . S
Co75 O83 2.135 . S
O76 Co75 2.061 . S
O76 C79 1.235 1_545 S
C77 O80 1.238 1_545 S
C77 O81 1.241 . S
C78 O71 1.247 . S
C78 O72 1.261 . S
C79 O74 1.259 . S
C79 O76 1.235 1_565 S
O80 Co70 2.021 . S
O80 C77 1.238 1_565 S
O81 Co75 2.052 . S
O81 C77 1.241 . S
O82 Co70 2.137 1_545 S
O82 C73 1.247 . S
O83 Co70 2.244 1_545 S
O83 C73 1.272 . S
O83 Co75 2.135 . S
Co84 O85 2.216 . S
Co84 O86 2.091 . S
Co84 O88 2.004 . S
Co84 O94 2.021 . S
Co84 O96 2.137 . S
Co84 O97 2.244 . S
O85 Co84 2.216 . S
O85 C92 1.247 . S
O86 Co84 2.091 . S
O86 C92 1.261 . S
C87 O96 1.247 . S
C87 O97 1.272 . S
O88 Co84 2.004 . S
O88 C93 1.259 . S
Co89 O90 2.061 . S
Co89 O95 2.052 . S
Co89 O97 2.135 . S
O90 Co89 2.061 . S
O90 C93 1.235 . S
C91 O94 1.238 . S
C91 O95 1.241 . S
C92 O85 1.247 . S
C92 O86 1.261 . S
C93 O88 1.259 . S
C93 O90 1.235 . S
O94 Co84 2.021 . S
O94 C91 1.238 . S
O95 Co89 2.052 . S
O95 C91 1.241 . S
O96 Co84 2.137 . S
O96 C87 1.247 . S
O97 Co84 2.244 . S
O97 C87 1.272 . S
O97 Co89 2.135 . S
Co98 O99 2.216 . S
Co98 O100 2.091 . S
Co98 O102 2.004 . S
Co98 O108 2.021 . S
Co98 O110 2.137 . S
Co98 O111 2.244 . S
O99 Co98 2.216 . S
O99 C106 1.247 . S
O100 Co98 2.091 . S
O100 C106 1.261 . S
C101 O110 1.247 . S
C101 O111 1.272 . S
O102 Co98 2.004 . S
O102 C107 1.259 . S
Co103 O104 2.061 . S
Co103 O109 2.052 . S
Co103 O111 2.135 . S
O104 Co103 2.061 . S
O104 C107 1.235 . S
C105 O108 1.238 . S
C105 O109 1.241 . S
C106 O99 1.247 . S
C106 O100 1.261 . S
C107 O102 1.259 . S
C107 O104 1.235 . S
O108 Co98 2.021 . S
O108 C105 1.238 . S
O109 Co103 2.052 . S
O109 C105 1.241 . S
O110 Co98 2.137 . S
O110 C101 1.247 . S
O111 Co98 2.244 . S
O111 C101 1.272 . S
O111 Co103 2.135 . S
Co112 O113 2.216 . S
Co112 O114 2.091 . S
Co112 O116 2.004 . S
Co112 O122 2.021 . S
Co112 O124 2.137 . S
Co112 O125 2.244 . S
O113 Co112 2.216 . S
O113 C120 1.247 . S
O114 Co112 2.091 . S
O114 C120 1.261 . S
C115 O124 1.247 . S
C115 O125 1.272 . S
O116 Co112 2.004 . S
O116 C121 1.259 . S
Co117 O118 2.061 . S
Co117 O123 2.052 . S
Co117 O125 2.135 . S
O118 Co117 2.061 . S
O118 C121 1.235 . S
C119 O122 1.238 . S
C119 O123 1.241 . S
C120 O113 1.247 . S
C120 O114 1.261 . S
C121 O116 1.259 . S
C121 O118 1.235 . S
O122 Co112 2.021 . S
O122 C119 1.238 . S
O123 Co117 2.052 . S
O123 C119 1.241 . S
O124 Co112 2.137 . S
O124 C115 1.247 . S
O125 Co112 2.244 . S
O125 C115 1.272 . S
O125 Co117 2.135 . S
Co126 O127 2.216 . S
Co126 O128 2.091 . S
Co126 O130 2.004 . S
Co126 O136 2.021 . S
Co126 O138 2.137 . S
Co126 O139 2.244 . S
O127 Co126 2.216 . S
O127 C134 1.247 . S
O128 Co126 2.091 . S
O128 C134 1.261 . S
C129 O138 1.247 . S
C129 O139 1.272 . S
O130 Co126 2.004 . S
O130 C135 1.259 . S
Co131 O132 2.061 . S
Co131 O137 2.052 . S
Co131 O139 2.135 . S
O132 Co131 2.061 . S
O132 C135 1.235 . S
C133 O136 1.238 . S
C133 O137 1.241 . S
C134 O127 1.247 . S
C134 O128 1.261 . S
C135 O130 1.259 . S
C135 O132 1.235 . S
O136 Co126 2.021 . S
O136 C133 1.238 . S
O137 Co131 2.052 . S
O137 C133 1.241 . S
O138 Co126 2.137 . S
O138 C129 1.247 . S
O139 Co126 2.244 . S
O139 C129 1.272 . S
O139 Co131 2.135 . S
Co140 O141 2.216 . S
Co140 O142 2.091 . S
Co140 O144 2.004 . S
Co140 O150 2.021 . S
Co140 O152 2.137 . S
Co140 O153 2.244 . S
O141 Co140 2.216 . S
O141 C148 1.247 . S
O142 Co140 2.091 . S
O142 C148 1.261 . S
C143 O152 1.247 . S
C143 O153 1.272 . S
O144 Co140 2.004 . S
O144 C149 1.259 . S
Co145 O146 2.061 . S
Co145 O151 2.052 . S
Co145 O153 2.135 . S
O146 Co145 2.061 . S
O146 C149 1.235 . S
C147 O150 1.238 . S
C147 O151 1.241 . S
C148 O141 1.247 . S
C148 O142 1.261 . S
C149 O144 1.259 . S
C149 O146 1.235 . S
O150 Co140 2.021 . S
O150 C147 1.238 . S
O151 Co145 2.052 . S
O151 C147 1.241 . S
O152 Co140 2.137 . S
O152 C143 1.247 . S
O153 Co140 2.244 . S
O153 C143 1.272 . S
O153 Co145 2.135 . S
Co154 O155 2.216 . S
Co154 O156 2.091 . S
Co154 O158 2.004 . S
Co154 O164 2.021 . S
Co154 O166 2.137 . S
Co154 O167 2.244 . S
O155 Co154 2.216 . S
O155 C162 1.247 . S
O156 Co154 2.091 . S
O156 C162 1.261 . S
C157 O166 1.247 . S
C157 O167 1.272 . S
O158 Co154 2.004 . S
O158 C163 1.259 . S
Co159 O160 2.061 . S
Co159 O165 2.052 . S
Co159 O167 2.135 . S
O160 Co159 2.061 . S
O160 C163 1.235 . S
C161 O164 1.238 . S
C161 O165 1.241 . S
C162 O155 1.247 . S
C162 O156 1.261 . S
C163 O158 1.259 . S
C163 O160 1.235 . S
O164 Co154 2.021 . S
O164 C161 1.238 . S
O165 Co159 2.052 . S
O165 C161 1.241 . S
O166 Co154 2.137 . S
O166 C157 1.247 . S
O167 Co154 2.244 . S
O167 C157 1.272 . S
O167 Co159 2.135 . S
Co168 O169 2.216 . S
Co168 O170 2.091 . S
Co168 O172 2.004 . S
Co168 O178 2.021 . S
Co168 O180 2.137 . S
Co168 O181 2.244 . S
O169 Co168 2.216 . S
O169 C176 1.247 . S
O170 Co168 2.091 . S
O170 C176 1.261 . S
C171 O180 1.247 . S
C171 O181 1.272 . S
O172 Co168 2.004 . S
O172 C177 1.259 . S
Co173 O174 2.061 . S
Co173 O179 2.052 . S
Co173 O181 2.135 . S
O174 Co173 2.061 . S
O174 C177 1.235 . S
C175 O178 1.238 . S
C175 O179 1.241 . S
C176 O169 1.247 . S
C176 O170 1.261 . S
C177 O172 1.259 . S
C177 O174 1.235 . S
O178 Co168 2.021 . S
O178 C175 1.238 . S
O179 Co173 2.052 . S
O179 C175 1.241 . S
O180 Co168 2.137 . S
O180 C171 1.247 . S
O181 Co168 2.244 . S
O181 C171 1.272 . S
O181 Co173 2.135 . S
Co182 O183 2.216 . S
Co182 O184 2.091 . S
Co182 O186 2.004 . S
Co182 O192 2.021 . S
Co182 O194 2.137 . S
Co182 O195 2.244 . S
O183 Co182 2.216 . S
O183 C190 1.247 . S
O184 Co182 2.091 . S
O184 C190 1.261 . S
C185 O194 1.247 . S
C185 O195 1.272 . S
O186 Co182 2.004 . S
O186 C191 1.259 . S
Co187 O188 2.061 . S
Co187 O193 2.052 . S
Co187 O195 2.135 . S
O188 Co187 2.061 . S
O188 C191 1.235 . S
C189 O192 1.238 . S
C189 O193 1.241 . S
C190 O183 1.247 . S
C190 O184 1.261 . S
C191 O186 1.259 . S
C191 O188 1.235 . S
O192 Co182 2.021 . S
O192 C189 1.238 . S
O193 Co187 2.052 . S
O193 C189 1.241 . S
O194 Co182 2.137 . S
O194 C185 1.247 . S
O195 Co182 2.244 . S
O195 C185 1.272 . S
O195 Co187 2.135 . S
Co196 O197 2.216 . S
Co196 O198 2.091 . S
Co196 O200 2.004 . S
Co196 O206 2.021 . S
Co196 O208 2.137 . S
Co196 O209 2.244 . S
O197 Co196 2.216 . S
O197 C204 1.247 . S
O198 Co196 2.091 . S
O198 C204 1.261 . S
C199 O208 1.247 . S
C199 O209 1.272 . S
O200 Co196 2.004 . S
O200 C205 1.259 . S
Co201 O202 2.061 . S
Co201 O207 2.052 . S
Co201 O209 2.135 . S
O202 Co201 2.061 . S
O202 C205 1.235 . S
C203 O206 1.238 . S
C203 O207 1.241 . S
C204 O197 1.247 . S
C204 O198 1.261 . S
C205 O200 1.259 . S
C205 O202 1.235 . S
O206 Co196 2.021 . S
O206 C203 1.238 . S
O207 Co201 2.052 . S
O207 C203 1.241 . S
O208 Co196 2.137 . S
O208 C199 1.247 . S
O209 Co196 2.244 . S
O209 C199 1.272 . S
O209 Co201 2.135 . S
Co210 O211 2.216 . S
Co210 O212 2.091 . S
Co210 O214 2.004 . S
Co210 O220 2.021 . S
Co210 O222 2.137 . S
Co210 O223 2.244 . S
O211 Co210 2.216 . S
O211 C218 1.247 . S
O212 Co210 2.091 . S
O212 C218 1.261 . S
C213 O222 1.247 . S
C213 O223 1.272 . S
O214 Co210 2.004 . S
O214 C219 1.259 . S
Co215 O216 2.061 . S
Co215 O221 2.052 . S
Co215 O223 2.135 . S
O216 Co215 2.061 . S
O216 C219 1.235 . S
C217 O220 1.238 . S
C217 O221 1.241 . S
C218 O211 1.247 . S
C218 O212 1.261 . S
C219 O214 1.259 . S
C219 O216 1.235 . S
O220 Co210 2.021 . S
O220 C217 1.238 . S
O221 Co215 2.052 . S
O221 C217 1.241 . S
O222 Co210 2.137 . S
O222 C213 1.247 . S
O223 Co210 2.244 . S
O223 C213 1.272 . S
O223 Co215 2.135 . S
Co224 O225 2.216 . S
Co224 O226 2.091 . S
Co224 O228 2.004 . S
Co224 O234 2.021 . S
Co224 O236 2.137 . S
Co224 O237 2.244 . S
O225 Co224 2.216 . S
O225 C232 1.247 . S
O226 Co224 2.091 . S
O226 C232 1.261 . S
C227 O236 1.247 . S
C227 O237 1.272 . S
O228 Co224 2.004 . S
O228 C233 1.259 . S
Co229 O230 2.061 . S
Co229 O235 2.052 . S
Co229 O237 2.135 . S
O230 Co229 2.061 . S
O230 C233 1.235 . S
C231 O234 1.238 . S
C231 O235 1.241 . S
C232 O225 1.247 . S
C232 O226 1.261 . S
C233 O228 1.259 . S
C233 O230 1.235 . S
O234 Co224 2.021 . S
O234 C231 1.238 . S
O235 Co229 2.052 . S
O235 C231 1.241 . S
O236 Co224 2.137 . S
O236 C227 1.247 . S
O237 Co224 2.244 . S
O237 C227 1.272 . S
O237 Co229 2.135 . S
Co238 O239 2.216 . S
Co238 O240 2.091 . S
Co238 O242 2.004 . S
Co238 O248 2.021 . S
Co238 O250 2.137 . S
Co238 O251 2.244 . S
O239 Co238 2.216 . S
O239 C246 1.247 . S
O240 Co238 2.091 . S
O240 C246 1.261 . S
C241 O250 1.247 . S
C241 O251 1.272 . S
O242 Co238 2.004 . S
O242 C247 1.259 . S
Co243 O244 2.061 . S
Co243 O249 2.052 . S
Co243 O251 2.135 . S
O244 Co243 2.061 . S
O244 C247 1.235 . S
C245 O248 1.238 . S
C245 O249 1.241 . S
C246 O239 1.247 . S
C246 O240 1.261 . S
C247 O242 1.259 . S
C247 O244 1.235 . S
O248 Co238 2.021 . S
O248 C245 1.238 . S
O249 Co243 2.052 . S
O249 C245 1.241 . S
O250 Co238 2.137 . S
O250 C241 1.247 . S
O251 Co238 2.244 . S
O251 C241 1.272 . S
O251 Co243 2.135 . S
H252 O278 0.856 . S
H253 O281 0.854 . S
H254 C289 0.930 . S
H255 C290 0.930 . S
H256 C292 0.930 . S
H257 C293 0.930 . S
H258 C295 0.931 . S
H259 C296 0.930 . S
H260 C298 0.930 . S
H261 C299 0.929 . S
H262 C301 0.930 . S
H263 C302 0.931 . S
H264 C304 0.930 . S
H265 C305 0.929 . S
H266 C307 0.931 . S
H267 C308 0.930 . S
H268 C310 0.930 . S
H269 C311 0.932 . S
H270 C313 0.930 . S
H271 C314 0.929 . S
H272 C316 0.931 . S
H273 C317 0.930 . S
H274 C319 0.929 . S
H275 C320 0.931 . S
H276 C322 0.930 . S
H277 C323 0.929 . S
O278 H252 0.856 . S
O278 C324 1.300 . S
O279 C324 1.209 . S
O280 C325 1.199 . S
O281 H253 0.854 . S
O281 C325 1.297 . S
C282 C283 1.404 . S
C282 C287 1.397 . S
C282 C288 1.492 . S
C283 C282 1.404 . S
C283 C284 1.396 . S
C283 C294 1.492 . S
C284 C283 1.396 . S
C284 C285 1.397 . S
C284 C300 1.509 . S
C285 C284 1.397 . S
C285 C286 1.412 . S
C285 C306 1.485 . S
C286 C285 1.412 . S
C286 C287 1.388 . S
C286 C312 1.490 . S
C287 C282 1.397 . S
C287 C286 1.388 . S
C287 C318 1.519 . S
C288 C282 1.492 . S
C288 C289 1.363 . S
C288 C293 1.390 . S
C289 H254 0.930 . S
C289 C288 1.363 . S
C289 C290 1.372 . S
C290 H255 0.930 . S
C290 C289 1.372 . S
C290 C291 1.383 . S
C291 C290 1.383 . S
C291 C292 1.395 . S
C292 H256 0.930 . S
C292 C291 1.395 . S
C292 C293 1.362 . S
C293 H257 0.930 . S
C293 C288 1.390 . S
C293 C292 1.362 . S
C294 C283 1.492 . S
C294 C295 1.377 . S
C294 C299 1.397 . S
C295 H258 0.931 . S
C295 C294 1.377 . S
C295 C296 1.376 . S
C296 H259 0.930 . S
C296 C295 1.376 . S
C296 C297 1.376 . S
C297 C296 1.376 . S
C297 C298 1.378 . S
C297 C324 1.486 . S
C298 H260 0.930 . S
C298 C297 1.378 . S
C298 C299 1.376 . S
C299 H261 0.929 . S
C299 C294 1.397 . S
C299 C298 1.376 . S
C300 C284 1.509 . S
C300 C301 1.391 . S
C300 C305 1.386 . S
C301 H262 0.930 . S
C301 C300 1.391 . S
C301 C302 1.375 . S
C302 H263 0.931 . S
C302 C301 1.375 . S
C302 C303 1.375 . S
C303 C302 1.375 . S
C303 C304 1.361 . S
C304 H264 0.930 . S
C304 C303 1.361 . S
C304 C305 1.399 . S
C305 H265 0.929 . S
C305 C300 1.386 . S
C305 C304 1.399 . S
C306 C285 1.485 . S
C306 C307 1.394 . S
C306 C311 1.360 . S
C307 H266 0.931 . S
C307 C306 1.394 . S
C307 C308 1.372 . S
C308 H267 0.930 . S
C308 C307 1.372 . S
C308 C309 1.397 . S
C309 C308 1.397 . S
C309 C310 1.390 . S
C309 C325 1.476 . S
C310 H268 0.930 . S
C310 C309 1.390 . S
C310 C311 1.366 . S
C311 H269 0.932 . S
C311 C306 1.360 . S
C311 C310 1.366 . S
C312 C286 1.490 . S
C312 C313 1.380 . S
C312 C317 1.386 . S
C313 H270 0.930 . S
C313 C312 1.380 . S
C313 C314 1.381 . S
C314 H271 0.929 . S
C314 C313 1.381 . S
C314 C315 1.371 . S
C315 C314 1.371 . S
C315 C316 1.380 . S
C316 H272 0.931 . S
C316 C315 1.380 . S
C316 C317 1.387 . S
C317 H273 0.930 . S
C317 C312 1.386 . S
C317 C316 1.387 . S
C318 C287 1.519 . S
C318 C319 1.377 . S
C318 C323 1.361 . S
C319 H274 0.929 . S
C319 C318 1.377 . S
C319 C320 1.386 . S
C320 H275 0.931 . S
C320 C319 1.386 . S
C320 C321 1.363 . S
C321 C320 1.363 . S
C321 C322 1.385 . S
C322 H276 0.930 . S
C322 C321 1.385 . S
C322 C323 1.396 . S
C323 H277 0.929 . S
C323 C318 1.361 . S
C323 C322 1.396 . S
C324 O278 1.300 . S
C324 O279 1.209 . S
C324 C297 1.486 . S
C325 O280 1.199 . S
C325 O281 1.297 . S
C325 C309 1.476 . S
H326 O352 0.856 . S
H327 O355 0.854 . S
H328 C363 0.930 . S
H329 C364 0.930 . S
H330 C366 0.930 . S
H331 C367 0.930 . S
H332 C369 0.931 . S
H333 C370 0.930 . S
H334 C372 0.930 . S
H335 C373 0.929 . S
H336 C375 0.930 . S
H337 C376 0.931 . S
H338 C378 0.930 . S
H339 C379 0.929 . S
H340 C381 0.931 . S
H341 C382 0.930 . S
H342 C384 0.930 . S
H343 C385 0.932 . S
H344 C387 0.930 . S
H345 C388 0.929 . S
H346 C390 0.931 . S
H347 C391 0.930 . S
H348 C393 0.929 . S
H349 C394 0.931 . S
H350 C396 0.930 . S
H351 C397 0.929 . S
O352 H326 0.856 . S
O352 C398 1.300 . S
O353 C398 1.209 . S
O354 C399 1.199 . S
O355 H327 0.854 . S
O355 C399 1.297 . S
C356 C357 1.404 . S
C356 C361 1.397 . S
C356 C362 1.492 . S
C357 C356 1.404 . S
C357 C358 1.396 . S
C357 C368 1.492 . S
C358 C357 1.396 . S
C358 C359 1.397 . S
C358 C374 1.509 . S
C359 C358 1.397 . S
C359 C360 1.412 . S
C359 C380 1.485 . S
C360 C359 1.412 . S
C360 C361 1.388 . S
C360 C386 1.490 . S
C361 C356 1.397 . S
C361 C360 1.388 . S
C361 C392 1.519 . S
C362 C356 1.492 . S
C362 C363 1.363 . S
C362 C367 1.390 . S
C363 H328 0.930 . S
C363 C362 1.363 . S
C363 C364 1.372 . S
C364 H329 0.930 . S
C364 C363 1.372 . S
C364 C365 1.383 . S
C365 C364 1.383 . S
C365 C366 1.395 . S
C366 H330 0.930 . S
C366 C365 1.395 . S
C366 C367 1.362 . S
C367 H331 0.930 . S
C367 C362 1.390 . S
C367 C366 1.362 . S
C368 C357 1.492 . S
C368 C369 1.377 . S
C368 C373 1.397 . S
C369 H332 0.931 . S
C369 C368 1.377 . S
C369 C370 1.376 . S
C370 H333 0.930 . S
C370 C369 1.376 . S
C370 C371 1.376 . S
C371 C370 1.376 . S
C371 C372 1.378 . S
C371 C398 1.486 . S
C372 H334 0.930 . S
C372 C371 1.378 . S
C372 C373 1.376 . S
C373 H335 0.929 . S
C373 C368 1.397 . S
C373 C372 1.376 . S
C374 C358 1.509 . S
C374 C375 1.391 . S
C374 C379 1.386 . S
C375 H336 0.930 . S
C375 C374 1.391 . S
C375 C376 1.375 . S
C376 H337 0.931 . S
C376 C375 1.375 . S
C376 C377 1.375 . S
C377 C376 1.375 . S
C377 C378 1.361 . S
C378 H338 0.930 . S
C378 C377 1.361 . S
C378 C379 1.399 . S
C379 H339 0.929 . S
C379 C374 1.386 . S
C379 C378 1.399 . S
C380 C359 1.485 . S
C380 C381 1.394 . S
C380 C385 1.360 . S
C381 H340 0.931 . S
C381 C380 1.394 . S
C381 C382 1.372 . S
C382 H341 0.930 . S
C382 C381 1.372 . S
C382 C383 1.397 . S
C383 C382 1.397 . S
C383 C384 1.390 . S
C383 C399 1.476 . S
C384 H342 0.930 . S
C384 C383 1.390 . S
C384 C385 1.366 . S
C385 H343 0.932 . S
C385 C380 1.360 . S
C385 C384 1.366 . S
C386 C360 1.490 . S
C386 C387 1.380 . S
C386 C391 1.386 . S
C387 H344 0.930 . S
C387 C386 1.380 . S
C387 C388 1.381 . S
C388 H345 0.929 . S
C388 C387 1.381 . S
C388 C389 1.371 . S
C389 C388 1.371 . S
C389 C390 1.380 . S
C390 H346 0.931 . S
C390 C389 1.380 . S
C390 C391 1.387 . S
C391 H347 0.930 . S
C391 C386 1.386 . S
C391 C390 1.387 . S
C392 C361 1.519 . S
C392 C393 1.377 . S
C392 C397 1.361 . S
C393 H348 0.929 . S
C393 C392 1.377 . S
C393 C394 1.386 . S
C394 H349 0.931 . S
C394 C393 1.386 . S
C394 C395 1.363 . S
C395 C394 1.363 . S
C395 C396 1.385 . S
C396 H350 0.930 . S
C396 C395 1.385 . S
C396 C397 1.396 . S
C397 H351 0.929 . S
C397 C392 1.361 . S
C397 C396 1.396 . S
C398 O352 1.300 . S
C398 O353 1.209 . S
C398 C371 1.486 . S
C399 O354 1.199 . S
C399 O355 1.297 . S
C399 C383 1.476 . S
H400 O426 0.856 . S
H401 O429 0.854 . S
H402 C437 0.930 . S
H403 C438 0.930 . S
H404 C440 0.930 . S
H405 C441 0.930 . S
H406 C443 0.931 . S
H407 C444 0.930 . S
H408 C446 0.930 . S
H409 C447 0.929 . S
H410 C449 0.930 . S
H411 C450 0.931 . S
H412 C452 0.930 . S
H413 C453 0.929 . S
H414 C455 0.931 . S
H415 C456 0.930 . S
H416 C458 0.930 . S
H417 C459 0.932 . S
H418 C461 0.930 . S
H419 C462 0.929 . S
H420 C464 0.931 . S
H421 C465 0.930 . S
H422 C467 0.929 . S
H423 C468 0.931 . S
H424 C470 0.930 . S
H425 C471 0.929 . S
O426 H400 0.856 . S
O426 C472 1.300 . S
O427 C472 1.209 . S
O428 C473 1.199 . S
O429 H401 0.854 . S
O429 C473 1.297 . S
C430 C431 1.404 . S
C430 C435 1.397 . S
C430 C436 1.492 . S
C431 C430 1.404 . S
C431 C432 1.396 . S
C431 C442 1.492 . S
C432 C431 1.396 . S
C432 C433 1.397 . S
C432 C448 1.509 . S
C433 C432 1.397 . S
C433 C434 1.412 . S
C433 C454 1.485 . S
C434 C433 1.412 . S
C434 C435 1.388 . S
C434 C460 1.490 . S
C435 C430 1.397 . S
C435 C434 1.388 . S
C435 C466 1.519 . S
C436 C430 1.492 . S
C436 C437 1.363 . S
C436 C441 1.390 . S
C437 H402 0.930 . S
C437 C436 1.363 . S
C437 C438 1.372 . S
C438 H403 0.930 . S
C438 C437 1.372 . S
C438 C439 1.383 . S
C439 C438 1.383 . S
C439 C440 1.395 . S
C440 H404 0.930 . S
C440 C439 1.395 . S
C440 C441 1.362 . S
C441 H405 0.930 . S
C441 C436 1.390 . S
C441 C440 1.362 . S
C442 C431 1.492 . S
C442 C443 1.377 . S
C442 C447 1.397 . S
C443 H406 0.931 . S
C443 C442 1.377 . S
C443 C444 1.376 . S
C444 H407 0.930 . S
C444 C443 1.376 . S
C444 C445 1.376 . S
C445 C444 1.376 . S
C445 C446 1.378 . S
C445 C472 1.486 . S
C446 H408 0.930 . S
C446 C445 1.378 . S
C446 C447 1.376 . S
C447 H409 0.929 . S
C447 C442 1.397 . S
C447 C446 1.376 . S
C448 C432 1.509 . S
C448 C449 1.391 . S
C448 C453 1.386 . S
C449 H410 0.930 . S
C449 C448 1.391 . S
C449 C450 1.375 . S
C450 H411 0.931 . S
C450 C449 1.375 . S
C450 C451 1.375 . S
C451 C450 1.375 . S
C451 C452 1.361 . S
C452 H412 0.930 . S
C452 C451 1.361 . S
C452 C453 1.399 . S
C453 H413 0.929 . S
C453 C448 1.386 . S
C453 C452 1.399 . S
C454 C433 1.485 . S
C454 C455 1.394 . S
C454 C459 1.360 . S
C455 H414 0.931 . S
C455 C454 1.394 . S
C455 C456 1.372 . S
C456 H415 0.930 . S
C456 C455 1.372 . S
C456 C457 1.397 . S
C457 C456 1.397 . S
C457 C458 1.390 . S
C457 C473 1.476 . S
C458 H416 0.930 . S
C458 C457 1.390 . S
C458 C459 1.366 . S
C459 H417 0.932 . S
C459 C454 1.360 . S
C459 C458 1.366 . S
C460 C434 1.490 . S
C460 C461 1.380 . S
C460 C465 1.386 . S
C461 H418 0.930 . S
C461 C460 1.380 . S
C461 C462 1.381 . S
C462 H419 0.929 . S
C462 C461 1.381 . S
C462 C463 1.371 . S
C463 C462 1.371 . S
C463 C464 1.380 . S
C464 H420 0.931 . S
C464 C463 1.380 . S
C464 C465 1.387 . S
C465 H421 0.930 . S
C465 C460 1.386 . S
C465 C464 1.387 . S
C466 C435 1.519 . S
C466 C467 1.377 . S
C466 C471 1.361 . S
C467 H422 0.929 . S
C467 C466 1.377 . S
C467 C468 1.386 . S
C468 H423 0.931 . S
C468 C467 1.386 . S
C468 C469 1.363 . S
C469 C468 1.363 . S
C469 C470 1.385 . S
C470 H424 0.930 . S
C470 C469 1.385 . S
C470 C471 1.396 . S
C471 H425 0.929 . S
C471 C466 1.361 . S
C471 C470 1.396 . S
C472 O426 1.300 . S
C472 O427 1.209 . S
C472 C445 1.486 . S
C473 O428 1.199 . S
C473 O429 1.297 . S
C473 C457 1.476 . S
H474 O500 0.856 . S
H475 O503 0.854 . S
H476 C511 0.930 . S
H477 C512 0.930 . S
H478 C514 0.930 . S
H479 C515 0.930 . S
H480 C517 0.931 . S
H481 C518 0.930 . S
H482 C520 0.930 . S
H483 C521 0.929 . S
H484 C523 0.930 . S
H485 C524 0.931 . S
H486 C526 0.930 . S
H487 C527 0.929 . S
H488 C529 0.931 . S
H489 C530 0.930 . S
H490 C532 0.930 . S
H491 C533 0.932 . S
H492 C535 0.930 . S
H493 C536 0.929 . S
H494 C538 0.931 . S
H495 C539 0.930 . S
H496 C541 0.929 . S
H497 C542 0.931 . S
H498 C544 0.930 . S
H499 C545 0.929 . S
O500 H474 0.856 . S
O500 C546 1.300 . S
O501 C546 1.209 . S
O502 C547 1.199 . S
O503 H475 0.854 . S
O503 C547 1.297 . S
C504 C505 1.404 . S
C504 C509 1.397 . S
C504 C510 1.492 . S
C505 C504 1.404 . S
C505 C506 1.396 . S
C505 C516 1.492 . S
C506 C505 1.396 . S
C506 C507 1.397 . S
C506 C522 1.509 . S
C507 C506 1.397 . S
C507 C508 1.412 . S
C507 C528 1.485 . S
C508 C507 1.412 . S
C508 C509 1.388 . S
C508 C534 1.490 . S
C509 C504 1.397 . S
C509 C508 1.388 . S
C509 C540 1.519 . S
C510 C504 1.492 . S
C510 C511 1.363 . S
C510 C515 1.390 . S
C511 H476 0.930 . S
C511 C510 1.363 . S
C511 C512 1.372 . S
C512 H477 0.930 . S
C512 C511 1.372 . S
C512 C513 1.383 . S
C513 C512 1.383 . S
C513 C514 1.395 . S
C514 H478 0.930 . S
C514 C513 1.395 . S
C514 C515 1.362 . S
C515 H479 0.930 . S
C515 C510 1.390 . S
C515 C514 1.362 . S
C516 C505 1.492 . S
C516 C517 1.377 . S
C516 C521 1.397 . S
C517 H480 0.931 . S
C517 C516 1.377 . S
C517 C518 1.376 . S
C518 H481 0.930 . S
C518 C517 1.376 . S
C518 C519 1.376 . S
C519 C518 1.376 . S
C519 C520 1.378 . S
C519 C546 1.486 . S
C520 H482 0.930 . S
C520 C519 1.378 . S
C520 C521 1.376 . S
C521 H483 0.929 . S
C521 C516 1.397 . S
C521 C520 1.376 . S
C522 C506 1.509 . S
C522 C523 1.391 . S
C522 C527 1.386 . S
C523 H484 0.930 . S
C523 C522 1.391 . S
C523 C524 1.375 . S
C524 H485 0.931 . S
C524 C523 1.375 . S
C524 C525 1.375 . S
C525 C524 1.375 . S
C525 C526 1.361 . S
C526 H486 0.930 . S
C526 C525 1.361 . S
C526 C527 1.399 . S
C527 H487 0.929 . S
C527 C522 1.386 . S
C527 C526 1.399 . S
C528 C507 1.485 . S
C528 C529 1.394 . S
C528 C533 1.360 . S
C529 H488 0.931 . S
C529 C528 1.394 . S
C529 C530 1.372 . S
C530 H489 0.930 . S
C530 C529 1.372 . S
C530 C531 1.397 . S
C531 C530 1.397 . S
C531 C532 1.390 . S
C531 C547 1.476 . S
C532 H490 0.930 . S
C532 C531 1.390 . S
C532 C533 1.366 . S
C533 H491 0.932 . S
C533 C528 1.360 . S
C533 C532 1.366 . S
C534 C508 1.490 . S
C534 C535 1.380 . S
C534 C539 1.386 . S
C535 H492 0.930 . S
C535 C534 1.380 . S
C535 C536 1.381 . S
C536 H493 0.929 . S
C536 C535 1.381 . S
C536 C537 1.371 . S
C537 C536 1.371 . S
C537 C538 1.380 . S
C538 H494 0.931 . S
C538 C537 1.380 . S
C538 C539 1.387 . S
C539 H495 0.930 . S
C539 C534 1.386 . S
C539 C538 1.387 . S
C540 C509 1.519 . S
C540 C541 1.377 . S
C540 C545 1.361 . S
C541 H496 0.929 . S
C541 C540 1.377 . S
C541 C542 1.386 . S
C542 H497 0.931 . S
C542 C541 1.386 . S
C542 C543 1.363 . S
C543 C542 1.363 . S
C543 C544 1.385 . S
C544 H498 0.930 . S
C544 C543 1.385 . S
C544 C545 1.396 . S
C545 H499 0.929 . S
C545 C540 1.361 . S
C545 C544 1.396 . S
C546 O500 1.300 . S
C546 O501 1.209 . S
C546 C519 1.486 . S
C547 O502 1.199 . S
C547 O503 1.297 . S
C547 C531 1.476 . S
H548 O574 0.856 . S
H549 O577 0.854 . S
H550 C585 0.930 . S
H551 C586 0.930 . S
H552 C588 0.930 . S
H553 C589 0.930 . S
H554 C591 0.931 . S
H555 C592 0.930 . S
H556 C594 0.930 . S
H557 C595 0.929 . S
H558 C597 0.930 . S
H559 C598 0.931 . S
H560 C600 0.930 . S
H561 C601 0.929 . S
H562 C603 0.931 . S
H563 C604 0.930 . S
H564 C606 0.930 . S
H565 C607 0.932 . S
H566 C609 0.930 . S
H567 C610 0.929 . S
H568 C612 0.931 . S
H569 C613 0.930 . S
H570 C615 0.929 . S
H571 C616 0.931 . S
H572 C618 0.930 . S
H573 C619 0.929 . S
O574 H548 0.856 . S
O574 C620 1.300 . S
O575 C620 1.209 . S
O576 C621 1.199 . S
O577 H549 0.854 . S
O577 C621 1.297 . S
C578 C579 1.404 . S
C578 C583 1.397 . S
C578 C584 1.492 . S
C579 C578 1.404 . S
C579 C580 1.396 . S
C579 C590 1.492 . S
C580 C579 1.396 . S
C580 C581 1.397 . S
C580 C596 1.509 . S
C581 C580 1.397 . S
C581 C582 1.412 . S
C581 C602 1.485 . S
C582 C581 1.412 . S
C582 C583 1.388 . S
C582 C608 1.490 . S
C583 C578 1.397 . S
C583 C582 1.388 . S
C583 C614 1.519 . S
C584 C578 1.492 . S
C584 C585 1.363 . S
C584 C589 1.390 . S
C585 H550 0.930 . S
C585 C584 1.363 . S
C585 C586 1.372 . S
C586 H551 0.930 . S
C586 C585 1.372 . S
C586 C587 1.383 . S
C587 C586 1.383 . S
C587 C588 1.395 . S
C588 H552 0.930 . S
C588 C587 1.395 . S
C588 C589 1.362 . S
C589 H553 0.930 . S
C589 C584 1.390 . S
C589 C588 1.362 . S
C590 C579 1.492 . S
C590 C591 1.377 . S
C590 C595 1.397 . S
C591 H554 0.931 . S
C591 C590 1.377 . S
C591 C592 1.376 . S
C592 H555 0.930 . S
C592 C591 1.376 . S
C592 C593 1.376 . S
C593 C592 1.376 . S
C593 C594 1.378 . S
C593 C620 1.486 . S
C594 H556 0.930 . S
C594 C593 1.378 . S
C594 C595 1.376 . S
C595 H557 0.929 . S
C595 C590 1.397 . S
C595 C594 1.376 . S
C596 C580 1.509 . S
C596 C597 1.391 . S
C596 C601 1.386 . S
C597 H558 0.930 . S
C597 C596 1.391 . S
C597 C598 1.375 . S
C598 H559 0.931 . S
C598 C597 1.375 . S
C598 C599 1.375 . S
C599 C598 1.375 . S
C599 C600 1.361 . S
C600 H560 0.930 . S
C600 C599 1.361 . S
C600 C601 1.399 . S
C601 H561 0.929 . S
C601 C596 1.386 . S
C601 C600 1.399 . S
C602 C581 1.485 . S
C602 C603 1.394 . S
C602 C607 1.360 . S
C603 H562 0.931 . S
C603 C602 1.394 . S
C603 C604 1.372 . S
C604 H563 0.930 . S
C604 C603 1.372 . S
C604 C605 1.397 . S
C605 C604 1.397 . S
C605 C606 1.390 . S
C605 C621 1.476 . S
C606 H564 0.930 . S
C606 C605 1.390 . S
C606 C607 1.366 . S
C607 H565 0.932 . S
C607 C602 1.360 . S
C607 C606 1.366 . S
C608 C582 1.490 . S
C608 C609 1.380 . S
C608 C613 1.386 . S
C609 H566 0.930 . S
C609 C608 1.380 . S
C609 C610 1.381 . S
C610 H567 0.929 . S
C610 C609 1.381 . S
C610 C611 1.371 . S
C611 C610 1.371 . S
C611 C612 1.380 . S
C612 H568 0.931 . S
C612 C611 1.380 . S
C612 C613 1.387 . S
C613 H569 0.930 . S
C613 C608 1.386 . S
C613 C612 1.387 . S
C614 C583 1.519 . S
C614 C615 1.377 . S
C614 C619 1.361 . S
C615 H570 0.929 . S
C615 C614 1.377 . S
C615 C616 1.386 . S
C616 H571 0.931 . S
C616 C615 1.386 . S
C616 C617 1.363 . S
C617 C616 1.363 . S
C617 C618 1.385 . S
C618 H572 0.930 . S
C618 C617 1.385 . S
C618 C619 1.396 . S
C619 H573 0.929 . S
C619 C614 1.361 . S
C619 C618 1.396 . S
C620 O574 1.300 . S
C620 O575 1.209 . S
C620 C593 1.486 . S
C621 O576 1.199 . S
C621 O577 1.297 . S
C621 C605 1.476 . S
H622 O648 0.856 1_554 S
H623 O651 0.854 . S
H624 C659 0.930 . S
H625 C660 0.930 . S
H626 C662 0.930 . S
H627 C663 0.930 . S
H628 C665 0.931 . S
H629 C666 0.930 . S
H630 C668 0.930 . S
H631 C669 0.929 . S
H632 C671 0.930 . S
H633 C672 0.931 . S
H634 C674 0.930 . S
H635 C675 0.929 . S
H636 C677 0.931 . S
H637 C678 0.930 . S
H638 C680 0.930 . S
H639 C681 0.932 . S
H640 C683 0.930 . S
H641 C684 0.929 . S
H642 C686 0.931 . S
H643 C687 0.930 . S
H644 C689 0.929 . S
H645 C690 0.931 . S
H646 C692 0.930 . S
H647 C693 0.929 . S
O648 H622 0.856 1_556 S
O648 C694 1.300 . S
O649 C694 1.209 . S
O650 C695 1.199 . S
O651 H623 0.854 . S
O651 C695 1.297 . S
C652 C653 1.404 . S
C652 C657 1.397 . S
C652 C658 1.492 . S
C653 C652 1.404 . S
C653 C654 1.396 . S
C653 C664 1.492 . S
C654 C653 1.396 . S
C654 C655 1.397 . S
C654 C670 1.509 . S
C655 C654 1.397 . S
C655 C656 1.412 . S
C655 C676 1.485 . S
C656 C655 1.412 . S
C656 C657 1.388 . S
C656 C682 1.490 . S
C657 C652 1.397 . S
C657 C656 1.388 . S
C657 C688 1.519 . S
C658 C652 1.492 . S
C658 C659 1.363 . S
C658 C663 1.390 . S
C659 H624 0.930 . S
C659 C658 1.363 . S
C659 C660 1.372 . S
C660 H625 0.930 . S
C660 C659 1.372 . S
C660 C661 1.383 . S
C661 C660 1.383 . S
C661 C662 1.395 . S
C662 H626 0.930 . S
C662 C661 1.395 . S
C662 C663 1.362 . S
C663 H627 0.930 . S
C663 C658 1.390 . S
C663 C662 1.362 . S
C664 C653 1.492 . S
C664 C665 1.377 . S
C664 C669 1.397 . S
C665 H628 0.931 . S
C665 C664 1.377 . S
C665 C666 1.376 . S
C666 H629 0.930 . S
C666 C665 1.376 . S
C666 C667 1.376 . S
C667 C666 1.376 . S
C667 C668 1.378 . S
C667 C694 1.486 . S
C668 H630 0.930 . S
C668 C667 1.378 . S
C668 C669 1.376 . S
C669 H631 0.929 . S
C669 C664 1.397 . S
C669 C668 1.376 . S
C670 C654 1.509 . S
C670 C671 1.391 . S
C670 C675 1.386 . S
C671 H632 0.930 . S
C671 C670 1.391 . S
C671 C672 1.375 . S
C672 H633 0.931 . S
C672 C671 1.375 . S
C672 C673 1.375 . S
C673 C672 1.375 . S
C673 C674 1.361 . S
C674 H634 0.930 . S
C674 C673 1.361 . S
C674 C675 1.399 . S
C675 H635 0.929 . S
C675 C670 1.386 . S
C675 C674 1.399 . S
C676 C655 1.485 . S
C676 C677 1.394 . S
C676 C681 1.360 . S
C677 H636 0.931 . S
C677 C676 1.394 . S
C677 C678 1.372 . S
C678 H637 0.930 . S
C678 C677 1.372 . S
C678 C679 1.397 . S
C679 C678 1.397 . S
C679 C680 1.390 . S
C679 C695 1.476 . S
C680 H638 0.930 . S
C680 C679 1.390 . S
C680 C681 1.366 . S
C681 H639 0.932 . S
C681 C676 1.360 . S
C681 C680 1.366 . S
C682 C656 1.490 . S
C682 C683 1.380 . S
C682 C687 1.386 . S
C683 H640 0.930 . S
C683 C682 1.380 . S
C683 C684 1.381 . S
C684 H641 0.929 . S
C684 C683 1.381 . S
C684 C685 1.371 . S
C685 C684 1.371 . S
C685 C686 1.380 . S
C686 H642 0.931 . S
C686 C685 1.380 . S
C686 C687 1.387 . S
C687 H643 0.930 . S
C687 C682 1.386 . S
C687 C686 1.387 . S
C688 C657 1.519 . S
C688 C689 1.377 . S
C688 C693 1.361 . S
C689 H644 0.929 . S
C689 C688 1.377 . S
C689 C690 1.386 . S
C690 H645 0.931 . S
C690 C689 1.386 . S
C690 C691 1.363 . S
C691 C690 1.363 . S
C691 C692 1.385 . S
C692 H646 0.930 . S
C692 C691 1.385 . S
C692 C693 1.396 . S
C693 H647 0.929 . S
C693 C688 1.361 . S
C693 C692 1.396 . S
C694 O648 1.300 . S
C694 O649 1.209 . S
C694 C667 1.486 . S
C695 O650 1.199 . S
C695 O651 1.297 . S
C695 C679 1.476 . S
H696 O722 0.856 . S
H697 O725 0.854 . S
H698 C733 0.930 . S
H699 C734 0.930 . S
H700 C736 0.930 . S
H701 C737 0.930 . S
H702 C739 0.931 . S
H703 C740 0.930 . S
H704 C742 0.930 . S
H705 C743 0.929 . S
H706 C745 0.930 . S
H707 C746 0.931 . S
H708 C748 0.930 . S
H709 C749 0.929 . S
H710 C751 0.931 . S
H711 C752 0.930 . S
H712 C754 0.930 . S
H713 C755 0.932 . S
H714 C757 0.930 . S
H715 C758 0.929 . S
H716 C760 0.931 . S
H717 C761 0.930 . S
H718 C763 0.929 . S
H719 C764 0.931 . S
H720 C766 0.930 . S
H721 C767 0.929 . S
O722 H696 0.856 . S
O722 C768 1.300 . S
O723 C768 1.209 . S
O724 C769 1.199 . S
O725 H697 0.854 . S
O725 C769 1.297 . S
C726 C727 1.404 . S
C726 C731 1.397 . S
C726 C732 1.492 . S
C727 C726 1.404 . S
C727 C728 1.396 . S
C727 C738 1.492 . S
C728 C727 1.396 . S
C728 C729 1.397 . S
C728 C744 1.509 . S
C729 C728 1.397 . S
C729 C730 1.412 . S
C729 C750 1.485 . S
C730 C729 1.412 . S
C730 C731 1.388 . S
C730 C756 1.490 . S
C731 C726 1.397 . S
C731 C730 1.388 . S
C731 C762 1.519 . S
C732 C726 1.492 . S
C732 C733 1.363 . S
C732 C737 1.390 . S
C733 H698 0.930 . S
C733 C732 1.363 . S
C733 C734 1.372 . S
C734 H699 0.930 . S
C734 C733 1.372 . S
C734 C735 1.383 . S
C735 C734 1.383 . S
C735 C736 1.395 . S
C736 H700 0.930 . S
C736 C735 1.395 . S
C736 C737 1.362 . S
C737 H701 0.930 . S
C737 C732 1.390 . S
C737 C736 1.362 . S
C738 C727 1.492 . S
C738 C739 1.377 . S
C738 C743 1.397 . S
C739 H702 0.931 . S
C739 C738 1.377 . S
C739 C740 1.376 . S
C740 H703 0.930 . S
C740 C739 1.376 . S
C740 C741 1.376 . S
C741 C740 1.376 . S
C741 C742 1.378 . S
C741 C768 1.486 . S
C742 H704 0.930 . S
C742 C741 1.378 . S
C742 C743 1.376 . S
C743 H705 0.929 . S
C743 C738 1.397 . S
C743 C742 1.376 . S
C744 C728 1.509 . S
C744 C745 1.391 . S
C744 C749 1.386 . S
C745 H706 0.930 . S
C745 C744 1.391 . S
C745 C746 1.375 . S
C746 H707 0.931 . S
C746 C745 1.375 . S
C746 C747 1.375 . S
C747 C746 1.375 . S
C747 C748 1.361 . S
C748 H708 0.930 . S
C748 C747 1.361 . S
C748 C749 1.399 . S
C749 H709 0.929 . S
C749 C744 1.386 . S
C749 C748 1.399 . S
C750 C729 1.485 . S
C750 C751 1.394 . S
C750 C755 1.360 . S
C751 H710 0.931 . S
C751 C750 1.394 . S
C751 C752 1.372 . S
C752 H711 0.930 . S
C752 C751 1.372 . S
C752 C753 1.397 . S
C753 C752 1.397 . S
C753 C754 1.390 . S
C753 C769 1.476 . S
C754 H712 0.930 . S
C754 C753 1.390 . S
C754 C755 1.366 . S
C755 H713 0.932 . S
C755 C750 1.360 . S
C755 C754 1.366 . S
C756 C730 1.490 . S
C756 C757 1.380 . S
C756 C761 1.386 . S
C757 H714 0.930 . S
C757 C756 1.380 . S
C757 C758 1.381 . S
C758 H715 0.929 . S
C758 C757 1.381 . S
C758 C759 1.371 . S
C759 C758 1.371 . S
C759 C760 1.380 . S
C760 H716 0.931 . S
C760 C759 1.380 . S
C760 C761 1.387 . S
C761 H717 0.930 . S
C761 C756 1.386 . S
C761 C760 1.387 . S
C762 C731 1.519 . S
C762 C763 1.377 . S
C762 C767 1.361 . S
C763 H718 0.929 . S
C763 C762 1.377 . S
C763 C764 1.386 . S
C764 H719 0.931 . S
C764 C763 1.386 . S
C764 C765 1.363 . S
C765 C764 1.363 . S
C765 C766 1.385 . S
C766 H720 0.930 . S
C766 C765 1.385 . S
C766 C767 1.396 . S
C767 H721 0.929 . S
C767 C762 1.361 . S
C767 C766 1.396 . S
C768 O722 1.300 . S
C768 O723 1.209 . S
C768 C741 1.486 . S
C769 O724 1.199 . S
C769 O725 1.297 . S
C769 C753 1.476 . S
H770 O796 0.856 . S
H771 O799 0.854 . S
H772 C807 0.930 . S
H773 C808 0.930 . S
H774 C810 0.930 . S
H775 C811 0.930 . S
H776 C813 0.931 . S
H777 C814 0.930 . S
H778 C816 0.930 . S
H779 C817 0.929 . S
H780 C819 0.930 . S
H781 C820 0.931 . S
H782 C822 0.930 . S
H783 C823 0.929 . S
H784 C825 0.931 . S
H785 C826 0.930 . S
H786 C828 0.930 . S
H787 C829 0.932 . S
H788 C831 0.930 . S
H789 C832 0.929 . S
H790 C834 0.931 . S
H791 C835 0.930 . S
H792 C837 0.929 . S
H793 C838 0.931 . S
H794 C840 0.930 . S
H795 C841 0.929 . S
O796 H770 0.856 . S
O796 C842 1.300 . S
O797 C842 1.209 . S
O798 C843 1.199 . S
O799 H771 0.854 . S
O799 C843 1.297 . S
C800 C801 1.404 . S
C800 C805 1.397 . S
C800 C806 1.492 . S
C801 C800 1.404 . S
C801 C802 1.396 . S
C801 C812 1.492 . S
C802 C801 1.396 . S
C802 C803 1.397 . S
C802 C818 1.509 . S
C803 C802 1.397 . S
C803 C804 1.412 . S
C803 C824 1.485 . S
C804 C803 1.412 . S
C804 C805 1.388 . S
C804 C830 1.490 . S
C805 C800 1.397 . S
C805 C804 1.388 . S
C805 C836 1.519 . S
C806 C800 1.492 . S
C806 C807 1.363 . S
C806 C811 1.390 . S
C807 H772 0.930 . S
C807 C806 1.363 . S
C807 C808 1.372 . S
C808 H773 0.930 . S
C808 C807 1.372 . S
C808 C809 1.383 . S
C809 C808 1.383 . S
C809 C810 1.395 . S
C810 H774 0.930 . S
C810 C809 1.395 . S
C810 C811 1.362 . S
C811 H775 0.930 . S
C811 C806 1.390 . S
C811 C810 1.362 . S
C812 C801 1.492 . S
C812 C813 1.377 . S
C812 C817 1.397 . S
C813 H776 0.931 . S
C813 C812 1.377 . S
C813 C814 1.376 . S
C814 H777 0.930 . S
C814 C813 1.376 . S
C814 C815 1.376 . S
C815 C814 1.376 . S
C815 C816 1.378 . S
C815 C842 1.486 . S
C816 H778 0.930 . S
C816 C815 1.378 . S
C816 C817 1.376 . S
C817 H779 0.929 . S
C817 C812 1.397 . S
C817 C816 1.376 . S
C818 C802 1.509 . S
C818 C819 1.391 . S
C818 C823 1.386 . S
C819 H780 0.930 . S
C819 C818 1.391 . S
C819 C820 1.375 . S
C820 H781 0.931 . S
C820 C819 1.375 . S
C820 C821 1.375 . S
C821 C820 1.375 . S
C821 C822 1.361 . S
C822 H782 0.930 . S
C822 C821 1.361 . S
C822 C823 1.399 . S
C823 H783 0.929 . S
C823 C818 1.386 . S
C823 C822 1.399 . S
C824 C803 1.485 . S
C824 C825 1.394 . S
C824 C829 1.360 . S
C825 H784 0.931 . S
C825 C824 1.394 . S
C825 C826 1.372 . S
C826 H785 0.930 . S
C826 C825 1.372 . S
C826 C827 1.397 . S
C827 C826 1.397 . S
C827 C828 1.390 . S
C827 C843 1.476 . S
C828 H786 0.930 . S
C828 C827 1.390 . S
C828 C829 1.366 . S
C829 H787 0.932 . S
C829 C824 1.360 . S
C829 C828 1.366 . S
C830 C804 1.490 . S
C830 C831 1.380 . S
C830 C835 1.386 . S
C831 H788 0.930 . S
C831 C830 1.380 . S
C831 C832 1.381 . S
C832 H789 0.929 . S
C832 C831 1.381 . S
C832 C833 1.371 . S
C833 C832 1.371 . S
C833 C834 1.380 . S
C834 H790 0.931 . S
C834 C833 1.380 . S
C834 C835 1.387 . S
C835 H791 0.930 . S
C835 C830 1.386 . S
C835 C834 1.387 . S
C836 C805 1.519 . S
C836 C837 1.377 . S
C836 C841 1.361 . S
C837 H792 0.929 . S
C837 C836 1.377 . S
C837 C838 1.386 . S
C838 H793 0.931 . S
C838 C837 1.386 . S
C838 C839 1.363 . S
C839 C838 1.363 . S
C839 C840 1.385 . S
C840 H794 0.930 . S
C840 C839 1.385 . S
C840 C841 1.396 . S
C841 H795 0.929 . S
C841 C836 1.361 . S
C841 C840 1.396 . S
C842 O796 1.300 . S
C842 O797 1.209 . S
C842 C815 1.486 . S
C843 O798 1.199 . S
C843 O799 1.297 . S
C843 C827 1.476 . S
H844 O870 0.856 . S
H845 O873 0.854 . S
H846 C881 0.930 . S
H847 C882 0.930 . S
H848 C884 0.930 . S
H849 C885 0.930 . S
H850 C887 0.931 . S
H851 C888 0.930 . S
H852 C890 0.930 . S
H853 C891 0.929 . S
H854 C893 0.930 . S
H855 C894 0.931 . S
H856 C896 0.930 . S
H857 C897 0.929 . S
H858 C899 0.931 . S
H859 C900 0.930 . S
H860 C902 0.930 . S
H861 C903 0.932 . S
H862 C905 0.930 . S
H863 C906 0.929 . S
H864 C908 0.931 . S
H865 C909 0.930 . S
H866 C911 0.929 . S
H867 C912 0.931 . S
H868 C914 0.930 . S
H869 C915 0.929 . S
O870 H844 0.856 . S
O870 C916 1.300 . S
O871 C916 1.209 . S
O872 C917 1.199 . S
O873 H845 0.854 . S
O873 C917 1.297 . S
C874 C875 1.404 . S
C874 C879 1.397 . S
C874 C880 1.492 . S
C875 C874 1.404 . S
C875 C876 1.396 . S
C875 C886 1.492 . S
C876 C875 1.396 . S
C876 C877 1.397 . S
C876 C892 1.509 . S
C877 C876 1.397 . S
C877 C878 1.412 . S
C877 C898 1.485 . S
C878 C877 1.412 . S
C878 C879 1.388 . S
C878 C904 1.490 . S
C879 C874 1.397 . S
C879 C878 1.388 . S
C879 C910 1.519 . S
C880 C874 1.492 . S
C880 C881 1.363 . S
C880 C885 1.390 . S
C881 H846 0.930 . S
C881 C880 1.363 . S
C881 C882 1.372 . S
C882 H847 0.930 . S
C882 C881 1.372 . S
C882 C883 1.383 . S
C883 C882 1.383 . S
C883 C884 1.395 . S
C884 H848 0.930 . S
C884 C883 1.395 . S
C884 C885 1.362 . S
C885 H849 0.930 . S
C885 C880 1.390 . S
C885 C884 1.362 . S
C886 C875 1.492 . S
C886 C887 1.377 . S
C886 C891 1.397 . S
C887 H850 0.931 . S
C887 C886 1.377 . S
C887 C888 1.376 . S
C888 H851 0.930 . S
C888 C887 1.376 . S
C888 C889 1.376 . S
C889 C888 1.376 . S
C889 C890 1.378 . S
C889 C916 1.486 . S
C890 H852 0.930 . S
C890 C889 1.378 . S
C890 C891 1.376 . S
C891 H853 0.929 . S
C891 C886 1.397 . S
C891 C890 1.376 . S
C892 C876 1.509 . S
C892 C893 1.391 . S
C892 C897 1.386 . S
C893 H854 0.930 . S
C893 C892 1.391 . S
C893 C894 1.375 . S
C894 H855 0.931 . S
C894 C893 1.375 . S
C894 C895 1.375 . S
C895 C894 1.375 . S
C895 C896 1.361 . S
C896 H856 0.930 . S
C896 C895 1.361 . S
C896 C897 1.399 . S
C897 H857 0.929 . S
C897 C892 1.386 . S
C897 C896 1.399 . S
C898 C877 1.485 . S
C898 C899 1.394 . S
C898 C903 1.360 . S
C899 H858 0.931 . S
C899 C898 1.394 . S
C899 C900 1.372 . S
C900 H859 0.930 . S
C900 C899 1.372 . S
C900 C901 1.397 . S
C901 C900 1.397 . S
C901 C902 1.390 . S
C901 C917 1.476 . S
C902 H860 0.930 . S
C902 C901 1.390 . S
C902 C903 1.366 . S
C903 H861 0.932 . S
C903 C898 1.360 . S
C903 C902 1.366 . S
C904 C878 1.490 . S
C904 C905 1.380 . S
C904 C909 1.386 . S
C905 H862 0.930 . S
C905 C904 1.380 . S
C905 C906 1.381 . S
C906 H863 0.929 . S
C906 C905 1.381 . S
C906 C907 1.371 . S
C907 C906 1.371 . S
C907 C908 1.380 . S
C908 H864 0.931 . S
C908 C907 1.380 . S
C908 C909 1.387 . S
C909 H865 0.930 . S
C909 C904 1.386 . S
C909 C908 1.387 . S
C910 C879 1.519 . S
C910 C911 1.377 . S
C910 C915 1.361 . S
C911 H866 0.929 . S
C911 C910 1.377 . S
C911 C912 1.386 . S
C912 H867 0.931 . S
C912 C911 1.386 . S
C912 C913 1.363 . S
C913 C912 1.363 . S
C913 C914 1.385 . S
C914 H868 0.930 . S
C914 C913 1.385 . S
C914 C915 1.396 . S
C915 H869 0.929 . S
C915 C910 1.361 . S
C915 C914 1.396 . S
C916 O870 1.300 . S
C916 O871 1.209 . S
C916 C889 1.486 . S
C917 O872 1.199 . S
C917 O873 1.297 . S
C917 C901 1.476 . S
H918 O944 0.856 . S
H919 O947 0.854 . S
H920 C955 0.930 . S
H921 C956 0.930 . S
H922 C958 0.930 . S
H923 C959 0.930 . S
H924 C961 0.931 . S
H925 C962 0.902 1_655 S
H926 C964 0.930 . S
H927 C965 0.929 . S
H928 C967 0.930 . S
H929 C968 0.909 1_655 S
H930 C970 0.930 . S
H931 C971 0.929 . S
H932 C973 0.931 . S
H933 C974 0.930 . S
H934 C976 0.930 . S
H935 C977 0.932 . S
H936 C979 0.930 . S
H937 C980 0.929 . S
H938 C982 0.931 . S
H939 C983 0.930 . S
H940 C985 0.929 . S
H941 C986 0.931 . S
H942 C988 0.930 . S
H943 C989 0.929 . S
O944 H918 0.856 . S
O944 C990 1.300 . S
O945 C990 1.209 . S
O946 C991 1.199 1_655 S
O947 H919 0.854 . S
O947 C991 1.297 . S
C948 C949 1.404 . S
C948 C953 1.394 . S
C948 C954 1.492 . S
C949 C948 1.404 . S
C949 C950 1.396 . S
C949 C960 1.492 . S
C950 C949 1.396 . S
C950 C951 1.397 . S
C950 C966 1.509 . S
C951 C950 1.397 . S
C951 C952 1.432 . S
C951 C972 1.485 . S
C952 C951 1.432 . S
C952 C953 1.397 . S
C952 C978 1.491 1_455 S
C953 C948 1.394 . S
C953 C952 1.397 . S
C953 C984 1.487 1_455 S
C954 C948 1.492 . S
C954 C955 1.363 1_455 S
C954 C959 1.390 . S
C955 H920 0.930 . S
C955 C954 1.363 1_655 S
C955 C956 1.372 . S
C956 H921 0.930 . S
C956 C955 1.372 . S
C956 C957 1.383 . S
C957 C956 1.383 . S
C957 C958 1.395 1_655 S
C958 H922 0.930 . S
C958 C957 1.395 1_455 S
C958 C959 1.362 . S
C959 H923 0.930 . S
C959 C954 1.390 . S
C959 C958 1.362 . S
C960 C949 1.492 . S
C960 C961 1.377 1_455 S
C960 C965 1.397 . S
C961 H924 0.931 . S
C961 C960 1.377 1_655 S
C961 C962 1.382 1_655 S
C962 H925 0.902 1_455 S
C962 C961 1.382 1_455 S
C962 C963 1.403 . S
C963 C962 1.403 . S
C963 C964 1.378 . S
C963 C990 1.486 . S
C964 H926 0.930 . S
C964 C963 1.378 . S
C964 C965 1.376 . S
C965 H927 0.929 . S
C965 C960 1.397 . S
C965 C964 1.376 . S
C966 C950 1.509 . S
C966 C967 1.391 1_455 S
C966 C971 1.386 . S
C967 H928 0.930 . S
C967 C966 1.391 1_655 S
C967 C968 1.341 1_655 S
C968 H929 0.909 1_455 S
C968 C967 1.341 1_455 S
C968 C969 1.434 . S
C969 C968 1.434 . S
C969 C970 1.361 . S
C970 H930 0.930 . S
C970 C969 1.361 . S
C970 C971 1.399 . S
C971 H931 0.929 . S
C971 C966 1.386 . S
C971 C970 1.399 . S
C972 C951 1.485 . S
C972 C973 1.394 1_455 S
C972 C977 1.360 . S
C973 H932 0.931 . S
C973 C972 1.394 1_655 S
C973 C974 1.372 . S
C974 H933 0.930 . S
C974 C973 1.372 . S
C974 C975 1.397 1_655 S
C975 C974 1.397 1_455 S
C975 C976 1.390 . S
C975 C991 1.476 . S
C976 H934 0.930 . S
C976 C975 1.390 . S
C976 C977 1.366 . S
C977 H935 0.932 . S
C977 C972 1.360 . S
C977 C976 1.366 . S
C978 C952 1.491 1_655 S
C978 C979 1.380 . S
C978 C983 1.386 1_655 S
C979 H936 0.930 . S
C979 C978 1.380 . S
C979 C980 1.381 . S
C980 H937 0.929 . S
C980 C979 1.381 . S
C980 C981 1.371 . S
C981 C980 1.371 . S
C981 C982 1.380 1_655 S
C982 H938 0.931 . S
C982 C981 1.380 1_455 S
C982 C983 1.387 . S
C983 H939 0.930 . S
C983 C978 1.386 1_455 S
C983 C982 1.387 . S
C984 C953 1.487 1_655 S
C984 C985 1.407 . S
C984 C989 1.342 1_655 S
C985 H940 0.929 . S
C985 C984 1.407 . S
C985 C986 1.386 . S
C986 H941 0.931 . S
C986 C985 1.386 . S
C986 C987 1.382 . S
C987 C986 1.382 . S
C987 C988 1.356 1_655 S
C988 H942 0.930 . S
C988 C987 1.356 1_455 S
C988 C989 1.396 . S
C989 H943 0.929 . S
C989 C984 1.342 1_455 S
C989 C988 1.396 . S
C990 O944 1.300 . S
C990 O945 1.209 . S
C990 C963 1.486 . S
C991 O946 1.199 1_455 S
C991 O947 1.297 . S
C991 C975 1.476 . S
H992 O1018 0.856 . S
H993 O1021 0.854 . S
H994 C1029 0.930 . S
H995 C1030 0.930 . S
H996 C1032 0.930 . S
H997 C1033 0.930 . S
H998 C1035 0.931 . S
H999 C1036 0.930 . S
H1000 C1038 0.930 . S
H1001 C1039 0.929 . S
H1002 C1041 0.930 . S
H1003 C1042 0.931 . S
H1004 C1044 0.930 . S
H1005 C1045 0.929 . S
H1006 C1047 0.931 . S
H1007 C1048 0.930 . S
H1008 C1050 0.930 . S
H1009 C1051 0.932 . S
H1010 C1053 0.930 . S
H1011 C1054 0.929 . S
H1012 C1056 0.931 . S
H1013 C1057 0.930 . S
H1014 C1059 0.929 . S
H1015 C1060 0.931 . S
H1016 C1062 0.930 . S
H1017 C1063 0.929 . S
O1018 H992 0.856 . S
O1018 C1064 1.300 . S
O1019 C1064 1.209 . S
O1020 C1065 1.199 . S
O1021 H993 0.854 . S
O1021 C1065 1.297 . S
C1022 C1023 1.404 . S
C1022 C1027 1.397 . S
C1022 C1028 1.492 . S
C1023 C1022 1.404 . S
C1023 C1024 1.396 . S
C1023 C1034 1.492 . S
C1024 C1023 1.396 . S
C1024 C1025 1.397 . S
C1024 C1040 1.509 . S
C1025 C1024 1.397 . S
C1025 C1026 1.412 . S
C1025 C1046 1.485 . S
C1026 C1025 1.412 . S
C1026 C1027 1.388 . S
C1026 C1052 1.490 . S
C1027 C1022 1.397 . S
C1027 C1026 1.388 . S
C1027 C1058 1.519 . S
C1028 C1022 1.492 . S
C1028 C1029 1.363 . S
C1028 C1033 1.390 . S
C1029 H994 0.930 . S
C1029 C1028 1.363 . S
C1029 C1030 1.372 . S
C1030 H995 0.930 . S
C1030 C1029 1.372 . S
C1030 C1031 1.383 . S
C1031 C1030 1.383 . S
C1031 C1032 1.395 . S
C1032 H996 0.930 . S
C1032 C1031 1.395 . S
C1032 C1033 1.362 . S
C1033 H997 0.930 . S
C1033 C1028 1.390 . S
C1033 C1032 1.362 . S
C1034 C1023 1.492 . S
C1034 C1035 1.377 . S
C1034 C1039 1.397 . S
C1035 H998 0.931 . S
C1035 C1034 1.377 . S
C1035 C1036 1.376 . S
C1036 H999 0.930 . S
C1036 C1035 1.376 . S
C1036 C1037 1.376 . S
C1037 C1036 1.376 . S
C1037 C1038 1.378 . S
C1037 C1064 1.486 . S
C1038 H1000 0.930 . S
C1038 C1037 1.378 . S
C1038 C1039 1.376 . S
C1039 H1001 0.929 . S
C1039 C1034 1.397 . S
C1039 C1038 1.376 . S
C1040 C1024 1.509 . S
C1040 C1041 1.391 . S
C1040 C1045 1.386 . S
C1041 H1002 0.930 . S
C1041 C1040 1.391 . S
C1041 C1042 1.375 . S
C1042 H1003 0.931 . S
C1042 C1041 1.375 . S
C1042 C1043 1.375 . S
C1043 C1042 1.375 . S
C1043 C1044 1.361 . S
C1044 H1004 0.930 . S
C1044 C1043 1.361 . S
C1044 C1045 1.399 . S
C1045 H1005 0.929 . S
C1045 C1040 1.386 . S
C1045 C1044 1.399 . S
C1046 C1025 1.485 . S
C1046 C1047 1.394 . S
C1046 C1051 1.360 . S
C1047 H1006 0.931 . S
C1047 C1046 1.394 . S
C1047 C1048 1.372 . S
C1048 H1007 0.930 . S
C1048 C1047 1.372 . S
C1048 C1049 1.397 . S
C1049 C1048 1.397 . S
C1049 C1050 1.390 . S
C1049 C1065 1.476 . S
C1050 H1008 0.930 . S
C1050 C1049 1.390 . S
C1050 C1051 1.366 . S
C1051 H1009 0.932 . S
C1051 C1046 1.360 . S
C1051 C1050 1.366 . S
C1052 C1026 1.490 . S
C1052 C1053 1.380 . S
C1052 C1057 1.386 . S
C1053 H1010 0.930 . S
C1053 C1052 1.380 . S
C1053 C1054 1.381 . S
C1054 H1011 0.929 . S
C1054 C1053 1.381 . S
C1054 C1055 1.371 . S
C1055 C1054 1.371 . S
C1055 C1056 1.380 . S
C1056 H1012 0.931 . S
C1056 C1055 1.380 . S
C1056 C1057 1.387 . S
C1057 H1013 0.930 . S
C1057 C1052 1.386 . S
C1057 C1056 1.387 . S
C1058 C1027 1.519 . S
C1058 C1059 1.377 . S
C1058 C1063 1.361 . S
C1059 H1014 0.929 . S
C1059 C1058 1.377 . S
C1059 C1060 1.386 . S
C1060 H1015 0.931 . S
C1060 C1059 1.386 . S
C1060 C1061 1.363 . S
C1061 C1060 1.363 . S
C1061 C1062 1.385 . S
C1062 H1016 0.930 . S
C1062 C1061 1.385 . S
C1062 C1063 1.396 . S
C1063 H1017 0.929 . S
C1063 C1058 1.361 . S
C1063 C1062 1.396 . S
C1064 O1018 1.300 . S
C1064 O1019 1.209 . S
C1064 C1037 1.486 . S
C1065 O1020 1.199 . S
C1065 O1021 1.297 . S
C1065 C1049 1.476 . S
H1066 O1092 0.856 . S
H1067 O1095 0.854 . S
H1068 C1103 0.930 . S
H1069 C1104 0.930 . S
H1070 C1106 0.930 . S
H1071 C1107 0.930 . S
H1072 C1109 0.931 . S
H1073 C1110 0.958 . S
H1074 C1112 0.930 . S
H1075 C1113 0.929 . S
H1076 C1115 0.930 . S
H1077 C1116 0.931 . S
H1078 C1118 0.930 . S
H1079 C1119 0.929 . S
H1080 C1121 0.931 . S
H1081 C1122 0.930 . S
H1082 C1124 0.930 . S
H1083 C1125 0.932 . S
H1084 C1127 0.930 . S
H1085 C1128 0.929 . S
H1086 C1130 0.931 . S
H1087 C1131 0.930 . S
H1088 C1133 0.929 . S
H1089 C1134 0.931 . S
H1090 C1136 0.930 . S
H1091 C1137 0.929 . S
O1092 H1066 0.856 . S
O1092 C1138 1.300 . S
O1093 C1138 1.209 . S
O1094 C1139 1.199 1_545 S
O1095 H1067 0.854 . S
O1095 C1139 1.297 . S
C1096 C1097 1.404 . S
C1096 C1101 1.413 . S
C1096 C1102 1.492 . S
C1097 C1096 1.404 . S
C1097 C1098 1.396 . S
C1097 C1108 1.492 . S
C1098 C1097 1.396 . S
C1098 C1099 1.397 . S
C1098 C1114 1.509 . S
C1099 C1098 1.397 . S
C1099 C1100 1.412 . S
C1099 C1120 1.485 . S
C1100 C1099 1.412 . S
C1100 C1101 1.364 . S
C1100 C1126 1.489 1_565 S
C1101 C1096 1.413 . S
C1101 C1100 1.364 . S
C1101 C1132 1.536 . S
C1102 C1096 1.492 . S
C1102 C1103 1.363 1_565 S
C1102 C1107 1.390 . S
C1103 H1068 0.930 . S
C1103 C1102 1.363 1_545 S
C1103 C1104 1.372 . S
C1104 H1069 0.930 . S
C1104 C1103 1.372 . S
C1104 C1105 1.383 . S
C1105 C1104 1.383 . S
C1105 C1106 1.395 1_545 S
C1106 H1070 0.930 . S
C1106 C1105 1.395 1_565 S
C1106 C1107 1.362 . S
C1107 H1071 0.930 . S
C1107 C1102 1.390 . S
C1107 C1106 1.362 . S
C1108 C1097 1.492 . S
C1108 C1109 1.377 1_565 S
C1108 C1113 1.397 . S
C1109 H1072 0.931 . S
C1109 C1108 1.377 1_545 S
C1109 C1110 1.391 . S
C1110 H1073 0.958 . S
C1110 C1109 1.391 . S
C1110 C1111 1.333 1_545 S
C1111 C1110 1.333 1_565 S
C1111 C1112 1.378 . S
C1111 C1138 1.486 . S
C1112 H1074 0.930 . S
C1112 C1111 1.378 . S
C1112 C1113 1.376 . S
C1113 H1075 0.929 . S
C1113 C1108 1.397 . S
C1113 C1112 1.376 . S
C1114 C1098 1.509 . S
C1114 C1115 1.391 1_565 S
C1114 C1119 1.386 . S
C1115 H1076 0.930 . S
C1115 C1114 1.391 1_545 S
C1115 C1116 1.375 . S
C1116 H1077 0.931 . S
C1116 C1115 1.375 . S
C1116 C1117 1.375 1_545 S
C1117 C1116 1.375 1_565 S
C1117 C1118 1.361 . S
C1118 H1078 0.930 . S
C1118 C1117 1.361 . S
C1118 C1119 1.399 . S
C1119 H1079 0.929 . S
C1119 C1114 1.386 . S
C1119 C1118 1.399 . S
C1120 C1099 1.485 . S
C1120 C1121 1.394 1_565 S
C1120 C1125 1.360 . S
C1121 H1080 0.931 . S
C1121 C1120 1.394 1_545 S
C1121 C1122 1.372 . S
C1122 H1081 0.930 . S
C1122 C1121 1.372 . S
C1122 C1123 1.397 1_545 S
C1123 C1122 1.397 1_565 S
C1123 C1124 1.390 . S
C1123 C1139 1.476 . S
C1124 H1082 0.930 . S
C1124 C1123 1.390 . S
C1124 C1125 1.366 . S
C1125 H1083 0.932 . S
C1125 C1120 1.360 . S
C1125 C1124 1.366 . S
C1126 C1100 1.489 1_545 S
C1126 C1127 1.380 . S
C1126 C1131 1.386 1_545 S
C1127 H1084 0.930 . S
C1127 C1126 1.380 . S
C1127 C1128 1.381 . S
C1128 H1085 0.929 . S
C1128 C1127 1.381 . S
C1128 C1129 1.371 . S
C1129 C1128 1.371 . S
C1129 C1130 1.380 1_545 S
C1130 H1086 0.931 . S
C1130 C1129 1.380 1_565 S
C1130 C1131 1.387 . S
C1131 H1087 0.930 . S
C1131 C1126 1.386 1_565 S
C1131 C1130 1.387 . S
C1132 C1101 1.536 . S
C1132 C1133 1.380 1_565 S
C1132 C1137 1.355 . S
C1133 H1088 0.929 . S
C1133 C1132 1.380 1_545 S
C1133 C1134 1.386 . S
C1134 H1089 0.931 . S
C1134 C1133 1.386 . S
C1134 C1135 1.304 1_545 S
C1135 C1134 1.304 1_565 S
C1135 C1136 1.416 . S
C1136 H1090 0.930 . S
C1136 C1135 1.416 . S
C1136 C1137 1.396 . S
C1137 H1091 0.929 . S
C1137 C1132 1.355 . S
C1137 C1136 1.396 . S
C1138 O1092 1.300 . S
C1138 O1093 1.209 . S
C1138 C1111 1.486 . S
C1139 O1094 1.199 1_565 S
C1139 O1095 1.297 . S
C1139 C1123 1.476 . S
H1140 O1166 0.856 . S
H1141 O1169 0.854 . S
H1142 C1177 0.930 . S
H1143 C1178 0.930 . S
H1144 C1180 0.930 . S
H1145 C1181 0.930 . S
H1146 C1183 0.931 . S
H1147 C1184 0.930 . S
H1148 C1186 0.930 . S
H1149 C1187 0.929 . S
H1150 C1189 0.930 . S
H1151 C1190 0.931 . S
H1152 C1192 0.930 . S
H1153 C1193 0.929 . S
H1154 C1195 0.931 . S
H1155 C1196 0.930 . S
H1156 C1198 0.930 . S
H1157 C1199 0.932 . S
H1158 C1201 0.930 . S
H1159 C1202 0.929 . S
H1160 C1204 0.931 . S
H1161 C1205 0.930 . S
H1162 C1207 0.929 . S
H1163 C1208 0.931 . S
H1164 C1210 0.930 . S
H1165 C1211 0.929 . S
O1166 H1140 0.856 . S
O1166 C1212 1.300 . S
O1167 C1212 1.209 1_565 S
O1168 C1213 1.199 1_545 S
O1169 H1141 0.854 . S
O1169 C1213 1.297 . S
C1170 C1171 1.404 . S
C1170 C1175 1.398 1_545 S
C1170 C1176 1.492 . S
C1171 C1170 1.404 . S
C1171 C1172 1.418 . S
C1171 C1182 1.492 . S
C1172 C1171 1.418 . S
C1172 C1173 1.379 1_545 S
C1172 C1188 1.501 . S
C1173 C1172 1.379 1_565 S
C1173 C1174 1.414 . S
C1173 C1194 1.510 . S
C1174 C1173 1.414 . S
C1174 C1175 1.362 . S
C1174 C1200 1.489 . S
C1175 C1170 1.398 1_565 S
C1175 C1174 1.362 . S
C1175 C1206 1.519 . S
C1176 C1170 1.492 . S
C1176 C1177 1.363 . S
C1176 C1181 1.390 1_545 S
C1177 H1142 0.930 . S
C1177 C1176 1.363 . S
C1177 C1178 1.372 . S
C1178 H1143 0.930 . S
C1178 C1177 1.372 . S
C1178 C1179 1.383 . S
C1179 C1178 1.383 . S
C1179 C1180 1.395 1_545 S
C1180 H1144 0.930 . S
C1180 C1179 1.395 1_565 S
C1180 C1181 1.362 . S
C1181 H1145 0.930 . S
C1181 C1176 1.390 1_565 S
C1181 C1180 1.362 . S
C1182 C1171 1.492 . S
C1182 C1183 1.377 . S
C1182 C1187 1.397 1_545 S
C1183 H1146 0.931 . S
C1183 C1182 1.377 . S
C1183 C1184 1.376 . S
C1184 H1147 0.930 . S
C1184 C1183 1.376 . S
C1184 C1185 1.376 . S
C1185 C1184 1.376 . S
C1185 C1186 1.378 1_545 S
C1185 C1212 1.486 . S
C1186 H1148 0.930 . S
C1186 C1185 1.378 1_565 S
C1186 C1187 1.376 . S
C1187 H1149 0.929 . S
C1187 C1182 1.397 1_565 S
C1187 C1186 1.376 . S
C1188 C1172 1.501 . S
C1188 C1189 1.397 . S
C1188 C1193 1.376 1_545 S
C1189 H1150 0.930 . S
C1189 C1188 1.397 . S
C1189 C1190 1.375 . S
C1190 H1151 0.931 . S
C1190 C1189 1.375 . S
C1190 C1191 1.361 1_545 S
C1191 C1190 1.361 1_565 S
C1191 C1192 1.370 . S
C1192 H1152 0.930 . S
C1192 C1191 1.370 . S
C1192 C1193 1.399 . S
C1193 H1153 0.929 . S
C1193 C1188 1.376 1_565 S
C1193 C1192 1.399 . S
C1194 C1173 1.510 . S
C1194 C1195 1.394 1_565 S
C1194 C1199 1.360 . S
C1195 H1154 0.931 . S
C1195 C1194 1.394 1_545 S
C1195 C1196 1.372 . S
C1196 H1155 0.930 . S
C1196 C1195 1.372 . S
C1196 C1197 1.397 1_545 S
C1197 C1196 1.397 1_565 S
C1197 C1198 1.390 . S
C1197 C1213 1.476 . S
C1198 H1156 0.930 . S
C1198 C1197 1.390 . S
C1198 C1199 1.366 . S
C1199 H1157 0.932 . S
C1199 C1194 1.360 . S
C1199 C1198 1.366 . S
C1200 C1174 1.489 . S
C1200 C1201 1.340 1_565 S
C1200 C1205 1.437 . S
C1201 H1158 0.930 . S
C1201 C1200 1.340 1_545 S
C1201 C1202 1.381 . S
C1202 H1159 0.929 . S
C1202 C1201 1.381 . S
C1202 C1203 1.386 . S
C1203 C1202 1.386 . S
C1203 C1204 1.367 1_545 S
C1204 H1160 0.931 . S
C1204 C1203 1.367 1_565 S
C1204 C1205 1.387 . S
C1205 H1161 0.930 . S
C1205 C1200 1.437 . S
C1205 C1204 1.387 . S
C1206 C1175 1.519 . S
C1206 C1207 1.377 1_565 S
C1206 C1211 1.361 . S
C1207 H1162 0.929 . S
C1207 C1206 1.377 1_545 S
C1207 C1208 1.386 . S
C1208 H1163 0.931 . S
C1208 C1207 1.386 . S
C1208 C1209 1.363 1_545 S
C1209 C1208 1.363 1_565 S
C1209 C1210 1.385 . S
C1210 H1164 0.930 . S
C1210 C1209 1.385 . S
C1210 C1211 1.396 . S
C1211 H1165 0.929 . S
C1211 C1206 1.361 . S
C1211 C1210 1.396 . S
C1212 O1166 1.300 . S
C1212 O1167 1.209 1_545 S
C1212 C1185 1.486 . S
C1213 O1168 1.199 1_565 S
C1213 O1169 1.297 . S
C1213 C1197 1.476 . S
H1214 O1240 0.856 . S
H1215 O1243 0.854 . S
H1216 C1251 0.930 . S
H1217 C1252 0.930 . S
H1218 C1254 0.930 . S
H1219 C1255 0.930 . S
H1220 C1257 0.931 . S
H1221 C1258 0.930 . S
H1222 C1260 0.930 . S
H1223 C1261 0.929 . S
H1224 C1263 0.930 . S
H1225 C1264 0.931 . S
H1226 C1266 0.930 . S
H1227 C1267 0.929 . S
H1228 C1269 0.931 . S
H1229 C1270 0.930 . S
H1230 C1272 0.930 . S
H1231 C1273 0.932 . S
H1232 C1275 0.930 . S
H1233 C1276 0.929 . S
H1234 C1278 0.931 . S
H1235 C1279 0.930 . S
H1236 C1281 0.929 . S
H1237 C1282 0.931 . S
H1238 C1284 0.930 . S
H1239 C1285 0.929 . S
O1240 H1214 0.856 . S
O1240 C1286 1.300 . S
O1241 C1286 1.209 1_455 S
O1242 C1287 1.199 1_655 S
O1243 H1215 0.854 . S
O1243 C1287 1.297 . S
C1244 C1245 1.404 . S
C1244 C1249 1.398 . S
C1244 C1250 1.492 . S
C1245 C1244 1.404 . S
C1245 C1246 1.396 . S
C1245 C1256 1.492 . S
C1246 C1245 1.396 . S
C1246 C1247 1.395 . S
C1246 C1262 1.509 . S
C1247 C1246 1.395 . S
C1247 C1248 1.397 1_655 S
C1247 C1268 1.516 1_655 S
C1248 C1247 1.397 1_455 S
C1248 C1249 1.395 1_455 S
C1248 C1274 1.499 . S
C1249 C1244 1.398 . S
C1249 C1248 1.395 1_655 S
C1249 C1280 1.522 1_655 S
C1250 C1244 1.492 . S
C1250 C1251 1.363 . S
C1250 C1255 1.390 1_655 S
C1251 H1216 0.930 . S
C1251 C1250 1.363 . S
C1251 C1252 1.372 . S
C1252 H1217 0.930 . S
C1252 C1251 1.372 . S
C1252 C1253 1.383 . S
C1253 C1252 1.383 . S
C1253 C1254 1.395 1_655 S
C1254 H1218 0.930 . S
C1254 C1253 1.395 1_455 S
C1254 C1255 1.362 . S
C1255 H1219 0.930 . S
C1255 C1250 1.390 1_455 S
C1255 C1254 1.362 . S
C1256 C1245 1.492 . S
C1256 C1257 1.377 . S
C1256 C1261 1.397 1_655 S
C1257 H1220 0.931 . S
C1257 C1256 1.377 . S
C1257 C1258 1.376 . S
C1258 H1221 0.930 . S
C1258 C1257 1.376 . S
C1258 C1259 1.376 . S
C1259 C1258 1.376 . S
C1259 C1260 1.378 1_655 S
C1259 C1286 1.486 . S
C1260 H1222 0.930 . S
C1260 C1259 1.378 1_455 S
C1260 C1261 1.376 . S
C1261 H1223 0.929 . S
C1261 C1256 1.397 1_455 S
C1261 C1260 1.376 . S
C1262 C1246 1.509 . S
C1262 C1263 1.391 . S
C1262 C1267 1.386 1_655 S
C1263 H1224 0.930 . S
C1263 C1262 1.391 . S
C1263 C1264 1.375 . S
C1264 H1225 0.931 . S
C1264 C1263 1.375 . S
C1264 C1265 1.375 . S
C1265 C1264 1.375 . S
C1265 C1266 1.361 1_655 S
C1266 H1226 0.930 . S
C1266 C1265 1.361 1_455 S
C1266 C1267 1.399 . S
C1267 H1227 0.929 . S
C1267 C1262 1.386 1_455 S
C1267 C1266 1.399 . S
C1268 C1247 1.516 1_455 S
C1268 C1269 1.356 1_455 S
C1268 C1273 1.376 . S
C1269 H1228 0.931 . S
C1269 C1268 1.356 1_655 S
C1269 C1270 1.372 . S
C1270 H1229 0.930 . S
C1270 C1269 1.372 . S
C1270 C1271 1.397 1_655 S
C1271 C1270 1.397 1_455 S
C1271 C1272 1.390 . S
C1271 C1287 1.476 . S
C1272 H1230 0.930 . S
C1272 C1271 1.390 . S
C1272 C1273 1.366 . S
C1273 H1231 0.932 . S
C1273 C1268 1.376 . S
C1273 C1272 1.366 . S
C1274 C1248 1.499 . S
C1274 C1275 1.338 1_455 S
C1274 C1279 1.418 . S
C1275 H1232 0.930 . S
C1275 C1274 1.338 1_655 S
C1275 C1276 1.381 . S
C1276 H1233 0.929 . S
C1276 C1275 1.381 . S
C1276 C1277 1.344 1_655 S
C1277 C1276 1.344 1_455 S
C1277 C1278 1.423 . S
C1278 H1234 0.931 . S
C1278 C1277 1.423 . S
C1278 C1279 1.387 . S
C1279 H1235 0.930 . S
C1279 C1274 1.418 . S
C1279 C1278 1.387 . S
C1280 C1249 1.522 1_455 S
C1280 C1281 1.377 1_455 S
C1280 C1285 1.361 . S
C1281 H1236 0.929 . S
C1281 C1280 1.377 1_655 S
C1281 C1282 1.386 . S
C1282 H1237 0.931 . S
C1282 C1281 1.386 . S
C1282 C1283 1.363 1_655 S
C1283 C1282 1.363 1_455 S
C1283 C1284 1.385 . S
C1284 H1238 0.930 . S
C1284 C1283 1.385 . S
C1284 C1285 1.396 . S
C1285 H1239 0.929 . S
C1285 C1280 1.361 . S
C1285 C1284 1.396 . S
C1286 O1240 1.300 . S
C1286 O1241 1.209 1_655 S
C1286 C1259 1.486 . S
C1287 O1242 1.199 1_455 S
C1287 O1243 1.297 . S
C1287 C1271 1.476 . S
H1288 O1314 0.856 . S
H1289 O1317 0.854 . S
H1290 C1325 0.930 . S
H1291 C1326 0.930 . S
H1292 C1328 0.930 . S
H1293 C1329 0.930 . S
H1294 C1331 0.931 . S
H1295 C1332 0.930 . S
H1296 C1334 0.930 . S
H1297 C1335 0.929 . S
H1298 C1337 0.930 . S
H1299 C1338 0.931 . S
H1300 C1340 0.930 . S
H1301 C1341 0.929 . S
H1302 C1343 0.931 . S
H1303 C1344 0.930 . S
H1304 C1346 0.930 . S
H1305 C1347 0.932 . S
H1306 C1349 0.930 . S
H1307 C1350 0.929 . S
H1308 C1352 0.931 . S
H1309 C1353 0.930 . S
H1310 C1355 0.929 . S
H1311 C1356 0.931 . S
H1312 C1358 0.930 . S
H1313 C1359 0.929 . S
O1314 H1288 0.856 . S
O1314 C1360 1.300 . S
O1315 C1360 1.209 . S
O1316 C1361 1.199 . S
O1317 H1289 0.854 . S
O1317 C1361 1.297 . S
C1318 C1319 1.404 . S
C1318 C1323 1.397 . S
C1318 C1324 1.492 . S
C1319 C1318 1.404 . S
C1319 C1320 1.396 . S
C1319 C1330 1.492 . S
C1320 C1319 1.396 . S
C1320 C1321 1.397 . S
C1320 C1336 1.509 . S
C1321 C1320 1.397 . S
C1321 C1322 1.412 . S
C1321 C1342 1.485 . S
C1322 C1321 1.412 . S
C1322 C1323 1.388 . S
C1322 C1348 1.490 . S
C1323 C1318 1.397 . S
C1323 C1322 1.388 . S
C1323 C1354 1.519 . S
C1324 C1318 1.492 . S
C1324 C1325 1.363 . S
C1324 C1329 1.390 . S
C1325 H1290 0.930 . S
C1325 C1324 1.363 . S
C1325 C1326 1.372 . S
C1326 H1291 0.930 . S
C1326 C1325 1.372 . S
C1326 C1327 1.383 . S
C1327 C1326 1.383 . S
C1327 C1328 1.395 . S
C1328 H1292 0.930 . S
C1328 C1327 1.395 . S
C1328 C1329 1.362 . S
C1329 H1293 0.930 . S
C1329 C1324 1.390 . S
C1329 C1328 1.362 . S
C1330 C1319 1.492 . S
C1330 C1331 1.377 . S
C1330 C1335 1.397 . S
C1331 H1294 0.931 . S
C1331 C1330 1.377 . S
C1331 C1332 1.376 . S
C1332 H1295 0.930 . S
C1332 C1331 1.376 . S
C1332 C1333 1.376 . S
C1333 C1332 1.376 . S
C1333 C1334 1.378 . S
C1333 C1360 1.486 . S
C1334 H1296 0.930 . S
C1334 C1333 1.378 . S
C1334 C1335 1.376 . S
C1335 H1297 0.929 . S
C1335 C1330 1.397 . S
C1335 C1334 1.376 . S
C1336 C1320 1.509 . S
C1336 C1337 1.391 . S
C1336 C1341 1.386 . S
C1337 H1298 0.930 . S
C1337 C1336 1.391 . S
C1337 C1338 1.375 . S
C1338 H1299 0.931 . S
C1338 C1337 1.375 . S
C1338 C1339 1.375 . S
C1339 C1338 1.375 . S
C1339 C1340 1.361 . S
C1340 H1300 0.930 . S
C1340 C1339 1.361 . S
C1340 C1341 1.399 . S
C1341 H1301 0.929 . S
C1341 C1336 1.386 . S
C1341 C1340 1.399 . S
C1342 C1321 1.485 . S
C1342 C1343 1.394 . S
C1342 C1347 1.360 . S
C1343 H1302 0.931 . S
C1343 C1342 1.394 . S
C1343 C1344 1.372 . S
C1344 H1303 0.930 . S
C1344 C1343 1.372 . S
C1344 C1345 1.397 . S
C1345 C1344 1.397 . S
C1345 C1346 1.390 . S
C1345 C1361 1.476 . S
C1346 H1304 0.930 . S
C1346 C1345 1.390 . S
C1346 C1347 1.366 . S
C1347 H1305 0.932 . S
C1347 C1342 1.360 . S
C1347 C1346 1.366 . S
C1348 C1322 1.490 . S
C1348 C1349 1.380 . S
C1348 C1353 1.386 . S
C1349 H1306 0.930 . S
C1349 C1348 1.380 . S
C1349 C1350 1.381 . S
C1350 H1307 0.929 . S
C1350 C1349 1.381 . S
C1350 C1351 1.371 . S
C1351 C1350 1.371 . S
C1351 C1352 1.380 . S
C1352 H1308 0.931 . S
C1352 C1351 1.380 . S
C1352 C1353 1.387 . S
C1353 H1309 0.930 . S
C1353 C1348 1.386 . S
C1353 C1352 1.387 . S
C1354 C1323 1.519 . S
C1354 C1355 1.377 . S
C1354 C1359 1.361 . S
C1355 H1310 0.929 . S
C1355 C1354 1.377 . S
C1355 C1356 1.386 . S
C1356 H1311 0.931 . S
C1356 C1355 1.386 . S
C1356 C1357 1.363 . S
C1357 C1356 1.363 . S
C1357 C1358 1.385 . S
C1358 H1312 0.930 . S
C1358 C1357 1.385 . S
C1358 C1359 1.396 . S
C1359 H1313 0.929 . S
C1359 C1354 1.361 . S
C1359 C1358 1.396 . S
C1360 O1314 1.300 . S
C1360 O1315 1.209 . S
C1360 C1333 1.486 . S
C1361 O1316 1.199 . S
C1361 O1317 1.297 . S
C1361 C1345 1.476 . S
H1362 O1388 0.856 . S
H1363 O1391 0.854 . S
H1364 C1399 0.930 . S
H1365 C1400 0.930 . S
H1366 C1402 0.930 . S
H1367 C1403 0.930 . S
H1368 C1405 0.931 . S
H1369 C1406 0.930 . S
H1370 C1408 0.930 . S
H1371 C1409 0.929 . S
H1372 C1411 0.930 . S
H1373 C1412 0.931 . S
H1374 C1414 0.930 . S
H1375 C1415 0.929 . S
H1376 C1417 0.931 . S
H1377 C1418 0.930 . S
H1378 C1420 0.930 . S
H1379 C1421 0.932 . S
H1380 C1423 0.930 . S
H1381 C1424 0.929 . S
H1382 C1426 0.931 . S
H1383 C1427 0.930 . S
H1384 C1429 0.929 . S
H1385 C1430 0.931 . S
H1386 C1432 0.930 . S
H1387 C1433 0.929 . S
O1388 H1362 0.856 . S
O1388 C1434 1.300 . S
O1389 C1434 1.209 . S
O1390 C1435 1.199 . S
O1391 H1363 0.854 . S
O1391 C1435 1.297 . S
C1392 C1393 1.404 . S
C1392 C1397 1.397 . S
C1392 C1398 1.492 . S
C1393 C1392 1.404 . S
C1393 C1394 1.396 . S
C1393 C1404 1.492 . S
C1394 C1393 1.396 . S
C1394 C1395 1.397 . S
C1394 C1410 1.509 . S
C1395 C1394 1.397 . S
C1395 C1396 1.412 . S
C1395 C1416 1.485 . S
C1396 C1395 1.412 . S
C1396 C1397 1.388 . S
C1396 C1422 1.490 . S
C1397 C1392 1.397 . S
C1397 C1396 1.388 . S
C1397 C1428 1.519 . S
C1398 C1392 1.492 . S
C1398 C1399 1.363 . S
C1398 C1403 1.390 . S
C1399 H1364 0.930 . S
C1399 C1398 1.363 . S
C1399 C1400 1.372 . S
C1400 H1365 0.930 . S
C1400 C1399 1.372 . S
C1400 C1401 1.383 . S
C1401 C1400 1.383 . S
C1401 C1402 1.395 . S
C1402 H1366 0.930 . S
C1402 C1401 1.395 . S
C1402 C1403 1.362 . S
C1403 H1367 0.930 . S
C1403 C1398 1.390 . S
C1403 C1402 1.362 . S
C1404 C1393 1.492 . S
C1404 C1405 1.377 . S
C1404 C1409 1.397 . S
C1405 H1368 0.931 . S
C1405 C1404 1.377 . S
C1405 C1406 1.376 . S
C1406 H1369 0.930 . S
C1406 C1405 1.376 . S
C1406 C1407 1.376 . S
C1407 C1406 1.376 . S
C1407 C1408 1.378 . S
C1407 C1434 1.486 . S
C1408 H1370 0.930 . S
C1408 C1407 1.378 . S
C1408 C1409 1.376 . S
C1409 H1371 0.929 . S
C1409 C1404 1.397 . S
C1409 C1408 1.376 . S
C1410 C1394 1.509 . S
C1410 C1411 1.391 . S
C1410 C1415 1.386 . S
C1411 H1372 0.930 . S
C1411 C1410 1.391 . S
C1411 C1412 1.375 . S
C1412 H1373 0.931 . S
C1412 C1411 1.375 . S
C1412 C1413 1.375 . S
C1413 C1412 1.375 . S
C1413 C1414 1.361 . S
C1414 H1374 0.930 . S
C1414 C1413 1.361 . S
C1414 C1415 1.399 . S
C1415 H1375 0.929 . S
C1415 C1410 1.386 . S
C1415 C1414 1.399 . S
C1416 C1395 1.485 . S
C1416 C1417 1.394 . S
C1416 C1421 1.360 . S
C1417 H1376 0.931 . S
C1417 C1416 1.394 . S
C1417 C1418 1.372 . S
C1418 H1377 0.930 . S
C1418 C1417 1.372 . S
C1418 C1419 1.397 . S
C1419 C1418 1.397 . S
C1419 C1420 1.390 . S
C1419 C1435 1.476 . S
C1420 H1378 0.930 . S
C1420 C1419 1.390 . S
C1420 C1421 1.366 . S
C1421 H1379 0.932 . S
C1421 C1416 1.360 . S
C1421 C1420 1.366 . S
C1422 C1396 1.490 . S
C1422 C1423 1.380 . S
C1422 C1427 1.386 . S
C1423 H1380 0.930 . S
C1423 C1422 1.380 . S
C1423 C1424 1.381 . S
C1424 H1381 0.929 . S
C1424 C1423 1.381 . S
C1424 C1425 1.371 . S
C1425 C1424 1.371 . S
C1425 C1426 1.380 . S
C1426 H1382 0.931 . S
C1426 C1425 1.380 . S
C1426 C1427 1.387 . S
C1427 H1383 0.930 . S
C1427 C1422 1.386 . S
C1427 C1426 1.387 . S
C1428 C1397 1.519 . S
C1428 C1429 1.377 . S
C1428 C1433 1.361 . S
C1429 H1384 0.929 . S
C1429 C1428 1.377 . S
C1429 C1430 1.386 . S
C1430 H1385 0.931 . S
C1430 C1429 1.386 . S
C1430 C1431 1.363 . S
C1431 C1430 1.363 . S
C1431 C1432 1.385 . S
C1432 H1386 0.930 . S
C1432 C1431 1.385 . S
C1432 C1433 1.396 . S
C1433 H1387 0.929 . S
C1433 C1428 1.361 . S
C1433 C1432 1.396 . S
C1434 O1388 1.300 . S
C1434 O1389 1.209 . S
C1434 C1407 1.486 . S
C1435 O1390 1.199 . S
C1435 O1391 1.297 . S
C1435 C1419 1.476 . S
H1436 O1462 0.856 . S
H1437 O1465 0.854 . S
H1438 C1473 0.930 . S
H1439 C1474 0.930 . S
H1440 C1476 0.930 . S
H1441 C1477 0.930 . S
H1442 C1479 0.931 . S
H1443 C1480 0.930 . S
H1444 C1482 0.930 . S
H1445 C1483 0.929 . S
H1446 C1485 0.930 . S
H1447 C1486 0.931 . S
H1448 C1488 0.930 . S
H1449 C1489 0.929 . S
H1450 C1491 0.931 . S
H1451 C1492 0.930 . S
H1452 C1494 0.930 . S
H1453 C1495 0.932 . S
H1454 C1497 0.930 . S
H1455 C1498 0.929 . S
H1456 C1500 0.931 . S
H1457 C1501 0.930 . S
H1458 C1503 0.929 . S
H1459 C1504 0.931 . S
H1460 C1506 0.930 . S
H1461 C1507 0.929 . S
O1462 H1436 0.856 . S
O1462 C1508 1.300 . S
O1463 C1508 1.209 . S
O1464 C1509 1.199 . S
O1465 H1437 0.854 . S
O1465 C1509 1.297 . S
C1466 C1467 1.404 . S
C1466 C1471 1.397 . S
C1466 C1472 1.492 . S
C1467 C1466 1.404 . S
C1467 C1468 1.396 . S
C1467 C1478 1.492 . S
C1468 C1467 1.396 . S
C1468 C1469 1.397 . S
C1468 C1484 1.509 . S
C1469 C1468 1.397 . S
C1469 C1470 1.412 . S
C1469 C1490 1.485 . S
C1470 C1469 1.412 . S
C1470 C1471 1.388 . S
C1470 C1496 1.490 . S
C1471 C1466 1.397 . S
C1471 C1470 1.388 . S
C1471 C1502 1.519 . S
C1472 C1466 1.492 . S
C1472 C1473 1.363 . S
C1472 C1477 1.390 . S
C1473 H1438 0.930 . S
C1473 C1472 1.363 . S
C1473 C1474 1.372 . S
C1474 H1439 0.930 . S
C1474 C1473 1.372 . S
C1474 C1475 1.383 . S
C1475 C1474 1.383 . S
C1475 C1476 1.395 . S
C1476 H1440 0.930 . S
C1476 C1475 1.395 . S
C1476 C1477 1.362 . S
C1477 H1441 0.930 . S
C1477 C1472 1.390 . S
C1477 C1476 1.362 . S
C1478 C1467 1.492 . S
C1478 C1479 1.377 . S
C1478 C1483 1.397 . S
C1479 H1442 0.931 . S
C1479 C1478 1.377 . S
C1479 C1480 1.376 . S
C1480 H1443 0.930 . S
C1480 C1479 1.376 . S
C1480 C1481 1.376 . S
C1481 C1480 1.376 . S
C1481 C1482 1.378 . S
C1481 C1508 1.486 . S
C1482 H1444 0.930 . S
C1482 C1481 1.378 . S
C1482 C1483 1.376 . S
C1483 H1445 0.929 . S
C1483 C1478 1.397 . S
C1483 C1482 1.376 . S
C1484 C1468 1.509 . S
C1484 C1485 1.391 . S
C1484 C1489 1.386 . S
C1485 H1446 0.930 . S
C1485 C1484 1.391 . S
C1485 C1486 1.375 . S
C1486 H1447 0.931 . S
C1486 C1485 1.375 . S
C1486 C1487 1.375 . S
C1487 C1486 1.375 . S
C1487 C1488 1.361 . S
C1488 H1448 0.930 . S
C1488 C1487 1.361 . S
C1488 C1489 1.399 . S
C1489 H1449 0.929 . S
C1489 C1484 1.386 . S
C1489 C1488 1.399 . S
C1490 C1469 1.485 . S
C1490 C1491 1.394 . S
C1490 C1495 1.360 . S
C1491 H1450 0.931 . S
C1491 C1490 1.394 . S
C1491 C1492 1.372 . S
C1492 H1451 0.930 . S
C1492 C1491 1.372 . S
C1492 C1493 1.397 . S
C1493 C1492 1.397 . S
C1493 C1494 1.390 . S
C1493 C1509 1.476 . S
C1494 H1452 0.930 . S
C1494 C1493 1.390 . S
C1494 C1495 1.366 . S
C1495 H1453 0.932 . S
C1495 C1490 1.360 . S
C1495 C1494 1.366 . S
C1496 C1470 1.490 . S
C1496 C1497 1.380 . S
C1496 C1501 1.386 . S
C1497 H1454 0.930 . S
C1497 C1496 1.380 . S
C1497 C1498 1.381 . S
C1498 H1455 0.929 . S
C1498 C1497 1.381 . S
C1498 C1499 1.371 . S
C1499 C1498 1.371 . S
C1499 C1500 1.380 . S
C1500 H1456 0.931 . S
C1500 C1499 1.380 . S
C1500 C1501 1.387 . S
C1501 H1457 0.930 . S
C1501 C1496 1.386 . S
C1501 C1500 1.387 . S
C1502 C1471 1.519 . S
C1502 C1503 1.377 . S
C1502 C1507 1.361 . S
C1503 H1458 0.929 . S
C1503 C1502 1.377 . S
C1503 C1504 1.386 . S
C1504 H1459 0.931 . S
C1504 C1503 1.386 . S
C1504 C1505 1.363 . S
C1505 C1504 1.363 . S
C1505 C1506 1.385 . S
C1506 H1460 0.930 . S
C1506 C1505 1.385 . S
C1506 C1507 1.396 . S
C1507 H1461 0.929 . S
C1507 C1502 1.361 . S
C1507 C1506 1.396 . S
C1508 O1462 1.300 . S
C1508 O1463 1.209 . S
C1508 C1481 1.486 . S
C1509 O1464 1.199 . S
C1509 O1465 1.297 . S
C1509 C1493 1.476 . S
H1510 O1536 0.856 . S
H1511 O1539 0.854 . S
H1512 C1547 0.930 . S
H1513 C1548 0.930 . S
H1514 C1550 0.930 . S
H1515 C1551 0.930 . S
H1516 C1553 0.931 . S
H1517 C1554 0.930 . S
H1518 C1556 0.930 . S
H1519 C1557 0.929 . S
H1520 C1559 0.930 . S
H1521 C1560 0.931 . S
H1522 C1562 0.930 . S
H1523 C1563 0.929 . S
H1524 C1565 0.931 . S
H1525 C1566 0.930 . S
H1526 C1568 0.930 . S
H1527 C1569 0.932 . S
H1528 C1571 0.930 . S
H1529 C1572 0.929 . S
H1530 C1574 0.931 . S
H1531 C1575 0.930 . S
H1532 C1577 0.929 . S
H1533 C1578 0.931 . S
H1534 C1580 0.930 . S
H1535 C1581 0.929 . S
O1536 H1510 0.856 . S
O1536 C1582 1.300 . S
O1537 C1582 1.209 . S
O1538 C1583 1.199 . S
O1539 H1511 0.854 . S
O1539 C1583 1.297 . S
C1540 C1541 1.404 . S
C1540 C1545 1.397 . S
C1540 C1546 1.492 . S
C1541 C1540 1.404 . S
C1541 C1542 1.396 . S
C1541 C1552 1.492 . S
C1542 C1541 1.396 . S
C1542 C1543 1.397 . S
C1542 C1558 1.509 . S
C1543 C1542 1.397 . S
C1543 C1544 1.412 . S
C1543 C1564 1.485 . S
C1544 C1543 1.412 . S
C1544 C1545 1.388 . S
C1544 C1570 1.490 . S
C1545 C1540 1.397 . S
C1545 C1544 1.388 . S
C1545 C1576 1.519 . S
C1546 C1540 1.492 . S
C1546 C1547 1.363 . S
C1546 C1551 1.390 . S
C1547 H1512 0.930 . S
C1547 C1546 1.363 . S
C1547 C1548 1.372 . S
C1548 H1513 0.930 . S
C1548 C1547 1.372 . S
C1548 C1549 1.383 . S
C1549 C1548 1.383 . S
C1549 C1550 1.395 . S
C1550 H1514 0.930 . S
C1550 C1549 1.395 . S
C1550 C1551 1.362 . S
C1551 H1515 0.930 . S
C1551 C1546 1.390 . S
C1551 C1550 1.362 . S
C1552 C1541 1.492 . S
C1552 C1553 1.377 . S
C1552 C1557 1.397 . S
C1553 H1516 0.931 . S
C1553 C1552 1.377 . S
C1553 C1554 1.376 . S
C1554 H1517 0.930 . S
C1554 C1553 1.376 . S
C1554 C1555 1.376 . S
C1555 C1554 1.376 . S
C1555 C1556 1.378 . S
C1555 C1582 1.486 . S
C1556 H1518 0.930 . S
C1556 C1555 1.378 . S
C1556 C1557 1.376 . S
C1557 H1519 0.929 . S
C1557 C1552 1.397 . S
C1557 C1556 1.376 . S
C1558 C1542 1.509 . S
C1558 C1559 1.391 . S
C1558 C1563 1.386 . S
C1559 H1520 0.930 . S
C1559 C1558 1.391 . S
C1559 C1560 1.375 . S
C1560 H1521 0.931 . S
C1560 C1559 1.375 . S
C1560 C1561 1.375 . S
C1561 C1560 1.375 . S
C1561 C1562 1.361 . S
C1562 H1522 0.930 . S
C1562 C1561 1.361 . S
C1562 C1563 1.399 . S
C1563 H1523 0.929 . S
C1563 C1558 1.386 . S
C1563 C1562 1.399 . S
C1564 C1543 1.485 . S
C1564 C1565 1.394 . S
C1564 C1569 1.360 . S
C1565 H1524 0.931 . S
C1565 C1564 1.394 . S
C1565 C1566 1.372 . S
C1566 H1525 0.930 . S
C1566 C1565 1.372 . S
C1566 C1567 1.397 . S
C1567 C1566 1.397 . S
C1567 C1568 1.390 . S
C1567 C1583 1.476 . S
C1568 H1526 0.930 . S
C1568 C1567 1.390 . S
C1568 C1569 1.366 . S
C1569 H1527 0.932 . S
C1569 C1564 1.360 . S
C1569 C1568 1.366 . S
C1570 C1544 1.490 . S
C1570 C1571 1.380 . S
C1570 C1575 1.386 . S
C1571 H1528 0.930 . S
C1571 C1570 1.380 . S
C1571 C1572 1.381 . S
C1572 H1529 0.929 . S
C1572 C1571 1.381 . S
C1572 C1573 1.371 . S
C1573 C1572 1.371 . S
C1573 C1574 1.380 . S
C1574 H1530 0.931 . S
C1574 C1573 1.380 . S
C1574 C1575 1.387 . S
C1575 H1531 0.930 . S
C1575 C1570 1.386 . S
C1575 C1574 1.387 . S
C1576 C1545 1.519 . S
C1576 C1577 1.377 . S
C1576 C1581 1.361 . S
C1577 H1532 0.929 . S
C1577 C1576 1.377 . S
C1577 C1578 1.386 . S
C1578 H1533 0.931 . S
C1578 C1577 1.386 . S
C1578 C1579 1.363 . S
C1579 C1578 1.363 . S
C1579 C1580 1.385 . S
C1580 H1534 0.930 . S
C1580 C1579 1.385 . S
C1580 C1581 1.396 . S
C1581 H1535 0.929 . S
C1581 C1576 1.361 . S
C1581 C1580 1.396 . S
C1582 O1536 1.300 . S
C1582 O1537 1.209 . S
C1582 C1555 1.486 . S
C1583 O1538 1.199 . S
C1583 O1539 1.297 . S
C1583 C1567 1.476 . S
C1584 C1585 1.347 . S
C1584 C1586 1.327 . S
C1584 H1609 0.950 . S
C1585 C1584 1.347 . S
C1585 C1601 1.352 1_455 S
C1586 C1584 1.327 . S
C1586 C1605 1.429 1_455 S
C1586 H1610 0.950 . S
C1587 C1604 1.574 . S
C1587 C1606 1.368 . S
C1587 H1611 0.949 . S
H1588 C1592 0.965 . S
C1589 C1590 1.349 . S
C1589 C1591 1.327 . S
C1589 H1612 0.950 . S
C1590 C1589 1.349 . S
C1590 C1602 1.349 . S
C1591 C1589 1.327 . S
C1591 C1607 1.429 . S
C1591 H1613 0.950 . S
C1592 H1588 0.965 . S
C1592 C1600 1.595 . S
C1592 C1608 1.331 1_455 S
H1593 C1601 0.950 . S
H1594 C1599 0.950 . S
H1595 C1600 0.949 . S
H1596 C1602 0.959 . S
H1597 C1603 0.950 1_455 S
H1598 C1604 0.949 . S
C1599 H1594 0.950 . S
C1599 C1601 1.327 . S
C1599 C1605 1.429 . S
C1600 C1592 1.595 . S
C1600 H1595 0.949 . S
C1600 C1606 1.368 1_455 S
C1601 C1585 1.352 1_655 S
C1601 H1593 0.950 . S
C1601 C1599 1.327 . S
C1602 C1590 1.349 . S
C1602 H1596 0.959 . S
C1602 C1603 1.327 . S
C1603 H1597 0.950 1_655 S
C1603 C1602 1.327 . S
C1603 C1607 1.429 . S
C1604 C1587 1.574 . S
C1604 H1598 0.949 . S
C1604 C1608 1.368 . S
C1605 C1586 1.429 1_655 S
C1605 C1599 1.429 . S
C1605 C1606 1.523 . S
C1606 C1587 1.368 . S
C1606 C1600 1.368 1_655 S
C1606 C1605 1.523 . S
C1607 C1591 1.429 . S
C1607 C1603 1.429 . S
C1607 C1608 1.523 . S
C1608 C1592 1.331 1_655 S
C1608 C1604 1.368 . S
C1608 C1607 1.523 . S
H1609 C1584 0.950 . S
H1610 C1586 0.950 . S
H1611 C1587 0.949 . S
H1612 C1589 0.950 . S
H1613 C1591 0.950 . S
C1614 C1615 1.349 . S
C1614 C1616 1.327 . S
C1614 H1639 0.950 . S
C1615 C1614 1.349 . S
C1615 C1631 1.349 . S
C1616 C1614 1.327 . S
C1616 C1635 1.429 . S
C1616 H1640 0.950 . S
C1617 C1634 1.574 . S
C1617 C1636 1.368 . S
C1617 H1641 0.949 . S
H1618 C1622 0.949 . S
C1619 C1620 1.349 . S
C1619 C1621 1.327 . S
C1619 H1642 0.950 . S
C1620 C1619 1.349 . S
C1620 C1632 1.349 . S
C1621 C1619 1.327 . S
C1621 C1637 1.429 . S
C1621 H1643 0.950 . S
C1622 H1618 0.949 . S
C1622 C1630 1.574 . S
C1622 C1638 1.368 . S
H1623 C1631 0.950 . S
H1624 C1629 0.950 . S
H1625 C1630 0.949 . S
H1626 C1632 0.950 . S
H1627 C1633 0.950 . S
H1628 C1634 0.949 . S
C1629 H1624 0.950 . S
C1629 C1631 1.327 . S
C1629 C1635 1.429 . S
C1630 C1622 1.574 . S
C1630 H1625 0.949 . S
C1630 C1636 1.368 . S
C1631 C1615 1.349 . S
C1631 H1623 0.950 . S
C1631 C1629 1.327 . S
C1632 C1620 1.349 . S
C1632 H1626 0.950 . S
C1632 C1633 1.327 . S
C1633 H1627 0.950 . S
C1633 C1632 1.327 . S
C1633 C1637 1.429 . S
C1634 C1617 1.574 . S
C1634 H1628 0.949 . S
C1634 C1638 1.368 . S
C1635 C1616 1.429 . S
C1635 C1629 1.429 . S
C1635 C1636 1.523 . S
C1636 C1617 1.368 . S
C1636 C1630 1.368 . S
C1636 C1635 1.523 . S
C1637 C1621 1.429 . S
C1637 C1633 1.429 . S
C1637 C1638 1.523 . S
C1638 C1622 1.368 . S
C1638 C1634 1.368 . S
C1638 C1637 1.523 . S
H1639 C1614 0.950 . S
H1640 C1616 0.950 . S
H1641 C1617 0.949 . S
H1642 C1619 0.950 . S
H1643 C1621 0.950 . S
C1644 C1645 1.263 1_565 S
C1644 C1646 1.330 . S
C1644 H1669 1.006 . S
C1645 C1644 1.263 1_545 S
C1645 C1661 1.349 . S
C1646 C1644 1.330 . S
C1646 C1665 1.383 1_565 S
C1646 H1670 1.030 . S
C1647 C1664 1.574 . S
C1647 C1666 1.368 . S
C1647 H1671 0.949 . S
H1648 C1652 0.971 . S
C1649 C1650 1.349 . S
C1649 C1651 1.327 . S
C1649 H1672 0.950 . S
C1650 C1649 1.349 . S
C1650 C1662 1.349 . S
C1651 C1649 1.327 . S
C1651 C1667 1.429 . S
C1651 H1673 0.950 . S
C1652 H1648 0.971 . S
C1652 C1660 1.589 . S
C1652 C1668 1.352 1_565 S
H1653 C1661 0.950 . S
H1654 C1659 0.950 . S
H1655 C1660 0.988 . S
H1656 C1662 0.950 1_565 S
H1657 C1663 0.950 1_565 S
H1658 C1664 0.949 . S
C1659 H1654 0.950 . S
C1659 C1661 1.327 . S
C1659 C1665 1.429 . S
C1660 C1652 1.589 . S
C1660 H1655 0.988 . S
C1660 C1666 1.304 1_565 S
C1661 C1645 1.349 . S
C1661 H1653 0.950 . S
C1661 C1659 1.327 . S
C1662 C1650 1.349 . S
C1662 H1656 0.950 1_545 S
C1662 C1663 1.327 . S
C1663 H1657 0.950 1_545 S
C1663 C1662 1.327 . S
C1663 C1667 1.429 . S
C1664 C1647 1.574 . S
C1664 H1658 0.949 . S
C1664 C1668 1.368 . S
C1665 C1646 1.383 1_545 S
C1665 C1659 1.429 . S
C1665 C1666 1.523 . S
C1666 C1647 1.368 . S
C1666 C1660 1.304 1_545 S
C1666 C1665 1.523 . S
C1667 C1651 1.429 . S
C1667 C1663 1.429 . S
C1667 C1668 1.523 . S
C1668 C1652 1.352 1_545 S
C1668 C1664 1.368 . S
C1668 C1667 1.523 . S
H1669 C1644 1.006 . S
H1670 C1646 1.030 . S
H1671 C1647 0.949 . S
H1672 C1649 0.950 . S
H1673 C1651 0.950 . S
C1674 C1675 1.349 . S
C1674 C1676 1.327 . S
C1674 H1699 0.950 . S
C1675 C1674 1.349 . S
C1675 C1691 1.349 1_565 S
C1676 C1674 1.327 . S
C1676 C1695 1.429 . S
C1676 H1700 0.950 . S
C1677 C1694 1.574 . S
C1677 C1696 1.368 1_545 S
C1677 H1701 0.949 . S
H1678 C1682 0.949 . S
C1679 C1680 1.349 1_545 S
C1679 C1681 1.327 . S
C1679 H1702 0.950 . S
C1680 C1679 1.349 1_565 S
C1680 C1692 1.349 . S
C1681 C1679 1.327 . S
C1681 C1697 1.429 1_545 S
C1681 H1703 0.950 . S
C1682 H1678 0.949 . S
C1682 C1690 1.574 . S
C1682 C1698 1.368 . S
H1683 C1691 0.950 . S
H1684 C1689 0.950 . S
H1685 C1690 0.949 . S
H1686 C1692 0.950 . S
H1687 C1693 0.950 . S
H1688 C1694 0.949 . S
C1689 H1684 0.950 . S
C1689 C1691 1.327 . S
C1689 C1695 1.429 1_545 S
C1690 C1682 1.574 . S
C1690 H1685 0.949 . S
C1690 C1696 1.368 . S
C1691 C1675 1.349 1_545 S
C1691 H1683 0.950 . S
C1691 C1689 1.327 . S
C1692 C1680 1.349 . S
C1692 H1686 0.950 . S
C1692 C1693 1.327 . S
C1693 H1687 0.950 . S
C1693 C1692 1.327 . S
C1693 C1697 1.429 . S
C1694 C1677 1.574 . S
C1694 H1688 0.949 . S
C1694 C1698 1.368 1_545 S
C1695 C1676 1.429 . S
C1695 C1689 1.429 1_565 S
C1695 C1696 1.523 . S
C1696 C1677 1.368 1_565 S
C1696 C1690 1.368 . S
C1696 C1695 1.523 . S
C1697 C1681 1.429 1_565 S
C1697 C1693 1.429 . S
C1697 C1698 1.523 . S
C1698 C1682 1.368 . S
C1698 C1694 1.368 1_565 S
C1698 C1697 1.523 . S
H1699 C1674 0.950 . S
H1700 C1676 0.950 . S
H1701 C1677 0.949 . S
H1702 C1679 0.950 . S
H1703 C1681 0.950 . S
C1704 C1705 1.349 . S
C1704 C1706 1.327 . S
C1704 H1729 0.950 . S
C1705 C1704 1.349 . S
C1705 C1721 1.349 1_455 S
C1706 C1704 1.327 . S
C1706 C1725 1.429 . S
C1706 H1730 0.950 . S
C1707 C1724 1.574 . S
C1707 C1726 1.368 1_655 S
C1707 H1731 0.949 . S
H1708 C1712 0.949 . S
C1709 C1710 1.349 1_655 S
C1709 C1711 1.327 . S
C1709 H1732 0.950 . S
C1710 C1709 1.349 1_455 S
C1710 C1722 1.349 . S
C1711 C1709 1.327 . S
C1711 C1727 1.429 1_655 S
C1711 H1733 0.950 . S
C1712 H1708 0.949 . S
C1712 C1720 1.574 . S
C1712 C1728 1.368 . S
H1713 C1721 0.950 . S
H1714 C1719 0.950 . S
H1715 C1720 0.949 . S
H1716 C1722 0.950 . S
H1717 C1723 0.950 . S
H1718 C1724 0.949 . S
C1719 H1714 0.950 . S
C1719 C1721 1.327 . S
C1719 C1725 1.429 1_655 S
C1720 C1712 1.574 . S
C1720 H1715 0.949 . S
C1720 C1726 1.368 . S
C1721 C1705 1.349 1_655 S
C1721 H1713 0.950 . S
C1721 C1719 1.327 . S
C1722 C1710 1.349 . S
C1722 H1716 0.950 . S
C1722 C1723 1.327 . S
C1723 H1717 0.950 . S
C1723 C1722 1.327 . S
C1723 C1727 1.429 . S
C1724 C1707 1.574 . S
C1724 H1718 0.949 . S
C1724 C1728 1.368 1_655 S
C1725 C1706 1.429 . S
C1725 C1719 1.429 1_455 S
C1725 C1726 1.523 . S
C1726 C1707 1.368 1_455 S
C1726 C1720 1.368 . S
C1726 C1725 1.523 . S
C1727 C1711 1.429 1_455 S
C1727 C1723 1.429 . S
C1727 C1728 1.523 . S
C1728 C1712 1.368 . S
C1728 C1724 1.368 1_455 S
C1728 C1727 1.523 . S
H1729 C1704 0.950 . S
H1730 C1706 0.950 . S
H1731 C1707 0.949 . S
H1732 C1709 0.950 . S
H1733 C1711 0.950 . S
C1734 C1735 1.349 . S
C1734 C1736 1.327 1_554 S
C1734 H1759 0.950 . S
C1735 C1734 1.349 . S
C1735 C1751 1.349 . S
C1736 C1734 1.327 1_556 S
C1736 C1755 1.429 . S
C1736 H1760 0.950 . S
C1737 C1754 1.574 . S
C1737 C1756 1.368 . S
C1737 H1761 0.949 . S
H1738 C1742 0.949 . S
C1739 C1740 1.349 . S
C1739 C1741 1.327 . S
C1739 H1762 0.950 . S
C1740 C1739 1.349 . S
C1740 C1752 1.349 . S
C1741 C1739 1.327 . S
C1741 C1757 1.429 . S
C1741 H1763 0.950 . S
C1742 H1738 0.949 . S
C1742 C1750 1.574 . S
C1742 C1758 1.368 . S
H1743 C1751 0.950 . S
H1744 C1749 0.950 . S
H1745 C1750 0.949 . S
H1746 C1752 0.950 . S
H1747 C1753 0.950 . S
H1748 C1754 0.949 . S
C1749 H1744 0.950 . S
C1749 C1751 1.327 . S
C1749 C1755 1.429 1_554 S
C1750 C1742 1.574 . S
C1750 H1745 0.949 . S
C1750 C1756 1.368 . S
C1751 C1735 1.349 . S
C1751 H1743 0.950 . S
C1751 C1749 1.327 . S
C1752 C1740 1.349 . S
C1752 H1746 0.950 . S
C1752 C1753 1.327 . S
C1753 H1747 0.950 . S
C1753 C1752 1.327 . S
C1753 C1757 1.429 . S
C1754 C1737 1.574 . S
C1754 H1748 0.949 . S
C1754 C1758 1.368 . S
C1755 C1736 1.429 . S
C1755 C1749 1.429 1_556 S
C1755 C1756 1.523 . S
C1756 C1737 1.368 . S
C1756 C1750 1.368 . S
C1756 C1755 1.523 . S
C1757 C1741 1.429 . S
C1757 C1753 1.429 . S
C1757 C1758 1.523 . S
C1758 C1742 1.368 . S
C1758 C1754 1.368 . S
C1758 C1757 1.523 . S
H1759 C1734 0.950 . S
H1760 C1736 0.950 . S
H1761 C1737 0.949 . S
H1762 C1739 0.950 . S
H1763 C1741 0.950 . S
C1764 C1765 1.349 1_556 S
C1764 C1766 1.327 . S
C1764 H1789 0.955 . S
C1765 C1764 1.349 1_554 S
C1765 C1781 1.349 1_455 S
C1766 C1764 1.327 . S
C1766 C1785 1.429 . S
C1766 H1790 0.950 . S
C1767 C1784 1.574 . S
C1767 C1786 1.368 1_655 S
C1767 H1791 0.949 . S
H1768 C1772 0.949 . S
C1769 C1770 1.309 1_655 S
C1769 C1771 1.327 . S
C1769 H1792 0.950 . S
C1770 C1769 1.309 1_455 S
C1770 C1782 1.370 . S
C1771 C1769 1.327 . S
C1771 C1787 1.429 1_655 S
C1771 H1793 0.950 . S
C1772 H1768 0.949 . S
C1772 C1780 1.574 . S
C1772 C1788 1.368 . S
H1773 C1781 0.950 . S
H1774 C1779 0.950 . S
H1775 C1780 0.949 . S
H1776 C1782 0.950 . S
H1777 C1783 0.950 . S
H1778 C1784 0.949 . S
C1779 H1774 0.950 . S
C1779 C1781 1.327 1_556 S
C1779 C1785 1.429 1_655 S
C1780 C1772 1.574 . S
C1780 H1775 0.949 . S
C1780 C1786 1.368 . S
C1781 C1765 1.349 1_655 S
C1781 H1773 0.950 . S
C1781 C1779 1.327 1_554 S
C1782 C1770 1.370 . S
C1782 H1776 0.950 . S
C1782 C1783 1.327 . S
C1783 H1777 0.950 . S
C1783 C1782 1.327 . S
C1783 C1787 1.429 . S
C1784 C1767 1.574 . S
C1784 H1778 0.949 . S
C1784 C1788 1.368 1_655 S
C1785 C1766 1.429 . S
C1785 C1779 1.429 1_455 S
C1785 C1786 1.523 . S
C1786 C1767 1.368 1_455 S
C1786 C1780 1.368 . S
C1786 C1785 1.523 . S
C1787 C1771 1.429 1_455 S
C1787 C1783 1.429 . S
C1787 C1788 1.523 . S
C1788 C1772 1.368 . S
C1788 C1784 1.368 1_455 S
C1788 C1787 1.523 . S
H1789 C1764 0.955 . S
H1790 C1766 0.950 . S
H1791 C1767 0.949 . S
H1792 C1769 0.950 . S
H1793 C1771 0.950 . S
C1794 C1795 1.349 . S
C1794 C1796 1.327 . S
C1794 H1819 0.950 . S
C1795 C1794 1.349 . S
C1795 C1811 1.349 . S
C1796 C1794 1.327 . S
C1796 C1815 1.429 . S
C1796 H1820 0.950 . S
C1797 C1814 1.574 . S
C1797 C1816 1.368 . S
C1797 H1821 0.949 . S
H1798 C1802 0.949 . S
C1799 C1800 1.349 . S
C1799 C1801 1.327 . S
C1799 H1822 0.950 . S
C1800 C1799 1.349 . S
C1800 C1812 1.349 . S
C1801 C1799 1.327 . S
C1801 C1817 1.429 . S
C1801 H1823 0.950 . S
C1802 H1798 0.949 . S
C1802 C1810 1.574 . S
C1802 C1818 1.368 . S
H1803 C1811 0.950 . S
H1804 C1809 0.950 . S
H1805 C1810 0.949 . S
H1806 C1812 0.950 . S
H1807 C1813 0.950 . S
H1808 C1814 0.949 . S
C1809 H1804 0.950 . S
C1809 C1811 1.327 . S
C1809 C1815 1.429 . S
C1810 C1802 1.574 . S
C1810 H1805 0.949 . S
C1810 C1816 1.368 . S
C1811 C1795 1.349 . S
C1811 H1803 0.950 . S
C1811 C1809 1.327 . S
C1812 C1800 1.349 . S
C1812 H1806 0.950 . S
C1812 C1813 1.327 . S
C1813 H1807 0.950 . S
C1813 C1812 1.327 . S
C1813 C1817 1.429 . S
C1814 C1797 1.574 . S
C1814 H1808 0.949 . S
C1814 C1818 1.368 . S
C1815 C1796 1.429 . S
C1815 C1809 1.429 . S
C1815 C1816 1.523 . S
C1816 C1797 1.368 . S
C1816 C1810 1.368 . S
C1816 C1815 1.523 . S
C1817 C1801 1.429 . S
C1817 C1813 1.429 . S
C1817 C1818 1.523 . S
C1818 C1802 1.368 . S
C1818 C1814 1.368 . S
C1818 C1817 1.523 . S
H1819 C1794 0.950 . S
H1820 C1796 0.950 . S
H1821 C1797 0.949 . S
H1822 C1799 0.950 . S
H1823 C1801 0.950 . S
C1824 C1825 1.349 1_546 S
C1824 C1826 1.327 . S
C1824 H1849 0.950 . S
C1825 C1824 1.349 1_564 S
C1825 C1841 1.346 1_554 S
C1826 C1824 1.327 . S
C1826 C1845 1.429 1_545 S
C1826 H1850 0.950 . S
C1827 C1844 1.574 . S
C1827 C1846 1.368 . S
C1827 H1851 0.949 . S
H1828 C1832 0.949 . S
C1829 C1830 1.315 1_565 S
C1829 C1831 1.327 . S
C1829 H1852 0.950 . S
C1830 C1829 1.315 1_545 S
C1830 C1842 1.361 . S
C1831 C1829 1.327 . S
C1831 C1847 1.443 . S
C1831 H1853 0.950 . S
C1832 H1828 0.949 . S
C1832 C1840 1.574 . S
C1832 C1848 1.368 1_545 S
H1833 C1841 0.925 1_554 S
H1834 C1839 0.950 . S
H1835 C1840 0.949 . S
H1836 C1842 0.950 . S
H1837 C1843 0.950 . S
H1838 C1844 0.949 . S
C1839 H1834 0.950 . S
C1839 C1841 1.356 . S
C1839 C1845 1.429 . S
C1840 C1832 1.574 . S
C1840 H1835 0.949 . S
C1840 C1846 1.368 1_545 S
C1841 C1825 1.346 1_556 S
C1841 H1833 0.925 1_556 S
C1841 C1839 1.356 . S
C1842 C1830 1.361 . S
C1842 H1836 0.950 . S
C1842 C1843 1.327 . S
C1843 H1837 0.950 . S
C1843 C1842 1.327 . S
C1843 C1847 1.384 1_545 S
C1844 C1827 1.574 . S
C1844 H1838 0.949 . S
C1844 C1848 1.368 . S
C1845 C1826 1.429 1_565 S
C1845 C1839 1.429 . S
C1845 C1846 1.523 . S
C1846 C1827 1.368 . S
C1846 C1840 1.368 1_565 S
C1846 C1845 1.523 . S
C1847 C1831 1.443 . S
C1847 C1843 1.384 1_565 S
C1847 C1848 1.554 . S
C1848 C1832 1.368 1_565 S
C1848 C1844 1.368 . S
C1848 C1847 1.554 . S
H1849 C1824 0.950 . S
H1850 C1826 0.950 . S
H1851 C1827 0.949 . S
H1852 C1829 0.950 . S
H1853 C1831 0.950 . S
C1854 C1855 1.349 . S
C1854 C1856 1.327 . S
C1854 H1879 0.950 . S
C1855 C1854 1.349 . S
C1855 C1871 1.349 1_545 S
C1856 C1854 1.327 . S
C1856 C1875 1.429 . S
C1856 H1880 0.950 . S
C1857 C1874 1.574 . S
C1857 C1876 1.368 1_565 S
C1857 H1881 0.949 . S
H1858 C1862 0.949 . S
C1859 C1860 1.404 . S
C1859 C1861 1.327 . S
C1859 H1882 0.950 . S
C1860 C1859 1.404 . S
C1860 C1872 1.307 1_565 S
C1861 C1859 1.327 . S
C1861 C1877 1.429 1_565 S
C1861 H1883 0.950 . S
C1862 H1858 0.949 . S
C1862 C1870 1.574 . S
C1862 C1878 1.368 . S
H1863 C1871 0.950 . S
H1864 C1869 0.950 . S
H1865 C1870 0.949 . S
H1866 C1872 0.950 . S
H1867 C1873 0.950 . S
H1868 C1874 0.949 . S
C1869 H1864 0.950 . S
C1869 C1871 1.327 . S
C1869 C1875 1.429 1_565 S
C1870 C1862 1.574 . S
C1870 H1865 0.949 . S
C1870 C1876 1.368 . S
C1871 C1855 1.349 1_565 S
C1871 H1863 0.950 . S
C1871 C1869 1.327 . S
C1872 C1860 1.307 1_545 S
C1872 H1866 0.950 . S
C1872 C1873 1.327 . S
C1873 H1867 0.950 . S
C1873 C1872 1.327 . S
C1873 C1877 1.429 . S
C1874 C1857 1.574 . S
C1874 H1868 0.949 . S
C1874 C1878 1.368 1_565 S
C1875 C1856 1.429 . S
C1875 C1869 1.429 1_545 S
C1875 C1876 1.523 . S
C1876 C1857 1.368 1_545 S
C1876 C1870 1.368 . S
C1876 C1875 1.523 . S
C1877 C1861 1.429 1_545 S
C1877 C1873 1.429 . S
C1877 C1878 1.523 . S
C1878 C1862 1.368 . S
C1878 C1874 1.368 1_545 S
C1878 C1877 1.523 . S
H1879 C1854 0.950 . S
H1880 C1856 0.950 . S
H1881 C1857 0.949 . S
H1882 C1859 0.950 . S
H1883 C1861 0.950 . S
C1884 C1885 1.349 1_455 S
C1884 C1886 1.327 . S
C1884 H1909 0.950 . S
C1885 C1884 1.349 1_655 S
C1885 C1901 1.349 . S
C1886 C1884 1.327 . S
C1886 C1905 1.429 1_455 S
C1886 H1910 0.950 . S
C1887 C1904 1.574 . S
C1887 C1906 1.368 . S
C1887 H1911 0.949 . S
H1888 C1892 0.949 . S
C1889 C1890 1.369 . S
C1889 C1891 1.327 . S
C1889 H1912 0.950 . S
C1890 C1889 1.369 . S
C1890 C1902 1.337 1_655 S
C1891 C1889 1.327 . S
C1891 C1907 1.429 . S
C1891 H1913 0.950 . S
C1892 H1888 0.949 . S
C1892 C1900 1.574 . S
C1892 C1908 1.368 1_455 S
H1893 C1901 0.950 . S
H1894 C1899 0.950 . S
H1895 C1900 0.949 . S
H1896 C1902 0.950 . S
H1897 C1903 0.950 . S
H1898 C1904 0.949 . S
C1899 H1894 0.950 . S
C1899 C1901 1.327 . S
C1899 C1905 1.429 . S
C1900 C1892 1.574 . S
C1900 H1895 0.949 . S
C1900 C1906 1.368 1_455 S
C1901 C1885 1.349 . S
C1901 H1893 0.950 . S
C1901 C1899 1.327 . S
C1902 C1890 1.337 1_455 S
C1902 H1896 0.950 . S
C1902 C1903 1.327 . S
C1903 H1897 0.950 . S
C1903 C1902 1.327 . S
C1903 C1907 1.429 1_455 S
C1904 C1887 1.574 . S
C1904 H1898 0.949 . S
C1904 C1908 1.368 . S
C1905 C1886 1.429 1_655 S
C1905 C1899 1.429 . S
C1905 C1906 1.523 . S
C1906 C1887 1.368 . S
C1906 C1900 1.368 1_655 S
C1906 C1905 1.523 . S
C1907 C1891 1.429 . S
C1907 C1903 1.429 1_655 S
C1907 C1908 1.523 . S
C1908 C1892 1.368 1_655 S
C1908 C1904 1.368 . S
C1908 C1907 1.523 . S
H1909 C1884 0.950 . S
H1910 C1886 0.950 . S
H1911 C1887 0.949 . S
H1912 C1889 0.950 . S
H1913 C1891 0.950 . S
C1914 C1915 1.349 . S
C1914 C1916 1.327 . S
C1914 H1939 0.950 . S
C1915 C1914 1.349 . S
C1915 C1931 1.349 . S
C1916 C1914 1.327 . S
C1916 C1935 1.429 . S
C1916 H1940 0.950 . S
C1917 C1934 1.574 . S
C1917 C1936 1.368 . S
C1917 H1941 0.949 . S
H1918 C1922 0.949 . S
C1919 C1920 1.349 . S
C1919 C1921 1.327 . S
C1919 H1942 0.950 . S
C1920 C1919 1.349 . S
C1920 C1932 1.349 . S
C1921 C1919 1.327 . S
C1921 C1937 1.429 . S
C1921 H1943 0.950 . S
C1922 H1918 0.949 . S
C1922 C1930 1.574 . S
C1922 C1938 1.368 . S
H1923 C1931 0.950 . S
H1924 C1929 0.950 . S
H1925 C1930 0.949 . S
H1926 C1932 0.950 . S
H1927 C1933 0.950 . S
H1928 C1934 0.949 . S
C1929 H1924 0.950 . S
C1929 C1931 1.327 . S
C1929 C1935 1.429 . S
C1930 C1922 1.574 . S
C1930 H1925 0.949 . S
C1930 C1936 1.368 . S
C1931 C1915 1.349 . S
C1931 H1923 0.950 . S
C1931 C1929 1.327 . S
C1932 C1920 1.349 . S
C1932 H1926 0.950 . S
C1932 C1933 1.327 . S
C1933 H1927 0.950 . S
C1933 C1932 1.327 . S
C1933 C1937 1.429 . S
C1934 C1917 1.574 . S
C1934 H1928 0.949 . S
C1934 C1938 1.368 . S
C1935 C1916 1.429 . S
C1935 C1929 1.429 . S
C1935 C1936 1.523 . S
C1936 C1917 1.368 . S
C1936 C1930 1.368 . S
C1936 C1935 1.523 . S
C1937 C1921 1.429 . S
C1937 C1933 1.429 . S
C1937 C1938 1.523 . S
C1938 C1922 1.368 . S
C1938 C1934 1.368 . S
C1938 C1937 1.523 . S
H1939 C1914 0.950 . S
H1940 C1916 0.950 . S
H1941 C1917 0.949 . S
H1942 C1919 0.950 . S
H1943 C1921 0.950 . S
C1944 C1945 1.349 . S
C1944 C1946 1.327 . S
C1944 H1969 0.950 . S
C1945 C1944 1.349 . S
C1945 C1961 1.349 . S
C1946 C1944 1.327 . S
C1946 C1965 1.429 . S
C1946 H1970 0.950 . S
C1947 C1964 1.574 . S
C1947 C1966 1.368 . S
C1947 H1971 0.949 . S
H1948 C1952 0.949 . S
C1949 C1950 1.349 . S
C1949 C1951 1.327 . S
C1949 H1972 0.950 . S
C1950 C1949 1.349 . S
C1950 C1962 1.349 . S
C1951 C1949 1.327 . S
C1951 C1967 1.429 . S
C1951 H1973 0.950 . S
C1952 H1948 0.949 . S
C1952 C1960 1.574 . S
C1952 C1968 1.368 . S
H1953 C1961 0.950 . S
H1954 C1959 0.950 . S
H1955 C1960 0.949 . S
H1956 C1962 0.950 . S
H1957 C1963 0.950 . S
H1958 C1964 0.949 . S
C1959 H1954 0.950 . S
C1959 C1961 1.327 . S
C1959 C1965 1.429 . S
C1960 C1952 1.574 . S
C1960 H1955 0.949 . S
C1960 C1966 1.368 . S
C1961 C1945 1.349 . S
C1961 H1953 0.950 . S
C1961 C1959 1.327 . S
C1962 C1950 1.349 . S
C1962 H1956 0.950 . S
C1962 C1963 1.327 . S
C1963 H1957 0.950 . S
C1963 C1962 1.327 . S
C1963 C1967 1.429 . S
C1964 C1947 1.574 . S
C1964 H1958 0.949 . S
C1964 C1968 1.368 . S
C1965 C1946 1.429 . S
C1965 C1959 1.429 . S
C1965 C1966 1.523 . S
C1966 C1947 1.368 . S
C1966 C1960 1.368 . S
C1966 C1965 1.523 . S
C1967 C1951 1.429 . S
C1967 C1963 1.429 . S
C1967 C1968 1.523 . S
C1968 C1952 1.368 . S
C1968 C1964 1.368 . S
C1968 C1967 1.523 . S
H1969 C1944 0.950 . S
H1970 C1946 0.950 . S
H1971 C1947 0.949 . S
H1972 C1949 0.950 . S
H1973 C1951 0.950 . S
C1974 C1975 1.349 . S
C1974 C1976 1.327 . S
C1974 H1999 0.950 . S
C1975 C1974 1.349 . S
C1975 C1991 1.349 . S
C1976 C1974 1.327 . S
C1976 C1995 1.429 . S
C1976 H2000 0.950 . S
C1977 C1994 1.574 . S
C1977 C1996 1.368 . S
C1977 H2001 0.949 . S
H1978 C1982 0.949 . S
C1979 C1980 1.349 . S
C1979 C1981 1.327 . S
C1979 H2002 0.950 . S
C1980 C1979 1.349 . S
C1980 C1992 1.349 . S
C1981 C1979 1.327 . S
C1981 C1997 1.429 . S
C1981 H2003 0.950 . S
C1982 H1978 0.949 . S
C1982 C1990 1.574 . S
C1982 C1998 1.368 . S
H1983 C1991 0.950 . S
H1984 C1989 0.950 . S
H1985 C1990 0.949 . S
H1986 C1992 0.950 . S
H1987 C1993 0.950 . S
H1988 C1994 0.949 . S
C1989 H1984 0.950 . S
C1989 C1991 1.327 . S
C1989 C1995 1.429 . S
C1990 C1982 1.574 . S
C1990 H1985 0.949 . S
C1990 C1996 1.368 . S
C1991 C1975 1.349 . S
C1991 H1983 0.950 . S
C1991 C1989 1.327 . S
C1992 C1980 1.349 . S
C1992 H1986 0.950 . S
C1992 C1993 1.327 . S
C1993 H1987 0.950 . S
C1993 C1992 1.327 . S
C1993 C1997 1.429 . S
C1994 C1977 1.574 . S
C1994 H1988 0.949 . S
C1994 C1998 1.368 . S
C1995 C1976 1.429 . S
C1995 C1989 1.429 . S
C1995 C1996 1.523 . S
C1996 C1977 1.368 . S
C1996 C1990 1.368 . S
C1996 C1995 1.523 . S
C1997 C1981 1.429 . S
C1997 C1993 1.429 . S
C1997 C1998 1.523 . S
C1998 C1982 1.368 . S
C1998 C1994 1.368 . S
C1998 C1997 1.523 . S
H1999 C1974 0.950 . S
H2000 C1976 0.950 . S
H2001 C1977 0.949 . S
H2002 C1979 0.950 . S
H2003 C1981 0.950 . S
C2004 C2005 1.349 . S
C2004 C2006 1.327 . S
C2004 H2029 0.950 . S
C2005 C2004 1.349 . S
C2005 C2021 1.349 . S
C2006 C2004 1.327 . S
C2006 C2025 1.429 . S
C2006 H2030 0.950 . S
C2007 C2024 1.574 . S
C2007 C2026 1.368 . S
C2007 H2031 0.949 . S
H2008 C2012 0.949 . S
C2009 C2010 1.349 . S
C2009 C2011 1.327 . S
C2009 H2032 0.950 . S
C2010 C2009 1.349 . S
C2010 C2022 1.349 . S
C2011 C2009 1.327 . S
C2011 C2027 1.429 . S
C2011 H2033 0.950 . S
C2012 H2008 0.949 . S
C2012 C2020 1.574 . S
C2012 C2028 1.368 . S
H2013 C2021 0.950 . S
H2014 C2019 0.950 . S
H2015 C2020 0.949 . S
H2016 C2022 0.950 . S
H2017 C2023 0.950 . S
H2018 C2024 0.949 . S
C2019 H2014 0.950 . S
C2019 C2021 1.327 . S
C2019 C2025 1.429 . S
C2020 C2012 1.574 . S
C2020 H2015 0.949 . S
C2020 C2026 1.368 . S
C2021 C2005 1.349 . S
C2021 H2013 0.950 . S
C2021 C2019 1.327 . S
C2022 C2010 1.349 . S
C2022 H2016 0.950 . S
C2022 C2023 1.327 . S
C2023 H2017 0.950 . S
C2023 C2022 1.327 . S
C2023 C2027 1.429 . S
C2024 C2007 1.574 . S
C2024 H2018 0.949 . S
C2024 C2028 1.368 . S
C2025 C2006 1.429 . S
C2025 C2019 1.429 . S
C2025 C2026 1.523 . S
C2026 C2007 1.368 . S
C2026 C2020 1.368 . S
C2026 C2025 1.523 . S
C2027 C2011 1.429 . S
C2027 C2023 1.429 . S
C2027 C2028 1.523 . S
C2028 C2012 1.368 . S
C2028 C2024 1.368 . S
C2028 C2027 1.523 . S
H2029 C2004 0.950 . S
H2030 C2006 0.950 . S
H2031 C2007 0.949 . S
H2032 C2009 0.950 . S
H2033 C2011 0.950 . S
C2034 C2035 1.349 . S
C2034 C2036 1.327 . S
C2034 H2059 0.950 . S
C2035 C2034 1.349 . S
C2035 C2051 1.349 . S
C2036 C2034 1.327 . S
C2036 C2055 1.429 . S
C2036 H2060 0.950 . S
C2037 C2054 1.574 . S
C2037 C2056 1.368 . S
C2037 H2061 0.949 . S
H2038 C2042 0.949 . S
C2039 C2040 1.349 . S
C2039 C2041 1.327 . S
C2039 H2062 0.950 . S
C2040 C2039 1.349 . S
C2040 C2052 1.349 . S
C2041 C2039 1.327 . S
C2041 C2057 1.429 . S
C2041 H2063 0.950 . S
C2042 H2038 0.949 . S
C2042 C2050 1.574 . S
C2042 C2058 1.368 . S
H2043 C2051 0.950 . S
H2044 C2049 0.950 . S
H2045 C2050 0.949 . S
H2046 C2052 0.950 . S
H2047 C2053 0.950 . S
H2048 C2054 0.949 . S
C2049 H2044 0.950 . S
C2049 C2051 1.327 . S
C2049 C2055 1.429 . S
C2050 C2042 1.574 . S
C2050 H2045 0.949 . S
C2050 C2056 1.368 . S
C2051 C2035 1.349 . S
C2051 H2043 0.950 . S
C2051 C2049 1.327 . S
C2052 C2040 1.349 . S
C2052 H2046 0.950 . S
C2052 C2053 1.327 . S
C2053 H2047 0.950 . S
C2053 C2052 1.327 . S
C2053 C2057 1.429 . S
C2054 C2037 1.574 . S
C2054 H2048 0.949 . S
C2054 C2058 1.368 . S
C2055 C2036 1.429 . S
C2055 C2049 1.429 . S
C2055 C2056 1.523 . S
C2056 C2037 1.368 . S
C2056 C2050 1.368 . S
C2056 C2055 1.523 . S
C2057 C2041 1.429 . S
C2057 C2053 1.429 . S
C2057 C2058 1.523 . S
C2058 C2042 1.368 . S
C2058 C2054 1.368 . S
C2058 C2057 1.523 . S
H2059 C2034 0.950 . S
H2060 C2036 0.950 . S
H2061 C2037 0.949 . S
H2062 C2039 0.950 . S
H2063 C2041 0.950 . S
C2064 C2065 1.349 . S
C2064 C2066 1.327 . S
C2064 H2089 0.950 . S
C2065 C2064 1.349 . S
C2065 C2081 1.349 . S
C2066 C2064 1.327 . S
C2066 C2085 1.429 . S
C2066 H2090 0.950 . S
C2067 C2084 1.574 . S
C2067 C2086 1.368 . S
C2067 H2091 0.949 . S
H2068 C2072 0.949 . S
C2069 C2070 1.349 . S
C2069 C2071 1.327 . S
C2069 H2092 0.950 . S
C2070 C2069 1.349 . S
C2070 C2082 1.349 . S
C2071 C2069 1.327 . S
C2071 C2087 1.429 . S
C2071 H2093 0.950 . S
C2072 H2068 0.949 . S
C2072 C2080 1.574 . S
C2072 C2088 1.368 . S
H2073 C2081 0.950 . S
H2074 C2079 0.950 . S
H2075 C2080 0.949 . S
H2076 C2082 0.950 . S
H2077 C2083 0.950 . S
H2078 C2084 0.949 . S
C2079 H2074 0.950 . S
C2079 C2081 1.327 . S
C2079 C2085 1.429 . S
C2080 C2072 1.574 . S
C2080 H2075 0.949 . S
C2080 C2086 1.368 . S
C2081 C2065 1.349 . S
C2081 H2073 0.950 . S
C2081 C2079 1.327 . S
C2082 C2070 1.349 . S
C2082 H2076 0.950 . S
C2082 C2083 1.327 . S
C2083 H2077 0.950 . S
C2083 C2082 1.327 . S
C2083 C2087 1.429 . S
C2084 C2067 1.574 . S
C2084 H2078 0.949 . S
C2084 C2088 1.368 . S
C2085 C2066 1.429 . S
C2085 C2079 1.429 . S
C2085 C2086 1.523 . S
C2086 C2067 1.368 . S
C2086 C2080 1.368 . S
C2086 C2085 1.523 . S
C2087 C2071 1.429 . S
C2087 C2083 1.429 . S
C2087 C2088 1.523 . S
C2088 C2072 1.368 . S
C2088 C2084 1.368 . S
C2088 C2087 1.523 . S
H2089 C2064 0.950 . S
H2090 C2066 0.950 . S
H2091 C2067 0.949 . S
H2092 C2069 0.950 . S
H2093 C2071 0.950 . S
C2094 C2095 1.349 . S
C2094 C2096 1.327 . S
C2094 H2119 0.950 . S
C2095 C2094 1.349 . S
C2095 C2111 1.349 . S
C2096 C2094 1.327 . S
C2096 C2115 1.429 . S
C2096 H2120 0.950 . S
C2097 C2114 1.574 . S
C2097 C2116 1.368 . S
C2097 H2121 0.949 . S
H2098 C2102 0.949 . S
C2099 C2100 1.349 . S
C2099 C2101 1.327 . S
C2099 H2122 0.950 . S
C2100 C2099 1.349 . S
C2100 C2112 1.349 . S
C2101 C2099 1.327 . S
C2101 C2117 1.429 . S
C2101 H2123 0.950 . S
C2102 H2098 0.949 . S
C2102 C2110 1.574 . S
C2102 C2118 1.368 . S
H2103 C2111 0.950 . S
H2104 C2109 0.950 . S
H2105 C2110 0.949 . S
H2106 C2112 0.950 . S
H2107 C2113 0.950 . S
H2108 C2114 0.949 . S
C2109 H2104 0.950 . S
C2109 C2111 1.327 . S
C2109 C2115 1.429 . S
C2110 C2102 1.574 . S
C2110 H2105 0.949 . S
C2110 C2116 1.368 . S
C2111 C2095 1.349 . S
C2111 H2103 0.950 . S
C2111 C2109 1.327 . S
C2112 C2100 1.349 . S
C2112 H2106 0.950 . S
C2112 C2113 1.327 . S
C2113 H2107 0.950 . S
C2113 C2112 1.327 . S
C2113 C2117 1.429 . S
C2114 C2097 1.574 . S
C2114 H2108 0.949 . S
C2114 C2118 1.368 . S
C2115 C2096 1.429 . S
C2115 C2109 1.429 . S
C2115 C2116 1.523 . S
C2116 C2097 1.368 . S
C2116 C2110 1.368 . S
C2116 C2115 1.523 . S
C2117 C2101 1.429 . S
C2117 C2113 1.429 . S
C2117 C2118 1.523 . S
C2118 C2102 1.368 . S
C2118 C2114 1.368 . S
C2118 C2117 1.523 . S
H2119 C2094 0.950 . S
H2120 C2096 0.950 . S
H2121 C2097 0.949 . S
H2122 C2099 0.950 . S
H2123 C2101 0.950 . S
C2124 C2125 1.349 . S
C2124 C2126 1.327 . S
C2124 H2149 0.950 . S
C2125 C2124 1.349 . S
C2125 C2141 1.349 . S
C2126 C2124 1.327 . S
C2126 C2145 1.429 . S
C2126 H2150 0.950 . S
C2127 C2144 1.574 . S
C2127 C2146 1.368 . S
C2127 H2151 0.949 . S
H2128 C2132 0.949 . S
C2129 C2130 1.349 . S
C2129 C2131 1.327 . S
C2129 H2152 0.950 . S
C2130 C2129 1.349 . S
C2130 C2142 1.349 . S
C2131 C2129 1.327 . S
C2131 C2147 1.429 . S
C2131 H2153 0.950 . S
C2132 H2128 0.949 . S
C2132 C2140 1.574 . S
C2132 C2148 1.368 . S
H2133 C2141 0.950 . S
H2134 C2139 0.950 . S
H2135 C2140 0.949 . S
H2136 C2142 0.950 . S
H2137 C2143 0.950 . S
H2138 C2144 0.949 . S
C2139 H2134 0.950 . S
C2139 C2141 1.327 . S
C2139 C2145 1.429 . S
C2140 C2132 1.574 . S
C2140 H2135 0.949 . S
C2140 C2146 1.368 . S
C2141 C2125 1.349 . S
C2141 H2133 0.950 . S
C2141 C2139 1.327 . S
C2142 C2130 1.349 . S
C2142 H2136 0.950 . S
C2142 C2143 1.327 . S
C2143 H2137 0.950 . S
C2143 C2142 1.327 . S
C2143 C2147 1.429 . S
C2144 C2127 1.574 . S
C2144 H2138 0.949 . S
C2144 C2148 1.368 . S
C2145 C2126 1.429 . S
C2145 C2139 1.429 . S
C2145 C2146 1.523 . S
C2146 C2127 1.368 . S
C2146 C2140 1.368 . S
C2146 C2145 1.523 . S
C2147 C2131 1.429 . S
C2147 C2143 1.429 . S
C2147 C2148 1.523 . S
C2148 C2132 1.368 . S
C2148 C2144 1.368 . S
C2148 C2147 1.523 . S
H2149 C2124 0.950 . S
H2150 C2126 0.950 . S
H2151 C2127 0.949 . S
H2152 C2129 0.950 . S
H2153 C2131 0.950 . S
C2154 C2155 1.349 . S
C2154 C2156 1.327 . S
C2154 H2179 0.950 . S
C2155 C2154 1.349 . S
C2155 C2171 1.349 . S
C2156 C2154 1.327 . S
C2156 C2175 1.429 . S
C2156 H2180 0.950 . S
C2157 C2174 1.574 . S
C2157 C2176 1.368 . S
C2157 H2181 0.949 . S
H2158 C2162 0.949 . S
C2159 C2160 1.349 . S
C2159 C2161 1.327 . S
C2159 H2182 0.950 . S
C2160 C2159 1.349 . S
C2160 C2172 1.349 . S
C2161 C2159 1.327 . S
C2161 C2177 1.429 . S
C2161 H2183 0.950 . S
C2162 H2158 0.949 . S
C2162 C2170 1.574 . S
C2162 C2178 1.368 . S
H2163 C2171 0.950 . S
H2164 C2169 0.950 . S
H2165 C2170 0.949 . S
H2166 C2172 0.950 . S
H2167 C2173 0.950 . S
H2168 C2174 0.949 . S
C2169 H2164 0.950 . S
C2169 C2171 1.327 . S
C2169 C2175 1.429 . S
C2170 C2162 1.574 . S
C2170 H2165 0.949 . S
C2170 C2176 1.368 . S
C2171 C2155 1.349 . S
C2171 H2163 0.950 . S
C2171 C2169 1.327 . S
C2172 C2160 1.349 . S
C2172 H2166 0.950 . S
C2172 C2173 1.327 . S
C2173 H2167 0.950 . S
C2173 C2172 1.327 . S
C2173 C2177 1.429 . S
C2174 C2157 1.574 . S
C2174 H2168 0.949 . S
C2174 C2178 1.368 . S
C2175 C2156 1.429 . S
C2175 C2169 1.429 . S
C2175 C2176 1.523 . S
C2176 C2157 1.368 . S
C2176 C2170 1.368 . S
C2176 C2175 1.523 . S
C2177 C2161 1.429 . S
C2177 C2173 1.429 . S
C2177 C2178 1.523 . S
C2178 C2162 1.368 . S
C2178 C2174 1.368 . S
C2178 C2177 1.523 . S
H2179 C2154 0.950 . S
H2180 C2156 0.950 . S
H2181 C2157 0.949 . S
H2182 C2159 0.950 . S
H2183 C2161 0.950 . S
C2184 C2185 1.349 . S
C2184 C2186 1.327 . S
C2184 H2209 0.950 . S
C2185 C2184 1.349 . S
C2185 C2201 1.349 . S
C2186 C2184 1.327 . S
C2186 C2205 1.429 . S
C2186 H2210 0.950 . S
C2187 C2204 1.574 . S
C2187 C2206 1.368 . S
C2187 H2211 0.949 . S
H2188 C2192 0.949 . S
C2189 C2190 1.349 . S
C2189 C2191 1.327 . S
C2189 H2212 0.950 . S
C2190 C2189 1.349 . S
C2190 C2202 1.349 . S
C2191 C2189 1.327 . S
C2191 C2207 1.429 . S
C2191 H2213 0.950 . S
C2192 H2188 0.949 . S
C2192 C2200 1.574 . S
C2192 C2208 1.368 . S
H2193 C2201 0.950 . S
H2194 C2199 0.950 . S
H2195 C2200 0.949 . S
H2196 C2202 0.950 . S
H2197 C2203 0.950 . S
H2198 C2204 0.949 . S
C2199 H2194 0.950 . S
C2199 C2201 1.327 . S
C2199 C2205 1.429 . S
C2200 C2192 1.574 . S
C2200 H2195 0.949 . S
C2200 C2206 1.368 . S
C2201 C2185 1.349 . S
C2201 H2193 0.950 . S
C2201 C2199 1.327 . S
C2202 C2190 1.349 . S
C2202 H2196 0.950 . S
C2202 C2203 1.327 . S
C2203 H2197 0.950 . S
C2203 C2202 1.327 . S
C2203 C2207 1.429 . S
C2204 C2187 1.574 . S
C2204 H2198 0.949 . S
C2204 C2208 1.368 . S
C2205 C2186 1.429 . S
C2205 C2199 1.429 . S
C2205 C2206 1.523 . S
C2206 C2187 1.368 . S
C2206 C2200 1.368 . S
C2206 C2205 1.523 . S
C2207 C2191 1.429 . S
C2207 C2203 1.429 . S
C2207 C2208 1.523 . S
C2208 C2192 1.368 . S
C2208 C2204 1.368 . S
C2208 C2207 1.523 . S
H2209 C2184 0.950 . S
H2210 C2186 0.950 . S
H2211 C2187 0.949 . S
H2212 C2189 0.950 . S
H2213 C2191 0.950 . S
C2214 C2215 1.349 . S
C2214 C2216 1.327 . S
C2214 H2239 0.950 . S
C2215 C2214 1.349 . S
C2215 C2231 1.349 . S
C2216 C2214 1.327 . S
C2216 C2235 1.429 . S
C2216 H2240 0.950 . S
C2217 C2234 1.574 . S
C2217 C2236 1.368 . S
C2217 H2241 0.949 . S
H2218 C2222 0.949 . S
C2219 C2220 1.349 . S
C2219 C2221 1.327 . S
C2219 H2242 0.950 . S
C2220 C2219 1.349 . S
C2220 C2232 1.349 . S
C2221 C2219 1.327 . S
C2221 C2237 1.429 . S
C2221 H2243 0.950 . S
C2222 H2218 0.949 . S
C2222 C2230 1.574 . S
C2222 C2238 1.368 . S
H2223 C2231 0.950 . S
H2224 C2229 0.950 . S
H2225 C2230 0.949 . S
H2226 C2232 0.950 . S
H2227 C2233 0.950 . S
H2228 C2234 0.949 . S
C2229 H2224 0.950 . S
C2229 C2231 1.327 . S
C2229 C2235 1.429 . S
C2230 C2222 1.574 . S
C2230 H2225 0.949 . S
C2230 C2236 1.368 . S
C2231 C2215 1.349 . S
C2231 H2223 0.950 . S
C2231 C2229 1.327 . S
C2232 C2220 1.349 . S
C2232 H2226 0.950 . S
C2232 C2233 1.327 . S
C2233 H2227 0.950 . S
C2233 C2232 1.327 . S
C2233 C2237 1.429 . S
C2234 C2217 1.574 . S
C2234 H2228 0.949 . S
C2234 C2238 1.368 . S
C2235 C2216 1.429 . S
C2235 C2229 1.429 . S
C2235 C2236 1.523 . S
C2236 C2217 1.368 . S
C2236 C2230 1.368 . S
C2236 C2235 1.523 . S
C2237 C2221 1.429 . S
C2237 C2233 1.429 . S
C2237 C2238 1.523 . S
C2238 C2222 1.368 . S
C2238 C2234 1.368 . S
C2238 C2237 1.523 . S
H2239 C2214 0.950 . S
H2240 C2216 0.950 . S
H2241 C2217 0.949 . S
H2242 C2219 0.950 . S
H2243 C2221 0.950 . S
C2244 C2245 1.349 . S
C2244 C2246 1.327 . S
C2244 H2269 0.950 . S
C2245 C2244 1.349 . S
C2245 C2261 1.349 . S
C2246 C2244 1.327 . S
C2246 C2265 1.429 . S
C2246 H2270 0.950 . S
C2247 C2264 1.574 . S
C2247 C2266 1.368 . S
C2247 H2271 0.949 . S
H2248 C2252 0.949 . S
C2249 C2250 1.349 . S
C2249 C2251 1.327 . S
C2249 H2272 0.950 . S
C2250 C2249 1.349 . S
C2250 C2262 1.349 . S
C2251 C2249 1.327 . S
C2251 C2267 1.429 . S
C2251 H2273 0.950 . S
C2252 H2248 0.949 . S
C2252 C2260 1.574 . S
C2252 C2268 1.368 . S
H2253 C2261 0.950 . S
H2254 C2259 0.950 . S
H2255 C2260 0.949 . S
H2256 C2262 0.950 . S
H2257 C2263 0.950 . S
H2258 C2264 0.949 . S
C2259 H2254 0.950 . S
C2259 C2261 1.327 . S
C2259 C2265 1.429 . S
C2260 C2252 1.574 . S
C2260 H2255 0.949 . S
C2260 C2266 1.368 . S
C2261 C2245 1.349 . S
C2261 H2253 0.950 . S
C2261 C2259 1.327 . S
C2262 C2250 1.349 . S
C2262 H2256 0.950 . S
C2262 C2263 1.327 . S
C2263 H2257 0.950 . S
C2263 C2262 1.327 . S
C2263 C2267 1.429 . S
C2264 C2247 1.574 . S
C2264 H2258 0.949 . S
C2264 C2268 1.368 . S
C2265 C2246 1.429 . S
C2265 C2259 1.429 . S
C2265 C2266 1.523 . S
C2266 C2247 1.368 . S
C2266 C2260 1.368 . S
C2266 C2265 1.523 . S
C2267 C2251 1.429 . S
C2267 C2263 1.429 . S
C2267 C2268 1.523 . S
C2268 C2252 1.368 . S
C2268 C2264 1.368 . S
C2268 C2267 1.523 . S
H2269 C2244 0.950 . S
H2270 C2246 0.950 . S
H2271 C2247 0.949 . S
H2272 C2249 0.950 . S
H2273 C2251 0.950 . S
C2274 C2275 1.349 . S
C2274 C2276 1.327 . S
C2274 H2299 0.950 . S
C2275 C2274 1.349 . S
C2275 C2291 1.349 . S
C2276 C2274 1.327 . S
C2276 C2295 1.429 . S
C2276 H2300 0.950 . S
C2277 C2294 1.574 . S
C2277 C2296 1.368 . S
C2277 H2301 0.949 . S
H2278 C2282 0.949 . S
C2279 C2280 1.349 . S
C2279 C2281 1.327 . S
C2279 H2302 0.950 . S
C2280 C2279 1.349 . S
C2280 C2292 1.349 . S
C2281 C2279 1.327 . S
C2281 C2297 1.429 . S
C2281 H2303 0.950 . S
C2282 H2278 0.949 . S
C2282 C2290 1.574 . S
C2282 C2298 1.368 . S
H2283 C2291 0.950 . S
H2284 C2289 0.950 . S
H2285 C2290 0.949 . S
H2286 C2292 0.950 . S
H2287 C2293 0.950 . S
H2288 C2294 0.949 . S
C2289 H2284 0.950 . S
C2289 C2291 1.327 . S
C2289 C2295 1.429 . S
C2290 C2282 1.574 . S
C2290 H2285 0.949 . S
C2290 C2296 1.368 . S
C2291 C2275 1.349 . S
C2291 H2283 0.950 . S
C2291 C2289 1.327 . S
C2292 C2280 1.349 . S
C2292 H2286 0.950 . S
C2292 C2293 1.327 . S
C2293 H2287 0.950 . S
C2293 C2292 1.327 . S
C2293 C2297 1.429 . S
C2294 C2277 1.574 . S
C2294 H2288 0.949 . S
C2294 C2298 1.368 . S
C2295 C2276 1.429 . S
C2295 C2289 1.429 . S
C2295 C2296 1.523 . S
C2296 C2277 1.368 . S
C2296 C2290 1.368 . S
C2296 C2295 1.523 . S
C2297 C2281 1.429 . S
C2297 C2293 1.429 . S
C2297 C2298 1.523 . S
C2298 C2282 1.368 . S
C2298 C2294 1.368 . S
C2298 C2297 1.523 . S
H2299 C2274 0.950 . S
H2300 C2276 0.950 . S
H2301 C2277 0.949 . S
H2302 C2279 0.950 . S
H2303 C2281 0.950 . S
C2304 C2305 1.349 . S
C2304 C2306 1.327 . S
C2304 H2329 0.950 . S
C2305 C2304 1.349 . S
C2305 C2321 1.349 . S
C2306 C2304 1.327 . S
C2306 C2325 1.429 . S
C2306 H2330 0.950 . S
C2307 C2324 1.574 . S
C2307 C2326 1.368 . S
C2307 H2331 0.949 . S
H2308 C2312 0.949 . S
C2309 C2310 1.349 . S
C2309 C2311 1.327 . S
C2309 H2332 0.950 . S
C2310 C2309 1.349 . S
C2310 C2322 1.349 . S
C2311 C2309 1.327 . S
C2311 C2327 1.429 . S
C2311 H2333 0.950 . S
C2312 H2308 0.949 . S
C2312 C2320 1.574 . S
C2312 C2328 1.368 . S
H2313 C2321 0.950 . S
H2314 C2319 0.950 . S
H2315 C2320 0.949 . S
H2316 C2322 0.950 . S
H2317 C2323 0.950 . S
H2318 C2324 0.949 . S
C2319 H2314 0.950 . S
C2319 C2321 1.327 . S
C2319 C2325 1.429 . S
C2320 C2312 1.574 . S
C2320 H2315 0.949 . S
C2320 C2326 1.368 . S
C2321 C2305 1.349 . S
C2321 H2313 0.950 . S
C2321 C2319 1.327 . S
C2322 C2310 1.349 . S
C2322 H2316 0.950 . S
C2322 C2323 1.327 . S
C2323 H2317 0.950 . S
C2323 C2322 1.327 . S
C2323 C2327 1.429 . S
C2324 C2307 1.574 . S
C2324 H2318 0.949 . S
C2324 C2328 1.368 . S
C2325 C2306 1.429 . S
C2325 C2319 1.429 . S
C2325 C2326 1.523 . S
C2326 C2307 1.368 . S
C2326 C2320 1.368 . S
C2326 C2325 1.523 . S
C2327 C2311 1.429 . S
C2327 C2323 1.429 . S
C2327 C2328 1.523 . S
C2328 C2312 1.368 . S
C2328 C2324 1.368 . S
C2328 C2327 1.523 . S
H2329 C2304 0.950 . S
H2330 C2306 0.950 . S
H2331 C2307 0.949 . S
H2332 C2309 0.950 . S
H2333 C2311 0.950 . S
C2334 C2335 1.349 . S
C2334 C2336 1.327 . S
C2334 H2359 0.950 . S
C2335 C2334 1.349 . S
C2335 C2351 1.349 . S
C2336 C2334 1.327 . S
C2336 C2355 1.429 . S
C2336 H2360 0.950 . S
C2337 C2354 1.574 . S
C2337 C2356 1.368 . S
C2337 H2361 0.949 . S
H2338 C2342 0.949 . S
C2339 C2340 1.349 . S
C2339 C2341 1.327 . S
C2339 H2362 0.950 . S
C2340 C2339 1.349 . S
C2340 C2352 1.349 . S
C2341 C2339 1.327 . S
C2341 C2357 1.429 . S
C2341 H2363 0.950 . S
C2342 H2338 0.949 . S
C2342 C2350 1.574 . S
C2342 C2358 1.368 . S
H2343 C2351 0.950 . S
H2344 C2349 0.950 . S
H2345 C2350 0.949 . S
H2346 C2352 0.950 . S
H2347 C2353 0.950 . S
H2348 C2354 0.949 . S
C2349 H2344 0.950 . S
C2349 C2351 1.327 . S
C2349 C2355 1.429 . S
C2350 C2342 1.574 . S
C2350 H2345 0.949 . S
C2350 C2356 1.368 . S
C2351 C2335 1.349 . S
C2351 H2343 0.950 . S
C2351 C2349 1.327 . S
C2352 C2340 1.349 . S
C2352 H2346 0.950 . S
C2352 C2353 1.327 . S
C2353 H2347 0.950 . S
C2353 C2352 1.327 . S
C2353 C2357 1.429 . S
C2354 C2337 1.574 . S
C2354 H2348 0.949 . S
C2354 C2358 1.368 . S
C2355 C2336 1.429 . S
C2355 C2349 1.429 . S
C2355 C2356 1.523 . S
C2356 C2337 1.368 . S
C2356 C2350 1.368 . S
C2356 C2355 1.523 . S
C2357 C2341 1.429 . S
C2357 C2353 1.429 . S
C2357 C2358 1.523 . S
C2358 C2342 1.368 . S
C2358 C2354 1.368 . S
C2358 C2357 1.523 . S
H2359 C2334 0.950 . S
H2360 C2336 0.950 . S
H2361 C2337 0.949 . S
H2362 C2339 0.950 . S
H2363 C2341 0.950 . S
C2364 C2365 1.349 . S
C2364 C2366 1.327 . S
C2364 H2389 0.950 . S
C2365 C2364 1.349 . S
C2365 C2381 1.349 . S
C2366 C2364 1.327 . S
C2366 C2385 1.429 . S
C2366 H2390 0.950 . S
C2367 C2384 1.574 . S
C2367 C2386 1.368 . S
C2367 H2391 0.949 . S
H2368 C2372 0.949 . S
C2369 C2370 1.349 . S
C2369 C2371 1.327 . S
C2369 H2392 0.950 . S
C2370 C2369 1.349 . S
C2370 C2382 1.349 . S
C2371 C2369 1.327 . S
C2371 C2387 1.429 . S
C2371 H2393 0.950 . S
C2372 H2368 0.949 . S
C2372 C2380 1.574 . S
C2372 C2388 1.368 . S
H2373 C2381 0.950 . S
H2374 C2379 0.950 . S
H2375 C2380 0.949 . S
H2376 C2382 0.950 . S
H2377 C2383 0.950 . S
H2378 C2384 0.949 . S
C2379 H2374 0.950 . S
C2379 C2381 1.327 . S
C2379 C2385 1.429 . S
C2380 C2372 1.574 . S
C2380 H2375 0.949 . S
C2380 C2386 1.368 . S
C2381 C2365 1.349 . S
C2381 H2373 0.950 . S
C2381 C2379 1.327 . S
C2382 C2370 1.349 . S
C2382 H2376 0.950 . S
C2382 C2383 1.327 . S
C2383 H2377 0.950 . S
C2383 C2382 1.327 . S
C2383 C2387 1.429 . S
C2384 C2367 1.574 . S
C2384 H2378 0.949 . S
C2384 C2388 1.368 . S
C2385 C2366 1.429 . S
C2385 C2379 1.429 . S
C2385 C2386 1.523 . S
C2386 C2367 1.368 . S
C2386 C2380 1.368 . S
C2386 C2385 1.523 . S
C2387 C2371 1.429 . S
C2387 C2383 1.429 . S
C2387 C2388 1.523 . S
C2388 C2372 1.368 . S
C2388 C2384 1.368 . S
C2388 C2387 1.523 . S
H2389 C2364 0.950 . S
H2390 C2366 0.950 . S
H2391 C2367 0.949 . S
H2392 C2369 0.950 . S
H2393 C2371 0.950 . S
C2394 C2395 1.349 . S
C2394 C2396 1.327 . S
C2394 H2419 0.950 . S
C2395 C2394 1.349 . S
C2395 C2411 1.349 . S
C2396 C2394 1.327 . S
C2396 C2415 1.429 . S
C2396 H2420 0.950 . S
C2397 C2414 1.574 . S
C2397 C2416 1.368 . S
C2397 H2421 0.949 . S
H2398 C2402 0.949 . S
C2399 C2400 1.349 . S
C2399 C2401 1.327 . S
C2399 H2422 0.950 . S
C2400 C2399 1.349 . S
C2400 C2412 1.349 . S
C2401 C2399 1.327 . S
C2401 C2417 1.429 . S
C2401 H2423 0.950 . S
C2402 H2398 0.949 . S
C2402 C2410 1.574 . S
C2402 C2418 1.368 . S
H2403 C2411 0.950 . S
H2404 C2409 0.950 . S
H2405 C2410 0.949 . S
H2406 C2412 0.950 . S
H2407 C2413 0.950 . S
H2408 C2414 0.949 . S
C2409 H2404 0.950 . S
C2409 C2411 1.327 . S
C2409 C2415 1.429 . S
C2410 C2402 1.574 . S
C2410 H2405 0.949 . S
C2410 C2416 1.368 . S
C2411 C2395 1.349 . S
C2411 H2403 0.950 . S
C2411 C2409 1.327 . S
C2412 C2400 1.349 . S
C2412 H2406 0.950 . S
C2412 C2413 1.327 . S
C2413 H2407 0.950 . S
C2413 C2412 1.327 . S
C2413 C2417 1.429 . S
C2414 C2397 1.574 . S
C2414 H2408 0.949 . S
C2414 C2418 1.368 . S
C2415 C2396 1.429 . S
C2415 C2409 1.429 . S
C2415 C2416 1.523 . S
C2416 C2397 1.368 . S
C2416 C2410 1.368 . S
C2416 C2415 1.523 . S
C2417 C2401 1.429 . S
C2417 C2413 1.429 . S
C2417 C2418 1.523 . S
C2418 C2402 1.368 . S
C2418 C2414 1.368 . S
C2418 C2417 1.523 . S
H2419 C2394 0.950 . S
H2420 C2396 0.950 . S
H2421 C2397 0.949 . S
H2422 C2399 0.950 . S
H2423 C2401 0.950 . S
C2424 C2425 1.349 . S
C2424 C2426 1.327 . S
C2424 H2449 0.950 . S
C2425 C2424 1.349 . S
C2425 C2441 1.349 . S
C2426 C2424 1.327 . S
C2426 C2445 1.429 . S
C2426 H2450 0.950 . S
C2427 C2444 1.574 . S
C2427 C2446 1.368 . S
C2427 H2451 0.949 . S
H2428 C2432 0.949 . S
C2429 C2430 1.349 . S
C2429 C2431 1.327 . S
C2429 H2452 0.950 . S
C2430 C2429 1.349 . S
C2430 C2442 1.349 . S
C2431 C2429 1.327 . S
C2431 C2447 1.429 . S
C2431 H2453 0.950 . S
C2432 H2428 0.949 . S
C2432 C2440 1.574 . S
C2432 C2448 1.368 . S
H2433 C2441 0.950 . S
H2434 C2439 0.950 . S
H2435 C2440 0.949 . S
H2436 C2442 0.950 . S
H2437 C2443 0.950 . S
H2438 C2444 0.949 . S
C2439 H2434 0.950 . S
C2439 C2441 1.327 . S
C2439 C2445 1.429 . S
C2440 C2432 1.574 . S
C2440 H2435 0.949 . S
C2440 C2446 1.368 . S
C2441 C2425 1.349 . S
C2441 H2433 0.950 . S
C2441 C2439 1.327 . S
C2442 C2430 1.349 . S
C2442 H2436 0.950 . S
C2442 C2443 1.327 . S
C2443 H2437 0.950 . S
C2443 C2442 1.327 . S
C2443 C2447 1.429 . S
C2444 C2427 1.574 . S
C2444 H2438 0.949 . S
C2444 C2448 1.368 . S
C2445 C2426 1.429 . S
C2445 C2439 1.429 . S
C2445 C2446 1.523 . S
C2446 C2427 1.368 . S
C2446 C2440 1.368 . S
C2446 C2445 1.523 . S
C2447 C2431 1.429 . S
C2447 C2443 1.429 . S
C2447 C2448 1.523 . S
C2448 C2432 1.368 . S
C2448 C2444 1.368 . S
C2448 C2447 1.523 . S
H2449 C2424 0.950 . S
H2450 C2426 0.950 . S
H2451 C2427 0.949 . S
H2452 C2429 0.950 . S
H2453 C2431 0.950 . S
C2454 C2455 1.349 . S
C2454 C2456 1.327 . S
C2454 H2479 0.950 . S
C2455 C2454 1.349 . S
C2455 C2471 1.349 . S
C2456 C2454 1.327 . S
C2456 C2475 1.429 . S
C2456 H2480 0.950 . S
C2457 C2474 1.574 . S
C2457 C2476 1.368 . S
C2457 H2481 0.949 . S
H2458 C2462 0.949 . S
C2459 C2460 1.349 . S
C2459 C2461 1.327 . S
C2459 H2482 0.950 . S
C2460 C2459 1.349 . S
C2460 C2472 1.349 . S
C2461 C2459 1.327 . S
C2461 C2477 1.429 . S
C2461 H2483 0.950 . S
C2462 H2458 0.949 . S
C2462 C2470 1.574 . S
C2462 C2478 1.368 . S
H2463 C2471 0.950 . S
H2464 C2469 0.950 . S
H2465 C2470 0.949 . S
H2466 C2472 0.950 . S
H2467 C2473 0.950 . S
H2468 C2474 0.949 . S
C2469 H2464 0.950 . S
C2469 C2471 1.327 . S
C2469 C2475 1.429 . S
C2470 C2462 1.574 . S
C2470 H2465 0.949 . S
C2470 C2476 1.368 . S
C2471 C2455 1.349 . S
C2471 H2463 0.950 . S
C2471 C2469 1.327 . S
C2472 C2460 1.349 . S
C2472 H2466 0.950 . S
C2472 C2473 1.327 . S
C2473 H2467 0.950 . S
C2473 C2472 1.327 . S
C2473 C2477 1.429 . S
C2474 C2457 1.574 . S
C2474 H2468 0.949 . S
C2474 C2478 1.368 . S
C2475 C2456 1.429 . S
C2475 C2469 1.429 . S
C2475 C2476 1.523 . S
C2476 C2457 1.368 . S
C2476 C2470 1.368 . S
C2476 C2475 1.523 . S
C2477 C2461 1.429 . S
C2477 C2473 1.429 . S
C2477 C2478 1.523 . S
C2478 C2462 1.368 . S
C2478 C2474 1.368 . S
C2478 C2477 1.523 . S
H2479 C2454 0.950 . S
H2480 C2456 0.950 . S
H2481 C2457 0.949 . S
H2482 C2459 0.950 . S
H2483 C2461 0.950 . S
C2484 C2485 1.349 . S
C2484 C2486 1.327 . S
C2484 H2509 0.950 . S
C2485 C2484 1.349 . S
C2485 C2501 1.349 . S
C2486 C2484 1.327 . S
C2486 C2505 1.429 . S
C2486 H2510 0.950 . S
C2487 C2504 1.574 . S
C2487 C2506 1.368 . S
C2487 H2511 0.949 . S
H2488 C2492 0.949 . S
C2489 C2490 1.349 . S
C2489 C2491 1.327 . S
C2489 H2512 0.950 . S
C2490 C2489 1.349 . S
C2490 C2502 1.349 . S
C2491 C2489 1.327 . S
C2491 C2507 1.429 . S
C2491 H2513 0.950 . S
C2492 H2488 0.949 . S
C2492 C2500 1.574 . S
C2492 C2508 1.368 . S
H2493 C2501 0.950 . S
H2494 C2499 0.950 . S
H2495 C2500 0.949 . S
H2496 C2502 0.950 . S
H2497 C2503 0.950 . S
H2498 C2504 0.949 . S
C2499 H2494 0.950 . S
C2499 C2501 1.327 . S
C2499 C2505 1.429 . S
C2500 C2492 1.574 . S
C2500 H2495 0.949 . S
C2500 C2506 1.368 . S
C2501 C2485 1.349 . S
C2501 H2493 0.950 . S
C2501 C2499 1.327 . S
C2502 C2490 1.349 . S
C2502 H2496 0.950 . S
C2502 C2503 1.327 . S
C2503 H2497 0.950 . S
C2503 C2502 1.327 . S
C2503 C2507 1.429 . S
C2504 C2487 1.574 . S
C2504 H2498 0.949 . S
C2504 C2508 1.368 . S
C2505 C2486 1.429 . S
C2505 C2499 1.429 . S
C2505 C2506 1.523 . S
C2506 C2487 1.368 . S
C2506 C2500 1.368 . S
C2506 C2505 1.523 . S
C2507 C2491 1.429 . S
C2507 C2503 1.429 . S
C2507 C2508 1.523 . S
C2508 C2492 1.368 . S
C2508 C2504 1.368 . S
C2508 C2507 1.523 . S
H2509 C2484 0.950 . S
H2510 C2486 0.950 . S
H2511 C2487 0.949 . S
H2512 C2489 0.950 . S
H2513 C2491 0.950 . S
C2514 C2515 1.349 . S
C2514 C2516 1.327 . S
C2514 H2539 0.950 . S
C2515 C2514 1.349 . S
C2515 C2531 1.349 . S
C2516 C2514 1.327 . S
C2516 C2535 1.429 . S
C2516 H2540 0.950 . S
C2517 C2534 1.574 . S
C2517 C2536 1.368 . S
C2517 H2541 0.949 . S
H2518 C2522 0.949 . S
C2519 C2520 1.349 . S
C2519 C2521 1.327 . S
C2519 H2542 0.950 . S
C2520 C2519 1.349 . S
C2520 C2532 1.349 . S
C2521 C2519 1.327 . S
C2521 C2537 1.429 . S
C2521 H2543 0.950 . S
C2522 H2518 0.949 . S
C2522 C2530 1.574 . S
C2522 C2538 1.368 . S
H2523 C2531 0.950 . S
H2524 C2529 0.950 . S
H2525 C2530 0.949 . S
H2526 C2532 0.950 . S
H2527 C2533 0.950 . S
H2528 C2534 0.949 . S
C2529 H2524 0.950 . S
C2529 C2531 1.327 . S
C2529 C2535 1.429 . S
C2530 C2522 1.574 . S
C2530 H2525 0.949 . S
C2530 C2536 1.368 . S
C2531 C2515 1.349 . S
C2531 H2523 0.950 . S
C2531 C2529 1.327 . S
C2532 C2520 1.349 . S
C2532 H2526 0.950 . S
C2532 C2533 1.327 . S
C2533 H2527 0.950 . S
C2533 C2532 1.327 . S
C2533 C2537 1.429 . S
C2534 C2517 1.574 . S
C2534 H2528 0.949 . S
C2534 C2538 1.368 . S
C2535 C2516 1.429 . S
C2535 C2529 1.429 . S
C2535 C2536 1.523 . S
C2536 C2517 1.368 . S
C2536 C2530 1.368 . S
C2536 C2535 1.523 . S
C2537 C2521 1.429 . S
C2537 C2533 1.429 . S
C2537 C2538 1.523 . S
C2538 C2522 1.368 . S
C2538 C2534 1.368 . S
C2538 C2537 1.523 . S
H2539 C2514 0.950 . S
H2540 C2516 0.950 . S
H2541 C2517 0.949 . S
H2542 C2519 0.950 . S
H2543 C2521 0.950 . S
C2544 C2545 1.349 . S
C2544 C2546 1.327 . S
C2544 H2569 0.950 . S
C2545 C2544 1.349 . S
C2545 C2561 1.349 . S
C2546 C2544 1.327 . S
C2546 C2565 1.429 . S
C2546 H2570 0.950 . S
C2547 C2564 1.574 . S
C2547 C2566 1.368 . S
C2547 H2571 0.949 . S
H2548 C2552 0.949 . S
C2549 C2550 1.349 . S
C2549 C2551 1.327 . S
C2549 H2572 0.950 . S
C2550 C2549 1.349 . S
C2550 C2562 1.349 . S
C2551 C2549 1.327 . S
C2551 C2567 1.429 . S
C2551 H2573 0.950 . S
C2552 H2548 0.949 . S
C2552 C2560 1.574 . S
C2552 C2568 1.368 . S
H2553 C2561 0.950 . S
H2554 C2559 0.950 . S
H2555 C2560 0.949 . S
H2556 C2562 0.950 . S
H2557 C2563 0.950 . S
H2558 C2564 0.949 . S
C2559 H2554 0.950 . S
C2559 C2561 1.327 . S
C2559 C2565 1.429 . S
C2560 C2552 1.574 . S
C2560 H2555 0.949 . S
C2560 C2566 1.368 . S
C2561 C2545 1.349 . S
C2561 H2553 0.950 . S
C2561 C2559 1.327 . S
C2562 C2550 1.349 . S
C2562 H2556 0.950 . S
C2562 C2563 1.327 . S
C2563 H2557 0.950 . S
C2563 C2562 1.327 . S
C2563 C2567 1.429 . S
C2564 C2547 1.574 . S
C2564 H2558 0.949 . S
C2564 C2568 1.368 . S
C2565 C2546 1.429 . S
C2565 C2559 1.429 . S
C2565 C2566 1.523 . S
C2566 C2547 1.368 . S
C2566 C2560 1.368 . S
C2566 C2565 1.523 . S
C2567 C2551 1.429 . S
C2567 C2563 1.429 . S
C2567 C2568 1.523 . S
C2568 C2552 1.368 . S
C2568 C2564 1.368 . S
C2568 C2567 1.523 . S
H2569 C2544 0.950 . S
H2570 C2546 0.950 . S
H2571 C2547 0.949 . S
H2572 C2549 0.950 . S
H2573 C2551 0.950 . S
C2574 C2575 1.349 . S
C2574 C2576 1.327 . S
C2574 H2599 0.950 . S
C2575 C2574 1.349 . S
C2575 C2591 1.349 . S
C2576 C2574 1.327 . S
C2576 C2595 1.429 . S
C2576 H2600 0.950 . S
C2577 C2594 1.574 . S
C2577 C2596 1.368 . S
C2577 H2601 0.949 . S
H2578 C2582 0.949 . S
C2579 C2580 1.349 . S
C2579 C2581 1.327 . S
C2579 H2602 0.950 . S
C2580 C2579 1.349 . S
C2580 C2592 1.349 . S
C2581 C2579 1.327 . S
C2581 C2597 1.429 . S
C2581 H2603 0.950 . S
C2582 H2578 0.949 . S
C2582 C2590 1.574 . S
C2582 C2598 1.368 . S
H2583 C2591 0.950 . S
H2584 C2589 0.950 . S
H2585 C2590 0.949 . S
H2586 C2592 0.950 . S
H2587 C2593 0.950 . S
H2588 C2594 0.949 . S
C2589 H2584 0.950 . S
C2589 C2591 1.327 . S
C2589 C2595 1.429 . S
C2590 C2582 1.574 . S
C2590 H2585 0.949 . S
C2590 C2596 1.368 . S
C2591 C2575 1.349 . S
C2591 H2583 0.950 . S
C2591 C2589 1.327 . S
C2592 C2580 1.349 . S
C2592 H2586 0.950 . S
C2592 C2593 1.327 . S
C2593 H2587 0.950 . S
C2593 C2592 1.327 . S
C2593 C2597 1.429 . S
C2594 C2577 1.574 . S
C2594 H2588 0.949 . S
C2594 C2598 1.368 . S
C2595 C2576 1.429 . S
C2595 C2589 1.429 . S
C2595 C2596 1.523 . S
C2596 C2577 1.368 . S
C2596 C2590 1.368 . S
C2596 C2595 1.523 . S
C2597 C2581 1.429 . S
C2597 C2593 1.429 . S
C2597 C2598 1.523 . S
C2598 C2582 1.368 . S
C2598 C2594 1.368 . S
C2598 C2597 1.523 . S
H2599 C2574 0.950 . S
H2600 C2576 0.950 . S
H2601 C2577 0.949 . S
H2602 C2579 0.950 . S
H2603 C2581 0.950 . S
C2604 C2605 1.349 . S
C2604 C2606 1.327 . S
C2604 H2629 0.950 . S
C2605 C2604 1.349 . S
C2605 C2621 1.349 . S
C2606 C2604 1.327 . S
C2606 C2625 1.429 . S
C2606 H2630 0.950 . S
C2607 C2624 1.574 . S
C2607 C2626 1.368 . S
C2607 H2631 0.949 . S
H2608 C2612 0.949 . S
C2609 C2610 1.349 . S
C2609 C2611 1.327 . S
C2609 H2632 0.950 . S
C2610 C2609 1.349 . S
C2610 C2622 1.349 . S
C2611 C2609 1.327 . S
C2611 C2627 1.429 . S
C2611 H2633 0.950 . S
C2612 H2608 0.949 . S
C2612 C2620 1.574 . S
C2612 C2628 1.368 . S
H2613 C2621 0.950 . S
H2614 C2619 0.950 . S
H2615 C2620 0.949 . S
H2616 C2622 0.950 . S
H2617 C2623 0.950 . S
H2618 C2624 0.949 . S
C2619 H2614 0.950 . S
C2619 C2621 1.327 . S
C2619 C2625 1.429 . S
C2620 C2612 1.574 . S
C2620 H2615 0.949 . S
C2620 C2626 1.368 . S
C2621 C2605 1.349 . S
C2621 H2613 0.950 . S
C2621 C2619 1.327 . S
C2622 C2610 1.349 . S
C2622 H2616 0.950 . S
C2622 C2623 1.327 . S
C2623 H2617 0.950 . S
C2623 C2622 1.327 . S
C2623 C2627 1.429 . S
C2624 C2607 1.574 . S
C2624 H2618 0.949 . S
C2624 C2628 1.368 . S
C2625 C2606 1.429 . S
C2625 C2619 1.429 . S
C2625 C2626 1.523 . S
C2626 C2607 1.368 . S
C2626 C2620 1.368 . S
C2626 C2625 1.523 . S
C2627 C2611 1.429 . S
C2627 C2623 1.429 . S
C2627 C2628 1.523 . S
C2628 C2612 1.368 . S
C2628 C2624 1.368 . S
C2628 C2627 1.523 . S
H2629 C2604 0.950 . S
H2630 C2606 0.950 . S
H2631 C2607 0.949 . S
H2632 C2609 0.950 . S
H2633 C2611 0.950 . S
C2634 C2635 1.349 . S
C2634 C2636 1.327 . S
C2634 H2659 0.950 . S
C2635 C2634 1.349 . S
C2635 C2651 1.349 . S
C2636 C2634 1.327 . S
C2636 C2655 1.429 . S
C2636 H2660 0.950 . S
C2637 C2654 1.574 . S
C2637 C2656 1.368 . S
C2637 H2661 0.949 . S
H2638 C2642 0.949 . S
C2639 C2640 1.349 . S
C2639 C2641 1.327 . S
C2639 H2662 0.950 . S
C2640 C2639 1.349 . S
C2640 C2652 1.349 . S
C2641 C2639 1.327 . S
C2641 C2657 1.429 . S
C2641 H2663 0.950 . S
C2642 H2638 0.949 . S
C2642 C2650 1.574 . S
C2642 C2658 1.368 . S
H2643 C2651 0.950 . S
H2644 C2649 0.950 . S
H2645 C2650 0.949 . S
H2646 C2652 0.950 . S
H2647 C2653 0.950 . S
H2648 C2654 0.949 . S
C2649 H2644 0.950 . S
C2649 C2651 1.327 . S
C2649 C2655 1.429 . S
C2650 C2642 1.574 . S
C2650 H2645 0.949 . S
C2650 C2656 1.368 . S
C2651 C2635 1.349 . S
C2651 H2643 0.950 . S
C2651 C2649 1.327 . S
C2652 C2640 1.349 . S
C2652 H2646 0.950 . S
C2652 C2653 1.327 . S
C2653 H2647 0.950 . S
C2653 C2652 1.327 . S
C2653 C2657 1.429 . S
C2654 C2637 1.574 . S
C2654 H2648 0.949 . S
C2654 C2658 1.368 . S
C2655 C2636 1.429 . S
C2655 C2649 1.429 . S
C2655 C2656 1.523 . S
C2656 C2637 1.368 . S
C2656 C2650 1.368 . S
C2656 C2655 1.523 . S
C2657 C2641 1.429 . S
C2657 C2653 1.429 . S
C2657 C2658 1.523 . S
C2658 C2642 1.368 . S
C2658 C2654 1.368 . S
C2658 C2657 1.523 . S
H2659 C2634 0.950 . S
H2660 C2636 0.950 . S
H2661 C2637 0.949 . S
H2662 C2639 0.950 . S
H2663 C2641 0.950 . S
C2664 C2665 1.349 . S
C2664 C2666 1.327 . S
C2664 H2689 0.950 . S
C2665 C2664 1.349 . S
C2665 C2681 1.349 . S
C2666 C2664 1.327 . S
C2666 C2685 1.429 . S
C2666 H2690 0.950 . S
C2667 C2684 1.574 . S
C2667 C2686 1.368 . S
C2667 H2691 0.949 . S
H2668 C2672 0.949 . S
C2669 C2670 1.349 . S
C2669 C2671 1.327 . S
C2669 H2692 0.950 . S
C2670 C2669 1.349 . S
C2670 C2682 1.349 . S
C2671 C2669 1.327 . S
C2671 C2687 1.429 . S
C2671 H2693 0.950 . S
C2672 H2668 0.949 . S
C2672 C2680 1.574 . S
C2672 C2688 1.368 . S
H2673 C2681 0.950 . S
H2674 C2679 0.950 . S
H2675 C2680 0.949 . S
H2676 C2682 0.950 . S
H2677 C2683 0.950 . S
H2678 C2684 0.949 . S
C2679 H2674 0.950 . S
C2679 C2681 1.327 . S
C2679 C2685 1.429 . S
C2680 C2672 1.574 . S
C2680 H2675 0.949 . S
C2680 C2686 1.368 . S
C2681 C2665 1.349 . S
C2681 H2673 0.950 . S
C2681 C2679 1.327 . S
C2682 C2670 1.349 . S
C2682 H2676 0.950 . S
C2682 C2683 1.327 . S
C2683 H2677 0.950 . S
C2683 C2682 1.327 . S
C2683 C2687 1.429 . S
C2684 C2667 1.574 . S
C2684 H2678 0.949 . S
C2684 C2688 1.368 . S
C2685 C2666 1.429 . S
C2685 C2679 1.429 . S
C2685 C2686 1.523 . S
C2686 C2667 1.368 . S
C2686 C2680 1.368 . S
C2686 C2685 1.523 . S
C2687 C2671 1.429 . S
C2687 C2683 1.429 . S
C2687 C2688 1.523 . S
C2688 C2672 1.368 . S
C2688 C2684 1.368 . S
C2688 C2687 1.523 . S
H2689 C2664 0.950 . S
H2690 C2666 0.950 . S
H2691 C2667 0.949 . S
H2692 C2669 0.950 . S
H2693 C2671 0.950 . S
C2694 C2695 1.349 . S
C2694 C2696 1.327 . S
C2694 H2719 0.950 . S
C2695 C2694 1.349 . S
C2695 C2711 1.349 . S
C2696 C2694 1.327 . S
C2696 C2715 1.429 . S
C2696 H2720 0.950 . S
C2697 C2714 1.574 . S
C2697 C2716 1.368 . S
C2697 H2721 0.949 . S
H2698 C2702 0.949 . S
C2699 C2700 1.349 . S
C2699 C2701 1.327 . S
C2699 H2722 0.950 . S
C2700 C2699 1.349 . S
C2700 C2712 1.349 . S
C2701 C2699 1.327 . S
C2701 C2717 1.429 . S
C2701 H2723 0.950 . S
C2702 H2698 0.949 . S
C2702 C2710 1.574 . S
C2702 C2718 1.368 . S
H2703 C2711 0.950 . S
H2704 C2709 0.950 . S
H2705 C2710 0.949 . S
H2706 C2712 0.950 . S
H2707 C2713 0.950 . S
H2708 C2714 0.949 . S
C2709 H2704 0.950 . S
C2709 C2711 1.327 . S
C2709 C2715 1.429 . S
C2710 C2702 1.574 . S
C2710 H2705 0.949 . S
C2710 C2716 1.368 . S
C2711 C2695 1.349 . S
C2711 H2703 0.950 . S
C2711 C2709 1.327 . S
C2712 C2700 1.349 . S
C2712 H2706 0.950 . S
C2712 C2713 1.327 . S
C2713 H2707 0.950 . S
C2713 C2712 1.327 . S
C2713 C2717 1.429 . S
C2714 C2697 1.574 . S
C2714 H2708 0.949 . S
C2714 C2718 1.368 . S
C2715 C2696 1.429 . S
C2715 C2709 1.429 . S
C2715 C2716 1.523 . S
C2716 C2697 1.368 . S
C2716 C2710 1.368 . S
C2716 C2715 1.523 . S
C2717 C2701 1.429 . S
C2717 C2713 1.429 . S
C2717 C2718 1.523 . S
C2718 C2702 1.368 . S
C2718 C2714 1.368 . S
C2718 C2717 1.523 . S
H2719 C2694 0.950 . S
H2720 C2696 0.950 . S
H2721 C2697 0.949 . S
H2722 C2699 0.950 . S
H2723 C2701 0.950 . S
C2724 C2725 1.349 . S
C2724 C2726 1.327 . S
C2724 H2749 0.950 . S
C2725 C2724 1.349 . S
C2725 C2741 1.349 . S
C2726 C2724 1.327 . S
C2726 C2745 1.429 . S
C2726 H2750 0.950 . S
C2727 C2744 1.574 . S
C2727 C2746 1.368 . S
C2727 H2751 0.949 . S
H2728 C2732 0.949 . S
C2729 C2730 1.349 . S
C2729 C2731 1.327 . S
C2729 H2752 0.950 . S
C2730 C2729 1.349 . S
C2730 C2742 1.349 . S
C2731 C2729 1.327 . S
C2731 C2747 1.429 . S
C2731 H2753 0.950 . S
C2732 H2728 0.949 . S
C2732 C2740 1.574 . S
C2732 C2748 1.368 . S
H2733 C2741 0.950 . S
H2734 C2739 0.950 . S
H2735 C2740 0.949 . S
H2736 C2742 0.950 . S
H2737 C2743 0.950 . S
H2738 C2744 0.949 . S
C2739 H2734 0.950 . S
C2739 C2741 1.327 . S
C2739 C2745 1.429 . S
C2740 C2732 1.574 . S
C2740 H2735 0.949 . S
C2740 C2746 1.368 . S
C2741 C2725 1.349 . S
C2741 H2733 0.950 . S
C2741 C2739 1.327 . S
C2742 C2730 1.349 . S
C2742 H2736 0.950 . S
C2742 C2743 1.327 . S
C2743 H2737 0.950 . S
C2743 C2742 1.327 . S
C2743 C2747 1.429 . S
C2744 C2727 1.574 . S
C2744 H2738 0.949 . S
C2744 C2748 1.368 . S
C2745 C2726 1.429 . S
C2745 C2739 1.429 . S
C2745 C2746 1.523 . S
C2746 C2727 1.368 . S
C2746 C2740 1.368 . S
C2746 C2745 1.523 . S
C2747 C2731 1.429 . S
C2747 C2743 1.429 . S
C2747 C2748 1.523 . S
C2748 C2732 1.368 . S
C2748 C2744 1.368 . S
C2748 C2747 1.523 . S
H2749 C2724 0.950 . S
H2750 C2726 0.950 . S
H2751 C2727 0.949 . S
H2752 C2729 0.950 . S
H2753 C2731 0.950 . S
C2754 C2755 1.349 . S
C2754 C2756 1.327 . S
C2754 H2779 0.950 . S
C2755 C2754 1.349 . S
C2755 C2771 1.349 1_554 S
C2756 C2754 1.327 . S
C2756 C2775 1.429 1_554 S
C2756 H2780 0.950 . S
C2757 C2774 1.574 . S
C2757 C2776 1.368 . S
C2757 H2781 0.949 . S
H2758 C2762 0.949 . S
C2759 C2760 1.349 . S
C2759 C2761 1.327 . S
C2759 H2782 0.950 . S
C2760 C2759 1.349 . S
C2760 C2772 1.349 . S
C2761 C2759 1.327 . S
C2761 C2777 1.429 . S
C2761 H2783 0.950 . S
C2762 H2758 0.949 . S
C2762 C2770 1.574 . S
C2762 C2778 1.368 . S
H2763 C2771 0.950 . S
H2764 C2769 0.950 . S
H2765 C2770 0.931 1_554 S
H2766 C2772 0.950 . S
H2767 C2773 0.950 . S
H2768 C2774 0.949 . S
C2769 H2764 0.950 . S
C2769 C2771 1.327 . S
C2769 C2775 1.429 . S
C2770 C2762 1.574 . S
C2770 H2765 0.931 1_556 S
C2770 C2776 1.368 . S
C2771 C2755 1.349 1_556 S
C2771 H2763 0.950 . S
C2771 C2769 1.327 . S
C2772 C2760 1.349 . S
C2772 H2766 0.950 . S
C2772 C2773 1.327 . S
C2773 H2767 0.950 . S
C2773 C2772 1.327 . S
C2773 C2777 1.429 . S
C2774 C2757 1.574 . S
C2774 H2768 0.949 . S
C2774 C2778 1.368 . S
C2775 C2756 1.429 1_556 S
C2775 C2769 1.429 . S
C2775 C2776 1.523 . S
C2776 C2757 1.368 . S
C2776 C2770 1.368 . S
C2776 C2775 1.523 . S
C2777 C2761 1.429 . S
C2777 C2773 1.429 . S
C2777 C2778 1.523 . S
C2778 C2762 1.368 . S
C2778 C2774 1.368 . S
C2778 C2777 1.523 . S
H2779 C2754 0.950 . S
H2780 C2756 0.950 . S
H2781 C2757 0.949 . S
H2782 C2759 0.950 . S
H2783 C2761 0.950 . S
C2784 C2785 1.362 . S
C2784 C2786 1.352 . S
C2784 H2809 0.914 1_556 S
C2785 C2784 1.362 . S
C2785 C2801 1.349 . S
C2786 C2784 1.352 . S
C2786 C2805 1.429 . S
C2786 H2810 0.950 . S
C2787 C2804 1.574 . S
C2787 C2806 1.368 . S
C2787 H2811 0.949 . S
H2788 C2792 0.949 . S
C2789 C2790 1.349 . S
C2789 C2791 1.327 . S
C2789 H2812 0.950 . S
C2790 C2789 1.349 . S
C2790 C2802 1.349 . S
C2791 C2789 1.327 . S
C2791 C2807 1.429 . S
C2791 H2813 0.950 . S
C2792 H2788 0.949 . S
C2792 C2800 1.574 . S
C2792 C2808 1.368 . S
H2793 C2801 0.950 . S
H2794 C2799 0.950 . S
H2795 C2800 0.949 . S
H2796 C2802 0.950 . S
H2797 C2803 0.950 . S
H2798 C2804 0.949 . S
C2799 H2794 0.950 . S
C2799 C2801 1.327 . S
C2799 C2805 1.429 . S
C2800 C2792 1.574 . S
C2800 H2795 0.949 . S
C2800 C2806 1.368 . S
C2801 C2785 1.349 . S
C2801 H2793 0.950 . S
C2801 C2799 1.327 . S
C2802 C2790 1.349 . S
C2802 H2796 0.950 . S
C2802 C2803 1.327 . S
C2803 H2797 0.950 . S
C2803 C2802 1.327 . S
C2803 C2807 1.429 . S
C2804 C2787 1.574 . S
C2804 H2798 0.949 . S
C2804 C2808 1.368 . S
C2805 C2786 1.429 . S
C2805 C2799 1.429 . S
C2805 C2806 1.523 . S
C2806 C2787 1.368 . S
C2806 C2800 1.368 . S
C2806 C2805 1.523 . S
C2807 C2791 1.429 . S
C2807 C2803 1.429 . S
C2807 C2808 1.523 . S
C2808 C2792 1.368 . S
C2808 C2804 1.368 . S
C2808 C2807 1.523 . S
H2809 C2784 0.914 1_554 S
H2810 C2786 0.950 . S
H2811 C2787 0.949 . S
H2812 C2789 0.950 . S
H2813 C2791 0.950 . S
C2814 C2815 1.349 . S
C2814 C2816 1.327 . S
C2814 H2839 0.950 . S
C2815 C2814 1.349 . S
C2815 C2831 1.349 . S
C2816 C2814 1.327 . S
C2816 C2835 1.429 . S
C2816 H2840 0.950 . S
C2817 C2834 1.574 . S
C2817 C2836 1.368 1_556 S
C2817 H2841 0.949 . S
H2818 C2822 0.949 . S
C2819 C2820 1.349 . S
C2819 C2821 1.327 . S
C2819 H2842 0.950 . S
C2820 C2819 1.349 . S
C2820 C2832 1.349 . S
C2821 C2819 1.327 . S
C2821 C2837 1.429 . S
C2821 H2843 0.950 . S
C2822 H2818 0.949 . S
C2822 C2830 1.574 . S
C2822 C2838 1.368 1_554 S
H2823 C2831 0.950 . S
H2824 C2829 0.994 . S
H2825 C2830 0.949 . S
H2826 C2832 0.950 . S
H2827 C2833 0.950 . S
H2828 C2834 0.949 . S
C2829 H2824 0.994 . S
C2829 C2831 1.327 . S
C2829 C2835 1.429 . S
C2830 C2822 1.574 . S
C2830 H2825 0.949 . S
C2830 C2836 1.368 . S
C2831 C2815 1.349 . S
C2831 H2823 0.950 . S
C2831 C2829 1.327 . S
C2832 C2820 1.349 . S
C2832 H2826 0.950 . S
C2832 C2833 1.327 . S
C2833 H2827 0.950 . S
C2833 C2832 1.327 . S
C2833 C2837 1.429 . S
C2834 C2817 1.574 . S
C2834 H2828 0.949 . S
C2834 C2838 1.368 . S
C2835 C2816 1.429 . S
C2835 C2829 1.429 . S
C2835 C2836 1.523 . S
C2836 C2817 1.368 1_554 S
C2836 C2830 1.368 . S
C2836 C2835 1.523 . S
C2837 C2821 1.429 . S
C2837 C2833 1.429 . S
C2837 C2838 1.523 . S
C2838 C2822 1.368 1_556 S
C2838 C2834 1.368 . S
C2838 C2837 1.523 . S
H2839 C2814 0.950 . S
H2840 C2816 0.950 . S
H2841 C2817 0.949 . S
H2842 C2819 0.950 . S
H2843 C2821 0.950 . S
C2844 C2845 1.349 1_556 S
C2844 C2846 1.327 . S
C2844 H2869 0.950 . S
C2845 C2844 1.349 1_554 S
C2845 C2861 1.349 . S
C2846 C2844 1.327 . S
C2846 C2865 1.429 . S
C2846 H2870 0.950 . S
C2847 C2864 1.574 . S
C2847 C2866 1.368 . S
C2847 H2871 0.972 . S
H2848 C2852 0.949 . S
C2849 C2850 1.349 . S
C2849 C2851 1.327 . S
C2849 H2872 0.950 . S
C2850 C2849 1.349 . S
C2850 C2862 1.349 . S
C2851 C2849 1.327 . S
C2851 C2867 1.429 . S
C2851 H2873 0.950 . S
C2852 H2848 0.949 . S
C2852 C2860 1.574 . S
C2852 C2868 1.368 . S
H2853 C2861 0.950 . S
H2854 C2859 0.950 . S
H2855 C2860 0.949 . S
H2856 C2862 0.950 . S
H2857 C2863 0.950 . S
H2858 C2864 0.949 . S
C2859 H2854 0.950 . S
C2859 C2861 1.327 . S
C2859 C2865 1.429 1_554 S
C2860 C2852 1.574 . S
C2860 H2855 0.949 . S
C2860 C2866 1.368 . S
C2861 C2845 1.349 . S
C2861 H2853 0.950 . S
C2861 C2859 1.327 . S
C2862 C2850 1.349 . S
C2862 H2856 0.950 . S
C2862 C2863 1.327 . S
C2863 H2857 0.950 . S
C2863 C2862 1.327 . S
C2863 C2867 1.429 . S
C2864 C2847 1.574 . S
C2864 H2858 0.949 . S
C2864 C2868 1.368 . S
C2865 C2846 1.429 . S
C2865 C2859 1.429 1_556 S
C2865 C2866 1.523 . S
C2866 C2847 1.368 . S
C2866 C2860 1.368 . S
C2866 C2865 1.523 . S
C2867 C2851 1.429 . S
C2867 C2863 1.429 . S
C2867 C2868 1.523 . S
C2868 C2852 1.368 . S
C2868 C2864 1.368 . S
C2868 C2867 1.523 . S
H2869 C2844 0.950 . S
H2870 C2846 0.950 . S
H2871 C2847 0.972 . S
H2872 C2849 0.950 . S
H2873 C2851 0.950 . S
C2874 C2875 1.349 . S
C2874 C2876 1.327 . S
C2874 H2899 0.950 . S
C2875 C2874 1.349 . S
C2875 C2891 1.349 . S
C2876 C2874 1.327 . S
C2876 C2895 1.429 . S
C2876 H2900 0.950 . S
C2877 C2894 1.574 . S
C2877 C2896 1.368 . S
C2877 H2901 0.949 . S
H2878 C2882 0.949 . S
C2879 C2880 1.349 . S
C2879 C2881 1.327 . S
C2879 H2902 0.950 . S
C2880 C2879 1.349 . S
C2880 C2892 1.349 . S
C2881 C2879 1.327 . S
C2881 C2897 1.429 . S
C2881 H2903 0.950 . S
C2882 H2878 0.949 . S
C2882 C2890 1.574 . S
C2882 C2898 1.368 . S
H2883 C2891 0.950 . S
H2884 C2889 0.950 . S
H2885 C2890 0.949 . S
H2886 C2892 0.950 . S
H2887 C2893 0.950 . S
H2888 C2894 0.949 . S
C2889 H2884 0.950 . S
C2889 C2891 1.327 . S
C2889 C2895 1.429 . S
C2890 C2882 1.574 . S
C2890 H2885 0.949 . S
C2890 C2896 1.368 . S
C2891 C2875 1.349 . S
C2891 H2883 0.950 . S
C2891 C2889 1.327 . S
C2892 C2880 1.349 . S
C2892 H2886 0.950 . S
C2892 C2893 1.327 . S
C2893 H2887 0.950 . S
C2893 C2892 1.327 . S
C2893 C2897 1.429 . S
C2894 C2877 1.574 . S
C2894 H2888 0.949 . S
C2894 C2898 1.368 . S
C2895 C2876 1.429 . S
C2895 C2889 1.429 . S
C2895 C2896 1.523 . S
C2896 C2877 1.368 . S
C2896 C2890 1.368 . S
C2896 C2895 1.523 . S
C2897 C2881 1.429 . S
C2897 C2893 1.429 . S
C2897 C2898 1.523 . S
C2898 C2882 1.368 . S
C2898 C2894 1.368 . S
C2898 C2897 1.523 . S
H2899 C2874 0.950 . S
H2900 C2876 0.950 . S
H2901 C2877 0.949 . S
H2902 C2879 0.950 . S
H2903 C2881 0.950 . S
C2904 C2905 1.349 . S
C2904 C2906 1.327 1_554 S
C2904 H2929 0.950 1_554 S
C2905 C2904 1.349 . S
C2905 C2921 1.349 . S
C2906 C2904 1.327 1_556 S
C2906 C2925 1.429 1_556 S
C2906 H2930 0.950 . S
C2907 C2924 1.574 1_554 S
C2907 C2926 1.368 1_554 S
C2907 H2931 0.949 . S
H2908 C2912 0.949 . S
C2909 C2910 1.349 . S
C2909 C2911 1.327 . S
C2909 H2932 0.950 . S
C2910 C2909 1.349 . S
C2910 C2922 1.349 . S
C2911 C2909 1.327 . S
C2911 C2927 1.429 . S
C2911 H2933 0.950 . S
C2912 H2908 0.949 . S
C2912 C2920 1.574 . S
C2912 C2928 1.368 . S
H2913 C2921 0.950 . S
H2914 C2919 0.950 . S
H2915 C2920 0.949 . S
H2916 C2922 0.950 . S
H2917 C2923 0.950 . S
H2918 C2924 0.949 . S
C2919 H2914 0.950 . S
C2919 C2921 1.327 . S
C2919 C2925 1.429 . S
C2920 C2912 1.574 . S
C2920 H2915 0.949 . S
C2920 C2926 1.368 . S
C2921 C2905 1.349 . S
C2921 H2913 0.950 . S
C2921 C2919 1.327 . S
C2922 C2910 1.349 . S
C2922 H2916 0.950 . S
C2922 C2923 1.327 . S
C2923 H2917 0.950 . S
C2923 C2922 1.327 . S
C2923 C2927 1.429 . S
C2924 C2907 1.574 1_556 S
C2924 H2918 0.949 . S
C2924 C2928 1.368 . S
C2925 C2906 1.429 1_554 S
C2925 C2919 1.429 . S
C2925 C2926 1.523 1_554 S
C2926 C2907 1.368 1_556 S
C2926 C2920 1.368 . S
C2926 C2925 1.523 1_556 S
C2927 C2911 1.429 . S
C2927 C2923 1.429 . S
C2927 C2928 1.523 . S
C2928 C2912 1.368 . S
C2928 C2924 1.368 . S
C2928 C2927 1.523 . S
H2929 C2904 0.950 1_556 S
H2930 C2906 0.950 . S
H2931 C2907 0.949 . S
H2932 C2909 0.950 . S
H2933 C2911 0.950 . S
C2934 C2935 1.349 . S
C2934 C2936 1.327 . S
C2934 H2959 0.950 . S
C2935 C2934 1.349 . S
C2935 C2951 1.349 . S
C2936 C2934 1.327 . S
C2936 C2955 1.429 . S
C2936 H2960 0.950 . S
C2937 C2954 1.574 . S
C2937 C2956 1.368 . S
C2937 H2961 0.949 . S
H2938 C2942 0.949 . S
C2939 C2940 1.349 . S
C2939 C2941 1.327 . S
C2939 H2962 0.950 . S
C2940 C2939 1.349 . S
C2940 C2952 1.349 . S
C2941 C2939 1.327 . S
C2941 C2957 1.429 . S
C2941 H2963 0.950 . S
C2942 H2938 0.949 . S
C2942 C2950 1.574 . S
C2942 C2958 1.368 . S
H2943 C2951 0.950 . S
H2944 C2949 0.950 . S
H2945 C2950 0.949 . S
H2946 C2952 0.950 . S
H2947 C2953 0.950 . S
H2948 C2954 0.949 . S
C2949 H2944 0.950 . S
C2949 C2951 1.327 . S
C2949 C2955 1.429 . S
C2950 C2942 1.574 . S
C2950 H2945 0.949 . S
C2950 C2956 1.368 . S
C2951 C2935 1.349 . S
C2951 H2943 0.950 . S
C2951 C2949 1.327 . S
C2952 C2940 1.349 . S
C2952 H2946 0.950 . S
C2952 C2953 1.327 . S
C2953 H2947 0.950 . S
C2953 C2952 1.327 . S
C2953 C2957 1.429 . S
C2954 C2937 1.574 . S
C2954 H2948 0.949 . S
C2954 C2958 1.368 . S
C2955 C2936 1.429 . S
C2955 C2949 1.429 . S
C2955 C2956 1.523 . S
C2956 C2937 1.368 . S
C2956 C2950 1.368 . S
C2956 C2955 1.523 . S
C2957 C2941 1.429 . S
C2957 C2953 1.429 . S
C2957 C2958 1.523 . S
C2958 C2942 1.368 . S
C2958 C2954 1.368 . S
C2958 C2957 1.523 . S
H2959 C2934 0.950 . S
H2960 C2936 0.950 . S
H2961 C2937 0.949 . S
H2962 C2939 0.950 . S
H2963 C2941 0.950 . S
C2964 C2965 1.349 . S
C2964 C2966 1.327 . S
C2964 H2989 0.950 . S
C2965 C2964 1.349 . S
C2965 C2981 1.349 . S
C2966 C2964 1.327 . S
C2966 C2985 1.429 . S
C2966 H2990 0.950 . S
C2967 C2984 1.574 . S
C2967 C2986 1.368 . S
C2967 H2991 0.949 . S
H2968 C2972 0.949 . S
C2969 C2970 1.349 . S
C2969 C2971 1.327 . S
C2969 H2992 0.950 . S
C2970 C2969 1.349 . S
C2970 C2982 1.349 . S
C2971 C2969 1.327 . S
C2971 C2987 1.429 . S
C2971 H2993 0.950 . S
C2972 H2968 0.949 . S
C2972 C2980 1.574 . S
C2972 C2988 1.368 . S
H2973 C2981 0.950 . S
H2974 C2979 0.950 . S
H2975 C2980 0.949 . S
H2976 C2982 0.950 . S
H2977 C2983 0.950 . S
H2978 C2984 0.949 . S
C2979 H2974 0.950 . S
C2979 C2981 1.327 . S
C2979 C2985 1.429 . S
C2980 C2972 1.574 . S
C2980 H2975 0.949 . S
C2980 C2986 1.368 . S
C2981 C2965 1.349 . S
C2981 H2973 0.950 . S
C2981 C2979 1.327 . S
C2982 C2970 1.349 . S
C2982 H2976 0.950 . S
C2982 C2983 1.327 . S
C2983 H2977 0.950 . S
C2983 C2982 1.327 . S
C2983 C2987 1.429 . S
C2984 C2967 1.574 . S
C2984 H2978 0.949 . S
C2984 C2988 1.368 . S
C2985 C2966 1.429 . S
C2985 C2979 1.429 . S
C2985 C2986 1.523 . S
C2986 C2967 1.368 . S
C2986 C2980 1.368 . S
C2986 C2985 1.523 . S
C2987 C2971 1.429 . S
C2987 C2983 1.429 . S
C2987 C2988 1.523 . S
C2988 C2972 1.368 . S
C2988 C2984 1.368 . S
C2988 C2987 1.523 . S
H2989 C2964 0.950 . S
H2990 C2966 0.950 . S
H2991 C2967 0.949 . S
H2992 C2969 0.950 . S
H2993 C2971 0.950 . S
C2994 C2995 1.349 . S
C2994 C2996 1.327 . S
C2994 H3019 0.950 . S
C2995 C2994 1.349 . S
C2995 C3011 1.349 . S
C2996 C2994 1.327 . S
C2996 C3015 1.429 . S
C2996 H3020 0.950 . S
C2997 C3014 1.574 . S
C2997 C3016 1.368 . S
C2997 H3021 0.949 . S
H2998 C3002 0.949 . S
C2999 C3000 1.349 . S
C2999 C3001 1.327 . S
C2999 H3022 0.950 . S
C3000 C2999 1.349 . S
C3000 C3012 1.349 . S
C3001 C2999 1.327 . S
C3001 C3017 1.429 . S
C3001 H3023 0.950 . S
C3002 H2998 0.949 . S
C3002 C3010 1.574 . S
C3002 C3018 1.368 . S
H3003 C3011 0.950 . S
H3004 C3009 0.950 . S
H3005 C3010 0.949 . S
H3006 C3012 0.950 . S
H3007 C3013 0.950 . S
H3008 C3014 0.949 . S
C3009 H3004 0.950 . S
C3009 C3011 1.327 . S
C3009 C3015 1.429 . S
C3010 C3002 1.574 . S
C3010 H3005 0.949 . S
C3010 C3016 1.368 . S
C3011 C2995 1.349 . S
C3011 H3003 0.950 . S
C3011 C3009 1.327 . S
C3012 C3000 1.349 . S
C3012 H3006 0.950 . S
C3012 C3013 1.327 . S
C3013 H3007 0.950 . S
C3013 C3012 1.327 . S
C3013 C3017 1.429 . S
C3014 C2997 1.574 . S
C3014 H3008 0.949 . S
C3014 C3018 1.368 . S
C3015 C2996 1.429 . S
C3015 C3009 1.429 . S
C3015 C3016 1.523 . S
C3016 C2997 1.368 . S
C3016 C3010 1.368 . S
C3016 C3015 1.523 . S
C3017 C3001 1.429 . S
C3017 C3013 1.429 . S
C3017 C3018 1.523 . S
C3018 C3002 1.368 . S
C3018 C3014 1.368 . S
C3018 C3017 1.523 . S
H3019 C2994 0.950 . S
H3020 C2996 0.950 . S
H3021 C2997 0.949 . S
H3022 C2999 0.950 . S
H3023 C3001 0.950 . S
C3024 C3025 1.349 . S
C3024 C3026 1.327 . S
C3024 H3049 0.950 . S
C3025 C3024 1.349 . S
C3025 C3041 1.349 . S
C3026 C3024 1.327 . S
C3026 C3045 1.429 . S
C3026 H3050 0.950 . S
C3027 C3044 1.574 . S
C3027 C3046 1.368 . S
C3027 H3051 0.949 . S
H3028 C3032 0.949 . S
C3029 C3030 1.349 . S
C3029 C3031 1.327 . S
C3029 H3052 0.950 . S
C3030 C3029 1.349 . S
C3030 C3042 1.349 . S
C3031 C3029 1.327 . S
C3031 C3047 1.429 . S
C3031 H3053 0.950 . S
C3032 H3028 0.949 . S
C3032 C3040 1.574 . S
C3032 C3048 1.368 . S
H3033 C3041 0.950 . S
H3034 C3039 0.950 . S
H3035 C3040 0.949 . S
H3036 C3042 0.950 . S
H3037 C3043 0.950 . S
H3038 C3044 0.949 . S
C3039 H3034 0.950 . S
C3039 C3041 1.327 . S
C3039 C3045 1.429 . S
C3040 C3032 1.574 . S
C3040 H3035 0.949 . S
C3040 C3046 1.368 . S
C3041 C3025 1.349 . S
C3041 H3033 0.950 . S
C3041 C3039 1.327 . S
C3042 C3030 1.349 . S
C3042 H3036 0.950 . S
C3042 C3043 1.327 . S
C3043 H3037 0.950 . S
C3043 C3042 1.327 . S
C3043 C3047 1.429 . S
C3044 C3027 1.574 . S
C3044 H3038 0.949 . S
C3044 C3048 1.368 . S
C3045 C3026 1.429 . S
C3045 C3039 1.429 . S
C3045 C3046 1.523 . S
C3046 C3027 1.368 . S
C3046 C3040 1.368 . S
C3046 C3045 1.523 . S
C3047 C3031 1.429 . S
C3047 C3043 1.429 . S
C3047 C3048 1.523 . S
C3048 C3032 1.368 . S
C3048 C3044 1.368 . S
C3048 C3047 1.523 . S
H3049 C3024 0.950 . S
H3050 C3026 0.950 . S
H3051 C3027 0.949 . S
H3052 C3029 0.950 . S
H3053 C3031 0.950 . S
C3054 C3055 1.349 . S
C3054 C3056 1.327 . S
C3054 H3079 0.950 . S
C3055 C3054 1.349 . S
C3055 C3071 1.349 . S
C3056 C3054 1.327 . S
C3056 C3075 1.429 . S
C3056 H3080 0.950 . S
C3057 C3074 1.574 . S
C3057 C3076 1.368 . S
C3057 H3081 0.949 . S
H3058 C3062 0.949 . S
C3059 C3060 1.349 . S
C3059 C3061 1.327 . S
C3059 H3082 0.950 . S
C3060 C3059 1.349 . S
C3060 C3072 1.349 . S
C3061 C3059 1.327 . S
C3061 C3077 1.429 . S
C3061 H3083 0.950 . S
C3062 H3058 0.949 . S
C3062 C3070 1.574 . S
C3062 C3078 1.368 . S
H3063 C3071 0.950 . S
H3064 C3069 0.950 . S
H3065 C3070 0.949 . S
H3066 C3072 0.950 . S
H3067 C3073 0.950 . S
H3068 C3074 0.949 . S
C3069 H3064 0.950 . S
C3069 C3071 1.327 . S
C3069 C3075 1.429 . S
C3070 C3062 1.574 . S
C3070 H3065 0.949 . S
C3070 C3076 1.368 . S
C3071 C3055 1.349 . S
C3071 H3063 0.950 . S
C3071 C3069 1.327 . S
C3072 C3060 1.349 . S
C3072 H3066 0.950 . S
C3072 C3073 1.327 . S
C3073 H3067 0.950 . S
C3073 C3072 1.327 . S
C3073 C3077 1.429 . S
C3074 C3057 1.574 . S
C3074 H3068 0.949 . S
C3074 C3078 1.368 . S
C3075 C3056 1.429 . S
C3075 C3069 1.429 . S
C3075 C3076 1.523 . S
C3076 C3057 1.368 . S
C3076 C3070 1.368 . S
C3076 C3075 1.523 . S
C3077 C3061 1.429 . S
C3077 C3073 1.429 . S
C3077 C3078 1.523 . S
C3078 C3062 1.368 . S
C3078 C3074 1.368 . S
C3078 C3077 1.523 . S
H3079 C3054 0.950 . S
H3080 C3056 0.950 . S
H3081 C3057 0.949 . S
H3082 C3059 0.950 . S
H3083 C3061 0.950 . S
C3084 C3085 1.349 1_655 S
C3084 C3086 1.327 . S
C3084 H3109 0.950 . S
C3085 C3084 1.349 1_455 S
C3085 C3101 1.349 . S
C3086 C3084 1.327 . S
C3086 C3105 1.429 . S
C3086 H3110 0.950 . S
C3087 C3104 1.574 . S
C3087 C3106 1.368 . S
C3087 H3111 0.949 . S
H3088 C3092 0.949 . S
C3089 C3090 1.349 . S
C3089 C3091 1.327 . S
C3089 H3112 0.950 . S
C3090 C3089 1.349 . S
C3090 C3102 1.349 . S
C3091 C3089 1.327 . S
C3091 C3107 1.429 . S
C3091 H3113 0.950 . S
C3092 H3088 0.949 . S
C3092 C3100 1.574 . S
C3092 C3108 1.368 . S
H3093 C3101 0.950 . S
H3094 C3099 0.950 . S
H3095 C3100 0.949 . S
H3096 C3102 0.950 . S
H3097 C3103 0.950 . S
H3098 C3104 0.949 . S
C3099 H3094 0.950 . S
C3099 C3101 1.327 1_655 S
C3099 C3105 1.429 . S
C3100 C3092 1.574 . S
C3100 H3095 0.949 . S
C3100 C3106 1.368 . S
C3101 C3085 1.349 . S
C3101 H3093 0.950 . S
C3101 C3099 1.327 1_455 S
C3102 C3090 1.349 . S
C3102 H3096 0.950 . S
C3102 C3103 1.327 . S
C3103 H3097 0.950 . S
C3103 C3102 1.327 . S
C3103 C3107 1.429 . S
C3104 C3087 1.574 . S
C3104 H3098 0.949 . S
C3104 C3108 1.368 . S
C3105 C3086 1.429 . S
C3105 C3099 1.429 . S
C3105 C3106 1.523 . S
C3106 C3087 1.368 . S
C3106 C3100 1.368 . S
C3106 C3105 1.523 . S
C3107 C3091 1.429 . S
C3107 C3103 1.429 . S
C3107 C3108 1.523 . S
C3108 C3092 1.368 . S
C3108 C3104 1.368 . S
C3108 C3107 1.523 . S
H3109 C3084 0.950 . S
H3110 C3086 0.950 . S
H3111 C3087 0.949 . S
H3112 C3089 0.950 . S
H3113 C3091 0.950 . S
C3114 C3115 1.349 . S
C3114 C3116 1.327 . S
C3114 H3139 0.950 . S
C3115 C3114 1.349 . S
C3115 C3131 1.349 . S
C3116 C3114 1.327 . S
C3116 C3135 1.429 . S
C3116 H3140 0.950 . S
C3117 C3134 1.574 . S
C3117 C3136 1.368 . S
C3117 H3141 0.949 . S
H3118 C3122 0.949 . S
C3119 C3120 1.349 . S
C3119 C3121 1.327 . S
C3119 H3142 0.950 . S
C3120 C3119 1.349 . S
C3120 C3132 1.349 . S
C3121 C3119 1.327 . S
C3121 C3137 1.429 . S
C3121 H3143 0.950 . S
C3122 H3118 0.949 . S
C3122 C3130 1.574 . S
C3122 C3138 1.368 . S
H3123 C3131 0.950 . S
H3124 C3129 0.950 . S
H3125 C3130 0.949 . S
H3126 C3132 0.950 . S
H3127 C3133 0.950 . S
H3128 C3134 0.949 . S
C3129 H3124 0.950 . S
C3129 C3131 1.327 . S
C3129 C3135 1.429 . S
C3130 C3122 1.574 . S
C3130 H3125 0.949 . S
C3130 C3136 1.368 . S
C3131 C3115 1.349 . S
C3131 H3123 0.950 . S
C3131 C3129 1.327 . S
C3132 C3120 1.349 . S
C3132 H3126 0.950 . S
C3132 C3133 1.327 . S
C3133 H3127 0.950 . S
C3133 C3132 1.327 . S
C3133 C3137 1.429 . S
C3134 C3117 1.574 . S
C3134 H3128 0.949 . S
C3134 C3138 1.368 . S
C3135 C3116 1.429 . S
C3135 C3129 1.429 . S
C3135 C3136 1.523 . S
C3136 C3117 1.368 . S
C3136 C3130 1.368 . S
C3136 C3135 1.523 . S
C3137 C3121 1.429 . S
C3137 C3133 1.429 . S
C3137 C3138 1.523 . S
C3138 C3122 1.368 . S
C3138 C3134 1.368 . S
C3138 C3137 1.523 . S
H3139 C3114 0.950 . S
H3140 C3116 0.950 . S
H3141 C3117 0.949 . S
H3142 C3119 0.950 . S
H3143 C3121 0.950 . S
C3144 C3145 1.349 . S
C3144 C3146 1.327 . S
C3144 H3169 0.950 . S
C3145 C3144 1.349 . S
C3145 C3161 1.349 . S
C3146 C3144 1.327 . S
C3146 C3165 1.429 . S
C3146 H3170 0.950 . S
C3147 C3164 1.574 . S
C3147 C3166 1.368 . S
C3147 H3171 0.949 . S
H3148 C3152 0.949 . S
C3149 C3150 1.349 . S
C3149 C3151 1.327 . S
C3149 H3172 0.950 . S
C3150 C3149 1.349 . S
C3150 C3162 1.349 . S
C3151 C3149 1.327 . S
C3151 C3167 1.429 . S
C3151 H3173 0.950 . S
C3152 H3148 0.949 . S
C3152 C3160 1.574 . S
C3152 C3168 1.368 . S
H3153 C3161 0.950 . S
H3154 C3159 0.950 . S
H3155 C3160 0.949 . S
H3156 C3162 0.950 . S
H3157 C3163 0.950 . S
H3158 C3164 0.949 . S
C3159 H3154 0.950 . S
C3159 C3161 1.327 . S
C3159 C3165 1.429 . S
C3160 C3152 1.574 . S
C3160 H3155 0.949 . S
C3160 C3166 1.368 . S
C3161 C3145 1.349 . S
C3161 H3153 0.950 . S
C3161 C3159 1.327 . S
C3162 C3150 1.349 . S
C3162 H3156 0.950 . S
C3162 C3163 1.327 . S
C3163 H3157 0.950 . S
C3163 C3162 1.327 . S
C3163 C3167 1.429 . S
C3164 C3147 1.574 . S
C3164 H3158 0.949 . S
C3164 C3168 1.368 . S
C3165 C3146 1.429 . S
C3165 C3159 1.429 . S
C3165 C3166 1.523 . S
C3166 C3147 1.368 . S
C3166 C3160 1.368 . S
C3166 C3165 1.523 . S
C3167 C3151 1.429 . S
C3167 C3163 1.429 . S
C3167 C3168 1.523 . S
C3168 C3152 1.368 . S
C3168 C3164 1.368 . S
C3168 C3167 1.523 . S
H3169 C3144 0.950 . S
H3170 C3146 0.950 . S
H3171 C3147 0.949 . S
H3172 C3149 0.950 . S
H3173 C3151 0.950 . S
C3174 C3175 1.349 . S
C3174 C3176 1.327 . S
C3174 H3199 0.950 . S
C3175 C3174 1.349 . S
C3175 C3191 1.349 . S
C3176 C3174 1.327 . S
C3176 C3195 1.429 . S
C3176 H3200 0.950 . S
C3177 C3194 1.574 . S
C3177 C3196 1.368 . S
C3177 H3201 0.949 . S
H3178 C3182 0.949 . S
C3179 C3180 1.349 . S
C3179 C3181 1.327 . S
C3179 H3202 0.950 . S
C3180 C3179 1.349 . S
C3180 C3192 1.349 . S
C3181 C3179 1.327 . S
C3181 C3197 1.429 . S
C3181 H3203 0.950 . S
C3182 H3178 0.949 . S
C3182 C3190 1.574 . S
C3182 C3198 1.368 . S
H3183 C3191 0.950 . S
H3184 C3189 0.950 . S
H3185 C3190 0.949 . S
H3186 C3192 0.950 . S
H3187 C3193 0.950 . S
H3188 C3194 0.949 . S
C3189 H3184 0.950 . S
C3189 C3191 1.327 . S
C3189 C3195 1.429 . S
C3190 C3182 1.574 . S
C3190 H3185 0.949 . S
C3190 C3196 1.368 . S
C3191 C3175 1.349 . S
C3191 H3183 0.950 . S
C3191 C3189 1.327 . S
C3192 C3180 1.349 . S
C3192 H3186 0.950 . S
C3192 C3193 1.327 . S
C3193 H3187 0.950 . S
C3193 C3192 1.327 . S
C3193 C3197 1.429 . S
C3194 C3177 1.574 . S
C3194 H3188 0.949 . S
C3194 C3198 1.368 . S
C3195 C3176 1.429 . S
C3195 C3189 1.429 . S
C3195 C3196 1.523 . S
C3196 C3177 1.368 . S
C3196 C3190 1.368 . S
C3196 C3195 1.523 . S
C3197 C3181 1.429 . S
C3197 C3193 1.429 . S
C3197 C3198 1.523 . S
C3198 C3182 1.368 . S
C3198 C3194 1.368 . S
C3198 C3197 1.523 . S
H3199 C3174 0.950 . S
H3200 C3176 0.950 . S
H3201 C3177 0.949 . S
H3202 C3179 0.950 . S
H3203 C3181 0.950 . S
C3204 C3205 1.349 . S
C3204 C3206 1.327 . S
C3204 H3229 0.950 . S
C3205 C3204 1.349 . S
C3205 C3221 1.349 . S
C3206 C3204 1.327 . S
C3206 C3225 1.429 . S
C3206 H3230 0.950 1_565 S
C3207 C3224 1.574 . S
C3207 C3226 1.368 . S
C3207 H3231 0.949 . S
H3208 C3212 0.949 . S
C3209 C3210 1.333 1_565 S
C3209 C3211 1.327 . S
C3209 H3232 0.950 . S
C3210 C3209 1.333 1_545 S
C3210 C3222 1.353 . S
C3211 C3209 1.327 . S
C3211 C3227 1.429 . S
C3211 H3233 0.950 . S
C3212 H3208 0.949 . S
C3212 C3220 1.568 1_545 S
C3212 C3228 1.368 1_545 S
H3213 C3221 0.950 . S
H3214 C3219 0.950 . S
H3215 C3220 0.948 1_545 S
H3216 C3222 0.950 . S
H3217 C3223 0.950 . S
H3218 C3224 0.949 . S
C3219 H3214 0.950 . S
C3219 C3221 1.327 . S
C3219 C3225 1.429 . S
C3220 C3212 1.568 1_565 S
C3220 H3215 0.948 1_565 S
C3220 C3226 1.375 . S
C3221 C3205 1.349 . S
C3221 H3213 0.950 . S
C3221 C3219 1.327 . S
C3222 C3210 1.353 . S
C3222 H3216 0.950 . S
C3222 C3223 1.327 . S
C3223 H3217 0.950 . S
C3223 C3222 1.327 . S
C3223 C3227 1.429 1_545 S
C3224 C3207 1.574 . S
C3224 H3218 0.949 . S
C3224 C3228 1.368 . S
C3225 C3206 1.429 . S
C3225 C3219 1.429 . S
C3225 C3226 1.523 . S
C3226 C3207 1.368 . S
C3226 C3220 1.375 . S
C3226 C3225 1.523 . S
C3227 C3211 1.429 . S
C3227 C3223 1.429 1_565 S
C3227 C3228 1.523 . S
C3228 C3212 1.368 1_565 S
C3228 C3224 1.368 . S
C3228 C3227 1.523 . S
H3229 C3204 0.950 . S
H3230 C3206 0.950 1_545 S
H3231 C3207 0.949 . S
H3232 C3209 0.950 . S
H3233 C3211 0.950 . S
C3234 C3235 1.349 . S
C3234 C3236 1.327 . S
C3234 H3259 0.950 . S
C3235 C3234 1.349 . S
C3235 C3251 1.349 . S
C3236 C3234 1.327 . S
C3236 C3255 1.429 . S
C3236 H3260 0.950 1_455 S
C3237 C3254 1.574 . S
C3237 C3256 1.368 . S
C3237 H3261 0.949 . S
H3238 C3242 0.949 . S
C3239 C3240 1.349 1_455 S
C3239 C3241 1.327 . S
C3239 H3262 0.950 . S
C3240 C3239 1.349 1_655 S
C3240 C3252 1.349 . S
C3241 C3239 1.327 . S
C3241 C3257 1.429 . S
C3241 H3263 0.950 . S
C3242 H3238 0.949 . S
C3242 C3250 1.578 1_655 S
C3242 C3258 1.368 1_655 S
H3243 C3251 0.950 . S
H3244 C3249 0.950 . S
H3245 C3250 0.935 1_655 S
H3246 C3252 0.950 . S
H3247 C3253 0.950 . S
H3248 C3254 0.949 . S
C3249 H3244 0.950 . S
C3249 C3251 1.327 . S
C3249 C3255 1.429 . S
C3250 C3242 1.578 1_455 S
C3250 H3245 0.935 1_455 S
C3250 C3256 1.380 . S
C3251 C3235 1.349 . S
C3251 H3243 0.950 . S
C3251 C3249 1.327 . S
C3252 C3240 1.349 . S
C3252 H3246 0.950 . S
C3252 C3253 1.327 . S
C3253 H3247 0.950 . S
C3253 C3252 1.327 . S
C3253 C3257 1.429 1_655 S
C3254 C3237 1.574 . S
C3254 H3248 0.949 . S
C3254 C3258 1.368 . S
C3255 C3236 1.429 . S
C3255 C3249 1.429 . S
C3255 C3256 1.523 . S
C3256 C3237 1.368 . S
C3256 C3250 1.380 . S
C3256 C3255 1.523 . S
C3257 C3241 1.429 . S
C3257 C3253 1.429 1_455 S
C3257 C3258 1.523 . S
C3258 C3242 1.368 1_455 S
C3258 C3254 1.368 . S
C3258 C3257 1.523 . S
H3259 C3234 0.950 . S
H3260 C3236 0.950 1_655 S
H3261 C3237 0.949 . S
H3262 C3239 0.950 . S
H3263 C3241 0.950 . S
C3264 C3265 1.349 . S
C3264 C3266 1.327 . S
C3264 H3289 0.950 . S
C3265 C3264 1.349 . S
C3265 C3281 1.349 . S
C3266 C3264 1.327 . S
C3266 C3285 1.429 . S
C3266 H3290 0.950 . S
C3267 C3284 1.574 . S
C3267 C3286 1.368 . S
C3267 H3291 0.949 . S
H3268 C3272 0.949 . S
C3269 C3270 1.349 . S
C3269 C3271 1.327 . S
C3269 H3292 0.950 . S
C3270 C3269 1.349 . S
C3270 C3282 1.349 . S
C3271 C3269 1.327 . S
C3271 C3287 1.429 . S
C3271 H3293 0.950 . S
C3272 H3268 0.949 . S
C3272 C3280 1.574 . S
C3272 C3288 1.368 . S
H3273 C3281 0.950 . S
H3274 C3279 0.950 . S
H3275 C3280 0.949 . S
H3276 C3282 0.950 . S
H3277 C3283 0.950 . S
H3278 C3284 0.949 . S
C3279 H3274 0.950 . S
C3279 C3281 1.327 . S
C3279 C3285 1.429 . S
C3280 C3272 1.574 . S
C3280 H3275 0.949 . S
C3280 C3286 1.368 . S
C3281 C3265 1.349 . S
C3281 H3273 0.950 . S
C3281 C3279 1.327 . S
C3282 C3270 1.349 . S
C3282 H3276 0.950 . S
C3282 C3283 1.327 . S
C3283 H3277 0.950 . S
C3283 C3282 1.327 . S
C3283 C3287 1.429 . S
C3284 C3267 1.574 . S
C3284 H3278 0.949 . S
C3284 C3288 1.368 . S
C3285 C3266 1.429 . S
C3285 C3279 1.429 . S
C3285 C3286 1.523 . S
C3286 C3267 1.368 . S
C3286 C3280 1.368 . S
C3286 C3285 1.523 . S
C3287 C3271 1.429 . S
C3287 C3283 1.429 . S
C3287 C3288 1.523 . S
C3288 C3272 1.368 . S
C3288 C3284 1.368 . S
C3288 C3287 1.523 . S
H3289 C3264 0.950 . S
H3290 C3266 0.950 . S
H3291 C3267 0.949 . S
H3292 C3269 0.950 . S
H3293 C3271 0.950 . S
C3294 C3295 1.349 . S
C3294 C3296 1.327 . S
C3294 H3319 0.950 . S
C3295 C3294 1.349 . S
C3295 C3311 1.349 . S
C3296 C3294 1.327 . S
C3296 C3315 1.429 . S
C3296 H3320 0.950 . S
C3297 C3314 1.574 . S
C3297 C3316 1.368 . S
C3297 H3321 0.949 . S
H3298 C3302 0.949 . S
C3299 C3300 1.349 . S
C3299 C3301 1.327 . S
C3299 H3322 0.950 . S
C3300 C3299 1.349 . S
C3300 C3312 1.349 . S
C3301 C3299 1.327 . S
C3301 C3317 1.429 . S
C3301 H3323 0.950 . S
C3302 H3298 0.949 . S
C3302 C3310 1.574 . S
C3302 C3318 1.368 . S
H3303 C3311 0.950 . S
H3304 C3309 0.950 . S
H3305 C3310 0.949 . S
H3306 C3312 0.950 . S
H3307 C3313 0.950 . S
H3308 C3314 0.949 . S
C3309 H3304 0.950 . S
C3309 C3311 1.327 . S
C3309 C3315 1.429 . S
C3310 C3302 1.574 . S
C3310 H3305 0.949 . S
C3310 C3316 1.368 . S
C3311 C3295 1.349 . S
C3311 H3303 0.950 . S
C3311 C3309 1.327 . S
C3312 C3300 1.349 . S
C3312 H3306 0.950 . S
C3312 C3313 1.327 . S
C3313 H3307 0.950 . S
C3313 C3312 1.327 . S
C3313 C3317 1.429 . S
C3314 C3297 1.574 . S
C3314 H3308 0.949 . S
C3314 C3318 1.368 . S
C3315 C3296 1.429 . S
C3315 C3309 1.429 . S
C3315 C3316 1.523 . S
C3316 C3297 1.368 . S
C3316 C3310 1.368 . S
C3316 C3315 1.523 . S
C3317 C3301 1.429 . S
C3317 C3313 1.429 . S
C3317 C3318 1.523 . S
C3318 C3302 1.368 . S
C3318 C3314 1.368 . S
C3318 C3317 1.523 . S
H3319 C3294 0.950 . S
H3320 C3296 0.950 . S
H3321 C3297 0.949 . S
H3322 C3299 0.950 . S
H3323 C3301 0.950 . S
C3324 C3325 1.349 . S
C3324 C3326 1.327 . S
C3324 H3349 0.950 . S
C3325 C3324 1.349 . S
C3325 C3341 1.349 . S
C3326 C3324 1.327 . S
C3326 C3345 1.429 . S
C3326 H3350 0.950 . S
C3327 C3344 1.574 . S
C3327 C3346 1.368 . S
C3327 H3351 0.949 . S
H3328 C3332 0.949 . S
C3329 C3330 1.349 . S
C3329 C3331 1.327 . S
C3329 H3352 0.950 . S
C3330 C3329 1.349 . S
C3330 C3342 1.349 . S
C3331 C3329 1.327 . S
C3331 C3347 1.429 . S
C3331 H3353 0.950 . S
C3332 H3328 0.949 . S
C3332 C3340 1.574 . S
C3332 C3348 1.368 . S
H3333 C3341 0.950 . S
H3334 C3339 0.950 . S
H3335 C3340 0.949 . S
H3336 C3342 0.950 . S
H3337 C3343 0.950 . S
H3338 C3344 0.949 . S
C3339 H3334 0.950 . S
C3339 C3341 1.327 . S
C3339 C3345 1.429 . S
C3340 C3332 1.574 . S
C3340 H3335 0.949 . S
C3340 C3346 1.368 . S
C3341 C3325 1.349 . S
C3341 H3333 0.950 . S
C3341 C3339 1.327 . S
C3342 C3330 1.349 . S
C3342 H3336 0.950 . S
C3342 C3343 1.327 . S
C3343 H3337 0.950 . S
C3343 C3342 1.327 . S
C3343 C3347 1.429 . S
C3344 C3327 1.574 . S
C3344 H3338 0.949 . S
C3344 C3348 1.368 . S
C3345 C3326 1.429 . S
C3345 C3339 1.429 . S
C3345 C3346 1.523 . S
C3346 C3327 1.368 . S
C3346 C3340 1.368 . S
C3346 C3345 1.523 . S
C3347 C3331 1.429 . S
C3347 C3343 1.429 . S
C3347 C3348 1.523 . S
C3348 C3332 1.368 . S
C3348 C3344 1.368 . S
C3348 C3347 1.523 . S
H3349 C3324 0.950 . S
H3350 C3326 0.950 . S
H3351 C3327 0.949 . S
H3352 C3329 0.950 . S
H3353 C3331 0.950 . S
C3354 C3355 1.349 . S
C3354 C3356 1.327 . S
C3354 H3379 0.950 . S
C3355 C3354 1.349 . S
C3355 C3371 1.349 . S
C3356 C3354 1.327 . S
C3356 C3375 1.429 . S
C3356 H3380 0.950 . S
C3357 C3374 1.574 . S
C3357 C3376 1.368 . S
C3357 H3381 0.949 . S
H3358 C3362 0.949 . S
C3359 C3360 1.349 . S
C3359 C3361 1.327 . S
C3359 H3382 0.950 . S
C3360 C3359 1.349 . S
C3360 C3372 1.349 . S
C3361 C3359 1.327 . S
C3361 C3377 1.429 . S
C3361 H3383 0.950 . S
C3362 H3358 0.949 . S
C3362 C3370 1.574 . S
C3362 C3378 1.368 . S
H3363 C3371 0.950 . S
H3364 C3369 0.950 . S
H3365 C3370 0.949 . S
H3366 C3372 0.950 . S
H3367 C3373 0.950 . S
H3368 C3374 0.949 . S
C3369 H3364 0.950 . S
C3369 C3371 1.327 . S
C3369 C3375 1.429 . S
C3370 C3362 1.574 . S
C3370 H3365 0.949 . S
C3370 C3376 1.368 . S
C3371 C3355 1.349 . S
C3371 H3363 0.950 . S
C3371 C3369 1.327 . S
C3372 C3360 1.349 . S
C3372 H3366 0.950 . S
C3372 C3373 1.327 . S
C3373 H3367 0.950 . S
C3373 C3372 1.327 . S
C3373 C3377 1.429 . S
C3374 C3357 1.574 . S
C3374 H3368 0.949 . S
C3374 C3378 1.368 . S
C3375 C3356 1.429 . S
C3375 C3369 1.429 . S
C3375 C3376 1.523 . S
C3376 C3357 1.368 . S
C3376 C3370 1.368 . S
C3376 C3375 1.523 . S
C3377 C3361 1.429 . S
C3377 C3373 1.429 . S
C3377 C3378 1.523 . S
C3378 C3362 1.368 . S
C3378 C3374 1.368 . S
C3378 C3377 1.523 . S
H3379 C3354 0.950 . S
H3380 C3356 0.950 . S
H3381 C3357 0.949 . S
H3382 C3359 0.950 . S
H3383 C3361 0.950 . S
C3384 C3385 1.349 . S
C3384 C3386 1.327 . S
C3384 H3409 0.950 . S
C3385 C3384 1.349 . S
C3385 C3401 1.349 . S
C3386 C3384 1.327 . S
C3386 C3405 1.429 . S
C3386 H3410 0.950 . S
C3387 C3404 1.574 . S
C3387 C3406 1.368 . S
C3387 H3411 0.949 . S
H3388 C3392 0.949 . S
C3389 C3390 1.349 . S
C3389 C3391 1.327 . S
C3389 H3412 0.950 1_545 S
C3390 C3389 1.349 . S
C3390 C3402 1.349 . S
C3391 C3389 1.327 . S
C3391 C3407 1.429 . S
C3391 H3413 0.950 1_545 S
C3392 H3388 0.949 . S
C3392 C3400 1.574 . S
C3392 C3408 1.368 . S
H3393 C3401 0.950 . S
H3394 C3399 0.950 . S
H3395 C3400 0.949 . S
H3396 C3402 0.950 . S
H3397 C3403 0.950 . S
H3398 C3404 0.949 1_565 S
C3399 H3394 0.950 . S
C3399 C3401 1.327 . S
C3399 C3405 1.429 . S
C3400 C3392 1.574 . S
C3400 H3395 0.949 . S
C3400 C3406 1.368 . S
C3401 C3385 1.349 . S
C3401 H3393 0.950 . S
C3401 C3399 1.327 . S
C3402 C3390 1.349 . S
C3402 H3396 0.950 . S
C3402 C3403 1.327 . S
C3403 H3397 0.950 . S
C3403 C3402 1.327 . S
C3403 C3407 1.429 . S
C3404 C3387 1.574 . S
C3404 H3398 0.949 1_545 S
C3404 C3408 1.368 . S
C3405 C3386 1.429 . S
C3405 C3399 1.429 . S
C3405 C3406 1.523 . S
C3406 C3387 1.368 . S
C3406 C3400 1.368 . S
C3406 C3405 1.523 . S
C3407 C3391 1.429 . S
C3407 C3403 1.429 . S
C3407 C3408 1.523 . S
C3408 C3392 1.368 . S
C3408 C3404 1.368 . S
C3408 C3407 1.523 . S
H3409 C3384 0.950 . S
H3410 C3386 0.950 . S
H3411 C3387 0.949 . S
H3412 C3389 0.950 1_565 S
H3413 C3391 0.950 1_565 S
C3414 C3415 1.349 . S
C3414 C3416 1.327 . S
C3414 H3439 0.950 . S
C3415 C3414 1.349 . S
C3415 C3431 1.349 . S
C3416 C3414 1.327 . S
C3416 C3435 1.429 . S
C3416 H3440 0.950 1_655 S
C3417 C3434 1.574 . S
C3417 C3436 1.368 . S
C3417 H3441 0.949 . S
H3418 C3422 0.949 1_455 S
C3419 C3420 1.349 . S
C3419 C3421 1.327 . S
C3419 H3442 0.950 . S
C3420 C3419 1.349 . S
C3420 C3432 1.349 1_655 S
C3421 C3419 1.327 . S
C3421 C3437 1.429 . S
C3421 H3443 0.950 . S
C3422 H3418 0.949 1_655 S
C3422 C3430 1.574 . S
C3422 C3438 1.368 . S
H3423 C3431 0.950 . S
H3424 C3429 0.950 . S
H3425 C3430 0.949 1_455 S
H3426 C3432 0.950 . S
H3427 C3433 1.025 . S
H3428 C3434 0.949 . S
C3429 H3424 0.950 . S
C3429 C3431 1.327 . S
C3429 C3435 1.429 . S
C3430 C3422 1.574 . S
C3430 H3425 0.949 1_655 S
C3430 C3436 1.368 . S
C3431 C3415 1.349 . S
C3431 H3423 0.950 . S
C3431 C3429 1.327 . S
C3432 C3420 1.349 1_455 S
C3432 H3426 0.950 . S
C3432 C3433 1.299 . S
C3433 H3427 1.025 . S
C3433 C3432 1.299 . S
C3433 C3437 1.386 1_455 S
C3434 C3417 1.574 . S
C3434 H3428 0.949 . S
C3434 C3438 1.368 . S
C3435 C3416 1.429 . S
C3435 C3429 1.429 . S
C3435 C3436 1.523 . S
C3436 C3417 1.368 . S
C3436 C3430 1.368 . S
C3436 C3435 1.523 . S
C3437 C3421 1.429 . S
C3437 C3433 1.386 1_655 S
C3437 C3438 1.523 . S
C3438 C3422 1.368 . S
C3438 C3434 1.368 . S
C3438 C3437 1.523 . S
H3439 C3414 0.950 . S
H3440 C3416 0.950 1_455 S
H3441 C3417 0.949 . S
H3442 C3419 0.950 . S
H3443 C3421 0.950 . S
C3444 C3445 1.349 . S
C3444 C3446 1.327 . S
C3444 H3469 0.950 . S
C3445 C3444 1.349 . S
C3445 C3461 1.349 . S
C3446 C3444 1.327 . S
C3446 C3465 1.429 . S
C3446 H3470 0.950 . S
C3447 C3464 1.574 . S
C3447 C3466 1.368 . S
C3447 H3471 0.949 . S
H3448 C3452 0.949 . S
C3449 C3450 1.349 . S
C3449 C3451 1.327 . S
C3449 H3472 0.950 . S
C3450 C3449 1.349 . S
C3450 C3462 1.349 . S
C3451 C3449 1.327 . S
C3451 C3467 1.429 . S
C3451 H3473 0.950 . S
C3452 H3448 0.949 . S
C3452 C3460 1.574 . S
C3452 C3468 1.368 . S
H3453 C3461 0.950 . S
H3454 C3459 0.950 . S
H3455 C3460 0.949 . S
H3456 C3462 0.950 . S
H3457 C3463 0.950 . S
H3458 C3464 0.949 . S
C3459 H3454 0.950 . S
C3459 C3461 1.327 . S
C3459 C3465 1.429 . S
C3460 C3452 1.574 . S
C3460 H3455 0.949 . S
C3460 C3466 1.368 . S
C3461 C3445 1.349 . S
C3461 H3453 0.950 . S
C3461 C3459 1.327 . S
C3462 C3450 1.349 . S
C3462 H3456 0.950 . S
C3462 C3463 1.327 . S
C3463 H3457 0.950 . S
C3463 C3462 1.327 . S
C3463 C3467 1.429 . S
C3464 C3447 1.574 . S
C3464 H3458 0.949 . S
C3464 C3468 1.368 . S
C3465 C3446 1.429 . S
C3465 C3459 1.429 . S
C3465 C3466 1.523 . S
C3466 C3447 1.368 . S
C3466 C3460 1.368 . S
C3466 C3465 1.523 . S
C3467 C3451 1.429 . S
C3467 C3463 1.429 . S
C3467 C3468 1.523 . S
C3468 C3452 1.368 . S
C3468 C3464 1.368 . S
C3468 C3467 1.523 . S
H3469 C3444 0.950 . S
H3470 C3446 0.950 . S
H3471 C3447 0.949 . S
H3472 C3449 0.950 . S
H3473 C3451 0.950 . S
C3474 C3475 1.349 . S
C3474 C3476 1.327 . S
C3474 H3499 0.950 . S
C3475 C3474 1.349 . S
C3475 C3491 1.349 . S
C3476 C3474 1.327 . S
C3476 C3495 1.429 . S
C3476 H3500 0.950 . S
C3477 C3494 1.574 . S
C3477 C3496 1.368 . S
C3477 H3501 0.949 . S
H3478 C3482 0.949 . S
C3479 C3480 1.349 . S
C3479 C3481 1.327 . S
C3479 H3502 0.950 . S
C3480 C3479 1.349 . S
C3480 C3492 1.349 . S
C3481 C3479 1.327 . S
C3481 C3497 1.429 . S
C3481 H3503 0.950 . S
C3482 H3478 0.949 . S
C3482 C3490 1.574 . S
C3482 C3498 1.368 . S
H3483 C3491 0.950 . S
H3484 C3489 0.950 . S
H3485 C3490 0.949 . S
H3486 C3492 0.950 . S
H3487 C3493 0.950 . S
H3488 C3494 0.949 . S
C3489 H3484 0.950 . S
C3489 C3491 1.327 . S
C3489 C3495 1.429 . S
C3490 C3482 1.574 . S
C3490 H3485 0.949 . S
C3490 C3496 1.368 . S
C3491 C3475 1.349 . S
C3491 H3483 0.950 . S
C3491 C3489 1.327 . S
C3492 C3480 1.349 . S
C3492 H3486 0.950 . S
C3492 C3493 1.327 . S
C3493 H3487 0.950 . S
C3493 C3492 1.327 . S
C3493 C3497 1.429 . S
C3494 C3477 1.574 . S
C3494 H3488 0.949 . S
C3494 C3498 1.368 . S
C3495 C3476 1.429 . S
C3495 C3489 1.429 . S
C3495 C3496 1.523 . S
C3496 C3477 1.368 . S
C3496 C3490 1.368 . S
C3496 C3495 1.523 . S
C3497 C3481 1.429 . S
C3497 C3493 1.429 . S
C3497 C3498 1.523 . S
C3498 C3482 1.368 . S
C3498 C3494 1.368 . S
C3498 C3497 1.523 . S
H3499 C3474 0.950 . S
H3500 C3476 0.950 . S
H3501 C3477 0.949 . S
H3502 C3479 0.950 . S
H3503 C3481 0.950 . S
C3504 C3505 1.349 . S
C3504 C3506 1.327 . S
C3504 H3529 0.950 . S
C3505 C3504 1.349 . S
C3505 C3521 1.349 . S
C3506 C3504 1.327 . S
C3506 C3525 1.429 . S
C3506 H3530 0.950 . S
C3507 C3524 1.574 . S
C3507 C3526 1.368 . S
C3507 H3531 0.949 . S
H3508 C3512 0.949 . S
C3509 C3510 1.349 . S
C3509 C3511 1.327 . S
C3509 H3532 0.950 . S
C3510 C3509 1.349 . S
C3510 C3522 1.349 . S
C3511 C3509 1.327 . S
C3511 C3527 1.429 . S
C3511 H3533 0.950 . S
C3512 H3508 0.949 . S
C3512 C3520 1.574 . S
C3512 C3528 1.368 . S
H3513 C3521 0.950 . S
H3514 C3519 0.950 . S
H3515 C3520 0.949 . S
H3516 C3522 0.950 . S
H3517 C3523 0.950 . S
H3518 C3524 0.949 . S
C3519 H3514 0.950 . S
C3519 C3521 1.327 . S
C3519 C3525 1.429 . S
C3520 C3512 1.574 . S
C3520 H3515 0.949 . S
C3520 C3526 1.368 . S
C3521 C3505 1.349 . S
C3521 H3513 0.950 . S
C3521 C3519 1.327 . S
C3522 C3510 1.349 . S
C3522 H3516 0.950 . S
C3522 C3523 1.327 . S
C3523 H3517 0.950 . S
C3523 C3522 1.327 . S
C3523 C3527 1.429 . S
C3524 C3507 1.574 . S
C3524 H3518 0.949 . S
C3524 C3528 1.368 . S
C3525 C3506 1.429 . S
C3525 C3519 1.429 . S
C3525 C3526 1.523 . S
C3526 C3507 1.368 . S
C3526 C3520 1.368 . S
C3526 C3525 1.523 . S
C3527 C3511 1.429 . S
C3527 C3523 1.429 . S
C3527 C3528 1.523 . S
C3528 C3512 1.368 . S
C3528 C3524 1.368 . S
C3528 C3527 1.523 . S
H3529 C3504 0.950 . S
H3530 C3506 0.950 . S
H3531 C3507 0.949 . S
H3532 C3509 0.950 . S
H3533 C3511 0.950 . S
C3534 C3535 1.349 . S
C3534 C3536 1.327 . S
C3534 H3559 0.950 . S
C3535 C3534 1.349 . S
C3535 C3551 1.349 . S
C3536 C3534 1.327 . S
C3536 C3555 1.429 . S
C3536 H3560 0.950 . S
C3537 C3554 1.574 . S
C3537 C3556 1.368 . S
C3537 H3561 0.949 . S
H3538 C3542 0.949 . S
C3539 C3540 1.349 . S
C3539 C3541 1.327 . S
C3539 H3562 0.950 . S
C3540 C3539 1.349 . S
C3540 C3552 1.349 . S
C3541 C3539 1.327 . S
C3541 C3557 1.429 . S
C3541 H3563 0.950 . S
C3542 H3538 0.949 . S
C3542 C3550 1.574 . S
C3542 C3558 1.368 . S
H3543 C3551 0.992 . S
H3544 C3549 0.950 . S
H3545 C3550 0.949 . S
H3546 C3552 0.950 . S
H3547 C3553 0.950 . S
H3548 C3554 0.949 . S
C3549 H3544 0.950 . S
C3549 C3551 1.327 . S
C3549 C3555 1.429 . S
C3550 C3542 1.574 . S
C3550 H3545 0.949 . S
C3550 C3556 1.368 . S
C3551 C3535 1.349 . S
C3551 H3543 0.992 . S
C3551 C3549 1.327 . S
C3552 C3540 1.349 . S
C3552 H3546 0.950 . S
C3552 C3553 1.327 . S
C3553 H3547 0.950 . S
C3553 C3552 1.327 . S
C3553 C3557 1.429 . S
C3554 C3537 1.574 . S
C3554 H3548 0.949 . S
C3554 C3558 1.368 . S
C3555 C3536 1.429 . S
C3555 C3549 1.429 . S
C3555 C3556 1.523 . S
C3556 C3537 1.368 . S
C3556 C3550 1.368 . S
C3556 C3555 1.523 . S
C3557 C3541 1.429 . S
C3557 C3553 1.429 . S
C3557 C3558 1.523 . S
C3558 C3542 1.368 . S
C3558 C3554 1.368 . S
C3558 C3557 1.523 . S
H3559 C3534 0.950 . S
H3560 C3536 0.950 . S
H3561 C3537 0.949 . S
H3562 C3539 0.950 . S
H3563 C3541 0.950 . S
C3564 C3565 1.349 . S
C3564 C3566 1.327 . S
C3564 H3589 0.950 . S
C3565 C3564 1.349 . S
C3565 C3581 1.349 . S
C3566 C3564 1.327 . S
C3566 C3585 1.429 . S
C3566 H3590 0.950 . S
C3567 C3584 1.574 . S
C3567 C3586 1.368 . S
C3567 H3591 0.949 . S
H3568 C3572 0.949 . S
C3569 C3570 1.349 . S
C3569 C3571 1.327 . S
C3569 H3592 0.950 . S
C3570 C3569 1.349 . S
C3570 C3582 1.349 . S
C3571 C3569 1.327 . S
C3571 C3587 1.429 . S
C3571 H3593 0.950 . S
C3572 H3568 0.949 . S
C3572 C3580 1.574 . S
C3572 C3588 1.368 . S
H3573 C3581 0.950 . S
H3574 C3579 0.950 . S
H3575 C3580 0.949 . S
H3576 C3582 0.950 . S
H3577 C3583 0.950 . S
H3578 C3584 0.949 . S
C3579 H3574 0.950 . S
C3579 C3581 1.327 . S
C3579 C3585 1.429 . S
C3580 C3572 1.574 . S
C3580 H3575 0.949 . S
C3580 C3586 1.368 . S
C3581 C3565 1.349 . S
C3581 H3573 0.950 . S
C3581 C3579 1.327 . S
C3582 C3570 1.349 . S
C3582 H3576 0.950 . S
C3582 C3583 1.327 . S
C3583 H3577 0.950 . S
C3583 C3582 1.327 . S
C3583 C3587 1.429 . S
C3584 C3567 1.574 . S
C3584 H3578 0.949 . S
C3584 C3588 1.368 . S
C3585 C3566 1.429 . S
C3585 C3579 1.429 . S
C3585 C3586 1.523 . S
C3586 C3567 1.368 . S
C3586 C3580 1.368 . S
C3586 C3585 1.523 . S
C3587 C3571 1.429 . S
C3587 C3583 1.429 . S
C3587 C3588 1.523 . S
C3588 C3572 1.368 . S
C3588 C3584 1.368 . S
C3588 C3587 1.523 . S
H3589 C3564 0.950 . S
H3590 C3566 0.950 . S
H3591 C3567 0.949 . S
H3592 C3569 0.950 . S
H3593 C3571 0.950 . S
C3594 C3595 1.349 . S
C3594 C3596 1.327 . S
C3594 H3619 0.950 1_565 S
C3595 C3594 1.349 . S
C3595 C3611 1.349 . S
C3596 C3594 1.327 . S
C3596 C3615 1.429 . S
C3596 H3620 0.950 . S
C3597 C3614 1.574 . S
C3597 C3616 1.368 . S
C3597 H3621 0.949 . S
H3598 C3602 0.949 . S
C3599 C3600 1.349 . S
C3599 C3601 1.327 . S
C3599 H3622 0.950 . S
C3600 C3599 1.349 . S
C3600 C3612 1.349 . S
C3601 C3599 1.327 . S
C3601 C3617 1.429 . S
C3601 H3623 0.950 . S
C3602 H3598 0.949 . S
C3602 C3610 1.574 . S
C3602 C3618 1.368 . S
H3603 C3611 0.950 . S
H3604 C3609 0.950 . S
H3605 C3610 0.949 . S
H3606 C3612 0.950 . S
H3607 C3613 0.950 . S
H3608 C3614 0.949 . S
C3609 H3604 0.950 . S
C3609 C3611 1.327 . S
C3609 C3615 1.429 . S
C3610 C3602 1.574 . S
C3610 H3605 0.949 . S
C3610 C3616 1.368 . S
C3611 C3595 1.349 . S
C3611 H3603 0.950 . S
C3611 C3609 1.327 . S
C3612 C3600 1.349 . S
C3612 H3606 0.950 . S
C3612 C3613 1.327 . S
C3613 H3607 0.950 . S
C3613 C3612 1.327 . S
C3613 C3617 1.429 . S
C3614 C3597 1.574 . S
C3614 H3608 0.949 . S
C3614 C3618 1.368 . S
C3615 C3596 1.429 . S
C3615 C3609 1.429 . S
C3615 C3616 1.523 . S
C3616 C3597 1.368 . S
C3616 C3610 1.368 . S
C3616 C3615 1.523 . S
C3617 C3601 1.429 . S
C3617 C3613 1.429 . S
C3617 C3618 1.523 . S
C3618 C3602 1.368 . S
C3618 C3614 1.368 . S
C3618 C3617 1.523 . S
H3619 C3594 0.950 1_545 S
H3620 C3596 0.950 . S
H3621 C3597 0.949 . S
H3622 C3599 0.950 . S
H3623 C3601 0.950 . S
C3624 C3625 1.349 1_455 S
C3624 C3626 1.327 . S
C3624 H3649 0.950 . S
C3625 C3624 1.349 1_655 S
C3625 C3641 1.349 . S
C3626 C3624 1.327 . S
C3626 C3645 1.429 . S
C3626 H3650 0.950 . S
C3627 C3644 1.574 . S
C3627 C3646 1.368 . S
C3627 H3651 0.949 . S
H3628 C3632 0.949 . S
C3629 C3630 1.349 . S
C3629 C3631 1.327 . S
C3629 H3652 0.950 . S
C3630 C3629 1.349 . S
C3630 C3642 1.349 . S
C3631 C3629 1.327 . S
C3631 C3647 1.429 . S
C3631 H3653 0.950 . S
C3632 H3628 0.949 . S
C3632 C3640 1.574 . S
C3632 C3648 1.368 . S
H3633 C3641 0.950 . S
H3634 C3639 0.950 . S
H3635 C3640 0.949 . S
H3636 C3642 0.950 . S
H3637 C3643 0.950 . S
H3638 C3644 0.949 . S
C3639 H3634 0.950 . S
C3639 C3641 1.327 1_455 S
C3639 C3645 1.429 . S
C3640 C3632 1.574 . S
C3640 H3635 0.949 . S
C3640 C3646 1.368 . S
C3641 C3625 1.349 . S
C3641 H3633 0.950 . S
C3641 C3639 1.327 1_655 S
C3642 C3630 1.349 . S
C3642 H3636 0.950 . S
C3642 C3643 1.327 . S
C3643 H3637 0.950 . S
C3643 C3642 1.327 . S
C3643 C3647 1.429 . S
C3644 C3627 1.574 . S
C3644 H3638 0.949 . S
C3644 C3648 1.368 . S
C3645 C3626 1.429 . S
C3645 C3639 1.429 . S
C3645 C3646 1.523 . S
C3646 C3627 1.368 . S
C3646 C3640 1.368 . S
C3646 C3645 1.523 . S
C3647 C3631 1.429 . S
C3647 C3643 1.429 . S
C3647 C3648 1.523 . S
C3648 C3632 1.368 . S
C3648 C3644 1.368 . S
C3648 C3647 1.523 . S
H3649 C3624 0.950 . S
H3650 C3626 0.950 . S
H3651 C3627 0.949 . S
H3652 C3629 0.950 . S
H3653 C3631 0.950 . S
C3654 C3655 1.349 . S
C3654 C3656 1.327 . S
C3654 H3679 0.950 . S
C3655 C3654 1.349 . S
C3655 C3671 1.349 . S
C3656 C3654 1.327 . S
C3656 C3675 1.429 . S
C3656 H3680 0.950 . S
C3657 C3674 1.574 . S
C3657 C3676 1.368 . S
C3657 H3681 0.949 . S
H3658 C3662 0.949 . S
C3659 C3660 1.349 . S
C3659 C3661 1.327 . S
C3659 H3682 0.950 1_655 S
C3660 C3659 1.349 . S
C3660 C3672 1.349 . S
C3661 C3659 1.327 . S
C3661 C3677 1.429 . S
C3661 H3683 0.950 . S
C3662 H3658 0.949 . S
C3662 C3670 1.574 . S
C3662 C3678 1.368 . S
H3663 C3671 0.950 . S
H3664 C3669 0.950 . S
H3665 C3670 0.949 . S
H3666 C3672 0.950 . S
H3667 C3673 0.950 . S
H3668 C3674 0.949 . S
C3669 H3664 0.950 . S
C3669 C3671 1.327 . S
C3669 C3675 1.429 . S
C3670 C3662 1.574 . S
C3670 H3665 0.949 . S
C3670 C3676 1.368 . S
C3671 C3655 1.349 . S
C3671 H3663 0.950 . S
C3671 C3669 1.327 . S
C3672 C3660 1.349 . S
C3672 H3666 0.950 . S
C3672 C3673 1.327 . S
C3673 H3667 0.950 . S
C3673 C3672 1.327 . S
C3673 C3677 1.429 . S
C3674 C3657 1.574 . S
C3674 H3668 0.949 . S
C3674 C3678 1.368 . S
C3675 C3656 1.429 . S
C3675 C3669 1.429 . S
C3675 C3676 1.523 . S
C3676 C3657 1.368 . S
C3676 C3670 1.368 . S
C3676 C3675 1.523 . S
C3677 C3661 1.429 . S
C3677 C3673 1.429 . S
C3677 C3678 1.523 . S
C3678 C3662 1.368 . S
C3678 C3674 1.368 . S
C3678 C3677 1.523 . S
H3679 C3654 0.950 . S
H3680 C3656 0.950 . S
H3681 C3657 0.949 . S
H3682 C3659 0.950 1_455 S
H3683 C3661 0.950 . S
C3684 C3685 1.349 . S
C3684 C3686 1.327 . S
C3684 H3709 0.950 . S
C3685 C3684 1.349 . S
C3685 C3701 1.349 . S
C3686 C3684 1.327 . S
C3686 C3705 1.429 . S
C3686 H3710 0.950 . S
C3687 C3704 1.574 . S
C3687 C3706 1.368 . S
C3687 H3711 0.949 . S
H3688 C3692 0.949 . S
C3689 C3690 1.349 . S
C3689 C3691 1.327 . S
C3689 H3712 0.950 . S
C3690 C3689 1.349 . S
C3690 C3702 1.349 . S
C3691 C3689 1.327 . S
C3691 C3707 1.429 . S
C3691 H3713 0.950 . S
C3692 H3688 0.949 . S
C3692 C3700 1.574 . S
C3692 C3708 1.368 . S
H3693 C3701 0.950 . S
H3694 C3699 0.950 . S
H3695 C3700 0.949 . S
H3696 C3702 0.950 . S
H3697 C3703 0.950 . S
H3698 C3704 0.949 . S
C3699 H3694 0.950 . S
C3699 C3701 1.327 . S
C3699 C3705 1.429 . S
C3700 C3692 1.574 . S
C3700 H3695 0.949 . S
C3700 C3706 1.368 . S
C3701 C3685 1.349 . S
C3701 H3693 0.950 . S
C3701 C3699 1.327 . S
C3702 C3690 1.349 . S
C3702 H3696 0.950 . S
C3702 C3703 1.327 . S
C3703 H3697 0.950 . S
C3703 C3702 1.327 . S
C3703 C3707 1.429 . S
C3704 C3687 1.574 . S
C3704 H3698 0.949 . S
C3704 C3708 1.368 . S
C3705 C3686 1.429 . S
C3705 C3699 1.429 . S
C3705 C3706 1.523 . S
C3706 C3687 1.368 . S
C3706 C3700 1.368 . S
C3706 C3705 1.523 . S
C3707 C3691 1.429 . S
C3707 C3703 1.429 . S
C3707 C3708 1.523 . S
C3708 C3692 1.368 . S
C3708 C3704 1.368 . S
C3708 C3707 1.523 . S
H3709 C3684 0.950 . S
H3710 C3686 0.950 . S
H3711 C3687 0.949 . S
H3712 C3689 0.950 . S
H3713 C3691 0.950 . S
C3714 C3715 1.349 . S
C3714 C3716 1.327 . S
C3714 H3739 0.950 . S
C3715 C3714 1.349 . S
C3715 C3731 1.349 . S
C3716 C3714 1.327 . S
C3716 C3735 1.429 . S
C3716 H3740 0.950 . S
C3717 C3734 1.574 . S
C3717 C3736 1.368 . S
C3717 H3741 0.949 . S
H3718 C3722 0.931 1_565 S
C3719 C3720 1.349 . S
C3719 C3721 1.327 . S
C3719 H3742 0.950 . S
C3720 C3719 1.349 . S
C3720 C3732 1.349 1_545 S
C3721 C3719 1.327 . S
C3721 C3737 1.429 . S
C3721 H3743 0.950 . S
C3722 H3718 0.931 1_545 S
C3722 C3730 1.569 . S
C3722 C3738 1.393 . S
H3723 C3731 0.950 . S
H3724 C3729 0.950 . S
H3725 C3730 0.949 1_565 S
H3726 C3732 0.950 . S
H3727 C3733 0.950 . S
H3728 C3734 0.949 . S
C3729 H3724 0.950 . S
C3729 C3731 1.327 . S
C3729 C3735 1.429 . S
C3730 C3722 1.569 . S
C3730 H3725 0.949 1_545 S
C3730 C3736 1.368 . S
C3731 C3715 1.349 . S
C3731 H3723 0.950 . S
C3731 C3729 1.327 . S
C3732 C3720 1.349 1_565 S
C3732 H3726 0.950 . S
C3732 C3733 1.327 . S
C3733 H3727 0.950 . S
C3733 C3732 1.327 . S
C3733 C3737 1.429 1_565 S
C3734 C3717 1.574 . S
C3734 H3728 0.949 . S
C3734 C3738 1.368 . S
C3735 C3716 1.429 . S
C3735 C3729 1.429 . S
C3735 C3736 1.523 . S
C3736 C3717 1.368 . S
C3736 C3730 1.368 . S
C3736 C3735 1.523 . S
C3737 C3721 1.429 . S
C3737 C3733 1.429 1_545 S
C3737 C3738 1.523 . S
C3738 C3722 1.393 . S
C3738 C3734 1.368 . S
C3738 C3737 1.523 . S
H3739 C3714 0.950 . S
H3740 C3716 0.950 . S
H3741 C3717 0.949 . S
H3742 C3719 0.950 . S
H3743 C3721 0.950 . S
C1585 C7 1.067 1_455 S
C1590 C981 1.048 . S
C1615 C23 1.603 . S
C1620 C1061 1.575 . S
C1650 C1129 1.283 . S
C1645 C37 1.294 . S
C1675 C35 1.742 1_556 S
C1680 C1209 1.729 . S
C1705 C9 1.498 . S
C1710 C1283 1.512 . S
C1735 C21 1.630 . S
C1740 C1351 1.586 . S
C1765 C49 0.988 . S
C1770 C1277 0.969 . S
C1800 C1357 1.475 . S
C1795 C65 1.460 . S
C1830 C1203 1.285 . S
C1825 C79 1.263 . S
C1855 C77 1.690 . S
C1860 C1135 1.690 . S
C1890 C987 1.494 . S
C1885 C51 1.456 . S
C1915 C63 1.467 . S
C1920 C1055 1.466 . S
C1945 C91 1.384 . S
C1950 C1425 1.338 . S
C1975 C107 1.643 . S
C1980 C1505 1.601 . S
C2010 C1573 1.493 . S
C2005 C121 1.565 . S
C2035 C119 1.970 . S
C2040 C321 1.929 . S
C2065 C93 1.793 . S
C2070 C395 1.746 . S
C2095 C105 1.660 . S
C2100 C463 1.613 . S
C2125 C133 1.055 . S
C2130 C389 1.052 . S
C2155 C149 1.515 . S
C2160 C469 1.527 . S
C2190 C315 1.413 . S
C2185 C163 1.417 . S
C2220 C1579 1.960 . S
C2215 C161 1.958 . S
C2250 C1431 1.585 . S
C2245 C135 1.585 . S
C2280 C1499 1.527 . S
C2275 C147 1.519 . S
C2305 C175 1.249 . S
C2310 C537 1.207 . S
C2335 C191 1.661 . S
C2340 C617 1.624 . S
C2365 C205 1.606 . S
C2370 C685 1.538 . S
C2395 C203 2.094 . S
C2400 C765 2.053 . S
C2430 C839 1.708 . S
C2425 C177 1.761 . S
C2460 C907 1.653 . S
C2455 C189 1.693 . S
C2490 C833 1.205 . S
C2485 C217 1.206 . S
C2520 C913 1.501 . S
C2515 C233 1.494 . S
C2545 C247 1.357 . S
C2550 C759 1.348 . S
C2580 C691 1.819 . S
C2575 C245 1.820 . S
C2605 C219 1.634 . S
C2610 C543 1.640 . S
C2640 C611 1.493 . S
C2635 C231 1.491 . S
C2670 C291 1.997 . S
C2665 C8 2.037 . S
C2695 C17 1.446 . S
C2700 C365 1.437 . S
C2730 C451 1.534 . S
C2725 C31 1.525 . S
C2760 C525 1.216 . S
C2755 C36 1.230 . S
C2790 C587 1.648 . S
C2785 C3 1.656 1_556 S
C2820 C673 1.520 . S
C2815 C22 1.532 . S
C2845 C50 2.201 . S
C2850 C661 2.117 . S
C2875 C59 1.619 . S
C2880 C513 1.560 . S
C2905 C73 1.707 . S
C2910 C599 1.688 . S
C2935 C78 1.470 . S
C2940 C377 1.427 . S
C2970 C439 1.760 . S
C2965 C45 1.819 . S
C2995 C64 1.737 . S
C3000 C303 1.688 . S
C3030 C735 1.946 . S
C3025 C92 1.983 . S
C3055 C101 1.650 1_545 S
C3060 C809 1.636 . S
C3085 C115 1.617 . S
C3090 C895 1.611 . S
C3120 C969 0.973 . S
C3115 C120 0.974 . S
C3145 C87 1.583 . S
C3150 C1031 1.572 . S
C3175 C106 1.360 . S
C3180 C1117 1.359 . S
C3205 C134 1.851 . S
C3210 C1105 1.804 . S
C3235 C143 1.362 . S
C3240 C957 1.338 . S
C3270 C1043 1.645 . S
C3265 C157 1.671 . S
C3295 C162 1.432 . S
C3300 C821 1.381 . S
C3325 C129 1.885 1_545 S
C3330 C883 1.819 . S
C3360 C747 1.821 . S
C3355 C148 1.874 1_655 S
C3390 C1179 1.786 . S
C3385 C176 1.817 . S
C3415 C185 1.283 . S
C3420 C1253 1.274 . S
C3445 C199 1.491 . S
C3450 C1339 1.491 . S
C3480 C1413 1.182 . S
C3475 C204 1.197 . S
C3510 C1475 1.714 . S
C3505 C171 1.726 1_565 S
C3535 C190 1.675 1_455 S
C3540 C1561 1.661 . S
C3565 C218 2.144 . S
C3570 C1549 2.054 . S
C3595 C227 1.814 1_565 S
C3600 C1401 1.747 . S
C3630 C1487 1.755 . S
C3625 C241 1.791 . S
C3660 C1265 1.030 . S
C3655 C246 1.041 . S
C3690 C1327 1.694 . S
C3685 C213 1.753 . S
C3715 C232 1.442 . S
C3720 C1191 1.433 1_545 S
