# Generated by pormake.
# Topology nom, (4,4)-cn, num edge types: 1
# Building blocks:
#     Node 0, Type 0, BuildingBlock: NAWXER_clean_linker_0, # of connection points: 4
#     Node 1, Type 0, BuildingBlock: NAWXER_clean_linker_0, # of connection points: 4
#     Node 2, Type 0, BuildingBlock: NAWXER_clean_linker_0, # of connection points: 4
#     Node 3, Type 0, BuildingBlock: NAWXER_clean_linker_0, # of connection points: 4
#     Node 4, Type 0, BuildingBlock: NAWXER_clean_linker_0, # of connection points: 4
#     Node 5, Type 0, BuildingBlock: NAWXER_clean_linker_0, # of connection points: 4
#     Node 6, Type 1, BuildingBlock: AZAVOO_clean_sbu_0, # of connection points: 4
#     Node 7, Type 1, BuildingBlock: AZAVOO_clean_sbu_0, # of connection points: 4
#     Node 8, Type 1, BuildingBlock: AZAVOO_clean_sbu_0, # of connection points: 4
#     Node 9, Type 1, BuildingBlock: AZAVOO_clean_sbu_0, # of connection points: 4
#     Node 10, Type 1, BuildingBlock: AZAVOO_clean_sbu_0, # of connection points: 4
#     Node 11, Type 1, BuildingBlock: AZAVOO_clean_sbu_0, # of connection points: 4
#     Edge 12, Type (0, 1), BuildingBlock: XUDNAN_clean_linker_2, # of connection points: 2
#     Edge 13, Type (0, 1), BuildingBlock: XUDNAN_clean_linker_2, # of connection points: 2
#     Edge 14, Type (0, 1), BuildingBlock: XUDNAN_clean_linker_2, # of connection points: 2
#     Edge 15, Type (0, 1), BuildingBlock: XUDNAN_clean_linker_2, # of connection points: 2
#     Edge 16, Type (0, 1), BuildingBlock: XUDNAN_clean_linker_2, # of connection points: 2
#     Edge 17, Type (0, 1), BuildingBlock: XUDNAN_clean_linker_2, # of connection points: 2
#     Edge 18, Type (0, 1), BuildingBlock: XUDNAN_clean_linker_2, # of connection points: 2
#     Edge 19, Type (0, 1), BuildingBlock: XUDNAN_clean_linker_2, # of connection points: 2
#     Edge 20, Type (0, 1), BuildingBlock: XUDNAN_clean_linker_2, # of connection points: 2
#     Edge 21, Type (0, 1), BuildingBlock: XUDNAN_clean_linker_2, # of connection points: 2
#     Edge 22, Type (0, 1), BuildingBlock: XUDNAN_clean_linker_2, # of connection points: 2
#     Edge 23, Type (0, 1), BuildingBlock: XUDNAN_clean_linker_2, # of connection points: 2
#     Edge 24, Type (0, 1), BuildingBlock: XUDNAN_clean_linker_2, # of connection points: 2
#     Edge 25, Type (0, 1), BuildingBlock: XUDNAN_clean_linker_2, # of connection points: 2
#     Edge 26, Type (0, 1), BuildingBlock: XUDNAN_clean_linker_2, # of connection points: 2
#     Edge 27, Type (0, 1), BuildingBlock: XUDNAN_clean_linker_2, # of connection points: 2
#     Edge 28, Type (0, 1), BuildingBlock: XUDNAN_clean_linker_2, # of connection points: 2
#     Edge 29, Type (0, 1), BuildingBlock: XUDNAN_clean_linker_2, # of connection points: 2
#     Edge 30, Type (0, 1), BuildingBlock: XUDNAN_clean_linker_2, # of connection points: 2
#     Edge 31, Type (0, 1), BuildingBlock: XUDNAN_clean_linker_2, # of connection points: 2
#     Edge 32, Type (0, 1), BuildingBlock: XUDNAN_clean_linker_2, # of connection points: 2
#     Edge 33, Type (0, 1), BuildingBlock: XUDNAN_clean_linker_2, # of connection points: 2
#     Edge 34, Type (0, 1), BuildingBlock: XUDNAN_clean_linker_2, # of connection points: 2
#     Edge 35, Type (0, 1), BuildingBlock: XUDNAN_clean_linker_2, # of connection points: 2
# Relax obj value: 0.043
# Max RMSD: 0.157
# Mean RMSD: 0.130
data_MOF--net-nom--node1-AZAVOO_clean_sbu_0--node2-NAWXER_clean_linker_0--edge1-XUDNAN_clean_linker_2
_symmetry_space_group_name_H-M    P1
_symmetry_Int_Tables_number       1
_symmetry_cell_setting            triclinic
loop_
_symmetry_equiv_pos_as_xyz
'x, y, z'
_cell_length_a     52.313069
_cell_length_b     52.800753
_cell_length_c     56.070366
_cell_angle_alpha  91.022838
_cell_angle_beta   90.93029
_cell_angle_gamma 119.99779
loop_
_atom_site_label
_atom_site_type_symbol
_atom_site_fract_x
_atom_site_fract_y
_atom_site_fract_z
_atom_type_partial_charge
C0 C 0.91013 0.48653 0.34502 0.0
C1 C 0.89865 0.46772 0.3642 0.0
C2 C 0.93604 0.49117 0.33455 0.0
C3 C 0.95103 0.47723 0.34324 0.0
C4 C 0.91283 0.45275 0.37228 0.0
C5 C 0.93914 0.45781 0.36205 0.0
C6 C 0.98109 0.48654 0.33522 0.0
C7 C 0.92199 0.43274 0.27386 0.0
C8 C 0.9244 0.44794 0.25292 0.0
C9 C 0.94241 0.44616 0.29283 0.0
C10 C 0.96569 0.47513 0.29131 0.0
C11 C 0.94746 0.47706 0.25152 0.0
C12 C 0.96806 0.49042 0.27046 0.0
C13 C 0.98837 0.48884 0.31089 0.0
C14 C 0.12248 0.5473 0.3194 0.0
C15 C 0.13012 0.56983 0.30314 0.0
C16 C 0.09296 0.5285 0.3247 0.0
C17 C 0.07052 0.53236 0.31444 0.0
C18 C 0.10734 0.57228 0.29167 0.0
C19 C 0.07788 0.55378 0.2973 0.0
C20 C 0.0396 0.51527 0.32218 0.0
C21 C 0.09345 0.56782 0.38735 0.0
C22 C 0.09623 0.54998 0.40438 0.0
C23 C 0.07271 0.55544 0.36847 0.0
C24 C 0.05428 0.52501 0.36627 0.0
C25 C 0.07751 0.51944 0.40208 0.0
C26 C 0.05654 0.50714 0.38335 0.0
C27 C 0.03215 0.51176 0.34649 0.0
H28 H 0.89942 0.49824 0.33857 0.0
H29 H 0.94518 0.50682 0.32049 0.0
H30 H 0.90428 0.43824 0.38713 0.0
H31 H 0.95063 0.44721 0.36922 0.0
H32 H 0.90441 0.41033 0.27552 0.0
H33 H 0.94038 0.43359 0.30845 0.0
H34 H 0.9501 0.48921 0.2355 0.0
H35 H 0.98593 0.5127 0.26878 0.0
H36 H 0.13929 0.54466 0.32864 0.0
H37 H 0.0878 0.51144 0.33734 0.0
H38 H 0.11224 0.58874 0.2785 0.0
H39 H 0.06091 0.55687 0.28883 0.0
H40 H 0.10695 0.59141 0.38877 0.0
H41 H 0.07091 0.56963 0.35566 0.0
H42 H 0.07924 0.50493 0.41457 0.0
H43 H 0.04241 0.48359 0.38195 0.0
N44 N 0.00323 0.49769 0.35206 0.0
N45 N 0.0174 0.50354 0.30527 0.0
C46 C 0.42948 0.90715 0.51042 0.0
C47 C 0.44755 0.89731 0.5208 0.0
C48 C 0.44189 0.93527 0.50139 0.0
C49 C 0.47252 0.95418 0.50287 0.0
C50 C 0.47839 0.91609 0.52123 0.0
C51 C 0.49067 0.94437 0.51272 0.0
C52 C 0.48558 0.98489 0.49591 0.0
C53 C 0.46659 0.93438 0.42574 0.0
C54 C 0.45043 0.94004 0.40854 0.0
C55 C 0.47577 0.95062 0.44728 0.0
C56 C 0.46834 0.97234 0.45224 0.0
C57 C 0.44204 0.96091 0.41385 0.0
C58 C 0.45089 0.97687 0.43548 0.0
C59 C 0.48201 0.99318 0.47288 0.0
C60 C 0.56602 0.12244 0.4748 0.0
C61 C 0.54917 0.13178 0.46179 0.0
C62 C 0.55305 0.09388 0.48289 0.0
C63 C 0.52285 0.07423 0.47849 0.0
C64 C 0.51896 0.112 0.45734 0.0
C65 C 0.50599 0.08348 0.46551 0.0
C66 C 0.50911 0.04347 0.48579 0.0
C67 C 0.53906 0.09916 0.55337 0.0
C68 C 0.55865 0.09508 0.56815 0.0
C69 C 0.52387 0.0797 0.53421 0.0
C70 C 0.52846 0.05614 0.52905 0.0
C71 C 0.56244 0.07093 0.56332 0.0
C72 C 0.54758 0.05177 0.54401 0.0
C73 C 0.51267 0.0351 0.50887 0.0
H74 H 0.40566 0.89366 0.51008 0.0
H75 H 0.4275 0.94265 0.49411 0.0
H76 H 0.49314 0.90915 0.52846 0.0
H77 H 0.51441 0.95869 0.51391 0.0
H78 H 0.47379 0.91877 0.42189 0.0
H79 H 0.49018 0.94734 0.4593 0.0
H80 H 0.42953 0.96564 0.40089 0.0
H81 H 0.44503 0.9936 0.43874 0.0
H82 H 0.58929 0.13717 0.47866 0.0
H83 H 0.56674 0.08704 0.49228 0.0
H84 H 0.50547 0.11829 0.447 0.0
H85 H 0.48276 0.06854 0.46158 0.0
H86 H 0.53558 0.1175 0.55648 0.0
H87 H 0.50844 0.08305 0.52352 0.0
H88 H 0.57663 0.06651 0.57464 0.0
H89 H 0.55114 0.0335 0.54071 0.0
N90 N 0.50083 0.0061 0.51294 0.0
N91 N 0.49382 0.02217 0.46881 0.0
C92 C 0.55961 0.47471 0.57662 0.0
C93 C 0.53822 0.45212 0.56172 0.0
C94 C 0.55119 0.48617 0.59553 0.0
C95 C 0.52119 0.47516 0.60003 0.0
C96 C 0.50816 0.44114 0.56617 0.0
C97 C 0.49971 0.45278 0.58508 0.0
C98 C 0.51243 0.48755 0.62003 0.0
C99 C 0.54606 0.43461 0.65771 0.0
C100 C 0.57446 0.45196 0.66822 0.0
C101 C 0.53036 0.44749 0.64874 0.0
C102 C 0.5425 0.47789 0.65041 0.0
C103 C 0.58694 0.48261 0.66893 0.0
C104 C 0.57089 0.4954 0.66046 0.0
C105 C 0.5246 0.49106 0.64326 0.0
C106 C 0.45237 0.52287 0.70361 0.0
C107 C 0.47435 0.54341 0.71949 0.0
C108 C 0.46003 0.5144 0.6824 0.0
C109 C 0.48982 0.52637 0.67668 0.0
C110 C 0.50411 0.55602 0.7134 0.0
C111 C 0.51178 0.54734 0.69227 0.0
C112 C 0.4983 0.51456 0.6561 0.0
C113 C 0.45592 0.56218 0.62377 0.0
C114 C 0.42893 0.54383 0.61159 0.0
C115 C 0.47425 0.55139 0.63099 0.0
C116 C 0.46596 0.52206 0.62611 0.0
C117 C 0.4206 0.51444 0.60681 0.0
C118 C 0.43913 0.50374 0.61379 0.0
C119 C 0.48577 0.51079 0.63286 0.0
H120 H 0.58294 0.48351 0.5737 0.0
H121 H 0.56817 0.50388 0.6065 0.0
H122 H 0.49121 0.42398 0.55478 0.0
H123 H 0.47645 0.44416 0.58815 0.0
H124 H 0.53532 0.41097 0.65723 0.0
H125 H 0.50824 0.43361 0.64134 0.0
H126 H 0.60895 0.49678 0.67636 0.0
H127 H 0.58058 0.51895 0.66183 0.0
H128 H 0.42924 0.51296 0.7078 0.0
H129 H 0.44272 0.49767 0.67096 0.0
H130 H 0.52149 0.57173 0.7254 0.0
H131 H 0.53491 0.55657 0.68832 0.0
H132 H 0.4628 0.58488 0.62782 0.0
H133 H 0.49511 0.56608 0.64007 0.0
H134 H 0.40003 0.49992 0.59727 0.0
H135 H 0.43245 0.4811 0.60968 0.0
N136 N 0.4933 0.49739 0.61565 0.0
N137 N 0.51724 0.50452 0.66039 0.0
C138 C 0.89966 0.43079 0.817 0.0
C139 C 0.88453 0.44032 0.80192 0.0
C140 C 0.92823 0.45028 0.82558 0.0
C141 C 0.94253 0.47959 0.81896 0.0
C142 C 0.89865 0.4701 0.79617 0.0
C143 C 0.92755 0.48942 0.8043 0.0
C144 C 0.97414 0.4988 0.82502 0.0
C145 C 0.93234 0.50154 0.89352 0.0
C146 C 0.93749 0.48783 0.91273 0.0
C147 C 0.94697 0.50506 0.87218 0.0
C148 C 0.96722 0.49515 0.86972 0.0
C149 C 0.95703 0.47707 0.91005 0.0
C150 C 0.97209 0.48106 0.8888 0.0
C151 C 0.98578 0.50272 0.84849 0.0
C152 C 0.11023 0.58331 0.85765 0.0
C153 C 0.12559 0.56776 0.85577 0.0
C154 C 0.08087 0.57069 0.84948 0.0
C155 C 0.06622 0.54222 0.8396 0.0
C156 C 0.11055 0.53917 0.84564 0.0
C157 C 0.08098 0.52631 0.83829 0.0
C158 C 0.03447 0.52768 0.83365 0.0
C159 C 0.08013 0.54789 0.76234 0.0
C160 C 0.07361 0.5659 0.74827 0.0
C161 C 0.06375 0.53466 0.78245 0.0
C162 C 0.04119 0.53994 0.78951 0.0
C163 C 0.05028 0.57031 0.755 0.0
C164 C 0.03438 0.55758 0.77539 0.0
C165 C 0.02285 0.52565 0.81031 0.0
H166 H 0.89001 0.40803 0.82148 0.0
H167 H 0.9397 0.44211 0.83645 0.0
H168 H 0.88759 0.47851 0.78511 0.0
H169 H 0.93833 0.51198 0.79895 0.0
H170 H 0.91724 0.50988 0.89514 0.0
H171 H 0.94335 0.51663 0.85795 0.0
H172 H 0.96143 0.46652 0.92467 0.0
H173 H 0.98788 0.47356 0.88737 0.0
H174 H 0.12056 0.605 0.86587 0.0
H175 H 0.06938 0.58288 0.8514 0.0
H176 H 0.12147 0.52652 0.8433 0.0
H177 H 0.0696 0.50387 0.8315 0.0
H178 H 0.09794 0.54397 0.75793 0.0
H179 H 0.06833 0.51973 0.79196 0.0
H180 H 0.04393 0.5833 0.74437 0.0
H181 H 0.01657 0.56142 0.78011 0.0
N182 N 0.99304 0.51094 0.80689 0.0
N183 N 0.01555 0.51667 0.85191 0.0
C184 C 0.45946 0.903 0.98104 0.0
C185 C 0.43938 0.89302 0.96143 0.0
C186 C 0.47258 0.93209 0.98934 0.0
C187 C 0.46556 0.95169 0.97839 0.0
C188 C 0.43238 0.91271 0.9506 0.0
C189 C 0.44532 0.94166 0.95898 0.0
C190 C 0.48106 0.98318 0.98547 0.0
C191 C 0.43028 0.93902 0.05003 0.0
C192 C 0.44761 0.94182 0.07038 0.0
C193 C 0.44328 0.95549 0.03001 0.0
C194 C 0.47388 0.97496 0.02993 0.0
C195 C 0.4782 0.96148 0.07034 0.0
C196 C 0.49117 0.97808 0.05034 0.0
C197 C 0.4874 0.99379 0.00938 0.0
C198 C 0.53795 0.11666 0.02432 0.0
C199 C 0.5684 0.13231 0.01981 0.0
C200 C 0.52026 0.08782 0.01578 0.0
C201 C 0.53261 0.07392 0.00273 0.0
C202 C 0.58055 0.11807 0.00665 0.0
C203 C 0.56298 0.089 0.99876 0.0
C204 C 0.51454 0.04266 0.99594 0.0
C205 C 0.53997 0.08694 0.92315 0.0
C206 C 0.51458 0.08328 0.91081 0.0
C207 C 0.53746 0.07067 0.94326 0.0
C208 C 0.50961 0.05129 0.95203 0.0
C209 C 0.4867 0.06334 0.91949 0.0
C210 C 0.48429 0.04767 0.93991 0.0
C211 C 0.50587 0.03224 0.97217 0.0
H212 H 0.46525 0.8884 0.98986 0.0
H213 H 0.48879 0.93939 0.00388 0.0
H214 H 0.41751 0.90603 0.93515 0.0
H215 H 0.43979 0.95637 0.95001 0.0
H216 H 0.4067 0.9239 0.0495 0.0
H217 H 0.42933 0.95335 0.01473 0.0
H218 H 0.49203 0.96432 0.08589 0.0
H219 H 0.51473 0.99334 0.0508 0.0
H220 H 0.52777 0.12635 0.03492 0.0
H221 H 0.49699 0.07614 0.01974 0.0
H222 H 0.60371 0.1292 0.00245 0.0
H223 H 0.57327 0.07811 0.98996 0.0
H224 H 0.56188 0.10221 0.91724 0.0
H225 H 0.55726 0.07263 0.95134 0.0
H226 H 0.46659 0.05921 0.91026 0.0
H227 H 0.46251 0.03223 0.94604 0.0
N228 N 0.48983 0.0029 0.96787 0.0
N229 N 0.50443 0.02309 0.01369 0.0
C230 C 0.49118 0.6081 0.1649 0.0
C231 C 0.47369 0.60381 0.18487 0.0
C232 C 0.49197 0.58459 0.15391 0.0
C233 C 0.47499 0.55623 0.16249 0.0
C234 C 0.45596 0.57528 0.19294 0.0
C235 C 0.45677 0.55175 0.18194 0.0
C236 C 0.4802 0.53251 0.15415 0.0
C237 C 0.44117 0.55366 0.09172 0.0
C238 C 0.45761 0.56139 0.07092 0.0
C239 C 0.44895 0.54184 0.11073 0.0
C240 C 0.47405 0.5386 0.10965 0.0
C241 C 0.48194 0.55712 0.06936 0.0
C242 C 0.49018 0.54598 0.08858 0.0
C243 C 0.48312 0.52669 0.1299 0.0
C244 C 0.53526 0.44618 0.14206 0.0
C245 C 0.55863 0.46004 0.1262 0.0
C246 C 0.51606 0.45692 0.1461 0.0
C247 C 0.52049 0.48251 0.13519 0.0
C248 C 0.56131 0.48414 0.11372 0.0
C249 C 0.5426 0.49533 0.11829 0.0
C250 C 0.50375 0.49728 0.14215 0.0
C251 C 0.54918 0.49717 0.21244 0.0
C252 C 0.5288 0.47683 0.22802 0.0
C253 C 0.53936 0.50443 0.19178 0.0
C254 C 0.50904 0.49159 0.18655 0.0
C255 C 0.49846 0.46347 0.22247 0.0
C256 C 0.48863 0.47115 0.202 0.0
C257 C 0.49865 0.50149 0.16617 0.0
H258 H 0.50477 0.62978 0.15806 0.0
H259 H 0.50691 0.58885 0.13943 0.0
H260 H 0.44242 0.57131 0.20838 0.0
H261 H 0.44391 0.53015 0.18913 0.0
H262 H 0.42198 0.55628 0.09309 0.0
H263 H 0.43513 0.53507 0.12615 0.0
H264 H 0.49485 0.56286 0.0534 0.0
H265 H 0.50939 0.54343 0.08704 0.0
H266 H 0.53222 0.42758 0.15205 0.0
H267 H 0.4983 0.44563 0.15834 0.0
H268 H 0.57818 0.4948 0.10066 0.0
H269 H 0.54619 0.51474 0.10921 0.0
H270 H 0.57269 0.50763 0.21639 0.0
H271 H 0.55536 0.52055 0.18017 0.0
H272 H 0.48242 0.44786 0.23436 0.0
H273 H 0.46513 0.46135 0.1983 0.0
N274 N 0.48742 0.5191 0.17119 0.0
N275 N 0.49535 0.50973 0.12492 0.0
Mg276 Mg 0.63636 0.38579 0.37292 0.0
O277 O 0.62116 0.39708 0.40782 0.0
O278 O 0.63809 0.44527 0.40837 0.0
Mg279 Mg 0.66284 0.46447 0.37429 0.0
C280 C 0.62395 0.42029 0.41785 0.0
C281 C 0.60431 0.32427 0.398 0.0
O282 O 0.58338 0.33066 0.40153 0.0
O283 O 0.68359 0.40683 0.38752 0.0
O284 O 0.69893 0.45457 0.38636 0.0
O285 O 0.59501 0.37803 0.3538 0.0
O286 O 0.63619 0.42084 0.35703 0.0
C287 C 0.70363 0.43355 0.39062 0.0
C288 C 0.60891 0.40585 0.35006 0.0
O289 O 0.62723 0.34203 0.38707 0.0
Mg290 Mg 0.26087 0.65275 0.59715 0.0
O291 O 0.23309 0.63285 0.56271 0.0
O292 O 0.20131 0.58576 0.5693 0.0
Mg293 Mg 0.20857 0.57608 0.60779 0.0
C294 C 0.21212 0.6077 0.5557 0.0
C295 C 0.32024 0.70523 0.58844 0.0
O296 O 0.32387 0.69396 0.60804 0.0
O297 O 0.28588 0.62916 0.58954 0.0
O298 O 0.25484 0.58288 0.59889 0.0
O299 O 0.22883 0.66496 0.61083 0.0
O300 O 0.22656 0.62276 0.61748 0.0
C301 C 0.28008 0.6029 0.59216 0.0
C302 C 0.21521 0.63938 0.62013 0.0
O303 O 0.29501 0.69261 0.57793 0.0
Mg304 Mg 0.61484 0.25709 0.75343 0.0
O305 O 0.61268 0.22793 0.72165 0.0
O306 O 0.63291 0.20228 0.73588 0.0
Mg307 Mg 0.64033 0.20921 0.77651 0.0
C308 C 0.62186 0.20975 0.71875 0.0
C309 C 0.62443 0.31519 0.74136 0.0
O310 O 0.63626 0.31714 0.76265 0.0
O311 O 0.66469 0.28276 0.75162 0.0
O312 O 0.67944 0.25574 0.77148 0.0
O313 O 0.56869 0.22541 0.76354 0.0
O314 O 0.60831 0.22455 0.77642 0.0
C315 C 0.68492 0.27922 0.76112 0.0
C316 C 0.58005 0.21303 0.77623 0.0
O317 O 0.61199 0.29052 0.73027 0.0
Mg318 Mg 0.399 0.65206 0.87525 0.0
O319 O 0.40631 0.63532 0.91087 0.0
O320 O 0.38184 0.58638 0.90771 0.0
Mg321 Mg 0.35968 0.572 0.87059 0.0
C322 C 0.39815 0.61025 0.91953 0.0
C323 C 0.39754 0.70753 0.88383 0.0
O324 O 0.37855 0.69346 0.86614 0.0
O325 O 0.35197 0.63741 0.88481 0.0
O326 O 0.32761 0.58892 0.87916 0.0
O327 O 0.43866 0.65318 0.85926 0.0
O328 O 0.39362 0.61483 0.8578 0.0
C329 C 0.3281 0.61286 0.88424 0.0
C330 C 0.42104 0.62605 0.85289 0.0
O331 O 0.41295 0.69697 0.892 0.0
Mg332 Mg 0.75984 0.40189 0.07022 0.0
O333 O 0.78688 0.39887 0.10194 0.0
O334 O 0.80872 0.37478 0.08762 0.0
Mg335 Mg 0.79939 0.36628 0.0474 0.0
C336 C 0.8032 0.38741 0.10478 0.0
C337 C 0.72653 0.43183 0.0924 0.0
O338 O 0.74321 0.45236 0.0777 0.0
O339 O 0.72689 0.3533 0.07048 0.0
O340 O 0.7506 0.33243 0.05385 0.0
O341 O 0.79776 0.4453 0.06067 0.0
O342 O 0.79022 0.40276 0.04656 0.0
C343 C 0.72741 0.33078 0.06258 0.0
C344 C 0.80641 0.43081 0.0474 0.0
O345 O 0.73015 0.40992 0.09472 0.0
Mg346 Mg 0.37936 0.76583 0.22923 0.0
O347 O 0.40104 0.8025 0.25846 0.0
O348 O 0.44376 0.83634 0.24347 0.0
Mg349 Mg 0.45079 0.8213 0.20712 0.0
C350 C 0.42486 0.8273 0.25991 0.0
C351 C 0.3213 0.73331 0.25844 0.0
O352 O 0.3165 0.7533 0.24918 0.0
O353 O 0.41026 0.74868 0.23813 0.0
O354 O 0.45266 0.78223 0.22271 0.0
O355 O 0.35906 0.78971 0.21165 0.0
O356 O 0.40254 0.79521 0.20306 0.0
C357 C 0.43721 0.75813 0.23322 0.0
C358 C 0.38306 0.80293 0.19974 0.0
O359 O 0.34558 0.73415 0.25468 0.0
H360 H 0.15515 0.62867 0.29497 0.0
H361 H 0.17676 0.55952 0.30102 0.0
H362 H 0.22904 0.59523 0.29437 0.0
H363 H 0.20209 0.66317 0.24662 0.0
H364 H 0.21201 0.69966 0.25663 0.0
H365 H 0.17686 0.66916 0.26408 0.0
H366 H 0.18907 0.68383 0.30895 0.0
H367 H 0.22444 0.71425 0.30163 0.0
H368 H 0.22243 0.68751 0.32221 0.0
H369 H 0.27869 0.63808 0.2857 0.0
H370 H 0.32111 0.68371 0.27218 0.0
H371 H 0.26643 0.72413 0.26951 0.0
C372 C 0.17073 0.62085 0.29476 0.0
C373 C 0.16167 0.59117 0.2987 0.0
C374 C 0.18309 0.58218 0.29856 0.0
C375 C 0.21288 0.6023 0.29471 0.0
C376 C 0.22094 0.63132 0.29091 0.0
C377 C 0.20044 0.64052 0.29068 0.0
C378 C 0.21447 0.67251 0.28468 0.0
C379 C 0.20053 0.67634 0.26163 0.0
C380 C 0.21248 0.69059 0.30562 0.0
C381 C 0.24601 0.67975 0.28114 0.0
C382 C 0.24937 0.65583 0.28521 0.0
C383 C 0.27635 0.65698 0.28252 0.0
C384 C 0.30034 0.68306 0.27489 0.0
C385 C 0.2971 0.70752 0.26973 0.0
C386 C 0.26967 0.70589 0.27337 0.0
H387 H 0.52672 0.16906 0.45986 0.0
H388 H 0.60324 0.16193 0.44141 0.0
H389 H 0.6261 0.21091 0.42422 0.0
H390 H 0.52405 0.20415 0.40676 0.0
H391 H 0.51289 0.22749 0.42159 0.0
H392 H 0.50308 0.19245 0.43355 0.0
H393 H 0.52809 0.21762 0.47415 0.0
H394 H 0.53795 0.25275 0.46232 0.0
H395 H 0.56613 0.24656 0.47511 0.0
H396 H 0.63997 0.25971 0.40787 0.0
H397 H 0.64423 0.30552 0.39368 0.0
H398 H 0.55828 0.28072 0.42203 0.0
C399 C 0.54826 0.17775 0.45217 0.0
C400 C 0.56324 0.16166 0.45211 0.0
C401 C 0.59154 0.17401 0.44206 0.0
C402 C 0.60464 0.20174 0.43211 0.0
C403 C 0.58918 0.21687 0.43233 0.0
C404 C 0.56165 0.20539 0.44212 0.0
C405 C 0.54953 0.22598 0.43965 0.0
C406 C 0.52068 0.21166 0.42448 0.0
C407 C 0.54518 0.23634 0.46428 0.0
C408 C 0.57445 0.25073 0.42672 0.0
C409 C 0.59713 0.24504 0.42276 0.0
C410 C 0.6224 0.26446 0.41093 0.0
C411 C 0.62458 0.29043 0.40291 0.0
C412 C 0.60158 0.29675 0.40672 0.0
C413 C 0.57624 0.27657 0.41884 0.0
H414 H 0.36935 0.51976 0.61741 0.0
H415 H 0.44551 0.5945 0.58838 0.0
H416 H 0.41428 0.61541 0.57682 0.0
H417 H 0.3143 0.51512 0.57289 0.0
H418 H 0.28622 0.50553 0.59472 0.0
H419 H 0.31391 0.49505 0.59869 0.0
H420 H 0.32828 0.52124 0.64033 0.0
H421 H 0.30066 0.53174 0.6365 0.0
H422 H 0.33854 0.55927 0.64297 0.0
H423 H 0.37596 0.62969 0.57084 0.0
H424 H 0.33348 0.63764 0.5722 0.0
H425 H 0.28179 0.55371 0.60535 0.0
C426 C 0.37927 0.54024 0.6082 0.0
C427 C 0.40979 0.55552 0.60369 0.0
C428 C 0.42219 0.58258 0.5921 0.0
C429 C 0.4046 0.59449 0.58532 0.0
C430 C 0.37466 0.57906 0.59026 0.0
C431 C 0.36205 0.55255 0.60146 0.0
C432 C 0.32976 0.54149 0.60618 0.0
C433 C 0.30987 0.51258 0.59228 0.0
C434 C 0.32399 0.53826 0.63309 0.0
C435 C 0.32637 0.56624 0.59635 0.0
C436 C 0.35247 0.58748 0.58699 0.0
C437 C 0.35532 0.6131 0.57791 0.0
C438 C 0.33103 0.61741 0.57881 0.0
C439 C 0.30421 0.59628 0.58884 0.0
C440 C 0.3018 0.57012 0.5973 0.0
H441 H 0.84032 0.39074 0.82216 0.0
H442 H 0.86129 0.44096 0.75757 0.0
H443 H 0.81272 0.40512 0.74 0.0
H444 H 0.80512 0.32036 0.79146 0.0
H445 H 0.77795 0.3029 0.81394 0.0
H446 H 0.81376 0.33346 0.82209 0.0
H447 H 0.78911 0.36098 0.84065 0.0
H448 H 0.75323 0.33047 0.83267 0.0
H449 H 0.76348 0.36653 0.82274 0.0
H450 H 0.76108 0.36439 0.72985 0.0
H451 H 0.71114 0.32057 0.72741 0.0
H452 H 0.7267 0.29453 0.79661 0.0
C453 C 0.83503 0.39421 0.80422 0.0
C454 C 0.85483 0.41903 0.79145 0.0
C455 C 0.84643 0.42267 0.76812 0.0
C456 C 0.81894 0.40222 0.75781 0.0
C457 C 0.80025 0.37794 0.77084 0.0
C458 C 0.80804 0.37373 0.79345 0.0
C459 C 0.78432 0.34539 0.80345 0.0
C460 C 0.79599 0.32428 0.808 0.0
C461 C 0.7718 0.3512 0.82622 0.0
C462 C 0.76184 0.33442 0.78298 0.0
C463 C 0.77131 0.35363 0.76441 0.0
C464 C 0.75358 0.34897 0.74412 0.0
C465 C 0.72533 0.3241 0.74289 0.0
C466 C 0.7154 0.30404 0.76164 0.0
C467 C 0.73406 0.30917 0.78177 0.0
H468 H 0.46691 0.86041 0.9562 0.0
H469 H 0.38297 0.85691 0.94397 0.0
H470 H 0.36317 0.80867 0.92374 0.0
H471 H 0.46875 0.82797 0.90174 0.0
H472 H 0.48425 0.80697 0.91378 0.0
H473 H 0.49166 0.8406 0.92858 0.0
H474 H 0.47135 0.81334 0.96786 0.0
H475 H 0.46416 0.77963 0.95326 0.0
H476 H 0.43479 0.78175 0.96781 0.0
H477 H 0.35385 0.76335 0.90192 0.0
H478 H 0.35391 0.72112 0.88262 0.0
H479 H 0.44268 0.7519 0.91097 0.0
C480 C 0.44414 0.84924 0.94978 0.0
C481 C 0.42659 0.86265 0.95152 0.0
C482 C 0.39705 0.8474 0.94247 0.0
C483 C 0.38552 0.81989 0.93108 0.0
C484 C 0.40364 0.80768 0.92917 0.0
C485 C 0.43215 0.82158 0.93856 0.0
C486 C 0.44707 0.80377 0.93363 0.0
C487 C 0.47455 0.82085 0.91853 0.0
C488 C 0.45479 0.79405 0.95704 0.0
C489 C 0.42265 0.77799 0.91957 0.0
C490 C 0.39785 0.78081 0.91718 0.0
C491 C 0.37297 0.76067 0.90392 0.0
C492 C 0.37332 0.73687 0.89289 0.0
C493 C 0.39828 0.73323 0.89536 0.0
C494 C 0.4232 0.75401 0.909 0.0
H495 H 0.61795 0.49354 0.11668 0.0
H496 H 0.54965 0.40391 0.12888 0.0
H497 H 0.58659 0.38824 0.12574 0.0
H498 H 0.65273 0.47434 0.07111 0.0
H499 H 0.6894 0.5032 0.07959 0.0
H500 H 0.6581 0.50774 0.08507 0.0
H501 H 0.67372 0.51853 0.12987 0.0
H502 H 0.70489 0.51366 0.12457 0.0
H503 H 0.67855 0.49232 0.14662 0.0
H504 H 0.63092 0.38211 0.12094 0.0
H505 H 0.67761 0.38479 0.10979 0.0
H506 H 0.7157 0.47746 0.097 0.0
C507 C 0.61044 0.47051 0.11845 0.0
C508 C 0.58066 0.45012 0.12331 0.0
C509 C 0.57233 0.42027 0.1258 0.0
C510 C 0.59317 0.41106 0.12393 0.0
C511 C 0.62224 0.43181 0.11925 0.0
C512 C 0.63077 0.46083 0.11616 0.0
C513 C 0.66291 0.47839 0.10958 0.0
C514 C 0.66595 0.49169 0.08487 0.0
C515 C 0.68108 0.50213 0.12881 0.0
C516 C 0.67105 0.45462 0.1092 0.0
C517 C 0.64744 0.42803 0.1153 0.0
C518 C 0.64955 0.40279 0.1161 0.0
C519 C 0.67624 0.40459 0.10985 0.0
C520 C 0.70032 0.43135 0.10248 0.0
C521 C 0.69773 0.45673 0.10257 0.0
H522 H 0.39642 0.84585 0.50768 0.0
H523 H 0.46797 0.88342 0.56108 0.0
H524 H 0.44533 0.83677 0.58159 0.0
H525 H 0.34015 0.80852 0.54882 0.0
H526 H 0.31814 0.77712 0.52938 0.0
H527 H 0.34179 0.81223 0.5169 0.0
H528 H 0.36762 0.78998 0.4922 0.0
H529 H 0.34403 0.75475 0.50463 0.0
H530 H 0.38358 0.77102 0.5072 0.0
H531 H 0.41389 0.78752 0.59791 0.0
H532 H 0.37431 0.73938 0.61007 0.0
H533 H 0.32121 0.73436 0.54785 0.0
C534 C 0.40747 0.84435 0.52363 0.0
C535 C 0.43435 0.86845 0.53244 0.0
C536 C 0.44792 0.86523 0.55341 0.0
C537 C 0.4351 0.8388 0.56536 0.0
C538 C 0.40854 0.81574 0.55632 0.0
C539 C 0.39475 0.81822 0.53602 0.0
C540 C 0.36518 0.79077 0.53114 0.0
C541 C 0.33982 0.79758 0.5316 0.0
C542 C 0.36512 0.77574 0.50738 0.0
C543 C 0.36429 0.77276 0.55219 0.0
C544 C 0.38975 0.78745 0.56625 0.0
C545 C 0.39389 0.77571 0.58699 0.0
C546 C 0.37124 0.74833 0.59375 0.0
C547 C 0.34462 0.7331 0.57995 0.0
C548 C 0.34131 0.74542 0.55875 0.0
H549 H 0.57288 0.40042 0.65502 0.0
H550 H 0.61013 0.47106 0.70871 0.0
H551 H 0.63194 0.44604 0.73019 0.0
H552 H 0.54963 0.34461 0.6958 0.0
H553 H 0.55709 0.3208 0.67744 0.0
H554 H 0.54866 0.34642 0.66374 0.0
H555 H 0.59764 0.3685 0.64104 0.0
H556 H 0.6062 0.34284 0.65464 0.0
H557 H 0.63204 0.38155 0.65752 0.0
H558 H 0.64548 0.41176 0.74815 0.0
H559 H 0.64862 0.36955 0.76222 0.0
H560 H 0.59977 0.31911 0.69868 0.0
C561 C 0.5858 0.41084 0.67117 0.0
C562 C 0.58993 0.43802 0.6799 0.0
C563 C 0.60721 0.45077 0.70112 0.0
C564 C 0.6196 0.4366 0.71361 0.0
C565 C 0.61444 0.4096 0.70481 0.0
C566 C 0.59793 0.39677 0.68411 0.0
C567 C 0.59328 0.36629 0.67983 0.0
C568 C 0.5602 0.34318 0.67918 0.0
C569 C 0.60819 0.36471 0.6569 0.0
C570 C 0.60898 0.36368 0.70179 0.0
C571 C 0.62147 0.38916 0.71568 0.0
C572 C 0.63606 0.39178 0.73733 0.0
C573 C 0.63762 0.36759 0.74519 0.0
C574 C 0.62439 0.34098 0.73157 0.0
C575 C 0.61023 0.3392 0.70941 0.0
H576 H 0.15419 0.53985 0.87393 0.0
H577 H 0.16903 0.62603 0.8564 0.0
H578 H 0.22122 0.64751 0.86871 0.0
H579 H 0.20905 0.5617 0.92312 0.0
H580 H 0.22031 0.53606 0.91355 0.0
H581 H 0.18288 0.52789 0.90793 0.0
H582 H 0.18807 0.52075 0.86275 0.0
H583 H 0.22533 0.52866 0.86827 0.0
H584 H 0.21795 0.54968 0.84711 0.0
H585 H 0.27254 0.65934 0.87961 0.0
H586 H 0.31978 0.66002 0.88336 0.0
H587 H 0.27251 0.56552 0.88929 0.0
C588 C 0.16819 0.56326 0.87261 0.0
C589 C 0.157 0.58112 0.86429 0.0
C590 C 0.17649 0.61175 0.86329 0.0
C591 C 0.20635 0.62424 0.87018 0.0
C592 C 0.21659 0.60586 0.8778 0.0
C593 C 0.19816 0.57598 0.87878 0.0
C594 C 0.21529 0.56063 0.8846 0.0
C595 C 0.20635 0.54569 0.90874 0.0
C596 C 0.21144 0.53865 0.86448 0.0
C597 C 0.24641 0.58648 0.88596 0.0
C598 C 0.24655 0.61245 0.88271 0.0
C599 C 0.27271 0.63918 0.88231 0.0
C600 C 0.29947 0.6393 0.88449 0.0
C601 C 0.2999 0.61277 0.88649 0.0
C602 C 0.27294 0.58615 0.88785 0.0
H603 H 0.62748 0.16016 0.03381 0.0
H604 H 0.55309 0.17495 0.02638 0.0
H605 H 0.58468 0.22566 0.04125 0.0
H606 H 0.66382 0.20777 0.08559 0.0
H607 H 0.7003 0.22104 0.07432 0.0
H608 H 0.67104 0.18469 0.06608 0.0
H609 H 0.68001 0.19666 0.0213 0.0
H610 H 0.7094 0.23291 0.0294 0.0
H611 H 0.67917 0.22811 0.01027 0.0
H612 H 0.62474 0.27543 0.05547 0.0
H613 H 0.67124 0.32177 0.06349 0.0
H614 H 0.72036 0.27576 0.0576 0.0
C615 C 0.61763 0.1739 0.0351 0.0
C616 C 0.58745 0.16307 0.02903 0.0
C617 C 0.5758 0.18214 0.03146 0.0
C618 C 0.59364 0.21115 0.0398 0.0
C619 C 0.62324 0.22101 0.0454 0.0
C620 C 0.63523 0.20306 0.04286 0.0
C621 C 0.66824 0.2197 0.04799 0.0
C622 C 0.67631 0.20757 0.06979 0.0
C623 C 0.68519 0.21933 0.02593 0.0
C624 C 0.67303 0.24997 0.0534 0.0
C625 C 0.64668 0.2501 0.05235 0.0
C626 C 0.64551 0.27559 0.05638 0.0
C627 C 0.67206 0.3018 0.06102 0.0
C628 C 0.69946 0.30241 0.06112 0.0
C629 C 0.69978 0.276 0.05763 0.0
H630 H 0.42735 0.6083 0.20224 0.0
H631 H 0.52259 0.65672 0.19619 0.0
H632 H 0.52429 0.70008 0.21514 0.0
H633 H 0.41495 0.66372 0.18682 0.0
H634 H 0.38561 0.65514 0.20723 0.0
H635 H 0.39251 0.62684 0.19672 0.0
H636 H 0.39848 0.61498 0.24044 0.0
H637 H 0.39181 0.64353 0.25108 0.0
H638 H 0.425 0.64361 0.26036 0.0
H639 H 0.51511 0.7397 0.22915 0.0
H640 H 0.4954 0.77303 0.23552 0.0
H641 H 0.40638 0.69858 0.23424 0.0
C642 C 0.44863 0.62777 0.20552 0.0
C643 C 0.47481 0.62917 0.1977 0.0
C644 C 0.50219 0.65529 0.20177 0.0
C645 C 0.50343 0.6799 0.2128 0.0
C646 C 0.47715 0.67797 0.21995 0.0
C647 C 0.45025 0.65252 0.21657 0.0
C648 C 0.42498 0.65707 0.22358 0.0
C649 C 0.40326 0.65031 0.20232 0.0
C650 C 0.40914 0.6387 0.24515 0.0
C651 C 0.44175 0.6894 0.23026 0.0
C652 C 0.47187 0.70092 0.2285 0.0
C653 C 0.49164 0.73087 0.23115 0.0
C654 C 0.48026 0.74964 0.23476 0.0
C655 C 0.4494 0.73837 0.23564 0.0
C656 C 0.4301 0.70778 0.23432 0.0
H657 H 0.84401 0.41938 0.36739 0.0
H658 H 0.89558 0.51139 0.38746 0.0
H659 H 0.85128 0.50975 0.40395 0.0
H660 H 0.7843 0.4219 0.34557 0.0
H661 H 0.75636 0.38667 0.35549 0.0
H662 H 0.79294 0.39327 0.35025 0.0
H663 H 0.79668 0.37839 0.39341 0.0
H664 H 0.75997 0.37175 0.3988 0.0
H665 H 0.79043 0.39664 0.4182 0.0
H666 H 0.80122 0.50057 0.41197 0.0
H667 H 0.74832 0.48513 0.40949 0.0
H668 H 0.72821 0.39885 0.38397 0.0
C669 C 0.84598 0.4388 0.37605 0.0
C670 C 0.87299 0.46542 0.37655 0.0
C671 C 0.87493 0.4908 0.38719 0.0
C672 C 0.84999 0.49 0.39671 0.0
C673 C 0.82334 0.46361 0.39542 0.0
C674 C 0.82113 0.4384 0.38542 0.0
C675 C 0.78922 0.41406 0.38325 0.0
C676 C 0.78019 0.40338 0.35709 0.0
C677 C 0.78376 0.38871 0.39938 0.0
C678 C 0.77381 0.42999 0.39238 0.0
C679 C 0.79396 0.45832 0.39986 0.0
C680 C 0.78518 0.47826 0.40668 0.0
C681 C 0.75509 0.46932 0.40512 0.0
C682 C 0.73416 0.44075 0.39668 0.0
C683 C 0.74362 0.4206 0.39102 0.0
H684 H 0.09062 0.53168 0.45072 0.0
H685 H 0.15215 0.5981 0.40386 0.0
H686 H 0.18819 0.62044 0.43748 0.0
H687 H 0.10777 0.57682 0.50318 0.0
H688 H 0.10481 0.54909 0.52308 0.0
H689 H 0.08359 0.53866 0.49543 0.0
H690 H 0.10611 0.50648 0.48341 0.0
H691 H 0.12734 0.51672 0.51106 0.0
H692 H 0.14568 0.52259 0.48307 0.0
H693 H 0.21719 0.63623 0.47661 0.0
H694 H 0.23778 0.64274 0.5177 0.0
H695 H 0.15846 0.56412 0.53805 0.0
C696 C 0.11178 0.55069 0.44733 0.0
C697 C 0.11834 0.56315 0.42454 0.0
C698 C 0.14623 0.5884 0.42119 0.0
C699 C 0.16699 0.60116 0.44016 0.0
C700 C 0.1597 0.5883 0.46234 0.0
C701 C 0.13287 0.56349 0.46595 0.0
C702 C 0.13061 0.55367 0.49142 0.0
C703 C 0.10519 0.55463 0.50402 0.0
C704 C 0.12725 0.52305 0.49228 0.0
C705 C 0.16036 0.57692 0.50162 0.0
C706 C 0.17674 0.59681 0.48461 0.0
C707 C 0.20463 0.62068 0.49003 0.0
C708 C 0.2161 0.62423 0.51343 0.0
C709 C 0.19982 0.60386 0.53107 0.0
C710 C 0.1716 0.5799 0.52494 0.0
H711 H 0.53874 0.12288 0.59853 0.0
H712 H 0.61522 0.11367 0.58462 0.0
H713 H 0.64051 0.14406 0.62055 0.0
H714 H 0.5815 0.19983 0.62034 0.0
H715 H 0.55476 0.19482 0.64236 0.0
H716 H 0.54304 0.17331 0.61489 0.0
H717 H 0.51877 0.12581 0.63894 0.0
H718 H 0.53052 0.14711 0.66645 0.0
H719 H 0.54075 0.11971 0.66068 0.0
H720 H 0.65555 0.17112 0.6599 0.0
H721 H 0.66079 0.19636 0.69875 0.0
H722 H 0.5767 0.1919 0.6855 0.0
C723 C 0.56105 0.12774 0.60267 0.0
C724 C 0.57477 0.11549 0.58876 0.0
C725 C 0.60386 0.12213 0.5952 0.0
C726 C 0.61857 0.13963 0.61548 0.0
C727 C 0.60419 0.15085 0.62897 0.0
C728 C 0.57626 0.14554 0.62268 0.0
C729 C 0.56554 0.15977 0.64059 0.0
C730 C 0.56095 0.18333 0.62884 0.0
C731 C 0.53723 0.13672 0.65236 0.0
C732 C 0.59153 0.17327 0.65822 0.0
C733 C 0.61355 0.16778 0.65118 0.0
C734 C 0.63874 0.17606 0.66539 0.0
C735 C 0.64147 0.19025 0.68744 0.0
C736 C 0.61934 0.19636 0.69489 0.0
C737 C 0.59424 0.18807 0.67994 0.0
H738 H 0.49426 0.59768 0.74056 0.0
H739 H 0.436 0.50501 0.75099 0.0
H740 H 0.42101 0.51636 0.7894 0.0
H741 H 0.51656 0.61893 0.80421 0.0
H742 H 0.51643 0.65285 0.80171 0.0
H743 H 0.52516 0.63747 0.77628 0.0
H744 H 0.48356 0.63837 0.75123 0.0
H745 H 0.47486 0.65388 0.77648 0.0
H746 H 0.4465 0.62051 0.76213 0.0
H747 H 0.40914 0.53745 0.82451 0.0
H748 H 0.39901 0.56708 0.8531 0.0
H749 H 0.46493 0.64635 0.82049 0.0
C750 C 0.47878 0.57982 0.75119 0.0
C751 C 0.46626 0.55048 0.74287 0.0
C752 C 0.44562 0.52765 0.75698 0.0
C753 C 0.43722 0.53386 0.77891 0.0
C754 C 0.44973 0.56301 0.78652 0.0
C755 C 0.47002 0.58565 0.77311 0.0
C756 C 0.4782 0.61512 0.78446 0.0
C757 C 0.51104 0.63209 0.79212 0.0
C758 C 0.47029 0.63301 0.76757 0.0
C759 C 0.45865 0.60546 0.80594 0.0
C760 C 0.44277 0.5753 0.80695 0.0
C761 C 0.42167 0.56108 0.82409 0.0
C762 C 0.41595 0.57809 0.84019 0.0
C763 C 0.4312 0.60895 0.839 0.0
C764 C 0.45343 0.62281 0.82211 0.0
H765 H 0.90531 0.43885 0.93862 0.0
H766 H 0.93705 0.53201 0.93826 0.0
H767 H 0.91147 0.52844 0.97584 0.0
H768 H 0.83427 0.41857 0.95739 0.0
H769 H 0.83034 0.38911 0.97561 0.0
H770 H 0.85412 0.39972 0.95048 0.0
H771 H 0.89783 0.40771 0.97822 0.0
H772 H 0.87415 0.39724 0.0035 0.0
H773 H 0.90792 0.43205 0.004 0.0
H774 H 0.87986 0.51419 0.01187 0.0
H775 H 0.84153 0.48978 0.0418 0.0
H776 H 0.82925 0.40568 0.01784 0.0
C777 C 0.9073 0.45854 0.94677 0.0
C778 C 0.92323 0.48573 0.93575 0.0
C779 C 0.92485 0.51097 0.94651 0.0
C780 C 0.91061 0.50919 0.9679 0.0
C781 C 0.89478 0.48198 0.97823 0.0
C782 C 0.8929 0.45707 0.96796 0.0
C783 C 0.87229 0.4301 0.98145 0.0
C784 C 0.84621 0.4081 0.96527 0.0
C785 C 0.88906 0.41595 0.99244 0.0
C786 C 0.86233 0.44365 0.00054 0.0
C787 C 0.87597 0.47365 0.99867 0.0
C788 C 0.86924 0.49073 0.01367 0.0
C789 C 0.84747 0.47667 0.03064 0.0
C790 C 0.83246 0.44583 0.03226 0.0
C791 C 0.84053 0.4293 0.0173 0.0
H792 H 0.46784 0.91191 0.09634 0.0
H793 H 0.39623 0.9308 0.09155 0.0
H794 H 0.37265 0.89913 0.12578 0.0
H795 H 0.42413 0.83751 0.1094 0.0
H796 H 0.45105 0.8371 0.12962 0.0
H797 H 0.46293 0.86269 0.10588 0.0
H798 H 0.49101 0.90565 0.13667 0.0
H799 H 0.47916 0.88013 0.16054 0.0
H800 H 0.47142 0.90979 0.16121 0.0
H801 H 0.35615 0.86363 0.15982 0.0
H802 H 0.34771 0.82654 0.18985 0.0
H803 H 0.43016 0.83134 0.1711 0.0
C804 C 0.44747 0.90981 0.10276 0.0
C805 C 0.43391 0.92387 0.09142 0.0
C806 C 0.40688 0.92003 0.09995 0.0
C807 C 0.39344 0.90227 0.11944 0.0
C808 C 0.40735 0.88855 0.13013 0.0
C809 C 0.43377 0.89214 0.12204 0.0
C810 C 0.44357 0.87398 0.13576 0.0
C811 C 0.44551 0.85149 0.11917 0.0
C812 C 0.47303 0.89356 0.14935 0.0
C813 C 0.41839 0.85931 0.15267 0.0
C814 C 0.39779 0.8681 0.14937 0.0
C815 C 0.37225 0.85674 0.16266 0.0
C816 C 0.36763 0.8357 0.17964 0.0
C817 C 0.38841 0.82625 0.183 0.0
C818 C 0.41408 0.83841 0.16934 0.0
H819 H 0.5175 0.42356 0.24378 0.0
H820 H 0.56428 0.51627 0.26232 0.0
H821 H 0.58452 0.50674 0.29901 0.0
H822 H 0.50171 0.3964 0.30577 0.0
H823 H 0.50826 0.36663 0.2991 0.0
H824 H 0.49396 0.38004 0.27612 0.0
H825 H 0.5373 0.38887 0.2492 0.0
H826 H 0.55166 0.37547 0.27202 0.0
H827 H 0.57473 0.41136 0.26046 0.0
H828 H 0.60306 0.48824 0.33115 0.0
H829 H 0.62144 0.46243 0.35582 0.0
H830 H 0.56406 0.38145 0.31634 0.0
C831 C 0.53148 0.44166 0.25592 0.0
C832 C 0.53929 0.4706 0.2505 0.0
C833 C 0.55816 0.49397 0.26632 0.0
C834 C 0.56952 0.48873 0.28722 0.0
C835 C 0.5618 0.46 0.29196 0.0
C836 C 0.5433 0.43682 0.27677 0.0
C837 C 0.54103 0.40852 0.28481 0.0
C838 C 0.50935 0.3866 0.29188 0.0
C839 C 0.55184 0.3953 0.26548 0.0
C840 C 0.56188 0.41963 0.30644 0.0
C841 C 0.57314 0.44929 0.31043 0.0
C842 C 0.59426 0.46498 0.32834 0.0
C843 C 0.60479 0.45015 0.34214 0.0
C844 C 0.5944 0.42002 0.33786 0.0
C845 C 0.57206 0.40441 0.32021 0.0
H846 H 0.42719 0.88197 0.39485 0.0
H847 H 0.46402 0.96926 0.36721 0.0
H848 H 0.46035 0.94938 0.32639 0.0
H849 H 0.46287 0.85647 0.3558 0.0
H850 H 0.43179 0.81998 0.35166 0.0
H851 H 0.43616 0.84062 0.37885 0.0
H852 H 0.38392 0.83372 0.37216 0.0
H853 H 0.3793 0.81288 0.34501 0.0
H854 H 0.37478 0.84455 0.34444 0.0
H855 H 0.45701 0.92147 0.28956 0.0
H856 H 0.44924 0.88588 0.2573 0.0
H857 H 0.41121 0.81539 0.30736 0.0
C858 C 0.43417 0.89675 0.38011 0.0
C859 C 0.44573 0.92712 0.38409 0.0
C860 C 0.45471 0.94589 0.36446 0.0
C861 C 0.45288 0.93484 0.34126 0.0
C862 C 0.44166 0.9049 0.33792 0.0
C863 C 0.43201 0.88597 0.35667 0.0
C864 C 0.42078 0.85468 0.34791 0.0
C865 C 0.439 0.84221 0.35923 0.0
C866 C 0.38773 0.83532 0.35266 0.0
C867 C 0.42618 0.85916 0.32141 0.0
C868 C 0.43849 0.88839 0.31619 0.0
C869 C 0.44703 0.89846 0.29331 0.0
C870 C 0.4427 0.8781 0.27516 0.0
C871 C 0.42956 0.84793 0.27986 0.0
C872 C 0.42101 0.8383 0.30328 0.0
H873 H 0.58025 0.48395 0.52961 0.0
H874 H 0.51689 0.39482 0.54745 0.0
H875 H 0.53313 0.37638 0.51333 0.0
H876 H 0.571 0.47315 0.46658 0.0
H877 H 0.60943 0.49763 0.46094 0.0
H878 H 0.59321 0.50333 0.48708 0.0
H879 H 0.63328 0.50175 0.51381 0.0
H880 H 0.64958 0.49595 0.48773 0.0
H881 H 0.63839 0.47047 0.51162 0.0
H882 H 0.55679 0.36808 0.47696 0.0
H883 H 0.58361 0.37065 0.44033 0.0
H884 H 0.63083 0.46553 0.44694 0.0
C885 C 0.56999 0.46053 0.52651 0.0
C886 C 0.54746 0.44077 0.54122 0.0
C887 C 0.53411 0.4103 0.53627 0.0
C888 C 0.54331 0.39966 0.51706 0.0
C889 C 0.56576 0.41981 0.50298 0.0
C890 C 0.57878 0.44961 0.50743 0.0
C891 C 0.60176 0.4668 0.48932 0.0
C892 C 0.59333 0.48637 0.47514 0.0
C893 C 0.63258 0.48479 0.50134 0.0
C894 C 0.59962 0.44205 0.47384 0.0
C895 C 0.57894 0.41509 0.48205 0.0
C896 C 0.57306 0.38909 0.47039 0.0
C897 C 0.58846 0.39078 0.44964 0.0
C898 C 0.6093 0.41829 0.44069 0.0
C899 C 0.61503 0.44413 0.45321 0.0
H900 H 0.09914 0.54449 0.71698 0.0
H901 H 0.08847 0.6199 0.73094 0.0
H902 H 0.11813 0.64377 0.69609 0.0
H903 H 0.17431 0.58573 0.70365 0.0
H904 H 0.17288 0.56036 0.68099 0.0
H905 H 0.14726 0.54737 0.7049 0.0
H906 H 0.10356 0.52453 0.67401 0.0
H907 H 0.12911 0.5377 0.64997 0.0
H908 H 0.10059 0.54727 0.6518 0.0
H909 H 0.15171 0.66109 0.66153 0.0
H910 H 0.19017 0.67233 0.63206 0.0
H911 H 0.18195 0.5873 0.64238 0.0
C912 C 0.10294 0.56601 0.71282 0.0
C913 C 0.09101 0.58004 0.72677 0.0
C914 C 0.09654 0.60818 0.72033 0.0
C915 C 0.11353 0.62205 0.70056 0.0
C916 C 0.12507 0.60767 0.68742 0.0
C917 C 0.12023 0.58039 0.69339 0.0
C918 C 0.13739 0.57084 0.67769 0.0
C919 C 0.15926 0.5658 0.69271 0.0
C920 C 0.1164 0.54346 0.66247 0.0
C921 C 0.15327 0.5974 0.6624 0.0
C922 C 0.14536 0.61812 0.66796 0.0
C923 C 0.15794 0.64496 0.65689 0.0
C924 C 0.17975 0.65112 0.64014 0.0
C925 C 0.18906 0.63069 0.63487 0.0
C926 C 0.17514 0.60326 0.64583 0.0
H927 H 0.55695 0.10062 0.87651 0.0
H928 H 0.47831 0.10393 0.8952 0.0
H929 H 0.48266 0.13119 0.85894 0.0
H930 H 0.59652 0.17354 0.85902 0.0
H931 H 0.61536 0.16654 0.83541 0.0
H932 H 0.60343 0.14341 0.86078 0.0
H933 H 0.57412 0.098 0.83248 0.0
H934 H 0.58575 0.12112 0.80701 0.0
H935 H 0.54699 0.09694 0.81163 0.0
H936 H 0.4972 0.16085 0.82203 0.0
H937 H 0.52406 0.19545 0.79034 0.0
H938 H 0.59514 0.17605 0.79788 0.0
C939 C 0.54057 0.10702 0.87314 0.0
C940 C 0.51708 0.09969 0.88879 0.0
C941 C 0.4961 0.10846 0.88331 0.0
C942 C 0.4984 0.12408 0.86273 0.0
C943 C 0.52192 0.13102 0.84785 0.0
C944 C 0.54283 0.12307 0.85296 0.0
C945 C 0.56766 0.13583 0.8355 0.0
C946 C 0.59749 0.15603 0.84845 0.0
C947 C 0.56867 0.11151 0.82078 0.0
C948 C 0.55788 0.15291 0.82019 0.0
C949 C 0.53106 0.14925 0.8272 0.0
C950 C 0.51812 0.16375 0.81627 0.0
C951 C 0.53349 0.18327 0.79823 0.0
C952 C 0.56172 0.18848 0.7917 0.0
C953 C 0.57361 0.1725 0.80243 0.0
H954 H 0.44278 0.53939 0.02525 0.0
H955 H 0.45346 0.61083 0.07152 0.0
H956 H 0.44028 0.63202 0.03758 0.0
H957 H 0.47104 0.58004 0.97201 0.0
H958 H 0.4443 0.55119 0.95238 0.0
H959 H 0.45543 0.54236 0.98012 0.0
H960 H 0.40076 0.5133 0.99237 0.0
H961 H 0.38946 0.522 0.96466 0.0
H962 H 0.37899 0.5311 0.99259 0.0
H963 H 0.42776 0.64614 0.99796 0.0
H964 H 0.41237 0.64979 0.95676 0.0
H965 H 0.40653 0.56708 0.93743 0.0
C966 C 0.44243 0.55955 0.02812 0.0
C967 C 0.44931 0.57373 0.05079 0.0
C968 C 0.44823 0.59979 0.05416 0.0
C969 C 0.44089 0.61196 0.03502 0.0
C970 C 0.43426 0.59749 0.01279 0.0
C971 C 0.43458 0.57165 0.00935 0.0
C972 C 0.42543 0.55978 0.98399 0.0
C973 C 0.45055 0.55827 0.97138 0.0
C974 C 0.39697 0.52977 0.98338 0.0
C975 C 0.42011 0.58307 0.97363 0.0
C976 C 0.42565 0.60483 0.99042 0.0
C977 C 0.42312 0.62911 0.98472 0.0
C978 C 0.41448 0.63105 0.96129 0.0
C979 C 0.40803 0.60861 0.94401 0.0
C980 C 0.41094 0.58438 0.95036 0.0
H981 H 0.89601 0.46869 0.22419 0.0
H982 H 0.90687 0.3933 0.23451 0.0
H983 H 0.87429 0.36844 0.19931 0.0
H984 H 0.81837 0.42737 0.20401 0.0
H985 H 0.82244 0.45394 0.18242 0.0
H986 H 0.84553 0.46543 0.20914 0.0
H987 H 0.89221 0.48917 0.18354 0.0
H988 H 0.86929 0.47783 0.15678 0.0
H989 H 0.89694 0.46733 0.16087 0.0
H990 H 0.84408 0.35334 0.1614 0.0
H991 H 0.8165 0.34819 0.12377 0.0
H992 H 0.82301 0.4322 0.13849 0.0
C993 C 0.8914 0.4469 0.21907 0.0
C994 C 0.90388 0.43286 0.23217 0.0
C995 C 0.89723 0.4043 0.22496 0.0
C996 C 0.87883 0.39004 0.20494 0.0
C997 C 0.86697 0.40448 0.19239 0.0
C998 C 0.87277 0.43217 0.19922 0.0
C999 C 0.85763 0.44297 0.18226 0.0
C1000 C 0.83462 0.4477 0.19524 0.0
C1001 C 0.88038 0.47098 0.17015 0.0
C1002 C 0.84294 0.41725 0.16457 0.0
C1003 C 0.84866 0.39532 0.17079 0.0
C1004 C 0.83908 0.37016 0.15651 0.0
C1005 C 0.82349 0.36746 0.13516 0.0
C1006 C 0.81734 0.38962 0.12838 0.0
C1007 C 0.82685 0.41464 0.1435 0.0
loop_
_geom_bond_atom_site_label_1
_geom_bond_atom_site_label_2
_geom_bond_distance
_geom_bond_site_symmetry_2
_ccdc_geom_bond_type
C0 C1 1.384 . S
C0 C2 1.384 . S
C0 H28 0.931 . S
C1 C0 1.384 . S
C1 C4 1.382 . S
C2 C0 1.384 . S
C2 C3 1.381 . S
C2 H29 0.930 . S
C3 C2 1.381 . S
C3 C5 1.381 . S
C3 C6 1.487 . S
C4 C1 1.382 . S
C4 C5 1.387 . S
C4 H30 0.930 . S
C5 C3 1.381 . S
C5 C4 1.387 . S
C5 H31 0.931 . S
C6 C3 1.487 . S
C6 C13 1.399 . S
C6 N44 1.343 . S
C7 C8 1.384 . S
C7 C9 1.384 . S
C7 H32 0.931 . S
C8 C7 1.384 . S
C8 C11 1.382 . S
C9 C7 1.384 . S
C9 C10 1.381 . S
C9 H33 0.930 . S
C10 C9 1.381 . S
C10 C12 1.381 . S
C10 C13 1.487 . S
C11 C8 1.382 . S
C11 C12 1.387 . S
C11 H34 0.930 . S
C12 C10 1.381 . S
C12 C11 1.387 . S
C12 H35 0.931 . S
C13 C6 1.399 . S
C13 C10 1.487 . S
C13 N45 1.343 1_655 S
C14 C15 1.384 . S
C14 C16 1.384 . S
C14 H36 0.931 . S
C15 C14 1.384 . S
C15 C18 1.382 . S
C16 C14 1.384 . S
C16 C17 1.381 . S
C16 H37 0.930 . S
C17 C16 1.381 . S
C17 C19 1.381 . S
C17 C20 1.487 . S
C18 C15 1.382 . S
C18 C19 1.387 . S
C18 H38 0.930 . S
C19 C17 1.381 . S
C19 C18 1.387 . S
C19 H39 0.931 . S
C20 C17 1.487 . S
C20 C27 1.399 . S
C20 N45 1.343 . S
C21 C22 1.384 . S
C21 C23 1.384 . S
C21 H40 0.931 . S
C22 C21 1.384 . S
C22 C25 1.382 . S
C23 C21 1.384 . S
C23 C24 1.381 . S
C23 H41 0.930 . S
C24 C23 1.381 . S
C24 C26 1.381 . S
C24 C27 1.487 . S
C25 C22 1.382 . S
C25 C26 1.387 . S
C25 H42 0.930 . S
C26 C24 1.381 . S
C26 C25 1.387 . S
C26 H43 0.931 . S
C27 C20 1.399 . S
C27 C24 1.487 . S
C27 N44 1.343 1_455 S
H28 C0 0.931 . S
H29 C2 0.930 . S
H30 C4 0.930 . S
H31 C5 0.931 . S
H32 C7 0.931 . S
H33 C9 0.930 . S
H34 C11 0.930 . S
H35 C12 0.931 . S
H36 C14 0.931 . S
H37 C16 0.930 . S
H38 C18 0.930 . S
H39 C19 0.931 . S
H40 C21 0.931 . S
H41 C23 0.930 . S
H42 C25 0.930 . S
H43 C26 0.931 . S
N44 C6 1.343 . S
N44 C27 1.343 1_655 S
N45 C13 1.343 1_455 S
N45 C20 1.343 . S
C46 C47 1.384 . S
C46 C48 1.384 . S
C46 H74 0.931 . S
C47 C46 1.384 . S
C47 C50 1.382 . S
C48 C46 1.384 . S
C48 C49 1.381 . S
C48 H75 0.930 . S
C49 C48 1.381 . S
C49 C51 1.381 . S
C49 C52 1.487 . S
C50 C47 1.382 . S
C50 C51 1.387 . S
C50 H76 0.930 . S
C51 C49 1.381 . S
C51 C50 1.387 . S
C51 H77 0.931 . S
C52 C49 1.487 . S
C52 C59 1.399 . S
C52 N90 1.343 1_565 S
C53 C54 1.384 . S
C53 C55 1.384 . S
C53 H78 0.931 . S
C54 C53 1.384 . S
C54 C57 1.382 . S
C55 C53 1.384 . S
C55 C56 1.381 . S
C55 H79 0.930 . S
C56 C55 1.381 . S
C56 C58 1.381 . S
C56 C59 1.487 . S
C57 C54 1.382 . S
C57 C58 1.387 . S
C57 H80 0.930 . S
C58 C56 1.381 . S
C58 C57 1.387 . S
C58 H81 0.931 . S
C59 C52 1.399 . S
C59 C56 1.487 . S
C59 N91 1.343 1_565 S
C60 C61 1.384 . S
C60 C62 1.384 . S
C60 H82 0.931 . S
C61 C60 1.384 . S
C61 C64 1.382 . S
C62 C60 1.384 . S
C62 C63 1.381 . S
C62 H83 0.930 . S
C63 C62 1.381 . S
C63 C65 1.381 . S
C63 C66 1.487 . S
C64 C61 1.382 . S
C64 C65 1.387 . S
C64 H84 0.930 . S
C65 C63 1.381 . S
C65 C64 1.387 . S
C65 H85 0.931 . S
C66 C63 1.487 . S
C66 C73 1.399 . S
C66 N91 1.343 . S
C67 C68 1.384 . S
C67 C69 1.384 . S
C67 H86 0.931 . S
C68 C67 1.384 . S
C68 C71 1.382 . S
C69 C67 1.384 . S
C69 C70 1.381 . S
C69 H87 0.930 . S
C70 C69 1.381 . S
C70 C72 1.381 . S
C70 C73 1.487 . S
C71 C68 1.382 . S
C71 C72 1.387 . S
C71 H88 0.930 . S
C72 C70 1.381 . S
C72 C71 1.387 . S
C72 H89 0.931 . S
C73 C66 1.399 . S
C73 C70 1.487 . S
C73 N90 1.343 . S
H74 C46 0.931 . S
H75 C48 0.930 . S
H76 C50 0.930 . S
H77 C51 0.931 . S
H78 C53 0.931 . S
H79 C55 0.930 . S
H80 C57 0.930 . S
H81 C58 0.931 . S
H82 C60 0.931 . S
H83 C62 0.930 . S
H84 C64 0.930 . S
H85 C65 0.931 . S
H86 C67 0.931 . S
H87 C69 0.930 . S
H88 C71 0.930 . S
H89 C72 0.931 . S
N90 C52 1.343 1_545 S
N90 C73 1.343 . S
N91 C59 1.343 1_545 S
N91 C66 1.343 . S
C92 C93 1.384 . S
C92 C94 1.384 . S
C92 H120 0.931 . S
C93 C92 1.384 . S
C93 C96 1.382 . S
C94 C92 1.384 . S
C94 C95 1.381 . S
C94 H121 0.930 . S
C95 C94 1.381 . S
C95 C97 1.381 . S
C95 C98 1.487 . S
C96 C93 1.382 . S
C96 C97 1.387 . S
C96 H122 0.930 . S
C97 C95 1.381 . S
C97 C96 1.387 . S
C97 H123 0.931 . S
C98 C95 1.487 . S
C98 C105 1.399 . S
C98 N136 1.343 . S
C99 C100 1.384 . S
C99 C101 1.384 . S
C99 H124 0.931 . S
C100 C99 1.384 . S
C100 C103 1.382 . S
C101 C99 1.384 . S
C101 C102 1.381 . S
C101 H125 0.930 . S
C102 C101 1.381 . S
C102 C104 1.381 . S
C102 C105 1.487 . S
C103 C100 1.382 . S
C103 C104 1.387 . S
C103 H126 0.930 . S
C104 C102 1.381 . S
C104 C103 1.387 . S
C104 H127 0.931 . S
C105 C98 1.399 . S
C105 C102 1.487 . S
C105 N137 1.343 . S
C106 C107 1.384 . S
C106 C108 1.384 . S
C106 H128 0.931 . S
C107 C106 1.384 . S
C107 C110 1.382 . S
C108 C106 1.384 . S
C108 C109 1.381 . S
C108 H129 0.930 . S
C109 C108 1.381 . S
C109 C111 1.381 . S
C109 C112 1.487 . S
C110 C107 1.382 . S
C110 C111 1.387 . S
C110 H130 0.930 . S
C111 C109 1.381 . S
C111 C110 1.387 . S
C111 H131 0.931 . S
C112 C109 1.487 . S
C112 C119 1.399 . S
C112 N137 1.343 . S
C113 C114 1.384 . S
C113 C115 1.384 . S
C113 H132 0.931 . S
C114 C113 1.384 . S
C114 C117 1.382 . S
C115 C113 1.384 . S
C115 C116 1.381 . S
C115 H133 0.930 . S
C116 C115 1.381 . S
C116 C118 1.381 . S
C116 C119 1.487 . S
C117 C114 1.382 . S
C117 C118 1.387 . S
C117 H134 0.930 . S
C118 C116 1.381 . S
C118 C117 1.387 . S
C118 H135 0.931 . S
C119 C112 1.399 . S
C119 C116 1.487 . S
C119 N136 1.343 . S
H120 C92 0.931 . S
H121 C94 0.930 . S
H122 C96 0.930 . S
H123 C97 0.931 . S
H124 C99 0.931 . S
H125 C101 0.930 . S
H126 C103 0.930 . S
H127 C104 0.931 . S
H128 C106 0.931 . S
H129 C108 0.930 . S
H130 C110 0.930 . S
H131 C111 0.931 . S
H132 C113 0.931 . S
H133 C115 0.930 . S
H134 C117 0.930 . S
H135 C118 0.931 . S
N136 C98 1.343 . S
N136 C119 1.343 . S
N137 C105 1.343 . S
N137 C112 1.343 . S
C138 C139 1.384 . S
C138 C140 1.384 . S
C138 H166 0.931 . S
C139 C138 1.384 . S
C139 C142 1.382 . S
C140 C138 1.384 . S
C140 C141 1.381 . S
C140 H167 0.930 . S
C141 C140 1.381 . S
C141 C143 1.381 . S
C141 C144 1.487 . S
C142 C139 1.382 . S
C142 C143 1.387 . S
C142 H168 0.930 . S
C143 C141 1.381 . S
C143 C142 1.387 . S
C143 H169 0.931 . S
C144 C141 1.487 . S
C144 C151 1.399 . S
C144 N182 1.343 . S
C145 C146 1.384 . S
C145 C147 1.384 . S
C145 H170 0.931 . S
C146 C145 1.384 . S
C146 C149 1.382 . S
C147 C145 1.384 . S
C147 C148 1.381 . S
C147 H171 0.930 . S
C148 C147 1.381 . S
C148 C150 1.381 . S
C148 C151 1.487 . S
C149 C146 1.382 . S
C149 C150 1.387 . S
C149 H172 0.930 . S
C150 C148 1.381 . S
C150 C149 1.387 . S
C150 H173 0.931 . S
C151 C144 1.399 . S
C151 C148 1.487 . S
C151 N183 1.343 1_655 S
C152 C153 1.384 . S
C152 C154 1.384 . S
C152 H174 0.931 . S
C153 C152 1.384 . S
C153 C156 1.382 . S
C154 C152 1.384 . S
C154 C155 1.381 . S
C154 H175 0.930 . S
C155 C154 1.381 . S
C155 C157 1.381 . S
C155 C158 1.487 . S
C156 C153 1.382 . S
C156 C157 1.387 . S
C156 H176 0.930 . S
C157 C155 1.381 . S
C157 C156 1.387 . S
C157 H177 0.931 . S
C158 C155 1.487 . S
C158 C165 1.399 . S
C158 N183 1.343 . S
C159 C160 1.384 . S
C159 C161 1.384 . S
C159 H178 0.931 . S
C160 C159 1.384 . S
C160 C163 1.382 . S
C161 C159 1.384 . S
C161 C162 1.381 . S
C161 H179 0.930 . S
C162 C161 1.381 . S
C162 C164 1.381 . S
C162 C165 1.487 . S
C163 C160 1.382 . S
C163 C164 1.387 . S
C163 H180 0.930 . S
C164 C162 1.381 . S
C164 C163 1.387 . S
C164 H181 0.931 . S
C165 C158 1.399 . S
C165 C162 1.487 . S
C165 N182 1.343 1_455 S
H166 C138 0.931 . S
H167 C140 0.930 . S
H168 C142 0.930 . S
H169 C143 0.931 . S
H170 C145 0.931 . S
H171 C147 0.930 . S
H172 C149 0.930 . S
H173 C150 0.931 . S
H174 C152 0.931 . S
H175 C154 0.930 . S
H176 C156 0.930 . S
H177 C157 0.931 . S
H178 C159 0.931 . S
H179 C161 0.930 . S
H180 C163 0.930 . S
H181 C164 0.931 . S
N182 C144 1.343 . S
N182 C165 1.343 1_655 S
N183 C151 1.343 1_455 S
N183 C158 1.343 . S
C184 C185 1.384 . S
C184 C186 1.384 . S
C184 H212 0.931 . S
C185 C184 1.384 . S
C185 C188 1.382 . S
C186 C184 1.384 . S
C186 C187 1.381 . S
C186 H213 0.918 1_556 S
C187 C186 1.381 . S
C187 C189 1.381 . S
C187 C190 1.487 . S
C188 C185 1.382 . S
C188 C189 1.387 . S
C188 H214 0.930 . S
C189 C187 1.381 . S
C189 C188 1.387 . S
C189 H215 0.931 . S
C190 C187 1.487 . S
C190 C197 1.409 1_556 S
C190 N228 1.343 1_565 S
C191 C192 1.384 . S
C191 C193 1.384 . S
C191 H216 0.931 . S
C192 C191 1.384 . S
C192 C195 1.382 . S
C193 C191 1.384 . S
C193 C194 1.381 . S
C193 H217 0.930 . S
C194 C193 1.381 . S
C194 C196 1.381 . S
C194 C197 1.508 . S
C195 C192 1.382 . S
C195 C196 1.387 . S
C195 H218 0.930 . S
C196 C194 1.381 . S
C196 C195 1.387 . S
C196 H219 0.931 1_565 S
C197 C190 1.409 1_554 S
C197 C194 1.508 . S
C197 N229 1.311 1_565 S
C198 C199 1.384 . S
C198 C200 1.384 1_554 S
C198 H220 0.932 1_554 S
C199 C198 1.384 . S
C199 C202 1.382 . S
C200 C198 1.384 1_556 S
C200 C201 1.381 1_556 S
C200 H221 0.930 . S
C201 C200 1.381 1_554 S
C201 C203 1.381 . S
C201 C204 1.487 1_554 S
C202 C199 1.382 . S
C202 C203 1.387 . S
C202 H222 0.930 . S
C203 C201 1.381 . S
C203 C202 1.387 . S
C203 H223 0.931 . S
C204 C201 1.487 1_556 S
C204 C211 1.399 . S
C204 N229 1.343 1_556 S
C205 C206 1.384 . S
C205 C207 1.384 . S
C205 H224 0.931 . S
C206 C205 1.384 . S
C206 C209 1.382 . S
C207 C205 1.384 . S
C207 C208 1.381 . S
C207 H225 0.930 . S
C208 C207 1.381 . S
C208 C210 1.381 . S
C208 C211 1.487 . S
C209 C206 1.382 . S
C209 C210 1.387 . S
C209 H226 0.930 . S
C210 C208 1.381 . S
C210 C209 1.387 . S
C210 H227 0.931 . S
C211 C204 1.399 . S
C211 C208 1.487 . S
C211 N228 1.343 . S
H212 C184 0.931 . S
H213 C186 0.918 1_554 S
H214 C188 0.930 . S
H215 C189 0.931 . S
H216 C191 0.931 . S
H217 C193 0.930 . S
H218 C195 0.930 . S
H219 C196 0.931 1_545 S
H220 C198 0.932 1_556 S
H221 C200 0.930 . S
H222 C202 0.930 . S
H223 C203 0.931 . S
H224 C205 0.931 . S
H225 C207 0.930 . S
H226 C209 0.930 . S
H227 C210 0.931 . S
N228 C190 1.343 1_545 S
N228 C211 1.343 . S
N229 C197 1.311 1_545 S
N229 C204 1.343 1_554 S
C230 C231 1.384 . S
C230 C232 1.384 . S
C230 H258 0.931 . S
C231 C230 1.384 . S
C231 C234 1.382 . S
C232 C230 1.384 . S
C232 C233 1.381 . S
C232 H259 0.930 . S
C233 C232 1.381 . S
C233 C235 1.381 . S
C233 C236 1.487 . S
C234 C231 1.382 . S
C234 C235 1.387 . S
C234 H260 0.930 . S
C235 C233 1.381 . S
C235 C234 1.387 . S
C235 H261 0.931 . S
C236 C233 1.487 . S
C236 C243 1.399 . S
C236 N274 1.343 . S
C237 C238 1.384 . S
C237 C239 1.384 . S
C237 H262 0.931 . S
C238 C237 1.384 . S
C238 C241 1.382 . S
C239 C237 1.384 . S
C239 C240 1.381 . S
C239 H263 0.930 . S
C240 C239 1.381 . S
C240 C242 1.381 . S
C240 C243 1.487 . S
C241 C238 1.382 . S
C241 C242 1.387 . S
C241 H264 0.930 . S
C242 C240 1.381 . S
C242 C241 1.387 . S
C242 H265 0.931 . S
C243 C236 1.399 . S
C243 C240 1.487 . S
C243 N275 1.343 . S
C244 C245 1.384 . S
C244 C246 1.384 . S
C244 H266 0.931 . S
C245 C244 1.384 . S
C245 C248 1.382 . S
C246 C244 1.384 . S
C246 C247 1.381 . S
C246 H267 0.930 . S
C247 C246 1.381 . S
C247 C249 1.381 . S
C247 C250 1.487 . S
C248 C245 1.382 . S
C248 C249 1.387 . S
C248 H268 0.930 . S
C249 C247 1.381 . S
C249 C248 1.387 . S
C249 H269 0.931 . S
C250 C247 1.487 . S
C250 C257 1.399 . S
C250 N275 1.343 . S
C251 C252 1.384 . S
C251 C253 1.384 . S
C251 H270 0.931 . S
C252 C251 1.384 . S
C252 C255 1.382 . S
C253 C251 1.384 . S
C253 C254 1.381 . S
C253 H271 0.930 . S
C254 C253 1.381 . S
C254 C256 1.381 . S
C254 C257 1.487 . S
C255 C252 1.382 . S
C255 C256 1.387 . S
C255 H272 0.930 . S
C256 C254 1.381 . S
C256 C255 1.387 . S
C256 H273 0.931 . S
C257 C250 1.399 . S
C257 C254 1.487 . S
C257 N274 1.343 . S
H258 C230 0.931 . S
H259 C232 0.930 . S
H260 C234 0.930 . S
H261 C235 0.931 . S
H262 C237 0.931 . S
H263 C239 0.930 . S
H264 C241 0.930 . S
H265 C242 0.931 . S
H266 C244 0.931 . S
H267 C246 0.930 . S
H268 C248 0.930 . S
H269 C249 0.931 . S
H270 C251 0.931 . S
H271 C253 0.930 . S
H272 C255 0.930 . S
H273 C256 0.931 . S
N274 C236 1.343 . S
N274 C257 1.343 . S
N275 C243 1.343 . S
N275 C250 1.343 . S
Mg276 O277 2.028 . S
Mg276 O283 1.986 . S
Mg276 O285 2.114 . S
Mg276 O286 2.251 . S
Mg276 O289 2.010 . S
O277 Mg276 2.028 . S
O277 C280 1.250 . S
O278 Mg279 2.028 . S
O278 C280 1.248 . S
Mg279 O278 2.028 . S
Mg279 O284 2.032 . S
Mg279 O286 2.079 . S
C280 O277 1.250 . S
C280 O278 1.248 . S
C281 O282 1.264 . S
C281 O289 1.249 . S
O282 C281 1.264 . S
O283 Mg276 1.986 . S
O283 C287 1.246 . S
O284 Mg279 2.032 . S
O284 C287 1.259 . S
O285 Mg276 2.114 . S
O285 C288 1.252 . S
O286 Mg276 2.251 . S
O286 Mg279 2.079 . S
O286 C288 1.273 . S
C287 O283 1.246 . S
C287 O284 1.259 . S
C288 O285 1.252 . S
C288 O286 1.273 . S
O289 Mg276 2.010 . S
O289 C281 1.249 . S
Mg290 O291 2.028 . S
Mg290 O297 1.986 . S
Mg290 O299 2.114 . S
Mg290 O300 2.251 . S
Mg290 O303 2.010 . S
O291 Mg290 2.028 . S
O291 C294 1.250 . S
O292 Mg293 2.028 . S
O292 C294 1.248 . S
Mg293 O292 2.028 . S
Mg293 O298 2.032 . S
Mg293 O300 2.079 . S
C294 O291 1.250 . S
C294 O292 1.248 . S
C295 O296 1.264 . S
C295 O303 1.249 . S
O296 C295 1.264 . S
O297 Mg290 1.986 . S
O297 C301 1.246 . S
O298 Mg293 2.032 . S
O298 C301 1.259 . S
O299 Mg290 2.114 . S
O299 C302 1.252 . S
O300 Mg290 2.251 . S
O300 Mg293 2.079 . S
O300 C302 1.273 . S
C301 O297 1.246 . S
C301 O298 1.259 . S
C302 O299 1.252 . S
C302 O300 1.273 . S
O303 Mg290 2.010 . S
O303 C295 1.249 . S
Mg304 O305 2.028 . S
Mg304 O311 1.986 . S
Mg304 O313 2.114 . S
Mg304 O314 2.251 . S
Mg304 O317 2.010 . S
O305 Mg304 2.028 . S
O305 C308 1.250 . S
O306 Mg307 2.028 . S
O306 C308 1.248 . S
Mg307 O306 2.028 . S
Mg307 O312 2.032 . S
Mg307 O314 2.079 . S
C308 O305 1.250 . S
C308 O306 1.248 . S
C309 O310 1.264 . S
C309 O317 1.249 . S
O310 C309 1.264 . S
O311 Mg304 1.986 . S
O311 C315 1.246 . S
O312 Mg307 2.032 . S
O312 C315 1.259 . S
O313 Mg304 2.114 . S
O313 C316 1.252 . S
O314 Mg304 2.251 . S
O314 Mg307 2.079 . S
O314 C316 1.273 . S
C315 O311 1.246 . S
C315 O312 1.259 . S
C316 O313 1.252 . S
C316 O314 1.273 . S
O317 Mg304 2.010 . S
O317 C309 1.249 . S
Mg318 O319 2.028 . S
Mg318 O325 1.986 . S
Mg318 O327 2.114 . S
Mg318 O328 2.251 . S
Mg318 O331 2.010 . S
O319 Mg318 2.028 . S
O319 C322 1.250 . S
O320 Mg321 2.028 . S
O320 C322 1.248 . S
Mg321 O320 2.028 . S
Mg321 O326 2.032 . S
Mg321 O328 2.079 . S
C322 O319 1.250 . S
C322 O320 1.248 . S
C323 O324 1.264 . S
C323 O331 1.249 . S
O324 C323 1.264 . S
O325 Mg318 1.986 . S
O325 C329 1.246 . S
O326 Mg321 2.032 . S
O326 C329 1.259 . S
O327 Mg318 2.114 . S
O327 C330 1.252 . S
O328 Mg318 2.251 . S
O328 Mg321 2.079 . S
O328 C330 1.273 . S
C329 O325 1.246 . S
C329 O326 1.259 . S
C330 O327 1.252 . S
C330 O328 1.273 . S
O331 Mg318 2.010 . S
O331 C323 1.249 . S
Mg332 O333 2.028 . S
Mg332 O339 1.986 . S
Mg332 O341 2.114 . S
Mg332 O342 2.251 . S
Mg332 O345 2.010 . S
O333 Mg332 2.028 . S
O333 C336 1.250 . S
O334 Mg335 2.028 . S
O334 C336 1.248 . S
Mg335 O334 2.028 . S
Mg335 O340 2.032 . S
Mg335 O342 2.079 . S
C336 O333 1.250 . S
C336 O334 1.248 . S
C337 O338 1.264 . S
C337 O345 1.249 . S
O338 C337 1.264 . S
O339 Mg332 1.986 . S
O339 C343 1.246 . S
O340 Mg335 2.032 . S
O340 C343 1.259 . S
O341 Mg332 2.114 . S
O341 C344 1.252 . S
O342 Mg332 2.251 . S
O342 Mg335 2.079 . S
O342 C344 1.273 . S
C343 O339 1.246 . S
C343 O340 1.259 . S
C344 O341 1.252 . S
C344 O342 1.273 . S
O345 Mg332 2.010 . S
O345 C337 1.249 . S
Mg346 O347 2.028 . S
Mg346 O353 1.986 . S
Mg346 O355 2.114 . S
Mg346 O356 2.251 . S
Mg346 O359 2.010 . S
O347 Mg346 2.028 . S
O347 C350 1.250 . S
O348 Mg349 2.028 . S
O348 C350 1.248 . S
Mg349 O348 2.028 . S
Mg349 O354 2.032 . S
Mg349 O356 2.079 . S
C350 O347 1.250 . S
C350 O348 1.248 . S
C351 O352 1.264 . S
C351 O359 1.249 . S
O352 C351 1.264 . S
O353 Mg346 1.986 . S
O353 C357 1.246 . S
O354 Mg349 2.032 . S
O354 C357 1.259 . S
O355 Mg346 2.114 . S
O355 C358 1.252 . S
O356 Mg346 2.251 . S
O356 Mg349 2.079 . S
O356 C358 1.273 . S
C357 O353 1.246 . S
C357 O354 1.259 . S
C358 O355 1.252 . S
C358 O356 1.273 . S
O359 Mg346 2.010 . S
O359 C351 1.249 . S
H360 C372 0.930 . S
H361 C374 0.930 . S
H362 C375 0.930 . S
H363 C379 0.959 . S
H364 C379 0.959 . S
H365 C379 0.961 . S
H366 C380 0.960 . S
H367 C380 0.961 . S
H368 C380 0.959 . S
H369 C383 0.929 . S
H370 C384 0.931 . S
H371 C386 0.930 . S
C372 H360 0.930 . S
C372 C373 1.399 . S
C372 C377 1.399 . S
C373 C372 1.399 . S
C373 C374 1.376 . S
C374 H361 0.930 . S
C374 C373 1.376 . S
C374 C375 1.388 . S
C375 H362 0.930 . S
C375 C374 1.388 . S
C375 C376 1.390 . S
C376 C375 1.390 . S
C376 C377 1.394 . S
C376 C382 1.465 . S
C377 C372 1.399 . S
C377 C376 1.394 . S
C377 C378 1.516 . S
C378 C377 1.516 . S
C378 C379 1.502 . S
C378 C380 1.561 . S
C378 C381 1.526 . S
C379 H363 0.959 . S
C379 H364 0.959 . S
C379 H365 0.961 . S
C379 C378 1.502 . S
C380 H366 0.960 . S
C380 H367 0.961 . S
C380 H368 0.959 . S
C380 C378 1.561 . S
C381 C378 1.526 . S
C381 C382 1.396 . S
C381 C386 1.390 . S
C382 C376 1.465 . S
C382 C381 1.396 . S
C382 C383 1.399 . S
C383 H369 0.929 . S
C383 C382 1.399 . S
C383 C384 1.385 . S
C384 H370 0.931 . S
C384 C383 1.385 . S
C384 C385 1.389 . S
C385 C384 1.389 . S
C385 C386 1.387 . S
C386 H371 0.930 . S
C386 C381 1.390 . S
C386 C385 1.387 . S
H387 C399 0.930 . S
H388 C401 0.930 . S
H389 C402 0.930 . S
H390 C406 0.959 . S
H391 C406 0.959 . S
H392 C406 0.961 . S
H393 C407 0.960 . S
H394 C407 0.961 . S
H395 C407 0.959 . S
H396 C410 0.929 . S
H397 C411 0.931 . S
H398 C413 0.930 . S
C399 H387 0.930 . S
C399 C400 1.399 . S
C399 C404 1.399 . S
C400 C399 1.399 . S
C400 C401 1.376 . S
C401 H388 0.930 . S
C401 C400 1.376 . S
C401 C402 1.388 . S
C402 H389 0.930 . S
C402 C401 1.388 . S
C402 C403 1.390 . S
C403 C402 1.390 . S
C403 C404 1.394 . S
C403 C409 1.465 . S
C404 C399 1.399 . S
C404 C403 1.394 . S
C404 C405 1.516 . S
C405 C404 1.516 . S
C405 C406 1.502 . S
C405 C407 1.561 . S
C405 C408 1.526 . S
C406 H390 0.959 . S
C406 H391 0.959 . S
C406 H392 0.961 . S
C406 C405 1.502 . S
C407 H393 0.960 . S
C407 H394 0.961 . S
C407 H395 0.959 . S
C407 C405 1.561 . S
C408 C405 1.526 . S
C408 C409 1.396 . S
C408 C413 1.390 . S
C409 C403 1.465 . S
C409 C408 1.396 . S
C409 C410 1.399 . S
C410 H396 0.929 . S
C410 C409 1.399 . S
C410 C411 1.385 . S
C411 H397 0.931 . S
C411 C410 1.385 . S
C411 C412 1.389 . S
C412 C411 1.389 . S
C412 C413 1.387 . S
C413 H398 0.930 . S
C413 C408 1.390 . S
C413 C412 1.387 . S
H414 C426 0.930 . S
H415 C428 0.930 . S
H416 C429 0.930 . S
H417 C433 0.959 . S
H418 C433 0.959 . S
H419 C433 0.961 . S
H420 C434 0.960 . S
H421 C434 0.961 . S
H422 C434 0.959 . S
H423 C437 0.929 . S
H424 C438 0.931 . S
H425 C440 0.930 . S
C426 H414 0.930 . S
C426 C427 1.399 . S
C426 C431 1.399 . S
C427 C426 1.399 . S
C427 C428 1.376 . S
C428 H415 0.930 . S
C428 C427 1.376 . S
C428 C429 1.388 . S
C429 H416 0.930 . S
C429 C428 1.388 . S
C429 C430 1.390 . S
C430 C429 1.390 . S
C430 C431 1.394 . S
C430 C436 1.465 . S
C431 C426 1.399 . S
C431 C430 1.394 . S
C431 C432 1.516 . S
C432 C431 1.516 . S
C432 C433 1.502 . S
C432 C434 1.561 . S
C432 C435 1.526 . S
C433 H417 0.959 . S
C433 H418 0.959 . S
C433 H419 0.961 . S
C433 C432 1.502 . S
C434 H420 0.960 . S
C434 H421 0.961 . S
C434 H422 0.959 . S
C434 C432 1.561 . S
C435 C432 1.526 . S
C435 C436 1.396 . S
C435 C440 1.390 . S
C436 C430 1.465 . S
C436 C435 1.396 . S
C436 C437 1.399 . S
C437 H423 0.929 . S
C437 C436 1.399 . S
C437 C438 1.385 . S
C438 H424 0.931 . S
C438 C437 1.385 . S
C438 C439 1.389 . S
C439 C438 1.389 . S
C439 C440 1.387 . S
C440 H425 0.930 . S
C440 C435 1.390 . S
C440 C439 1.387 . S
H441 C453 0.930 . S
H442 C455 0.930 . S
H443 C456 0.930 . S
H444 C460 0.959 . S
H445 C460 0.959 . S
H446 C460 0.961 . S
H447 C461 0.960 . S
H448 C461 0.961 . S
H449 C461 0.959 . S
H450 C464 0.929 . S
H451 C465 0.931 . S
H452 C467 0.930 . S
C453 H441 0.930 . S
C453 C454 1.399 . S
C453 C458 1.399 . S
C454 C453 1.399 . S
C454 C455 1.376 . S
C455 H442 0.930 . S
C455 C454 1.376 . S
C455 C456 1.388 . S
C456 H443 0.930 . S
C456 C455 1.388 . S
C456 C457 1.390 . S
C457 C456 1.390 . S
C457 C458 1.394 . S
C457 C463 1.465 . S
C458 C453 1.399 . S
C458 C457 1.394 . S
C458 C459 1.516 . S
C459 C458 1.516 . S
C459 C460 1.502 . S
C459 C461 1.561 . S
C459 C462 1.526 . S
C460 H444 0.959 . S
C460 H445 0.959 . S
C460 H446 0.961 . S
C460 C459 1.502 . S
C461 H447 0.960 . S
C461 H448 0.961 . S
C461 H449 0.959 . S
C461 C459 1.561 . S
C462 C459 1.526 . S
C462 C463 1.396 . S
C462 C467 1.390 . S
C463 C457 1.465 . S
C463 C462 1.396 . S
C463 C464 1.399 . S
C464 H450 0.929 . S
C464 C463 1.399 . S
C464 C465 1.385 . S
C465 H451 0.931 . S
C465 C464 1.385 . S
C465 C466 1.389 . S
C466 C465 1.389 . S
C466 C467 1.387 . S
C467 H452 0.930 . S
C467 C462 1.390 . S
C467 C466 1.387 . S
H468 C480 0.930 . S
H469 C482 0.930 . S
H470 C483 0.930 . S
H471 C487 0.959 . S
H472 C487 0.959 . S
H473 C487 0.961 . S
H474 C488 0.960 . S
H475 C488 0.961 . S
H476 C488 0.959 . S
H477 C491 0.929 . S
H478 C492 0.931 . S
H479 C494 0.930 . S
C480 H468 0.930 . S
C480 C481 1.399 . S
C480 C485 1.399 . S
C481 C480 1.399 . S
C481 C482 1.376 . S
C482 H469 0.930 . S
C482 C481 1.376 . S
C482 C483 1.388 . S
C483 H470 0.930 . S
C483 C482 1.388 . S
C483 C484 1.390 . S
C484 C483 1.390 . S
C484 C485 1.394 . S
C484 C490 1.465 . S
C485 C480 1.399 . S
C485 C484 1.394 . S
C485 C486 1.516 . S
C486 C485 1.516 . S
C486 C487 1.502 . S
C486 C488 1.561 . S
C486 C489 1.526 . S
C487 H471 0.959 . S
C487 H472 0.959 . S
C487 H473 0.961 . S
C487 C486 1.502 . S
C488 H474 0.960 . S
C488 H475 0.961 . S
C488 H476 0.959 . S
C488 C486 1.561 . S
C489 C486 1.526 . S
C489 C490 1.396 . S
C489 C494 1.390 . S
C490 C484 1.465 . S
C490 C489 1.396 . S
C490 C491 1.399 . S
C491 H477 0.929 . S
C491 C490 1.399 . S
C491 C492 1.385 . S
C492 H478 0.931 . S
C492 C491 1.385 . S
C492 C493 1.389 . S
C493 C492 1.389 . S
C493 C494 1.387 . S
C494 H479 0.930 . S
C494 C489 1.390 . S
C494 C493 1.387 . S
H495 C507 0.930 . S
H496 C509 0.930 . S
H497 C510 0.930 . S
H498 C514 0.959 . S
H499 C514 0.959 . S
H500 C514 0.961 . S
H501 C515 0.960 . S
H502 C515 0.961 . S
H503 C515 0.959 . S
H504 C518 0.929 . S
H505 C519 0.931 . S
H506 C521 0.930 . S
C507 H495 0.930 . S
C507 C508 1.399 . S
C507 C512 1.399 . S
C508 C507 1.399 . S
C508 C509 1.376 . S
C509 H496 0.930 . S
C509 C508 1.376 . S
C509 C510 1.388 . S
C510 H497 0.930 . S
C510 C509 1.388 . S
C510 C511 1.390 . S
C511 C510 1.390 . S
C511 C512 1.394 . S
C511 C517 1.465 . S
C512 C507 1.399 . S
C512 C511 1.394 . S
C512 C513 1.516 . S
C513 C512 1.516 . S
C513 C514 1.502 . S
C513 C515 1.561 . S
C513 C516 1.526 . S
C514 H498 0.959 . S
C514 H499 0.959 . S
C514 H500 0.961 . S
C514 C513 1.502 . S
C515 H501 0.960 . S
C515 H502 0.961 . S
C515 H503 0.959 . S
C515 C513 1.561 . S
C516 C513 1.526 . S
C516 C517 1.396 . S
C516 C521 1.390 . S
C517 C511 1.465 . S
C517 C516 1.396 . S
C517 C518 1.399 . S
C518 H504 0.929 . S
C518 C517 1.399 . S
C518 C519 1.385 . S
C519 H505 0.931 . S
C519 C518 1.385 . S
C519 C520 1.389 . S
C520 C519 1.389 . S
C520 C521 1.387 . S
C521 H506 0.930 . S
C521 C516 1.390 . S
C521 C520 1.387 . S
H522 C534 0.930 . S
H523 C536 0.930 . S
H524 C537 0.930 . S
H525 C541 0.959 . S
H526 C541 0.959 . S
H527 C541 0.961 . S
H528 C542 0.960 . S
H529 C542 0.961 . S
H530 C542 0.959 . S
H531 C545 0.929 . S
H532 C546 0.931 . S
H533 C548 0.930 . S
C534 H522 0.930 . S
C534 C535 1.399 . S
C534 C539 1.399 . S
C535 C534 1.399 . S
C535 C536 1.376 . S
C536 H523 0.930 . S
C536 C535 1.376 . S
C536 C537 1.388 . S
C537 H524 0.930 . S
C537 C536 1.388 . S
C537 C538 1.390 . S
C538 C537 1.390 . S
C538 C539 1.394 . S
C538 C544 1.465 . S
C539 C534 1.399 . S
C539 C538 1.394 . S
C539 C540 1.516 . S
C540 C539 1.516 . S
C540 C541 1.502 . S
C540 C542 1.561 . S
C540 C543 1.526 . S
C541 H525 0.959 . S
C541 H526 0.959 . S
C541 H527 0.961 . S
C541 C540 1.502 . S
C542 H528 0.960 . S
C542 H529 0.961 . S
C542 H530 0.959 . S
C542 C540 1.561 . S
C543 C540 1.526 . S
C543 C544 1.396 . S
C543 C548 1.390 . S
C544 C538 1.465 . S
C544 C543 1.396 . S
C544 C545 1.399 . S
C545 H531 0.929 . S
C545 C544 1.399 . S
C545 C546 1.385 . S
C546 H532 0.931 . S
C546 C545 1.385 . S
C546 C547 1.389 . S
C547 C546 1.389 . S
C547 C548 1.387 . S
C548 H533 0.930 . S
C548 C543 1.390 . S
C548 C547 1.387 . S
H549 C561 0.930 . S
H550 C563 0.930 . S
H551 C564 0.930 . S
H552 C568 0.959 . S
H553 C568 0.959 . S
H554 C568 0.961 . S
H555 C569 0.960 . S
H556 C569 0.961 . S
H557 C569 0.959 . S
H558 C572 0.929 . S
H559 C573 0.931 . S
H560 C575 0.930 . S
C561 H549 0.930 . S
C561 C562 1.399 . S
C561 C566 1.399 . S
C562 C561 1.399 . S
C562 C563 1.376 . S
C563 H550 0.930 . S
C563 C562 1.376 . S
C563 C564 1.388 . S
C564 H551 0.930 . S
C564 C563 1.388 . S
C564 C565 1.390 . S
C565 C564 1.390 . S
C565 C566 1.394 . S
C565 C571 1.465 . S
C566 C561 1.399 . S
C566 C565 1.394 . S
C566 C567 1.516 . S
C567 C566 1.516 . S
C567 C568 1.502 . S
C567 C569 1.561 . S
C567 C570 1.526 . S
C568 H552 0.959 . S
C568 H553 0.959 . S
C568 H554 0.961 . S
C568 C567 1.502 . S
C569 H555 0.960 . S
C569 H556 0.961 . S
C569 H557 0.959 . S
C569 C567 1.561 . S
C570 C567 1.526 . S
C570 C571 1.396 . S
C570 C575 1.390 . S
C571 C565 1.465 . S
C571 C570 1.396 . S
C571 C572 1.399 . S
C572 H558 0.929 . S
C572 C571 1.399 . S
C572 C573 1.385 . S
C573 H559 0.931 . S
C573 C572 1.385 . S
C573 C574 1.389 . S
C574 C573 1.389 . S
C574 C575 1.387 . S
C575 H560 0.930 . S
C575 C570 1.390 . S
C575 C574 1.387 . S
H576 C588 0.930 . S
H577 C590 0.930 . S
H578 C591 0.930 . S
H579 C595 0.959 . S
H580 C595 0.959 . S
H581 C595 0.961 . S
H582 C596 0.960 . S
H583 C596 0.961 . S
H584 C596 0.959 . S
H585 C599 0.929 . S
H586 C600 0.931 . S
H587 C602 0.930 . S
C588 H576 0.930 . S
C588 C589 1.399 . S
C588 C593 1.399 . S
C589 C588 1.399 . S
C589 C590 1.376 . S
C590 H577 0.930 . S
C590 C589 1.376 . S
C590 C591 1.388 . S
C591 H578 0.930 . S
C591 C590 1.388 . S
C591 C592 1.390 . S
C592 C591 1.390 . S
C592 C593 1.394 . S
C592 C598 1.465 . S
C593 C588 1.399 . S
C593 C592 1.394 . S
C593 C594 1.516 . S
C594 C593 1.516 . S
C594 C595 1.502 . S
C594 C596 1.561 . S
C594 C597 1.526 . S
C595 H579 0.959 . S
C595 H580 0.959 . S
C595 H581 0.961 . S
C595 C594 1.502 . S
C596 H582 0.960 . S
C596 H583 0.961 . S
C596 H584 0.959 . S
C596 C594 1.561 . S
C597 C594 1.526 . S
C597 C598 1.396 . S
C597 C602 1.390 . S
C598 C592 1.465 . S
C598 C597 1.396 . S
C598 C599 1.399 . S
C599 H585 0.929 . S
C599 C598 1.399 . S
C599 C600 1.385 . S
C600 H586 0.931 . S
C600 C599 1.385 . S
C600 C601 1.389 . S
C601 C600 1.389 . S
C601 C602 1.387 . S
C602 H587 0.930 . S
C602 C597 1.390 . S
C602 C601 1.387 . S
H603 C615 0.930 . S
H604 C617 0.930 1_556 S
H605 C618 0.930 . S
H606 C622 0.959 . S
H607 C622 0.959 . S
H608 C622 0.961 . S
H609 C623 0.960 . S
H610 C623 0.961 . S
H611 C623 0.959 . S
H612 C626 0.929 . S
H613 C627 0.931 . S
H614 C629 0.930 . S
C615 H603 0.930 . S
C615 C616 1.399 . S
C615 C620 1.399 . S
C616 C615 1.399 . S
C616 C617 1.376 . S
C617 H604 0.930 1_554 S
C617 C616 1.376 . S
C617 C618 1.388 . S
C618 H605 0.930 . S
C618 C617 1.388 . S
C618 C619 1.390 . S
C619 C618 1.390 . S
C619 C620 1.394 . S
C619 C625 1.465 . S
C620 C615 1.399 . S
C620 C619 1.394 . S
C620 C621 1.516 . S
C621 C620 1.516 . S
C621 C622 1.502 . S
C621 C623 1.561 . S
C621 C624 1.526 . S
C622 H606 0.959 . S
C622 H607 0.959 . S
C622 H608 0.961 . S
C622 C621 1.502 . S
C623 H609 0.960 . S
C623 H610 0.961 . S
C623 H611 0.959 . S
C623 C621 1.561 . S
C624 C621 1.526 . S
C624 C625 1.396 . S
C624 C629 1.390 . S
C625 C619 1.465 . S
C625 C624 1.396 . S
C625 C626 1.399 . S
C626 H612 0.929 . S
C626 C625 1.399 . S
C626 C627 1.385 . S
C627 H613 0.931 . S
C627 C626 1.385 . S
C627 C628 1.389 . S
C628 C627 1.389 . S
C628 C629 1.387 . S
C629 H614 0.930 . S
C629 C624 1.390 . S
C629 C628 1.387 . S
H630 C642 0.930 . S
H631 C644 0.930 . S
H632 C645 0.930 . S
H633 C649 0.959 . S
H634 C649 0.959 . S
H635 C649 0.961 . S
H636 C650 0.960 . S
H637 C650 0.961 . S
H638 C650 0.959 . S
H639 C653 0.929 . S
H640 C654 0.931 . S
H641 C656 0.930 . S
C642 H630 0.930 . S
C642 C643 1.399 . S
C642 C647 1.399 . S
C643 C642 1.399 . S
C643 C644 1.376 . S
C644 H631 0.930 . S
C644 C643 1.376 . S
C644 C645 1.388 . S
C645 H632 0.930 . S
C645 C644 1.388 . S
C645 C646 1.390 . S
C646 C645 1.390 . S
C646 C647 1.394 . S
C646 C652 1.465 . S
C647 C642 1.399 . S
C647 C646 1.394 . S
C647 C648 1.516 . S
C648 C647 1.516 . S
C648 C649 1.502 . S
C648 C650 1.561 . S
C648 C651 1.526 . S
C649 H633 0.959 . S
C649 H634 0.959 . S
C649 H635 0.961 . S
C649 C648 1.502 . S
C650 H636 0.960 . S
C650 H637 0.961 . S
C650 H638 0.959 . S
C650 C648 1.561 . S
C651 C648 1.526 . S
C651 C652 1.396 . S
C651 C656 1.390 . S
C652 C646 1.465 . S
C652 C651 1.396 . S
C652 C653 1.399 . S
C653 H639 0.929 . S
C653 C652 1.399 . S
C653 C654 1.385 . S
C654 H640 0.931 . S
C654 C653 1.385 . S
C654 C655 1.389 . S
C655 C654 1.389 . S
C655 C656 1.387 . S
C656 H641 0.930 . S
C656 C651 1.390 . S
C656 C655 1.387 . S
H657 C669 0.930 . S
H658 C671 0.930 . S
H659 C672 0.930 . S
H660 C676 0.959 . S
H661 C676 0.959 . S
H662 C676 0.961 . S
H663 C677 0.960 . S
H664 C677 0.961 . S
H665 C677 0.959 . S
H666 C680 0.929 . S
H667 C681 0.931 . S
H668 C683 0.930 . S
C669 H657 0.930 . S
C669 C670 1.399 . S
C669 C674 1.399 . S
C670 C669 1.399 . S
C670 C671 1.376 . S
C671 H658 0.930 . S
C671 C670 1.376 . S
C671 C672 1.388 . S
C672 H659 0.930 . S
C672 C671 1.388 . S
C672 C673 1.390 . S
C673 C672 1.390 . S
C673 C674 1.394 . S
C673 C679 1.465 . S
C674 C669 1.399 . S
C674 C673 1.394 . S
C674 C675 1.516 . S
C675 C674 1.516 . S
C675 C676 1.502 . S
C675 C677 1.561 . S
C675 C678 1.526 . S
C676 H660 0.959 . S
C676 H661 0.959 . S
C676 H662 0.961 . S
C676 C675 1.502 . S
C677 H663 0.960 . S
C677 H664 0.961 . S
C677 H665 0.959 . S
C677 C675 1.561 . S
C678 C675 1.526 . S
C678 C679 1.396 . S
C678 C683 1.390 . S
C679 C673 1.465 . S
C679 C678 1.396 . S
C679 C680 1.399 . S
C680 H666 0.929 . S
C680 C679 1.399 . S
C680 C681 1.385 . S
C681 H667 0.931 . S
C681 C680 1.385 . S
C681 C682 1.389 . S
C682 C681 1.389 . S
C682 C683 1.387 . S
C683 H668 0.930 . S
C683 C678 1.390 . S
C683 C682 1.387 . S
H684 C696 0.930 . S
H685 C698 0.930 . S
H686 C699 0.930 . S
H687 C703 0.959 . S
H688 C703 0.959 . S
H689 C703 0.961 . S
H690 C704 0.960 . S
H691 C704 0.961 . S
H692 C704 0.959 . S
H693 C707 0.929 . S
H694 C708 0.931 . S
H695 C710 0.930 . S
C696 H684 0.930 . S
C696 C697 1.399 . S
C696 C701 1.399 . S
C697 C696 1.399 . S
C697 C698 1.376 . S
C698 H685 0.930 . S
C698 C697 1.376 . S
C698 C699 1.388 . S
C699 H686 0.930 . S
C699 C698 1.388 . S
C699 C700 1.390 . S
C700 C699 1.390 . S
C700 C701 1.394 . S
C700 C706 1.465 . S
C701 C696 1.399 . S
C701 C700 1.394 . S
C701 C702 1.516 . S
C702 C701 1.516 . S
C702 C703 1.502 . S
C702 C704 1.561 . S
C702 C705 1.526 . S
C703 H687 0.959 . S
C703 H688 0.959 . S
C703 H689 0.961 . S
C703 C702 1.502 . S
C704 H690 0.960 . S
C704 H691 0.961 . S
C704 H692 0.959 . S
C704 C702 1.561 . S
C705 C702 1.526 . S
C705 C706 1.396 . S
C705 C710 1.390 . S
C706 C700 1.465 . S
C706 C705 1.396 . S
C706 C707 1.399 . S
C707 H693 0.929 . S
C707 C706 1.399 . S
C707 C708 1.385 . S
C708 H694 0.931 . S
C708 C707 1.385 . S
C708 C709 1.389 . S
C709 C708 1.389 . S
C709 C710 1.387 . S
C710 H695 0.930 . S
C710 C705 1.390 . S
C710 C709 1.387 . S
H711 C723 0.930 . S
H712 C725 0.930 . S
H713 C726 0.930 . S
H714 C730 0.959 . S
H715 C730 0.959 . S
H716 C730 0.961 . S
H717 C731 0.960 . S
H718 C731 0.961 . S
H719 C731 0.959 . S
H720 C734 0.929 . S
H721 C735 0.931 . S
H722 C737 0.930 . S
C723 H711 0.930 . S
C723 C724 1.399 . S
C723 C728 1.399 . S
C724 C723 1.399 . S
C724 C725 1.376 . S
C725 H712 0.930 . S
C725 C724 1.376 . S
C725 C726 1.388 . S
C726 H713 0.930 . S
C726 C725 1.388 . S
C726 C727 1.390 . S
C727 C726 1.390 . S
C727 C728 1.394 . S
C727 C733 1.465 . S
C728 C723 1.399 . S
C728 C727 1.394 . S
C728 C729 1.516 . S
C729 C728 1.516 . S
C729 C730 1.502 . S
C729 C731 1.561 . S
C729 C732 1.526 . S
C730 H714 0.959 . S
C730 H715 0.959 . S
C730 H716 0.961 . S
C730 C729 1.502 . S
C731 H717 0.960 . S
C731 H718 0.961 . S
C731 H719 0.959 . S
C731 C729 1.561 . S
C732 C729 1.526 . S
C732 C733 1.396 . S
C732 C737 1.390 . S
C733 C727 1.465 . S
C733 C732 1.396 . S
C733 C734 1.399 . S
C734 H720 0.929 . S
C734 C733 1.399 . S
C734 C735 1.385 . S
C735 H721 0.931 . S
C735 C734 1.385 . S
C735 C736 1.389 . S
C736 C735 1.389 . S
C736 C737 1.387 . S
C737 H722 0.930 . S
C737 C732 1.390 . S
C737 C736 1.387 . S
H738 C750 0.930 . S
H739 C752 0.930 . S
H740 C753 0.930 . S
H741 C757 0.959 . S
H742 C757 0.959 . S
H743 C757 0.961 . S
H744 C758 0.960 . S
H745 C758 0.961 . S
H746 C758 0.959 . S
H747 C761 0.929 . S
H748 C762 0.931 . S
H749 C764 0.930 . S
C750 H738 0.930 . S
C750 C751 1.399 . S
C750 C755 1.399 . S
C751 C750 1.399 . S
C751 C752 1.376 . S
C752 H739 0.930 . S
C752 C751 1.376 . S
C752 C753 1.388 . S
C753 H740 0.930 . S
C753 C752 1.388 . S
C753 C754 1.390 . S
C754 C753 1.390 . S
C754 C755 1.394 . S
C754 C760 1.465 . S
C755 C750 1.399 . S
C755 C754 1.394 . S
C755 C756 1.516 . S
C756 C755 1.516 . S
C756 C757 1.502 . S
C756 C758 1.561 . S
C756 C759 1.526 . S
C757 H741 0.959 . S
C757 H742 0.959 . S
C757 H743 0.961 . S
C757 C756 1.502 . S
C758 H744 0.960 . S
C758 H745 0.961 . S
C758 H746 0.959 . S
C758 C756 1.561 . S
C759 C756 1.526 . S
C759 C760 1.396 . S
C759 C764 1.390 . S
C760 C754 1.465 . S
C760 C759 1.396 . S
C760 C761 1.399 . S
C761 H747 0.929 . S
C761 C760 1.399 . S
C761 C762 1.385 . S
C762 H748 0.931 . S
C762 C761 1.385 . S
C762 C763 1.389 . S
C763 C762 1.389 . S
C763 C764 1.387 . S
C764 H749 0.930 . S
C764 C759 1.390 . S
C764 C763 1.387 . S
H765 C777 0.930 . S
H766 C779 0.930 . S
H767 C780 0.930 . S
H768 C784 0.959 . S
H769 C784 0.959 . S
H770 C784 0.961 . S
H771 C785 0.960 . S
H772 C785 0.961 . S
H773 C785 0.959 . S
H774 C788 0.929 . S
H775 C789 0.931 . S
H776 C791 0.930 . S
C777 H765 0.930 . S
C777 C778 1.399 . S
C777 C782 1.399 . S
C778 C777 1.399 . S
C778 C779 1.376 . S
C779 H766 0.930 . S
C779 C778 1.376 . S
C779 C780 1.388 . S
C780 H767 0.930 . S
C780 C779 1.388 . S
C780 C781 1.390 . S
C781 C780 1.390 . S
C781 C782 1.394 . S
C781 C787 1.465 . S
C782 C777 1.399 . S
C782 C781 1.394 . S
C782 C783 1.516 . S
C783 C782 1.516 . S
C783 C784 1.502 . S
C783 C785 1.561 . S
C783 C786 1.526 . S
C784 H768 0.959 . S
C784 H769 0.959 . S
C784 H770 0.961 . S
C784 C783 1.502 . S
C785 H771 0.960 . S
C785 H772 0.961 . S
C785 H773 0.959 . S
C785 C783 1.561 . S
C786 C783 1.526 . S
C786 C787 1.396 . S
C786 C791 1.390 1_556 S
C787 C781 1.465 . S
C787 C786 1.396 . S
C787 C788 1.399 1_556 S
C788 H774 0.929 . S
C788 C787 1.399 1_554 S
C788 C789 1.385 . S
C789 H775 0.931 . S
C789 C788 1.385 . S
C789 C790 1.389 . S
C790 C789 1.389 . S
C790 C791 1.387 . S
C791 H776 0.930 . S
C791 C786 1.390 1_554 S
C791 C790 1.387 . S
H792 C804 0.930 . S
H793 C806 0.930 . S
H794 C807 0.930 . S
H795 C811 0.959 . S
H796 C811 0.959 . S
H797 C811 0.961 . S
H798 C812 0.960 . S
H799 C812 0.961 . S
H800 C812 0.959 . S
H801 C815 0.929 . S
H802 C816 0.931 . S
H803 C818 0.930 . S
C804 H792 0.930 . S
C804 C805 1.399 . S
C804 C809 1.399 . S
C805 C804 1.399 . S
C805 C806 1.376 . S
C806 H793 0.930 . S
C806 C805 1.376 . S
C806 C807 1.388 . S
C807 H794 0.930 . S
C807 C806 1.388 . S
C807 C808 1.390 . S
C808 C807 1.390 . S
C808 C809 1.394 . S
C808 C814 1.465 . S
C809 C804 1.399 . S
C809 C808 1.394 . S
C809 C810 1.516 . S
C810 C809 1.516 . S
C810 C811 1.502 . S
C810 C812 1.561 . S
C810 C813 1.526 . S
C811 H795 0.959 . S
C811 H796 0.959 . S
C811 H797 0.961 . S
C811 C810 1.502 . S
C812 H798 0.960 . S
C812 H799 0.961 . S
C812 H800 0.959 . S
C812 C810 1.561 . S
C813 C810 1.526 . S
C813 C814 1.396 . S
C813 C818 1.390 . S
C814 C808 1.465 . S
C814 C813 1.396 . S
C814 C815 1.399 . S
C815 H801 0.929 . S
C815 C814 1.399 . S
C815 C816 1.385 . S
C816 H802 0.931 . S
C816 C815 1.385 . S
C816 C817 1.389 . S
C817 C816 1.389 . S
C817 C818 1.387 . S
C818 H803 0.930 . S
C818 C813 1.390 . S
C818 C817 1.387 . S
H819 C831 0.930 . S
H820 C833 0.930 . S
H821 C834 0.930 . S
H822 C838 0.959 . S
H823 C838 0.959 . S
H824 C838 0.961 . S
H825 C839 0.960 . S
H826 C839 0.961 . S
H827 C839 0.959 . S
H828 C842 0.929 . S
H829 C843 0.931 . S
H830 C845 0.930 . S
C831 H819 0.930 . S
C831 C832 1.399 . S
C831 C836 1.399 . S
C832 C831 1.399 . S
C832 C833 1.376 . S
C833 H820 0.930 . S
C833 C832 1.376 . S
C833 C834 1.388 . S
C834 H821 0.930 . S
C834 C833 1.388 . S
C834 C835 1.390 . S
C835 C834 1.390 . S
C835 C836 1.394 . S
C835 C841 1.465 . S
C836 C831 1.399 . S
C836 C835 1.394 . S
C836 C837 1.516 . S
C837 C836 1.516 . S
C837 C838 1.502 . S
C837 C839 1.561 . S
C837 C840 1.526 . S
C838 H822 0.959 . S
C838 H823 0.959 . S
C838 H824 0.961 . S
C838 C837 1.502 . S
C839 H825 0.960 . S
C839 H826 0.961 . S
C839 H827 0.959 . S
C839 C837 1.561 . S
C840 C837 1.526 . S
C840 C841 1.396 . S
C840 C845 1.390 . S
C841 C835 1.465 . S
C841 C840 1.396 . S
C841 C842 1.399 . S
C842 H828 0.929 . S
C842 C841 1.399 . S
C842 C843 1.385 . S
C843 H829 0.931 . S
C843 C842 1.385 . S
C843 C844 1.389 . S
C844 C843 1.389 . S
C844 C845 1.387 . S
C845 H830 0.930 . S
C845 C840 1.390 . S
C845 C844 1.387 . S
H846 C858 0.930 . S
H847 C860 0.930 . S
H848 C861 0.930 . S
H849 C865 0.959 . S
H850 C865 0.959 . S
H851 C865 0.961 . S
H852 C866 0.960 . S
H853 C866 0.961 . S
H854 C866 0.959 . S
H855 C869 0.929 . S
H856 C870 0.931 . S
H857 C872 0.930 . S
C858 H846 0.930 . S
C858 C859 1.399 . S
C858 C863 1.399 . S
C859 C858 1.399 . S
C859 C860 1.376 . S
C860 H847 0.930 . S
C860 C859 1.376 . S
C860 C861 1.388 . S
C861 H848 0.930 . S
C861 C860 1.388 . S
C861 C862 1.390 . S
C862 C861 1.390 . S
C862 C863 1.394 . S
C862 C868 1.465 . S
C863 C858 1.399 . S
C863 C862 1.394 . S
C863 C864 1.516 . S
C864 C863 1.516 . S
C864 C865 1.502 . S
C864 C866 1.561 . S
C864 C867 1.526 . S
C865 H849 0.959 . S
C865 H850 0.959 . S
C865 H851 0.961 . S
C865 C864 1.502 . S
C866 H852 0.960 . S
C866 H853 0.961 . S
C866 H854 0.959 . S
C866 C864 1.561 . S
C867 C864 1.526 . S
C867 C868 1.396 . S
C867 C872 1.390 . S
C868 C862 1.465 . S
C868 C867 1.396 . S
C868 C869 1.399 . S
C869 H855 0.929 . S
C869 C868 1.399 . S
C869 C870 1.385 . S
C870 H856 0.931 . S
C870 C869 1.385 . S
C870 C871 1.389 . S
C871 C870 1.389 . S
C871 C872 1.387 . S
C872 H857 0.930 . S
C872 C867 1.390 . S
C872 C871 1.387 . S
H873 C885 0.930 . S
H874 C887 0.930 . S
H875 C888 0.930 . S
H876 C892 0.959 . S
H877 C892 0.959 . S
H878 C892 0.961 . S
H879 C893 0.960 . S
H880 C893 0.961 . S
H881 C893 0.959 . S
H882 C896 0.929 . S
H883 C897 0.931 . S
H884 C899 0.930 . S
C885 H873 0.930 . S
C885 C886 1.399 . S
C885 C890 1.399 . S
C886 C885 1.399 . S
C886 C887 1.376 . S
C887 H874 0.930 . S
C887 C886 1.376 . S
C887 C888 1.388 . S
C888 H875 0.930 . S
C888 C887 1.388 . S
C888 C889 1.390 . S
C889 C888 1.390 . S
C889 C890 1.394 . S
C889 C895 1.465 . S
C890 C885 1.399 . S
C890 C889 1.394 . S
C890 C891 1.516 . S
C891 C890 1.516 . S
C891 C892 1.502 . S
C891 C893 1.561 . S
C891 C894 1.526 . S
C892 H876 0.959 . S
C892 H877 0.959 . S
C892 H878 0.961 . S
C892 C891 1.502 . S
C893 H879 0.960 . S
C893 H880 0.961 . S
C893 H881 0.959 . S
C893 C891 1.561 . S
C894 C891 1.526 . S
C894 C895 1.396 . S
C894 C899 1.390 . S
C895 C889 1.465 . S
C895 C894 1.396 . S
C895 C896 1.399 . S
C896 H882 0.929 . S
C896 C895 1.399 . S
C896 C897 1.385 . S
C897 H883 0.931 . S
C897 C896 1.385 . S
C897 C898 1.389 . S
C898 C897 1.389 . S
C898 C899 1.387 . S
C899 H884 0.930 . S
C899 C894 1.390 . S
C899 C898 1.387 . S
H900 C912 0.930 . S
H901 C914 0.930 . S
H902 C915 0.930 . S
H903 C919 0.959 . S
H904 C919 0.959 . S
H905 C919 0.961 . S
H906 C920 0.960 . S
H907 C920 0.961 . S
H908 C920 0.959 . S
H909 C923 0.929 . S
H910 C924 0.931 . S
H911 C926 0.930 . S
C912 H900 0.930 . S
C912 C913 1.399 . S
C912 C917 1.399 . S
C913 C912 1.399 . S
C913 C914 1.376 . S
C914 H901 0.930 . S
C914 C913 1.376 . S
C914 C915 1.388 . S
C915 H902 0.930 . S
C915 C914 1.388 . S
C915 C916 1.390 . S
C916 C915 1.390 . S
C916 C917 1.394 . S
C916 C922 1.465 . S
C917 C912 1.399 . S
C917 C916 1.394 . S
C917 C918 1.516 . S
C918 C917 1.516 . S
C918 C919 1.502 . S
C918 C920 1.561 . S
C918 C921 1.526 . S
C919 H903 0.959 . S
C919 H904 0.959 . S
C919 H905 0.961 . S
C919 C918 1.502 . S
C920 H906 0.960 . S
C920 H907 0.961 . S
C920 H908 0.959 . S
C920 C918 1.561 . S
C921 C918 1.526 . S
C921 C922 1.396 . S
C921 C926 1.390 . S
C922 C916 1.465 . S
C922 C921 1.396 . S
C922 C923 1.399 . S
C923 H909 0.929 . S
C923 C922 1.399 . S
C923 C924 1.385 . S
C924 H910 0.931 . S
C924 C923 1.385 . S
C924 C925 1.389 . S
C925 C924 1.389 . S
C925 C926 1.387 . S
C926 H911 0.930 . S
C926 C921 1.390 . S
C926 C925 1.387 . S
H927 C939 0.930 . S
H928 C941 0.930 . S
H929 C942 0.930 . S
H930 C946 0.959 . S
H931 C946 0.959 . S
H932 C946 0.961 . S
H933 C947 0.960 . S
H934 C947 0.961 . S
H935 C947 0.959 . S
H936 C950 0.929 . S
H937 C951 0.931 . S
H938 C953 0.930 . S
C939 H927 0.930 . S
C939 C940 1.399 . S
C939 C944 1.399 . S
C940 C939 1.399 . S
C940 C941 1.376 . S
C941 H928 0.930 . S
C941 C940 1.376 . S
C941 C942 1.388 . S
C942 H929 0.930 . S
C942 C941 1.388 . S
C942 C943 1.390 . S
C943 C942 1.390 . S
C943 C944 1.394 . S
C943 C949 1.465 . S
C944 C939 1.399 . S
C944 C943 1.394 . S
C944 C945 1.516 . S
C945 C944 1.516 . S
C945 C946 1.502 . S
C945 C947 1.561 . S
C945 C948 1.526 . S
C946 H930 0.959 . S
C946 H931 0.959 . S
C946 H932 0.961 . S
C946 C945 1.502 . S
C947 H933 0.960 . S
C947 H934 0.961 . S
C947 H935 0.959 . S
C947 C945 1.561 . S
C948 C945 1.526 . S
C948 C949 1.396 . S
C948 C953 1.390 . S
C949 C943 1.465 . S
C949 C948 1.396 . S
C949 C950 1.399 . S
C950 H936 0.929 . S
C950 C949 1.399 . S
C950 C951 1.385 . S
C951 H937 0.931 . S
C951 C950 1.385 . S
C951 C952 1.389 . S
C952 C951 1.389 . S
C952 C953 1.387 . S
C953 H938 0.930 . S
C953 C948 1.390 . S
C953 C952 1.387 . S
H954 C966 0.930 . S
H955 C968 0.930 . S
H956 C969 0.930 . S
H957 C973 0.959 . S
H958 C973 0.959 . S
H959 C973 0.961 . S
H960 C974 0.960 1_554 S
H961 C974 0.961 . S
H962 C974 0.959 1_554 S
H963 C977 0.929 1_554 S
H964 C978 0.931 . S
H965 C980 0.930 . S
C966 H954 0.930 . S
C966 C967 1.399 . S
C966 C971 1.399 . S
C967 C966 1.399 . S
C967 C968 1.376 . S
C968 H955 0.930 . S
C968 C967 1.376 . S
C968 C969 1.388 . S
C969 H956 0.930 . S
C969 C968 1.388 . S
C969 C970 1.390 . S
C970 C969 1.390 . S
C970 C971 1.394 . S
C970 C976 1.486 . S
C971 C966 1.399 . S
C971 C970 1.394 . S
C971 C972 1.516 1_554 S
C972 C971 1.516 1_556 S
C972 C973 1.502 . S
C972 C974 1.561 . S
C972 C975 1.526 . S
C973 H957 0.959 . S
C973 H958 0.959 . S
C973 H959 0.961 . S
C973 C972 1.502 . S
C974 H960 0.960 1_556 S
C974 H961 0.961 . S
C974 H962 0.959 1_556 S
C974 C972 1.561 . S
C975 C972 1.526 . S
C975 C976 1.377 1_556 S
C975 C980 1.390 . S
C976 C970 1.486 . S
C976 C975 1.377 1_554 S
C976 C977 1.395 1_554 S
C977 H963 0.929 1_556 S
C977 C976 1.395 1_556 S
C977 C978 1.385 . S
C978 H964 0.931 . S
C978 C977 1.385 . S
C978 C979 1.389 . S
C979 C978 1.389 . S
C979 C980 1.387 . S
C980 H965 0.930 . S
C980 C975 1.390 . S
C980 C979 1.387 . S
H981 C993 0.930 . S
H982 C995 0.930 . S
H983 C996 0.930 . S
H984 C1000 0.959 . S
H985 C1000 0.959 . S
H986 C1000 0.961 . S
H987 C1001 0.960 . S
H988 C1001 0.961 . S
H989 C1001 0.959 . S
H990 C1004 0.929 . S
H991 C1005 0.931 . S
H992 C1007 0.930 . S
C993 H981 0.930 . S
C993 C994 1.399 . S
C993 C998 1.399 . S
C994 C993 1.399 . S
C994 C995 1.376 . S
C995 H982 0.930 . S
C995 C994 1.376 . S
C995 C996 1.388 . S
C996 H983 0.930 . S
C996 C995 1.388 . S
C996 C997 1.390 . S
C997 C996 1.390 . S
C997 C998 1.394 . S
C997 C1003 1.465 . S
C998 C993 1.399 . S
C998 C997 1.394 . S
C998 C999 1.516 . S
C999 C998 1.516 . S
C999 C1000 1.502 . S
C999 C1001 1.561 . S
C999 C1002 1.526 . S
C1000 H984 0.959 . S
C1000 H985 0.959 . S
C1000 H986 0.961 . S
C1000 C999 1.502 . S
C1001 H987 0.960 . S
C1001 H988 0.961 . S
C1001 H989 0.959 . S
C1001 C999 1.561 . S
C1002 C999 1.526 . S
C1002 C1003 1.396 . S
C1002 C1007 1.390 . S
C1003 C997 1.465 . S
C1003 C1002 1.396 . S
C1003 C1004 1.399 . S
C1004 H990 0.929 . S
C1004 C1003 1.399 . S
C1004 C1005 1.385 . S
C1005 H991 0.931 . S
C1005 C1004 1.385 . S
C1005 C1006 1.389 . S
C1006 C1005 1.389 . S
C1006 C1007 1.387 . S
C1007 H992 0.930 . S
C1007 C1002 1.390 . S
C1007 C1006 1.387 . S
C385 C351 1.203 . S
C373 C15 1.534 . S
C400 C61 1.550 . S
C412 C281 1.310 . S
C427 C114 1.540 . S
C439 C301 1.550 . S
C454 C139 1.484 . S
C466 C315 1.489 . S
C493 C323 1.177 . S
C481 C185 1.521 . S
C508 C245 1.510 . S
C520 C337 1.236 . S
C535 C47 1.565 . S
C547 C295 1.208 . S
C562 C100 1.510 . S
C574 C309 1.176 . S
C589 C153 1.442 . S
C601 C329 1.461 . S
C628 C343 1.507 . S
C616 C199 1.475 . S
C655 C357 1.508 . S
C643 C231 1.477 . S
C682 C287 1.541 . S
C670 C1 1.509 . S
C697 C22 1.419 . S
C709 C294 1.440 . S
C724 C68 1.448 . S
C736 C308 1.404 . S
C763 C330 1.430 . S
C751 C107 1.441 . S
C778 C146 1.453 . S
C790 C344 1.457 . S
C817 C358 1.426 . S
C805 C192 1.409 . S
C844 C288 1.385 . S
C832 C252 1.406 . S
C871 C350 1.393 . S
C859 C54 1.439 . S
C886 C93 1.420 . S
C898 C280 1.438 . S
C925 C302 1.443 . S
C913 C160 1.421 . S
C940 C206 1.426 . S
C952 C316 1.448 . S
C967 C238 1.472 . S
C979 C322 1.485 . S
C994 C8 1.463 . S
C1006 C336 1.427 . S
