# Generated by pormake.
# Topology llk, (3,12)-cn, num edge types: 1
# Building blocks:
#     Node 0, Type 0, BuildingBlock: BETDAH_clean_linker_0, # of connection points: 3
#     Node 1, Type 0, BuildingBlock: BETDAH_clean_linker_0, # of connection points: 3
#     Node 2, Type 0, BuildingBlock: BETDAH_clean_linker_0, # of connection points: 3
#     Node 3, Type 0, BuildingBlock: BETDAH_clean_linker_0, # of connection points: 3
#     Node 4, Type 0, BuildingBlock: BETDAH_clean_linker_0, # of connection points: 3
#     Node 5, Type 0, BuildingBlock: BETDAH_clean_linker_0, # of connection points: 3
#     Node 6, Type 0, BuildingBlock: BETDAH_clean_linker_0, # of connection points: 3
#     Node 7, Type 0, BuildingBlock: BETDAH_clean_linker_0, # of connection points: 3
#     Node 8, Type 0, BuildingBlock: BETDAH_clean_linker_0, # of connection points: 3
#     Node 9, Type 0, BuildingBlock: BETDAH_clean_linker_0, # of connection points: 3
#     Node 10, Type 0, BuildingBlock: BETDAH_clean_linker_0, # of connection points: 3
#     Node 11, Type 0, BuildingBlock: BETDAH_clean_linker_0, # of connection points: 3
#     Node 12, Type 0, BuildingBlock: BETDAH_clean_linker_0, # of connection points: 3
#     Node 13, Type 0, BuildingBlock: BETDAH_clean_linker_0, # of connection points: 3
#     Node 14, Type 0, BuildingBlock: BETDAH_clean_linker_0, # of connection points: 3
#     Node 15, Type 0, BuildingBlock: BETDAH_clean_linker_0, # of connection points: 3
#     Node 16, Type 0, BuildingBlock: BETDAH_clean_linker_0, # of connection points: 3
#     Node 17, Type 0, BuildingBlock: BETDAH_clean_linker_0, # of connection points: 3
#     Node 18, Type 0, BuildingBlock: BETDAH_clean_linker_0, # of connection points: 3
#     Node 19, Type 0, BuildingBlock: BETDAH_clean_linker_0, # of connection points: 3
#     Node 20, Type 0, BuildingBlock: BETDAH_clean_linker_0, # of connection points: 3
#     Node 21, Type 0, BuildingBlock: BETDAH_clean_linker_0, # of connection points: 3
#     Node 22, Type 0, BuildingBlock: BETDAH_clean_linker_0, # of connection points: 3
#     Node 23, Type 0, BuildingBlock: BETDAH_clean_linker_0, # of connection points: 3
#     Node 24, Type 1, BuildingBlock: QEWDON_clean_sbu_0, # of connection points: 12
#     Node 25, Type 1, BuildingBlock: QEWDON_clean_sbu_0, # of connection points: 12
#     Node 26, Type 1, BuildingBlock: QEWDON_clean_sbu_0, # of connection points: 12
#     Node 27, Type 1, BuildingBlock: QEWDON_clean_sbu_0, # of connection points: 12
#     Node 28, Type 1, BuildingBlock: QEWDON_clean_sbu_0, # of connection points: 12
#     Node 29, Type 1, BuildingBlock: QEWDON_clean_sbu_0, # of connection points: 12
#     Edge 30, Type (0, 1), BuildingBlock: XUDNAN_clean_linker_2, # of connection points: 2
#     Edge 31, Type (0, 1), BuildingBlock: XUDNAN_clean_linker_2, # of connection points: 2
#     Edge 32, Type (0, 1), BuildingBlock: XUDNAN_clean_linker_2, # of connection points: 2
#     Edge 33, Type (0, 1), BuildingBlock: XUDNAN_clean_linker_2, # of connection points: 2
#     Edge 34, Type (0, 1), BuildingBlock: XUDNAN_clean_linker_2, # of connection points: 2
#     Edge 35, Type (0, 1), BuildingBlock: XUDNAN_clean_linker_2, # of connection points: 2
#     Edge 36, Type (0, 1), BuildingBlock: XUDNAN_clean_linker_2, # of connection points: 2
#     Edge 37, Type (0, 1), BuildingBlock: XUDNAN_clean_linker_2, # of connection points: 2
#     Edge 38, Type (0, 1), BuildingBlock: XUDNAN_clean_linker_2, # of connection points: 2
#     Edge 39, Type (0, 1), BuildingBlock: XUDNAN_clean_linker_2, # of connection points: 2
#     Edge 40, Type (0, 1), BuildingBlock: XUDNAN_clean_linker_2, # of connection points: 2
#     Edge 41, Type (0, 1), BuildingBlock: XUDNAN_clean_linker_2, # of connection points: 2
#     Edge 42, Type (0, 1), BuildingBlock: XUDNAN_clean_linker_2, # of connection points: 2
#     Edge 43, Type (0, 1), BuildingBlock: XUDNAN_clean_linker_2, # of connection points: 2
#     Edge 44, Type (0, 1), BuildingBlock: XUDNAN_clean_linker_2, # of connection points: 2
#     Edge 45, Type (0, 1), BuildingBlock: XUDNAN_clean_linker_2, # of connection points: 2
#     Edge 46, Type (0, 1), BuildingBlock: XUDNAN_clean_linker_2, # of connection points: 2
#     Edge 47, Type (0, 1), BuildingBlock: XUDNAN_clean_linker_2, # of connection points: 2
#     Edge 48, Type (0, 1), BuildingBlock: XUDNAN_clean_linker_2, # of connection points: 2
#     Edge 49, Type (0, 1), BuildingBlock: XUDNAN_clean_linker_2, # of connection points: 2
#     Edge 50, Type (0, 1), BuildingBlock: XUDNAN_clean_linker_2, # of connection points: 2
#     Edge 51, Type (0, 1), BuildingBlock: XUDNAN_clean_linker_2, # of connection points: 2
#     Edge 52, Type (0, 1), BuildingBlock: XUDNAN_clean_linker_2, # of connection points: 2
#     Edge 53, Type (0, 1), BuildingBlock: XUDNAN_clean_linker_2, # of connection points: 2
#     Edge 54, Type (0, 1), BuildingBlock: XUDNAN_clean_linker_2, # of connection points: 2
#     Edge 55, Type (0, 1), BuildingBlock: XUDNAN_clean_linker_2, # of connection points: 2
#     Edge 56, Type (0, 1), BuildingBlock: XUDNAN_clean_linker_2, # of connection points: 2
#     Edge 57, Type (0, 1), BuildingBlock: XUDNAN_clean_linker_2, # of connection points: 2
#     Edge 58, Type (0, 1), BuildingBlock: XUDNAN_clean_linker_2, # of connection points: 2
#     Edge 59, Type (0, 1), BuildingBlock: XUDNAN_clean_linker_2, # of connection points: 2
#     Edge 60, Type (0, 1), BuildingBlock: XUDNAN_clean_linker_2, # of connection points: 2
#     Edge 61, Type (0, 1), BuildingBlock: XUDNAN_clean_linker_2, # of connection points: 2
#     Edge 62, Type (0, 1), BuildingBlock: XUDNAN_clean_linker_2, # of connection points: 2
#     Edge 63, Type (0, 1), BuildingBlock: XUDNAN_clean_linker_2, # of connection points: 2
#     Edge 64, Type (0, 1), BuildingBlock: XUDNAN_clean_linker_2, # of connection points: 2
#     Edge 65, Type (0, 1), BuildingBlock: XUDNAN_clean_linker_2, # of connection points: 2
#     Edge 66, Type (0, 1), BuildingBlock: XUDNAN_clean_linker_2, # of connection points: 2
#     Edge 67, Type (0, 1), BuildingBlock: XUDNAN_clean_linker_2, # of connection points: 2
#     Edge 68, Type (0, 1), BuildingBlock: XUDNAN_clean_linker_2, # of connection points: 2
#     Edge 69, Type (0, 1), BuildingBlock: XUDNAN_clean_linker_2, # of connection points: 2
#     Edge 70, Type (0, 1), BuildingBlock: XUDNAN_clean_linker_2, # of connection points: 2
#     Edge 71, Type (0, 1), BuildingBlock: XUDNAN_clean_linker_2, # of connection points: 2
#     Edge 72, Type (0, 1), BuildingBlock: XUDNAN_clean_linker_2, # of connection points: 2
#     Edge 73, Type (0, 1), BuildingBlock: XUDNAN_clean_linker_2, # of connection points: 2
#     Edge 74, Type (0, 1), BuildingBlock: XUDNAN_clean_linker_2, # of connection points: 2
#     Edge 75, Type (0, 1), BuildingBlock: XUDNAN_clean_linker_2, # of connection points: 2
#     Edge 76, Type (0, 1), BuildingBlock: XUDNAN_clean_linker_2, # of connection points: 2
#     Edge 77, Type (0, 1), BuildingBlock: XUDNAN_clean_linker_2, # of connection points: 2
#     Edge 78, Type (0, 1), BuildingBlock: XUDNAN_clean_linker_2, # of connection points: 2
#     Edge 79, Type (0, 1), BuildingBlock: XUDNAN_clean_linker_2, # of connection points: 2
#     Edge 80, Type (0, 1), BuildingBlock: XUDNAN_clean_linker_2, # of connection points: 2
#     Edge 81, Type (0, 1), BuildingBlock: XUDNAN_clean_linker_2, # of connection points: 2
#     Edge 82, Type (0, 1), BuildingBlock: XUDNAN_clean_linker_2, # of connection points: 2
#     Edge 83, Type (0, 1), BuildingBlock: XUDNAN_clean_linker_2, # of connection points: 2
#     Edge 84, Type (0, 1), BuildingBlock: XUDNAN_clean_linker_2, # of connection points: 2
#     Edge 85, Type (0, 1), BuildingBlock: XUDNAN_clean_linker_2, # of connection points: 2
#     Edge 86, Type (0, 1), BuildingBlock: XUDNAN_clean_linker_2, # of connection points: 2
#     Edge 87, Type (0, 1), BuildingBlock: XUDNAN_clean_linker_2, # of connection points: 2
#     Edge 88, Type (0, 1), BuildingBlock: XUDNAN_clean_linker_2, # of connection points: 2
#     Edge 89, Type (0, 1), BuildingBlock: XUDNAN_clean_linker_2, # of connection points: 2
#     Edge 90, Type (0, 1), BuildingBlock: XUDNAN_clean_linker_2, # of connection points: 2
#     Edge 91, Type (0, 1), BuildingBlock: XUDNAN_clean_linker_2, # of connection points: 2
#     Edge 92, Type (0, 1), BuildingBlock: XUDNAN_clean_linker_2, # of connection points: 2
#     Edge 93, Type (0, 1), BuildingBlock: XUDNAN_clean_linker_2, # of connection points: 2
#     Edge 94, Type (0, 1), BuildingBlock: XUDNAN_clean_linker_2, # of connection points: 2
#     Edge 95, Type (0, 1), BuildingBlock: XUDNAN_clean_linker_2, # of connection points: 2
#     Edge 96, Type (0, 1), BuildingBlock: XUDNAN_clean_linker_2, # of connection points: 2
#     Edge 97, Type (0, 1), BuildingBlock: XUDNAN_clean_linker_2, # of connection points: 2
#     Edge 98, Type (0, 1), BuildingBlock: XUDNAN_clean_linker_2, # of connection points: 2
#     Edge 99, Type (0, 1), BuildingBlock: XUDNAN_clean_linker_2, # of connection points: 2
#     Edge 100, Type (0, 1), BuildingBlock: XUDNAN_clean_linker_2, # of connection points: 2
#     Edge 101, Type (0, 1), BuildingBlock: XUDNAN_clean_linker_2, # of connection points: 2
# Relax obj value: 0.093
# Max RMSD: 0.167
# Mean RMSD: 0.132
data_MOF--net-llk--node1-QEWDON_clean_sbu_0--node2-BETDAH_clean_linker_0--edge1-XUDNAN_clean_linker_2
_symmetry_space_group_name_H-M    P1
_symmetry_Int_Tables_number       1
_symmetry_cell_setting            triclinic
loop_
_symmetry_equiv_pos_as_xyz
'x, y, z'
_cell_length_a     46.915364
_cell_length_b     47.868244
_cell_length_c     47.856203
_cell_angle_alpha  90.304434
_cell_angle_beta   90.11943
_cell_angle_gamma 89.630683
loop_
_atom_site_label
_atom_site_type_symbol
_atom_site_fract_x
_atom_site_fract_y
_atom_site_fract_z
_atom_type_partial_charge
H0 H 0.04679 0.27496 0.34746 0.0
H1 H 0.02958 0.32038 0.27183 0.0
H2 H 0.02724 0.23055 0.27161 0.0
C3 C 0.04178 0.27522 0.32534 0.0
C4 C 0.03749 0.24987 0.31119 0.0
C5 C 0.03873 0.30082 0.31137 0.0
C6 C 0.03229 0.30072 0.28263 0.0
C7 C 0.02835 0.27534 0.26813 0.0
C8 C 0.03072 0.25009 0.28263 0.0
N9 N 0.02149 0.27444 0.23918 0.0
C10 C 0.0173 0.29807 0.22286 0.0
H11 H 0.64844 0.04731 0.226 0.0
H12 H 0.71697 0.05774 0.28373 0.0
H13 H 0.73316 0.06502 0.19569 0.0
C14 C 0.67091 0.0511 0.2294 0.0
C15 C 0.68935 0.05583 0.20678 0.0
C16 C 0.681 0.05127 0.25687 0.0
C17 C 0.70951 0.05755 0.26229 0.0
C18 C 0.72833 0.06285 0.24013 0.0
C19 C 0.71818 0.0619 0.21253 0.0
N20 N 0.75767 0.06834 0.245 0.0
C21 C 0.77059 0.06362 0.27072 0.0
H22 H 0.00372 0.67475 0.25164 0.0
H23 H -0.00451 0.74743 0.30425 0.0
H24 H 0.97568 0.75252 0.21641 0.0
C25 C -0.00115 0.69679 0.25423 0.0
C26 C -0.0103 0.71218 0.23104 0.0
C27 C 0.00078 0.70927 0.28077 0.0
C28 C -0.00623 0.7377 0.28385 0.0
C29 C 0.98489 0.75345 0.26053 0.0
C30 C 0.98254 0.74044 0.23433 0.0
N31 N 0.9784 0.78239 0.26259 0.0
C32 C 0.98073 0.79783 0.28714 0.0
H33 H 0.23243 0.007 0.31768 0.0
H34 H 0.29577 0.9718 0.26324 0.0
H35 H 0.21139 0.98824 0.23189 0.0
C36 C 0.23869 1.00017 0.29693 0.0
C37 C 0.2185 0.99939 0.27518 0.0
C38 C 0.26642 0.9901 0.29271 0.0
C39 C 0.27442 0.98 0.26629 0.0
C40 C 0.2546 0.97969 0.2442 0.0
C41 C 0.22668 0.98899 0.24888 0.0
N42 N 0.26193 0.96946 0.21728 0.0
C43 C 0.28969 0.96948 0.20733 0.0
H44 H 0.97181 0.77027 0.67035 0.0
H45 H -0.00646 0.71562 0.73838 0.0
H46 H 0.00092 0.80454 0.74853 0.0
C47 C 0.97879 0.76733 0.69174 0.0
C48 C -0.01436 0.79074 0.70816 0.0
C49 C 0.98157 0.74016 0.70245 0.0
C50 C -0.00877 0.73652 0.73008 0.0
C51 C -0.00199 0.75984 0.74679 0.0
C52 C -0.00492 0.78673 0.73572 0.0
N53 N 0.00845 0.75722 0.77456 0.0
C54 C 0.0115 0.73212 0.78878 0.0
H55 H 0.2947 0.03014 0.69781 0.0
H56 H 0.31499 0.0044 0.78116 0.0
H57 H 0.22722 0.01482 0.75641 0.0
C58 C 0.28784 0.02503 0.71879 0.0
C59 C 0.25862 0.02394 0.72476 0.0
C60 C 0.30819 0.01773 0.73903 0.0
C61 C 0.2991 0.00998 0.76571 0.0
C62 C 0.26983 0.00904 0.7722 0.0
C63 C 0.24974 0.01579 0.75154 0.0
N64 N 0.26022 1.00103 0.79914 0.0
C65 C 0.27916 0.99602 0.82091 0.0
H66 H -0.01401 0.34432 0.74867 0.0
H67 H 0.97743 0.26956 0.69933 0.0
H68 H 0.96583 0.2663 0.7882 0.0
C69 C 0.98186 0.32212 0.74738 0.0
C70 C 0.97574 0.30716 0.77184 0.0
C71 C 0.9828 0.3087 0.72118 0.0
C72 C 0.97711 0.27993 0.7195 0.0
C73 C 0.97056 0.26477 0.74377 0.0
C74 C 0.97021 0.27842 0.76966 0.0
N75 N 0.96406 0.23585 0.74307 0.0
C76 C 0.9646 0.21947 0.71906 0.0
H77 H 0.79036 0.08373 0.71492 0.0
H78 H 0.73214 0.09494 0.78316 0.0
H79 H 0.82263 0.09181 0.79879 0.0
C80 C 0.78664 0.08672 0.7371 0.0
C81 C 0.80985 0.08782 0.75557 0.0
C82 C 0.75865 0.08922 0.74695 0.0
C83 C 0.75383 0.09299 0.77565 0.0
C84 C 0.77692 0.09384 0.79452 0.0
C85 C 0.80484 0.09123 0.78431 0.0
N86 N 0.77271 0.0971 0.82376 0.0
C87 C 0.74617 0.09508 0.83647 0.0
H88 H 0.31576 0.27623 0.04708 0.0
H89 H 0.23325 0.31405 0.05876 0.0
H90 H 0.24122 0.22476 0.04972 0.0
C91 C 0.29299 0.27422 0.05034 0.0
C92 C 0.28058 0.24778 0.04855 0.0
C93 C 0.27605 0.29823 0.05375 0.0
C94 C 0.24635 0.29549 0.05625 0.0
C95 C 0.23371 0.26886 0.0553 0.0
C96 C 0.25097 0.24518 0.05133 0.0
N97 N 0.20377 0.26521 0.05746 0.0
C98 C 0.18414 0.28695 0.05521 0.0
H99 H 0.30014 0.77023 0.03183 0.0
H100 H 0.22015 0.72933 0.04405 0.0
H101 H 0.22305 0.81902 0.03895 0.0
C102 C 0.27735 0.77149 0.03541 0.0
C103 C 0.26364 0.79765 0.03541 0.0
C104 C 0.26162 0.74683 0.0381 0.0
C105 C 0.23203 0.74843 0.04171 0.0
C106 C 0.21797 0.77445 0.04233 0.0
C107 C 0.23389 0.79896 0.03895 0.0
N108 N 0.18794 0.77659 0.04593 0.0
C109 C 0.16973 0.7537 0.04612 0.0
H110 H 0.81019 0.33571 0.01312 0.0
H111 H 0.75688 0.26905 0.98404 0.0
H112 H 0.84811 0.26233 0.97597 0.0
C113 C 0.80807 0.31499 0.0041 0.0
C114 C 0.83254 0.30017 0.99571 0.0
C115 C 0.7808 0.30405 -0.00019 0.0
C116 C 0.77795 0.2776 0.98733 0.0
C117 C 0.80228 0.26239 0.97884 0.0
C118 C 0.82943 0.27404 0.98256 0.0
N119 N 0.80002 0.23536 0.96664 0.0
C120 C 0.77754 0.21754 0.97252 0.0
H121 H 0.77273 0.6936 0.97725 0.0
H122 H 0.73481 0.77333 0.99577 0.0
H123 H 0.82291 0.76831 0.97091 0.0
C124 C 0.77439 0.71617 0.97841 0.0
C125 C 0.80052 0.72905 0.97277 0.0
C126 C 0.7509 0.73208 0.98723 0.0
C127 C 0.75316 0.76116 0.98913 0.0
C128 C 0.77896 0.77444 0.98261 0.0
C129 C 0.80281 0.7582 0.97529 0.0
N130 N 0.78115 0.80401 0.98295 0.0
C131 C 0.75725 0.821 0.97977 0.0
H132 H 0.49651 0.77232 0.81038 0.0
H133 H 0.50466 0.81185 0.7307 0.0
H134 H 0.50868 0.72213 0.73621 0.0
C135 C 0.50005 0.7705 0.78806 0.0
C136 C 0.50271 0.744 0.77551 0.0
C137 C 0.50061 0.79481 0.77191 0.0
C138 C 0.50433 0.79289 0.74296 0.0
C139 C 0.50751 0.76661 0.73001 0.0
C140 C 0.50631 0.74232 0.74632 0.0
N141 N 0.51182 0.76395 0.70071 0.0
C142 C 0.51886 0.78622 0.6835 0.0
H143 H 0.20739 0.56045 0.74027 0.0
H144 H 0.28351 0.54979 0.78934 0.0
H145 H 0.28938 0.56549 0.70093 0.0
C146 C 0.23046 0.56029 0.74196 0.0
C147 C 0.24693 0.56389 0.71792 0.0
C148 C 0.24349 0.55489 0.76774 0.0
C149 C 0.27343 0.55406 0.76942 0.0
C150 C 0.29014 0.55832 0.74532 0.0
C151 C 0.27667 0.56274 0.7196 0.0
N152 N 0.32041 0.55795 0.74614 0.0
C153 C 0.3359 0.55844 0.77086 0.0
H154 H 0.44795 0.15521 0.77025 0.0
H155 H 0.46839 0.23652 0.80127 0.0
H156 H 0.4812 0.21775 0.7144 0.0
C157 C 0.45552 0.17607 0.76611 0.0
C158 C 0.46447 0.18348 0.73901 0.0
C159 C 0.45789 0.19476 0.78866 0.0
C160 C 0.46675 0.22216 0.78377 0.0
C161 C 0.47435 0.23071 0.75679 0.0
C162 C 0.47367 0.21122 0.73468 0.0
N163 N 0.48391 0.25839 0.75159 0.0
C164 C 0.48428 0.27935 0.77194 0.0
H165 H 0.70013 0.51111 0.83832 0.0
H166 H 0.76891 0.52353 0.78093 0.0
H167 H 0.68213 0.53098 0.75242 0.0
C168 C 0.70744 0.51493 0.81722 0.0
C169 C 0.68749 0.52019 0.79592 0.0
C170 C 0.73678 0.51632 0.81201 0.0
C171 C 0.74623 0.52261 0.78497 0.0
C172 C 0.72653 0.52778 0.76335 0.0
C173 C 0.69726 0.5267 0.76902 0.0
N174 N 0.73546 0.53457 0.73588 0.0
C175 C 0.76383 0.53425 0.72756 0.0
H176 H 0.47593 0.27152 0.17574 0.0
H177 H 0.4656 0.23202 0.2556 0.0
H178 H 0.45837 0.32146 0.24858 0.0
C179 C 0.47139 0.27291 0.19791 0.0
C180 C 0.46682 0.29928 0.21006 0.0
C181 C 0.47081 0.24848 0.21405 0.0
C182 C 0.46593 0.25073 0.24299 0.0
C183 C 0.46146 0.27707 0.25557 0.0
C184 C 0.46156 0.30117 0.23889 0.0
N185 N 0.45739 0.2802 0.2849 0.0
C186 C 0.45694 0.25826 0.30393 0.0
H187 H 0.73816 0.51246 0.17882 0.0
H188 H 0.7803 0.49599 0.25684 0.0
H189 H 0.6958 0.46517 0.24283 0.0
C190 C 0.73783 0.50311 0.19938 0.0
C191 C 0.7136 0.4885 0.20842 0.0
C192 C 0.76206 0.50545 0.21657 0.0
C193 C 0.7617 0.494 0.24354 0.0
C194 C 0.73731 0.48011 0.25314 0.0
C195 C 0.71385 0.47697 0.23538 0.0
N196 N 0.73538 0.46879 0.28041 0.0
C197 C 0.75583 0.47179 0.30119 0.0
H198 H 0.55489 0.84117 0.24659 0.0
H199 H 0.57017 0.7633 0.20454 0.0
H200 H 0.56472 0.76538 0.29414 0.0
C201 C 0.55886 0.81891 0.2477 0.0
C202 C 0.55934 0.80549 0.2738 0.0
C203 C 0.56325 0.80393 0.22276 0.0
C204 C 0.56741 0.77493 0.22383 0.0
C205 C 0.56759 0.76091 0.24955 0.0
C206 C 0.564 0.77632 0.2744 0.0
N207 N 0.57115 0.73138 0.251 0.0
C208 C 0.5701 0.71382 0.22768 0.0
H209 H 0.30381 0.55686 0.17256 0.0
H210 H 0.23627 0.56236 0.2326 0.0
H211 H 0.3213 0.58836 0.25509 0.0
C212 C 0.29652 0.562 0.19349 0.0
C213 C 0.3157 0.57304 0.21297 0.0
C214 C 0.2679 0.55831 0.20045 0.0
C215 C 0.2585 0.56532 0.22738 0.0
C216 C 0.27783 0.57583 0.24742 0.0
C217 C 0.30639 0.57997 0.23993 0.0
N218 N 0.26916 0.58226 0.27514 0.0
C219 C 0.24233 0.57575 0.28534 0.0
H220 H 0.82901 0.77003 0.509 0.0
H221 H 0.75591 0.82401 0.50208 0.0
H222 H 0.75156 0.73875 0.47273 0.0
C223 C 0.80694 0.77322 0.50292 0.0
C224 C 0.79186 0.75114 0.49067 0.0
C225 C 0.7942 0.79945 0.50707 0.0
C226 C 0.76581 0.80377 0.4987 0.0
C227 C 0.75023 0.78181 0.48638 0.0
C228 C 0.76357 0.75571 0.48201 0.0
N229 N 0.72113 0.78506 0.47856 0.0
C230 C 0.70397 0.8078 0.48598 0.0
H231 H 0.8464 0.26223 0.46232 0.0
H232 H 0.76131 0.23024 0.46451 0.0
H233 H 0.77536 0.31908 0.47011 0.0
C234 C 0.8236 0.26607 0.46318 0.0
C235 C 0.81323 0.29344 0.46605 0.0
C236 C 0.80494 0.24342 0.46277 0.0
C237 C 0.7755 0.24801 0.46471 0.0
C238 C 0.76465 0.27546 0.46697 0.0
C239 C 0.78366 0.29799 0.46799 0.0
N240 N 0.7349 0.28112 0.46835 0.0
C241 C 0.71416 0.26051 0.46715 0.0
H242 H 0.24605 0.84299 0.50513 0.0
H243 H 0.19317 0.77197 0.52173 0.0
H244 H 0.28451 0.76413 0.5262 0.0
C245 C 0.24374 0.8213 0.51108 0.0
C246 C 0.26824 0.80513 0.51597 0.0
C247 C 0.21652 0.80937 0.51274 0.0
C248 C 0.21414 0.78105 0.51976 0.0
C249 C 0.23858 0.76453 0.52454 0.0
C250 C 0.26559 0.77677 0.52272 0.0
N251 N 0.23647 0.73559 0.5307 0.0
C252 C 0.21149 0.72064 0.52639 0.0
H253 H 0.26923 0.16982 0.50958 0.0
H254 H 0.22177 0.24632 0.50141 0.0
H255 H 0.31119 0.24481 0.48224 0.0
C256 C 0.26875 0.19183 0.5044 0.0
C257 C 0.29377 0.20524 0.49562 0.0
C258 C 0.24281 0.20653 0.50623 0.0
C259 C 0.24188 0.23514 0.50005 0.0
C260 C 0.26672 0.24909 0.49188 0.0
C261 C 0.29235 0.23398 0.4893 0.0
N262 N 0.26667 0.27813 0.48571 0.0
C263 C 0.24441 0.29652 0.492 0.0
Zn264 Zn 0.94048 0.99317 0.45291 0.0
Zn265 Zn 0.94746 0.05902 0.45248 0.0
O266 O 0.97046 0.02369 0.45182 0.0
H267 H -0.01043 0.02111 0.44476 0.0
C268 C 0.91747 0.9585 0.55022 0.0
O269 O 0.91121 0.97965 0.53388 0.0
Zn270 Zn 0.06046 0.05674 0.54819 0.0
Zn271 Zn 0.05516 0.99197 0.56734 0.0
O272 O 0.03437 0.0236 0.54781 0.0
H273 H 0.01684 0.02181 0.53734 0.0
Zn274 Zn 0.95813 0.99896 0.57197 0.0
O275 O 0.9551 0.02493 0.53857 0.0
Zn276 Zn 0.95814 0.06301 0.5551 0.0
H277 H 0.95841 0.01984 0.51927 0.0
Zn278 Zn 0.03815 0.99312 0.4421 0.0
O279 O 0.04493 0.02391 0.47066 0.0
H280 H 0.03916 0.023 0.48998 0.0
Zn281 Zn 0.04795 0.05804 0.44748 0.0
C282 C 0.0755 0.95449 0.46971 0.0
O283 O 0.08574 0.97856 0.47826 0.0
O284 O 0.90202 0.00611 0.4361 0.0
O285 O 0.90892 0.05196 0.43447 0.0
O286 O 0.09308 0.00378 0.58523 0.0
O287 O 0.09739 0.04709 0.56917 0.0
O288 O 0.95204 0.01899 0.60987 0.0
O289 O 0.94606 0.06285 0.5958 0.0
C290 C -0.00587 0.08924 0.42814 0.0
O291 O 0.0497 0.0046 0.40218 0.0
O292 O 0.06346 0.04849 0.40923 0.0
O293 O 0.03293 0.96027 0.587 0.0
C294 C 0.89364 0.03057 0.42945 0.0
O295 O 0.9534 0.95356 0.4403 0.0
C296 C 0.01388 0.08934 0.56949 0.0
O297 O 0.93738 0.96108 0.56808 0.0
C298 C 0.10692 0.0265 0.58334 0.0
O299 O 0.05374 0.95439 0.45387 0.0
C300 C 0.92905 0.08795 0.50707 0.0
O301 O 0.96717 0.08864 0.4294 0.0
O302 O 0.00786 0.07168 0.44284 0.0
C303 C 0.94608 0.0445 0.61506 0.0
O304 O 0.04091 0.08767 0.56944 0.0
O305 O -0.00017 0.07287 0.55381 0.0
C306 C 0.07796 0.08652 0.49286 0.0
O307 O 0.93216 0.089 0.53345 0.0
O308 O 0.94412 0.07048 0.49327 0.0
C309 C 0.06101 0.02706 0.39346 0.0
O310 O 0.07355 0.08581 0.46669 0.0
O311 O 0.06552 0.06846 0.50792 0.0
C312 C 0.01742 0.9656 0.60814 0.0
O313 O 0.01448 0.99165 0.61648 0.0
C314 C 0.96902 0.95149 0.41871 0.0
O315 O 0.97741 0.97442 0.40627 0.0
Zn316 Zn 0.46416 0.06373 0.04771 0.0
Zn317 Zn 0.4627 0.06296 0.98158 0.0
O318 O 0.4695 0.03801 0.01397 0.0
H319 H 0.47784 0.0195 0.01379 0.0
C320 C 0.52452 0.10553 0.07875 0.0
O321 O 0.51295 0.11165 0.05449 0.0
Zn322 Zn 0.54477 0.97503 0.94066 0.0
Zn323 Zn 0.54846 0.97365 0.00704 0.0
O324 O 0.52724 0.99248 0.97447 0.0
H325 H 0.51505 0.00881 0.97505 0.0
Zn326 Zn 0.56491 0.07487 0.04287 0.0
O327 O 0.54126 0.06123 0.01054 0.0
Zn328 Zn 0.56225 0.0714 0.97553 0.0
H329 H 0.52745 0.04644 0.01193 0.0
Zn330 Zn 0.47675 0.94368 0.02613 0.0
O331 O 0.49554 0.94842 0.9882 0.0
H332 H 0.51259 0.93874 0.98215 0.0
Zn333 Zn 0.46269 0.95801 0.96362 0.0
C334 C 0.52225 0.91165 0.05387 0.0
O335 O 0.53091 0.9077 0.02806 0.0
O336 O 0.43861 0.09819 0.03914 0.0
O337 O 0.43657 0.09472 0.99285 0.0
O338 O 0.57537 0.94079 0.99677 0.0
O339 O 0.57263 0.94447 0.95077 0.0
O340 O 0.60138 0.09412 0.03026 0.0
O341 O 0.60159 0.08891 0.984 0.0
C342 C 0.4411 0.01597 0.94699 0.0
O343 O 0.43557 0.92931 0.02347 0.0
O344 O 0.42676 0.93823 0.97877 0.0
O345 O 0.5667 0.99794 0.03771 0.0
C346 C 0.42907 0.10651 0.01564 0.0
O347 O 0.45342 0.04367 0.08427 0.0
C348 C 0.57561 0.02736 0.93008 0.0
O349 O 0.5462 0.08951 0.0794 0.0
C350 C 0.58285 0.93285 0.97246 0.0
O351 O 0.5004 0.92681 0.05839 0.0
C352 C 0.51128 0.09655 0.95483 0.0
O353 O 0.44213 0.04213 0.95126 0.0
O354 O 0.45635 0.99996 0.96229 0.0
C355 C 0.61329 0.09749 0.00664 0.0
O356 O 0.56971 0.00312 0.92069 0.0
O357 O 0.56313 0.03586 0.95216 0.0
C358 C 0.49284 0.94517 0.90779 0.0
O359 O 0.53819 0.09922 0.95438 0.0
O360 O 0.50107 0.07726 0.96992 0.0
C361 C 0.41905 0.92846 0.00236 0.0
O362 O 0.47184 0.94447 0.92463 0.0
O363 O 0.51685 0.9558 0.91434 0.0
C364 C 0.58951 0.01084 0.0319 0.0
O365 O 0.59883 0.01063 0.00603 0.0
C366 C 0.43784 0.0222 0.08172 0.0
O367 O 0.43109 0.01342 0.05651 0.0
Zn368 Zn 0.94981 0.4828 0.96318 0.0
Zn369 Zn 0.95185 0.54845 0.9526 0.0
O370 O 0.97717 0.51475 0.95502 0.0
H371 H -0.00406 0.51253 0.94705 0.0
C372 C 0.96669 0.4441 0.03892 0.0
O373 O 0.98227 0.45847 0.02141 0.0
Zn374 Zn 0.0611 0.55172 0.04672 0.0
Zn375 Zn 0.06184 0.48482 0.05496 0.0
O376 O 0.03577 0.51826 0.04829 0.0
H377 H 0.01672 0.51717 0.04068 0.0
Zn378 Zn 0.96297 0.49828 0.06865 0.0
O379 O 0.95888 0.52373 0.03489 0.0
Zn380 Zn 0.96034 0.56076 0.05435 0.0
H381 H 0.94821 0.51887 0.0183 0.0
Zn382 Zn 0.06153 0.48811 0.95 0.0
O383 O 0.0483 0.52191 0.97178 0.0
H384 H 0.03491 0.52071 0.98703 0.0
Zn385 Zn 0.05225 0.55488 0.94613 0.0
C386 C 0.06489 0.44271 0.99272 0.0
O387 O 0.04113 0.45364 0.00244 0.0
O388 O 0.90809 0.49245 0.95329 0.0
O389 O 0.91251 0.53642 0.93943 0.0
O390 O 0.10267 0.49628 0.06597 0.0
O391 O 0.10011 0.5426 0.06232 0.0
O392 O 0.9401 0.51389 0.10212 0.0
O393 O 0.93708 0.55869 0.09045 0.0
C394 C -0.00551 0.57905 0.92153 0.0
O395 O 0.08722 0.49984 0.9179 0.0
O396 O 0.08057 0.54577 0.91415 0.0
O397 O 0.04568 0.45177 0.07789 0.0
C398 C 0.8977 0.51437 0.94217 0.0
O399 O 0.95979 0.44387 0.94668 0.0
C400 C 0.01817 0.58549 0.07323 0.0
O401 O 0.95699 0.45615 0.06067 0.0
C402 C 0.11376 0.52037 0.06861 0.0
O403 O 0.0766 0.45352 0.9715 0.0
C404 C 0.94128 0.58793 0.00305 0.0
O405 O 0.96784 0.57609 0.92515 0.0
O406 O 0.01131 0.56343 0.93539 0.0
C407 C 0.93092 0.53858 0.10681 0.0
O408 O 0.0449 0.58256 0.07027 0.0
O409 O 0.00201 0.56882 0.05996 0.0
C410 C 0.06936 0.58611 0.99483 0.0
O411 O 0.94362 0.59041 0.02943 0.0
O412 O 0.95011 0.56541 0.99156 0.0
C413 C 0.09284 0.52306 0.90638 0.0
O414 O 0.06701 0.58789 0.96843 0.0
O415 O 0.06318 0.56325 0.00657 0.0
C416 C 0.02503 0.45554 0.09466 0.0
O417 O 0.01326 0.48045 0.09652 0.0
C418 C 0.97665 0.44133 0.92607 0.0
O419 O -0.00986 0.46347 0.91703 0.0
Zn420 Zn 0.45303 0.47803 0.98328 0.0
Zn421 Zn 0.46469 0.47676 0.04879 0.0
O422 O 0.47052 0.50034 0.01483 0.0
H423 H 0.48459 0.51481 0.01268 0.0
C424 C 0.5149 0.41219 0.92596 0.0
O425 O 0.4975 0.43013 0.93805 0.0
Zn426 Zn 0.55482 0.56317 0.04044 0.0
Zn427 Zn 0.5446 0.57598 0.97796 0.0
O428 O 0.5456 0.54318 0.00482 0.0
H429 H 0.53473 0.52619 0.00308 0.0
Zn430 Zn 0.55815 0.43304 0.96809 0.0
O431 O 0.53479 0.45274 -0.00161 0.0
Zn432 Zn 0.56029 0.45653 0.03229 0.0
H433 H 0.51613 0.4611 0.99608 0.0
Zn434 Zn 0.4502 0.58119 0.97377 0.0
O435 O 0.48031 0.57837 0.00437 0.0
H436 H 0.50004 0.58329 0.00184 0.0
Zn437 Zn 0.45902 0.57922 0.04076 0.0
C438 C 0.4797 0.61385 0.93053 0.0
O439 O 0.49241 0.62432 0.95269 0.0
O440 O 0.42171 0.45225 -0.00236 0.0
O441 O 0.43221 0.44907 0.04294 0.0
O442 O 0.57386 0.60601 0.98909 0.0
O443 O 0.58241 0.59469 0.03338 0.0
O444 O 0.597 0.4196 0.98274 0.0
O445 O 0.59905 0.43782 0.02565 0.0
C446 C 0.45126 0.52815 0.07901 0.0
O447 O 0.41164 0.59568 0.98891 0.0
O448 O 0.41959 0.59633 0.0348 0.0
O449 O 0.5425 0.56756 0.93557 0.0
C450 C 0.41675 0.44265 0.02189 0.0
O451 O 0.44372 0.498 0.94614 0.0
C452 C 0.57328 0.50929 0.06427 0.0
O453 O 0.54036 0.40999 0.9349 0.0
C454 C 0.58705 0.60987 0.01207 0.0
O455 O 0.46149 0.59459 0.93377 0.0
C456 C 0.51598 0.44001 0.06978 0.0
O457 O 0.4538 0.50176 0.08103 0.0
O458 O 0.45722 0.53952 0.05569 0.0
C459 C 0.61009 0.42341 0.0058 0.0
O460 O 0.57163 0.53567 0.06761 0.0
O461 O 0.56323 0.49788 0.0423 0.0
C462 C 0.50735 0.59805 0.07051 0.0
O463 O 0.5421 0.43588 0.06411 0.0
O464 O 0.50265 0.45814 0.05537 0.0
C465 C 0.40356 0.60104 0.01376 0.0
O466 O 0.48078 0.60256 0.06853 0.0
O467 O 0.51804 0.57995 0.05396 0.0
C468 C 0.54312 0.54258 0.92653 0.0
O469 O 0.54271 0.52197 0.94455 0.0
C470 C 0.42946 0.52059 0.94769 0.0
O471 O 0.42269 0.53051 0.97248 0.0
Zn472 Zn 0.9578 0.48481 0.46794 0.0
Zn473 Zn 0.94219 0.55036 0.46317 0.0
O474 O 0.97239 0.52353 0.47603 0.0
H475 H -0.01242 0.52798 0.48894 0.0
C476 C 0.9414 0.44342 0.52587 0.0
O477 O 0.9645 0.45371 0.51451 0.0
Zn478 Zn 0.05262 0.56 0.54265 0.0
Zn479 Zn 0.06497 0.49526 0.55582 0.0
O480 O 0.03327 0.52309 0.54597 0.0
H481 H 0.01426 0.5186 0.53966 0.0
Zn482 Zn 0.94893 0.49155 0.56276 0.0
O483 O 0.9454 0.52292 0.53476 0.0
Zn484 Zn 0.9476 0.55774 0.5575 0.0
H485 H 0.93471 0.52068 0.51764 0.0
Zn486 Zn 0.07086 0.48325 0.44807 0.0
O487 O 0.04944 0.51403 0.46977 0.0
H488 H 0.041 0.51222 0.48806 0.0
Zn489 Zn 0.04363 0.54607 0.44284 0.0
C490 C 0.10812 0.45131 0.48788 0.0
O491 O 0.10958 0.47538 0.50114 0.0
O492 O 0.91721 0.48492 0.45198 0.0
O493 O 0.90865 0.53015 0.44485 0.0
O494 O 0.10115 0.5137 0.57245 0.0
O495 O 0.09083 0.55778 0.5618 0.0
O496 O 0.93564 0.50398 0.60196 0.0
O497 O 0.93298 0.55016 0.59679 0.0
C498 C -0.01395 0.57497 0.4292 0.0
O499 O 0.0878 0.49694 0.41108 0.0
O500 O 0.06523 0.53768 0.40665 0.0
O501 O 0.0535 0.45667 0.57186 0.0
C502 C 0.90135 0.50454 0.44282 0.0
O503 O 0.98466 0.45644 0.44831 0.0
C504 C 0.00372 0.58838 0.56845 0.0
O505 O 0.93127 0.455 0.54767 0.0
C506 C 0.10729 0.53959 0.5728 0.0
O507 O 0.0924 0.44938 0.46628 0.0
C508 C 0.9171 0.58813 0.51403 0.0
O509 O 0.95982 0.57686 0.43572 0.0
O510 O 0.00101 0.55526 0.43977 0.0
C511 C 0.92949 0.52821 0.61146 0.0
O512 O 0.03042 0.58909 0.56413 0.0
O513 O -0.01098 0.56954 0.55647 0.0
C514 C 0.06447 0.58647 0.48378 0.0
O515 O 0.92166 0.58657 0.54015 0.0
O516 O 0.92973 0.57062 0.4982 0.0
C517 C 0.08236 0.51904 0.39734 0.0
O518 O 0.06148 0.58098 0.45796 0.0
O519 O 0.05605 0.56844 0.50136 0.0
C520 C 0.03226 0.45501 0.5882 0.0
O521 O 0.01749 0.47773 0.59395 0.0
C522 C 0.00183 0.46391 0.4293 0.0
O523 O 0.00405 0.49058 0.42337 0.0
Zn524 Zn 0.47486 0.98777 0.44714 0.0
Zn525 Zn 0.45732 0.04901 0.45456 0.0
O526 O 0.49035 0.0269 0.43994 0.0
H527 H 0.49996 0.03185 0.42286 0.0
C528 C 0.43707 0.92489 0.52038 0.0
O529 O 0.45644 0.93043 0.50144 0.0
Zn530 Zn 0.57453 0.07065 0.5543 0.0
Zn531 Zn 0.59517 0.0068 0.56122 0.0
O532 O 0.56902 0.03238 0.53798 0.0
H533 H 0.55253 0.02623 0.52763 0.0
Zn534 Zn 0.46773 0.96694 0.55684 0.0
O535 O 0.47614 1.00027 0.53158 0.0
Zn536 Zn 0.47254 0.03421 0.55614 0.0
H537 H 0.48451 0.99937 0.51316 0.0
Zn538 Zn 0.53423 0.00793 0.47348 0.0
O539 O 0.51675 0.04475 0.48911 0.0
H540 H 0.52338 0.02628 0.484 0.0
Zn541 Zn 0.5331 0.07499 0.46479 0.0
C542 C 0.58064 0.97288 0.4907 0.0
O543 O 0.59298 0.992 0.47537 0.0
O544 O 0.43202 0.98697 0.43844 0.0
O545 O 0.42088 0.03216 0.43859 0.0
O546 O 0.62109 0.02668 0.59016 0.0
O547 O 0.6049 0.06989 0.58409 0.0
O548 O 0.46219 0.97776 0.59832 0.0
O549 O 0.45802 0.02385 0.59421 0.0
C550 C 0.47914 0.10739 0.43952 0.0
O551 O 0.55229 0.01195 0.43469 0.0
O552 O 0.55425 0.0582 0.4317 0.0
O553 O 0.58392 0.96579 0.57041 0.0
C554 C 0.41416 0.00668 0.43428 0.0
O555 O 0.49622 0.95243 0.43168 0.0
C556 C 0.51616 0.0738 0.57622 0.0
O557 O 0.43794 0.93742 0.54384 0.0
C558 C 0.62125 0.05256 0.59643 0.0
O559 O 0.55417 0.97565 0.49608 0.0
C560 C 0.44351 0.06569 0.51292 0.0
O561 O 0.46035 0.08839 0.44126 0.0
O562 O 0.50484 0.10364 0.44783 0.0
C563 C 0.45667 1.0017 0.6088 0.0
O564 O 0.5407 0.08462 0.57555 0.0
O565 O 0.51049 0.05328 0.56014 0.0
C566 C 0.58197 0.10766 0.50224 0.0
O567 O 0.44646 0.06293 0.53915 0.0
O568 O 0.45578 0.04837 0.49659 0.0
C569 C 0.5598 0.03393 0.42194 0.0
O570 O 0.56318 0.09521 0.48762 0.0
O571 O 0.5875 0.0996 0.52695 0.0
C572 C 0.56326 0.95999 0.5865 0.0
O573 O 0.54735 0.9804 0.59647 0.0
C574 C 0.50828 0.95262 0.4079 0.0
O575 O 0.50895 0.97607 0.39379 0.0
H576 H 0.19678 0.20065 0.47261 0.0
H577 H 0.23022 0.17739 0.55365 0.0
H578 H 0.1871 0.14893 0.56235 0.0
H579 H 0.11973 0.2013 0.49061 0.0
H580 H 0.11004 0.18592 0.4575 0.0
H581 H 0.14085 0.20811 0.45999 0.0
H582 H 0.1723 0.16854 0.43895 0.0
H583 H 0.14164 0.14637 0.43639 0.0
H584 H 0.17273 0.1347 0.45533 0.0
H585 H 0.14126 0.12074 0.56055 0.0
H586 H 0.10079 0.0911 0.54606 0.0
H587 H 0.10062 0.13024 0.46473 0.0
C588 C 0.19454 0.19017 0.49248 0.0
C589 C 0.21631 0.19149 0.51273 0.0
C590 C 0.21341 0.17677 0.53811 0.0
C591 C 0.189 0.16075 0.54324 0.0
C592 C 0.16795 0.15955 0.52263 0.0
C593 C 0.17066 0.17373 0.49765 0.0
C594 C 0.14707 0.16631 0.47744 0.0
C595 C 0.12831 0.19194 0.47102 0.0
C596 C 0.15917 0.15319 0.45045 0.0
C597 C 0.13108 0.14514 0.49458 0.0
C598 C 0.14288 0.14201 0.52085 0.0
C599 C 0.13199 0.12294 0.53995 0.0
C600 C 0.10915 0.10595 0.53153 0.0
C601 C 0.09815 0.10752 0.50407 0.0
C602 C 0.10873 0.12814 0.48583 0.0
H603 H 0.81248 0.20874 0.50664 0.0
H604 H 0.82683 0.21622 0.41771 0.0
H605 H 0.85585 0.17278 0.41824 0.0
H606 H 0.88057 0.19042 0.52343 0.0
H607 H 0.87215 0.16611 0.5508 0.0
H608 H 0.84771 0.19398 0.54264 0.0
H609 H 0.80727 0.15825 0.53425 0.0
H610 H 0.83154 0.13019 0.54279 0.0
H611 H 0.81272 0.12984 0.50991 0.0
H612 H 0.88884 0.13339 0.4298 0.0
H613 H 0.92275 0.10068 0.4512 0.0
H614 H 0.88754 0.11882 0.5329 0.0
C615 C 0.82078 0.20042 0.48717 0.0
C616 C 0.81699 0.21504 0.46198 0.0
C617 C 0.8291 0.20465 0.43698 0.0
C618 C 0.84558 0.18011 0.43715 0.0
C619 C 0.84972 0.16649 0.46254 0.0
C620 C 0.8375 0.17614 0.48709 0.0
C621 C 0.84798 0.15966 0.51203 0.0
C622 C 0.86299 0.17868 0.53346 0.0
C623 C 0.82341 0.14352 0.52554 0.0
C624 C 0.86887 0.14003 0.49786 0.0
C625 C 0.8692 0.14397 0.46929 0.0
C626 C 0.88828 0.12968 0.45208 0.0
C627 C 0.90756 0.11096 0.46443 0.0
C628 C 0.90778 0.10663 0.49362 0.0
C629 C 0.88788 0.12133 0.51042 0.0
H630 H 0.80182 0.85294 0.4883 0.0
H631 H 0.82552 0.79617 0.55488 0.0
H632 H 0.85885 0.83123 0.57382 0.0
H633 H 0.87069 0.87906 0.47642 0.0
H634 H 0.85948 0.91447 0.46964 0.0
H635 H 0.83563 0.886 0.46251 0.0
H636 H 0.79726 0.9087 0.4944 0.0
H637 H 0.82089 0.93745 0.50135 0.0
H638 H 0.80627 0.91781 0.52992 0.0
H639 H 0.89205 0.87058 0.58341 0.0
H640 H 0.92112 0.91332 0.5849 0.0
H641 H 0.87577 0.94493 0.51228 0.0
C642 C 0.81353 0.84825 0.50724 0.0
C643 C 0.81112 0.82196 0.52022 0.0
C644 C 0.8272 0.81622 0.54464 0.0
C645 C 0.84613 0.83596 0.55554 0.0
C646 C 0.84866 0.86138 0.54181 0.0
C647 C 0.83266 0.86773 0.51836 0.0
C648 C 0.84038 0.89617 0.507 0.0
C649 C 0.85225 0.89376 0.47713 0.0
C650 C 0.81467 0.91622 0.50826 0.0
C651 C 0.86337 0.90464 0.52759 0.0
C652 C 0.86781 0.88425 0.54747 0.0
C653 C 0.88858 0.88686 0.56815 0.0
C654 C 0.90506 0.91116 0.56874 0.0
C655 C 0.90063 0.93254 0.5488 0.0
C656 C 0.87954 0.92908 0.52794 0.0
H657 H 0.20524 0.86394 0.52733 0.0
H658 H 0.16949 0.793 0.48284 0.0
H659 H 0.12731 0.82138 0.47046 0.0
H660 H 0.13802 0.89291 0.55343 0.0
H661 H 0.1491 0.92851 0.54835 0.0
H662 H 0.17521 0.90184 0.55598 0.0
H663 H 0.20303 0.91469 0.51113 0.0
H664 H 0.17708 0.9414 0.50342 0.0
H665 H 0.1848 0.91456 0.47793 0.0
H666 H 0.09054 0.85833 0.46022 0.0
H667 H 0.06258 0.90143 0.45203 0.0
H668 H 0.12304 0.94829 0.50231 0.0
C669 C 0.18852 0.85432 0.51506 0.0
C670 C 0.19064 0.82618 0.50623 0.0
C671 C 0.16815 0.81436 0.49032 0.0
C672 C 0.14413 0.83034 0.48308 0.0
C673 C 0.14288 0.85807 0.49193 0.0
C674 C 0.16447 0.86996 0.50758 0.0
C675 C 0.15869 0.90062 0.51314 0.0
C676 C 0.15503 0.90629 0.54459 0.0
C677 C 0.1823 0.91889 0.50065 0.0
C678 C 0.1308 0.90426 0.49762 0.0
C679 C 0.12185 0.87942 0.48579 0.0
C680 C 0.0972 0.87786 0.46958 0.0
C681 C 0.08147 0.90245 0.46504 0.0
C682 C 0.09061 0.92822 0.47653 0.0
C683 C 0.11539 0.92892 0.49334 0.0
H684 H 0.45165 0.22958 0.16314 0.0
H685 H 0.50421 0.20565 0.23393 0.0
H686 H 0.51874 0.16266 0.20891 0.0
H687 H 0.43076 0.15796 0.14156 0.0
H688 H 0.43333 0.1656 0.10486 0.0
H689 H 0.42296 0.1927 0.12919 0.0
H690 H 0.46385 0.22423 0.11248 0.0
H691 H 0.47391 0.19799 0.08732 0.0
H692 H 0.49984 0.21076 0.11207 0.0
H693 H 0.53241 0.12565 0.17402 0.0
H694 H 0.54423 0.09769 0.13211 0.0
H695 H 0.4835 0.14634 0.08367 0.0
C696 C 0.46589 0.2151 0.17357 0.0
C697 C 0.47673 0.22099 0.20056 0.0
C698 C 0.49523 0.20142 0.21349 0.0
C699 C 0.50369 0.17697 0.19939 0.0
C700 C 0.49328 0.17227 0.17247 0.0
C701 C 0.4746 0.1907 0.15977 0.0
C702 C 0.46846 0.1821 0.12986 0.0
C703 C 0.43699 0.17414 0.12619 0.0
C704 C 0.47705 0.20514 0.10923 0.0
C705 C 0.48763 0.15668 0.12729 0.0
C706 C 0.50135 0.15103 0.15224 0.0
C707 C 0.52146 0.12961 0.1545 0.0
C708 C 0.52807 0.11388 0.13054 0.0
C709 C 0.51478 0.1198 0.10458 0.0
C710 C 0.49385 0.1411 0.10322 0.0
H711 H 0.81462 0.48171 0.21091 0.0
H712 H 0.76749 0.55827 0.19596 0.0
H713 H 0.8097 0.57841 0.17265 0.0
H714 H 0.88703 0.51326 0.21989 0.0
H715 H 0.90393 0.48489 0.2012 0.0
H716 H 0.87212 0.47868 0.22126 0.0
H717 H 0.84753 0.45798 0.17729 0.0
H718 H 0.87918 0.46408 0.15721 0.0
H719 H 0.84555 0.47855 0.14588 0.0
H720 H 0.85508 0.58809 0.1466 0.0
H721 H 0.8976 0.58505 0.11642 0.0
H722 H 0.91433 0.50121 0.14676 0.0
C723 C 0.81361 0.50305 0.20352 0.0
C724 C 0.78814 0.51872 0.2056 0.0
C725 C 0.78704 0.54615 0.19478 0.0
C726 C 0.81092 0.55775 0.18167 0.0
C727 C 0.83565 0.54156 0.17943 0.0
C728 C 0.8371 0.51472 0.18998 0.0
C729 C 0.86469 0.50034 0.1817 0.0
C730 C 0.88303 0.49392 0.20756 0.0
C731 C 0.85887 0.47368 0.16449 0.0
C732 C 0.87809 0.52286 0.16401 0.0
C733 C 0.86138 0.54673 0.16352 0.0
C734 C 0.86851 0.56964 0.14712 0.0
C735 C 0.89278 0.56773 0.13005 0.0
C736 C 0.90937 0.54288 0.12914 0.0
C737 C 0.9023 0.52059 0.14709 0.0
H738 H 0.52601 0.84452 0.20514 0.0
H739 H 0.60005 0.79641 0.17887 0.0
H740 H 0.5995 0.82077 0.13343 0.0
H741 H 0.4904 0.84439 0.1401 0.0
H742 H 0.47679 0.87953 0.14363 0.0
H743 H 0.48389 0.85903 0.1743 0.0
H744 H 0.51711 0.89788 0.19328 0.0
H745 H 0.51016 0.91847 0.16258 0.0
H746 H 0.54632 0.90974 0.17209 0.0
H747 H 0.58975 0.84944 0.09026 0.0
H748 H 0.57049 0.87893 0.0523 0.0
H749 H 0.50368 0.90874 0.10785 0.0
C750 C 0.54239 0.83939 0.19002 0.0
C751 C 0.56313 0.81864 0.19556 0.0
C752 C 0.5838 0.81208 0.17494 0.0
C753 C 0.5838 0.82595 0.14919 0.0
C754 C 0.56307 0.84636 0.14447 0.0
C755 C 0.54275 0.85304 0.16432 0.0
C756 C 0.52218 0.87504 0.15378 0.0
C757 C 0.49151 0.86381 0.15289 0.0
C758 C 0.52407 0.90187 0.17149 0.0
C759 C 0.53385 0.87943 0.12473 0.0
C760 C 0.55755 0.86287 0.11976 0.0
C761 C 0.57131 0.86263 0.09397 0.0
C762 C 0.56021 0.87943 0.07254 0.0
C763 C 0.53561 0.89614 0.07711 0.0
C764 C 0.52266 0.89639 0.10373 0.0
H765 H 0.21933 0.58359 0.18176 0.0
H766 H 0.27227 0.50984 0.17071 0.0
H767 H 0.24005 0.49311 0.1332 0.0
H768 H 0.15194 0.55095 0.17039 0.0
H769 H 0.13695 0.58012 0.15162 0.0
H770 H 0.16423 0.58589 0.17748 0.0
H771 H 0.195 0.6112 0.14041 0.0
H772 H 0.16762 0.60533 0.11467 0.0
H773 H 0.20355 0.5935 0.10811 0.0
H774 H 0.20061 0.48342 0.09892 0.0
H775 H 0.15705 0.48178 0.06972 0.0
H776 H 0.13216 0.56366 0.10085 0.0
C777 C 0.22392 0.56384 0.17151 0.0
C778 C 0.24795 0.54776 0.1791 0.0
C779 C 0.25378 0.52227 0.16508 0.0
C780 C 0.23571 0.5127 0.14378 0.0
C781 C 0.21226 0.52917 0.13655 0.0
C782 C 0.20642 0.55427 0.14988 0.0
C783 C 0.17993 0.56802 0.13809 0.0
C784 C 0.1569 0.57143 0.16074 0.0
C785 C 0.18697 0.59618 0.12451 0.0
C786 C 0.17151 0.54652 0.11638 0.0
C787 C 0.19037 0.52423 0.11584 0.0
C788 C 0.18591 0.50093 0.09882 0.0
C789 C 0.16119 0.50019 0.08232 0.0
C790 C 0.14155 0.52276 0.08276 0.0
C791 C 0.14717 0.54641 0.09958 0.0
H792 H 0.53702 0.82111 0.80736 0.0
H793 H 0.45437 0.82902 0.76767 0.0
H794 H 0.44479 0.87223 0.79502 0.0
H795 H 0.51695 0.84174 0.87386 0.0
H796 H 0.54886 0.86105 0.88174 0.0
H797 H 0.55012 0.83266 0.85703 0.0
H798 H 0.57083 0.86576 0.81959 0.0
H799 H 0.56965 0.89431 0.84429 0.0
H800 H 0.55198 0.89751 0.81097 0.0
H801 H 0.44161 0.9098 0.832 0.0
H802 H 0.44679 0.94147 0.87284 0.0
H803 H 0.53328 0.91151 0.88505 0.0
C804 C 0.51724 0.83241 0.80406 0.0
C805 C 0.49641 0.82214 0.78552 0.0
C806 C 0.47057 0.83698 0.78172 0.0
C807 C 0.46501 0.86142 0.79713 0.0
C808 C 0.48581 0.87088 0.8157 0.0
C809 C 0.51163 0.8571 0.81883 0.0
C810 C 0.5299 0.87083 0.84098 0.0
C811 C 0.53684 0.85035 0.86481 0.0
C812 C 0.55721 0.88282 0.82818 0.0
C813 C 0.50993 0.89385 0.85059 0.0
C814 C 0.48456 0.89355 0.83582 0.0
C815 C 0.46166 0.91082 0.84316 0.0
C816 C 0.46473 0.92865 0.86634 0.0
C817 C 0.49065 0.92932 0.88148 0.0
C818 C 0.51361 0.91208 0.87315 0.0
H819 H 0.19741 0.58382 0.78889 0.0
H820 H 0.24846 0.50885 0.80036 0.0
H821 H 0.21506 0.49289 0.83667 0.0
H822 H 0.17888 0.59278 0.86336 0.0
H823 H 0.14346 0.60546 0.85574 0.0
H824 H 0.17204 0.61157 0.83147 0.0
H825 H 0.14248 0.58812 0.79215 0.0
H826 H 0.114 0.5816 0.81639 0.0
H827 H 0.12963 0.55305 0.79692 0.0
H828 H 0.17452 0.48301 0.86791 0.0
H829 H 0.13236 0.48214 0.89801 0.0
H830 H 0.10785 0.56487 0.86913 0.0
C831 C 0.20169 0.56425 0.79941 0.0
C832 C 0.22553 0.54754 0.79199 0.0
C833 C 0.23054 0.52207 0.80605 0.0
C834 C 0.21158 0.51276 0.8265 0.0
C835 C 0.18796 0.52939 0.83289 0.0
C836 C 0.1832 0.55485 0.82026 0.0
C837 C 0.15619 0.56864 0.83132 0.0
C838 C 0.16306 0.59625 0.84637 0.0
C839 C 0.13428 0.57311 0.80779 0.0
C840 C 0.14626 0.54663 0.85175 0.0
C841 C 0.16487 0.52411 0.85201 0.0
C842 C 0.15997 0.50065 0.8682 0.0
C843 C 0.13575 0.50034 0.88511 0.0
C844 C 0.1167 0.5235 0.88608 0.0
C845 C 0.12203 0.54693 0.86899 0.0
H846 H 0.49602 0.20168 0.83066 0.0
H847 H 0.41525 0.16268 0.8112 0.0
H848 H 0.41608 0.13905 0.85714 0.0
H849 H 0.52724 0.14432 0.8576 0.0
H850 H 0.54748 0.16177 0.88449 0.0
H851 H 0.53735 0.18035 0.85351 0.0
H852 H 0.51244 0.21844 0.88365 0.0
H853 H 0.52269 0.19999 0.91489 0.0
H854 H 0.48574 0.20848 0.90867 0.0
H855 H 0.42938 0.11461 0.90195 0.0
H856 H 0.45504 0.08975 0.93936 0.0
H857 H 0.52766 0.1439 0.9283 0.0
C858 C 0.47789 0.18915 0.83659 0.0
C859 C 0.45531 0.18437 0.81768 0.0
C860 C 0.43259 0.16679 0.82559 0.0
C861 C 0.43284 0.15345 0.85166 0.0
C862 C 0.45593 0.15797 0.86953 0.0
C863 C 0.478 0.17552 0.8623 0.0
C864 C 0.50228 0.17387 0.88308 0.0
C865 C 0.5302 0.16451 0.86881 0.0
C866 C 0.506 0.20186 0.89849 0.0
C867 C 0.49107 0.15168 0.90245 0.0
C868 C 0.46401 0.14326 0.8948 0.0
C869 C 0.45037 0.1214 0.90837 0.0
C870 C 0.46514 0.10728 0.92966 0.0
C871 C 0.49339 0.11466 0.93678 0.0
C872 C 0.50601 0.13777 0.92351 0.0
H873 H 0.7832 0.54843 0.8246 0.0
H874 H 0.73668 0.47543 0.85179 0.0
H875 H 0.77064 0.46932 0.89091 0.0
H876 H 0.85255 0.52188 0.83861 0.0
H877 H 0.86651 0.55492 0.85037 0.0
H878 H 0.83768 0.55409 0.82552 0.0
H879 H 0.80734 0.58546 0.85847 0.0
H880 H 0.836 0.5861 0.8836 0.0
H881 H 0.80111 0.57449 0.89391 0.0
H882 H 0.81128 0.46957 0.92518 0.0
H883 H 0.85612 0.47563 0.95159 0.0
H884 H 0.8752 0.54927 0.90264 0.0
C885 C 0.78023 0.53111 0.83874 0.0
C886 C 0.75738 0.51235 0.83518 0.0
C887 C 0.75396 0.49014 0.85431 0.0
C888 C 0.7731 0.48652 0.87655 0.0
C889 C 0.79536 0.50544 0.8795 0.0
C890 C 0.79898 0.52732 0.86114 0.0
C891 C 0.82511 0.54426 0.86845 0.0
C892 C 0.84674 0.54374 0.84431 0.0
C893 C 0.81688 0.57436 0.8766 0.0
C894 C 0.83598 0.52813 0.89344 0.0
C895 C 0.81845 0.50591 0.89959 0.0
C896 C 0.82501 0.48708 0.92078 0.0
C897 C 0.85051 0.4907 0.93567 0.0
C898 C 0.86906 0.51302 0.92932 0.0
C899 C 0.86127 0.53228 0.90833 0.0
H900 H 0.7176 0.69793 0.95542 0.0
H901 H 0.72503 0.7348 0.03797 0.0
H902 H 0.68229 0.70889 0.05328 0.0
H903 H 0.63932 0.69982 0.95295 0.0
H904 H 0.63717 0.66723 0.93404 0.0
H905 H 0.66762 0.6895 0.92957 0.0
H906 H 0.70117 0.64849 0.94319 0.0
H907 H 0.67085 0.62615 0.94778 0.0
H908 H 0.6959 0.63092 0.97599 0.0
H909 H 0.64175 0.67537 0.06053 0.0
H910 H 0.60353 0.63998 0.05802 0.0
H911 H 0.62069 0.62799 0.9697 0.0
C912 C 0.70997 0.70066 0.97661 0.0
C913 C 0.72438 0.71815 0.99563 0.0
C914 C 0.71399 0.72149 0.02318 0.0
C915 C 0.68986 0.70686 0.03202 0.0
C916 C 0.67622 0.68947 0.01283 0.0
C917 C 0.68562 0.68668 0.98557 0.0
C918 C 0.66722 0.66665 0.96911 0.0
C919 C 0.65192 0.68171 0.945 0.0
C920 C 0.68484 0.64157 0.9584 0.0
C921 C 0.64645 0.65804 0.99154 0.0
C922 C 0.65204 0.6713 0.01666 0.0
C923 C 0.63683 0.66522 0.04086 0.0
C924 C 0.6153 0.64506 0.03929 0.0
C925 C 0.60904 0.63162 0.01361 0.0
C926 C 0.62468 0.63841 0.98946 0.0
H927 H 0.30922 0.72817 0.06557 0.0
H928 H 0.24667 0.70421 0.00323 0.0
H929 H 0.27353 0.66054 0.99405 0.0
H930 H 0.36901 0.70581 0.03025 0.0
H931 H 0.388 0.69276 0.0603 0.0
H932 H 0.362 0.7202 0.06446 0.0
H933 H 0.33498 0.69038 0.10078 0.0
H934 H 0.36098 0.66276 0.0967 0.0
H935 H 0.32367 0.65562 0.09148 0.0
H936 H 0.3111 0.62406 0.98617 0.0
H937 H 0.35495 0.59525 0.98287 0.0
H938 H 0.39124 0.64076 0.05283 0.0
C939 C 0.30095 0.71339 0.05042 0.0
C940 C 0.27594 0.71938 0.03511 0.0
C941 C 0.26568 0.69976 0.01535 0.0
C942 C 0.28078 0.67496 0.00999 0.0
C943 C 0.30574 0.6699 0.02502 0.0
C944 C 0.31549 0.68831 0.04521 0.0
C945 C 0.3437 0.67868 0.05732 0.0
C946 C 0.36704 0.70066 0.05279 0.0
C947 C 0.34064 0.67143 0.08842 0.0
C948 C 0.34896 0.65272 0.03984 0.0
C949 C 0.32676 0.64794 0.02142 0.0
C950 C 0.32825 0.62707 0.00102 0.0
C951 C 0.35321 0.6109 -0.00078 0.0
C952 C 0.37611 0.61551 0.01793 0.0
C953 C 0.37365 0.63627 0.03884 0.0
H954 H 0.32454 0.31664 0.07978 0.0
H955 H 0.25879 0.34152 0.02092 0.0
H956 H 0.28622 0.38374 0.00945 0.0
H957 H 0.34425 0.38936 0.10288 0.0
H958 H 0.38147 0.38009 0.10541 0.0
H959 H 0.35458 0.35428 0.11221 0.0
H960 H 0.3774 0.32181 0.07486 0.0
H961 H 0.40402 0.34764 0.06765 0.0
H962 H 0.38194 0.33445 0.03974 0.0
H963 H 0.32398 0.41796 -0.00164 0.0
H964 H 0.36738 0.44604 0.99245 0.0
H965 H 0.40833 0.40063 0.05992 0.0
C966 C 0.31558 0.33145 0.0651 0.0
C967 C 0.28951 0.32599 0.05132 0.0
C968 C 0.27849 0.34559 0.03202 0.0
C969 C 0.294 0.36952 0.02527 0.0
C970 C 0.32021 0.37369 0.03835 0.0
C971 C 0.33068 0.35557 0.05832 0.0
C972 C 0.36025 0.36397 0.06792 0.0
C973 C 0.36012 0.37244 0.09895 0.0
C974 C 0.38218 0.34058 0.06218 0.0
C975 C 0.36524 0.38897 0.04935 0.0
C976 C 0.34183 0.39418 0.0325 0.0
C977 C 0.34219 0.41454 0.01187 0.0
C978 C 0.36702 0.43017 0.0085 0.0
C979 C 0.39108 0.42554 0.02584 0.0
C980 C 0.39005 0.40484 0.0467 0.0
H981 H 0.73499 0.31661 0.96675 0.0
H982 H 0.77045 0.33111 0.04925 0.0
H983 H 0.73087 0.36389 0.05995 0.0
H984 H 0.71377 0.38672 0.95448 0.0
H985 H 0.68154 0.37776 0.93604 0.0
H986 H 0.71157 0.35415 0.93553 0.0
H987 H 0.67999 0.3144 0.95477 0.0
H988 H 0.64977 0.33779 0.95495 0.0
H989 H 0.66014 0.32004 0.98654 0.0
H990 H 0.68769 0.39589 0.06109 0.0
H991 H 0.6437 0.42348 0.05292 0.0
H992 H 0.6382 0.3891 0.96895 0.0
C993 C 0.73406 0.32626 0.98725 0.0
C994 C 0.75554 0.32122 0.00728 0.0
C995 C 0.75407 0.33473 0.03367 0.0
C996 C 0.73174 0.35336 0.0399 0.0
C997 C 0.71119 0.35835 0.01945 0.0
C998 C 0.71211 0.34512 0.99369 0.0
C999 C 0.68798 0.35477 0.97503 0.0
C1000 C 0.69941 0.36921 0.94872 0.0
C1001 C 0.6683 0.33029 0.96739 0.0
C1002 C 0.67329 0.37543 0.9943 0.0
C1003 C 0.68692 0.37722 0.01985 0.0
C1004 C 0.67689 0.39471 0.04112 0.0
C1005 C 0.65202 0.41045 0.03624 0.0
C1006 C 0.63762 0.40873 0.01023 0.0
C1007 C 0.64872 0.39114 0.98901 0.0
H1008 H 0.01497 0.69369 0.69558 0.0
H1009 H 0.93643 0.73225 0.66678 0.0
H1010 H 0.9305 0.69431 0.63199 0.0
H1011 H 0.04053 0.6752 0.63055 0.0
H1012 H 0.05634 0.64249 0.64108 0.0
H1013 H 0.05224 0.67035 0.66611 0.0
H1014 H 0.0237 0.63763 0.6986 0.0
H1015 H 0.02785 0.60955 0.67367 0.0
H1016 H -0.00725 0.61986 0.68518 0.0
H1017 H 0.93625 0.65506 0.59677 0.0
H1018 H 0.9537 0.61831 0.56438 0.0
H1019 H 0.02754 0.60515 0.61707 0.0
C1020 C -0.00394 0.69368 0.68256 0.0
C1021 C 0.97605 0.71576 0.68399 0.0
C1022 C 0.95204 0.7155 0.66597 0.0
C1023 C 0.94841 0.69398 0.64627 0.0
C1024 C 0.96891 0.67281 0.64497 0.0
C1025 C -0.00781 0.67245 0.66276 0.0
C1026 C 0.01244 0.64878 0.65563 0.0
C1027 C 0.04212 0.65988 0.64787 0.0
C1028 C 0.01428 0.6277 0.6797 0.0
C1029 C -0.0026 0.6364 0.63053 0.0
C1030 C 0.97211 0.65022 0.62487 0.0
C1031 C 0.95561 0.64359 0.60147 0.0
C1032 C 0.9654 0.62243 0.58333 0.0
C1033 C -0.00865 0.60832 0.58871 0.0
C1034 C 0.00733 0.61533 0.61273 0.0
H1035 H 0.33931 0.05543 0.70954 0.0
H1036 H 0.34498 0.97469 0.74974 0.0
H1037 H 0.39201 0.96666 0.72824 0.0
H1038 H 0.36078 0.03522 0.64771 0.0
H1039 H 0.38148 0.06537 0.63838 0.0
H1040 H 0.35331 0.06882 0.6634 0.0
H1041 H 0.38878 0.08913 0.69984 0.0
H1042 H 0.41696 0.08599 0.67444 0.0
H1043 H 0.42083 0.06995 0.70824 0.0
H1044 H 0.43053 0.96184 0.69342 0.0
H1045 H 0.45802 0.96153 0.64953 0.0
H1046 H 0.42829 0.04567 0.6321 0.0
C1047 C 0.35105 0.03657 0.71461 0.0
C1048 C 0.33866 0.01573 0.73129 0.0
C1049 C 0.35433 0.99113 0.73734 0.0
C1050 C 0.38109 0.9864 0.72524 0.0
C1051 C 0.39209 0.00672 0.70758 0.0
C1052 C 0.37781 0.03164 0.70274 0.0
C1053 C 0.39182 0.04808 0.67965 0.0
C1054 C 0.37059 0.05471 0.6559 0.0
C1055 C 0.40541 0.07487 0.69126 0.0
C1056 C 0.41442 0.02734 0.67049 0.0
C1057 C 0.41488 0.00399 0.68738 0.0
C1058 C 0.43106 0.98036 0.68058 0.0
C1059 C 0.44645 0.98029 0.6555 0.0
C1060 C 0.44534 0.00362 0.63749 0.0
C1061 C 0.43003 0.02775 0.64573 0.0
H1062 H 0.96332 0.36067 0.70614 0.0
H1063 H 0.01977 0.29359 0.67939 0.0
H1064 H 0.03565 0.32237 0.63966 0.0
H1065 H 0.94424 0.38586 0.63568 0.0
H1066 H 0.94394 0.4219 0.64679 0.0
H1067 H 0.9348 0.3948 0.67113 0.0
H1068 H 0.97387 0.41248 0.70518 0.0
H1069 H 0.98312 0.43951 0.68092 0.0
H1070 H 0.01007 0.4154 0.69301 0.0
H1071 H 0.04881 0.36026 0.60573 0.0
H1072 H 0.05751 0.40381 0.57972 0.0
H1073 H -0.00765 0.44601 0.62886 0.0
C1074 C 0.97882 0.35191 0.69176 0.0
C1075 C -0.00969 0.32487 0.69584 0.0
C1076 C 0.01041 0.31411 0.67646 0.0
C1077 C 0.01963 0.33034 0.6539 0.0
C1078 C 0.00831 0.35716 0.65086 0.0
C1079 C -0.01185 0.36777 0.66914 0.0
C1080 C 0.98045 0.39771 0.66219 0.0
C1081 C 0.94899 0.4002 0.65342 0.0
C1082 C -0.0127 0.41743 0.68678 0.0
C1083 C 8e-05 0.40261 0.63768 0.0
C1084 C 0.01579 0.37891 0.63128 0.0
C1085 C 0.03637 0.37883 0.61032 0.0
C1086 C 0.0412 0.4037 0.59571 0.0
C1087 C 0.02557 0.42832 0.60219 0.0
C1088 C 0.00449 0.42752 0.62321 0.0
H1089 H 0.74845 0.04879 0.70775 0.0
H1090 H 0.71502 0.12671 0.7412 0.0
H1091 H 0.67638 0.12594 0.70587 0.0
H1092 H 0.73461 0.06243 0.63574 0.0
H1093 H 0.7243 0.02714 0.62744 0.0
H1094 H 0.7491 0.03365 0.65547 0.0
H1095 H 0.71651 0.00703 0.68981 0.0
H1096 H 0.69169 1.00028 0.66184 0.0
H1097 H 0.67969 0.01744 0.69334 0.0
H1098 H 0.64331 0.11794 0.66558 0.0
H1099 H 0.6148 0.10122 0.62565 0.0
H1100 H 0.66843 0.02713 0.61966 0.0
C1101 C 0.73291 0.06562 0.70761 0.0
C1102 C 0.73461 0.08789 0.72701 0.0
C1103 C 0.71386 0.10944 0.72653 0.0
C1104 C 0.69201 0.10923 0.7065 0.0
C1105 C 0.69112 0.08713 0.68742 0.0
C1106 C 0.71077 0.06553 0.68803 0.0
C1107 C 0.70469 0.04401 0.6655 0.0
C1108 C 0.72966 0.04169 0.64482 0.0
C1109 C 0.69773 0.01551 0.6784 0.0
C1110 C 0.67868 0.05704 0.65193 0.0
C1111 C 0.67139 0.08202 0.66476 0.0
C1112 C 0.64865 0.09831 0.6555 0.0
C1113 C 0.63268 0.08867 0.63271 0.0
C1114 C 0.63933 0.06281 0.6196 0.0
C1115 C 0.6627 0.04686 0.62938 0.0
H1116 H 0.01607 0.31273 0.36275 0.0
H1117 H 0.06471 0.34957 0.29546 0.0
H1118 H 0.06474 0.39477 0.32077 0.0
H1119 H 0.9715 0.36954 0.37528 0.0
H1120 H 0.97046 0.36544 0.41269 0.0
H1121 H 0.97677 0.33555 0.39059 0.0
H1122 H 0.02374 0.32499 0.41734 0.0
H1123 H 0.01749 0.35492 0.43956 0.0
H1124 H 0.05044 0.35177 0.42045 0.0
H1125 H 0.05601 0.43682 0.35183 0.0
H1126 H 0.038 0.47232 0.38516 0.0
H1127 H -0.00379 0.40717 0.43239 0.0
C1128 C 0.02739 0.33007 0.35363 0.0
C1129 C 0.04056 0.32756 0.32719 0.0
C1130 C 0.05436 0.35106 0.31562 0.0
C1131 C 0.05468 0.37673 0.32995 0.0
C1132 C 0.04127 0.37851 0.35587 0.0
C1133 C 0.02796 0.35575 0.36763 0.0
C1134 C 0.01345 0.36349 0.39483 0.0
C1135 C 0.98114 0.3582 0.39323 0.0
C1136 C 0.02711 0.34786 0.4195 0.0
C1137 C 0.01995 0.39436 0.39615 0.0
C1138 C 0.03631 0.40262 0.37372 0.0
C1139 C 0.04351 0.43052 0.36967 0.0
C1140 C 0.03321 0.45054 0.38874 0.0
C1141 C 0.01582 0.44254 0.41147 0.0
C1142 C 0.00971 0.41398 0.41543 0.0
H1143 H 0.66413 0.08358 0.30101 0.0
H1144 H 0.65473 1.00151 0.2636 0.0
H1145 H 0.62226 0.98786 0.30187 0.0
H1146 H 0.66282 0.06247 0.37286 0.0
H1147 H 0.64216 0.09223 0.38438 0.0
H1148 H 0.6651 0.09512 0.35442 0.0
H1149 H 0.62215 0.1119 0.32453 0.0
H1150 H 0.59908 0.10896 0.3544 0.0
H1151 H 0.59063 0.09064 0.32247 0.0
H1152 H 0.59261 0.98279 0.34503 0.0
H1153 H 0.56527 0.98741 0.38882 0.0
H1154 H 0.59124 0.07407 0.39602 0.0
C1155 C 0.65524 0.06275 0.30108 0.0
C1156 C 0.66183 0.04343 0.27974 0.0
C1157 C 0.64974 0.01645 0.27999 0.0
C1158 C 0.63139 0.00856 0.30156 0.0
C1159 C 0.62516 0.02812 0.32235 0.0
C1160 C 0.63648 0.05473 0.32215 0.0
C1161 C 0.6257 0.07199 0.34654 0.0
C1162 C 0.65042 0.08097 0.36568 0.0
C1163 C 0.60836 0.09737 0.33637 0.0
C1164 C 0.60683 0.05083 0.36063 0.0
C1165 C 0.60697 0.0256 0.34647 0.0
C1166 C 0.59205 0.00254 0.35613 0.0
C1167 C 0.57654 0.00539 0.38097 0.0
C1168 C 0.57573 0.03122 0.39554 0.0
C1169 C 0.59105 0.05419 0.3851 0.0
H1170 H 0.97518 0.70751 0.33219 0.0
H1171 H 0.04427 0.67117 0.28379 0.0
H1172 H 0.05271 0.63652 0.32087 0.0
H1173 H 0.00832 0.69362 0.40365 0.0
H1174 H 0.97395 0.68598 0.41842 0.0
H1175 H 0.97689 0.7112 0.39073 0.0
H1176 H 0.93985 0.6835 0.36165 0.0
H1177 H 0.93703 0.65813 0.38901 0.0
H1178 H 0.94633 0.64706 0.35412 0.0
H1179 H 0.04675 0.60062 0.35699 0.0
H1180 H 0.02888 0.56748 0.39198 0.0
H1181 H 0.9672 0.62843 0.42036 0.0
C1182 C -0.0072 0.69296 0.32995 0.0
C1183 C 0.00906 0.69197 0.30514 0.0
C1184 C 0.03143 0.67213 0.30256 0.0
C1185 C 0.03652 0.65251 0.3236 0.0
C1186 C 0.01936 0.65328 0.3473 0.0
C1187 C -0.00175 0.67326 0.35087 0.0
C1188 C 0.98099 0.66768 0.37699 0.0
C1189 C -0.01469 0.69101 0.39874 0.0
C1190 C 0.94918 0.66385 0.37001 0.0
C1191 C -0.00538 0.64057 0.38654 0.0
C1192 C 0.01698 0.63289 0.36934 0.0
C1193 C 0.03036 0.60697 0.3716 0.0
C1194 C 0.02062 0.5884 0.39193 0.0
C1195 C -0.00175 0.59591 0.41013 0.0
C1196 C -0.01482 0.62247 0.40742 0.0
H1197 H 0.29048 0.0323 0.32341 0.0
H1198 H 0.28628 0.94221 0.31555 0.0
H1199 H 0.31839 0.93713 0.35632 0.0
H1200 H 0.36403 0.03453 0.33846 0.0
H1201 H 0.36169 0.06343 0.36269 0.0
H1202 H 0.33562 0.05987 0.33532 0.0
H1203 H 0.29535 0.06088 0.37236 0.0
H1204 H 0.32147 0.06409 0.39987 0.0
H1205 H 0.29604 0.03603 0.40053 0.0
H1206 H 0.35229 0.9416 0.39573 0.0
H1207 H 0.39135 0.95482 0.42734 0.0
H1208 H 0.37591 0.04239 0.4088 0.0
C1209 C 0.29618 0.01159 0.33061 0.0
C1210 C 0.28601 0.98757 0.31668 0.0
C1211 C 0.29404 0.96074 0.32612 0.0
C1212 C 0.31198 0.9577 0.34934 0.0
C1213 C 0.32174 0.98175 0.36272 0.0
C1214 C 0.31448 0.0082 0.35354 0.0
C1215 C 0.33034 0.03047 0.36989 0.0
C1216 C 0.34903 0.0481 0.35043 0.0
C1217 C 0.30955 0.04896 0.38666 0.0
C1218 C 0.34826 0.01234 0.38909 0.0
C1219 C 0.34234 0.98436 0.38504 0.0
C1220 C 0.35704 0.96344 0.39922 0.0
C1221 C 0.37921 0.97121 0.41717 0.0
C1222 C 0.38683 0.99965 0.42049 0.0
C1223 C 0.37043 0.02051 0.40697 0.0
H1224 H -0.00522 0.21216 0.3169 0.0
H1225 H 0.08186 0.22891 0.34175 0.0
H1226 H 0.08205 0.18631 0.37102 0.0
H1227 H 0.97164 0.19185 0.38305 0.0
H1228 H 0.94758 0.16528 0.37069 0.0
H1229 H 0.95572 0.19461 0.34884 0.0
H1230 H 0.97227 0.16091 0.30941 0.0
H1231 H 0.96411 0.13142 0.33119 0.0
H1232 H -0.00068 0.13503 0.3167 0.0
H1233 H 0.07168 0.14302 0.39921 0.0
H1234 H 0.05037 0.10545 0.4271 0.0
H1235 H 0.96915 0.1192 0.38621 0.0
C1236 C 0.01407 0.20638 0.32799 0.0
C1237 C 0.0385 0.22333 0.32681 0.0
C1238 C 0.0631 0.21585 0.34226 0.0
C1239 C 0.06339 0.19172 0.3588 0.0
C1240 C 0.0388 0.17553 0.3598 0.0
C1241 C 0.01452 0.18268 0.34495 0.0
C1242 C -0.00995 0.16342 0.3517 0.0
C1243 C 0.96477 0.17977 0.36432 0.0
C1244 C 0.98091 0.1467 0.3257 0.0
C1245 C 0.00413 0.14471 0.37313 0.0
C1246 C 0.0324 0.1516 0.37708 0.0
C1247 C 0.04955 0.13745 0.39622 0.0
C1248 C 0.03729 0.11609 0.4121 0.0
C1249 C 0.00811 0.10946 0.40926 0.0
C1250 C -0.00845 0.12377 0.38909 0.0
H1251 H 0.80824 0.09373 0.30143 0.0
H1252 H 0.75956 0.01718 0.29975 0.0
H1253 H 0.78143 0.0029 0.34468 0.0
H1254 H 0.87149 0.0648 0.32637 0.0
H1255 H 0.8811 0.09395 0.34837 0.0
H1256 H 0.85906 0.09952 0.31812 0.0
H1257 H 0.82052 0.12289 0.34939 0.0
H1258 H 0.84246 0.11715 0.37983 0.0
H1259 H 0.80651 0.10412 0.37883 0.0
H1260 H 0.81244 0.99463 0.38637 0.0
H1261 H 0.85096 0.99249 0.42153 0.0
H1262 H 0.87854 0.07524 0.39711 0.0
C1263 C 0.80193 0.07423 0.31092 0.0
C1264 C 0.78234 0.05644 0.29755 0.0
C1265 C 0.7746 0.03095 0.31002 0.0
C1266 C 0.78676 0.0228 0.33551 0.0
C1267 C 0.80635 0.04061 0.34823 0.0
C1268 C 0.81379 0.06589 0.33646 0.0
C1269 C 0.83691 0.08015 0.35332 0.0
C1270 C 0.86372 0.08486 0.33548 0.0
C1271 C 0.82594 0.10771 0.3661 0.0
C1272 C 0.84211 0.05845 0.37571 0.0
C1273 C 0.824 0.03598 0.37263 0.0
C1274 C 0.8264 0.01232 0.38934 0.0
C1275 C 0.84836 0.01128 0.40924 0.0
C1276 C 0.86763 0.03376 0.41222 0.0
C1277 C 0.86383 0.05793 0.39574 0.0
H1278 H 0.00025 0.85047 0.29045 0.0
H1279 H 0.96373 0.78359 0.33896 0.0
H1280 H 0.96211 0.81463 0.38065 0.0
H1281 H 0.04316 0.88218 0.34829 0.0
H1282 H 0.03624 0.91714 0.3361 0.0
H1283 H 0.03808 0.88852 0.31151 0.0
H1284 H -0.01224 0.90151 0.293 0.0
H1285 H -0.01421 0.93004 0.3175 0.0
H1286 H 0.95839 0.90381 0.31716 0.0
H1287 H 0.95941 0.85449 0.41497 0.0
H1288 H 0.95544 0.89993 0.43937 0.0
H1289 H -0.00561 0.94069 0.36833 0.0
C1290 C -0.00744 0.84232 0.3101 0.0
C1291 C 0.98228 0.81485 0.31193 0.0
C1292 C 0.97185 0.80467 0.33754 0.0
C1293 C 0.97096 0.82209 0.36122 0.0
C1294 C 0.98082 0.84941 0.35875 0.0
C1295 C -0.00837 0.85941 0.33387 0.0
C1296 C -0.00124 0.89014 0.33607 0.0
C1297 C 0.03098 0.89476 0.3328 0.0
C1298 C 0.98164 0.90738 0.31467 0.0
C1299 C -0.01083 0.89618 0.36567 0.0
C1300 C 0.9793 0.87236 0.37856 0.0
C1301 C 0.96751 0.87319 0.40526 0.0
C1302 C 0.96529 0.89911 0.41893 0.0
C1303 C 0.97466 0.92386 0.40579 0.0
C1304 C -0.01268 0.92214 0.37908 0.0
H1305 H 0.19855 0.0438 0.3057 0.0
H1306 H 0.17081 0.97096 0.25907 0.0
H1307 H 0.12201 0.97784 0.27675 0.0
H1308 H 0.16576 0.02853 0.36452 0.0
H1309 H 0.15548 0.06343 0.37487 0.0
H1310 H 0.18554 0.05824 0.35233 0.0
H1311 H 0.16269 0.09098 0.31547 0.0
H1312 H 0.13241 0.09639 0.33808 0.0
H1313 H 0.1272 0.08405 0.3028 0.0
H1314 H 0.08088 0.98469 0.30805 0.0
H1315 H 0.05058 0.99172 0.34954 0.0
H1316 H 0.10401 0.06062 0.37598 0.0
C1317 C 0.18192 0.02992 0.29849 0.0
C1318 C 0.1884 0.00694 0.28097 0.0
C1319 C 0.16624 0.98901 0.27209 0.0
C1320 C 0.13842 0.99277 0.28204 0.0
C1321 C 0.13303 0.01477 0.30051 0.0
C1322 C 0.15409 0.03337 0.3083 0.0
C1323 C 0.14409 0.05251 0.33163 0.0
C1324 C 0.16387 0.05052 0.35734 0.0
C1325 C 0.14143 0.08278 0.32137 0.0
C1326 C 0.11506 0.04022 0.33735 0.0
C1327 C 0.10873 0.01898 0.31867 0.0
C1328 C 0.08511 1.00185 0.32224 0.0
C1329 C 0.0681 0.00589 0.34596 0.0
C1330 C 0.07487 0.02685 0.36582 0.0
C1331 C 0.09792 0.04491 0.36077 0.0
H1332 H 0.00471 0.80764 0.65693 0.0
H1333 H 0.96397 0.83833 0.73248 0.0
H1334 H 0.96398 0.88623 0.71332 0.0
H1335 H 0.0509 0.86386 0.64808 0.0
H1336 H 0.04859 0.86429 0.61048 0.0
H1337 H 0.04294 0.83224 0.62905 0.0
H1338 H -0.00651 0.82693 0.60533 0.0
H1339 H -0.00094 0.85901 0.58663 0.0
H1340 H 0.96778 0.85497 0.60799 0.0
H1341 H 0.97096 0.93111 0.68693 0.0
H1342 H -0.0138 0.96964 0.65638 0.0
H1343 H 0.02238 0.90929 0.59819 0.0
C1344 C -0.00479 0.82433 0.66919 0.0
C1345 C 0.98417 0.81926 0.69613 0.0
C1346 C 0.97265 0.8418 0.71185 0.0
C1347 C 0.97238 0.869 0.70105 0.0
C1348 C 0.98364 0.87331 0.6745 0.0
C1349 C -0.00516 0.85157 0.65878 0.0
C1350 C 0.00726 0.86197 0.6316 0.0
C1351 C 0.03932 0.85519 0.62971 0.0
C1352 C -0.00909 0.85001 0.6064 0.0
C1353 C 0.00196 0.89304 0.63479 0.0
C1354 C -0.01204 0.89914 0.65948 0.0
C1355 C 0.98173 0.92655 0.66744 0.0
C1356 C -0.00952 0.94831 0.64994 0.0
C1357 C 0.00551 0.94252 0.62489 0.0
C1358 C 0.01081 0.91445 0.6171 0.0
H1359 H 0.21286 0.99234 0.70909 0.0
H1360 H 0.25781 0.06861 0.68942 0.0
H1361 H 0.22494 0.07696 0.64978 0.0
H1362 H 0.20055 0.97108 0.63823 0.0
H1363 H 0.16573 0.957 0.64505 0.0
H1364 H 0.19228 0.95743 0.67228 0.0
H1365 H 0.15778 0.98498 0.70468 0.0
H1366 H 0.13101 0.98432 0.67768 0.0
H1367 H 0.14208 0.0172 0.69254 0.0
H1368 H 0.18678 0.07701 0.61249 0.0
H1369 H 0.14573 0.06919 0.581 0.0
H1370 H 0.12702 0.99206 0.6245 0.0
C1371 C 0.21549 0.01099 0.69667 0.0
C1372 C 0.23768 0.02996 0.70235 0.0
C1373 C 0.2409 0.05384 0.68532 0.0
C1374 C 0.22238 0.05873 0.66279 0.0
C1375 C 0.20094 0.0394 0.65749 0.0
C1376 C 0.19741 0.01602 0.67395 0.0
C1377 C 0.17296 0.99829 0.6636 0.0
C1378 C 0.18352 0.96923 0.65423 0.0
C1379 C 0.14957 0.99608 0.68595 0.0
C1380 C 0.16308 0.01548 0.63893 0.0
C1381 C 0.17948 0.0391 0.6357 0.0
C1382 C 0.17385 0.05852 0.61475 0.0
C1383 C 0.15052 0.05388 0.59694 0.0
C1384 C 0.1332 0.02996 0.60016 0.0
C1385 C 0.13997 0.0104 0.62123 0.0
H1386 H 0.00487 0.18076 0.70832 0.0
H1387 H 0.92689 0.21748 0.6763 0.0
H1388 H 0.92913 0.18587 0.635 0.0
H1389 H 0.04025 0.17363 0.64344 0.0
H1390 H 0.05709 0.14078 0.65188 0.0
H1391 H 0.04818 0.16515 0.6793 0.0
H1392 H 0.01872 0.12689 0.70414 0.0
H1393 H 0.02754 0.10242 0.67671 0.0
H1394 H -0.00926 0.1093 0.68524 0.0
H1395 H 0.94145 0.15137 0.59638 0.0
H1396 H 0.96374 0.11824 0.56293 0.0
H1397 H 0.03303 0.10391 0.6211 0.0
C1398 C -0.01175 0.18193 0.69261 0.0
C1399 C 0.96572 0.20127 0.6951 0.0
C1400 C 0.94429 0.20261 0.6744 0.0
C1401 C 0.94538 0.18474 0.65105 0.0
C1402 C 0.96794 0.16571 0.64907 0.0
C1403 C -0.011 0.16424 0.66931 0.0
C1404 C 0.01153 0.14277 0.66184 0.0
C1405 C 0.04099 0.1564 0.65894 0.0
C1406 C 0.01215 0.11893 0.68326 0.0
C1407 C 0.00027 0.13282 0.63394 0.0
C1408 C 0.97493 0.14597 0.62704 0.0
C1409 C 0.96108 0.14067 0.60177 0.0
C1410 C 0.97367 0.12163 0.583 0.0
C1411 C -0.00033 0.10814 0.58968 0.0
C1412 C 0.01301 0.11382 0.61552 0.0
H1413 H 0.83443 0.11649 0.71311 0.0
H1414 H 0.84974 0.0494 0.77169 0.0
H1415 H 0.89361 0.03624 0.74606 0.0
H1416 H 0.84976 0.08123 0.65526 0.0
H1417 H 0.86729 0.10868 0.63636 0.0
H1418 H 0.84178 0.11737 0.66295 0.0
H1419 H 0.87952 0.14744 0.68888 0.0
H1420 H 0.90491 0.13899 0.66184 0.0
H1421 H 0.91353 0.13216 0.69787 0.0
H1422 H 0.92833 0.02389 0.70849 0.0
H1423 H 0.95241 0.0148 0.66353 0.0
H1424 H 0.91593 0.09115 0.63006 0.0
C1425 C 0.84774 0.09976 0.72111 0.0
C1426 C 0.83899 0.08403 0.74439 0.0
C1427 C 0.85644 0.06194 0.75414 0.0
C1428 C 0.88134 0.05435 0.73969 0.0
C1429 C 0.88875 0.0695 0.71597 0.0
C1430 C 0.87277 0.09219 0.70711 0.0
C1431 C 0.88311 0.10281 0.67917 0.0
C1432 C 0.85906 0.10247 0.65716 0.0
C1433 C 0.89604 0.13209 0.68215 0.0
C1434 C 0.90593 0.08131 0.67268 0.0
C1435 C 0.90931 0.0626 0.6944 0.0
C1436 C 0.9265 0.03887 0.69171 0.0
C1437 C 0.93998 0.0338 0.66603 0.0
C1438 C 0.93614 0.05235 0.64335 0.0
C1439 C 0.91972 0.07688 0.64717 0.0
H1440 H 0.30719 0.95258 0.15644 0.0
H1441 H 0.33435 0.99452 0.2322 0.0
H1442 H 0.38039 0.00605 0.20996 0.0
H1443 H 0.38048 0.92629 0.13413 0.0
H1444 H 0.37224 0.93257 0.09788 0.0
H1445 H 0.34438 0.9227 0.12172 0.0
H1446 H 0.31555 0.96687 0.10766 0.0
H1447 H 0.34341 0.97686 0.08415 0.0
H1448 H 0.33182 1.00075 0.11113 0.0
H1449 H 0.41918 0.01967 0.17733 0.0
H1450 H 0.44777 0.03455 0.13688 0.0
H1451 H 0.39566 0.98317 0.08226 0.0
C1452 C 0.32337 0.96328 0.16854 0.0
C1453 C 0.31784 0.97234 0.196 0.0
C1454 C 0.33874 0.98707 0.21122 0.0
C1455 C 0.36487 0.99362 0.19878 0.0
C1456 C 0.36962 0.98502 0.17127 0.0
C1457 C 0.34955 0.9699 0.1564 0.0
C1458 C 0.35839 0.96602 0.12621 0.0
C1459 C 0.36423 0.93505 0.11961 0.0
C1460 C 0.33597 0.97838 0.10613 0.0
C1461 C 0.38568 0.98269 0.12603 0.0
C1462 C 0.39212 0.99299 0.15233 0.0
C1463 C 0.41475 0.01122 0.15677 0.0
C1464 C 0.43081 0.01963 0.13365 0.0
C1465 C 0.424 0.00995 0.10644 0.0
C1466 C 0.40167 0.99061 0.10284 0.0
H1467 H 0.04418 0.31085 0.17469 0.0
H1468 H 0.98011 0.33995 0.2332 0.0
H1469 H 0.97216 0.38226 0.2044 0.0
H1470 H 0.07524 0.37657 0.16088 0.0
H1471 H 0.08128 0.36971 0.12427 0.0
H1472 H 0.08042 0.34122 0.14861 0.0
H1473 H 0.04086 0.31761 0.1191 0.0
H1474 H 0.04142 0.34621 0.09483 0.0
H1475 H 0.00852 0.33666 0.11145 0.0
H1476 H 0.97279 0.42206 0.17027 0.0
H1477 H 0.98347 0.4577 0.13476 0.0
H1478 H 0.04755 0.40264 0.09861 0.0
C1479 C 0.02837 0.32613 0.18121 0.0
C1480 C 0.01259 0.32245 0.2059 0.0
C1481 C -0.00778 0.34265 0.21416 0.0
C1482 C -0.01245 0.3666 0.19793 0.0
C1483 C 0.00344 0.36977 0.17355 0.0
C1484 C 0.02348 0.35012 0.16523 0.0
C1485 C 0.03843 0.35901 0.13872 0.0
C1486 C 0.07075 0.36181 0.14343 0.0
C1487 C 0.03191 0.33867 0.1146 0.0
C1488 C 0.02438 0.38717 0.13398 0.0
C1489 C 0.00393 0.39278 0.15401 0.0
C1490 C -0.01133 0.41785 0.1544 0.0
C1491 C -0.00509 0.43798 0.13414 0.0
C1492 C 0.01642 0.43302 0.11394 0.0
C1493 C 0.03091 0.40703 0.11366 0.0
H1494 H 0.64568 0.0226 0.18723 0.0
H1495 H 0.70795 0.0833 0.15924 0.0
H1496 H 0.68957 0.0784 0.11116 0.0
H1497 H 0.64389 0.97912 0.12831 0.0
H1498 H 0.60585 0.97418 0.1293 0.0
H1499 H 0.6251 0.98129 0.16108 0.0
H1500 H 0.59218 0.02396 0.17101 0.0
H1501 H 0.57274 0.01687 0.13929 0.0
H1502 H 0.5883 0.05077 0.14493 0.0
H1503 H 0.66587 0.06388 0.06527 0.0
H1504 H 0.63568 0.04535 0.02705 0.0
H1505 H 0.58435 1.00147 0.08777 0.0
C1506 C 0.65526 0.03557 0.17143 0.0
C1507 C 0.67844 0.05343 0.17749 0.0
C1508 C 0.69063 0.06898 0.15538 0.0
C1509 C 0.68014 0.06657 0.12794 0.0
C1510 C 0.65703 0.04906 0.12304 0.0
C1511 C 0.64445 0.03426 0.14434 0.0
C1512 C 0.61911 0.01777 0.1341 0.0
C1513 C 0.62379 0.98623 0.13845 0.0
C1514 C 0.59145 0.02797 0.14817 0.0
C1515 C 0.61959 0.02522 0.10351 0.0
C1516 C 0.64185 0.04292 0.09736 0.0
C1517 C 0.6479 0.05067 0.06998 0.0
C1518 C 0.63059 0.04014 0.04844 0.0
C1519 C 0.60706 0.02283 0.05454 0.0
C1520 C 0.60159 0.0154 0.08249 0.0
H1521 H 0.03314 0.68704 0.20336 0.0
H1522 H 0.94288 0.70553 0.1974 0.0
H1523 H 0.93991 0.67694 0.15399 0.0
H1524 H 0.04734 0.68781 0.12733 0.0
H1525 H 0.07317 0.65992 0.13003 0.0
H1526 H 0.06808 0.68381 0.15883 0.0
H1527 H 0.05821 0.64201 0.19164 0.0
H1528 H 0.06304 0.61806 0.16294 0.0
H1529 H 0.0304 0.6177 0.18273 0.0
H1530 H 0.94669 0.64183 0.11366 0.0
H1531 H 0.96323 0.60669 0.07896 0.0
H1532 H 0.04908 0.61334 0.11202 0.0
C1533 C 0.01289 0.68545 0.19256 0.0
C1534 C -0.01176 0.69835 0.20344 0.0
C1535 C 0.96201 0.69588 0.18904 0.0
C1536 C 0.96015 0.67966 0.16451 0.0
C1537 C 0.98485 0.66659 0.15459 0.0
C1538 C 0.0108 0.66978 0.168 0.0
C1539 C 0.03407 0.65301 0.1539 0.0
C1540 C 0.05701 0.67229 0.1418 0.0
C1541 C 0.04718 0.63142 0.174 0.0
C1542 C 0.01707 0.63911 0.13099 0.0
C1543 C -0.01125 0.64714 0.13148 0.0
C1544 C 0.96892 0.63568 0.11293 0.0
C1545 C 0.97841 0.61556 0.09342 0.0
C1546 C 0.00739 0.60714 0.09278 0.0
C1547 C 0.0268 0.61941 0.11171 0.0
H1548 H 0.31361 0.03667 0.83925 0.0
H1549 H 0.29712 0.948 0.84512 0.0
H1550 H 0.33963 0.94231 0.8757 0.0
H1551 H 0.3904 0.03141 0.83712 0.0
H1552 H 0.39584 0.06253 0.85778 0.0
H1553 H 0.36448 0.05935 0.83622 0.0
H1554 H 0.33231 0.06838 0.87942 0.0
H1555 H 0.36359 0.07194 0.90093 0.0
H1556 H 0.33666 0.04689 0.90998 0.0
H1557 H 0.3838 0.94693 0.90585 0.0
H1558 H 0.42337 0.96174 0.93582 0.0
H1559 H 0.41091 0.04739 0.90972 0.0
C1560 C 0.31891 0.01615 0.84727 0.0
C1561 C 0.30225 0.99277 0.84043 0.0
C1562 C 0.3097 0.96611 0.85067 0.0
C1563 C 0.33383 0.96271 0.86778 0.0
C1564 C 0.35013 0.98622 0.87407 0.0
C1565 C 0.34288 0.01244 0.86425 0.0
C1566 C 0.3635 0.03441 0.87448 0.0
C1567 C 0.3795 0.0477 0.84993 0.0
C1568 C 0.34809 0.05671 0.89226 0.0
C1569 C 0.38321 0.01657 0.89204 0.0
C1570 C 0.3754 0.98882 0.89129 0.0
C1571 C 0.39009 0.96864 0.90653 0.0
C1572 C 0.41275 0.97723 0.92364 0.0
C1573 C 0.42049 0.00566 0.92566 0.0
C1574 C 0.40577 0.02537 0.90892 0.0
H1575 H 0.00955 0.3503 0.7908 0.0
H1576 H 0.9392 0.29728 0.81551 0.0
H1577 H 0.93646 0.3221 0.8606 0.0
H1578 H 0.04177 0.35979 0.86007 0.0
H1579 H 0.04979 0.39601 0.85389 0.0
H1580 H 0.04905 0.37158 0.8251 0.0
H1581 H 0.01195 0.40266 0.79951 0.0
H1582 H 0.01272 0.42721 0.82807 0.0
H1583 H 0.97934 0.41223 0.81709 0.0
H1584 H 0.93853 0.35495 0.90133 0.0
H1585 H 0.94292 0.39546 0.93299 0.0
H1586 H 0.01027 0.4286 0.88089 0.0
C1587 C -0.00644 0.34378 0.80564 0.0
C1588 C 0.97476 0.32156 0.79952 0.0
C1589 C 0.95435 0.31372 0.81981 0.0
C1590 C 0.95253 0.32778 0.84551 0.0
C1591 C 0.97117 0.34973 0.85066 0.0
C1592 C -0.00881 0.35781 0.83124 0.0
C1593 C 0.00691 0.38369 0.84082 0.0
C1594 C 0.03877 0.37737 0.84524 0.0
C1595 C 0.00245 0.40787 0.82015 0.0
C1596 C -0.00794 0.38933 0.86835 0.0
C1597 C 0.97189 0.36919 0.87389 0.0
C1598 C 0.95448 0.37068 0.89739 0.0
C1599 C 0.95723 0.39374 0.91533 0.0
C1600 C 0.97708 0.41513 0.90955 0.0
C1601 C -0.00491 0.41248 0.88604 0.0
H1602 H 0.71875 0.04646 0.84346 0.0
H1603 H 0.71254 0.13548 0.85898 0.0
H1604 H 0.66624 0.12864 0.88299 0.0
H1605 H 0.64291 0.03488 0.83113 0.0
H1606 H 0.64325 1.00136 0.84811 0.0
H1607 H 0.67487 0.01378 0.83102 0.0
H1608 H 0.70351 0.00751 0.877 0.0
H1609 H 0.67198 0.99514 0.89422 0.0
H1610 H 0.69115 0.02447 0.90849 0.0
H1611 H 0.62228 0.11101 0.90851 0.0
H1612 H 0.58332 0.08462 0.93064 0.0
H1613 H 0.61861 0.0074 0.89758 0.0
C1614 C 0.70745 0.06445 0.85183 0.0
C1615 C 0.71885 0.09145 0.8496 0.0
C1616 C 0.70384 0.11465 0.86063 0.0
C1617 C 0.67762 0.11093 0.87423 0.0
C1618 C 0.66702 0.08387 0.87662 0.0
C1619 C 0.68139 0.06107 0.86549 0.0
C1620 C 0.66578 0.03415 0.87115 0.0
C1621 C 0.65613 0.02023 0.84372 0.0
C1622 C 0.6842 0.01415 0.88877 0.0
C1623 C 0.64063 0.04523 0.88763 0.0
C1624 C 0.64165 0.07393 0.89064 0.0
C1625 C 0.62119 0.08855 0.90607 0.0
C1626 C 0.5992 0.07338 0.91878 0.0
C1627 C 0.59783 0.04398 0.91594 0.0
C1628 C 0.61878 0.02993 0.8999 0.0
H1629 H 0.97282 0.71208 0.8248 0.0
H1630 H 0.05754 0.69784 0.79175 0.0
H1631 H 0.06388 0.65745 0.82365 0.0
H1632 H -0.0108 0.69528 0.89626 0.0
H1633 H 0.9555 0.67858 0.90251 0.0
H1634 H 0.95792 0.70611 0.87713 0.0
H1635 H 0.93697 0.6733 0.83908 0.0
H1636 H 0.93426 0.64583 0.86446 0.0
H1637 H 0.95373 0.63991 0.83251 0.0
H1638 H 0.06065 0.61877 0.86029 0.0
H1639 H 0.04681 0.58373 0.89569 0.0
H1640 H 0.9642 0.62404 0.9037 0.0
C1641 C -0.00741 0.70026 0.82424 0.0
C1642 C 0.01469 0.70765 0.80596 0.0
C1643 C 0.04039 0.69212 0.80568 0.0
C1644 C 0.04418 0.66933 0.82376 0.0
C1645 C 0.02202 0.66259 0.84189 0.0
C1646 C -0.00334 0.67755 0.8421 0.0
C1647 C 0.97602 0.66605 0.86327 0.0
C1648 C 0.96928 0.6878 0.88614 0.0
C1649 C 0.94864 0.65565 0.84897 0.0
C1650 C -0.00647 0.64209 0.87476 0.0
C1651 C 0.02011 0.64049 0.86248 0.0
C1652 C 0.03986 0.61987 0.87001 0.0
C1653 C 0.03194 0.60013 0.89022 0.0
C1654 C 0.00448 0.60107 0.90238 0.0
C1655 C -0.01468 0.6226 0.89468 0.0
H1656 H 0.18566 0.327 0.01597 0.0
H1657 H 0.13638 0.29602 0.08553 0.0
H1658 H 0.09991 0.33299 0.0775 0.0
H1659 H 0.17139 0.40049 0.02758 0.0
H1660 H 0.16928 0.40838 0.99084 0.0
H1661 H 0.19138 0.37989 0.0027 0.0
H1662 H 0.16462 0.34611 0.96936 0.0
H1663 H 0.14235 0.37448 0.95755 0.0
H1664 H 0.12638 0.34346 0.97165 0.0
H1665 H 0.06826 0.37246 0.06036 0.0
H1666 H 0.04465 0.41241 0.03702 0.0
H1667 H 0.11558 0.41759 0.97917 0.0
C1668 C 0.16722 0.32822 0.02954 0.0
C1669 C 0.16355 0.30903 0.05136 0.0
C1670 C 0.13932 0.31083 0.06876 0.0
C1671 C 0.11859 0.33164 0.0643 0.0
C1672 C 0.12261 0.35029 0.04236 0.0
C1673 C 0.14639 0.34881 0.02534 0.0
C1674 C 0.14559 0.37112 0.00309 0.0
C1675 C 0.17091 0.39116 0.00626 0.0
C1676 C 0.14468 0.358 0.97368 0.0
C1677 C 0.11768 0.38543 0.01022 0.0
C1678 C 0.10466 0.3731 0.03284 0.0
C1679 C 0.07837 0.38247 0.04282 0.0
C1680 C 0.06518 0.40521 0.02947 0.0
C1681 C 0.07841 0.41838 0.0065 0.0
C1682 C 0.10494 0.40814 0.99678 0.0
H1683 H 0.18235 0.69827 0.04197 0.0
H1684 H 0.11251 0.7577 0.04703 0.0
H1685 H 0.078 0.71909 0.04127 0.0
H1686 H 0.15486 0.65755 0.98915 0.0
H1687 H 0.16731 0.62448 0.00245 0.0
H1688 H 0.18602 0.65599 0.01123 0.0
H1689 H 0.1801 0.64514 0.0639 0.0
H1690 H 0.16115 0.61358 0.0553 0.0
H1691 H 0.14497 0.63942 0.07785 0.0
H1692 H 0.05175 0.67528 0.02912 0.0
H1693 H 0.03583 0.62972 0.01012 0.0
H1694 H 0.12254 0.5985 0.01354 0.0
C1695 C 0.15979 0.70302 0.04251 0.0
C1696 C 0.14987 0.73077 0.04516 0.0
C1697 C 0.1203 0.73641 0.04525 0.0
C1698 C 0.10063 0.71464 0.04212 0.0
C1699 C 0.111 0.6874 0.03917 0.0
C1700 C 0.1399 0.68149 0.0395 0.0
C1701 C 0.14558 0.65082 0.03353 0.0
C1702 C 0.16454 0.64701 0.00754 0.0
C1703 C 0.15873 0.63639 0.05917 0.0
C1704 C 0.11549 0.64071 0.02828 0.0
C1705 C 0.09579 0.662 0.03225 0.0
C1706 C 0.06688 0.65832 0.02653 0.0
C1707 C 0.05801 0.63246 0.0158 0.0
C1708 C 0.07796 0.61075 0.01102 0.0
C1709 C 0.10689 0.61469 0.01783 0.0
H1710 H 0.32758 0.22739 0.07578 0.0
H1711 H 0.27448 0.21494 0.00259 0.0
H1712 H 0.308 0.17867 0.9853 0.0
H1713 H 0.39468 0.21876 0.04307 0.0
H1714 H 0.41113 0.19944 0.07103 0.0
H1715 H 0.38294 0.22403 0.07856 0.0
H1716 H 0.35384 0.18585 0.10298 0.0
H1717 H 0.3815 0.16049 0.09613 0.0
H1718 H 0.34563 0.15394 0.08454 0.0
H1719 H 0.34887 0.14674 0.97442 0.0
H1720 H 0.39054 0.11519 0.97385 0.0
H1721 H 0.41568 0.14581 0.05582 0.0
C1722 C 0.32292 0.21667 0.05633 0.0
C1723 C 0.29852 0.22366 0.04048 0.0
C1724 C 0.29295 0.20947 0.01509 0.0
C1725 C 0.31196 0.1891 0.00503 0.0
C1726 C 0.33616 0.18302 0.02086 0.0
C1727 C 0.3414 0.19592 0.04625 0.0
C1728 C 0.36851 0.18482 0.05954 0.0
C1729 C 0.39061 0.20815 0.06327 0.0
C1730 C 0.36198 0.17043 0.08745 0.0
C1731 C 0.37785 0.16389 0.03749 0.0
C1732 C 0.35909 0.16354 0.01519 0.0
C1733 C 0.36355 0.14658 0.99189 0.0
C1734 C 0.38742 0.12887 0.99169 0.0
C1735 C 0.40628 0.12794 0.01486 0.0
C1736 C 0.40154 0.14596 0.0379 0.0
H1737 H 0.85142 0.32627 0.04285 0.0
H1738 H 0.87708 0.30386 0.95868 0.0
H1739 H 0.92047 0.3326 0.96411 0.0
H1740 H 0.86674 0.39464 0.0378 0.0
H1741 H 0.87909 0.3995 0.07317 0.0
H1742 H 0.85431 0.37217 0.06526 0.0
H1743 H 0.88894 0.33554 0.08653 0.0
H1744 H 0.9139 0.36291 0.09467 0.0
H1745 H 0.92509 0.33325 0.07399 0.0
H1746 H 0.95659 0.36976 0.97613 0.0
H1747 H 0.98026 0.41294 0.99232 0.0
H1748 H 0.92965 0.41164 0.06808 0.0
C1749 C 0.86658 0.32679 0.02583 0.0
C1750 C 0.86097 0.31284 0.00037 0.0
C1751 C 0.8812 0.31408 0.97852 0.0
C1752 C 0.90588 0.33037 0.98143 0.0
C1753 C 0.91011 0.34491 0.00645 0.0
C1754 C 0.89107 0.34301 0.02838 0.0
C1755 C 0.89815 0.36338 0.05159 0.0
C1756 C 0.8731 0.38361 0.05725 0.0
C1757 C 0.90705 0.34783 0.07828 0.0
C1758 C 0.92321 0.3782 0.03873 0.0
C1759 C 0.93033 0.36684 0.01302 0.0
C1760 C 0.95134 0.37865 0.99631 0.0
C1761 C 0.96464 0.4032 0.00567 0.0
C1762 C 0.95663 0.4158 0.03136 0.0
C1763 C 0.93638 0.40248 0.04841 0.0
H1764 H 0.72217 0.84689 0.0171 0.0
H1765 H 0.73355 0.82741 0.9293 0.0
H1766 H 0.68776 0.85097 0.91834 0.0
H1767 H 0.64485 0.83779 0.01848 0.0
H1768 H 0.63883 0.86649 0.04232 0.0
H1769 H 0.67189 0.84714 0.0436 0.0
H1770 H 0.70025 0.89293 0.03706 0.0
H1771 H 0.66732 0.9124 0.03606 0.0
H1772 H 0.6923 0.91506 0.00765 0.0
H1773 H 0.64204 0.87747 0.91673 0.0
H1774 H 0.60014 0.90786 0.92388 0.0
H1775 H 0.6179 0.91052 0.01301 0.0
C1776 C 0.71487 0.84771 0.99563 0.0
C1777 C 0.7311 0.8357 0.97388 0.0
C1778 C 0.72121 0.83681 0.94605 0.0
C1779 C 0.69525 0.84994 0.93971 0.0
C1780 C 0.67953 0.86164 0.96155 0.0
C1781 C 0.68893 0.86077 0.98895 0.0
C1782 C 0.66831 0.87588 0.00827 0.0
C1783 C 0.6552 0.85561 0.02942 0.0
C1784 C 0.68292 0.90053 0.02312 0.0
C1785 C 0.64624 0.88586 0.98735 0.0
C1786 C 0.65299 0.87709 0.9606 0.0
C1787 C 0.63642 0.88438 0.93759 0.0
C1788 C 0.61263 0.90166 0.94189 0.0
C1789 C 0.60569 0.91162 0.96901 0.0
C1790 C 0.62246 0.90308 0.99207 0.0
H1791 H 0.84962 0.72529 0.0025 0.0
H1792 H 0.80647 0.69179 0.92981 0.0
H1793 H 0.84487 0.65653 0.92393 0.0
H1794 H 0.92571 0.7088 0.97983 0.0
H1795 H 0.9354 0.69925 0.01499 0.0
H1796 H 0.90891 0.72605 0.00911 0.0
H1797 H 0.87308 0.69884 0.03971 0.0
H1798 H 0.89932 0.67205 0.04555 0.0
H1799 H 0.8651 0.66302 0.03102 0.0
H1800 H 0.88361 0.62073 0.93038 0.0
H1801 H 0.91626 0.58581 0.95076 0.0
H1802 H 0.93256 0.64131 0.02062 0.0
C1803 C 0.84905 0.71129 0.98466 0.0
C1804 C 0.82563 0.71149 0.96621 0.0
C1805 C 0.82463 0.69211 0.94381 0.0
C1806 C 0.84638 0.67215 0.94028 0.0
C1807 C 0.86886 0.67185 0.9594 0.0
C1808 C 0.87033 0.69097 0.98118 0.0
C1809 C 0.8939 0.68348 0.00147 0.0
C1810 C 0.91737 0.70572 0.00133 0.0
C1811 C 0.88213 0.67907 0.03117 0.0
C1812 C 0.90439 0.65638 0.98862 0.0
C1813 C 0.89039 0.65045 0.96389 0.0
C1814 C 0.895 0.6254 0.94951 0.0
C1815 C 0.91358 0.60554 0.96127 0.0
C1816 C 0.92675 0.61055 0.9874 0.0
C1817 C 0.92281 0.63678 0.00058 0.0
H1818 H 0.3125 0.8146 0.0616 0.0
H1819 H 0.25339 0.83732 0.99571 0.0
H1820 H 0.28512 0.876 0.98184 0.0
H1821 H 0.33429 0.88731 0.07926 0.0
H1822 H 0.37051 0.87663 0.08628 0.0
H1823 H 0.34164 0.85282 0.0925 0.0
H1824 H 0.36616 0.81611 0.06037 0.0
H1825 H 0.39487 0.83992 0.05387 0.0
H1826 H 0.37504 0.82542 0.025 0.0
H1827 H 0.32662 0.90805 0.97141 0.0
H1828 H 0.37228 0.93345 0.96796 0.0
H1829 H 0.40279 0.89125 0.04239 0.0
C1830 C 0.30601 0.82812 0.04463 0.0
C1831 C 0.28049 0.82312 0.02976 0.0
C1832 C 0.27269 0.84108 0.00757 0.0
C1833 C 0.29064 0.86298 -0.00051 0.0
C1834 C 0.31604 0.86694 0.01416 0.0
C1835 C 0.32343 0.85031 0.03662 0.0
C1836 C 0.35229 0.85822 0.04833 0.0
C1837 C 0.34951 0.86942 0.07837 0.0
C1838 C 0.37332 0.83344 0.04678 0.0
C1839 C 0.3605 0.88121 0.02834 0.0
C1840 C 0.33934 0.88601 0.00879 0.0
C1841 C 0.34309 0.90485 0.98696 0.0
C1842 C 0.36913 0.9191 0.98509 0.0
C1843 C 0.39101 0.91458 0.00505 0.0
C1844 C 0.38633 0.89559 0.02709 0.0
H1845 H 0.74044 0.18716 0.94062 0.0
H1846 H 0.765 0.20695 0.02577 0.0
H1847 H 0.72744 0.17567 0.04349 0.0
H1848 H 0.66555 0.18519 0.9518 0.0
H1849 H 0.65886 0.15587 0.92898 0.0
H1850 H 0.68868 0.1784 0.92245 0.0
H1851 H 0.72212 0.13581 0.92306 0.0
H1852 H 0.6934 0.11234 0.93129 0.0
H1853 H 0.72414 0.11411 0.95369 0.0
H1854 H 0.68725 0.14379 0.05202 0.0
H1855 H 0.64439 0.11478 0.05158 0.0
H1856 H 0.64431 0.1152 0.96073 0.0
C1857 C 0.73782 0.1847 0.96295 0.0
C1858 C 0.75539 0.1992 0.98204 0.0
C1859 C 0.75161 0.19581 0.01104 0.0
C1860 C 0.73046 0.17808 0.02122 0.0
C1861 C 0.71339 0.16393 0.00201 0.0
C1862 C 0.71669 0.16701 0.97349 0.0
C1863 C 0.69484 0.1498 0.9576 0.0
C1864 C 0.67586 0.16844 0.93912 0.0
C1865 C 0.70952 0.12667 0.94036 0.0
C1866 C 0.67815 0.13748 0.98166 0.0
C1867 C 0.68967 0.14556 0.00702 0.0
C1868 C 0.67803 0.13728 0.03231 0.0
C1869 C 0.65358 0.12076 0.03177 0.0
C1870 C 0.64074 0.11273 0.00609 0.0
C1871 C 0.65357 0.12089 0.98068 0.0
H1872 H 0.52592 0.73497 0.8275 0.0
H1873 H 0.47419 0.69538 0.7635 0.0
H1874 H 0.46677 0.65501 0.79459 0.0
H1875 H 0.55818 0.67041 0.85602 0.0
H1876 H 0.55676 0.68346 0.8914 0.0
H1877 H 0.56097 0.70739 0.86277 0.0
H1878 H 0.51644 0.73514 0.87937 0.0
H1879 H 0.51208 0.71132 0.90796 0.0
H1880 H 0.48314 0.71711 0.8838 0.0
H1881 H 0.46072 0.62129 0.83477 0.0
H1882 H 0.45687 0.59727 0.88019 0.0
H1883 H 0.51226 0.65936 0.91781 0.0
C1884 C 0.51328 0.71769 0.81985 0.0
C1885 C 0.50068 0.71838 0.79297 0.0
C1886 C 0.48443 0.6952 0.7838 0.0
C1887 C 0.48 0.6722 0.80137 0.0
C1888 C 0.49217 0.67255 0.82799 0.0
C1889 C 0.50866 0.69464 0.83709 0.0
C1890 C 0.51779 0.69088 0.86722 0.0
C1891 C 0.55036 0.68785 0.86947 0.0
C1892 C 0.50669 0.71504 0.88566 0.0
C1893 C 0.50309 0.66369 0.874 0.0
C1894 C 0.48869 0.65323 0.85103 0.0
C1895 C 0.47224 0.62912 0.85276 0.0
C1896 C 0.47014 0.61563 0.87868 0.0
C1897 C 0.48431 0.62636 0.9026 0.0
C1898 C 0.50137 0.65043 0.89993 0.0
H1899 H 0.37559 0.52199 0.79002 0.0
H1900 H 0.32884 0.59764 0.81056 0.0
H1901 H 0.35219 0.59907 0.85705 0.0
H1902 H 0.36995 0.49067 0.85543 0.0
H1903 H 0.4051 0.47525 0.85553 0.0
H1904 H 0.38731 0.48201 0.82291 0.0
H1905 H 0.43027 0.51157 0.80661 0.0
H1906 H 0.44818 0.50487 0.83928 0.0
H1907 H 0.4423 0.54031 0.828 0.0
H1908 H 0.37649 0.58958 0.90235 0.0
H1909 H 0.39975 0.56972 0.94393 0.0
H1910 H 0.43204 0.50068 0.89385 0.0
C1911 C 0.37079 0.53906 0.80424 0.0
C1912 C 0.3508 0.55988 0.79707 0.0
C1913 C 0.3444 0.58172 0.81597 0.0
C1914 C 0.35758 0.58271 0.84225 0.0
C1915 C 0.37715 0.56176 0.84899 0.0
C1916 C 0.38386 0.54038 0.83053 0.0
C1917 C 0.40408 0.51943 0.84369 0.0
C1918 C 0.3908 0.49012 0.84444 0.0
C1919 C 0.43292 0.51904 0.82848 0.0
C1920 C 0.40688 0.53183 0.87272 0.0
C1921 C 0.39146 0.55642 0.87521 0.0
C1922 C 0.38908 0.57063 0.90055 0.0
C1923 C 0.4024 0.55918 0.92409 0.0
C1924 C 0.41802 0.53385 0.92216 0.0
C1925 C 0.42065 0.52032 0.89596 0.0
H1926 H 0.52841 0.29683 0.80435 0.0
H1927 H 0.4384 0.30939 0.78806 0.0
H1928 H 0.43637 0.34546 0.82542 0.0
H1929 H 0.52484 0.30425 0.87893 0.0
H1930 H 0.55822 0.32246 0.88198 0.0
H1931 H 0.55264 0.29822 0.85362 0.0
H1932 H 0.56464 0.33696 0.81799 0.0
H1933 H 0.57027 0.36133 0.84625 0.0
H1934 H 0.54508 0.36949 0.81896 0.0
H1935 H 0.44425 0.37985 0.8648 0.0
H1936 H 0.46108 0.40967 0.90365 0.0
H1937 H 0.54614 0.37453 0.89459 0.0
C1938 C 0.50837 0.30735 0.80867 0.0
C1939 C 0.48353 0.30067 0.79346 0.0
C1940 C 0.4576 0.31451 0.79957 0.0
C1941 C 0.45629 0.33495 0.8207 0.0
C1942 C 0.48115 0.3412 0.83545 0.0
C1943 C 0.50672 0.32783 0.82972 0.0
C1944 C 0.53022 0.33823 0.84886 0.0
C1945 C 0.54217 0.31436 0.86692 0.0
C1946 C 0.55395 0.35234 0.83201 0.0
C1947 C 0.51385 0.35936 0.86639 0.0
C1948 C 0.48562 0.36085 0.85823 0.0
C1949 C 0.46632 0.37886 0.87135 0.0
C1950 C 0.4761 0.39574 0.89343 0.0
C1951 C 0.50493 0.39448 0.9023 0.0
C1952 C 0.52397 0.37601 0.88843 0.0
H1953 H 0.6577 0.48326 0.8276 0.0
H1954 H 0.64859 0.56037 0.78138 0.0
H1955 H 0.60125 0.56803 0.80239 0.0
H1956 H 0.57709 0.46558 0.83123 0.0
H1957 H 0.58175 0.45274 0.86629 0.0
H1958 H 0.60994 0.44848 0.84102 0.0
H1959 H 0.64496 0.4733 0.87479 0.0
H1960 H 0.61706 0.47767 0.89994 0.0
H1961 H 0.63623 0.50775 0.88773 0.0
H1962 H 0.563 0.5742 0.83725 0.0
H1963 H 0.53728 0.57781 0.88203 0.0
H1964 H 0.57001 0.49646 0.90587 0.0
C1965 C 0.64515 0.50115 0.8211 0.0
C1966 C 0.65671 0.52119 0.80287 0.0
C1967 C 0.63995 0.54453 0.79497 0.0
C1968 C 0.61299 0.54903 0.80683 0.0
C1969 C 0.60291 0.52975 0.82616 0.0
C1970 C 0.61829 0.50592 0.83285 0.0
C1971 C 0.60533 0.49099 0.85753 0.0
C1972 C 0.59278 0.46278 0.84847 0.0
C1973 C 0.62718 0.48726 0.88138 0.0
C1974 C 0.58195 0.51149 0.86534 0.0
C1975 C 0.58026 0.53326 0.84647 0.0
C1976 C 0.56343 0.55685 0.85165 0.0
C1977 C 0.54897 0.5588 0.8772 0.0
C1978 C 0.55158 0.53732 0.89728 0.0
C1979 C 0.56708 0.51285 0.8906 0.0
H1980 H 0.5106 0.31314 0.17583 0.0
H1981 H 0.42796 0.34225 0.20428 0.0
H1982 H 0.43069 0.38231 0.17153 0.0
H1983 H 0.54226 0.38149 0.16816 0.0
H1984 H 0.56241 0.37116 0.13775 0.0
H1985 H 0.55363 0.34568 0.16385 0.0
H1986 H 0.52978 0.31486 0.1258 0.0
H1987 H 0.53833 0.34032 0.09963 0.0
H1988 H 0.50191 0.32955 0.10432 0.0
H1989 H 0.44228 0.41809 0.13257 0.0
H1990 H 0.46304 0.44717 0.09497 0.0
H1991 H 0.53828 0.39403 0.09463 0.0
C1992 C 0.49314 0.32804 0.17527 0.0
C1993 C 0.46902 0.32462 0.19242 0.0
C1994 C 0.44669 0.34465 0.19134 0.0
C1995 C 0.44803 0.36734 0.17273 0.0
C1996 C 0.47201 0.36982 0.15568 0.0
C1997 C 0.49429 0.3508 0.15717 0.0
C1998 C 0.51782 0.35785 0.13696 0.0
C1999 C 0.54567 0.36444 0.15262 0.0
C2000 C 0.5222 0.33424 0.11541 0.0
C2001 C 0.50532 0.38368 0.12356 0.0
C2002 C 0.47884 0.39036 0.13435 0.0
C2003 C 0.46314 0.41312 0.12423 0.0
C2004 C 0.47503 0.42949 0.10281 0.0
C2005 C 0.50237 0.42308 0.09193 0.0
C2006 C 0.51745 0.3998 0.10259 0.0
H2007 H 0.71175 0.48343 0.15076 0.0
H2008 H 0.65707 0.48706 0.22393 0.0
H2009 H 0.61504 0.48185 0.19379 0.0
H2010 H 0.66838 0.52761 0.11127 0.0
H2011 H 0.67558 0.51051 0.07836 0.0
H2012 H 0.70153 0.50908 0.10599 0.0
H2013 H 0.70121 0.45461 0.10385 0.0
H2014 H 0.67586 0.45684 0.07566 0.0
H2015 H 0.6677 0.43655 0.10625 0.0
H2016 H 0.57861 0.48215 0.15616 0.0
H2017 H 0.5509 0.49394 0.11377 0.0
H2018 H 0.62828 0.49231 0.06478 0.0
C2019 C 0.69102 0.48298 0.16061 0.0
C2020 C 0.68807 0.48516 0.18998 0.0
C2021 C 0.66029 0.48451 0.20168 0.0
C2022 C 0.63613 0.48159 0.18468 0.0
C2023 C 0.63988 0.47954 0.15589 0.0
C2024 C 0.66661 0.48058 0.1439 0.0
C2025 C 0.6646 0.48193 0.11234 0.0
C2026 C 0.67832 0.50888 0.10136 0.0
C2027 C 0.67812 0.4559 0.09875 0.0
C2028 C 0.63251 0.4823 0.10849 0.0
C2029 C 0.61865 0.48024 0.13389 0.0
C2030 C 0.58913 0.4831 0.13608 0.0
C2031 C 0.57351 0.48958 0.11194 0.0
C2032 C 0.58749 0.49306 0.08612 0.0
C2033 C 0.61713 0.48847 0.08417 0.0
H2034 H 0.52375 0.70784 0.19489 0.0
H2035 H 0.61067 0.6792 0.20635 0.0
H2036 H 0.60558 0.64735 0.16545 0.0
H2037 H 0.49453 0.64187 0.17624 0.0
H2038 H 0.46993 0.65601 0.15094 0.0
H2039 H 0.48121 0.67709 0.18013 0.0
H2040 H 0.49846 0.7154 0.1461 0.0
H2041 H 0.48724 0.69438 0.11679 0.0
H2042 H 0.52352 0.70635 0.11896 0.0
H2043 H 0.58949 0.61699 0.12379 0.0
H2044 H 0.56393 0.59116 0.08638 0.0
H2045 H 0.48819 0.64104 0.1028 0.0
C2046 C 0.54171 0.69495 0.18858 0.0
C2047 C 0.56759 0.69579 0.20347 0.0
C2048 C 0.5907 0.6787 0.19496 0.0
C2049 C 0.58798 0.66064 0.1718 0.0
C2050 C 0.56203 0.6601 0.15747 0.0
C2051 C 0.53933 0.67688 0.1656 0.0
C2052 C 0.51347 0.67198 0.14736 0.0
C2053 C 0.48831 0.66108 0.16471 0.0
C2054 C 0.5052 0.69861 0.13135 0.0
C2055 C 0.52498 0.64966 0.12785 0.0
C2056 C 0.55302 0.64303 0.1338 0.0
C2057 C 0.5676 0.62225 0.11883 0.0
C2058 C 0.55298 0.60776 0.09749 0.0
C2059 C 0.52416 0.6142 0.09133 0.0
C2060 C 0.51029 0.63563 0.10671 0.0
H2061 H 0.35816 0.53487 0.21277 0.0
H2062 H 0.33706 0.61963 0.18956 0.0
H2063 H 0.37911 0.62097 0.1587 0.0
H2064 H 0.44114 0.54158 0.20328 0.0
H2065 H 0.44242 0.50647 0.18952 0.0
H2066 H 0.4173 0.51548 0.21664 0.0
H2067 H 0.37632 0.49702 0.18547 0.0
H2068 H 0.40094 0.48859 0.1581 0.0
H2069 H 0.37118 0.51154 0.15111 0.0
H2070 H 0.41126 0.60794 0.12048 0.0
H2071 H 0.43494 0.58365 0.08195 0.0
H2072 H 0.43936 0.508 0.13083 0.0
C2073 C 0.36375 0.55425 0.20262 0.0
C2074 C 0.34518 0.57742 0.20394 0.0
C2075 C 0.35176 0.60207 0.18933 0.0
C2076 C 0.37552 0.60292 0.17171 0.0
C2077 C 0.39255 0.57903 0.16931 0.0
C2078 C 0.38747 0.55534 0.18501 0.0
C2079 C 0.40576 0.53101 0.17519 0.0
C2080 C 0.42798 0.52318 0.19749 0.0
C2081 C 0.38745 0.50559 0.16697 0.0
C2082 C 0.41982 0.54392 0.14998 0.0
C2083 C 0.4124 0.57177 0.14729 0.0
C2084 C 0.41854 0.58661 0.12311 0.0
C2085 C 0.43228 0.57262 0.10113 0.0
C2086 C 0.44025 0.54421 0.10339 0.0
C2087 C 0.43444 0.53001 0.12857 0.0
H2088 H 0.79008 0.56969 0.69246 0.0
H2089 H 0.80259 0.49511 0.74187 0.0
H2090 H 0.85153 0.48992 0.72299 0.0
H2091 H 0.82255 0.54539 0.63284 0.0
H2092 H 0.83875 0.57796 0.62309 0.0
H2093 H 0.80696 0.57813 0.64394 0.0
H2094 H 0.83269 0.60773 0.68176 0.0
H2095 H 0.86472 0.60743 0.66099 0.0
H2096 H 0.86574 0.59522 0.69654 0.0
H2097 H 0.89538 0.48884 0.6934 0.0
H2098 H 0.93041 0.49145 0.65506 0.0
H2099 H 0.89043 0.56798 0.62613 0.0
C2100 C 0.80354 0.55275 0.69977 0.0
C2101 C 0.79308 0.53286 0.71863 0.0
C2102 C 0.81065 0.51058 0.7275 0.0
C2103 C 0.83842 0.50759 0.71701 0.0
C2104 C 0.84817 0.52731 0.69796 0.0
C2105 C 0.83133 0.54959 0.68957 0.0
C2106 C 0.84573 0.56626 0.66687 0.0
C2107 C 0.82741 0.56695 0.64011 0.0
C2108 C 0.85263 0.59592 0.67717 0.0
C2109 C 0.87265 0.54912 0.6628 0.0
C2110 C 0.87389 0.52698 0.68123 0.0
C2111 C 0.89505 0.50647 0.67934 0.0
C2112 C 0.91486 0.50811 0.6575 0.0
C2113 C 0.91339 0.53014 0.63791 0.0
C2114 C 0.89263 0.55138 0.6413 0.0
H2115 H 0.49592 0.83839 0.67933 0.0
H2116 H 0.56237 0.78386 0.64722 0.0
H2117 H 0.57943 0.82186 0.61667 0.0
H2118 H 0.4813 0.87492 0.61343 0.0
H2119 H 0.47543 0.90821 0.63029 0.0
H2120 H 0.46751 0.87636 0.64855 0.0
H2121 H 0.50071 0.89146 0.68919 0.0
H2122 H 0.50855 0.92335 0.67106 0.0
H2123 H 0.53717 0.90047 0.6818 0.0
H2124 H 0.59066 0.86616 0.59158 0.0
H2125 H 0.59588 0.91409 0.57388 0.0
H2126 H 0.52142 0.94011 0.62132 0.0
C2127 C 0.51388 0.83454 0.66561 0.0
C2128 C 0.52791 0.80839 0.6653 0.0
C2129 C 0.55143 0.80386 0.64747 0.0
C2130 C 0.56118 0.82526 0.63008 0.0
C2131 C 0.54702 0.85095 0.6308 0.0
C2132 C 0.52383 0.85571 0.64804 0.0
C2133 C 0.51307 0.88555 0.64539 0.0
C2134 C 0.48251 0.88629 0.63371 0.0
C2135 C 0.51501 0.90112 0.67353 0.0
C2136 C 0.53417 0.89692 0.62441 0.0
C2137 C 0.55342 0.87654 0.61614 0.0
C2138 C 0.57552 0.88222 0.59767 0.0
C2139 C 0.57823 0.90951 0.5876 0.0
C2140 C 0.55888 0.93084 0.59587 0.0
C2141 C 0.53643 0.92427 0.61436 0.0
H2142 H 0.23634 0.52408 0.67884 0.0
H2143 H 0.22329 0.61161 0.69837 0.0
H2144 H 0.19129 0.61625 0.65747 0.0
H2145 H 0.22982 0.53047 0.59961 0.0
H2146 H 0.21099 0.49783 0.59725 0.0
H2147 H 0.23769 0.50285 0.62395 0.0
H2148 H 0.20063 0.49013 0.6618 0.0
H2149 H 0.1738 0.48542 0.63538 0.0
H2150 H 0.16765 0.50959 0.66378 0.0
H2151 H 0.15465 0.60943 0.62156 0.0
H2152 H 0.11617 0.59214 0.59146 0.0
H2153 H 0.15286 0.50892 0.59317 0.0
C2154 C 0.2276 0.5444 0.67361 0.0
C2155 C 0.23251 0.56772 0.69101 0.0
C2156 C 0.22003 0.59381 0.68468 0.0
C2157 C 0.20194 0.59657 0.66156 0.0
C2158 C 0.19674 0.57299 0.64514 0.0
C2159 C 0.20938 0.54742 0.65065 0.0
C2160 C 0.19736 0.52467 0.63195 0.0
C2161 C 0.22034 0.51329 0.612 0.0
C2162 C 0.18407 0.50108 0.64927 0.0
C2163 C 0.17486 0.54112 0.61624 0.0
C2164 C 0.17533 0.56905 0.62383 0.0
C2165 C 0.15474 0.58787 0.61463 0.0
C2166 C 0.13304 0.57791 0.59734 0.0
C2167 C 0.13212 0.54953 0.58899 0.0
C2168 C 0.15347 0.53092 0.59849 0.0
H2169 H 0.46217 0.19028 0.6809 0.0
H2170 H 0.47297 0.12647 0.74466 0.0
H2171 H 0.47658 0.09083 0.70839 0.0
H2172 H 0.42609 0.14696 0.62726 0.0
H2173 H 0.44619 0.16182 0.599 0.0
H2174 H 0.43835 0.18252 0.62966 0.0
H2175 H 0.4922 0.19217 0.63682 0.0
H2176 H 0.50006 0.17195 0.60599 0.0
H2177 H 0.51678 0.16313 0.63876 0.0
H2178 H 0.48466 0.06211 0.66634 0.0
H2179 H 0.503 0.04385 0.62156 0.0
H2180 H 0.49154 0.12522 0.5841 0.0
C2181 C 0.46505 0.16887 0.68748 0.0
C2182 C 0.46616 0.16166 0.71624 0.0
C2183 C 0.47038 0.13306 0.72324 0.0
C2184 C 0.47278 0.11236 0.70261 0.0
C2185 C 0.47157 0.12025 0.67474 0.0
C2186 C 0.46832 0.14785 0.66706 0.0
C2187 C 0.47184 0.15105 0.63567 0.0
C2188 C 0.44395 0.16119 0.6221 0.0
C2189 C 0.4967 0.17073 0.62893 0.0
C2190 C 0.47856 0.12108 0.6272 0.0
C2191 C 0.47739 0.10358 0.65003 0.0
C2192 C 0.48493 0.07543 0.64814 0.0
C2193 C 0.49488 0.06507 0.62249 0.0
C2194 C 0.49712 0.08271 0.59904 0.0
C2195 C 0.48856 0.111 0.60137 0.0
H2196 H 0.7888 0.51529 0.31804 0.0
H2197 H 0.76539 0.43009 0.33705 0.0
H2198 H 0.79729 0.43074 0.37833 0.0
H2199 H 0.86219 0.50882 0.3362 0.0
H2200 H 0.86491 0.54331 0.35122 0.0
H2201 H 0.83912 0.53655 0.32417 0.0
H2202 H 0.79892 0.555 0.35657 0.0
H2203 H 0.82461 0.56157 0.38384 0.0
H2204 H 0.7943 0.53969 0.39059 0.0
H2205 H 0.83302 0.43969 0.41568 0.0
H2206 H 0.87222 0.45556 0.44608 0.0
H2207 H 0.87235 0.53556 0.40367 0.0
C2208 C 0.79045 0.49691 0.33107 0.0
C2209 C 0.77494 0.47258 0.3247 0.0
C2210 C 0.77735 0.44881 0.34185 0.0
C2211 C 0.79523 0.44907 0.36532 0.0
C2212 C 0.81032 0.47337 0.37126 0.0
C2213 C 0.8082 0.49686 0.35466 0.0
C2214 C 0.82766 0.51982 0.36517 0.0
C2215 C 0.84978 0.52756 0.34286 0.0
C2216 C 0.81033 0.54554 0.3746 0.0
C2217 C 0.84147 0.50531 0.38987 0.0
C2218 C 0.83091 0.47864 0.39312 0.0
C2219 C 0.8413 0.46062 0.41353 0.0
C2220 C 0.86358 0.46983 0.43069 0.0
C2221 C 0.87524 0.49684 0.42734 0.0
C2222 C 0.86355 0.51499 0.40704 0.0
H2223 H 0.57444 0.86014 0.28541 0.0
H2224 H 0.53119 0.78895 0.32158 0.0
H2225 H 0.5186 0.81768 0.36267 0.0
H2226 H 0.59923 0.89289 0.35039 0.0
H2227 H 0.59175 0.92766 0.33796 0.0
H2228 H 0.60144 0.90041 0.31359 0.0
H2229 H 0.55512 0.9097 0.28542 0.0
H2230 H 0.5454 0.93699 0.30963 0.0
H2231 H 0.52122 0.90858 0.30304 0.0
H2232 H 0.50733 0.85539 0.39834 0.0
H2233 H 0.49576 0.89911 0.42366 0.0
H2234 H 0.54247 0.94632 0.3618 0.0
C2235 C 0.56235 0.85037 0.30187 0.0
C2236 C 0.55394 0.82202 0.29997 0.0
C2237 C 0.53853 0.81032 0.32252 0.0
C2238 C 0.53109 0.82658 0.34598 0.0
C2239 C 0.53904 0.85459 0.34665 0.0
C2240 C 0.55424 0.8664 0.3251 0.0
C2241 C 0.55783 0.89757 0.3295 0.0
C2242 C 0.58945 0.90506 0.33308 0.0
C2243 C 0.54406 0.91418 0.30548 0.0
C2244 C 0.54164 0.90162 0.35657 0.0
C2245 C 0.5315 0.8765 0.36648 0.0
C2246 C 0.51532 0.87513 0.39083 0.0
C2247 C 0.5089 0.9001 0.40511 0.0
C2248 C 0.51819 0.92618 0.39473 0.0
C2249 C 0.53512 0.92675 0.37034 0.0
H2250 H 0.23026 0.53394 0.32078 0.0
H2251 H 0.19239 0.60087 0.2725 0.0
H2252 H 0.14473 0.58911 0.29136 0.0
H2253 H 0.16961 0.48473 0.31492 0.0
H2254 H 0.17431 0.47246 0.35018 0.0
H2255 H 0.20464 0.48417 0.33047 0.0
H2256 H 0.21695 0.51969 0.36972 0.0
H2257 H 0.18688 0.50792 0.38956 0.0
H2258 H 0.19017 0.54441 0.3811 0.0
H2259 H 0.10255 0.57323 0.31936 0.0
H2260 H 0.06948 0.55545 0.35519 0.0
H2261 H 0.13493 0.4982 0.3843 0.0
C2262 C 0.21176 0.54575 0.31395 0.0
C2263 C 0.21455 0.56821 0.29535 0.0
C2264 C 0.1903 0.58356 0.28683 0.0
C2265 C 0.16326 0.57691 0.29728 0.0
C2266 C 0.16106 0.55472 0.31592 0.0
C2267 C 0.18467 0.5393 0.3241 0.0
C2268 C 0.17698 0.51787 0.34589 0.0
C2269 C 0.18166 0.48804 0.33469 0.0
C2270 C 0.19373 0.52279 0.37317 0.0
C2271 C 0.14558 0.52429 0.3495 0.0
C2272 C 0.13668 0.54535 0.33178 0.0
C2273 C 0.10916 0.55643 0.33302 0.0
C2274 C 0.09055 0.54631 0.35346 0.0
C2275 C 0.0996 0.52544 0.37242 0.0
C2276 C 0.12717 0.51373 0.36972 0.0
H2277 H 0.50053 0.22793 0.32647 0.0
H2278 H 0.40919 0.24137 0.32958 0.0
H2279 H 0.40537 0.20645 0.36742 0.0
H2280 H 0.49892 0.15376 0.33784 0.0
H2281 H 0.53072 0.15312 0.35905 0.0
H2282 H 0.52617 0.17963 0.33283 0.0
H2283 H 0.53368 0.21792 0.37058 0.0
H2284 H 0.53793 0.19147 0.39694 0.0
H2285 H 0.5113 0.21848 0.40116 0.0
H2286 H 0.41131 0.16928 0.40381 0.0
H2287 H 0.42613 0.1307 0.43471 0.0
H2288 H 0.51398 0.14164 0.40893 0.0
C2289 C 0.4798 0.22341 0.33522 0.0
C2290 C 0.45507 0.2371 0.3253 0.0
C2291 C 0.42827 0.23089 0.33701 0.0
C2292 C 0.42596 0.21123 0.35854 0.0
C2293 C 0.45072 0.19811 0.36812 0.0
C2294 C 0.47714 0.20382 0.35679 0.0
C2295 C 0.50026 0.18617 0.3704 0.0
C2296 C 0.51487 0.16703 0.34874 0.0
C2297 C 0.52208 0.20462 0.38568 0.0
C2298 C 0.48269 0.16949 0.39093 0.0
C2299 C 0.45418 0.17682 0.38935 0.0
C2300 C 0.43359 0.1635 0.40535 0.0
C2301 C 0.44223 0.14163 0.42289 0.0
C2302 C 0.47124 0.1333 0.42444 0.0
C2303 C 0.49176 0.14789 0.40864 0.0
H2304 H 0.70747 0.86261 0.47214 0.0
H2305 H 0.65518 0.80222 0.51494 0.0
H2306 H 0.61883 0.83894 0.52433 0.0
H2307 H 0.69018 0.9227 0.51756 0.0
H2308 H 0.6899 0.94701 0.48892 0.0
H2309 H 0.7125 0.91645 0.48752 0.0
H2310 H 0.68934 0.90196 0.44043 0.0
H2311 H 0.66672 0.93244 0.44171 0.0
H2312 H 0.65117 0.89825 0.43834 0.0
H2313 H 0.58651 0.88167 0.52558 0.0
H2314 H 0.56141 0.92687 0.51934 0.0
H2315 H 0.63547 0.95936 0.47642 0.0
C2316 C 0.68853 0.85736 0.48386 0.0
C2317 C 0.68398 0.82984 0.49306 0.0
C2318 C 0.65893 0.82337 0.50796 0.0
C2319 C 0.63824 0.84406 0.51336 0.0
C2320 C 0.64309 0.87109 0.50377 0.0
C2321 C 0.66771 0.8778 0.48946 0.0
C2322 C 0.66721 0.90806 0.48035 0.0
C2323 C 0.69138 0.92452 0.49443 0.0
C2324 C 0.66869 0.91029 0.44831 0.0
C2325 C 0.63831 0.91719 0.4913 0.0
C2326 C 0.62471 0.89564 0.50483 0.0
C2327 C 0.59712 0.89879 0.51532 0.0
C2328 C 0.58302 0.92456 0.51171 0.0
C2329 C 0.59647 0.9468 0.49758 0.0
C2330 C 0.62464 0.94299 0.48766 0.0
H2331 H 0.70345 0.22308 0.50754 0.0
H2332 H 0.67687 0.25007 0.42526 0.0
H2333 H 0.63961 0.21341 0.42442 0.0
H2334 H 0.6936 0.14929 0.49605 0.0
H2335 H 0.68082 0.14307 0.53094 0.0
H2336 H 0.70525 0.17118 0.52457 0.0
H2337 H 0.66964 0.20628 0.54706 0.0
H2338 H 0.64512 0.17828 0.55348 0.0
H2339 H 0.63367 0.20839 0.53387 0.0
H2340 H 0.60492 0.17333 0.4333 0.0
H2341 H 0.57612 0.13397 0.45113 0.0
H2342 H 0.62613 0.1345 0.52761 0.0
C2343 C 0.68974 0.22115 0.48939 0.0
C2344 C 0.69272 0.2391 0.46645 0.0
C2345 C 0.67465 0.23627 0.44298 0.0
C2346 C 0.65352 0.21557 0.44236 0.0
C2347 C 0.65094 0.19805 0.46541 0.0
C2348 C 0.66861 0.20069 0.48849 0.0
C2349 C 0.66148 0.1795 0.51065 0.0
C2350 C 0.68679 0.15958 0.51584 0.0
C2351 C 0.6519 0.19399 0.53786 0.0
C2352 C 0.63699 0.16458 0.49656 0.0
C2353 C 0.63116 0.17541 0.47047 0.0
C2354 C 0.60933 0.16471 0.45372 0.0
C2355 C 0.59308 0.14237 0.464 0.0
C2356 C 0.59876 0.13113 0.49078 0.0
C2357 C 0.62106 0.14255 0.50707 0.0
H2358 H 0.82031 0.72336 0.53148 0.0
H2359 H 0.79595 0.71672 0.44435 0.0
H2360 H 0.82492 0.67322 0.43994 0.0
H2361 H 0.89168 0.70229 0.52344 0.0
H2362 H 0.8932 0.68341 0.5559 0.0
H2363 H 0.86907 0.71253 0.55219 0.0
H2364 H 0.82656 0.68103 0.56582 0.0
H2365 H 0.85065 0.65188 0.56985 0.0
H2366 H 0.82044 0.64906 0.5467 0.0
H2367 H 0.86037 0.63148 0.44525 0.0
H2368 H 0.89492 0.59496 0.46059 0.0
H2369 H 0.89452 0.63102 0.54398 0.0
C2370 C 0.82084 0.71262 0.51151 0.0
C2371 C 0.80601 0.72338 0.48822 0.0
C2372 C 0.80703 0.70864 0.46249 0.0
C2373 C 0.82356 0.68407 0.45979 0.0
C2374 C 0.83866 0.67447 0.4831 0.0
C2375 C 0.83705 0.68826 0.50853 0.0
C2376 C 0.85544 0.67442 0.53042 0.0
C2377 C 0.87872 0.69435 0.5411 0.0
C2378 C 0.83718 0.66344 0.55462 0.0
C2379 C 0.86803 0.65077 0.51339 0.0
C2380 C 0.8583 0.65093 0.48613 0.0
C2381 C 0.86788 0.63111 0.46664 0.0
C2382 C 0.88757 0.61053 0.47547 0.0
C2383 C 0.89732 0.60999 0.5035 0.0
C2384 C 0.88739 0.63057 0.52244 0.0
H2385 H 0.29496 0.83993 0.55264 0.0
H2386 H 0.30414 0.80004 0.47173 0.0
H2387 H 0.3493 0.8256 0.46406 0.0
H2388 H 0.3201 0.90628 0.53405 0.0
H2389 H 0.33906 0.91258 0.56625 0.0
H2390 H 0.30856 0.88998 0.56592 0.0
H2391 H 0.33896 0.85001 0.58727 0.0
H2392 H 0.36954 0.87258 0.58789 0.0
H2393 H 0.3715 0.83928 0.57023 0.0
H2394 H 0.39172 0.85809 0.46423 0.0
H2395 H 0.42959 0.89271 0.47323 0.0
H2396 H 0.39303 0.9102 0.55481 0.0
C2397 C 0.30684 0.83632 0.53357 0.0
C2398 C 0.29651 0.81799 0.51281 0.0
C2399 C 0.31215 0.81384 0.48791 0.0
C2400 C 0.33766 0.82831 0.48339 0.0
C2401 C 0.34724 0.84656 0.50415 0.0
C2402 C 0.33249 0.85031 0.52891 0.0
C2403 C 0.34713 0.87134 0.54771 0.0
C2404 C 0.32754 0.89653 0.55383 0.0
C2405 C 0.35739 0.85747 0.57488 0.0
C2406 C 0.37201 0.8794 0.52941 0.0
C2407 C 0.37178 0.86486 0.5044 0.0
C2408 C 0.39227 0.86939 0.48387 0.0
C2409 C 0.41367 0.88914 0.48915 0.0
C2410 C 0.41441 0.90412 0.51476 0.0
C2411 C 0.39321 0.89905 0.53506 0.0
H2412 H 0.19766 0.31107 0.46157 0.0
H2413 H 0.24511 0.33068 0.53679 0.0
H2414 H 0.21249 0.37053 0.54635 0.0
H2415 H 0.18587 0.3799 0.44006 0.0
H2416 H 0.15027 0.37444 0.42697 0.0
H2417 H 0.17533 0.34584 0.42769 0.0
H2418 H 0.13996 0.31674 0.45698 0.0
H2419 H 0.11474 0.3453 0.45625 0.0
H2420 H 0.12616 0.33097 0.48921 0.0
H2421 H 0.17744 0.41056 0.54535 0.0
H2422 H 0.14251 0.44767 0.53413 0.0
H2423 H 0.1173 0.40183 0.45965 0.0
C2424 C 0.20068 0.32348 0.48033 0.0
C2425 C 0.22354 0.31789 0.49869 0.0
C2426 C 0.22742 0.33466 0.52274 0.0
C2427 C 0.20902 0.35726 0.52829 0.0
C2428 C 0.1868 0.36262 0.50962 0.0
C2429 C 0.18241 0.34609 0.48621 0.0
C2430 C 0.15792 0.35728 0.46871 0.0
C2431 C 0.16796 0.36482 0.43911 0.0
C2432 C 0.13323 0.33632 0.46774 0.0
C2433 C 0.14985 0.38314 0.48541 0.0
C2434 C 0.16655 0.38568 0.50909 0.0
C2435 C 0.16399 0.4086 0.52705 0.0
C2436 C 0.14409 0.42961 0.52047 0.0
C2437 C 0.12702 0.42768 0.49608 0.0
C2438 C 0.12975 0.40384 0.47863 0.0
H2439 H 0.30272 0.15054 0.47828 0.0
H2440 H 0.34737 0.22366 0.5093 0.0
H2441 H 0.39239 0.19702 0.50901 0.0
H2442 H 0.33749 0.1027 0.52061 0.0
H2443 H 0.33902 0.07484 0.49515 0.0
H2444 H 0.31121 0.10077 0.49314 0.0
H2445 H 0.32607 0.11187 0.44224 0.0
H2446 H 0.35411 0.08602 0.44426 0.0
H2447 H 0.36239 0.12149 0.43498 0.0
H2448 H 0.43111 0.16153 0.51156 0.0
H2449 H 0.46027 0.119 0.51865 0.0
H2450 H 0.39148 0.06809 0.4866 0.0
C2451 C 0.32199 0.1611 0.48476 0.0
C2452 C 0.32132 0.18943 0.49362 0.0
C2453 C 0.34719 0.20228 0.50183 0.0
C2454 C 0.37297 0.18726 0.50178 0.0
C2455 C 0.37274 0.15935 0.49334 0.0
C2456 C 0.34795 0.14635 0.48492 0.0
C2457 C 0.35311 0.11542 0.47944 0.0
C2458 C 0.33409 0.09738 0.49821 0.0
C2459 C 0.34865 0.10829 0.44838 0.0
C2460 C 0.38432 0.11282 0.48748 0.0
C2461 C 0.39534 0.13859 0.49483 0.0
C2462 C 0.42293 0.14136 0.50529 0.0
C2463 C 0.43935 0.11715 0.50919 0.0
C2464 C 0.42827 0.09054 0.50254 0.0
C2465 C 0.40068 0.08836 0.49093 0.0
H2466 H 0.81468 0.33475 0.50576 0.0
H2467 H 0.85855 0.30391 0.43202 0.0
H2468 H 0.89591 0.33956 0.43871 0.0
H2469 H 0.83108 0.40897 0.49623 0.0
H2470 H 0.83585 0.41497 0.53315 0.0
H2471 H 0.8116 0.38844 0.52114 0.0
H2472 H 0.83856 0.35171 0.55103 0.0
H2473 H 0.86307 0.37805 0.56283 0.0
H2474 H 0.87635 0.34677 0.54611 0.0
H2475 H 0.92967 0.37702 0.45484 0.0
H2476 H 0.9567 0.41438 0.4786 0.0
H2477 H 0.89094 0.42012 0.54216 0.0
C2478 C 0.8318 0.33597 0.49068 0.0
C2479 C 0.83369 0.31679 0.46826 0.0
C2480 C 0.85678 0.31849 0.44932 0.0
C2481 C 0.87804 0.33865 0.45293 0.0
C2482 C 0.87591 0.35687 0.47562 0.0
C2483 C 0.85331 0.35582 0.4941 0.0
C2484 C 0.85672 0.37698 0.51747 0.0
C2485 C 0.83237 0.39862 0.51695 0.0
C2486 C 0.8588 0.3625 0.54604 0.0
C2487 C 0.88483 0.38993 0.50935 0.0
C2488 C 0.89552 0.37815 0.48511 0.0
C2489 C 0.92143 0.38651 0.47377 0.0
C2490 C 0.93667 0.40769 0.48746 0.0
C2491 C 0.92597 0.42018 0.51225 0.0
C2492 C 0.89975 0.411 0.52328 0.0
H2493 H 0.18739 0.67675 0.55313 0.0
H2494 H 0.17687 0.73354 0.48365 0.0
H2495 H 0.13291 0.70888 0.46936 0.0
H2496 H 0.16847 0.61691 0.51966 0.0
H2497 H 0.1478 0.60086 0.54662 0.0
H2498 H 0.17561 0.62493 0.55586 0.0
H2499 H 0.14133 0.65446 0.5838 0.0
H2500 H 0.1098 0.63486 0.57486 0.0
H2501 H 0.11134 0.67128 0.56717 0.0
H2502 H 0.09372 0.67543 0.45987 0.0
H2503 H 0.06318 0.63426 0.45403 0.0
H2504 H 0.09831 0.59857 0.52978 0.0
C2505 C 0.17547 0.68413 0.53519 0.0
C2506 C 0.18514 0.70693 0.5194 0.0
C2507 C 0.16947 0.71609 0.49594 0.0
C2508 C 0.14448 0.70232 0.4878 0.0
C2509 C 0.13546 0.67964 0.50359 0.0
C2510 C 0.1504 0.67063 0.52682 0.0
C2511 C 0.13692 0.64479 0.53914 0.0
C2512 C 0.15848 0.62046 0.54043 0.0
C2513 C 0.1242 0.65169 0.56797 0.0
C2514 C 0.11351 0.6393 0.51794 0.0
C2515 C 0.11254 0.66024 0.49814 0.0
C2516 C 0.09403 0.65913 0.47545 0.0
C2517 C 0.07679 0.63557 0.47231 0.0
C2518 C 0.07829 0.61317 0.49156 0.0
C2519 C 0.09624 0.61553 0.51516 0.0
loop_
_geom_bond_atom_site_label_1
_geom_bond_atom_site_label_2
_geom_bond_distance
_geom_bond_site_symmetry_2
_ccdc_geom_bond_type
H0 C3 0.929 . S
H1 C6 0.929 . S
H2 C8 0.930 . S
C3 H0 0.929 . S
C3 C4 1.398 . S
C3 C5 1.396 . S
C4 C3 1.398 . S
C4 C8 1.407 . S
C5 C3 1.396 . S
C5 C6 1.394 . S
C6 H1 0.929 . S
C6 C5 1.394 . S
C6 C7 1.382 . S
C7 C6 1.382 . S
C7 C8 1.392 . S
C7 N9 1.420 . S
C8 H2 0.930 . S
C8 C4 1.407 . S
C8 C7 1.392 . S
N9 C7 1.420 . S
N9 C10 1.244 . S
C10 N9 1.244 . S
H11 C14 0.929 . S
H12 C17 0.929 . S
H13 C19 0.930 . S
C14 H11 0.929 . S
C14 C15 1.398 . S
C14 C16 1.396 . S
C15 C14 1.398 . S
C15 C19 1.407 . S
C16 C14 1.396 . S
C16 C17 1.394 . S
C17 H12 0.929 . S
C17 C16 1.394 . S
C17 C18 1.382 . S
C18 C17 1.382 . S
C18 C19 1.392 . S
C18 N20 1.420 . S
C19 H13 0.930 . S
C19 C15 1.407 . S
C19 C18 1.392 . S
N20 C18 1.420 . S
N20 C21 1.244 . S
C21 N20 1.244 . S
H22 C25 0.929 . S
H23 C28 0.929 . S
H24 C30 0.930 . S
C25 H22 0.929 . S
C25 C26 1.398 . S
C25 C27 1.396 . S
C26 C25 1.398 . S
C26 C30 1.407 . S
C27 C25 1.396 . S
C27 C28 1.394 . S
C28 H23 0.929 . S
C28 C27 1.394 . S
C28 C29 1.382 . S
C29 C28 1.382 . S
C29 C30 1.392 . S
C29 N31 1.420 . S
C30 H24 0.930 . S
C30 C26 1.407 . S
C30 C29 1.392 . S
N31 C29 1.420 . S
N31 C32 1.244 . S
C32 N31 1.244 . S
H33 C36 0.929 . S
H34 C39 0.929 . S
H35 C41 0.930 . S
C36 H33 0.929 . S
C36 C37 1.398 . S
C36 C38 1.396 . S
C37 C36 1.398 . S
C37 C41 1.407 1_545 S
C38 C36 1.396 . S
C38 C39 1.394 1_545 S
C39 H34 0.929 . S
C39 C38 1.394 1_565 S
C39 C40 1.382 . S
C40 C39 1.382 . S
C40 C41 1.392 . S
C40 N42 1.420 . S
C41 H35 0.930 . S
C41 C37 1.407 1_565 S
C41 C40 1.392 . S
N42 C40 1.420 . S
N42 C43 1.244 1_565 S
C43 N42 1.244 1_545 S
H44 C47 0.935 . S
H45 C50 0.929 . S
H46 C52 0.930 . S
C47 H44 0.935 . S
C47 C48 1.395 1_655 S
C47 C49 1.394 1_655 S
C48 C47 1.395 1_455 S
C48 C52 1.407 . S
C49 C47 1.394 1_455 S
C49 C50 1.394 . S
C50 H45 0.929 . S
C50 C49 1.394 . S
C50 C51 1.382 . S
C51 C50 1.382 . S
C51 C52 1.392 . S
C51 N53 1.420 . S
C52 H46 0.930 . S
C52 C48 1.407 . S
C52 C51 1.392 . S
N53 C51 1.420 . S
N53 C54 1.244 1_455 S
C54 N53 1.244 1_655 S
H55 C58 0.931 . S
H56 C61 0.929 . S
H57 C63 0.930 . S
C58 H55 0.931 . S
C58 C59 1.398 . S
C58 C60 1.396 . S
C59 C58 1.398 . S
C59 C63 1.407 . S
C60 C58 1.396 . S
C60 C61 1.394 . S
C61 H56 0.929 . S
C61 C60 1.394 . S
C61 C62 1.382 . S
C62 C61 1.382 . S
C62 C63 1.392 . S
C62 N64 1.420 . S
C63 H57 0.930 . S
C63 C59 1.407 . S
C63 C62 1.392 . S
N64 C62 1.420 . S
N64 C65 1.244 . S
C65 N64 1.244 . S
H66 C69 0.929 . S
H67 C72 0.929 . S
H68 C74 0.930 . S
C69 H66 0.929 . S
C69 C70 1.398 . S
C69 C71 1.396 . S
C70 C69 1.398 . S
C70 C74 1.407 . S
C71 C69 1.396 . S
C71 C72 1.394 . S
C72 H67 0.929 . S
C72 C71 1.394 . S
C72 C73 1.382 . S
C73 C72 1.382 . S
C73 C74 1.392 . S
C73 N75 1.420 . S
C74 H68 0.930 . S
C74 C70 1.407 . S
C74 C73 1.392 . S
N75 C73 1.420 . S
N75 C76 1.244 . S
C76 N75 1.244 . S
H77 C80 0.929 . S
H78 C83 0.929 . S
H79 C85 0.930 . S
C80 H77 0.929 . S
C80 C81 1.398 . S
C80 C82 1.396 . S
C81 C80 1.398 . S
C81 C85 1.407 . S
C82 C80 1.396 . S
C82 C83 1.394 . S
C83 H78 0.929 . S
C83 C82 1.394 . S
C83 C84 1.382 . S
C84 C83 1.382 . S
C84 C85 1.392 . S
C84 N86 1.420 . S
C85 H79 0.930 . S
C85 C81 1.407 . S
C85 C84 1.392 . S
N86 C84 1.420 . S
N86 C87 1.244 . S
C87 N86 1.244 . S
H88 C91 0.929 . S
H89 C94 0.929 . S
H90 C96 0.930 . S
C91 H88 0.929 . S
C91 C92 1.398 . S
C91 C93 1.396 . S
C92 C91 1.398 . S
C92 C96 1.407 . S
C93 C91 1.396 . S
C93 C94 1.394 . S
C94 H89 0.929 . S
C94 C93 1.394 . S
C94 C95 1.382 . S
C95 C94 1.382 . S
C95 C96 1.392 . S
C95 N97 1.420 . S
C96 H90 0.930 . S
C96 C92 1.407 . S
C96 C95 1.392 . S
N97 C95 1.420 . S
N97 C98 1.244 . S
C98 N97 1.244 . S
H99 C102 0.929 . S
H100 C105 0.929 . S
H101 C107 0.930 . S
C102 H99 0.929 . S
C102 C103 1.398 . S
C102 C104 1.396 . S
C103 C102 1.398 . S
C103 C107 1.407 . S
C104 C102 1.396 . S
C104 C105 1.394 . S
C105 H100 0.929 . S
C105 C104 1.394 . S
C105 C106 1.382 . S
C106 C105 1.382 . S
C106 C107 1.392 . S
C106 N108 1.420 . S
C107 H101 0.930 . S
C107 C103 1.407 . S
C107 C106 1.392 . S
N108 C106 1.420 . S
N108 C109 1.244 . S
C109 N108 1.244 . S
H110 C113 0.929 . S
H111 C116 0.929 . S
H112 C118 0.930 . S
C113 H110 0.929 . S
C113 C114 1.398 1_554 S
C113 C115 1.396 1_554 S
C114 C113 1.398 1_556 S
C114 C118 1.407 . S
C115 C113 1.396 1_556 S
C115 C116 1.394 . S
C116 H111 0.929 . S
C116 C115 1.394 . S
C116 C117 1.382 . S
C117 C116 1.382 . S
C117 C118 1.392 . S
C117 N119 1.420 . S
C118 H112 0.930 . S
C118 C114 1.407 . S
C118 C117 1.392 . S
N119 C117 1.420 . S
N119 C120 1.244 1_556 S
C120 N119 1.244 1_554 S
H121 C124 0.938 . S
H122 C127 0.929 . S
H123 C129 0.930 . S
C124 H121 0.938 . S
C124 C125 1.395 1_556 S
C124 C126 1.392 1_556 S
C125 C124 1.395 1_554 S
C125 C129 1.407 . S
C126 C124 1.392 1_554 S
C126 C127 1.394 . S
C127 H122 0.929 . S
C127 C126 1.394 . S
C127 C128 1.382 . S
C128 C127 1.382 . S
C128 C129 1.392 . S
C128 N130 1.420 . S
C129 H123 0.930 . S
C129 C125 1.407 . S
C129 C128 1.392 . S
N130 C128 1.420 . S
N130 C131 1.244 . S
C131 N130 1.244 . S
H132 C135 0.929 . S
H133 C138 0.929 . S
H134 C140 0.930 . S
C135 H132 0.929 . S
C135 C136 1.398 . S
C135 C137 1.396 . S
C136 C135 1.398 . S
C136 C140 1.407 . S
C137 C135 1.396 . S
C137 C138 1.394 . S
C138 H133 0.929 . S
C138 C137 1.394 . S
C138 C139 1.382 . S
C139 C138 1.382 . S
C139 C140 1.392 . S
C139 N141 1.420 . S
C140 H134 0.930 . S
C140 C136 1.407 . S
C140 C139 1.392 . S
N141 C139 1.420 . S
N141 C142 1.244 . S
C142 N141 1.244 . S
H143 C146 0.929 . S
H144 C149 0.929 . S
H145 C151 0.930 . S
C146 H143 0.929 . S
C146 C147 1.398 . S
C146 C148 1.396 . S
C147 C146 1.398 . S
C147 C151 1.407 . S
C148 C146 1.396 . S
C148 C149 1.394 . S
C149 H144 0.929 . S
C149 C148 1.394 . S
C149 C150 1.382 . S
C150 C149 1.382 . S
C150 C151 1.392 . S
C150 N152 1.420 . S
C151 H145 0.930 . S
C151 C147 1.407 . S
C151 C150 1.392 . S
N152 C150 1.420 . S
N152 C153 1.244 . S
C153 N152 1.244 . S
H154 C157 0.929 . S
H155 C160 0.929 . S
H156 C162 0.930 . S
C157 H154 0.929 . S
C157 C158 1.398 . S
C157 C159 1.396 . S
C158 C157 1.398 . S
C158 C162 1.407 . S
C159 C157 1.396 . S
C159 C160 1.394 . S
C160 H155 0.929 . S
C160 C159 1.394 . S
C160 C161 1.382 . S
C161 C160 1.382 . S
C161 C162 1.392 . S
C161 N163 1.420 . S
C162 H156 0.930 . S
C162 C158 1.407 . S
C162 C161 1.392 . S
N163 C161 1.420 . S
N163 C164 1.244 . S
C164 N163 1.244 . S
H165 C168 0.929 . S
H166 C171 0.929 . S
H167 C173 0.930 . S
C168 H165 0.929 . S
C168 C169 1.398 . S
C168 C170 1.396 . S
C169 C168 1.398 . S
C169 C173 1.407 . S
C170 C168 1.396 . S
C170 C171 1.394 . S
C171 H166 0.929 . S
C171 C170 1.394 . S
C171 C172 1.382 . S
C172 C171 1.382 . S
C172 C173 1.392 . S
C172 N174 1.420 . S
C173 H167 0.930 . S
C173 C169 1.407 . S
C173 C172 1.392 . S
N174 C172 1.420 . S
N174 C175 1.244 . S
C175 N174 1.244 . S
H176 C179 0.929 . S
H177 C182 0.929 . S
H178 C184 0.930 . S
C179 H176 0.929 . S
C179 C180 1.398 . S
C179 C181 1.396 . S
C180 C179 1.398 . S
C180 C184 1.407 . S
C181 C179 1.396 . S
C181 C182 1.394 . S
C182 H177 0.929 . S
C182 C181 1.394 . S
C182 C183 1.382 . S
C183 C182 1.382 . S
C183 C184 1.392 . S
C183 N185 1.420 . S
C184 H178 0.930 . S
C184 C180 1.407 . S
C184 C183 1.392 . S
N185 C183 1.420 . S
N185 C186 1.244 . S
C186 N185 1.244 . S
H187 C190 0.929 . S
H188 C193 0.929 . S
H189 C195 0.930 . S
C190 H187 0.929 . S
C190 C191 1.398 . S
C190 C192 1.396 . S
C191 C190 1.398 . S
C191 C195 1.407 . S
C192 C190 1.396 . S
C192 C193 1.394 . S
C193 H188 0.929 . S
C193 C192 1.394 . S
C193 C194 1.382 . S
C194 C193 1.382 . S
C194 C195 1.392 . S
C194 N196 1.420 . S
C195 H189 0.930 . S
C195 C191 1.407 . S
C195 C194 1.392 . S
N196 C194 1.420 . S
N196 C197 1.244 . S
C197 N196 1.244 . S
H198 C201 0.929 . S
H199 C204 0.929 . S
H200 C206 0.930 . S
C201 H198 0.929 . S
C201 C202 1.398 . S
C201 C203 1.396 . S
C202 C201 1.398 . S
C202 C206 1.407 . S
C203 C201 1.396 . S
C203 C204 1.394 . S
C204 H199 0.929 . S
C204 C203 1.394 . S
C204 C205 1.382 . S
C205 C204 1.382 . S
C205 C206 1.392 . S
C205 N207 1.420 . S
C206 H200 0.930 . S
C206 C202 1.407 . S
C206 C205 1.392 . S
N207 C205 1.420 . S
N207 C208 1.244 . S
C208 N207 1.244 . S
H209 C212 0.929 . S
H210 C215 0.929 . S
H211 C217 0.930 . S
C212 H209 0.929 . S
C212 C213 1.398 . S
C212 C214 1.396 . S
C213 C212 1.398 . S
C213 C217 1.407 . S
C214 C212 1.396 . S
C214 C215 1.394 . S
C215 H210 0.929 . S
C215 C214 1.394 . S
C215 C216 1.382 . S
C216 C215 1.382 . S
C216 C217 1.392 . S
C216 N218 1.420 . S
C217 H211 0.930 . S
C217 C213 1.407 . S
C217 C216 1.392 . S
N218 C216 1.420 . S
N218 C219 1.244 . S
C219 N218 1.244 . S
H220 C223 0.929 . S
H221 C226 0.929 . S
H222 C228 0.930 . S
C223 H220 0.929 . S
C223 C224 1.398 . S
C223 C225 1.396 . S
C224 C223 1.398 . S
C224 C228 1.407 . S
C225 C223 1.396 . S
C225 C226 1.394 . S
C226 H221 0.929 . S
C226 C225 1.394 . S
C226 C227 1.382 . S
C227 C226 1.382 . S
C227 C228 1.392 . S
C227 N229 1.420 . S
C228 H222 0.930 . S
C228 C224 1.407 . S
C228 C227 1.392 . S
N229 C227 1.420 . S
N229 C230 1.244 . S
C230 N229 1.244 . S
H231 C234 0.929 . S
H232 C237 0.929 . S
H233 C239 0.930 . S
C234 H231 0.929 . S
C234 C235 1.398 . S
C234 C236 1.396 . S
C235 C234 1.398 . S
C235 C239 1.407 . S
C236 C234 1.396 . S
C236 C237 1.394 . S
C237 H232 0.929 . S
C237 C236 1.394 . S
C237 C238 1.382 . S
C238 C237 1.382 . S
C238 C239 1.392 . S
C238 N240 1.420 . S
C239 H233 0.930 . S
C239 C235 1.407 . S
C239 C238 1.392 . S
N240 C238 1.420 . S
N240 C241 1.244 . S
C241 N240 1.244 . S
H242 C245 0.929 . S
H243 C248 0.929 . S
H244 C250 0.930 . S
C245 H242 0.929 . S
C245 C246 1.398 . S
C245 C247 1.396 . S
C246 C245 1.398 . S
C246 C250 1.407 . S
C247 C245 1.396 . S
C247 C248 1.394 . S
C248 H243 0.929 . S
C248 C247 1.394 . S
C248 C249 1.382 . S
C249 C248 1.382 . S
C249 C250 1.392 . S
C249 N251 1.420 . S
C250 H244 0.930 . S
C250 C246 1.407 . S
C250 C249 1.392 . S
N251 C249 1.420 . S
N251 C252 1.244 . S
C252 N251 1.244 . S
H253 C256 0.929 . S
H254 C259 0.929 . S
H255 C261 0.930 . S
C256 H253 0.929 . S
C256 C257 1.398 . S
C256 C258 1.396 . S
C257 C256 1.398 . S
C257 C261 1.407 . S
C258 C256 1.396 . S
C258 C259 1.394 . S
C259 H254 0.929 . S
C259 C258 1.394 . S
C259 C260 1.382 . S
C260 C259 1.382 . S
C260 C261 1.392 . S
C260 N262 1.420 . S
C261 H255 0.930 . S
C261 C257 1.407 . S
C261 C260 1.392 . S
N262 C260 1.420 . S
N262 C263 1.244 . S
C263 N262 1.244 . S
Zn264 O266 1.933 1_665 S
Zn264 O284 1.985 . S
Zn264 O295 1.955 1_655 S
Zn265 O266 1.911 1_655 S
Zn265 O285 1.970 . S
Zn265 O301 1.945 1_655 S
Zn265 O308 1.981 . S
O266 Zn264 1.933 1_445 S
O266 Zn265 1.911 1_455 S
O266 H267 0.841 . S
H267 O266 0.841 . S
C268 O269 1.246 . S
C268 O297 1.276 . S
O269 C268 1.246 . S
Zn270 O272 1.911 . S
Zn270 O287 1.970 . S
Zn270 O304 1.945 . S
Zn270 O311 1.981 . S
Zn271 O272 1.933 1_565 S
Zn271 O286 1.985 . S
Zn271 O293 1.955 . S
O272 Zn270 1.911 . S
O272 Zn271 1.933 1_545 S
O272 H273 0.841 . S
H273 O272 0.841 . S
Zn274 O275 1.933 1_565 S
Zn274 O288 1.985 . S
Zn274 O297 1.955 . S
O275 Zn274 1.933 1_545 S
O275 Zn276 1.911 . S
O275 H277 0.841 . S
Zn276 O275 1.911 . S
Zn276 O289 1.970 . S
Zn276 O305 1.981 1_655 S
Zn276 O307 1.945 . S
H277 O275 0.841 . S
Zn278 O279 1.933 1_565 S
Zn278 O291 1.985 . S
Zn278 O299 1.955 . S
O279 Zn278 1.933 1_545 S
O279 H280 0.841 . S
O279 Zn281 1.911 . S
H280 O279 0.841 . S
Zn281 O279 1.911 . S
Zn281 O292 1.970 . S
Zn281 O302 1.981 . S
Zn281 O310 1.945 . S
C282 O283 1.246 . S
C282 O299 1.276 . S
O283 C282 1.246 . S
O284 Zn264 1.985 . S
O284 C294 1.245 1_565 S
O285 Zn265 1.970 . S
O285 C294 1.263 . S
O286 Zn271 1.985 . S
O286 C298 1.245 1_565 S
O287 Zn270 1.970 . S
O287 C298 1.263 . S
O288 Zn274 1.985 . S
O288 C303 1.245 1_565 S
O289 Zn276 1.970 . S
O289 C303 1.263 . S
C290 O301 1.262 . S
C290 O302 1.245 . S
O291 Zn278 1.985 . S
O291 C309 1.245 1_565 S
O292 Zn281 1.970 . S
O292 C309 1.263 . S
O293 Zn271 1.955 . S
O293 C312 1.276 . S
C294 O284 1.245 1_545 S
C294 O285 1.263 . S
O295 Zn264 1.955 1_455 S
O295 C314 1.276 . S
C296 O304 1.262 . S
C296 O305 1.245 . S
O297 C268 1.276 . S
O297 Zn274 1.955 . S
C298 O286 1.245 1_545 S
C298 O287 1.263 . S
O299 Zn278 1.955 . S
O299 C282 1.276 . S
C300 O307 1.262 . S
C300 O308 1.245 . S
O301 Zn265 1.945 1_455 S
O301 C290 1.262 . S
O302 Zn281 1.981 . S
O302 C290 1.245 . S
C303 O288 1.245 1_545 S
C303 O289 1.263 . S
O304 Zn270 1.945 . S
O304 C296 1.262 . S
O305 Zn276 1.981 1_455 S
O305 C296 1.245 . S
C306 O310 1.262 . S
C306 O311 1.245 . S
O307 Zn276 1.945 . S
O307 C300 1.262 . S
O308 Zn265 1.981 . S
O308 C300 1.245 . S
C309 O291 1.245 1_545 S
C309 O292 1.263 . S
O310 Zn281 1.945 . S
O310 C306 1.262 . S
O311 Zn270 1.981 . S
O311 C306 1.245 . S
C312 O293 1.276 . S
C312 O313 1.246 . S
O313 C312 1.246 . S
C314 O295 1.276 . S
C314 O315 1.246 . S
O315 C314 1.246 . S
Zn316 O318 1.933 . S
Zn316 O336 1.985 . S
Zn316 O347 1.955 . S
Zn317 O318 1.911 1_556 S
Zn317 O337 1.970 . S
Zn317 O353 1.945 . S
Zn317 O360 1.981 . S
O318 Zn316 1.933 . S
O318 Zn317 1.911 1_554 S
O318 H319 0.841 . S
H319 O318 0.841 . S
C320 O321 1.246 . S
C320 O349 1.276 . S
O321 C320 1.246 . S
Zn322 O324 1.911 1_556 S
Zn322 O339 1.970 . S
Zn322 O356 1.945 . S
Zn322 O363 1.981 . S
Zn323 O324 1.933 . S
Zn323 O338 1.985 . S
Zn323 O345 1.955 . S
O324 Zn322 1.911 1_554 S
O324 Zn323 1.933 . S
O324 H325 0.841 1_565 S
H325 O324 0.841 1_545 S
Zn326 O327 1.933 . S
Zn326 O340 1.985 . S
Zn326 O349 1.955 . S
O327 Zn326 1.933 . S
O327 Zn328 1.911 1_554 S
O327 H329 0.841 . S
Zn328 O327 1.911 1_556 S
Zn328 O341 1.970 . S
Zn328 O357 1.981 . S
Zn328 O359 1.945 . S
H329 O327 0.841 . S
Zn330 O331 1.933 . S
Zn330 O343 1.985 . S
Zn330 O351 1.955 . S
O331 Zn330 1.933 . S
O331 H332 0.841 . S
O331 Zn333 1.911 1_554 S
H332 O331 0.841 . S
Zn333 O331 1.911 1_556 S
Zn333 O344 1.970 . S
Zn333 O354 1.981 1_565 S
Zn333 O362 1.945 . S
C334 O335 1.246 . S
C334 O351 1.276 . S
O335 C334 1.246 . S
O336 Zn316 1.985 . S
O336 C346 1.245 . S
O337 Zn317 1.970 . S
O337 C346 1.263 1_556 S
O338 Zn323 1.985 . S
O338 C350 1.245 . S
O339 Zn322 1.970 . S
O339 C350 1.263 1_556 S
O340 Zn326 1.985 . S
O340 C355 1.245 . S
O341 Zn328 1.970 . S
O341 C355 1.263 1_556 S
C342 O353 1.262 . S
C342 O354 1.245 . S
O343 Zn330 1.985 . S
O343 C361 1.245 . S
O344 Zn333 1.970 . S
O344 C361 1.263 1_556 S
O345 Zn323 1.955 . S
O345 C364 1.276 1_565 S
C346 O336 1.245 . S
C346 O337 1.263 1_554 S
O347 Zn316 1.955 . S
O347 C366 1.276 . S
C348 O356 1.262 1_545 S
C348 O357 1.245 . S
O349 C320 1.276 . S
O349 Zn326 1.955 . S
C350 O338 1.245 . S
C350 O339 1.263 1_554 S
O351 Zn330 1.955 . S
O351 C334 1.276 . S
C352 O359 1.262 . S
C352 O360 1.245 . S
O353 Zn317 1.945 . S
O353 C342 1.262 . S
O354 Zn333 1.981 1_545 S
O354 C342 1.245 . S
C355 O340 1.245 . S
C355 O341 1.263 1_554 S
O356 Zn322 1.945 . S
O356 C348 1.262 1_565 S
O357 Zn328 1.981 . S
O357 C348 1.245 . S
C358 O362 1.262 . S
C358 O363 1.245 . S
O359 Zn328 1.945 . S
O359 C352 1.262 . S
O360 Zn317 1.981 . S
O360 C352 1.245 . S
C361 O343 1.245 . S
C361 O344 1.263 1_554 S
O362 Zn333 1.945 . S
O362 C358 1.262 . S
O363 Zn322 1.981 . S
O363 C358 1.245 . S
C364 O345 1.276 1_545 S
C364 O365 1.246 . S
O365 C364 1.246 . S
C366 O347 1.276 . S
C366 O367 1.246 . S
O367 C366 1.246 . S
Zn368 O370 1.933 . S
Zn368 O388 1.985 . S
Zn368 O399 1.955 . S
Zn369 O370 1.911 . S
Zn369 O389 1.970 . S
Zn369 O405 1.945 . S
Zn369 O412 1.981 . S
O370 Zn368 1.933 . S
O370 Zn369 1.911 . S
O370 H371 0.841 1_655 S
H371 O370 0.841 1_455 S
C372 O373 1.246 1_554 S
C372 O401 1.276 . S
O373 C372 1.246 1_556 S
Zn374 O376 1.911 . S
Zn374 O391 1.970 . S
Zn374 O408 1.945 . S
Zn374 O415 1.981 . S
Zn375 O376 1.933 . S
Zn375 O390 1.985 . S
Zn375 O397 1.955 . S
O376 Zn374 1.911 . S
O376 Zn375 1.933 . S
O376 H377 0.841 . S
H377 O376 0.841 . S
Zn378 O379 1.933 . S
Zn378 O392 1.985 . S
Zn378 O401 1.955 . S
O379 Zn378 1.933 . S
O379 Zn380 1.911 . S
O379 H381 0.841 . S
Zn380 O379 1.911 . S
Zn380 O393 1.970 . S
Zn380 O409 1.981 . S
Zn380 O411 1.945 . S
H381 O379 0.841 . S
Zn382 O383 1.933 . S
Zn382 O395 1.985 . S
Zn382 O403 1.955 . S
O383 Zn382 1.933 . S
O383 H384 0.841 . S
O383 Zn385 1.911 . S
H384 O383 0.841 . S
Zn385 O383 1.911 . S
Zn385 O396 1.970 . S
Zn385 O406 1.981 . S
Zn385 O414 1.945 . S
C386 O387 1.246 . S
C386 O403 1.276 1_554 S
O387 C386 1.246 . S
O388 Zn368 1.985 . S
O388 C398 1.245 . S
O389 Zn369 1.970 . S
O389 C398 1.263 . S
O390 Zn375 1.985 . S
O390 C402 1.245 . S
O391 Zn374 1.970 . S
O391 C402 1.263 . S
O392 Zn378 1.985 . S
O392 C407 1.245 . S
O393 Zn380 1.970 . S
O393 C407 1.263 . S
C394 O405 1.262 1_455 S
C394 O406 1.245 . S
O395 Zn382 1.985 . S
O395 C413 1.245 . S
O396 Zn385 1.970 . S
O396 C413 1.263 . S
O397 Zn375 1.955 . S
O397 C416 1.276 . S
C398 O388 1.245 . S
C398 O389 1.263 . S
O399 Zn368 1.955 . S
O399 C418 1.276 1_655 S
C400 O408 1.262 . S
C400 O409 1.245 1_455 S
O401 C372 1.276 . S
O401 Zn378 1.955 . S
C402 O390 1.245 . S
C402 O391 1.263 . S
O403 Zn382 1.955 . S
O403 C386 1.276 1_556 S
C404 O411 1.262 . S
C404 O412 1.245 1_554 S
O405 Zn369 1.945 . S
O405 C394 1.262 1_655 S
O406 Zn385 1.981 . S
O406 C394 1.245 . S
C407 O392 1.245 . S
C407 O393 1.263 . S
O408 Zn374 1.945 . S
O408 C400 1.262 . S
O409 Zn380 1.981 . S
O409 C400 1.245 1_655 S
C410 O414 1.262 1_554 S
C410 O415 1.245 . S
O411 Zn380 1.945 . S
O411 C404 1.262 . S
O412 Zn369 1.981 . S
O412 C404 1.245 1_556 S
C413 O395 1.245 . S
C413 O396 1.263 . S
O414 Zn385 1.945 . S
O414 C410 1.262 1_556 S
O415 Zn374 1.981 . S
O415 C410 1.245 . S
C416 O397 1.276 . S
C416 O417 1.246 1_455 S
O417 C416 1.246 1_655 S
C418 O399 1.276 1_455 S
C418 O419 1.246 . S
O419 C418 1.246 . S
Zn420 O422 1.933 1_556 S
Zn420 O440 1.985 . S
Zn420 O451 1.955 . S
Zn421 O422 1.911 . S
Zn421 O441 1.970 . S
Zn421 O457 1.945 . S
Zn421 O464 1.981 . S
O422 Zn420 1.933 1_554 S
O422 Zn421 1.911 . S
O422 H423 0.841 . S
H423 O422 0.841 . S
C424 O425 1.246 . S
C424 O453 1.276 . S
O425 C424 1.246 . S
Zn426 O428 1.911 . S
Zn426 O443 1.970 . S
Zn426 O460 1.945 . S
Zn426 O467 1.981 . S
Zn427 O428 1.933 1_556 S
Zn427 O442 1.985 . S
Zn427 O449 1.955 . S
O428 Zn426 1.911 . S
O428 Zn427 1.933 1_554 S
O428 H429 0.841 . S
H429 O428 0.841 . S
Zn430 O431 1.933 1_556 S
Zn430 O444 1.985 . S
Zn430 O453 1.955 . S
O431 Zn430 1.933 1_554 S
O431 Zn432 1.911 . S
O431 H433 0.841 . S
Zn432 O431 1.911 . S
Zn432 O445 1.970 . S
Zn432 O461 1.981 . S
Zn432 O463 1.945 . S
H433 O431 0.841 . S
Zn434 O435 1.933 1_556 S
Zn434 O447 1.985 . S
Zn434 O455 1.955 . S
O435 Zn434 1.933 1_554 S
O435 H436 0.841 . S
O435 Zn437 1.911 . S
H436 O435 0.841 . S
Zn437 O435 1.911 . S
Zn437 O448 1.970 . S
Zn437 O458 1.981 . S
Zn437 O466 1.945 . S
C438 O439 1.246 . S
C438 O455 1.276 . S
O439 C438 1.246 . S
O440 Zn420 1.985 . S
O440 C450 1.245 1_556 S
O441 Zn421 1.970 . S
O441 C450 1.263 . S
O442 Zn427 1.985 . S
O442 C454 1.245 1_556 S
O443 Zn426 1.970 . S
O443 C454 1.263 . S
O444 Zn430 1.985 . S
O444 C459 1.245 1_556 S
O445 Zn432 1.970 . S
O445 C459 1.263 . S
C446 O457 1.262 . S
C446 O458 1.245 . S
O447 Zn434 1.985 . S
O447 C465 1.245 1_556 S
O448 Zn437 1.970 . S
O448 C465 1.263 . S
O449 Zn427 1.955 . S
O449 C468 1.276 . S
C450 O440 1.245 1_554 S
C450 O441 1.263 . S
O451 Zn420 1.955 . S
O451 C470 1.276 . S
C452 O460 1.262 . S
C452 O461 1.245 . S
O453 C424 1.276 . S
O453 Zn430 1.955 . S
C454 O442 1.245 1_554 S
C454 O443 1.263 . S
O455 Zn434 1.955 . S
O455 C438 1.276 . S
C456 O463 1.262 . S
C456 O464 1.245 . S
O457 Zn421 1.945 . S
O457 C446 1.262 . S
O458 Zn437 1.981 . S
O458 C446 1.245 . S
C459 O444 1.245 1_554 S
C459 O445 1.263 . S
O460 Zn426 1.945 . S
O460 C452 1.262 . S
O461 Zn432 1.981 . S
O461 C452 1.245 . S
C462 O466 1.262 . S
C462 O467 1.245 . S
O463 Zn432 1.945 . S
O463 C456 1.262 . S
O464 Zn421 1.981 . S
O464 C456 1.245 . S
C465 O447 1.245 1_554 S
C465 O448 1.263 . S
O466 Zn437 1.945 . S
O466 C462 1.262 . S
O467 Zn426 1.981 . S
O467 C462 1.245 . S
C468 O449 1.276 . S
C468 O469 1.246 . S
O469 C468 1.246 . S
C470 O451 1.276 . S
C470 O471 1.246 . S
O471 C470 1.246 . S
Zn472 O474 1.933 . S
Zn472 O492 1.985 . S
Zn472 O503 1.955 . S
Zn473 O474 1.911 . S
Zn473 O493 1.970 . S
Zn473 O509 1.945 . S
Zn473 O516 1.981 . S
O474 Zn472 1.933 . S
O474 Zn473 1.911 . S
O474 H475 0.841 1_655 S
H475 O474 0.841 1_455 S
C476 O477 1.246 . S
C476 O505 1.276 . S
O477 C476 1.246 . S
Zn478 O480 1.911 . S
Zn478 O495 1.970 . S
Zn478 O512 1.945 . S
Zn478 O519 1.981 . S
Zn479 O480 1.933 . S
Zn479 O494 1.985 . S
Zn479 O501 1.955 . S
O480 Zn478 1.911 . S
O480 Zn479 1.933 . S
O480 H481 0.841 . S
H481 O480 0.841 . S
Zn482 O483 1.933 . S
Zn482 O496 1.985 . S
Zn482 O505 1.955 . S
O483 Zn482 1.933 . S
O483 Zn484 1.911 . S
O483 H485 0.841 . S
Zn484 O483 1.911 . S
Zn484 O497 1.970 . S
Zn484 O513 1.981 1_655 S
Zn484 O515 1.945 . S
H485 O483 0.841 . S
Zn486 O487 1.933 . S
Zn486 O499 1.985 . S
Zn486 O507 1.955 . S
O487 Zn486 1.933 . S
O487 H488 0.841 . S
O487 Zn489 1.911 . S
H488 O487 0.841 . S
Zn489 O487 1.911 . S
Zn489 O500 1.970 . S
Zn489 O510 1.981 . S
Zn489 O518 1.945 . S
C490 O491 1.246 . S
C490 O507 1.276 . S
O491 C490 1.246 . S
O492 Zn472 1.985 . S
O492 C502 1.245 . S
O493 Zn473 1.970 . S
O493 C502 1.263 . S
O494 Zn479 1.985 . S
O494 C506 1.245 . S
O495 Zn478 1.970 . S
O495 C506 1.263 . S
O496 Zn482 1.985 . S
O496 C511 1.245 . S
O497 Zn484 1.970 . S
O497 C511 1.263 . S
C498 O509 1.262 1_455 S
C498 O510 1.245 . S
O499 Zn486 1.985 . S
O499 C517 1.245 . S
O500 Zn489 1.970 . S
O500 C517 1.263 . S
O501 Zn479 1.955 . S
O501 C520 1.276 . S
C502 O492 1.245 . S
C502 O493 1.263 . S
O503 Zn472 1.955 . S
O503 C522 1.276 1_655 S
C504 O512 1.262 . S
C504 O513 1.245 . S
O505 C476 1.276 . S
O505 Zn482 1.955 . S
C506 O494 1.245 . S
C506 O495 1.263 . S
O507 Zn486 1.955 . S
O507 C490 1.276 . S
C508 O515 1.262 . S
C508 O516 1.245 . S
O509 Zn473 1.945 . S
O509 C498 1.262 1_655 S
O510 Zn489 1.981 . S
O510 C498 1.245 . S
C511 O496 1.245 . S
C511 O497 1.263 . S
O512 Zn478 1.945 . S
O512 C504 1.262 . S
O513 Zn484 1.981 1_455 S
O513 C504 1.245 . S
C514 O518 1.262 . S
C514 O519 1.245 . S
O515 Zn484 1.945 . S
O515 C508 1.262 . S
O516 Zn473 1.981 . S
O516 C508 1.245 . S
C517 O499 1.245 . S
C517 O500 1.263 . S
O518 Zn489 1.945 . S
O518 C514 1.262 . S
O519 Zn478 1.981 . S
O519 C514 1.245 . S
C520 O501 1.276 . S
C520 O521 1.246 . S
O521 C520 1.246 . S
C522 O503 1.276 1_455 S
C522 O523 1.246 . S
O523 C522 1.246 . S
Zn524 O526 1.933 1_565 S
Zn524 O544 1.985 . S
Zn524 O555 1.955 . S
Zn525 O526 1.911 . S
Zn525 O545 1.970 . S
Zn525 O561 1.945 . S
Zn525 O568 1.981 . S
O526 Zn524 1.933 1_545 S
O526 Zn525 1.911 . S
O526 H527 0.841 . S
H527 O526 0.841 . S
C528 O529 1.246 . S
C528 O557 1.276 . S
O529 C528 1.246 . S
Zn530 O532 1.911 . S
Zn530 O547 1.970 . S
Zn530 O564 1.945 . S
Zn530 O571 1.981 . S
Zn531 O532 1.933 1_565 S
Zn531 O546 1.984 . S
Zn531 O553 1.955 . S
O532 Zn530 1.911 . S
O532 Zn531 1.933 1_545 S
O532 H533 0.841 . S
H533 O532 0.841 . S
Zn534 O535 1.933 1_565 S
Zn534 O548 1.985 . S
Zn534 O557 1.955 . S
O535 Zn534 1.933 1_545 S
O535 Zn536 1.911 . S
O535 H537 0.841 . S
Zn536 O535 1.911 . S
Zn536 O549 1.970 . S
Zn536 O565 1.981 . S
Zn536 O567 1.945 . S
H537 O535 0.841 . S
Zn538 O539 1.933 1_565 S
Zn538 O551 1.985 . S
Zn538 O559 1.955 . S
O539 Zn538 1.933 1_545 S
O539 H540 0.841 . S
O539 Zn541 1.911 . S
H540 O539 0.841 . S
Zn541 O539 1.911 . S
Zn541 O552 1.970 . S
Zn541 O562 1.981 . S
Zn541 O570 1.945 . S
C542 O543 1.246 . S
C542 O559 1.276 . S
O543 C542 1.246 . S
O544 Zn524 1.985 . S
O544 C554 1.245 1_565 S
O545 Zn525 1.970 . S
O545 C554 1.263 . S
O546 Zn531 1.984 . S
O546 C558 1.248 1_565 S
O547 Zn530 1.970 . S
O547 C558 1.263 . S
O548 Zn534 1.985 . S
O548 C563 1.245 1_565 S
O549 Zn536 1.970 . S
O549 C563 1.263 . S
C550 O561 1.262 . S
C550 O562 1.245 . S
O551 Zn538 1.985 . S
O551 C569 1.244 1_565 S
O552 Zn541 1.970 . S
O552 C569 1.263 . S
O553 Zn531 1.955 . S
O553 C572 1.276 . S
C554 O544 1.245 1_545 S
C554 O545 1.263 . S
O555 Zn524 1.955 . S
O555 C574 1.276 . S
C556 O564 1.262 . S
C556 O565 1.245 . S
O557 C528 1.276 . S
O557 Zn534 1.955 . S
C558 O546 1.248 1_545 S
C558 O547 1.263 . S
O559 Zn538 1.955 . S
O559 C542 1.276 . S
C560 O567 1.262 . S
C560 O568 1.245 . S
O561 Zn525 1.945 . S
O561 C550 1.262 . S
O562 Zn541 1.981 . S
O562 C550 1.245 . S
C563 O548 1.245 1_545 S
C563 O549 1.263 . S
O564 Zn530 1.945 . S
O564 C556 1.262 . S
O565 Zn536 1.981 . S
O565 C556 1.245 . S
C566 O570 1.262 . S
C566 O571 1.245 . S
O567 Zn536 1.945 . S
O567 C560 1.262 . S
O568 Zn525 1.981 . S
O568 C560 1.245 . S
C569 O551 1.244 1_545 S
C569 O552 1.263 . S
O570 Zn541 1.945 . S
O570 C566 1.262 . S
O571 Zn530 1.981 . S
O571 C566 1.245 . S
C572 O553 1.276 . S
C572 O573 1.246 . S
O573 C572 1.246 . S
C574 O555 1.276 . S
C574 O575 1.246 . S
O575 C574 1.246 . S
H576 C588 0.930 . S
H577 C590 0.930 . S
H578 C591 0.930 . S
H579 C595 0.959 . S
H580 C595 0.959 . S
H581 C595 0.961 . S
H582 C596 0.960 . S
H583 C596 0.961 . S
H584 C596 0.959 . S
H585 C599 0.929 . S
H586 C600 0.931 . S
H587 C602 0.930 . S
C588 H576 0.930 . S
C588 C589 1.399 . S
C588 C593 1.399 . S
C589 C588 1.399 . S
C589 C590 1.376 . S
C590 H577 0.930 . S
C590 C589 1.376 . S
C590 C591 1.388 . S
C591 H578 0.930 . S
C591 C590 1.388 . S
C591 C592 1.390 . S
C592 C591 1.390 . S
C592 C593 1.394 . S
C592 C598 1.465 . S
C593 C588 1.399 . S
C593 C592 1.394 . S
C593 C594 1.516 . S
C594 C593 1.516 . S
C594 C595 1.502 . S
C594 C596 1.561 . S
C594 C597 1.526 . S
C595 H579 0.959 . S
C595 H580 0.959 . S
C595 H581 0.961 . S
C595 C594 1.502 . S
C596 H582 0.960 . S
C596 H583 0.961 . S
C596 H584 0.959 . S
C596 C594 1.561 . S
C597 C594 1.526 . S
C597 C598 1.396 . S
C597 C602 1.390 . S
C598 C592 1.465 . S
C598 C597 1.396 . S
C598 C599 1.399 . S
C599 H585 0.929 . S
C599 C598 1.399 . S
C599 C600 1.385 . S
C600 H586 0.931 . S
C600 C599 1.385 . S
C600 C601 1.389 . S
C601 C600 1.389 . S
C601 C602 1.387 . S
C602 H587 0.930 . S
C602 C597 1.390 . S
C602 C601 1.387 . S
H603 C615 0.930 . S
H604 C617 0.930 . S
H605 C618 0.930 . S
H606 C622 0.959 . S
H607 C622 0.959 . S
H608 C622 0.961 . S
H609 C623 0.960 . S
H610 C623 0.961 . S
H611 C623 0.959 . S
H612 C626 0.929 . S
H613 C627 0.931 . S
H614 C629 0.930 . S
C615 H603 0.930 . S
C615 C616 1.399 . S
C615 C620 1.399 . S
C616 C615 1.399 . S
C616 C617 1.376 . S
C617 H604 0.930 . S
C617 C616 1.376 . S
C617 C618 1.388 . S
C618 H605 0.930 . S
C618 C617 1.388 . S
C618 C619 1.390 . S
C619 C618 1.390 . S
C619 C620 1.394 . S
C619 C625 1.465 . S
C620 C615 1.399 . S
C620 C619 1.394 . S
C620 C621 1.516 . S
C621 C620 1.516 . S
C621 C622 1.502 . S
C621 C623 1.561 . S
C621 C624 1.526 . S
C622 H606 0.959 . S
C622 H607 0.959 . S
C622 H608 0.961 . S
C622 C621 1.502 . S
C623 H609 0.960 . S
C623 H610 0.961 . S
C623 H611 0.959 . S
C623 C621 1.561 . S
C624 C621 1.526 . S
C624 C625 1.396 . S
C624 C629 1.390 . S
C625 C619 1.465 . S
C625 C624 1.396 . S
C625 C626 1.399 . S
C626 H612 0.929 . S
C626 C625 1.399 . S
C626 C627 1.385 . S
C627 H613 0.931 . S
C627 C626 1.385 . S
C627 C628 1.389 . S
C628 C627 1.389 . S
C628 C629 1.387 . S
C629 H614 0.930 . S
C629 C624 1.390 . S
C629 C628 1.387 . S
H630 C642 0.930 . S
H631 C644 0.930 . S
H632 C645 0.930 . S
H633 C649 0.959 . S
H634 C649 0.959 . S
H635 C649 0.961 . S
H636 C650 0.960 . S
H637 C650 0.961 . S
H638 C650 0.959 . S
H639 C653 0.929 . S
H640 C654 0.931 . S
H641 C656 0.930 . S
C642 H630 0.930 . S
C642 C643 1.399 . S
C642 C647 1.399 . S
C643 C642 1.399 . S
C643 C644 1.376 . S
C644 H631 0.930 . S
C644 C643 1.376 . S
C644 C645 1.388 . S
C645 H632 0.930 . S
C645 C644 1.388 . S
C645 C646 1.390 . S
C646 C645 1.390 . S
C646 C647 1.394 . S
C646 C652 1.465 . S
C647 C642 1.399 . S
C647 C646 1.394 . S
C647 C648 1.516 . S
C648 C647 1.516 . S
C648 C649 1.502 . S
C648 C650 1.561 . S
C648 C651 1.526 . S
C649 H633 0.959 . S
C649 H634 0.959 . S
C649 H635 0.961 . S
C649 C648 1.502 . S
C650 H636 0.960 . S
C650 H637 0.961 . S
C650 H638 0.959 . S
C650 C648 1.561 . S
C651 C648 1.526 . S
C651 C652 1.396 . S
C651 C656 1.390 . S
C652 C646 1.465 . S
C652 C651 1.396 . S
C652 C653 1.399 . S
C653 H639 0.929 . S
C653 C652 1.399 . S
C653 C654 1.385 . S
C654 H640 0.931 . S
C654 C653 1.385 . S
C654 C655 1.389 . S
C655 C654 1.389 . S
C655 C656 1.387 . S
C656 H641 0.930 . S
C656 C651 1.390 . S
C656 C655 1.387 . S
H657 C669 0.930 . S
H658 C671 0.930 . S
H659 C672 0.930 . S
H660 C676 0.959 . S
H661 C676 0.959 . S
H662 C676 0.961 . S
H663 C677 0.960 . S
H664 C677 0.961 . S
H665 C677 0.959 . S
H666 C680 0.929 . S
H667 C681 0.931 . S
H668 C683 0.930 . S
C669 H657 0.930 . S
C669 C670 1.399 . S
C669 C674 1.399 . S
C670 C669 1.399 . S
C670 C671 1.376 . S
C671 H658 0.930 . S
C671 C670 1.376 . S
C671 C672 1.388 . S
C672 H659 0.930 . S
C672 C671 1.388 . S
C672 C673 1.390 . S
C673 C672 1.390 . S
C673 C674 1.394 . S
C673 C679 1.465 . S
C674 C669 1.399 . S
C674 C673 1.394 . S
C674 C675 1.516 . S
C675 C674 1.516 . S
C675 C676 1.502 . S
C675 C677 1.561 . S
C675 C678 1.526 . S
C676 H660 0.959 . S
C676 H661 0.959 . S
C676 H662 0.961 . S
C676 C675 1.502 . S
C677 H663 0.960 . S
C677 H664 0.961 . S
C677 H665 0.959 . S
C677 C675 1.561 . S
C678 C675 1.526 . S
C678 C679 1.396 . S
C678 C683 1.390 . S
C679 C673 1.465 . S
C679 C678 1.396 . S
C679 C680 1.399 . S
C680 H666 0.929 . S
C680 C679 1.399 . S
C680 C681 1.385 . S
C681 H667 0.931 . S
C681 C680 1.385 . S
C681 C682 1.389 . S
C682 C681 1.389 . S
C682 C683 1.387 . S
C683 H668 0.930 . S
C683 C678 1.390 . S
C683 C682 1.387 . S
H684 C696 0.930 . S
H685 C698 0.930 . S
H686 C699 0.930 . S
H687 C703 0.959 . S
H688 C703 0.959 . S
H689 C703 0.961 . S
H690 C704 0.960 . S
H691 C704 0.961 . S
H692 C704 0.959 . S
H693 C707 0.929 . S
H694 C708 0.931 . S
H695 C710 0.930 . S
C696 H684 0.930 . S
C696 C697 1.399 . S
C696 C701 1.399 . S
C697 C696 1.399 . S
C697 C698 1.376 . S
C698 H685 0.930 . S
C698 C697 1.376 . S
C698 C699 1.388 . S
C699 H686 0.930 . S
C699 C698 1.388 . S
C699 C700 1.390 . S
C700 C699 1.390 . S
C700 C701 1.394 . S
C700 C706 1.465 . S
C701 C696 1.399 . S
C701 C700 1.394 . S
C701 C702 1.516 . S
C702 C701 1.516 . S
C702 C703 1.502 . S
C702 C704 1.561 . S
C702 C705 1.526 . S
C703 H687 0.959 . S
C703 H688 0.959 . S
C703 H689 0.961 . S
C703 C702 1.502 . S
C704 H690 0.960 . S
C704 H691 0.961 . S
C704 H692 0.959 . S
C704 C702 1.561 . S
C705 C702 1.526 . S
C705 C706 1.396 . S
C705 C710 1.390 . S
C706 C700 1.465 . S
C706 C705 1.396 . S
C706 C707 1.399 . S
C707 H693 0.929 . S
C707 C706 1.399 . S
C707 C708 1.385 . S
C708 H694 0.931 . S
C708 C707 1.385 . S
C708 C709 1.389 . S
C709 C708 1.389 . S
C709 C710 1.387 . S
C710 H695 0.930 . S
C710 C705 1.390 . S
C710 C709 1.387 . S
H711 C723 0.930 . S
H712 C725 0.930 . S
H713 C726 0.930 . S
H714 C730 0.959 . S
H715 C730 0.959 . S
H716 C730 0.961 . S
H717 C731 0.960 . S
H718 C731 0.961 . S
H719 C731 0.959 . S
H720 C734 0.929 . S
H721 C735 0.931 . S
H722 C737 0.930 . S
C723 H711 0.930 . S
C723 C724 1.399 . S
C723 C728 1.399 . S
C724 C723 1.399 . S
C724 C725 1.376 . S
C725 H712 0.930 . S
C725 C724 1.376 . S
C725 C726 1.388 . S
C726 H713 0.930 . S
C726 C725 1.388 . S
C726 C727 1.390 . S
C727 C726 1.390 . S
C727 C728 1.394 . S
C727 C733 1.465 . S
C728 C723 1.399 . S
C728 C727 1.394 . S
C728 C729 1.516 . S
C729 C728 1.516 . S
C729 C730 1.502 . S
C729 C731 1.561 . S
C729 C732 1.526 . S
C730 H714 0.959 . S
C730 H715 0.959 . S
C730 H716 0.961 . S
C730 C729 1.502 . S
C731 H717 0.960 . S
C731 H718 0.961 . S
C731 H719 0.959 . S
C731 C729 1.561 . S
C732 C729 1.526 . S
C732 C733 1.396 . S
C732 C737 1.390 . S
C733 C727 1.465 . S
C733 C732 1.396 . S
C733 C734 1.399 . S
C734 H720 0.929 . S
C734 C733 1.399 . S
C734 C735 1.385 . S
C735 H721 0.931 . S
C735 C734 1.385 . S
C735 C736 1.389 . S
C736 C735 1.389 . S
C736 C737 1.387 . S
C737 H722 0.930 . S
C737 C732 1.390 . S
C737 C736 1.387 . S
H738 C750 0.930 . S
H739 C752 0.930 . S
H740 C753 0.930 . S
H741 C757 0.959 . S
H742 C757 0.959 . S
H743 C757 0.961 . S
H744 C758 0.960 . S
H745 C758 0.961 . S
H746 C758 0.959 . S
H747 C761 0.929 . S
H748 C762 0.931 . S
H749 C764 0.930 . S
C750 H738 0.930 . S
C750 C751 1.399 . S
C750 C755 1.399 . S
C751 C750 1.399 . S
C751 C752 1.376 . S
C752 H739 0.930 . S
C752 C751 1.376 . S
C752 C753 1.388 . S
C753 H740 0.930 . S
C753 C752 1.388 . S
C753 C754 1.390 . S
C754 C753 1.390 . S
C754 C755 1.394 . S
C754 C760 1.465 . S
C755 C750 1.399 . S
C755 C754 1.394 . S
C755 C756 1.516 . S
C756 C755 1.516 . S
C756 C757 1.502 . S
C756 C758 1.561 . S
C756 C759 1.526 . S
C757 H741 0.959 . S
C757 H742 0.959 . S
C757 H743 0.961 . S
C757 C756 1.502 . S
C758 H744 0.960 . S
C758 H745 0.961 . S
C758 H746 0.959 . S
C758 C756 1.561 . S
C759 C756 1.526 . S
C759 C760 1.396 . S
C759 C764 1.390 . S
C760 C754 1.465 . S
C760 C759 1.396 . S
C760 C761 1.399 . S
C761 H747 0.929 . S
C761 C760 1.399 . S
C761 C762 1.385 . S
C762 H748 0.931 . S
C762 C761 1.385 . S
C762 C763 1.389 . S
C763 C762 1.389 . S
C763 C764 1.387 . S
C764 H749 0.930 . S
C764 C759 1.390 . S
C764 C763 1.387 . S
H765 C777 0.930 . S
H766 C779 0.930 . S
H767 C780 0.930 . S
H768 C784 0.959 . S
H769 C784 0.959 . S
H770 C784 0.961 . S
H771 C785 0.960 . S
H772 C785 0.961 . S
H773 C785 0.959 . S
H774 C788 0.929 . S
H775 C789 0.931 . S
H776 C791 0.930 . S
C777 H765 0.930 . S
C777 C778 1.399 . S
C777 C782 1.399 . S
C778 C777 1.399 . S
C778 C779 1.376 . S
C779 H766 0.930 . S
C779 C778 1.376 . S
C779 C780 1.388 . S
C780 H767 0.930 . S
C780 C779 1.388 . S
C780 C781 1.390 . S
C781 C780 1.390 . S
C781 C782 1.394 . S
C781 C787 1.465 . S
C782 C777 1.399 . S
C782 C781 1.394 . S
C782 C783 1.516 . S
C783 C782 1.516 . S
C783 C784 1.502 . S
C783 C785 1.561 . S
C783 C786 1.526 . S
C784 H768 0.959 . S
C784 H769 0.959 . S
C784 H770 0.961 . S
C784 C783 1.502 . S
C785 H771 0.960 . S
C785 H772 0.961 . S
C785 H773 0.959 . S
C785 C783 1.561 . S
C786 C783 1.526 . S
C786 C787 1.396 . S
C786 C791 1.390 . S
C787 C781 1.465 . S
C787 C786 1.396 . S
C787 C788 1.399 . S
C788 H774 0.929 . S
C788 C787 1.399 . S
C788 C789 1.385 . S
C789 H775 0.931 . S
C789 C788 1.385 . S
C789 C790 1.389 . S
C790 C789 1.389 . S
C790 C791 1.387 . S
C791 H776 0.930 . S
C791 C786 1.390 . S
C791 C790 1.387 . S
H792 C804 0.930 . S
H793 C806 0.930 . S
H794 C807 0.930 . S
H795 C811 0.959 . S
H796 C811 0.959 . S
H797 C811 0.961 . S
H798 C812 0.960 . S
H799 C812 0.961 . S
H800 C812 0.959 . S
H801 C815 0.929 . S
H802 C816 0.931 . S
H803 C818 0.930 . S
C804 H792 0.930 . S
C804 C805 1.399 . S
C804 C809 1.399 . S
C805 C804 1.399 . S
C805 C806 1.376 . S
C806 H793 0.930 . S
C806 C805 1.376 . S
C806 C807 1.388 . S
C807 H794 0.930 . S
C807 C806 1.388 . S
C807 C808 1.390 . S
C808 C807 1.390 . S
C808 C809 1.394 . S
C808 C814 1.465 . S
C809 C804 1.399 . S
C809 C808 1.394 . S
C809 C810 1.516 . S
C810 C809 1.516 . S
C810 C811 1.502 . S
C810 C812 1.561 . S
C810 C813 1.526 . S
C811 H795 0.959 . S
C811 H796 0.959 . S
C811 H797 0.961 . S
C811 C810 1.502 . S
C812 H798 0.960 . S
C812 H799 0.961 . S
C812 H800 0.959 . S
C812 C810 1.561 . S
C813 C810 1.526 . S
C813 C814 1.396 . S
C813 C818 1.390 . S
C814 C808 1.465 . S
C814 C813 1.396 . S
C814 C815 1.399 . S
C815 H801 0.929 . S
C815 C814 1.399 . S
C815 C816 1.385 . S
C816 H802 0.931 . S
C816 C815 1.385 . S
C816 C817 1.389 . S
C817 C816 1.389 . S
C817 C818 1.387 . S
C818 H803 0.930 . S
C818 C813 1.390 . S
C818 C817 1.387 . S
H819 C831 0.930 . S
H820 C833 0.930 . S
H821 C834 0.930 . S
H822 C838 0.959 . S
H823 C838 0.959 . S
H824 C838 0.961 . S
H825 C839 0.960 . S
H826 C839 0.961 . S
H827 C839 0.959 . S
H828 C842 0.929 . S
H829 C843 0.931 . S
H830 C845 0.930 . S
C831 H819 0.930 . S
C831 C832 1.399 . S
C831 C836 1.399 . S
C832 C831 1.399 . S
C832 C833 1.376 . S
C833 H820 0.930 . S
C833 C832 1.376 . S
C833 C834 1.388 . S
C834 H821 0.930 . S
C834 C833 1.388 . S
C834 C835 1.390 . S
C835 C834 1.390 . S
C835 C836 1.394 . S
C835 C841 1.465 . S
C836 C831 1.399 . S
C836 C835 1.394 . S
C836 C837 1.516 . S
C837 C836 1.516 . S
C837 C838 1.502 . S
C837 C839 1.561 . S
C837 C840 1.526 . S
C838 H822 0.959 . S
C838 H823 0.959 . S
C838 H824 0.961 . S
C838 C837 1.502 . S
C839 H825 0.960 . S
C839 H826 0.961 . S
C839 H827 0.959 . S
C839 C837 1.561 . S
C840 C837 1.526 . S
C840 C841 1.396 . S
C840 C845 1.390 . S
C841 C835 1.465 . S
C841 C840 1.396 . S
C841 C842 1.399 . S
C842 H828 0.929 . S
C842 C841 1.399 . S
C842 C843 1.385 . S
C843 H829 0.931 . S
C843 C842 1.385 . S
C843 C844 1.389 . S
C844 C843 1.389 . S
C844 C845 1.387 . S
C845 H830 0.930 . S
C845 C840 1.390 . S
C845 C844 1.387 . S
H846 C858 0.930 . S
H847 C860 0.930 . S
H848 C861 0.930 . S
H849 C865 0.959 . S
H850 C865 0.959 . S
H851 C865 0.961 . S
H852 C866 0.960 . S
H853 C866 0.961 . S
H854 C866 0.959 . S
H855 C869 0.929 . S
H856 C870 0.931 . S
H857 C872 0.930 . S
C858 H846 0.930 . S
C858 C859 1.399 . S
C858 C863 1.399 . S
C859 C858 1.399 . S
C859 C860 1.376 . S
C860 H847 0.930 . S
C860 C859 1.376 . S
C860 C861 1.388 . S
C861 H848 0.930 . S
C861 C860 1.388 . S
C861 C862 1.390 . S
C862 C861 1.390 . S
C862 C863 1.394 . S
C862 C868 1.465 . S
C863 C858 1.399 . S
C863 C862 1.394 . S
C863 C864 1.516 . S
C864 C863 1.516 . S
C864 C865 1.502 . S
C864 C866 1.561 . S
C864 C867 1.526 . S
C865 H849 0.959 . S
C865 H850 0.959 . S
C865 H851 0.961 . S
C865 C864 1.502 . S
C866 H852 0.960 . S
C866 H853 0.961 . S
C866 H854 0.959 . S
C866 C864 1.561 . S
C867 C864 1.526 . S
C867 C868 1.396 . S
C867 C872 1.390 . S
C868 C862 1.465 . S
C868 C867 1.396 . S
C868 C869 1.399 . S
C869 H855 0.929 . S
C869 C868 1.399 . S
C869 C870 1.385 . S
C870 H856 0.931 . S
C870 C869 1.385 . S
C870 C871 1.389 . S
C871 C870 1.389 . S
C871 C872 1.387 . S
C872 H857 0.930 . S
C872 C867 1.390 . S
C872 C871 1.387 . S
H873 C885 0.930 . S
H874 C887 0.930 . S
H875 C888 0.930 . S
H876 C892 0.959 . S
H877 C892 0.959 . S
H878 C892 0.961 . S
H879 C893 0.960 . S
H880 C893 0.961 . S
H881 C893 0.959 . S
H882 C896 0.929 . S
H883 C897 0.931 . S
H884 C899 0.930 . S
C885 H873 0.930 . S
C885 C886 1.399 . S
C885 C890 1.399 . S
C886 C885 1.399 . S
C886 C887 1.376 . S
C887 H874 0.930 . S
C887 C886 1.376 . S
C887 C888 1.388 . S
C888 H875 0.930 . S
C888 C887 1.388 . S
C888 C889 1.390 . S
C889 C888 1.390 . S
C889 C890 1.394 . S
C889 C895 1.465 . S
C890 C885 1.399 . S
C890 C889 1.394 . S
C890 C891 1.516 . S
C891 C890 1.516 . S
C891 C892 1.502 . S
C891 C893 1.561 . S
C891 C894 1.526 . S
C892 H876 0.959 . S
C892 H877 0.959 . S
C892 H878 0.961 . S
C892 C891 1.502 . S
C893 H879 0.960 . S
C893 H880 0.961 . S
C893 H881 0.959 . S
C893 C891 1.561 . S
C894 C891 1.526 . S
C894 C895 1.396 . S
C894 C899 1.390 . S
C895 C889 1.465 . S
C895 C894 1.396 . S
C895 C896 1.399 . S
C896 H882 0.929 . S
C896 C895 1.399 . S
C896 C897 1.385 . S
C897 H883 0.931 . S
C897 C896 1.385 . S
C897 C898 1.389 . S
C898 C897 1.389 . S
C898 C899 1.387 . S
C899 H884 0.930 . S
C899 C894 1.390 . S
C899 C898 1.387 . S
H900 C912 0.930 . S
H901 C914 0.930 . S
H902 C915 0.930 . S
H903 C919 0.959 . S
H904 C919 0.959 . S
H905 C919 0.961 . S
H906 C920 0.960 . S
H907 C920 0.961 . S
H908 C920 0.959 . S
H909 C923 0.929 . S
H910 C924 0.931 . S
H911 C926 0.930 . S
C912 H900 0.930 . S
C912 C913 1.399 1_556 S
C912 C917 1.399 . S
C913 C912 1.399 1_554 S
C913 C914 1.376 . S
C914 H901 0.930 . S
C914 C913 1.376 . S
C914 C915 1.388 . S
C915 H902 0.930 . S
C915 C914 1.388 . S
C915 C916 1.390 . S
C916 C915 1.390 . S
C916 C917 1.394 1_554 S
C916 C922 1.465 . S
C917 C912 1.399 . S
C917 C916 1.394 1_556 S
C917 C918 1.516 . S
C918 C917 1.516 . S
C918 C919 1.502 . S
C918 C920 1.561 . S
C918 C921 1.526 . S
C919 H903 0.959 . S
C919 H904 0.959 . S
C919 H905 0.961 . S
C919 C918 1.502 . S
C920 H906 0.960 . S
C920 H907 0.961 . S
C920 H908 0.959 . S
C920 C918 1.561 . S
C921 C918 1.526 . S
C921 C922 1.396 1_556 S
C921 C926 1.390 . S
C922 C916 1.465 . S
C922 C921 1.396 1_554 S
C922 C923 1.399 . S
C923 H909 0.929 . S
C923 C922 1.399 . S
C923 C924 1.385 . S
C924 H910 0.931 . S
C924 C923 1.385 . S
C924 C925 1.389 . S
C925 C924 1.389 . S
C925 C926 1.387 1_554 S
C926 H911 0.930 . S
C926 C921 1.390 . S
C926 C925 1.387 1_556 S
H927 C939 0.930 . S
H928 C941 0.930 . S
H929 C942 0.930 . S
H930 C946 0.959 . S
H931 C946 0.959 . S
H932 C946 0.961 . S
H933 C947 0.960 . S
H934 C947 0.961 . S
H935 C947 0.959 . S
H936 C950 0.929 . S
H937 C951 0.931 . S
H938 C953 0.930 . S
C939 H927 0.930 . S
C939 C940 1.399 . S
C939 C944 1.399 . S
C940 C939 1.399 . S
C940 C941 1.376 1_554 S
C941 H928 0.930 . S
C941 C940 1.376 1_556 S
C941 C942 1.388 . S
C942 H929 0.930 . S
C942 C941 1.388 . S
C942 C943 1.390 . S
C943 C942 1.390 . S
C943 C944 1.394 1_556 S
C943 C949 1.465 . S
C944 C939 1.399 . S
C944 C943 1.394 1_554 S
C944 C945 1.516 . S
C945 C944 1.516 . S
C945 C946 1.502 . S
C945 C947 1.561 . S
C945 C948 1.526 . S
C946 H930 0.959 . S
C946 H931 0.959 . S
C946 H932 0.961 . S
C946 C945 1.502 . S
C947 H933 0.960 . S
C947 H934 0.961 . S
C947 H935 0.959 . S
C947 C945 1.561 . S
C948 C945 1.526 . S
C948 C949 1.396 1_554 S
C948 C953 1.390 . S
C949 C943 1.465 . S
C949 C948 1.396 1_556 S
C949 C950 1.399 . S
C950 H936 0.929 . S
C950 C949 1.399 . S
C950 C951 1.385 . S
C951 H937 0.931 . S
C951 C950 1.385 . S
C951 C952 1.389 1_556 S
C952 C951 1.389 1_554 S
C952 C953 1.387 . S
C953 H938 0.930 . S
C953 C948 1.390 . S
C953 C952 1.387 . S
H954 C966 0.930 . S
H955 C968 0.930 . S
H956 C969 0.930 . S
H957 C973 0.959 . S
H958 C973 0.959 . S
H959 C973 0.961 . S
H960 C974 0.960 . S
H961 C974 0.961 . S
H962 C974 0.959 . S
H963 C977 0.929 . S
H964 C978 0.931 . S
H965 C980 0.930 . S
C966 H954 0.930 . S
C966 C967 1.399 . S
C966 C971 1.399 . S
C967 C966 1.399 . S
C967 C968 1.376 1_554 S
C968 H955 0.930 . S
C968 C967 1.376 1_556 S
C968 C969 1.388 . S
C969 H956 0.930 . S
C969 C968 1.388 . S
C969 C970 1.390 1_556 S
C970 C969 1.390 1_554 S
C970 C971 1.394 . S
C970 C976 1.465 . S
C971 C966 1.399 . S
C971 C970 1.394 . S
C971 C972 1.516 . S
C972 C971 1.516 . S
C972 C973 1.502 . S
C972 C974 1.561 . S
C972 C975 1.526 . S
C973 H957 0.959 . S
C973 H958 0.959 . S
C973 H959 0.961 . S
C973 C972 1.502 . S
C974 H960 0.960 . S
C974 H961 0.961 . S
C974 H962 0.959 . S
C974 C972 1.561 . S
C975 C972 1.526 . S
C975 C976 1.392 . S
C975 C980 1.390 . S
C976 C970 1.465 . S
C976 C975 1.392 . S
C976 C977 1.402 1_554 S
C977 H963 0.929 . S
C977 C976 1.402 1_556 S
C977 C978 1.385 . S
C978 H964 0.931 . S
C978 C977 1.385 . S
C978 C979 1.389 1_556 S
C979 C978 1.389 1_554 S
C979 C980 1.387 . S
C980 H965 0.930 . S
C980 C975 1.390 . S
C980 C979 1.387 . S
H981 C993 0.930 . S
H982 C995 0.930 . S
H983 C996 0.930 . S
H984 C1000 0.959 . S
H985 C1000 0.959 . S
H986 C1000 0.961 . S
H987 C1001 0.960 . S
H988 C1001 0.961 . S
H989 C1001 0.959 1_554 S
H990 C1004 0.929 . S
H991 C1005 0.931 . S
H992 C1007 0.930 . S
C993 H981 0.930 . S
C993 C994 1.399 1_556 S
C993 C998 1.399 . S
C994 C993 1.399 1_554 S
C994 C995 1.376 . S
C995 H982 0.930 . S
C995 C994 1.376 . S
C995 C996 1.388 . S
C996 H983 0.930 . S
C996 C995 1.388 . S
C996 C997 1.390 . S
C997 C996 1.390 . S
C997 C998 1.394 1_554 S
C997 C1003 1.465 . S
C998 C993 1.399 . S
C998 C997 1.394 1_556 S
C998 C999 1.516 . S
C999 C998 1.516 . S
C999 C1000 1.502 . S
C999 C1001 1.561 . S
C999 C1002 1.526 . S
C1000 H984 0.959 . S
C1000 H985 0.959 . S
C1000 H986 0.961 . S
C1000 C999 1.502 . S
C1001 H987 0.960 . S
C1001 H988 0.961 . S
C1001 H989 0.959 1_556 S
C1001 C999 1.561 . S
C1002 C999 1.526 . S
C1002 C1003 1.396 1_556 S
C1002 C1007 1.390 . S
C1003 C997 1.465 . S
C1003 C1002 1.396 1_554 S
C1003 C1004 1.399 . S
C1004 H990 0.929 . S
C1004 C1003 1.399 . S
C1004 C1005 1.385 . S
C1005 H991 0.931 . S
C1005 C1004 1.385 . S
C1005 C1006 1.389 . S
C1006 C1005 1.389 . S
C1006 C1007 1.387 1_554 S
C1007 H992 0.930 . S
C1007 C1002 1.390 . S
C1007 C1006 1.387 1_556 S
H1008 C1020 0.930 . S
H1009 C1022 0.930 . S
H1010 C1023 0.930 . S
H1011 C1027 0.959 . S
H1012 C1027 0.959 . S
H1013 C1027 0.961 . S
H1014 C1028 0.960 . S
H1015 C1028 0.961 . S
H1016 C1028 0.959 . S
H1017 C1031 0.929 . S
H1018 C1032 0.936 . S
H1019 C1034 0.930 . S
C1020 H1008 0.930 . S
C1020 C1021 1.393 1_455 S
C1020 C1025 1.399 . S
C1021 C1020 1.393 1_655 S
C1021 C1022 1.384 . S
C1022 H1009 0.930 . S
C1022 C1021 1.384 . S
C1022 C1023 1.388 . S
C1023 H1010 0.930 . S
C1023 C1022 1.388 . S
C1023 C1024 1.390 . S
C1024 C1023 1.390 . S
C1024 C1025 1.394 1_655 S
C1024 C1030 1.465 . S
C1025 C1020 1.399 . S
C1025 C1024 1.394 1_455 S
C1025 C1026 1.516 . S
C1026 C1025 1.516 . S
C1026 C1027 1.502 . S
C1026 C1028 1.561 1_455 S
C1026 C1029 1.526 . S
C1027 H1011 0.959 . S
C1027 H1012 0.959 . S
C1027 H1013 0.961 . S
C1027 C1026 1.502 . S
C1028 H1014 0.960 . S
C1028 H1015 0.961 . S
C1028 H1016 0.959 . S
C1028 C1026 1.561 1_655 S
C1029 C1026 1.526 . S
C1029 C1030 1.397 1_455 S
C1029 C1034 1.390 . S
C1030 C1024 1.465 . S
C1030 C1029 1.397 1_655 S
C1030 C1031 1.398 . S
C1031 H1017 0.929 . S
C1031 C1030 1.398 . S
C1031 C1032 1.390 . S
C1032 H1018 0.936 . S
C1032 C1031 1.390 . S
C1032 C1033 1.381 1_655 S
C1033 C1032 1.381 1_455 S
C1033 C1034 1.387 . S
C1034 H1019 0.930 . S
C1034 C1029 1.390 . S
C1034 C1033 1.387 . S
H1035 C1047 0.930 . S
H1036 C1049 0.930 . S
H1037 C1050 0.930 . S
H1038 C1054 0.959 . S
H1039 C1054 0.959 . S
H1040 C1054 0.961 . S
H1041 C1055 0.960 . S
H1042 C1055 0.961 . S
H1043 C1055 0.959 . S
H1044 C1058 0.929 . S
H1045 C1059 0.931 . S
H1046 C1061 0.930 . S
C1047 H1035 0.930 . S
C1047 C1048 1.399 . S
C1047 C1052 1.399 . S
C1048 C1047 1.399 . S
C1048 C1049 1.376 1_545 S
C1049 H1036 0.930 . S
C1049 C1048 1.376 1_565 S
C1049 C1050 1.388 . S
C1050 H1037 0.930 . S
C1050 C1049 1.388 . S
C1050 C1051 1.390 . S
C1051 C1050 1.390 . S
C1051 C1052 1.394 1_565 S
C1051 C1057 1.464 1_565 S
C1052 C1047 1.399 . S
C1052 C1051 1.394 1_545 S
C1052 C1053 1.516 . S
C1053 C1052 1.516 . S
C1053 C1054 1.502 . S
C1053 C1055 1.561 . S
C1053 C1056 1.526 . S
C1054 H1038 0.959 . S
C1054 H1039 0.959 . S
C1054 H1040 0.961 . S
C1054 C1053 1.502 . S
C1055 H1041 0.960 . S
C1055 H1042 0.961 . S
C1055 H1043 0.959 . S
C1055 C1053 1.561 . S
C1056 C1053 1.526 . S
C1056 C1057 1.409 . S
C1056 C1061 1.390 . S
C1057 C1051 1.464 1_545 S
C1057 C1056 1.409 . S
C1057 C1058 1.389 1_545 S
C1058 H1044 0.929 . S
C1058 C1057 1.389 1_565 S
C1058 C1059 1.385 . S
C1059 H1045 0.931 . S
C1059 C1058 1.385 . S
C1059 C1060 1.389 1_565 S
C1060 C1059 1.389 1_545 S
C1060 C1061 1.387 . S
C1061 H1046 0.930 . S
C1061 C1056 1.390 . S
C1061 C1060 1.387 . S
H1062 C1074 0.930 1_655 S
H1063 C1076 0.930 . S
H1064 C1077 0.930 . S
H1065 C1081 0.959 1_455 S
H1066 C1081 0.959 . S
H1067 C1081 0.961 . S
H1068 C1082 0.960 . S
H1069 C1082 0.961 . S
H1070 C1082 0.959 . S
H1071 C1085 0.929 . S
H1072 C1086 0.931 . S
H1073 C1088 0.930 1_655 S
C1074 H1062 0.930 1_455 S
C1074 C1075 1.399 . S
C1074 C1079 1.399 . S
C1075 C1074 1.399 . S
C1075 C1076 1.376 . S
C1076 H1063 0.930 . S
C1076 C1075 1.376 . S
C1076 C1077 1.388 . S
C1077 H1064 0.930 . S
C1077 C1076 1.388 . S
C1077 C1078 1.390 . S
C1078 C1077 1.390 . S
C1078 C1079 1.394 . S
C1078 C1084 1.465 . S
C1079 C1074 1.399 . S
C1079 C1078 1.394 . S
C1079 C1080 1.516 1_455 S
C1080 C1079 1.516 1_655 S
C1080 C1081 1.502 . S
C1080 C1082 1.561 . S
C1080 C1083 1.526 1_655 S
C1081 H1065 0.959 1_655 S
C1081 H1066 0.959 . S
C1081 H1067 0.961 . S
C1081 C1080 1.502 . S
C1082 H1068 0.960 . S
C1082 H1069 0.961 . S
C1082 H1070 0.959 . S
C1082 C1080 1.561 . S
C1083 C1080 1.526 1_455 S
C1083 C1084 1.396 . S
C1083 C1088 1.390 . S
C1084 C1078 1.465 . S
C1084 C1083 1.396 . S
C1084 C1085 1.399 . S
C1085 H1071 0.929 . S
C1085 C1084 1.399 . S
C1085 C1086 1.385 . S
C1086 H1072 0.931 . S
C1086 C1085 1.385 . S
C1086 C1087 1.389 . S
C1087 C1086 1.389 . S
C1087 C1088 1.387 . S
C1088 H1073 0.930 1_455 S
C1088 C1083 1.390 . S
C1088 C1087 1.387 . S
H1089 C1101 0.930 1_565 S
H1090 C1103 0.930 . S
H1091 C1104 0.930 . S
H1092 C1108 0.959 . S
H1093 C1108 0.959 . S
H1094 C1108 0.961 . S
H1095 C1109 0.960 . S
H1096 C1109 0.961 . S
H1097 C1109 0.959 . S
H1098 C1112 0.929 . S
H1099 C1113 0.931 . S
H1100 C1115 0.930 1_565 S
C1101 H1089 0.930 1_545 S
C1101 C1102 1.399 . S
C1101 C1106 1.399 . S
C1102 C1101 1.399 . S
C1102 C1103 1.376 . S
C1103 H1090 0.930 . S
C1103 C1102 1.376 . S
C1103 C1104 1.388 . S
C1104 H1091 0.930 . S
C1104 C1103 1.388 . S
C1104 C1105 1.390 . S
C1105 C1104 1.390 . S
C1105 C1106 1.394 . S
C1105 C1111 1.465 . S
C1106 C1101 1.399 . S
C1106 C1105 1.394 . S
C1106 C1107 1.516 1_545 S
C1107 C1106 1.516 1_565 S
C1107 C1108 1.502 . S
C1107 C1109 1.561 . S
C1107 C1110 1.526 1_565 S
C1108 H1092 0.959 . S
C1108 H1093 0.959 . S
C1108 H1094 0.961 . S
C1108 C1107 1.502 . S
C1109 H1095 0.960 . S
C1109 H1096 0.961 . S
C1109 H1097 0.959 . S
C1109 C1107 1.561 . S
C1110 C1107 1.526 1_545 S
C1110 C1111 1.396 . S
C1110 C1115 1.390 . S
C1111 C1105 1.465 . S
C1111 C1110 1.396 . S
C1111 C1112 1.399 . S
C1112 H1098 0.929 . S
C1112 C1111 1.399 . S
C1112 C1113 1.385 . S
C1113 H1099 0.931 . S
C1113 C1112 1.385 . S
C1113 C1114 1.389 . S
C1114 C1113 1.389 . S
C1114 C1115 1.387 . S
C1115 H1100 0.930 1_545 S
C1115 C1110 1.390 . S
C1115 C1114 1.387 . S
H1116 C1128 0.930 . S
H1117 C1130 0.930 . S
H1118 C1131 0.930 . S
H1119 C1135 0.959 . S
H1120 C1135 0.959 . S
H1121 C1135 0.961 . S
H1122 C1136 0.960 . S
H1123 C1136 0.961 . S
H1124 C1136 0.959 . S
H1125 C1139 0.929 . S
H1126 C1140 0.931 . S
H1127 C1142 0.930 . S
C1128 H1116 0.930 . S
C1128 C1129 1.399 . S
C1128 C1133 1.399 . S
C1129 C1128 1.399 . S
C1129 C1130 1.376 . S
C1130 H1117 0.930 . S
C1130 C1129 1.376 . S
C1130 C1131 1.388 . S
C1131 H1118 0.930 . S
C1131 C1130 1.388 . S
C1131 C1132 1.390 . S
C1132 C1131 1.390 . S
C1132 C1133 1.394 . S
C1132 C1138 1.465 . S
C1133 C1128 1.399 . S
C1133 C1132 1.394 . S
C1133 C1134 1.516 . S
C1134 C1133 1.516 . S
C1134 C1135 1.502 1_455 S
C1134 C1136 1.561 . S
C1134 C1137 1.526 . S
C1135 H1119 0.959 . S
C1135 H1120 0.959 . S
C1135 H1121 0.961 . S
C1135 C1134 1.502 1_655 S
C1136 H1122 0.960 . S
C1136 H1123 0.961 . S
C1136 H1124 0.959 . S
C1136 C1134 1.561 . S
C1137 C1134 1.526 . S
C1137 C1138 1.396 . S
C1137 C1142 1.390 . S
C1138 C1132 1.465 . S
C1138 C1137 1.396 . S
C1138 C1139 1.399 . S
C1139 H1125 0.929 . S
C1139 C1138 1.399 . S
C1139 C1140 1.385 . S
C1140 H1126 0.931 . S
C1140 C1139 1.385 . S
C1140 C1141 1.389 . S
C1141 C1140 1.389 . S
C1141 C1142 1.387 . S
C1142 H1127 0.930 . S
C1142 C1137 1.390 . S
C1142 C1141 1.387 . S
H1143 C1155 0.930 . S
H1144 C1157 0.930 1_565 S
H1145 C1158 0.910 1_565 S
H1146 C1162 0.959 . S
H1147 C1162 0.959 . S
H1148 C1162 0.961 . S
H1149 C1163 0.960 . S
H1150 C1163 0.961 . S
H1151 C1163 0.959 . S
H1152 C1166 0.929 . S
H1153 C1167 0.931 . S
H1154 C1169 0.930 . S
C1155 H1143 0.930 . S
C1155 C1156 1.399 . S
C1155 C1160 1.399 . S
C1156 C1155 1.399 . S
C1156 C1157 1.376 . S
C1157 H1144 0.930 1_545 S
C1157 C1156 1.376 . S
C1157 C1158 1.395 . S
C1158 H1145 0.910 1_545 S
C1158 C1157 1.395 . S
C1158 C1159 1.404 . S
C1159 C1158 1.404 . S
C1159 C1160 1.394 . S
C1159 C1165 1.465 . S
C1160 C1155 1.399 . S
C1160 C1159 1.394 . S
C1160 C1161 1.516 . S
C1161 C1160 1.516 . S
C1161 C1162 1.502 . S
C1161 C1163 1.561 . S
C1161 C1164 1.526 . S
C1162 H1146 0.959 . S
C1162 H1147 0.959 . S
C1162 H1148 0.961 . S
C1162 C1161 1.502 . S
C1163 H1149 0.960 . S
C1163 H1150 0.961 . S
C1163 H1151 0.959 . S
C1163 C1161 1.561 . S
C1164 C1161 1.526 . S
C1164 C1165 1.396 . S
C1164 C1169 1.390 . S
C1165 C1159 1.465 . S
C1165 C1164 1.396 . S
C1165 C1166 1.399 1_545 S
C1166 H1152 0.929 . S
C1166 C1165 1.399 1_565 S
C1166 C1167 1.385 . S
C1167 H1153 0.931 . S
C1167 C1166 1.385 . S
C1167 C1168 1.389 1_565 S
C1168 C1167 1.389 1_545 S
C1168 C1169 1.387 . S
C1169 H1154 0.930 . S
C1169 C1164 1.390 . S
C1169 C1168 1.387 . S
H1170 C1182 0.930 . S
H1171 C1184 0.930 . S
H1172 C1185 0.933 . S
H1173 C1189 0.959 . S
H1174 C1189 0.959 . S
H1175 C1189 0.961 . S
H1176 C1190 0.960 . S
H1177 C1190 0.961 . S
H1178 C1190 0.959 1_655 S
H1179 C1193 0.929 . S
H1180 C1194 0.931 . S
H1181 C1196 0.930 . S
C1182 H1170 0.930 . S
C1182 C1183 1.399 . S
C1182 C1187 1.399 . S
C1183 C1182 1.399 . S
C1183 C1184 1.376 . S
C1184 H1171 0.930 . S
C1184 C1183 1.376 . S
C1184 C1185 1.388 . S
C1185 H1172 0.933 . S
C1185 C1184 1.388 . S
C1185 C1186 1.390 . S
C1186 C1185 1.390 . S
C1186 C1187 1.394 . S
C1186 C1192 1.465 . S
C1187 C1182 1.399 . S
C1187 C1186 1.394 . S
C1187 C1188 1.516 . S
C1188 C1187 1.516 . S
C1188 C1189 1.502 . S
C1188 C1190 1.561 . S
C1188 C1191 1.526 . S
C1189 H1173 0.959 . S
C1189 H1174 0.959 . S
C1189 H1175 0.961 . S
C1189 C1188 1.502 . S
C1190 H1176 0.960 . S
C1190 H1177 0.961 . S
C1190 H1178 0.959 1_455 S
C1190 C1188 1.561 . S
C1191 C1188 1.526 . S
C1191 C1192 1.396 . S
C1191 C1196 1.390 . S
C1192 C1186 1.465 . S
C1192 C1191 1.396 . S
C1192 C1193 1.399 . S
C1193 H1179 0.929 . S
C1193 C1192 1.399 . S
C1193 C1194 1.385 . S
C1194 H1180 0.931 . S
C1194 C1193 1.385 . S
C1194 C1195 1.389 . S
C1195 C1194 1.389 . S
C1195 C1196 1.387 . S
C1196 H1181 0.930 . S
C1196 C1191 1.390 . S
C1196 C1195 1.387 . S
H1197 C1209 0.930 . S
H1198 C1211 0.930 . S
H1199 C1212 0.930 . S
H1200 C1216 0.959 . S
H1201 C1216 0.959 . S
H1202 C1216 0.961 . S
H1203 C1217 0.960 . S
H1204 C1217 0.961 . S
H1205 C1217 0.959 . S
H1206 C1220 0.929 . S
H1207 C1221 0.931 . S
H1208 C1223 0.930 . S
C1209 H1197 0.930 . S
C1209 C1210 1.398 1_545 S
C1209 C1214 1.399 . S
C1210 C1209 1.398 1_565 S
C1210 C1211 1.378 . S
C1211 H1198 0.930 . S
C1211 C1210 1.378 . S
C1211 C1212 1.388 . S
C1212 H1199 0.930 . S
C1212 C1211 1.388 . S
C1212 C1213 1.390 . S
C1213 C1212 1.390 . S
C1213 C1214 1.394 1_565 S
C1213 C1219 1.465 . S
C1214 C1209 1.399 . S
C1214 C1213 1.394 1_545 S
C1214 C1215 1.516 . S
C1215 C1214 1.516 . S
C1215 C1216 1.502 . S
C1215 C1217 1.561 . S
C1215 C1218 1.526 . S
C1216 H1200 0.959 . S
C1216 H1201 0.959 . S
C1216 H1202 0.961 . S
C1216 C1215 1.502 . S
C1217 H1203 0.960 . S
C1217 H1204 0.961 . S
C1217 H1205 0.959 . S
C1217 C1215 1.561 . S
C1218 C1215 1.526 . S
C1218 C1219 1.396 1_545 S
C1218 C1223 1.390 . S
C1219 C1213 1.465 . S
C1219 C1218 1.396 1_565 S
C1219 C1220 1.399 . S
C1220 H1206 0.929 . S
C1220 C1219 1.399 . S
C1220 C1221 1.385 . S
C1221 H1207 0.931 . S
C1221 C1220 1.385 . S
C1221 C1222 1.389 1_565 S
C1222 C1221 1.389 1_545 S
C1222 C1223 1.387 . S
C1223 H1208 0.930 . S
C1223 C1218 1.390 . S
C1223 C1222 1.387 . S
H1224 C1236 0.930 . S
H1225 C1238 0.930 . S
H1226 C1239 0.930 . S
H1227 C1243 0.959 1_655 S
H1228 C1243 0.959 . S
H1229 C1243 0.961 . S
H1230 C1244 0.960 . S
H1231 C1244 0.961 . S
H1232 C1244 0.959 . S
H1233 C1247 0.929 . S
H1234 C1248 0.931 . S
H1235 C1250 0.930 . S
C1236 H1224 0.930 . S
C1236 C1237 1.399 . S
C1236 C1241 1.399 . S
C1237 C1236 1.399 . S
C1237 C1238 1.376 . S
C1238 H1225 0.930 . S
C1238 C1237 1.376 . S
C1238 C1239 1.388 . S
C1239 H1226 0.930 . S
C1239 C1238 1.388 . S
C1239 C1240 1.390 . S
C1240 C1239 1.390 . S
C1240 C1241 1.394 . S
C1240 C1246 1.465 . S
C1241 C1236 1.399 . S
C1241 C1240 1.394 . S
C1241 C1242 1.516 . S
C1242 C1241 1.516 . S
C1242 C1243 1.502 . S
C1242 C1244 1.561 . S
C1242 C1245 1.526 . S
C1243 H1227 0.959 1_455 S
C1243 H1228 0.959 . S
C1243 H1229 0.961 . S
C1243 C1242 1.502 . S
C1244 H1230 0.960 . S
C1244 H1231 0.961 . S
C1244 H1232 0.959 . S
C1244 C1242 1.561 . S
C1245 C1242 1.526 . S
C1245 C1246 1.396 . S
C1245 C1250 1.390 . S
C1246 C1240 1.465 . S
C1246 C1245 1.396 . S
C1246 C1247 1.399 . S
C1247 H1233 0.929 . S
C1247 C1246 1.399 . S
C1247 C1248 1.385 . S
C1248 H1234 0.931 . S
C1248 C1247 1.385 . S
C1248 C1249 1.389 . S
C1249 C1248 1.389 . S
C1249 C1250 1.387 . S
C1250 H1235 0.930 . S
C1250 C1245 1.390 . S
C1250 C1249 1.387 . S
H1251 C1263 0.930 . S
H1252 C1265 0.930 1_565 S
H1253 C1266 0.930 1_565 S
H1254 C1270 0.959 . S
H1255 C1270 0.959 . S
H1256 C1270 0.961 . S
H1257 C1271 0.960 . S
H1258 C1271 0.961 . S
H1259 C1271 0.959 . S
H1260 C1274 0.929 . S
H1261 C1275 0.931 . S
H1262 C1277 0.930 . S
C1263 H1251 0.930 . S
C1263 C1264 1.399 . S
C1263 C1268 1.399 . S
C1264 C1263 1.399 . S
C1264 C1265 1.376 . S
C1265 H1252 0.930 1_545 S
C1265 C1264 1.376 . S
C1265 C1266 1.388 . S
C1266 H1253 0.930 1_545 S
C1266 C1265 1.388 . S
C1266 C1267 1.390 . S
C1267 C1266 1.390 . S
C1267 C1268 1.394 . S
C1267 C1273 1.465 . S
C1268 C1263 1.399 . S
C1268 C1267 1.394 . S
C1268 C1269 1.516 . S
C1269 C1268 1.516 . S
C1269 C1270 1.502 . S
C1269 C1271 1.561 . S
C1269 C1272 1.526 . S
C1270 H1254 0.959 . S
C1270 H1255 0.959 . S
C1270 H1256 0.961 . S
C1270 C1269 1.502 . S
C1271 H1257 0.960 . S
C1271 H1258 0.961 . S
C1271 H1259 0.959 . S
C1271 C1269 1.561 . S
C1272 C1269 1.526 . S
C1272 C1273 1.396 . S
C1272 C1277 1.390 . S
C1273 C1267 1.465 . S
C1273 C1272 1.396 . S
C1273 C1274 1.399 1_545 S
C1274 H1260 0.929 . S
C1274 C1273 1.399 1_565 S
C1274 C1275 1.385 . S
C1275 H1261 0.931 . S
C1275 C1274 1.385 . S
C1275 C1276 1.389 1_565 S
C1276 C1275 1.389 1_545 S
C1276 C1277 1.387 . S
C1277 H1262 0.930 . S
C1277 C1272 1.390 . S
C1277 C1276 1.387 . S
H1278 C1290 0.930 . S
H1279 C1292 0.930 . S
H1280 C1293 0.930 . S
H1281 C1297 0.959 . S
H1282 C1297 0.959 . S
H1283 C1297 0.961 . S
H1284 C1298 0.960 . S
H1285 C1298 0.961 . S
H1286 C1298 0.941 1_655 S
H1287 C1301 0.929 . S
H1288 C1302 0.931 . S
H1289 C1304 0.930 . S
C1290 H1278 0.930 . S
C1290 C1291 1.399 . S
C1290 C1295 1.399 . S
C1291 C1290 1.399 . S
C1291 C1292 1.376 . S
C1292 H1279 0.930 . S
C1292 C1291 1.376 . S
C1292 C1293 1.388 . S
C1293 H1280 0.930 . S
C1293 C1292 1.388 . S
C1293 C1294 1.390 . S
C1294 C1293 1.390 . S
C1294 C1295 1.394 . S
C1294 C1300 1.465 . S
C1295 C1290 1.399 . S
C1295 C1294 1.394 . S
C1295 C1296 1.516 . S
C1296 C1295 1.516 . S
C1296 C1297 1.502 . S
C1296 C1298 1.561 . S
C1296 C1299 1.526 . S
C1297 H1281 0.959 . S
C1297 H1282 0.959 . S
C1297 H1283 0.961 . S
C1297 C1296 1.502 . S
C1298 H1284 0.960 . S
C1298 H1285 0.961 . S
C1298 H1286 0.941 1_455 S
C1298 C1296 1.561 . S
C1299 C1296 1.526 . S
C1299 C1300 1.396 . S
C1299 C1304 1.390 . S
C1300 C1294 1.465 . S
C1300 C1299 1.396 . S
C1300 C1301 1.399 . S
C1301 H1287 0.929 . S
C1301 C1300 1.399 . S
C1301 C1302 1.385 . S
C1302 H1288 0.931 . S
C1302 C1301 1.385 . S
C1302 C1303 1.389 . S
C1303 C1302 1.389 . S
C1303 C1304 1.387 . S
C1304 H1289 0.930 . S
C1304 C1299 1.390 . S
C1304 C1303 1.387 . S
H1305 C1317 0.930 . S
H1306 C1319 0.930 . S
H1307 C1320 0.930 . S
H1308 C1324 0.959 . S
H1309 C1324 0.959 . S
H1310 C1324 0.961 . S
H1311 C1325 0.960 . S
H1312 C1325 0.961 . S
H1313 C1325 0.959 . S
H1314 C1328 0.929 . S
H1315 C1329 0.931 . S
H1316 C1331 0.930 . S
C1317 H1305 0.930 . S
C1317 C1318 1.401 1_545 S
C1317 C1322 1.399 . S
C1318 C1317 1.401 1_565 S
C1318 C1319 1.374 . S
C1319 H1306 0.930 . S
C1319 C1318 1.374 . S
C1319 C1320 1.388 . S
C1320 H1307 0.930 . S
C1320 C1319 1.388 . S
C1320 C1321 1.390 . S
C1321 C1320 1.390 . S
C1321 C1322 1.394 1_565 S
C1321 C1327 1.465 . S
C1322 C1317 1.399 . S
C1322 C1321 1.394 1_545 S
C1322 C1323 1.516 . S
C1323 C1322 1.516 . S
C1323 C1324 1.502 . S
C1323 C1325 1.561 . S
C1323 C1326 1.526 . S
C1324 H1308 0.959 . S
C1324 H1309 0.959 . S
C1324 H1310 0.961 . S
C1324 C1323 1.502 . S
C1325 H1311 0.960 . S
C1325 H1312 0.961 . S
C1325 H1313 0.959 . S
C1325 C1323 1.561 . S
C1326 C1323 1.526 . S
C1326 C1327 1.396 1_545 S
C1326 C1331 1.390 . S
C1327 C1321 1.465 . S
C1327 C1326 1.396 1_565 S
C1327 C1328 1.399 . S
C1328 H1314 0.929 . S
C1328 C1327 1.399 . S
C1328 C1329 1.385 . S
C1329 H1315 0.931 . S
C1329 C1328 1.385 . S
C1329 C1330 1.389 1_565 S
C1330 C1329 1.389 1_545 S
C1330 C1331 1.387 . S
C1331 H1316 0.930 . S
C1331 C1326 1.390 . S
C1331 C1330 1.387 . S
H1332 C1344 0.930 . S
H1333 C1346 0.930 . S
H1334 C1347 0.930 . S
H1335 C1351 0.959 . S
H1336 C1351 0.959 . S
H1337 C1351 0.961 . S
H1338 C1352 0.960 . S
H1339 C1352 0.961 1_455 S
H1340 C1352 0.959 . S
H1341 C1355 0.929 . S
H1342 C1356 0.936 . S
H1343 C1358 0.930 . S
C1344 H1332 0.930 . S
C1344 C1345 1.399 . S
C1344 C1349 1.399 . S
C1345 C1344 1.399 . S
C1345 C1346 1.376 1_455 S
C1346 H1333 0.930 . S
C1346 C1345 1.376 1_655 S
C1346 C1347 1.388 . S
C1347 H1334 0.930 . S
C1347 C1346 1.388 . S
C1347 C1348 1.390 1_655 S
C1348 C1347 1.390 1_455 S
C1348 C1349 1.394 . S
C1348 C1354 1.465 . S
C1349 C1344 1.399 . S
C1349 C1348 1.394 . S
C1349 C1350 1.516 . S
C1350 C1349 1.516 . S
C1350 C1351 1.502 . S
C1350 C1352 1.561 1_455 S
C1350 C1353 1.526 . S
C1351 H1335 0.959 . S
C1351 H1336 0.959 . S
C1351 H1337 0.961 . S
C1351 C1350 1.502 . S
C1352 H1338 0.960 . S
C1352 H1339 0.961 1_655 S
C1352 H1340 0.959 . S
C1352 C1350 1.561 1_655 S
C1353 C1350 1.526 . S
C1353 C1354 1.396 . S
C1353 C1358 1.390 . S
C1354 C1348 1.465 . S
C1354 C1353 1.396 . S
C1354 C1355 1.399 1_455 S
C1355 H1341 0.929 . S
C1355 C1354 1.399 1_655 S
C1355 C1356 1.385 1_655 S
C1356 H1342 0.936 . S
C1356 C1355 1.385 1_455 S
C1356 C1357 1.389 . S
C1357 C1356 1.389 . S
C1357 C1358 1.387 . S
C1358 H1343 0.930 . S
C1358 C1353 1.390 . S
C1358 C1357 1.387 . S
H1359 C1371 0.930 . S
H1360 C1373 0.930 . S
H1361 C1374 0.930 . S
H1362 C1378 0.959 . S
H1363 C1378 0.959 . S
H1364 C1378 0.961 . S
H1365 C1379 0.960 . S
H1366 C1379 0.961 . S
H1367 C1379 0.959 . S
H1368 C1382 0.929 . S
H1369 C1383 0.931 . S
H1370 C1385 0.930 . S
C1371 H1359 0.930 . S
C1371 C1372 1.399 . S
C1371 C1376 1.399 . S
C1372 C1371 1.399 . S
C1372 C1373 1.376 . S
C1373 H1360 0.930 . S
C1373 C1372 1.376 . S
C1373 C1374 1.388 . S
C1374 H1361 0.930 . S
C1374 C1373 1.388 . S
C1374 C1375 1.390 . S
C1375 C1374 1.390 . S
C1375 C1376 1.394 . S
C1375 C1381 1.465 . S
C1376 C1371 1.399 . S
C1376 C1375 1.394 . S
C1376 C1377 1.516 . S
C1377 C1376 1.516 . S
C1377 C1378 1.502 1_545 S
C1377 C1379 1.561 . S
C1377 C1380 1.526 . S
C1378 H1362 0.959 . S
C1378 H1363 0.959 . S
C1378 H1364 0.961 . S
C1378 C1377 1.502 1_565 S
C1379 H1365 0.960 . S
C1379 H1366 0.961 . S
C1379 H1367 0.959 . S
C1379 C1377 1.561 . S
C1380 C1377 1.526 . S
C1380 C1381 1.396 . S
C1380 C1385 1.390 . S
C1381 C1375 1.465 . S
C1381 C1380 1.396 . S
C1381 C1382 1.399 . S
C1382 H1368 0.929 . S
C1382 C1381 1.399 . S
C1382 C1383 1.385 . S
C1383 H1369 0.931 . S
C1383 C1382 1.385 . S
C1383 C1384 1.389 . S
C1384 C1383 1.389 . S
C1384 C1385 1.387 . S
C1385 H1370 0.930 . S
C1385 C1380 1.390 . S
C1385 C1384 1.387 . S
H1386 C1398 0.930 . S
H1387 C1400 0.930 . S
H1388 C1401 0.930 . S
H1389 C1405 0.959 . S
H1390 C1405 0.959 . S
H1391 C1405 0.961 . S
H1392 C1406 0.960 . S
H1393 C1406 0.961 . S
H1394 C1406 0.959 1_655 S
H1395 C1409 0.929 . S
H1396 C1410 0.931 . S
H1397 C1412 0.930 . S
C1398 H1386 0.930 . S
C1398 C1399 1.399 . S
C1398 C1403 1.399 . S
C1399 C1398 1.399 . S
C1399 C1400 1.376 . S
C1400 H1387 0.930 . S
C1400 C1399 1.376 . S
C1400 C1401 1.388 . S
C1401 H1388 0.930 . S
C1401 C1400 1.388 . S
C1401 C1402 1.390 . S
C1402 C1401 1.390 . S
C1402 C1403 1.394 . S
C1402 C1408 1.465 . S
C1403 C1398 1.399 . S
C1403 C1402 1.394 . S
C1403 C1404 1.516 . S
C1404 C1403 1.516 . S
C1404 C1405 1.502 . S
C1404 C1406 1.561 . S
C1404 C1407 1.526 . S
C1405 H1389 0.959 . S
C1405 H1390 0.959 . S
C1405 H1391 0.961 . S
C1405 C1404 1.502 . S
C1406 H1392 0.960 . S
C1406 H1393 0.961 . S
C1406 H1394 0.959 1_455 S
C1406 C1404 1.561 . S
C1407 C1404 1.526 . S
C1407 C1408 1.396 . S
C1407 C1412 1.390 . S
C1408 C1402 1.465 . S
C1408 C1407 1.396 . S
C1408 C1409 1.399 . S
C1409 H1395 0.929 . S
C1409 C1408 1.399 . S
C1409 C1410 1.385 . S
C1410 H1396 0.931 . S
C1410 C1409 1.385 . S
C1410 C1411 1.389 . S
C1411 C1410 1.389 . S
C1411 C1412 1.387 . S
C1412 H1397 0.930 . S
C1412 C1407 1.390 . S
C1412 C1411 1.387 . S
H1413 C1425 0.930 . S
H1414 C1427 0.930 1_565 S
H1415 C1428 0.930 . S
H1416 C1432 0.959 . S
H1417 C1432 0.959 . S
H1418 C1432 0.961 . S
H1419 C1433 0.960 . S
H1420 C1433 0.961 . S
H1421 C1433 0.959 . S
H1422 C1436 0.929 . S
H1423 C1437 0.931 . S
H1424 C1439 0.930 . S
C1425 H1413 0.930 . S
C1425 C1426 1.399 . S
C1425 C1430 1.399 . S
C1426 C1425 1.399 . S
C1426 C1427 1.376 . S
C1427 H1414 0.930 1_545 S
C1427 C1426 1.376 . S
C1427 C1428 1.388 1_545 S
C1428 H1415 0.930 . S
C1428 C1427 1.388 1_565 S
C1428 C1429 1.390 1_565 S
C1429 C1428 1.390 1_545 S
C1429 C1430 1.394 . S
C1429 C1435 1.465 . S
C1430 C1425 1.399 . S
C1430 C1429 1.394 . S
C1430 C1431 1.516 . S
C1431 C1430 1.516 . S
C1431 C1432 1.502 . S
C1431 C1433 1.561 . S
C1431 C1434 1.526 . S
C1432 H1416 0.959 . S
C1432 H1417 0.959 . S
C1432 H1418 0.961 . S
C1432 C1431 1.502 . S
C1433 H1419 0.960 . S
C1433 H1420 0.961 . S
C1433 H1421 0.959 . S
C1433 C1431 1.561 . S
C1434 C1431 1.526 . S
C1434 C1435 1.396 . S
C1434 C1439 1.390 . S
C1435 C1429 1.465 . S
C1435 C1434 1.396 . S
C1435 C1436 1.399 1_545 S
C1436 H1422 0.929 . S
C1436 C1435 1.399 1_565 S
C1436 C1437 1.385 . S
C1437 H1423 0.931 . S
C1437 C1436 1.385 . S
C1437 C1438 1.389 1_565 S
C1438 C1437 1.389 1_545 S
C1438 C1439 1.387 . S
C1439 H1424 0.930 . S
C1439 C1434 1.390 . S
C1439 C1438 1.387 . S
H1440 C1452 0.930 . S
H1441 C1454 0.930 . S
H1442 C1455 0.930 . S
H1443 C1459 0.959 . S
H1444 C1459 0.959 . S
H1445 C1459 0.961 . S
H1446 C1460 0.960 . S
H1447 C1460 0.961 . S
H1448 C1460 0.959 . S
H1449 C1463 0.929 . S
H1450 C1464 0.931 . S
H1451 C1466 0.930 . S
C1452 H1440 0.930 . S
C1452 C1453 1.399 1_565 S
C1452 C1457 1.399 . S
C1453 C1452 1.399 1_545 S
C1453 C1454 1.376 . S
C1454 H1441 0.930 . S
C1454 C1453 1.376 . S
C1454 C1455 1.388 . S
C1455 H1442 0.930 . S
C1455 C1454 1.388 . S
C1455 C1456 1.390 . S
C1456 C1455 1.390 . S
C1456 C1457 1.394 1_545 S
C1456 C1462 1.465 . S
C1457 C1452 1.399 . S
C1457 C1456 1.394 1_565 S
C1457 C1458 1.516 . S
C1458 C1457 1.516 . S
C1458 C1459 1.502 . S
C1458 C1460 1.561 . S
C1458 C1461 1.526 . S
C1459 H1443 0.959 . S
C1459 H1444 0.959 . S
C1459 H1445 0.961 . S
C1459 C1458 1.502 . S
C1460 H1446 0.960 . S
C1460 H1447 0.961 . S
C1460 H1448 0.959 . S
C1460 C1458 1.561 . S
C1461 C1458 1.526 . S
C1461 C1462 1.396 1_565 S
C1461 C1466 1.390 . S
C1462 C1456 1.465 . S
C1462 C1461 1.396 1_545 S
C1462 C1463 1.399 . S
C1463 H1449 0.929 . S
C1463 C1462 1.399 . S
C1463 C1464 1.385 . S
C1464 H1450 0.931 . S
C1464 C1463 1.385 . S
C1464 C1465 1.389 . S
C1465 C1464 1.389 . S
C1465 C1466 1.387 1_545 S
C1466 H1451 0.930 . S
C1466 C1461 1.390 . S
C1466 C1465 1.387 1_565 S
H1467 C1479 0.930 . S
H1468 C1481 0.930 . S
H1469 C1482 0.930 1_655 S
H1470 C1486 0.959 . S
H1471 C1486 0.959 . S
H1472 C1486 0.961 . S
H1473 C1487 0.960 . S
H1474 C1487 0.961 . S
H1475 C1487 0.959 1_655 S
H1476 C1490 0.929 . S
H1477 C1491 0.931 . S
H1478 C1493 0.930 . S
C1479 H1467 0.930 . S
C1479 C1480 1.399 . S
C1479 C1484 1.399 . S
C1480 C1479 1.399 . S
C1480 C1481 1.376 . S
C1481 H1468 0.930 . S
C1481 C1480 1.376 . S
C1481 C1482 1.388 . S
C1482 H1469 0.930 1_455 S
C1482 C1481 1.388 . S
C1482 C1483 1.390 . S
C1483 C1482 1.390 . S
C1483 C1484 1.394 . S
C1483 C1489 1.465 . S
C1484 C1479 1.399 . S
C1484 C1483 1.394 . S
C1484 C1485 1.516 . S
C1485 C1484 1.516 . S
C1485 C1486 1.502 . S
C1485 C1487 1.561 . S
C1485 C1488 1.526 . S
C1486 H1470 0.959 . S
C1486 H1471 0.959 . S
C1486 H1472 0.961 . S
C1486 C1485 1.502 . S
C1487 H1473 0.960 . S
C1487 H1474 0.961 . S
C1487 H1475 0.959 1_455 S
C1487 C1485 1.561 . S
C1488 C1485 1.526 . S
C1488 C1489 1.396 . S
C1488 C1493 1.390 . S
C1489 C1483 1.465 . S
C1489 C1488 1.396 . S
C1489 C1490 1.399 1_455 S
C1490 H1476 0.929 . S
C1490 C1489 1.399 1_655 S
C1490 C1491 1.385 . S
C1491 H1477 0.931 . S
C1491 C1490 1.385 . S
C1491 C1492 1.389 1_655 S
C1492 C1491 1.389 1_455 S
C1492 C1493 1.387 . S
C1493 H1478 0.930 . S
C1493 C1488 1.390 . S
C1493 C1492 1.387 . S
H1494 C1506 0.930 . S
H1495 C1508 0.930 . S
H1496 C1509 0.930 . S
H1497 C1513 0.959 1_545 S
H1498 C1513 0.959 . S
H1499 C1513 0.961 . S
H1500 C1514 0.960 . S
H1501 C1514 0.961 . S
H1502 C1514 0.959 . S
H1503 C1517 0.929 . S
H1504 C1518 0.931 . S
H1505 C1520 0.930 1_565 S
C1506 H1494 0.930 . S
C1506 C1507 1.399 . S
C1506 C1511 1.399 . S
C1507 C1506 1.399 . S
C1507 C1508 1.376 . S
C1508 H1495 0.930 . S
C1508 C1507 1.376 . S
C1508 C1509 1.388 . S
C1509 H1496 0.930 . S
C1509 C1508 1.388 . S
C1509 C1510 1.390 . S
C1510 C1509 1.390 . S
C1510 C1511 1.394 . S
C1510 C1516 1.465 . S
C1511 C1506 1.399 . S
C1511 C1510 1.394 . S
C1511 C1512 1.516 . S
C1512 C1511 1.516 . S
C1512 C1513 1.502 1_545 S
C1512 C1514 1.561 1_545 S
C1512 C1515 1.526 . S
C1513 H1497 0.959 1_565 S
C1513 H1498 0.959 . S
C1513 H1499 0.961 . S
C1513 C1512 1.502 1_565 S
C1514 H1500 0.960 . S
C1514 H1501 0.961 . S
C1514 H1502 0.959 . S
C1514 C1512 1.561 1_565 S
C1515 C1512 1.526 . S
C1515 C1516 1.396 . S
C1515 C1520 1.390 . S
C1516 C1510 1.465 . S
C1516 C1515 1.396 . S
C1516 C1517 1.399 . S
C1517 H1503 0.929 . S
C1517 C1516 1.399 . S
C1517 C1518 1.385 . S
C1518 H1504 0.931 . S
C1518 C1517 1.385 . S
C1518 C1519 1.389 . S
C1519 C1518 1.389 . S
C1519 C1520 1.387 . S
C1520 H1505 0.930 1_545 S
C1520 C1515 1.390 . S
C1520 C1519 1.387 . S
H1521 C1533 0.930 . S
H1522 C1535 0.930 . S
H1523 C1536 0.930 . S
H1524 C1540 0.959 . S
H1525 C1540 0.959 . S
H1526 C1540 0.961 . S
H1527 C1541 0.960 . S
H1528 C1541 0.961 . S
H1529 C1541 0.959 . S
H1530 C1544 0.929 . S
H1531 C1545 0.931 . S
H1532 C1547 0.930 . S
C1533 H1521 0.930 . S
C1533 C1534 1.399 . S
C1533 C1538 1.399 . S
C1534 C1533 1.399 . S
C1534 C1535 1.376 1_455 S
C1535 H1522 0.930 . S
C1535 C1534 1.376 1_655 S
C1535 C1536 1.388 . S
C1536 H1523 0.930 . S
C1536 C1535 1.388 . S
C1536 C1537 1.390 . S
C1537 C1536 1.390 . S
C1537 C1538 1.394 1_655 S
C1537 C1543 1.465 . S
C1538 C1533 1.399 . S
C1538 C1537 1.394 1_455 S
C1538 C1539 1.516 . S
C1539 C1538 1.516 . S
C1539 C1540 1.502 . S
C1539 C1541 1.561 . S
C1539 C1542 1.526 . S
C1540 H1524 0.959 . S
C1540 H1525 0.959 . S
C1540 H1526 0.961 . S
C1540 C1539 1.502 . S
C1541 H1527 0.960 . S
C1541 H1528 0.961 . S
C1541 H1529 0.959 . S
C1541 C1539 1.561 . S
C1542 C1539 1.526 . S
C1542 C1543 1.396 1_455 S
C1542 C1547 1.390 . S
C1543 C1537 1.465 . S
C1543 C1542 1.396 1_655 S
C1543 C1544 1.399 . S
C1544 H1530 0.929 . S
C1544 C1543 1.399 . S
C1544 C1545 1.385 . S
C1545 H1531 0.931 . S
C1545 C1544 1.385 . S
C1545 C1546 1.387 1_655 S
C1546 C1545 1.387 1_455 S
C1546 C1547 1.389 . S
C1547 H1532 0.930 . S
C1547 C1542 1.390 . S
C1547 C1546 1.389 . S
H1548 C1560 0.930 . S
H1549 C1562 0.930 . S
H1550 C1563 0.930 . S
H1551 C1567 0.959 . S
H1552 C1567 0.959 . S
H1553 C1567 0.961 . S
H1554 C1568 0.960 . S
H1555 C1568 0.961 . S
H1556 C1568 0.959 . S
H1557 C1571 0.929 . S
H1558 C1572 0.931 . S
H1559 C1574 0.930 . S
C1560 H1548 0.930 . S
C1560 C1561 1.399 . S
C1560 C1565 1.399 . S
C1561 C1560 1.399 . S
C1561 C1562 1.376 1_545 S
C1562 H1549 0.930 . S
C1562 C1561 1.376 1_565 S
C1562 C1563 1.388 . S
C1563 H1550 0.930 . S
C1563 C1562 1.388 . S
C1563 C1564 1.380 1_565 S
C1564 C1563 1.380 1_545 S
C1564 C1565 1.405 . S
C1564 C1570 1.466 . S
C1565 C1560 1.399 . S
C1565 C1564 1.405 . S
C1565 C1566 1.516 . S
C1566 C1565 1.516 . S
C1566 C1567 1.502 . S
C1566 C1568 1.561 . S
C1566 C1569 1.526 . S
C1567 H1551 0.959 . S
C1567 H1552 0.959 . S
C1567 H1553 0.961 . S
C1567 C1566 1.502 . S
C1568 H1554 0.960 . S
C1568 H1555 0.961 . S
C1568 H1556 0.959 . S
C1568 C1566 1.561 . S
C1569 C1566 1.526 . S
C1569 C1570 1.396 . S
C1569 C1574 1.390 . S
C1570 C1564 1.466 . S
C1570 C1569 1.396 . S
C1570 C1571 1.399 1_545 S
C1571 H1557 0.929 . S
C1571 C1570 1.399 1_565 S
C1571 C1572 1.385 . S
C1572 H1558 0.931 . S
C1572 C1571 1.385 . S
C1572 C1573 1.389 1_565 S
C1573 C1572 1.389 1_545 S
C1573 C1574 1.387 . S
C1574 H1559 0.930 . S
C1574 C1569 1.390 . S
C1574 C1573 1.387 . S
H1575 C1587 0.930 . S
H1576 C1589 0.930 1_655 S
H1577 C1590 0.930 1_655 S
H1578 C1594 0.959 . S
H1579 C1594 0.959 . S
H1580 C1594 0.961 . S
H1581 C1595 0.960 . S
H1582 C1595 0.961 . S
H1583 C1595 0.959 1_655 S
H1584 C1598 0.929 1_655 S
H1585 C1599 0.931 . S
H1586 C1601 0.930 . S
C1587 H1575 0.930 . S
C1587 C1588 1.399 . S
C1587 C1592 1.399 . S
C1588 C1587 1.399 . S
C1588 C1589 1.376 . S
C1589 H1576 0.930 1_455 S
C1589 C1588 1.376 . S
C1589 C1590 1.388 . S
C1590 H1577 0.930 1_455 S
C1590 C1589 1.388 . S
C1590 C1591 1.390 . S
C1591 C1590 1.390 . S
C1591 C1592 1.394 . S
C1591 C1597 1.465 . S
C1592 C1587 1.399 . S
C1592 C1591 1.394 . S
C1592 C1593 1.516 . S
C1593 C1592 1.516 . S
C1593 C1594 1.502 . S
C1593 C1595 1.561 . S
C1593 C1596 1.526 . S
C1594 H1578 0.959 . S
C1594 H1579 0.959 . S
C1594 H1580 0.961 . S
C1594 C1593 1.502 . S
C1595 H1581 0.960 . S
C1595 H1582 0.961 . S
C1595 H1583 0.959 1_455 S
C1595 C1593 1.561 . S
C1596 C1593 1.526 . S
C1596 C1597 1.396 . S
C1596 C1601 1.390 . S
C1597 C1591 1.465 . S
C1597 C1596 1.396 . S
C1597 C1598 1.399 . S
C1598 H1584 0.929 1_455 S
C1598 C1597 1.399 . S
C1598 C1599 1.385 . S
C1599 H1585 0.931 . S
C1599 C1598 1.385 . S
C1599 C1600 1.389 . S
C1600 C1599 1.389 . S
C1600 C1601 1.387 . S
C1601 H1586 0.930 . S
C1601 C1596 1.390 . S
C1601 C1600 1.387 . S
H1602 C1614 0.915 1_565 S
H1603 C1616 0.930 . S
H1604 C1617 0.930 . S
H1605 C1621 0.959 1_545 S
H1606 C1621 0.959 . S
H1607 C1621 0.961 . S
H1608 C1622 0.960 . S
H1609 C1622 0.961 . S
H1610 C1622 0.959 . S
H1611 C1625 0.929 . S
H1612 C1626 0.931 . S
H1613 C1628 0.930 1_565 S
C1614 H1602 0.915 1_545 S
C1614 C1615 1.399 . S
C1614 C1619 1.399 . S
C1615 C1614 1.399 . S
C1615 C1616 1.376 . S
C1616 H1603 0.930 . S
C1616 C1615 1.376 . S
C1616 C1617 1.388 . S
C1617 H1604 0.930 . S
C1617 C1616 1.388 . S
C1617 C1618 1.390 . S
C1618 C1617 1.390 . S
C1618 C1619 1.394 . S
C1618 C1624 1.465 . S
C1619 C1614 1.399 . S
C1619 C1618 1.394 . S
C1619 C1620 1.501 1_545 S
C1620 C1619 1.501 1_565 S
C1620 C1621 1.511 . S
C1620 C1622 1.580 . S
C1620 C1623 1.512 1_565 S
C1621 H1605 0.959 1_565 S
C1621 H1606 0.959 . S
C1621 H1607 0.961 . S
C1621 C1620 1.511 . S
C1622 H1608 0.960 . S
C1622 H1609 0.961 . S
C1622 H1610 0.959 . S
C1622 C1620 1.580 . S
C1623 C1620 1.512 1_545 S
C1623 C1624 1.396 . S
C1623 C1628 1.390 . S
C1624 C1618 1.465 . S
C1624 C1623 1.396 . S
C1624 C1625 1.399 . S
C1625 H1611 0.929 . S
C1625 C1624 1.399 . S
C1625 C1626 1.385 . S
C1626 H1612 0.931 . S
C1626 C1625 1.385 . S
C1626 C1627 1.389 . S
C1627 C1626 1.389 . S
C1627 C1628 1.387 . S
C1628 H1613 0.930 1_545 S
C1628 C1623 1.390 . S
C1628 C1627 1.387 . S
H1629 C1641 0.930 . S
H1630 C1643 0.930 . S
H1631 C1644 0.930 . S
H1632 C1648 0.959 . S
H1633 C1648 0.959 . S
H1634 C1648 0.961 . S
H1635 C1649 0.960 . S
H1636 C1649 0.961 . S
H1637 C1649 0.959 1_655 S
H1638 C1652 0.929 . S
H1639 C1653 0.931 . S
H1640 C1655 0.930 . S
C1641 H1629 0.930 . S
C1641 C1642 1.399 1_455 S
C1641 C1646 1.399 . S
C1642 C1641 1.399 1_655 S
C1642 C1643 1.376 . S
C1643 H1630 0.930 . S
C1643 C1642 1.376 . S
C1643 C1644 1.388 . S
C1644 H1631 0.930 . S
C1644 C1643 1.388 . S
C1644 C1645 1.390 . S
C1645 C1644 1.390 . S
C1645 C1646 1.394 1_655 S
C1645 C1651 1.465 . S
C1646 C1641 1.399 . S
C1646 C1645 1.394 1_455 S
C1646 C1647 1.516 . S
C1647 C1646 1.516 . S
C1647 C1648 1.502 . S
C1647 C1649 1.561 . S
C1647 C1650 1.526 . S
C1648 H1632 0.959 . S
C1648 H1633 0.959 . S
C1648 H1634 0.961 . S
C1648 C1647 1.502 . S
C1649 H1635 0.960 . S
C1649 H1636 0.961 . S
C1649 H1637 0.959 1_455 S
C1649 C1647 1.561 . S
C1650 C1647 1.526 . S
C1650 C1651 1.396 1_455 S
C1650 C1655 1.390 . S
C1651 C1645 1.465 . S
C1651 C1650 1.396 1_655 S
C1651 C1652 1.399 . S
C1652 H1638 0.929 . S
C1652 C1651 1.399 . S
C1652 C1653 1.385 . S
C1653 H1639 0.931 . S
C1653 C1652 1.385 . S
C1653 C1654 1.389 1_655 S
C1654 C1653 1.389 1_455 S
C1654 C1655 1.387 . S
C1655 H1640 0.930 . S
C1655 C1650 1.390 . S
C1655 C1654 1.387 . S
H1656 C1668 0.930 . S
H1657 C1670 0.930 . S
H1658 C1671 0.930 . S
H1659 C1675 0.959 . S
H1660 C1675 0.959 . S
H1661 C1675 0.961 . S
H1662 C1676 0.960 . S
H1663 C1676 0.961 . S
H1664 C1676 0.959 . S
H1665 C1679 0.929 . S
H1666 C1680 0.931 . S
H1667 C1682 0.930 . S
C1668 H1656 0.930 . S
C1668 C1669 1.399 1_556 S
C1668 C1673 1.393 1_556 S
C1669 C1668 1.399 1_554 S
C1669 C1670 1.376 . S
C1670 H1657 0.930 . S
C1670 C1669 1.376 . S
C1670 C1671 1.388 . S
C1671 H1658 0.930 . S
C1671 C1670 1.388 . S
C1671 C1672 1.390 . S
C1672 C1671 1.390 . S
C1672 C1673 1.430 . S
C1672 C1678 1.465 . S
C1673 C1668 1.393 1_554 S
C1673 C1672 1.430 . S
C1673 C1674 1.491 1_554 S
C1674 C1673 1.491 1_556 S
C1674 C1675 1.502 . S
C1674 C1676 1.561 . S
C1674 C1677 1.522 1_556 S
C1675 H1659 0.959 . S
C1675 H1660 0.959 . S
C1675 H1661 0.961 . S
C1675 C1674 1.502 . S
C1676 H1662 0.960 . S
C1676 H1663 0.961 . S
C1676 H1664 0.959 . S
C1676 C1674 1.561 . S
C1677 C1674 1.522 1_554 S
C1677 C1678 1.401 . S
C1677 C1682 1.388 1_554 S
C1678 C1672 1.465 . S
C1678 C1677 1.401 . S
C1678 C1679 1.399 . S
C1679 H1665 0.929 . S
C1679 C1678 1.399 . S
C1679 C1680 1.385 . S
C1680 H1666 0.931 . S
C1680 C1679 1.385 . S
C1680 C1681 1.389 . S
C1681 C1680 1.389 . S
C1681 C1682 1.387 1_554 S
C1682 H1667 0.930 . S
C1682 C1677 1.388 1_556 S
C1682 C1681 1.387 1_556 S
H1683 C1695 0.930 . S
H1684 C1697 0.930 1_556 S
H1685 C1698 0.929 1_556 S
H1686 C1702 0.959 1_556 S
H1687 C1702 0.959 . S
H1688 C1702 0.961 . S
H1689 C1703 0.960 . S
H1690 C1703 0.961 . S
H1691 C1703 0.959 . S
H1692 C1706 0.929 . S
H1693 C1707 0.945 . S
H1694 C1709 0.930 . S
C1695 H1683 0.930 . S
C1695 C1696 1.399 . S
C1695 C1700 1.399 . S
C1696 C1695 1.399 . S
C1696 C1697 1.376 . S
C1697 H1684 0.930 1_554 S
C1697 C1696 1.376 . S
C1697 C1698 1.389 . S
C1698 H1685 0.929 1_554 S
C1698 C1697 1.389 . S
C1698 C1699 1.391 . S
C1699 C1698 1.391 . S
C1699 C1700 1.394 . S
C1699 C1705 1.465 . S
C1700 C1695 1.399 . S
C1700 C1699 1.394 . S
C1700 C1701 1.516 . S
C1701 C1700 1.516 . S
C1701 C1702 1.502 . S
C1701 C1703 1.561 . S
C1701 C1704 1.526 . S
C1702 H1686 0.959 1_554 S
C1702 H1687 0.959 . S
C1702 H1688 0.961 . S
C1702 C1701 1.502 . S
C1703 H1689 0.960 . S
C1703 H1690 0.961 . S
C1703 H1691 0.959 . S
C1703 C1701 1.561 . S
C1704 C1701 1.526 . S
C1704 C1705 1.396 . S
C1704 C1709 1.390 . S
C1705 C1699 1.465 . S
C1705 C1704 1.396 . S
C1705 C1706 1.399 1_554 S
C1706 H1692 0.929 . S
C1706 C1705 1.399 1_556 S
C1706 C1707 1.387 . S
C1707 H1693 0.945 . S
C1707 C1706 1.387 . S
C1707 C1708 1.376 1_556 S
C1708 C1707 1.376 1_554 S
C1708 C1709 1.387 . S
C1709 H1694 0.930 . S
C1709 C1704 1.390 . S
C1709 C1708 1.387 . S
H1710 C1722 0.930 . S
H1711 C1724 0.930 . S
H1712 C1725 0.930 . S
H1713 C1729 0.959 . S
H1714 C1729 0.959 . S
H1715 C1729 0.961 . S
H1716 C1730 0.960 . S
H1717 C1730 0.961 . S
H1718 C1730 0.959 . S
H1719 C1733 0.929 . S
H1720 C1734 0.931 . S
H1721 C1736 0.930 . S
C1722 H1710 0.930 . S
C1722 C1723 1.399 . S
C1722 C1727 1.399 . S
C1723 C1722 1.399 . S
C1723 C1724 1.376 1_554 S
C1724 H1711 0.930 . S
C1724 C1723 1.376 1_556 S
C1724 C1725 1.388 . S
C1725 H1712 0.930 . S
C1725 C1724 1.388 . S
C1725 C1726 1.390 1_556 S
C1726 C1725 1.390 1_554 S
C1726 C1727 1.394 . S
C1726 C1732 1.465 . S
C1727 C1722 1.399 . S
C1727 C1726 1.394 . S
C1727 C1728 1.516 . S
C1728 C1727 1.516 . S
C1728 C1729 1.502 . S
C1728 C1730 1.561 . S
C1728 C1731 1.526 . S
C1729 H1713 0.959 . S
C1729 H1714 0.959 . S
C1729 H1715 0.961 . S
C1729 C1728 1.502 . S
C1730 H1716 0.960 . S
C1730 H1717 0.961 . S
C1730 H1718 0.959 . S
C1730 C1728 1.561 . S
C1731 C1728 1.526 . S
C1731 C1732 1.396 . S
C1731 C1736 1.390 . S
C1732 C1726 1.465 . S
C1732 C1731 1.396 . S
C1732 C1733 1.399 1_554 S
C1733 H1719 0.929 . S
C1733 C1732 1.399 1_556 S
C1733 C1734 1.385 . S
C1734 H1720 0.931 . S
C1734 C1733 1.385 . S
C1734 C1735 1.389 1_556 S
C1735 C1734 1.389 1_554 S
C1735 C1736 1.387 . S
C1736 H1721 0.930 . S
C1736 C1731 1.390 . S
C1736 C1735 1.387 . S
H1737 C1749 0.930 . S
H1738 C1751 0.930 . S
H1739 C1752 0.930 . S
H1740 C1756 0.959 1_556 S
H1741 C1756 0.959 . S
H1742 C1756 0.961 . S
H1743 C1757 0.960 . S
H1744 C1757 0.961 . S
H1745 C1757 0.959 . S
H1746 C1760 0.929 . S
H1747 C1761 0.931 . S
H1748 C1763 0.930 . S
C1749 H1737 0.930 . S
C1749 C1750 1.399 1_554 S
C1749 C1754 1.399 . S
C1750 C1749 1.399 1_556 S
C1750 C1751 1.376 . S
C1751 H1738 0.930 . S
C1751 C1750 1.376 . S
C1751 C1752 1.388 . S
C1752 H1739 0.930 . S
C1752 C1751 1.388 . S
C1752 C1753 1.390 . S
C1753 C1752 1.390 . S
C1753 C1754 1.394 1_556 S
C1753 C1759 1.465 . S
C1754 C1749 1.399 . S
C1754 C1753 1.394 1_554 S
C1754 C1755 1.516 . S
C1755 C1754 1.516 . S
C1755 C1756 1.502 . S
C1755 C1757 1.561 . S
C1755 C1758 1.526 . S
C1756 H1740 0.959 1_554 S
C1756 H1741 0.959 . S
C1756 H1742 0.961 . S
C1756 C1755 1.502 . S
C1757 H1743 0.960 . S
C1757 H1744 0.961 . S
C1757 H1745 0.959 . S
C1757 C1755 1.561 . S
C1758 C1755 1.526 . S
C1758 C1759 1.396 1_554 S
C1758 C1763 1.390 . S
C1759 C1753 1.465 . S
C1759 C1758 1.396 1_556 S
C1759 C1760 1.399 . S
C1760 H1746 0.929 . S
C1760 C1759 1.399 . S
C1760 C1761 1.385 . S
C1761 H1747 0.931 . S
C1761 C1760 1.385 . S
C1761 C1762 1.389 . S
C1762 C1761 1.389 . S
C1762 C1763 1.387 1_556 S
C1763 H1748 0.930 . S
C1763 C1758 1.390 . S
C1763 C1762 1.387 1_554 S
H1764 C1776 0.930 . S
H1765 C1778 0.930 . S
H1766 C1779 0.930 . S
H1767 C1783 0.959 . S
H1768 C1783 0.959 . S
H1769 C1783 0.961 . S
H1770 C1784 0.960 . S
H1771 C1784 0.961 . S
H1772 C1784 0.959 . S
H1773 C1787 0.929 . S
H1774 C1788 0.931 . S
H1775 C1790 0.930 . S
C1776 H1764 0.930 . S
C1776 C1777 1.411 . S
C1776 C1781 1.399 . S
C1777 C1776 1.411 . S
C1777 C1778 1.363 1_554 S
C1778 H1765 0.930 . S
C1778 C1777 1.363 1_556 S
C1778 C1779 1.388 . S
C1779 H1766 0.930 . S
C1779 C1778 1.388 . S
C1779 C1780 1.390 . S
C1780 C1779 1.390 . S
C1780 C1781 1.394 1_556 S
C1780 C1786 1.465 . S
C1781 C1776 1.399 . S
C1781 C1780 1.394 1_554 S
C1781 C1782 1.516 . S
C1782 C1781 1.516 . S
C1782 C1783 1.502 . S
C1782 C1784 1.561 . S
C1782 C1785 1.526 . S
C1783 H1767 0.959 . S
C1783 H1768 0.959 . S
C1783 H1769 0.961 . S
C1783 C1782 1.502 . S
C1784 H1770 0.960 . S
C1784 H1771 0.961 . S
C1784 H1772 0.959 . S
C1784 C1782 1.561 . S
C1785 C1782 1.526 . S
C1785 C1786 1.396 1_554 S
C1785 C1790 1.390 . S
C1786 C1780 1.465 . S
C1786 C1785 1.396 1_556 S
C1786 C1787 1.399 . S
C1787 H1773 0.929 . S
C1787 C1786 1.399 . S
C1787 C1788 1.385 . S
C1788 H1774 0.931 . S
C1788 C1787 1.385 . S
C1788 C1789 1.389 1_556 S
C1789 C1788 1.389 1_554 S
C1789 C1790 1.387 . S
C1790 H1775 0.930 . S
C1790 C1785 1.390 . S
C1790 C1789 1.387 . S
H1791 C1803 0.930 . S
H1792 C1805 0.930 . S
H1793 C1806 0.930 . S
H1794 C1810 0.959 . S
H1795 C1810 0.959 . S
H1796 C1810 0.961 . S
H1797 C1811 0.960 . S
H1798 C1811 0.961 . S
H1799 C1811 0.959 . S
H1800 C1814 0.929 . S
H1801 C1815 0.931 . S
H1802 C1817 0.930 . S
C1803 H1791 0.930 . S
C1803 C1804 1.399 . S
C1803 C1808 1.399 . S
C1804 C1803 1.399 . S
C1804 C1805 1.376 1_554 S
C1805 H1792 0.930 . S
C1805 C1804 1.376 1_556 S
C1805 C1806 1.388 . S
C1806 H1793 0.930 . S
C1806 C1805 1.388 . S
C1806 C1807 1.388 1_556 S
C1807 C1806 1.388 1_554 S
C1807 C1808 1.396 . S
C1807 C1813 1.464 1_554 S
C1808 C1803 1.399 . S
C1808 C1807 1.396 . S
C1808 C1809 1.516 . S
C1809 C1808 1.516 . S
C1809 C1810 1.502 1_554 S
C1809 C1811 1.561 . S
C1809 C1812 1.526 . S
C1810 H1794 0.959 . S
C1810 H1795 0.959 . S
C1810 H1796 0.961 . S
C1810 C1809 1.502 1_556 S
C1811 H1797 0.960 . S
C1811 H1798 0.961 . S
C1811 H1799 0.959 . S
C1811 C1809 1.561 . S
C1812 C1809 1.526 . S
C1812 C1813 1.393 1_554 S
C1812 C1817 1.390 . S
C1813 C1807 1.464 1_556 S
C1813 C1812 1.393 1_556 S
C1813 C1814 1.403 . S
C1814 H1800 0.929 . S
C1814 C1813 1.403 . S
C1814 C1815 1.385 . S
C1815 H1801 0.931 . S
C1815 C1814 1.385 . S
C1815 C1816 1.389 . S
C1816 C1815 1.389 . S
C1816 C1817 1.387 1_556 S
C1817 H1802 0.930 . S
C1817 C1812 1.390 . S
C1817 C1816 1.387 1_554 S
H1818 C1830 0.930 . S
H1819 C1832 0.930 . S
H1820 C1833 0.930 . S
H1821 C1837 0.959 . S
H1822 C1837 0.959 . S
H1823 C1837 0.961 . S
H1824 C1838 0.960 . S
H1825 C1838 0.961 . S
H1826 C1838 0.959 . S
H1827 C1841 0.929 . S
H1828 C1842 0.931 . S
H1829 C1844 0.930 . S
C1830 H1818 0.930 . S
C1830 C1831 1.399 . S
C1830 C1835 1.399 . S
C1831 C1830 1.399 . S
C1831 C1832 1.376 1_554 S
C1832 H1819 0.930 . S
C1832 C1831 1.376 1_556 S
C1832 C1833 1.388 . S
C1833 H1820 0.930 . S
C1833 C1832 1.388 . S
C1833 C1834 1.390 1_556 S
C1834 C1833 1.390 1_554 S
C1834 C1835 1.394 . S
C1834 C1840 1.466 . S
C1835 C1830 1.399 . S
C1835 C1834 1.394 . S
C1835 C1836 1.516 . S
C1836 C1835 1.516 . S
C1836 C1837 1.502 . S
C1836 C1838 1.561 . S
C1836 C1839 1.526 . S
C1837 H1821 0.959 . S
C1837 H1822 0.959 . S
C1837 H1823 0.961 . S
C1837 C1836 1.502 . S
C1838 H1824 0.960 . S
C1838 H1825 0.961 . S
C1838 H1826 0.959 . S
C1838 C1836 1.561 . S
C1839 C1836 1.526 . S
C1839 C1840 1.420 . S
C1839 C1844 1.390 . S
C1840 C1834 1.466 . S
C1840 C1839 1.420 . S
C1840 C1841 1.379 1_554 S
C1841 H1827 0.929 . S
C1841 C1840 1.379 1_556 S
C1841 C1842 1.385 . S
C1842 H1828 0.931 . S
C1842 C1841 1.385 . S
C1842 C1843 1.389 1_556 S
C1843 C1842 1.389 1_554 S
C1843 C1844 1.387 . S
C1844 H1829 0.930 . S
C1844 C1839 1.390 . S
C1844 C1843 1.387 . S
H1845 C1857 0.930 . S
H1846 C1859 0.930 . S
H1847 C1860 0.930 . S
H1848 C1864 0.959 . S
H1849 C1864 0.959 . S
H1850 C1864 0.961 . S
H1851 C1865 0.960 . S
H1852 C1865 0.961 . S
H1853 C1865 0.959 . S
H1854 C1868 0.929 . S
H1855 C1869 0.931 . S
H1856 C1871 0.930 . S
C1857 H1845 0.930 . S
C1857 C1858 1.399 1_556 S
C1857 C1862 1.399 . S
C1858 C1857 1.399 1_554 S
C1858 C1859 1.376 . S
C1859 H1846 0.930 . S
C1859 C1858 1.376 . S
C1859 C1860 1.388 . S
C1860 H1847 0.930 . S
C1860 C1859 1.388 . S
C1860 C1861 1.390 . S
C1861 C1860 1.390 . S
C1861 C1862 1.394 1_554 S
C1861 C1867 1.465 . S
C1862 C1857 1.399 . S
C1862 C1861 1.394 1_556 S
C1862 C1863 1.516 . S
C1863 C1862 1.516 . S
C1863 C1864 1.502 . S
C1863 C1865 1.561 . S
C1863 C1866 1.526 . S
C1864 H1848 0.959 . S
C1864 H1849 0.959 . S
C1864 H1850 0.961 . S
C1864 C1863 1.502 . S
C1865 H1851 0.960 . S
C1865 H1852 0.961 . S
C1865 H1853 0.959 . S
C1865 C1863 1.561 . S
C1866 C1863 1.526 . S
C1866 C1867 1.396 1_556 S
C1866 C1871 1.390 . S
C1867 C1861 1.465 . S
C1867 C1866 1.396 1_554 S
C1867 C1868 1.399 . S
C1868 H1854 0.929 . S
C1868 C1867 1.399 . S
C1868 C1869 1.385 . S
C1869 H1855 0.931 . S
C1869 C1868 1.385 . S
C1869 C1870 1.389 . S
C1870 C1869 1.389 . S
C1870 C1871 1.387 1_554 S
C1871 H1856 0.930 . S
C1871 C1866 1.390 . S
C1871 C1870 1.387 1_556 S
H1872 C1884 0.930 . S
H1873 C1886 0.930 . S
H1874 C1887 0.930 . S
H1875 C1891 0.959 . S
H1876 C1891 0.959 . S
H1877 C1891 0.961 . S
H1878 C1892 0.960 . S
H1879 C1892 0.961 . S
H1880 C1892 0.959 . S
H1881 C1895 0.929 . S
H1882 C1896 0.931 . S
H1883 C1898 0.930 . S
C1884 H1872 0.930 . S
C1884 C1885 1.399 . S
C1884 C1889 1.399 . S
C1885 C1884 1.399 . S
C1885 C1886 1.376 . S
C1886 H1873 0.930 . S
C1886 C1885 1.376 . S
C1886 C1887 1.388 . S
C1887 H1874 0.930 . S
C1887 C1886 1.388 . S
C1887 C1888 1.390 . S
C1888 C1887 1.390 . S
C1888 C1889 1.394 . S
C1888 C1894 1.465 . S
C1889 C1884 1.399 . S
C1889 C1888 1.394 . S
C1889 C1890 1.516 . S
C1890 C1889 1.516 . S
C1890 C1891 1.502 . S
C1890 C1892 1.561 . S
C1890 C1893 1.526 . S
C1891 H1875 0.959 . S
C1891 H1876 0.959 . S
C1891 H1877 0.961 . S
C1891 C1890 1.502 . S
C1892 H1878 0.960 . S
C1892 H1879 0.961 . S
C1892 H1880 0.959 . S
C1892 C1890 1.561 . S
C1893 C1890 1.526 . S
C1893 C1894 1.396 . S
C1893 C1898 1.390 . S
C1894 C1888 1.465 . S
C1894 C1893 1.396 . S
C1894 C1895 1.399 . S
C1895 H1881 0.929 . S
C1895 C1894 1.399 . S
C1895 C1896 1.385 . S
C1896 H1882 0.931 . S
C1896 C1895 1.385 . S
C1896 C1897 1.389 . S
C1897 C1896 1.389 . S
C1897 C1898 1.387 . S
C1898 H1883 0.930 . S
C1898 C1893 1.390 . S
C1898 C1897 1.387 . S
H1899 C1911 0.930 . S
H1900 C1913 0.930 . S
H1901 C1914 0.930 . S
H1902 C1918 0.959 . S
H1903 C1918 0.959 . S
H1904 C1918 0.961 . S
H1905 C1919 0.960 . S
H1906 C1919 0.961 . S
H1907 C1919 0.959 . S
H1908 C1922 0.929 . S
H1909 C1923 0.931 . S
H1910 C1925 0.930 . S
C1911 H1899 0.930 . S
C1911 C1912 1.399 . S
C1911 C1916 1.399 . S
C1912 C1911 1.399 . S
C1912 C1913 1.376 . S
C1913 H1900 0.930 . S
C1913 C1912 1.376 . S
C1913 C1914 1.388 . S
C1914 H1901 0.930 . S
C1914 C1913 1.388 . S
C1914 C1915 1.390 . S
C1915 C1914 1.390 . S
C1915 C1916 1.394 . S
C1915 C1921 1.465 . S
C1916 C1911 1.399 . S
C1916 C1915 1.394 . S
C1916 C1917 1.516 . S
C1917 C1916 1.516 . S
C1917 C1918 1.502 . S
C1917 C1919 1.561 . S
C1917 C1920 1.526 . S
C1918 H1902 0.959 . S
C1918 H1903 0.959 . S
C1918 H1904 0.961 . S
C1918 C1917 1.502 . S
C1919 H1905 0.960 . S
C1919 H1906 0.961 . S
C1919 H1907 0.959 . S
C1919 C1917 1.561 . S
C1920 C1917 1.526 . S
C1920 C1921 1.396 . S
C1920 C1925 1.390 . S
C1921 C1915 1.465 . S
C1921 C1920 1.396 . S
C1921 C1922 1.399 . S
C1922 H1908 0.929 . S
C1922 C1921 1.399 . S
C1922 C1923 1.385 . S
C1923 H1909 0.931 . S
C1923 C1922 1.385 . S
C1923 C1924 1.389 . S
C1924 C1923 1.389 . S
C1924 C1925 1.387 . S
C1925 H1910 0.930 . S
C1925 C1920 1.390 . S
C1925 C1924 1.387 . S
H1926 C1938 0.930 . S
H1927 C1940 0.930 . S
H1928 C1941 0.930 . S
H1929 C1945 0.959 . S
H1930 C1945 0.959 . S
H1931 C1945 0.961 . S
H1932 C1946 0.960 . S
H1933 C1946 0.961 . S
H1934 C1946 0.959 . S
H1935 C1949 0.929 . S
H1936 C1950 0.931 . S
H1937 C1952 0.930 . S
C1938 H1926 0.930 . S
C1938 C1939 1.399 . S
C1938 C1943 1.399 . S
C1939 C1938 1.399 . S
C1939 C1940 1.376 . S
C1940 H1927 0.930 . S
C1940 C1939 1.376 . S
C1940 C1941 1.388 . S
C1941 H1928 0.930 . S
C1941 C1940 1.388 . S
C1941 C1942 1.390 . S
C1942 C1941 1.390 . S
C1942 C1943 1.394 . S
C1942 C1948 1.465 . S
C1943 C1938 1.399 . S
C1943 C1942 1.394 . S
C1943 C1944 1.516 . S
C1944 C1943 1.516 . S
C1944 C1945 1.502 . S
C1944 C1946 1.561 . S
C1944 C1947 1.526 . S
C1945 H1929 0.959 . S
C1945 H1930 0.959 . S
C1945 H1931 0.961 . S
C1945 C1944 1.502 . S
C1946 H1932 0.960 . S
C1946 H1933 0.961 . S
C1946 H1934 0.959 . S
C1946 C1944 1.561 . S
C1947 C1944 1.526 . S
C1947 C1948 1.396 . S
C1947 C1952 1.390 . S
C1948 C1942 1.465 . S
C1948 C1947 1.396 . S
C1948 C1949 1.399 . S
C1949 H1935 0.929 . S
C1949 C1948 1.399 . S
C1949 C1950 1.385 . S
C1950 H1936 0.931 . S
C1950 C1949 1.385 . S
C1950 C1951 1.389 . S
C1951 C1950 1.389 . S
C1951 C1952 1.387 . S
C1952 H1937 0.930 . S
C1952 C1947 1.390 . S
C1952 C1951 1.387 . S
H1953 C1965 0.930 . S
H1954 C1967 0.930 . S
H1955 C1968 0.930 . S
H1956 C1972 0.959 . S
H1957 C1972 0.959 . S
H1958 C1972 0.961 . S
H1959 C1973 0.960 . S
H1960 C1973 0.961 . S
H1961 C1973 0.959 . S
H1962 C1976 0.929 . S
H1963 C1977 0.931 . S
H1964 C1979 0.930 . S
C1965 H1953 0.930 . S
C1965 C1966 1.399 . S
C1965 C1970 1.399 . S
C1966 C1965 1.399 . S
C1966 C1967 1.376 . S
C1967 H1954 0.930 . S
C1967 C1966 1.376 . S
C1967 C1968 1.388 . S
C1968 H1955 0.930 . S
C1968 C1967 1.388 . S
C1968 C1969 1.390 . S
C1969 C1968 1.390 . S
C1969 C1970 1.394 . S
C1969 C1975 1.465 . S
C1970 C1965 1.399 . S
C1970 C1969 1.394 . S
C1970 C1971 1.516 . S
C1971 C1970 1.516 . S
C1971 C1972 1.502 . S
C1971 C1973 1.561 . S
C1971 C1974 1.526 . S
C1972 H1956 0.959 . S
C1972 H1957 0.959 . S
C1972 H1958 0.961 . S
C1972 C1971 1.502 . S
C1973 H1959 0.960 . S
C1973 H1960 0.961 . S
C1973 H1961 0.959 . S
C1973 C1971 1.561 . S
C1974 C1971 1.526 . S
C1974 C1975 1.396 . S
C1974 C1979 1.390 . S
C1975 C1969 1.465 . S
C1975 C1974 1.396 . S
C1975 C1976 1.399 . S
C1976 H1962 0.929 . S
C1976 C1975 1.399 . S
C1976 C1977 1.385 . S
C1977 H1963 0.931 . S
C1977 C1976 1.385 . S
C1977 C1978 1.389 . S
C1978 C1977 1.389 . S
C1978 C1979 1.387 . S
C1979 H1964 0.930 . S
C1979 C1974 1.390 . S
C1979 C1978 1.387 . S
H1980 C1992 0.930 . S
H1981 C1994 0.930 . S
H1982 C1995 0.930 . S
H1983 C1999 0.959 . S
H1984 C1999 0.959 . S
H1985 C1999 0.961 . S
H1986 C2000 0.960 . S
H1987 C2000 0.961 . S
H1988 C2000 0.959 . S
H1989 C2003 0.929 . S
H1990 C2004 0.931 . S
H1991 C2006 0.930 . S
C1992 H1980 0.930 . S
C1992 C1993 1.399 . S
C1992 C1997 1.399 . S
C1993 C1992 1.399 . S
C1993 C1994 1.376 . S
C1994 H1981 0.930 . S
C1994 C1993 1.376 . S
C1994 C1995 1.388 . S
C1995 H1982 0.930 . S
C1995 C1994 1.388 . S
C1995 C1996 1.390 . S
C1996 C1995 1.390 . S
C1996 C1997 1.394 . S
C1996 C2002 1.465 . S
C1997 C1992 1.399 . S
C1997 C1996 1.394 . S
C1997 C1998 1.516 . S
C1998 C1997 1.516 . S
C1998 C1999 1.502 . S
C1998 C2000 1.561 . S
C1998 C2001 1.526 . S
C1999 H1983 0.959 . S
C1999 H1984 0.959 . S
C1999 H1985 0.961 . S
C1999 C1998 1.502 . S
C2000 H1986 0.960 . S
C2000 H1987 0.961 . S
C2000 H1988 0.959 . S
C2000 C1998 1.561 . S
C2001 C1998 1.526 . S
C2001 C2002 1.396 . S
C2001 C2006 1.390 . S
C2002 C1996 1.465 . S
C2002 C2001 1.396 . S
C2002 C2003 1.399 . S
C2003 H1989 0.929 . S
C2003 C2002 1.399 . S
C2003 C2004 1.385 . S
C2004 H1990 0.931 . S
C2004 C2003 1.385 . S
C2004 C2005 1.389 . S
C2005 C2004 1.389 . S
C2005 C2006 1.387 . S
C2006 H1991 0.930 . S
C2006 C2001 1.390 . S
C2006 C2005 1.387 . S
H2007 C2019 0.930 . S
H2008 C2021 0.930 . S
H2009 C2022 0.930 . S
H2010 C2026 0.959 . S
H2011 C2026 0.959 . S
H2012 C2026 0.961 . S
H2013 C2027 0.960 . S
H2014 C2027 0.961 . S
H2015 C2027 0.959 . S
H2016 C2030 0.929 . S
H2017 C2031 0.931 . S
H2018 C2033 0.930 . S
C2019 H2007 0.930 . S
C2019 C2020 1.399 . S
C2019 C2024 1.399 . S
C2020 C2019 1.399 . S
C2020 C2021 1.376 . S
C2021 H2008 0.930 . S
C2021 C2020 1.376 . S
C2021 C2022 1.388 . S
C2022 H2009 0.930 . S
C2022 C2021 1.388 . S
C2022 C2023 1.390 . S
C2023 C2022 1.390 . S
C2023 C2024 1.394 . S
C2023 C2029 1.465 . S
C2024 C2019 1.399 . S
C2024 C2023 1.394 . S
C2024 C2025 1.516 . S
C2025 C2024 1.516 . S
C2025 C2026 1.502 . S
C2025 C2027 1.561 . S
C2025 C2028 1.526 . S
C2026 H2010 0.959 . S
C2026 H2011 0.959 . S
C2026 H2012 0.961 . S
C2026 C2025 1.502 . S
C2027 H2013 0.960 . S
C2027 H2014 0.961 . S
C2027 H2015 0.959 . S
C2027 C2025 1.561 . S
C2028 C2025 1.526 . S
C2028 C2029 1.396 . S
C2028 C2033 1.390 . S
C2029 C2023 1.465 . S
C2029 C2028 1.396 . S
C2029 C2030 1.399 . S
C2030 H2016 0.929 . S
C2030 C2029 1.399 . S
C2030 C2031 1.385 . S
C2031 H2017 0.931 . S
C2031 C2030 1.385 . S
C2031 C2032 1.389 . S
C2032 C2031 1.389 . S
C2032 C2033 1.387 . S
C2033 H2018 0.930 . S
C2033 C2028 1.390 . S
C2033 C2032 1.387 . S
H2034 C2046 0.930 . S
H2035 C2048 0.930 . S
H2036 C2049 0.930 . S
H2037 C2053 0.959 . S
H2038 C2053 0.959 . S
H2039 C2053 0.961 . S
H2040 C2054 0.960 . S
H2041 C2054 0.961 . S
H2042 C2054 0.959 . S
H2043 C2057 0.929 . S
H2044 C2058 0.931 . S
H2045 C2060 0.930 . S
C2046 H2034 0.930 . S
C2046 C2047 1.399 . S
C2046 C2051 1.399 . S
C2047 C2046 1.399 . S
C2047 C2048 1.376 . S
C2048 H2035 0.930 . S
C2048 C2047 1.376 . S
C2048 C2049 1.388 . S
C2049 H2036 0.930 . S
C2049 C2048 1.388 . S
C2049 C2050 1.390 . S
C2050 C2049 1.390 . S
C2050 C2051 1.394 . S
C2050 C2056 1.465 . S
C2051 C2046 1.399 . S
C2051 C2050 1.394 . S
C2051 C2052 1.516 . S
C2052 C2051 1.516 . S
C2052 C2053 1.502 . S
C2052 C2054 1.561 . S
C2052 C2055 1.526 . S
C2053 H2037 0.959 . S
C2053 H2038 0.959 . S
C2053 H2039 0.961 . S
C2053 C2052 1.502 . S
C2054 H2040 0.960 . S
C2054 H2041 0.961 . S
C2054 H2042 0.959 . S
C2054 C2052 1.561 . S
C2055 C2052 1.526 . S
C2055 C2056 1.396 . S
C2055 C2060 1.390 . S
C2056 C2050 1.465 . S
C2056 C2055 1.396 . S
C2056 C2057 1.399 . S
C2057 H2043 0.929 . S
C2057 C2056 1.399 . S
C2057 C2058 1.385 . S
C2058 H2044 0.931 . S
C2058 C2057 1.385 . S
C2058 C2059 1.389 . S
C2059 C2058 1.389 . S
C2059 C2060 1.387 . S
C2060 H2045 0.930 . S
C2060 C2055 1.390 . S
C2060 C2059 1.387 . S
H2061 C2073 0.930 . S
H2062 C2075 0.930 . S
H2063 C2076 0.930 . S
H2064 C2080 0.959 . S
H2065 C2080 0.959 . S
H2066 C2080 0.961 . S
H2067 C2081 0.960 . S
H2068 C2081 0.961 . S
H2069 C2081 0.959 . S
H2070 C2084 0.929 . S
H2071 C2085 0.931 . S
H2072 C2087 0.930 . S
C2073 H2061 0.930 . S
C2073 C2074 1.399 . S
C2073 C2078 1.399 . S
C2074 C2073 1.399 . S
C2074 C2075 1.376 . S
C2075 H2062 0.930 . S
C2075 C2074 1.376 . S
C2075 C2076 1.388 . S
C2076 H2063 0.930 . S
C2076 C2075 1.388 . S
C2076 C2077 1.390 . S
C2077 C2076 1.390 . S
C2077 C2078 1.394 . S
C2077 C2083 1.465 . S
C2078 C2073 1.399 . S
C2078 C2077 1.394 . S
C2078 C2079 1.516 . S
C2079 C2078 1.516 . S
C2079 C2080 1.502 . S
C2079 C2081 1.561 . S
C2079 C2082 1.526 . S
C2080 H2064 0.959 . S
C2080 H2065 0.959 . S
C2080 H2066 0.961 . S
C2080 C2079 1.502 . S
C2081 H2067 0.960 . S
C2081 H2068 0.961 . S
C2081 H2069 0.959 . S
C2081 C2079 1.561 . S
C2082 C2079 1.526 . S
C2082 C2083 1.396 . S
C2082 C2087 1.390 . S
C2083 C2077 1.465 . S
C2083 C2082 1.396 . S
C2083 C2084 1.399 . S
C2084 H2070 0.929 . S
C2084 C2083 1.399 . S
C2084 C2085 1.385 . S
C2085 H2071 0.931 . S
C2085 C2084 1.385 . S
C2085 C2086 1.389 . S
C2086 C2085 1.389 . S
C2086 C2087 1.387 . S
C2087 H2072 0.930 . S
C2087 C2082 1.390 . S
C2087 C2086 1.387 . S
H2088 C2100 0.930 . S
H2089 C2102 0.930 . S
H2090 C2103 0.930 . S
H2091 C2107 0.959 . S
H2092 C2107 0.959 . S
H2093 C2107 0.961 . S
H2094 C2108 0.960 . S
H2095 C2108 0.961 . S
H2096 C2108 0.959 . S
H2097 C2111 0.929 . S
H2098 C2112 0.931 . S
H2099 C2114 0.930 . S
C2100 H2088 0.930 . S
C2100 C2101 1.399 . S
C2100 C2105 1.399 . S
C2101 C2100 1.399 . S
C2101 C2102 1.376 . S
C2102 H2089 0.930 . S
C2102 C2101 1.376 . S
C2102 C2103 1.388 . S
C2103 H2090 0.930 . S
C2103 C2102 1.388 . S
C2103 C2104 1.390 . S
C2104 C2103 1.390 . S
C2104 C2105 1.394 . S
C2104 C2110 1.465 . S
C2105 C2100 1.399 . S
C2105 C2104 1.394 . S
C2105 C2106 1.516 . S
C2106 C2105 1.516 . S
C2106 C2107 1.502 . S
C2106 C2108 1.561 . S
C2106 C2109 1.526 . S
C2107 H2091 0.959 . S
C2107 H2092 0.959 . S
C2107 H2093 0.961 . S
C2107 C2106 1.502 . S
C2108 H2094 0.960 . S
C2108 H2095 0.961 . S
C2108 H2096 0.959 . S
C2108 C2106 1.561 . S
C2109 C2106 1.526 . S
C2109 C2110 1.396 . S
C2109 C2114 1.390 . S
C2110 C2104 1.465 . S
C2110 C2109 1.396 . S
C2110 C2111 1.399 . S
C2111 H2097 0.929 . S
C2111 C2110 1.399 . S
C2111 C2112 1.385 . S
C2112 H2098 0.931 . S
C2112 C2111 1.385 . S
C2112 C2113 1.389 . S
C2113 C2112 1.389 . S
C2113 C2114 1.387 . S
C2114 H2099 0.930 . S
C2114 C2109 1.390 . S
C2114 C2113 1.387 . S
H2115 C2127 0.930 . S
H2116 C2129 0.930 . S
H2117 C2130 0.930 . S
H2118 C2134 0.959 . S
H2119 C2134 0.959 . S
H2120 C2134 0.961 . S
H2121 C2135 0.960 . S
H2122 C2135 0.961 . S
H2123 C2135 0.959 . S
H2124 C2138 0.929 . S
H2125 C2139 0.931 . S
H2126 C2141 0.930 . S
C2127 H2115 0.930 . S
C2127 C2128 1.399 . S
C2127 C2132 1.399 . S
C2128 C2127 1.399 . S
C2128 C2129 1.376 . S
C2129 H2116 0.930 . S
C2129 C2128 1.376 . S
C2129 C2130 1.388 . S
C2130 H2117 0.930 . S
C2130 C2129 1.388 . S
C2130 C2131 1.390 . S
C2131 C2130 1.390 . S
C2131 C2132 1.394 . S
C2131 C2137 1.465 . S
C2132 C2127 1.399 . S
C2132 C2131 1.394 . S
C2132 C2133 1.516 . S
C2133 C2132 1.516 . S
C2133 C2134 1.502 . S
C2133 C2135 1.561 . S
C2133 C2136 1.526 . S
C2134 H2118 0.959 . S
C2134 H2119 0.959 . S
C2134 H2120 0.961 . S
C2134 C2133 1.502 . S
C2135 H2121 0.960 . S
C2135 H2122 0.961 . S
C2135 H2123 0.959 . S
C2135 C2133 1.561 . S
C2136 C2133 1.526 . S
C2136 C2137 1.396 . S
C2136 C2141 1.390 . S
C2137 C2131 1.465 . S
C2137 C2136 1.396 . S
C2137 C2138 1.399 . S
C2138 H2124 0.929 . S
C2138 C2137 1.399 . S
C2138 C2139 1.385 . S
C2139 H2125 0.931 . S
C2139 C2138 1.385 . S
C2139 C2140 1.389 . S
C2140 C2139 1.389 . S
C2140 C2141 1.387 . S
C2141 H2126 0.930 . S
C2141 C2136 1.390 . S
C2141 C2140 1.387 . S
H2142 C2154 0.930 . S
H2143 C2156 0.930 . S
H2144 C2157 0.930 . S
H2145 C2161 0.959 . S
H2146 C2161 0.959 . S
H2147 C2161 0.961 . S
H2148 C2162 0.960 . S
H2149 C2162 0.961 . S
H2150 C2162 0.959 . S
H2151 C2165 0.929 . S
H2152 C2166 0.931 . S
H2153 C2168 0.930 . S
C2154 H2142 0.930 . S
C2154 C2155 1.399 . S
C2154 C2159 1.399 . S
C2155 C2154 1.399 . S
C2155 C2156 1.376 . S
C2156 H2143 0.930 . S
C2156 C2155 1.376 . S
C2156 C2157 1.388 . S
C2157 H2144 0.930 . S
C2157 C2156 1.388 . S
C2157 C2158 1.390 . S
C2158 C2157 1.390 . S
C2158 C2159 1.394 . S
C2158 C2164 1.465 . S
C2159 C2154 1.399 . S
C2159 C2158 1.394 . S
C2159 C2160 1.516 . S
C2160 C2159 1.516 . S
C2160 C2161 1.502 . S
C2160 C2162 1.561 . S
C2160 C2163 1.526 . S
C2161 H2145 0.959 . S
C2161 H2146 0.959 . S
C2161 H2147 0.961 . S
C2161 C2160 1.502 . S
C2162 H2148 0.960 . S
C2162 H2149 0.961 . S
C2162 H2150 0.959 . S
C2162 C2160 1.561 . S
C2163 C2160 1.526 . S
C2163 C2164 1.396 . S
C2163 C2168 1.390 . S
C2164 C2158 1.465 . S
C2164 C2163 1.396 . S
C2164 C2165 1.399 . S
C2165 H2151 0.929 . S
C2165 C2164 1.399 . S
C2165 C2166 1.385 . S
C2166 H2152 0.931 . S
C2166 C2165 1.385 . S
C2166 C2167 1.389 . S
C2167 C2166 1.389 . S
C2167 C2168 1.387 . S
C2168 H2153 0.930 . S
C2168 C2163 1.390 . S
C2168 C2167 1.387 . S
H2169 C2181 0.930 . S
H2170 C2183 0.930 . S
H2171 C2184 0.930 . S
H2172 C2188 0.959 . S
H2173 C2188 0.959 . S
H2174 C2188 0.961 . S
H2175 C2189 0.960 . S
H2176 C2189 0.961 . S
H2177 C2189 0.959 . S
H2178 C2192 0.929 . S
H2179 C2193 0.931 . S
H2180 C2195 0.930 . S
C2181 H2169 0.930 . S
C2181 C2182 1.399 . S
C2181 C2186 1.399 . S
C2182 C2181 1.399 . S
C2182 C2183 1.376 . S
C2183 H2170 0.930 . S
C2183 C2182 1.376 . S
C2183 C2184 1.388 . S
C2184 H2171 0.930 . S
C2184 C2183 1.388 . S
C2184 C2185 1.390 . S
C2185 C2184 1.390 . S
C2185 C2186 1.394 . S
C2185 C2191 1.465 . S
C2186 C2181 1.399 . S
C2186 C2185 1.394 . S
C2186 C2187 1.516 . S
C2187 C2186 1.516 . S
C2187 C2188 1.502 . S
C2187 C2189 1.561 . S
C2187 C2190 1.526 . S
C2188 H2172 0.959 . S
C2188 H2173 0.959 . S
C2188 H2174 0.961 . S
C2188 C2187 1.502 . S
C2189 H2175 0.960 . S
C2189 H2176 0.961 . S
C2189 H2177 0.959 . S
C2189 C2187 1.561 . S
C2190 C2187 1.526 . S
C2190 C2191 1.396 . S
C2190 C2195 1.390 . S
C2191 C2185 1.465 . S
C2191 C2190 1.396 . S
C2191 C2192 1.399 . S
C2192 H2178 0.929 . S
C2192 C2191 1.399 . S
C2192 C2193 1.385 . S
C2193 H2179 0.931 . S
C2193 C2192 1.385 . S
C2193 C2194 1.389 . S
C2194 C2193 1.389 . S
C2194 C2195 1.387 . S
C2195 H2180 0.930 . S
C2195 C2190 1.390 . S
C2195 C2194 1.387 . S
H2196 C2208 0.930 . S
H2197 C2210 0.930 . S
H2198 C2211 0.930 . S
H2199 C2215 0.959 . S
H2200 C2215 0.959 . S
H2201 C2215 0.961 . S
H2202 C2216 0.960 . S
H2203 C2216 0.961 . S
H2204 C2216 0.959 . S
H2205 C2219 0.929 . S
H2206 C2220 0.931 . S
H2207 C2222 0.930 . S
C2208 H2196 0.930 . S
C2208 C2209 1.399 . S
C2208 C2213 1.399 . S
C2209 C2208 1.399 . S
C2209 C2210 1.376 . S
C2210 H2197 0.930 . S
C2210 C2209 1.376 . S
C2210 C2211 1.388 . S
C2211 H2198 0.930 . S
C2211 C2210 1.388 . S
C2211 C2212 1.390 . S
C2212 C2211 1.390 . S
C2212 C2213 1.394 . S
C2212 C2218 1.465 . S
C2213 C2208 1.399 . S
C2213 C2212 1.394 . S
C2213 C2214 1.516 . S
C2214 C2213 1.516 . S
C2214 C2215 1.502 . S
C2214 C2216 1.561 . S
C2214 C2217 1.526 . S
C2215 H2199 0.959 . S
C2215 H2200 0.959 . S
C2215 H2201 0.961 . S
C2215 C2214 1.502 . S
C2216 H2202 0.960 . S
C2216 H2203 0.961 . S
C2216 H2204 0.959 . S
C2216 C2214 1.561 . S
C2217 C2214 1.526 . S
C2217 C2218 1.396 . S
C2217 C2222 1.390 . S
C2218 C2212 1.465 . S
C2218 C2217 1.396 . S
C2218 C2219 1.399 . S
C2219 H2205 0.929 . S
C2219 C2218 1.399 . S
C2219 C2220 1.385 . S
C2220 H2206 0.931 . S
C2220 C2219 1.385 . S
C2220 C2221 1.389 . S
C2221 C2220 1.389 . S
C2221 C2222 1.387 . S
C2222 H2207 0.930 . S
C2222 C2217 1.390 . S
C2222 C2221 1.387 . S
H2223 C2235 0.930 . S
H2224 C2237 0.930 . S
H2225 C2238 0.930 . S
H2226 C2242 0.959 . S
H2227 C2242 0.959 . S
H2228 C2242 0.961 . S
H2229 C2243 0.960 . S
H2230 C2243 0.961 . S
H2231 C2243 0.959 . S
H2232 C2246 0.929 . S
H2233 C2247 0.931 . S
H2234 C2249 0.930 . S
C2235 H2223 0.930 . S
C2235 C2236 1.399 . S
C2235 C2240 1.399 . S
C2236 C2235 1.399 . S
C2236 C2237 1.376 . S
C2237 H2224 0.930 . S
C2237 C2236 1.376 . S
C2237 C2238 1.388 . S
C2238 H2225 0.930 . S
C2238 C2237 1.388 . S
C2238 C2239 1.390 . S
C2239 C2238 1.390 . S
C2239 C2240 1.394 . S
C2239 C2245 1.465 . S
C2240 C2235 1.399 . S
C2240 C2239 1.394 . S
C2240 C2241 1.516 . S
C2241 C2240 1.516 . S
C2241 C2242 1.502 . S
C2241 C2243 1.561 . S
C2241 C2244 1.526 . S
C2242 H2226 0.959 . S
C2242 H2227 0.959 . S
C2242 H2228 0.961 . S
C2242 C2241 1.502 . S
C2243 H2229 0.960 . S
C2243 H2230 0.961 . S
C2243 H2231 0.959 . S
C2243 C2241 1.561 . S
C2244 C2241 1.526 . S
C2244 C2245 1.396 . S
C2244 C2249 1.390 . S
C2245 C2239 1.465 . S
C2245 C2244 1.396 . S
C2245 C2246 1.399 . S
C2246 H2232 0.929 . S
C2246 C2245 1.399 . S
C2246 C2247 1.385 . S
C2247 H2233 0.931 . S
C2247 C2246 1.385 . S
C2247 C2248 1.389 . S
C2248 C2247 1.389 . S
C2248 C2249 1.387 . S
C2249 H2234 0.930 . S
C2249 C2244 1.390 . S
C2249 C2248 1.387 . S
H2250 C2262 0.930 . S
H2251 C2264 0.930 . S
H2252 C2265 0.930 . S
H2253 C2269 0.959 . S
H2254 C2269 0.959 . S
H2255 C2269 0.961 . S
H2256 C2270 0.960 . S
H2257 C2270 0.961 . S
H2258 C2270 0.959 . S
H2259 C2273 0.929 . S
H2260 C2274 0.931 . S
H2261 C2276 0.930 . S
C2262 H2250 0.930 . S
C2262 C2263 1.399 . S
C2262 C2267 1.399 . S
C2263 C2262 1.399 . S
C2263 C2264 1.376 . S
C2264 H2251 0.930 . S
C2264 C2263 1.376 . S
C2264 C2265 1.388 . S
C2265 H2252 0.930 . S
C2265 C2264 1.388 . S
C2265 C2266 1.390 . S
C2266 C2265 1.390 . S
C2266 C2267 1.394 . S
C2266 C2272 1.465 . S
C2267 C2262 1.399 . S
C2267 C2266 1.394 . S
C2267 C2268 1.516 . S
C2268 C2267 1.516 . S
C2268 C2269 1.502 . S
C2268 C2270 1.561 . S
C2268 C2271 1.526 . S
C2269 H2253 0.959 . S
C2269 H2254 0.959 . S
C2269 H2255 0.961 . S
C2269 C2268 1.502 . S
C2270 H2256 0.960 . S
C2270 H2257 0.961 . S
C2270 H2258 0.959 . S
C2270 C2268 1.561 . S
C2271 C2268 1.526 . S
C2271 C2272 1.396 . S
C2271 C2276 1.390 . S
C2272 C2266 1.465 . S
C2272 C2271 1.396 . S
C2272 C2273 1.399 . S
C2273 H2259 0.929 . S
C2273 C2272 1.399 . S
C2273 C2274 1.385 . S
C2274 H2260 0.931 . S
C2274 C2273 1.385 . S
C2274 C2275 1.389 . S
C2275 C2274 1.389 . S
C2275 C2276 1.387 . S
C2276 H2261 0.930 . S
C2276 C2271 1.390 . S
C2276 C2275 1.387 . S
H2277 C2289 0.930 . S
H2278 C2291 0.930 . S
H2279 C2292 0.930 . S
H2280 C2296 0.959 . S
H2281 C2296 0.959 . S
H2282 C2296 0.961 . S
H2283 C2297 0.960 . S
H2284 C2297 0.961 . S
H2285 C2297 0.959 . S
H2286 C2300 0.929 . S
H2287 C2301 0.931 . S
H2288 C2303 0.930 . S
C2289 H2277 0.930 . S
C2289 C2290 1.399 . S
C2289 C2294 1.399 . S
C2290 C2289 1.399 . S
C2290 C2291 1.376 . S
C2291 H2278 0.930 . S
C2291 C2290 1.376 . S
C2291 C2292 1.388 . S
C2292 H2279 0.930 . S
C2292 C2291 1.388 . S
C2292 C2293 1.390 . S
C2293 C2292 1.390 . S
C2293 C2294 1.394 . S
C2293 C2299 1.465 . S
C2294 C2289 1.399 . S
C2294 C2293 1.394 . S
C2294 C2295 1.516 . S
C2295 C2294 1.516 . S
C2295 C2296 1.502 . S
C2295 C2297 1.561 . S
C2295 C2298 1.526 . S
C2296 H2280 0.959 . S
C2296 H2281 0.959 . S
C2296 H2282 0.961 . S
C2296 C2295 1.502 . S
C2297 H2283 0.960 . S
C2297 H2284 0.961 . S
C2297 H2285 0.959 . S
C2297 C2295 1.561 . S
C2298 C2295 1.526 . S
C2298 C2299 1.396 . S
C2298 C2303 1.390 . S
C2299 C2293 1.465 . S
C2299 C2298 1.396 . S
C2299 C2300 1.399 . S
C2300 H2286 0.929 . S
C2300 C2299 1.399 . S
C2300 C2301 1.385 . S
C2301 H2287 0.931 . S
C2301 C2300 1.385 . S
C2301 C2302 1.389 . S
C2302 C2301 1.389 . S
C2302 C2303 1.387 . S
C2303 H2288 0.930 . S
C2303 C2298 1.390 . S
C2303 C2302 1.387 . S
H2304 C2316 0.930 . S
H2305 C2318 0.930 . S
H2306 C2319 0.930 . S
H2307 C2323 0.959 . S
H2308 C2323 0.959 . S
H2309 C2323 0.961 . S
H2310 C2324 0.960 . S
H2311 C2324 0.961 . S
H2312 C2324 0.959 . S
H2313 C2327 0.929 . S
H2314 C2328 0.931 . S
H2315 C2330 0.930 . S
C2316 H2304 0.930 . S
C2316 C2317 1.399 . S
C2316 C2321 1.399 . S
C2317 C2316 1.399 . S
C2317 C2318 1.376 . S
C2318 H2305 0.930 . S
C2318 C2317 1.376 . S
C2318 C2319 1.388 . S
C2319 H2306 0.930 . S
C2319 C2318 1.388 . S
C2319 C2320 1.390 . S
C2320 C2319 1.390 . S
C2320 C2321 1.394 . S
C2320 C2326 1.465 . S
C2321 C2316 1.399 . S
C2321 C2320 1.394 . S
C2321 C2322 1.516 . S
C2322 C2321 1.516 . S
C2322 C2323 1.502 . S
C2322 C2324 1.561 . S
C2322 C2325 1.526 . S
C2323 H2307 0.959 . S
C2323 H2308 0.959 . S
C2323 H2309 0.961 . S
C2323 C2322 1.502 . S
C2324 H2310 0.960 . S
C2324 H2311 0.961 . S
C2324 H2312 0.959 . S
C2324 C2322 1.561 . S
C2325 C2322 1.526 . S
C2325 C2326 1.396 . S
C2325 C2330 1.390 . S
C2326 C2320 1.465 . S
C2326 C2325 1.396 . S
C2326 C2327 1.399 . S
C2327 H2313 0.929 . S
C2327 C2326 1.399 . S
C2327 C2328 1.385 . S
C2328 H2314 0.931 . S
C2328 C2327 1.385 . S
C2328 C2329 1.389 . S
C2329 C2328 1.389 . S
C2329 C2330 1.387 . S
C2330 H2315 0.930 . S
C2330 C2325 1.390 . S
C2330 C2329 1.387 . S
H2331 C2343 0.930 . S
H2332 C2345 0.930 . S
H2333 C2346 0.930 . S
H2334 C2350 0.959 . S
H2335 C2350 0.959 . S
H2336 C2350 0.961 . S
H2337 C2351 0.960 . S
H2338 C2351 0.961 . S
H2339 C2351 0.959 . S
H2340 C2354 0.929 . S
H2341 C2355 0.931 . S
H2342 C2357 0.930 . S
C2343 H2331 0.930 . S
C2343 C2344 1.399 . S
C2343 C2348 1.399 . S
C2344 C2343 1.399 . S
C2344 C2345 1.376 . S
C2345 H2332 0.930 . S
C2345 C2344 1.376 . S
C2345 C2346 1.388 . S
C2346 H2333 0.930 . S
C2346 C2345 1.388 . S
C2346 C2347 1.390 . S
C2347 C2346 1.390 . S
C2347 C2348 1.394 . S
C2347 C2353 1.465 . S
C2348 C2343 1.399 . S
C2348 C2347 1.394 . S
C2348 C2349 1.516 . S
C2349 C2348 1.516 . S
C2349 C2350 1.502 . S
C2349 C2351 1.561 . S
C2349 C2352 1.526 . S
C2350 H2334 0.959 . S
C2350 H2335 0.959 . S
C2350 H2336 0.961 . S
C2350 C2349 1.502 . S
C2351 H2337 0.960 . S
C2351 H2338 0.961 . S
C2351 H2339 0.959 . S
C2351 C2349 1.561 . S
C2352 C2349 1.526 . S
C2352 C2353 1.396 . S
C2352 C2357 1.390 . S
C2353 C2347 1.465 . S
C2353 C2352 1.396 . S
C2353 C2354 1.399 . S
C2354 H2340 0.929 . S
C2354 C2353 1.399 . S
C2354 C2355 1.385 . S
C2355 H2341 0.931 . S
C2355 C2354 1.385 . S
C2355 C2356 1.389 . S
C2356 C2355 1.389 . S
C2356 C2357 1.387 . S
C2357 H2342 0.930 . S
C2357 C2352 1.390 . S
C2357 C2356 1.387 . S
H2358 C2370 0.930 . S
H2359 C2372 0.930 . S
H2360 C2373 0.930 . S
H2361 C2377 0.959 . S
H2362 C2377 0.959 . S
H2363 C2377 0.961 . S
H2364 C2378 0.960 . S
H2365 C2378 0.961 . S
H2366 C2378 0.959 . S
H2367 C2381 0.929 . S
H2368 C2382 0.931 . S
H2369 C2384 0.930 . S
C2370 H2358 0.930 . S
C2370 C2371 1.399 . S
C2370 C2375 1.399 . S
C2371 C2370 1.399 . S
C2371 C2372 1.376 . S
C2372 H2359 0.930 . S
C2372 C2371 1.376 . S
C2372 C2373 1.388 . S
C2373 H2360 0.930 . S
C2373 C2372 1.388 . S
C2373 C2374 1.390 . S
C2374 C2373 1.390 . S
C2374 C2375 1.394 . S
C2374 C2380 1.465 . S
C2375 C2370 1.399 . S
C2375 C2374 1.394 . S
C2375 C2376 1.516 . S
C2376 C2375 1.516 . S
C2376 C2377 1.502 . S
C2376 C2378 1.561 . S
C2376 C2379 1.526 . S
C2377 H2361 0.959 . S
C2377 H2362 0.959 . S
C2377 H2363 0.961 . S
C2377 C2376 1.502 . S
C2378 H2364 0.960 . S
C2378 H2365 0.961 . S
C2378 H2366 0.959 . S
C2378 C2376 1.561 . S
C2379 C2376 1.526 . S
C2379 C2380 1.396 . S
C2379 C2384 1.390 . S
C2380 C2374 1.465 . S
C2380 C2379 1.396 . S
C2380 C2381 1.399 . S
C2381 H2367 0.929 . S
C2381 C2380 1.399 . S
C2381 C2382 1.385 . S
C2382 H2368 0.931 . S
C2382 C2381 1.385 . S
C2382 C2383 1.389 . S
C2383 C2382 1.389 . S
C2383 C2384 1.387 . S
C2384 H2369 0.930 . S
C2384 C2379 1.390 . S
C2384 C2383 1.387 . S
H2385 C2397 0.930 . S
H2386 C2399 0.930 . S
H2387 C2400 0.930 . S
H2388 C2404 0.959 . S
H2389 C2404 0.959 . S
H2390 C2404 0.961 . S
H2391 C2405 0.960 . S
H2392 C2405 0.961 . S
H2393 C2405 0.959 . S
H2394 C2408 0.929 . S
H2395 C2409 0.931 . S
H2396 C2411 0.930 . S
C2397 H2385 0.930 . S
C2397 C2398 1.399 . S
C2397 C2402 1.399 . S
C2398 C2397 1.399 . S
C2398 C2399 1.376 . S
C2399 H2386 0.930 . S
C2399 C2398 1.376 . S
C2399 C2400 1.388 . S
C2400 H2387 0.930 . S
C2400 C2399 1.388 . S
C2400 C2401 1.390 . S
C2401 C2400 1.390 . S
C2401 C2402 1.394 . S
C2401 C2407 1.465 . S
C2402 C2397 1.399 . S
C2402 C2401 1.394 . S
C2402 C2403 1.516 . S
C2403 C2402 1.516 . S
C2403 C2404 1.502 . S
C2403 C2405 1.561 . S
C2403 C2406 1.526 . S
C2404 H2388 0.959 . S
C2404 H2389 0.959 . S
C2404 H2390 0.961 . S
C2404 C2403 1.502 . S
C2405 H2391 0.960 . S
C2405 H2392 0.961 . S
C2405 H2393 0.959 . S
C2405 C2403 1.561 . S
C2406 C2403 1.526 . S
C2406 C2407 1.396 . S
C2406 C2411 1.390 . S
C2407 C2401 1.465 . S
C2407 C2406 1.396 . S
C2407 C2408 1.399 . S
C2408 H2394 0.929 . S
C2408 C2407 1.399 . S
C2408 C2409 1.385 . S
C2409 H2395 0.931 . S
C2409 C2408 1.385 . S
C2409 C2410 1.389 . S
C2410 C2409 1.389 . S
C2410 C2411 1.387 . S
C2411 H2396 0.930 . S
C2411 C2406 1.390 . S
C2411 C2410 1.387 . S
H2412 C2424 0.930 . S
H2413 C2426 0.930 . S
H2414 C2427 0.930 . S
H2415 C2431 0.959 . S
H2416 C2431 0.959 . S
H2417 C2431 0.961 . S
H2418 C2432 0.960 . S
H2419 C2432 0.961 . S
H2420 C2432 0.959 . S
H2421 C2435 0.929 . S
H2422 C2436 0.931 . S
H2423 C2438 0.930 . S
C2424 H2412 0.930 . S
C2424 C2425 1.399 . S
C2424 C2429 1.399 . S
C2425 C2424 1.399 . S
C2425 C2426 1.376 . S
C2426 H2413 0.930 . S
C2426 C2425 1.376 . S
C2426 C2427 1.388 . S
C2427 H2414 0.930 . S
C2427 C2426 1.388 . S
C2427 C2428 1.390 . S
C2428 C2427 1.390 . S
C2428 C2429 1.394 . S
C2428 C2434 1.465 . S
C2429 C2424 1.399 . S
C2429 C2428 1.394 . S
C2429 C2430 1.516 . S
C2430 C2429 1.516 . S
C2430 C2431 1.502 . S
C2430 C2432 1.561 . S
C2430 C2433 1.526 . S
C2431 H2415 0.959 . S
C2431 H2416 0.959 . S
C2431 H2417 0.961 . S
C2431 C2430 1.502 . S
C2432 H2418 0.960 . S
C2432 H2419 0.961 . S
C2432 H2420 0.959 . S
C2432 C2430 1.561 . S
C2433 C2430 1.526 . S
C2433 C2434 1.396 . S
C2433 C2438 1.390 . S
C2434 C2428 1.465 . S
C2434 C2433 1.396 . S
C2434 C2435 1.399 . S
C2435 H2421 0.929 . S
C2435 C2434 1.399 . S
C2435 C2436 1.385 . S
C2436 H2422 0.931 . S
C2436 C2435 1.385 . S
C2436 C2437 1.389 . S
C2437 C2436 1.389 . S
C2437 C2438 1.387 . S
C2438 H2423 0.930 . S
C2438 C2433 1.390 . S
C2438 C2437 1.387 . S
H2439 C2451 0.930 . S
H2440 C2453 0.930 . S
H2441 C2454 0.930 . S
H2442 C2458 0.959 . S
H2443 C2458 0.959 . S
H2444 C2458 0.961 . S
H2445 C2459 0.960 . S
H2446 C2459 0.961 . S
H2447 C2459 0.959 . S
H2448 C2462 0.929 . S
H2449 C2463 0.931 . S
H2450 C2465 0.930 . S
C2451 H2439 0.930 . S
C2451 C2452 1.399 . S
C2451 C2456 1.399 . S
C2452 C2451 1.399 . S
C2452 C2453 1.376 . S
C2453 H2440 0.930 . S
C2453 C2452 1.376 . S
C2453 C2454 1.388 . S
C2454 H2441 0.930 . S
C2454 C2453 1.388 . S
C2454 C2455 1.390 . S
C2455 C2454 1.390 . S
C2455 C2456 1.394 . S
C2455 C2461 1.465 . S
C2456 C2451 1.399 . S
C2456 C2455 1.394 . S
C2456 C2457 1.516 . S
C2457 C2456 1.516 . S
C2457 C2458 1.502 . S
C2457 C2459 1.561 . S
C2457 C2460 1.526 . S
C2458 H2442 0.959 . S
C2458 H2443 0.959 . S
C2458 H2444 0.961 . S
C2458 C2457 1.502 . S
C2459 H2445 0.960 . S
C2459 H2446 0.961 . S
C2459 H2447 0.959 . S
C2459 C2457 1.561 . S
C2460 C2457 1.526 . S
C2460 C2461 1.396 . S
C2460 C2465 1.390 . S
C2461 C2455 1.465 . S
C2461 C2460 1.396 . S
C2461 C2462 1.399 . S
C2462 H2448 0.929 . S
C2462 C2461 1.399 . S
C2462 C2463 1.385 . S
C2463 H2449 0.931 . S
C2463 C2462 1.385 . S
C2463 C2464 1.389 . S
C2464 C2463 1.389 . S
C2464 C2465 1.387 . S
C2465 H2450 0.930 . S
C2465 C2460 1.390 . S
C2465 C2464 1.387 . S
H2466 C2478 0.930 . S
H2467 C2480 0.930 . S
H2468 C2481 0.930 . S
H2469 C2485 0.959 . S
H2470 C2485 0.959 . S
H2471 C2485 0.961 . S
H2472 C2486 0.960 . S
H2473 C2486 0.961 . S
H2474 C2486 0.959 . S
H2475 C2489 0.929 . S
H2476 C2490 0.931 . S
H2477 C2492 0.930 . S
C2478 H2466 0.930 . S
C2478 C2479 1.399 . S
C2478 C2483 1.399 . S
C2479 C2478 1.399 . S
C2479 C2480 1.376 . S
C2480 H2467 0.930 . S
C2480 C2479 1.376 . S
C2480 C2481 1.388 . S
C2481 H2468 0.930 . S
C2481 C2480 1.388 . S
C2481 C2482 1.390 . S
C2482 C2481 1.390 . S
C2482 C2483 1.394 . S
C2482 C2488 1.465 . S
C2483 C2478 1.399 . S
C2483 C2482 1.394 . S
C2483 C2484 1.516 . S
C2484 C2483 1.516 . S
C2484 C2485 1.502 . S
C2484 C2486 1.561 . S
C2484 C2487 1.526 . S
C2485 H2469 0.959 . S
C2485 H2470 0.959 . S
C2485 H2471 0.961 . S
C2485 C2484 1.502 . S
C2486 H2472 0.960 . S
C2486 H2473 0.961 . S
C2486 H2474 0.959 . S
C2486 C2484 1.561 . S
C2487 C2484 1.526 . S
C2487 C2488 1.396 . S
C2487 C2492 1.390 . S
C2488 C2482 1.465 . S
C2488 C2487 1.396 . S
C2488 C2489 1.399 . S
C2489 H2475 0.929 . S
C2489 C2488 1.399 . S
C2489 C2490 1.385 . S
C2490 H2476 0.931 . S
C2490 C2489 1.385 . S
C2490 C2491 1.389 . S
C2491 C2490 1.389 . S
C2491 C2492 1.387 . S
C2492 H2477 0.930 . S
C2492 C2487 1.390 . S
C2492 C2491 1.387 . S
H2493 C2505 0.930 . S
H2494 C2507 0.930 . S
H2495 C2508 0.930 . S
H2496 C2512 0.959 . S
H2497 C2512 0.959 . S
H2498 C2512 0.961 . S
H2499 C2513 0.960 . S
H2500 C2513 0.961 . S
H2501 C2513 0.959 . S
H2502 C2516 0.929 . S
H2503 C2517 0.931 . S
H2504 C2519 0.930 . S
C2505 H2493 0.930 . S
C2505 C2506 1.399 . S
C2505 C2510 1.399 . S
C2506 C2505 1.399 . S
C2506 C2507 1.376 . S
C2507 H2494 0.930 . S
C2507 C2506 1.376 . S
C2507 C2508 1.388 . S
C2508 H2495 0.930 . S
C2508 C2507 1.388 . S
C2508 C2509 1.390 . S
C2509 C2508 1.390 . S
C2509 C2510 1.394 . S
C2509 C2515 1.465 . S
C2510 C2505 1.399 . S
C2510 C2509 1.394 . S
C2510 C2511 1.516 . S
C2511 C2510 1.516 . S
C2511 C2512 1.502 . S
C2511 C2513 1.561 . S
C2511 C2514 1.526 . S
C2512 H2496 0.959 . S
C2512 H2497 0.959 . S
C2512 H2498 0.961 . S
C2512 C2511 1.502 . S
C2513 H2499 0.960 . S
C2513 H2500 0.961 . S
C2513 H2501 0.959 . S
C2513 C2511 1.561 . S
C2514 C2511 1.526 . S
C2514 C2515 1.396 . S
C2514 C2519 1.390 . S
C2515 C2509 1.465 . S
C2515 C2514 1.396 . S
C2515 C2516 1.399 . S
C2516 H2502 0.929 . S
C2516 C2515 1.399 . S
C2516 C2517 1.385 . S
C2517 H2503 0.931 . S
C2517 C2516 1.385 . S
C2517 C2518 1.389 . S
C2518 C2517 1.389 . S
C2518 C2519 1.387 . S
C2519 H2504 0.930 . S
C2519 C2514 1.390 . S
C2519 C2518 1.387 . S
C601 C306 1.231 . S
C589 C258 1.256 . S
C616 C236 1.611 . S
C628 C300 1.557 . S
C655 C268 1.634 . S
C643 C225 1.739 . S
C670 C247 1.443 . S
C682 C282 1.312 . S
C709 C320 1.848 . S
C697 C181 1.982 . S
C736 C407 1.327 . S
C724 C192 1.373 . S
C751 C203 2.011 . S
C763 C334 1.928 . S
C790 C402 1.341 . S
C778 C214 1.326 . S
C805 C137 2.112 . S
C817 C358 1.969 . S
C844 C413 1.622 . S
C832 C148 1.631 . S
C859 C159 2.036 . S
C871 C352 1.992 . S
C886 C170 1.003 . S
C898 C398 1.037 . S
C925 C454 1.025 . S
C913 C126 1.033 . S
C940 C104 1.698 . S
C952 C465 1.674 . S
C967 C93 1.402 . S
C979 C450 1.407 . S
C1006 C459 1.454 . S
C994 C115 1.453 1_554 S
C1021 C49 1.548 1_655 S
C1033 C504 1.523 . S
C1048 C60 0.719 . S
C1060 C563 0.717 . S
C1075 C71 1.680 . S
C1087 C520 1.517 . S
C1102 C82 1.333 . S
C1114 C558 1.285 . S
C1141 C522 1.700 . S
C1129 C5 1.799 . S
C1168 C569 0.859 . S
C1156 C16 0.814 . S
C1183 C27 1.633 . S
C1195 C498 1.488 . S
C1222 C554 0.925 . S
C1210 C38 0.917 1_565 S
C1249 C290 1.681 . S
C1237 C4 1.666 . S
C1264 C21 1.133 . S
C1276 C294 1.252 . S
C1291 C32 1.427 . S
C1303 C314 1.468 . S
C1318 C37 1.005 1_565 S
C1330 C309 0.986 . S
C1345 C48 1.766 . S
C1357 C312 1.687 . S
C1384 C298 1.304 . S
C1372 C59 1.201 . S
C1399 C76 1.347 . S
C1411 C296 1.454 . S
C1438 C303 1.284 . S
C1426 C81 1.281 . S
C1465 C366 1.286 . S
C1453 C43 1.383 . S
C1480 C10 1.739 . S
C1492 C416 1.747 . S
C1519 C364 1.440 . S
C1507 C15 1.416 . S
C1546 C400 1.927 . S
C1534 C26 1.996 . S
C1561 C65 1.134 . S
C1573 C342 1.065 . S
C1600 C418 1.852 . S
C1588 C70 1.939 . S
C1627 C348 1.408 . S
C1615 C87 1.429 . S
C1654 C394 1.545 . S
C1642 C54 1.537 . S
C1681 C386 1.453 . S
C1669 C98 1.412 . S
C1696 C109 1.278 . S
C1708 C410 1.286 . S
C1735 C346 1.327 . S
C1723 C92 1.352 . S
C1762 C372 1.335 1_556 S
C1750 C114 1.334 . S
C1777 C131 1.005 . S
C1789 C350 0.933 . S
C1804 C125 1.316 . S
C1816 C404 1.344 1_556 S
C1843 C361 1.547 . S
C1831 C103 1.513 . S
C1870 C355 1.303 . S
C1858 C120 1.245 . S
C1897 C438 1.961 . S
C1885 C136 2.029 . S
C1924 C470 1.469 . S
C1912 C153 1.406 . S
C1939 C164 1.720 . S
C1951 C424 1.779 . S
C1978 C468 1.076 . S
C1966 C169 1.115 . S
C2005 C456 1.955 . S
C1993 C180 1.966 . S
C2020 C191 1.398 . S
C2032 C452 1.370 . S
C2047 C208 1.721 . S
C2059 C462 1.785 . S
C2086 C446 1.404 . S
C2074 C213 1.425 . S
C2113 C511 1.263 . S
C2101 C175 1.141 . S
C2128 C142 1.515 . S
C2140 C572 1.522 . S
C2167 C506 1.248 . S
C2155 C147 1.216 . S
C2194 C556 1.684 . S
C2182 C158 1.716 . S
C2221 C502 0.998 . S
C2209 C197 0.975 . S
C2236 C202 1.657 . S
C2248 C574 1.633 . S
C2275 C517 1.338 . S
C2263 C219 1.186 . S
C2302 C550 1.328 . S
C2290 C186 1.332 . S
C2329 C542 1.590 . S
C2317 C230 1.572 . S
C2344 C241 1.646 . S
C2356 C566 1.588 . S
C2383 C508 1.564 . S
C2371 C224 1.609 . S
C2398 C246 1.739 . S
C2410 C528 1.697 . S
C2437 C490 1.199 . S
C2425 C263 1.315 . S
C2464 C560 1.462 . S
C2452 C257 1.536 . S
C2491 C476 1.607 . S
C2479 C235 1.595 . S
C2506 C252 1.161 . S
C2518 C514 1.201 . S
