# Generated by pormake.
# Topology eea, (3,6)-cn, num edge types: 1
# Building blocks:
#     Node 0, Type 0, BuildingBlock: PAMTOO_clean_linker_0, # of connection points: 3
#     Node 1, Type 0, BuildingBlock: PAMTOO_clean_linker_0, # of connection points: 3
#     Node 2, Type 0, BuildingBlock: PAMTOO_clean_linker_0, # of connection points: 3
#     Node 3, Type 0, BuildingBlock: PAMTOO_clean_linker_0, # of connection points: 3
#     Node 4, Type 0, BuildingBlock: PAMTOO_clean_linker_0, # of connection points: 3
#     Node 5, Type 0, BuildingBlock: PAMTOO_clean_linker_0, # of connection points: 3
#     Node 6, Type 0, BuildingBlock: PAMTOO_clean_linker_0, # of connection points: 3
#     Node 7, Type 0, BuildingBlock: PAMTOO_clean_linker_0, # of connection points: 3
#     Node 8, Type 0, BuildingBlock: PAMTOO_clean_linker_0, # of connection points: 3
#     Node 9, Type 0, BuildingBlock: PAMTOO_clean_linker_0, # of connection points: 3
#     Node 10, Type 0, BuildingBlock: PAMTOO_clean_linker_0, # of connection points: 3
#     Node 11, Type 0, BuildingBlock: PAMTOO_clean_linker_0, # of connection points: 3
#     Node 12, Type 0, BuildingBlock: PAMTOO_clean_linker_0, # of connection points: 3
#     Node 13, Type 0, BuildingBlock: PAMTOO_clean_linker_0, # of connection points: 3
#     Node 14, Type 0, BuildingBlock: PAMTOO_clean_linker_0, # of connection points: 3
#     Node 15, Type 0, BuildingBlock: PAMTOO_clean_linker_0, # of connection points: 3
#     Node 16, Type 0, BuildingBlock: PAMTOO_clean_linker_0, # of connection points: 3
#     Node 17, Type 0, BuildingBlock: PAMTOO_clean_linker_0, # of connection points: 3
#     Node 18, Type 1, BuildingBlock: KUMBUR_clean_sbu_0, # of connection points: 6
#     Node 19, Type 1, BuildingBlock: KUMBUR_clean_sbu_0, # of connection points: 6
#     Node 20, Type 1, BuildingBlock: KUMBUR_clean_sbu_0, # of connection points: 6
#     Node 21, Type 1, BuildingBlock: KUMBUR_clean_sbu_0, # of connection points: 6
#     Node 22, Type 1, BuildingBlock: KUMBUR_clean_sbu_0, # of connection points: 6
#     Node 23, Type 1, BuildingBlock: KUMBUR_clean_sbu_0, # of connection points: 6
#     Node 24, Type 1, BuildingBlock: KUMBUR_clean_sbu_0, # of connection points: 6
#     Node 25, Type 1, BuildingBlock: KUMBUR_clean_sbu_0, # of connection points: 6
#     Node 26, Type 1, BuildingBlock: KUMBUR_clean_sbu_0, # of connection points: 6
#     Edge 27, Type (0, 1), BuildingBlock: UVAHIK_clean_linker_0, # of connection points: 2
#     Edge 28, Type (0, 1), BuildingBlock: UVAHIK_clean_linker_0, # of connection points: 2
#     Edge 29, Type (0, 1), BuildingBlock: UVAHIK_clean_linker_0, # of connection points: 2
#     Edge 30, Type (0, 1), BuildingBlock: UVAHIK_clean_linker_0, # of connection points: 2
#     Edge 31, Type (0, 1), BuildingBlock: UVAHIK_clean_linker_0, # of connection points: 2
#     Edge 32, Type (0, 1), BuildingBlock: UVAHIK_clean_linker_0, # of connection points: 2
#     Edge 33, Type (0, 1), BuildingBlock: UVAHIK_clean_linker_0, # of connection points: 2
#     Edge 34, Type (0, 1), BuildingBlock: UVAHIK_clean_linker_0, # of connection points: 2
#     Edge 35, Type (0, 1), BuildingBlock: UVAHIK_clean_linker_0, # of connection points: 2
#     Edge 36, Type (0, 1), BuildingBlock: UVAHIK_clean_linker_0, # of connection points: 2
#     Edge 37, Type (0, 1), BuildingBlock: UVAHIK_clean_linker_0, # of connection points: 2
#     Edge 38, Type (0, 1), BuildingBlock: UVAHIK_clean_linker_0, # of connection points: 2
#     Edge 39, Type (0, 1), BuildingBlock: UVAHIK_clean_linker_0, # of connection points: 2
#     Edge 40, Type (0, 1), BuildingBlock: UVAHIK_clean_linker_0, # of connection points: 2
#     Edge 41, Type (0, 1), BuildingBlock: UVAHIK_clean_linker_0, # of connection points: 2
#     Edge 42, Type (0, 1), BuildingBlock: UVAHIK_clean_linker_0, # of connection points: 2
#     Edge 43, Type (0, 1), BuildingBlock: UVAHIK_clean_linker_0, # of connection points: 2
#     Edge 44, Type (0, 1), BuildingBlock: UVAHIK_clean_linker_0, # of connection points: 2
#     Edge 45, Type (0, 1), BuildingBlock: UVAHIK_clean_linker_0, # of connection points: 2
#     Edge 46, Type (0, 1), BuildingBlock: UVAHIK_clean_linker_0, # of connection points: 2
#     Edge 47, Type (0, 1), BuildingBlock: UVAHIK_clean_linker_0, # of connection points: 2
#     Edge 48, Type (0, 1), BuildingBlock: UVAHIK_clean_linker_0, # of connection points: 2
#     Edge 49, Type (0, 1), BuildingBlock: UVAHIK_clean_linker_0, # of connection points: 2
#     Edge 50, Type (0, 1), BuildingBlock: UVAHIK_clean_linker_0, # of connection points: 2
#     Edge 51, Type (0, 1), BuildingBlock: UVAHIK_clean_linker_0, # of connection points: 2
#     Edge 52, Type (0, 1), BuildingBlock: UVAHIK_clean_linker_0, # of connection points: 2
#     Edge 53, Type (0, 1), BuildingBlock: UVAHIK_clean_linker_0, # of connection points: 2
#     Edge 54, Type (0, 1), BuildingBlock: UVAHIK_clean_linker_0, # of connection points: 2
#     Edge 55, Type (0, 1), BuildingBlock: UVAHIK_clean_linker_0, # of connection points: 2
#     Edge 56, Type (0, 1), BuildingBlock: UVAHIK_clean_linker_0, # of connection points: 2
#     Edge 57, Type (0, 1), BuildingBlock: UVAHIK_clean_linker_0, # of connection points: 2
#     Edge 58, Type (0, 1), BuildingBlock: UVAHIK_clean_linker_0, # of connection points: 2
#     Edge 59, Type (0, 1), BuildingBlock: UVAHIK_clean_linker_0, # of connection points: 2
#     Edge 60, Type (0, 1), BuildingBlock: UVAHIK_clean_linker_0, # of connection points: 2
#     Edge 61, Type (0, 1), BuildingBlock: UVAHIK_clean_linker_0, # of connection points: 2
#     Edge 62, Type (0, 1), BuildingBlock: UVAHIK_clean_linker_0, # of connection points: 2
#     Edge 63, Type (0, 1), BuildingBlock: UVAHIK_clean_linker_0, # of connection points: 2
#     Edge 64, Type (0, 1), BuildingBlock: UVAHIK_clean_linker_0, # of connection points: 2
#     Edge 65, Type (0, 1), BuildingBlock: UVAHIK_clean_linker_0, # of connection points: 2
#     Edge 66, Type (0, 1), BuildingBlock: UVAHIK_clean_linker_0, # of connection points: 2
#     Edge 67, Type (0, 1), BuildingBlock: UVAHIK_clean_linker_0, # of connection points: 2
#     Edge 68, Type (0, 1), BuildingBlock: UVAHIK_clean_linker_0, # of connection points: 2
#     Edge 69, Type (0, 1), BuildingBlock: UVAHIK_clean_linker_0, # of connection points: 2
#     Edge 70, Type (0, 1), BuildingBlock: UVAHIK_clean_linker_0, # of connection points: 2
#     Edge 71, Type (0, 1), BuildingBlock: UVAHIK_clean_linker_0, # of connection points: 2
#     Edge 72, Type (0, 1), BuildingBlock: UVAHIK_clean_linker_0, # of connection points: 2
#     Edge 73, Type (0, 1), BuildingBlock: UVAHIK_clean_linker_0, # of connection points: 2
#     Edge 74, Type (0, 1), BuildingBlock: UVAHIK_clean_linker_0, # of connection points: 2
#     Edge 75, Type (0, 1), BuildingBlock: UVAHIK_clean_linker_0, # of connection points: 2
#     Edge 76, Type (0, 1), BuildingBlock: UVAHIK_clean_linker_0, # of connection points: 2
#     Edge 77, Type (0, 1), BuildingBlock: UVAHIK_clean_linker_0, # of connection points: 2
#     Edge 78, Type (0, 1), BuildingBlock: UVAHIK_clean_linker_0, # of connection points: 2
#     Edge 79, Type (0, 1), BuildingBlock: UVAHIK_clean_linker_0, # of connection points: 2
#     Edge 80, Type (0, 1), BuildingBlock: UVAHIK_clean_linker_0, # of connection points: 2
# Relax obj value: 0.023
# Max RMSD: 0.153
# Mean RMSD: 0.113
data_MOF--net-eea--node1-KUMBUR_clean_sbu_0--node2-PAMTOO_clean_linker_0--edge1-UVAHIK_clean_linker_0
_symmetry_space_group_name_H-M    P1
_symmetry_Int_Tables_number       1
_symmetry_cell_setting            triclinic
loop_
_symmetry_equiv_pos_as_xyz
'x, y, z'
_cell_length_a     70.662665
_cell_length_b     72.401245
_cell_length_c     81.957167
_cell_angle_alpha  90.108312
_cell_angle_beta   90.146758
_cell_angle_gamma 119.93318
loop_
_atom_site_label
_atom_site_type_symbol
_atom_site_fract_x
_atom_site_fract_y
_atom_site_fract_z
_atom_type_partial_charge
H0 H 0.23997 0.07986 0.436 0.0
H1 H 0.23961 0.13915 0.43398 0.0
H2 H 0.21408 0.0952 0.39384 0.0
H3 H 0.23676 0.13827 0.38254 0.0
C4 C 0.23682 0.14678 0.39387 0.0
O5 O 0.22215 0.13236 0.40485 0.0
H6 H 0.25367 0.15467 0.39905 0.0
C7 C 0.23602 0.09065 0.42966 0.0
C8 C 0.22648 0.08516 0.41408 0.0
C9 C 0.24069 0.11 0.43706 0.0
C10 C 0.236 0.12407 0.42856 0.0
C11 C 0.22637 0.11865 0.41304 0.0
C12 C 0.22133 0.09912 0.40592 0.0
H13 H 0.93831 0.15892 0.43275 0.0
H14 H 0.8822 0.0961 0.42772 0.0
H15 H 0.93021 0.12092 0.38994 0.0
H16 H 0.88606 0.09356 0.37568 0.0
C17 C 0.87763 0.08713 0.38749 0.0
O18 O 0.89273 0.08881 0.39899 0.0
H19 H 0.87002 0.09678 0.39117 0.0
C20 C 0.92926 0.14416 0.42597 0.0
C21 C 0.93703 0.142 0.41068 0.0
C22 C 0.90952 0.12775 0.43235 0.0
C23 C 0.89736 0.10908 0.42308 0.0
C24 C 0.90475 0.10682 0.40779 0.0
C25 C 0.92457 0.12312 0.40167 0.0
H26 H 0.85503 0.77771 0.43166 0.0
H27 H 0.9192 0.78459 0.43053 0.0
H28 H 0.89766 0.80846 0.39098 0.0
H29 H 0.92494 0.79083 0.37992 0.0
C30 C 0.93333 0.79147 0.39159 0.0
O31 O 0.93012 0.80424 0.40251 0.0
H32 H 0.92599 0.77493 0.39637 0.0
C33 C 0.87043 0.78288 0.42552 0.0
C34 C 0.87409 0.79311 0.41032 0.0
C35 C 0.88646 0.77963 0.43303 0.0
C36 C 0.90667 0.78714 0.42516 0.0
C37 C 0.91069 0.79749 0.41004 0.0
C38 C 0.89449 0.80063 0.40273 0.0
H39 H 0.0866 0.23003 0.59664 0.0
H40 H 0.14215 0.22068 0.59976 0.0
H41 H 0.09611 0.20033 0.63899 0.0
H42 H 0.14181 0.21699 0.65099 0.0
C43 C 0.14926 0.21645 0.63919 0.0
O44 O 0.13274 0.20326 0.62853 0.0
H45 H 0.15832 0.23298 0.63432 0.0
C46 C 0.096 0.22431 0.60319 0.0
C47 C 0.08879 0.21483 0.61862 0.0
C48 C 0.11522 0.22659 0.59617 0.0
C49 C 0.12738 0.21929 0.6049 0.0
C50 C 0.12058 0.20994 0.6203 0.0
C51 C 0.10119 0.20751 0.62706 0.0
H52 H 0.78353 0.85318 0.59268 0.0
H53 H 0.78382 0.91262 0.59757 0.0
H54 H 0.80819 0.89083 0.63652 0.0
H55 H 0.78654 0.913 0.64925 0.0
C56 C 0.78593 0.92086 0.63777 0.0
O57 O 0.80077 0.92097 0.62682 0.0
H58 H 0.76901 0.91165 0.63278 0.0
C59 C 0.78725 0.86732 0.5997 0.0
C60 C 0.79641 0.87008 0.61538 0.0
C61 C 0.78266 0.88257 0.5931 0.0
C62 C 0.78748 0.90078 0.60233 0.0
C63 C 0.79652 0.90359 0.61796 0.0
C64 C 0.80105 0.88836 0.62444 0.0
H65 H 0.15727 0.92863 0.59464 0.0
H66 H 0.09744 0.86848 0.59775 0.0
H67 H 0.1173 0.91279 0.63767 0.0
H68 H 0.09402 0.86921 0.64989 0.0
C69 C 0.08722 0.86092 0.63808 0.0
O70 O 0.08735 0.87529 0.62696 0.0
H71 H 0.09777 0.85454 0.6337 0.0
C72 C 0.1426 0.91779 0.60123 0.0
C73 C 0.13918 0.92332 0.61696 0.0
C74 C 0.12771 0.89809 0.59411 0.0
C75 C 0.1092 0.8837 0.60302 0.0
C76 C 0.10552 0.88904 0.61868 0.0
C77 C 0.12044 0.9088 0.62561 0.0
H78 H 0.90685 0.41235 0.76731 0.0
H79 H 0.90547 0.47111 0.7648 0.0
H80 H 0.88016 0.42655 0.72504 0.0
H81 H 0.90165 0.46963 0.71319 0.0
C82 C 0.90218 0.47811 0.72467 0.0
O83 O 0.88775 0.46369 0.73575 0.0
H84 H 0.9192 0.48578 0.72952 0.0
C85 C 0.90265 0.4229 0.76087 0.0
C86 C 0.89299 0.41707 0.74534 0.0
C87 C 0.90709 0.44227 0.76811 0.0
C88 C 0.90205 0.45603 0.7595 0.0
C89 C 0.89231 0.45028 0.74403 0.0
C90 C 0.88751 0.43073 0.73708 0.0
H91 H 0.60514 0.49366 0.76642 0.0
H92 H 0.54941 0.43053 0.7618 0.0
H93 H 0.59768 0.45494 0.7242 0.0
H94 H 0.55338 0.42705 0.70999 0.0
C95 C 0.54502 0.42066 0.72183 0.0
O96 O 0.56026 0.42279 0.73337 0.0
H97 H 0.53712 0.43008 0.72539 0.0
C98 C 0.59623 0.47875 0.7598 0.0
C99 C 0.6042 0.47637 0.74466 0.0
C100 C 0.5765 0.46238 0.76621 0.0
C101 C 0.56455 0.44349 0.75713 0.0
C102 C 0.5721 0.44101 0.74198 0.0
C103 C 0.59191 0.4573 0.73582 0.0
H104 H 0.52196 0.10508 0.76736 0.0
H105 H 0.58563 0.1109 0.76466 0.0
H106 H 0.56432 0.13736 0.72687 0.0
H107 H 0.59159 0.12011 0.71446 0.0
C108 C 0.60003 0.12023 0.72597 0.0
O109 O 0.5967 0.13235 0.73746 0.0
H110 H 0.59283 0.10348 0.73025 0.0
C111 C 0.53721 0.11025 0.76099 0.0
C112 C 0.54083 0.12123 0.74614 0.0
C113 C 0.55309 0.10627 0.7679 0.0
C114 C 0.57318 0.11394 0.7598 0.0
C115 C 0.57724 0.12517 0.74508 0.0
C116 C 0.56113 0.1289 0.73833 0.0
H117 H 0.75291 0.56467 0.92928 0.0
H118 H 0.80784 0.55435 0.93233 0.0
H119 H 0.76097 0.53306 0.97101 0.0
H120 H 0.80493 0.54448 0.98447 0.0
C121 C 0.81297 0.54769 0.97235 0.0
O122 O 0.79747 0.53571 0.96065 0.0
H123 H 0.82007 0.56504 0.96992 0.0
C124 C 0.76202 0.55856 0.93574 0.0
C125 C 0.75442 0.54862 0.95098 0.0
C126 C 0.78125 0.56077 0.92879 0.0
C127 C 0.79307 0.553 0.93742 0.0
C128 C 0.78578 0.54306 0.95257 0.0
C129 C 0.76638 0.54067 0.95924 0.0
H130 H 0.43787 0.18323 0.93301 0.0
H131 H 0.44391 0.24516 0.93817 0.0
H132 H 0.46665 0.22078 0.9764 0.0
H133 H 0.44928 0.24684 0.99008 0.0
C134 C 0.44813 0.25399 0.97838 0.0
O135 O 0.4618 0.25261 0.96708 0.0
H136 H 0.43081 0.24493 0.97417 0.0
C137 C 0.44295 0.19765 0.94005 0.0
C138 C 0.45261 0.19987 0.9555 0.0
C139 C 0.43983 0.21391 0.93359 0.0
C140 C 0.44638 0.23251 0.94281 0.0
C141 C 0.45578 0.23477 0.95825 0.0
C142 C 0.45901 0.21859 0.96453 0.0
H143 H 0.83053 0.25987 0.93004 0.0
H144 H 0.76853 0.20142 0.93075 0.0
H145 H 0.7857 0.24699 0.96952 0.0
H146 H 0.76063 0.20454 0.98197 0.0
C147 C 0.75405 0.19571 0.97032 0.0
O148 O 0.75577 0.2098 0.95829 0.0
H149 H 0.76394 0.18814 0.96705 0.0
C150 C 0.81513 0.2493 0.93592 0.0
C151 C 0.81013 0.25563 0.95074 0.0
C152 C 0.80024 0.22988 0.9284 0.0
C153 C 0.78013 0.21665 0.93608 0.0
C154 C 0.77497 0.22284 0.95087 0.0
C155 C 0.7898 0.24242 0.95804 0.0
H156 H 0.57523 0.75128 0.098 0.0
H157 H 0.5809 0.81289 0.09225 0.0
H158 H 0.55444 0.76727 0.05332 0.0
H159 H 0.58277 0.81086 0.04144 0.0
C160 C 0.5818 0.81977 0.05219 0.0
O161 O 0.56551 0.80588 0.06248 0.0
H162 H 0.59791 0.8273 0.05855 0.0
C163 C 0.57252 0.76228 0.09078 0.0
C164 C 0.56379 0.75646 0.07493 0.0
C165 C 0.57863 0.7825 0.09723 0.0
C166 C 0.57628 0.7972 0.08754 0.0
C167 C 0.56774 0.79166 0.07172 0.0
C168 C 0.56134 0.77134 0.06549 0.0
H169 H 0.26928 0.83043 0.09815 0.0
H170 H 0.2149 0.76637 0.09549 0.0
H171 H 0.26274 0.78935 0.05769 0.0
H172 H 0.21926 0.76159 0.04377 0.0
C173 C 0.2106 0.75514 0.0555 0.0
O174 O 0.2256 0.75761 0.06737 0.0
H175 H 0.20232 0.76432 0.05874 0.0
C176 C 0.26082 0.81511 0.09204 0.0
C177 C 0.26887 0.81213 0.07712 0.0
C178 C 0.24151 0.79871 0.09895 0.0
C179 C 0.22981 0.77928 0.09049 0.0
C180 C 0.23736 0.77619 0.07556 0.0
C181 C 0.25696 0.79236 0.06905 0.0
H182 H 0.19213 0.44722 0.10073 0.0
H183 H 0.25608 0.45394 0.09766 0.0
H184 H 0.23227 0.4762 0.05847 0.0
H185 H 0.26221 0.46231 0.04553 0.0
C186 C 0.268 0.45994 0.05754 0.0
O187 O 0.26538 0.47242 0.06911 0.0
H188 H 0.25782 0.44274 0.06067 0.0
C189 C 0.20723 0.45243 0.09413 0.0
C190 C 0.20991 0.46185 0.07867 0.0
C191 C 0.22371 0.4495 0.10115 0.0
C192 C 0.24317 0.45605 0.09246 0.0
C193 C 0.24631 0.46579 0.07717 0.0
C194 C 0.22978 0.46885 0.07036 0.0
H195 H 0.41656 0.89615 0.26092 0.0
H196 H 0.47197 0.88654 0.2635 0.0
H197 H 0.42659 0.86663 0.30316 0.0
H198 H 0.47217 0.88298 0.31477 0.0
C199 C 0.4795 0.88239 0.30293 0.0
O200 O 0.46288 0.86923 0.29234 0.0
H201 H 0.48859 0.8989 0.29802 0.0
C202 C 0.426 0.89041 0.26738 0.0
C203 C 0.41904 0.88108 0.28288 0.0
C204 C 0.44507 0.89255 0.26018 0.0
C205 C 0.4573 0.88522 0.26878 0.0
C206 C 0.45068 0.87596 0.28422 0.0
C207 C 0.43148 0.8737 0.29117 0.0
H208 H 0.11412 0.52052 0.26171 0.0
H209 H 0.11658 0.58088 0.26695 0.0
H210 H 0.13983 0.55776 0.30569 0.0
H211 H 0.1204 0.58167 0.31879 0.0
C212 C 0.11939 0.58909 0.30719 0.0
O213 O 0.13385 0.58877 0.29608 0.0
H214 H 0.10229 0.57968 0.30256 0.0
C215 C 0.11802 0.53454 0.26894 0.0
C216 C 0.1274 0.53701 0.28453 0.0
C217 C 0.1141 0.55027 0.26242 0.0
C218 C 0.11975 0.56869 0.27163 0.0
C219 C 0.12899 0.57126 0.28716 0.0
C220 C 0.13294 0.55559 0.29354 0.0
H221 H 0.48848 0.59464 0.25901 0.0
H222 H 0.42857 0.53481 0.26286 0.0
H223 H 0.44777 0.58085 0.30148 0.0
H224 H 0.42515 0.53821 0.31498 0.0
C225 C 0.41848 0.5292 0.30341 0.0
O226 O 0.4183 0.54276 0.29165 0.0
H227 H 0.42929 0.52287 0.29957 0.0
C228 C 0.47369 0.58422 0.26564 0.0
C229 C 0.47008 0.59052 0.28103 0.0
C230 C 0.4588 0.56431 0.25885 0.0
C231 C 0.44025 0.55026 0.26785 0.0
C232 C 0.43641 0.55626 0.28321 0.0
C233 C 0.45117 0.57636 0.2897 0.0
Tb234 Tb 0.49571 0.99386 0.99089 0.0
C235 C 0.54256 0.0621 0.04115 0.0
C236 C 0.58021 0.07172 0.03696 0.0
C237 C 0.57149 0.09832 0.04671 0.0
C238 C 0.55772 0.05662 0.03633 0.0
C239 C 0.54922 0.08279 0.04696 0.0
C240 C 0.58698 0.09278 0.04171 0.0
C241 C 0.51194 0.07027 0.05507 0.0
N242 N 0.52137 0.04647 0.04158 0.0
C243 C 0.50627 0.04991 0.04939 0.0
C244 C 0.53346 0.08691 0.05357 0.0
Tb245 Tb 0.51335 0.01363 0.03175 0.0
N246 N 0.55044 0.0361 0.03193 0.0
C247 C 0.565 0.0293 0.02893 0.0
C248 C 0.59515 0.06502 0.03325 0.0
C249 C 0.58751 0.04363 0.02948 0.0
H250 H 0.48964 0.03706 0.05067 0.0
H251 H 0.59893 0.03819 0.02682 0.0
H252 H 0.60416 0.10471 0.04204 0.0
H253 H 0.49975 0.07308 0.06069 0.0
H254 H 0.55945 0.01292 0.02582 0.0
H255 H 0.45122 0.01851 0.95129 0.0
H256 H 0.61257 0.07612 0.03356 0.0
H257 H 0.48211 0.94511 0.00386 0.0
H258 H 0.48398 0.02101 0.96439 0.0
H259 H 0.44931 0.90988 0.00538 0.0
H260 H 0.57695 0.11441 0.05092 0.0
H261 H 0.41488 0.98698 0.95625 0.0
H262 H 0.39301 0.9502 0.96816 0.0
H263 H 0.53788 0.10261 0.05816 0.0
H264 H 0.39266 0.92016 0.98249 0.0
N265 N 0.4661 0.99251 0.97806 0.0
C266 C 0.46809 0.0076 0.96705 0.0
C267 C 0.42915 0.9883 0.96231 0.0
C268 C 0.42761 0.97176 0.97206 0.0
C269 C 0.44961 0.0061 0.95948 0.0
C270 C 0.44671 0.97431 0.97964 0.0
H271 H 0.41377 0.9047 0.99577 0.0
N272 N 0.46578 0.96037 0.99347 0.0
C273 C 0.44826 0.92317 1.00037 0.0
C274 C 0.44659 0.95749 0.98747 0.0
C275 C 0.46695 0.94335 0.9995 0.0
C276 C 0.42823 0.92031 0.99499 0.0
C277 C 0.42724 0.93753 0.98825 0.0
O278 O 0.49884 0.97265 0.97501 0.0
O279 O 0.52312 0.01433 0.00661 0.0
O280 O 0.50484 0.03552 0.01948 0.0
O281 O 0.48335 0.01553 0.99711 0.0
O282 O 0.51966 0.02646 0.98465 0.0
O283 O 0.50999 0.00488 0.96779 0.0
O284 O 0.49673 0.00325 0.05422 0.0
O285 O 0.48855 0.98841 0.01665 0.0
O286 O 0.51437 0.97917 0.99976 0.0
O287 O 0.52033 0.98783 0.02743 0.0
O288 O 0.47858 0.00163 0.03464 0.0
O289 O 0.52732 0.00459 0.0506 0.0
C290 C 0.53153 0.03067 0.99751 0.0
C291 C 0.49412 0.9788 0.94713 0.0
C292 C 0.49098 0.98551 0.91816 0.0
C293 C 0.50196 0.99209 0.93331 0.0
C294 C 0.47212 0.96523 0.9171 0.0
C295 C 0.47506 0.95882 0.94571 0.0
C296 C 0.46423 0.95212 0.93077 0.0
C297 C 0.49114 0.03212 0.00722 0.0
C298 C 0.50571 0.98612 0.96297 0.0
C299 C 0.40776 0.93526 0.98179 0.0
C300 C 0.40794 0.95238 0.97369 0.0
C301 C 0.4719 0.98746 0.02332 0.0
C302 C 0.51911 0.01003 0.07746 0.0
C303 C 0.51082 0.99689 0.0913 0.0
C304 C 0.51806 0.00533 0.10711 0.0
C305 C 0.53332 0.0272 0.10878 0.0
C306 C 0.53455 0.03166 0.07951 0.0
C307 C 0.54145 0.0402 0.09508 0.0
C308 C 0.52104 0.97734 0.01445 0.0
C309 C 0.51198 0.00087 0.06099 0.0
H310 H 0.5164 0.00768 0.93449 0.0
H311 H 0.4635 0.9593 0.90564 0.0
H312 H 0.46846 0.94831 0.95611 0.0
H313 H 0.44965 0.93663 0.92977 0.0
H314 H 0.49919 0.98008 0.08973 0.0
H315 H 0.53892 0.0343 0.12073 0.0
H316 H 0.54144 0.04194 0.0691 0.0
H317 H 0.55328 0.05696 0.09653 0.0
Tb318 Tb 0.02426 0.50059 0.99563 0.0
C319 C 0.94769 0.47869 0.04217 0.0
C320 C 0.93775 0.50548 0.03651 0.0
C321 C 0.91025 0.47059 0.0462 0.0
C322 C 0.95335 0.49875 0.0368 0.0
C323 C 0.92626 0.46456 0.04745 0.0
C324 C 0.916 0.49106 0.04072 0.0
C325 C 0.93889 0.44095 0.05681 0.0
N326 N 0.96375 0.47376 0.0435 0.0
C327 C 0.95992 0.45563 0.05147 0.0
C328 C 0.92187 0.44525 0.05452 0.0
Tb329 Tb 0.99766 0.49834 0.03411 0.0
N330 N 0.9746 0.51222 0.03315 0.0
C331 C 0.98164 0.53331 0.03039 0.0
C332 C 0.94466 0.5267 0.03262 0.0
C333 C 0.96678 0.54076 0.02984 0.0
H334 H 0.97294 0.45211 0.05324 0.0
H335 H 0.97241 0.55734 0.02717 0.0
H336 H 0.9037 0.49582 0.04034 0.0
H337 H 0.93582 0.42634 0.06268 0.0
H338 H 0.9986 0.54449 0.02809 0.0
H339 H 0.0481 0.44048 1.00114 0.0
H340 H 0.9332 0.53251 0.0322 0.0
H341 H 0.0507 0.5491 0.97988 0.0
H342 H 0.02228 0.45387 1.00054 0.0
H343 H 0.08847 0.57523 0.97194 0.0
H344 H 0.89361 0.45987 0.05 0.0
H345 H 0.08753 0.46517 0.99684 0.0
H346 H 0.11763 0.50213 0.98997 0.0
H347 H 0.90563 0.43393 0.05876 0.0
H348 H 0.12867 0.53892 0.98196 0.0
N349 N 0.04675 0.48618 0.99628 0.0
C350 C 0.03937 0.46493 0.99855 0.0
C351 C 0.07624 0.47119 0.99653 0.0
C352 C 0.08354 0.49266 0.99327 0.0
C353 C 0.054 0.45721 0.99891 0.0
C354 C 0.06817 0.49967 0.9931 0.0
H355 H 0.11782 0.56624 0.97489 0.0
N356 N 0.0587 0.52577 0.98769 0.0
C357 C 0.08475 0.55985 0.97669 0.0
C358 C 0.07438 0.52024 0.98862 0.0
C359 C 0.06336 0.54498 0.98116 0.0
C360 C 0.10128 0.55474 0.97842 0.0
C361 C 0.09613 0.53458 0.98418 0.0
O362 O 0.01811 0.50748 0.97192 0.0
O363 O 0.99808 0.50199 0.00798 0.0
O364 O 0.97473 0.46962 0.02065 0.0
O365 O 0.9977 0.46784 1.00076 0.0
O366 O 0.01253 0.52262 0.98917 0.0
O367 O 0.01391 0.47661 0.97773 0.0
O368 O 1.00577 0.49337 0.05783 0.0
O369 O 0.02323 0.4962 0.02158 0.0
O370 O 0.04745 0.52744 0.01054 0.0
O371 O 0.02332 0.53111 0.02774 0.0
O372 O 0.00954 0.47646 0.04087 0.0
O373 O 0.00902 0.52351 0.05106 0.0
C374 C 0.99704 0.51606 0.99965 0.0
C375 C 0.02437 0.48915 0.95081 0.0
C376 C 0.02277 0.48646 0.92107 0.0
C377 C 0.01295 0.48604 0.9361 0.0
C378 C 0.04433 0.49019 0.92104 0.0
C379 C 0.04572 0.49258 0.9505 0.0
C380 C 0.05565 0.49318 0.93568 0.0
C381 C 0.97901 0.45953 0.00896 0.0
C382 C 0.01373 0.48895 0.96625 0.0
C383 C 0.1118 0.52808 0.98514 0.0
C384 C 0.10551 0.50713 0.9897 0.0
C385 C 0.02441 0.48223 0.02994 0.0
C386 C 1.00014 0.5127 0.07844 0.0
C387 C 0.01215 0.51661 0.09294 0.0
C388 C 1.00289 0.51688 0.10808 0.0
C389 C 0.98132 0.51309 0.10841 0.0
C390 C 0.97878 0.50922 0.07904 0.0
C391 C 0.96942 0.50936 0.09397 0.0
C392 C 0.04287 0.53858 0.02102 0.0
C393 C 0.01014 0.51212 0.06289 0.0
H394 H 0.99629 0.48298 0.93643 0.0
H395 H 0.05251 0.49097 0.90969 0.0
H396 H 0.0547 0.49476 0.96165 0.0
H397 H 0.07219 0.49597 0.93554 0.0
H398 H 0.0288 0.51968 0.09236 0.0
H399 H 0.97352 0.51278 0.11985 0.0
H400 H 0.96935 0.50642 0.06803 0.0
H401 H 0.95286 0.5065 0.09434 0.0
Tb402 Tb 0.52785 0.5108 0.03257 0.0
C403 C 0.47645 0.53372 0.98396 0.0
C404 C 0.43886 0.50681 0.98848 0.0
C405 C 0.44754 0.54197 0.97905 0.0
C406 C 0.46134 0.51352 0.98884 0.0
C407 C 0.46976 0.54801 0.97847 0.0
C408 C 0.43209 0.52137 0.98408 0.0
C409 C 0.50698 0.57186 0.97029 0.0
N410 N 0.49761 0.53868 0.9833 0.0
C411 C 0.51273 0.55703 0.97583 0.0
C412 C 0.48547 0.56751 0.9719 0.0
Tb413 Tb 0.50591 0.51389 0.9931 0.0
N414 N 0.46863 0.49994 0.9927 0.0
C415 C 0.45396 0.47877 0.99499 0.0
C416 C 0.42389 0.4855 0.99192 0.0
C417 C 0.43148 0.47134 0.99489 0.0
H418 H 0.52943 0.5606 0.97461 0.0
H419 H 0.42003 0.4547 0.9972 0.0
H420 H 0.41491 0.51662 0.98395 0.0
H421 H 0.51916 0.58664 0.96482 0.0
H422 H 0.45936 0.46753 0.99743 0.0
H423 H 0.61334 0.57115 0.02967 0.0
H424 H 0.40648 0.4797 0.99185 0.0
H425 H 0.50399 0.46212 0.04807 0.0
H426 H 0.57383 0.55769 0.02899 0.0
H427 H 0.51471 0.43599 0.05682 0.0
H428 H 0.44207 0.55281 0.97509 0.0
H429 H 0.62737 0.54648 0.0348 0.0
H430 H 0.61942 0.50948 0.04188 0.0
H431 H 0.48102 0.57896 0.96752 0.0
H432 H 0.59251 0.47259 0.04937 0.0
N433 N 0.5651 0.52534 0.03331 0.0
C434 C 0.57951 0.54662 0.03133 0.0
C435 C 0.60991 0.54042 0.03454 0.0
C436 C 0.59515 0.51892 0.03754 0.0
C437 C 0.60205 0.55439 0.03169 0.0
C438 C 0.5726 0.51186 0.03695 0.0
H439 H 0.5534 0.44512 0.05528 0.0
N440 N 0.53622 0.48563 0.04124 0.0
C441 C 0.52694 0.45145 0.05234 0.0
C442 C 0.5576 0.49122 0.0411 0.0
C443 C 0.52094 0.46632 0.04742 0.0
C444 C 0.54878 0.45663 0.05141 0.0
C445 C 0.5645 0.47687 0.046 0.0
O446 O 0.51294 0.50343 0.05568 0.0
O447 O 0.50091 0.50957 0.01911 0.0
O448 O 0.51134 0.54216 0.00667 0.0
O449 O 0.53513 0.54358 0.02735 0.0
O450 O 0.49334 0.48831 0.03764 0.0
O451 O 0.54072 0.53435 0.05088 0.0
O452 O 0.52051 0.5196 0.96988 0.0
O453 O 0.5329 0.51571 0.00673 0.0
O454 O 0.52438 0.4842 0.01782 0.0
O455 O 0.4977 0.48104 0.99941 0.0
O456 O 0.5405 0.53608 0.98771 0.0
O457 O 0.49278 0.48918 0.97568 0.0
C458 C 0.48507 0.49508 0.02685 0.0
C459 C 0.53623 0.5213 0.07786 0.0
C460 C 0.53535 0.52362 0.10759 0.0
C461 C 0.52696 0.52419 0.09209 0.0
C462 C 0.55304 0.51987 0.10856 0.0
C463 C 0.55398 0.5178 0.07913 0.0
C464 C 0.56227 0.51702 0.09441 0.0
C465 C 0.52532 0.55201 0.01879 0.0
C466 C 0.52703 0.52183 0.06186 0.0
C467 C 0.58686 0.48344 0.04582 0.0
C468 C 0.60218 0.50444 0.04157 0.0
C469 C 0.54884 0.52997 0.99895 0.0
C470 C 0.49649 0.50061 0.94833 0.0
C471 C 0.5049 0.49647 0.93414 0.0
C472 C 0.4959 0.49622 0.9187 0.0
C473 C 0.4785 0.50041 0.91776 0.0
C474 C 0.479 0.50449 0.94707 0.0
C475 C 0.47012 0.50446 0.93185 0.0
C476 C 0.509 0.47332 0.00684 0.0
C477 C 0.50621 0.50093 0.96431 0.0
H478 H 0.51346 0.52723 0.09105 0.0
H479 H 0.55968 0.51898 0.12027 0.0
H480 H 0.56147 0.51573 0.06837 0.0
H481 H 0.5759 0.51419 0.0953 0.0
H482 H 0.51821 0.49315 0.93519 0.0
H483 H 0.47146 0.50077 0.90609 0.0
H484 H 0.47215 0.5075 0.9578 0.0
H485 H 0.4567 0.50762 0.93098 0.0
Tb486 Tb 0.16109 0.32605 0.32846 0.0
C487 C 0.21012 0.39859 0.37788 0.0
C488 C 0.248 0.40806 0.37577 0.0
C489 C 0.23866 0.435 0.38336 0.0
C490 C 0.22559 0.39293 0.37443 0.0
C491 C 0.21638 0.41955 0.38276 0.0
C492 C 0.25447 0.42926 0.37986 0.0
C493 C 0.1783 0.40785 0.38741 0.0
N494 N 0.18884 0.38313 0.37729 0.0
C495 C 0.17295 0.38725 0.38259 0.0
C496 C 0.2001 0.42415 0.3873 0.0
Tb497 Tb 0.18149 0.35007 0.36851 0.0
N498 N 0.2186 0.37227 0.37065 0.0
C499 C 0.23337 0.36536 0.36926 0.0
C500 C 0.26319 0.40129 0.37341 0.0
C501 C 0.25581 0.37977 0.37039 0.0
H502 H 0.15604 0.37482 0.38261 0.0
H503 H 0.26739 0.37427 0.36883 0.0
H504 H 0.27161 0.44119 0.38075 0.0
H505 H 0.16561 0.41115 0.3912 0.0
H506 H 0.22809 0.34887 0.36678 0.0
H507 H 0.0751 0.30147 0.32953 0.0
H508 H 0.28057 0.41241 0.37425 0.0
H509 H 0.18634 0.30181 0.31303 0.0
H510 H 0.11442 0.32701 0.3311 0.0
H511 H 0.17672 0.26574 0.30373 0.0
H512 H 0.24384 0.45127 0.38691 0.0
H513 H 0.06197 0.2634 0.3238 0.0
H514 H 0.07095 0.23485 0.3165 0.0
H515 H 0.20422 0.44007 0.39111 0.0
H516 H 0.09869 0.22509 0.30936 0.0
N517 N 0.12396 0.30374 0.3267 0.0
C518 C 0.10915 0.31054 0.3285 0.0
C519 C 0.07935 0.27458 0.32445 0.0
C520 C 0.09455 0.26794 0.32161 0.0
C521 C 0.08671 0.29606 0.32764 0.0
C522 C 0.11697 0.28314 0.32272 0.0
H523 H 0.13822 0.23663 0.30425 0.0
N524 N 0.15368 0.29318 0.31919 0.0
C525 C 0.1641 0.26884 0.30802 0.0
C526 C 0.13243 0.27764 0.31879 0.0
C527 C 0.16948 0.2893 0.31327 0.0
C528 C 0.14236 0.25243 0.30837 0.0
C529 C 0.12614 0.25681 0.31355 0.0
O530 O 0.17739 0.33514 0.3059 0.0
O531 O 0.18753 0.35017 0.34279 0.0
O532 O 0.17898 0.37352 0.35336 0.0
O533 O 0.15284 0.351 0.33442 0.0
O534 O 0.19579 0.33722 0.32399 0.0
O535 O 0.14875 0.33764 0.31017 0.0
O536 O 0.16592 0.34245 0.39139 0.0
O537 O 0.15513 0.32587 0.35422 0.0
O538 O 0.16447 0.3027 0.34312 0.0
O539 O 0.18978 0.32513 0.36265 0.0
O540 O 0.14674 0.33879 0.37289 0.0
O541 O 0.19289 0.33736 0.38659 0.0
C542 C 0.20366 0.35124 0.33542 0.0
C543 C 0.15535 0.33096 0.28307 0.0
C544 C 0.15833 0.3354 0.25343 0.0
C545 C 0.16497 0.34382 0.26928 0.0
C546 C 0.14181 0.314 0.25162 0.0
C547 C 0.13877 0.30974 0.28094 0.0
C548 C 0.13206 0.30134 0.26529 0.0
C549 C 0.16409 0.36967 0.34199 0.0
C550 C 0.16333 0.33966 0.29953 0.0
C551 C 0.10388 0.24127 0.31318 0.0
C552 C 0.08809 0.24683 0.31723 0.0
C553 C 0.13892 0.32463 0.36156 0.0
C554 C 0.18818 0.34513 0.41379 0.0
C555 C 0.18039 0.33181 0.42757 0.0
C556 C 0.18897 0.33976 0.44324 0.0
C557 C 0.20527 0.36131 0.44484 0.0
C558 C 0.20451 0.36647 0.41575 0.0
C559 C 0.21295 0.3745 0.4312 0.0
C560 C 0.17912 0.30664 0.35473 0.0
C561 C 0.17914 0.33661 0.3975 0.0
H562 H 0.17789 0.3602 0.27089 0.0
H563 H 0.13623 0.30714 0.2396 0.0
H564 H 0.13105 0.29965 0.29134 0.0
H565 H 0.11926 0.28492 0.26376 0.0
H566 H 0.16792 0.31525 0.42602 0.0
H567 H 0.21195 0.36809 0.4567 0.0
H568 H 0.21074 0.37693 0.40539 0.0
H569 H 0.22548 0.39104 0.4326 0.0
Tb570 Tb 0.6896 0.83395 0.32692 0.0
C571 C 0.61289 0.81034 0.3737 0.0
C572 C 0.6027 0.83707 0.36862 0.0
C573 C 0.57535 0.80186 0.37785 0.0
C574 C 0.61842 0.83049 0.36868 0.0
C575 C 0.59149 0.79596 0.3789 0.0
C576 C 0.58096 0.82241 0.37269 0.0
C577 C 0.60439 0.77241 0.38784 0.0
N578 N 0.62907 0.80555 0.37485 0.0
C579 C 0.62538 0.78731 0.38257 0.0
C580 C 0.58725 0.77657 0.3857 0.0
Tb581 Tb 0.66291 0.8305 0.3656 0.0
N582 N 0.63967 0.84418 0.36517 0.0
C583 C 0.64658 0.86533 0.36285 0.0
C584 C 0.60949 0.85837 0.36515 0.0
C585 C 0.63161 0.87265 0.36257 0.0
H586 H 0.63848 0.78388 0.3842 0.0
H587 H 0.63715 0.88929 0.36025 0.0
H588 H 0.56857 0.82706 0.37248 0.0
H589 H 0.60144 0.75773 0.39352 0.0
H590 H 0.66354 0.87667 0.36071 0.0
H591 H 0.71343 0.77371 0.33103 0.0
H592 H 0.59793 0.86408 0.36493 0.0
H593 H 0.71606 0.88282 0.31185 0.0
H594 H 0.6876 0.78709 0.33085 0.0
H595 H 0.75387 0.90916 0.30412 0.0
H596 H 0.55873 0.79095 0.38157 0.0
H597 H 0.75289 0.79854 0.32702 0.0
H598 H 0.78302 0.83569 0.3207 0.0
H599 H 0.57103 0.76507 0.38988 0.0
H600 H 0.79408 0.87268 0.31328 0.0
N601 N 0.71209 0.81952 0.32712 0.0
C602 C 0.7047 0.79822 0.32898 0.0
C603 C 0.7416 0.80456 0.3269 0.0
C604 C 0.74891 0.82611 0.32402 0.0
C605 C 0.71933 0.7905 0.32911 0.0
C606 C 0.73353 0.83312 0.32408 0.0
H607 H 0.78322 0.90014 0.30674 0.0
N608 N 0.72406 0.85933 0.31921 0.0
C609 C 0.75014 0.89367 0.30863 0.0
C610 C 0.73975 0.8538 0.31994 0.0
C611 C 0.72873 0.87869 0.31298 0.0
C612 C 0.76668 0.88854 0.31018 0.0
C613 C 0.76152 0.86825 0.31562 0.0
O614 O 0.68367 0.84156 0.30338 0.0
O615 O 0.66339 0.83492 0.33956 0.0
O616 O 0.64 0.80214 0.35174 0.0
O617 O 0.663 0.80104 0.33157 0.0
O618 O 0.67778 0.85607 0.32104 0.0
O619 O 0.67919 0.81045 0.30864 0.0
O620 O 0.67126 0.82499 0.38907 0.0
O621 O 0.68859 0.82885 0.35278 0.0
O622 O 0.71268 0.86048 0.34215 0.0
O623 O 0.68844 0.8635 0.35968 0.0
O624 O 0.67477 0.80842 0.37168 0.0
O625 O 0.67408 0.85515 0.383 0.0
C626 C 0.66231 0.8492 0.33155 0.0
C627 C 0.68992 0.82367 0.2819 0.0
C628 C 0.68858 0.82163 0.25213 0.0
C629 C 0.67873 0.82117 0.26716 0.0
C630 C 0.70994 0.82485 0.25212 0.0
C631 C 0.7111 0.82663 0.2816 0.0
C632 C 0.72106 0.82731 0.26678 0.0
C633 C 0.64429 0.79244 0.33976 0.0
C634 C 0.6792 0.82315 0.29738 0.0
C635 C 0.7772 0.86174 0.31638 0.0
C636 C 0.7709 0.84069 0.32059 0.0
C637 C 0.68972 0.8146 0.36078 0.0
C638 C 0.66549 0.84355 0.41024 0.0
C639 C 0.67776 0.84751 0.42461 0.0
C640 C 0.66856 0.84725 0.4399 0.0
C641 C 0.64679 0.84286 0.44051 0.0
C642 C 0.64393 0.83945 0.41111 0.0
C643 C 0.63463 0.83906 0.42619 0.0
C644 C 0.70801 0.87126 0.3529 0.0
C645 C 0.67544 0.84353 0.39452 0.0
H646 H 0.66221 0.81849 0.26745 0.0
H647 H 0.71811 0.82562 0.24077 0.0
H648 H 0.7199 0.82833 0.29276 0.0
H649 H 0.73746 0.82972 0.26665 0.0
H650 H 0.69456 0.85106 0.42382 0.0
H651 H 0.63905 0.84214 0.45206 0.0
H652 H 0.63429 0.83658 0.4002 0.0
H653 H 0.61792 0.83573 0.42678 0.0
Tb654 Tb 0.19317 0.84303 0.36649 0.0
C655 C 0.14215 0.86685 0.31836 0.0
C656 C 0.10454 0.83988 0.32264 0.0
C657 C 0.11331 0.87528 0.31378 0.0
C658 C 0.12701 0.84656 0.323 0.0
C659 C 0.13552 0.8813 0.31315 0.0
C660 C 0.09781 0.85456 0.31854 0.0
C661 C 0.17278 0.90528 0.30513 0.0
N662 N 0.16331 0.87179 0.31764 0.0
C663 C 0.17847 0.89029 0.31036 0.0
C664 C 0.15128 0.90094 0.30681 0.0
Tb665 Tb 0.17153 0.84678 0.32703 0.0
N666 N 0.13426 0.83286 0.32657 0.0
C667 C 0.11956 0.81164 0.32852 0.0
C668 C 0.08953 0.81848 0.32575 0.0
C669 C 0.09708 0.80422 0.32839 0.0
H670 H 0.19516 0.89385 0.30909 0.0
H671 H 0.08561 0.78751 0.33043 0.0
H672 H 0.08065 0.84984 0.31844 0.0
H673 H 0.18499 0.92017 0.29982 0.0
H674 H 0.12494 0.80031 0.33071 0.0
H675 H 0.27878 0.90311 0.36399 0.0
H676 H 0.07213 0.81269 0.32566 0.0
H677 H 0.169 0.79416 0.38163 0.0
H678 H 0.2393 0.88984 0.36323 0.0
H679 H 0.17947 0.7678 0.3902 0.0
H680 H 0.10788 0.88623 0.31004 0.0
H681 H 0.2926 0.87824 0.36896 0.0
H682 H 0.28441 0.8411 0.37581 0.0
H683 H 0.14688 0.91251 0.30266 0.0
H684 H 0.25732 0.80417 0.38305 0.0
N685 N 0.23039 0.8574 0.36734 0.0
C686 C 0.2449 0.87868 0.3655 0.0
C687 C 0.27516 0.87226 0.36866 0.0
C688 C 0.26029 0.85075 0.37153 0.0
C689 C 0.26741 0.88635 0.3659 0.0
C690 C 0.23777 0.8438 0.3709 0.0
H691 H 0.21812 0.77676 0.38876 0.0
N692 N 0.20132 0.81765 0.375 0.0
C693 C 0.19178 0.78329 0.38584 0.0
C694 C 0.22267 0.82314 0.37489 0.0
C695 C 0.18592 0.79829 0.38102 0.0
C696 C 0.2136 0.78838 0.38497 0.0
C697 C 0.22943 0.80865 0.3797 0.0
O698 O 0.17821 0.83547 0.38958 0.0
O699 O 0.16638 0.842 0.35299 0.0
O700 O 0.17687 0.87477 0.34093 0.0
O701 O 0.20063 0.87594 0.36153 0.0
O702 O 0.15857 0.82059 0.37142 0.0
O703 O 0.2059 0.86649 0.38488 0.0
O704 O 0.18623 0.85298 0.30383 0.0
O705 O 0.19841 0.84832 0.34068 0.0
O706 O 0.18969 0.81658 0.35152 0.0
O707 O 0.16325 0.81382 0.33302 0.0
O708 O 0.20617 0.869 0.32185 0.0
O709 O 0.15858 0.82239 0.30936 0.0
C710 C 0.15043 0.82748 0.36061 0.0
C711 C 0.20136 0.85341 0.41183 0.0
C712 C 0.20094 0.85656 0.44153 0.0
C713 C 0.19252 0.85701 0.42601 0.0
C714 C 0.21824 0.85223 0.44257 0.0
C715 C 0.21871 0.84932 0.41318 0.0
C716 C 0.22703 0.84867 0.42848 0.0
C717 C 0.19084 0.88446 0.35307 0.0
C718 C 0.19219 0.85388 0.39581 0.0
C719 C 0.25177 0.81512 0.37957 0.0
C720 C 0.26719 0.83614 0.37546 0.0
C721 C 0.2144 0.86269 0.33302 0.0
C722 C 0.16223 0.83438 0.28217 0.0
C723 C 0.17073 0.83068 0.26783 0.0
C724 C 0.16165 0.83066 0.25248 0.0
C725 C 0.14408 0.83463 0.25177 0.0
C726 C 0.14459 0.83806 0.28114 0.0
C727 C 0.13564 0.83826 0.26601 0.0
C728 C 0.17443 0.80593 0.34039 0.0
C729 C 0.17198 0.8344 0.29807 0.0
H730 H 0.17932 0.86049 0.42491 0.0
H731 H 0.22487 0.8514 0.4543 0.0
H732 H 0.22586 0.84669 0.40246 0.0
H733 H 0.24036 0.84539 0.42942 0.0
H734 H 0.18417 0.82753 0.26869 0.0
H735 H 0.13697 0.83514 0.24017 0.0
H736 H 0.13767 0.84072 0.29198 0.0
H737 H 0.1221 0.84125 0.26531 0.0
Tb738 Tb 0.82804 0.65907 0.66151 0.0
C739 C 0.87819 0.73221 0.71031 0.0
C740 C 0.91598 0.74139 0.70815 0.0
C741 C 0.90695 0.76861 0.71552 0.0
C742 C 0.89352 0.72636 0.70691 0.0
C743 C 0.88463 0.75327 0.71501 0.0
C744 C 0.92262 0.76267 0.71209 0.0
C745 C 0.84663 0.74193 0.71967 0.0
N746 N 0.85686 0.71685 0.70982 0.0
C747 C 0.8411 0.72121 0.71504 0.0
C748 C 0.86848 0.7581 0.71946 0.0
Tb749 Tb 0.84922 0.6836 0.70131 0.0
N750 N 0.88637 0.70563 0.70326 0.0
C751 C 0.90102 0.69857 0.70187 0.0
C752 C 0.93103 0.73444 0.70583 0.0
C753 C 0.92349 0.71287 0.70292 0.0
H754 H 0.82415 0.70888 0.71513 0.0
H755 H 0.93497 0.70724 0.70139 0.0
H756 H 0.9398 0.77451 0.7129 0.0
H757 H 0.83405 0.7454 0.72338 0.0
H758 H 0.89561 0.68204 0.69948 0.0
H759 H 0.74225 0.63515 0.66319 0.0
H760 H 0.94844 0.74548 0.70661 0.0
H761 H 0.85267 0.6342 0.64615 0.0
H762 H 0.78165 0.66049 0.66429 0.0
H763 H 0.84262 0.59784 0.6373 0.0
H764 H 0.91227 0.78495 0.71894 0.0
H765 H 0.72873 0.5969 0.65799 0.0
H766 H 0.73728 0.56796 0.65104 0.0
H767 H 0.87274 0.77411 0.72313 0.0
H768 H 0.76469 0.55776 0.64388 0.0
N769 N 0.79085 0.63694 0.66015 0.0
C770 C 0.7762 0.64394 0.66192 0.0
C771 C 0.74614 0.60799 0.65844 0.0
C772 C 0.76116 0.60111 0.65564 0.0
C773 C 0.75372 0.62957 0.66133 0.0
C774 C 0.78364 0.61621 0.65647 0.0
H775 H 0.80405 0.56891 0.6384 0.0
N776 N 0.82019 0.62591 0.65261 0.0
C777 C 0.83015 0.60115 0.64163 0.0
C778 C 0.7989 0.61047 0.65253 0.0
C779 C 0.83578 0.62177 0.64662 0.0
C780 C 0.80838 0.58484 0.64232 0.0
C781 C 0.79237 0.58948 0.64756 0.0
O782 O 0.84351 0.66714 0.6386 0.0
O783 O 0.85482 0.68318 0.67556 0.0
O784 O 0.84686 0.70697 0.68597 0.0
O785 O 0.82016 0.68429 0.66743 0.0
O786 O 0.86265 0.67011 0.65662 0.0
O787 O 0.81582 0.67104 0.64344 0.0
O788 O 0.83392 0.67639 0.72429 0.0
O789 O 0.82253 0.65931 0.68731 0.0
O790 O 0.83148 0.63587 0.67634 0.0
O791 O 0.85726 0.65848 0.69554 0.0
O792 O 0.81457 0.67259 0.70597 0.0
O793 O 0.86068 0.67099 0.71943 0.0
C794 C 0.87078 0.68416 0.66802 0.0
C795 C 0.82076 0.66324 0.61628 0.0
C796 C 0.82074 0.66752 0.58662 0.0
C797 C 0.82892 0.67604 0.60227 0.0
C798 C 0.80446 0.64591 0.58534 0.0
C799 C 0.80435 0.64189 0.61462 0.0
C800 C 0.79632 0.63328 0.59924 0.0
C801 C 0.83178 0.70308 0.67476 0.0
C802 C 0.82972 0.67222 0.63249 0.0
C803 C 0.77007 0.57405 0.64749 0.0
C804 C 0.75447 0.57986 0.65155 0.0
C805 C 0.80649 0.65827 0.69476 0.0
C806 C 0.85632 0.67917 0.74661 0.0
C807 C 0.84842 0.66605 0.76047 0.0
C808 C 0.8571 0.67412 0.7761 0.0
C809 C 0.87366 0.69559 0.77756 0.0
C810 C 0.87289 0.70043 0.74842 0.0
C811 C 0.88146 0.70858 0.76381 0.0
C812 C 0.84633 0.63987 0.68781 0.0
C813 C 0.8471 0.6705 0.73039 0.0
H814 H 0.8414 0.69263 0.60361 0.0
H815 H 0.79812 0.63862 0.57355 0.0
H816 H 0.79778 0.63184 0.62518 0.0
H817 H 0.78377 0.61672 0.59807 0.0
H818 H 0.83576 0.64954 0.75904 0.0
H819 H 0.88043 0.70247 0.78937 0.0
H820 H 0.8792 0.71075 0.73797 0.0
H821 H 0.89417 0.72507 0.7651 0.0
Tb822 Tb 0.35807 0.16545 0.66443 0.0
C823 C 0.28069 0.1421 0.70987 0.0
C824 C 0.27066 0.16912 0.70555 0.0
C825 C 0.24299 0.13335 0.71343 0.0
C826 C 0.28641 0.16257 0.70552 0.0
C827 C 0.25903 0.12731 0.71423 0.0
C828 C 0.2488 0.15424 0.7091 0.0
C829 C 0.27119 0.1025 0.72123 0.0
N830 N 0.29674 0.13706 0.71067 0.0
C831 C 0.29247 0.11781 0.71688 0.0
C832 C 0.25433 0.10717 0.71971 0.0
Tb833 Tb 0.33096 0.16284 0.70271 0.0
N834 N 0.30773 0.17644 0.70235 0.0
C835 C 0.31464 0.19762 0.70027 0.0
C836 C 0.2775 0.19054 0.70251 0.0
C837 C 0.29965 0.20491 0.70013 0.0
H838 H 0.30535 0.11398 0.718 0.0
H839 H 0.30519 0.2216 0.69807 0.0
H840 H 0.23641 0.15889 0.70896 0.0
H841 H 0.26781 0.08712 0.72574 0.0
H842 H 0.33164 0.20899 0.69828 0.0
H843 H 0.38372 0.10663 0.66959 0.0
H844 H 0.26593 0.19622 0.70236 0.0
H845 H 0.38363 0.21406 0.64874 0.0
H846 H 0.3573 0.11927 0.66915 0.0
H847 H 0.42111 0.24073 0.6407 0.0
H848 H 0.22619 0.12217 0.71657 0.0
H849 H 0.42298 0.13192 0.66517 0.0
H850 H 0.45248 0.16912 0.65822 0.0
H851 H 0.23788 0.09533 0.72316 0.0
H852 H 0.4627 0.20572 0.65024 0.0
N853 N 0.38123 0.15177 0.66489 0.0
C854 C 0.37429 0.1306 0.66712 0.0
C855 C 0.41142 0.13762 0.66493 0.0
C856 C 0.41826 0.15899 0.6617 0.0
C857 C 0.38927 0.1233 0.66739 0.0
C858 C 0.40254 0.16557 0.66163 0.0
H859 H 0.45102 0.23249 0.64337 0.0
N860 N 0.39226 0.19108 0.65631 0.0
C861 C 0.41774 0.22542 0.64538 0.0
C862 C 0.40827 0.186 0.65713 0.0
C863 C 0.3965 0.21023 0.6499 0.0
C864 C 0.43459 0.22073 0.64694 0.0
C865 C 0.4299 0.20068 0.65263 0.0
O866 O 0.35128 0.17165 0.6407 0.0
O867 O 0.33222 0.16738 0.67675 0.0
O868 O 0.30797 0.13612 0.68753 0.0
O869 O 0.33218 0.13254 0.67029 0.0
O870 O 0.34619 0.18737 0.65764 0.0
O871 O 0.34735 0.141 0.64688 0.0
O872 O 0.33719 0.15655 0.72659 0.0
O873 O 0.35682 0.16092 0.69039 0.0
O874 O 0.38103 0.19231 0.67945 0.0
O875 O 0.3568 0.19578 0.69678 0.0
O876 O 0.34282 0.14092 0.70948 0.0
O877 O 0.34229 0.18754 0.72007 0.0
C878 C 0.3311 0.18138 0.6684 0.0
C879 C 0.35738 0.153 0.61979 0.0
C880 C 0.35571 0.15046 0.59004 0.0
C881 C 0.34599 0.15013 0.6051 0.0
C882 C 0.37713 0.15383 0.58996 0.0
C883 C 0.37862 0.15612 0.61943 0.0
C884 C 0.38844 0.15659 0.60458 0.0
C885 C 0.31258 0.12506 0.67697 0.0
C886 C 0.34691 0.15303 0.63525 0.0
C887 C 0.44592 0.19462 0.65349 0.0
C888 C 0.44011 0.17379 0.65803 0.0
C889 C 0.35794 0.14692 0.69874 0.0
C890 C 0.332 0.17622 0.74723 0.0
C891 C 0.34392 0.18075 0.76184 0.0
C892 C 0.33443 0.1813 0.7768 0.0
C893 C 0.31274 0.17719 0.77685 0.0
C894 C 0.31048 0.17232 0.74756 0.0
C895 C 0.30092 0.17279 0.76231 0.0
C896 C 0.37635 0.20337 0.68996 0.0
C897 C 0.34225 0.17545 0.73185 0.0
H898 H 0.32943 0.14735 0.60547 0.0
H899 H 0.38524 0.15453 0.57859 0.0
H900 H 0.38761 0.15818 0.63056 0.0
H901 H 0.40489 0.15914 0.6044 0.0
H902 H 0.36067 0.18406 0.76148 0.0
H903 H 0.30478 0.17709 0.78815 0.0
H904 H 0.30107 0.16894 0.7365 0.0
H905 H 0.28425 0.16964 0.76247 0.0
Tb906 Tb 0.86069 0.17455 0.69908 0.0
C907 C 0.80993 0.19869 0.65078 0.0
C908 C 0.77224 0.1719 0.65505 0.0
C909 C 0.78125 0.20732 0.64605 0.0
C910 C 0.79468 0.17845 0.65546 0.0
C911 C 0.80344 0.21321 0.64549 0.0
C912 C 0.76565 0.18667 0.65085 0.0
C913 C 0.84076 0.23699 0.63751 0.0
N914 N 0.83104 0.2035 0.65014 0.0
C915 C 0.84631 0.22194 0.64284 0.0
C916 C 0.8193 0.23279 0.63912 0.0
Tb917 Tb 0.83904 0.17839 0.65967 0.0
N918 N 0.8018 0.16469 0.65912 0.0
C919 C 0.78699 0.14349 0.66111 0.0
C920 C 0.75712 0.15055 0.65821 0.0
C921 C 0.76454 0.13621 0.66094 0.0
H922 H 0.86297 0.22541 0.64162 0.0
H923 H 0.75298 0.11953 0.66302 0.0
H924 H 0.74851 0.18204 0.6507 0.0
H925 H 0.85305 0.25183 0.63218 0.0
H926 H 0.79226 0.1321 0.66337 0.0
H927 H 0.94625 0.23481 0.69674 0.0
H928 H 0.73974 0.14487 0.65809 0.0
H929 H 0.83669 0.1256 0.71405 0.0
H930 H 0.90675 0.22144 0.69604 0.0
H931 H 0.84726 0.09919 0.72231 0.0
H932 H 0.77593 0.21833 0.64224 0.0
H933 H 0.96016 0.20994 0.70134 0.0
H934 H 0.95208 0.17273 0.7078 0.0
H935 H 0.815 0.2444 0.63489 0.0
H936 H 0.92506 0.13569 0.71483 0.0
N937 N 0.89793 0.18898 0.69985 0.0
C938 C 0.91239 0.21029 0.69816 0.0
C939 C 0.94272 0.20392 0.70108 0.0
C940 C 0.92789 0.18235 0.70378 0.0
C941 C 0.93492 0.21801 0.69853 0.0
C942 C 0.90536 0.17536 0.7032 0.0
H943 H 0.8859 0.10819 0.7206 0.0
N944 N 0.86894 0.14912 0.70731 0.0
C945 C 0.85953 0.11471 0.71797 0.0
C946 C 0.89029 0.15464 0.70707 0.0
C947 C 0.85361 0.12973 0.71332 0.0
C948 C 0.88134 0.11982 0.71693 0.0
C949 C 0.89712 0.14014 0.71171 0.0
O950 O 0.8459 0.1668 0.72223 0.0
O951 O 0.83386 0.17359 0.68565 0.0
O952 O 0.8444 0.2064 0.67355 0.0
O953 O 0.86803 0.20746 0.69423 0.0
O954 O 0.82612 0.15212 0.70405 0.0
O955 O 0.87348 0.19789 0.71756 0.0
O956 O 0.85387 0.18435 0.63654 0.0
O957 O 0.86593 0.17991 0.67328 0.0
O958 O 0.85716 0.14816 0.68399 0.0
O959 O 0.83054 0.14541 0.66571 0.0
O960 O 0.87369 0.2006 0.65447 0.0
O961 O 0.82591 0.15396 0.64204 0.0
C962 C 0.81794 0.15903 0.69329 0.0
C963 C 0.86931 0.18453 0.7444 0.0
C964 C 0.86968 0.18779 0.77413 0.0
C965 C 0.8611 0.18856 0.75875 0.0
C966 C 0.88647 0.18269 0.77484 0.0
C967 C 0.88623 0.17979 0.74544 0.0
C968 C 0.89468 0.1788 0.76059 0.0
C969 C 0.85832 0.21604 0.68573 0.0
C970 C 0.85991 0.18516 0.72851 0.0
C971 C 0.91947 0.14665 0.71149 0.0
C972 C 0.93485 0.16774 0.70751 0.0
C973 C 0.88194 0.19429 0.66562 0.0
C974 C 0.83009 0.16577 0.61477 0.0
C975 C 0.83848 0.16145 0.60066 0.0
C976 C 0.82982 0.1615 0.58515 0.0
C977 C 0.81271 0.16611 0.58406 0.0
C978 C 0.81292 0.17011 0.61338 0.0
C979 C 0.80434 0.17034 0.59809 0.0
C980 C 0.84178 0.1375 0.67294 0.0
C981 C 0.83953 0.16579 0.6308 0.0
H982 H 0.84827 0.19258 0.75788 0.0
H983 H 0.89317 0.18153 0.78644 0.0
H984 H 0.89293 0.17688 0.7346 0.0
H985 H 0.90764 0.17497 0.76128 0.0
H986 H 0.85154 0.15779 0.60182 0.0
H987 H 0.80593 0.16669 0.57233 0.0
H988 H 0.80612 0.17329 0.62406 0.0
H989 H 0.79117 0.17384 0.5971 0.0
C990 C 0.30666 0.8441 0.08014 0.0
C991 C 0.28946 0.8297 0.06997 0.0
C992 C 0.3256 0.86097 0.07352 0.0
C993 C 0.36078 0.87792 0.03829 0.0
H994 H 0.37989 0.93553 0.05318 0.0
C995 C 0.43139 0.96953 0.02224 0.0
C996 C 0.45034 0.96831 0.02496 0.0
C997 C 0.41086 0.95224 0.02604 0.0
C998 C 0.37464 0.91954 0.04884 0.0
H999 H 0.27914 0.82203 0.04465 0.0
H1000 H 0.31275 0.85092 0.03318 0.0
H1001 H 0.34572 0.90582 0.06352 0.0
H1002 H 0.4631 0.94902 0.03484 0.0
H1003 H 0.42713 0.91841 0.04099 0.0
H1004 H 0.39021 0.8916 0.02411 0.0
C1005 C 0.31125 0.8491 0.04631 0.0
C1006 C 0.35523 0.90258 0.05482 0.0
C1007 C 0.29206 0.83246 0.05293 0.0
C1008 C 0.44858 0.94985 0.03194 0.0
C1009 C 0.42808 0.93246 0.03553 0.0
C1010 C 0.38047 0.89485 0.03258 0.0
C1011 C 0.32807 0.86362 0.05656 0.0
C1012 C 0.34818 0.88161 0.04966 0.0
C1013 C 0.40906 0.93357 0.03274 0.0
C1014 C 0.38759 0.91579 0.03786 0.0
H1015 H 0.30563 0.8423 0.09327 0.0
H1016 H 0.3385 0.87182 0.08166 0.0
H1017 H 0.3557 0.86187 0.03419 0.0
H1018 H 0.43252 0.98396 0.01739 0.0
H1019 H 0.39642 0.95352 0.02393 0.0
C1020 C 0.19542 0.48302 0.06404 0.0
C1021 C 0.19168 0.46394 0.07137 0.0
C1022 C 0.17787 0.48526 0.05841 0.0
C1023 C 0.11806 0.46184 0.06446 0.0
H1024 H 0.12082 0.49327 0.02544 0.0
C1025 C 0.04173 0.46114 0.0386 0.0
C1026 C 0.04414 0.48049 0.03297 0.0
C1027 C 0.06004 0.45935 0.04248 0.0
C1028 C 0.11988 0.4846 0.03645 0.0
H1029 H 0.16665 0.43184 0.07761 0.0
H1030 H 0.13628 0.43558 0.06768 0.0
H1031 H 0.15228 0.48967 0.03331 0.0
H1032 H 0.06764 0.51358 0.02811 0.0
H1033 H 0.09969 0.51045 0.03466 0.0
H1034 H 0.08575 0.45671 0.06763 0.0
C1035 C 0.15264 0.4491 0.0667 0.0
C1036 C 0.13792 0.48255 0.04098 0.0
C1037 C 0.17009 0.44692 0.07236 0.0
C1038 C 0.06527 0.49825 0.03179 0.0
C1039 C 0.08364 0.49645 0.03561 0.0
C1040 C 0.10007 0.46383 0.05992 0.0
C1041 C 0.15618 0.46842 0.05993 0.0
C1042 C 0.13721 0.47102 0.05502 0.0
C1043 C 0.08126 0.47699 0.04108 0.0
C1044 C 0.10067 0.47514 0.04583 0.0
H1045 H 0.21185 0.49646 0.06315 0.0
H1046 H 0.18127 0.50042 0.05337 0.0
H1047 H 0.11701 0.45329 0.07556 0.0
H1048 H 0.02561 0.44732 0.0399 0.0
H1049 H 0.05757 0.44408 0.04654 0.0
C1050 C 0.54869 0.71709 0.07848 0.0
C1051 C 0.55782 0.73507 0.06827 0.0
C1052 C 0.54464 0.69732 0.07263 0.0
C1053 C 0.53492 0.66523 0.03587 0.0
H1054 H 0.55829 0.63609 0.06142 0.0
C1055 C 0.53292 0.58889 0.01245 0.0
C1056 C 0.52933 0.57316 0.02393 0.0
C1057 C 0.53642 0.60881 0.01753 0.0
C1058 C 0.55132 0.64379 0.05424 0.0
H1059 H 0.56928 0.74609 0.0437 0.0
H1060 H 0.56154 0.71131 0.03339 0.0
H1061 H 0.56328 0.67015 0.07085 0.0
H1062 H 0.52643 0.56567 0.04968 0.0
H1063 H 0.53185 0.60008 0.05861 0.0
H1064 H 0.52243 0.63868 0.01946 0.0
C1065 C 0.55768 0.71269 0.04596 0.0
C1066 C 0.55429 0.66336 0.05963 0.0
C1067 C 0.56201 0.73257 0.05187 0.0
C1068 C 0.52936 0.57764 0.04059 0.0
C1069 C 0.53256 0.59742 0.04568 0.0
C1070 C 0.53166 0.64547 0.03057 0.0
C1071 C 0.54931 0.69498 0.05638 0.0
C1072 C 0.5461 0.67425 0.05052 0.0
C1073 C 0.5362 0.61331 0.03422 0.0
C1074 C 0.53981 0.63447 0.03971 0.0
H1075 H 0.54474 0.71827 0.09105 0.0
H1076 H 0.53785 0.68382 0.08084 0.0
H1077 H 0.52832 0.67326 0.02868 0.0
H1078 H 0.53361 0.58605 0.9996 0.0
H1079 H 0.53966 0.62076 0.00836 0.0
C1080 C 0.82065 0.29103 0.96358 0.0
C1081 C 0.82642 0.27594 0.95854 0.0
C1082 C 0.83647 0.3107 0.97001 0.0
C1083 C 0.89016 0.33805 0.99009 0.0
H1084 H 0.89547 0.38957 0.97132 0.0
C1085 C 0.94856 0.42285 0.01553 0.0
C1086 C 0.96152 0.43816 0.00392 0.0
C1087 C 0.93165 0.40284 0.0106 0.0
C1088 C 0.89416 0.3753 0.97666 0.0
H1089 H 0.85298 0.26922 0.9568 0.0
H1090 H 0.88053 0.30341 0.96828 0.0
H1091 H 0.8662 0.35472 0.96207 0.0
H1092 H 0.96713 0.44465 0.97806 0.0
H1093 H 0.93736 0.40975 0.9694 0.0
H1094 H 0.91814 0.35863 0.00467 0.0
C1095 C 0.86385 0.30012 0.96715 0.0
C1096 C 0.87733 0.3554 0.97148 0.0
C1097 C 0.84814 0.28064 0.96049 0.0
C1098 C 0.95738 0.43309 0.98727 0.0
C1099 C 0.94027 0.41321 0.98232 0.0
C1100 C 0.90679 0.35796 0.99545 0.0
C1101 C 0.85825 0.31546 0.9718 0.0
C1102 C 0.8753 0.33657 0.97802 0.0
C1103 C 0.92721 0.39789 0.99394 0.0
C1104 C 0.9091 0.37678 0.98867 0.0
H1105 H 0.80403 0.28783 0.96214 0.0
H1106 H 0.8317 0.32221 0.97359 0.0
H1107 H 0.88891 0.32378 0.99538 0.0
H1108 H 0.95173 0.42612 0.02839 0.0
H1109 H 0.92186 0.39133 0.01982 0.0
C1110 C 0.73029 0.56408 0.95726 0.0
C1111 C 0.73412 0.54682 0.95812 0.0
C1112 C 0.71077 0.56219 0.96297 0.0
C1113 C 0.66194 0.52907 0.98877 0.0
H1114 H 0.63651 0.55577 0.9626 0.0
C1115 C 0.57344 0.51402 0.99801 0.0
C1116 C 0.57049 0.53177 0.99661 0.0
C1117 C 0.5937 0.5158 0.99444 0.0
C1118 C 0.64348 0.54843 0.97019 0.0
H1119 H 0.72045 0.51411 0.96609 0.0
H1120 H 0.6862 0.5107 0.97597 0.0
H1121 H 0.67102 0.55887 0.95447 0.0
H1122 H 0.58608 0.56501 0.98984 0.0
H1123 H 0.62142 0.56823 0.98368 0.0
H1124 H 0.63405 0.51845 0.0044 0.0
C1125 C 0.69846 0.52583 0.971 0.0
C1126 C 0.66335 0.55022 0.96553 0.0
C1127 C 0.7181 0.52776 0.96532 0.0
C1128 C 0.58802 0.55117 0.99125 0.0
C1129 C 0.60821 0.55295 0.98764 0.0
C1130 C 0.64195 0.52723 0.99343 0.0
C1131 C 0.69438 0.54294 0.96969 0.0
C1132 C 0.67298 0.54069 0.97478 0.0
C1133 C 0.6113 0.53526 0.98905 0.0
C1134 C 0.63252 0.53699 0.98423 0.0
H1135 H 0.74245 0.57915 0.95212 0.0
H1136 H 0.70854 0.57591 0.96211 0.0
H1137 H 0.66891 0.52168 0.9963 0.0
H1138 H 0.56005 0.49867 1.00154 0.0
H1139 H 0.59537 0.50177 0.99544 0.0
C1140 C 0.4636 0.17213 0.95187 0.0
C1141 C 0.45603 0.18265 0.96208 0.0
C1142 C 0.46626 0.15554 0.95785 0.0
C1143 C 0.47341 0.13211 0.9956 0.0
H1144 H 0.45542 0.08266 0.9678 0.0
C1145 C 0.47776 0.05699 0.01531 0.0
C1146 C 0.486 0.04895 0.00341 0.0
C1147 C 0.47291 0.07298 0.0113 0.0
C1148 C 0.46063 0.09641 0.97567 0.0
H1149 H 0.44545 0.18408 0.98664 0.0
H1150 H 0.45019 0.15505 0.99712 0.0
H1151 H 0.44929 0.11129 0.95886 0.0
H1152 H 0.49715 0.0522 0.9785 0.0
H1153 H 0.4883 0.0796 0.97133 0.0
H1154 H 0.48495 0.11717 0.01236 0.0
C1155 C 0.45421 0.15979 0.98451 0.0
C1156 C 0.45716 0.11283 0.97054 0.0
C1157 C 0.45152 0.17642 0.97851 0.0
C1158 C 0.48984 0.05743 0.98764 0.0
C1159 C 0.48494 0.07325 0.9836 0.0
C1160 C 0.47688 0.11561 1.00076 0.0
C1161 C 0.46143 0.14905 0.97419 0.0
C1162 C 0.46386 0.13104 0.98029 0.0
C1163 C 0.47624 0.0811 0.99533 0.0
C1164 C 0.47089 0.09778 0.9907 0.0
H1165 H 0.46764 0.17684 0.93925 0.0
H1166 H 0.47231 0.1479 0.94968 0.0
H1167 H 0.47886 0.146 0.00335 0.0
H1168 H 0.47467 0.05064 0.02757 0.0
H1169 H 0.46619 0.07871 0.02058 0.0
C1170 C 0.71545 0.18458 0.97872 0.0
C1171 C 0.73047 0.17893 0.97272 0.0
C1172 C 0.69373 0.16893 0.98157 0.0
C1173 C 0.65269 0.11293 0.97114 0.0
H1174 H 0.62289 0.11669 0.00961 0.0
C1175 C 0.57052 0.04282 0.99234 0.0
C1176 C 0.55445 0.04766 0.99712 0.0
C1177 C 0.59195 0.05914 0.98971 0.0
C1178 C 0.63095 0.11554 0.99874 0.0
H1179 H 0.73465 0.15261 0.9649 0.0
H1180 H 0.69694 0.12525 0.97009 0.0
H1181 H 0.66035 0.14473 0.00414 0.0
H1182 H 0.54742 0.07303 1.00175 0.0
H1183 H 0.58516 0.10178 0.99753 0.0
H1184 H 0.62341 0.08364 0.96586 0.0
C1185 C 0.70171 0.14175 0.97237 0.0
C1186 C 0.6524 0.13162 0.99557 0.0
C1187 C 0.72337 0.1574 0.96948 0.0
C1188 C 0.55986 0.06902 0.99868 0.0
C1189 C 0.58137 0.08539 0.99624 0.0
C1190 C 0.63135 0.09684 0.97436 0.0
C1191 C 0.6866 0.14729 0.97851 0.0
C1192 C 0.66358 0.13048 0.98175 0.0
C1193 C 0.59762 0.08061 0.9916 0.0
C1194 C 0.62026 0.09791 0.98822 0.0
H1195 H 0.72059 0.20111 0.98129 0.0
H1196 H 0.6825 0.17382 0.98607 0.0
H1197 H 0.66059 0.1117 0.96022 0.0
H1198 H 0.56641 0.02641 0.99048 0.0
H1199 H 0.60409 0.05494 0.98619 0.0
C1200 C 0.85228 0.55695 0.96819 0.0
C1201 C 0.83091 0.54204 0.97292 0.0
C1202 C 0.86929 0.55247 0.97004 0.0
C1203 C 0.88454 0.51756 0.99318 0.0
H1204 H 0.9325 0.53961 0.96246 0.0
C1205 C 0.95614 0.49975 0.99807 0.0
C1206 C 0.97718 0.51744 0.99624 0.0
C1207 C 0.9376 0.50142 0.99456 0.0
C1208 C 0.9193 0.53345 0.97122 0.0
H1209 H 0.81042 0.51049 0.98274 0.0
H1210 H 0.84002 0.50235 0.98567 0.0
H1211 H 0.90133 0.54451 0.95723 0.0
H1212 H 0.99539 0.55021 0.98823 0.0
H1213 H 0.96315 0.55319 0.98207 0.0
H1214 H 0.90263 0.50645 0.00711 0.0
C1215 C 0.84379 0.51773 0.98086 0.0
C1216 C 0.9014 0.5363 0.96824 0.0
C1217 C 0.82678 0.52227 0.97906 0.0
C1218 C 0.97934 0.53646 0.99003 0.0
C1219 C 0.96087 0.5381 0.98642 0.0
C1220 C 0.90241 0.51459 0.9961 0.0
C1221 C 0.86538 0.53288 0.97657 0.0
C1222 C 0.88386 0.52865 0.97927 0.0
C1223 C 0.93975 0.52066 0.98876 0.0
C1224 C 0.92014 0.52274 0.98525 0.0
H1225 H 0.85595 0.57233 0.96344 0.0
H1226 H 0.88565 0.56469 0.96679 0.0
H1227 H 0.87156 0.51169 1.0021 0.0
H1228 H 0.95398 0.48467 1.00229 0.0
H1229 H 0.92159 0.48758 0.99626 0.0
C1230 C 0.47344 0.29009 0.99048 0.0
C1231 C 0.4549 0.277 0.98104 0.0
C1232 C 0.48004 0.31161 0.99279 0.0
C1233 C 0.47377 0.3556 0.9756 0.0
H1234 H 0.49392 0.38082 0.01843 0.0
C1235 C 0.48507 0.43768 0.99381 0.0
C1236 C 0.50375 0.45128 1.00301 0.0
C1237 C 0.47981 0.41668 0.99062 0.0
C1238 C 0.48855 0.37407 0.00635 0.0
H1239 H 0.42909 0.27604 0.96614 0.0
H1240 H 0.44023 0.31352 0.97044 0.0
H1241 H 0.48331 0.34361 0.01389 0.0
H1242 H 0.5321 0.45373 0.01541 0.0
H1243 H 0.52272 0.41703 0.01007 0.0
H1244 H 0.47874 0.38605 0.96817 0.0
C1245 C 0.44982 0.3073 0.97599 0.0
C1246 C 0.48251 0.35275 0.00373 0.0
C1247 C 0.4433 0.28582 0.97364 0.0
C1248 C 0.5173 0.44355 0.00865 0.0
C1249 C 0.51196 0.42252 0.00555 0.0
C1250 C 0.47972 0.3769 0.97824 0.0
C1251 C 0.46824 0.32045 0.98564 0.0
C1252 C 0.475 0.34324 0.98833 0.0
C1253 C 0.4931 0.40883 0.99658 0.0
C1254 C 0.48713 0.38634 0.99366 0.0
H1255 H 0.48282 0.28365 0.99605 0.0
H1256 H 0.49453 0.32136 1.00003 0.0
H1257 H 0.46842 0.34889 0.96351 0.0
H1258 H 0.4743 0.44311 0.98923 0.0
H1259 H 0.46508 0.40645 0.98377 0.0
C1260 C 0.17289 0.72355 0.05993 0.0
C1261 C 0.19393 0.7319 0.05341 0.0
C1262 C 0.15709 0.70222 0.05725 0.0
C1263 C 0.14371 0.65728 0.02906 0.0
H1264 H 0.1012 0.62393 0.06216 0.0
C1265 C 0.08211 0.56759 0.02063 0.0
C1266 C 0.06041 0.5604 0.02533 0.0
C1267 C 0.09867 0.58821 0.02451 0.0
C1268 C 0.11284 0.6331 0.05274 0.0
H1269 H 0.21542 0.72442 0.03977 0.0
H1270 H 0.18797 0.68698 0.03526 0.0
H1271 H 0.12993 0.66021 0.06844 0.0
H1272 H 0.03924 0.56922 0.03816 0.0
H1273 H 0.06818 0.60521 0.04496 0.0
H1274 H 0.12663 0.63015 0.01338 0.0
C1275 C 0.18342 0.697 0.04206 0.0
C1276 C 0.12932 0.65391 0.05634 0.0
C1277 C 0.19918 0.71836 0.04471 0.0
C1278 C 0.05575 0.57422 0.0343 0.0
C1279 C 0.07236 0.59483 0.03827 0.0
C1280 C 0.1273 0.63646 0.0255 0.0
C1281 C 0.16207 0.68872 0.04811 0.0
C1282 C 0.14492 0.66631 0.04452 0.0
C1283 C 0.09399 0.6021 0.03334 0.0
C1284 C 0.11161 0.62415 0.03727 0.0
H1285 H 0.16852 0.73365 0.06681 0.0
H1286 H 0.14081 0.69648 0.06198 0.0
H1287 H 0.15517 0.66646 0.01956 0.0
H1288 H 0.08642 0.55725 0.01405 0.0
H1289 H 0.11522 0.59317 0.02077 0.0
C1290 C 0.30722 0.48571 0.04958 0.0
C1291 C 0.29176 0.46594 0.05612 0.0
C1292 C 0.32887 0.49058 0.04707 0.0
C1293 C 0.36885 0.47316 0.05852 0.0
H1294 H 0.39865 0.50289 0.0191 0.0
C1295 C 0.44624 0.47396 0.03541 0.0
C1296 C 0.46347 0.49324 0.02957 0.0
C1297 C 0.42595 0.47196 0.03893 0.0
C1298 C 0.39064 0.49478 0.03025 0.0
H1299 H 0.28693 0.43594 0.06543 0.0
H1300 H 0.3244 0.44416 0.06087 0.0
H1301 H 0.36217 0.4971 0.02497 0.0
H1302 H 0.47339 0.526 0.02378 0.0
H1303 H 0.43767 0.52244 0.0296 0.0
H1304 H 0.3971 0.47043 0.06361 0.0
C1305 C 0.32007 0.45614 0.05788 0.0
C1306 C 0.36971 0.49149 0.03366 0.0
C1307 C 0.2985 0.45134 0.06042 0.0
C1308 C 0.46019 0.51075 0.02775 0.0
C1309 C 0.43977 0.50871 0.03115 0.0
C1310 C 0.38965 0.47632 0.05506 0.0
C1311 C 0.33558 0.47577 0.05104 0.0
C1312 C 0.3584 0.48042 0.04778 0.0
C1313 C 0.42241 0.48929 0.03684 0.0
C1314 C 0.40073 0.48697 0.04081 0.0
H1315 H 0.30243 0.49725 0.04617 0.0
H1316 H 0.34035 0.50597 0.04202 0.0
H1317 H 0.36098 0.46501 0.06969 0.0
H1318 H 0.44845 0.46032 0.03716 0.0
H1319 H 0.41293 0.45674 0.04316 0.0
C1320 C 0.56796 0.83609 0.03148 0.0
C1321 C 0.577 0.83688 0.04691 0.0
C1322 C 0.56308 0.85182 0.02683 0.0
C1323 C 0.57543 0.90661 0.03713 0.0
H1324 H 0.52133 0.8903 0.01405 0.0
C1325 C 0.53911 0.96196 0.03162 0.0
C1326 C 0.52949 0.96246 0.0167 0.0
C1327 C 0.54616 0.9473 0.03415 0.0
C1328 C 0.53665 0.89515 0.02028 0.0
H1329 H 0.58738 0.85409 0.06978 0.0
H1330 H 0.57865 0.88152 0.0618 0.0
H1331 H 0.53099 0.86324 0.0208 0.0
H1332 H 0.52009 0.94807 0.99263 0.0
H1333 H 0.53246 0.92243 0.9971 0.0
H1334 H 0.58089 0.93846 0.03686 0.0
C1335 C 0.57585 0.86912 0.0531 0.0
C1336 C 0.54219 0.87965 0.02416 0.0
C1337 C 0.58075 0.85342 0.05772 0.0
C1338 C 0.52742 0.94814 0.00427 0.0
C1339 C 0.53438 0.93335 0.00686 0.0
C1340 C 0.56986 0.92208 0.0333 0.0
C1341 C 0.56698 0.86854 0.03758 0.0
C1342 C 0.56154 0.88516 0.03278 0.0
C1343 C 0.54371 0.93271 0.02186 0.0
C1344 C 0.5503 0.9165 0.02498 0.0
H1345 H 0.56471 0.82332 0.02302 0.0
H1346 H 0.55642 0.85098 0.01475 0.0
H1347 H 0.59066 0.91146 0.0435 0.0
H1348 H 0.54103 0.97277 0.04147 0.0
H1349 H 0.55305 0.94705 0.04592 0.0
C1350 C 0.97585 0.17136 0.41468 0.0
C1351 C 0.95799 0.1596 0.40417 0.0
C1352 C 0.99513 0.18861 0.40885 0.0
C1353 C 0.02718 0.21315 0.37168 0.0
H1354 H 0.05316 0.26457 0.3981 0.0
C1355 C 0.09964 0.30746 0.36871 0.0
C1356 C 0.11735 0.30533 0.36349 0.0
C1357 C 0.07957 0.28945 0.37222 0.0
C1358 C 0.04603 0.2504 0.3905 0.0
H1359 H 0.9467 0.15664 0.37914 0.0
H1360 H 0.98056 0.18666 0.36894 0.0
H1361 H 0.0196 0.23341 0.40708 0.0
H1362 H 0.12822 0.28273 0.35845 0.0
H1363 H 0.09306 0.2512 0.36431 0.0
H1364 H 0.05378 0.23032 0.35509 0.0
C1365 C 0.97957 0.18241 0.3817 0.0
C1366 C 0.02693 0.23246 0.39575 0.0
C1367 C 0.96018 0.16519 0.38756 0.0
C1368 C 0.11467 0.28484 0.36192 0.0
C1369 C 0.09454 0.26678 0.36533 0.0
C1370 C 0.04646 0.23111 0.36648 0.0
C1371 C 0.99715 0.1945 0.39235 0.0
C1372 C 0.01732 0.21359 0.38646 0.0
C1373 C 0.07685 0.26891 0.37075 0.0
C1374 C 0.05609 0.24992 0.37586 0.0
H1375 H 0.97496 0.16724 0.42746 0.0
H1376 H 0.00853 0.19734 0.4173 0.0
H1377 H 0.02021 0.19881 0.36429 0.0
H1378 H 0.10141 0.32312 0.37022 0.0
H1379 H 0.06622 0.29161 0.37625 0.0
C1380 C 0.86023 0.81488 0.39578 0.0
C1381 C 0.85625 0.79544 0.40257 0.0
C1382 C 0.84288 0.81731 0.38994 0.0
C1383 C 0.78293 0.79344 0.39489 0.0
H1384 H 0.78666 0.82648 0.35662 0.0
C1385 C 0.70708 0.79337 0.36889 0.0
C1386 C 0.70948 0.81287 0.36367 0.0
C1387 C 0.72539 0.79155 0.37271 0.0
C1388 C 0.78544 0.81736 0.36742 0.0
H1389 H 0.83109 0.76292 0.40752 0.0
H1390 H 0.80108 0.76702 0.39723 0.0
H1391 H 0.81802 0.82274 0.36459 0.0
H1392 H 0.73292 0.84613 0.35939 0.0
H1393 H 0.76498 0.84297 0.36587 0.0
H1394 H 0.7505 0.78805 0.39779 0.0
C1395 C 0.81744 0.78064 0.39684 0.0
C1396 C 0.80342 0.81522 0.372 0.0
C1397 C 0.83469 0.77826 0.40271 0.0
C1398 C 0.73058 0.83071 0.36278 0.0
C1399 C 0.74896 0.82889 0.36656 0.0
C1400 C 0.76503 0.79554 0.39031 0.0
C1401 C 0.82118 0.80032 0.3907 0.0
C1402 C 0.80235 0.80309 0.38575 0.0
C1403 C 0.74658 0.8093 0.37166 0.0
C1404 C 0.76596 0.80741 0.37648 0.0
H1405 H 0.87664 0.82844 0.39554 0.0
H1406 H 0.84641 0.83273 0.38537 0.0
H1407 H 0.78161 0.78442 0.40577 0.0
H1408 H 0.69098 0.77946 0.36994 0.0
H1409 H 0.72292 0.77617 0.37646 0.0
C1410 C 0.20197 0.05082 0.39953 0.0
C1411 C 0.22249 0.06509 0.40624 0.0
C1412 C 0.1981 0.03149 0.39274 0.0
C1413 C 0.22538 0.00473 0.37461 0.0
H1414 H 0.17505 0.95245 0.38941 0.0
C1415 C 0.19909 0.92156 0.34697 0.0
C1416 C 0.19477 0.90551 0.35835 0.0
C1417 C 0.20224 0.94131 0.35213 0.0
C1418 C 0.18915 0.96694 0.38518 0.0
H1419 H 0.25523 0.07081 0.41071 0.0
H1420 H 0.24855 0.03717 0.39865 0.0
H1421 H 0.18089 0.98683 0.3993 0.0
H1422 H 0.19047 0.89734 0.384 0.0
H1423 H 0.19575 0.93184 0.39306 0.0
H1424 H 0.23369 0.98482 0.36053 0.0
C1425 C 0.23545 0.04084 0.39872 0.0
C1426 C 0.19239 0.98657 0.39072 0.0
C1427 C 0.23921 0.05997 0.40572 0.0
C1428 C 0.19382 0.90952 0.375 0.0
C1429 C 0.19665 0.92915 0.38015 0.0
C1430 C 0.22198 0.9851 0.36888 0.0
C1431 C 0.21481 0.02633 0.39231 0.0
C1432 C 0.21067 0.00563 0.38563 0.0
C1433 C 0.20086 0.94521 0.36876 0.0
C1434 C 0.20397 0.96603 0.37426 0.0
H1435 H 0.18881 0.0544 0.39985 0.0
H1436 H 0.18208 0.0206 0.38779 0.0
H1437 H 0.23954 0.01921 0.37044 0.0
H1438 H 0.20048 0.91903 0.33415 0.0
H1439 H 0.20551 0.95345 0.3431 0.0
C1440 C 0.49747 0.62948 0.27771 0.0
C1441 C 0.48639 0.61166 0.28797 0.0
C1442 C 0.51413 0.64885 0.28383 0.0
C1443 C 0.53637 0.68096 0.32085 0.0
H1444 H 0.59099 0.70753 0.29708 0.0
C1445 C 0.61306 0.75588 0.34563 0.0
C1446 C 0.62676 0.77125 0.33434 0.0
C1447 C 0.59602 0.73614 0.34035 0.0
C1448 C 0.57579 0.70057 0.30376 0.0
H1449 H 0.48385 0.60067 0.31292 0.0
H1450 H 0.51258 0.6348 0.32366 0.0
H1451 H 0.56052 0.6741 0.28725 0.0
H1452 H 0.63348 0.7781 0.30863 0.0
H1453 H 0.60347 0.74402 0.2993 0.0
H1454 H 0.55132 0.70765 0.33713 0.0
C1455 C 0.50836 0.63357 0.31084 0.0
C1456 C 0.55835 0.68133 0.29814 0.0
C1457 C 0.49183 0.61405 0.30468 0.0
C1458 C 0.62327 0.76645 0.31763 0.0
C1459 C 0.60608 0.74684 0.3123 0.0
C1460 C 0.55374 0.70039 0.32637 0.0
C1461 C 0.51994 0.65104 0.3004 0.0
C1462 C 0.53844 0.67135 0.3066 0.0
C1463 C 0.59216 0.73139 0.32358 0.0
C1464 C 0.5737 0.7105 0.31788 0.0
H1465 H 0.49338 0.62846 0.26488 0.0
H1466 H 0.52251 0.66216 0.27556 0.0
H1467 H 0.52115 0.67369 0.32754 0.0
H1468 H 0.61575 0.75887 0.35855 0.0
H1469 H 0.58607 0.72453 0.34944 0.0
C1470 C 0.39496 0.89653 0.2893 0.0
C1471 C 0.39892 0.87936 0.29028 0.0
C1472 C 0.37557 0.89469 0.2953 0.0
C1473 C 0.32746 0.86189 0.3219 0.0
H1474 H 0.30133 0.88819 0.29604 0.0
C1475 C 0.239 0.84673 0.33192 0.0
C1476 C 0.23605 0.86449 0.33064 0.0
C1477 C 0.25922 0.8485 0.32822 0.0
C1478 C 0.3085 0.88096 0.30354 0.0
H1479 H 0.38568 0.8469 0.29873 0.0
H1480 H 0.35164 0.84355 0.30904 0.0
H1481 H 0.33563 0.89122 0.28744 0.0
H1482 H 0.25165 0.89778 0.324 0.0
H1483 H 0.2869 0.90098 0.31758 0.0
H1484 H 0.29991 0.85139 0.33787 0.0
C1485 C 0.36369 0.85858 0.30379 0.0
C1486 C 0.32827 0.88272 0.29861 0.0
C1487 C 0.38321 0.86047 0.29785 0.0
C1488 C 0.25358 0.88392 0.32532 0.0
C1489 C 0.27372 0.88569 0.32156 0.0
C1490 C 0.30755 0.86005 0.32681 0.0
C1491 C 0.35945 0.87558 0.30238 0.0
C1492 C 0.33815 0.87335 0.30775 0.0
C1493 C 0.27678 0.86797 0.3228 0.0
C1494 C 0.29788 0.86967 0.31772 0.0
H1495 H 0.40689 0.91147 0.28387 0.0
H1496 H 0.37324 0.90834 0.29435 0.0
H1497 H 0.33463 0.85463 0.32936 0.0
H1498 H 0.22561 0.83136 0.33544 0.0
H1499 H 0.26089 0.83446 0.32911 0.0
C1500 C 0.1156 0.49848 0.28913 0.0
C1501 C 0.13113 0.52012 0.29144 0.0
C1502 C 0.11913 0.48257 0.2955 0.0
C1503 C 0.16298 0.47313 0.31046 0.0
H1504 H 0.11454 0.4216 0.32818 0.0
C1505 C 0.17456 0.4082 0.34212 0.0
C1506 C 0.15992 0.38706 0.33742 0.0
C1507 C 0.17096 0.42473 0.33739 0.0
C1508 C 0.12819 0.43585 0.32317 0.0
H1509 H 0.16257 0.54196 0.3023 0.0
H1510 H 0.16843 0.5142 0.31381 0.0
H1511 H 0.10849 0.45005 0.31841 0.0
H1512 H 0.12991 0.36669 0.32417 0.0
H1513 H 0.12368 0.39554 0.31592 0.0
H1514 H 0.18267 0.45889 0.31529 0.0
C1515 C 0.15366 0.50953 0.30685 0.0
C1516 C 0.12473 0.45213 0.31754 0.0
C1517 C 0.15018 0.52546 0.30041 0.0
C1518 C 0.1415 0.38278 0.32801 0.0
C1519 C 0.13784 0.39929 0.32337 0.0
C1520 C 0.16646 0.45689 0.31618 0.0
C1521 C 0.1382 0.48789 0.30443 0.0
C1522 C 0.14205 0.4709 0.31098 0.0
C1523 C 0.1526 0.42045 0.32792 0.0
C1524 C 0.14906 0.43802 0.32248 0.0
H1525 H 0.10061 0.49379 0.28247 0.0
H1526 H 0.10699 0.46607 0.29322 0.0
H1527 H 0.17661 0.48721 0.30526 0.0
H1528 H 0.18902 0.41209 0.34923 0.0
H1529 H 0.18252 0.44086 0.34119 0.0
C1530 C 0.39022 0.48996 0.30349 0.0
C1531 C 0.3956 0.51115 0.30638 0.0
C1532 C 0.36925 0.47318 0.30686 0.0
C1533 C 0.31931 0.45956 0.33069 0.0
H1534 H 0.29322 0.41042 0.30187 0.0
C1535 C 0.22909 0.39087 0.33545 0.0
C1536 C 0.22565 0.37008 0.33396 0.0
C1537 C 0.24979 0.40851 0.33267 0.0
C1538 C 0.30037 0.42394 0.31013 0.0
H1539 H 0.38337 0.53149 0.31492 0.0
H1540 H 0.34645 0.50218 0.32052 0.0
H1541 H 0.32903 0.44046 0.29551 0.0
H1542 H 0.24073 0.35134 0.32775 0.0
H1543 H 0.27689 0.38208 0.32285 0.0
H1544 H 0.29034 0.44292 0.34519 0.0
C1545 C 0.35851 0.49846 0.3159 0.0
C1546 C 0.32093 0.44118 0.3065 0.0
C1547 C 0.37955 0.51526 0.31258 0.0
C1548 C 0.24309 0.36723 0.32925 0.0
C1549 C 0.26372 0.38481 0.32636 0.0
C1550 C 0.29862 0.44231 0.33427 0.0
C1551 C 0.3531 0.47718 0.31313 0.0
C1552 C 0.33079 0.45916 0.31679 0.0
C1553 C 0.26728 0.40565 0.32794 0.0
C1554 C 0.28902 0.42424 0.32409 0.0
H1555 H 0.40232 0.48633 0.29881 0.0
H1556 H 0.36584 0.45702 0.30482 0.0
H1557 H 0.32648 0.47299 0.33901 0.0
H1558 H 0.21576 0.39354 0.33847 0.0
H1559 H 0.25195 0.42436 0.33376 0.0
C1560 C 0.50601 0.8715 0.29185 0.0
C1561 C 0.49564 0.87463 0.30531 0.0
C1562 C 0.52265 0.86655 0.29413 0.0
C1563 C 0.54846 0.84832 0.32538 0.0
H1564 H 0.59865 0.87605 0.29687 0.0
C1565 C 0.64447 0.86987 0.32294 0.0
C1566 C 0.6424 0.85059 0.3284 0.0
C1567 C 0.62594 0.87153 0.31962 0.0
C1568 C 0.58483 0.86825 0.30502 0.0
H1569 H 0.49469 0.87515 0.3317 0.0
H1570 H 0.52377 0.86674 0.33573 0.0
H1571 H 0.56744 0.881 0.29231 0.0
H1572 H 0.61937 0.81744 0.33341 0.0
H1573 H 0.5869 0.82024 0.32763 0.0
H1574 H 0.56626 0.83617 0.33842 0.0
C1575 C 0.51878 0.86759 0.32338 0.0
C1576 C 0.56674 0.87086 0.30225 0.0
C1577 C 0.50213 0.87249 0.32109 0.0
C1578 C 0.62143 0.83269 0.32976 0.0
C1579 C 0.60283 0.83431 0.32641 0.0
C1580 C 0.56659 0.84572 0.32815 0.0
C1581 C 0.5295 0.8648 0.30994 0.0
C1582 C 0.54833 0.86106 0.31245 0.0
C1583 C 0.60484 0.85381 0.32139 0.0
C1584 C 0.58511 0.8558 0.31808 0.0
H1585 H 0.5015 0.87331 0.27956 0.0
H1586 H 0.53028 0.86426 0.28347 0.0
H1587 H 0.53453 0.84032 0.3334 0.0
H1588 H 0.66049 0.88382 0.32155 0.0
H1589 H 0.62818 0.88684 0.31593 0.0
C1590 C 0.11317 0.62016 0.30292 0.0
C1591 C 0.12516 0.61175 0.31031 0.0
C1592 C 0.11874 0.64132 0.30574 0.0
C1593 C 0.16421 0.69338 0.31871 0.0
H1594 H 0.11835 0.70622 0.32856 0.0
C1595 C 0.18265 0.77608 0.34186 0.0
C1596 C 0.16926 0.784 0.33625 0.0
C1597 C 0.17749 0.75521 0.33831 0.0
C1598 C 0.13133 0.70297 0.3256 0.0
H1599 H 0.15274 0.6188 0.32588 0.0
H1600 H 0.16254 0.65589 0.33091 0.0
H1601 H 0.10896 0.66954 0.32296 0.0
H1602 H 0.14032 0.77636 0.32198 0.0
H1603 H 0.13161 0.74015 0.31547 0.0
H1604 H 0.18659 0.72681 0.32124 0.0
C1605 C 0.1488 0.64615 0.32299 0.0
C1606 C 0.12594 0.68194 0.32243 0.0
C1607 C 0.14314 0.62495 0.32023 0.0
C1608 C 0.15089 0.77073 0.32665 0.0
C1609 C 0.1458 0.74989 0.32301 0.0
C1610 C 0.1696 0.71444 0.32181 0.0
C1611 C 0.13658 0.65452 0.31584 0.0
C1612 C 0.14233 0.67691 0.319 0.0
C1613 C 0.15894 0.74182 0.32889 0.0
C1614 C 0.15323 0.71948 0.32534 0.0
H1615 H 0.09947 0.61035 0.29499 0.0
H1616 H 0.10924 0.64743 0.29987 0.0
H1617 H 0.17717 0.69003 0.31589 0.0
H1618 H 0.19717 0.78598 0.34901 0.0
H1619 H 0.18789 0.74948 0.34315 0.0
C1620 C 0.86459 0.05023 0.37622 0.0
C1621 C 0.86027 0.06413 0.38535 0.0
C1622 C 0.84827 0.02903 0.37373 0.0
C1623 C 0.78842 0.9947 0.37315 0.0
H1624 H 0.80119 0.94851 0.37476 0.0
C1625 C 0.72058 0.90653 0.36674 0.0
C1626 C 0.7254 0.89307 0.35744 0.0
C1627 C 0.73703 0.92714 0.37089 0.0
C1628 C 0.79739 0.96124 0.37408 0.0
H1629 H 0.83597 0.06664 0.39971 0.0
H1630 H 0.80738 0.02959 0.39537 0.0
H1631 H 0.83001 0.98484 0.38074 0.0
H1632 H 0.75154 0.89059 0.34569 0.0
H1633 H 0.77996 0.92661 0.35241 0.0
H1634 H 0.75592 0.97125 0.36625 0.0
C1635 C 0.82323 0.03514 0.38986 0.0
C1636 C 0.81392 0.98207 0.37754 0.0
C1637 C 0.83958 0.0563 0.3924 0.0
C1638 C 0.74711 0.90061 0.3526 0.0
C1639 C 0.76353 0.92123 0.35667 0.0
C1640 C 0.77192 0.9739 0.36962 0.0
C1641 C 0.82731 0.0213 0.38036 0.0
C1642 C 0.80965 0.99906 0.37708 0.0
C1643 C 0.75871 0.9348 0.36584 0.0
C1644 C 0.77619 0.95689 0.36998 0.0
H1645 H 0.8805 0.05591 0.37079 0.0
H1646 H 0.85192 0.01884 0.36628 0.0
H1647 H 0.78467 0.00747 0.37245 0.0
H1648 H 0.70409 0.90121 0.3708 0.0
H1649 H 0.73277 0.937 0.3782 0.0
C1650 C 0.96558 0.80204 0.37284 0.0
C1651 C 0.95741 0.79973 0.38878 0.0
C1652 C 0.98727 0.80731 0.37012 0.0
C1653 C 0.03288 0.80459 0.39024 0.0
H1654 H 0.0665 0.83946 0.35374 0.0
C1655 C 0.126 0.84356 0.36194 0.0
C1656 C 0.12889 0.82577 0.36324 0.0
C1657 C 0.10563 0.84168 0.36524 0.0
C1658 C 0.05743 0.82985 0.36409 0.0
H1659 H 0.96556 0.80114 0.41437 0.0
H1660 H 1.00363 0.81083 0.40973 0.0
H1661 H 0.03053 0.83497 0.35946 0.0
H1662 H 0.11321 0.79244 0.36975 0.0
H1663 H 0.07767 0.78899 0.3753 0.0
H1664 H 0.05983 0.79967 0.395 0.0
C1665 C 0.99325 0.8084 0.39927 0.0
C1666 C 0.03667 0.82707 0.36727 0.0
C1667 C 0.97151 0.80308 0.40196 0.0
C1668 C 0.1113 0.80631 0.36842 0.0
C1669 C 0.09099 0.80441 0.37171 0.0
C1670 C 0.0536 0.80737 0.38707 0.0
C1671 C 1.00136 0.81029 0.38329 0.0
C1672 C 0.02401 0.81426 0.38033 0.0
C1673 C 0.08784 0.82205 0.37018 0.0
C1674 C 0.0661 0.81988 0.37387 0.0
H1675 H 0.95499 0.79921 0.36242 0.0
H1676 H 0.99272 0.80826 0.35766 0.0
H1677 H 0.02361 0.7944 0.40027 0.0
H1678 H 0.13948 0.85893 0.35847 0.0
H1679 H 0.10393 0.85568 0.36416 0.0
C1680 C 0.21301 0.15807 0.37904 0.0
C1681 C 0.23037 0.16313 0.38985 0.0
C1682 C 0.20691 0.17322 0.3753 0.0
C1683 C 0.2283 0.2311 0.37501 0.0
H1684 H 0.16727 0.21553 0.37299 0.0
C1685 C 0.20197 0.29426 0.36928 0.0
C1686 C 0.18434 0.28978 0.35887 0.0
C1687 C 0.20715 0.2785 0.37304 0.0
C1688 C 0.18438 0.22008 0.3733 0.0
H1689 H 0.25442 0.18747 0.40577 0.0
H1690 H 0.24386 0.21405 0.39922 0.0
H1691 H 0.17707 0.1885 0.37961 0.0
H1692 H 0.15783 0.2649 0.34473 0.0
H1693 H 0.16727 0.23759 0.35089 0.0
H1694 H 0.23567 0.2626 0.36859 0.0
C1695 C 0.23521 0.19855 0.39338 0.0
C1696 C 0.18998 0.2046 0.37712 0.0
C1697 C 0.24122 0.18337 0.39717 0.0
C1698 C 0.17178 0.26904 0.35253 0.0
C1699 C 0.17702 0.25328 0.35623 0.0
C1700 C 0.22271 0.24654 0.37113 0.0
C1701 C 0.21807 0.19368 0.38234 0.0
C1702 C 0.21201 0.20998 0.3781 0.0
C1703 C 0.19484 0.25786 0.36648 0.0
C1704 C 0.20069 0.24126 0.37031 0.0
H1705 H 0.20428 0.14244 0.37342 0.0
H1706 H 0.19372 0.16904 0.36669 0.0
H1707 H 0.24541 0.23565 0.3754 0.0
H1708 H 0.2119 0.30998 0.37452 0.0
H1709 H 0.22072 0.28247 0.38122 0.0
C1710 C 0.62751 0.49925 0.72146 0.0
C1711 C 0.62517 0.49394 0.73813 0.0
C1712 C 0.64692 0.51643 0.71558 0.0
C1713 C 0.69419 0.56677 0.72945 0.0
H1714 H 0.72124 0.56405 0.68907 0.0
C1715 C 0.78211 0.61851 0.69556 0.0
C1716 C 0.78488 0.63906 0.69693 0.0
C1717 C 0.76195 0.60055 0.69911 0.0
C1718 C 0.71387 0.56501 0.70038 0.0
H1719 H 0.64192 0.50205 0.76152 0.0
H1720 H 0.67553 0.53206 0.75131 0.0
H1721 H 0.6876 0.53271 0.69835 0.0
H1722 H 0.76912 0.65706 0.70351 0.0
H1723 H 0.73388 0.62573 0.70977 0.0
H1724 H 0.72047 0.59888 0.73166 0.0
C1725 C 0.66222 0.52315 0.74283 0.0
C1726 C 0.69454 0.54714 0.70563 0.0
C1727 C 0.64292 0.50595 0.74868 0.0
C1728 C 0.76727 0.64135 0.70214 0.0
C1729 C 0.74717 0.62344 0.70578 0.0
C1730 C 0.71336 0.58463 0.72417 0.0
C1731 C 0.66438 0.52876 0.72625 0.0
C1732 C 0.6846 0.54777 0.72031 0.0
C1733 C 0.74433 0.60283 0.70447 0.0
C1734 C 0.7235 0.58394 0.70963 0.0
H1735 H 0.61412 0.49051 0.71301 0.0
H1736 H 0.64801 0.52045 0.70276 0.0
H1737 H 0.68681 0.56789 0.7407 0.0
H1738 H 0.79558 0.61627 0.69212 0.0
H1739 H 0.76039 0.58492 0.69822 0.0
C1740 C 0.52734 0.14389 0.73241 0.0
C1741 C 0.52306 0.12421 0.73893 0.0
C1742 C 0.51017 0.14685 0.72694 0.0
C1743 C 0.45041 0.12412 0.73246 0.0
H1744 H 0.45425 0.15742 0.69433 0.0
C1745 C 0.37488 0.1254 0.70718 0.0
C1746 C 0.37753 0.14491 0.70172 0.0
C1747 C 0.39304 0.12331 0.71096 0.0
C1748 C 0.453 0.14825 0.70511 0.0
H1749 H 0.49743 0.09185 0.74381 0.0
H1750 H 0.46774 0.09691 0.73424 0.0
H1751 H 0.48531 0.15302 0.70196 0.0
H1752 H 0.40131 0.17795 0.69699 0.0
H1753 H 0.43312 0.17433 0.70345 0.0
H1754 H 0.41825 0.11934 0.73569 0.0
C1755 C 0.48424 0.1103 0.73376 0.0
C1756 C 0.47082 0.14572 0.70949 0.0
C1757 C 0.50131 0.10737 0.73923 0.0
C1758 C 0.39876 0.16251 0.70059 0.0
C1759 C 0.41699 0.16043 0.70435 0.0
C1760 C 0.43268 0.12662 0.72809 0.0
C1761 C 0.48832 0.13018 0.72783 0.0
C1762 C 0.4697 0.13346 0.72316 0.0
C1763 C 0.41437 0.1408 0.70966 0.0
C1764 C 0.43363 0.13859 0.71431 0.0
H1765 H 0.54388 0.15722 0.73206 0.0
H1766 H 0.51396 0.16241 0.72253 0.0
H1767 H 0.44906 0.115 0.74329 0.0
H1768 H 0.35868 0.11167 0.7084 0.0
H1769 H 0.39035 0.1079 0.71485 0.0
C1770 C 0.90607 0.39208 0.73722 0.0
C1771 C 0.88918 0.39696 0.7377 0.0
C1772 C 0.90247 0.37289 0.73044 0.0
C1773 C 0.85976 0.31826 0.72304 0.0
H1774 H 0.90098 0.3165 0.69278 0.0
C1775 C 0.86151 0.24126 0.70763 0.0
C1776 C 0.86232 0.23713 0.69099 0.0
C1777 C 0.86434 0.2609 0.71273 0.0
C1778 C 0.8893 0.31678 0.70116 0.0
H1779 H 0.85536 0.38578 0.73145 0.0
H1780 H 0.84891 0.35188 0.71978 0.0
H1781 H 0.9066 0.35091 0.70242 0.0
H1782 H 0.86781 0.2505 0.66674 0.0
H1783 H 0.87283 0.28493 0.67559 0.0
H1784 H 0.84268 0.28413 0.72202 0.0
C1785 C 0.86495 0.36301 0.72459 0.0
C1786 C 0.89257 0.33642 0.70673 0.0
C1787 C 0.86865 0.38238 0.73116 0.0
C1788 C 0.86652 0.2531 0.67956 0.0
C1789 C 0.86967 0.27287 0.68466 0.0
C1790 C 0.85667 0.29862 0.71766 0.0
C1791 C 0.88183 0.35808 0.72421 0.0
C1792 C 0.87786 0.33733 0.71776 0.0
C1793 C 0.86841 0.27688 0.70128 0.0
C1794 C 0.87145 0.2977 0.70671 0.0
H1795 H 0.9221 0.40315 0.74208 0.0
H1796 H 0.91571 0.36941 0.7304 0.0
H1797 H 0.84828 0.31854 0.73163 0.0
H1798 H 0.85826 0.22914 0.71667 0.0
H1799 H 0.86353 0.26368 0.72564 0.0
C1800 C 0.16245 0.94544 0.64055 0.0
C1801 C 0.15552 0.94413 0.62428 0.0
C1802 C 0.17904 0.96475 0.64696 0.0
C1803 C 0.22551 0.01637 0.63374 0.0
H1804 H 0.2238 0.03428 0.67806 0.0
C1805 C 0.29931 0.08993 0.66272 0.0
C1806 C 0.29482 0.10359 0.67206 0.0
C1807 C 0.28239 0.07002 0.6576 0.0
C1808 C 0.22448 0.02957 0.66562 0.0
H1809 H 0.15983 0.96234 0.60225 0.0
H1810 H 0.18857 0.99594 0.61341 0.0
H1811 H 0.19354 0.00089 0.6677 0.0
H1812 H 0.26887 0.10697 0.68321 0.0
H1813 H 0.2395 0.07238 0.6743 0.0
H1814 H 0.25616 0.04522 0.6315 0.0
C1815 C 0.1816 0.98197 0.62113 0.0
C1816 C 0.20723 0.0103 0.65974 0.0
C1817 C 0.16508 0.9627 0.61473 0.0
C1818 C 0.27302 0.09677 0.67626 0.0
C1819 C 0.25612 0.07687 0.67116 0.0
C1820 C 0.24274 0.03559 0.63962 0.0
C1821 C 0.18904 0.98319 0.63724 0.0
C1822 C 0.20747 0.00353 0.64368 0.0
C1823 C 0.26056 0.06329 0.66165 0.0
C1824 C 0.24243 0.04249 0.65561 0.0
H1825 H 0.15557 0.93138 0.64817 0.0
H1826 H 0.18448 0.96506 0.65937 0.0
H1827 H 0.22641 0.01152 0.62139 0.0
H1828 H 0.3159 0.09462 0.65929 0.0
H1829 H 0.28644 0.05986 0.65048 0.0
C1830 C 0.05255 0.19378 0.63304 0.0
C1831 C 0.0684 0.21284 0.62575 0.0
C1832 C 0.03273 0.19159 0.63858 0.0
C1833 C 0.99702 0.21534 0.63263 0.0
H1834 H 0.96734 0.18313 0.67125 0.0
C1835 C 0.9212 0.21563 0.65811 0.0
C1836 C 0.90362 0.19612 0.66326 0.0
C1837 C 0.94144 0.21751 0.65454 0.0
C1838 C 0.97535 0.19203 0.66036 0.0
H1839 H 0.07625 0.24495 0.61945 0.0
H1840 H 0.04209 0.24132 0.62926 0.0
H1841 H 1.00249 0.18681 0.66346 0.0
H1842 H 0.89315 0.16293 0.6678 0.0
H1843 H 0.92861 0.16622 0.66179 0.0
H1844 H 0.97002 0.22063 0.62952 0.0
C1845 C 0.04456 0.22776 0.63028 0.0
C1846 C 0.99551 0.19413 0.65586 0.0
C1847 C 0.06424 0.22989 0.62468 0.0
C1848 C 0.90658 0.17836 0.66444 0.0
C1849 C 0.92691 0.18024 0.66093 0.0
C1850 C 0.97699 0.21332 0.63715 0.0
C1851 C 0.02831 0.20846 0.63705 0.0
C1852 C 0.0067 0.20592 0.64196 0.0
C1853 C 0.94456 0.19982 0.65578 0.0
C1854 C 0.9659 0.20172 0.65109 0.0
H1855 H 0.05516 0.18029 0.63397 0.0
H1856 H 0.02061 0.17643 0.6436 0.0
H1857 H 1.00477 0.22409 0.62163 0.0
H1858 H 0.91925 0.22949 0.65685 0.0
H1859 H 0.95468 0.23287 0.65075 0.0
C1860 C 0.81137 0.84527 0.61309 0.0
C1861 C 0.80078 0.85372 0.62238 0.0
C1862 C 0.81521 0.82962 0.61962 0.0
C1863 C 0.83217 0.80606 0.64061 0.0
H1864 H 0.78437 0.75729 0.66183 0.0
C1865 C 0.84325 0.74184 0.67399 0.0
C1866 C 0.82791 0.72061 0.67002 0.0
C1867 C 0.84002 0.75849 0.66898 0.0
C1868 C 0.79785 0.77082 0.65592 0.0
H1869 H 0.78578 0.8524 0.64571 0.0
H1870 H 0.79237 0.8249 0.6571 0.0
H1871 H 0.77886 0.78588 0.65136 0.0
H1872 H 0.79698 0.7002 0.65788 0.0
H1873 H 0.79131 0.7293 0.64924 0.0
H1874 H 0.85112 0.79093 0.64506 0.0
C1875 C 0.79773 0.83043 0.64479 0.0
C1876 C 0.79475 0.78723 0.65006 0.0
C1877 C 0.79412 0.84625 0.63833 0.0
C1878 C 0.80912 0.71637 0.66114 0.0
C1879 C 0.80579 0.73301 0.65626 0.0
C1880 C 0.83534 0.78977 0.64664 0.0
C1881 C 0.8083 0.82195 0.63549 0.0
C1882 C 0.81183 0.80492 0.64222 0.0
C1883 C 0.82129 0.75424 0.66002 0.0
C1884 C 0.81816 0.77191 0.65423 0.0
H1885 H 0.8168 0.85085 0.6008 0.0
H1886 H 0.82325 0.82324 0.61214 0.0
H1887 H 0.84566 0.8196 0.63472 0.0
H1888 H 0.85798 0.74567 0.68073 0.0
H1889 H 0.85215 0.7747 0.67214 0.0
C1890 C 0.04815 0.84721 0.64681 0.0
C1891 C 0.06419 0.84298 0.64076 0.0
C1892 C 0.02696 0.83052 0.64988 0.0
C1893 C 0.98914 0.7734 0.64002 0.0
H1894 H 0.95781 0.77517 0.67824 0.0
C1895 C 0.91021 0.69975 0.6619 0.0
C1896 C 0.89289 0.70284 0.66653 0.0
C1897 C 0.93097 0.71718 0.65912 0.0
C1898 C 0.9663 0.77455 0.66745 0.0
H1899 H 0.07077 0.81802 0.63335 0.0
H1900 H 0.03403 0.78888 0.63891 0.0
H1901 H 0.99426 0.80504 0.67254 0.0
H1902 H 0.88335 0.72658 0.6709 0.0
H1903 H 0.91976 0.75713 0.6664 0.0
H1904 H 0.96132 0.74282 0.63504 0.0
C1905 C 0.03756 0.80507 0.64098 0.0
C1906 C 0.98716 0.79168 0.66414 0.0
C1907 C 0.05867 0.82176 0.63786 0.0
C1908 C 0.89657 0.72371 0.66797 0.0
C1909 C 0.91741 0.7412 0.6653 0.0
C1910 C 0.96839 0.75626 0.64337 0.0
C1911 C 0.02139 0.8092 0.64704 0.0
C1912 C 0.99891 0.79128 0.65041 0.0
C1913 C 0.93481 0.73812 0.66073 0.0
C1914 C 0.95676 0.75658 0.65716 0.0
H1915 H 0.05207 0.86347 0.6492 0.0
H1916 H 0.01491 0.83434 0.65435 0.0
H1917 H 0.99744 0.77267 0.62916 0.0
H1918 H 0.90765 0.68378 0.66042 0.0
H1919 H 0.94406 0.71426 0.65573 0.0
C1920 C 0.17645 0.2063 0.62834 0.0
C1921 C 0.16549 0.2088 0.64169 0.0
C1922 C 0.19319 0.20149 0.63078 0.0
C1923 C 0.21808 0.18235 0.6621 0.0
H1924 H 0.26918 0.21104 0.63457 0.0
C1925 C 0.29032 0.16571 0.66657 0.0
C1926 C 0.31149 0.1834 0.66553 0.0
C1927 C 0.27201 0.16782 0.66329 0.0
C1928 C 0.25512 0.20299 0.64246 0.0
H1929 H 0.16354 0.20832 0.66806 0.0
H1930 H 0.19274 0.20013 0.67237 0.0
H1931 H 0.23813 0.2162 0.62977 0.0
H1932 H 0.33017 0.21678 0.65925 0.0
H1933 H 0.29832 0.22067 0.65377 0.0
H1934 H 0.23542 0.16968 0.67511 0.0
C1935 C 0.18819 0.20139 0.65997 0.0
C1936 C 0.23711 0.20571 0.63955 0.0
C1937 C 0.17146 0.20615 0.65752 0.0
C1938 C 0.31401 0.20299 0.66044 0.0
C1939 C 0.29573 0.20514 0.65719 0.0
C1940 C 0.23611 0.17964 0.66502 0.0
C1941 C 0.19951 0.19923 0.64665 0.0
C1942 C 0.21835 0.19553 0.64937 0.0
C1943 C 0.27444 0.18761 0.65864 0.0
C1944 C 0.25495 0.19002 0.6553 0.0
H1945 H 0.17235 0.20849 0.61602 0.0
H1946 H 0.20128 0.19969 0.6202 0.0
H1947 H 0.20388 0.17405 0.66984 0.0
H1948 H 0.28787 0.1502 0.66981 0.0
H1949 H 0.25593 0.15386 0.66423 0.0
C1950 C 0.80964 0.95636 0.65134 0.0
C1951 C 0.79164 0.94341 0.64136 0.0
C1952 C 0.81534 0.97749 0.65445 0.0
C1953 C 0.79269 0.01347 0.65477 0.0
H1954 H 0.85338 0.05822 0.65328 0.0
C1955 C 0.81794 0.10229 0.65933 0.0
C1956 C 0.83649 0.11555 0.66877 0.0
C1957 C 0.81272 0.08142 0.65566 0.0
C1958 C 0.83638 0.04588 0.65394 0.0
H1959 H 0.76585 0.94237 0.62636 0.0
H1960 H 0.77567 0.97934 0.63187 0.0
H1961 H 0.84376 0.02145 0.64764 0.0
H1962 H 0.86459 0.11749 0.6812 0.0
H1963 H 0.8551 0.08094 0.67529 0.0
H1964 H 0.78528 0.03777 0.66126 0.0
C1965 C 0.78519 0.97308 0.6375 0.0
C1966 C 0.83088 0.02483 0.65069 0.0
C1967 C 0.77959 0.95199 0.63432 0.0
C1968 C 0.84993 0.10759 0.67419 0.0
C1969 C 0.84465 0.08669 0.6706 0.0
C1970 C 0.7982 0.03449 0.65811 0.0
C1971 C 0.80311 0.98605 0.64762 0.0
C1972 C 0.80898 0.00841 0.65105 0.0
C1973 C 0.82593 0.07332 0.66135 0.0
C1974 C 0.82011 0.05096 0.65773 0.0
H1975 H 0.81927 0.95007 0.65673 0.0
H1976 H 0.82913 0.98706 0.66238 0.0
H1977 H 0.7757 0.0011 0.65537 0.0
H1978 H 0.80732 0.10793 0.65482 0.0
H1979 H 0.79841 0.07169 0.64825 0.0
C1980 C 0.5328 0.38369 0.71106 0.0
C1981 C 0.52798 0.3975 0.71981 0.0
C1982 C 0.51678 0.36237 0.70861 0.0
C1983 C 0.46282 0.31986 0.72366 0.0
H1984 H 0.45928 0.29501 0.68102 0.0
C1985 C 0.38911 0.23918 0.703 0.0
C1986 C 0.39381 0.2253 0.69415 0.0
C1987 C 0.40564 0.25996 0.70667 0.0
C1988 C 0.46018 0.30162 0.69305 0.0
H1989 H 0.50303 0.39979 0.73345 0.0
H1990 H 0.47487 0.36268 0.72895 0.0
H1991 H 0.48791 0.33146 0.68659 0.0
H1992 H 0.41984 0.22223 0.68281 0.0
H1993 H 0.44846 0.2584 0.689 0.0
H1994 H 0.43484 0.29 0.73 0.0
C1995 C 0.49102 0.36818 0.72404 0.0
C1996 C 0.47664 0.32254 0.69627 0.0
C1997 C 0.50708 0.38947 0.72652 0.0
C1998 C 0.41548 0.23259 0.6893 0.0
C1999 C 0.43194 0.25336 0.69288 0.0
C2000 C 0.44627 0.29895 0.72041 0.0
C2001 C 0.49559 0.35439 0.7149 0.0
C2002 C 0.47821 0.33195 0.71162 0.0
C2003 C 0.42723 0.26734 0.70154 0.0
C2004 C 0.44477 0.28958 0.70506 0.0
H2005 H 0.54892 0.38949 0.70596 0.0
H2006 H 0.52103 0.35213 0.7018 0.0
H2007 H 0.46369 0.32645 0.73569 0.0
H2008 H 0.37263 0.2341 0.70697 0.0
H2009 H 0.40143 0.27038 0.71326 0.0
C2010 C 0.63216 0.13137 0.70697 0.0
C2011 C 0.62415 0.1288 0.72298 0.0
C2012 C 0.65389 0.13691 0.70404 0.0
C2013 C 0.70017 0.13468 0.72357 0.0
H2014 H 0.733 0.16989 0.68697 0.0
C2015 C 0.79307 0.17467 0.69457 0.0
C2016 C 0.79626 0.15706 0.69588 0.0
C2017 C 0.7726 0.17253 0.69796 0.0
C2018 C 0.72416 0.16019 0.69734 0.0
H2019 H 0.63265 0.12997 0.74848 0.0
H2020 H 0.67078 0.14015 0.74347 0.0
H2021 H 0.69692 0.16491 0.69307 0.0
H2022 H 0.78097 0.12376 0.7024 0.0
H2023 H 0.74528 0.11986 0.7081 0.0
H2024 H 0.72745 0.13017 0.72799 0.0
C2025 C 0.66024 0.13773 0.73311 0.0
C2026 C 0.70332 0.15712 0.70075 0.0
C2027 C 0.63846 0.13213 0.73602 0.0
C2028 C 0.77884 0.1375 0.70108 0.0
C2029 C 0.75844 0.13534 0.70447 0.0
C2030 C 0.72096 0.13775 0.72018 0.0
C2031 C 0.66821 0.1399 0.71706 0.0
C2032 C 0.69094 0.14418 0.71385 0.0
C2033 C 0.755 0.15282 0.70301 0.0
C2034 C 0.73319 0.15037 0.70693 0.0
H2035 H 0.62143 0.12854 0.69665 0.0
H2036 H 0.65921 0.13806 0.69152 0.0
H2037 H 0.69113 0.12439 0.73363 0.0
H2038 H 0.80641 0.19011 0.69106 0.0
H2039 H 0.77068 0.18641 0.69692 0.0
C2040 C 0.90724 0.51489 0.72852 0.0
C2041 C 0.89592 0.49471 0.72112 0.0
C2042 C 0.90142 0.53031 0.72515 0.0
C2043 C 0.85619 0.53724 0.71009 0.0
H2044 H 0.90218 0.59497 0.70113 0.0
C2045 C 0.8384 0.60207 0.68593 0.0
C2046 C 0.85137 0.6229 0.69199 0.0
C2047 C 0.84347 0.5862 0.68962 0.0
C2048 C 0.88914 0.579 0.70381 0.0
H2049 H 0.8692 0.4744 0.70502 0.0
H2050 H 0.85897 0.50142 0.69903 0.0
H2051 H 0.91161 0.56769 0.70752 0.0
H2052 H 0.87947 0.64316 0.70716 0.0
H2053 H 0.888 0.61543 0.71386 0.0
H2054 H 0.83372 0.54858 0.7065 0.0
C2055 C 0.87238 0.50536 0.70737 0.0
C2056 C 0.89455 0.56336 0.70745 0.0
C2057 C 0.87829 0.48997 0.71069 0.0
C2058 C 0.86923 0.62736 0.70214 0.0
C2059 C 0.87424 0.61148 0.70589 0.0
C2060 C 0.85077 0.55292 0.70652 0.0
C2061 C 0.884 0.52576 0.71448 0.0
C2062 C 0.87815 0.54232 0.71064 0.0
C2063 C 0.86152 0.59074 0.69959 0.0
C2064 C 0.86719 0.57399 0.70335 0.0
H2065 H 0.92066 0.51875 0.73684 0.0
H2066 H 0.91043 0.54576 0.73102 0.0
H2067 H 0.8432 0.52122 0.71269 0.0
H2068 H 0.82427 0.59795 0.67835 0.0
H2069 H 0.83341 0.57044 0.68447 0.0
C2070 C 0.47454 0.91711 0.24083 0.0
C2071 C 0.45234 0.90275 0.24385 0.0
C2072 C 0.48131 0.92718 0.22569 0.0
C2073 C 0.4642 0.92385 0.18236 0.0
H2074 H 0.50849 0.98366 0.182 0.0
C2075 C 0.48796 0.97635 0.12387 0.0
C2076 C 0.51016 0.9916 0.12191 0.0
C2077 C 0.48056 0.96459 0.13835 0.0
C2078 C 0.4963 0.96689 0.18183 0.0
H2079 H 0.41995 0.88735 0.23306 0.0
H2080 H 0.43171 0.90521 0.20676 0.0
H2081 H 0.49641 0.96503 0.20787 0.0
H2082 H 0.54212 0.00553 0.1333 0.0
H2083 H 0.52933 0.98506 0.15835 0.0
H2084 H 0.4641 0.92582 0.15625 0.0
C2085 C 0.44392 0.90857 0.21608 0.0
C2086 C 0.48937 0.95618 0.19671 0.0
C2087 C 0.43714 0.89851 0.23124 0.0
C2088 C 0.52484 0.99428 0.13453 0.0
C2089 C 0.51749 0.98254 0.14894 0.0
C2090 C 0.47116 0.93459 0.16744 0.0
C2091 C 0.46608 0.92317 0.21314 0.0
C2092 C 0.4733 0.9345 0.19719 0.0
C2093 C 0.49521 0.96778 0.15117 0.0
C2094 C 0.4874 0.95623 0.16698 0.0
H2095 H 0.48669 0.9209 0.25028 0.0
H2096 H 0.49855 0.93811 0.22381 0.0
H2097 H 0.45195 0.9071 0.18225 0.0
H2098 H 0.47619 0.97399 0.11443 0.0
H2099 H 0.46327 0.95346 0.13968 0.0
C2100 C 0.08547 0.52764 0.24189 0.0
C2101 C 0.10378 0.54725 0.24612 0.0
C2102 C 0.07555 0.52478 0.22662 0.0
C2103 C 0.0709 0.55488 0.19182 0.0
H2104 H 0.04694 0.50024 0.16985 0.0
C2105 C 0.02953 0.5126 0.12586 0.0
C2106 C 0.01562 0.52105 0.12348 0.0
C2107 C 0.0413 0.51636 0.1404 0.0
C2108 C 0.05376 0.51569 0.1757 0.0
H2109 H 0.1263 0.57914 0.23761 0.0
H2110 H 0.10924 0.57408 0.2108 0.0
H2111 H 0.06615 0.50584 0.19565 0.0
H2112 H 1.00355 0.54045 0.13449 0.0
H2113 H 0.02338 0.54632 0.16002 0.0
H2114 H 0.05903 0.56491 0.17164 0.0
C2115 C 0.10223 0.56102 0.2194 0.0
C2116 C 0.06452 0.51881 0.19064 0.0
C2117 C 0.11205 0.56393 0.23473 0.0
C2118 C 0.01386 0.53344 0.13597 0.0
C2119 C 0.02551 0.53708 0.15055 0.0
C2120 C 0.06027 0.5518 0.17682 0.0
C2121 C 0.08381 0.54142 0.21516 0.0
C2122 C 0.07306 0.53838 0.19896 0.0
C2123 C 0.03935 0.52856 0.15296 0.0
C2124 C 0.05139 0.53211 0.16863 0.0
H2125 H 0.07856 0.5146 0.25051 0.0
H2126 H 0.06116 0.50962 0.22392 0.0
H2127 H 0.07707 0.57009 0.19794 0.0
H2128 H 0.03112 0.5028 0.11658 0.0
H2129 H 0.052 0.50977 0.14174 0.0
C2130 C 0.46999 0.57344 0.22969 0.0
C2131 C 0.46299 0.55848 0.2424 0.0
C2132 C 0.47578 0.56887 0.21457 0.0
C2133 C 0.47217 0.52515 0.18852 0.0
H2134 H 0.52439 0.57112 0.16903 0.0
C2135 C 0.50324 0.51832 0.12447 0.0
C2136 C 0.52594 0.52719 0.12271 0.0
C2137 C 0.49454 0.52168 0.13877 0.0
C2138 C 0.50986 0.55805 0.17434 0.0
H2139 H 0.45589 0.52672 0.24906 0.0
H2140 H 0.46627 0.51876 0.22264 0.0
H2141 H 0.51074 0.57729 0.19443 0.0
H2142 H 0.55726 0.54678 0.13457 0.0
H2143 H 0.54213 0.55221 0.15954 0.0
H2144 H 0.47176 0.50575 0.16858 0.0
C2145 C 0.46704 0.53396 0.22431 0.0
C2146 C 0.50184 0.56167 0.18882 0.0
C2147 C 0.46112 0.53851 0.23946 0.0
C2148 C 0.5397 0.5395 0.13557 0.0
C2149 C 0.53102 0.54284 0.14983 0.0
C2150 C 0.48023 0.52151 0.174 0.0
C2151 C 0.47484 0.54925 0.21178 0.0
C2152 C 0.48292 0.54528 0.19613 0.0
C2153 C 0.50834 0.53403 0.15161 0.0
C2154 C 0.49927 0.5379 0.16679 0.0
H2155 H 0.47119 0.58882 0.2315 0.0
H2156 H 0.48119 0.58082 0.20509 0.0
H2157 H 0.45747 0.51222 0.19375 0.0
H2158 H 0.49216 0.50858 0.11488 0.0
H2159 H 0.47701 0.51481 0.13967 0.0
C2160 C 0.93529 0.46831 0.78759 0.0
C2161 C 0.91724 0.44804 0.78454 0.0
C2162 C 0.94581 0.47309 0.80277 0.0
C2163 C 0.95317 0.44628 0.83858 0.0
H2164 H 0.97826 0.50233 0.85839 0.0
C2165 C 0.01243 0.47045 0.893 0.0
C2166 C 0.01051 0.48274 0.9055 0.0
C2167 C 1.00076 0.46671 0.87844 0.0
C2168 C 0.97117 0.48653 0.8531 0.0
H2169 H 0.89532 0.41726 0.79518 0.0
H2170 H 0.91334 0.42567 0.82173 0.0
H2171 H 0.95745 0.4949 0.83306 0.0
H2172 H 0.995 0.50101 0.91232 0.0
H2173 H 0.97413 0.49393 0.88708 0.0
H2174 H 0.96637 0.4377 0.85875 0.0
C2175 C 0.91982 0.43771 0.81231 0.0
C2176 C 0.95946 0.48235 0.83847 0.0
C2177 C 0.90944 0.4329 0.79712 0.0
C2178 C 0.99667 0.49126 0.90303 0.0
C2179 C 0.98491 0.48743 0.88847 0.0
C2180 C 0.96476 0.45042 0.8532 0.0
C2181 C 0.93838 0.45772 0.81524 0.0
C2182 C 0.95038 0.46218 0.83101 0.0
C2183 C 0.98676 0.47505 0.87602 0.0
C2184 C 0.97403 0.47063 0.86061 0.0
H2185 H 0.94174 0.48022 0.77806 0.0
H2186 H 0.96019 0.48858 0.80454 0.0
H2187 H 0.94667 0.43065 0.83307 0.0
H2188 H 0.02273 0.46344 0.89454 0.0
H2189 H 1.00283 0.45736 0.86902 0.0
C2190 C 0.58286 0.47546 0.7953 0.0
C2191 C 0.56833 0.46515 0.78226 0.0
C2192 C 0.57525 0.47839 0.81027 0.0
C2193 C 0.5281 0.47972 0.82878 0.0
H2194 H 0.55292 0.47417 0.86948 0.0
C2195 C 0.49018 0.47921 0.89101 0.0
C2196 C 0.50452 0.49164 0.90358 0.0
C2197 C 0.49818 0.47561 0.8765 0.0
C2198 C 0.54597 0.47595 0.85821 0.0
H2199 H 0.53431 0.44984 0.77484 0.0
H2200 H 0.52098 0.45437 0.80104 0.0
H2201 H 0.56629 0.46839 0.84361 0.0
H2202 H 0.53863 0.50982 0.91073 0.0
H2203 H 0.55258 0.50332 0.88541 0.0
H2204 H 0.50766 0.4871 0.84337 0.0
C2205 C 0.53834 0.46052 0.79963 0.0
C2206 C 0.55364 0.47268 0.84337 0.0
C2207 C 0.54596 0.45766 0.78464 0.0
C2208 C 0.52709 0.49998 0.90139 0.0
C2209 C 0.5351 0.49629 0.88687 0.0
C2210 C 0.52036 0.48287 0.84359 0.0
C2211 C 0.55289 0.47103 0.81262 0.0
C2212 C 0.54478 0.47449 0.82846 0.0
C2213 C 0.52073 0.48425 0.8742 0.0
C2214 C 0.52916 0.48099 0.85848 0.0
H2215 H 0.60016 0.48119 0.79398 0.0
H2216 H 0.58697 0.48674 0.81993 0.0
H2217 H 0.52119 0.48169 0.81755 0.0
H2218 H 0.47268 0.47214 0.8924 0.0
H2219 H 0.48666 0.46594 0.8671 0.0
C2220 C 0.56471 0.09898 0.7953 0.0
C2221 C 0.54839 0.09386 0.78342 0.0
C2222 C 0.55994 0.08753 0.80995 0.0
C2223 C 0.51765 0.03672 0.82922 0.0
H2224 H 0.54463 0.06592 0.86972 0.0
C2225 C 0.48398 0.99941 0.89199 0.0
C2226 C 0.49895 0.99952 0.90342 0.0
C2227 C 0.49119 0.01134 0.87765 0.0
C2228 C 0.53711 0.05753 0.85847 0.0
H2229 H 0.51428 0.07212 0.77765 0.0
H2230 H 0.5058 0.05305 0.80325 0.0
H2231 H 0.55496 0.08566 0.84405 0.0
H2232 H 0.5335 0.01302 0.90871 0.0
H2233 H 0.54605 0.03439 0.88384 0.0
H2234 H 0.4993 0.0088 0.84376 0.0
C2235 C 0.52244 0.06561 0.80123 0.0
C2236 C 0.54308 0.06881 0.84372 0.0
C2237 C 0.52725 0.07686 0.78656 0.0
C2238 C 0.52144 0.01262 0.90033 0.0
C2239 C 0.52867 0.02482 0.88604 0.0
C2240 C 0.51149 0.02558 0.84395 0.0
C2241 C 0.53869 0.07071 0.81317 0.0
C2242 C 0.53326 0.0586 0.82887 0.0
C2243 C 0.5136 0.02401 0.87442 0.0
C2244 C 0.52099 0.03587 0.85876 0.0
H2245 H 0.58114 0.11205 0.79343 0.0
H2246 H 0.57299 0.09182 0.81871 0.0
H2247 H 0.51011 0.02808 0.81808 0.0
H2248 H 0.46656 0.99007 0.89407 0.0
H2249 H 0.47918 0.0107 0.86908 0.0
C2250 C 0.14496 0.251 0.57688 0.0
C2251 C 0.12269 0.23685 0.57986 0.0
C2252 C 0.1519 0.26109 0.56176 0.0
C2253 C 0.13468 0.25822 0.51841 0.0
H2254 H 0.18046 0.31749 0.51799 0.0
C2255 C 0.15873 0.31141 0.46032 0.0
C2256 C 0.18108 0.32591 0.458 0.0
C2257 C 0.15137 0.29957 0.47476 0.0
C2258 C 0.16783 0.30086 0.51785 0.0
H2259 H 0.09036 0.22186 0.56896 0.0
H2260 H 0.1024 0.23982 0.54276 0.0
H2261 H 0.16819 0.29889 0.54387 0.0
H2262 H 0.21328 0.3384 0.46875 0.0
H2263 H 0.2005 0.3179 0.49382 0.0
H2264 H 0.13426 0.26037 0.49232 0.0
C2265 C 0.11455 0.24298 0.55208 0.0
C2266 C 0.1608 0.29016 0.53272 0.0
C2267 C 0.1076 0.23287 0.56721 0.0
C2268 C 0.19591 0.32776 0.47026 0.0
C2269 C 0.18858 0.31599 0.48466 0.0
C2270 C 0.1417 0.26897 0.5035 0.0
C2271 C 0.13679 0.25734 0.54918 0.0
C2272 C 0.14418 0.26867 0.53323 0.0
C2273 C 0.16619 0.30198 0.48722 0.0
C2274 C 0.15844 0.29042 0.50303 0.0
H2275 H 0.15704 0.25463 0.58635 0.0
H2276 H 0.16919 0.2718 0.55992 0.0
H2277 H 0.12204 0.24161 0.51828 0.0
H2278 H 0.14683 0.3097 0.4512 0.0
H2279 H 0.134 0.28904 0.47637 0.0
C2280 C 0.78004 0.89591 0.56542 0.0
C2281 C 0.77232 0.87921 0.57677 0.0
C2282 C 0.77003 0.89278 0.55014 0.0
C2283 C 0.73267 0.85026 0.52142 0.0
H2284 H 0.72513 0.89554 0.50316 0.0
C2285 C 0.6796 0.86349 0.46789 0.0
C2286 C 0.68158 0.85152 0.45516 0.0
C2287 C 0.69157 0.86727 0.48231 0.0
C2288 C 0.72694 0.88266 0.50814 0.0
H2289 H 0.7479 0.84626 0.58114 0.0
H2290 H 0.73017 0.84087 0.55464 0.0
H2291 H 0.74383 0.90102 0.52921 0.0
H2292 H 0.69779 0.83414 0.44769 0.0
H2293 H 0.71922 0.84135 0.47261 0.0
H2294 H 0.715 0.83159 0.50068 0.0
C2295 C 0.7443 0.85624 0.55732 0.0
C2296 C 0.73795 0.88591 0.52298 0.0
C2297 C 0.75441 0.85933 0.57254 0.0
C2298 C 0.69602 0.84361 0.45716 0.0
C2299 C 0.70811 0.84751 0.47156 0.0
C2300 C 0.72153 0.84695 0.50663 0.0
C2301 C 0.75195 0.87293 0.54593 0.0
C2302 C 0.74086 0.86971 0.52986 0.0
C2303 C 0.70597 0.85932 0.48434 0.0
C2304 C 0.71842 0.86307 0.49984 0.0
H2305 H 0.79398 0.91134 0.5683 0.0
H2306 H 0.7766 0.90589 0.54159 0.0
H2307 H 0.73486 0.83753 0.52623 0.0
H2308 H 0.66887 0.87007 0.46669 0.0
H2309 H 0.68928 0.87619 0.49197 0.0
C2310 C 0.13915 0.90804 0.56503 0.0
C2311 C 0.13186 0.8927 0.57748 0.0
C2312 C 0.14468 0.90368 0.54971 0.0
C2313 C 0.13954 0.85998 0.5228 0.0
H2314 H 0.19197 0.90549 0.50318 0.0
C2315 C 0.16932 0.85242 0.45848 0.0
C2316 C 0.19193 0.86077 0.45661 0.0
C2317 C 0.16097 0.85619 0.47279 0.0
C2318 C 0.17737 0.89255 0.50852 0.0
H2319 H 0.12416 0.86056 0.58348 0.0
H2320 H 0.13405 0.85299 0.55677 0.0
H2321 H 0.179 0.91176 0.52889 0.0
H2322 H 0.22348 0.87996 0.46826 0.0
H2323 H 0.20896 0.88609 0.49326 0.0
H2324 H 0.13838 0.84058 0.50262 0.0
C2325 C 0.13522 0.86831 0.55877 0.0
C2326 C 0.16974 0.89623 0.52318 0.0
C2327 C 0.12957 0.87265 0.5741 0.0
C2328 C 0.20597 0.87306 0.46935 0.0
C2329 C 0.19764 0.87682 0.48363 0.0
C2330 C 0.14721 0.85628 0.50811 0.0
C2331 C 0.14318 0.88391 0.54647 0.0
C2332 C 0.15078 0.87999 0.53056 0.0
C2333 C 0.17504 0.86844 0.48555 0.0
C2334 C 0.16632 0.87249 0.50085 0.0
H2335 H 0.1407 0.92351 0.56716 0.0
H2336 H 0.15027 0.9159 0.54043 0.0
H2337 H 0.12477 0.84717 0.52805 0.0
H2338 H 0.15802 0.84272 0.44897 0.0
H2339 H 0.1435 0.84967 0.4738 0.0
C2340 C 0.60683 0.80771 0.11716 0.0
C2341 C 0.58786 0.78814 0.11397 0.0
C2342 C 0.61651 0.81212 0.13265 0.0
C2343 C 0.61962 0.78421 0.16926 0.0
H2344 H 0.64773 0.84058 0.18879 0.0
C2345 C 0.67787 0.80574 0.22408 0.0
C2346 C 0.67652 0.81841 0.23653 0.0
C2347 C 0.66647 0.80251 0.20945 0.0
C2348 C 0.63979 0.8247 0.18357 0.0
H2349 H 0.56343 0.7584 0.12471 0.0
H2350 H 0.58011 0.76616 0.15175 0.0
H2351 H 0.62801 0.8343 0.163 0.0
H2352 H 0.66229 0.83784 0.24325 0.0
H2353 H 0.64199 0.83183 0.21778 0.0
H2354 H 0.63107 0.77449 0.18986 0.0
C2355 C 0.58787 0.77788 0.14221 0.0
C2356 C 0.62869 0.82116 0.1687 0.0
C2357 C 0.57828 0.77345 0.12674 0.0
C2358 C 0.66351 0.82781 0.23397 0.0
C2359 C 0.65208 0.82457 0.21931 0.0
C2360 C 0.63068 0.78774 0.18408 0.0
C2361 C 0.60734 0.79708 0.14528 0.0
C2362 C 0.61855 0.80088 0.16134 0.0
C2363 C 0.65337 0.81182 0.2069 0.0
C2364 C 0.64104 0.80805 0.19136 0.0
H2365 H 0.61466 0.81927 0.10752 0.0
H2366 H 0.63161 0.82698 0.13455 0.0
H2367 H 0.61225 0.76846 0.16384 0.0
H2368 H 0.68755 0.79806 0.22571 0.0
H2369 H 0.66806 0.79282 0.20007 0.0
C2370 C 0.24833 0.81288 0.12772 0.0
C2371 C 0.23356 0.80192 0.11494 0.0
C2372 C 0.2409 0.81587 0.14275 0.0
C2373 C 0.19349 0.81593 0.16196 0.0
H2374 H 0.2195 0.81103 0.20227 0.0
C2375 C 0.15598 0.8141 0.22463 0.0
C2376 C 0.17032 0.82651 0.2372 0.0
C2377 C 0.16401 0.81092 0.20997 0.0
C2378 C 0.21221 0.81265 0.19111 0.0
H2379 H 0.19934 0.78565 0.10801 0.0
H2380 H 0.18634 0.79037 0.13431 0.0
H2381 H 0.2328 0.80582 0.17617 0.0
H2382 H 0.20444 0.84509 0.24422 0.0
H2383 H 0.21845 0.83935 0.21863 0.0
H2384 H 0.17281 0.82261 0.17688 0.0
C2385 C 0.20373 0.79693 0.13265 0.0
C2386 C 0.21985 0.80969 0.17614 0.0
C2387 C 0.21116 0.79398 0.11761 0.0
C2388 C 0.19292 0.83526 0.23487 0.0
C2389 C 0.20096 0.832 0.2202 0.0
C2390 C 0.18581 0.8188 0.1769 0.0
C2391 C 0.21849 0.80795 0.14541 0.0
C2392 C 0.21054 0.81125 0.16137 0.0
C2393 C 0.18659 0.81998 0.20752 0.0
C2394 C 0.19502 0.81713 0.19166 0.0
H2395 H 0.26567 0.81899 0.12617 0.0
H2396 H 0.25276 0.82463 0.15223 0.0
H2397 H 0.18622 0.81767 0.15084 0.0
H2398 H 0.13847 0.80674 0.22613 0.0
H2399 H 0.15248 0.80123 0.20058 0.0
C2400 C 0.21195 0.44598 0.13042 0.0
C2401 C 0.22032 0.43943 0.1175 0.0
C2402 C 0.20761 0.4358 0.14557 0.0
C2403 C 0.19352 0.38458 0.16408 0.0
H2404 H 0.20913 0.41602 0.20489 0.0
C2405 C 0.17519 0.34074 0.22569 0.0
C2406 C 0.16843 0.34869 0.23872 0.0
C2407 C 0.18342 0.35256 0.21139 0.0
C2408 C 0.20438 0.40694 0.19363 0.0
H2409 H 0.23095 0.41721 0.11041 0.0
H2410 H 0.22315 0.39924 0.13687 0.0
H2411 H 0.21994 0.43528 0.17908 0.0
H2412 H 0.16526 0.3754 0.24705 0.0
H2413 H 0.17902 0.39585 0.22192 0.0
H2414 H 0.1773 0.35629 0.17841 0.0
C2415 C 0.21998 0.4123 0.13525 0.0
C2416 C 0.21069 0.41802 0.17883 0.0
C2417 C 0.2246 0.42268 0.12015 0.0
C2418 C 0.17051 0.36895 0.23725 0.0
C2419 C 0.17848 0.38069 0.22284 0.0
C2420 C 0.18698 0.37351 0.17884 0.0
C2421 C 0.21129 0.41865 0.1481 0.0
C2422 C 0.2053 0.40696 0.16388 0.0
C2423 C 0.18484 0.37256 0.20961 0.0
C2424 C 0.19228 0.3845 0.19387 0.0
H2425 H 0.20865 0.45895 0.12878 0.0
H2426 H 0.20079 0.44098 0.15517 0.0
H2427 H 0.18881 0.3756 0.15276 0.0
H2428 H 0.17407 0.3253 0.22657 0.0
H2429 H 0.18864 0.34594 0.20171 0.0
C2430 C 0.81132 0.58528 0.90977 0.0
C2431 C 0.78898 0.57129 0.9126 0.0
C2432 C 0.81852 0.59548 0.89471 0.0
C2433 C 0.80178 0.59299 0.85129 0.0
H2434 H 0.84803 0.65207 0.85103 0.0
C2435 C 0.82663 0.64617 0.79324 0.0
C2436 C 0.84904 0.66045 0.79094 0.0
C2437 C 0.81911 0.63443 0.80771 0.0
C2438 C 0.83528 0.63549 0.85085 0.0
H2439 H 0.75677 0.55674 0.90153 0.0
H2440 H 0.76924 0.5749 0.87545 0.0
H2441 H 0.83541 0.63343 0.87687 0.0
H2442 H 0.88116 0.67269 0.80178 0.0
H2443 H 0.8681 0.65233 0.82689 0.0
H2444 H 0.80158 0.59521 0.8252 0.0
C2445 C 0.78126 0.57784 0.88483 0.0
C2446 C 0.82804 0.62477 0.8657 0.0
C2447 C 0.77407 0.56762 0.89989 0.0
C2448 C 0.86375 0.66221 0.80327 0.0
C2449 C 0.85626 0.65053 0.81769 0.0
C2450 C 0.809 0.60375 0.83641 0.0
C2451 C 0.80358 0.592 0.88205 0.0
C2452 C 0.81123 0.60335 0.86614 0.0
C2453 C 0.83383 0.63669 0.82021 0.0
C2454 C 0.82591 0.62513 0.836 0.0
H2455 H 0.82328 0.58865 0.91929 0.0
H2456 H 0.83586 0.60604 0.89297 0.0
H2457 H 0.78901 0.57643 0.85112 0.0
H2458 H 0.81481 0.64455 0.78409 0.0
H2459 H 0.80171 0.62404 0.80929 0.0
C2460 C 0.43874 0.22807 0.90588 0.0
C2461 C 0.42972 0.21137 0.91724 0.0
C2462 C 0.42946 0.22544 0.89035 0.0
C2463 C 0.39255 0.18361 0.86112 0.0
H2464 H 0.38896 0.23018 0.84099 0.0
C2465 C 0.36082 0.17757 0.79527 0.0
C2466 C 0.34697 0.18596 0.79234 0.0
C2467 C 0.37209 0.18147 0.81007 0.0
C2468 C 0.3897 0.21696 0.84648 0.0
H2469 H 0.40359 0.17905 0.92143 0.0
H2470 H 0.38718 0.17456 0.89449 0.0
H2471 H 0.40563 0.23514 0.86787 0.0
H2472 H 0.33461 0.20554 0.80256 0.0
H2473 H 0.35365 0.21174 0.82852 0.0
H2474 H 0.37591 0.16517 0.84003 0.0
C2475 C 0.40174 0.18951 0.89737 0.0
C2476 C 0.39952 0.21989 0.86182 0.0
C2477 C 0.4111 0.19209 0.91284 0.0
C2478 C 0.34489 0.19857 0.80449 0.0
C2479 C 0.35607 0.20238 0.81931 0.0
C2480 C 0.38264 0.18064 0.84583 0.0
C2481 C 0.41086 0.2061 0.88589 0.0
C2482 C 0.40095 0.20321 0.86938 0.0
C2483 C 0.36972 0.19379 0.82233 0.0
C2484 C 0.38098 0.19724 0.83835 0.0
H2485 H 0.45324 0.24302 0.90888 0.0
H2486 H 0.43709 0.23846 0.88176 0.0
H2487 H 0.39365 0.1705 0.86646 0.0
H2488 H 0.36266 0.16763 0.78625 0.0
H2489 H 0.38269 0.17483 0.81189 0.0
C2490 C 0.79007 0.21413 0.90009 0.0
C2491 C 0.80582 0.22373 0.91253 0.0
C2492 C 0.79582 0.2097 0.88484 0.0
C2493 C 0.84339 0.22725 0.85811 0.0
H2494 H 0.80842 0.17338 0.83567 0.0
C2495 C 0.8759 0.20397 0.80215 0.0
C2496 C 0.86139 0.1924 0.78941 0.0
C2497 C 0.86823 0.20784 0.81671 0.0
C2498 C 0.81821 0.18865 0.84164 0.0
H2499 H 0.83973 0.23513 0.91888 0.0
H2500 H 0.84975 0.22772 0.89228 0.0
H2501 H 0.79643 0.17955 0.86205 0.0
H2502 H 0.82731 0.17592 0.78206 0.0
H2503 H 0.81399 0.18323 0.80733 0.0
H2504 H 0.86506 0.23654 0.83777 0.0
C2505 C 0.83304 0.22395 0.89424 0.0
C2506 C 0.81135 0.19213 0.85678 0.0
C2507 C 0.82729 0.22822 0.90948 0.0
C2508 C 0.83899 0.18505 0.79154 0.0
C2509 C 0.83131 0.18901 0.80613 0.0
C2510 C 0.85015 0.22385 0.84296 0.0
C2511 C 0.81746 0.21489 0.88167 0.0
C2512 C 0.82404 0.21137 0.86527 0.0
C2513 C 0.84584 0.20041 0.81892 0.0
C2514 C 0.83783 0.2044 0.83461 0.0
H2515 H 0.77344 0.21064 0.90196 0.0
H2516 H 0.78348 0.20281 0.87536 0.0
H2517 H 0.85329 0.24241 0.8642 0.0
H2518 H 0.89328 0.21016 0.80087 0.0
H2519 H 0.8799 0.21642 0.82634 0.0
C2520 C 0.26901 0.13551 0.45672 0.0
C2521 C 0.25075 0.11542 0.45353 0.0
C2522 C 0.27946 0.13993 0.47192 0.0
C2523 C 0.28608 0.11224 0.50745 0.0
H2524 H 0.31206 0.16809 0.52769 0.0
C2525 C 0.34514 0.13479 0.56189 0.0
C2526 C 0.3435 0.1471 0.57449 0.0
C2527 C 0.33353 0.13141 0.54733 0.0
C2528 C 0.30472 0.15234 0.52228 0.0
H2529 H 0.22839 0.08463 0.46393 0.0
H2530 H 0.24629 0.09242 0.49052 0.0
H2531 H 0.29136 0.16133 0.50237 0.0
H2532 H 0.32854 0.1658 0.58151 0.0
H2533 H 0.30776 0.15936 0.5563 0.0
H2534 H 0.29892 0.10305 0.52749 0.0
C2535 C 0.25298 0.10458 0.48119 0.0
C2536 C 0.29307 0.14854 0.50766 0.0
C2537 C 0.24267 0.10012 0.46599 0.0
C2538 C 0.32999 0.15601 0.57214 0.0
C2539 C 0.31829 0.15255 0.5576 0.0
C2540 C 0.29761 0.116 0.52207 0.0
C2541 C 0.27175 0.12439 0.48426 0.0
C2542 C 0.28367 0.12845 0.50003 0.0
C2543 C 0.31987 0.14015 0.54503 0.0
C2544 C 0.3072 0.13613 0.52963 0.0
H2545 H 0.27567 0.14754 0.44728 0.0
H2546 H 0.29399 0.15528 0.47379 0.0
H2547 H 0.27934 0.09665 0.50182 0.0
H2548 H 0.35519 0.12748 0.56333 0.0
H2549 H 0.33539 0.12202 0.53783 0.0
C2550 C 0.91638 0.14018 0.46159 0.0
C2551 C 0.90163 0.13024 0.44861 0.0
C2552 C 0.90905 0.14286 0.47677 0.0
C2553 C 0.85979 0.12235 0.5024 0.0
H2554 H 0.89189 0.17691 0.52448 0.0
C2555 C 0.82429 0.14457 0.55743 0.0
C2556 C 0.83851 0.1568 0.57012 0.0
C2557 C 0.8324 0.14069 0.54309 0.0
C2558 C 0.8829 0.16146 0.51862 0.0
H2559 H 0.86753 0.11544 0.44147 0.0
H2560 H 0.85475 0.11991 0.46799 0.0
H2561 H 0.90526 0.17129 0.49861 0.0
H2562 H 0.87249 0.17439 0.57764 0.0
H2563 H 0.88659 0.16713 0.55279 0.0
H2564 H 0.83746 0.11246 0.52238 0.0
C2565 C 0.87198 0.12545 0.46645 0.0
C2566 C 0.89055 0.15826 0.50376 0.0
C2567 C 0.87932 0.12286 0.45125 0.0
C2568 C 0.86104 0.16476 0.56819 0.0
C2569 C 0.86916 0.16082 0.55384 0.0
C2570 C 0.8522 0.1255 0.51729 0.0
C2571 C 0.88677 0.13556 0.47937 0.0
C2572 C 0.879 0.13872 0.49542 0.0
C2573 C 0.85495 0.14884 0.54106 0.0
C2574 C 0.86355 0.14516 0.52554 0.0
H2575 H 0.93362 0.14572 0.4601 0.0
H2576 H 0.92082 0.15045 0.48654 0.0
H2577 H 0.85071 0.107 0.49639 0.0
H2578 H 0.80682 0.13793 0.55857 0.0
H2579 H 0.82097 0.1316 0.53346 0.0
C2580 C 0.8609 0.75056 0.45193 0.0
C2581 C 0.88173 0.76811 0.44892 0.0
C2582 C 0.85596 0.74016 0.46697 0.0
C2583 C 0.87404 0.7472 0.51027 0.0
H2584 H 0.83431 0.68619 0.51157 0.0
C2585 C 0.85132 0.69595 0.56972 0.0
C2586 C 0.82903 0.68083 0.57159 0.0
C2587 C 0.85906 0.70734 0.55511 0.0
C2588 C 0.84532 0.70326 0.51143 0.0
H2589 H 0.91383 0.78822 0.45947 0.0
H2590 H 0.9054 0.76963 0.48562 0.0
H2591 H 0.84589 0.70407 0.48537 0.0
H2592 H 0.7973 0.66684 0.55974 0.0
H2593 H 0.81083 0.6863 0.53433 0.0
H2594 H 0.87351 0.74615 0.53647 0.0
C2595 C 0.89273 0.76419 0.47639 0.0
C2596 C 0.85194 0.71356 0.49638 0.0
C2597 C 0.89766 0.77469 0.46131 0.0
C2598 C 0.81464 0.67789 0.55864 0.0
C2599 C 0.82238 0.68909 0.54406 0.0
C2600 C 0.86754 0.73682 0.52537 0.0
C2601 C 0.87176 0.74681 0.47945 0.0
C2602 C 0.86609 0.73573 0.49557 0.0
C2603 C 0.8447 0.70374 0.54201 0.0
C2604 C 0.85281 0.71478 0.5261 0.0
H2605 H 0.84829 0.74478 0.44263 0.0
H2606 H 0.83954 0.72707 0.46887 0.0
H2607 H 0.88477 0.76431 0.51017 0.0
H2608 H 0.86292 0.69853 0.57934 0.0
H2609 H 0.87637 0.71848 0.55388 0.0
loop_
_geom_bond_atom_site_label_1
_geom_bond_atom_site_label_2
_geom_bond_distance
_geom_bond_site_symmetry_2
_ccdc_geom_bond_type
H0 C7 0.929 . S
H1 C10 0.930 . S
H2 C12 0.929 . S
H3 C4 0.969 . S
C4 H3 0.969 . S
C4 O5 1.550 . S
C4 H6 0.973 . S
O5 C4 1.550 . S
O5 C11 1.412 . S
H6 C4 0.973 . S
C7 H0 0.929 . S
C7 C8 1.400 . S
C7 C9 1.364 . S
C8 C7 1.400 . S
C8 C12 1.377 . S
C9 C7 1.364 . S
C9 C10 1.374 . S
C10 H1 0.930 . S
C10 C9 1.374 . S
C10 C11 1.383 . S
C11 O5 1.412 . S
C11 C10 1.383 . S
C11 C12 1.394 . S
C12 H2 0.929 . S
C12 C8 1.377 . S
C12 C11 1.394 . S
H13 C20 0.929 . S
H14 C23 0.930 . S
H15 C25 0.929 . S
H16 C17 0.969 . S
C17 H16 0.969 . S
C17 O18 1.550 . S
C17 H19 0.973 . S
O18 C17 1.550 . S
O18 C24 1.412 . S
H19 C17 0.973 . S
C20 H13 0.929 . S
C20 C21 1.400 . S
C20 C22 1.364 . S
C21 C20 1.400 . S
C21 C25 1.377 . S
C22 C20 1.364 . S
C22 C23 1.374 . S
C23 H14 0.930 . S
C23 C22 1.374 . S
C23 C24 1.383 . S
C24 O18 1.412 . S
C24 C23 1.383 . S
C24 C25 1.394 . S
C25 H15 0.929 . S
C25 C21 1.377 . S
C25 C24 1.394 . S
H26 C33 0.929 . S
H27 C36 0.930 . S
H28 C38 0.929 . S
H29 C30 0.969 . S
C30 H29 0.969 . S
C30 O31 1.550 . S
C30 H32 0.973 . S
O31 C30 1.550 . S
O31 C37 1.412 . S
H32 C30 0.973 . S
C33 H26 0.929 . S
C33 C34 1.400 . S
C33 C35 1.364 . S
C34 C33 1.400 . S
C34 C38 1.377 . S
C35 C33 1.364 . S
C35 C36 1.374 . S
C36 H27 0.930 . S
C36 C35 1.374 . S
C36 C37 1.383 . S
C37 O31 1.412 . S
C37 C36 1.383 . S
C37 C38 1.394 . S
C38 H28 0.929 . S
C38 C34 1.377 . S
C38 C37 1.394 . S
H39 C46 0.929 . S
H40 C49 0.930 . S
H41 C51 0.929 . S
H42 C43 0.969 . S
C43 H42 0.969 . S
C43 O44 1.550 . S
C43 H45 0.973 . S
O44 C43 1.550 . S
O44 C50 1.412 . S
H45 C43 0.973 . S
C46 H39 0.929 . S
C46 C47 1.400 . S
C46 C48 1.364 . S
C47 C46 1.400 . S
C47 C51 1.377 . S
C48 C46 1.364 . S
C48 C49 1.374 . S
C49 H40 0.930 . S
C49 C48 1.374 . S
C49 C50 1.383 . S
C50 O44 1.412 . S
C50 C49 1.383 . S
C50 C51 1.394 . S
C51 H41 0.929 . S
C51 C47 1.377 . S
C51 C50 1.394 . S
H52 C59 0.929 . S
H53 C62 0.930 . S
H54 C64 0.929 . S
H55 C56 0.969 . S
C56 H55 0.969 . S
C56 O57 1.550 . S
C56 H58 0.973 . S
O57 C56 1.550 . S
O57 C63 1.412 . S
H58 C56 0.973 . S
C59 H52 0.929 . S
C59 C60 1.400 . S
C59 C61 1.364 . S
C60 C59 1.400 . S
C60 C64 1.377 . S
C61 C59 1.364 . S
C61 C62 1.374 . S
C62 H53 0.930 . S
C62 C61 1.374 . S
C62 C63 1.383 . S
C63 O57 1.412 . S
C63 C62 1.383 . S
C63 C64 1.394 . S
C64 H54 0.929 . S
C64 C60 1.377 . S
C64 C63 1.394 . S
H65 C72 0.929 . S
H66 C75 0.930 . S
H67 C77 0.929 . S
H68 C69 0.969 . S
C69 H68 0.969 . S
C69 O70 1.550 . S
C69 H71 0.973 . S
O70 C69 1.550 . S
O70 C76 1.412 . S
H71 C69 0.973 . S
C72 H65 0.929 . S
C72 C73 1.400 . S
C72 C74 1.364 . S
C73 C72 1.400 . S
C73 C77 1.377 . S
C74 C72 1.364 . S
C74 C75 1.374 . S
C75 H66 0.930 . S
C75 C74 1.374 . S
C75 C76 1.383 . S
C76 O70 1.412 . S
C76 C75 1.383 . S
C76 C77 1.394 . S
C77 H67 0.929 . S
C77 C73 1.377 . S
C77 C76 1.394 . S
H78 C85 0.929 . S
H79 C88 0.930 . S
H80 C90 0.929 . S
H81 C82 0.969 . S
C82 H81 0.969 . S
C82 O83 1.550 . S
C82 H84 0.973 . S
O83 C82 1.550 . S
O83 C89 1.412 . S
H84 C82 0.973 . S
C85 H78 0.929 . S
C85 C86 1.400 . S
C85 C87 1.364 . S
C86 C85 1.400 . S
C86 C90 1.377 . S
C87 C85 1.364 . S
C87 C88 1.374 . S
C88 H79 0.930 . S
C88 C87 1.374 . S
C88 C89 1.383 . S
C89 O83 1.412 . S
C89 C88 1.383 . S
C89 C90 1.394 . S
C90 H80 0.929 . S
C90 C86 1.377 . S
C90 C89 1.394 . S
H91 C98 0.929 . S
H92 C101 0.930 . S
H93 C103 0.929 . S
H94 C95 0.969 . S
C95 H94 0.969 . S
C95 O96 1.550 . S
C95 H97 0.973 . S
O96 C95 1.550 . S
O96 C102 1.412 . S
H97 C95 0.973 . S
C98 H91 0.929 . S
C98 C99 1.400 . S
C98 C100 1.364 . S
C99 C98 1.400 . S
C99 C103 1.377 . S
C100 C98 1.364 . S
C100 C101 1.374 . S
C101 H92 0.930 . S
C101 C100 1.374 . S
C101 C102 1.383 . S
C102 O96 1.412 . S
C102 C101 1.383 . S
C102 C103 1.394 . S
C103 H93 0.929 . S
C103 C99 1.377 . S
C103 C102 1.394 . S
H104 C111 0.929 . S
H105 C114 0.930 . S
H106 C116 0.929 . S
H107 C108 0.969 . S
C108 H107 0.969 . S
C108 O109 1.550 . S
C108 H110 0.973 . S
O109 C108 1.550 . S
O109 C115 1.412 . S
H110 C108 0.973 . S
C111 H104 0.929 . S
C111 C112 1.400 . S
C111 C113 1.364 . S
C112 C111 1.400 . S
C112 C116 1.377 . S
C113 C111 1.364 . S
C113 C114 1.374 . S
C114 H105 0.930 . S
C114 C113 1.374 . S
C114 C115 1.383 . S
C115 O109 1.412 . S
C115 C114 1.383 . S
C115 C116 1.394 . S
C116 H106 0.929 . S
C116 C112 1.377 . S
C116 C115 1.394 . S
H117 C124 0.929 . S
H118 C127 0.930 . S
H119 C129 0.929 . S
H120 C121 0.969 . S
C121 H120 0.969 . S
C121 O122 1.550 . S
C121 H123 0.973 . S
O122 C121 1.550 . S
O122 C128 1.412 . S
H123 C121 0.973 . S
C124 H117 0.929 . S
C124 C125 1.400 . S
C124 C126 1.364 . S
C125 C124 1.400 . S
C125 C129 1.377 . S
C126 C124 1.364 . S
C126 C127 1.374 . S
C127 H118 0.930 . S
C127 C126 1.374 . S
C127 C128 1.383 . S
C128 O122 1.412 . S
C128 C127 1.383 . S
C128 C129 1.394 . S
C129 H119 0.929 . S
C129 C125 1.377 . S
C129 C128 1.394 . S
H130 C137 0.929 . S
H131 C140 0.930 . S
H132 C142 0.929 . S
H133 C134 0.969 . S
C134 H133 0.969 . S
C134 O135 1.550 . S
C134 H136 0.973 . S
O135 C134 1.550 . S
O135 C141 1.412 . S
H136 C134 0.973 . S
C137 H130 0.929 . S
C137 C138 1.400 . S
C137 C139 1.364 . S
C138 C137 1.400 . S
C138 C142 1.377 . S
C139 C137 1.364 . S
C139 C140 1.374 . S
C140 H131 0.930 . S
C140 C139 1.374 . S
C140 C141 1.383 . S
C141 O135 1.412 . S
C141 C140 1.383 . S
C141 C142 1.394 . S
C142 H132 0.929 . S
C142 C138 1.377 . S
C142 C141 1.394 . S
H143 C150 0.929 . S
H144 C153 0.930 . S
H145 C155 0.929 . S
H146 C147 0.969 . S
C147 H146 0.969 . S
C147 O148 1.550 . S
C147 H149 0.973 . S
O148 C147 1.550 . S
O148 C154 1.412 . S
H149 C147 0.973 . S
C150 H143 0.929 . S
C150 C151 1.400 . S
C150 C152 1.364 . S
C151 C150 1.400 . S
C151 C155 1.377 . S
C152 C150 1.364 . S
C152 C153 1.374 . S
C153 H144 0.930 . S
C153 C152 1.374 . S
C153 C154 1.383 . S
C154 O148 1.412 . S
C154 C153 1.383 . S
C154 C155 1.394 . S
C155 H145 0.929 . S
C155 C151 1.377 . S
C155 C154 1.394 . S
H156 C163 0.929 . S
H157 C166 0.930 . S
H158 C168 0.929 . S
H159 C160 0.969 . S
C160 H159 0.969 . S
C160 O161 1.550 . S
C160 H162 0.973 . S
O161 C160 1.550 . S
O161 C167 1.412 . S
H162 C160 0.973 . S
C163 H156 0.929 . S
C163 C164 1.400 . S
C163 C165 1.364 . S
C164 C163 1.400 . S
C164 C168 1.377 . S
C165 C163 1.364 . S
C165 C166 1.374 . S
C166 H157 0.930 . S
C166 C165 1.374 . S
C166 C167 1.383 . S
C167 O161 1.412 . S
C167 C166 1.383 . S
C167 C168 1.394 . S
C168 H158 0.929 . S
C168 C164 1.377 . S
C168 C167 1.394 . S
H169 C176 0.929 . S
H170 C179 0.930 . S
H171 C181 0.929 . S
H172 C173 0.969 . S
C173 H172 0.969 . S
C173 O174 1.550 . S
C173 H175 0.973 . S
O174 C173 1.550 . S
O174 C180 1.412 . S
H175 C173 0.973 . S
C176 H169 0.929 . S
C176 C177 1.400 . S
C176 C178 1.364 . S
C177 C176 1.400 . S
C177 C181 1.377 . S
C178 C176 1.364 . S
C178 C179 1.374 . S
C179 H170 0.930 . S
C179 C178 1.374 . S
C179 C180 1.383 . S
C180 O174 1.412 . S
C180 C179 1.383 . S
C180 C181 1.394 . S
C181 H171 0.929 . S
C181 C177 1.377 . S
C181 C180 1.394 . S
H182 C189 0.929 . S
H183 C192 0.930 . S
H184 C194 0.929 . S
H185 C186 0.969 . S
C186 H185 0.969 . S
C186 O187 1.550 . S
C186 H188 0.973 . S
O187 C186 1.550 . S
O187 C193 1.412 . S
H188 C186 0.973 . S
C189 H182 0.929 . S
C189 C190 1.400 . S
C189 C191 1.364 . S
C190 C189 1.400 . S
C190 C194 1.377 . S
C191 C189 1.364 . S
C191 C192 1.374 . S
C192 H183 0.930 . S
C192 C191 1.374 . S
C192 C193 1.383 . S
C193 O187 1.412 . S
C193 C192 1.383 . S
C193 C194 1.394 . S
C194 H184 0.929 . S
C194 C190 1.377 . S
C194 C193 1.394 . S
H195 C202 0.929 . S
H196 C205 0.930 . S
H197 C207 0.929 . S
H198 C199 0.969 . S
C199 H198 0.969 . S
C199 O200 1.550 . S
C199 H201 0.973 . S
O200 C199 1.550 . S
O200 C206 1.412 . S
H201 C199 0.973 . S
C202 H195 0.929 . S
C202 C203 1.400 . S
C202 C204 1.364 . S
C203 C202 1.400 . S
C203 C207 1.377 . S
C204 C202 1.364 . S
C204 C205 1.374 . S
C205 H196 0.930 . S
C205 C204 1.374 . S
C205 C206 1.383 . S
C206 O200 1.412 . S
C206 C205 1.383 . S
C206 C207 1.394 . S
C207 H197 0.929 . S
C207 C203 1.377 . S
C207 C206 1.394 . S
H208 C215 0.929 . S
H209 C218 0.930 . S
H210 C220 0.929 . S
H211 C212 0.969 . S
C212 H211 0.969 . S
C212 O213 1.550 . S
C212 H214 0.973 . S
O213 C212 1.550 . S
O213 C219 1.412 . S
H214 C212 0.973 . S
C215 H208 0.929 . S
C215 C216 1.400 . S
C215 C217 1.364 . S
C216 C215 1.400 . S
C216 C220 1.377 . S
C217 C215 1.364 . S
C217 C218 1.374 . S
C218 H209 0.930 . S
C218 C217 1.374 . S
C218 C219 1.383 . S
C219 O213 1.412 . S
C219 C218 1.383 . S
C219 C220 1.394 . S
C220 H210 0.929 . S
C220 C216 1.377 . S
C220 C219 1.394 . S
H221 C228 0.929 . S
H222 C231 0.930 . S
H223 C233 0.929 . S
H224 C225 0.969 . S
C225 H224 0.969 . S
C225 O226 1.550 . S
C225 H227 0.973 . S
O226 C225 1.550 . S
O226 C232 1.412 . S
H227 C225 0.973 . S
C228 H221 0.929 . S
C228 C229 1.400 . S
C228 C230 1.364 . S
C229 C228 1.400 . S
C229 C233 1.377 . S
C230 C228 1.364 . S
C230 C231 1.374 . S
C231 H222 0.930 . S
C231 C230 1.374 . S
C231 C232 1.383 . S
C232 O226 1.412 . S
C232 C231 1.383 . S
C232 C233 1.394 . S
C233 H223 0.929 . S
C233 C229 1.377 . S
C233 C232 1.394 . S
Tb234 N265 2.660 . S
Tb234 N272 2.600 . S
Tb234 O278 2.546 . S
Tb234 O279 2.610 1_566 S
Tb234 O281 2.320 1_565 S
Tb234 O282 2.552 1_565 S
Tb234 O283 2.413 1_565 S
Tb234 O285 2.362 1_556 S
Tb234 O286 2.421 1_556 S
Tb234 C298 2.833 1_565 S
C235 C238 1.432 . S
C235 C239 1.414 . S
C235 N242 1.359 . S
C236 C238 1.417 . S
C236 C240 1.432 . S
C236 C248 1.410 . S
C237 C239 1.444 . S
C237 C240 1.317 . S
C237 H260 0.929 . S
C238 C235 1.432 . S
C238 C236 1.417 . S
C238 N246 1.360 . S
C239 C235 1.414 . S
C239 C237 1.444 . S
C239 C244 1.385 . S
C240 C236 1.432 . S
C240 C237 1.317 . S
C240 H252 0.930 . S
C241 C243 1.392 . S
C241 C244 1.370 . S
C241 H253 0.931 . S
N242 C235 1.359 . S
N242 C243 1.327 . S
N242 Tb245 2.600 . S
C243 C241 1.392 . S
C243 N242 1.327 . S
C243 H250 0.930 . S
C244 C239 1.385 . S
C244 C241 1.370 . S
C244 H263 0.930 . S
Tb245 N242 2.600 . S
Tb245 N246 2.660 . S
Tb245 O279 2.362 . S
Tb245 O280 2.421 . S
Tb245 O284 2.546 . S
Tb245 O285 2.610 1_545 S
Tb245 O287 2.320 1_545 S
Tb245 O288 2.552 1_545 S
Tb245 O289 2.413 1_545 S
Tb245 C309 2.833 . S
N246 C238 1.360 . S
N246 Tb245 2.660 . S
N246 C247 1.305 . S
C247 N246 1.305 . S
C247 C249 1.407 . S
C247 H254 0.930 . S
C248 C236 1.410 . S
C248 C249 1.345 . S
C248 H256 0.930 . S
C249 C247 1.407 . S
C249 C248 1.345 . S
C249 H251 0.930 . S
H250 C243 0.930 . S
H251 C249 0.930 . S
H252 C240 0.930 . S
H253 C241 0.931 . S
H254 C247 0.930 . S
H255 C269 0.930 . S
H256 C248 0.930 . S
H257 C275 0.930 . S
H258 C266 0.937 . S
H259 C273 0.931 . S
H260 C237 0.929 . S
H261 C267 0.930 . S
H262 C300 0.930 . S
H263 C244 0.930 . S
H264 C299 0.929 . S
N265 Tb234 2.660 . S
N265 C266 1.305 . S
N265 C270 1.360 . S
C266 H258 0.937 . S
C266 N265 1.305 . S
C266 C269 1.407 . S
C267 H261 0.930 . S
C267 C268 1.410 . S
C267 C269 1.345 . S
C268 C267 1.410 . S
C268 C270 1.417 . S
C268 C300 1.432 . S
C269 H255 0.930 . S
C269 C266 1.407 . S
C269 C267 1.345 . S
C270 N265 1.360 . S
C270 C268 1.417 . S
C270 C274 1.432 . S
H271 C276 0.930 . S
N272 Tb234 2.600 . S
N272 C274 1.359 . S
N272 C275 1.327 . S
C273 H259 0.931 . S
C273 C275 1.392 . S
C273 C276 1.370 . S
C274 C270 1.432 . S
C274 N272 1.359 . S
C274 C277 1.414 . S
C275 H257 0.930 . S
C275 N272 1.327 . S
C275 C273 1.392 . S
C276 H271 0.930 . S
C276 C273 1.370 . S
C276 C277 1.385 . S
C277 C274 1.414 . S
C277 C276 1.385 . S
C277 C299 1.444 . S
O278 Tb234 2.546 . S
O278 C298 1.251 1_565 S
O279 Tb234 2.610 1_544 S
O279 Tb245 2.362 . S
O279 C290 1.283 1_554 S
O280 Tb245 2.421 . S
O280 C297 1.262 . S
O281 Tb234 2.320 1_545 S
O281 C297 1.260 1_556 S
O282 Tb234 2.552 1_545 S
O282 C290 1.243 . S
O283 Tb234 2.413 1_545 S
O283 C298 1.256 . S
O284 Tb245 2.546 . S
O284 C309 1.251 . S
O285 Tb234 2.362 1_554 S
O285 Tb245 2.610 1_565 S
O285 C301 1.283 . S
O286 Tb234 2.421 1_554 S
O286 C308 1.262 . S
O287 Tb245 2.320 1_565 S
O287 C308 1.260 . S
O288 Tb245 2.552 1_565 S
O288 C301 1.243 . S
O289 Tb245 2.413 1_565 S
O289 C309 1.256 1_565 S
C290 O279 1.283 1_556 S
C290 O282 1.243 . S
C291 C293 1.382 . S
C291 C295 1.393 1_545 S
C291 C298 1.500 . S
C292 C293 1.400 . S
C292 C294 1.384 . S
C293 C291 1.382 . S
C293 C292 1.400 . S
C293 H310 0.930 . S
C294 C292 1.384 . S
C294 C296 1.376 1_545 S
C294 H311 0.931 . S
C295 C291 1.393 1_565 S
C295 C296 1.404 . S
C295 H312 0.930 . S
C296 C294 1.376 1_565 S
C296 C295 1.404 . S
C296 H313 0.943 . S
C297 O280 1.262 . S
C297 O281 1.260 1_554 S
C298 Tb234 2.833 1_545 S
C298 O278 1.251 1_545 S
C298 O283 1.256 . S
C298 C291 1.500 . S
C299 H264 0.929 . S
C299 C277 1.444 . S
C299 C300 1.317 . S
C300 H262 0.930 . S
C300 C268 1.432 . S
C300 C299 1.317 . S
C301 O285 1.283 . S
C301 O288 1.243 . S
C302 C303 1.364 1_545 S
C302 C306 1.408 . S
C302 C309 1.503 . S
C303 C302 1.364 1_565 S
C303 C304 1.400 . S
C303 H314 0.930 . S
C304 C303 1.400 . S
C304 C305 1.384 . S
C305 C304 1.384 . S
C305 C307 1.392 1_565 S
C305 H315 0.931 . S
C306 C302 1.408 . S
C306 C307 1.401 . S
C306 H316 0.930 . S
C307 C305 1.392 1_545 S
C307 C306 1.401 . S
C307 H317 0.930 . S
C308 O286 1.262 . S
C308 O287 1.260 . S
C309 Tb245 2.833 . S
C309 O284 1.251 . S
C309 O289 1.256 1_545 S
C309 C302 1.503 . S
H310 C293 0.930 . S
H311 C294 0.931 . S
H312 C295 0.930 . S
H313 C296 0.943 . S
H314 C303 0.930 . S
H315 C305 0.931 . S
H316 C306 0.930 . S
H317 C307 0.930 . S
Tb318 N349 2.660 . S
Tb318 N356 2.600 . S
Tb318 O362 2.546 . S
Tb318 O363 2.610 1_456 S
Tb318 O365 2.320 1_455 S
Tb318 O366 2.552 1_455 S
Tb318 O367 2.420 . S
Tb318 O369 2.362 1_556 S
Tb318 O370 2.421 1_556 S
Tb318 C382 2.833 . S
C319 C322 1.432 . S
C319 C323 1.414 . S
C319 N326 1.359 . S
C320 C322 1.417 . S
C320 C324 1.432 . S
C320 C332 1.410 . S
C321 C323 1.444 . S
C321 C324 1.317 . S
C321 H344 0.929 . S
C322 C319 1.432 . S
C322 C320 1.417 . S
C322 N330 1.360 . S
C323 C319 1.414 . S
C323 C321 1.444 . S
C323 C328 1.385 . S
C324 C320 1.432 . S
C324 C321 1.317 . S
C324 H336 0.930 . S
C325 C327 1.392 . S
C325 C328 1.370 . S
C325 H337 0.931 . S
N326 C319 1.359 . S
N326 C327 1.327 . S
N326 Tb329 2.600 . S
C327 C325 1.392 . S
C327 N326 1.327 . S
C327 H334 0.930 . S
C328 C323 1.385 . S
C328 C325 1.370 . S
C328 H347 0.930 . S
Tb329 N326 2.600 . S
Tb329 N330 2.660 . S
Tb329 O363 2.362 . S
Tb329 O364 2.421 . S
Tb329 O368 2.546 . S
Tb329 O369 2.610 1_655 S
Tb329 O371 2.320 1_655 S
Tb329 O372 2.552 1_655 S
Tb329 O373 2.413 1_655 S
Tb329 C393 2.833 1_655 S
N330 C322 1.360 . S
N330 Tb329 2.660 . S
N330 C331 1.305 . S
C331 N330 1.305 . S
C331 C333 1.407 . S
C331 H338 0.929 . S
C332 C320 1.410 . S
C332 C333 1.345 . S
C332 H340 0.930 . S
C333 C331 1.407 . S
C333 C332 1.345 . S
C333 H335 0.930 . S
H334 C327 0.930 . S
H335 C333 0.930 . S
H336 C324 0.930 . S
H337 C325 0.931 . S
H338 C331 0.929 . S
H339 C353 0.930 . S
H340 C332 0.930 . S
H341 C359 0.930 . S
H342 C350 0.930 . S
H343 C357 0.931 . S
H344 C321 0.929 . S
H345 C351 0.930 . S
H346 C384 0.930 . S
H347 C328 0.930 . S
H348 C383 0.929 . S
N349 Tb318 2.660 . S
N349 C350 1.305 . S
N349 C354 1.360 . S
C350 H342 0.930 . S
C350 N349 1.305 . S
C350 C353 1.407 . S
C351 H345 0.930 . S
C351 C352 1.410 . S
C351 C353 1.345 . S
C352 C351 1.410 . S
C352 C354 1.417 . S
C352 C384 1.432 . S
C353 H339 0.930 . S
C353 C350 1.407 . S
C353 C351 1.345 . S
C354 N349 1.360 . S
C354 C352 1.417 . S
C354 C358 1.432 . S
H355 C360 0.930 . S
N356 Tb318 2.600 . S
N356 C358 1.359 . S
N356 C359 1.327 . S
C357 H343 0.931 . S
C357 C359 1.392 . S
C357 C360 1.370 . S
C358 C354 1.432 . S
C358 N356 1.359 . S
C358 C361 1.414 . S
C359 H341 0.930 . S
C359 N356 1.327 . S
C359 C357 1.392 . S
C360 H355 0.930 . S
C360 C357 1.370 . S
C360 C361 1.385 . S
C361 C358 1.414 . S
C361 C360 1.385 . S
C361 C383 1.444 . S
O362 Tb318 2.546 . S
O362 C382 1.251 . S
O363 Tb318 2.610 1_654 S
O363 Tb329 2.362 . S
O363 C374 1.283 1_554 S
O364 Tb329 2.421 . S
O364 C381 1.262 . S
O365 Tb318 2.320 1_655 S
O365 C381 1.260 1_556 S
O366 Tb318 2.552 1_655 S
O366 C374 1.243 . S
O367 Tb318 2.420 . S
O367 C382 1.254 . S
O368 Tb329 2.546 . S
O368 C393 1.251 1_655 S
O369 Tb318 2.362 1_554 S
O369 Tb329 2.610 1_455 S
O369 C385 1.283 . S
O370 Tb318 2.421 1_554 S
O370 C392 1.262 . S
O371 Tb329 2.320 1_455 S
O371 C392 1.260 . S
O372 Tb329 2.552 1_455 S
O372 C385 1.243 . S
O373 Tb329 2.413 1_455 S
O373 C393 1.256 . S
C374 O363 1.283 1_556 S
C374 O366 1.243 . S
C375 C377 1.382 1_455 S
C375 C379 1.393 . S
C375 C382 1.500 . S
C376 C377 1.400 . S
C376 C378 1.384 . S
C377 C375 1.382 1_655 S
C377 C376 1.400 . S
C377 H394 0.930 . S
C378 C376 1.384 . S
C378 C380 1.392 1_655 S
C378 H395 0.931 . S
C379 C375 1.393 . S
C379 C380 1.401 . S
C379 H396 0.930 . S
C380 C378 1.392 1_455 S
C380 C379 1.401 . S
C380 H397 0.930 . S
C381 O364 1.262 . S
C381 O365 1.260 1_554 S
C382 Tb318 2.833 . S
C382 O362 1.251 . S
C382 O367 1.254 . S
C382 C375 1.500 . S
C383 H348 0.929 . S
C383 C361 1.444 . S
C383 C384 1.317 . S
C384 H346 0.930 . S
C384 C352 1.432 . S
C384 C383 1.317 . S
C385 O369 1.283 . S
C385 O372 1.243 . S
C386 C387 1.382 . S
C386 C390 1.393 1_455 S
C386 C393 1.500 . S
C387 C386 1.382 . S
C387 C388 1.400 . S
C387 H398 0.930 . S
C388 C387 1.400 . S
C388 C389 1.384 . S
C389 C388 1.384 . S
C389 C391 1.392 1_455 S
C389 H399 0.931 . S
C390 C386 1.393 1_655 S
C390 C391 1.401 . S
C390 H400 0.930 . S
C391 C389 1.392 1_655 S
C391 C390 1.401 . S
C391 H401 0.930 . S
C392 O370 1.262 . S
C392 O371 1.260 . S
C393 Tb329 2.833 1_455 S
C393 O368 1.251 1_455 S
C393 O373 1.256 . S
C393 C386 1.500 . S
H394 C377 0.930 . S
H395 C378 0.931 . S
H396 C379 0.930 . S
H397 C380 0.930 . S
H398 C387 0.930 . S
H399 C389 0.931 . S
H400 C390 0.930 . S
H401 C391 0.930 . S
Tb402 N433 2.660 . S
Tb402 N440 2.600 . S
Tb402 O446 2.546 . S
Tb402 O447 2.610 . S
Tb402 O449 2.320 . S
Tb402 O450 2.552 . S
Tb402 O451 2.413 . S
Tb402 O453 2.362 . S
Tb402 O454 2.421 . S
Tb402 C466 2.833 . S
C403 C406 1.432 . S
C403 C407 1.414 . S
C403 N410 1.359 . S
C404 C406 1.417 . S
C404 C408 1.432 . S
C404 C416 1.410 . S
C405 C407 1.444 . S
C405 C408 1.317 . S
C405 H428 0.929 . S
C406 C403 1.432 . S
C406 C404 1.417 . S
C406 N414 1.360 . S
C407 C403 1.414 . S
C407 C405 1.444 . S
C407 C412 1.385 . S
C408 C404 1.432 . S
C408 C405 1.317 . S
C408 H420 0.930 . S
C409 C411 1.392 . S
C409 C412 1.370 . S
C409 H421 0.931 . S
N410 C403 1.359 . S
N410 C411 1.327 . S
N410 Tb413 2.600 . S
C411 C409 1.392 . S
C411 N410 1.327 . S
C411 H418 0.930 . S
C412 C407 1.385 . S
C412 C409 1.370 . S
C412 H431 0.930 . S
Tb413 N410 2.600 . S
Tb413 N414 2.660 . S
Tb413 O447 2.362 1_556 S
Tb413 O448 2.421 1_556 S
Tb413 O452 2.546 . S
Tb413 O453 2.610 1_556 S
Tb413 O455 2.320 . S
Tb413 O456 2.552 . S
Tb413 O457 2.413 . S
Tb413 C477 2.833 . S
N414 C406 1.360 . S
N414 Tb413 2.660 . S
N414 C415 1.305 . S
C415 N414 1.305 . S
C415 C417 1.407 . S
C415 H422 0.930 . S
C416 C404 1.410 . S
C416 C417 1.345 . S
C416 H424 0.930 . S
C417 C415 1.407 . S
C417 C416 1.345 . S
C417 H419 0.930 . S
H418 C411 0.930 . S
H419 C417 0.930 . S
H420 C408 0.930 . S
H421 C409 0.931 . S
H422 C415 0.930 . S
H423 C437 0.930 . S
H424 C416 0.930 . S
H425 C443 0.930 . S
H426 C434 0.930 . S
H427 C441 0.931 . S
H428 C405 0.929 . S
H429 C435 0.930 . S
H430 C468 0.930 . S
H431 C412 0.930 . S
H432 C467 0.929 . S
N433 Tb402 2.660 . S
N433 C434 1.305 . S
N433 C438 1.360 . S
C434 H426 0.930 . S
C434 N433 1.305 . S
C434 C437 1.407 . S
C435 H429 0.930 . S
C435 C436 1.410 . S
C435 C437 1.345 . S
C436 C435 1.410 . S
C436 C438 1.417 . S
C436 C468 1.432 . S
C437 H423 0.930 . S
C437 C434 1.407 . S
C437 C435 1.345 . S
C438 N433 1.360 . S
C438 C436 1.417 . S
C438 C442 1.432 . S
H439 C444 0.930 . S
N440 Tb402 2.600 . S
N440 C442 1.359 . S
N440 C443 1.327 . S
C441 H427 0.931 . S
C441 C443 1.392 . S
C441 C444 1.370 . S
C442 C438 1.432 . S
C442 N440 1.359 . S
C442 C445 1.414 . S
C443 H425 0.930 . S
C443 N440 1.327 . S
C443 C441 1.392 . S
C444 H439 0.930 . S
C444 C441 1.370 . S
C444 C445 1.385 . S
C445 C442 1.414 . S
C445 C444 1.385 . S
C445 C467 1.444 . S
O446 Tb402 2.546 . S
O446 C466 1.251 . S
O447 Tb402 2.610 . S
O447 Tb413 2.362 1_554 S
O447 C458 1.283 . S
O448 Tb413 2.421 1_554 S
O448 C465 1.262 . S
O449 Tb402 2.320 . S
O449 C465 1.260 . S
O450 Tb402 2.552 . S
O450 C458 1.243 . S
O451 Tb402 2.413 . S
O451 C466 1.256 . S
O452 Tb413 2.546 . S
O452 C477 1.251 . S
O453 Tb402 2.362 . S
O453 Tb413 2.610 1_554 S
O453 C469 1.283 1_554 S
O454 Tb402 2.421 . S
O454 C476 1.262 . S
O455 Tb413 2.320 . S
O455 C476 1.260 1_556 S
O456 Tb413 2.552 . S
O456 C469 1.243 . S
O457 Tb413 2.413 . S
O457 C477 1.256 . S
C458 O447 1.283 . S
C458 O450 1.243 . S
C459 C461 1.382 . S
C459 C463 1.393 . S
C459 C466 1.500 . S
C460 C461 1.400 . S
C460 C462 1.384 . S
C461 C459 1.382 . S
C461 C460 1.400 . S
C461 H478 0.930 . S
C462 C460 1.384 . S
C462 C464 1.392 . S
C462 H479 0.931 . S
C463 C459 1.393 . S
C463 C464 1.401 . S
C463 H480 0.930 . S
C464 C462 1.392 . S
C464 C463 1.401 . S
C464 H481 0.930 . S
C465 O448 1.262 . S
C465 O449 1.260 . S
C466 Tb402 2.833 . S
C466 O446 1.251 . S
C466 O451 1.256 . S
C466 C459 1.500 . S
C467 H432 0.929 . S
C467 C445 1.444 . S
C467 C468 1.317 . S
C468 H430 0.930 . S
C468 C436 1.432 . S
C468 C467 1.317 . S
C469 O453 1.283 1_556 S
C469 O456 1.243 . S
C470 C471 1.382 . S
C470 C474 1.393 . S
C470 C477 1.500 . S
C471 C470 1.382 . S
C471 C472 1.400 . S
C471 H482 0.930 . S
C472 C471 1.400 . S
C472 C473 1.384 . S
C473 C472 1.384 . S
C473 C475 1.392 . S
C473 H483 0.931 . S
C474 C470 1.393 . S
C474 C475 1.401 . S
C474 H484 0.930 . S
C475 C473 1.392 . S
C475 C474 1.401 . S
C475 H485 0.930 . S
C476 O454 1.262 . S
C476 O455 1.260 1_554 S
C477 Tb413 2.833 . S
C477 O452 1.251 . S
C477 O457 1.256 . S
C477 C470 1.500 . S
H478 C461 0.930 . S
H479 C462 0.931 . S
H480 C463 0.930 . S
H481 C464 0.930 . S
H482 C471 0.930 . S
H483 C473 0.931 . S
H484 C474 0.930 . S
H485 C475 0.930 . S
Tb486 N517 2.660 . S
Tb486 N524 2.600 . S
Tb486 O530 2.546 . S
Tb486 O531 2.610 . S
Tb486 O533 2.320 . S
Tb486 O534 2.552 . S
Tb486 O535 2.413 . S
Tb486 O537 2.362 . S
Tb486 O538 2.421 . S
Tb486 C550 2.833 . S
C487 C490 1.432 . S
C487 C491 1.414 . S
C487 N494 1.359 . S
C488 C490 1.417 . S
C488 C492 1.432 . S
C488 C500 1.410 . S
C489 C491 1.444 . S
C489 C492 1.317 . S
C489 H512 0.929 . S
C490 C487 1.432 . S
C490 C488 1.417 . S
C490 N498 1.360 . S
C491 C487 1.414 . S
C491 C489 1.444 . S
C491 C496 1.385 . S
C492 C488 1.432 . S
C492 C489 1.317 . S
C492 H504 0.930 . S
C493 C495 1.392 . S
C493 C496 1.370 . S
C493 H505 0.931 . S
N494 C487 1.359 . S
N494 C495 1.327 . S
N494 Tb497 2.600 . S
C495 C493 1.392 . S
C495 N494 1.327 . S
C495 H502 0.930 . S
C496 C491 1.385 . S
C496 C493 1.370 . S
C496 H515 0.930 . S
Tb497 N494 2.600 . S
Tb497 N498 2.660 . S
Tb497 O531 2.362 . S
Tb497 O532 2.421 . S
Tb497 O536 2.546 . S
Tb497 O537 2.610 . S
Tb497 O539 2.320 . S
Tb497 O540 2.552 . S
Tb497 O541 2.413 . S
Tb497 C561 2.833 . S
N498 C490 1.360 . S
N498 Tb497 2.660 . S
N498 C499 1.305 . S
C499 N498 1.305 . S
C499 C501 1.407 . S
C499 H506 0.930 . S
C500 C488 1.410 . S
C500 C501 1.345 . S
C500 H508 0.930 . S
C501 C499 1.407 . S
C501 C500 1.345 . S
C501 H503 0.930 . S
H502 C495 0.930 . S
H503 C501 0.930 . S
H504 C492 0.930 . S
H505 C493 0.931 . S
H506 C499 0.930 . S
H507 C521 0.930 . S
H508 C500 0.930 . S
H509 C527 0.930 . S
H510 C518 0.930 . S
H511 C525 0.931 . S
H512 C489 0.929 . S
H513 C519 0.930 . S
H514 C552 0.930 . S
H515 C496 0.930 . S
H516 C551 0.929 . S
N517 Tb486 2.660 . S
N517 C518 1.305 . S
N517 C522 1.360 . S
C518 H510 0.930 . S
C518 N517 1.305 . S
C518 C521 1.407 . S
C519 H513 0.930 . S
C519 C520 1.410 . S
C519 C521 1.345 . S
C520 C519 1.410 . S
C520 C522 1.417 . S
C520 C552 1.432 . S
C521 H507 0.930 . S
C521 C518 1.407 . S
C521 C519 1.345 . S
C522 N517 1.360 . S
C522 C520 1.417 . S
C522 C526 1.432 . S
H523 C528 0.930 . S
N524 Tb486 2.600 . S
N524 C526 1.359 . S
N524 C527 1.327 . S
C525 H511 0.931 . S
C525 C527 1.392 . S
C525 C528 1.370 . S
C526 C522 1.432 . S
C526 N524 1.359 . S
C526 C529 1.414 . S
C527 H509 0.930 . S
C527 N524 1.327 . S
C527 C525 1.392 . S
C528 H523 0.930 . S
C528 C525 1.370 . S
C528 C529 1.385 . S
C529 C526 1.414 . S
C529 C528 1.385 . S
C529 C551 1.444 . S
O530 Tb486 2.546 . S
O530 C550 1.251 . S
O531 Tb486 2.610 . S
O531 Tb497 2.362 . S
O531 C542 1.283 . S
O532 Tb497 2.421 . S
O532 C549 1.262 . S
O533 Tb486 2.320 . S
O533 C549 1.260 . S
O534 Tb486 2.552 . S
O534 C542 1.243 . S
O535 Tb486 2.413 . S
O535 C550 1.256 . S
O536 Tb497 2.546 . S
O536 C561 1.251 . S
O537 Tb486 2.362 . S
O537 Tb497 2.610 . S
O537 C553 1.283 . S
O538 Tb486 2.421 . S
O538 C560 1.262 . S
O539 Tb497 2.320 . S
O539 C560 1.260 . S
O540 Tb497 2.552 . S
O540 C553 1.243 . S
O541 Tb497 2.413 . S
O541 C561 1.256 . S
C542 O531 1.283 . S
C542 O534 1.243 . S
C543 C545 1.382 . S
C543 C547 1.393 . S
C543 C550 1.500 . S
C544 C545 1.400 . S
C544 C546 1.384 . S
C545 C543 1.382 . S
C545 C544 1.400 . S
C545 H562 0.930 . S
C546 C544 1.384 . S
C546 C548 1.392 . S
C546 H563 0.931 . S
C547 C543 1.393 . S
C547 C548 1.401 . S
C547 H564 0.930 . S
C548 C546 1.392 . S
C548 C547 1.401 . S
C548 H565 0.930 . S
C549 O532 1.262 . S
C549 O533 1.260 . S
C550 Tb486 2.833 . S
C550 O530 1.251 . S
C550 O535 1.256 . S
C550 C543 1.500 . S
C551 H516 0.929 . S
C551 C529 1.444 . S
C551 C552 1.317 . S
C552 H514 0.930 . S
C552 C520 1.432 . S
C552 C551 1.317 . S
C553 O537 1.283 . S
C553 O540 1.243 . S
C554 C555 1.382 . S
C554 C558 1.393 . S
C554 C561 1.500 . S
C555 C554 1.382 . S
C555 C556 1.400 . S
C555 H566 0.930 . S
C556 C555 1.400 . S
C556 C557 1.384 . S
C557 C556 1.384 . S
C557 C559 1.392 . S
C557 H567 0.931 . S
C558 C554 1.393 . S
C558 C559 1.401 . S
C558 H568 0.930 . S
C559 C557 1.392 . S
C559 C558 1.401 . S
C559 H569 0.930 . S
C560 O538 1.262 . S
C560 O539 1.260 . S
C561 Tb497 2.833 . S
C561 O536 1.251 . S
C561 O541 1.256 . S
C561 C554 1.500 . S
H562 C545 0.930 . S
H563 C546 0.931 . S
H564 C547 0.930 . S
H565 C548 0.930 . S
H566 C555 0.930 . S
H567 C557 0.931 . S
H568 C558 0.930 . S
H569 C559 0.930 . S
Tb570 N601 2.660 . S
Tb570 N608 2.600 . S
Tb570 O614 2.546 . S
Tb570 O615 2.610 . S
Tb570 O617 2.320 . S
Tb570 O618 2.552 . S
Tb570 O619 2.413 . S
Tb570 O621 2.362 . S
Tb570 O622 2.421 . S
Tb570 C634 2.833 . S
C571 C574 1.432 . S
C571 C575 1.414 . S
C571 N578 1.359 . S
C572 C574 1.417 . S
C572 C576 1.432 . S
C572 C584 1.410 . S
C573 C575 1.444 . S
C573 C576 1.317 . S
C573 H596 0.929 . S
C574 C571 1.432 . S
C574 C572 1.417 . S
C574 N582 1.360 . S
C575 C571 1.414 . S
C575 C573 1.444 . S
C575 C580 1.385 . S
C576 C572 1.432 . S
C576 C573 1.317 . S
C576 H588 0.930 . S
C577 C579 1.392 . S
C577 C580 1.370 . S
C577 H589 0.931 . S
N578 C571 1.359 . S
N578 C579 1.327 . S
N578 Tb581 2.600 . S
C579 C577 1.392 . S
C579 N578 1.327 . S
C579 H586 0.930 . S
C580 C575 1.385 . S
C580 C577 1.370 . S
C580 H599 0.930 . S
Tb581 N578 2.600 . S
Tb581 N582 2.660 . S
Tb581 O615 2.362 . S
Tb581 O616 2.421 . S
Tb581 O620 2.546 . S
Tb581 O621 2.610 . S
Tb581 O623 2.320 . S
Tb581 O624 2.552 . S
Tb581 O625 2.413 . S
Tb581 C645 2.833 . S
N582 C574 1.360 . S
N582 Tb581 2.660 . S
N582 C583 1.305 . S
C583 N582 1.305 . S
C583 C585 1.407 . S
C583 H590 0.930 . S
C584 C572 1.410 . S
C584 C585 1.345 . S
C584 H592 0.930 . S
C585 C583 1.407 . S
C585 C584 1.345 . S
C585 H587 0.930 . S
H586 C579 0.930 . S
H587 C585 0.930 . S
H588 C576 0.930 . S
H589 C577 0.931 . S
H590 C583 0.930 . S
H591 C605 0.930 . S
H592 C584 0.930 . S
H593 C611 0.930 . S
H594 C602 0.930 . S
H595 C609 0.931 . S
H596 C573 0.929 . S
H597 C603 0.930 . S
H598 C636 0.930 . S
H599 C580 0.930 . S
H600 C635 0.929 . S
N601 Tb570 2.660 . S
N601 C602 1.305 . S
N601 C606 1.360 . S
C602 H594 0.930 . S
C602 N601 1.305 . S
C602 C605 1.407 . S
C603 H597 0.930 . S
C603 C604 1.410 . S
C603 C605 1.345 . S
C604 C603 1.410 . S
C604 C606 1.417 . S
C604 C636 1.432 . S
C605 H591 0.930 . S
C605 C602 1.407 . S
C605 C603 1.345 . S
C606 N601 1.360 . S
C606 C604 1.417 . S
C606 C610 1.432 . S
H607 C612 0.930 . S
N608 Tb570 2.600 . S
N608 C610 1.359 . S
N608 C611 1.327 . S
C609 H595 0.931 . S
C609 C611 1.392 . S
C609 C612 1.370 . S
C610 C606 1.432 . S
C610 N608 1.359 . S
C610 C613 1.414 . S
C611 H593 0.930 . S
C611 N608 1.327 . S
C611 C609 1.392 . S
C612 H607 0.930 . S
C612 C609 1.370 . S
C612 C613 1.385 . S
C613 C610 1.414 . S
C613 C612 1.385 . S
C613 C635 1.444 . S
O614 Tb570 2.546 . S
O614 C634 1.251 . S
O615 Tb570 2.610 . S
O615 Tb581 2.362 . S
O615 C626 1.283 . S
O616 Tb581 2.421 . S
O616 C633 1.262 . S
O617 Tb570 2.320 . S
O617 C633 1.260 . S
O618 Tb570 2.552 . S
O618 C626 1.243 . S
O619 Tb570 2.413 . S
O619 C634 1.256 . S
O620 Tb581 2.546 . S
O620 C645 1.251 . S
O621 Tb570 2.362 . S
O621 Tb581 2.610 . S
O621 C637 1.283 . S
O622 Tb570 2.421 . S
O622 C644 1.262 . S
O623 Tb581 2.320 . S
O623 C644 1.260 . S
O624 Tb581 2.552 . S
O624 C637 1.243 . S
O625 Tb581 2.413 . S
O625 C645 1.256 . S
C626 O615 1.283 . S
C626 O618 1.243 . S
C627 C629 1.382 . S
C627 C631 1.393 . S
C627 C634 1.500 . S
C628 C629 1.400 . S
C628 C630 1.384 . S
C629 C627 1.382 . S
C629 C628 1.400 . S
C629 H646 0.930 . S
C630 C628 1.384 . S
C630 C632 1.392 . S
C630 H647 0.931 . S
C631 C627 1.393 . S
C631 C632 1.401 . S
C631 H648 0.930 . S
C632 C630 1.392 . S
C632 C631 1.401 . S
C632 H649 0.930 . S
C633 O616 1.262 . S
C633 O617 1.260 . S
C634 Tb570 2.833 . S
C634 O614 1.251 . S
C634 O619 1.256 . S
C634 C627 1.500 . S
C635 H600 0.929 . S
C635 C613 1.444 . S
C635 C636 1.317 . S
C636 H598 0.930 . S
C636 C604 1.432 . S
C636 C635 1.317 . S
C637 O621 1.283 . S
C637 O624 1.243 . S
C638 C639 1.382 . S
C638 C642 1.393 . S
C638 C645 1.500 . S
C639 C638 1.382 . S
C639 C640 1.400 . S
C639 H650 0.930 . S
C640 C639 1.400 . S
C640 C641 1.384 . S
C641 C640 1.384 . S
C641 C643 1.392 . S
C641 H651 0.931 . S
C642 C638 1.393 . S
C642 C643 1.401 . S
C642 H652 0.930 . S
C643 C641 1.392 . S
C643 C642 1.401 . S
C643 H653 0.930 . S
C644 O622 1.262 . S
C644 O623 1.260 . S
C645 Tb581 2.833 . S
C645 O620 1.251 . S
C645 O625 1.256 . S
C645 C638 1.500 . S
H646 C629 0.930 . S
H647 C630 0.931 . S
H648 C631 0.930 . S
H649 C632 0.930 . S
H650 C639 0.930 . S
H651 C641 0.931 . S
H652 C642 0.930 . S
H653 C643 0.930 . S
Tb654 N685 2.660 . S
Tb654 N692 2.600 . S
Tb654 O698 2.546 . S
Tb654 O699 2.610 . S
Tb654 O701 2.320 . S
Tb654 O702 2.552 . S
Tb654 O703 2.413 . S
Tb654 O705 2.362 . S
Tb654 O706 2.421 . S
Tb654 C718 2.833 . S
C655 C658 1.432 . S
C655 C659 1.414 . S
C655 N662 1.359 . S
C656 C658 1.417 . S
C656 C660 1.432 . S
C656 C668 1.410 . S
C657 C659 1.444 . S
C657 C660 1.317 . S
C657 H680 0.929 . S
C658 C655 1.432 . S
C658 C656 1.417 . S
C658 N666 1.360 . S
C659 C655 1.414 . S
C659 C657 1.444 . S
C659 C664 1.385 . S
C660 C656 1.432 . S
C660 C657 1.317 . S
C660 H672 0.930 . S
C661 C663 1.392 . S
C661 C664 1.370 . S
C661 H673 0.931 . S
N662 C655 1.359 . S
N662 C663 1.327 . S
N662 Tb665 2.600 . S
C663 C661 1.392 . S
C663 N662 1.327 . S
C663 H670 0.930 . S
C664 C659 1.385 . S
C664 C661 1.370 . S
C664 H683 0.930 . S
Tb665 N662 2.600 . S
Tb665 N666 2.660 . S
Tb665 O699 2.362 . S
Tb665 O700 2.421 . S
Tb665 O704 2.546 . S
Tb665 O705 2.610 . S
Tb665 O707 2.320 . S
Tb665 O708 2.552 . S
Tb665 O709 2.413 . S
Tb665 C729 2.833 . S
N666 C658 1.360 . S
N666 Tb665 2.660 . S
N666 C667 1.305 . S
C667 N666 1.305 . S
C667 C669 1.407 . S
C667 H674 0.930 . S
C668 C656 1.410 . S
C668 C669 1.345 . S
C668 H676 0.930 . S
C669 C667 1.407 . S
C669 C668 1.345 . S
C669 H671 0.930 . S
H670 C663 0.930 . S
H671 C669 0.930 . S
H672 C660 0.930 . S
H673 C661 0.931 . S
H674 C667 0.930 . S
H675 C689 0.930 . S
H676 C668 0.930 . S
H677 C695 0.930 . S
H678 C686 0.930 . S
H679 C693 0.931 . S
H680 C657 0.929 . S
H681 C687 0.930 . S
H682 C720 0.930 . S
H683 C664 0.930 . S
H684 C719 0.929 . S
N685 Tb654 2.660 . S
N685 C686 1.305 . S
N685 C690 1.360 . S
C686 H678 0.930 . S
C686 N685 1.305 . S
C686 C689 1.407 . S
C687 H681 0.930 . S
C687 C688 1.410 . S
C687 C689 1.345 . S
C688 C687 1.410 . S
C688 C690 1.417 . S
C688 C720 1.432 . S
C689 H675 0.930 . S
C689 C686 1.407 . S
C689 C687 1.345 . S
C690 N685 1.360 . S
C690 C688 1.417 . S
C690 C694 1.432 . S
H691 C696 0.930 . S
N692 Tb654 2.600 . S
N692 C694 1.359 . S
N692 C695 1.327 . S
C693 H679 0.931 . S
C693 C695 1.392 . S
C693 C696 1.370 . S
C694 C690 1.432 . S
C694 N692 1.359 . S
C694 C697 1.414 . S
C695 H677 0.930 . S
C695 N692 1.327 . S
C695 C693 1.392 . S
C696 H691 0.930 . S
C696 C693 1.370 . S
C696 C697 1.385 . S
C697 C694 1.414 . S
C697 C696 1.385 . S
C697 C719 1.444 . S
O698 Tb654 2.546 . S
O698 C718 1.251 . S
O699 Tb654 2.610 . S
O699 Tb665 2.362 . S
O699 C710 1.283 . S
O700 Tb665 2.421 . S
O700 C717 1.262 . S
O701 Tb654 2.320 . S
O701 C717 1.260 . S
O702 Tb654 2.552 . S
O702 C710 1.243 . S
O703 Tb654 2.413 . S
O703 C718 1.256 . S
O704 Tb665 2.546 . S
O704 C729 1.251 . S
O705 Tb654 2.362 . S
O705 Tb665 2.610 . S
O705 C721 1.283 . S
O706 Tb654 2.421 . S
O706 C728 1.262 . S
O707 Tb665 2.320 . S
O707 C728 1.260 . S
O708 Tb665 2.552 . S
O708 C721 1.243 . S
O709 Tb665 2.413 . S
O709 C729 1.256 . S
C710 O699 1.283 . S
C710 O702 1.243 . S
C711 C713 1.382 . S
C711 C715 1.393 . S
C711 C718 1.500 . S
C712 C713 1.400 . S
C712 C714 1.384 . S
C713 C711 1.382 . S
C713 C712 1.400 . S
C713 H730 0.930 . S
C714 C712 1.384 . S
C714 C716 1.392 . S
C714 H731 0.931 . S
C715 C711 1.393 . S
C715 C716 1.401 . S
C715 H732 0.930 . S
C716 C714 1.392 . S
C716 C715 1.401 . S
C716 H733 0.930 . S
C717 O700 1.262 . S
C717 O701 1.260 . S
C718 Tb654 2.833 . S
C718 O698 1.251 . S
C718 O703 1.256 . S
C718 C711 1.500 . S
C719 H684 0.929 . S
C719 C697 1.444 . S
C719 C720 1.317 . S
C720 H682 0.930 . S
C720 C688 1.432 . S
C720 C719 1.317 . S
C721 O705 1.283 . S
C721 O708 1.243 . S
C722 C723 1.382 . S
C722 C726 1.393 . S
C722 C729 1.500 . S
C723 C722 1.382 . S
C723 C724 1.400 . S
C723 H734 0.930 . S
C724 C723 1.400 . S
C724 C725 1.384 . S
C725 C724 1.384 . S
C725 C727 1.392 . S
C725 H735 0.931 . S
C726 C722 1.393 . S
C726 C727 1.401 . S
C726 H736 0.930 . S
C727 C725 1.392 . S
C727 C726 1.401 . S
C727 H737 0.930 . S
C728 O706 1.262 . S
C728 O707 1.260 . S
C729 Tb665 2.833 . S
C729 O704 1.251 . S
C729 O709 1.256 . S
C729 C722 1.500 . S
H730 C713 0.930 . S
H731 C714 0.931 . S
H732 C715 0.930 . S
H733 C716 0.930 . S
H734 C723 0.930 . S
H735 C725 0.931 . S
H736 C726 0.930 . S
H737 C727 0.930 . S
Tb738 N769 2.660 . S
Tb738 N776 2.600 . S
Tb738 O782 2.546 . S
Tb738 O783 2.610 . S
Tb738 O785 2.320 . S
Tb738 O786 2.552 . S
Tb738 O787 2.413 . S
Tb738 O789 2.362 . S
Tb738 O790 2.421 . S
Tb738 C802 2.833 . S
C739 C742 1.432 . S
C739 C743 1.414 . S
C739 N746 1.359 . S
C740 C742 1.417 . S
C740 C744 1.432 . S
C740 C752 1.410 . S
C741 C743 1.444 . S
C741 C744 1.317 . S
C741 H764 0.929 . S
C742 C739 1.432 . S
C742 C740 1.417 . S
C742 N750 1.360 . S
C743 C739 1.414 . S
C743 C741 1.444 . S
C743 C748 1.385 . S
C744 C740 1.432 . S
C744 C741 1.317 . S
C744 H756 0.930 . S
C745 C747 1.392 . S
C745 C748 1.370 . S
C745 H757 0.931 . S
N746 C739 1.359 . S
N746 C747 1.327 . S
N746 Tb749 2.600 . S
C747 C745 1.392 . S
C747 N746 1.327 . S
C747 H754 0.930 . S
C748 C743 1.385 . S
C748 C745 1.370 . S
C748 H767 0.930 . S
Tb749 N746 2.600 . S
Tb749 N750 2.660 . S
Tb749 O783 2.362 . S
Tb749 O784 2.421 . S
Tb749 O788 2.546 . S
Tb749 O789 2.610 . S
Tb749 O791 2.320 . S
Tb749 O792 2.552 . S
Tb749 O793 2.413 . S
Tb749 C813 2.833 . S
N750 C742 1.360 . S
N750 Tb749 2.660 . S
N750 C751 1.305 . S
C751 N750 1.305 . S
C751 C753 1.407 . S
C751 H758 0.930 . S
C752 C740 1.410 . S
C752 C753 1.345 . S
C752 H760 0.930 . S
C753 C751 1.407 . S
C753 C752 1.345 . S
C753 H755 0.930 . S
H754 C747 0.930 . S
H755 C753 0.930 . S
H756 C744 0.930 . S
H757 C745 0.931 . S
H758 C751 0.930 . S
H759 C773 0.930 . S
H760 C752 0.930 . S
H761 C779 0.930 . S
H762 C770 0.930 . S
H763 C777 0.931 . S
H764 C741 0.929 . S
H765 C771 0.930 . S
H766 C804 0.930 . S
H767 C748 0.930 . S
H768 C803 0.929 . S
N769 Tb738 2.660 . S
N769 C770 1.305 . S
N769 C774 1.360 . S
C770 H762 0.930 . S
C770 N769 1.305 . S
C770 C773 1.407 . S
C771 H765 0.930 . S
C771 C772 1.410 . S
C771 C773 1.345 . S
C772 C771 1.410 . S
C772 C774 1.417 . S
C772 C804 1.432 . S
C773 H759 0.930 . S
C773 C770 1.407 . S
C773 C771 1.345 . S
C774 N769 1.360 . S
C774 C772 1.417 . S
C774 C778 1.432 . S
H775 C780 0.930 . S
N776 Tb738 2.600 . S
N776 C778 1.359 . S
N776 C779 1.327 . S
C777 H763 0.931 . S
C777 C779 1.392 . S
C777 C780 1.370 . S
C778 C774 1.432 . S
C778 N776 1.359 . S
C778 C781 1.414 . S
C779 H761 0.930 . S
C779 N776 1.327 . S
C779 C777 1.392 . S
C780 H775 0.930 . S
C780 C777 1.370 . S
C780 C781 1.385 . S
C781 C778 1.414 . S
C781 C780 1.385 . S
C781 C803 1.444 . S
O782 Tb738 2.546 . S
O782 C802 1.251 . S
O783 Tb738 2.610 . S
O783 Tb749 2.362 . S
O783 C794 1.283 . S
O784 Tb749 2.421 . S
O784 C801 1.262 . S
O785 Tb738 2.320 . S
O785 C801 1.260 . S
O786 Tb738 2.552 . S
O786 C794 1.243 . S
O787 Tb738 2.413 . S
O787 C802 1.256 . S
O788 Tb749 2.546 . S
O788 C813 1.251 . S
O789 Tb738 2.362 . S
O789 Tb749 2.610 . S
O789 C805 1.283 . S
O790 Tb738 2.421 . S
O790 C812 1.262 . S
O791 Tb749 2.320 . S
O791 C812 1.260 . S
O792 Tb749 2.552 . S
O792 C805 1.243 . S
O793 Tb749 2.413 . S
O793 C813 1.256 . S
C794 O783 1.283 . S
C794 O786 1.243 . S
C795 C797 1.382 . S
C795 C799 1.393 . S
C795 C802 1.500 . S
C796 C797 1.400 . S
C796 C798 1.384 . S
C797 C795 1.382 . S
C797 C796 1.400 . S
C797 H814 0.930 . S
C798 C796 1.384 . S
C798 C800 1.392 . S
C798 H815 0.931 . S
C799 C795 1.393 . S
C799 C800 1.401 . S
C799 H816 0.930 . S
C800 C798 1.392 . S
C800 C799 1.401 . S
C800 H817 0.930 . S
C801 O784 1.262 . S
C801 O785 1.260 . S
C802 Tb738 2.833 . S
C802 O782 1.251 . S
C802 O787 1.256 . S
C802 C795 1.500 . S
C803 H768 0.929 . S
C803 C781 1.444 . S
C803 C804 1.317 . S
C804 H766 0.930 . S
C804 C772 1.432 . S
C804 C803 1.317 . S
C805 O789 1.283 . S
C805 O792 1.243 . S
C806 C807 1.382 . S
C806 C810 1.393 . S
C806 C813 1.500 . S
C807 C806 1.382 . S
C807 C808 1.400 . S
C807 H818 0.930 . S
C808 C807 1.400 . S
C808 C809 1.384 . S
C809 C808 1.384 . S
C809 C811 1.392 . S
C809 H819 0.931 . S
C810 C806 1.393 . S
C810 C811 1.401 . S
C810 H820 0.930 . S
C811 C809 1.392 . S
C811 C810 1.401 . S
C811 H821 0.930 . S
C812 O790 1.262 . S
C812 O791 1.260 . S
C813 Tb749 2.833 . S
C813 O788 1.251 . S
C813 O793 1.256 . S
C813 C806 1.500 . S
H814 C797 0.930 . S
H815 C798 0.931 . S
H816 C799 0.930 . S
H817 C800 0.930 . S
H818 C807 0.930 . S
H819 C809 0.931 . S
H820 C810 0.930 . S
H821 C811 0.930 . S
Tb822 N853 2.660 . S
Tb822 N860 2.600 . S
Tb822 O866 2.546 . S
Tb822 O867 2.610 . S
Tb822 O869 2.320 . S
Tb822 O870 2.552 . S
Tb822 O871 2.413 . S
Tb822 O873 2.362 . S
Tb822 O874 2.421 . S
Tb822 C886 2.833 . S
C823 C826 1.432 . S
C823 C827 1.414 . S
C823 N830 1.359 . S
C824 C826 1.417 . S
C824 C828 1.432 . S
C824 C836 1.410 . S
C825 C827 1.444 . S
C825 C828 1.317 . S
C825 H848 0.929 . S
C826 C823 1.432 . S
C826 C824 1.417 . S
C826 N834 1.360 . S
C827 C823 1.414 . S
C827 C825 1.444 . S
C827 C832 1.385 . S
C828 C824 1.432 . S
C828 C825 1.317 . S
C828 H840 0.930 . S
C829 C831 1.392 . S
C829 C832 1.370 . S
C829 H841 0.931 . S
N830 C823 1.359 . S
N830 C831 1.327 . S
N830 Tb833 2.600 . S
C831 C829 1.392 . S
C831 N830 1.327 . S
C831 H838 0.930 . S
C832 C827 1.385 . S
C832 C829 1.370 . S
C832 H851 0.930 . S
Tb833 N830 2.600 . S
Tb833 N834 2.660 . S
Tb833 O867 2.362 . S
Tb833 O868 2.421 . S
Tb833 O872 2.546 . S
Tb833 O873 2.610 . S
Tb833 O875 2.320 . S
Tb833 O876 2.552 . S
Tb833 O877 2.413 . S
Tb833 C897 2.833 . S
N834 C826 1.360 . S
N834 Tb833 2.660 . S
N834 C835 1.305 . S
C835 N834 1.305 . S
C835 C837 1.407 . S
C835 H842 0.930 . S
C836 C824 1.410 . S
C836 C837 1.345 . S
C836 H844 0.930 . S
C837 C835 1.407 . S
C837 C836 1.345 . S
C837 H839 0.930 . S
H838 C831 0.930 . S
H839 C837 0.930 . S
H840 C828 0.930 . S
H841 C829 0.931 . S
H842 C835 0.930 . S
H843 C857 0.930 . S
H844 C836 0.930 . S
H845 C863 0.930 . S
H846 C854 0.930 . S
H847 C861 0.931 . S
H848 C825 0.929 . S
H849 C855 0.930 . S
H850 C888 0.930 . S
H851 C832 0.930 . S
H852 C887 0.929 . S
N853 Tb822 2.660 . S
N853 C854 1.305 . S
N853 C858 1.360 . S
C854 H846 0.930 . S
C854 N853 1.305 . S
C854 C857 1.407 . S
C855 H849 0.930 . S
C855 C856 1.410 . S
C855 C857 1.345 . S
C856 C855 1.410 . S
C856 C858 1.417 . S
C856 C888 1.432 . S
C857 H843 0.930 . S
C857 C854 1.407 . S
C857 C855 1.345 . S
C858 N853 1.360 . S
C858 C856 1.417 . S
C858 C862 1.432 . S
H859 C864 0.930 . S
N860 Tb822 2.600 . S
N860 C862 1.359 . S
N860 C863 1.327 . S
C861 H847 0.931 . S
C861 C863 1.392 . S
C861 C864 1.370 . S
C862 C858 1.432 . S
C862 N860 1.359 . S
C862 C865 1.414 . S
C863 H845 0.930 . S
C863 N860 1.327 . S
C863 C861 1.392 . S
C864 H859 0.930 . S
C864 C861 1.370 . S
C864 C865 1.385 . S
C865 C862 1.414 . S
C865 C864 1.385 . S
C865 C887 1.444 . S
O866 Tb822 2.546 . S
O866 C886 1.251 . S
O867 Tb822 2.610 . S
O867 Tb833 2.362 . S
O867 C878 1.283 . S
O868 Tb833 2.421 . S
O868 C885 1.262 . S
O869 Tb822 2.320 . S
O869 C885 1.260 . S
O870 Tb822 2.552 . S
O870 C878 1.243 . S
O871 Tb822 2.413 . S
O871 C886 1.256 . S
O872 Tb833 2.546 . S
O872 C897 1.251 . S
O873 Tb822 2.362 . S
O873 Tb833 2.610 . S
O873 C889 1.283 . S
O874 Tb822 2.421 . S
O874 C896 1.262 . S
O875 Tb833 2.320 . S
O875 C896 1.260 . S
O876 Tb833 2.552 . S
O876 C889 1.243 . S
O877 Tb833 2.413 . S
O877 C897 1.256 . S
C878 O867 1.283 . S
C878 O870 1.243 . S
C879 C881 1.382 . S
C879 C883 1.393 . S
C879 C886 1.500 . S
C880 C881 1.400 . S
C880 C882 1.384 . S
C881 C879 1.382 . S
C881 C880 1.400 . S
C881 H898 0.930 . S
C882 C880 1.384 . S
C882 C884 1.392 . S
C882 H899 0.931 . S
C883 C879 1.393 . S
C883 C884 1.401 . S
C883 H900 0.930 . S
C884 C882 1.392 . S
C884 C883 1.401 . S
C884 H901 0.930 . S
C885 O868 1.262 . S
C885 O869 1.260 . S
C886 Tb822 2.833 . S
C886 O866 1.251 . S
C886 O871 1.256 . S
C886 C879 1.500 . S
C887 H852 0.929 . S
C887 C865 1.444 . S
C887 C888 1.317 . S
C888 H850 0.930 . S
C888 C856 1.432 . S
C888 C887 1.317 . S
C889 O873 1.283 . S
C889 O876 1.243 . S
C890 C891 1.382 . S
C890 C894 1.393 . S
C890 C897 1.500 . S
C891 C890 1.382 . S
C891 C892 1.400 . S
C891 H902 0.930 . S
C892 C891 1.400 . S
C892 C893 1.384 . S
C893 C892 1.384 . S
C893 C895 1.392 . S
C893 H903 0.931 . S
C894 C890 1.393 . S
C894 C895 1.401 . S
C894 H904 0.930 . S
C895 C893 1.392 . S
C895 C894 1.401 . S
C895 H905 0.930 . S
C896 O874 1.262 . S
C896 O875 1.260 . S
C897 Tb833 2.833 . S
C897 O872 1.251 . S
C897 O877 1.256 . S
C897 C890 1.500 . S
H898 C881 0.930 . S
H899 C882 0.931 . S
H900 C883 0.930 . S
H901 C884 0.930 . S
H902 C891 0.930 . S
H903 C893 0.931 . S
H904 C894 0.930 . S
H905 C895 0.930 . S
Tb906 N937 2.660 . S
Tb906 N944 2.600 . S
Tb906 O950 2.546 . S
Tb906 O951 2.610 . S
Tb906 O953 2.320 . S
Tb906 O954 2.552 . S
Tb906 O955 2.413 . S
Tb906 O957 2.362 . S
Tb906 O958 2.421 . S
Tb906 C970 2.833 . S
C907 C910 1.432 . S
C907 C911 1.414 . S
C907 N914 1.359 . S
C908 C910 1.417 . S
C908 C912 1.432 . S
C908 C920 1.410 . S
C909 C911 1.444 . S
C909 C912 1.317 . S
C909 H932 0.929 . S
C910 C907 1.432 . S
C910 C908 1.417 . S
C910 N918 1.360 . S
C911 C907 1.414 . S
C911 C909 1.444 . S
C911 C916 1.385 . S
C912 C908 1.432 . S
C912 C909 1.317 . S
C912 H924 0.930 . S
C913 C915 1.392 . S
C913 C916 1.370 . S
C913 H925 0.931 . S
N914 C907 1.359 . S
N914 C915 1.327 . S
N914 Tb917 2.600 . S
C915 C913 1.392 . S
C915 N914 1.327 . S
C915 H922 0.930 . S
C916 C911 1.385 . S
C916 C913 1.370 . S
C916 H935 0.930 . S
Tb917 N914 2.600 . S
Tb917 N918 2.660 . S
Tb917 O951 2.362 . S
Tb917 O952 2.421 . S
Tb917 O956 2.546 . S
Tb917 O957 2.610 . S
Tb917 O959 2.320 . S
Tb917 O960 2.552 . S
Tb917 O961 2.413 . S
Tb917 C981 2.833 . S
N918 C910 1.360 . S
N918 Tb917 2.660 . S
N918 C919 1.305 . S
C919 N918 1.305 . S
C919 C921 1.407 . S
C919 H926 0.930 . S
C920 C908 1.410 . S
C920 C921 1.345 . S
C920 H928 0.930 . S
C921 C919 1.407 . S
C921 C920 1.345 . S
C921 H923 0.930 . S
H922 C915 0.930 . S
H923 C921 0.930 . S
H924 C912 0.930 . S
H925 C913 0.931 . S
H926 C919 0.930 . S
H927 C941 0.930 . S
H928 C920 0.930 . S
H929 C947 0.930 . S
H930 C938 0.930 . S
H931 C945 0.931 . S
H932 C909 0.929 . S
H933 C939 0.930 . S
H934 C972 0.930 . S
H935 C916 0.930 . S
H936 C971 0.929 . S
N937 Tb906 2.660 . S
N937 C938 1.305 . S
N937 C942 1.360 . S
C938 H930 0.930 . S
C938 N937 1.305 . S
C938 C941 1.407 . S
C939 H933 0.930 . S
C939 C940 1.410 . S
C939 C941 1.345 . S
C940 C939 1.410 . S
C940 C942 1.417 . S
C940 C972 1.432 . S
C941 H927 0.930 . S
C941 C938 1.407 . S
C941 C939 1.345 . S
C942 N937 1.360 . S
C942 C940 1.417 . S
C942 C946 1.432 . S
H943 C948 0.930 . S
N944 Tb906 2.600 . S
N944 C946 1.359 . S
N944 C947 1.327 . S
C945 H931 0.931 . S
C945 C947 1.392 . S
C945 C948 1.370 . S
C946 C942 1.432 . S
C946 N944 1.359 . S
C946 C949 1.414 . S
C947 H929 0.930 . S
C947 N944 1.327 . S
C947 C945 1.392 . S
C948 H943 0.930 . S
C948 C945 1.370 . S
C948 C949 1.385 . S
C949 C946 1.414 . S
C949 C948 1.385 . S
C949 C971 1.444 . S
O950 Tb906 2.546 . S
O950 C970 1.251 . S
O951 Tb906 2.610 . S
O951 Tb917 2.362 . S
O951 C962 1.283 . S
O952 Tb917 2.421 . S
O952 C969 1.262 . S
O953 Tb906 2.320 . S
O953 C969 1.260 . S
O954 Tb906 2.552 . S
O954 C962 1.243 . S
O955 Tb906 2.413 . S
O955 C970 1.256 . S
O956 Tb917 2.546 . S
O956 C981 1.251 . S
O957 Tb906 2.362 . S
O957 Tb917 2.610 . S
O957 C973 1.283 . S
O958 Tb906 2.421 . S
O958 C980 1.262 . S
O959 Tb917 2.320 . S
O959 C980 1.260 . S
O960 Tb917 2.552 . S
O960 C973 1.243 . S
O961 Tb917 2.413 . S
O961 C981 1.256 . S
C962 O951 1.283 . S
C962 O954 1.243 . S
C963 C965 1.382 . S
C963 C967 1.393 . S
C963 C970 1.500 . S
C964 C965 1.400 . S
C964 C966 1.384 . S
C965 C963 1.382 . S
C965 C964 1.400 . S
C965 H982 0.930 . S
C966 C964 1.384 . S
C966 C968 1.392 . S
C966 H983 0.931 . S
C967 C963 1.393 . S
C967 C968 1.401 . S
C967 H984 0.930 . S
C968 C966 1.392 . S
C968 C967 1.401 . S
C968 H985 0.930 . S
C969 O952 1.262 . S
C969 O953 1.260 . S
C970 Tb906 2.833 . S
C970 O950 1.251 . S
C970 O955 1.256 . S
C970 C963 1.500 . S
C971 H936 0.929 . S
C971 C949 1.444 . S
C971 C972 1.317 . S
C972 H934 0.930 . S
C972 C940 1.432 . S
C972 C971 1.317 . S
C973 O957 1.283 . S
C973 O960 1.243 . S
C974 C975 1.382 . S
C974 C978 1.393 . S
C974 C981 1.500 . S
C975 C974 1.382 . S
C975 C976 1.400 . S
C975 H986 0.930 . S
C976 C975 1.400 . S
C976 C977 1.384 . S
C977 C976 1.384 . S
C977 C979 1.392 . S
C977 H987 0.931 . S
C978 C974 1.393 . S
C978 C979 1.401 . S
C978 H988 0.930 . S
C979 C977 1.392 . S
C979 C978 1.401 . S
C979 H989 0.930 . S
C980 O958 1.262 . S
C980 O959 1.260 . S
C981 Tb917 2.833 . S
C981 O956 1.251 . S
C981 O961 1.256 . S
C981 C974 1.500 . S
H982 C965 0.930 . S
H983 C966 0.931 . S
H984 C967 0.930 . S
H985 C968 0.930 . S
H986 C975 0.930 . S
H987 C977 0.931 . S
H988 C978 0.930 . S
H989 C979 0.930 . S
C990 C991 1.349 . S
C990 C992 1.327 . S
C990 H1015 0.950 . S
C991 C990 1.349 . S
C991 C1007 1.349 . S
C992 C990 1.327 . S
C992 C1011 1.429 . S
C992 H1016 0.950 . S
C993 C1010 1.574 . S
C993 C1012 1.368 . S
C993 H1017 0.949 . S
H994 C998 0.949 . S
C995 C996 1.349 . S
C995 C997 1.327 . S
C995 H1018 0.950 . S
C996 C995 1.349 . S
C996 C1008 1.349 . S
C997 C995 1.327 . S
C997 C1013 1.429 . S
C997 H1019 0.950 . S
C998 H994 0.949 . S
C998 C1006 1.574 . S
C998 C1014 1.368 . S
H999 C1007 0.950 . S
H1000 C1005 0.950 . S
H1001 C1006 0.949 . S
H1002 C1008 0.950 . S
H1003 C1009 0.950 . S
H1004 C1010 0.949 . S
C1005 H1000 0.950 . S
C1005 C1007 1.327 . S
C1005 C1011 1.429 . S
C1006 C998 1.574 . S
C1006 H1001 0.949 . S
C1006 C1012 1.368 . S
C1007 C991 1.349 . S
C1007 H999 0.950 . S
C1007 C1005 1.327 . S
C1008 C996 1.349 . S
C1008 H1002 0.950 . S
C1008 C1009 1.327 . S
C1009 H1003 0.950 . S
C1009 C1008 1.327 . S
C1009 C1013 1.429 . S
C1010 C993 1.574 . S
C1010 H1004 0.949 . S
C1010 C1014 1.368 . S
C1011 C992 1.429 . S
C1011 C1005 1.429 . S
C1011 C1012 1.523 . S
C1012 C993 1.368 . S
C1012 C1006 1.368 . S
C1012 C1011 1.523 . S
C1013 C997 1.429 . S
C1013 C1009 1.429 . S
C1013 C1014 1.523 . S
C1014 C998 1.368 . S
C1014 C1010 1.368 . S
C1014 C1013 1.523 . S
H1015 C990 0.950 . S
H1016 C992 0.950 . S
H1017 C993 0.949 . S
H1018 C995 0.950 . S
H1019 C997 0.950 . S
C1020 C1021 1.349 . S
C1020 C1022 1.327 . S
C1020 H1045 0.950 . S
C1021 C1020 1.349 . S
C1021 C1037 1.349 . S
C1022 C1020 1.327 . S
C1022 C1041 1.429 . S
C1022 H1046 0.950 . S
C1023 C1040 1.574 . S
C1023 C1042 1.368 . S
C1023 H1047 0.949 . S
H1024 C1028 0.949 . S
C1025 C1026 1.349 . S
C1025 C1027 1.327 . S
C1025 H1048 0.950 . S
C1026 C1025 1.349 . S
C1026 C1038 1.349 . S
C1027 C1025 1.327 . S
C1027 C1043 1.429 . S
C1027 H1049 0.950 . S
C1028 H1024 0.949 . S
C1028 C1036 1.574 . S
C1028 C1044 1.368 . S
H1029 C1037 0.950 . S
H1030 C1035 0.950 . S
H1031 C1036 0.949 . S
H1032 C1038 0.950 . S
H1033 C1039 0.950 . S
H1034 C1040 0.949 . S
C1035 H1030 0.950 . S
C1035 C1037 1.327 . S
C1035 C1041 1.429 . S
C1036 C1028 1.574 . S
C1036 H1031 0.949 . S
C1036 C1042 1.368 . S
C1037 C1021 1.349 . S
C1037 H1029 0.950 . S
C1037 C1035 1.327 . S
C1038 C1026 1.349 . S
C1038 H1032 0.950 . S
C1038 C1039 1.327 . S
C1039 H1033 0.950 . S
C1039 C1038 1.327 . S
C1039 C1043 1.429 . S
C1040 C1023 1.574 . S
C1040 H1034 0.949 . S
C1040 C1044 1.368 . S
C1041 C1022 1.429 . S
C1041 C1035 1.429 . S
C1041 C1042 1.523 . S
C1042 C1023 1.368 . S
C1042 C1036 1.368 . S
C1042 C1041 1.523 . S
C1043 C1027 1.429 . S
C1043 C1039 1.429 . S
C1043 C1044 1.523 . S
C1044 C1028 1.368 . S
C1044 C1040 1.368 . S
C1044 C1043 1.523 . S
H1045 C1020 0.950 . S
H1046 C1022 0.950 . S
H1047 C1023 0.949 . S
H1048 C1025 0.950 . S
H1049 C1027 0.950 . S
C1050 C1051 1.349 . S
C1050 C1052 1.327 . S
C1050 H1075 0.950 . S
C1051 C1050 1.349 . S
C1051 C1067 1.349 . S
C1052 C1050 1.327 . S
C1052 C1071 1.429 . S
C1052 H1076 0.950 . S
C1053 C1070 1.574 . S
C1053 C1072 1.368 . S
C1053 H1077 0.949 . S
H1054 C1058 0.949 . S
C1055 C1056 1.349 . S
C1055 C1057 1.327 . S
C1055 H1078 0.950 . S
C1056 C1055 1.349 . S
C1056 C1068 1.349 . S
C1057 C1055 1.327 . S
C1057 C1073 1.429 . S
C1057 H1079 0.950 . S
C1058 H1054 0.949 . S
C1058 C1066 1.574 . S
C1058 C1074 1.368 . S
H1059 C1067 0.950 . S
H1060 C1065 0.950 . S
H1061 C1066 0.949 . S
H1062 C1068 0.950 . S
H1063 C1069 0.950 . S
H1064 C1070 0.949 . S
C1065 H1060 0.950 . S
C1065 C1067 1.327 . S
C1065 C1071 1.429 . S
C1066 C1058 1.574 . S
C1066 H1061 0.949 . S
C1066 C1072 1.368 . S
C1067 C1051 1.349 . S
C1067 H1059 0.950 . S
C1067 C1065 1.327 . S
C1068 C1056 1.349 . S
C1068 H1062 0.950 . S
C1068 C1069 1.327 . S
C1069 H1063 0.950 . S
C1069 C1068 1.327 . S
C1069 C1073 1.429 . S
C1070 C1053 1.574 . S
C1070 H1064 0.949 . S
C1070 C1074 1.368 . S
C1071 C1052 1.429 . S
C1071 C1065 1.429 . S
C1071 C1072 1.523 . S
C1072 C1053 1.368 . S
C1072 C1066 1.368 . S
C1072 C1071 1.523 . S
C1073 C1057 1.429 . S
C1073 C1069 1.429 . S
C1073 C1074 1.523 . S
C1074 C1058 1.368 . S
C1074 C1070 1.368 . S
C1074 C1073 1.523 . S
H1075 C1050 0.950 . S
H1076 C1052 0.950 . S
H1077 C1053 0.949 . S
H1078 C1055 0.950 . S
H1079 C1057 0.950 . S
C1080 C1081 1.349 . S
C1080 C1082 1.327 . S
C1080 H1105 0.950 . S
C1081 C1080 1.349 . S
C1081 C1097 1.349 . S
C1082 C1080 1.327 . S
C1082 C1101 1.429 . S
C1082 H1106 0.950 . S
C1083 C1100 1.574 . S
C1083 C1102 1.368 . S
C1083 H1107 0.949 . S
H1084 C1088 0.949 . S
C1085 C1086 1.349 1_554 S
C1085 C1087 1.327 1_554 S
C1085 H1108 0.950 . S
C1086 C1085 1.349 1_556 S
C1086 C1098 1.349 . S
C1087 C1085 1.327 1_556 S
C1087 C1103 1.429 . S
C1087 H1109 0.950 1_556 S
C1088 H1084 0.949 . S
C1088 C1096 1.574 . S
C1088 C1104 1.368 . S
H1089 C1097 0.950 . S
H1090 C1095 0.950 . S
H1091 C1096 0.949 . S
H1092 C1098 0.950 . S
H1093 C1099 0.950 . S
H1094 C1100 0.949 . S
C1095 H1090 0.950 . S
C1095 C1097 1.327 . S
C1095 C1101 1.429 . S
C1096 C1088 1.574 . S
C1096 H1091 0.949 . S
C1096 C1102 1.368 . S
C1097 C1081 1.349 . S
C1097 H1089 0.950 . S
C1097 C1095 1.327 . S
C1098 C1086 1.349 . S
C1098 H1092 0.950 . S
C1098 C1099 1.327 . S
C1099 H1093 0.950 . S
C1099 C1098 1.327 . S
C1099 C1103 1.429 . S
C1100 C1083 1.574 . S
C1100 H1094 0.949 . S
C1100 C1104 1.368 . S
C1101 C1082 1.429 . S
C1101 C1095 1.429 . S
C1101 C1102 1.523 . S
C1102 C1083 1.368 . S
C1102 C1096 1.368 . S
C1102 C1101 1.523 . S
C1103 C1087 1.429 . S
C1103 C1099 1.429 . S
C1103 C1104 1.523 . S
C1104 C1088 1.368 . S
C1104 C1100 1.368 . S
C1104 C1103 1.523 . S
H1105 C1080 0.950 . S
H1106 C1082 0.950 . S
H1107 C1083 0.949 . S
H1108 C1085 0.950 . S
H1109 C1087 0.950 1_554 S
C1110 C1111 1.349 . S
C1110 C1112 1.327 . S
C1110 H1135 0.950 . S
C1111 C1110 1.349 . S
C1111 C1127 1.349 . S
C1112 C1110 1.327 . S
C1112 C1131 1.429 . S
C1112 H1136 0.950 . S
C1113 C1130 1.574 . S
C1113 C1132 1.368 . S
C1113 H1137 0.949 . S
H1114 C1118 0.949 . S
C1115 C1116 1.349 1_554 S
C1115 C1117 1.327 1_554 S
C1115 H1138 0.950 . S
C1116 C1115 1.349 1_556 S
C1116 C1128 1.349 . S
C1117 C1115 1.327 1_556 S
C1117 C1133 1.429 . S
C1117 H1139 0.953 . S
C1118 H1114 0.949 . S
C1118 C1126 1.574 . S
C1118 C1134 1.368 . S
H1119 C1127 0.950 . S
H1120 C1125 0.950 . S
H1121 C1126 0.949 . S
H1122 C1128 0.950 . S
H1123 C1129 0.950 . S
H1124 C1130 0.949 . S
C1125 H1120 0.950 . S
C1125 C1127 1.327 . S
C1125 C1131 1.429 . S
C1126 C1118 1.574 . S
C1126 H1121 0.949 . S
C1126 C1132 1.368 . S
C1127 C1111 1.349 . S
C1127 H1119 0.950 . S
C1127 C1125 1.327 . S
C1128 C1116 1.349 . S
C1128 H1122 0.950 . S
C1128 C1129 1.327 . S
C1129 H1123 0.950 . S
C1129 C1128 1.327 . S
C1129 C1133 1.429 . S
C1130 C1113 1.574 . S
C1130 H1124 0.949 . S
C1130 C1134 1.368 . S
C1131 C1112 1.429 . S
C1131 C1125 1.429 . S
C1131 C1132 1.523 . S
C1132 C1113 1.368 . S
C1132 C1126 1.368 . S
C1132 C1131 1.523 . S
C1133 C1117 1.429 . S
C1133 C1129 1.429 . S
C1133 C1134 1.523 . S
C1134 C1118 1.368 . S
C1134 C1130 1.368 . S
C1134 C1133 1.523 . S
H1135 C1110 0.950 . S
H1136 C1112 0.950 . S
H1137 C1113 0.949 . S
H1138 C1115 0.950 . S
H1139 C1117 0.953 . S
C1140 C1141 1.349 . S
C1140 C1142 1.327 . S
C1140 H1165 0.950 . S
C1141 C1140 1.349 . S
C1141 C1157 1.349 . S
C1142 C1140 1.327 . S
C1142 C1161 1.429 . S
C1142 H1166 0.950 . S
C1143 C1160 1.574 . S
C1143 C1162 1.368 . S
C1143 H1167 0.941 1_556 S
H1144 C1148 0.949 . S
C1145 C1146 1.311 1_554 S
C1145 C1147 1.327 . S
C1145 H1168 0.950 . S
C1146 C1145 1.311 1_556 S
C1146 C1158 1.403 . S
C1147 C1145 1.327 . S
C1147 C1163 1.429 1_554 S
C1147 H1169 0.950 . S
C1148 H1144 0.949 . S
C1148 C1156 1.574 . S
C1148 C1164 1.368 . S
H1149 C1157 0.950 . S
H1150 C1155 0.950 . S
H1151 C1156 0.949 . S
H1152 C1158 0.950 . S
H1153 C1159 0.950 . S
H1154 C1160 0.949 1_554 S
C1155 H1150 0.950 . S
C1155 C1157 1.327 . S
C1155 C1161 1.429 . S
C1156 C1148 1.574 . S
C1156 H1151 0.949 . S
C1156 C1162 1.368 . S
C1157 C1141 1.349 . S
C1157 H1149 0.950 . S
C1157 C1155 1.327 . S
C1158 C1146 1.403 . S
C1158 H1152 0.950 . S
C1158 C1159 1.327 . S
C1159 H1153 0.950 . S
C1159 C1158 1.327 . S
C1159 C1163 1.429 . S
C1160 C1143 1.574 . S
C1160 H1154 0.949 1_556 S
C1160 C1164 1.368 . S
C1161 C1142 1.429 . S
C1161 C1155 1.429 . S
C1161 C1162 1.523 . S
C1162 C1143 1.368 . S
C1162 C1156 1.368 . S
C1162 C1161 1.523 . S
C1163 C1147 1.429 1_556 S
C1163 C1159 1.429 . S
C1163 C1164 1.523 . S
C1164 C1148 1.368 . S
C1164 C1160 1.368 . S
C1164 C1163 1.523 . S
H1165 C1140 0.950 . S
H1166 C1142 0.950 . S
H1167 C1143 0.941 1_554 S
H1168 C1145 0.950 . S
H1169 C1147 0.950 . S
C1170 C1171 1.349 . S
C1170 C1172 1.327 . S
C1170 H1195 0.950 . S
C1171 C1170 1.349 . S
C1171 C1187 1.349 . S
C1172 C1170 1.327 . S
C1172 C1191 1.429 . S
C1172 H1196 0.950 . S
C1173 C1190 1.574 . S
C1173 C1192 1.368 . S
C1173 H1197 0.949 . S
H1174 C1178 0.949 1_554 S
C1175 C1176 1.349 . S
C1175 C1177 1.327 . S
C1175 H1198 0.950 . S
C1176 C1175 1.349 . S
C1176 C1188 1.349 1_556 S
C1177 C1175 1.327 . S
C1177 C1193 1.429 . S
C1177 H1199 0.950 . S
C1178 H1174 0.949 1_556 S
C1178 C1186 1.574 . S
C1178 C1194 1.368 . S
H1179 C1187 0.950 . S
H1180 C1185 0.950 . S
H1181 C1186 0.949 . S
H1182 C1188 0.950 . S
H1183 C1189 0.950 . S
H1184 C1190 0.949 . S
C1185 H1180 0.950 . S
C1185 C1187 1.327 . S
C1185 C1191 1.429 . S
C1186 C1178 1.574 . S
C1186 H1181 0.949 . S
C1186 C1192 1.368 . S
C1187 C1171 1.349 . S
C1187 H1179 0.950 . S
C1187 C1185 1.327 . S
C1188 C1176 1.349 1_554 S
C1188 H1182 0.950 . S
C1188 C1189 1.327 . S
C1189 H1183 0.950 . S
C1189 C1188 1.327 . S
C1189 C1193 1.429 1_554 S
C1190 C1173 1.574 . S
C1190 H1184 0.949 . S
C1190 C1194 1.368 . S
C1191 C1172 1.429 . S
C1191 C1185 1.429 . S
C1191 C1192 1.523 . S
C1192 C1173 1.368 . S
C1192 C1186 1.368 . S
C1192 C1191 1.523 . S
C1193 C1177 1.429 . S
C1193 C1189 1.429 1_556 S
C1193 C1194 1.523 . S
C1194 C1178 1.368 . S
C1194 C1190 1.368 . S
C1194 C1193 1.523 . S
H1195 C1170 0.950 . S
H1196 C1172 0.950 . S
H1197 C1173 0.949 . S
H1198 C1175 0.950 . S
H1199 C1177 0.950 . S
C1200 C1201 1.349 . S
C1200 C1202 1.327 . S
C1200 H1225 0.950 . S
C1201 C1200 1.349 . S
C1201 C1217 1.349 . S
C1202 C1200 1.327 . S
C1202 C1221 1.429 . S
C1202 H1226 0.950 . S
C1203 C1220 1.574 . S
C1203 C1222 1.368 . S
C1203 H1227 0.949 . S
H1204 C1208 0.949 . S
C1205 C1206 1.349 1_554 S
C1205 C1207 1.327 . S
C1205 H1228 0.950 . S
C1206 C1205 1.349 1_556 S
C1206 C1218 1.349 . S
C1207 C1205 1.327 . S
C1207 C1223 1.429 1_554 S
C1207 H1229 0.950 . S
C1208 H1204 0.949 . S
C1208 C1216 1.574 . S
C1208 C1224 1.368 . S
H1209 C1217 0.950 . S
H1210 C1215 0.950 . S
H1211 C1216 0.949 . S
H1212 C1218 0.950 . S
H1213 C1219 0.950 . S
H1214 C1220 0.949 1_554 S
C1215 H1210 0.950 . S
C1215 C1217 1.327 . S
C1215 C1221 1.429 . S
C1216 C1208 1.574 . S
C1216 H1211 0.949 . S
C1216 C1222 1.368 . S
C1217 C1201 1.349 . S
C1217 H1209 0.950 . S
C1217 C1215 1.327 . S
C1218 C1206 1.349 . S
C1218 H1212 0.950 . S
C1218 C1219 1.327 . S
C1219 H1213 0.950 . S
C1219 C1218 1.327 . S
C1219 C1223 1.429 . S
C1220 C1203 1.574 . S
C1220 H1214 0.949 1_556 S
C1220 C1224 1.368 . S
C1221 C1202 1.429 . S
C1221 C1215 1.429 . S
C1221 C1222 1.523 . S
C1222 C1203 1.368 . S
C1222 C1216 1.368 . S
C1222 C1221 1.523 . S
C1223 C1207 1.429 1_556 S
C1223 C1219 1.429 . S
C1223 C1224 1.523 . S
C1224 C1208 1.368 . S
C1224 C1220 1.368 . S
C1224 C1223 1.523 . S
H1225 C1200 0.950 . S
H1226 C1202 0.950 . S
H1227 C1203 0.949 . S
H1228 C1205 0.950 . S
H1229 C1207 0.950 . S
C1230 C1231 1.349 . S
C1230 C1232 1.327 . S
C1230 H1255 0.950 . S
C1231 C1230 1.349 . S
C1231 C1247 1.349 . S
C1232 C1230 1.327 . S
C1232 C1251 1.429 . S
C1232 H1256 0.950 . S
C1233 C1250 1.574 . S
C1233 C1252 1.368 . S
C1233 H1257 0.949 . S
H1234 C1238 0.949 1_554 S
C1235 C1236 1.365 . S
C1235 C1237 1.327 . S
C1235 H1258 0.950 . S
C1236 C1235 1.365 . S
C1236 C1248 1.338 1_556 S
C1237 C1235 1.327 . S
C1237 C1253 1.429 . S
C1237 H1259 0.950 . S
C1238 H1234 0.949 1_556 S
C1238 C1246 1.574 . S
C1238 C1254 1.368 . S
H1239 C1247 0.950 . S
H1240 C1245 0.950 . S
H1241 C1246 0.977 . S
H1242 C1248 0.950 . S
H1243 C1249 0.950 . S
H1244 C1250 0.949 . S
C1245 H1240 0.950 . S
C1245 C1247 1.327 . S
C1245 C1251 1.429 . S
C1246 C1238 1.574 . S
C1246 H1241 0.977 . S
C1246 C1252 1.368 . S
C1247 C1231 1.349 . S
C1247 H1239 0.950 . S
C1247 C1245 1.327 . S
C1248 C1236 1.338 1_554 S
C1248 H1242 0.950 . S
C1248 C1249 1.327 . S
C1249 H1243 0.950 . S
C1249 C1248 1.327 . S
C1249 C1253 1.429 1_554 S
C1250 C1233 1.574 . S
C1250 H1244 0.949 . S
C1250 C1254 1.368 . S
C1251 C1232 1.429 . S
C1251 C1245 1.429 . S
C1251 C1252 1.523 . S
C1252 C1233 1.368 . S
C1252 C1246 1.368 . S
C1252 C1251 1.523 . S
C1253 C1237 1.429 . S
C1253 C1249 1.429 1_556 S
C1253 C1254 1.523 . S
C1254 C1238 1.368 . S
C1254 C1250 1.368 . S
C1254 C1253 1.523 . S
H1255 C1230 0.950 . S
H1256 C1232 0.950 . S
H1257 C1233 0.949 . S
H1258 C1235 0.950 . S
H1259 C1237 0.950 . S
C1260 C1261 1.349 . S
C1260 C1262 1.327 . S
C1260 H1285 0.950 . S
C1261 C1260 1.349 . S
C1261 C1277 1.349 . S
C1262 C1260 1.327 . S
C1262 C1281 1.429 . S
C1262 H1286 0.950 . S
C1263 C1280 1.574 . S
C1263 C1282 1.368 . S
C1263 H1287 0.949 . S
H1264 C1268 0.949 . S
C1265 C1266 1.349 . S
C1265 C1267 1.327 . S
C1265 H1288 0.950 . S
C1266 C1265 1.349 . S
C1266 C1278 1.349 . S
C1267 C1265 1.327 . S
C1267 C1283 1.429 . S
C1267 H1289 0.950 . S
C1268 H1264 0.949 . S
C1268 C1276 1.574 . S
C1268 C1284 1.368 . S
H1269 C1277 0.950 . S
H1270 C1275 0.950 . S
H1271 C1276 0.949 . S
H1272 C1278 0.950 . S
H1273 C1279 0.950 . S
H1274 C1280 0.949 . S
C1275 H1270 0.950 . S
C1275 C1277 1.327 . S
C1275 C1281 1.429 . S
C1276 C1268 1.574 . S
C1276 H1271 0.949 . S
C1276 C1282 1.368 . S
C1277 C1261 1.349 . S
C1277 H1269 0.950 . S
C1277 C1275 1.327 . S
C1278 C1266 1.349 . S
C1278 H1272 0.950 . S
C1278 C1279 1.327 . S
C1279 H1273 0.950 . S
C1279 C1278 1.327 . S
C1279 C1283 1.429 . S
C1280 C1263 1.574 . S
C1280 H1274 0.949 . S
C1280 C1284 1.368 . S
C1281 C1262 1.429 . S
C1281 C1275 1.429 . S
C1281 C1282 1.523 . S
C1282 C1263 1.368 . S
C1282 C1276 1.368 . S
C1282 C1281 1.523 . S
C1283 C1267 1.429 . S
C1283 C1279 1.429 . S
C1283 C1284 1.523 . S
C1284 C1268 1.368 . S
C1284 C1280 1.368 . S
C1284 C1283 1.523 . S
H1285 C1260 0.950 . S
H1286 C1262 0.950 . S
H1287 C1263 0.949 . S
H1288 C1265 0.950 . S
H1289 C1267 0.950 . S
C1290 C1291 1.349 . S
C1290 C1292 1.327 . S
C1290 H1315 0.950 . S
C1291 C1290 1.349 . S
C1291 C1307 1.349 . S
C1292 C1290 1.327 . S
C1292 C1311 1.429 . S
C1292 H1316 0.950 . S
C1293 C1310 1.574 . S
C1293 C1312 1.368 . S
C1293 H1317 0.949 . S
H1294 C1298 0.949 . S
C1295 C1296 1.349 . S
C1295 C1297 1.327 . S
C1295 H1318 0.950 . S
C1296 C1295 1.349 . S
C1296 C1308 1.349 . S
C1297 C1295 1.327 . S
C1297 C1313 1.429 . S
C1297 H1319 0.950 . S
C1298 H1294 0.949 . S
C1298 C1306 1.574 . S
C1298 C1314 1.368 . S
H1299 C1307 0.950 . S
H1300 C1305 0.950 . S
H1301 C1306 0.949 . S
H1302 C1308 0.950 . S
H1303 C1309 0.950 . S
H1304 C1310 0.949 . S
C1305 H1300 0.950 . S
C1305 C1307 1.327 . S
C1305 C1311 1.429 . S
C1306 C1298 1.574 . S
C1306 H1301 0.949 . S
C1306 C1312 1.368 . S
C1307 C1291 1.349 . S
C1307 H1299 0.950 . S
C1307 C1305 1.327 . S
C1308 C1296 1.349 . S
C1308 H1302 0.950 . S
C1308 C1309 1.327 . S
C1309 H1303 0.950 . S
C1309 C1308 1.327 . S
C1309 C1313 1.429 . S
C1310 C1293 1.574 . S
C1310 H1304 0.949 . S
C1310 C1314 1.368 . S
C1311 C1292 1.429 . S
C1311 C1305 1.429 . S
C1311 C1312 1.523 . S
C1312 C1293 1.368 . S
C1312 C1306 1.368 . S
C1312 C1311 1.523 . S
C1313 C1297 1.429 . S
C1313 C1309 1.429 . S
C1313 C1314 1.523 . S
C1314 C1298 1.368 . S
C1314 C1310 1.368 . S
C1314 C1313 1.523 . S
H1315 C1290 0.950 . S
H1316 C1292 0.950 . S
H1317 C1293 0.949 . S
H1318 C1295 0.950 . S
H1319 C1297 0.950 . S
C1320 C1321 1.349 . S
C1320 C1322 1.327 . S
C1320 H1345 0.950 . S
C1321 C1320 1.349 . S
C1321 C1337 1.349 . S
C1322 C1320 1.327 . S
C1322 C1341 1.429 . S
C1322 H1346 0.950 . S
C1323 C1340 1.574 . S
C1323 C1342 1.368 . S
C1323 H1347 0.949 . S
H1324 C1328 0.949 . S
C1325 C1326 1.349 . S
C1325 C1327 1.327 . S
C1325 H1348 0.950 . S
C1326 C1325 1.349 . S
C1326 C1338 1.349 . S
C1327 C1325 1.327 . S
C1327 C1343 1.429 . S
C1327 H1349 0.950 . S
C1328 H1324 0.949 . S
C1328 C1336 1.574 . S
C1328 C1344 1.368 . S
H1329 C1337 0.950 . S
H1330 C1335 0.950 . S
H1331 C1336 0.949 . S
H1332 C1338 0.950 . S
H1333 C1339 0.950 . S
H1334 C1340 0.949 . S
C1335 H1330 0.950 . S
C1335 C1337 1.327 . S
C1335 C1341 1.429 . S
C1336 C1328 1.574 . S
C1336 H1331 0.949 . S
C1336 C1342 1.368 . S
C1337 C1321 1.349 . S
C1337 H1329 0.950 . S
C1337 C1335 1.327 . S
C1338 C1326 1.349 . S
C1338 H1332 0.950 . S
C1338 C1339 1.327 . S
C1339 H1333 0.950 . S
C1339 C1338 1.327 . S
C1339 C1343 1.429 . S
C1340 C1323 1.574 . S
C1340 H1334 0.949 . S
C1340 C1344 1.368 . S
C1341 C1322 1.429 . S
C1341 C1335 1.429 . S
C1341 C1342 1.523 . S
C1342 C1323 1.368 . S
C1342 C1336 1.368 . S
C1342 C1341 1.523 . S
C1343 C1327 1.429 . S
C1343 C1339 1.429 . S
C1343 C1344 1.523 . S
C1344 C1328 1.368 . S
C1344 C1340 1.368 . S
C1344 C1343 1.523 . S
H1345 C1320 0.950 . S
H1346 C1322 0.950 . S
H1347 C1323 0.949 . S
H1348 C1325 0.950 . S
H1349 C1327 0.950 . S
C1350 C1351 1.349 . S
C1350 C1352 1.327 . S
C1350 H1375 0.950 . S
C1351 C1350 1.349 . S
C1351 C1367 1.349 . S
C1352 C1350 1.327 . S
C1352 C1371 1.429 . S
C1352 H1376 0.950 . S
C1353 C1370 1.574 1_655 S
C1353 C1372 1.368 . S
C1353 H1377 0.949 . S
H1354 C1358 0.949 . S
C1355 C1356 1.349 . S
C1355 C1357 1.327 . S
C1355 H1378 0.950 . S
C1356 C1355 1.349 . S
C1356 C1368 1.349 . S
C1357 C1355 1.327 . S
C1357 C1373 1.429 . S
C1357 H1379 0.950 . S
C1358 H1354 0.949 . S
C1358 C1366 1.574 . S
C1358 C1374 1.368 . S
H1359 C1367 0.950 . S
H1360 C1365 0.950 . S
H1361 C1366 0.949 . S
H1362 C1368 0.950 . S
H1363 C1369 0.950 . S
H1364 C1370 0.949 . S
C1365 H1360 0.950 . S
C1365 C1367 1.327 . S
C1365 C1371 1.429 . S
C1366 C1358 1.574 . S
C1366 H1361 0.949 . S
C1366 C1372 1.368 1_455 S
C1367 C1351 1.349 . S
C1367 H1359 0.950 . S
C1367 C1365 1.327 . S
C1368 C1356 1.349 . S
C1368 H1362 0.950 . S
C1368 C1369 1.327 . S
C1369 H1363 0.950 . S
C1369 C1368 1.327 . S
C1369 C1373 1.429 . S
C1370 C1353 1.574 1_455 S
C1370 H1364 0.949 . S
C1370 C1374 1.368 . S
C1371 C1352 1.429 . S
C1371 C1365 1.429 . S
C1371 C1372 1.523 . S
C1372 C1353 1.368 . S
C1372 C1366 1.368 1_655 S
C1372 C1371 1.523 . S
C1373 C1357 1.429 . S
C1373 C1369 1.429 . S
C1373 C1374 1.523 . S
C1374 C1358 1.368 . S
C1374 C1370 1.368 . S
C1374 C1373 1.523 . S
H1375 C1350 0.950 . S
H1376 C1352 0.950 . S
H1377 C1353 0.949 . S
H1378 C1355 0.950 . S
H1379 C1357 0.950 . S
C1380 C1381 1.349 . S
C1380 C1382 1.327 . S
C1380 H1405 0.950 . S
C1381 C1380 1.349 . S
C1381 C1397 1.349 . S
C1382 C1380 1.327 . S
C1382 C1401 1.429 . S
C1382 H1406 0.950 . S
C1383 C1400 1.574 . S
C1383 C1402 1.368 . S
C1383 H1407 0.949 . S
H1384 C1388 0.949 . S
C1385 C1386 1.349 . S
C1385 C1387 1.327 . S
C1385 H1408 0.950 . S
C1386 C1385 1.349 . S
C1386 C1398 1.349 . S
C1387 C1385 1.327 . S
C1387 C1403 1.429 . S
C1387 H1409 0.950 . S
C1388 H1384 0.949 . S
C1388 C1396 1.574 . S
C1388 C1404 1.368 . S
H1389 C1397 0.950 . S
H1390 C1395 0.950 . S
H1391 C1396 0.949 . S
H1392 C1398 0.950 . S
H1393 C1399 0.950 . S
H1394 C1400 0.949 . S
C1395 H1390 0.950 . S
C1395 C1397 1.327 . S
C1395 C1401 1.429 . S
C1396 C1388 1.574 . S
C1396 H1391 0.949 . S
C1396 C1402 1.368 . S
C1397 C1381 1.349 . S
C1397 H1389 0.950 . S
C1397 C1395 1.327 . S
C1398 C1386 1.349 . S
C1398 H1392 0.950 . S
C1398 C1399 1.327 . S
C1399 H1393 0.950 . S
C1399 C1398 1.327 . S
C1399 C1403 1.429 . S
C1400 C1383 1.574 . S
C1400 H1394 0.949 . S
C1400 C1404 1.368 . S
C1401 C1382 1.429 . S
C1401 C1395 1.429 . S
C1401 C1402 1.523 . S
C1402 C1383 1.368 . S
C1402 C1396 1.368 . S
C1402 C1401 1.523 . S
C1403 C1387 1.429 . S
C1403 C1399 1.429 . S
C1403 C1404 1.523 . S
C1404 C1388 1.368 . S
C1404 C1400 1.368 . S
C1404 C1403 1.523 . S
H1405 C1380 0.950 . S
H1406 C1382 0.950 . S
H1407 C1383 0.949 . S
H1408 C1385 0.950 . S
H1409 C1387 0.950 . S
C1410 C1411 1.349 . S
C1410 C1412 1.327 . S
C1410 H1435 0.950 . S
C1411 C1410 1.349 . S
C1411 C1427 1.349 . S
C1412 C1410 1.327 . S
C1412 C1431 1.429 . S
C1412 H1436 0.950 . S
C1413 C1430 1.574 . S
C1413 C1432 1.368 . S
C1413 H1437 0.949 . S
H1414 C1418 0.949 . S
C1415 C1416 1.349 . S
C1415 C1417 1.327 . S
C1415 H1438 0.950 . S
C1416 C1415 1.349 . S
C1416 C1428 1.349 . S
C1417 C1415 1.327 . S
C1417 C1433 1.429 . S
C1417 H1439 0.950 . S
C1418 H1414 0.949 . S
C1418 C1426 1.574 1_565 S
C1418 C1434 1.368 . S
H1419 C1427 0.950 . S
H1420 C1425 0.950 . S
H1421 C1426 0.949 . S
H1422 C1428 0.950 . S
H1423 C1429 0.950 . S
H1424 C1430 0.945 1_565 S
C1425 H1420 0.950 . S
C1425 C1427 1.327 . S
C1425 C1431 1.429 . S
C1426 C1418 1.574 1_545 S
C1426 H1421 0.949 . S
C1426 C1432 1.368 . S
C1427 C1411 1.349 . S
C1427 H1419 0.950 . S
C1427 C1425 1.327 . S
C1428 C1416 1.349 . S
C1428 H1422 0.950 . S
C1428 C1429 1.327 . S
C1429 H1423 0.950 . S
C1429 C1428 1.327 . S
C1429 C1433 1.429 . S
C1430 C1413 1.574 . S
C1430 H1424 0.945 1_545 S
C1430 C1434 1.368 1_545 S
C1431 C1412 1.429 . S
C1431 C1425 1.429 . S
C1431 C1432 1.523 . S
C1432 C1413 1.368 . S
C1432 C1426 1.368 . S
C1432 C1431 1.523 . S
C1433 C1417 1.429 . S
C1433 C1429 1.429 . S
C1433 C1434 1.523 . S
C1434 C1418 1.368 . S
C1434 C1430 1.368 1_565 S
C1434 C1433 1.523 . S
H1435 C1410 0.950 . S
H1436 C1412 0.950 . S
H1437 C1413 0.949 . S
H1438 C1415 0.950 . S
H1439 C1417 0.950 . S
C1440 C1441 1.349 . S
C1440 C1442 1.327 . S
C1440 H1465 0.950 . S
C1441 C1440 1.349 . S
C1441 C1457 1.349 . S
C1442 C1440 1.327 . S
C1442 C1461 1.429 . S
C1442 H1466 0.950 . S
C1443 C1460 1.574 . S
C1443 C1462 1.368 . S
C1443 H1467 0.949 . S
H1444 C1448 0.949 . S
C1445 C1446 1.349 . S
C1445 C1447 1.327 . S
C1445 H1468 0.950 . S
C1446 C1445 1.349 . S
C1446 C1458 1.349 . S
C1447 C1445 1.327 . S
C1447 C1463 1.429 . S
C1447 H1469 0.950 . S
C1448 H1444 0.949 . S
C1448 C1456 1.574 . S
C1448 C1464 1.368 . S
H1449 C1457 0.950 . S
H1450 C1455 0.950 . S
H1451 C1456 0.949 . S
H1452 C1458 0.950 . S
H1453 C1459 0.950 . S
H1454 C1460 0.949 . S
C1455 H1450 0.950 . S
C1455 C1457 1.327 . S
C1455 C1461 1.429 . S
C1456 C1448 1.574 . S
C1456 H1451 0.949 . S
C1456 C1462 1.368 . S
C1457 C1441 1.349 . S
C1457 H1449 0.950 . S
C1457 C1455 1.327 . S
C1458 C1446 1.349 . S
C1458 H1452 0.950 . S
C1458 C1459 1.327 . S
C1459 H1453 0.950 . S
C1459 C1458 1.327 . S
C1459 C1463 1.429 . S
C1460 C1443 1.574 . S
C1460 H1454 0.949 . S
C1460 C1464 1.368 . S
C1461 C1442 1.429 . S
C1461 C1455 1.429 . S
C1461 C1462 1.523 . S
C1462 C1443 1.368 . S
C1462 C1456 1.368 . S
C1462 C1461 1.523 . S
C1463 C1447 1.429 . S
C1463 C1459 1.429 . S
C1463 C1464 1.523 . S
C1464 C1448 1.368 . S
C1464 C1460 1.368 . S
C1464 C1463 1.523 . S
H1465 C1440 0.950 . S
H1466 C1442 0.950 . S
H1467 C1443 0.949 . S
H1468 C1445 0.950 . S
H1469 C1447 0.950 . S
C1470 C1471 1.349 . S
C1470 C1472 1.327 . S
C1470 H1495 0.950 . S
C1471 C1470 1.349 . S
C1471 C1487 1.349 . S
C1472 C1470 1.327 . S
C1472 C1491 1.429 . S
C1472 H1496 0.950 . S
C1473 C1490 1.574 . S
C1473 C1492 1.368 . S
C1473 H1497 0.949 . S
H1474 C1478 0.949 . S
C1475 C1476 1.349 . S
C1475 C1477 1.327 . S
C1475 H1498 0.950 . S
C1476 C1475 1.349 . S
C1476 C1488 1.349 . S
C1477 C1475 1.327 . S
C1477 C1493 1.429 . S
C1477 H1499 0.950 . S
C1478 H1474 0.949 . S
C1478 C1486 1.574 . S
C1478 C1494 1.368 . S
H1479 C1487 0.950 . S
H1480 C1485 0.950 . S
H1481 C1486 0.949 . S
H1482 C1488 0.950 . S
H1483 C1489 0.950 . S
H1484 C1490 0.949 . S
C1485 H1480 0.950 . S
C1485 C1487 1.327 . S
C1485 C1491 1.429 . S
C1486 C1478 1.574 . S
C1486 H1481 0.949 . S
C1486 C1492 1.368 . S
C1487 C1471 1.349 . S
C1487 H1479 0.950 . S
C1487 C1485 1.327 . S
C1488 C1476 1.349 . S
C1488 H1482 0.950 . S
C1488 C1489 1.327 . S
C1489 H1483 0.950 . S
C1489 C1488 1.327 . S
C1489 C1493 1.429 . S
C1490 C1473 1.574 . S
C1490 H1484 0.949 . S
C1490 C1494 1.368 . S
C1491 C1472 1.429 . S
C1491 C1485 1.429 . S
C1491 C1492 1.523 . S
C1492 C1473 1.368 . S
C1492 C1486 1.368 . S
C1492 C1491 1.523 . S
C1493 C1477 1.429 . S
C1493 C1489 1.429 . S
C1493 C1494 1.523 . S
C1494 C1478 1.368 . S
C1494 C1490 1.368 . S
C1494 C1493 1.523 . S
H1495 C1470 0.950 . S
H1496 C1472 0.950 . S
H1497 C1473 0.949 . S
H1498 C1475 0.950 . S
H1499 C1477 0.950 . S
C1500 C1501 1.349 . S
C1500 C1502 1.327 . S
C1500 H1525 0.950 . S
C1501 C1500 1.349 . S
C1501 C1517 1.349 . S
C1502 C1500 1.327 . S
C1502 C1521 1.429 . S
C1502 H1526 0.950 . S
C1503 C1520 1.574 . S
C1503 C1522 1.368 . S
C1503 H1527 0.949 . S
H1504 C1508 0.949 . S
C1505 C1506 1.349 . S
C1505 C1507 1.327 . S
C1505 H1528 0.950 . S
C1506 C1505 1.349 . S
C1506 C1518 1.349 . S
C1507 C1505 1.327 . S
C1507 C1523 1.429 . S
C1507 H1529 0.950 . S
C1508 H1504 0.949 . S
C1508 C1516 1.574 . S
C1508 C1524 1.368 . S
H1509 C1517 0.950 . S
H1510 C1515 0.950 . S
H1511 C1516 0.949 . S
H1512 C1518 0.950 . S
H1513 C1519 0.950 . S
H1514 C1520 0.949 . S
C1515 H1510 0.950 . S
C1515 C1517 1.327 . S
C1515 C1521 1.429 . S
C1516 C1508 1.574 . S
C1516 H1511 0.949 . S
C1516 C1522 1.368 . S
C1517 C1501 1.349 . S
C1517 H1509 0.950 . S
C1517 C1515 1.327 . S
C1518 C1506 1.349 . S
C1518 H1512 0.950 . S
C1518 C1519 1.327 . S
C1519 H1513 0.950 . S
C1519 C1518 1.327 . S
C1519 C1523 1.429 . S
C1520 C1503 1.574 . S
C1520 H1514 0.949 . S
C1520 C1524 1.368 . S
C1521 C1502 1.429 . S
C1521 C1515 1.429 . S
C1521 C1522 1.523 . S
C1522 C1503 1.368 . S
C1522 C1516 1.368 . S
C1522 C1521 1.523 . S
C1523 C1507 1.429 . S
C1523 C1519 1.429 . S
C1523 C1524 1.523 . S
C1524 C1508 1.368 . S
C1524 C1520 1.368 . S
C1524 C1523 1.523 . S
H1525 C1500 0.950 . S
H1526 C1502 0.950 . S
H1527 C1503 0.949 . S
H1528 C1505 0.950 . S
H1529 C1507 0.950 . S
C1530 C1531 1.349 . S
C1530 C1532 1.327 . S
C1530 H1555 0.950 . S
C1531 C1530 1.349 . S
C1531 C1547 1.349 . S
C1532 C1530 1.327 . S
C1532 C1551 1.429 . S
C1532 H1556 0.950 . S
C1533 C1550 1.574 . S
C1533 C1552 1.368 . S
C1533 H1557 0.949 . S
H1534 C1538 0.949 . S
C1535 C1536 1.349 . S
C1535 C1537 1.327 . S
C1535 H1558 0.950 . S
C1536 C1535 1.349 . S
C1536 C1548 1.349 . S
C1537 C1535 1.327 . S
C1537 C1553 1.429 . S
C1537 H1559 0.950 . S
C1538 H1534 0.949 . S
C1538 C1546 1.574 . S
C1538 C1554 1.368 . S
H1539 C1547 0.950 . S
H1540 C1545 0.950 . S
H1541 C1546 0.949 . S
H1542 C1548 0.950 . S
H1543 C1549 0.950 . S
H1544 C1550 0.949 . S
C1545 H1540 0.950 . S
C1545 C1547 1.327 . S
C1545 C1551 1.429 . S
C1546 C1538 1.574 . S
C1546 H1541 0.949 . S
C1546 C1552 1.368 . S
C1547 C1531 1.349 . S
C1547 H1539 0.950 . S
C1547 C1545 1.327 . S
C1548 C1536 1.349 . S
C1548 H1542 0.950 . S
C1548 C1549 1.327 . S
C1549 H1543 0.950 . S
C1549 C1548 1.327 . S
C1549 C1553 1.429 . S
C1550 C1533 1.574 . S
C1550 H1544 0.949 . S
C1550 C1554 1.368 . S
C1551 C1532 1.429 . S
C1551 C1545 1.429 . S
C1551 C1552 1.523 . S
C1552 C1533 1.368 . S
C1552 C1546 1.368 . S
C1552 C1551 1.523 . S
C1553 C1537 1.429 . S
C1553 C1549 1.429 . S
C1553 C1554 1.523 . S
C1554 C1538 1.368 . S
C1554 C1550 1.368 . S
C1554 C1553 1.523 . S
H1555 C1530 0.950 . S
H1556 C1532 0.950 . S
H1557 C1533 0.949 . S
H1558 C1535 0.950 . S
H1559 C1537 0.950 . S
C1560 C1561 1.349 . S
C1560 C1562 1.327 . S
C1560 H1585 0.950 . S
C1561 C1560 1.349 . S
C1561 C1577 1.349 . S
C1562 C1560 1.327 . S
C1562 C1581 1.429 . S
C1562 H1586 0.950 . S
C1563 C1580 1.574 . S
C1563 C1582 1.368 . S
C1563 H1587 0.949 . S
H1564 C1568 0.949 . S
C1565 C1566 1.349 . S
C1565 C1567 1.327 . S
C1565 H1588 0.950 . S
C1566 C1565 1.349 . S
C1566 C1578 1.349 . S
C1567 C1565 1.327 . S
C1567 C1583 1.429 . S
C1567 H1589 0.950 . S
C1568 H1564 0.949 . S
C1568 C1576 1.574 . S
C1568 C1584 1.368 . S
H1569 C1577 0.950 . S
H1570 C1575 0.950 . S
H1571 C1576 0.949 . S
H1572 C1578 0.950 . S
H1573 C1579 0.950 . S
H1574 C1580 0.949 . S
C1575 H1570 0.950 . S
C1575 C1577 1.327 . S
C1575 C1581 1.429 . S
C1576 C1568 1.574 . S
C1576 H1571 0.949 . S
C1576 C1582 1.368 . S
C1577 C1561 1.349 . S
C1577 H1569 0.950 . S
C1577 C1575 1.327 . S
C1578 C1566 1.349 . S
C1578 H1572 0.950 . S
C1578 C1579 1.327 . S
C1579 H1573 0.950 . S
C1579 C1578 1.327 . S
C1579 C1583 1.429 . S
C1580 C1563 1.574 . S
C1580 H1574 0.949 . S
C1580 C1584 1.368 . S
C1581 C1562 1.429 . S
C1581 C1575 1.429 . S
C1581 C1582 1.523 . S
C1582 C1563 1.368 . S
C1582 C1576 1.368 . S
C1582 C1581 1.523 . S
C1583 C1567 1.429 . S
C1583 C1579 1.429 . S
C1583 C1584 1.523 . S
C1584 C1568 1.368 . S
C1584 C1580 1.368 . S
C1584 C1583 1.523 . S
H1585 C1560 0.950 . S
H1586 C1562 0.950 . S
H1587 C1563 0.949 . S
H1588 C1565 0.950 . S
H1589 C1567 0.950 . S
C1590 C1591 1.349 . S
C1590 C1592 1.327 . S
C1590 H1615 0.950 . S
C1591 C1590 1.349 . S
C1591 C1607 1.349 . S
C1592 C1590 1.327 . S
C1592 C1611 1.429 . S
C1592 H1616 0.950 . S
C1593 C1610 1.574 . S
C1593 C1612 1.368 . S
C1593 H1617 0.949 . S
H1594 C1598 0.949 . S
C1595 C1596 1.349 . S
C1595 C1597 1.327 . S
C1595 H1618 0.950 . S
C1596 C1595 1.349 . S
C1596 C1608 1.349 . S
C1597 C1595 1.327 . S
C1597 C1613 1.429 . S
C1597 H1619 0.950 . S
C1598 H1594 0.949 . S
C1598 C1606 1.574 . S
C1598 C1614 1.368 . S
H1599 C1607 0.950 . S
H1600 C1605 0.950 . S
H1601 C1606 0.949 . S
H1602 C1608 0.950 . S
H1603 C1609 0.950 . S
H1604 C1610 0.949 . S
C1605 H1600 0.950 . S
C1605 C1607 1.327 . S
C1605 C1611 1.429 . S
C1606 C1598 1.574 . S
C1606 H1601 0.949 . S
C1606 C1612 1.368 . S
C1607 C1591 1.349 . S
C1607 H1599 0.950 . S
C1607 C1605 1.327 . S
C1608 C1596 1.349 . S
C1608 H1602 0.950 . S
C1608 C1609 1.327 . S
C1609 H1603 0.950 . S
C1609 C1608 1.327 . S
C1609 C1613 1.429 . S
C1610 C1593 1.574 . S
C1610 H1604 0.949 . S
C1610 C1614 1.368 . S
C1611 C1592 1.429 . S
C1611 C1605 1.429 . S
C1611 C1612 1.523 . S
C1612 C1593 1.368 . S
C1612 C1606 1.368 . S
C1612 C1611 1.523 . S
C1613 C1597 1.429 . S
C1613 C1609 1.429 . S
C1613 C1614 1.523 . S
C1614 C1598 1.368 . S
C1614 C1610 1.368 . S
C1614 C1613 1.523 . S
H1615 C1590 0.950 . S
H1616 C1592 0.950 . S
H1617 C1593 0.949 . S
H1618 C1595 0.950 . S
H1619 C1597 0.950 . S
C1620 C1621 1.349 . S
C1620 C1622 1.327 . S
C1620 H1645 0.950 . S
C1621 C1620 1.349 . S
C1621 C1637 1.349 . S
C1622 C1620 1.327 . S
C1622 C1641 1.429 1_545 S
C1622 H1646 0.950 . S
C1623 C1640 1.574 . S
C1623 C1642 1.368 . S
C1623 H1647 0.949 . S
H1624 C1628 0.949 . S
C1625 C1626 1.349 . S
C1625 C1627 1.327 . S
C1625 H1648 0.950 . S
C1626 C1625 1.349 . S
C1626 C1638 1.349 . S
C1627 C1625 1.327 . S
C1627 C1643 1.429 . S
C1627 H1649 0.950 . S
C1628 H1624 0.949 . S
C1628 C1636 1.574 . S
C1628 C1644 1.368 . S
H1629 C1637 0.950 . S
H1630 C1635 0.950 1_565 S
H1631 C1636 0.949 . S
H1632 C1638 0.950 . S
H1633 C1639 0.950 . S
H1634 C1640 0.949 . S
C1635 H1630 0.950 1_545 S
C1635 C1637 1.327 . S
C1635 C1641 1.429 1_545 S
C1636 C1628 1.574 . S
C1636 H1631 0.949 . S
C1636 C1642 1.368 . S
C1637 C1621 1.349 . S
C1637 H1629 0.950 . S
C1637 C1635 1.327 . S
C1638 C1626 1.349 . S
C1638 H1632 0.950 . S
C1638 C1639 1.327 . S
C1639 H1633 0.950 . S
C1639 C1638 1.327 . S
C1639 C1643 1.429 . S
C1640 C1623 1.574 . S
C1640 H1634 0.949 . S
C1640 C1644 1.368 . S
C1641 C1622 1.429 1_565 S
C1641 C1635 1.429 1_565 S
C1641 C1642 1.523 . S
C1642 C1623 1.368 . S
C1642 C1636 1.368 . S
C1642 C1641 1.523 . S
C1643 C1627 1.429 . S
C1643 C1639 1.429 . S
C1643 C1644 1.523 . S
C1644 C1628 1.368 . S
C1644 C1640 1.368 . S
C1644 C1643 1.523 . S
H1645 C1620 0.950 . S
H1646 C1622 0.950 . S
H1647 C1623 0.949 . S
H1648 C1625 0.950 . S
H1649 C1627 0.950 . S
C1650 C1651 1.349 . S
C1650 C1652 1.320 1_655 S
C1650 H1675 0.950 . S
C1651 C1650 1.349 . S
C1651 C1667 1.349 . S
C1652 C1650 1.320 1_455 S
C1652 C1671 1.434 . S
C1652 H1676 0.952 . S
C1653 C1670 1.574 . S
C1653 C1672 1.368 . S
C1653 H1677 0.949 . S
H1654 C1658 0.949 . S
C1655 C1656 1.349 . S
C1655 C1657 1.327 . S
C1655 H1678 0.950 . S
C1656 C1655 1.349 . S
C1656 C1668 1.349 . S
C1657 C1655 1.327 . S
C1657 C1673 1.429 . S
C1657 H1679 0.950 . S
C1658 H1654 0.949 . S
C1658 C1666 1.574 . S
C1658 C1674 1.368 . S
H1659 C1667 0.950 . S
H1660 C1665 0.950 . S
H1661 C1666 0.949 . S
H1662 C1668 0.950 . S
H1663 C1669 0.950 . S
H1664 C1670 0.949 . S
C1665 H1660 0.950 . S
C1665 C1667 1.327 1_455 S
C1665 C1671 1.429 . S
C1666 C1658 1.574 . S
C1666 H1661 0.949 . S
C1666 C1672 1.368 . S
C1667 C1651 1.349 . S
C1667 H1659 0.950 . S
C1667 C1665 1.327 1_655 S
C1668 C1656 1.349 . S
C1668 H1662 0.950 . S
C1668 C1669 1.327 . S
C1669 H1663 0.950 . S
C1669 C1668 1.327 . S
C1669 C1673 1.429 . S
C1670 C1653 1.574 . S
C1670 H1664 0.949 . S
C1670 C1674 1.368 . S
C1671 C1652 1.434 . S
C1671 C1665 1.429 . S
C1671 C1672 1.523 . S
C1672 C1653 1.368 . S
C1672 C1666 1.368 . S
C1672 C1671 1.523 . S
C1673 C1657 1.429 . S
C1673 C1669 1.429 . S
C1673 C1674 1.523 . S
C1674 C1658 1.368 . S
C1674 C1670 1.368 . S
C1674 C1673 1.523 . S
H1675 C1650 0.950 . S
H1676 C1652 0.952 . S
H1677 C1653 0.949 . S
H1678 C1655 0.950 . S
H1679 C1657 0.950 . S
C1680 C1681 1.349 . S
C1680 C1682 1.327 . S
C1680 H1705 0.950 . S
C1681 C1680 1.349 . S
C1681 C1697 1.349 . S
C1682 C1680 1.327 . S
C1682 C1701 1.429 . S
C1682 H1706 0.950 . S
C1683 C1700 1.574 . S
C1683 C1702 1.368 . S
C1683 H1707 0.949 . S
H1684 C1688 0.949 . S
C1685 C1686 1.349 . S
C1685 C1687 1.327 . S
C1685 H1708 0.950 . S
C1686 C1685 1.349 . S
C1686 C1698 1.349 . S
C1687 C1685 1.327 . S
C1687 C1703 1.429 . S
C1687 H1709 0.950 . S
C1688 H1684 0.949 . S
C1688 C1696 1.574 . S
C1688 C1704 1.368 . S
H1689 C1697 0.950 . S
H1690 C1695 0.950 . S
H1691 C1696 0.949 . S
H1692 C1698 0.950 . S
H1693 C1699 0.950 . S
H1694 C1700 0.949 . S
C1695 H1690 0.950 . S
C1695 C1697 1.327 . S
C1695 C1701 1.429 . S
C1696 C1688 1.574 . S
C1696 H1691 0.949 . S
C1696 C1702 1.368 . S
C1697 C1681 1.349 . S
C1697 H1689 0.950 . S
C1697 C1695 1.327 . S
C1698 C1686 1.349 . S
C1698 H1692 0.950 . S
C1698 C1699 1.327 . S
C1699 H1693 0.950 . S
C1699 C1698 1.327 . S
C1699 C1703 1.429 . S
C1700 C1683 1.574 . S
C1700 H1694 0.949 . S
C1700 C1704 1.368 . S
C1701 C1682 1.429 . S
C1701 C1695 1.429 . S
C1701 C1702 1.523 . S
C1702 C1683 1.368 . S
C1702 C1696 1.368 . S
C1702 C1701 1.523 . S
C1703 C1687 1.429 . S
C1703 C1699 1.429 . S
C1703 C1704 1.523 . S
C1704 C1688 1.368 . S
C1704 C1700 1.368 . S
C1704 C1703 1.523 . S
H1705 C1680 0.950 . S
H1706 C1682 0.950 . S
H1707 C1683 0.949 . S
H1708 C1685 0.950 . S
H1709 C1687 0.950 . S
C1710 C1711 1.349 . S
C1710 C1712 1.327 . S
C1710 H1735 0.950 . S
C1711 C1710 1.349 . S
C1711 C1727 1.349 . S
C1712 C1710 1.327 . S
C1712 C1731 1.429 . S
C1712 H1736 0.950 . S
C1713 C1730 1.574 . S
C1713 C1732 1.368 . S
C1713 H1737 0.949 . S
H1714 C1718 0.949 . S
C1715 C1716 1.349 . S
C1715 C1717 1.327 . S
C1715 H1738 0.950 . S
C1716 C1715 1.349 . S
C1716 C1728 1.349 . S
C1717 C1715 1.327 . S
C1717 C1733 1.429 . S
C1717 H1739 0.950 . S
C1718 H1714 0.949 . S
C1718 C1726 1.574 . S
C1718 C1734 1.368 . S
H1719 C1727 0.950 . S
H1720 C1725 0.950 . S
H1721 C1726 0.949 . S
H1722 C1728 0.950 . S
H1723 C1729 0.950 . S
H1724 C1730 0.949 . S
C1725 H1720 0.950 . S
C1725 C1727 1.327 . S
C1725 C1731 1.429 . S
C1726 C1718 1.574 . S
C1726 H1721 0.949 . S
C1726 C1732 1.368 . S
C1727 C1711 1.349 . S
C1727 H1719 0.950 . S
C1727 C1725 1.327 . S
C1728 C1716 1.349 . S
C1728 H1722 0.950 . S
C1728 C1729 1.327 . S
C1729 H1723 0.950 . S
C1729 C1728 1.327 . S
C1729 C1733 1.429 . S
C1730 C1713 1.574 . S
C1730 H1724 0.949 . S
C1730 C1734 1.368 . S
C1731 C1712 1.429 . S
C1731 C1725 1.429 . S
C1731 C1732 1.523 . S
C1732 C1713 1.368 . S
C1732 C1726 1.368 . S
C1732 C1731 1.523 . S
C1733 C1717 1.429 . S
C1733 C1729 1.429 . S
C1733 C1734 1.523 . S
C1734 C1718 1.368 . S
C1734 C1730 1.368 . S
C1734 C1733 1.523 . S
H1735 C1710 0.950 . S
H1736 C1712 0.950 . S
H1737 C1713 0.949 . S
H1738 C1715 0.950 . S
H1739 C1717 0.950 . S
C1740 C1741 1.349 . S
C1740 C1742 1.327 . S
C1740 H1765 0.950 . S
C1741 C1740 1.349 . S
C1741 C1757 1.349 . S
C1742 C1740 1.327 . S
C1742 C1761 1.429 . S
C1742 H1766 0.950 . S
C1743 C1760 1.574 . S
C1743 C1762 1.368 . S
C1743 H1767 0.949 . S
H1744 C1748 0.949 . S
C1745 C1746 1.349 . S
C1745 C1747 1.327 . S
C1745 H1768 0.950 . S
C1746 C1745 1.349 . S
C1746 C1758 1.349 . S
C1747 C1745 1.327 . S
C1747 C1763 1.429 . S
C1747 H1769 0.950 . S
C1748 H1744 0.949 . S
C1748 C1756 1.574 . S
C1748 C1764 1.368 . S
H1749 C1757 0.950 . S
H1750 C1755 0.950 . S
H1751 C1756 0.949 . S
H1752 C1758 0.950 . S
H1753 C1759 0.950 . S
H1754 C1760 0.949 . S
C1755 H1750 0.950 . S
C1755 C1757 1.327 . S
C1755 C1761 1.429 . S
C1756 C1748 1.574 . S
C1756 H1751 0.949 . S
C1756 C1762 1.368 . S
C1757 C1741 1.349 . S
C1757 H1749 0.950 . S
C1757 C1755 1.327 . S
C1758 C1746 1.349 . S
C1758 H1752 0.950 . S
C1758 C1759 1.327 . S
C1759 H1753 0.950 . S
C1759 C1758 1.327 . S
C1759 C1763 1.429 . S
C1760 C1743 1.574 . S
C1760 H1754 0.949 . S
C1760 C1764 1.368 . S
C1761 C1742 1.429 . S
C1761 C1755 1.429 . S
C1761 C1762 1.523 . S
C1762 C1743 1.368 . S
C1762 C1756 1.368 . S
C1762 C1761 1.523 . S
C1763 C1747 1.429 . S
C1763 C1759 1.429 . S
C1763 C1764 1.523 . S
C1764 C1748 1.368 . S
C1764 C1760 1.368 . S
C1764 C1763 1.523 . S
H1765 C1740 0.950 . S
H1766 C1742 0.950 . S
H1767 C1743 0.949 . S
H1768 C1745 0.950 . S
H1769 C1747 0.950 . S
C1770 C1771 1.349 . S
C1770 C1772 1.327 . S
C1770 H1795 0.950 . S
C1771 C1770 1.349 . S
C1771 C1787 1.349 . S
C1772 C1770 1.327 . S
C1772 C1791 1.429 . S
C1772 H1796 0.950 . S
C1773 C1790 1.574 . S
C1773 C1792 1.368 . S
C1773 H1797 0.949 . S
H1774 C1778 0.949 . S
C1775 C1776 1.349 . S
C1775 C1777 1.327 . S
C1775 H1798 0.950 . S
C1776 C1775 1.349 . S
C1776 C1788 1.349 . S
C1777 C1775 1.327 . S
C1777 C1793 1.429 . S
C1777 H1799 0.950 . S
C1778 H1774 0.949 . S
C1778 C1786 1.574 . S
C1778 C1794 1.368 . S
H1779 C1787 0.950 . S
H1780 C1785 0.950 . S
H1781 C1786 0.949 . S
H1782 C1788 0.950 . S
H1783 C1789 0.950 . S
H1784 C1790 0.949 . S
C1785 H1780 0.950 . S
C1785 C1787 1.327 . S
C1785 C1791 1.429 . S
C1786 C1778 1.574 . S
C1786 H1781 0.949 . S
C1786 C1792 1.368 . S
C1787 C1771 1.349 . S
C1787 H1779 0.950 . S
C1787 C1785 1.327 . S
C1788 C1776 1.349 . S
C1788 H1782 0.950 . S
C1788 C1789 1.327 . S
C1789 H1783 0.950 . S
C1789 C1788 1.327 . S
C1789 C1793 1.429 . S
C1790 C1773 1.574 . S
C1790 H1784 0.949 . S
C1790 C1794 1.368 . S
C1791 C1772 1.429 . S
C1791 C1785 1.429 . S
C1791 C1792 1.523 . S
C1792 C1773 1.368 . S
C1792 C1786 1.368 . S
C1792 C1791 1.523 . S
C1793 C1777 1.429 . S
C1793 C1789 1.429 . S
C1793 C1794 1.523 . S
C1794 C1778 1.368 . S
C1794 C1790 1.368 . S
C1794 C1793 1.523 . S
H1795 C1770 0.950 . S
H1796 C1772 0.950 . S
H1797 C1773 0.949 . S
H1798 C1775 0.950 . S
H1799 C1777 0.950 . S
C1800 C1801 1.349 . S
C1800 C1802 1.327 . S
C1800 H1825 0.950 . S
C1801 C1800 1.349 . S
C1801 C1817 1.349 . S
C1802 C1800 1.327 . S
C1802 C1821 1.429 . S
C1802 H1826 0.950 . S
C1803 C1820 1.574 . S
C1803 C1822 1.368 1_545 S
C1803 H1827 0.949 . S
H1804 C1808 0.949 . S
C1805 C1806 1.349 . S
C1805 C1807 1.327 . S
C1805 H1828 0.950 . S
C1806 C1805 1.349 . S
C1806 C1818 1.349 . S
C1807 C1805 1.327 . S
C1807 C1823 1.429 . S
C1807 H1829 0.950 . S
C1808 H1804 0.949 . S
C1808 C1816 1.574 1_545 S
C1808 C1824 1.368 . S
H1809 C1817 0.950 . S
H1810 C1815 0.950 . S
H1811 C1816 0.949 . S
H1812 C1818 0.950 . S
H1813 C1819 0.950 . S
H1814 C1820 0.949 . S
C1815 H1810 0.950 . S
C1815 C1817 1.327 . S
C1815 C1821 1.429 . S
C1816 C1808 1.574 1_565 S
C1816 H1811 0.949 . S
C1816 C1822 1.368 . S
C1817 C1801 1.349 . S
C1817 H1809 0.950 . S
C1817 C1815 1.327 . S
C1818 C1806 1.349 . S
C1818 H1812 0.950 . S
C1818 C1819 1.327 . S
C1819 H1813 0.950 . S
C1819 C1818 1.327 . S
C1819 C1823 1.429 . S
C1820 C1803 1.574 . S
C1820 H1814 0.949 . S
C1820 C1824 1.368 . S
C1821 C1802 1.429 . S
C1821 C1815 1.429 . S
C1821 C1822 1.523 . S
C1822 C1803 1.368 1_565 S
C1822 C1816 1.368 . S
C1822 C1821 1.523 . S
C1823 C1807 1.429 . S
C1823 C1819 1.429 . S
C1823 C1824 1.523 . S
C1824 C1808 1.368 . S
C1824 C1820 1.368 . S
C1824 C1823 1.523 . S
H1825 C1800 0.950 . S
H1826 C1802 0.950 . S
H1827 C1803 0.949 . S
H1828 C1805 0.950 . S
H1829 C1807 0.950 . S
C1830 C1831 1.349 . S
C1830 C1832 1.327 . S
C1830 H1855 0.950 . S
C1831 C1830 1.349 . S
C1831 C1847 1.349 . S
C1832 C1830 1.327 . S
C1832 C1851 1.429 . S
C1832 H1856 0.950 . S
C1833 C1850 1.574 1_455 S
C1833 C1852 1.368 . S
C1833 H1857 0.949 . S
H1834 C1838 0.949 . S
C1835 C1836 1.349 . S
C1835 C1837 1.327 . S
C1835 H1858 0.950 . S
C1836 C1835 1.349 . S
C1836 C1848 1.349 . S
C1837 C1835 1.327 . S
C1837 C1853 1.429 . S
C1837 H1859 0.950 . S
C1838 H1834 0.949 . S
C1838 C1846 1.574 1_655 S
C1838 C1854 1.368 . S
H1839 C1847 0.950 . S
H1840 C1845 0.950 . S
H1841 C1846 0.949 . S
H1842 C1848 0.950 . S
H1843 C1849 0.950 . S
H1844 C1850 0.949 . S
C1845 H1840 0.950 . S
C1845 C1847 1.327 . S
C1845 C1851 1.429 . S
C1846 C1838 1.574 1_455 S
C1846 H1841 0.949 . S
C1846 C1852 1.368 . S
C1847 C1831 1.349 . S
C1847 H1839 0.950 . S
C1847 C1845 1.327 . S
C1848 C1836 1.349 . S
C1848 H1842 0.950 . S
C1848 C1849 1.327 . S
C1849 H1843 0.950 . S
C1849 C1848 1.327 . S
C1849 C1853 1.429 . S
C1850 C1833 1.574 1_655 S
C1850 H1844 0.949 . S
C1850 C1854 1.368 . S
C1851 C1832 1.429 . S
C1851 C1845 1.429 . S
C1851 C1852 1.523 . S
C1852 C1833 1.368 . S
C1852 C1846 1.368 . S
C1852 C1851 1.523 . S
C1853 C1837 1.429 . S
C1853 C1849 1.429 . S
C1853 C1854 1.523 . S
C1854 C1838 1.368 . S
C1854 C1850 1.368 . S
C1854 C1853 1.523 . S
H1855 C1830 0.950 . S
H1856 C1832 0.950 . S
H1857 C1833 0.949 . S
H1858 C1835 0.950 . S
H1859 C1837 0.950 . S
C1860 C1861 1.349 . S
C1860 C1862 1.327 . S
C1860 H1885 0.950 . S
C1861 C1860 1.349 . S
C1861 C1877 1.349 . S
C1862 C1860 1.327 . S
C1862 C1881 1.429 . S
C1862 H1886 0.950 . S
C1863 C1880 1.574 . S
C1863 C1882 1.368 . S
C1863 H1887 0.949 . S
H1864 C1868 0.949 . S
C1865 C1866 1.349 . S
C1865 C1867 1.327 . S
C1865 H1888 0.950 . S
C1866 C1865 1.349 . S
C1866 C1878 1.349 . S
C1867 C1865 1.327 . S
C1867 C1883 1.429 . S
C1867 H1889 0.950 . S
C1868 H1864 0.949 . S
C1868 C1876 1.574 . S
C1868 C1884 1.368 . S
H1869 C1877 0.950 . S
H1870 C1875 0.950 . S
H1871 C1876 0.949 . S
H1872 C1878 0.950 . S
H1873 C1879 0.950 . S
H1874 C1880 0.949 . S
C1875 H1870 0.950 . S
C1875 C1877 1.327 . S
C1875 C1881 1.429 . S
C1876 C1868 1.574 . S
C1876 H1871 0.949 . S
C1876 C1882 1.368 . S
C1877 C1861 1.349 . S
C1877 H1869 0.950 . S
C1877 C1875 1.327 . S
C1878 C1866 1.349 . S
C1878 H1872 0.950 . S
C1878 C1879 1.327 . S
C1879 H1873 0.950 . S
C1879 C1878 1.327 . S
C1879 C1883 1.429 . S
C1880 C1863 1.574 . S
C1880 H1874 0.949 . S
C1880 C1884 1.368 . S
C1881 C1862 1.429 . S
C1881 C1875 1.429 . S
C1881 C1882 1.523 . S
C1882 C1863 1.368 . S
C1882 C1876 1.368 . S
C1882 C1881 1.523 . S
C1883 C1867 1.429 . S
C1883 C1879 1.429 . S
C1883 C1884 1.523 . S
C1884 C1868 1.368 . S
C1884 C1880 1.368 . S
C1884 C1883 1.523 . S
H1885 C1860 0.950 . S
H1886 C1862 0.950 . S
H1887 C1863 0.949 . S
H1888 C1865 0.950 . S
H1889 C1867 0.950 . S
C1890 C1891 1.349 . S
C1890 C1892 1.290 1_455 S
C1890 H1915 0.950 . S
C1891 C1890 1.349 . S
C1891 C1907 1.349 . S
C1892 C1890 1.290 1_655 S
C1892 C1911 1.418 . S
C1892 H1916 1.000 . S
C1893 C1910 1.574 . S
C1893 C1912 1.368 . S
C1893 H1917 0.949 . S
H1894 C1898 0.949 . S
C1895 C1896 1.349 . S
C1895 C1897 1.327 . S
C1895 H1918 0.950 . S
C1896 C1895 1.349 . S
C1896 C1908 1.349 . S
C1897 C1895 1.327 . S
C1897 C1913 1.429 . S
C1897 H1919 0.950 . S
C1898 H1894 0.949 . S
C1898 C1906 1.574 . S
C1898 C1914 1.368 . S
H1899 C1907 0.950 . S
H1900 C1905 0.950 . S
H1901 C1906 0.949 . S
H1902 C1908 0.950 . S
H1903 C1909 0.950 . S
H1904 C1910 0.949 . S
C1905 H1900 0.950 . S
C1905 C1907 1.327 . S
C1905 C1911 1.429 1_455 S
C1906 C1898 1.574 . S
C1906 H1901 0.949 . S
C1906 C1912 1.368 . S
C1907 C1891 1.349 . S
C1907 H1899 0.950 . S
C1907 C1905 1.327 . S
C1908 C1896 1.349 . S
C1908 H1902 0.950 . S
C1908 C1909 1.327 . S
C1909 H1903 0.950 . S
C1909 C1908 1.327 . S
C1909 C1913 1.429 . S
C1910 C1893 1.574 . S
C1910 H1904 0.949 . S
C1910 C1914 1.368 . S
C1911 C1892 1.418 . S
C1911 C1905 1.429 1_655 S
C1911 C1912 1.523 . S
C1912 C1893 1.368 . S
C1912 C1906 1.368 . S
C1912 C1911 1.523 . S
C1913 C1897 1.429 . S
C1913 C1909 1.429 . S
C1913 C1914 1.523 . S
C1914 C1898 1.368 . S
C1914 C1910 1.368 . S
C1914 C1913 1.523 . S
H1915 C1890 0.950 . S
H1916 C1892 1.000 . S
H1917 C1893 0.949 . S
H1918 C1895 0.950 . S
H1919 C1897 0.950 . S
C1920 C1921 1.349 . S
C1920 C1922 1.327 . S
C1920 H1945 0.950 . S
C1921 C1920 1.349 . S
C1921 C1937 1.349 . S
C1922 C1920 1.327 . S
C1922 C1941 1.429 . S
C1922 H1946 0.950 . S
C1923 C1940 1.574 . S
C1923 C1942 1.368 . S
C1923 H1947 0.949 . S
H1924 C1928 0.949 . S
C1925 C1926 1.349 . S
C1925 C1927 1.327 . S
C1925 H1948 0.950 . S
C1926 C1925 1.349 . S
C1926 C1938 1.349 . S
C1927 C1925 1.327 . S
C1927 C1943 1.429 . S
C1927 H1949 0.950 . S
C1928 H1924 0.949 . S
C1928 C1936 1.574 . S
C1928 C1944 1.368 . S
H1929 C1937 0.950 . S
H1930 C1935 0.950 . S
H1931 C1936 0.949 . S
H1932 C1938 0.950 . S
H1933 C1939 0.950 . S
H1934 C1940 0.949 . S
C1935 H1930 0.950 . S
C1935 C1937 1.327 . S
C1935 C1941 1.429 . S
C1936 C1928 1.574 . S
C1936 H1931 0.949 . S
C1936 C1942 1.368 . S
C1937 C1921 1.349 . S
C1937 H1929 0.950 . S
C1937 C1935 1.327 . S
C1938 C1926 1.349 . S
C1938 H1932 0.950 . S
C1938 C1939 1.327 . S
C1939 H1933 0.950 . S
C1939 C1938 1.327 . S
C1939 C1943 1.429 . S
C1940 C1923 1.574 . S
C1940 H1934 0.949 . S
C1940 C1944 1.368 . S
C1941 C1922 1.429 . S
C1941 C1935 1.429 . S
C1941 C1942 1.523 . S
C1942 C1923 1.368 . S
C1942 C1936 1.368 . S
C1942 C1941 1.523 . S
C1943 C1927 1.429 . S
C1943 C1939 1.429 . S
C1943 C1944 1.523 . S
C1944 C1928 1.368 . S
C1944 C1940 1.368 . S
C1944 C1943 1.523 . S
H1945 C1920 0.950 . S
H1946 C1922 0.950 . S
H1947 C1923 0.949 . S
H1948 C1925 0.950 . S
H1949 C1927 0.950 . S
C1950 C1951 1.349 . S
C1950 C1952 1.327 . S
C1950 H1975 0.950 . S
C1951 C1950 1.349 . S
C1951 C1967 1.349 . S
C1952 C1950 1.327 . S
C1952 C1971 1.429 1_565 S
C1952 H1976 0.950 1_565 S
C1953 C1970 1.574 . S
C1953 C1972 1.368 . S
C1953 H1977 0.949 . S
H1954 C1958 0.949 . S
C1955 C1956 1.349 . S
C1955 C1957 1.327 . S
C1955 H1978 0.950 . S
C1956 C1955 1.349 . S
C1956 C1968 1.349 . S
C1957 C1955 1.327 . S
C1957 C1973 1.429 . S
C1957 H1979 0.950 . S
C1958 H1954 0.949 . S
C1958 C1966 1.574 . S
C1958 C1974 1.368 . S
H1959 C1967 0.950 . S
H1960 C1965 0.950 . S
H1961 C1966 0.949 . S
H1962 C1968 0.950 . S
H1963 C1969 0.950 . S
H1964 C1970 0.949 . S
C1965 H1960 0.950 . S
C1965 C1967 1.327 1_545 S
C1965 C1971 1.429 . S
C1966 C1958 1.574 . S
C1966 H1961 0.949 . S
C1966 C1972 1.368 . S
C1967 C1951 1.349 . S
C1967 H1959 0.950 . S
C1967 C1965 1.327 1_565 S
C1968 C1956 1.349 . S
C1968 H1962 0.950 . S
C1968 C1969 1.327 . S
C1969 H1963 0.950 . S
C1969 C1968 1.327 . S
C1969 C1973 1.429 . S
C1970 C1953 1.574 . S
C1970 H1964 0.949 . S
C1970 C1974 1.368 . S
C1971 C1952 1.429 1_545 S
C1971 C1965 1.429 . S
C1971 C1972 1.523 . S
C1972 C1953 1.368 . S
C1972 C1966 1.368 . S
C1972 C1971 1.523 . S
C1973 C1957 1.429 . S
C1973 C1969 1.429 . S
C1973 C1974 1.523 . S
C1974 C1958 1.368 . S
C1974 C1970 1.368 . S
C1974 C1973 1.523 . S
H1975 C1950 0.950 . S
H1976 C1952 0.950 1_545 S
H1977 C1953 0.949 . S
H1978 C1955 0.950 . S
H1979 C1957 0.950 . S
C1980 C1981 1.349 . S
C1980 C1982 1.327 . S
C1980 H2005 0.950 . S
C1981 C1980 1.349 . S
C1981 C1997 1.349 . S
C1982 C1980 1.327 . S
C1982 C2001 1.429 . S
C1982 H2006 0.950 . S
C1983 C2000 1.574 . S
C1983 C2002 1.368 . S
C1983 H2007 0.949 . S
H1984 C1988 0.949 . S
C1985 C1986 1.349 . S
C1985 C1987 1.327 . S
C1985 H2008 0.950 . S
C1986 C1985 1.349 . S
C1986 C1998 1.349 . S
C1987 C1985 1.327 . S
C1987 C2003 1.429 . S
C1987 H2009 0.950 . S
C1988 H1984 0.949 . S
C1988 C1996 1.574 . S
C1988 C2004 1.368 . S
H1989 C1997 0.950 . S
H1990 C1995 0.950 . S
H1991 C1996 0.949 . S
H1992 C1998 0.950 . S
H1993 C1999 0.950 . S
H1994 C2000 0.949 . S
C1995 H1990 0.950 . S
C1995 C1997 1.327 . S
C1995 C2001 1.429 . S
C1996 C1988 1.574 . S
C1996 H1991 0.949 . S
C1996 C2002 1.368 . S
C1997 C1981 1.349 . S
C1997 H1989 0.950 . S
C1997 C1995 1.327 . S
C1998 C1986 1.349 . S
C1998 H1992 0.950 . S
C1998 C1999 1.327 . S
C1999 H1993 0.950 . S
C1999 C1998 1.327 . S
C1999 C2003 1.429 . S
C2000 C1983 1.574 . S
C2000 H1994 0.949 . S
C2000 C2004 1.368 . S
C2001 C1982 1.429 . S
C2001 C1995 1.429 . S
C2001 C2002 1.523 . S
C2002 C1983 1.368 . S
C2002 C1996 1.368 . S
C2002 C2001 1.523 . S
C2003 C1987 1.429 . S
C2003 C1999 1.429 . S
C2003 C2004 1.523 . S
C2004 C1988 1.368 . S
C2004 C2000 1.368 . S
C2004 C2003 1.523 . S
H2005 C1980 0.950 . S
H2006 C1982 0.950 . S
H2007 C1983 0.949 . S
H2008 C1985 0.950 . S
H2009 C1987 0.950 . S
C2010 C2011 1.349 . S
C2010 C2012 1.327 . S
C2010 H2035 0.950 . S
C2011 C2010 1.349 . S
C2011 C2027 1.349 . S
C2012 C2010 1.327 . S
C2012 C2031 1.429 . S
C2012 H2036 0.950 . S
C2013 C2030 1.574 . S
C2013 C2032 1.368 . S
C2013 H2037 0.949 . S
H2014 C2018 0.949 . S
C2015 C2016 1.349 . S
C2015 C2017 1.327 . S
C2015 H2038 0.950 . S
C2016 C2015 1.349 . S
C2016 C2028 1.349 . S
C2017 C2015 1.327 . S
C2017 C2033 1.429 . S
C2017 H2039 0.950 . S
C2018 H2014 0.949 . S
C2018 C2026 1.574 . S
C2018 C2034 1.368 . S
H2019 C2027 0.950 . S
H2020 C2025 0.950 . S
H2021 C2026 0.949 . S
H2022 C2028 0.950 . S
H2023 C2029 0.950 . S
H2024 C2030 0.949 . S
C2025 H2020 0.950 . S
C2025 C2027 1.327 . S
C2025 C2031 1.429 . S
C2026 C2018 1.574 . S
C2026 H2021 0.949 . S
C2026 C2032 1.368 . S
C2027 C2011 1.349 . S
C2027 H2019 0.950 . S
C2027 C2025 1.327 . S
C2028 C2016 1.349 . S
C2028 H2022 0.950 . S
C2028 C2029 1.327 . S
C2029 H2023 0.950 . S
C2029 C2028 1.327 . S
C2029 C2033 1.429 . S
C2030 C2013 1.574 . S
C2030 H2024 0.949 . S
C2030 C2034 1.368 . S
C2031 C2012 1.429 . S
C2031 C2025 1.429 . S
C2031 C2032 1.523 . S
C2032 C2013 1.368 . S
C2032 C2026 1.368 . S
C2032 C2031 1.523 . S
C2033 C2017 1.429 . S
C2033 C2029 1.429 . S
C2033 C2034 1.523 . S
C2034 C2018 1.368 . S
C2034 C2030 1.368 . S
C2034 C2033 1.523 . S
H2035 C2010 0.950 . S
H2036 C2012 0.950 . S
H2037 C2013 0.949 . S
H2038 C2015 0.950 . S
H2039 C2017 0.950 . S
C2040 C2041 1.349 . S
C2040 C2042 1.327 . S
C2040 H2065 0.950 . S
C2041 C2040 1.349 . S
C2041 C2057 1.349 . S
C2042 C2040 1.327 . S
C2042 C2061 1.429 . S
C2042 H2066 0.950 . S
C2043 C2060 1.574 . S
C2043 C2062 1.368 . S
C2043 H2067 0.949 . S
H2044 C2048 0.949 . S
C2045 C2046 1.349 . S
C2045 C2047 1.327 . S
C2045 H2068 0.950 . S
C2046 C2045 1.349 . S
C2046 C2058 1.349 . S
C2047 C2045 1.327 . S
C2047 C2063 1.429 . S
C2047 H2069 0.950 . S
C2048 H2044 0.949 . S
C2048 C2056 1.574 . S
C2048 C2064 1.368 . S
H2049 C2057 0.950 . S
H2050 C2055 0.950 . S
H2051 C2056 0.949 . S
H2052 C2058 0.950 . S
H2053 C2059 0.950 . S
H2054 C2060 0.949 . S
C2055 H2050 0.950 . S
C2055 C2057 1.327 . S
C2055 C2061 1.429 . S
C2056 C2048 1.574 . S
C2056 H2051 0.949 . S
C2056 C2062 1.368 . S
C2057 C2041 1.349 . S
C2057 H2049 0.950 . S
C2057 C2055 1.327 . S
C2058 C2046 1.349 . S
C2058 H2052 0.950 . S
C2058 C2059 1.327 . S
C2059 H2053 0.950 . S
C2059 C2058 1.327 . S
C2059 C2063 1.429 . S
C2060 C2043 1.574 . S
C2060 H2054 0.949 . S
C2060 C2064 1.368 . S
C2061 C2042 1.429 . S
C2061 C2055 1.429 . S
C2061 C2062 1.523 . S
C2062 C2043 1.368 . S
C2062 C2056 1.368 . S
C2062 C2061 1.523 . S
C2063 C2047 1.429 . S
C2063 C2059 1.429 . S
C2063 C2064 1.523 . S
C2064 C2048 1.368 . S
C2064 C2060 1.368 . S
C2064 C2063 1.523 . S
H2065 C2040 0.950 . S
H2066 C2042 0.950 . S
H2067 C2043 0.949 . S
H2068 C2045 0.950 . S
H2069 C2047 0.950 . S
C2070 C2071 1.349 . S
C2070 C2072 1.327 . S
C2070 H2095 0.950 . S
C2071 C2070 1.349 . S
C2071 C2087 1.349 . S
C2072 C2070 1.327 . S
C2072 C2091 1.429 . S
C2072 H2096 0.950 . S
C2073 C2090 1.574 . S
C2073 C2092 1.368 . S
C2073 H2097 0.949 . S
H2074 C2078 0.949 . S
C2075 C2076 1.349 . S
C2075 C2077 1.327 . S
C2075 H2098 0.950 . S
C2076 C2075 1.349 . S
C2076 C2088 1.349 . S
C2077 C2075 1.327 . S
C2077 C2093 1.429 . S
C2077 H2099 0.950 . S
C2078 H2074 0.949 . S
C2078 C2086 1.574 . S
C2078 C2094 1.368 . S
H2079 C2087 0.950 . S
H2080 C2085 0.950 . S
H2081 C2086 0.949 . S
H2082 C2088 0.950 . S
H2083 C2089 0.950 . S
H2084 C2090 0.949 . S
C2085 H2080 0.950 . S
C2085 C2087 1.327 . S
C2085 C2091 1.429 . S
C2086 C2078 1.574 . S
C2086 H2081 0.949 . S
C2086 C2092 1.368 . S
C2087 C2071 1.349 . S
C2087 H2079 0.950 . S
C2087 C2085 1.327 . S
C2088 C2076 1.349 . S
C2088 H2082 0.950 . S
C2088 C2089 1.327 . S
C2089 H2083 0.950 . S
C2089 C2088 1.327 . S
C2089 C2093 1.429 . S
C2090 C2073 1.574 . S
C2090 H2084 0.949 . S
C2090 C2094 1.368 . S
C2091 C2072 1.429 . S
C2091 C2085 1.429 . S
C2091 C2092 1.523 . S
C2092 C2073 1.368 . S
C2092 C2086 1.368 . S
C2092 C2091 1.523 . S
C2093 C2077 1.429 . S
C2093 C2089 1.429 . S
C2093 C2094 1.523 . S
C2094 C2078 1.368 . S
C2094 C2090 1.368 . S
C2094 C2093 1.523 . S
H2095 C2070 0.950 . S
H2096 C2072 0.950 . S
H2097 C2073 0.949 . S
H2098 C2075 0.950 . S
H2099 C2077 0.950 . S
C2100 C2101 1.349 . S
C2100 C2102 1.327 . S
C2100 H2125 0.950 . S
C2101 C2100 1.349 . S
C2101 C2117 1.349 . S
C2102 C2100 1.327 . S
C2102 C2121 1.429 . S
C2102 H2126 0.950 . S
C2103 C2120 1.574 . S
C2103 C2122 1.368 . S
C2103 H2127 0.949 . S
H2104 C2108 0.949 . S
C2105 C2106 1.349 . S
C2105 C2107 1.327 . S
C2105 H2128 0.950 . S
C2106 C2105 1.349 . S
C2106 C2118 1.349 . S
C2107 C2105 1.327 . S
C2107 C2123 1.429 . S
C2107 H2129 0.950 . S
C2108 H2104 0.949 . S
C2108 C2116 1.574 . S
C2108 C2124 1.368 . S
H2109 C2117 0.950 . S
H2110 C2115 0.950 . S
H2111 C2116 0.949 . S
H2112 C2118 0.950 . S
H2113 C2119 0.950 . S
H2114 C2120 0.949 . S
C2115 H2110 0.950 . S
C2115 C2117 1.327 . S
C2115 C2121 1.429 . S
C2116 C2108 1.574 . S
C2116 H2111 0.949 . S
C2116 C2122 1.368 . S
C2117 C2101 1.349 . S
C2117 H2109 0.950 . S
C2117 C2115 1.327 . S
C2118 C2106 1.349 . S
C2118 H2112 0.950 . S
C2118 C2119 1.327 . S
C2119 H2113 0.950 . S
C2119 C2118 1.327 . S
C2119 C2123 1.429 . S
C2120 C2103 1.574 . S
C2120 H2114 0.949 . S
C2120 C2124 1.368 . S
C2121 C2102 1.429 . S
C2121 C2115 1.429 . S
C2121 C2122 1.523 . S
C2122 C2103 1.368 . S
C2122 C2116 1.368 . S
C2122 C2121 1.523 . S
C2123 C2107 1.429 . S
C2123 C2119 1.429 . S
C2123 C2124 1.523 . S
C2124 C2108 1.368 . S
C2124 C2120 1.368 . S
C2124 C2123 1.523 . S
H2125 C2100 0.950 . S
H2126 C2102 0.950 . S
H2127 C2103 0.949 . S
H2128 C2105 0.950 . S
H2129 C2107 0.950 . S
C2130 C2131 1.349 . S
C2130 C2132 1.327 . S
C2130 H2155 0.950 . S
C2131 C2130 1.349 . S
C2131 C2147 1.349 . S
C2132 C2130 1.327 . S
C2132 C2151 1.429 . S
C2132 H2156 0.950 . S
C2133 C2150 1.574 . S
C2133 C2152 1.368 . S
C2133 H2157 0.949 . S
H2134 C2138 0.949 . S
C2135 C2136 1.349 . S
C2135 C2137 1.327 . S
C2135 H2158 0.950 . S
C2136 C2135 1.349 . S
C2136 C2148 1.349 . S
C2137 C2135 1.327 . S
C2137 C2153 1.429 . S
C2137 H2159 0.950 . S
C2138 H2134 0.949 . S
C2138 C2146 1.574 . S
C2138 C2154 1.368 . S
H2139 C2147 0.950 . S
H2140 C2145 0.950 . S
H2141 C2146 0.949 . S
H2142 C2148 0.950 . S
H2143 C2149 0.950 . S
H2144 C2150 0.949 . S
C2145 H2140 0.950 . S
C2145 C2147 1.327 . S
C2145 C2151 1.429 . S
C2146 C2138 1.574 . S
C2146 H2141 0.949 . S
C2146 C2152 1.368 . S
C2147 C2131 1.349 . S
C2147 H2139 0.950 . S
C2147 C2145 1.327 . S
C2148 C2136 1.349 . S
C2148 H2142 0.950 . S
C2148 C2149 1.327 . S
C2149 H2143 0.950 . S
C2149 C2148 1.327 . S
C2149 C2153 1.429 . S
C2150 C2133 1.574 . S
C2150 H2144 0.949 . S
C2150 C2154 1.368 . S
C2151 C2132 1.429 . S
C2151 C2145 1.429 . S
C2151 C2152 1.523 . S
C2152 C2133 1.368 . S
C2152 C2146 1.368 . S
C2152 C2151 1.523 . S
C2153 C2137 1.429 . S
C2153 C2149 1.429 . S
C2153 C2154 1.523 . S
C2154 C2138 1.368 . S
C2154 C2150 1.368 . S
C2154 C2153 1.523 . S
H2155 C2130 0.950 . S
H2156 C2132 0.950 . S
H2157 C2133 0.949 . S
H2158 C2135 0.950 . S
H2159 C2137 0.950 . S
C2160 C2161 1.349 . S
C2160 C2162 1.327 . S
C2160 H2185 0.950 . S
C2161 C2160 1.349 . S
C2161 C2177 1.349 . S
C2162 C2160 1.327 . S
C2162 C2181 1.429 . S
C2162 H2186 0.950 . S
C2163 C2180 1.574 . S
C2163 C2182 1.368 . S
C2163 H2187 0.949 . S
H2164 C2168 0.949 . S
C2165 C2166 1.349 . S
C2165 C2167 1.327 . S
C2165 H2188 0.950 . S
C2166 C2165 1.349 . S
C2166 C2178 1.349 . S
C2167 C2165 1.327 . S
C2167 C2183 1.429 . S
C2167 H2189 0.950 . S
C2168 H2164 0.949 . S
C2168 C2176 1.574 . S
C2168 C2184 1.368 . S
H2169 C2177 0.950 . S
H2170 C2175 0.950 . S
H2171 C2176 0.949 . S
H2172 C2178 0.950 . S
H2173 C2179 0.950 . S
H2174 C2180 0.949 . S
C2175 H2170 0.950 . S
C2175 C2177 1.327 . S
C2175 C2181 1.429 . S
C2176 C2168 1.574 . S
C2176 H2171 0.949 . S
C2176 C2182 1.368 . S
C2177 C2161 1.349 . S
C2177 H2169 0.950 . S
C2177 C2175 1.327 . S
C2178 C2166 1.349 . S
C2178 H2172 0.950 . S
C2178 C2179 1.327 . S
C2179 H2173 0.950 . S
C2179 C2178 1.327 . S
C2179 C2183 1.429 . S
C2180 C2163 1.574 . S
C2180 H2174 0.949 . S
C2180 C2184 1.368 . S
C2181 C2162 1.429 . S
C2181 C2175 1.429 . S
C2181 C2182 1.523 . S
C2182 C2163 1.368 . S
C2182 C2176 1.368 . S
C2182 C2181 1.523 . S
C2183 C2167 1.429 . S
C2183 C2179 1.429 . S
C2183 C2184 1.523 . S
C2184 C2168 1.368 . S
C2184 C2180 1.368 . S
C2184 C2183 1.523 . S
H2185 C2160 0.950 . S
H2186 C2162 0.950 . S
H2187 C2163 0.949 . S
H2188 C2165 0.950 . S
H2189 C2167 0.950 . S
C2190 C2191 1.349 . S
C2190 C2192 1.327 . S
C2190 H2215 0.950 . S
C2191 C2190 1.349 . S
C2191 C2207 1.349 . S
C2192 C2190 1.327 . S
C2192 C2211 1.429 . S
C2192 H2216 0.950 . S
C2193 C2210 1.574 . S
C2193 C2212 1.368 . S
C2193 H2217 0.949 . S
H2194 C2198 0.949 . S
C2195 C2196 1.349 . S
C2195 C2197 1.327 . S
C2195 H2218 0.950 . S
C2196 C2195 1.349 . S
C2196 C2208 1.349 . S
C2197 C2195 1.327 . S
C2197 C2213 1.429 . S
C2197 H2219 0.950 . S
C2198 H2194 0.949 . S
C2198 C2206 1.574 . S
C2198 C2214 1.368 . S
H2199 C2207 0.950 . S
H2200 C2205 0.950 . S
H2201 C2206 0.949 . S
H2202 C2208 0.950 . S
H2203 C2209 0.950 . S
H2204 C2210 0.949 . S
C2205 H2200 0.950 . S
C2205 C2207 1.327 . S
C2205 C2211 1.429 . S
C2206 C2198 1.574 . S
C2206 H2201 0.949 . S
C2206 C2212 1.368 . S
C2207 C2191 1.349 . S
C2207 H2199 0.950 . S
C2207 C2205 1.327 . S
C2208 C2196 1.349 . S
C2208 H2202 0.950 . S
C2208 C2209 1.327 . S
C2209 H2203 0.950 . S
C2209 C2208 1.327 . S
C2209 C2213 1.429 . S
C2210 C2193 1.574 . S
C2210 H2204 0.949 . S
C2210 C2214 1.368 . S
C2211 C2192 1.429 . S
C2211 C2205 1.429 . S
C2211 C2212 1.523 . S
C2212 C2193 1.368 . S
C2212 C2206 1.368 . S
C2212 C2211 1.523 . S
C2213 C2197 1.429 . S
C2213 C2209 1.429 . S
C2213 C2214 1.523 . S
C2214 C2198 1.368 . S
C2214 C2210 1.368 . S
C2214 C2213 1.523 . S
H2215 C2190 0.950 . S
H2216 C2192 0.950 . S
H2217 C2193 0.949 . S
H2218 C2195 0.950 . S
H2219 C2197 0.950 . S
C2220 C2221 1.349 . S
C2220 C2222 1.327 . S
C2220 H2245 0.950 . S
C2221 C2220 1.349 . S
C2221 C2237 1.349 . S
C2222 C2220 1.327 . S
C2222 C2241 1.429 . S
C2222 H2246 0.950 . S
C2223 C2240 1.574 . S
C2223 C2242 1.368 . S
C2223 H2247 0.949 . S
H2224 C2228 0.949 . S
C2225 C2226 1.349 . S
C2225 C2227 1.327 . S
C2225 H2248 0.950 . S
C2226 C2225 1.349 . S
C2226 C2238 1.349 . S
C2227 C2225 1.327 . S
C2227 C2243 1.429 . S
C2227 H2249 0.950 . S
C2228 H2224 0.949 . S
C2228 C2236 1.574 . S
C2228 C2244 1.368 . S
H2229 C2237 0.950 . S
H2230 C2235 0.950 . S
H2231 C2236 0.949 . S
H2232 C2238 0.950 . S
H2233 C2239 0.950 . S
H2234 C2240 0.949 . S
C2235 H2230 0.950 . S
C2235 C2237 1.327 . S
C2235 C2241 1.429 . S
C2236 C2228 1.574 . S
C2236 H2231 0.949 . S
C2236 C2242 1.368 . S
C2237 C2221 1.349 . S
C2237 H2229 0.950 . S
C2237 C2235 1.327 . S
C2238 C2226 1.349 . S
C2238 H2232 0.950 . S
C2238 C2239 1.327 . S
C2239 H2233 0.950 . S
C2239 C2238 1.327 . S
C2239 C2243 1.429 . S
C2240 C2223 1.574 . S
C2240 H2234 0.949 . S
C2240 C2244 1.368 . S
C2241 C2222 1.429 . S
C2241 C2235 1.429 . S
C2241 C2242 1.523 . S
C2242 C2223 1.368 . S
C2242 C2236 1.368 . S
C2242 C2241 1.523 . S
C2243 C2227 1.429 . S
C2243 C2239 1.429 . S
C2243 C2244 1.523 . S
C2244 C2228 1.368 . S
C2244 C2240 1.368 . S
C2244 C2243 1.523 . S
H2245 C2220 0.950 . S
H2246 C2222 0.950 . S
H2247 C2223 0.949 . S
H2248 C2225 0.950 . S
H2249 C2227 0.950 . S
C2250 C2251 1.349 . S
C2250 C2252 1.327 . S
C2250 H2275 0.950 . S
C2251 C2250 1.349 . S
C2251 C2267 1.349 . S
C2252 C2250 1.327 . S
C2252 C2271 1.429 . S
C2252 H2276 0.950 . S
C2253 C2270 1.574 . S
C2253 C2272 1.368 . S
C2253 H2277 0.949 . S
H2254 C2258 0.949 . S
C2255 C2256 1.349 . S
C2255 C2257 1.327 . S
C2255 H2278 0.950 . S
C2256 C2255 1.349 . S
C2256 C2268 1.349 . S
C2257 C2255 1.327 . S
C2257 C2273 1.429 . S
C2257 H2279 0.950 . S
C2258 H2254 0.949 . S
C2258 C2266 1.574 . S
C2258 C2274 1.368 . S
H2259 C2267 0.950 . S
H2260 C2265 0.950 . S
H2261 C2266 0.949 . S
H2262 C2268 0.950 . S
H2263 C2269 0.950 . S
H2264 C2270 0.949 . S
C2265 H2260 0.950 . S
C2265 C2267 1.327 . S
C2265 C2271 1.429 . S
C2266 C2258 1.574 . S
C2266 H2261 0.949 . S
C2266 C2272 1.368 . S
C2267 C2251 1.349 . S
C2267 H2259 0.950 . S
C2267 C2265 1.327 . S
C2268 C2256 1.349 . S
C2268 H2262 0.950 . S
C2268 C2269 1.327 . S
C2269 H2263 0.950 . S
C2269 C2268 1.327 . S
C2269 C2273 1.429 . S
C2270 C2253 1.574 . S
C2270 H2264 0.949 . S
C2270 C2274 1.368 . S
C2271 C2252 1.429 . S
C2271 C2265 1.429 . S
C2271 C2272 1.523 . S
C2272 C2253 1.368 . S
C2272 C2266 1.368 . S
C2272 C2271 1.523 . S
C2273 C2257 1.429 . S
C2273 C2269 1.429 . S
C2273 C2274 1.523 . S
C2274 C2258 1.368 . S
C2274 C2270 1.368 . S
C2274 C2273 1.523 . S
H2275 C2250 0.950 . S
H2276 C2252 0.950 . S
H2277 C2253 0.949 . S
H2278 C2255 0.950 . S
H2279 C2257 0.950 . S
C2280 C2281 1.349 . S
C2280 C2282 1.327 . S
C2280 H2305 0.950 . S
C2281 C2280 1.349 . S
C2281 C2297 1.349 . S
C2282 C2280 1.327 . S
C2282 C2301 1.429 . S
C2282 H2306 0.950 . S
C2283 C2300 1.574 . S
C2283 C2302 1.368 . S
C2283 H2307 0.949 . S
H2284 C2288 0.949 . S
C2285 C2286 1.349 . S
C2285 C2287 1.327 . S
C2285 H2308 0.950 . S
C2286 C2285 1.349 . S
C2286 C2298 1.349 . S
C2287 C2285 1.327 . S
C2287 C2303 1.429 . S
C2287 H2309 0.950 . S
C2288 H2284 0.949 . S
C2288 C2296 1.574 . S
C2288 C2304 1.368 . S
H2289 C2297 0.950 . S
H2290 C2295 0.950 . S
H2291 C2296 0.949 . S
H2292 C2298 0.950 . S
H2293 C2299 0.950 . S
H2294 C2300 0.949 . S
C2295 H2290 0.950 . S
C2295 C2297 1.327 . S
C2295 C2301 1.429 . S
C2296 C2288 1.574 . S
C2296 H2291 0.949 . S
C2296 C2302 1.368 . S
C2297 C2281 1.349 . S
C2297 H2289 0.950 . S
C2297 C2295 1.327 . S
C2298 C2286 1.349 . S
C2298 H2292 0.950 . S
C2298 C2299 1.327 . S
C2299 H2293 0.950 . S
C2299 C2298 1.327 . S
C2299 C2303 1.429 . S
C2300 C2283 1.574 . S
C2300 H2294 0.949 . S
C2300 C2304 1.368 . S
C2301 C2282 1.429 . S
C2301 C2295 1.429 . S
C2301 C2302 1.523 . S
C2302 C2283 1.368 . S
C2302 C2296 1.368 . S
C2302 C2301 1.523 . S
C2303 C2287 1.429 . S
C2303 C2299 1.429 . S
C2303 C2304 1.523 . S
C2304 C2288 1.368 . S
C2304 C2300 1.368 . S
C2304 C2303 1.523 . S
H2305 C2280 0.950 . S
H2306 C2282 0.950 . S
H2307 C2283 0.949 . S
H2308 C2285 0.950 . S
H2309 C2287 0.950 . S
C2310 C2311 1.349 . S
C2310 C2312 1.327 . S
C2310 H2335 0.950 . S
C2311 C2310 1.349 . S
C2311 C2327 1.349 . S
C2312 C2310 1.327 . S
C2312 C2331 1.429 . S
C2312 H2336 0.950 . S
C2313 C2330 1.574 . S
C2313 C2332 1.368 . S
C2313 H2337 0.949 . S
H2314 C2318 0.949 . S
C2315 C2316 1.349 . S
C2315 C2317 1.327 . S
C2315 H2338 0.950 . S
C2316 C2315 1.349 . S
C2316 C2328 1.349 . S
C2317 C2315 1.327 . S
C2317 C2333 1.429 . S
C2317 H2339 0.950 . S
C2318 H2314 0.949 . S
C2318 C2326 1.574 . S
C2318 C2334 1.368 . S
H2319 C2327 0.950 . S
H2320 C2325 0.950 . S
H2321 C2326 0.949 . S
H2322 C2328 0.950 . S
H2323 C2329 0.950 . S
H2324 C2330 0.949 . S
C2325 H2320 0.950 . S
C2325 C2327 1.327 . S
C2325 C2331 1.429 . S
C2326 C2318 1.574 . S
C2326 H2321 0.949 . S
C2326 C2332 1.368 . S
C2327 C2311 1.349 . S
C2327 H2319 0.950 . S
C2327 C2325 1.327 . S
C2328 C2316 1.349 . S
C2328 H2322 0.950 . S
C2328 C2329 1.327 . S
C2329 H2323 0.950 . S
C2329 C2328 1.327 . S
C2329 C2333 1.429 . S
C2330 C2313 1.574 . S
C2330 H2324 0.949 . S
C2330 C2334 1.368 . S
C2331 C2312 1.429 . S
C2331 C2325 1.429 . S
C2331 C2332 1.523 . S
C2332 C2313 1.368 . S
C2332 C2326 1.368 . S
C2332 C2331 1.523 . S
C2333 C2317 1.429 . S
C2333 C2329 1.429 . S
C2333 C2334 1.523 . S
C2334 C2318 1.368 . S
C2334 C2330 1.368 . S
C2334 C2333 1.523 . S
H2335 C2310 0.950 . S
H2336 C2312 0.950 . S
H2337 C2313 0.949 . S
H2338 C2315 0.950 . S
H2339 C2317 0.950 . S
C2340 C2341 1.349 . S
C2340 C2342 1.327 . S
C2340 H2365 0.950 . S
C2341 C2340 1.349 . S
C2341 C2357 1.349 . S
C2342 C2340 1.327 . S
C2342 C2361 1.429 . S
C2342 H2366 0.950 . S
C2343 C2360 1.574 . S
C2343 C2362 1.368 . S
C2343 H2367 0.949 . S
H2344 C2348 0.949 . S
C2345 C2346 1.349 . S
C2345 C2347 1.327 . S
C2345 H2368 0.950 . S
C2346 C2345 1.349 . S
C2346 C2358 1.349 . S
C2347 C2345 1.327 . S
C2347 C2363 1.429 . S
C2347 H2369 0.950 . S
C2348 H2344 0.949 . S
C2348 C2356 1.574 . S
C2348 C2364 1.368 . S
H2349 C2357 0.950 . S
H2350 C2355 0.950 . S
H2351 C2356 0.949 . S
H2352 C2358 0.950 . S
H2353 C2359 0.950 . S
H2354 C2360 0.949 . S
C2355 H2350 0.950 . S
C2355 C2357 1.327 . S
C2355 C2361 1.429 . S
C2356 C2348 1.574 . S
C2356 H2351 0.949 . S
C2356 C2362 1.368 . S
C2357 C2341 1.349 . S
C2357 H2349 0.950 . S
C2357 C2355 1.327 . S
C2358 C2346 1.349 . S
C2358 H2352 0.950 . S
C2358 C2359 1.327 . S
C2359 H2353 0.950 . S
C2359 C2358 1.327 . S
C2359 C2363 1.429 . S
C2360 C2343 1.574 . S
C2360 H2354 0.949 . S
C2360 C2364 1.368 . S
C2361 C2342 1.429 . S
C2361 C2355 1.429 . S
C2361 C2362 1.523 . S
C2362 C2343 1.368 . S
C2362 C2356 1.368 . S
C2362 C2361 1.523 . S
C2363 C2347 1.429 . S
C2363 C2359 1.429 . S
C2363 C2364 1.523 . S
C2364 C2348 1.368 . S
C2364 C2360 1.368 . S
C2364 C2363 1.523 . S
H2365 C2340 0.950 . S
H2366 C2342 0.950 . S
H2367 C2343 0.949 . S
H2368 C2345 0.950 . S
H2369 C2347 0.950 . S
C2370 C2371 1.349 . S
C2370 C2372 1.327 . S
C2370 H2395 0.950 . S
C2371 C2370 1.349 . S
C2371 C2387 1.349 . S
C2372 C2370 1.327 . S
C2372 C2391 1.429 . S
C2372 H2396 0.950 . S
C2373 C2390 1.574 . S
C2373 C2392 1.368 . S
C2373 H2397 0.949 . S
H2374 C2378 0.949 . S
C2375 C2376 1.349 . S
C2375 C2377 1.327 . S
C2375 H2398 0.950 . S
C2376 C2375 1.349 . S
C2376 C2388 1.349 . S
C2377 C2375 1.327 . S
C2377 C2393 1.429 . S
C2377 H2399 0.950 . S
C2378 H2374 0.949 . S
C2378 C2386 1.574 . S
C2378 C2394 1.368 . S
H2379 C2387 0.950 . S
H2380 C2385 0.950 . S
H2381 C2386 0.949 . S
H2382 C2388 0.950 . S
H2383 C2389 0.950 . S
H2384 C2390 0.949 . S
C2385 H2380 0.950 . S
C2385 C2387 1.327 . S
C2385 C2391 1.429 . S
C2386 C2378 1.574 . S
C2386 H2381 0.949 . S
C2386 C2392 1.368 . S
C2387 C2371 1.349 . S
C2387 H2379 0.950 . S
C2387 C2385 1.327 . S
C2388 C2376 1.349 . S
C2388 H2382 0.950 . S
C2388 C2389 1.327 . S
C2389 H2383 0.950 . S
C2389 C2388 1.327 . S
C2389 C2393 1.429 . S
C2390 C2373 1.574 . S
C2390 H2384 0.949 . S
C2390 C2394 1.368 . S
C2391 C2372 1.429 . S
C2391 C2385 1.429 . S
C2391 C2392 1.523 . S
C2392 C2373 1.368 . S
C2392 C2386 1.368 . S
C2392 C2391 1.523 . S
C2393 C2377 1.429 . S
C2393 C2389 1.429 . S
C2393 C2394 1.523 . S
C2394 C2378 1.368 . S
C2394 C2390 1.368 . S
C2394 C2393 1.523 . S
H2395 C2370 0.950 . S
H2396 C2372 0.950 . S
H2397 C2373 0.949 . S
H2398 C2375 0.950 . S
H2399 C2377 0.950 . S
C2400 C2401 1.349 . S
C2400 C2402 1.327 . S
C2400 H2425 0.950 . S
C2401 C2400 1.349 . S
C2401 C2417 1.349 . S
C2402 C2400 1.327 . S
C2402 C2421 1.429 . S
C2402 H2426 0.950 . S
C2403 C2420 1.574 . S
C2403 C2422 1.368 . S
C2403 H2427 0.949 . S
H2404 C2408 0.949 . S
C2405 C2406 1.349 . S
C2405 C2407 1.327 . S
C2405 H2428 0.950 . S
C2406 C2405 1.349 . S
C2406 C2418 1.349 . S
C2407 C2405 1.327 . S
C2407 C2423 1.429 . S
C2407 H2429 0.950 . S
C2408 H2404 0.949 . S
C2408 C2416 1.574 . S
C2408 C2424 1.368 . S
H2409 C2417 0.950 . S
H2410 C2415 0.950 . S
H2411 C2416 0.949 . S
H2412 C2418 0.950 . S
H2413 C2419 0.950 . S
H2414 C2420 0.949 . S
C2415 H2410 0.950 . S
C2415 C2417 1.327 . S
C2415 C2421 1.429 . S
C2416 C2408 1.574 . S
C2416 H2411 0.949 . S
C2416 C2422 1.368 . S
C2417 C2401 1.349 . S
C2417 H2409 0.950 . S
C2417 C2415 1.327 . S
C2418 C2406 1.349 . S
C2418 H2412 0.950 . S
C2418 C2419 1.327 . S
C2419 H2413 0.950 . S
C2419 C2418 1.327 . S
C2419 C2423 1.429 . S
C2420 C2403 1.574 . S
C2420 H2414 0.949 . S
C2420 C2424 1.368 . S
C2421 C2402 1.429 . S
C2421 C2415 1.429 . S
C2421 C2422 1.523 . S
C2422 C2403 1.368 . S
C2422 C2416 1.368 . S
C2422 C2421 1.523 . S
C2423 C2407 1.429 . S
C2423 C2419 1.429 . S
C2423 C2424 1.523 . S
C2424 C2408 1.368 . S
C2424 C2420 1.368 . S
C2424 C2423 1.523 . S
H2425 C2400 0.950 . S
H2426 C2402 0.950 . S
H2427 C2403 0.949 . S
H2428 C2405 0.950 . S
H2429 C2407 0.950 . S
C2430 C2431 1.349 . S
C2430 C2432 1.327 . S
C2430 H2455 0.950 . S
C2431 C2430 1.349 . S
C2431 C2447 1.349 . S
C2432 C2430 1.327 . S
C2432 C2451 1.429 . S
C2432 H2456 0.950 . S
C2433 C2450 1.574 . S
C2433 C2452 1.368 . S
C2433 H2457 0.949 . S
H2434 C2438 0.949 . S
C2435 C2436 1.349 . S
C2435 C2437 1.327 . S
C2435 H2458 0.950 . S
C2436 C2435 1.349 . S
C2436 C2448 1.349 . S
C2437 C2435 1.327 . S
C2437 C2453 1.429 . S
C2437 H2459 0.950 . S
C2438 H2434 0.949 . S
C2438 C2446 1.574 . S
C2438 C2454 1.368 . S
H2439 C2447 0.950 . S
H2440 C2445 0.950 . S
H2441 C2446 0.949 . S
H2442 C2448 0.950 . S
H2443 C2449 0.950 . S
H2444 C2450 0.949 . S
C2445 H2440 0.950 . S
C2445 C2447 1.327 . S
C2445 C2451 1.429 . S
C2446 C2438 1.574 . S
C2446 H2441 0.949 . S
C2446 C2452 1.368 . S
C2447 C2431 1.349 . S
C2447 H2439 0.950 . S
C2447 C2445 1.327 . S
C2448 C2436 1.349 . S
C2448 H2442 0.950 . S
C2448 C2449 1.327 . S
C2449 H2443 0.950 . S
C2449 C2448 1.327 . S
C2449 C2453 1.429 . S
C2450 C2433 1.574 . S
C2450 H2444 0.949 . S
C2450 C2454 1.368 . S
C2451 C2432 1.429 . S
C2451 C2445 1.429 . S
C2451 C2452 1.523 . S
C2452 C2433 1.368 . S
C2452 C2446 1.368 . S
C2452 C2451 1.523 . S
C2453 C2437 1.429 . S
C2453 C2449 1.429 . S
C2453 C2454 1.523 . S
C2454 C2438 1.368 . S
C2454 C2450 1.368 . S
C2454 C2453 1.523 . S
H2455 C2430 0.950 . S
H2456 C2432 0.950 . S
H2457 C2433 0.949 . S
H2458 C2435 0.950 . S
H2459 C2437 0.950 . S
C2460 C2461 1.349 . S
C2460 C2462 1.327 . S
C2460 H2485 0.950 . S
C2461 C2460 1.349 . S
C2461 C2477 1.349 . S
C2462 C2460 1.327 . S
C2462 C2481 1.429 . S
C2462 H2486 0.950 . S
C2463 C2480 1.574 . S
C2463 C2482 1.368 . S
C2463 H2487 0.949 . S
H2464 C2468 0.949 . S
C2465 C2466 1.349 . S
C2465 C2467 1.327 . S
C2465 H2488 0.950 . S
C2466 C2465 1.349 . S
C2466 C2478 1.349 . S
C2467 C2465 1.327 . S
C2467 C2483 1.429 . S
C2467 H2489 0.950 . S
C2468 H2464 0.949 . S
C2468 C2476 1.574 . S
C2468 C2484 1.368 . S
H2469 C2477 0.950 . S
H2470 C2475 0.950 . S
H2471 C2476 0.949 . S
H2472 C2478 0.950 . S
H2473 C2479 0.950 . S
H2474 C2480 0.949 . S
C2475 H2470 0.950 . S
C2475 C2477 1.327 . S
C2475 C2481 1.429 . S
C2476 C2468 1.574 . S
C2476 H2471 0.949 . S
C2476 C2482 1.368 . S
C2477 C2461 1.349 . S
C2477 H2469 0.950 . S
C2477 C2475 1.327 . S
C2478 C2466 1.349 . S
C2478 H2472 0.950 . S
C2478 C2479 1.327 . S
C2479 H2473 0.950 . S
C2479 C2478 1.327 . S
C2479 C2483 1.429 . S
C2480 C2463 1.574 . S
C2480 H2474 0.949 . S
C2480 C2484 1.368 . S
C2481 C2462 1.429 . S
C2481 C2475 1.429 . S
C2481 C2482 1.523 . S
C2482 C2463 1.368 . S
C2482 C2476 1.368 . S
C2482 C2481 1.523 . S
C2483 C2467 1.429 . S
C2483 C2479 1.429 . S
C2483 C2484 1.523 . S
C2484 C2468 1.368 . S
C2484 C2480 1.368 . S
C2484 C2483 1.523 . S
H2485 C2460 0.950 . S
H2486 C2462 0.950 . S
H2487 C2463 0.949 . S
H2488 C2465 0.950 . S
H2489 C2467 0.950 . S
C2490 C2491 1.349 . S
C2490 C2492 1.327 . S
C2490 H2515 0.950 . S
C2491 C2490 1.349 . S
C2491 C2507 1.349 . S
C2492 C2490 1.327 . S
C2492 C2511 1.429 . S
C2492 H2516 0.950 . S
C2493 C2510 1.574 . S
C2493 C2512 1.368 . S
C2493 H2517 0.949 . S
H2494 C2498 0.949 . S
C2495 C2496 1.349 . S
C2495 C2497 1.327 . S
C2495 H2518 0.950 . S
C2496 C2495 1.349 . S
C2496 C2508 1.349 . S
C2497 C2495 1.327 . S
C2497 C2513 1.429 . S
C2497 H2519 0.950 . S
C2498 H2494 0.949 . S
C2498 C2506 1.574 . S
C2498 C2514 1.368 . S
H2499 C2507 0.950 . S
H2500 C2505 0.950 . S
H2501 C2506 0.949 . S
H2502 C2508 0.950 . S
H2503 C2509 0.950 . S
H2504 C2510 0.949 . S
C2505 H2500 0.950 . S
C2505 C2507 1.327 . S
C2505 C2511 1.429 . S
C2506 C2498 1.574 . S
C2506 H2501 0.949 . S
C2506 C2512 1.368 . S
C2507 C2491 1.349 . S
C2507 H2499 0.950 . S
C2507 C2505 1.327 . S
C2508 C2496 1.349 . S
C2508 H2502 0.950 . S
C2508 C2509 1.327 . S
C2509 H2503 0.950 . S
C2509 C2508 1.327 . S
C2509 C2513 1.429 . S
C2510 C2493 1.574 . S
C2510 H2504 0.949 . S
C2510 C2514 1.368 . S
C2511 C2492 1.429 . S
C2511 C2505 1.429 . S
C2511 C2512 1.523 . S
C2512 C2493 1.368 . S
C2512 C2506 1.368 . S
C2512 C2511 1.523 . S
C2513 C2497 1.429 . S
C2513 C2509 1.429 . S
C2513 C2514 1.523 . S
C2514 C2498 1.368 . S
C2514 C2510 1.368 . S
C2514 C2513 1.523 . S
H2515 C2490 0.950 . S
H2516 C2492 0.950 . S
H2517 C2493 0.949 . S
H2518 C2495 0.950 . S
H2519 C2497 0.950 . S
C2520 C2521 1.349 . S
C2520 C2522 1.327 . S
C2520 H2545 0.950 . S
C2521 C2520 1.349 . S
C2521 C2537 1.349 . S
C2522 C2520 1.327 . S
C2522 C2541 1.429 . S
C2522 H2546 0.950 . S
C2523 C2540 1.574 . S
C2523 C2542 1.368 . S
C2523 H2547 0.949 . S
H2524 C2528 0.949 . S
C2525 C2526 1.349 . S
C2525 C2527 1.327 . S
C2525 H2548 0.950 . S
C2526 C2525 1.349 . S
C2526 C2538 1.349 . S
C2527 C2525 1.327 . S
C2527 C2543 1.429 . S
C2527 H2549 0.950 . S
C2528 H2524 0.949 . S
C2528 C2536 1.574 . S
C2528 C2544 1.368 . S
H2529 C2537 0.950 . S
H2530 C2535 0.950 . S
H2531 C2536 0.949 . S
H2532 C2538 0.950 . S
H2533 C2539 0.950 . S
H2534 C2540 0.949 . S
C2535 H2530 0.950 . S
C2535 C2537 1.327 . S
C2535 C2541 1.429 . S
C2536 C2528 1.574 . S
C2536 H2531 0.949 . S
C2536 C2542 1.368 . S
C2537 C2521 1.349 . S
C2537 H2529 0.950 . S
C2537 C2535 1.327 . S
C2538 C2526 1.349 . S
C2538 H2532 0.950 . S
C2538 C2539 1.327 . S
C2539 H2533 0.950 . S
C2539 C2538 1.327 . S
C2539 C2543 1.429 . S
C2540 C2523 1.574 . S
C2540 H2534 0.949 . S
C2540 C2544 1.368 . S
C2541 C2522 1.429 . S
C2541 C2535 1.429 . S
C2541 C2542 1.523 . S
C2542 C2523 1.368 . S
C2542 C2536 1.368 . S
C2542 C2541 1.523 . S
C2543 C2527 1.429 . S
C2543 C2539 1.429 . S
C2543 C2544 1.523 . S
C2544 C2528 1.368 . S
C2544 C2540 1.368 . S
C2544 C2543 1.523 . S
H2545 C2520 0.950 . S
H2546 C2522 0.950 . S
H2547 C2523 0.949 . S
H2548 C2525 0.950 . S
H2549 C2527 0.950 . S
C2550 C2551 1.349 . S
C2550 C2552 1.327 . S
C2550 H2575 0.950 . S
C2551 C2550 1.349 . S
C2551 C2567 1.349 . S
C2552 C2550 1.327 . S
C2552 C2571 1.429 . S
C2552 H2576 0.950 . S
C2553 C2570 1.574 . S
C2553 C2572 1.368 . S
C2553 H2577 0.949 . S
H2554 C2558 0.949 . S
C2555 C2556 1.349 . S
C2555 C2557 1.327 . S
C2555 H2578 0.950 . S
C2556 C2555 1.349 . S
C2556 C2568 1.349 . S
C2557 C2555 1.327 . S
C2557 C2573 1.429 . S
C2557 H2579 0.950 . S
C2558 H2554 0.949 . S
C2558 C2566 1.574 . S
C2558 C2574 1.368 . S
H2559 C2567 0.950 . S
H2560 C2565 0.950 . S
H2561 C2566 0.949 . S
H2562 C2568 0.950 . S
H2563 C2569 0.950 . S
H2564 C2570 0.949 . S
C2565 H2560 0.950 . S
C2565 C2567 1.327 . S
C2565 C2571 1.429 . S
C2566 C2558 1.574 . S
C2566 H2561 0.949 . S
C2566 C2572 1.368 . S
C2567 C2551 1.349 . S
C2567 H2559 0.950 . S
C2567 C2565 1.327 . S
C2568 C2556 1.349 . S
C2568 H2562 0.950 . S
C2568 C2569 1.327 . S
C2569 H2563 0.950 . S
C2569 C2568 1.327 . S
C2569 C2573 1.429 . S
C2570 C2553 1.574 . S
C2570 H2564 0.949 . S
C2570 C2574 1.368 . S
C2571 C2552 1.429 . S
C2571 C2565 1.429 . S
C2571 C2572 1.523 . S
C2572 C2553 1.368 . S
C2572 C2566 1.368 . S
C2572 C2571 1.523 . S
C2573 C2557 1.429 . S
C2573 C2569 1.429 . S
C2573 C2574 1.523 . S
C2574 C2558 1.368 . S
C2574 C2570 1.368 . S
C2574 C2573 1.523 . S
H2575 C2550 0.950 . S
H2576 C2552 0.950 . S
H2577 C2553 0.949 . S
H2578 C2555 0.950 . S
H2579 C2557 0.950 . S
C2580 C2581 1.349 . S
C2580 C2582 1.327 . S
C2580 H2605 0.950 . S
C2581 C2580 1.349 . S
C2581 C2597 1.349 . S
C2582 C2580 1.327 . S
C2582 C2601 1.429 . S
C2582 H2606 0.950 . S
C2583 C2600 1.574 . S
C2583 C2602 1.368 . S
C2583 H2607 0.949 . S
H2584 C2588 0.949 . S
C2585 C2586 1.349 . S
C2585 C2587 1.327 . S
C2585 H2608 0.950 . S
C2586 C2585 1.349 . S
C2586 C2598 1.349 . S
C2587 C2585 1.327 . S
C2587 C2603 1.429 . S
C2587 H2609 0.950 . S
C2588 H2584 0.949 . S
C2588 C2596 1.574 . S
C2588 C2604 1.368 . S
H2589 C2597 0.950 . S
H2590 C2595 0.950 . S
H2591 C2596 0.949 . S
H2592 C2598 0.950 . S
H2593 C2599 0.950 . S
H2594 C2600 0.949 . S
C2595 H2590 0.950 . S
C2595 C2597 1.327 . S
C2595 C2601 1.429 . S
C2596 C2588 1.574 . S
C2596 H2591 0.949 . S
C2596 C2602 1.368 . S
C2597 C2581 1.349 . S
C2597 H2589 0.950 . S
C2597 C2595 1.327 . S
C2598 C2586 1.349 . S
C2598 H2592 0.950 . S
C2598 C2599 1.327 . S
C2599 H2593 0.950 . S
C2599 C2598 1.327 . S
C2599 C2603 1.429 . S
C2600 C2583 1.574 . S
C2600 H2594 0.949 . S
C2600 C2604 1.368 . S
C2601 C2582 1.429 . S
C2601 C2595 1.429 . S
C2601 C2602 1.523 . S
C2602 C2583 1.368 . S
C2602 C2596 1.368 . S
C2602 C2601 1.523 . S
C2603 C2587 1.429 . S
C2603 C2599 1.429 . S
C2603 C2604 1.523 . S
C2604 C2588 1.368 . S
C2604 C2600 1.368 . S
C2604 C2603 1.523 . S
H2605 C2580 0.950 . S
H2606 C2582 0.950 . S
H2607 C2583 0.949 . S
H2608 C2585 0.950 . S
H2609 C2587 0.950 . S
C991 C177 1.436 . S
C996 C301 1.377 . S
C1021 C190 1.463 . S
C1026 C385 1.408 . S
C1051 C164 1.430 . S
C1056 C465 1.422 . S
C1081 C151 1.404 . S
C1086 C381 1.397 1_556 S
C1116 C469 1.354 . S
C1111 C125 1.413 . S
C1141 C138 1.380 . S
C1146 C297 1.354 1_556 S
C1176 C290 1.433 . S
C1171 C147 1.440 . S
C1206 C374 1.460 . S
C1201 C121 1.460 . S
C1231 C134 1.459 . S
C1236 C476 1.473 1_556 S
C1261 C173 1.424 . S
C1266 C392 1.446 . S
C1291 C186 1.407 . S
C1296 C458 1.400 . S
C1326 C308 1.422 . S
C1321 C160 1.405 . S
C1356 C553 1.378 . S
C1351 C21 1.436 . S
C1381 C34 1.463 . S
C1386 C637 1.408 . S
C1411 C8 1.429 . S
C1416 C717 1.421 . S
C1441 C229 1.404 . S
C1446 C633 1.397 . S
C1471 C203 1.413 . S
C1476 C721 1.354 . S
C1501 C216 1.380 . S
C1506 C549 1.371 . S
C1531 C225 1.440 . S
C1536 C542 1.433 . S
C1561 C199 1.460 . S
C1566 C626 1.460 . S
C1596 C728 1.479 . S
C1591 C212 1.459 . S
C1621 C17 1.423 . S
C1626 C644 1.445 . S
C1656 C710 1.400 . S
C1651 C30 1.407 . S
C1681 C4 1.405 . S
C1686 C560 1.422 . S
C1716 C805 1.378 . S
C1711 C99 1.436 . S
C1741 C112 1.463 . S
C1746 C889 1.408 . S
C1776 C969 1.421 . S
C1771 C86 1.430 . S
C1806 C885 1.397 . S
C1801 C73 1.404 . S
C1836 C973 1.354 . S
C1831 C47 1.413 . S
C1861 C60 1.380 . S
C1866 C801 1.371 . S
C1891 C69 1.440 . S
C1896 C794 1.433 . S
C1921 C43 1.460 . S
C1926 C878 1.460 . S
C1956 C980 1.480 . S
C1951 C56 1.459 . S
C1981 C95 1.423 . S
C1986 C896 1.445 . S
C2011 C108 1.407 . S
C2016 C962 1.400 . S
C2041 C82 1.405 . S
C2046 C812 1.422 . S
C2071 C204 1.548 . S
C2076 C304 1.420 . S
C2106 C388 1.477 . S
C2101 C217 1.627 . S
C2131 C230 1.565 . S
C2136 C460 1.384 . S
C2161 C87 1.598 . S
C2166 C376 1.406 . S
C2191 C100 1.580 . S
C2196 C472 1.438 . S
C2226 C292 1.353 . S
C2221 C113 1.519 . S
C2251 C48 1.548 . S
C2256 C556 1.420 . S
C2281 C61 1.628 . S
C2286 C640 1.477 . S
C2311 C74 1.565 . S
C2316 C712 1.384 . S
C2341 C165 1.598 . S
C2346 C628 1.406 . S
C2376 C724 1.438 . S
C2371 C178 1.580 . S
C2401 C191 1.519 . S
C2406 C544 1.353 . S
C2431 C126 1.548 . S
C2436 C808 1.420 . S
C2461 C139 1.628 . S
C2466 C892 1.477 . S
C2496 C964 1.384 . S
C2491 C152 1.565 . S
C2521 C9 1.598 . S
C2526 C880 1.406 . S
C2551 C22 1.580 . S
C2556 C976 1.438 . S
C2581 C35 1.519 . S
C2586 C796 1.353 . S
