# Generated by pormake.
# Topology pyr, (3,6)-cn, num edge types: 1
# Building blocks:
#     Node 0, Type 0, BuildingBlock: BETDAH_clean_linker_0, # of connection points: 3
#     Node 1, Type 0, BuildingBlock: BETDAH_clean_linker_0, # of connection points: 3
#     Node 2, Type 0, BuildingBlock: BETDAH_clean_linker_0, # of connection points: 3
#     Node 3, Type 0, BuildingBlock: BETDAH_clean_linker_0, # of connection points: 3
#     Node 4, Type 0, BuildingBlock: BETDAH_clean_linker_0, # of connection points: 3
#     Node 5, Type 0, BuildingBlock: BETDAH_clean_linker_0, # of connection points: 3
#     Node 6, Type 0, BuildingBlock: BETDAH_clean_linker_0, # of connection points: 3
#     Node 7, Type 0, BuildingBlock: BETDAH_clean_linker_0, # of connection points: 3
#     Node 8, Type 1, BuildingBlock: LEVNOQ01_clean_sbu_1, # of connection points: 6
#     Node 9, Type 1, BuildingBlock: LEVNOQ01_clean_sbu_1, # of connection points: 6
#     Node 10, Type 1, BuildingBlock: LEVNOQ01_clean_sbu_1, # of connection points: 6
#     Node 11, Type 1, BuildingBlock: LEVNOQ01_clean_sbu_1, # of connection points: 6
#     Edge 12, Type (0, 1), BuildingBlock: ZUJKAS_clean_linker_0, # of connection points: 2
#     Edge 13, Type (0, 1), BuildingBlock: ZUJKAS_clean_linker_0, # of connection points: 2
#     Edge 14, Type (0, 1), BuildingBlock: ZUJKAS_clean_linker_0, # of connection points: 2
#     Edge 15, Type (0, 1), BuildingBlock: ZUJKAS_clean_linker_0, # of connection points: 2
#     Edge 16, Type (0, 1), BuildingBlock: ZUJKAS_clean_linker_0, # of connection points: 2
#     Edge 17, Type (0, 1), BuildingBlock: ZUJKAS_clean_linker_0, # of connection points: 2
#     Edge 18, Type (0, 1), BuildingBlock: ZUJKAS_clean_linker_0, # of connection points: 2
#     Edge 19, Type (0, 1), BuildingBlock: ZUJKAS_clean_linker_0, # of connection points: 2
#     Edge 20, Type (0, 1), BuildingBlock: ZUJKAS_clean_linker_0, # of connection points: 2
#     Edge 21, Type (0, 1), BuildingBlock: ZUJKAS_clean_linker_0, # of connection points: 2
#     Edge 22, Type (0, 1), BuildingBlock: ZUJKAS_clean_linker_0, # of connection points: 2
#     Edge 23, Type (0, 1), BuildingBlock: ZUJKAS_clean_linker_0, # of connection points: 2
#     Edge 24, Type (0, 1), BuildingBlock: ZUJKAS_clean_linker_0, # of connection points: 2
#     Edge 25, Type (0, 1), BuildingBlock: ZUJKAS_clean_linker_0, # of connection points: 2
#     Edge 26, Type (0, 1), BuildingBlock: ZUJKAS_clean_linker_0, # of connection points: 2
#     Edge 27, Type (0, 1), BuildingBlock: ZUJKAS_clean_linker_0, # of connection points: 2
#     Edge 28, Type (0, 1), BuildingBlock: ZUJKAS_clean_linker_0, # of connection points: 2
#     Edge 29, Type (0, 1), BuildingBlock: ZUJKAS_clean_linker_0, # of connection points: 2
#     Edge 30, Type (0, 1), BuildingBlock: ZUJKAS_clean_linker_0, # of connection points: 2
#     Edge 31, Type (0, 1), BuildingBlock: ZUJKAS_clean_linker_0, # of connection points: 2
#     Edge 32, Type (0, 1), BuildingBlock: ZUJKAS_clean_linker_0, # of connection points: 2
#     Edge 33, Type (0, 1), BuildingBlock: ZUJKAS_clean_linker_0, # of connection points: 2
#     Edge 34, Type (0, 1), BuildingBlock: ZUJKAS_clean_linker_0, # of connection points: 2
#     Edge 35, Type (0, 1), BuildingBlock: ZUJKAS_clean_linker_0, # of connection points: 2
# Relax obj value: 0.079
# Max RMSD: 0.173
# Mean RMSD: 0.136
data_MOF--net-pry--node1-LEVNOQ01_clean_sbu_1--node2-BETDAH_clean_linker_0--edge1-ZUJKAS_clean_linker_0
_symmetry_space_group_name_H-M    P1
_symmetry_Int_Tables_number       1
_symmetry_cell_setting            triclinic
loop_
_symmetry_equiv_pos_as_xyz
'x, y, z'
_cell_length_a     47.148568
_cell_length_b     46.165328
_cell_length_c     47.206477
_cell_angle_alpha  91.868351
_cell_angle_beta   91.594381
_cell_angle_gamma 98.361072
loop_
_atom_site_label
_atom_site_type_symbol
_atom_site_fract_x
_atom_site_fract_y
_atom_site_fract_z
_atom_type_partial_charge
H0 H 0.17912 0.13384 0.1958 0.0
H1 H 0.17143 0.17057 0.11409 0.0
H2 H 0.11218 0.18626 0.17829 0.0
C3 C 0.16878 0.14759 0.18185 0.0
C4 C 0.14461 0.15977 0.191 0.0
C5 C 0.17883 0.15142 0.15426 0.0
C6 C 0.1643 0.16774 0.13559 0.0
C7 C 0.14078 0.18088 0.14421 0.0
C8 C 0.13091 0.1769 0.17196 0.0
N9 N 0.12561 0.19453 0.12315 0.0
C10 C 0.11498 0.22115 0.12594 0.0
H11 H 0.41447 0.87785 0.6989 0.0
H12 H 0.3719 0.95277 0.68429 0.0
H13 H 0.37484 0.88859 0.61727 0.0
C14 C 0.40235 0.89016 0.68504 0.0
C15 C 0.39547 0.87974 0.65696 0.0
C16 C 0.39344 0.91622 0.69539 0.0
C17 C 0.37782 0.93197 0.67717 0.0
C18 C 0.37084 0.92184 0.64926 0.0
C19 C 0.37943 0.89568 0.63925 0.0
N20 N 0.35911 0.94029 0.63025 0.0
C21 C 0.33016 0.93672 0.62256 0.0
H22 H 0.65985 0.37864 0.94343 0.0
H23 H 0.63881 0.45592 0.90422 0.0
H24 H 0.57808 0.37696 0.89985 0.0
C25 C 0.64449 0.38978 0.93216 0.0
C26 C 0.61809 0.3741 0.92243 0.0
C27 C 0.65206 0.41929 0.92578 0.0
C28 C 0.63295 0.43328 0.90974 0.0
C29 C 0.60614 0.41805 0.90087 0.0
C30 C 0.59867 0.38865 0.90735 0.0
N31 N 0.58719 0.43164 0.88393 0.0
C32 C 0.59416 0.43844 0.85639 0.0
H33 H 0.85686 0.65725 0.46116 0.0
H34 H 0.91669 0.63772 0.39863 0.0
H35 H 0.84535 0.57295 0.41745 0.0
C36 C 0.86421 0.64186 0.44621 0.0
C37 C 0.84799 0.61414 0.44118 0.0
C38 C 0.88921 0.65048 0.43132 0.0
C39 C 0.89753 0.63131 0.41042 0.0
C40 C 0.8817 0.60326 0.40566 0.0
C41 C 0.85735 0.59465 0.42132 0.0
N42 N 0.89015 0.58304 0.38561 0.0
C43 C 0.89605 0.59039 0.35793 0.0
H44 H 0.90514 0.86345 0.84947 0.0
H45 H 0.86901 0.88539 0.92891 0.0
H46 H 0.86378 0.9405 0.85845 0.0
C47 C 0.89333 0.87735 0.86206 0.0
C48 C 0.88501 0.90261 0.85007 0.0
C49 C 0.88745 0.8705 0.89049 0.0
C50 C 0.87249 0.88921 0.90667 0.0
C51 C 0.86358 0.91409 0.89501 0.0
C52 C 0.86993 0.92068 0.86687 0.0
N53 N 0.85396 0.93554 0.91315 0.0
C54 C 0.82526 0.9376 0.91792 0.0
H55 H 0.66796 0.11799 0.38664 0.0
H56 H 0.68896 0.19272 0.44395 0.0
H57 H 0.62027 0.19101 0.38261 0.0
C58 C 0.6632 0.13885 0.39492 0.0
C59 C 0.64145 0.15221 0.38176 0.0
C60 C 0.68004 0.15294 0.41785 0.0
C61 C 0.67503 0.18074 0.42755 0.0
C62 C 0.65347 0.19428 0.41497 0.0
C63 C 0.63642 0.17986 0.3925 0.0
N64 N 0.65329 0.22447 0.42098 0.0
C65 C 0.6325 0.23554 0.4366 0.0
H66 H 0.34246 0.69896 0.15341 0.0
H67 H 0.35754 0.61669 0.18669 0.0
H68 H 0.42336 0.69168 0.19486 0.0
C69 C 0.35642 0.68591 0.16429 0.0
C70 C 0.384 0.69886 0.17346 0.0
C71 C 0.34662 0.65635 0.1689 0.0
C72 C 0.36483 0.63953 0.1828 0.0
C73 C 0.39243 0.6524 0.19218 0.0
C74 C 0.40201 0.68196 0.18749 0.0
N75 N 0.41028 0.63596 0.20736 0.0
C76 C 0.40532 0.63089 0.23566 0.0
H77 H 0.14102 0.39079 0.59473 0.0
H78 H 0.12971 0.46887 0.64257 0.0
H79 H 0.0577 0.40166 0.62515 0.0
C80 C 0.12707 0.40365 0.60591 0.0
C81 C 0.09793 0.39264 0.60846 0.0
C82 C 0.13848 0.43118 0.61787 0.0
C83 C 0.1209 0.44765 0.6331 0.0
C84 C 0.09178 0.43679 0.63579 0.0
C85 C 0.0803 0.40964 0.62314 0.0
N86 N 0.07374 0.45283 0.65136 0.0
C87 C 0.07982 0.46044 0.67976 0.0
O88 O 0.01207 0.02484 0.58763 0.0
Mg89 Mg 0.03431 0.04711 0.55522 0.0
O90 O 0.97928 0.00523 0.55586 0.0
Mg91 Mg -0.00076 0.02247 0.5119 0.0
O92 O 0.01355 0.07208 0.52887 0.0
O93 O 0.0409 0.08914 0.56756 0.0
O94 O 0.02019 0.04039 0.46772 0.0
O95 O 0.95548 0.04152 0.50348 0.0
Mg96 Mg 0.9691 -0.00444 0.46184 0.0
O97 O 0.98288 0.97379 0.4955 0.0
O98 O -0.00079 0.01133 0.43306 0.0
O99 O 0.93425 0.01788 0.46556 0.0
O100 O 0.95759 0.95225 0.4572 0.0
C101 C 0.068 0.01128 0.52929 0.0
C102 C 0.98843 0.00892 0.58174 0.0
C103 C 0.0253 0.09371 0.5458 0.0
C104 C 0.01792 0.0325 0.44126 0.0
C105 C 0.93458 0.03705 0.48526 0.0
C106 C 0.97094 0.95034 0.48112 0.0
O107 O 0.07295 0.0356 0.54259 0.0
O108 O 0.04256 0.00177 0.51987 0.0
O109 O 0.45097 0.09026 0.0438 0.0
Mg110 Mg 0.49435 0.0933 0.0546 0.0
O111 O 0.45328 0.04498 0.05514 0.0
Mg112 Mg 0.50078 0.03519 0.0423 0.0
O113 O 0.52035 0.08018 0.02439 0.0
O114 O 0.51754 0.12725 0.03652 0.0
O115 O 0.54905 0.0264 0.0291 0.0
O116 O 0.48106 0.02512 0.9962 0.0
Mg117 Mg 0.5103 0.98462 0.02967 0.0
O118 O 0.48061 0.98922 0.06 0.0
O119 O 0.55185 0.98289 0.04462 0.0
O120 O 0.50511 0.9895 0.98552 0.0
O121 O 0.48558 0.94682 0.03711 0.0
C122 C 0.51834 0.06848 0.10581 0.0
C123 C 0.43848 0.06579 0.05108 0.0
C124 C 0.52754 0.10803 0.02075 0.0
C125 C 0.56422 0.00624 0.03476 0.0
C126 C 0.48895 0.00746 0.97781 0.0
C127 C 0.47384 0.96095 0.05641 0.0
O128 O 0.50707 0.08999 0.09722 0.0
O129 O 0.51985 0.04653 0.08895 0.0
O130 O 0.48247 0.60046 0.604 0.0
Mg131 Mg 0.4838 0.55714 0.61545 0.0
O132 O 0.4908 0.592 0.55857 0.0
Mg133 Mg 0.49866 0.54274 0.5523 0.0
O134 O 0.51738 0.54095 0.59751 0.0
O135 O 0.51459 0.54916 0.64412 0.0
O136 O 0.50675 0.49293 0.54617 0.0
O137 O 0.54554 0.55881 0.53996 0.0
Mg138 Mg 0.50602 0.52044 0.48871 0.0
O139 O 0.4812 0.54694 0.50759 0.0
O140 O 0.4938 0.47796 0.50203 0.0
O141 O 0.54957 0.53848 0.49706 0.0
O142 O 0.47932 0.53808 0.46098 0.0
C143 C 0.43627 0.519 0.58492 0.0
C144 C 0.4855 0.60916 0.57897 0.0
C145 C 0.52803 0.53989 0.62299 0.0
C146 C 0.50114 0.47236 0.52701 0.0
C147 C 0.56053 0.55337 0.51882 0.0
C148 C 0.47004 0.55066 0.48294 0.0
O149 O 0.44596 0.52709 0.60965 0.0
O150 O 0.45135 0.52481 0.5632 0.0
O151 O 0.04243 0.51798 0.06897 0.0
Mg152 Mg 0.02581 0.55834 0.06898 0.0
O153 O 0.01747 0.50488 0.02964 0.0
Mg154 Mg 0.00827 0.55256 0.01736 0.0
O155 O 0.98366 0.56137 0.05989 0.0
O156 O 0.00328 0.56004 0.10388 0.0
O157 O -0.00242 0.60174 0.00804 0.0
O158 O 0.96214 0.53106 1.00282 0.0
Mg159 Mg 0.00168 0.5665 0.96307 0.0
O160 O 0.03095 0.54018 0.97487 0.0
O161 O 0.01238 0.6117 0.96557 0.0
O162 O 0.95828 0.54778 0.95998 0.0
O163 O 0.02206 0.55282 0.93007 0.0
C164 C 0.06818 0.59267 0.04748 0.0
C165 C 0.03325 0.49838 0.05027 0.0
C166 C 0.98175 0.56287 0.08737 0.0
C167 C 0.00304 0.62026 0.98855 0.0
C168 C 0.94737 0.53308 0.98014 0.0
C169 C 0.0362 0.53943 0.9479 0.0
O170 O 0.05404 0.5975 0.06884 0.0
O171 O 0.05665 0.57392 0.0286 0.0
H172 H 0.08818 0.14709 0.20631 0.0
H173 H 0.07 0.1303 0.25205 0.0
H174 H 0.15652 0.13803 0.28626 0.0
H175 H 0.17488 0.15568 0.24106 0.0
H176 H 0.11939 0.08065 0.29179 0.0
H177 H 0.07081 0.1761 0.33211 0.0
H178 H 0.06332 0.16475 0.29545 0.0
H179 H 0.09922 0.17958 0.30694 0.0
C180 C 0.10336 0.14599 0.22372 0.0
C181 C 0.13309 0.15272 0.21974 0.0
C182 C 0.09291 0.13621 0.24989 0.0
C183 C 0.11188 0.13295 0.27268 0.0
C184 C 0.14145 0.14032 0.26902 0.0
H185 H 0.05821 0.08336 0.44588 0.0
H186 H 0.08395 0.10887 0.40683 0.0
C187 C 0.15191 0.15029 0.24302 0.0
C188 C 0.10111 0.12008 0.29968 0.0
H189 H 0.06188 0.13251 0.35764 0.0
C190 C 0.10699 0.09208 0.30628 0.0
C191 C 0.08526 0.1351 0.31881 0.0
C192 C 0.07934 0.16565 0.31325 0.0
C193 C 0.0967 0.07834 0.33094 0.0
C194 C 0.07979 0.09283 0.34958 0.0
C195 C 0.07477 0.1213 0.34348 0.0
C196 C 0.06508 0.07765 0.37389 0.0
C197 C 0.10398 0.04825 0.33666 0.0
C198 C 0.04578 0.05188 0.36849 0.0
C199 C 0.03142 0.03732 0.39053 0.0
C200 C 0.03545 0.04818 0.41889 0.0
C201 C 0.05472 0.07418 0.42445 0.0
C202 C 0.06932 0.08885 0.4021 0.0
H203 H 0.12411 0.04452 0.32636 0.0
H204 H 0.10639 0.04499 0.35975 0.0
H205 H 0.08649 0.03146 0.32773 0.0
H206 H 0.04145 0.0431 0.347 0.0
H207 H 0.01668 0.01755 0.38506 0.0
H208 H 0.44557 0.91999 0.72333 0.0
H209 H 0.45886 0.94048 0.77121 0.0
H210 H 0.37291 0.95989 0.78129 0.0
H211 H 0.35933 0.93908 0.73358 0.0
H212 H 0.45442 -0.00052 0.79284 0.0
H213 H 0.38946 0.91225 0.85189 0.0
H214 H 0.39882 0.90696 0.81544 0.0
H215 H 0.37095 0.92816 0.82387 0.0
C216 C 0.42941 0.92828 0.73588 0.0
C217 C 0.40135 0.92777 0.72475 0.0
C218 C 0.43709 0.94018 0.76312 0.0
C219 C 0.41681 0.9515 0.77982 0.0
C220 C 0.38879 0.95101 0.76882 0.0
H221 H 0.438 0.0212 0.95639 0.0
H222 H 0.41869 0.01197 0.90738 0.0
C223 C 0.38113 0.93927 0.74153 0.0
C224 C 0.42511 0.96397 0.8087 0.0
H225 H 0.4149 0.95196 0.87895 0.0
C226 C 0.44567 0.98921 0.81167 0.0
C227 C 0.41354 0.95057 0.83319 0.0
C228 C 0.39211 0.92286 0.83115 0.0
C229 C 0.45528 0.00117 0.83858 0.0
C230 C 0.44423 0.98737 0.86304 0.0
C231 C 0.4231 0.96262 0.86009 0.0
C232 C 0.45658 -0.00379 0.89174 0.0
C233 C 0.47742 0.0283 0.84076 0.0
C234 C 0.48425 0.99063 0.89895 0.0
C235 C 0.49506 -0.00453 0.92676 0.0
C236 C 0.47853 0.00626 0.94791 0.0
C237 C 0.45126 0.01309 0.94045 0.0
C238 C 0.4402 0.00774 0.91257 0.0
H239 H 0.47873 0.04014 0.82061 0.0
H240 H 0.47246 0.04342 0.85812 0.0
H241 H 0.49877 0.02194 0.84572 0.0
H242 H 0.49708 0.98145 0.88325 0.0
H243 H 0.51618 0.99009 0.93188 0.0
H244 H 0.59202 0.39711 0.81492 0.0
H245 H 0.59846 0.40511 0.76417 0.0
H246 H 0.61685 0.49837 0.78199 0.0
H247 H 0.61061 0.49026 0.83272 0.0
H248 H 0.56282 0.43715 0.736 0.0
H249 H 0.67557 0.48562 0.72187 0.0
H250 H 0.66417 0.46468 0.75232 0.0
H251 H 0.65952 0.50262 0.75087 0.0
C252 C 0.59804 0.41921 0.80789 0.0
C253 C 0.60077 0.44316 0.82726 0.0
C254 C 0.60189 0.42374 0.77907 0.0
C255 C 0.60869 0.45227 0.76939 0.0
C256 C 0.61243 0.47613 0.78908 0.0
H257 H 0.57176 0.56415 0.65765 0.0
H258 H 0.602 0.53621 0.68493 0.0
C259 C 0.60854 0.47158 0.81792 0.0
C260 C 0.6068 0.4576 0.73873 0.0
H261 H 0.64078 0.49745 0.68674 0.0
C262 C 0.58009 0.4495 0.72479 0.0
C263 C 0.62942 0.47374 0.72436 0.0
C264 C 0.65888 0.48193 0.73805 0.0
C265 C 0.57439 0.45961 0.69789 0.0
C266 C 0.59649 0.47752 0.68411 0.0
C267 C 0.62399 0.48348 0.69713 0.0
C268 C 0.58932 0.4957 0.66041 0.0
C269 C 0.5439 0.45356 0.686 0.0
C270 C 0.57466 0.48306 0.63562 0.0
C271 C 0.55702 0.49913 0.62004 0.0
C272 C 0.55453 0.52786 0.62908 0.0
C273 C 0.57316 0.54183 0.65063 0.0
C274 C 0.59055 0.52585 0.66618 0.0
H275 H 0.52883 0.44229 0.70118 0.0
H276 H 0.53619 0.47433 0.68043 0.0
H277 H 0.54302 0.43935 0.66651 0.0
H278 H 0.57408 0.45996 0.63039 0.0
H279 H 0.54278 0.48803 0.60344 0.0
H280 H 0.94562 0.60785 0.33205 0.0
H281 H 0.95216 0.60955 0.28061 0.0
H282 H 0.86119 0.58291 0.26589 0.0
H283 H 0.8547 0.58175 0.31723 0.0
H284 H 0.93998 0.56168 0.24548 0.0
H285 H 0.87807 0.64771 0.20956 0.0
H286 H 0.88859 0.64441 0.24626 0.0
H287 H 0.85787 0.62099 0.2308 0.0
C288 C 0.92706 0.60306 0.3177 0.0
C289 C 0.8997 0.59482 0.32818 0.0
C290 C 0.93075 0.60401 0.28845 0.0
C291 C 0.90709 0.59673 0.26942 0.0
C292 C 0.87961 0.5893 0.28012 0.0
H293 H 0.93603 0.52522 0.10354 0.0
H294 H 0.90903 0.53445 0.1457 0.0
C295 C 0.87595 0.58844 0.30936 0.0
C296 C 0.9116 0.5935 0.23862 0.0
H297 H 0.89236 0.61585 0.17342 0.0
C298 C 0.9296 0.57358 0.22975 0.0
C299 C 0.89816 0.60918 0.21817 0.0
C300 C 0.87981 0.63199 0.22664 0.0
C301 C 0.93455 0.56879 0.201 0.0
C302 C 0.92032 0.58366 0.1804 0.0
C303 C 0.90254 0.60388 0.18922 0.0
C304 C 0.92646 0.58047 0.14997 0.0
C305 C 0.95575 0.54852 0.19307 0.0
C306 C 0.94256 0.60394 0.13684 0.0
C307 C 0.95733 0.59879 0.11239 0.0
C308 C 0.95614 0.57019 0.10098 0.0
C309 C 0.93686 0.54752 0.11178 0.0
C310 C 0.92177 0.55274 0.13605 0.0
H311 H 0.96931 0.54403 0.21158 0.0
H312 H 0.94392 0.5273 0.1847 0.0
H313 H 0.97005 0.55798 0.17637 0.0
H314 H 0.94635 0.62552 0.14717 0.0
H315 H 0.97249 0.61646 0.10461 0.0
H316 H 0.18491 0.12168 0.10391 0.0
H317 H 0.22707 0.10123 0.0877 0.0
H318 H 0.27224 0.13014 0.16651 0.0
H319 H 0.23017 0.15073 0.18288 0.0
H320 H 0.30209 0.1466 0.11425 0.0
H321 H 0.26166 0.0275 0.11674 0.0
H322 H 0.23801 0.04996 0.10056 0.0
H323 H 0.24678 0.05467 0.1378 0.0
C324 C 0.20379 0.12366 0.11784 0.0
C325 C 0.20412 0.13793 0.14471 0.0
C326 C 0.22779 0.11169 0.10863 0.0
C327 C 0.25274 0.11384 0.12599 0.0
C328 C 0.25315 0.12799 0.15284 0.0
H329 H 0.41137 0.03919 0.0964 0.0
H330 H 0.365 0.04839 0.11487 0.0
C331 C 0.22905 0.13968 0.1622 0.0
C332 C 0.27895 0.10297 0.11544 0.0
H333 H 0.30618 0.04099 0.09488 0.0
C334 C 0.30301 0.12351 0.11013 0.0
C335 C 0.28029 0.07281 0.11036 0.0
C336 C 0.25544 0.04981 0.11681 0.0
C337 C 0.32807 0.11483 0.09926 0.0
C338 C 0.32912 0.08472 0.09313 0.0
C339 C 0.30533 0.06405 0.09923 0.0
C340 C 0.35469 0.07476 0.08 0.0
C341 C 0.35334 0.1381 0.09463 0.0
C342 C 0.36359 0.08509 0.05357 0.0
C343 C 0.38998 0.08001 0.04315 0.0
C344 C 0.40789 0.06395 0.0586 0.0
C345 C 0.3979 0.05136 0.08387 0.0
C346 C 0.3715 0.0568 0.09453 0.0
H347 H 0.3521 0.15849 0.10742 0.0
H348 H 0.3739 0.13024 0.10013 0.0
H349 H 0.35351 0.1437 0.07194 0.0
H350 H 0.35074 0.09834 0.04158 0.0
H351 H 0.39705 0.08992 0.02358 0.0
H352 H 0.28144 0.90399 0.63985 0.0
H353 H 0.23218 0.90586 0.62158 0.0
H354 H 0.26506 0.97306 0.56469 0.0
H355 H 0.31392 0.97099 0.58265 0.0
H356 H 0.20154 0.95478 0.62054 0.0
H357 H 0.21608 0.91176 0.51192 0.0
H358 H 0.24023 0.90733 0.54133 0.0
H359 H 0.24365 0.94124 0.52311 0.0
C360 C 0.27795 0.91893 0.6233 0.0
C361 C 0.30116 0.93711 0.61226 0.0
C362 C 0.24995 0.92003 0.61294 0.0
C363 C 0.24506 0.93914 0.59133 0.0
C364 C 0.26841 0.95762 0.58081 0.0
H365 H 0.12336 0.02802 0.51693 0.0
H366 H 0.16401 0.00334 0.53026 0.0
C367 C 0.29623 0.95654 0.59113 0.0
C368 C 0.21568 0.94076 0.58005 0.0
H369 H 0.1767 0.93918 0.51776 0.0
C370 C 0.19578 0.95067 0.59822 0.0
C371 C 0.20819 0.93529 0.55092 0.0
C372 C 0.22806 0.92303 0.53073 0.0
C373 C 0.16935 0.95715 0.58761 0.0
C374 C 0.16268 0.95336 0.5582 0.0
C375 C 0.1819 0.942 0.5403 0.0
C376 C 0.13782 0.96492 0.54538 0.0
C377 C 0.14942 0.96971 0.60755 0.0
C378 C 0.10965 0.95074 0.54819 0.0
C379 C 0.0863 0.96459 0.53997 0.0
C380 C 0.09103 0.9929 0.52931 0.0
C381 C 0.11922 0.00609 0.52485 0.0
C382 C 0.14241 0.9921 0.5326 0.0
H383 H 0.15834 0.97253 0.62966 0.0
H384 H 0.14509 0.99131 0.60023 0.0
H385 H 0.1286 0.95497 0.60747 0.0
H386 H 0.10577 0.92973 0.55805 0.0
H387 H 0.06476 0.95425 0.54409 0.0
H388 H 0.69237 0.44644 0.89176 0.0
H389 H 0.74206 0.4667 0.90514 0.0
H390 H 0.72566 0.44735 0.99254 0.0
H391 H 0.67626 0.42602 0.97896 0.0
H392 H 0.76576 0.51093 0.94075 0.0
H393 H 0.79343 0.40562 0.97893 0.0
H394 H 0.76033 0.40797 0.95966 0.0
H395 H 0.76422 0.41829 0.9968 0.0
C396 C 0.6994 0.44682 0.91384 0.0
C397 C 0.68078 0.43459 0.93437 0.0
C398 C 0.72771 0.45828 0.92146 0.0
C399 C 0.73771 0.45787 0.94973 0.0
C400 C 0.71863 0.44703 0.97049 0.0
H401 H 0.91097 0.51408 0.02225 0.0
H402 H 0.85943 0.49581 0.01678 0.0
C403 C 0.69044 0.43512 0.9628 0.0
C404 C 0.76823 0.46838 0.95721 0.0
H405 H 0.82945 0.44692 0.98441 0.0
C406 C 0.77966 0.49696 0.95036 0.0
C407 C 0.7863 0.45007 0.9698 0.0
C408 C 0.77557 0.4187 0.97651 0.0
C409 C 0.80874 0.50771 0.95554 0.0
C410 C 0.82687 0.48925 0.96764 0.0
C411 C 0.81538 0.46095 0.97519 0.0
C412 C 0.85813 0.49849 0.97109 0.0
C413 C 0.81982 0.53873 0.94792 0.0
C414 C 0.87443 0.50498 0.94714 0.0
C415 C 0.9036 0.51549 0.95018 0.0
C416 C 0.91713 0.51931 0.97723 0.0
C417 C 0.90108 0.51139 1.00116 0.0
C418 C 0.8717 0.50105 0.99808 0.0
H419 H 0.80226 0.55233 0.94651 0.0
H420 H 0.83633 0.54928 0.96371 0.0
H421 H 0.82976 0.53842 0.9269 0.0
H422 H 0.86446 0.50235 0.92608 0.0
H423 H 0.91549 0.52095 0.93129 0.0
H424 H 0.79701 0.58746 0.41752 0.0
H425 H 0.75036 0.58017 0.43964 0.0
H426 H 0.78968 0.61745 0.5187 0.0
H427 H 0.83666 0.62412 0.49693 0.0
H428 H 0.74789 0.56621 0.52383 0.0
H429 H 0.70765 0.65042 0.45865 0.0
H430 H 0.72183 0.62266 0.43821 0.0
H431 H 0.74527 0.64697 0.46205 0.0
C432 C 0.79584 0.59357 0.43976 0.0
C433 C 0.82044 0.60658 0.45545 0.0
C434 C 0.76916 0.58972 0.45226 0.0
C435 C 0.76661 0.59891 0.48057 0.0
C436 C 0.79125 0.61056 0.49671 0.0
H437 H 0.59168 0.60468 0.54043 0.0
H438 H 0.64403 0.6192 0.53805 0.0
C439 C 0.81798 0.61444 0.48423 0.0
C440 C 0.73804 0.59694 0.49297 0.0
H441 H 0.67247 0.6186 0.48297 0.0
C442 C 0.73149 0.578 0.51526 0.0
C443 C 0.71694 0.61283 0.48209 0.0
C444 C 0.72329 0.6346 0.45911 0.0
C445 C 0.70368 0.57302 0.52565 0.0
C446 C 0.68211 0.58732 0.51332 0.0
C447 C 0.68914 0.60771 0.49236 0.0
C448 C 0.65148 0.57805 0.51843 0.0
C449 C 0.69727 0.55175 0.54899 0.0
C450 C 0.63867 0.55031 0.50815 0.0
C451 C 0.60911 0.54237 0.50888 0.0
C452 C 0.59182 0.56191 0.5202 0.0
C453 C 0.60468 0.5893 0.53163 0.0
C454 C 0.63442 0.59753 0.53034 0.0
H455 H 0.71699 0.54927 0.56157 0.0
H456 H 0.68125 0.55896 0.56345 0.0
H457 H 0.68823 0.52995 0.53948 0.0
H458 H 0.65144 0.53518 0.49851 0.0
H459 H 0.5997 0.52098 0.50024 0.0
H460 H 0.06353 0.2274 0.10241 0.0
H461 H 0.04795 0.2729 0.08649 0.0
H462 H 0.12688 0.3221 0.12088 0.0
H463 H 0.14265 0.27644 0.1362 0.0
H464 H 0.03774 0.32287 0.11243 0.0
H465 H 0.12791 0.34919 0.04071 0.0
H466 H 0.1205 0.31424 0.05706 0.0
H467 H 0.1401 0.34536 0.07653 0.0
C468 C 0.0773 0.24804 0.10694 0.0
C469 C 0.10413 0.24853 0.12079 0.0
C470 C 0.06847 0.27403 0.0977 0.0
C471 C 0.08643 0.30106 0.10186 0.0
C472 C 0.11286 0.30158 0.1167 0.0
H473 H 0.07767 0.48317 0.08163 0.0
H474 H 0.08877 0.43435 0.09102 0.0
C475 C 0.12172 0.27554 0.12585 0.0
C476 C 0.07757 0.32857 0.09064 0.0
H477 H 0.09998 0.38748 0.05034 0.0
C478 C 0.05123 0.33679 0.0986 0.0
C479 C 0.09487 0.34674 0.07221 0.0
C480 C 0.12226 0.3383 0.06086 0.0
C481 C 0.04246 0.36312 0.08977 0.0
C482 C 0.06034 0.3818 0.07235 0.0
C483 C 0.08627 0.37325 0.06376 0.0
C484 C 0.05372 0.4114 0.06489 0.0
C485 C 0.01458 0.37139 0.09996 0.0
C486 C 0.03057 0.41499 0.04645 0.0
C487 C 0.02426 0.4432 0.0407 0.0
C488 C 0.04079 0.46829 0.05358 0.0
C489 C 0.06429 0.46444 0.07148 0.0
C490 C 0.07074 0.43646 0.07688 0.0
H491 H 0.00487 0.35639 0.11614 0.0
H492 H 0.01802 0.39413 0.10915 0.0
H493 H -0.00089 0.37062 0.08171 0.0
H494 H 0.01727 0.39599 0.03669 0.0
H495 H 0.00602 0.44532 0.02687 0.0
H496 H 0.62609 0.34473 0.97062 0.0
H497 H 0.61658 0.2917 0.97667 0.0
H498 H 0.58657 0.27855 0.88947 0.0
H499 H 0.59631 0.33154 0.88306 0.0
H500 H 0.55229 0.25652 0.95308 0.0
H501 H 0.65404 0.22094 0.91757 0.0
H502 H 0.65432 0.25619 0.93547 0.0
H503 H 0.63906 0.24992 0.90027 0.0
C504 C 0.6177 0.33052 0.95269 0.0
C505 C 0.61176 0.34221 0.92643 0.0
C506 C 0.61237 0.30034 0.95615 0.0
C507 C 0.60127 0.28148 0.93337 0.0
C508 C 0.59542 0.29294 0.90712 0.0
H509 H 0.51581 0.10756 0.96433 0.0
H510 H 0.53843 0.14524 0.93337 0.0
C511 C 0.60066 0.32313 0.90365 0.0
C512 C 0.5935 0.25003 0.93789 0.0
H513 H 0.61992 0.185 0.93721 0.0
C514 C 0.56677 0.24069 0.94917 0.0
C515 C 0.61274 0.22984 0.93286 0.0
C516 C 0.64173 0.23948 0.92085 0.0
C517 C 0.559 0.21161 0.95657 0.0
C518 C 0.57839 0.1913 0.952 0.0
C519 C 0.60496 0.20053 0.94007 0.0
C520 C 0.57264 0.16189 0.96368 0.0
C521 C 0.53077 0.20323 0.97073 0.0
C522 C 0.58601 0.15729 0.9897 0.0
C523 C 0.57313 0.1359 0.0073 0.0
C524 C 0.5471 0.11877 0.99877 0.0
C525 C 0.53613 0.12037 0.97105 0.0
C526 C 0.54895 0.14193 0.95345 0.0
H527 H 0.52023 0.22259 0.97624 0.0
H528 H 0.51599 0.18834 0.95622 0.0
H529 H 0.53399 0.19145 0.99044 0.0
H530 H 0.60427 0.17253 0.99792 0.0
H531 H 0.58168 0.13508 0.02876 0.0
H532 H 0.91021 0.69227 0.3943 0.0
H533 H 0.93256 0.74279 0.40636 0.0
H534 H 0.92707 0.72506 0.49536 0.0
H535 H 0.90545 0.67471 0.48348 0.0
H536 H 0.90571 0.78231 0.43691 0.0
H537 H 0.00833 0.76859 0.4911 0.0
H538 H 0.98782 0.74005 0.46878 0.0
H539 H 0.978 0.74592 0.50484 0.0
C540 C 0.9145 0.69902 0.41638 0.0
C541 C 0.90604 0.67968 0.43797 0.0
C542 C 0.92711 0.72784 0.42325 0.0
C543 C 0.93176 0.73754 0.45176 0.0
C544 C 0.92424 0.7179 0.47325 0.0
H545 H 0.93261 0.91626 0.51173 0.0
H546 H 0.92529 0.86253 0.50886 0.0
C547 C 0.91162 0.68923 0.46643 0.0
C548 C 0.94169 0.76881 0.4593 0.0
H549 H 0.99204 0.81498 0.49878 0.0
C550 C 0.92472 0.78949 0.45023 0.0
C551 C 0.96657 0.77811 0.47656 0.0
C552 C 0.9864 0.75705 0.48567 0.0
C553 C 0.93157 0.81918 0.45848 0.0
C554 C 0.95571 0.8283 0.47685 0.0
C555 C 0.97317 0.80777 0.48528 0.0
C556 C 0.96391 0.85947 0.48587 0.0
C557 C 0.91309 0.84055 0.44706 0.0
C558 C 0.98926 0.87524 0.47617 0.0
C559 C 0.99373 0.90583 0.47842 0.0
C560 C 0.97299 0.92086 0.49051 0.0
C561 C 0.94915 0.90501 0.50289 0.0
C562 C 0.94476 0.87441 0.50083 0.0
H563 H 0.89991 0.83127 0.42813 0.0
H564 H 0.89825 0.84593 0.46364 0.0
H565 H 0.92641 0.86121 0.44122 0.0
H566 H 0.00432 0.8641 0.46466 0.0
H567 H 0.0119 0.91773 0.46815 0.0
H568 H 0.44983 0.86617 0.66185 0.0
H569 H 0.4679 0.82284 0.64232 0.0
H570 H 0.38331 0.78945 0.60785 0.0
H571 H 0.36539 0.83318 0.62664 0.0
H572 H 0.45396 0.76689 0.65329 0.0
H573 H 0.42972 0.77994 0.53939 0.0
H574 H 0.42768 0.80863 0.56582 0.0
H575 H 0.39855 0.7789 0.56045 0.0
C576 C 0.43511 0.84957 0.65008 0.0
C577 C 0.40622 0.85308 0.64567 0.0
C578 C 0.44547 0.82488 0.63882 0.0
C579 C 0.42715 0.80311 0.62304 0.0
C580 C 0.39813 0.80634 0.6191 0.0
H581 H 0.43548 0.62686 0.56338 0.0
H582 H 0.42331 0.67635 0.571 0.0
C583 C 0.38784 0.83122 0.63004 0.0
C584 C 0.43814 0.77645 0.61193 0.0
H585 H 0.44207 0.73349 0.55213 0.0
C586 C 0.45165 0.75981 0.63111 0.0
C587 C 0.43513 0.76713 0.58295 0.0
C588 C 0.42224 0.78475 0.56092 0.0
C589 C 0.46142 0.73373 0.62236 0.0
C590 C 0.458 0.72418 0.59349 0.0
C591 C 0.44477 0.74091 0.57421 0.0
C592 C 0.46656 0.69596 0.58347 0.0
C593 C 0.47441 0.7161 0.64437 0.0
C594 C 0.49516 0.69092 0.58642 0.0
C595 C 0.50208 0.66267 0.58206 0.0
C596 C 0.48061 0.63929 0.57407 0.0
C597 C 0.45247 0.64477 0.56886 0.0
C598 C 0.4455 0.67295 0.57344 0.0
H599 H 0.46963 0.72299 0.66628 0.0
H600 H 0.46638 0.69237 0.64109 0.0
H601 H 0.49806 0.7193 0.64251 0.0
H602 H 0.51182 0.70847 0.59368 0.0
H603 H 0.52379 0.65875 0.58675 0.0
H604 H 0.90486 0.95753 0.83177 0.0
H605 H 0.91926 0.97172 0.78428 0.0
H606 H 0.9006 0.88158 0.75438 0.0
H607 H 0.88537 0.8672 0.80181 0.0
H608 H 0.9632 0.95297 0.75279 0.0
H609 H 0.85809 0.92403 0.69494 0.0
H610 H 0.86123 0.92754 0.73316 0.0
H611 H 0.87003 0.89539 0.71501 0.0
C612 C 0.90329 0.94069 0.81505 0.0
C613 C 0.89359 0.91118 0.82075 0.0
C614 C 0.91177 0.94886 0.78786 0.0
C615 C 0.91065 0.92785 0.7655 0.0
C616 C 0.90116 0.89833 0.77106 0.0
H617 H 0.95853 0.95302 0.58648 0.0
H618 H 0.9391 0.93126 0.63031 0.0
C619 C 0.89274 0.89009 0.79833 0.0
C620 C 0.92045 0.93693 0.7368 0.0
H621 H 0.89784 0.94151 0.66768 0.0
C622 C 0.94888 0.95039 0.7342 0.0
C623 C 0.90195 0.93331 0.71236 0.0
C624 C 0.87104 0.91948 0.71387 0.0
C625 C 0.95927 0.96045 0.70807 0.0
C626 C 0.94051 0.95787 0.68378 0.0
C627 C 0.91224 0.94368 0.68619 0.0
C628 C 0.94962 0.97114 0.6563 0.0
C629 C 0.99048 0.97346 0.70682 0.0
C630 C 0.96075 0.00101 0.65584 0.0
C631 C 0.97204 0.01322 0.63113 0.0
C632 C 0.97183 -0.00383 0.60585 0.0
C633 C 0.95886 0.96673 0.60558 0.0
C634 C 0.94791 0.95428 0.63067 0.0
H635 H 0.00365 0.96488 0.72361 0.0
H636 H -0.00063 0.96877 0.68591 0.0
H637 H 0.99262 -0.00243 0.7104 0.0
H638 H 0.96141 0.01485 0.67488 0.0
H639 H 0.98159 0.03606 0.63196 0.0
H640 H 0.62441 0.18017 0.33509 0.0
H641 H 0.60268 0.1585 0.29064 0.0
H642 H 0.60488 0.07206 0.32177 0.0
H643 H 0.62472 0.09356 0.36734 0.0
H644 H 0.62567 0.12588 0.25319 0.0
H645 H 0.52479 0.06177 0.28873 0.0
H646 H 0.5469 0.08844 0.31169 0.0
H647 H 0.55675 0.05261 0.30552 0.0
C648 C 0.61949 0.15655 0.33304 0.0
C649 C 0.62627 0.13874 0.35518 0.0
C650 C 0.60736 0.14414 0.3073 0.0
C651 C 0.60188 0.1136 0.30278 0.0
C652 C 0.60834 0.09566 0.32482 0.0
H653 H 0.55005 0.03062 0.13256 0.0
H654 H 0.57177 0.03677 0.18094 0.0
C655 C 0.62012 0.10807 0.35081 0.0
C656 C 0.59081 0.101 0.27445 0.0
H657 H 0.53452 0.05747 0.24004 0.0
C658 C 0.60587 0.11069 0.25042 0.0
C659 C 0.56498 0.08109 0.27072 0.0
C660 C 0.54725 0.07053 0.29548 0.0
C661 C 0.59541 0.10183 0.2229 0.0
C662 C 0.56936 0.08257 0.21921 0.0
C663 C 0.55473 0.07195 0.24308 0.0
C664 C 0.55507 0.07702 0.19083 0.0
C665 C 0.61154 0.11412 0.19778 0.0
C666 C 0.53838 0.09738 0.18073 0.0
C667 C 0.52612 0.09402 0.15342 0.0
C668 C 0.53025 0.07014 0.13542 0.0
C669 C 0.54647 0.04923 0.14583 0.0
C670 C 0.55885 0.05269 0.17341 0.0
H671 H 0.63318 0.12588 0.20404 0.0
H672 H 0.61384 0.09628 0.18204 0.0
H673 H 0.59919 0.12969 0.18723 0.0
H674 H 0.53527 0.11629 0.19387 0.0
H675 H 0.51369 0.11055 0.14633 0.0
H676 H 0.3679 0.58916 0.25856 0.0
H677 H 0.36157 0.5813 0.3094 0.0
H678 H 0.42572 0.65638 0.32956 0.0
H679 H 0.43164 0.66438 0.27884 0.0
H680 H 0.40488 0.56897 0.34316 0.0
H681 H 0.36579 0.66752 0.38765 0.0
H682 H 0.36347 0.65785 0.35015 0.0
H683 H 0.39644 0.6766 0.36623 0.0
C684 C 0.38021 0.60416 0.274 0.0
C685 C 0.40031 0.62721 0.26525 0.0
C686 C 0.37648 0.59983 0.3029 0.0
C687 C 0.39273 0.61863 0.32326 0.0
C688 C 0.41233 0.64215 0.31428 0.0
H689 H 0.47987 0.60774 0.4712 0.0
H690 H 0.44943 0.62873 0.43723 0.0
C691 C 0.416 0.64648 0.2854 0.0
C692 C 0.3927 0.61108 0.35347 0.0
H693 H 0.39085 0.64007 0.42082 0.0
C694 C 0.40098 0.58413 0.36017 0.0
C695 C 0.38784 0.63106 0.37556 0.0
C696 C 0.37761 0.65976 0.36953 0.0
C697 C 0.40654 0.57737 0.38825 0.0
C698 C 0.40292 0.59788 0.41038 0.0
C699 C 0.39325 0.62429 0.40384 0.0
C700 C 0.41374 0.59376 0.43943 0.0
C701 C 0.41838 0.54926 0.39373 0.0
C702 C 0.40243 0.56899 0.45416 0.0
C703 C 0.41994 0.55691 0.47351 0.0
C704 C 0.4485 0.56992 0.47847 0.0
C705 C 0.45779 0.59753 0.46778 0.0
C706 C 0.44041 0.60948 0.44826 0.0
H707 H 0.42381 0.53804 0.37385 0.0
H708 H 0.43803 0.55368 0.40765 0.0
H709 H 0.40221 0.534 0.40461 0.0
H710 H 0.38173 0.55676 0.44778 0.0
H711 H 0.41252 0.53543 0.48139 0.0
H712 H 0.07044 0.50844 0.70979 0.0
H713 H 0.07321 0.51528 0.76167 0.0
H714 H 0.10073 0.43058 0.76892 0.0
H715 H 0.09824 0.42395 0.71697 0.0
H716 H 0.04026 0.47701 0.79711 0.0
H717 H 0.1568 0.48459 0.82384 0.0
H718 H 0.14325 0.49073 0.78871 0.0
H719 H 0.14134 0.45412 0.80094 0.0
C720 C 0.07761 0.49164 0.72256 0.0
C721 C 0.08431 0.46581 0.70981 0.0
C722 C 0.07916 0.49549 0.75205 0.0
C723 C 0.08748 0.47356 0.76907 0.0
C724 C 0.09483 0.44799 0.75616 0.0
H725 H 0.03208 0.48035 0.94237 0.0
H726 H 0.05114 0.45608 0.90162 0.0
C727 C 0.09328 0.44416 0.72662 0.0
C728 C 0.08575 0.47644 0.80025 0.0
H729 H 0.1257 0.48509 0.86227 0.0
C730 C 0.05887 0.47848 0.81141 0.0
C731 C 0.11014 0.47837 0.81872 0.0
C732 C 0.13961 0.47707 0.80757 0.0
C733 C 0.05574 0.48332 0.8405 0.0
C734 C 0.08014 0.48544 0.85909 0.0
C735 C 0.107 0.48276 0.84802 0.0
C736 C 0.07839 0.49509 0.8891 0.0
C737 C 0.02656 0.48776 0.85084 0.0
C738 C 0.08979 0.52404 0.89712 0.0
C739 C 0.07922 0.53771 0.92051 0.0
C740 C 0.05729 0.52252 0.9361 0.0
C741 C 0.04928 0.49233 0.93082 0.0
C742 C 0.05991 0.47857 0.90736 0.0
H743 H 0.01118 0.49013 0.8331 0.0
H744 H 0.01755 0.46859 0.86301 0.0
H745 H 0.02827 0.5076 0.8651 0.0
H746 H 0.10414 0.53712 0.88337 0.0
H747 H 0.08542 0.56112 0.92409 0.0
H748 H 0.796 0.97895 0.89727 0.0
H749 H 0.7525 -0.00527 0.91648 0.0
H750 H 0.7491 0.92738 0.97804 0.0
H751 H 0.79275 0.9119 0.95901 0.0
H752 H 0.69678 0.9658 0.92353 0.0
H753 H 0.74963 0.00163 0.02769 0.0
H754 H 0.76954 0.99318 0.99715 0.0
H755 H 0.75187 0.9642 0.01774 0.0
C756 C 0.78564 0.9673 0.91463 0.0
C757 C 0.79749 0.94415 0.92662 0.0
C758 C 0.76088 0.97637 0.92567 0.0
C759 C 0.74775 0.96266 0.9491 0.0
C760 C 0.75911 0.93875 0.96037 0.0
H761 H 0.60312 0.97222 0.05271 0.0
H762 H 0.6482 0.96536 0.03134 0.0
C763 C 0.78385 0.92969 0.94932 0.0
C764 C 0.72257 0.97361 0.96208 0.0
H765 H 0.69898 -0.00012 0.02441 0.0
C766 C 0.69732 0.97351 0.94551 0.0
C767 C 0.72327 0.9839 0.99073 0.0
C768 C 0.7501 0.98605 0.00933 0.0
C769 C 0.67246 0.98213 0.95711 0.0
C770 C 0.67297 0.99179 0.98598 0.0
C771 C 0.69848 0.99257 1.00231 0.0
C772 C 0.6467 -0.00138 1.00034 0.0
C773 C 0.6455 0.9796 0.93865 0.0
C774 C 0.63115 0.02055 0.99091 0.0
C775 C 0.60512 0.02463 1.00328 0.0
C776 C 0.5942 0.00687 0.02531 0.0
C777 C 0.61074 0.98621 0.0357 0.0
C778 C 0.6366 0.98221 0.02344 0.0
H779 H 0.64687 0.96583 0.91913 0.0
H780 H 0.62651 0.97005 0.95041 0.0
H781 H 0.64211 0.00175 0.93214 0.0
H782 H 0.63879 0.03404 0.97358 0.0
H783 H 0.59293 0.04067 0.99469 0.0
H784 H 0.7208 0.12874 0.38899 0.0
H785 H 0.76407 0.11221 0.40855 0.0
H786 H 0.73936 0.13304 0.49319 0.0
H787 H 0.69578 0.14944 0.47378 0.0
H788 H 0.80692 0.15096 0.44598 0.0
H789 H 0.76063 0.04679 0.49448 0.0
H790 H 0.74227 0.0625 0.46599 0.0
H791 H 0.74383 0.07891 0.50104 0.0
C792 C 0.72424 0.12924 0.4118 0.0
C793 C 0.70482 0.14029 0.42986 0.0
C794 C 0.74907 0.12 0.42292 0.0
C795 C 0.75481 0.12133 0.45229 0.0
C796 C 0.73518 0.13165 0.47047 0.0
H797 H 0.90777 0.05971 0.53054 0.0
H798 H 0.86489 0.08476 0.52778 0.0
C799 C 0.71041 0.14111 0.45935 0.0
C800 C 0.78214 0.11331 0.46357 0.0
H801 H 0.81084 0.05929 0.49703 0.0
C802 C 0.80779 0.13113 0.45748 0.0
C803 C 0.78313 0.0876 0.47881 0.0
C804 C 0.75609 0.06764 0.48547 0.0
C805 C 0.83451 0.12333 0.46531 0.0
C806 C 0.83559 0.09682 0.47921 0.0
C807 C 0.80993 0.07972 0.48657 0.0
C808 C 0.86266 0.08423 0.48189 0.0
C809 C 0.86144 0.14309 0.45788 0.0
C810 C 0.87545 0.07583 0.45712 0.0
C811 C 0.89936 0.06144 0.45865 0.0
C812 C 0.91122 0.05518 0.48501 0.0
C813 C 0.89912 0.06446 0.50999 0.0
C814 C 0.87466 0.07861 0.50842 0.0
H815 H 0.85746 0.16606 0.4557 0.0
H816 H 0.8788 0.14268 0.47419 0.0
H817 H 0.86896 0.1354 0.43727 0.0
H818 H 0.86635 0.07958 0.43647 0.0
H819 H 0.90833 0.0547 0.43903 0.0
H820 H 0.33101 0.60574 0.13698 0.0
H821 H 0.28467 0.59039 0.11171 0.0
H822 H 0.25109 0.66337 0.1509 0.0
H823 H 0.29699 0.6786 0.17635 0.0
H824 H 0.22074 0.58366 0.13513 0.0
H825 H 0.25267 0.67103 0.05884 0.0
H826 H 0.27856 0.65474 0.07962 0.0
H827 H 0.25886 0.68087 0.09596 0.0
C828 C 0.31345 0.61796 0.14077 0.0
C829 C 0.31758 0.64355 0.15825 0.0
C830 C 0.28714 0.60928 0.12626 0.0
C831 C 0.26485 0.6261 0.12921 0.0
C832 C 0.26828 0.65038 0.14821 0.0
H833 H 0.09677 0.64087 0.0756 0.0
H834 H 0.14748 0.6484 0.09044 0.0
C835 C 0.29444 0.65903 0.16265 0.0
C836 C 0.23874 0.62007 0.11087 0.0
H837 H 0.20403 0.64847 0.05626 0.0
C838 C 0.21719 0.59737 0.11753 0.0
C839 C 0.23439 0.63823 0.08809 0.0
C840 C 0.25736 0.66252 0.07994 0.0
C841 C 0.19069 0.59314 0.10258 0.0
C842 C 0.18602 0.61192 0.08037 0.0
C843 C 0.20791 0.63404 0.07318 0.0
C844 C 0.15746 0.61063 0.06653 0.0
C845 C 0.16731 0.5696 0.11143 0.0
C846 C 0.14692 0.58785 0.04697 0.0
C847 C 0.11802 0.58372 0.03812 0.0
C848 C 0.0994 0.60213 0.04913 0.0
C849 C 0.11068 0.62636 0.06684 0.0
C850 C 0.13956 0.63063 0.0754 0.0
H851 H 0.17379 0.55818 0.13038 0.0
H852 H 0.14768 0.57931 0.11621 0.0
H853 H 0.16174 0.55317 0.09372 0.0
H854 H 0.16061 0.57232 0.03989 0.0
H855 H 0.10984 0.56474 0.02463 0.0
H856 H 0.18486 0.41635 0.6459 0.0
H857 H 0.23549 0.43143 0.63553 0.0
H858 H 0.21018 0.4847 0.56846 0.0
H859 H 0.15965 0.4704 0.57965 0.0
H860 H 0.26126 0.42102 0.58695 0.0
H861 H 0.27228 0.54115 0.60881 0.0
H862 H 0.24179 0.51625 0.61975 0.0
H863 H 0.24392 0.52744 0.58363 0.0
C864 C 0.19033 0.43177 0.62941 0.0
C865 C 0.16876 0.44263 0.61375 0.0
C866 C 0.2191 0.44024 0.62337 0.0
C867 C 0.22663 0.45944 0.60141 0.0
C868 C 0.20494 0.47045 0.58593 0.0
H869 H 0.39849 0.52171 0.54038 0.0
H870 H 0.3466 0.5044 0.5393 0.0
C871 C 0.17617 0.46226 0.59222 0.0
C872 C 0.25708 0.46659 0.59388 0.0
H873 H 0.31175 0.52313 0.58823 0.0
C874 C 0.27226 0.44337 0.58717 0.0
C875 C 0.27136 0.49577 0.59397 0.0
C876 C 0.25661 0.52158 0.60217 0.0
C877 C 0.30147 0.44852 0.58113 0.0
C878 C 0.31576 0.47759 0.58175 0.0
C879 C 0.30048 0.50088 0.5875 0.0
C880 C 0.3472 0.4842 0.57998 0.0
C881 C 0.31705 0.42291 0.5746 0.0
C882 C 0.36449 0.47809 0.60299 0.0
C883 C 0.39382 0.48823 0.60385 0.0
C884 C 0.40638 0.50442 0.58157 0.0
C885 C 0.38932 0.5091 0.55773 0.0
C886 C 0.35977 0.49934 0.55712 0.0
H887 H 0.30194 0.4027 0.56865 0.0
H888 H 0.33206 0.42791 0.5571 0.0
H889 H 0.32985 0.41854 0.59366 0.0
H890 H 0.35506 0.46666 0.62092 0.0
H891 H 0.40653 0.48422 0.6224 0.0
H892 H 0.93923 0.85063 0.88316 0.0
H893 H 0.95737 0.80985 0.90588 0.0
H894 H 0.87978 0.79284 0.95253 0.0
H895 H 0.86094 0.83282 0.92904 0.0
H896 H 0.96867 0.80147 0.96208 0.0
H897 H 0.88531 0.712 0.91965 0.0
H898 H 0.88952 0.74829 0.90583 0.0
H899 H 0.87145 0.74103 0.93845 0.0
C900 C 0.92569 0.8379 0.89781 0.0
C901 C 0.89838 0.84502 0.90393 0.0
C902 C 0.93628 0.8147 0.91106 0.0
C903 C 0.91987 0.79785 0.93071 0.0
C904 C 0.89271 0.80501 0.93707 0.0
H905 H 0.95708 0.63863 0.01518 0.0
H906 H 0.93671 0.68378 0.00612 0.0
C907 C 0.88207 0.82818 0.92378 0.0
C908 C 0.93146 0.77319 0.94474 0.0
H909 H 0.91927 0.69901 0.95278 0.0
C910 C 0.95779 0.77909 0.96007 0.0
C911 C 0.91725 0.74391 0.94246 0.0
C912 C 0.88945 0.73577 0.92552 0.0
C913 C 0.97037 0.75665 0.97282 0.0
C914 C 0.95657 0.72728 0.96986 0.0
C915 C 0.92984 0.72148 0.95525 0.0
C916 C 0.9707 0.702 0.97915 0.0
C917 C -0.00161 0.76468 0.98937 0.0
C918 C 0.99687 0.69739 0.96763 0.0
C919 C 0.00848 0.67179 0.97282 0.0
C920 C 0.99426 0.64997 0.98967 0.0
C921 C 0.96883 0.6552 1.00254 0.0
C922 C 0.95703 0.68088 0.99711 0.0
H923 H 0.00099 0.78768 0.99787 0.0
H924 H 3e-05 0.74996 0.0073 0.0
H925 H 0.01638 0.76272 0.9751 0.0
H926 H 0.00764 0.71287 0.95328 0.0
H927 H 0.02795 0.66835 0.96236 0.0
H928 H 0.40884 0.74175 0.21152 0.0
H929 H 0.41902 0.79464 0.20369 0.0
H930 H 0.39021 0.77881 0.11627 0.0
H931 H 0.37999 0.72636 0.12394 0.0
H932 H 0.4547 0.82543 0.16475 0.0
H933 H 0.34179 0.83997 0.14441 0.0
H934 H 0.35176 0.80811 0.16116 0.0
H935 H 0.3515 0.81028 0.12313 0.0
C936 C 0.405 0.74966 0.19061 0.0
C937 C 0.39332 0.73016 0.16839 0.0
C938 C 0.41057 0.77977 0.18625 0.0
C939 C 0.40443 0.79059 0.15968 0.0
C940 C 0.39412 0.77094 0.1372 0.0
H941 H 0.43795 0.9111 0.04333 0.0
H942 H 0.4165 0.87565 0.07649 0.0
C943 C 0.38849 0.74102 0.14153 0.0
C944 C 0.40957 0.82229 0.15463 0.0
H945 H 0.37774 0.87551 0.12357 0.0
C946 C 0.43782 0.83684 0.1566 0.0
C947 C 0.38737 0.83708 0.14432 0.0
C948 C 0.35636 0.82311 0.14342 0.0
C949 C 0.44491 0.86479 0.14575 0.0
C950 C 0.42302 0.87846 0.13302 0.0
C951 C 0.39443 0.86495 0.13339 0.0
C952 C 0.43018 0.90294 0.11395 0.0
C953 C 0.47604 0.87833 0.1456 0.0
C954 C 0.44362 0.93064 0.12406 0.0
C955 C 0.45581 0.95114 0.10499 0.0
C956 C 0.45483 0.94382 0.07582 0.0
C957 C 0.43918 0.91711 0.06577 0.0
C958 C 0.42686 0.8969 0.08467 0.0
H959 H 0.49055 0.86389 0.15476 0.0
H960 H 0.48243 0.88311 0.12357 0.0
H961 H 0.47913 0.89936 0.15814 0.0
H962 H 0.44611 0.9357 0.14663 0.0
H963 H 0.46785 0.97162 0.11318 0.0
H964 H 0.1078 0.36895 0.55645 0.0
H965 H 0.08952 0.31972 0.53708 0.0
H966 H 0.04372 0.30062 0.61368 0.0
H967 H 0.0619 0.34973 0.63318 0.0
H968 H 0.09802 0.26711 0.5595 0.0
H969 H 0.98195 0.27521 0.55217 0.0
H970 H 0.00912 0.30701 0.55701 0.0
H971 H -0.00212 0.28523 0.58673 0.0
C972 C 0.09377 0.35426 0.56912 0.0
C973 C 0.08612 0.36323 0.59626 0.0
C974 C 0.08325 0.32625 0.55798 0.0
C975 C 0.06481 0.30678 0.57371 0.0
C976 C 0.05725 0.31561 0.60086 0.0
H977 H 0.00494 0.12882 0.584 0.0
H978 H 0.01117 0.18222 0.58443 0.0
C979 C 0.06769 0.34364 0.61198 0.0
C980 C 0.05483 0.27662 0.56249 0.0
H981 H 0.99468 0.22674 0.54914 0.0
C982 C 0.07545 0.25839 0.55666 0.0
C983 C 0.02536 0.26539 0.55889 0.0
C984 C 0.00229 0.28431 0.56377 0.0
C985 C 0.06737 0.22873 0.54876 0.0
C986 C 0.03787 0.21725 0.54604 0.0
C987 C 0.01725 0.23574 0.5509 0.0
C988 C 0.02831 0.18538 0.54241 0.0
C989 C 0.09043 0.20951 0.54508 0.0
C990 C 0.03438 0.16947 0.51796 0.0
C991 C 0.0305 0.13877 0.51757 0.0
C992 C 0.02064 0.12398 0.54169 0.0
C993 C 0.01237 0.1399 0.5651 0.0
C994 C 0.016 0.17036 0.56539 0.0
H995 H 0.11201 0.22096 0.55201 0.0
H996 H 0.0856 0.18938 0.55739 0.0
H997 H 0.09118 0.20272 0.52239 0.0
H998 H 0.04368 0.1808 0.49993 0.0
H999 H 0.03739 0.12683 0.49951 0.0
H1000 H 0.64847 0.26478 0.48566 0.0
H1001 H 0.62283 0.30016 0.51042 0.0
H1002 H 0.55268 0.28114 0.44887 0.0
H1003 H 0.57844 0.24567 0.42406 0.0
H1004 H 0.60699 0.3496 0.48244 0.0
H1005 H 0.51266 0.28155 0.5265 0.0
H1006 H 0.54457 0.2667 0.51664 0.0
H1007 H 0.51908 0.27403 0.4898 0.0
C1008 C 0.62724 0.26766 0.47792 0.0
C1009 C 0.61514 0.25246 0.45328 0.0
C1010 C 0.61268 0.28788 0.49198 0.0
C1011 C 0.58573 0.29306 0.48169 0.0
C1012 C 0.5732 0.27707 0.4575 0.0
H1013 H 0.47531 0.42167 0.50133 0.0
H1014 H 0.49591 0.37647 0.49549 0.0
C1015 C 0.58787 0.25689 0.44333 0.0
C1016 C 0.57225 0.3173 0.49446 0.0
H1017 H 0.51251 0.33308 0.52753 0.0
C1018 C 0.58651 0.34601 0.49266 0.0
C1019 C 0.54544 0.3125 0.50752 0.0
C1020 C 0.52955 0.28203 0.5105 0.0
C1021 C 0.57426 0.3702 0.50267 0.0
C1022 C 0.54734 0.36549 0.51571 0.0
C1023 C 0.53329 0.33667 0.51793 0.0
C1024 C 0.53221 0.39034 0.52426 0.0
C1025 C 0.58963 0.4006 0.49784 0.0
C1026 C 0.54477 0.41253 0.54378 0.0
C1027 C 0.53295 0.43856 0.5472 0.0
C1028 C 0.50834 0.44262 0.53121 0.0
C1029 C 0.49434 0.41919 0.51388 0.0
C1030 C 0.50614 0.39333 0.51047 0.0
H1031 H 0.60667 0.40039 0.48207 0.0
H1032 H 0.57436 0.41508 0.4903 0.0
H1033 H 0.5999 0.41023 0.5181 0.0
H1034 H 0.56461 0.41042 0.55513 0.0
H1035 H 0.54439 0.45631 0.56043 0.0
loop_
_geom_bond_atom_site_label_1
_geom_bond_atom_site_label_2
_geom_bond_distance
_geom_bond_site_symmetry_2
_ccdc_geom_bond_type
H0 C3 0.929 . S
H1 C6 0.929 . S
H2 C8 0.930 . S
C3 H0 0.929 . S
C3 C4 1.398 . S
C3 C5 1.396 . S
C4 C3 1.398 . S
C4 C8 1.407 . S
C5 C3 1.396 . S
C5 C6 1.394 . S
C6 H1 0.929 . S
C6 C5 1.394 . S
C6 C7 1.382 . S
C7 C6 1.382 . S
C7 C8 1.392 . S
C7 N9 1.420 . S
C8 H2 0.930 . S
C8 C4 1.407 . S
C8 C7 1.392 . S
N9 C7 1.420 . S
N9 C10 1.244 . S
C10 N9 1.244 . S
H11 C14 0.929 . S
H12 C17 0.929 . S
H13 C19 0.930 . S
C14 H11 0.929 . S
C14 C15 1.398 . S
C14 C16 1.396 . S
C15 C14 1.398 . S
C15 C19 1.407 . S
C16 C14 1.396 . S
C16 C17 1.394 . S
C17 H12 0.929 . S
C17 C16 1.394 . S
C17 C18 1.382 . S
C18 C17 1.382 . S
C18 C19 1.392 . S
C18 N20 1.420 . S
C19 H13 0.930 . S
C19 C15 1.407 . S
C19 C18 1.392 . S
N20 C18 1.420 . S
N20 C21 1.244 . S
C21 N20 1.244 . S
H22 C25 0.929 . S
H23 C28 0.929 . S
H24 C30 0.930 . S
C25 H22 0.929 . S
C25 C26 1.398 . S
C25 C27 1.396 . S
C26 C25 1.398 . S
C26 C30 1.407 . S
C27 C25 1.396 . S
C27 C28 1.394 . S
C28 H23 0.929 . S
C28 C27 1.394 . S
C28 C29 1.382 . S
C29 C28 1.382 . S
C29 C30 1.392 . S
C29 N31 1.420 . S
C30 H24 0.930 . S
C30 C26 1.407 . S
C30 C29 1.392 . S
N31 C29 1.420 . S
N31 C32 1.244 . S
C32 N31 1.244 . S
H33 C36 0.929 . S
H34 C39 0.929 . S
H35 C41 0.930 . S
C36 H33 0.929 . S
C36 C37 1.398 . S
C36 C38 1.396 . S
C37 C36 1.398 . S
C37 C41 1.407 . S
C38 C36 1.396 . S
C38 C39 1.394 . S
C39 H34 0.929 . S
C39 C38 1.394 . S
C39 C40 1.382 . S
C40 C39 1.382 . S
C40 C41 1.392 . S
C40 N42 1.420 . S
C41 H35 0.930 . S
C41 C37 1.407 . S
C41 C40 1.392 . S
N42 C40 1.420 . S
N42 C43 1.244 . S
C43 N42 1.244 . S
H44 C47 0.929 . S
H45 C50 0.929 . S
H46 C52 0.930 . S
C47 H44 0.929 . S
C47 C48 1.398 . S
C47 C49 1.396 . S
C48 C47 1.398 . S
C48 C52 1.407 . S
C49 C47 1.396 . S
C49 C50 1.394 . S
C50 H45 0.929 . S
C50 C49 1.394 . S
C50 C51 1.382 . S
C51 C50 1.382 . S
C51 C52 1.392 . S
C51 N53 1.420 . S
C52 H46 0.930 . S
C52 C48 1.407 . S
C52 C51 1.392 . S
N53 C51 1.420 . S
N53 C54 1.244 . S
C54 N53 1.244 . S
H55 C58 0.929 . S
H56 C61 0.929 . S
H57 C63 0.930 . S
C58 H55 0.929 . S
C58 C59 1.398 . S
C58 C60 1.396 . S
C59 C58 1.398 . S
C59 C63 1.407 . S
C60 C58 1.396 . S
C60 C61 1.394 . S
C61 H56 0.929 . S
C61 C60 1.394 . S
C61 C62 1.382 . S
C62 C61 1.382 . S
C62 C63 1.392 . S
C62 N64 1.420 . S
C63 H57 0.930 . S
C63 C59 1.407 . S
C63 C62 1.392 . S
N64 C62 1.420 . S
N64 C65 1.244 . S
C65 N64 1.244 . S
H66 C69 0.929 . S
H67 C72 0.929 . S
H68 C74 0.930 . S
C69 H66 0.929 . S
C69 C70 1.398 . S
C69 C71 1.396 . S
C70 C69 1.398 . S
C70 C74 1.407 . S
C71 C69 1.396 . S
C71 C72 1.394 . S
C72 H67 0.929 . S
C72 C71 1.394 . S
C72 C73 1.382 . S
C73 C72 1.382 . S
C73 C74 1.392 . S
C73 N75 1.420 . S
C74 H68 0.930 . S
C74 C70 1.407 . S
C74 C73 1.392 . S
N75 C73 1.420 . S
N75 C76 1.244 . S
C76 N75 1.244 . S
H77 C80 0.929 . S
H78 C83 0.929 . S
H79 C85 0.930 . S
C80 H77 0.929 . S
C80 C81 1.398 . S
C80 C82 1.396 . S
C81 C80 1.398 . S
C81 C85 1.407 . S
C82 C80 1.396 . S
C82 C83 1.394 . S
C83 H78 0.929 . S
C83 C82 1.394 . S
C83 C84 1.382 . S
C84 C83 1.382 . S
C84 C85 1.392 . S
C84 N86 1.420 . S
C85 H79 0.930 . S
C85 C81 1.407 . S
C85 C84 1.392 . S
N86 C84 1.420 . S
N86 C87 1.244 . S
C87 N86 1.244 . S
O88 Mg89 1.990 . S
O88 C102 1.253 1_455 S
Mg89 O88 1.990 . S
Mg89 O92 2.180 . S
Mg89 O93 2.117 . S
Mg89 O107 2.030 . S
O90 Mg91 2.072 1_655 S
O90 C102 1.260 . S
Mg91 O90 2.072 1_455 S
Mg91 O92 2.099 . S
Mg91 O94 2.079 . S
Mg91 O95 2.072 1_455 S
Mg91 O97 2.099 1_445 S
Mg91 O108 2.079 . S
O92 Mg89 2.180 . S
O92 Mg91 2.099 . S
O92 C103 1.279 . S
O93 Mg89 2.117 . S
O93 C103 1.250 . S
O94 Mg91 2.079 . S
O94 C104 1.264 . S
O95 Mg91 2.072 1_655 S
O95 C105 1.260 . S
Mg96 O97 2.180 . S
Mg96 O98 2.030 1_565 S
Mg96 O99 1.990 1_565 S
Mg96 O100 2.117 . S
O97 Mg91 2.099 1_665 S
O97 Mg96 2.180 . S
O97 C106 1.279 . S
O98 Mg96 2.030 1_545 S
O98 C104 1.248 1_655 S
O99 Mg96 1.990 1_545 S
O99 C105 1.253 . S
O100 Mg96 2.117 . S
O100 C106 1.250 . S
C101 O107 1.248 . S
C101 O108 1.264 . S
C102 O88 1.253 1_655 S
C102 O90 1.260 . S
C103 O92 1.279 . S
C103 O93 1.250 . S
C104 O94 1.264 . S
C104 O98 1.248 1_455 S
C105 O95 1.260 . S
C105 O99 1.253 . S
C106 O97 1.279 . S
C106 O100 1.250 . S
O107 Mg89 2.030 . S
O107 C101 1.248 . S
O108 Mg91 2.079 . S
O108 C101 1.264 . S
O109 Mg110 1.990 . S
O109 C123 1.253 . S
Mg110 O109 1.990 . S
Mg110 O113 2.180 . S
Mg110 O114 2.117 . S
Mg110 O128 2.030 . S
O111 Mg112 2.072 . S
O111 C123 1.260 . S
Mg112 O111 2.072 . S
Mg112 O113 2.099 . S
Mg112 O115 2.079 . S
Mg112 O116 2.072 1_554 S
Mg112 O118 2.099 1_545 S
Mg112 O129 2.079 . S
O113 Mg110 2.180 . S
O113 Mg112 2.099 . S
O113 C124 1.279 . S
O114 Mg110 2.117 . S
O114 C124 1.250 . S
O115 Mg112 2.079 . S
O115 C125 1.264 . S
O116 Mg112 2.072 1_556 S
O116 C126 1.260 . S
Mg117 O118 2.180 . S
Mg117 O119 2.030 . S
Mg117 O120 1.990 1_554 S
Mg117 O121 2.117 . S
O118 Mg112 2.099 1_565 S
O118 Mg117 2.180 . S
O118 C127 1.279 . S
O119 Mg117 2.030 . S
O119 C125 1.248 1_565 S
O120 Mg117 1.990 1_556 S
O120 C126 1.253 1_565 S
O121 Mg117 2.117 . S
O121 C127 1.250 . S
C122 O128 1.248 . S
C122 O129 1.264 . S
C123 O109 1.253 . S
C123 O111 1.260 . S
C124 O113 1.279 . S
C124 O114 1.250 . S
C125 O115 1.264 . S
C125 O119 1.248 1_545 S
C126 O116 1.260 . S
C126 O120 1.253 1_545 S
C127 O118 1.279 . S
C127 O121 1.250 . S
O128 Mg110 2.030 . S
O128 C122 1.248 . S
O129 Mg112 2.079 . S
O129 C122 1.264 . S
O130 Mg131 1.990 . S
O130 C144 1.253 . S
Mg131 O130 1.990 . S
Mg131 O134 2.180 . S
Mg131 O135 2.117 . S
Mg131 O149 2.030 . S
O132 Mg133 2.072 . S
O132 C144 1.260 . S
Mg133 O132 2.072 . S
Mg133 O134 2.099 . S
Mg133 O136 2.079 . S
Mg133 O137 2.072 . S
Mg133 O139 2.099 . S
Mg133 O150 2.079 . S
O134 Mg131 2.180 . S
O134 Mg133 2.099 . S
O134 C145 1.279 . S
O135 Mg131 2.117 . S
O135 C145 1.250 . S
O136 Mg133 2.079 . S
O136 C146 1.264 . S
O137 Mg133 2.072 . S
O137 C147 1.260 . S
Mg138 O139 2.180 . S
Mg138 O140 2.030 . S
Mg138 O141 1.990 . S
Mg138 O142 2.117 . S
O139 Mg133 2.099 . S
O139 Mg138 2.180 . S
O139 C148 1.279 . S
O140 Mg138 2.030 . S
O140 C146 1.248 . S
O141 Mg138 1.990 . S
O141 C147 1.253 . S
O142 Mg138 2.117 . S
O142 C148 1.250 . S
C143 O149 1.248 . S
C143 O150 1.264 . S
C144 O130 1.253 . S
C144 O132 1.260 . S
C145 O134 1.279 . S
C145 O135 1.250 . S
C146 O136 1.264 . S
C146 O140 1.248 . S
C147 O137 1.260 . S
C147 O141 1.253 . S
C148 O139 1.279 . S
C148 O142 1.250 . S
O149 Mg131 2.030 . S
O149 C143 1.248 . S
O150 Mg133 2.079 . S
O150 C143 1.264 . S
O151 Mg152 1.990 . S
O151 C165 1.253 . S
Mg152 O151 1.990 . S
Mg152 O155 2.180 . S
Mg152 O156 2.117 1_455 S
Mg152 O170 2.030 . S
O153 Mg154 2.072 . S
O153 C165 1.260 . S
Mg154 O153 2.072 . S
Mg154 O155 2.099 . S
Mg154 O157 2.079 . S
Mg154 O158 2.072 1_455 S
Mg154 O160 2.099 1_554 S
Mg154 O171 2.079 . S
O155 Mg152 2.180 . S
O155 Mg154 2.099 . S
O155 C166 1.279 1_455 S
O156 Mg152 2.117 1_655 S
O156 C166 1.250 . S
O157 Mg154 2.079 . S
O157 C167 1.264 1_454 S
O158 Mg154 2.072 1_655 S
O158 C168 1.260 1_554 S
Mg159 O160 2.180 1_655 S
Mg159 O161 2.030 . S
Mg159 O162 1.990 . S
Mg159 O163 2.117 1_655 S
O160 Mg154 2.099 1_556 S
O160 Mg159 2.180 1_455 S
O160 C169 1.279 . S
O161 Mg159 2.030 . S
O161 C167 1.248 . S
O162 Mg159 1.990 . S
O162 C168 1.253 . S
O163 Mg159 2.117 1_455 S
O163 C169 1.250 . S
C164 O170 1.248 . S
C164 O171 1.264 . S
C165 O151 1.253 . S
C165 O153 1.260 . S
C166 O155 1.279 1_655 S
C166 O156 1.250 . S
C167 O157 1.264 1_656 S
C167 O161 1.248 . S
C168 O158 1.260 1_556 S
C168 O162 1.253 . S
C169 O160 1.279 . S
C169 O163 1.250 . S
O170 Mg152 2.030 . S
O170 C164 1.248 . S
O171 Mg154 2.079 . S
O171 C164 1.264 . S
H172 C180 0.929 . S
H173 C182 0.930 . S
H174 C184 0.930 . S
H175 C187 0.929 . S
H176 C190 0.930 . S
H177 C192 0.960 . S
H178 C192 0.960 . S
H179 C192 0.960 . S
C180 H172 0.929 . S
C180 C181 1.377 . S
C180 C182 1.384 . S
C181 C180 1.377 . S
C181 C187 1.390 . S
C182 H173 0.930 . S
C182 C180 1.384 . S
C182 C183 1.372 . S
C183 C182 1.372 . S
C183 C184 1.400 . S
C183 C188 1.490 . S
C184 H174 0.930 . S
C184 C183 1.400 . S
C184 C187 1.386 . S
H185 C201 0.930 . S
H186 C202 0.931 . S
C187 H175 0.929 . S
C187 C181 1.390 . S
C187 C184 1.386 . S
C188 C183 1.490 . S
C188 C190 1.395 . S
C188 C191 1.403 . S
H189 C195 0.930 . S
C190 H176 0.930 . S
C190 C188 1.395 . S
C190 C193 1.403 . S
C191 C188 1.403 . S
C191 C192 1.524 . S
C191 C195 1.400 . S
C192 H177 0.960 . S
C192 H178 0.960 . S
C192 H179 0.960 . S
C192 C191 1.524 . S
C193 C190 1.403 . S
C193 C194 1.392 . S
C193 C197 1.495 . S
C194 C193 1.392 . S
C194 C195 1.385 . S
C194 C196 1.478 . S
C195 H189 0.930 . S
C195 C191 1.400 . S
C195 C194 1.385 . S
C196 C194 1.478 . S
C196 C198 1.381 . S
C196 C202 1.383 . S
C197 C193 1.495 . S
C197 H203 0.959 . S
C197 H204 0.961 . S
C197 H205 0.960 . S
C198 C196 1.381 . S
C198 C199 1.394 . S
C198 H206 0.930 . S
C199 C198 1.394 . S
C199 C200 1.383 . S
C199 H207 0.929 . S
C200 C199 1.383 . S
C200 C201 1.377 . S
C201 H185 0.930 . S
C201 C200 1.377 . S
C201 C202 1.379 . S
C202 H186 0.931 . S
C202 C196 1.383 . S
C202 C201 1.379 . S
H203 C197 0.959 . S
H204 C197 0.961 . S
H205 C197 0.960 . S
H206 C198 0.930 . S
H207 C199 0.929 . S
H208 C216 0.929 . S
H209 C218 0.930 . S
H210 C220 0.930 . S
H211 C223 0.929 . S
H212 C226 0.930 1_545 S
H213 C228 0.960 . S
H214 C228 0.960 . S
H215 C228 0.960 . S
C216 H208 0.929 . S
C216 C217 1.377 . S
C216 C218 1.384 . S
C217 C216 1.377 . S
C217 C223 1.390 . S
C218 H209 0.930 . S
C218 C216 1.384 . S
C218 C219 1.372 . S
C219 C218 1.372 . S
C219 C220 1.400 . S
C219 C224 1.490 . S
C220 H210 0.930 . S
C220 C219 1.400 . S
C220 C223 1.386 . S
H221 C237 0.930 . S
H222 C238 0.931 . S
C223 H211 0.929 . S
C223 C217 1.390 . S
C223 C220 1.386 . S
C224 C219 1.490 . S
C224 C226 1.395 . S
C224 C227 1.403 . S
H225 C231 0.930 . S
C226 H212 0.930 1_565 S
C226 C224 1.395 . S
C226 C229 1.403 1_565 S
C227 C224 1.403 . S
C227 C228 1.524 . S
C227 C231 1.400 . S
C228 H213 0.960 . S
C228 H214 0.960 . S
C228 H215 0.960 . S
C228 C227 1.524 . S
C229 C226 1.403 1_545 S
C229 C230 1.392 1_545 S
C229 C233 1.495 . S
C230 C229 1.392 1_565 S
C230 C231 1.385 . S
C230 C232 1.478 . S
C231 H225 0.930 . S
C231 C227 1.400 . S
C231 C230 1.385 . S
C232 C230 1.478 . S
C232 C234 1.381 . S
C232 C238 1.383 . S
C233 C229 1.495 . S
C233 H239 0.959 . S
C233 H240 0.961 . S
C233 H241 0.960 . S
C234 C232 1.381 . S
C234 C235 1.394 1_565 S
C234 H242 0.930 . S
C235 C234 1.394 1_545 S
C235 C236 1.383 . S
C235 H243 0.929 . S
C236 C235 1.383 . S
C236 C237 1.377 . S
C237 H221 0.930 . S
C237 C236 1.377 . S
C237 C238 1.379 1_545 S
C238 H222 0.931 . S
C238 C232 1.383 . S
C238 C237 1.379 1_565 S
H239 C233 0.959 . S
H240 C233 0.961 . S
H241 C233 0.960 . S
H242 C234 0.930 . S
H243 C235 0.929 . S
H244 C252 0.929 . S
H245 C254 0.930 . S
H246 C256 0.930 . S
H247 C259 0.929 . S
H248 C262 0.930 . S
H249 C264 0.960 . S
H250 C264 0.960 . S
H251 C264 0.960 . S
C252 H244 0.929 . S
C252 C253 1.377 . S
C252 C254 1.384 . S
C253 C252 1.377 . S
C253 C259 1.390 . S
C254 H245 0.930 . S
C254 C252 1.384 . S
C254 C255 1.372 . S
C255 C254 1.372 . S
C255 C256 1.400 . S
C255 C260 1.490 . S
C256 H246 0.930 . S
C256 C255 1.400 . S
C256 C259 1.386 . S
H257 C273 0.930 . S
H258 C274 0.931 . S
C259 H247 0.929 . S
C259 C253 1.390 . S
C259 C256 1.386 . S
C260 C255 1.490 . S
C260 C262 1.395 . S
C260 C263 1.403 . S
H261 C267 0.930 . S
C262 H248 0.930 . S
C262 C260 1.395 . S
C262 C265 1.403 . S
C263 C260 1.403 . S
C263 C264 1.524 . S
C263 C267 1.400 . S
C264 H249 0.960 . S
C264 H250 0.960 . S
C264 H251 0.960 . S
C264 C263 1.524 . S
C265 C262 1.403 . S
C265 C266 1.392 . S
C265 C269 1.495 . S
C266 C265 1.392 . S
C266 C267 1.385 . S
C266 C268 1.478 . S
C267 H261 0.930 . S
C267 C263 1.400 . S
C267 C266 1.385 . S
C268 C266 1.478 . S
C268 C270 1.381 . S
C268 C274 1.383 . S
C269 C265 1.495 . S
C269 H275 0.959 . S
C269 H276 0.961 . S
C269 H277 0.960 . S
C270 C268 1.381 . S
C270 C271 1.394 . S
C270 H278 0.930 . S
C271 C270 1.394 . S
C271 C272 1.383 . S
C271 H279 0.929 . S
C272 C271 1.383 . S
C272 C273 1.377 . S
C273 H257 0.930 . S
C273 C272 1.377 . S
C273 C274 1.379 . S
C274 H258 0.931 . S
C274 C268 1.383 . S
C274 C273 1.379 . S
H275 C269 0.959 . S
H276 C269 0.961 . S
H277 C269 0.960 . S
H278 C270 0.930 . S
H279 C271 0.929 . S
H280 C288 0.929 . S
H281 C290 0.930 . S
H282 C292 0.930 . S
H283 C295 0.929 . S
H284 C298 0.930 . S
H285 C300 0.960 . S
H286 C300 0.960 . S
H287 C300 0.960 . S
C288 H280 0.929 . S
C288 C289 1.377 . S
C288 C290 1.384 . S
C289 C288 1.377 . S
C289 C295 1.390 . S
C290 H281 0.930 . S
C290 C288 1.384 . S
C290 C291 1.372 . S
C291 C290 1.372 . S
C291 C292 1.400 . S
C291 C296 1.490 . S
C292 H282 0.930 . S
C292 C291 1.400 . S
C292 C295 1.386 . S
H293 C309 0.930 . S
H294 C310 0.931 . S
C295 H283 0.929 . S
C295 C289 1.390 . S
C295 C292 1.386 . S
C296 C291 1.490 . S
C296 C298 1.395 . S
C296 C299 1.403 . S
H297 C303 0.930 . S
C298 H284 0.930 . S
C298 C296 1.395 . S
C298 C301 1.403 . S
C299 C296 1.403 . S
C299 C300 1.524 . S
C299 C303 1.400 . S
C300 H285 0.960 . S
C300 H286 0.960 . S
C300 H287 0.960 . S
C300 C299 1.524 . S
C301 C298 1.403 . S
C301 C302 1.392 . S
C301 C305 1.495 . S
C302 C301 1.392 . S
C302 C303 1.385 . S
C302 C304 1.478 . S
C303 H297 0.930 . S
C303 C299 1.400 . S
C303 C302 1.385 . S
C304 C302 1.478 . S
C304 C306 1.381 . S
C304 C310 1.383 . S
C305 C301 1.495 . S
C305 H311 0.959 . S
C305 H312 0.961 . S
C305 H313 0.960 . S
C306 C304 1.381 . S
C306 C307 1.394 . S
C306 H314 0.940 . S
C307 C306 1.394 . S
C307 C308 1.383 . S
C307 H315 0.929 1_655 S
C308 C307 1.383 . S
C308 C309 1.377 . S
C309 H293 0.930 . S
C309 C308 1.377 . S
C309 C310 1.379 . S
C310 H294 0.931 . S
C310 C304 1.383 . S
C310 C309 1.379 . S
H311 C305 0.959 . S
H312 C305 0.961 . S
H313 C305 0.960 . S
H314 C306 0.940 . S
H315 C307 0.929 1_455 S
H316 C324 0.929 . S
H317 C326 0.930 . S
H318 C328 0.930 . S
H319 C331 0.929 . S
H320 C334 0.930 . S
H321 C336 0.960 . S
H322 C336 0.960 . S
H323 C336 0.960 . S
C324 H316 0.929 . S
C324 C325 1.377 . S
C324 C326 1.384 . S
C325 C324 1.377 . S
C325 C331 1.390 . S
C326 H317 0.930 . S
C326 C324 1.384 . S
C326 C327 1.372 . S
C327 C326 1.372 . S
C327 C328 1.400 . S
C327 C332 1.490 . S
C328 H318 0.930 . S
C328 C327 1.400 . S
C328 C331 1.386 . S
H329 C345 0.930 . S
H330 C346 0.931 . S
C331 H319 0.929 . S
C331 C325 1.390 . S
C331 C328 1.386 . S
C332 C327 1.490 . S
C332 C334 1.395 . S
C332 C335 1.403 . S
H333 C339 0.930 . S
C334 H320 0.930 . S
C334 C332 1.395 . S
C334 C337 1.403 . S
C335 C332 1.403 . S
C335 C336 1.524 . S
C335 C339 1.400 . S
C336 H321 0.960 . S
C336 H322 0.960 . S
C336 H323 0.960 . S
C336 C335 1.524 . S
C337 C334 1.403 . S
C337 C338 1.392 . S
C337 C341 1.495 . S
C338 C337 1.392 . S
C338 C339 1.385 . S
C338 C340 1.478 . S
C339 H333 0.930 . S
C339 C335 1.400 . S
C339 C338 1.385 . S
C340 C338 1.478 . S
C340 C342 1.381 . S
C340 C346 1.383 . S
C341 C337 1.495 . S
C341 H347 0.959 . S
C341 H348 0.961 . S
C341 H349 0.960 . S
C342 C340 1.381 . S
C342 C343 1.394 . S
C342 H350 0.930 . S
C343 C342 1.394 . S
C343 C344 1.383 . S
C343 H351 0.929 . S
C344 C343 1.383 . S
C344 C345 1.377 . S
C345 H329 0.930 . S
C345 C344 1.377 . S
C345 C346 1.379 . S
C346 H330 0.931 . S
C346 C340 1.383 . S
C346 C345 1.379 . S
H347 C341 0.959 . S
H348 C341 0.961 . S
H349 C341 0.960 . S
H350 C342 0.930 . S
H351 C343 0.929 . S
H352 C360 0.929 . S
H353 C362 0.930 . S
H354 C364 0.930 . S
H355 C367 0.929 . S
H356 C370 0.930 . S
H357 C372 0.960 . S
H358 C372 0.960 . S
H359 C372 0.960 . S
C360 H352 0.929 . S
C360 C361 1.377 . S
C360 C362 1.384 . S
C361 C360 1.377 . S
C361 C367 1.390 . S
C362 H353 0.930 . S
C362 C360 1.384 . S
C362 C363 1.372 . S
C363 C362 1.372 . S
C363 C364 1.400 . S
C363 C368 1.490 . S
C364 H354 0.930 . S
C364 C363 1.400 . S
C364 C367 1.386 . S
H365 C381 0.930 . S
H366 C382 0.931 . S
C367 H355 0.929 . S
C367 C361 1.390 . S
C367 C364 1.386 . S
C368 C363 1.490 . S
C368 C370 1.395 . S
C368 C371 1.403 . S
H369 C375 0.930 . S
C370 H356 0.930 . S
C370 C368 1.395 . S
C370 C373 1.403 . S
C371 C368 1.403 . S
C371 C372 1.524 . S
C371 C375 1.400 . S
C372 H357 0.960 . S
C372 H358 0.960 . S
C372 H359 0.960 . S
C372 C371 1.524 . S
C373 C370 1.403 . S
C373 C374 1.392 . S
C373 C377 1.495 . S
C374 C373 1.392 . S
C374 C375 1.385 . S
C374 C376 1.478 . S
C375 H369 0.930 . S
C375 C371 1.400 . S
C375 C374 1.385 . S
C376 C374 1.478 . S
C376 C378 1.381 . S
C376 C382 1.383 1_565 S
C377 C373 1.495 . S
C377 H383 0.959 1_565 S
C377 H384 0.961 1_565 S
C377 H385 0.960 . S
C378 C376 1.381 . S
C378 C379 1.394 . S
C378 H386 0.930 . S
C379 C378 1.394 . S
C379 C380 1.383 . S
C379 H387 0.929 . S
C380 C379 1.383 . S
C380 C381 1.377 1_565 S
C381 H365 0.930 . S
C381 C380 1.377 1_545 S
C381 C382 1.379 . S
C382 H366 0.931 . S
C382 C376 1.383 1_545 S
C382 C381 1.379 . S
H383 C377 0.959 1_545 S
H384 C377 0.961 1_545 S
H385 C377 0.960 . S
H386 C378 0.930 . S
H387 C379 0.929 . S
H388 C396 0.929 . S
H389 C398 0.930 . S
H390 C400 0.930 . S
H391 C403 0.929 . S
H392 C406 0.930 . S
H393 C408 0.960 . S
H394 C408 0.960 . S
H395 C408 0.960 . S
C396 H388 0.929 . S
C396 C397 1.377 . S
C396 C398 1.384 . S
C397 C396 1.377 . S
C397 C403 1.390 . S
C398 H389 0.930 . S
C398 C396 1.384 . S
C398 C399 1.372 . S
C399 C398 1.372 . S
C399 C400 1.400 . S
C399 C404 1.490 . S
C400 H390 0.930 . S
C400 C399 1.400 . S
C400 C403 1.386 . S
H401 C417 0.930 . S
H402 C418 0.931 1_554 S
C403 H391 0.929 . S
C403 C397 1.390 . S
C403 C400 1.386 . S
C404 C399 1.490 . S
C404 C406 1.395 . S
C404 C407 1.403 . S
H405 C411 0.930 . S
C406 H392 0.930 . S
C406 C404 1.395 . S
C406 C409 1.403 . S
C407 C404 1.403 . S
C407 C408 1.524 . S
C407 C411 1.400 . S
C408 H393 0.960 . S
C408 H394 0.960 . S
C408 H395 0.960 . S
C408 C407 1.524 . S
C409 C406 1.403 . S
C409 C410 1.392 . S
C409 C413 1.495 . S
C410 C409 1.392 . S
C410 C411 1.385 . S
C410 C412 1.478 . S
C411 H405 0.930 . S
C411 C407 1.400 . S
C411 C410 1.385 . S
C412 C410 1.478 . S
C412 C414 1.381 . S
C412 C418 1.383 . S
C413 C409 1.495 . S
C413 H419 0.959 . S
C413 H420 0.961 . S
C413 H421 0.960 . S
C414 C412 1.381 . S
C414 C415 1.394 . S
C414 H422 0.930 . S
C415 C414 1.394 . S
C415 C416 1.383 . S
C415 H423 0.929 . S
C416 C415 1.383 . S
C416 C417 1.377 1_556 S
C417 H401 0.930 . S
C417 C416 1.377 1_554 S
C417 C418 1.379 1_554 S
C418 H402 0.931 1_556 S
C418 C412 1.383 . S
C418 C417 1.379 1_556 S
H419 C413 0.959 . S
H420 C413 0.961 . S
H421 C413 0.960 . S
H422 C414 0.930 . S
H423 C415 0.929 . S
H424 C432 0.929 . S
H425 C434 0.930 . S
H426 C436 0.930 . S
H427 C439 0.929 . S
H428 C442 0.930 . S
H429 C444 0.960 . S
H430 C444 0.960 . S
H431 C444 0.960 . S
C432 H424 0.929 . S
C432 C433 1.377 . S
C432 C434 1.384 . S
C433 C432 1.377 . S
C433 C439 1.390 . S
C434 H425 0.930 . S
C434 C432 1.384 . S
C434 C435 1.372 . S
C435 C434 1.372 . S
C435 C436 1.400 . S
C435 C440 1.490 . S
C436 H426 0.930 . S
C436 C435 1.400 . S
C436 C439 1.386 . S
H437 C453 0.930 . S
H438 C454 0.931 . S
C439 H427 0.929 . S
C439 C433 1.390 . S
C439 C436 1.386 . S
C440 C435 1.490 . S
C440 C442 1.395 . S
C440 C443 1.403 . S
H441 C447 0.930 . S
C442 H428 0.930 . S
C442 C440 1.395 . S
C442 C445 1.403 . S
C443 C440 1.403 . S
C443 C444 1.524 . S
C443 C447 1.400 . S
C444 H429 0.960 . S
C444 H430 0.960 . S
C444 H431 0.960 . S
C444 C443 1.524 . S
C445 C442 1.403 . S
C445 C446 1.392 . S
C445 C449 1.495 . S
C446 C445 1.392 . S
C446 C447 1.385 . S
C446 C448 1.478 . S
C447 H441 0.930 . S
C447 C443 1.400 . S
C447 C446 1.385 . S
C448 C446 1.478 . S
C448 C450 1.381 . S
C448 C454 1.383 . S
C449 C445 1.495 . S
C449 H455 0.959 . S
C449 H456 0.961 . S
C449 H457 0.960 . S
C450 C448 1.381 . S
C450 C451 1.394 . S
C450 H458 0.930 . S
C451 C450 1.394 . S
C451 C452 1.383 . S
C451 H459 0.929 . S
C452 C451 1.383 . S
C452 C453 1.377 . S
C453 H437 0.930 . S
C453 C452 1.377 . S
C453 C454 1.379 . S
C454 H438 0.931 . S
C454 C448 1.383 . S
C454 C453 1.379 . S
H455 C449 0.959 . S
H456 C449 0.961 . S
H457 C449 0.960 . S
H458 C450 0.930 . S
H459 C451 0.929 . S
H460 C468 0.929 . S
H461 C470 0.930 . S
H462 C472 0.930 . S
H463 C475 0.929 . S
H464 C478 0.930 . S
H465 C480 0.960 . S
H466 C480 0.960 . S
H467 C480 0.960 . S
C468 H460 0.929 . S
C468 C469 1.377 . S
C468 C470 1.384 . S
C469 C468 1.377 . S
C469 C475 1.390 . S
C470 H461 0.930 . S
C470 C468 1.384 . S
C470 C471 1.372 . S
C471 C470 1.372 . S
C471 C472 1.400 . S
C471 C476 1.490 . S
C472 H462 0.930 . S
C472 C471 1.400 . S
C472 C475 1.386 . S
H473 C489 0.930 . S
H474 C490 0.931 . S
C475 H463 0.929 . S
C475 C469 1.390 . S
C475 C472 1.386 . S
C476 C471 1.490 . S
C476 C478 1.395 . S
C476 C479 1.403 . S
H477 C483 0.930 . S
C478 H464 0.930 . S
C478 C476 1.395 . S
C478 C481 1.403 . S
C479 C476 1.403 . S
C479 C480 1.524 . S
C479 C483 1.400 . S
C480 H465 0.960 . S
C480 H466 0.960 . S
C480 H467 0.960 . S
C480 C479 1.524 . S
C481 C478 1.403 . S
C481 C482 1.392 . S
C481 C485 1.495 . S
C482 C481 1.392 . S
C482 C483 1.385 . S
C482 C484 1.478 . S
C483 H477 0.930 . S
C483 C479 1.400 . S
C483 C482 1.385 . S
C484 C482 1.478 . S
C484 C486 1.381 . S
C484 C490 1.383 . S
C485 C481 1.495 . S
C485 H491 0.959 . S
C485 H492 0.961 . S
C485 H493 0.960 . S
C486 C484 1.381 . S
C486 C487 1.394 . S
C486 H494 0.930 . S
C487 C486 1.394 . S
C487 C488 1.383 . S
C487 H495 0.929 . S
C488 C487 1.383 . S
C488 C489 1.377 . S
C489 H473 0.930 . S
C489 C488 1.377 . S
C489 C490 1.379 . S
C490 H474 0.931 . S
C490 C484 1.383 . S
C490 C489 1.379 . S
H491 C485 0.959 . S
H492 C485 0.961 . S
H493 C485 0.960 . S
H494 C486 0.930 . S
H495 C487 0.929 . S
H496 C504 0.929 . S
H497 C506 0.930 . S
H498 C508 0.930 . S
H499 C511 0.929 . S
H500 C514 0.930 . S
H501 C516 0.960 . S
H502 C516 0.960 . S
H503 C516 0.960 . S
C504 H496 0.929 . S
C504 C505 1.377 . S
C504 C506 1.384 . S
C505 C504 1.377 . S
C505 C511 1.390 . S
C506 H497 0.930 . S
C506 C504 1.384 . S
C506 C507 1.372 . S
C507 C506 1.372 . S
C507 C508 1.400 . S
C507 C512 1.490 . S
C508 H498 0.930 . S
C508 C507 1.400 . S
C508 C511 1.386 . S
H509 C525 0.930 . S
H510 C526 0.931 . S
C511 H499 0.929 . S
C511 C505 1.390 . S
C511 C508 1.386 . S
C512 C507 1.490 . S
C512 C514 1.395 . S
C512 C515 1.403 . S
H513 C519 0.930 . S
C514 H500 0.930 . S
C514 C512 1.395 . S
C514 C517 1.403 . S
C515 C512 1.403 . S
C515 C516 1.524 . S
C515 C519 1.400 . S
C516 H501 0.960 . S
C516 H502 0.960 . S
C516 H503 0.960 . S
C516 C515 1.524 . S
C517 C514 1.403 . S
C517 C518 1.392 . S
C517 C521 1.495 . S
C518 C517 1.392 . S
C518 C519 1.385 . S
C518 C520 1.478 . S
C519 H513 0.930 . S
C519 C515 1.400 . S
C519 C518 1.385 . S
C520 C518 1.478 . S
C520 C522 1.381 1_556 S
C520 C526 1.383 . S
C521 C517 1.495 . S
C521 H527 0.959 . S
C521 H528 0.961 . S
C521 H529 0.991 . S
C522 C520 1.381 1_554 S
C522 C523 1.394 . S
C522 H530 0.930 . S
C523 C522 1.394 . S
C523 C524 1.383 1_554 S
C523 H531 0.929 . S
C524 C523 1.383 1_556 S
C524 C525 1.377 . S
C525 H509 0.930 . S
C525 C524 1.377 . S
C525 C526 1.379 . S
C526 H510 0.931 . S
C526 C520 1.383 . S
C526 C525 1.379 . S
H527 C521 0.959 . S
H528 C521 0.961 . S
H529 C521 0.991 . S
H530 C522 0.930 . S
H531 C523 0.929 . S
H532 C540 0.929 . S
H533 C542 0.930 . S
H534 C544 0.930 . S
H535 C547 0.929 . S
H536 C550 0.930 . S
H537 C552 0.960 . S
H538 C552 0.960 . S
H539 C552 0.960 . S
C540 H532 0.929 . S
C540 C541 1.377 . S
C540 C542 1.384 . S
C541 C540 1.377 . S
C541 C547 1.390 . S
C542 H533 0.930 . S
C542 C540 1.384 . S
C542 C543 1.372 . S
C543 C542 1.372 . S
C543 C544 1.400 . S
C543 C548 1.490 . S
C544 H534 0.930 . S
C544 C543 1.400 . S
C544 C547 1.386 . S
H545 C561 0.930 . S
H546 C562 0.931 . S
C547 H535 0.929 . S
C547 C541 1.390 . S
C547 C544 1.386 . S
C548 C543 1.490 . S
C548 C550 1.395 . S
C548 C551 1.403 . S
H549 C555 0.930 . S
C550 H536 0.930 . S
C550 C548 1.395 . S
C550 C553 1.403 . S
C551 C548 1.403 . S
C551 C552 1.524 . S
C551 C555 1.400 . S
C552 H537 0.960 . S
C552 H538 0.960 . S
C552 H539 0.960 . S
C552 C551 1.524 . S
C553 C550 1.403 . S
C553 C554 1.392 . S
C553 C557 1.495 . S
C554 C553 1.392 . S
C554 C555 1.385 . S
C554 C556 1.478 . S
C555 H549 0.930 . S
C555 C551 1.400 . S
C555 C554 1.385 . S
C556 C554 1.478 . S
C556 C558 1.381 . S
C556 C562 1.383 . S
C557 C553 1.495 . S
C557 H563 0.959 . S
C557 H564 0.961 . S
C557 H565 0.960 . S
C558 C556 1.381 . S
C558 C559 1.394 . S
C558 H566 0.930 . S
C559 C558 1.394 . S
C559 C560 1.383 . S
C559 H567 0.929 . S
C560 C559 1.383 . S
C560 C561 1.377 . S
C561 H545 0.930 . S
C561 C560 1.377 . S
C561 C562 1.379 . S
C562 H546 0.931 . S
C562 C556 1.383 . S
C562 C561 1.379 . S
H563 C557 0.959 . S
H564 C557 0.961 . S
H565 C557 0.960 . S
H566 C558 0.930 . S
H567 C559 0.929 . S
H568 C576 0.929 . S
H569 C578 0.930 . S
H570 C580 0.930 . S
H571 C583 0.929 . S
H572 C586 0.930 . S
H573 C588 0.960 . S
H574 C588 0.960 . S
H575 C588 0.960 . S
C576 H568 0.929 . S
C576 C577 1.377 . S
C576 C578 1.384 . S
C577 C576 1.377 . S
C577 C583 1.390 . S
C578 H569 0.930 . S
C578 C576 1.384 . S
C578 C579 1.372 . S
C579 C578 1.372 . S
C579 C580 1.400 . S
C579 C584 1.490 . S
C580 H570 0.930 . S
C580 C579 1.400 . S
C580 C583 1.386 . S
H581 C597 0.930 . S
H582 C598 0.931 . S
C583 H571 0.929 . S
C583 C577 1.390 . S
C583 C580 1.386 . S
C584 C579 1.490 . S
C584 C586 1.395 . S
C584 C587 1.403 . S
H585 C591 0.930 . S
C586 H572 0.930 . S
C586 C584 1.395 . S
C586 C589 1.403 . S
C587 C584 1.403 . S
C587 C588 1.524 . S
C587 C591 1.400 . S
C588 H573 0.960 . S
C588 H574 0.960 . S
C588 H575 0.960 . S
C588 C587 1.524 . S
C589 C586 1.403 . S
C589 C590 1.392 . S
C589 C593 1.495 . S
C590 C589 1.392 . S
C590 C591 1.385 . S
C590 C592 1.478 . S
C591 H585 0.930 . S
C591 C587 1.400 . S
C591 C590 1.385 . S
C592 C590 1.478 . S
C592 C594 1.381 . S
C592 C598 1.383 . S
C593 C589 1.495 . S
C593 H599 0.959 . S
C593 H600 0.961 . S
C593 H601 0.960 . S
C594 C592 1.381 . S
C594 C595 1.394 . S
C594 H602 0.930 . S
C595 C594 1.394 . S
C595 C596 1.383 . S
C595 H603 0.929 . S
C596 C595 1.383 . S
C596 C597 1.377 . S
C597 H581 0.930 . S
C597 C596 1.377 . S
C597 C598 1.379 . S
C598 H582 0.931 . S
C598 C592 1.383 . S
C598 C597 1.379 . S
H599 C593 0.959 . S
H600 C593 0.961 . S
H601 C593 0.960 . S
H602 C594 0.930 . S
H603 C595 0.929 . S
H604 C612 0.929 . S
H605 C614 0.930 . S
H606 C616 0.930 . S
H607 C619 0.929 . S
H608 C622 0.930 . S
H609 C624 0.960 . S
H610 C624 0.960 . S
H611 C624 0.960 . S
C612 H604 0.929 . S
C612 C613 1.377 . S
C612 C614 1.384 . S
C613 C612 1.377 . S
C613 C619 1.390 . S
C614 H605 0.930 . S
C614 C612 1.384 . S
C614 C615 1.372 . S
C615 C614 1.372 . S
C615 C616 1.400 . S
C615 C620 1.490 . S
C616 H606 0.930 . S
C616 C615 1.400 . S
C616 C619 1.386 . S
H617 C633 0.930 . S
H618 C634 0.931 . S
C619 H607 0.929 . S
C619 C613 1.390 . S
C619 C616 1.386 . S
C620 C615 1.490 . S
C620 C622 1.395 . S
C620 C623 1.403 . S
H621 C627 0.930 . S
C622 H608 0.930 . S
C622 C620 1.395 . S
C622 C625 1.403 . S
C623 C620 1.403 . S
C623 C624 1.524 . S
C623 C627 1.400 . S
C624 H609 0.960 . S
C624 H610 0.960 . S
C624 H611 0.960 . S
C624 C623 1.524 . S
C625 C622 1.403 . S
C625 C626 1.392 . S
C625 C629 1.495 1_655 S
C626 C625 1.392 . S
C626 C627 1.385 . S
C626 C628 1.478 . S
C627 H621 0.930 . S
C627 C623 1.400 . S
C627 C626 1.385 . S
C628 C626 1.478 . S
C628 C630 1.381 1_565 S
C628 C634 1.383 . S
C629 C625 1.495 1_455 S
C629 H635 0.959 1_565 S
C629 H636 0.961 . S
C629 H637 0.960 1_565 S
C630 C628 1.381 1_545 S
C630 C631 1.394 . S
C630 H638 0.930 . S
C631 C630 1.394 . S
C631 C632 1.383 1_545 S
C631 H639 0.929 . S
C632 C631 1.383 1_565 S
C632 C633 1.377 . S
C633 H617 0.930 . S
C633 C632 1.377 . S
C633 C634 1.379 . S
C634 H618 0.931 . S
C634 C628 1.383 . S
C634 C633 1.379 . S
H635 C629 0.959 1_545 S
H636 C629 0.961 . S
H637 C629 0.960 1_545 S
H638 C630 0.930 . S
H639 C631 0.929 . S
H640 C648 0.929 . S
H641 C650 0.930 . S
H642 C652 0.930 . S
H643 C655 0.929 . S
H644 C658 0.930 . S
H645 C660 0.960 . S
H646 C660 0.960 . S
H647 C660 0.960 . S
C648 H640 0.929 . S
C648 C649 1.377 . S
C648 C650 1.384 . S
C649 C648 1.377 . S
C649 C655 1.390 . S
C650 H641 0.930 . S
C650 C648 1.384 . S
C650 C651 1.372 . S
C651 C650 1.372 . S
C651 C652 1.400 . S
C651 C656 1.490 . S
C652 H642 0.930 . S
C652 C651 1.400 . S
C652 C655 1.386 . S
H653 C669 0.930 . S
H654 C670 0.931 . S
C655 H643 0.929 . S
C655 C649 1.390 . S
C655 C652 1.386 . S
C656 C651 1.490 . S
C656 C658 1.395 . S
C656 C659 1.403 . S
H657 C663 0.930 . S
C658 H644 0.930 . S
C658 C656 1.395 . S
C658 C661 1.403 . S
C659 C656 1.403 . S
C659 C660 1.524 . S
C659 C663 1.400 . S
C660 H645 0.960 . S
C660 H646 0.960 . S
C660 H647 0.960 . S
C660 C659 1.524 . S
C661 C658 1.403 . S
C661 C662 1.392 . S
C661 C665 1.495 . S
C662 C661 1.392 . S
C662 C663 1.385 . S
C662 C664 1.478 . S
C663 H657 0.930 . S
C663 C659 1.400 . S
C663 C662 1.385 . S
C664 C662 1.478 . S
C664 C666 1.381 . S
C664 C670 1.383 . S
C665 C661 1.495 . S
C665 H671 0.959 . S
C665 H672 0.961 . S
C665 H673 0.960 . S
C666 C664 1.381 . S
C666 C667 1.394 . S
C666 H674 0.930 . S
C667 C666 1.394 . S
C667 C668 1.383 . S
C667 H675 0.929 . S
C668 C667 1.383 . S
C668 C669 1.377 . S
C669 H653 0.930 . S
C669 C668 1.377 . S
C669 C670 1.379 . S
C670 H654 0.931 . S
C670 C664 1.383 . S
C670 C669 1.379 . S
H671 C665 0.959 . S
H672 C665 0.961 . S
H673 C665 0.960 . S
H674 C666 0.930 . S
H675 C667 0.929 . S
H676 C684 0.929 . S
H677 C686 0.930 . S
H678 C688 0.930 . S
H679 C691 0.929 . S
H680 C694 0.930 . S
H681 C696 0.960 . S
H682 C696 0.960 . S
H683 C696 0.960 . S
C684 H676 0.929 . S
C684 C685 1.377 . S
C684 C686 1.384 . S
C685 C684 1.377 . S
C685 C691 1.390 . S
C686 H677 0.930 . S
C686 C684 1.384 . S
C686 C687 1.372 . S
C687 C686 1.372 . S
C687 C688 1.400 . S
C687 C692 1.490 . S
C688 H678 0.930 . S
C688 C687 1.400 . S
C688 C691 1.386 . S
H689 C705 0.930 . S
H690 C706 0.931 . S
C691 H679 0.929 . S
C691 C685 1.390 . S
C691 C688 1.386 . S
C692 C687 1.490 . S
C692 C694 1.395 . S
C692 C695 1.403 . S
H693 C699 0.930 . S
C694 H680 0.930 . S
C694 C692 1.395 . S
C694 C697 1.403 . S
C695 C692 1.403 . S
C695 C696 1.524 . S
C695 C699 1.400 . S
C696 H681 0.960 . S
C696 H682 0.960 . S
C696 H683 0.960 . S
C696 C695 1.524 . S
C697 C694 1.403 . S
C697 C698 1.392 . S
C697 C701 1.495 . S
C698 C697 1.392 . S
C698 C699 1.385 . S
C698 C700 1.478 . S
C699 H693 0.930 . S
C699 C695 1.400 . S
C699 C698 1.385 . S
C700 C698 1.478 . S
C700 C702 1.381 . S
C700 C706 1.383 . S
C701 C697 1.495 . S
C701 H707 0.959 . S
C701 H708 0.961 . S
C701 H709 0.960 . S
C702 C700 1.381 . S
C702 C703 1.394 . S
C702 H710 0.930 . S
C703 C702 1.394 . S
C703 C704 1.383 . S
C703 H711 0.929 . S
C704 C703 1.383 . S
C704 C705 1.377 . S
C705 H689 0.930 . S
C705 C704 1.377 . S
C705 C706 1.379 . S
C706 H690 0.931 . S
C706 C700 1.383 . S
C706 C705 1.379 . S
H707 C701 0.959 . S
H708 C701 0.961 . S
H709 C701 0.960 . S
H710 C702 0.930 . S
H711 C703 0.929 . S
H712 C720 0.929 . S
H713 C722 0.930 . S
H714 C724 0.930 . S
H715 C727 0.929 . S
H716 C730 0.930 . S
H717 C732 0.960 . S
H718 C732 0.960 . S
H719 C732 0.960 . S
C720 H712 0.929 . S
C720 C721 1.377 . S
C720 C722 1.384 . S
C721 C720 1.377 . S
C721 C727 1.390 . S
C722 H713 0.930 . S
C722 C720 1.384 . S
C722 C723 1.372 . S
C723 C722 1.372 . S
C723 C724 1.400 . S
C723 C728 1.490 . S
C724 H714 0.930 . S
C724 C723 1.400 . S
C724 C727 1.386 . S
H725 C741 0.930 . S
H726 C742 0.931 . S
C727 H715 0.929 . S
C727 C721 1.390 . S
C727 C724 1.386 . S
C728 C723 1.490 . S
C728 C730 1.395 . S
C728 C731 1.403 . S
H729 C735 0.930 . S
C730 H716 0.930 . S
C730 C728 1.395 . S
C730 C733 1.403 . S
C731 C728 1.403 . S
C731 C732 1.524 . S
C731 C735 1.400 . S
C732 H717 0.960 . S
C732 H718 0.960 . S
C732 H719 0.960 . S
C732 C731 1.524 . S
C733 C730 1.403 . S
C733 C734 1.392 . S
C733 C737 1.495 . S
C734 C733 1.392 . S
C734 C735 1.385 . S
C734 C736 1.478 . S
C735 H729 0.930 . S
C735 C731 1.400 . S
C735 C734 1.385 . S
C736 C734 1.478 . S
C736 C738 1.381 . S
C736 C742 1.383 . S
C737 C733 1.495 . S
C737 H743 0.959 1_455 S
C737 H744 0.961 1_455 S
C737 H745 0.960 . S
C738 C736 1.381 . S
C738 C739 1.394 . S
C738 H746 0.930 . S
C739 C738 1.394 . S
C739 C740 1.383 . S
C739 H747 0.929 . S
C740 C739 1.383 . S
C740 C741 1.377 . S
C741 H725 0.930 . S
C741 C740 1.377 . S
C741 C742 1.379 . S
C742 H726 0.931 . S
C742 C736 1.383 . S
C742 C741 1.379 . S
H743 C737 0.959 1_655 S
H744 C737 0.961 1_655 S
H745 C737 0.960 . S
H746 C738 0.930 . S
H747 C739 0.929 . S
H748 C756 0.929 . S
H749 C758 0.930 . S
H750 C760 0.930 . S
H751 C763 0.929 . S
H752 C766 0.930 . S
H753 C768 0.960 . S
H754 C768 0.960 . S
H755 C768 0.960 . S
C756 H748 0.929 . S
C756 C757 1.377 . S
C756 C758 1.384 . S
C757 C756 1.377 . S
C757 C763 1.390 . S
C758 H749 0.930 . S
C758 C756 1.384 . S
C758 C759 1.372 . S
C759 C758 1.372 . S
C759 C760 1.400 . S
C759 C764 1.490 . S
C760 H750 0.930 . S
C760 C759 1.400 . S
C760 C763 1.386 . S
H761 C777 0.930 . S
H762 C778 0.936 . S
C763 H751 0.929 . S
C763 C757 1.390 . S
C763 C760 1.386 . S
C764 C759 1.490 . S
C764 C766 1.395 . S
C764 C767 1.403 . S
H765 C771 0.930 1_554 S
C766 H752 0.930 . S
C766 C764 1.395 . S
C766 C769 1.403 . S
C767 C764 1.403 . S
C767 C768 1.524 1_556 S
C767 C771 1.400 . S
C768 H753 0.960 . S
C768 H754 0.960 . S
C768 H755 0.960 . S
C768 C767 1.524 1_554 S
C769 C766 1.403 . S
C769 C770 1.392 . S
C769 C773 1.495 . S
C770 C769 1.392 . S
C770 C771 1.385 . S
C770 C772 1.478 . S
C771 H765 0.930 1_556 S
C771 C767 1.400 . S
C771 C770 1.385 . S
C772 C770 1.478 . S
C772 C774 1.381 1_565 S
C772 C778 1.371 1_556 S
C773 C769 1.495 . S
C773 H779 0.959 . S
C773 H780 0.961 . S
C773 H781 0.960 . S
C774 C772 1.381 1_545 S
C774 C775 1.394 . S
C774 H782 0.930 . S
C775 C774 1.394 . S
C775 C776 1.383 1_556 S
C775 H783 0.929 . S
C776 C775 1.383 1_554 S
C776 C777 1.377 1_545 S
C777 H761 0.930 . S
C777 C776 1.377 1_565 S
C777 C778 1.386 . S
C778 H762 0.936 . S
C778 C772 1.371 1_554 S
C778 C777 1.386 . S
H779 C773 0.959 . S
H780 C773 0.961 . S
H781 C773 0.960 . S
H782 C774 0.930 . S
H783 C775 0.929 . S
H784 C792 0.929 . S
H785 C794 0.930 . S
H786 C796 0.930 . S
H787 C799 0.929 . S
H788 C802 0.930 . S
H789 C804 0.960 . S
H790 C804 0.960 . S
H791 C804 0.960 . S
C792 H784 0.929 . S
C792 C793 1.377 . S
C792 C794 1.384 . S
C793 C792 1.377 . S
C793 C799 1.390 . S
C794 H785 0.930 . S
C794 C792 1.384 . S
C794 C795 1.372 . S
C795 C794 1.372 . S
C795 C796 1.400 . S
C795 C800 1.490 . S
C796 H786 0.930 . S
C796 C795 1.400 . S
C796 C799 1.386 . S
H797 C813 0.930 . S
H798 C814 0.931 . S
C799 H787 0.929 . S
C799 C793 1.390 . S
C799 C796 1.386 . S
C800 C795 1.490 . S
C800 C802 1.395 . S
C800 C803 1.403 . S
H801 C807 0.930 . S
C802 H788 0.930 . S
C802 C800 1.395 . S
C802 C805 1.403 . S
C803 C800 1.403 . S
C803 C804 1.524 . S
C803 C807 1.400 . S
C804 H789 0.960 . S
C804 H790 0.960 . S
C804 H791 0.960 . S
C804 C803 1.524 . S
C805 C802 1.403 . S
C805 C806 1.392 . S
C805 C809 1.495 . S
C806 C805 1.392 . S
C806 C807 1.385 . S
C806 C808 1.478 . S
C807 H801 0.930 . S
C807 C803 1.400 . S
C807 C806 1.385 . S
C808 C806 1.478 . S
C808 C810 1.381 . S
C808 C814 1.383 . S
C809 C805 1.495 . S
C809 H815 0.959 . S
C809 H816 0.961 . S
C809 H817 0.960 . S
C810 C808 1.381 . S
C810 C811 1.394 . S
C810 H818 0.930 . S
C811 C810 1.394 . S
C811 C812 1.383 . S
C811 H819 0.929 . S
C812 C811 1.383 . S
C812 C813 1.377 . S
C813 H797 0.930 . S
C813 C812 1.377 . S
C813 C814 1.379 . S
C814 H798 0.931 . S
C814 C808 1.383 . S
C814 C813 1.379 . S
H815 C809 0.959 . S
H816 C809 0.961 . S
H817 C809 0.960 . S
H818 C810 0.930 . S
H819 C811 0.929 . S
H820 C828 0.929 . S
H821 C830 0.930 . S
H822 C832 0.930 . S
H823 C835 0.929 . S
H824 C838 0.930 . S
H825 C840 0.960 . S
H826 C840 0.960 . S
H827 C840 0.960 . S
C828 H820 0.929 . S
C828 C829 1.377 . S
C828 C830 1.384 . S
C829 C828 1.377 . S
C829 C835 1.390 . S
C830 H821 0.930 . S
C830 C828 1.384 . S
C830 C831 1.372 . S
C831 C830 1.372 . S
C831 C832 1.400 . S
C831 C836 1.490 . S
C832 H822 0.930 . S
C832 C831 1.400 . S
C832 C835 1.386 . S
H833 C849 0.930 . S
H834 C850 0.931 . S
C835 H823 0.929 . S
C835 C829 1.390 . S
C835 C832 1.386 . S
C836 C831 1.490 . S
C836 C838 1.395 . S
C836 C839 1.403 . S
H837 C843 0.930 . S
C838 H824 0.930 . S
C838 C836 1.395 . S
C838 C841 1.403 . S
C839 C836 1.403 . S
C839 C840 1.524 . S
C839 C843 1.400 . S
C840 H825 0.960 . S
C840 H826 0.960 . S
C840 H827 0.960 . S
C840 C839 1.524 . S
C841 C838 1.403 . S
C841 C842 1.392 . S
C841 C845 1.495 . S
C842 C841 1.392 . S
C842 C843 1.385 . S
C842 C844 1.478 . S
C843 H837 0.930 . S
C843 C839 1.400 . S
C843 C842 1.385 . S
C844 C842 1.478 . S
C844 C846 1.381 . S
C844 C850 1.383 . S
C845 C841 1.495 . S
C845 H851 0.959 . S
C845 H852 0.961 . S
C845 H853 0.960 . S
C846 C844 1.381 . S
C846 C847 1.394 . S
C846 H854 0.930 . S
C847 C846 1.394 . S
C847 C848 1.383 . S
C847 H855 0.929 . S
C848 C847 1.383 . S
C848 C849 1.377 . S
C849 H833 0.930 . S
C849 C848 1.377 . S
C849 C850 1.379 . S
C850 H834 0.931 . S
C850 C844 1.383 . S
C850 C849 1.379 . S
H851 C845 0.959 . S
H852 C845 0.961 . S
H853 C845 0.960 . S
H854 C846 0.930 . S
H855 C847 0.929 . S
H856 C864 0.929 . S
H857 C866 0.930 . S
H858 C868 0.930 . S
H859 C871 0.929 . S
H860 C874 0.930 . S
H861 C876 0.960 . S
H862 C876 0.960 . S
H863 C876 0.960 . S
C864 H856 0.929 . S
C864 C865 1.377 . S
C864 C866 1.384 . S
C865 C864 1.377 . S
C865 C871 1.390 . S
C866 H857 0.930 . S
C866 C864 1.384 . S
C866 C867 1.372 . S
C867 C866 1.372 . S
C867 C868 1.400 . S
C867 C872 1.490 . S
C868 H858 0.930 . S
C868 C867 1.400 . S
C868 C871 1.386 . S
H869 C885 0.930 . S
H870 C886 0.931 . S
C871 H859 0.929 . S
C871 C865 1.390 . S
C871 C868 1.386 . S
C872 C867 1.490 . S
C872 C874 1.395 . S
C872 C875 1.403 . S
H873 C879 0.930 . S
C874 H860 0.930 . S
C874 C872 1.395 . S
C874 C877 1.403 . S
C875 C872 1.403 . S
C875 C876 1.524 . S
C875 C879 1.400 . S
C876 H861 0.960 . S
C876 H862 0.960 . S
C876 H863 0.960 . S
C876 C875 1.524 . S
C877 C874 1.403 . S
C877 C878 1.392 . S
C877 C881 1.495 . S
C878 C877 1.392 . S
C878 C879 1.385 . S
C878 C880 1.478 . S
C879 H873 0.930 . S
C879 C875 1.400 . S
C879 C878 1.385 . S
C880 C878 1.478 . S
C880 C882 1.381 . S
C880 C886 1.383 . S
C881 C877 1.495 . S
C881 H887 0.959 . S
C881 H888 0.961 . S
C881 H889 0.960 . S
C882 C880 1.381 . S
C882 C883 1.394 . S
C882 H890 0.930 . S
C883 C882 1.394 . S
C883 C884 1.383 . S
C883 H891 0.929 . S
C884 C883 1.383 . S
C884 C885 1.377 . S
C885 H869 0.930 . S
C885 C884 1.377 . S
C885 C886 1.379 . S
C886 H870 0.931 . S
C886 C880 1.383 . S
C886 C885 1.379 . S
H887 C881 0.959 . S
H888 C881 0.961 . S
H889 C881 0.960 . S
H890 C882 0.930 . S
H891 C883 0.929 . S
H892 C900 0.929 . S
H893 C902 0.930 . S
H894 C904 0.930 . S
H895 C907 0.929 . S
H896 C910 0.930 . S
H897 C912 0.960 . S
H898 C912 0.960 . S
H899 C912 0.960 . S
C900 H892 0.929 . S
C900 C901 1.377 . S
C900 C902 1.384 . S
C901 C900 1.377 . S
C901 C907 1.390 . S
C902 H893 0.930 . S
C902 C900 1.384 . S
C902 C903 1.372 . S
C903 C902 1.372 . S
C903 C904 1.400 . S
C903 C908 1.490 . S
C904 H894 0.930 . S
C904 C903 1.400 . S
C904 C907 1.386 . S
H905 C921 0.930 1_554 S
H906 C922 0.931 . S
C907 H895 0.929 . S
C907 C901 1.390 . S
C907 C904 1.386 . S
C908 C903 1.490 . S
C908 C910 1.395 . S
C908 C911 1.403 . S
H909 C915 0.930 . S
C910 H896 0.930 . S
C910 C908 1.395 . S
C910 C913 1.403 . S
C911 C908 1.403 . S
C911 C912 1.524 . S
C911 C915 1.400 . S
C912 H897 0.960 . S
C912 H898 0.960 . S
C912 H899 0.960 . S
C912 C911 1.524 . S
C913 C910 1.403 . S
C913 C914 1.392 . S
C913 C917 1.495 1_655 S
C914 C913 1.392 . S
C914 C915 1.385 . S
C914 C916 1.478 . S
C915 H909 0.930 . S
C915 C911 1.400 . S
C915 C914 1.385 . S
C916 C914 1.478 . S
C916 C918 1.381 . S
C916 C922 1.383 . S
C917 C913 1.495 1_455 S
C917 H923 0.959 . S
C917 H924 0.961 . S
C917 H925 0.960 . S
C918 C916 1.381 . S
C918 C919 1.394 . S
C918 H926 0.930 . S
C919 C918 1.394 . S
C919 C920 1.383 . S
C919 H927 0.929 1_655 S
C920 C919 1.383 . S
C920 C921 1.377 . S
C921 H905 0.930 1_556 S
C921 C920 1.377 . S
C921 C922 1.379 . S
C922 H906 0.931 . S
C922 C916 1.383 . S
C922 C921 1.379 . S
H923 C917 0.959 . S
H924 C917 0.961 . S
H925 C917 0.960 . S
H926 C918 0.930 . S
H927 C919 0.929 1_455 S
H928 C936 0.929 . S
H929 C938 0.930 . S
H930 C940 0.930 . S
H931 C943 0.929 . S
H932 C946 0.930 . S
H933 C948 0.960 . S
H934 C948 0.960 . S
H935 C948 0.960 . S
C936 H928 0.929 . S
C936 C937 1.377 . S
C936 C938 1.384 . S
C937 C936 1.377 . S
C937 C943 1.390 . S
C938 H929 0.930 . S
C938 C936 1.384 . S
C938 C939 1.372 . S
C939 C938 1.372 . S
C939 C940 1.400 . S
C939 C944 1.490 . S
C940 H930 0.930 . S
C940 C939 1.400 . S
C940 C943 1.386 . S
H941 C957 0.930 . S
H942 C958 0.931 . S
C943 H931 0.929 . S
C943 C937 1.390 . S
C943 C940 1.386 . S
C944 C939 1.490 . S
C944 C946 1.395 . S
C944 C947 1.403 . S
H945 C951 0.930 . S
C946 H932 0.930 . S
C946 C944 1.395 . S
C946 C949 1.403 . S
C947 C944 1.403 . S
C947 C948 1.524 . S
C947 C951 1.400 . S
C948 H933 0.960 . S
C948 H934 0.960 . S
C948 H935 0.960 . S
C948 C947 1.524 . S
C949 C946 1.403 . S
C949 C950 1.392 . S
C949 C953 1.495 . S
C950 C949 1.392 . S
C950 C951 1.385 . S
C950 C952 1.478 . S
C951 H945 0.930 . S
C951 C947 1.400 . S
C951 C950 1.385 . S
C952 C950 1.478 . S
C952 C954 1.381 . S
C952 C958 1.383 . S
C953 C949 1.495 . S
C953 H959 0.959 . S
C953 H960 0.961 . S
C953 H961 0.960 . S
C954 C952 1.381 . S
C954 C955 1.394 . S
C954 H962 0.930 . S
C955 C954 1.394 . S
C955 C956 1.383 . S
C955 H963 0.929 . S
C956 C955 1.383 . S
C956 C957 1.377 . S
C957 H941 0.930 . S
C957 C956 1.377 . S
C957 C958 1.379 . S
C958 H942 0.931 . S
C958 C952 1.383 . S
C958 C957 1.379 . S
H959 C953 0.959 . S
H960 C953 0.961 . S
H961 C953 0.960 . S
H962 C954 0.930 . S
H963 C955 0.929 . S
H964 C972 0.929 . S
H965 C974 0.930 . S
H966 C976 0.930 . S
H967 C979 0.929 . S
H968 C982 0.930 . S
H969 C984 0.960 . S
H970 C984 0.960 . S
H971 C984 0.960 . S
C972 H964 0.929 . S
C972 C973 1.377 . S
C972 C974 1.384 . S
C973 C972 1.377 . S
C973 C979 1.390 . S
C974 H965 0.930 . S
C974 C972 1.384 . S
C974 C975 1.372 . S
C975 C974 1.372 . S
C975 C976 1.400 . S
C975 C980 1.490 . S
C976 H966 0.930 . S
C976 C975 1.400 . S
C976 C979 1.386 . S
H977 C993 0.930 . S
H978 C994 0.931 . S
C979 H967 0.929 . S
C979 C973 1.390 . S
C979 C976 1.386 . S
C980 C975 1.490 . S
C980 C982 1.395 . S
C980 C983 1.403 . S
H981 C987 0.930 . S
C982 H968 0.930 . S
C982 C980 1.395 . S
C982 C985 1.403 . S
C983 C980 1.403 . S
C983 C984 1.524 . S
C983 C987 1.400 . S
C984 H969 0.960 . S
C984 H970 0.960 . S
C984 H971 0.960 . S
C984 C983 1.524 . S
C985 C982 1.403 . S
C985 C986 1.392 . S
C985 C989 1.495 . S
C986 C985 1.392 . S
C986 C987 1.385 . S
C986 C988 1.478 . S
C987 H981 0.930 . S
C987 C983 1.400 . S
C987 C986 1.385 . S
C988 C986 1.478 . S
C988 C990 1.381 . S
C988 C994 1.383 . S
C989 C985 1.495 . S
C989 H995 0.959 . S
C989 H996 0.961 . S
C989 H997 0.960 . S
C990 C988 1.381 . S
C990 C991 1.394 . S
C990 H998 0.930 . S
C991 C990 1.394 . S
C991 C992 1.383 . S
C991 H999 0.929 . S
C992 C991 1.383 . S
C992 C993 1.377 . S
C993 H977 0.930 . S
C993 C992 1.377 . S
C993 C994 1.379 . S
C994 H978 0.931 . S
C994 C988 1.383 . S
C994 C993 1.379 . S
H995 C989 0.959 . S
H996 C989 0.961 . S
H997 C989 0.960 . S
H998 C990 0.930 . S
H999 C991 0.929 . S
H1000 C1008 0.929 . S
H1001 C1010 0.930 . S
H1002 C1012 0.930 . S
H1003 C1015 0.929 . S
H1004 C1018 0.930 . S
H1005 C1020 0.960 . S
H1006 C1020 0.960 . S
H1007 C1020 0.960 . S
C1008 H1000 0.929 . S
C1008 C1009 1.377 . S
C1008 C1010 1.384 . S
C1009 C1008 1.377 . S
C1009 C1015 1.390 . S
C1010 H1001 0.930 . S
C1010 C1008 1.384 . S
C1010 C1011 1.372 . S
C1011 C1010 1.372 . S
C1011 C1012 1.400 . S
C1011 C1016 1.490 . S
C1012 H1002 0.930 . S
C1012 C1011 1.400 . S
C1012 C1015 1.386 . S
H1013 C1029 0.930 . S
H1014 C1030 0.931 . S
C1015 H1003 0.929 . S
C1015 C1009 1.390 . S
C1015 C1012 1.386 . S
C1016 C1011 1.490 . S
C1016 C1018 1.395 . S
C1016 C1019 1.403 . S
H1017 C1023 0.930 . S
C1018 H1004 0.930 . S
C1018 C1016 1.395 . S
C1018 C1021 1.403 . S
C1019 C1016 1.403 . S
C1019 C1020 1.524 . S
C1019 C1023 1.400 . S
C1020 H1005 0.960 . S
C1020 H1006 0.960 . S
C1020 H1007 0.960 . S
C1020 C1019 1.524 . S
C1021 C1018 1.403 . S
C1021 C1022 1.392 . S
C1021 C1025 1.495 . S
C1022 C1021 1.392 . S
C1022 C1023 1.385 . S
C1022 C1024 1.478 . S
C1023 H1017 0.930 . S
C1023 C1019 1.400 . S
C1023 C1022 1.385 . S
C1024 C1022 1.478 . S
C1024 C1026 1.381 . S
C1024 C1030 1.383 . S
C1025 C1021 1.495 . S
C1025 H1031 0.959 . S
C1025 H1032 0.961 . S
C1025 H1033 0.960 . S
C1026 C1024 1.381 . S
C1026 C1027 1.394 . S
C1026 H1034 0.930 . S
C1027 C1026 1.394 . S
C1027 C1028 1.383 . S
C1027 H1035 0.929 . S
C1028 C1027 1.383 . S
C1028 C1029 1.377 . S
C1029 H1013 0.930 . S
C1029 C1028 1.377 . S
C1029 C1030 1.379 . S
C1030 H1014 0.931 . S
C1030 C1024 1.383 . S
C1030 C1029 1.379 . S
H1031 C1025 0.959 . S
H1032 C1025 0.961 . S
H1033 C1025 0.960 . S
H1034 C1026 0.930 . S
H1035 C1027 0.929 . S
C181 C4 1.808 . S
C200 C104 1.746 . S
C217 C16 1.809 . S
C236 C126 1.774 . S
C272 C145 0.796 . S
C253 C32 0.940 . S
C289 C43 1.586 . S
C308 C166 1.272 . S
C344 C123 2.236 . S
C325 C5 2.346 . S
C380 C101 1.376 1_565 S
C361 C21 1.457 . S
C416 C168 1.056 . S
C397 C27 1.105 . S
C452 C147 1.222 . S
C433 C37 1.283 . S
C469 C10 1.763 . S
C488 C165 1.684 . S
C524 C124 1.369 1_556 S
C505 C26 1.675 . S
C541 C38 1.402 . S
C560 C106 1.184 . S
C577 C15 1.639 . S
C596 C144 1.572 . S
C632 C102 1.874 1_565 S
C613 C48 1.991 . S
C649 C59 1.411 . S
C668 C122 1.354 . S
C685 C76 1.315 . S
C704 C148 1.070 . S
C721 C87 1.290 . S
C740 C169 1.011 . S
C757 C54 1.590 . S
C776 C125 1.530 . S
C812 C105 2.215 . S
C793 C60 2.243 . S
C848 C164 0.958 . S
C829 C71 1.061 . S
C884 C143 1.283 . S
C865 C82 1.308 . S
C901 C49 1.854 . S
C920 C167 1.804 . S
C956 C127 0.983 . S
C937 C70 1.144 . S
C992 C103 1.292 . S
C973 C81 1.519 . S
C1009 C65 1.462 . S
C1028 C146 1.388 . S
