# Generated by pormake.
# Topology tsx, (6,3)-cn, num edge types: 1
# Building blocks:
#     Node 0, Type 0, BuildingBlock: MIDCAF_clean_sbu_0, # of connection points: 6
#     Node 1, Type 0, BuildingBlock: MIDCAF_clean_sbu_0, # of connection points: 6
#     Node 2, Type 1, BuildingBlock: KAKCAD_clean_linker_0, # of connection points: 3
#     Node 3, Type 1, BuildingBlock: KAKCAD_clean_linker_0, # of connection points: 3
#     Node 4, Type 1, BuildingBlock: KAKCAD_clean_linker_0, # of connection points: 3
#     Node 5, Type 1, BuildingBlock: KAKCAD_clean_linker_0, # of connection points: 3
#     Edge 6, Type (0, 1), BuildingBlock: TEMPAE_clean_linker_10, # of connection points: 2
#     Edge 7, Type (0, 1), BuildingBlock: TEMPAE_clean_linker_10, # of connection points: 2
#     Edge 8, Type (0, 1), BuildingBlock: TEMPAE_clean_linker_10, # of connection points: 2
#     Edge 9, Type (0, 1), BuildingBlock: TEMPAE_clean_linker_10, # of connection points: 2
#     Edge 10, Type (0, 1), BuildingBlock: TEMPAE_clean_linker_10, # of connection points: 2
#     Edge 11, Type (0, 1), BuildingBlock: TEMPAE_clean_linker_10, # of connection points: 2
#     Edge 12, Type (0, 1), BuildingBlock: TEMPAE_clean_linker_10, # of connection points: 2
#     Edge 13, Type (0, 1), BuildingBlock: TEMPAE_clean_linker_10, # of connection points: 2
#     Edge 14, Type (0, 1), BuildingBlock: TEMPAE_clean_linker_10, # of connection points: 2
#     Edge 15, Type (0, 1), BuildingBlock: TEMPAE_clean_linker_10, # of connection points: 2
#     Edge 16, Type (0, 1), BuildingBlock: TEMPAE_clean_linker_10, # of connection points: 2
#     Edge 17, Type (0, 1), BuildingBlock: TEMPAE_clean_linker_10, # of connection points: 2
# Relax obj value: 0.118
# Max RMSD: 0.182
# Mean RMSD: 0.113
data_MOF--net-tsx--node1-MIDCAF_clean_sbu_0--node2-KAKCAD_clean_linker_0--edge1-TEMPAE_clean_linker_10
_symmetry_space_group_name_H-M    P1
_symmetry_Int_Tables_number       1
_symmetry_cell_setting            triclinic
loop_
_symmetry_equiv_pos_as_xyz
'x, y, z'
_cell_length_a     24.048203
_cell_length_b     24.938318
_cell_length_c     47.222724
_cell_angle_alpha  91.049385
_cell_angle_beta   94.988377
_cell_angle_gamma 91.04609
loop_
_atom_site_label
_atom_site_type_symbol
_atom_site_fract_x
_atom_site_fract_y
_atom_site_fract_z
_atom_type_partial_charge
Zn0 Zn 0.03616 0.94879 0.98499 0.0
Zn1 Zn 0.15345 0.00958 0.06201 0.0
Zn2 Zn 0.08231 0.98843 0.02358 0.0
C3 C 0.12964 0.10595 0.03173 0.0
C4 C 0.19173 0.92546 0.02756 0.0
O5 O 0.00771 0.94339 0.03459 0.0
O6 O 0.01401 0.87961 0.00225 0.0
C7 C 0.9912 0.05112 0.98965 0.0
O8 O 0.09547 0.07501 0.01615 0.0
O9 O 0.16002 0.08698 0.05221 0.0
O10 O 0.20677 0.95403 0.04942 0.0
O11 O 0.14449 0.93306 0.01396 0.0
O12 O 0.97337 0.00447 0.98211 0.0
O13 O 0.04173 0.05637 0.00128 0.0
O14 O 0.09458 0.03938 0.98678 0.0
O15 O 0.10111 0.9655 0.96134 0.0
C16 C 0.10862 0.01595 0.96396 0.0
O17 O 0.03674 0.97295 0.06046 0.0
O18 O 0.10552 0.99268 0.09329 0.0
C19 C 0.99146 0.89734 0.02375 0.0
C20 C 0.05558 0.97753 0.08666 0.0
Zn21 Zn 0.67328 0.53265 0.54657 0.0
Zn22 Zn 0.53972 0.467 0.48122 0.0
Zn23 Zn 0.591 0.51211 0.51571 0.0
C24 C 0.60259 0.53405 0.45341 0.0
C25 C 0.49268 0.56914 0.48618 0.0
O26 O 0.55566 0.50453 0.55609 0.0
O27 O 0.63369 0.52609 0.5821 0.0
C28 C 0.69614 0.4421 0.51342 0.0
O29 O 0.59356 0.55924 0.47661 0.0
O30 O 0.59582 0.48341 0.45233 0.0
O31 O 0.47544 0.52117 0.48156 0.0
O32 O 0.54504 0.57727 0.49404 0.0
O33 O 0.71876 0.47136 0.53353 0.0
O34 O 0.64695 0.45234 0.50291 0.0
O35 O 0.60293 0.59799 0.50573 0.0
O36 O 0.68316 0.60703 0.53236 0.0
C37 C 0.64529 0.62708 0.51578 0.0
O38 O 0.52136 0.46833 0.53292 0.0
O39 O 0.52915 0.39992 0.50349 0.0
C40 C 0.58229 0.51348 0.58047 0.0
C41 C 0.50861 0.41952 0.52515 0.0
C42 C 0.96158 0.85335 0.29378 0.0
C43 C 0.94516 0.89544 0.27577 0.0
C44 C 0.97027 0.86228 0.3232 0.0
C45 C 0.96403 0.91384 0.33507 0.0
C46 C 0.94511 0.95515 0.3169 0.0
C47 C 0.93528 0.94587 0.28768 0.0
C48 C 0.98179 0.92625 0.36561 0.0
C49 C 0.02817 0.90119 0.3795 0.0
C50 C 0.04951 0.91797 0.4069 0.0
C51 C 0.02493 0.96082 0.42052 0.0
C52 C 0.97805 0.98589 0.40716 0.0
C53 C 0.9559 0.96712 0.3802 0.0
C54 C 0.95354 0.0336 0.42025 0.0
C55 C 0.94489 0.03569 0.4493 0.0
C56 C 0.93762 0.07738 0.40327 0.0
C57 C 0.91233 0.12157 0.41479 0.0
C58 C 0.90273 0.1235 0.4437 0.0
C59 C 0.09915 0.89163 0.42049 0.0
C60 C 0.09661 0.83679 0.42641 0.0
C61 C 0.15011 0.91998 0.42571 0.0
C62 C 0.19834 0.89332 0.4359 0.0
C63 C 0.19586 0.83826 0.44158 0.0
C64 C 0.14442 0.81045 0.43715 0.0
C65 C 0.91961 0.08019 0.46092 0.0
H66 H 0.96951 0.81407 0.28499 0.0
H67 H 0.98354 0.82913 0.33646 0.0
H68 H 0.9409 0.99571 0.32486 0.0
H69 H 0.92369 0.97927 0.27419 0.0
H70 H 0.0497 0.87024 0.36862 0.0
H71 H 0.91871 0.98531 0.37032 0.0
H72 H 0.04283 0.97503 0.44123 0.0
H73 H 0.95662 0.00252 0.46291 0.0
H74 H 0.94458 0.07751 0.38091 0.0
H75 H 0.89932 0.15383 0.40082 0.0
H76 H 0.05771 0.81422 0.42236 0.0
H77 H 0.15291 0.96226 0.42102 0.0
H78 H 0.91333 0.08072 0.48336 0.0
H79 H 0.14162 0.76787 0.44112 0.0
H80 H 0.2376 0.9155 0.43915 0.0
C81 C 0.03422 0.15248 0.74666 0.0
C82 C 0.03061 0.1051 0.76211 0.0
C83 C 0.02492 0.15133 0.71698 0.0
C84 C 0.01206 0.10272 0.70199 0.0
C85 C 0.00681 0.05562 0.71752 0.0
C86 C 0.01598 0.05679 0.74719 0.0
C87 C 0.00831 0.10052 0.67029 0.0
C88 C 0.04724 0.12938 0.65587 0.0
C89 C 0.04685 0.12631 0.62611 0.0
C90 C 0.00735 0.09217 0.61066 0.0
C91 C 0.96783 0.06226 0.62464 0.0
C92 C 0.96828 0.06773 0.6545 0.0
C93 C 0.92757 0.02378 0.60845 0.0
C94 C 0.90567 0.03375 0.5804 0.0
C95 C 0.91121 0.97587 0.62097 0.0
C96 C 0.8742 0.93937 0.60614 0.0
C97 C 0.85323 0.94857 0.57791 0.0
C98 C 0.08963 0.1576 0.6119 0.0
C99 C 0.10602 0.20937 0.62216 0.0
C100 C 0.11731 0.13505 0.58958 0.0
C101 C 0.16195 0.16268 0.57879 0.0
C102 C 0.18006 0.21298 0.59035 0.0
C103 C 0.15098 0.23645 0.61172 0.0
C104 C 0.86929 0.99654 0.56529 0.0
H105 H 0.04452 0.19047 0.75751 0.0
H106 H 0.02845 0.18852 0.70572 0.0
H107 H 0.99778 0.01739 0.70668 0.0
H108 H 0.01357 0.0194 0.75837 0.0
H109 H 0.07958 0.15292 0.66805 0.0
H110 H 0.93731 0.0466 0.66562 0.0
H111 H 0.008 0.08847 0.58782 0.0
H112 H 0.91639 0.0704 0.57003 0.0
H113 H 0.92761 0.96576 0.64223 0.0
H114 H 0.86207 0.90374 0.61702 0.0
H115 H 0.0848 0.22866 0.63879 0.0
H116 H 0.10613 0.09518 0.58128 0.0
H117 H 0.85452 0.00512 0.54356 0.0
H118 H 0.16356 0.27561 0.62063 0.0
H119 H 0.18382 0.1438 0.56228 0.0
C120 C 0.49345 0.40928 0.79357 0.0
C121 C 0.48843 0.45701 0.77821 0.0
C122 C 0.50285 0.41101 0.82325 0.0
C123 C 0.50745 0.4605 0.8381 0.0
C124 C 0.50077 0.50803 0.82272 0.0
C125 C 0.4913 0.50629 0.79319 0.0
C126 C 0.52227 0.46348 0.86931 0.0
C127 C 0.5637 0.43075 0.88218 0.0
C128 C 0.58246 0.43833 0.91099 0.0
C129 C 0.55945 0.47876 0.92715 0.0
C130 C 0.51713 0.51108 0.91471 0.0
C131 C 0.49828 0.50244 0.88597 0.0
C132 C 0.49323 0.55512 0.93106 0.0
C133 C 0.4783 0.5475 0.95884 0.0
C134 C 0.4828 0.60471 0.9182 0.0
C135 C 0.45582 0.64492 0.9322 0.0
C136 C 0.43911 0.63693 0.95961 0.0
C137 C 0.62799 0.4052 0.92362 0.0
C138 C 0.62073 0.34936 0.92456 0.0
C139 C 0.67981 0.4288 0.93325 0.0
C140 C 0.72433 0.3967 0.94301 0.0
C141 C 0.71708 0.34078 0.94385 0.0
C142 C 0.66477 0.31744 0.93489 0.0
C143 C 0.45142 0.58805 0.973 0.0
H144 H 0.49105 0.37068 0.7826 0.0
H145 H 0.50714 0.37368 0.83452 0.0
H146 H 0.5052 0.5469 0.83337 0.0
H147 H 0.48889 0.54384 0.78201 0.0
H148 H 0.5834 0.40102 0.86955 0.0
H149 H 0.46492 0.52656 0.87638 0.0
H150 H 0.57499 0.48537 0.9492 0.0
H151 H 0.48577 0.50967 0.96928 0.0
H152 H 0.49471 0.61221 0.897 0.0
H153 H 0.44647 0.6817 0.92107 0.0
H154 H 0.58107 0.33049 0.9171 0.0
H155 H 0.68624 0.47184 0.93245 0.0
H156 H 0.4397 0.58089 0.99426 0.0
H157 H 0.65845 0.27433 0.93517 0.0
H158 H 0.76439 0.41542 0.94982 0.0
C159 C 0.49907 0.66459 0.23626 0.0
C160 C 0.49795 0.61742 0.25205 0.0
C161 C 0.48716 0.66279 0.2067 0.0
C162 C 0.47423 0.6137 0.19218 0.0
C163 C 0.4714 0.56681 0.20813 0.0
C164 C 0.48304 0.56867 0.23767 0.0
C165 C 0.4687 0.61053 0.16047 0.0
C166 C 0.50577 0.64009 0.14513 0.0
C167 C 0.50608 0.6329 0.11565 0.0
C168 C 0.46826 0.59636 0.1011 0.0
C169 C 0.42981 0.56706 0.11585 0.0
C170 C 0.43021 0.57471 0.14556 0.0
C171 C 0.39217 0.52577 0.10059 0.0
C172 C 0.36575 0.53507 0.07336 0.0
C173 C 0.3839 0.47573 0.11293 0.0
C174 C 0.35068 0.43587 0.0984 0.0
C175 C 0.32488 0.44471 0.07104 0.0
C176 C 0.55023 0.65981 0.10092 0.0
C177 C 0.55622 0.71594 0.10206 0.0
C178 C 0.5903 0.62913 0.08845 0.0
C179 C 0.63711 0.65408 0.07848 0.0
C180 C 0.64387 0.71011 0.08031 0.0
C181 C 0.60242 0.74097 0.09151 0.0
C182 C 0.33226 0.49503 0.05878 0.0
H183 H 0.50961 0.70288 0.24675 0.0
H184 H 0.48893 0.69982 0.19515 0.0
H185 H 0.4626 0.52818 0.19771 0.0
H186 H 0.48252 0.53145 0.24912 0.0
H187 H 0.53704 0.66642 0.15631 0.0
H188 H 0.4008 0.5524 0.15715 0.0
H189 H 0.47006 0.58968 0.07845 0.0
H190 H 0.37089 0.57334 0.06331 0.0
H191 H 0.40409 0.46679 0.13366 0.0
H192 H 0.34514 0.39793 0.1087 0.0
H193 H 0.52588 0.74023 0.11177 0.0
H194 H 0.58673 0.58574 0.08766 0.0
H195 H 0.31303 0.5031 0.03773 0.0
H196 H 0.60704 0.78424 0.09322 0.0
H197 H 0.66864 0.62962 0.06987 0.0
C198 C 0.12927 0.19822 0.05066 0.0
C199 C 0.13428 0.16399 0.02727 0.0
C200 C 0.15203 0.25033 0.05162 0.0
C201 C 0.18085 0.26848 0.0286 0.0
C202 C 0.17988 0.23631 0.00344 0.0
C203 C 0.15666 0.18395 0.00309 0.0
C204 C 0.1511 0.28322 0.07875 0.0
C205 C 0.20823 0.25485 0.97801 0.0
C206 C 0.2384 0.41085 0.04146 0.0
C207 C 0.29082 0.40093 0.05571 0.0
C208 C 0.20334 0.36828 0.03026 0.0
C209 C 0.22098 0.31471 0.03369 0.0
C210 C 0.27545 0.30495 0.04625 0.0
C211 C 0.30964 0.34808 0.05693 0.0
C212 C 0.14627 0.38061 0.01637 0.0
C213 C 0.29644 0.24859 0.05023 0.0
H214 H 0.11167 0.18255 0.0693 0.0
H215 H 0.16063 0.15728 0.98501 0.0
H216 H 0.19329 0.2838 0.09036 0.0
H217 H 0.1401 0.32528 0.07403 0.0
H218 H 0.12088 0.26662 0.09298 0.0
H219 H 0.19148 0.23295 0.9583 0.0
H220 H 0.20313 0.29856 0.97496 0.0
H221 H 0.25358 0.24714 0.98145 0.0
H222 H 0.22359 0.4516 0.04025 0.0
H223 H 0.35075 0.34022 0.06714 0.0
H224 H 0.11484 0.37559 0.03202 0.0
H225 H 0.13442 0.35274 0.99816 0.0
H226 H 0.14438 0.4225 0.00878 0.0
H227 H 0.27154 0.22744 0.06547 0.0
H228 H 0.34112 0.24803 0.05846 0.0
H229 H 0.29128 0.22568 0.02979 0.0
C230 C 0.27352 0.86625 0.03725 0.0
C231 C 0.22848 0.88249 0.01866 0.0
C232 C 0.30853 0.82515 0.02952 0.0
C233 C 0.29871 0.80013 0.00239 0.0
C234 C 0.25332 0.81623 0.98351 0.0
C235 C 0.21848 0.85705 0.99195 0.0
C236 C 0.3561 0.80859 0.05034 0.0
C237 C 0.24197 0.79076 0.95427 0.0
C238 C 0.41908 0.73322 0.96997 0.0
C239 C 0.40639 0.67865 0.97324 0.0
C240 C 0.38472 0.77315 0.97966 0.0
C241 C 0.33697 0.75822 0.9934 0.0
C242 C 0.32527 0.70337 0.99798 0.0
C243 C 0.35996 0.66418 0.98769 0.0
C244 C 0.39868 0.83126 0.97449 0.0
C245 C 0.27521 0.68599 0.01299 0.0
H246 H 0.28123 0.88538 0.05806 0.0
H247 H 0.18379 0.86944 0.97749 0.0
H248 H 0.35272 0.76501 0.05438 0.0
H249 H 0.3965 0.81575 0.04122 0.0
H250 H 0.3569 0.83085 0.07097 0.0
H251 H 0.20471 0.80753 0.94224 0.0
H252 H 0.27865 0.79698 0.9419 0.0
H253 H 0.23542 0.74685 0.95604 0.0
H254 H 0.45554 0.74477 0.95937 0.0
H255 H 0.34949 0.62215 0.99009 0.0
H256 H 0.40294 0.85432 0.99489 0.0
H257 H 0.36422 0.84918 0.96087 0.0
H258 H 0.43798 0.83616 0.96397 0.0
H259 H 0.27495 0.70772 0.03369 0.0
H260 H 0.27448 0.64217 0.01684 0.0
H261 H 0.23634 0.69624 -2e-05 0.0
C262 C 0.91144 0.89114 0.05436 0.0
C263 C 0.94362 0.86758 0.03426 0.0
C264 C 0.86473 0.86417 0.06356 0.0
C265 C 0.84759 0.81392 0.051 0.0
C266 C 0.87946 0.79013 0.03048 0.0
C267 C 0.92749 0.81685 0.02267 0.0
C268 C 0.83361 0.88957 0.0866 0.0
C269 C 0.86241 0.73665 0.01656 0.0
C270 C 0.7472 0.72221 0.08624 0.0
C271 C 0.69582 0.73603 0.07234 0.0
C272 C 0.79701 0.7474 0.07974 0.0
C273 C 0.79528 0.78697 0.05853 0.0
C274 C 0.74333 0.80042 0.04413 0.0
C275 C 0.69405 0.77526 0.05151 0.0
C276 C 0.85068 0.73264 0.0965 0.0
C277 C 0.73988 0.84093 0.0207 0.0
H278 H 0.92263 0.93086 0.06291 0.0
H279 H 0.9517 0.79843 0.00693 0.0
H280 H 0.79164 0.90158 0.07761 0.0
H281 H 0.82756 0.86018 0.10349 0.0
H282 H 0.85601 0.92555 0.09644 0.0
H283 H 0.89087 0.72418 0.00044 0.0
H284 H 0.86214 0.70532 0.03294 0.0
H285 H 0.81937 0.73866 0.00608 0.0
H286 H 0.74826 0.69239 0.10271 0.0
H287 H 0.65414 0.78568 0.04076 0.0
H288 H 0.85693 0.75937 0.11558 0.0
H289 H 0.88757 0.73723 0.08415 0.0
H290 H 0.84865 0.69069 0.10394 0.0
H291 H 0.75545 0.88068 0.02922 0.0
H292 H 0.69658 0.84528 0.01085 0.0
H293 H 0.76693 0.82875 0.00391 0.0
C294 C 0.97005 0.14814 0.99598 0.0
C295 C 0.95744 0.09852 0.98226 0.0
C296 C 0.93589 0.19249 0.99045 0.0
C297 C 0.88861 0.18706 0.97046 0.0
C298 C 0.8773 0.13767 0.95562 0.0
C299 C 0.91158 0.09388 0.96188 0.0
C300 C 0.94914 0.24436 0.00683 0.0
C301 C 0.82806 0.1306 0.93365 0.0
C302 C 0.75893 0.26957 0.97477 0.0
C303 C 0.76423 0.30615 0.953 0.0
C304 C 0.80089 0.23261 0.9818 0.0
C305 C 0.84857 0.23148 0.96619 0.0
C306 C 0.85496 0.26961 0.94479 0.0
C307 C 0.81278 0.30694 0.93862 0.0
C308 C 0.79306 0.19328 0.00514 0.0
C309 C 0.90475 0.26907 0.92739 0.0
H310 H 0.00555 0.15188 0.01172 0.0
H311 H 0.90217 0.05581 0.95091 0.0
H312 H 0.94895 0.27862 0.99218 0.0
H313 H 0.91646 0.25168 0.02157 0.0
H314 H 0.99036 0.24367 0.01943 0.0
H315 H 0.82766 0.09101 0.92245 0.0
H316 H 0.78862 0.13422 0.94404 0.0
H317 H 0.82867 0.16259 0.91765 0.0
H318 H 0.72143 0.26936 0.98597 0.0
H319 H 0.81652 0.33512 0.92164 0.0
H320 H 0.83103 0.19276 0.02026 0.0
H321 H 0.78656 0.15225 0.99582 0.0
H322 H 0.75667 0.20303 0.01713 0.0
H323 H 0.94414 0.26836 0.94145 0.0
H324 H 0.90608 0.30436 0.91343 0.0
H325 H 0.90309 0.23211 0.91386 0.0
C326 C 0.69069 0.70342 0.49367 0.0
C327 C 0.65008 0.68493 0.51085 0.0
C328 C 0.71606 0.75441 0.49859 0.0
C329 C 0.70167 0.78651 0.52184 0.0
C330 C 0.65581 0.77051 0.53687 0.0
C331 C 0.63026 0.71991 0.53101 0.0
C332 C 0.76282 0.77096 0.4811 0.0
C333 C 0.6387 0.8032 0.56175 0.0
C334 C 0.82329 0.85275 0.56693 0.0
C335 C 0.81565 0.90758 0.56193 0.0
C336 C 0.78662 0.81349 0.55392 0.0
C337 C 0.74179 0.82881 0.53445 0.0
C338 C 0.73517 0.88375 0.52812 0.0
C339 C 0.77165 0.92253 0.54221 0.0
C340 C 0.79549 0.75543 0.5615 0.0
C341 C 0.68897 0.90185 0.50699 0.0
H342 H 0.70647 0.67611 0.47827 0.0
H343 H 0.59939 0.70521 0.54457 0.0
H344 H 0.7621 0.81469 0.47717 0.0
H345 H 0.80348 0.76207 0.49285 0.0
H346 H 0.76022 0.74888 0.46036 0.0
H347 H 0.597 0.79041 0.56792 0.0
H348 H 0.66976 0.79813 0.58026 0.0
H349 H 0.63777 0.84646 0.5568 0.0
H350 H 0.85807 0.84019 0.58124 0.0
H351 H 0.76484 0.96462 0.53816 0.0
H352 H 0.80331 0.7316 0.54224 0.0
H353 H 0.75738 0.73838 0.56988 0.0
H354 H 0.83126 0.75042 0.5777 0.0
H355 H 0.68392 0.87437 0.48815 0.0
H356 H 0.69684 0.94323 0.49975 0.0
H357 H 0.64896 0.90136 0.51703 0.0
C358 C 0.70558 0.36602 0.47877 0.0
C359 C 0.72637 0.39537 0.50315 0.0
C360 C 0.73394 0.32126 0.46928 0.0
C361 C 0.78389 0.30529 0.4847 0.0
C362 C 0.80483 0.33454 0.5094 0.0
C363 C 0.77599 0.37933 0.51824 0.0
C364 C 0.71069 0.29126 0.44268 0.0
C365 C 0.85772 0.31853 0.52653 0.0
C366 C 0.83273 0.16275 0.47426 0.0
C367 C 0.87408 0.17023 0.45542 0.0
C368 C 0.80317 0.20638 0.48409 0.0
C369 C 0.81503 0.25864 0.47472 0.0
C370 C 0.85718 0.26654 0.45601 0.0
C371 C 0.88638 0.22233 0.44673 0.0
C372 C 0.75886 0.1965 0.50427 0.0
C373 C 0.87118 0.32169 0.44563 0.0
H374 H 0.66731 0.37817 0.46701 0.0
H375 H 0.79221 0.40153 0.53721 0.0
H376 H 0.74173 0.29194 0.42661 0.0
H377 H 0.70259 0.24861 0.44753 0.0
H378 H 0.67127 0.30864 0.43322 0.0
H379 H 0.86777 0.34489 0.54557 0.0
H380 H 0.8536 0.27655 0.53357 0.0
H381 H 0.89335 0.32018 0.51313 0.0
H382 H 0.82252 0.12259 0.48082 0.0
H383 H 0.91896 0.22859 0.43258 0.0
H384 H 0.7177 0.2091 0.49445 0.0
H385 H 0.76822 0.22098 0.52403 0.0
H386 H 0.7556 0.15364 0.51005 0.0
H387 H 0.83348 0.33933 0.43452 0.0
H388 H 0.90471 0.32092 0.43086 0.0
H389 H 0.88486 0.34867 0.46395 0.0
C390 C 0.46667 0.33236 0.53883 0.0
C391 C 0.46496 0.3885 0.53835 0.0
C392 C 0.42242 0.30191 0.54831 0.0
C393 C 0.3748 0.32817 0.55694 0.0
C394 C 0.37337 0.38493 0.557 0.0
C395 C 0.41845 0.41442 0.54767 0.0
C396 C 0.42639 0.24161 0.54893 0.0
C397 C 0.32383 0.41445 0.56653 0.0
C398 C 0.23599 0.25103 0.55273 0.0
C399 C 0.23079 0.24017 0.58138 0.0
C400 C 0.28283 0.27945 0.5445 0.0
C401 C 0.32598 0.29627 0.56536 0.0
C402 C 0.32161 0.28349 0.59421 0.0
C403 C 0.27373 0.25637 0.60187 0.0
C404 C 0.28564 0.29246 0.51356 0.0
C405 C 0.36613 0.29951 0.61745 0.0
H406 H 0.50253 0.31221 0.53154 0.0
H407 H 0.41666 0.4578 0.54695 0.0
H408 H 0.42125 0.22748 0.57073 0.0
H409 H 0.39218 0.22292 0.53458 0.0
H410 H 0.46692 0.22738 0.54234 0.0
H411 H 0.32953 0.45869 0.56575 0.0
H412 H 0.28566 0.4024 0.55281 0.0
H413 H 0.31683 0.40347 0.58863 0.0
H414 H 0.20266 0.23861 0.5369 0.0
H415 H 0.26995 0.24759 0.62404 0.0
H416 H 0.32416 0.27597 0.50576 0.0
H417 H 0.28763 0.33661 0.5111 0.0
H418 H 0.24903 0.27604 0.49995 0.0
H419 H 0.40792 0.30475 0.60951 0.0
H420 H 0.36904 0.2692 0.63444 0.0
H421 H 0.35432 0.3379 0.62729 0.0
C422 C 0.46799 0.66588 0.4904 0.0
C423 C 0.45525 0.61423 0.47919 0.0
C424 C 0.43071 0.70808 0.48518 0.0
C425 C 0.38016 0.69837 0.46796 0.0
C426 C 0.36837 0.64675 0.45568 0.0
C427 C 0.40579 0.60525 0.46166 0.0
C428 C 0.44451 0.76241 0.49885 0.0
C429 C 0.31556 0.63497 0.43667 0.0
C430 C 0.24825 0.77648 0.47472 0.0
C431 C 0.24694 0.80869 0.45071 0.0
C432 C 0.29344 0.743 0.48168 0.0
C433 C 0.33773 0.74085 0.4638 0.0
C434 C 0.33772 0.77506 0.44018 0.0
C435 C 0.29241 0.80899 0.43404 0.0
C436 C 0.29235 0.70787 0.50734 0.0
C437 C 0.38371 0.77333 0.42037 0.0
H438 H 0.50628 0.67296 0.50393 0.0
H439 H 0.39612 0.56555 0.45261 0.0
H440 H 0.44089 0.79413 0.48267 0.0
H441 H 0.4141 0.77147 0.51458 0.0
H442 H 0.48727 0.76445 0.50989 0.0
H443 H 0.31453 0.59376 0.42727 0.0
H444 H 0.27871 0.63945 0.44905 0.0
H445 H 0.31147 0.66408 0.41916 0.0
H446 H 0.2132 0.77663 0.4877 0.0
H447 H 0.29113 0.83367 0.41534 0.0
H448 H 0.33294 0.71073 0.52043 0.0
H449 H 0.2857 0.66537 0.50029 0.0
H450 H 0.25859 0.7189 0.52086 0.0
H451 H 0.42525 0.77567 0.43257 0.0
H452 H 0.38083 0.80646 0.40493 0.0
H453 H 0.38114 0.7346 0.40832 0.0
C454 C 0.02002 0.99691 0.13318 0.0
C455 C 0.02162 0.96224 0.10969 0.0
C456 C 0.99776 0.97972 0.15796 0.0
C457 C 0.97636 0.92655 0.15913 0.0
C458 C 0.97502 0.89236 0.13481 0.0
C459 C 0.99891 0.91032 0.11051 0.0
C460 C 1.00083 0.01733 0.18353 0.0
C461 C 0.95147 0.83594 0.135 0.0
C462 C 0.99719 0.87548 0.23389 0.0
C463 C 0.94711 0.89017 0.24464 0.0
C464 C 0.00581 0.8834 0.2053 0.0
C465 C 0.96273 0.90547 0.18697 0.0
C466 C 0.91005 0.91515 0.19708 0.0
C467 C 0.90311 0.90822 0.22602 0.0
C468 C 0.06292 0.87318 0.19554 0.0
C469 C 0.86249 0.93665 0.1779 0.0
H470 H 0.03861 0.03679 0.13258 0.0
H471 H 1.00279 0.88276 0.09284 0.0
H472 H 0.95921 0.02059 0.19177 0.0
H473 H 0.02966 0.00113 0.2008 0.0
H474 H 0.01587 0.0582 0.17858 0.0
H475 H 0.94566 0.81783 0.11325 0.0
H476 H 0.98021 0.81051 0.14829 0.0
H477 H 0.91078 0.83548 0.14442 0.0
H478 H 0.03138 0.86201 0.24836 0.0
H479 H 0.86422 0.91928 0.23438 0.0
H480 H 0.08393 0.91208 0.19175 0.0
H481 H 0.05945 0.84997 0.1752 0.0
H482 H 0.08981 0.85099 0.21148 0.0
H483 H 0.86993 0.98001 0.17454 0.0
H484 H 0.82188 0.93173 0.1872 0.0
H485 H 0.85971 0.91613 0.15675 0.0
C486 C 0.08745 0.09456 0.93308 0.0
C487 C 0.1156 0.04634 0.93787 0.0
C488 C 0.07771 0.11436 0.90542 0.0
C489 C 0.09726 0.0855 0.88223 0.0
C490 C 0.131 0.04018 0.88754 0.0
C491 C 0.13959 0.0211 0.91528 0.0
C492 C 0.04202 0.16312 0.90086 0.0
C493 C 0.15352 0.00863 0.86359 0.0
C494 C 0.01221 0.07435 0.81079 0.0
C495 C 0.04423 0.10533 0.79352 0.0
C496 C 0.02755 0.06993 0.84 0.0
C497 C 0.07622 0.09715 0.85237 0.0
C498 C 0.1072 0.13066 0.83538 0.0
C499 C 0.09092 0.13428 0.80614 0.0
C500 C 0.99291 0.03418 0.8574 0.0
C501 C 0.15895 0.16072 0.8478 0.0
H502 H 0.06873 0.11432 0.95044 0.0
H503 H 0.16175 0.98403 0.91896 0.0
H504 H 0.05744 0.18888 0.88419 0.0
H505 H 0.99866 0.15004 0.89364 0.0
H506 H 0.04082 0.18738 0.92077 0.0
H507 H 0.18468 0.97886 0.87152 0.0
H508 H 0.11859 0.98684 0.85114 0.0
H509 H 0.17326 0.03584 0.8489 0.0
H510 H 0.97547 0.05275 0.80133 0.0
H511 H 0.11614 0.15811 0.79296 0.0
H512 H 0.98107 0.05634 0.87648 0.0
H513 H 0.01787 0.99939 0.86491 0.0
H514 H 0.95425 0.01882 0.84507 0.0
H515 H 0.15086 0.18175 0.86789 0.0
H516 H 0.17391 0.19053 0.83285 0.0
H517 H 0.19278 0.13191 0.85296 0.0
C518 C 0.57799 0.53428 0.63188 0.0
C519 C 0.55527 0.50717 0.60716 0.0
C520 C 0.55797 0.52434 0.65827 0.0
C521 C 0.51427 0.48608 0.66004 0.0
C522 C 0.48938 0.46044 0.635 0.0
C523 C 0.51031 0.4713 0.6088 0.0
C524 C 0.58528 0.55314 0.68444 0.0
C525 C 0.44276 0.41953 0.63599 0.0
C526 C 0.5225 0.42416 0.73263 0.0
C527 C 0.48605 0.45646 0.74669 0.0
C528 C 0.52893 0.43063 0.70367 0.0
C529 C 0.4983 0.47047 0.68848 0.0
C530 C 0.45814 0.50012 0.70196 0.0
C531 C 0.45247 0.49275 0.73095 0.0
C532 C 0.57172 0.39773 0.68993 0.0
C533 C 0.42403 0.54228 0.68632 0.0
H534 H 0.6125 0.56252 0.63069 0.0
H535 H 0.49338 0.44975 0.5899 0.0
H536 H 0.55325 0.57266 0.69644 0.0
H537 H 0.6069 0.52379 0.69872 0.0
H538 H 0.61624 0.58418 0.67916 0.0
H539 H 0.42141 0.41107 0.61456 0.0
H540 H 0.46009 0.38156 0.64448 0.0
H541 H 0.41145 0.43324 0.6503 0.0
H542 H 0.5488 0.39623 0.74465 0.0
H543 H 0.4234 0.51706 0.74162 0.0
H544 H 0.60798 0.42383 0.68594 0.0
H545 H 0.55395 0.38094 0.66911 0.0
H546 H 0.58696 0.36419 0.70351 0.0
H547 H 0.45124 0.57754 0.68283 0.0
H548 H 0.38904 0.55589 0.69839 0.0
H549 H 0.40679 0.52679 0.66513 0.0
C550 C 0.62432 0.53596 0.40297 0.0
C551 C 0.60407 0.56243 0.42627 0.0
C552 C 0.61178 0.5539 0.37522 0.0
C553 C 0.57762 0.59915 0.37065 0.0
C554 C 0.56121 0.62884 0.39431 0.0
C555 C 0.57505 0.6103 0.42195 0.0
C556 C 0.631 0.5215 0.35069 0.0
C557 C 0.52491 0.67734 0.39047 0.0
C558 C 0.56258 0.6472 0.29438 0.0
C559 C 0.51479 0.6182 0.28317 0.0
C560 C 0.58219 0.64368 0.32322 0.0
C561 C 0.55338 0.61034 0.34125 0.0
C562 C 0.50362 0.5831 0.33034 0.0
C563 C 0.48502 0.58732 0.30148 0.0
C564 C 0.63515 0.67357 0.33405 0.0
C565 C 0.47124 0.54752 0.34889 0.0
H566 H 0.64705 0.49911 0.40627 0.0
H567 H 0.55907 0.63087 0.43988 0.0
H568 H 0.5947 0.49965 0.33945 0.0
H569 H 0.64891 0.54817 0.33514 0.0
H570 H 0.66277 0.49172 0.35785 0.0
H571 H 0.52467 0.70147 0.41048 0.0
H572 H 0.53909 0.70331 0.37357 0.0
H573 H 0.48137 0.66402 0.38382 0.0
H574 H 0.58607 0.67091 0.28035 0.0
H575 H 0.44754 0.5656 0.29309 0.0
H576 H 0.66914 0.64459 0.33843 0.0
H577 H 0.62945 0.69509 0.35434 0.0
H578 H 0.64858 0.70295 0.31848 0.0
H579 H 0.49681 0.51262 0.3556 0.0
H580 H 0.4313 0.53234 0.33774 0.0
H581 H 0.46194 0.56974 0.36844 0.0
loop_
_geom_bond_atom_site_label_1
_geom_bond_atom_site_label_2
_geom_bond_distance
_geom_bond_site_symmetry_2
_ccdc_geom_bond_type
Zn0 O6 1.906 1_546 S
Zn0 O12 1.898 . S
Zn0 O15 1.905 1_545 S
Zn1 O9 1.905 . S
Zn1 O10 1.898 1_545 S
Zn1 O18 1.920 1_545 S
Zn2 O5 2.080 1_445 S
Zn2 O8 2.114 . S
Zn2 O11 2.120 1_545 S
Zn2 O13 2.120 1_455 S
Zn2 O14 2.114 1_554 S
Zn2 O17 2.080 . S
C3 O8 1.166 . S
C3 O9 1.182 . S
C4 O10 1.167 . S
C4 O11 1.299 . S
O5 Zn2 2.080 1_665 S
O5 C19 1.305 . S
O6 Zn0 1.906 1_564 S
O6 C19 1.244 . S
C7 O12 1.168 . S
C7 O13 1.297 1_556 S
O8 Zn2 2.114 . S
O8 C3 1.166 . S
O9 Zn1 1.905 . S
O9 C3 1.182 . S
O10 Zn1 1.898 1_565 S
O10 C4 1.167 . S
O11 Zn2 2.120 1_565 S
O11 C4 1.299 . S
O12 Zn0 1.898 . S
O12 C7 1.168 . S
O13 Zn2 2.120 1_655 S
O13 C7 1.297 1_554 S
O14 Zn2 2.114 1_556 S
O14 C16 1.166 1_545 S
O15 Zn0 1.905 1_565 S
O15 C16 1.182 1_655 S
C16 O14 1.166 1_565 S
C16 O15 1.182 1_455 S
O17 Zn2 2.080 . S
O17 C20 1.305 1_545 S
O18 Zn1 1.920 1_565 S
O18 C20 1.234 . S
C19 O5 1.305 . S
C19 O6 1.244 . S
C20 O17 1.305 1_565 S
C20 O18 1.234 . S
Zn21 O27 1.920 . S
Zn21 O33 1.898 . S
Zn21 O36 1.905 . S
Zn22 O30 1.905 . S
Zn22 O31 1.898 . S
Zn22 O39 1.920 . S
Zn23 O26 2.080 . S
Zn23 O29 2.114 . S
Zn23 O32 2.120 . S
Zn23 O34 2.120 . S
Zn23 O35 2.114 . S
Zn23 O38 2.080 . S
C24 O29 1.166 . S
C24 O30 1.182 . S
C25 O31 1.167 . S
C25 O32 1.299 . S
O26 Zn23 2.080 . S
O26 C40 1.305 . S
O27 Zn21 1.920 . S
O27 C40 1.234 . S
C28 O33 1.167 . S
C28 O34 1.299 . S
O29 Zn23 2.114 . S
O29 C24 1.166 . S
O30 Zn22 1.905 . S
O30 C24 1.182 . S
O31 Zn22 1.898 . S
O31 C25 1.167 . S
O32 Zn23 2.120 . S
O32 C25 1.299 . S
O33 Zn21 1.898 . S
O33 C28 1.167 . S
O34 Zn23 2.120 . S
O34 C28 1.299 . S
O35 Zn23 2.114 . S
O35 C37 1.166 . S
O36 Zn21 1.905 . S
O36 C37 1.182 . S
C37 O35 1.166 . S
C37 O36 1.182 . S
O38 Zn23 2.080 . S
O38 C41 1.305 . S
O39 Zn22 1.920 . S
O39 C41 1.234 . S
C40 O26 1.305 . S
C40 O27 1.234 . S
C41 O38 1.305 . S
C41 O39 1.234 . S
C42 C43 1.386 1_565 S
C42 C44 1.397 . S
C42 H66 0.931 . S
C43 C42 1.386 1_545 S
C43 C47 1.397 . S
C44 C42 1.397 . S
C44 C45 1.384 1_565 S
C44 H67 0.930 . S
C45 C44 1.384 1_545 S
C45 C46 1.377 . S
C45 C48 1.481 . S
C46 C45 1.377 . S
C46 C47 1.389 . S
C46 H68 0.929 . S
C47 C43 1.397 . S
C47 C46 1.389 . S
C47 H69 0.931 . S
C48 C45 1.481 . S
C48 C49 1.387 1_545 S
C48 C53 1.390 . S
C49 C48 1.387 1_565 S
C49 C50 1.401 . S
C49 H70 0.930 . S
C50 C49 1.401 . S
C50 C51 1.376 1_565 S
C50 C59 1.511 . S
C51 C50 1.376 1_545 S
C51 C52 1.392 . S
C51 H72 0.931 . S
C52 C51 1.392 . S
C52 C53 1.361 . S
C52 C54 1.500 . S
C53 C48 1.390 . S
C53 C52 1.361 . S
C53 H71 0.931 . S
C54 C52 1.500 . S
C54 C55 1.371 1_455 S
C54 C56 1.365 1_455 S
C55 C54 1.371 1_655 S
C55 C65 1.386 . S
C55 H73 0.931 . S
C56 C54 1.365 1_655 S
C56 C57 1.409 . S
C56 H74 0.929 1_655 S
C57 C56 1.409 . S
C57 C58 1.380 . S
C57 H75 0.930 . S
C58 C57 1.380 . S
C58 C65 1.357 . S
C59 C50 1.511 . S
C59 C60 1.341 . S
C59 C61 1.371 . S
C60 C59 1.341 . S
C60 C64 1.394 . S
C60 H76 0.930 . S
C61 C59 1.371 . S
C61 C62 1.392 . S
C61 H77 0.931 . S
C62 C61 1.392 . S
C62 C63 1.331 . S
C62 H80 0.932 . S
C63 C62 1.331 . S
C63 C64 1.336 . S
C64 C60 1.394 . S
C64 C63 1.336 . S
C64 H79 0.929 . S
C65 C55 1.386 . S
C65 C58 1.357 . S
C65 H78 0.928 . S
H66 C42 0.931 . S
H67 C44 0.930 . S
H68 C46 0.929 . S
H69 C47 0.931 . S
H70 C49 0.930 . S
H71 C53 0.931 . S
H72 C51 0.931 . S
H73 C55 0.931 . S
H74 C56 0.929 1_455 S
H75 C57 0.930 . S
H76 C60 0.930 . S
H77 C61 0.931 . S
H78 C65 0.928 . S
H79 C64 0.929 . S
H80 C62 0.932 . S
C81 C82 1.386 . S
C81 C83 1.397 . S
C81 H105 0.931 . S
C82 C81 1.386 . S
C82 C86 1.397 1_545 S
C83 C81 1.397 . S
C83 C84 1.384 . S
C83 H106 0.930 . S
C84 C83 1.384 . S
C84 C85 1.377 1_545 S
C84 C87 1.481 . S
C85 C84 1.377 1_565 S
C85 C86 1.389 . S
C85 H107 0.929 . S
C86 C82 1.397 1_565 S
C86 C85 1.389 . S
C86 H108 0.931 . S
C87 C84 1.481 . S
C87 C88 1.387 . S
C87 C92 1.390 1_445 S
C88 C87 1.387 . S
C88 C89 1.401 . S
C88 H109 0.930 . S
C89 C88 1.401 . S
C89 C90 1.376 1_455 S
C89 C98 1.511 . S
C90 C89 1.376 1_655 S
C90 C91 1.392 1_545 S
C90 H111 0.931 . S
C91 C90 1.392 1_565 S
C91 C92 1.361 . S
C91 C93 1.500 . S
C92 C87 1.390 1_665 S
C92 C91 1.361 . S
C92 H110 0.931 . S
C93 C91 1.500 . S
C93 C94 1.371 . S
C93 C95 1.365 . S
C94 C93 1.371 . S
C94 C104 1.386 . S
C94 H112 0.931 . S
C95 C93 1.365 . S
C95 C96 1.409 . S
C95 H113 0.929 . S
C96 C95 1.409 . S
C96 C97 1.380 . S
C96 H114 0.930 . S
C97 C96 1.380 . S
C97 C104 1.357 . S
C98 C89 1.511 . S
C98 C99 1.341 . S
C98 C100 1.371 . S
C99 C98 1.341 . S
C99 C103 1.394 . S
C99 H115 0.930 . S
C100 C98 1.371 . S
C100 C101 1.392 . S
C100 H116 0.931 . S
C101 C100 1.392 . S
C101 C102 1.331 . S
C101 H119 0.932 . S
C102 C101 1.331 . S
C102 C103 1.336 . S
C103 C99 1.394 . S
C103 C102 1.336 . S
C103 H118 0.929 . S
C104 C94 1.386 . S
C104 C97 1.357 . S
C104 H117 0.928 . S
H105 C81 0.931 . S
H106 C83 0.930 . S
H107 C85 0.929 . S
H108 C86 0.931 . S
H109 C88 0.930 . S
H110 C92 0.931 . S
H111 C90 0.931 . S
H112 C94 0.931 . S
H113 C95 0.929 . S
H114 C96 0.930 . S
H115 C99 0.930 . S
H116 C100 0.931 . S
H117 C104 0.928 . S
H118 C103 0.929 . S
H119 C101 0.932 . S
C120 C121 1.386 . S
C120 C122 1.397 . S
C120 H144 0.931 . S
C121 C120 1.386 . S
C121 C125 1.397 . S
C122 C120 1.397 . S
C122 C123 1.384 . S
C122 H145 0.930 . S
C123 C122 1.384 . S
C123 C124 1.377 . S
C123 C126 1.481 . S
C124 C123 1.377 . S
C124 C125 1.389 . S
C124 H146 0.929 . S
C125 C121 1.397 . S
C125 C124 1.389 . S
C125 H147 0.931 . S
C126 C123 1.481 . S
C126 C127 1.387 . S
C126 C131 1.390 . S
C127 C126 1.387 . S
C127 C128 1.401 . S
C127 H148 0.930 . S
C128 C127 1.401 . S
C128 C129 1.376 . S
C128 C137 1.511 . S
C129 C128 1.376 . S
C129 C130 1.392 . S
C129 H150 0.931 . S
C130 C129 1.392 . S
C130 C131 1.361 . S
C130 C132 1.500 . S
C131 C126 1.390 . S
C131 C130 1.361 . S
C131 H149 0.931 . S
C132 C130 1.500 . S
C132 C133 1.371 . S
C132 C134 1.365 . S
C133 C132 1.371 . S
C133 C143 1.386 . S
C133 H151 0.931 . S
C134 C132 1.365 . S
C134 C135 1.409 . S
C134 H152 0.929 . S
C135 C134 1.409 . S
C135 C136 1.380 . S
C135 H153 0.930 . S
C136 C135 1.380 . S
C136 C143 1.357 . S
C137 C128 1.511 . S
C137 C138 1.341 . S
C137 C139 1.371 . S
C138 C137 1.341 . S
C138 C142 1.394 . S
C138 H154 0.930 . S
C139 C137 1.371 . S
C139 C140 1.392 . S
C139 H155 0.931 . S
C140 C139 1.392 . S
C140 C141 1.331 . S
C140 H158 0.932 . S
C141 C140 1.331 . S
C141 C142 1.336 . S
C142 C138 1.394 . S
C142 C141 1.336 . S
C142 H157 0.929 . S
C143 C133 1.386 . S
C143 C136 1.357 . S
C143 H156 0.928 . S
H144 C120 0.931 . S
H145 C122 0.930 . S
H146 C124 0.929 . S
H147 C125 0.931 . S
H148 C127 0.930 . S
H149 C131 0.931 . S
H150 C129 0.931 . S
H151 C133 0.931 . S
H152 C134 0.929 . S
H153 C135 0.930 . S
H154 C138 0.930 . S
H155 C139 0.931 . S
H156 C143 0.928 . S
H157 C142 0.929 . S
H158 C140 0.932 . S
C159 C160 1.386 . S
C159 C161 1.397 . S
C159 H183 0.931 . S
C160 C159 1.386 . S
C160 C164 1.397 . S
C161 C159 1.397 . S
C161 C162 1.384 . S
C161 H184 0.930 . S
C162 C161 1.384 . S
C162 C163 1.377 . S
C162 C165 1.481 . S
C163 C162 1.377 . S
C163 C164 1.389 . S
C163 H185 0.929 . S
C164 C160 1.397 . S
C164 C163 1.389 . S
C164 H186 0.931 . S
C165 C162 1.481 . S
C165 C166 1.387 . S
C165 C170 1.390 . S
C166 C165 1.387 . S
C166 C167 1.401 . S
C166 H187 0.930 . S
C167 C166 1.401 . S
C167 C168 1.376 . S
C167 C176 1.511 . S
C168 C167 1.376 . S
C168 C169 1.392 . S
C168 H189 0.931 . S
C169 C168 1.392 . S
C169 C170 1.361 . S
C169 C171 1.500 . S
C170 C165 1.390 . S
C170 C169 1.361 . S
C170 H188 0.931 . S
C171 C169 1.500 . S
C171 C172 1.371 . S
C171 C173 1.365 . S
C172 C171 1.371 . S
C172 C182 1.386 . S
C172 H190 0.931 . S
C173 C171 1.365 . S
C173 C174 1.409 . S
C173 H191 0.929 . S
C174 C173 1.409 . S
C174 C175 1.380 . S
C174 H192 0.930 . S
C175 C174 1.380 . S
C175 C182 1.357 . S
C176 C167 1.511 . S
C176 C177 1.341 . S
C176 C178 1.371 . S
C177 C176 1.341 . S
C177 C181 1.394 . S
C177 H193 0.930 . S
C178 C176 1.371 . S
C178 C179 1.392 . S
C178 H194 0.931 . S
C179 C178 1.392 . S
C179 C180 1.331 . S
C179 H197 0.932 . S
C180 C179 1.331 . S
C180 C181 1.336 . S
C181 C177 1.394 . S
C181 C180 1.336 . S
C181 H196 0.929 . S
C182 C172 1.386 . S
C182 C175 1.357 . S
C182 H195 0.928 . S
H183 C159 0.931 . S
H184 C161 0.930 . S
H185 C163 0.929 . S
H186 C164 0.931 . S
H187 C166 0.930 . S
H188 C170 0.931 . S
H189 C168 0.931 . S
H190 C172 0.931 . S
H191 C173 0.929 . S
H192 C174 0.930 . S
H193 C177 0.930 . S
H194 C178 0.931 . S
H195 C182 0.928 . S
H196 C181 0.929 . S
H197 C179 0.932 . S
C198 C199 1.391 . S
C198 C200 1.394 . S
C198 H214 0.931 . S
C199 C198 1.391 . S
C199 C203 1.376 . S
C200 C198 1.394 . S
C200 C201 1.369 . S
C200 C204 1.531 . S
C201 C200 1.369 . S
C201 C202 1.410 . S
C201 C209 1.503 . S
C202 C201 1.410 . S
C202 C203 1.392 . S
C202 C205 1.511 1_554 S
C203 C199 1.376 . S
C203 C202 1.392 . S
C203 H215 0.929 1_554 S
C204 C200 1.531 . S
C204 H216 0.960 . S
C204 H217 0.962 . S
C204 H218 0.960 . S
C205 C202 1.511 1_556 S
C205 H219 0.961 . S
C205 H220 0.961 1_556 S
C205 H221 0.961 . S
C206 C207 1.370 . S
C206 C208 1.363 . S
C206 H222 0.931 . S
C207 C206 1.370 . S
C207 C211 1.408 . S
C208 C206 1.363 . S
C208 C209 1.370 . S
C208 C212 1.524 . S
C209 C201 1.503 . S
C209 C208 1.370 . S
C209 C210 1.403 . S
C210 C209 1.403 . S
C210 C211 1.404 . S
C210 C213 1.539 . S
C211 C207 1.408 . S
C211 C210 1.404 . S
C211 H223 0.930 . S
C212 C208 1.524 . S
C212 H224 0.956 . S
C212 H225 0.961 . S
C212 H226 0.961 . S
C213 C210 1.539 . S
C213 H227 0.958 . S
C213 H228 0.961 1_554 S
C213 H229 0.960 1_554 S
H214 C198 0.931 . S
H215 C203 0.929 1_556 S
H216 C204 0.960 . S
H217 C204 0.962 . S
H218 C204 0.960 . S
H219 C205 0.961 . S
H220 C205 0.961 1_554 S
H221 C205 0.961 . S
H222 C206 0.931 . S
H223 C211 0.930 . S
H224 C212 0.956 . S
H225 C212 0.961 . S
H226 C212 0.961 . S
H227 C213 0.958 . S
H228 C213 0.961 1_556 S
H229 C213 0.960 1_556 S
C230 C231 1.363 1_554 S
C230 C232 1.394 . S
C230 H246 0.931 . S
C231 C230 1.363 1_556 S
C231 C235 1.411 . S
C232 C230 1.394 . S
C232 C233 1.369 1_554 S
C232 C236 1.531 . S
C233 C232 1.369 1_556 S
C233 C234 1.410 . S
C233 C241 1.503 . S
C234 C233 1.410 . S
C234 C235 1.392 . S
C234 C237 1.511 . S
C235 C231 1.411 . S
C235 C234 1.392 . S
C235 H247 0.929 . S
C236 C232 1.531 . S
C236 H248 0.960 . S
C236 H249 0.962 . S
C236 H250 0.960 . S
C237 C234 1.511 . S
C237 H251 0.961 . S
C237 H252 0.961 . S
C237 H253 0.961 . S
C238 C239 1.370 . S
C238 C240 1.363 . S
C238 H254 0.931 . S
C239 C238 1.370 . S
C239 C243 1.408 . S
C240 C238 1.363 . S
C240 C241 1.370 . S
C240 C244 1.524 . S
C241 C233 1.503 . S
C241 C240 1.370 . S
C241 C242 1.403 . S
C242 C241 1.403 . S
C242 C243 1.404 . S
C242 C245 1.539 . S
C243 C239 1.408 . S
C243 C242 1.404 . S
C243 H255 0.930 . S
C244 C240 1.524 . S
C244 H256 0.956 . S
C244 H257 0.961 . S
C244 H258 0.961 . S
C245 C242 1.539 . S
C245 H259 0.958 1_556 S
C245 H260 0.961 . S
C245 H261 0.960 . S
H246 C230 0.931 . S
H247 C235 0.929 . S
H248 C236 0.960 . S
H249 C236 0.962 . S
H250 C236 0.960 . S
H251 C237 0.961 . S
H252 C237 0.961 . S
H253 C237 0.961 . S
H254 C238 0.931 . S
H255 C243 0.930 . S
H256 C244 0.956 . S
H257 C244 0.961 . S
H258 C244 0.961 . S
H259 C245 0.958 1_554 S
H260 C245 0.961 . S
H261 C245 0.960 . S
C262 C263 1.391 . S
C262 C264 1.394 . S
C262 H278 0.931 . S
C263 C262 1.391 . S
C263 C267 1.376 . S
C264 C262 1.394 . S
C264 C265 1.369 . S
C264 C268 1.531 . S
C265 C264 1.369 . S
C265 C266 1.410 . S
C265 C273 1.503 . S
C266 C265 1.410 . S
C266 C267 1.392 . S
C266 C269 1.511 1_554 S
C267 C263 1.376 . S
C267 C266 1.392 . S
C267 H279 0.929 1_554 S
C268 C264 1.531 . S
C268 H280 0.960 . S
C268 H281 0.962 . S
C268 H282 0.960 . S
C269 C266 1.511 1_556 S
C269 H283 0.961 . S
C269 H284 0.961 . S
C269 H285 0.961 . S
C270 C271 1.370 . S
C270 C272 1.363 . S
C270 H286 0.931 . S
C271 C270 1.370 . S
C271 C275 1.408 . S
C272 C270 1.363 . S
C272 C273 1.370 . S
C272 C276 1.524 . S
C273 C265 1.503 . S
C273 C272 1.370 . S
C273 C274 1.403 . S
C274 C273 1.403 . S
C274 C275 1.404 . S
C274 C277 1.539 . S
C275 C271 1.408 . S
C275 C274 1.404 . S
C275 H287 0.930 . S
C276 C272 1.524 . S
C276 H288 0.956 . S
C276 H289 0.961 . S
C276 H290 0.961 . S
C277 C274 1.539 . S
C277 H291 0.958 . S
C277 H292 0.961 . S
C277 H293 0.960 . S
H278 C262 0.931 . S
H279 C267 0.929 1_556 S
H280 C268 0.960 . S
H281 C268 0.962 . S
H282 C268 0.960 . S
H283 C269 0.961 . S
H284 C269 0.961 . S
H285 C269 0.961 . S
H286 C270 0.931 . S
H287 C275 0.930 . S
H288 C276 0.956 . S
H289 C276 0.961 . S
H290 C276 0.961 . S
H291 C277 0.958 . S
H292 C277 0.961 . S
H293 C277 0.960 . S
C294 C295 1.391 . S
C294 C296 1.394 . S
C294 H310 0.931 . S
C295 C294 1.391 . S
C295 C299 1.376 1_554 S
C296 C294 1.394 . S
C296 C297 1.369 1_554 S
C296 C300 1.531 . S
C297 C296 1.369 1_556 S
C297 C298 1.410 . S
C297 C305 1.503 . S
C298 C297 1.410 . S
C298 C299 1.392 . S
C298 C301 1.511 . S
C299 C295 1.376 1_556 S
C299 C298 1.392 . S
C299 H311 0.929 . S
C300 C296 1.531 . S
C300 H312 0.960 . S
C300 H313 0.962 . S
C300 H314 0.960 . S
C301 C298 1.511 . S
C301 H315 0.961 . S
C301 H316 0.961 . S
C301 H317 0.961 . S
C302 C303 1.370 . S
C302 C304 1.363 . S
C302 H318 0.931 . S
C303 C302 1.370 . S
C303 C307 1.408 . S
C304 C302 1.363 . S
C304 C305 1.370 . S
C304 C308 1.524 1_556 S
C305 C297 1.503 . S
C305 C304 1.370 . S
C305 C306 1.403 . S
C306 C305 1.403 . S
C306 C307 1.404 . S
C306 C309 1.539 . S
C307 C303 1.408 . S
C307 C306 1.404 . S
C307 H319 0.930 . S
C308 C304 1.524 1_554 S
C308 H320 0.956 . S
C308 H321 0.961 1_554 S
C308 H322 0.961 . S
C309 C306 1.539 . S
C309 H323 0.958 . S
C309 H324 0.961 . S
C309 H325 0.960 . S
H310 C294 0.931 . S
H311 C299 0.929 . S
H312 C300 0.960 . S
H313 C300 0.962 . S
H314 C300 0.960 . S
H315 C301 0.961 . S
H316 C301 0.961 . S
H317 C301 0.961 . S
H318 C302 0.931 . S
H319 C307 0.930 . S
H320 C308 0.956 . S
H321 C308 0.961 1_556 S
H322 C308 0.961 . S
H323 C309 0.958 . S
H324 C309 0.961 . S
H325 C309 0.960 . S
C326 C327 1.391 . S
C326 C328 1.394 . S
C326 H342 0.931 . S
C327 C326 1.391 . S
C327 C331 1.376 . S
C328 C326 1.394 . S
C328 C329 1.369 . S
C328 C332 1.531 . S
C329 C328 1.369 . S
C329 C330 1.410 . S
C329 C337 1.503 . S
C330 C329 1.410 . S
C330 C331 1.392 . S
C330 C333 1.511 . S
C331 C327 1.376 . S
C331 C330 1.392 . S
C331 H343 0.929 . S
C332 C328 1.531 . S
C332 H344 0.960 . S
C332 H345 0.962 . S
C332 H346 0.960 . S
C333 C330 1.511 . S
C333 H347 0.961 . S
C333 H348 0.961 . S
C333 H349 0.961 . S
C334 C335 1.370 . S
C334 C336 1.363 . S
C334 H350 0.931 . S
C335 C334 1.370 . S
C335 C339 1.408 . S
C336 C334 1.363 . S
C336 C337 1.370 . S
C336 C340 1.524 . S
C337 C329 1.503 . S
C337 C336 1.370 . S
C337 C338 1.403 . S
C338 C337 1.403 . S
C338 C339 1.404 . S
C338 C341 1.539 . S
C339 C335 1.408 . S
C339 C338 1.404 . S
C339 H351 0.930 . S
C340 C336 1.524 . S
C340 H352 0.956 . S
C340 H353 0.961 . S
C340 H354 0.961 . S
C341 C338 1.539 . S
C341 H355 0.958 . S
C341 H356 0.961 . S
C341 H357 0.960 . S
H342 C326 0.931 . S
H343 C331 0.929 . S
H344 C332 0.960 . S
H345 C332 0.962 . S
H346 C332 0.960 . S
H347 C333 0.961 . S
H348 C333 0.961 . S
H349 C333 0.961 . S
H350 C334 0.931 . S
H351 C339 0.930 . S
H352 C340 0.956 . S
H353 C340 0.961 . S
H354 C340 0.961 . S
H355 C341 0.958 . S
H356 C341 0.961 . S
H357 C341 0.960 . S
C358 C359 1.391 . S
C358 C360 1.394 . S
C358 H374 0.931 . S
C359 C358 1.391 . S
C359 C363 1.376 . S
C360 C358 1.394 . S
C360 C361 1.369 . S
C360 C364 1.531 . S
C361 C360 1.369 . S
C361 C362 1.410 . S
C361 C369 1.503 . S
C362 C361 1.410 . S
C362 C363 1.392 . S
C362 C365 1.511 . S
C363 C359 1.376 . S
C363 C362 1.392 . S
C363 H375 0.929 . S
C364 C360 1.531 . S
C364 H376 0.960 . S
C364 H377 0.962 . S
C364 H378 0.960 . S
C365 C362 1.511 . S
C365 H379 0.961 . S
C365 H380 0.961 . S
C365 H381 0.961 . S
C366 C367 1.370 . S
C366 C368 1.363 . S
C366 H382 0.931 . S
C367 C366 1.370 . S
C367 C371 1.408 . S
C368 C366 1.363 . S
C368 C369 1.370 . S
C368 C372 1.524 . S
C369 C361 1.503 . S
C369 C368 1.370 . S
C369 C370 1.403 . S
C370 C369 1.403 . S
C370 C371 1.404 . S
C370 C373 1.539 . S
C371 C367 1.408 . S
C371 C370 1.404 . S
C371 H383 0.930 . S
C372 C368 1.524 . S
C372 H384 0.956 . S
C372 H385 0.961 . S
C372 H386 0.961 . S
C373 C370 1.539 . S
C373 H387 0.958 . S
C373 H388 0.961 . S
C373 H389 0.960 . S
H374 C358 0.931 . S
H375 C363 0.929 . S
H376 C364 0.960 . S
H377 C364 0.962 . S
H378 C364 0.960 . S
H379 C365 0.961 . S
H380 C365 0.961 . S
H381 C365 0.961 . S
H382 C366 0.931 . S
H383 C371 0.930 . S
H384 C372 0.956 . S
H385 C372 0.961 . S
H386 C372 0.961 . S
H387 C373 0.958 . S
H388 C373 0.961 . S
H389 C373 0.960 . S
C390 C391 1.391 . S
C390 C392 1.394 . S
C390 H406 0.931 . S
C391 C390 1.391 . S
C391 C395 1.376 . S
C392 C390 1.394 . S
C392 C393 1.369 . S
C392 C396 1.531 . S
C393 C392 1.369 . S
C393 C394 1.410 . S
C393 C401 1.503 . S
C394 C393 1.410 . S
C394 C395 1.392 . S
C394 C397 1.511 . S
C395 C391 1.376 . S
C395 C394 1.392 . S
C395 H407 0.929 . S
C396 C392 1.531 . S
C396 H408 0.960 . S
C396 H409 0.962 . S
C396 H410 0.960 . S
C397 C394 1.511 . S
C397 H411 0.961 . S
C397 H412 0.961 . S
C397 H413 0.961 . S
C398 C399 1.370 . S
C398 C400 1.363 . S
C398 H414 0.931 . S
C399 C398 1.370 . S
C399 C403 1.408 . S
C400 C398 1.363 . S
C400 C401 1.370 . S
C400 C404 1.524 . S
C401 C393 1.503 . S
C401 C400 1.370 . S
C401 C402 1.403 . S
C402 C401 1.403 . S
C402 C403 1.404 . S
C402 C405 1.539 . S
C403 C399 1.408 . S
C403 C402 1.404 . S
C403 H415 0.930 . S
C404 C400 1.524 . S
C404 H416 0.956 . S
C404 H417 0.961 . S
C404 H418 0.961 . S
C405 C402 1.539 . S
C405 H419 0.958 . S
C405 H420 0.961 . S
C405 H421 0.960 . S
H406 C390 0.931 . S
H407 C395 0.929 . S
H408 C396 0.960 . S
H409 C396 0.962 . S
H410 C396 0.960 . S
H411 C397 0.961 . S
H412 C397 0.961 . S
H413 C397 0.961 . S
H414 C398 0.931 . S
H415 C403 0.930 . S
H416 C404 0.956 . S
H417 C404 0.961 . S
H418 C404 0.961 . S
H419 C405 0.958 . S
H420 C405 0.961 . S
H421 C405 0.960 . S
C422 C423 1.391 . S
C422 C424 1.394 . S
C422 H438 0.931 . S
C423 C422 1.391 . S
C423 C427 1.376 . S
C424 C422 1.394 . S
C424 C425 1.369 . S
C424 C428 1.531 . S
C425 C424 1.369 . S
C425 C426 1.410 . S
C425 C433 1.503 . S
C426 C425 1.410 . S
C426 C427 1.392 . S
C426 C429 1.511 . S
C427 C423 1.376 . S
C427 C426 1.392 . S
C427 H439 0.929 . S
C428 C424 1.531 . S
C428 H440 0.960 . S
C428 H441 0.962 . S
C428 H442 0.960 . S
C429 C426 1.511 . S
C429 H443 0.961 . S
C429 H444 0.961 . S
C429 H445 0.961 . S
C430 C431 1.370 . S
C430 C432 1.363 . S
C430 H446 0.931 . S
C431 C430 1.370 . S
C431 C435 1.408 . S
C432 C430 1.363 . S
C432 C433 1.370 . S
C432 C436 1.524 . S
C433 C425 1.503 . S
C433 C432 1.370 . S
C433 C434 1.403 . S
C434 C433 1.403 . S
C434 C435 1.404 . S
C434 C437 1.539 . S
C435 C431 1.408 . S
C435 C434 1.404 . S
C435 H447 0.930 . S
C436 C432 1.524 . S
C436 H448 0.956 . S
C436 H449 0.961 . S
C436 H450 0.961 . S
C437 C434 1.539 . S
C437 H451 0.958 . S
C437 H452 0.961 . S
C437 H453 0.960 . S
H438 C422 0.931 . S
H439 C427 0.929 . S
H440 C428 0.960 . S
H441 C428 0.962 . S
H442 C428 0.960 . S
H443 C429 0.961 . S
H444 C429 0.961 . S
H445 C429 0.961 . S
H446 C430 0.931 . S
H447 C435 0.930 . S
H448 C436 0.956 . S
H449 C436 0.961 . S
H450 C436 0.961 . S
H451 C437 0.958 . S
H452 C437 0.961 . S
H453 C437 0.960 . S
C454 C455 1.391 1_545 S
C454 C456 1.394 . S
C454 H470 0.931 . S
C455 C454 1.391 1_565 S
C455 C459 1.376 1_455 S
C456 C454 1.394 . S
C456 C457 1.369 . S
C456 C460 1.531 . S
C457 C456 1.369 . S
C457 C458 1.401 1_445 S
C457 C465 1.503 . S
C458 C457 1.401 1_665 S
C458 C459 1.392 . S
C458 C461 1.520 . S
C459 C455 1.376 1_655 S
C459 C458 1.392 . S
C459 H471 0.929 . S
C460 C456 1.531 . S
C460 H472 0.960 . S
C460 H473 0.962 . S
C460 H474 0.960 . S
C461 C458 1.520 . S
C461 H475 0.961 . S
C461 H476 0.961 . S
C461 H477 0.961 1_565 S
C462 C463 1.370 1_565 S
C462 C464 1.363 . S
C462 H478 0.931 . S
C463 C462 1.370 1_545 S
C463 C467 1.408 . S
C464 C462 1.363 . S
C464 C465 1.370 1_565 S
C464 C468 1.524 . S
C465 C457 1.503 . S
C465 C464 1.370 1_545 S
C465 C466 1.403 . S
C466 C465 1.403 . S
C466 C467 1.404 . S
C466 C469 1.539 . S
C467 C463 1.408 . S
C467 C466 1.404 . S
C467 H479 0.930 . S
C468 C464 1.524 . S
C468 H480 0.956 . S
C468 H481 0.961 . S
C468 H482 0.961 . S
C469 C466 1.539 . S
C469 H483 0.958 . S
C469 H484 0.961 1_455 S
C469 H485 0.960 1_455 S
H470 C454 0.931 . S
H471 C459 0.929 . S
H472 C460 0.960 . S
H473 C460 0.962 . S
H474 C460 0.960 . S
H475 C461 0.961 . S
H476 C461 0.961 . S
H477 C461 0.961 1_545 S
H478 C462 0.931 . S
H479 C467 0.930 . S
H480 C468 0.956 . S
H481 C468 0.961 . S
H482 C468 0.961 . S
H483 C469 0.958 . S
H484 C469 0.961 1_655 S
H485 C469 0.960 1_655 S
C486 C487 1.391 1_645 S
C486 C488 1.394 . S
C486 H502 0.931 . S
C487 C486 1.391 1_465 S
C487 C491 1.376 . S
C488 C486 1.394 . S
C488 C489 1.369 1_655 S
C488 C492 1.531 . S
C489 C488 1.369 1_455 S
C489 C490 1.410 1_545 S
C489 C497 1.503 . S
C490 C489 1.410 1_565 S
C490 C491 1.392 . S
C490 C493 1.511 . S
C491 C487 1.376 . S
C491 C490 1.392 . S
C491 H503 0.929 . S
C492 C488 1.531 . S
C492 H504 0.960 . S
C492 H505 0.962 . S
C492 H506 0.960 . S
C493 C490 1.511 . S
C493 H507 0.961 . S
C493 H508 0.961 . S
C493 H509 0.961 1_565 S
C494 C495 1.370 1_665 S
C494 C496 1.363 . S
C494 H510 0.931 . S
C495 C494 1.370 1_445 S
C495 C499 1.408 . S
C496 C494 1.363 . S
C496 C497 1.370 1_665 S
C496 C500 1.524 . S
C497 C489 1.503 . S
C497 C496 1.370 1_445 S
C497 C498 1.403 . S
C498 C497 1.403 . S
C498 C499 1.404 . S
C498 C501 1.539 . S
C499 C495 1.408 . S
C499 C498 1.404 . S
C499 H511 0.930 . S
C500 C496 1.524 . S
C500 H512 0.956 . S
C500 H513 0.961 1_655 S
C500 H514 0.961 . S
C501 C498 1.539 . S
C501 H515 0.958 . S
C501 H516 0.961 . S
C501 H517 0.960 . S
H502 C486 0.931 . S
H503 C491 0.929 . S
H504 C492 0.960 . S
H505 C492 0.962 . S
H506 C492 0.960 . S
H507 C493 0.961 . S
H508 C493 0.961 . S
H509 C493 0.961 1_545 S
H510 C494 0.931 . S
H511 C499 0.930 . S
H512 C500 0.956 . S
H513 C500 0.961 1_455 S
H514 C500 0.961 . S
H515 C501 0.958 . S
H516 C501 0.961 . S
H517 C501 0.960 . S
C518 C519 1.391 . S
C518 C520 1.394 . S
C518 H534 0.931 . S
C519 C518 1.391 . S
C519 C523 1.376 . S
C520 C518 1.394 . S
C520 C521 1.369 . S
C520 C524 1.531 . S
C521 C520 1.369 . S
C521 C522 1.410 . S
C521 C529 1.503 . S
C522 C521 1.410 . S
C522 C523 1.392 . S
C522 C525 1.511 . S
C523 C519 1.376 . S
C523 C522 1.392 . S
C523 H535 0.929 . S
C524 C520 1.531 . S
C524 H536 0.960 . S
C524 H537 0.962 . S
C524 H538 0.960 . S
C525 C522 1.511 . S
C525 H539 0.961 . S
C525 H540 0.961 . S
C525 H541 0.961 . S
C526 C527 1.370 . S
C526 C528 1.363 . S
C526 H542 0.931 . S
C527 C526 1.370 . S
C527 C531 1.408 . S
C528 C526 1.363 . S
C528 C529 1.370 . S
C528 C532 1.524 . S
C529 C521 1.503 . S
C529 C528 1.370 . S
C529 C530 1.403 . S
C530 C529 1.403 . S
C530 C531 1.404 . S
C530 C533 1.539 . S
C531 C527 1.408 . S
C531 C530 1.404 . S
C531 H543 0.930 . S
C532 C528 1.524 . S
C532 H544 0.956 . S
C532 H545 0.961 . S
C532 H546 0.961 . S
C533 C530 1.539 . S
C533 H547 0.958 . S
C533 H548 0.961 . S
C533 H549 0.960 . S
H534 C518 0.931 . S
H535 C523 0.929 . S
H536 C524 0.960 . S
H537 C524 0.962 . S
H538 C524 0.960 . S
H539 C525 0.961 . S
H540 C525 0.961 . S
H541 C525 0.961 . S
H542 C526 0.931 . S
H543 C531 0.930 . S
H544 C532 0.956 . S
H545 C532 0.961 . S
H546 C532 0.961 . S
H547 C533 0.958 . S
H548 C533 0.961 . S
H549 C533 0.960 . S
C550 C551 1.391 . S
C550 C552 1.394 . S
C550 H566 0.931 . S
C551 C550 1.391 . S
C551 C555 1.376 . S
C552 C550 1.394 . S
C552 C553 1.369 . S
C552 C556 1.531 . S
C553 C552 1.369 . S
C553 C554 1.410 . S
C553 C561 1.503 . S
C554 C553 1.410 . S
C554 C555 1.392 . S
C554 C557 1.511 . S
C555 C551 1.376 . S
C555 C554 1.392 . S
C555 H567 0.929 . S
C556 C552 1.531 . S
C556 H568 0.960 . S
C556 H569 0.962 . S
C556 H570 0.960 . S
C557 C554 1.511 . S
C557 H571 0.961 . S
C557 H572 0.961 . S
C557 H573 0.961 . S
C558 C559 1.370 . S
C558 C560 1.363 . S
C558 H574 0.931 . S
C559 C558 1.370 . S
C559 C563 1.408 . S
C560 C558 1.363 . S
C560 C561 1.370 . S
C560 C564 1.524 . S
C561 C553 1.503 . S
C561 C560 1.370 . S
C561 C562 1.403 . S
C562 C561 1.403 . S
C562 C563 1.404 . S
C562 C565 1.539 . S
C563 C559 1.408 . S
C563 C562 1.404 . S
C563 H575 0.930 . S
C564 C560 1.524 . S
C564 H576 0.956 . S
C564 H577 0.961 . S
C564 H578 0.961 . S
C565 C562 1.539 . S
C565 H579 0.958 . S
C565 H580 0.961 . S
C565 H581 0.960 . S
H566 C550 0.931 . S
H567 C555 0.929 . S
H568 C556 0.960 . S
H569 C556 0.962 . S
H570 C556 0.960 . S
H571 C557 0.961 . S
H572 C557 0.961 . S
H573 C557 0.961 . S
H574 C558 0.931 . S
H575 C563 0.930 . S
H576 C564 0.956 . S
H577 C564 0.961 . S
H578 C564 0.961 . S
H579 C565 0.958 . S
H580 C565 0.961 . S
H581 C565 0.960 . S
C207 C175 1.238 . S
C199 C3 1.107 . S
C231 C4 1.496 1_556 S
C239 C136 1.612 . S
C263 C19 1.499 . S
C271 C180 1.634 . S
C295 C7 1.158 1_554 S
C303 C141 1.235 . S
C327 C37 1.184 . S
C335 C97 1.239 . S
C359 C28 1.507 . S
C367 C58 1.609 . S
C399 C102 1.627 . S
C391 C41 1.565 . S
C431 C63 1.236 . S
C423 C25 1.165 . S
C455 C20 1.290 . S
C463 C43 1.460 . S
C487 C16 1.338 . S
C495 C82 1.509 . S
C527 C121 1.459 . S
C519 C40 1.295 . S
C551 C24 1.338 . S
C559 C160 1.505 . S
