# Generated by pormake.
# Topology pyr, (3,6)-cn, num edge types: 1
# Building blocks:
#     Node 0, Type 0, BuildingBlock: MIDCAF_clean_linker_0, # of connection points: 3
#     Node 1, Type 0, BuildingBlock: MIDCAF_clean_linker_0, # of connection points: 3
#     Node 2, Type 0, BuildingBlock: MIDCAF_clean_linker_0, # of connection points: 3
#     Node 3, Type 0, BuildingBlock: MIDCAF_clean_linker_0, # of connection points: 3
#     Node 4, Type 0, BuildingBlock: MIDCAF_clean_linker_0, # of connection points: 3
#     Node 5, Type 0, BuildingBlock: MIDCAF_clean_linker_0, # of connection points: 3
#     Node 6, Type 0, BuildingBlock: MIDCAF_clean_linker_0, # of connection points: 3
#     Node 7, Type 0, BuildingBlock: MIDCAF_clean_linker_0, # of connection points: 3
#     Node 8, Type 1, BuildingBlock: BETDIP_clean_sbu_0, # of connection points: 6
#     Node 9, Type 1, BuildingBlock: BETDIP_clean_sbu_0, # of connection points: 6
#     Node 10, Type 1, BuildingBlock: BETDIP_clean_sbu_0, # of connection points: 6
#     Node 11, Type 1, BuildingBlock: BETDIP_clean_sbu_0, # of connection points: 6
#     Edge 12, Type (0, 1), BuildingBlock: MIFKUJ_clean_linker_0, # of connection points: 2
#     Edge 13, Type (0, 1), BuildingBlock: MIFKUJ_clean_linker_0, # of connection points: 2
#     Edge 14, Type (0, 1), BuildingBlock: MIFKUJ_clean_linker_0, # of connection points: 2
#     Edge 15, Type (0, 1), BuildingBlock: MIFKUJ_clean_linker_0, # of connection points: 2
#     Edge 16, Type (0, 1), BuildingBlock: MIFKUJ_clean_linker_0, # of connection points: 2
#     Edge 17, Type (0, 1), BuildingBlock: MIFKUJ_clean_linker_0, # of connection points: 2
#     Edge 18, Type (0, 1), BuildingBlock: MIFKUJ_clean_linker_0, # of connection points: 2
#     Edge 19, Type (0, 1), BuildingBlock: MIFKUJ_clean_linker_0, # of connection points: 2
#     Edge 20, Type (0, 1), BuildingBlock: MIFKUJ_clean_linker_0, # of connection points: 2
#     Edge 21, Type (0, 1), BuildingBlock: MIFKUJ_clean_linker_0, # of connection points: 2
#     Edge 22, Type (0, 1), BuildingBlock: MIFKUJ_clean_linker_0, # of connection points: 2
#     Edge 23, Type (0, 1), BuildingBlock: MIFKUJ_clean_linker_0, # of connection points: 2
#     Edge 24, Type (0, 1), BuildingBlock: MIFKUJ_clean_linker_0, # of connection points: 2
#     Edge 25, Type (0, 1), BuildingBlock: MIFKUJ_clean_linker_0, # of connection points: 2
#     Edge 26, Type (0, 1), BuildingBlock: MIFKUJ_clean_linker_0, # of connection points: 2
#     Edge 27, Type (0, 1), BuildingBlock: MIFKUJ_clean_linker_0, # of connection points: 2
#     Edge 28, Type (0, 1), BuildingBlock: MIFKUJ_clean_linker_0, # of connection points: 2
#     Edge 29, Type (0, 1), BuildingBlock: MIFKUJ_clean_linker_0, # of connection points: 2
#     Edge 30, Type (0, 1), BuildingBlock: MIFKUJ_clean_linker_0, # of connection points: 2
#     Edge 31, Type (0, 1), BuildingBlock: MIFKUJ_clean_linker_0, # of connection points: 2
#     Edge 32, Type (0, 1), BuildingBlock: MIFKUJ_clean_linker_0, # of connection points: 2
#     Edge 33, Type (0, 1), BuildingBlock: MIFKUJ_clean_linker_0, # of connection points: 2
#     Edge 34, Type (0, 1), BuildingBlock: MIFKUJ_clean_linker_0, # of connection points: 2
#     Edge 35, Type (0, 1), BuildingBlock: MIFKUJ_clean_linker_0, # of connection points: 2
# Relax obj value: 0.099
# Max RMSD: 0.183
# Mean RMSD: 0.083
data_MOF--net-pyr--node1-BETDIP_clean_sbu_0--node2-MIDCAF_clean_linker_0--edge1-MIFKUJ_clean_linker_0
_symmetry_space_group_name_H-M    P1
_symmetry_Int_Tables_number       1
_symmetry_cell_setting            triclinic
loop_
_symmetry_equiv_pos_as_xyz
'x, y, z'
_cell_length_a     53.536874
_cell_length_b     59.575756
_cell_length_c     59.269195
_cell_angle_alpha  88.556982
_cell_angle_beta   93.099758
_cell_angle_gamma 101.57122
loop_
_atom_site_label
_atom_site_type_symbol
_atom_site_fract_x
_atom_site_fract_y
_atom_site_fract_z
_atom_type_partial_charge
C0 C 0.26754 0.23682 0.27327 0.0
C1 C 0.27217 0.21648 0.28364 0.0
C2 C 0.2928 0.20736 0.27689 0.0
C3 C 0.30792 0.21789 0.25961 0.0
H4 H 0.36363 0.20806 0.22067 0.0
H5 H 0.39198 0.18598 0.20515 0.0
H6 H 0.40257 0.23222 0.14766 0.0
H7 H 0.37414 0.25463 0.16318 0.0
H8 H 0.32619 0.28279 0.15194 0.0
H9 H 0.30343 0.3075 0.1287 0.0
H10 H 0.27165 0.32801 0.18849 0.0
H11 H 0.29383 0.30317 0.21157 0.0
H12 H 0.27815 0.26275 0.24806 0.0
H13 H 0.25205 0.24449 0.27835 0.0
H14 H 0.29674 0.19159 0.28439 0.0
H15 H 0.32321 0.21 0.25446 0.0
N16 N 0.33556 0.23767 0.22108 0.0
N17 N 0.33977 0.26271 0.18969 0.0
N18 N 0.30999 0.26514 0.21669 0.0
C19 C 0.3472 0.24518 0.20171 0.0
C20 C 0.32129 0.2729 0.19725 0.0
C21 C 0.31697 0.24754 0.22872 0.0
C22 C 0.36631 0.23306 0.19307 0.0
C23 C 0.37208 0.21375 0.2048 0.0
C24 C 0.38829 0.20099 0.19589 0.0
C25 C 0.39927 0.20726 0.17511 0.0
C26 C 0.39444 0.22707 0.16378 0.0
C27 C 0.37805 0.23982 0.17263 0.0
C28 C 0.31144 0.29068 0.18355 0.0
C29 C 0.31472 0.29291 0.16015 0.0
C30 C 0.30174 0.3071 0.14684 0.0
C31 C 0.28537 0.31935 0.15673 0.0
C32 C 0.28363 0.31835 0.18031 0.0
C33 C 0.29642 0.30414 0.19354 0.0
C34 C 0.30272 0.23778 0.24864 0.0
C35 C 0.28264 0.24736 0.25598 0.0
C36 C 0.15795 0.82638 0.67665 0.0
C37 C 0.14588 0.81888 0.65581 0.0
C38 C 0.14796 0.79732 0.64792 0.0
C39 C 0.16245 0.78375 0.66048 0.0
H40 H 0.21731 0.73989 0.65267 0.0
H41 H 0.24105 0.7139 0.63623 0.0
H42 H 0.26017 0.68992 0.70312 0.0
H43 H 0.2371 0.71616 0.71953 0.0
H44 H 0.24934 0.75649 0.75663 0.0
H45 H 0.26856 0.77249 0.7924 0.0
H46 H 0.21961 0.82206 0.78874 0.0
H47 H 0.20009 0.80599 0.75317 0.0
H48 H 0.1812 0.81933 0.70519 0.0
H49 H 0.15638 0.84281 0.68326 0.0
H50 H 0.1388 0.79118 0.63188 0.0
H51 H 0.16402 0.76732 0.6539 0.0
N52 N 0.19902 0.76006 0.68539 0.0
N53 N 0.22178 0.75458 0.71942 0.0
N54 N 0.19804 0.78351 0.71643 0.0
C55 C 0.21457 0.74837 0.69776 0.0
C56 C 0.21357 0.7721 0.72891 0.0
C57 C 0.19055 0.77762 0.69475 0.0
C58 C 0.22562 0.73038 0.68743 0.0
C59 C 0.22627 0.72883 0.66384 0.0
C60 C 0.23983 0.71387 0.65441 0.0
C61 C 0.25287 0.70008 0.66838 0.0
C62 C 0.2509 0.70071 0.69189 0.0
C63 C 0.23754 0.71571 0.70129 0.0
C64 C 0.22331 0.78008 0.75183 0.0
C65 C 0.2424 0.77061 0.76354 0.0
C66 C 0.25354 0.77984 0.78401 0.0
C67 C 0.24575 0.79865 0.79328 0.0
C68 C 0.2259 0.80746 0.78212 0.0
C69 C 0.21482 0.7983 0.76162 0.0
C70 C 0.1747 0.79139 0.68131 0.0
C71 C 0.17206 0.81279 0.68927 0.0
C72 C 0.61665 0.27555 0.88575 0.0
C73 C 0.60307 0.25724 0.87266 0.0
C74 C 0.59866 0.26153 0.84935 0.0
C75 C 0.60813 0.28319 0.83948 0.0
H76 H 0.59395 0.33746 0.7874 0.0
H77 H 0.57846 0.35563 0.75333 0.0
H78 H 0.64572 0.40952 0.75762 0.0
H79 H 0.66073 0.39188 0.79158 0.0
H80 H 0.69842 0.39816 0.83411 0.0
H81 H 0.73606 0.41926 0.85497 0.0
H82 H 0.7283 0.36581 0.90618 0.0
H83 H 0.69055 0.34498 0.8857 0.0
H84 H 0.63693 0.31029 0.88674 0.0
H85 H 0.61987 0.27349 0.9038 0.0
H86 H 0.58847 0.248 0.83852 0.0
H87 H 0.60488 0.28567 0.82148 0.0
N88 N 0.62612 0.33212 0.82256 0.0
N89 N 0.6591 0.36487 0.82573 0.0
N90 N 0.65586 0.33613 0.85364 0.0
C91 C 0.63812 0.35292 0.8141 0.0
C92 C 0.66815 0.35664 0.84547 0.0
C93 C 0.63497 0.32366 0.84249 0.0
C94 C 0.6286 0.36313 0.79258 0.0
C95 C 0.60545 0.35317 0.78106 0.0
C96 C 0.5966 0.36361 0.76138 0.0
C97 C 0.61061 0.38433 0.75258 0.0
C98 C 0.63393 0.39396 0.76395 0.0
C99 C 0.6427 0.38362 0.78353 0.0
C100 C 0.69123 0.36978 0.85812 0.0
C101 C 0.70467 0.39089 0.84984 0.0
C102 C 0.72642 0.40298 0.86178 0.0
C103 C 0.73534 0.39435 0.88237 0.0
C104 C 0.72187 0.37326 0.89062 0.0
C105 C 0.7002 0.36118 0.8787 0.0
C106 C 0.62252 0.30109 0.85259 0.0
C107 C 0.62632 0.29693 0.87591 0.0
C108 C 0.79949 0.64662 0.38271 0.0
C109 C 0.78007 0.6306 0.37167 0.0
C110 C 0.78278 0.62634 0.34869 0.0
C111 C 0.80429 0.63773 0.33719 0.0
H112 H 0.85919 0.62897 0.28846 0.0
H113 H 0.87376 0.61242 0.25575 0.0
H114 H 0.92799 0.67523 0.24455 0.0
H115 H 0.91312 0.69202 0.27745 0.0
H116 H 0.92404 0.73185 0.32583 0.0
H117 H 0.94139 0.76899 0.34377 0.0
H118 H 0.87417 0.76133 0.38246 0.0
H119 H 0.85701 0.72501 0.36476 0.0
H120 H 0.83484 0.67075 0.38033 0.0
H121 H 0.7981 0.65054 0.40029 0.0
H122 H 0.76832 0.61405 0.33961 0.0
H123 H 0.80563 0.63406 0.31954 0.0
N124 N 0.85468 0.65958 0.31732 0.0
N125 N 0.88665 0.69322 0.31504 0.0
N126 N 0.85744 0.68855 0.34388 0.0
C127 C 0.87522 0.67203 0.30664 0.0
C128 C 0.87768 0.70167 0.33374 0.0
C129 C 0.84573 0.66765 0.33603 0.0
C130 C 0.88481 0.66207 0.28606 0.0
C131 C 0.87426 0.63944 0.27916 0.0
C132 C 0.88284 0.62975 0.26024 0.0
C133 C 0.90234 0.6422 0.2471 0.0
C134 C 0.91283 0.66493 0.25385 0.0
C135 C 0.90434 0.67461 0.27297 0.0
C136 C 0.88897 0.72503 0.34362 0.0
C137 C 0.91291 0.73816 0.33806 0.0
C138 C 0.92296 0.75949 0.34853 0.0
C139 C 0.90925 0.76858 0.36467 0.0
C140 C 0.88532 0.75544 0.36997 0.0
C141 C 0.87548 0.73424 0.35977 0.0
C142 C 0.82342 0.65415 0.34819 0.0
C143 C 0.8206 0.65833 0.37115 0.0
C144 C 0.62761 0.82411 0.85009 0.0
C145 C 0.6237 0.82116 0.87329 0.0
C146 C 0.63548 0.80546 0.88579 0.0
C147 C 0.6518 0.79371 0.87552 0.0
H148 H 0.69891 0.74833 0.88954 0.0
H149 H 0.72447 0.72637 0.91324 0.0
H150 H 0.772 0.72278 0.8574 0.0
H151 H 0.74688 0.74476 0.8338 0.0
H152 H 0.74167 0.7731 0.78984 0.0
H153 H 0.76376 0.79209 0.75764 0.0
H154 H 0.71665 0.84309 0.75659 0.0
H155 H 0.69461 0.82431 0.78901 0.0
H156 H 0.64741 0.81576 0.82207 0.0
H157 H 0.61885 0.83619 0.84009 0.0
H158 H 0.63253 0.80269 0.90367 0.0
H159 H 0.66114 0.78226 0.88586 0.0
N160 N 0.68788 0.77199 0.85441 0.0
N161 N 0.71599 0.77177 0.82553 0.0
N162 N 0.68562 0.79513 0.82204 0.0
C163 C 0.70744 0.76396 0.846 0.0
C164 C 0.70521 0.78731 0.81341 0.0
C165 C 0.67672 0.78745 0.84246 0.0
C166 C 0.72099 0.7486 0.8598 0.0
C167 C 0.71467 0.74269 0.88224 0.0
C168 C 0.72925 0.73007 0.89583 0.0
C169 C 0.75046 0.72322 0.88726 0.0
C170 C 0.7561 0.7283 0.86461 0.0
C171 C 0.74156 0.74081 0.85104 0.0
C172 C 0.71649 0.79727 0.7922 0.0
C173 C 0.73578 0.78823 0.78265 0.0
C174 C 0.74838 0.79903 0.76409 0.0
C175 C 0.74205 0.81917 0.7547 0.0
C176 C 0.72215 0.82776 0.76368 0.0
C177 C 0.70942 0.81688 0.78217 0.0
C178 C 0.65688 0.79758 0.85256 0.0
C179 C 0.64411 0.8125 0.83983 0.0
C180 C 0.79624 0.23757 0.24207 0.0
C181 C 0.77891 0.24984 0.23143 0.0
C182 C 0.7751 0.2699 0.24151 0.0
C183 C 0.78721 0.27683 0.26234 0.0
H184 H 0.76776 0.30471 0.31804 0.0
H185 H 0.74607 0.32882 0.33871 0.0
H186 H 0.80496 0.33465 0.39237 0.0
H187 H 0.82622 0.30933 0.3719 0.0
H188 H 0.84513 0.25584 0.37561 0.0
H189 H 0.86962 0.22997 0.39488 0.0
H190 H 0.8922 0.21039 0.3306 0.0
H191 H 0.86771 0.23617 0.31121 0.0
H192 H 0.82086 0.23417 0.27109 0.0
H193 H 0.79946 0.22195 0.23483 0.0
H194 H 0.76225 0.27997 0.23352 0.0
H195 H 0.78319 0.29202 0.26987 0.0
N196 N 0.80391 0.28501 0.30871 0.0
N197 N 0.82769 0.27751 0.3414 0.0
N198 N 0.8301 0.25802 0.30783 0.0
C199 C 0.81094 0.28918 0.33078 0.0
C200 C 0.83746 0.26195 0.32996 0.0
C201 C 0.81338 0.26956 0.29707 0.0
C202 C 0.79878 0.30503 0.34328 0.0
C203 C 0.77629 0.31122 0.33417 0.0
C204 C 0.76389 0.32529 0.34602 0.0
C205 C 0.77379 0.33397 0.36721 0.0
C206 C 0.79657 0.3281 0.37623 0.0
C207 C 0.80885 0.31366 0.36445 0.0
C208 C 0.85429 0.24799 0.34183 0.0
C209 C 0.85554 0.24625 0.36556 0.0
C210 C 0.86944 0.23133 0.37661 0.0
C211 C 0.88267 0.21808 0.36422 0.0
C212 C 0.88229 0.22048 0.34058 0.0
C213 C 0.86813 0.23517 0.3295 0.0
C214 C 0.80347 0.26389 0.27362 0.0
C215 C 0.80842 0.24453 0.26294 0.0
C216 C 0.29481 0.62283 0.17367 0.0
C217 C 0.28403 0.63271 0.15462 0.0
C218 C 0.29529 0.65524 0.14825 0.0
C219 C 0.31675 0.66742 0.16033 0.0
H220 H 0.36111 0.72993 0.16448 0.0
H221 H 0.37883 0.76684 0.14783 0.0
H222 H 0.44882 0.76922 0.18819 0.0
H223 H 0.43097 0.73167 0.20501 0.0
H224 H 0.427 0.68863 0.24811 0.0
H225 H 0.44307 0.67017 0.28175 0.0
H226 H 0.37579 0.61626 0.27782 0.0
H227 H 0.3603 0.63411 0.24424 0.0
H228 H 0.32414 0.62678 0.20025 0.0
H229 H 0.28689 0.60547 0.17901 0.0
H230 H 0.28733 0.66366 0.13399 0.0
H231 H 0.32471 0.6847 0.15475 0.0
N232 N 0.36208 0.69181 0.18447 0.0
N233 N 0.39338 0.69484 0.21426 0.0
N234 N 0.36097 0.66171 0.21071 0.0
C235 C 0.38326 0.70414 0.19535 0.0
C236 C 0.38216 0.67354 0.22214 0.0
C237 C 0.35081 0.67064 0.19185 0.0
C238 C 0.39454 0.72752 0.18619 0.0
C239 C 0.3803 0.73818 0.16999 0.0
C240 C 0.39043 0.7596 0.16046 0.0
C241 C 0.41529 0.77125 0.16661 0.0
C242 C 0.42966 0.76074 0.18287 0.0
C243 C 0.41936 0.73924 0.19266 0.0
C244 C 0.39235 0.66293 0.24312 0.0
C245 C 0.41567 0.67281 0.25441 0.0
C246 C 0.42484 0.66222 0.27386 0.0
C247 C 0.41096 0.64144 0.28267 0.0
C248 C 0.38751 0.63185 0.27147 0.0
C249 C 0.37846 0.64231 0.2521 0.0
C250 C 0.32768 0.65753 0.17927 0.0
C251 C 0.31633 0.63506 0.18581 0.0
C252 C 0.12799 0.26981 0.66142 0.0
C253 C 0.10486 0.25619 0.66807 0.0
C254 C 0.09247 0.26468 0.68558 0.0
C255 C 0.10311 0.28584 0.69615 0.0
H256 H 0.09401 0.34211 0.74541 0.0
H257 H 0.07945 0.35911 0.77843 0.0
H258 H 0.15496 0.39979 0.79046 0.0
H259 H 0.16934 0.38326 0.75739 0.0
H260 H 0.20575 0.39577 0.71076 0.0
H261 H 0.24367 0.4153 0.69143 0.0
H262 H 0.22938 0.36274 0.64088 0.0
H263 H 0.19238 0.34319 0.66022 0.0
H264 H 0.15629 0.30034 0.66575 0.0
H265 H 0.13807 0.26444 0.64782 0.0
H266 H 0.07468 0.25481 0.69139 0.0
H267 H 0.09307 0.29161 0.70955 0.0
N268 N 0.12973 0.33082 0.7185 0.0
N269 N 0.16362 0.36317 0.7176 0.0
N270 N 0.15983 0.33457 0.69052 0.0
C271 C 0.14222 0.35139 0.72759 0.0
C272 C 0.17249 0.35495 0.69892 0.0
C273 C 0.13865 0.32219 0.6999 0.0
C274 C 0.13298 0.36115 0.74838 0.0
C275 C 0.10758 0.35465 0.75507 0.0
C276 C 0.09915 0.36456 0.77406 0.0
C277 C 0.11592 0.38097 0.78744 0.0
C278 C 0.14138 0.38716 0.78092 0.0
C279 C 0.14964 0.37767 0.76171 0.0
C280 C 0.19576 0.36768 0.68732 0.0
C281 C 0.21073 0.38836 0.69555 0.0
C282 C 0.23251 0.39967 0.68431 0.0
C283 C 0.24007 0.39067 0.6645 0.0
C284 C 0.22486 0.37014 0.65627 0.0
C285 C 0.20326 0.3589 0.66742 0.0
C286 C 0.12638 0.29934 0.6894 0.0
C287 C 0.13845 0.2908 0.67177 0.0
Tb288 Tb 0.97799 1.00724 0.52151 0.0
Tb289 Tb 0.02985 0.02075 0.50845 0.0
C290 C 0.93447 0.9859 0.53194 0.0
C291 C 0.92319 0.9707 0.55019 0.0
C292 C 0.90121 0.95408 0.54526 0.0
C293 C 0.88917 0.94029 0.56248 0.0
C294 C 0.89886 0.943 0.58497 0.0
C295 C 0.92128 0.95934 0.58981 0.0
C296 C 0.93345 0.97302 0.57252 0.0
C297 C 1.00259 0.04647 0.54022 0.0
C298 C 0.02133 0.98663 0.54827 0.0
C299 C 0.07365 0.04203 0.49878 0.0
C300 C 0.08595 0.05739 0.48112 0.0
C301 C 0.10855 0.07292 0.48685 0.0
C302 C 0.12172 0.08674 0.47025 0.0
C303 C 0.11259 0.08517 0.44752 0.0
C304 C 0.08941 0.07005 0.44194 0.0
C305 C 0.07615 0.05628 0.45864 0.0
C306 C 1.00566 0.98116 0.49035 0.0
C307 C 0.9863 0.04106 0.48134 0.0
O308 O 0.94914 0.97761 0.51884 0.0
O309 O 0.94392 1.00713 0.53729 0.0
O310 O 0.01162 0.02862 0.53767 0.0
O311 O 0.97891 0.0421 0.53302 0.0
O312 O 0.99686 0.98383 0.54215 0.0
O313 O 0.03806 1.00346 0.53965 0.0
O314 O 0.05864 0.05035 0.51151 0.0
O315 O 0.06414 0.02092 0.493 0.0
O316 O 0.99638 0.999 0.49242 0.0
O317 O 0.02932 0.98582 0.4976 0.0
O318 O 0.01089 0.0436 0.48703 0.0
O319 O 0.96948 0.02472 0.49055 0.0
H320 H 0.89307 0.95206 0.52811 0.0
H321 H 0.87179 0.92801 0.55828 0.0
H322 H 0.92931 0.96161 0.60696 0.0
H323 H 0.95059 0.98563 0.57663 0.0
H324 H 0.11624 0.07412 0.50417 0.0
H325 H 0.13919 0.09855 0.47521 0.0
H326 H 0.08192 0.06835 0.42459 0.0
H327 H 0.05858 0.04446 0.45394 0.0
Tb328 Tb 0.54278 0.02338 0.03052 0.0
Tb329 Tb 0.4848 1.0072 0.01672 0.0
C330 C 0.58759 0.04396 0.04006 0.0
C331 C 0.60162 0.06633 0.04784 0.0
C332 C 0.59029 0.08563 0.04755 0.0
C333 C 0.60381 0.1063 0.0566 0.0
C334 C 0.6288 0.10788 0.06611 0.0
C335 C 0.64004 0.08847 0.06592 0.0
C336 C 0.62659 0.06795 0.05683 0.0
C337 C 0.51919 0.98436 0.04893 0.0
C338 C 0.50095 0.04712 0.05117 0.0
C339 C 0.44106 0.98234 1.01437 0.0
C340 C 0.42518 0.96751 0.9973 0.0
C341 C 0.43406 0.94953 0.98748 0.0
C342 C 0.41844 0.93506 0.97205 0.0
C343 C 0.39368 0.93836 0.96586 0.0
C344 C 0.38494 0.9565 0.97556 0.0
C345 C 0.40051 0.97086 0.9912 0.0
C346 C 0.50696 0.04182 0.99006 0.0
C347 C 0.52715 0.98808 0.99153 0.0
O348 O 0.577 0.0431 0.01952 0.0
O349 O 0.57283 0.03184 0.05476 0.0
O350 O 0.50995 1.00208 0.04495 0.0
O351 O 0.54284 0.98874 0.04365 0.0
O352 O 0.52506 0.0489 0.04594 0.0
O353 O 0.48241 0.03027 0.04389 0.0
O354 O 0.46149 0.97536 0.02256 0.0
O355 O 0.44527 1.00453 1.01034 0.0
O356 O 0.51626 0.03175 1.00631 0.0
O357 O 0.48319 0.0315 0.98769 0.0
O358 O 0.50293 0.98527 0.99675 0.0
O359 O 0.54555 1.00399 1.00065 0.0
H360 H 0.57093 0.0846 0.04069 0.0
H361 H 0.59464 0.12094 0.05635 0.0
H362 H 0.65896 0.08882 0.07354 0.0
H363 H 0.63551 0.05313 0.05734 0.0
H364 H 0.45299 0.94642 0.99187 0.0
H365 H 0.42568 0.92105 0.96527 0.0
H366 H 0.36613 0.95977 0.97094 0.0
H367 H 0.39325 0.98458 0.99857 0.0
Tb368 Tb 0.50977 0.53449 0.52688 0.0
Tb369 Tb 0.50935 0.4892 0.50798 0.0
C370 C 0.49683 0.5715 0.53556 0.0
C371 C 0.47653 0.57852 0.54784 0.0
C372 C 0.46267 0.59376 0.53718 0.0
C373 C 0.44253 0.60006 0.54778 0.0
C374 C 0.43597 0.59137 0.56938 0.0
C375 C 0.44995 0.57618 0.58017 0.0
C376 C 0.46997 0.56965 0.56941 0.0
C377 C 0.53308 0.50792 0.55377 0.0
C378 C 0.46241 0.49269 0.53632 0.0
C379 C 0.52077 0.45194 0.49768 0.0
C380 C 0.54283 0.4449 0.48819 0.0
C381 C 0.56793 0.45381 0.49635 0.0
C382 C 0.5885 0.44633 0.48758 0.0
C383 C 0.58438 0.43004 0.47034 0.0
C384 C 0.55931 0.42147 0.46193 0.0
C385 C 0.53871 0.42878 0.47087 0.0
C386 C 0.48617 0.51623 0.4814 0.0
C387 C 0.55667 0.53058 0.49905 0.0
O388 O 0.48893 0.55967 0.51736 0.0
O389 O 0.51455 0.56343 0.5474 0.0
O390 O 0.51286 0.50181 0.54159 0.0
O391 O 0.54018 0.53003 0.55194 0.0
O392 O 0.47176 0.51512 0.5364 0.0
O393 O 0.47505 0.47849 0.52722 0.0
O394 O 0.52436 0.46048 0.51798 0.0
O395 O 0.50764 0.46336 0.48409 0.0
O396 O 0.50653 0.5219 0.49339 0.0
O397 O 0.47856 0.4942 0.48341 0.0
O398 O 0.54861 0.50807 0.50117 0.0
O399 O 0.54259 0.54483 0.50575 0.0
H400 H 0.46735 0.60069 0.5205 0.0
H401 H 0.43228 0.61201 0.5392 0.0
H402 H 0.44516 0.56915 0.59677 0.0
H403 H 0.48015 0.55759 0.57786 0.0
H404 H 0.57167 0.46644 0.50957 0.0
H405 H 0.60766 0.45341 0.49416 0.0
H406 H 0.5556 0.40879 0.44875 0.0
H407 H 0.51952 0.42172 0.46434 0.0
Tb408 Tb 0.01007 0.53158 1.00315 0.0
Tb409 Tb 0.01193 0.49161 0.03266 0.0
C410 C 0.99588 0.56327 0.98039 0.0
C411 C 0.97524 0.57623 0.98155 0.0
C412 C 0.94942 0.56516 0.97983 0.0
C413 C 0.93018 0.57791 0.97897 0.0
C414 C 0.93632 0.60195 0.97999 0.0
C415 C 0.96212 0.61287 0.98284 0.0
C416 C 0.98139 0.60013 0.98347 0.0
C417 C 0.05568 0.5318 0.02299 0.0
C418 C 0.98972 0.53091 0.05366 0.0
C419 C 0.0256 0.45989 0.05586 0.0
C420 C 0.0473 0.4482 0.05652 0.0
C421 C 0.07147 0.45969 0.05014 0.0
C422 C 0.09244 0.44902 0.05294 0.0
C423 C 0.08962 0.4267 0.06215 0.0
C424 C 0.06501 0.41491 0.06734 0.0
C425 C 0.0441 0.42562 0.06467 0.0
C426 C 0.9665 0.49133 1.01225 0.0
C427 C 0.03145 0.4922 0.98191 0.0
O428 O 0.98893 0.54158 0.97541 0.0
O429 O 0.01393 0.5669 0.99642 0.0
O430 O 0.03436 0.52539 0.03165 0.0
O431 O 0.05179 0.53963 1.00277 0.0
O432 O 0.98926 0.53935 0.03267 0.0
O433 O 0.99963 0.51255 0.05823 0.0
O434 O 0.03104 0.48144 0.06157 0.0
O435 O 0.00977 0.45627 0.03814 0.0
O436 O 0.988 0.49774 1.00408 0.0
O437 O 0.97 0.48321 0.0324 0.0
O438 O 0.03358 0.48463 1.00315 0.0
O439 O 0.02033 0.50984 0.97737 0.0
H440 H 0.94402 0.5467 0.97848 0.0
H441 H 0.91057 0.56896 0.97645 0.0
H442 H 0.96748 0.63134 0.98406 0.0
H443 H 1.00115 0.60901 0.98498 0.0
H444 H 0.07428 0.47711 0.04358 0.0
H445 H 0.11093 0.45862 0.04858 0.0
H446 H 0.06189 0.39745 0.07378 0.0
H447 H 0.0255 0.41643 0.06941 0.0
H448 H 0.28516 0.19559 0.323 0.0
H449 H 0.25642 0.17341 0.3498 0.0
H450 H 0.19145 0.18748 0.30976 0.0
H451 H 0.22005 0.20952 0.28278 0.0
H452 H 0.18597 0.19192 0.35472 0.0
H453 H 0.20784 0.13634 0.30636 0.0
H454 H 0.23685 0.11706 0.28661 0.0
H455 H 0.27049 0.09932 0.3503 0.0
H456 H 0.24192 0.1188 0.37044 0.0
H457 H 0.0953 0.10734 0.41046 0.0
H458 H 0.1208 0.12951 0.38137 0.0
H459 H 0.1896 0.11619 0.4157 0.0
H460 H 0.16428 0.09328 0.44417 0.0
H461 H 0.19109 0.11092 0.37166 0.0
H462 H 0.17065 0.16804 0.41994 0.0
H463 H 0.14181 0.18746 0.43975 0.0
H464 H 0.10551 0.20226 0.37626 0.0
H465 H 0.13394 0.18265 0.3561 0.0
C466 C 0.26476 0.1939 0.31986 0.0
C467 C 0.25489 0.20423 0.30071 0.0
C468 C 0.24837 0.18126 0.3352 0.0
C469 C 0.22181 0.17857 0.33159 0.0
C470 C 0.2119 0.18936 0.31284 0.0
C471 C 0.22828 0.20202 0.2975 0.0
C472 C 0.20439 0.16418 0.34721 0.0
C473 C 0.18682 0.17411 0.35821 0.0
C474 C 0.20578 0.14106 0.35195 0.0
C475 C 0.22289 0.12921 0.3399 0.0
C476 C 0.22155 0.12848 0.31615 0.0
C477 C 0.2379 0.11749 0.30489 0.0
C478 C 0.25554 0.10702 0.31719 0.0
C479 C 0.25683 0.10747 0.34079 0.0
C480 C 0.24055 0.11846 0.35214 0.0
C481 C 0.11584 0.10897 0.41168 0.0
C482 C 0.12777 0.0987 0.42975 0.0
C483 C 0.1304 0.12182 0.39517 0.0
C484 C 0.15714 0.12476 0.39654 0.0
C485 C 0.16901 0.11424 0.41436 0.0
C486 C 0.15451 0.10134 0.43077 0.0
C487 C 0.17293 0.13875 0.37948 0.0
C488 C 0.19016 0.12871 0.36813 0.0
C489 C 0.17123 0.16177 0.37445 0.0
C490 C 0.15424 0.17368 0.38654 0.0
C491 C 0.15639 0.17529 0.41022 0.0
C492 C 0.14014 0.18636 0.42151 0.0
C493 C 0.12179 0.19603 0.40928 0.0
C494 C 0.11971 0.19473 0.38572 0.0
C495 C 0.1359 0.18366 0.37435 0.0
H496 H 0.10922 0.20459 0.41805 0.0
H497 H 0.26817 0.09852 0.30844 0.0
H498 H 0.29714 0.80906 0.80265 0.0
H499 H 0.31998 0.83032 0.83465 0.0
H500 H 0.24831 0.83579 0.86184 0.0
H501 H 0.22527 0.81457 0.82964 0.0
H502 H 0.27993 0.876 0.86249 0.0
H503 H 0.28579 0.80034 0.88668 0.0
H504 H 0.29454 0.76148 0.8836 0.0
H505 H 0.37343 0.7899 0.87328 0.0
H506 H 0.36509 0.82897 0.87598 0.0
H507 H 0.34199 0.92183 0.96643 0.0
H508 H 0.31496 0.89654 0.9391 0.0
H509 H 0.38076 0.89389 0.90116 0.0
H510 H 0.40781 0.91976 0.92787 0.0
H511 H 0.34948 0.85067 0.90882 0.0
H512 H 0.34199 0.92636 0.88198 0.0
H513 H 0.33274 0.965 0.88547 0.0
H514 H 0.25578 0.93559 0.90184 0.0
H515 H 0.2647 0.89674 0.89877 0.0
C516 C 0.28621 0.81439 0.81566 0.0
C517 C 0.2594 0.81004 0.81368 0.0
C518 C 0.2993 0.82657 0.83395 0.0
C519 C 0.28586 0.83443 0.85081 0.0
C520 C 0.25907 0.82988 0.84904 0.0
C521 C 0.24594 0.81779 0.83064 0.0
C522 C 0.29992 0.84839 0.86958 0.0
C523 C 0.29479 0.87025 0.87292 0.0
C524 C 0.31962 0.84108 0.88294 0.0
C525 C 0.32476 0.8176 0.88136 0.0
C526 C 0.30497 0.79832 0.88359 0.0
C527 C 0.30986 0.77625 0.88194 0.0
C528 C 0.33451 0.77323 0.8782 0.0
C529 C 0.35434 0.79227 0.87616 0.0
C530 C 0.34955 0.81438 0.87777 0.0
C531 C 0.3507 0.91613 0.95212 0.0
C532 C 0.37712 0.9229 0.94936 0.0
C533 C 0.33523 0.90156 0.93662 0.0
C534 C 0.3459 0.89341 0.91814 0.0
C535 C 0.37222 0.89991 0.91542 0.0
C536 C 0.38766 0.91463 0.93077 0.0
C537 C 0.32963 0.87824 0.90144 0.0
C538 C 0.3344 0.85622 0.89853 0.0
C539 C 0.30949 0.88531 0.88859 0.0
C540 C 0.3041 0.90865 0.89042 0.0
C541 C 0.32316 0.92813 0.88654 0.0
C542 C 0.31797 0.95007 0.88839 0.0
C543 C 0.29371 0.95275 0.89395 0.0
C544 C 0.27458 0.93348 0.89759 0.0
C545 C 0.27969 0.9115 0.89578 0.0
H546 H 0.28972 0.96975 0.89536 0.0
H547 H 0.33826 0.75613 0.87693 0.0
H548 H 0.58406 0.36493 0.71403 0.0
H549 H 0.56979 0.38435 0.6803 0.0
H550 H 0.60214 0.44987 0.70973 0.0
H551 H 0.61538 0.43067 0.7438 0.0
H552 H 0.55899 0.45305 0.68964 0.0
H553 H 0.63119 0.42469 0.66684 0.0
H554 H 0.6572 0.39577 0.66086 0.0
H555 H 0.59765 0.3589 0.61663 0.0
H556 H 0.57113 0.38746 0.62259 0.0
H557 H 0.56716 0.52258 0.58908 0.0
H558 H 0.57887 0.50044 0.62202 0.0
H559 H 0.52993 0.43954 0.59533 0.0
H560 H 0.51749 0.46179 0.56264 0.0
H561 H 0.5799 0.43293 0.61315 0.0
H562 H 0.50863 0.46319 0.63556 0.0
H563 H 0.48434 0.49351 0.64105 0.0
H564 H 0.54463 0.52834 0.68586 0.0
H565 H 0.56948 0.49838 0.68035 0.0
C566 C 0.58793 0.38348 0.71351 0.0
C567 C 0.60118 0.39607 0.73184 0.0
C568 C 0.57999 0.39464 0.69396 0.0
C569 C 0.58518 0.41875 0.69203 0.0
C570 C 0.59791 0.43132 0.7105 0.0
C571 C 0.60577 0.42021 0.73002 0.0
C572 C 0.57742 0.43095 0.67096 0.0
C573 C 0.56389 0.44873 0.673 0.0
C574 C 0.5832 0.42529 0.64895 0.0
C575 C 0.59906 0.40806 0.64537 0.0
C576 C 0.62355 0.41031 0.65599 0.0
C577 C 0.63841 0.394 0.65258 0.0
C578 C 0.62905 0.37547 0.63843 0.0
C579 C 0.60485 0.37324 0.62762 0.0
C580 C 0.5899 0.38948 0.631 0.0
C581 C 0.55895 0.50445 0.59012 0.0
C582 C 0.54143 0.494 0.57307 0.0
C583 C 0.56565 0.49179 0.60904 0.0
C584 C 0.55529 0.46825 0.61131 0.0
C585 C 0.53829 0.45762 0.59402 0.0
C586 C 0.53122 0.47038 0.57527 0.0
C587 C 0.56175 0.45499 0.63199 0.0
C588 C 0.575 0.4371 0.62984 0.0
C589 C 0.55595 0.46068 0.65392 0.0
C590 C 0.54103 0.47867 0.65735 0.0
C591 C 0.51681 0.47742 0.64642 0.0
C592 C 0.50292 0.49452 0.64957 0.0
C593 C 0.51296 0.51287 0.66374 0.0
C594 C 0.53689 0.51413 0.67485 0.0
C595 C 0.55088 0.49708 0.67174 0.0
H596 H 0.50218 0.52609 0.66617 0.0
H597 H 0.64059 0.36287 0.6358 0.0
H598 H 0.90705 0.5971 0.24125 0.0
H599 H 0.92079 0.57949 0.20854 0.0
H600 H 0.93294 0.64459 0.17337 0.0
H601 H 0.91863 0.66232 0.20599 0.0
H602 H 0.9114 0.61148 0.14403 0.0
H603 H 0.98352 0.62054 0.19689 0.0
H604 H 1.00628 0.6165 0.2336 0.0
H605 H 0.98532 0.54323 0.22934 0.0
H606 H 0.96214 0.54684 0.19272 0.0
H607 H 0.97863 0.57443 0.05438 0.0
H608 H 0.96445 0.59394 0.08572 0.0
H609 H 0.96244 0.53343 0.12761 0.0
H610 H 0.97794 0.51441 0.09666 0.0
H611 H 0.97907 0.56566 0.15335 0.0
H612 H 0.90627 0.55611 0.10071 0.0
H613 H 0.88312 0.5599 0.06412 0.0
H614 H 0.90403 0.6332 0.06787 0.0
H615 H 0.92767 0.62985 0.10433 0.0
C616 C 0.91242 0.60782 0.22658 0.0
C617 C 0.91153 0.63139 0.22672 0.0
C618 C 0.92061 0.59763 0.20774 0.0
C619 C 0.92835 0.61051 0.18812 0.0
C620 C 0.92724 0.634 0.18806 0.0
C621 C 0.9192 0.64426 0.207 0.0
C622 C 0.93763 0.59952 0.16795 0.0
C623 C 0.92644 0.60171 0.1461 0.0
C624 C 0.95692 0.58619 0.1702 0.0
C625 C 0.9709 0.58397 0.19217 0.0
C626 C 0.98361 0.60357 0.20386 0.0
C627 C 0.99661 0.60136 0.22464 0.0
C628 C 0.99719 0.57963 0.23382 0.0
C629 C 0.98483 0.56006 0.22221 0.0
C630 C 0.97178 0.56217 0.20144 0.0
C631 C 0.97504 0.56516 0.07021 0.0
C632 C 0.97946 0.54262 0.07265 0.0
C633 C 0.96664 0.57638 0.0883 0.0
C634 C 0.96162 0.56533 0.10947 0.0
C635 C 0.96598 0.54274 0.1118 0.0
C636 C 0.97482 0.53169 0.09386 0.0
C637 C 0.95261 0.57723 0.12927 0.0
C638 C 0.96394 0.57531 0.15114 0.0
C639 C 0.93331 0.59067 0.127 0.0
C640 C 0.91898 0.59271 0.10515 0.0
C641 C 0.90608 0.57304 0.09366 0.0
C642 C 0.89286 0.57511 0.07295 0.0
C643 C 0.89218 0.59678 0.06364 0.0
C644 C 0.90464 0.61643 0.07508 0.0
C645 C 0.91794 0.61445 0.09577 0.0
H646 H 0.88196 0.59835 0.0476 0.0
H647 H 1.00727 0.57795 0.24991 0.0
H648 H 0.3872 0.16093 0.17135 0.0
H649 H 0.41086 0.13607 0.15324 0.0
H650 H 0.46921 0.19471 0.13726 0.0
H651 H 0.44512 0.21985 0.15507 0.0
H652 H 0.45768 0.16899 0.10204 0.0
H653 H 0.4799 0.15412 0.1786 0.0
H654 H 0.4733 0.145 0.21891 0.0
H655 H 0.42722 0.07952 0.20149 0.0
H656 H 0.43322 0.08837 0.16104 0.0
H657 H 0.52946 0.08963 0.06096 0.0
H658 H 0.51788 0.11901 0.08425 0.0
H659 H 0.44634 0.0739 0.09747 0.0
H660 H 0.45759 0.04454 0.07414 0.0
H661 H 0.47253 0.09573 0.1365 0.0
H662 H 0.44336 0.11577 0.06045 0.0
H663 H 0.44834 0.12606 0.02022 0.0
H664 H 0.50966 0.18217 0.03796 0.0
H665 H 0.50469 0.17232 0.07843 0.0
C666 C 0.40526 0.16851 0.16428 0.0
C667 C 0.41442 0.19231 0.16476 0.0
C668 C 0.41885 0.15426 0.154 0.0
C669 C 0.44213 0.16343 0.14429 0.0
C670 C 0.45137 0.18723 0.14476 0.0
C671 C 0.4376 0.20157 0.15487 0.0
C672 C 0.45575 0.14817 0.13243 0.0
C673 C 0.46153 0.15328 0.10982 0.0
C674 C 0.46051 0.12746 0.14241 0.0
C675 C 0.4569 0.12198 0.16675 0.0
C676 C 0.46821 0.13784 0.18334 0.0
C677 C 0.4646 0.1327 0.20623 0.0
C678 C 0.44982 0.11171 0.21276 0.0
C679 C 0.43866 0.09578 0.19641 0.0
C680 C 0.4422 0.10083 0.1735 0.0
C681 C 0.5113 0.08592 0.0689 0.0
C682 C 0.49441 0.06475 0.06567 0.0
C683 C 0.5047 0.10275 0.08213 0.0
C684 C 0.48124 0.0986 0.09251 0.0
C685 C 0.46456 0.07739 0.08962 0.0
C686 C 0.47098 0.06067 0.0762 0.0
C687 C 0.47371 0.11641 0.10614 0.0
C688 C 0.46917 0.11174 0.12903 0.0
C689 C 0.47032 0.13761 0.09656 0.0
C690 C 0.47387 0.14316 0.07235 0.0
C691 C 0.45805 0.13016 0.05573 0.0
C692 C 0.46082 0.13597 0.03289 0.0
C693 C 0.47946 0.15467 0.02648 0.0
C694 C 0.49528 0.16766 0.04294 0.0
C695 C 0.49243 0.16203 0.06583 0.0
H696 H 0.48157 0.1592 1.0088 0.0
H697 H 0.44704 0.10777 0.23048 0.0
H698 H 0.16207 0.86379 0.64501 0.0
H699 H 0.13708 0.89005 0.62718 0.0
H700 H 0.07188 0.8345 0.61936 0.0
H701 H 0.09718 0.80793 0.63693 0.0
H702 H 0.07538 0.86338 0.58282 0.0
H703 H 0.07583 0.87076 0.66271 0.0
H704 H 0.09488 0.87566 0.70153 0.0
H705 H 0.13798 0.94179 0.68321 0.0
H706 H 0.11949 0.93715 0.64417 0.0
H707 H 0.99482 0.94452 0.56114 0.0
H708 H 0.0121 0.91394 0.58087 0.0
H709 H 0.08583 0.95899 0.58835 0.0
H710 H 0.06881 0.98959 0.56864 0.0
H711 H 0.07244 0.9325 0.62691 0.0
H712 H 0.07372 0.92296 0.54595 0.0
H713 H 0.05344 0.91802 0.50756 0.0
H714 H 1.00516 0.85533 0.52866 0.0
H715 H 0.02484 0.86014 0.56733 0.0
C716 C 0.14247 0.85715 0.63932 0.0
C717 C 0.13142 0.83393 0.64259 0.0
C718 C 0.12819 0.87215 0.62918 0.0
C719 C 0.10242 0.86435 0.62245 0.0
C720 C 0.09168 0.84091 0.62459 0.0
C721 C 0.10611 0.82576 0.63457 0.0
C722 C 0.0867 0.88102 0.61417 0.0
C723 C 0.07434 0.87828 0.59261 0.0
C724 C 0.08542 0.90053 0.62692 0.0
C725 C 0.09639 0.90353 0.65046 0.0
C726 C 0.08949 0.88629 0.66692 0.0
C727 C 0.10018 0.88902 0.68897 0.0
C728 C 0.11766 0.909 0.69482 0.0
C729 C 0.12444 0.92632 0.67865 0.0
C730 C 0.11384 0.92366 0.65656 0.0
C731 C 0.0146 0.94805 0.56734 0.0
C732 C 0.03051 0.96943 0.56319 0.0
C733 C 0.02445 0.93052 0.57849 0.0
C734 C 0.05031 0.93415 0.58576 0.0
C735 C 0.06584 0.95585 0.58278 0.0
C736 C 0.05608 0.9733 0.57149 0.0
C737 C 0.06172 0.91513 0.59541 0.0
C738 C 0.07322 0.91744 0.61726 0.0
C739 C 0.062 0.89519 0.58299 0.0
C740 C 0.05055 0.89205 0.55961 0.0
C741 C 0.05865 0.90821 0.54246 0.0
C742 C 0.04727 0.90544 0.52064 0.0
C743 C 0.02796 0.88642 0.51569 0.0
C744 C 0.02008 0.87009 0.53253 0.0
C745 C 0.03134 0.87283 0.5544 0.0
H746 H 0.01916 0.8843 0.49879 0.0
H747 H 0.12592 0.91109 0.7119 0.0
H748 H 0.78008 0.41833 0.86547 0.0
H749 H 0.8185 0.43797 0.88648 0.0
H750 H 0.78248 0.41834 0.94926 0.0
H751 H 0.74369 0.39934 0.92837 0.0
H752 H 0.80874 0.46155 0.95151 0.0
H753 H 0.8263 0.38953 0.92887 0.0
H754 H 0.83005 0.35962 0.90194 0.0
H755 H 0.88592 0.40762 0.86667 0.0
H756 H 0.88225 0.43791 0.89322 0.0
H757 H 0.91913 0.47289 0.02688 0.0
H758 H 0.87966 0.45989 1.0039 0.0
H759 H 0.91925 0.48302 0.94351 0.0
H760 H 0.95881 0.49596 0.96646 0.0
H761 H 0.89162 0.44 0.93876 0.0
H762 H 0.876 0.51156 0.96296 0.0
H763 H 0.87267 0.54114 0.99039 0.0
H764 H 0.81369 0.49409 0.02311 0.0
H765 H 0.81687 0.4641 0.99606 0.0
C766 C 0.78014 0.41842 0.88373 0.0
C767 C 0.75868 0.40704 0.89514 0.0
C768 C 0.80229 0.42951 0.89577 0.0
C769 C 0.80366 0.42943 0.91955 0.0
C770 C 0.78206 0.41861 0.93096 0.0
C771 C 0.75991 0.40752 0.91895 0.0
C772 C 0.82771 0.44013 0.93254 0.0
C773 C 0.8268 0.45665 0.94886 0.0
C774 C 0.85152 0.43423 0.92883 0.0
C775 C 0.85379 0.41605 0.91288 0.0
C776 C 0.83924 0.39375 0.91526 0.0
C777 C 0.84137 0.37673 0.90009 0.0
C778 C 0.85816 0.38174 0.88257 0.0
C779 C 0.87289 0.40378 0.88022 0.0
C780 C 0.87081 0.42088 0.89534 0.0
C781 C 0.91934 0.47544 1.00872 0.0
C782 C 0.9421 0.48543 0.99849 0.0
C783 C 0.89673 0.46806 0.99558 0.0
C784 C 0.89634 0.47052 0.9719 0.0
C785 C 0.919 0.48088 0.96171 0.0
C786 C 0.94159 0.48838 0.97486 0.0
C787 C 0.87264 0.46134 0.95779 0.0
C788 C 0.87361 0.44505 0.94129 0.0
C789 C 0.84892 0.46745 0.96137 0.0
C790 C 0.84683 0.4855 0.97758 0.0
C791 C 0.86245 0.50745 0.9761 0.0
C792 C 0.86057 0.52431 0.99156 0.0
C793 C 0.84305 0.51947 1.00851 0.0
C794 C 0.82729 0.49779 1.00999 0.0
C795 C 0.82909 0.48087 0.99457 0.0
H796 H 0.84164 0.53255 0.02047 0.0
H797 H 0.85979 0.36853 0.87084 0.0
H798 H 0.77871 0.6103 0.414 0.0
H799 H 0.7413 0.59237 0.4349 0.0
H800 H 0.69172 0.60673 0.37906 0.0
H801 H 0.72912 0.62431 0.35788 0.0
H802 H 0.67798 0.61943 0.42351 0.0
H803 H 0.69871 0.55456 0.3865 0.0
H804 H 0.72806 0.52956 0.37704 0.0
H805 H 0.73904 0.5131 0.44735 0.0
H806 H 0.71005 0.5383 0.45727 0.0
H807 H 0.56058 0.5611 0.46384 0.0
H808 H 0.59739 0.57584 0.44143 0.0
H809 H 0.64273 0.53708 0.48304 0.0
H810 H 0.60484 0.52049 0.50404 0.0
H811 H 0.66006 0.53723 0.4459 0.0
H812 H 0.64389 0.60157 0.48504 0.0
H813 H 0.6186 0.62873 0.49794 0.0
H814 H 0.60395 0.64883 0.4292 0.0
H815 H 0.62892 0.62164 0.41587 0.0
C816 C 0.75986 0.6096 0.40609 0.0
C817 C 0.75708 0.61878 0.38414 0.0
C818 C 0.73841 0.59925 0.41809 0.0
C819 C 0.71349 0.59809 0.40867 0.0
C820 C 0.71064 0.60734 0.3868 0.0
C821 C 0.7321 0.61728 0.37461 0.0
C822 C 0.69049 0.58749 0.4217 0.0
C823 C 0.67386 0.60139 0.42815 0.0
C824 C 0.68551 0.56414 0.42866 0.0
C825 C 0.70242 0.54853 0.42265 0.0
C826 C 0.70756 0.54578 0.39996 0.0
C827 C 0.72414 0.53157 0.39452 0.0
C828 C 0.73554 0.51986 0.4116 0.0
C829 C 0.7303 0.52227 0.43415 0.0
C830 C 0.71375 0.53648 0.43969 0.0
C831 C 0.57844 0.55577 0.46827 0.0
C832 C 0.57983 0.53989 0.48603 0.0
C833 C 0.59976 0.56445 0.45552 0.0
C834 C 0.62368 0.55856 0.46079 0.0
C835 C 0.62489 0.54232 0.47843 0.0
C836 C 0.60319 0.53287 0.49063 0.0
C837 C 0.64712 0.56916 0.44789 0.0
C838 C 0.66397 0.5553 0.44141 0.0
C839 C 0.6528 0.5928 0.44149 0.0
C840 C 0.63808 0.60941 0.44946 0.0
C841 C 0.63518 0.61172 0.47268 0.0
C842 C 0.62091 0.62712 0.48006 0.0
C843 C 0.60962 0.64045 0.4644 0.0
C844 C 0.61269 0.63849 0.44131 0.0
C845 C 0.62694 0.62312 0.43384 0.0
H846 H 0.59854 0.65233 0.47015 0.0
H847 H 0.7483 0.5088 0.40734 0.0
H848 H 0.23502 0.31808 0.1618 0.0
H849 H 0.20625 0.33717 0.13887 0.0
H850 H 0.26753 0.36633 0.09608 0.0
H851 H 0.29692 0.34745 0.1195 0.0
H852 H 0.23827 0.398 0.1078 0.0
H853 H 0.22364 0.32426 0.07547 0.0
H854 H 0.21614 0.28207 0.0749 0.0
H855 H 0.14529 0.27795 0.10693 0.0
H856 H 0.15253 0.32012 0.10802 0.0
H857 H 0.13353 0.43092 0.03861 0.0
H858 H 0.17098 0.4142 0.04858 0.0
H859 H 0.13438 0.38162 0.10725 0.0
H860 H 0.0976 0.39903 0.09826 0.0
H861 H 0.15589 0.35208 0.07785 0.0
H862 H 0.17977 0.42418 0.12075 0.0
H863 H 0.18724 0.46633 0.12305 0.0
H864 H 0.23901 0.47269 0.06931 0.0
H865 H 0.23223 0.43051 0.0671 0.0
C866 C 0.24255 0.32875 0.14769 0.0
C867 C 0.26831 0.3314 0.14257 0.0
C868 C 0.22598 0.33945 0.13443 0.0
C869 C 0.23468 0.35291 0.11561 0.0
C870 C 0.26045 0.35589 0.11048 0.0
C871 C 0.27714 0.34504 0.12378 0.0
C872 C 0.21648 0.36392 0.10177 0.0
C873 C 0.22058 0.38794 0.10066 0.0
C874 C 0.19329 0.35081 0.09261 0.0
C875 C 0.1887 0.32539 0.09189 0.0
C876 C 0.20653 0.31437 0.08252 0.0
C877 C 0.20232 0.29045 0.08209 0.0
C878 C 0.18026 0.27734 0.09089 0.0
C879 C 0.16236 0.28813 0.1001 0.0
C880 C 0.16649 0.31205 0.1006 0.0
C881 C 0.1335 0.4204 0.05376 0.0
C882 C 0.11229 0.41616 0.06747 0.0
C883 C 0.15488 0.41078 0.05934 0.0
C884 C 0.15527 0.3966 0.07853 0.0
C885 C 0.13426 0.39234 0.09221 0.0
C886 C 0.11312 0.40217 0.08688 0.0
C887 C 0.17742 0.38597 0.08467 0.0
C888 C 0.17397 0.36204 0.08432 0.0
C889 C 0.20117 0.3991 0.09234 0.0
C890 C 0.20539 0.42433 0.09366 0.0
C891 C 0.19272 0.43461 0.10943 0.0
C892 C 0.19688 0.45848 0.11076 0.0
C893 C 0.21344 0.4722 0.09621 0.0
C894 C 0.22614 0.46205 0.08052 0.0
C895 C 0.22227 0.43818 0.07931 0.0
H896 H 0.21646 0.49067 0.09715 0.0
H897 H 0.17704 0.25882 0.09054 0.0
H898 H 0.62606 0.23652 0.90807 0.0
H899 H 0.61066 0.20008 0.92692 0.0
H900 H 0.54505 0.18716 0.88014 0.0
H901 H 0.55948 0.22453 0.86206 0.0
H902 H 0.52956 0.17408 0.91913 0.0
H903 H 0.59899 0.15917 0.87882 0.0
H904 H 0.64301 0.16527 0.86619 0.0
H905 H 0.67125 0.15771 0.93458 0.0
H906 H 0.62741 0.15186 0.94768 0.0
H907 H 0.48995 0.05714 0.94972 0.0
H908 H 0.50755 0.09201 0.92864 0.0
H909 H 0.56872 0.10857 0.9796 0.0
H910 H 0.55135 0.07314 1.00046 0.0
H911 H 0.58647 0.1194 0.9382 0.0
H912 H 0.51351 0.1315 0.97682 0.0
H913 H 0.46836 0.12163 0.98613 0.0
H914 H 0.44526 0.13326 0.9171 0.0
H915 H 0.49029 0.14191 0.907 0.0
C916 C 0.60814 0.22621 0.90184 0.0
C917 C 0.59404 0.23394 0.88344 0.0
C918 C 0.59952 0.20497 0.91251 0.0
C919 C 0.57678 0.19035 0.9049 0.0
C920 C 0.5627 0.19789 0.88646 0.0
C921 C 0.57117 0.21931 0.8759 0.0
C922 C 0.56743 0.16761 0.91652 0.0
C923 C 0.54199 0.16203 0.92294 0.0
C924 C 0.58354 0.15177 0.92205 0.0
C925 C 0.60993 0.1553 0.91426 0.0
C926 C 0.6146 0.15898 0.89119 0.0
C927 C 0.63952 0.16237 0.88395 0.0
C928 C 0.65992 0.16194 0.89958 0.0
C929 C 0.65543 0.15807 0.92249 0.0
C930 C 0.63055 0.1547 0.92984 0.0
C931 C 0.50731 0.06809 0.95635 0.0
C932 C 0.51927 0.0623 0.97678 0.0
C933 C 0.51732 0.08816 0.94431 0.0
C934 C 0.53928 0.1034 0.95262 0.0
C935 C 0.55174 0.09727 0.97273 0.0
C936 C 0.54185 0.07695 0.98468 0.0
C937 C 0.54864 0.12592 0.94071 0.0
C938 C 0.57409 0.13148 0.93433 0.0
C939 C 0.5324 0.14156 0.93485 0.0
C940 C 0.50534 0.13716 0.94111 0.0
C941 C 0.49884 0.13181 0.96357 0.0
C942 C 0.47323 0.12641 0.96899 0.0
C943 C 0.45394 0.12699 0.95229 0.0
C944 C 0.46022 0.13283 0.93004 0.0
C945 C 0.48579 0.13786 0.92442 0.0
H946 H 0.43412 0.12286 0.95658 0.0
H947 H 0.67919 0.16456 0.89393 0.0
H948 H 0.95897 0.7877 0.37966 0.0
H949 H 0.9745 0.82349 0.40015 0.0
H950 H 0.89836 0.83713 0.39702 0.0
H951 H 0.88286 0.80176 0.3762 0.0
H952 H 0.93094 0.87617 0.38985 0.0
H953 H 0.92686 0.81616 0.446 0.0
H954 H 0.93645 0.78073 0.46366 0.0
H955 H 0.01645 0.8108 0.46724 0.0
H956 H 1.00737 0.8463 0.44927 0.0
H957 H 0.95644 0.9672 0.47097 0.0
H958 H 0.93908 0.93185 0.45003 0.0
H959 H 0.01204 0.91165 0.45878 0.0
H960 H 0.02882 0.94615 0.48034 0.0
H961 H 0.97982 0.87562 0.46322 0.0
H962 H 0.98517 0.93475 0.4059 0.0
H963 H 0.97659 0.97045 0.388 0.0
H964 H 0.89606 0.94261 0.386 0.0
H965 H 0.90415 0.90684 0.40414 0.0
C966 C 0.9455 0.79837 0.38308 0.0
C967 C 0.91947 0.79137 0.37623 0.0
C968 C 0.95442 0.81889 0.3951 0.0
C969 C 0.93767 0.83323 0.40068 0.0
C970 C 0.91186 0.8266 0.39324 0.0
C971 C 0.90293 0.80608 0.38138 0.0
C972 C 0.9468 0.85491 0.4143 0.0
C973 C 0.9414 0.87591 0.40601 0.0
C974 C 0.96096 0.85515 0.43532 0.0
C975 C 0.96645 0.83379 0.44603 0.0
C976 C 0.94652 0.81514 0.45036 0.0
C977 C 0.95186 0.79506 0.46046 0.0
C978 C 0.97705 0.79349 0.4665 0.0
C979 C 0.99695 0.81202 0.4625 0.0
C980 C 0.99172 0.83212 0.45236 0.0
C981 C 0.96873 0.9552 0.46842 0.0
C982 C 0.99415 0.9598 0.47732 0.0
C983 C 0.95885 0.93492 0.4562 0.0
C984 C 0.9742 0.91879 0.45215 0.0
C985 C 0.99949 0.92343 0.46137 0.0
C986 C 0.00921 0.94343 0.47372 0.0
C987 C 0.9643 0.89706 0.43866 0.0
C988 C 0.96947 0.87599 0.44701 0.0
C989 C 0.95015 0.89681 0.4176 0.0
C990 C 0.94525 0.91822 0.40659 0.0
C991 C 0.96562 0.9363 0.40177 0.0
C992 C 0.96085 0.95654 0.39157 0.0
C993 C 0.93579 0.95882 0.38593 0.0
C994 C 0.91545 0.94084 0.39041 0.0
C995 C 0.92012 0.92057 0.40064 0.0
H996 H 0.93213 0.97451 0.37804 0.0
H997 H 0.98114 0.77793 0.47434 0.0
H998 H 0.2446 0.67439 0.62974 0.0
H999 H 0.27398 0.65338 0.6133 0.0
H1000 H 0.32868 0.67332 0.66891 0.0
H1001 H 0.29998 0.69493 0.68494 0.0
H1002 H 0.35122 0.68009 0.63009 0.0
H1003 H 0.29329 0.6186 0.66473 0.0
H1004 H 0.25139 0.59461 0.67252 0.0
H1005 H 0.23929 0.57653 0.60254 0.0
H1006 H 0.28099 0.60068 0.59426 0.0
H1007 H 0.43656 0.60672 0.61243 0.0
H1008 H 0.40332 0.62242 0.62975 0.0
H1009 H 0.35497 0.60852 0.56908 0.0
H1010 H 0.38815 0.59278 0.55168 0.0
H1011 H 0.32856 0.598 0.60958 0.0
H1012 H 0.38657 0.65997 0.57528 0.0
H1013 H 0.42878 0.68358 0.56792 0.0
H1014 H 0.44077 0.70049 0.63819 0.0
H1015 H 0.39876 0.67666 0.64604 0.0
C1016 C 0.26291 0.67432 0.63842 0.0
C1017 C 0.26986 0.68626 0.65872 0.0
C1018 C 0.27958 0.66213 0.62913 0.0
C1019 C 0.30345 0.6616 0.63999 0.0
C1020 C 0.31034 0.67342 0.66027 0.0
C1021 C 0.29377 0.68559 0.66953 0.0
C1022 C 0.32178 0.64954 0.62991 0.0
C1023 C 0.34632 0.66206 0.62591 0.0
C1024 C 0.31524 0.62615 0.62392 0.0
C1025 C 0.29014 0.61166 0.62883 0.0
C1026 C 0.28159 0.60968 0.65096 0.0
C1027 C 0.2579 0.59601 0.65547 0.0
C1028 C 0.24266 0.58411 0.63802 0.0
C1029 C 0.2511 0.5858 0.61603 0.0
C1030 C 0.27477 0.59946 0.61142 0.0
C1031 C 0.41868 0.60668 0.60295 0.0
C1032 C 0.41497 0.59871 0.58067 0.0
C1033 C 0.39979 0.61573 0.6128 0.0
C1034 C 0.37682 0.61681 0.60059 0.0
C1035 C 0.37258 0.60787 0.57874 0.0
C1036 C 0.39158 0.59904 0.56879 0.0
C1037 C 0.35794 0.62854 0.61011 0.0
C1038 C 0.33335 0.61601 0.61386 0.0
C1039 C 0.36441 0.65192 0.61597 0.0
C1040 C 0.38964 0.66633 0.61129 0.0
C1041 C 0.3983 0.66856 0.5892 0.0
C1042 C 0.42218 0.68201 0.58493 0.0
C1043 C 0.43748 0.69348 0.60259 0.0
C1044 C 0.42891 0.69156 0.62454 0.0
C1045 C 0.40507 0.6781 0.62891 0.0
H1046 H 0.45596 0.7039 0.59924 0.0
H1047 H 0.22432 0.57353 0.64155 0.0
H1048 H 0.75792 0.80166 0.71695 0.0
H1049 H 0.78502 0.82244 0.68815 0.0
H1050 H 0.7878 0.88584 0.72274 0.0
H1051 H 0.76054 0.8652 0.75142 0.0
H1052 H 0.78156 0.89212 0.67874 0.0
H1053 H 0.83782 0.85742 0.72739 0.0
H1054 H 0.85274 0.82585 0.74823 0.0
H1055 H 0.857 0.79213 0.68577 0.0
H1056 H 0.84174 0.82337 0.66457 0.0
H1057 H 0.88751 0.9586 0.62531 0.0
H1058 H 0.86152 0.93703 0.6544 0.0
H1059 H 0.85207 0.87568 0.61508 0.0
H1060 H 0.87831 0.89712 0.58601 0.0
H1061 H 0.86202 0.86834 0.6613 0.0
H1062 H 0.80561 0.90422 0.61302 0.0
H1063 H 0.79169 0.93675 0.59306 0.0
H1064 H 0.7891 0.96947 0.65639 0.0
H1065 H 0.80338 0.93726 0.67671 0.0
C1066 C 0.76432 0.82003 0.71838 0.0
C1067 C 0.75716 0.8318 0.73645 0.0
C1068 C 0.77983 0.83187 0.70196 0.0
C1069 C 0.78876 0.85565 0.70348 0.0
C1070 C 0.78114 0.8675 0.72122 0.0
C1071 C 0.76549 0.8557 0.73755 0.0
C1072 C 0.80617 0.86819 0.68669 0.0
C1073 C 0.7993 0.88708 0.67516 0.0
C1074 C 0.82914 0.8614 0.68173 0.0
C1075 C 0.83838 0.84262 0.69442 0.0
C1076 C 0.84174 0.84318 0.71811 0.0
C1077 C 0.85029 0.82537 0.72999 0.0
C1078 C 0.85575 0.80697 0.71834 0.0
C1079 C 0.85273 0.80638 0.69478 0.0
C1080 C 0.84415 0.82414 0.68282 0.0
C1081 C 0.88023 0.94044 0.62304 0.0
C1082 C 0.88485 0.92954 0.60337 0.0
C1083 C 0.86524 0.92819 0.63957 0.0
C1084 C 0.85467 0.90484 0.63673 0.0
C1085 C 0.86 0.89372 0.61752 0.0
C1086 C 0.87484 0.90599 0.60089 0.0
C1087 C 0.83737 0.89221 0.65347 0.0
C1088 C 0.84426 0.87332 0.66495 0.0
C1089 C 0.81454 0.89912 0.65855 0.0
C1090 C 0.80581 0.91844 0.64636 0.0
C1091 C 0.80227 0.91844 0.62268 0.0
C1092 C 0.79429 0.9368 0.6113 0.0
C1093 C 0.78958 0.9552 0.62345 0.0
C1094 C 0.79279 0.95523 0.647 0.0
C1095 C 0.80081 0.93691 0.65846 0.0
H1096 H 0.78339 0.9694 0.61461 0.0
H1097 H 0.86237 0.79319 0.72756 0.0
H1098 H 0.79432 0.23061 0.19428 0.0
H1099 H 0.76734 0.21238 0.16247 0.0
H1100 H 0.70142 0.23036 0.19051 0.0
H1101 H 0.72805 0.24806 0.22254 0.0
H1102 H 0.69353 0.18556 0.18047 0.0
H1103 H 0.7255 0.25694 0.14301 0.0
H1104 H 0.75859 0.2889 0.13001 0.0
H1105 H 0.7903 0.24231 0.09146 0.0
H1106 H 0.75761 0.21 0.10449 0.0
H1107 H 0.60929 0.13639 0.09291 0.0
H1108 H 0.63318 0.1671 0.11665 0.0
H1109 H 0.70363 0.15682 0.09048 0.0
H1110 H 0.67978 0.12708 0.06569 0.0
H1111 H 0.7072 0.20069 0.0989 0.0
H1112 H 0.68004 0.12944 0.13937 0.0
H1113 H 0.64867 0.09633 0.15283 0.0
H1114 H 0.61011 0.14159 0.18641 0.0
H1115 H 0.64109 0.175 0.17289 0.0
C1116 C 0.7741 0.2308 0.19357 0.0
C1117 C 0.76333 0.24078 0.21094 0.0
C1118 C 0.75876 0.22058 0.17529 0.0
C1119 C 0.7324 0.22018 0.17406 0.0
C1120 C 0.72173 0.23059 0.19109 0.0
C1121 C 0.73703 0.24084 0.2093 0.0
C1122 C 0.71561 0.20728 0.15607 0.0
C1123 C 0.6962 0.18918 0.16262 0.0
C1124 C 0.71957 0.21161 0.13282 0.0
C1125 C 0.73921 0.23102 0.12489 0.0
C1126 C 0.73965 0.25348 0.13191 0.0
C1127 C 0.75831 0.27166 0.1245 0.0
C1128 C 0.77657 0.26763 0.10995 0.0
C1129 C 0.77616 0.24541 0.10274 0.0
C1130 C 0.75754 0.22715 0.11011 0.0
C1131 C 0.62978 0.14113 0.09165 0.0
C1132 C 0.64266 0.12894 0.07769 0.0
C1133 C 0.64345 0.15855 0.10542 0.0
C1134 C 0.67025 0.16381 0.1058 0.0
C1135 C 0.68299 0.1529 0.09066 0.0
C1136 C 0.66932 0.1357 0.07668 0.0
C1137 C 0.68517 0.17898 0.12335 0.0
C1138 C 0.70431 0.19735 0.11674 0.0
C1139 C 0.68122 0.17478 0.14664 0.0
C1140 C 0.6627 0.15471 0.15492 0.0
C1141 C 0.66477 0.13233 0.1495 0.0
C1142 C 0.64708 0.11351 0.15715 0.0
C1143 C 0.62736 0.11686 0.17041 0.0
C1144 C 0.62536 0.13903 0.1761 0.0
C1145 C 0.64298 0.15791 0.16846 0.0
H1146 H 0.61368 0.10227 0.17631 0.0
H1147 H 0.79101 0.28173 0.10424 0.0
H1148 H 0.40576 0.59506 0.29152 0.0
H1149 H 0.41886 0.57582 0.32562 0.0
H1150 H 0.45192 0.64117 0.35495 0.0
H1151 H 0.43831 0.66074 0.32095 0.0
H1152 H 0.4831 0.60971 0.36319 0.0
H1153 H 0.39488 0.61159 0.37163 0.0
H1154 H 0.34913 0.60532 0.35992 0.0
H1155 H 0.34648 0.53305 0.35533 0.0
H1156 H 0.39231 0.53893 0.36671 0.0
H1157 H 0.50162 0.56245 0.47334 0.0
H1158 H 0.48926 0.58522 0.44124 0.0
H1159 H 0.44182 0.52432 0.41266 0.0
H1160 H 0.45283 0.50194 0.44552 0.0
H1161 H 0.41798 0.55574 0.40473 0.0
H1162 H 0.50606 0.55317 0.39475 0.0
H1163 H 0.55214 0.55892 0.40517 0.0
H1164 H 0.5558 0.63117 0.41131 0.0
H1165 H 0.50967 0.62581 0.4013 0.0
C1166 C 0.41554 0.60551 0.30523 0.0
C1167 C 0.42054 0.62965 0.30331 0.0
C1168 C 0.42318 0.59438 0.32481 0.0
C1169 C 0.43612 0.60693 0.34318 0.0
C1170 C 0.44193 0.63099 0.34112 0.0
C1171 C 0.43418 0.6422 0.32153 0.0
C1172 C 0.44312 0.59488 0.36453 0.0
C1173 C 0.46881 0.59813 0.37245 0.0
C1174 C 0.42469 0.57933 0.37651 0.0
C1175 C 0.39708 0.57573 0.36983 0.0
C1176 C 0.38458 0.59438 0.36797 0.0
C1177 C 0.35863 0.59089 0.36142 0.0
C1178 C 0.34492 0.56881 0.35684 0.0
C1179 C 0.35713 0.55015 0.35886 0.0
C1180 C 0.38309 0.55355 0.36539 0.0
C1181 C 0.4883 0.55398 0.46035 0.0
C1182 C 0.47814 0.53034 0.46213 0.0
C1183 C 0.48147 0.56699 0.44172 0.0
C1184 C 0.46494 0.55661 0.42392 0.0
C1185 C 0.4546 0.53299 0.42592 0.0
C1186 C 0.46097 0.5201 0.44478 0.0
C1187 C 0.45816 0.57015 0.40336 0.0
C1188 C 0.43241 0.56725 0.39557 0.0
C1189 C 0.47662 0.58584 0.39139 0.0
C1190 C 0.50435 0.58905 0.39746 0.0
C1191 C 0.51665 0.57026 0.39848 0.0
C1192 C 0.54278 0.57345 0.4043 0.0
C1193 C 0.55686 0.5954 0.40889 0.0
C1194 C 0.54486 0.61419 0.40775 0.0
C1195 C 0.51873 0.61108 0.402 0.0
H1196 H 0.5771 0.59787 0.41322 0.0
H1197 H 0.32483 0.56615 0.35176 0.0
H1198 H 0.14044 0.38966 0.82967 0.0
H1199 H 0.12658 0.40752 0.86244 0.0
H1200 H 0.05771 0.41529 0.8248 0.0
H1201 H 0.07127 0.39704 0.79208 0.0
H1202 H 0.0819 0.45584 0.84867 0.0
H1203 H 0.05462 0.37518 0.86502 0.0
H1204 H 0.06078 0.3355 0.87095 0.0
H1205 H 0.1158 0.35727 0.92544 0.0
H1206 H 0.11023 0.39717 0.91962 0.0
H1207 H 0.01591 0.49252 0.93698 0.0
H1208 H 0.02958 0.47332 0.90542 0.0
H1209 H 0.08285 0.4464 0.95034 0.0
H1210 H 0.06778 0.46452 0.98241 0.0
H1211 H 0.06817 0.41563 0.92256 0.0
H1212 H 0.09851 0.49496 0.90747 0.0
H1213 H 0.09667 0.53577 0.90193 0.0
H1214 H 0.04233 0.51882 0.84594 0.0
H1215 H 0.04361 0.47786 0.85132 0.0
C1216 C 0.12231 0.39512 0.82827 0.0
C1217 C 0.10708 0.3917 0.80792 0.0
C1218 C 0.1143 0.40533 0.8472 0.0
C1219 C 0.09092 0.4129 0.84646 0.0
C1220 C 0.07579 0.40972 0.82611 0.0
C1221 C 0.08355 0.39908 0.80732 0.0
C1222 C 0.08241 0.42421 0.86671 0.0
C1223 C 0.07857 0.44689 0.86472 0.0
C1224 C 0.07891 0.41317 0.88817 0.0
C1225 C 0.0822 0.3892 0.89173 0.0
C1226 C 0.0682 0.37154 0.87814 0.0
C1227 C 0.07155 0.349 0.88151 0.0
C1228 C 0.08872 0.34387 0.89852 0.0
C1229 C 0.10253 0.36127 0.91225 0.0
C1230 C 0.09927 0.38385 0.90893 0.0
C1231 C 0.03065 0.48261 0.94026 0.0
C1232 C 0.04081 0.48045 0.9625 0.0
C1233 C 0.03875 0.47166 0.92192 0.0
C1234 C 0.05809 0.45867 0.92477 0.0
C1235 C 0.06808 0.45626 0.94713 0.0
C1236 C 0.05948 0.4668 0.96564 0.0
C1237 C 0.06744 0.44746 0.90466 0.0
C1238 C 0.07149 0.42476 0.90661 0.0
C1239 C 0.07179 0.45872 0.88327 0.0
C1240 C 0.07097 0.48332 0.87995 0.0
C1241 C 0.08604 0.49992 0.89407 0.0
C1242 C 0.08512 0.52308 0.89094 0.0
C1243 C 0.06934 0.52988 0.87363 0.0
C1244 C 0.05451 0.51353 0.85937 0.0
C1245 C 0.05535 0.49034 0.86243 0.0
H1246 H 0.06865 0.54782 0.87124 0.0
H1247 H 0.09128 0.32641 0.9011 0.0
H1248 H 0.63824 0.84492 0.91181 0.0
H1249 H 0.61615 0.87094 0.93003 0.0
H1250 H 0.55447 0.85684 0.87916 0.0
H1251 H 0.57708 0.83108 0.8604 0.0
H1252 H 0.56582 0.90064 0.8863 0.0
H1253 H 0.5473 0.83555 0.9343 0.0
H1254 H 0.55527 0.80278 0.95786 0.0
H1255 H 0.60475 0.84867 1.00329 0.0
H1256 H 0.59739 0.88172 0.97983 0.0
H1257 H 0.4959 0.95971 0.96154 0.0
H1258 H 0.50739 0.92969 0.93893 0.0
H1259 H 0.58536 0.9483 0.96507 0.0
H1260 H 0.57432 0.97856 0.98728 0.0
H1261 H 0.5576 0.89878 0.96935 0.0
H1262 H 0.57813 0.96327 0.91634 0.0
H1263 H 0.5671 0.99482 0.89262 0.0
H1264 H 0.50846 0.94719 0.85673 0.0
H1265 H 0.51892 0.91538 0.8805 0.0
C1266 C 0.61978 0.84708 0.9047 0.0
C1267 C 0.60922 0.83581 0.88484 0.0
C1268 C 0.60713 0.86194 0.91515 0.0
C1269 C 0.58337 0.86551 0.90625 0.0
C1270 C 0.57272 0.85426 0.88639 0.0
C1271 C 0.58559 0.83956 0.87572 0.0
C1272 C 0.57047 0.88183 0.91732 0.0
C1273 C 0.56353 0.89992 0.90439 0.0
C1274 C 0.56741 0.88095 0.94095 0.0
C1275 C 0.57189 0.86113 0.9552 0.0
C1276 C 0.56002 0.83866 0.94923 0.0
C1277 C 0.56441 0.82003 0.96258 0.0
C1278 C 0.58053 0.82364 0.98204 0.0
C1279 C 0.59226 0.8459 0.98821 0.0
C1280 C 0.58795 0.86459 0.97491 0.0
C1281 C 0.51556 0.9576 0.96223 0.0
C1282 C 0.53423 0.97152 0.97617 0.0
C1283 C 0.52205 0.94048 0.94932 0.0
C1284 C 0.54716 0.93685 0.95048 0.0
C1285 C 0.56587 0.95092 0.96404 0.0
C1286 C 0.55954 0.96827 0.9766 0.0
C1287 C 0.55394 0.91775 0.93841 0.0
C1288 C 0.55956 0.89914 0.95121 0.0
C1289 C 0.55527 0.91791 0.91468 0.0
C1290 C 0.54908 0.93701 0.90039 0.0
C1291 C 0.5627 0.95956 0.90356 0.0
C1292 C 0.5566 0.97748 0.89006 0.0
C1293 C 0.53703 0.97302 0.87323 0.0
C1294 C 0.52358 0.95062 0.86981 0.0
C1295 C 0.52959 0.93265 0.88328 0.0
H1296 H 0.53234 0.98691 0.86279 0.0
H1297 H 0.58391 0.80919 0.99236 0.0
H1298 H 0.86375 0.1865 0.39611 0.0
H1299 H 0.88428 0.15731 0.41443 0.0
H1300 H 0.95161 0.18167 0.37698 0.0
H1301 H 0.93069 0.21057 0.35805 0.0
H1302 H 0.94212 0.13719 0.37753 0.0
H1303 H 0.9494 0.19318 0.43441 0.0
H1304 H 0.93532 0.22023 0.45935 0.0
H1305 H 0.88427 0.16457 0.49033 0.0
H1306 H 0.89776 0.1372 0.46534 0.0
H1307 H 0.0146 0.07376 0.45449 0.0
H1308 H 0.99956 0.10436 0.4325 0.0
H1309 H 0.92273 0.07763 0.45201 0.0
H1310 H 0.93736 0.04694 0.47366 0.0
H1311 H 0.94186 0.12557 0.4607 0.0
H1312 H 0.93492 0.07022 0.40088 0.0
H1313 H 0.95189 0.04443 0.37654 0.0
H1314 H 1.00685 0.10138 0.3523 0.0
H1315 H 0.99041 0.12747 0.37675 0.0
C1316 C 0.88303 0.18578 0.39196 0.0
C1317 C 0.89572 0.20094 0.37582 0.0
C1318 C 0.89479 0.1691 0.40246 0.0
C1319 C 0.91973 0.16752 0.39744 0.0
C1320 C 0.9324 0.18257 0.3812 0.0
C1321 C 0.92047 0.19909 0.37042 0.0
C1322 C 0.93222 0.14986 0.40894 0.0
C1323 C 0.94244 0.13494 0.39575 0.0
C1324 C 0.93262 0.14676 0.43274 0.0
C1325 C 0.92446 0.16315 0.44786 0.0
C1326 C 0.93503 0.18672 0.44642 0.0
C1327 C 0.92718 0.20211 0.46059 0.0
C1328 C 0.90887 0.19413 0.47638 0.0
C1329 C 0.89843 0.17073 0.47807 0.0
C1330 C 0.9062 0.15527 0.46393 0.0
C1331 C 0.99444 0.07421 0.45381 0.0
C1332 C 0.97718 0.05792 0.46585 0.0
C1333 C 0.98591 0.09169 0.44125 0.0
C1334 C 0.96007 0.09326 0.44075 0.0
C1335 C 0.94276 0.07671 0.45226 0.0
C1336 C 0.95117 0.05911 0.46453 0.0
C1337 C 0.95109 0.11274 0.42925 0.0
C1338 C 0.94167 0.12804 0.4425 0.0
C1339 C 0.95187 0.1164 0.40563 0.0
C1340 C 0.96163 0.10075 0.39083 0.0
C1341 C 0.95077 0.07721 0.39051 0.0
C1342 C 0.96026 0.06254 0.37666 0.0
C1343 C 0.98049 0.07125 0.36293 0.0
C1344 C 0.99121 0.09465 0.36297 0.0
C1345 C 0.9818 0.10939 0.37681 0.0
H1346 H 0.98781 0.05987 0.35222 0.0
H1347 H 0.90282 0.20607 0.48733 0.0
H1348 H 0.27433 0.63262 0.1086 0.0
H1349 H 0.23637 0.61313 0.08707 0.0
H1350 H 0.20395 0.58339 0.14861 0.0
H1351 H 0.24186 0.60312 0.17041 0.0
H1352 H 0.19544 0.55203 0.11449 0.0
H1353 H 0.18391 0.62891 0.12401 0.0
H1354 H 0.19583 0.67108 0.12246 0.0
H1355 H 0.20126 0.66929 0.05053 0.0
H1356 H 0.18972 0.62706 0.05169 0.0
H1357 H 0.06604 0.52304 0.06784 0.0
H1358 H 0.10575 0.53695 0.09028 0.0
H1359 H 0.14079 0.56894 0.03063 0.0
H1360 H 0.10122 0.55503 1.00818 0.0
H1361 H 0.14741 0.59865 0.06485 0.0
H1362 H 0.16461 0.52266 0.05566 0.0
H1363 H 0.15432 0.48038 0.05649 0.0
H1364 H 0.13718 0.48076 0.12639 0.0
H1365 H 0.14808 0.52308 0.12612 0.0
C1366 C 0.2591 0.6221 0.11767 0.0
C1367 C 0.2612 0.61975 0.14137 0.0
C1368 C 0.23737 0.61085 0.10527 0.0
C1369 C 0.21703 0.59699 0.11618 0.0
C1370 C 0.21933 0.59398 0.13975 0.0
C1371 C 0.24111 0.60527 0.15221 0.0
C1372 C 0.19319 0.58621 0.10299 0.0
C1373 C 0.18476 0.56229 0.1039 0.0
C1374 C 0.17937 0.59941 0.08875 0.0
C1375 C 0.18619 0.62481 0.08797 0.0
C1376 C 0.18784 0.6375 0.10788 0.0
C1377 C 0.19449 0.66141 0.10707 0.0
C1378 C 0.19936 0.67286 0.08642 0.0
C1379 C 0.19751 0.6604 0.06652 0.0
C1380 C 0.1909 0.63648 0.06724 0.0
C1381 C 0.08235 0.53272 0.05945 0.0
C1382 C 0.08042 0.538 0.03623 0.0
C1383 C 0.1051 0.54063 0.07229 0.0
C1384 C 0.12642 0.55401 0.0622 0.0
C1385 C 0.12468 0.55872 0.03887 0.0
C1386 C 0.10203 0.5507 0.02602 0.0
C1387 C 0.14983 0.56447 0.07611 0.0
C1388 C 0.15809 0.58839 0.07544 0.0
C1389 C 0.16347 0.55129 0.09049 0.0
C1390 C 0.15687 0.52595 0.0908 0.0
C1391 C 0.15853 0.51369 0.07117 0.0
C1392 C 0.15267 0.48975 0.07156 0.0
C1393 C 0.14475 0.4779 0.0914 0.0
C1394 C 0.14312 0.48998 0.111 0.0
C1395 C 0.14936 0.51393 0.11079 0.0
H1396 H 0.14015 0.45936 0.09165 0.0
H1397 H 0.20451 0.69138 0.08582 0.0
H1398 H 0.27399 0.37072 0.64229 0.0
H1399 H 0.31056 0.38906 0.62121 0.0
H1400 H 0.29753 0.45549 0.63834 0.0
H1401 H 0.25998 0.43716 0.65876 0.0
H1402 H 0.30984 0.45718 0.59604 0.0
H1403 H 0.34781 0.4314 0.66374 0.0
H1404 H 0.35581 0.40414 0.69395 0.0
H1405 H 0.38084 0.36228 0.64533 0.0
H1406 H 0.37265 0.38915 0.61476 0.0
H1407 H 0.43206 0.51605 0.55909 0.0
H1408 H 0.39497 0.50027 0.58109 0.0
H1409 H 0.4016 0.43186 0.56412 0.0
H1410 H 0.43887 0.4475 0.54235 0.0
H1411 H 0.39303 0.43294 0.60762 0.0
H1412 H 0.35343 0.45946 0.53972 0.0
H1413 H 0.3465 0.48814 0.51055 0.0
H1414 H 0.32595 0.53042 0.56126 0.0
H1415 H 0.33301 0.50208 0.59078 0.0
C1416 C 0.27858 0.38925 0.64151 0.0
C1417 C 0.26357 0.40229 0.65237 0.0
C1418 C 0.29993 0.39981 0.62957 0.0
C1419 C 0.30739 0.42384 0.62823 0.0
C1420 C 0.29248 0.43696 0.63902 0.0
C1421 C 0.27101 0.42638 0.65097 0.0
C1422 C 0.33045 0.43507 0.6154 0.0
C1423 C 0.3281 0.45205 0.59889 0.0
C1424 C 0.35447 0.42842 0.6186 0.0
C1425 C 0.35938 0.41218 0.63692 0.0
C1426 C 0.35482 0.41629 0.65946 0.0
C1427 C 0.35943 0.40092 0.67666 0.0
C1428 C 0.36876 0.38146 0.67156 0.0
C1429 C 0.37357 0.37735 0.64925 0.0
C1430 C 0.36897 0.39265 0.63198 0.0
C1431 C 0.42555 0.49764 0.55983 0.0
C1432 C 0.43862 0.48315 0.54868 0.0
C1433 C 0.40415 0.48858 0.57246 0.0
C1434 C 0.395 0.46473 0.57428 0.0
C1435 C 0.40803 0.45027 0.56313 0.0
C1436 C 0.4294 0.45931 0.5505 0.0
C1437 C 0.37231 0.45477 0.58807 0.0
C1438 C 0.37476 0.43806 0.60481 0.0
C1439 C 0.3485 0.46184 0.58522 0.0
C1440 C 0.34397 0.47875 0.56747 0.0
C1441 C 0.34757 0.47494 0.54466 0.0
C1442 C 0.3436 0.49112 0.52806 0.0
C1443 C 0.33585 0.51112 0.53405 0.0
C1444 C 0.33198 0.51493 0.55665 0.0
C1445 C 0.33593 0.4988 0.57332 0.0
H1446 H 0.33281 0.52363 0.52118 0.0
H1447 H 0.37233 0.36959 0.6849 0.0
H1448 H 0.80228 0.73277 0.89042 0.0
H1449 H 0.83059 0.7114 0.91134 0.0
H1450 H 0.76556 0.66608 0.9384 0.0
H1451 H 0.73687 0.6875 0.91729 0.0
H1452 H 0.8094 0.67807 0.97022 0.0
H1453 H 0.78815 0.64734 0.89616 0.0
H1454 H 0.78191 0.64934 0.8547 0.0
H1455 H 0.86118 0.67983 0.84927 0.0
H1456 H 0.86781 0.67836 0.89075 0.0
H1457 H 0.88758 0.59322 0.99523 0.0
H1458 H 0.853 0.61321 0.98393 0.0
H1459 H 0.90493 0.66155 0.94457 0.0
H1460 H 0.93908 0.64124 0.95487 0.0
H1461 H 0.86256 0.64363 0.92025 0.0
H1462 H 0.8833 0.67595 0.99467 0.0
H1463 H 0.88969 0.67316 0.03608 0.0
H1464 H 0.8116 0.63873 0.04103 0.0
H1465 H 0.80485 0.64097 0.99958 0.0
C1466 C 0.79397 0.7183 0.90088 0.0
C1467 C 0.76736 0.7115 0.90188 0.0
C1468 C 0.81016 0.70623 0.91294 0.0
C1469 C 0.80011 0.68702 0.92614 0.0
C1470 C 0.77362 0.68088 0.92827 0.0
C1471 C 0.75731 0.69307 0.91619 0.0
C1472 C 0.81739 0.67238 0.93582 0.0
C1473 C 0.82078 0.6702 0.95937 0.0
C1474 C 0.83225 0.66225 0.92158 0.0
C1475 C 0.82843 0.66289 0.89659 0.0
C1476 C 0.80422 0.65462 0.88614 0.0
C1477 C 0.80061 0.65564 0.86263 0.0
C1478 C 0.82113 0.66475 0.84936 0.0
C1479 C 0.8453 0.6728 0.85957 0.0
C1480 C 0.849 0.67185 0.88308 0.0
C1481 C 0.89162 0.60817 0.98424 0.0
C1482 C 0.9161 0.61558 0.97589 0.0
C1483 C 0.87191 0.61968 0.97797 0.0
C1484 C 0.87643 0.63886 0.96342 0.0
C1485 C 0.90104 0.64676 0.95579 0.0
C1486 C 0.92064 0.63525 0.96191 0.0
C1487 C 0.85538 0.64996 0.95471 0.0
C1488 C 0.85112 0.65132 0.93121 0.0
C1489 C 0.83979 0.6592 0.96904 0.0
C1490 C 0.84365 0.65842 0.994 0.0
C1491 C 0.86753 0.66766 1.00457 0.0
C1492 C 0.87122 0.66618 0.02805 0.0
C1493 C 0.85109 0.65571 0.04117 0.0
C1494 C 0.82719 0.6468 0.03084 0.0
C1495 C 0.82342 0.64818 1.00735 0.0
H1496 H 0.854 0.65453 0.05935 0.0
H1497 H 0.8183 0.66553 0.83116 0.0
H1498 H 0.46365 0.78705 0.15154 0.0
H1499 H 0.48007 0.82326 0.13201 0.0
H1500 H 0.40766 0.84347 0.13724 0.0
H1501 H 0.39107 0.80718 0.15647 0.0
H1502 H 0.42334 0.85511 0.09711 0.0
H1503 H 0.4631 0.86659 0.17126 0.0
H1504 H 0.48819 0.8578 0.20528 0.0
H1505 H 0.5536 0.8603 0.16574 0.0
H1506 H 0.52879 0.86881 0.13141 0.0
H1507 H 0.47208 0.97397 0.06803 0.0
H1508 H 0.45332 0.93845 0.08817 0.0
H1509 H 0.52035 0.91108 0.07742 0.0
H1510 H 0.53886 0.94618 0.05714 0.0
H1511 H 0.50629 0.90417 0.121 0.0
H1512 H 0.46539 0.89253 0.04665 0.0
H1513 H 0.4404 0.90347 1.01348 0.0
H1514 H 0.37672 0.90317 0.0546 0.0
H1515 H 0.40148 0.89251 0.08812 0.0
C1516 C 0.45128 0.79929 0.1488 0.0
C1517 C 0.42598 0.79403 0.15571 0.0
C1518 C 0.46071 0.8201 0.13755 0.0
C1519 C 0.44529 0.83649 0.13321 0.0
C1520 C 0.42005 0.83127 0.14018 0.0
C1521 C 0.41056 0.8104 0.15125 0.0
C1522 C 0.45536 0.85893 0.12138 0.0
C1523 C 0.44132 0.86593 0.10261 0.0
C1524 C 0.47901 0.8732 0.12812 0.0
C1525 C 0.494 0.86812 0.14873 0.0
C1526 C 0.48278 0.8651 0.16979 0.0
C1527 C 0.49696 0.8602 0.18913 0.0
C1528 C 0.52245 0.85843 0.18766 0.0
C1529 C 0.53384 0.86164 0.16685 0.0
C1530 C 0.51973 0.86652 0.14745 0.0
C1531 C 0.48265 0.96025 0.06974 0.0
C1532 C 0.50688 0.96287 0.06076 0.0
C1533 C 0.47194 0.93995 0.08132 0.0
C1534 C 0.48533 0.92189 0.08431 0.0
C1535 C 0.50959 0.92465 0.07546 0.0
C1536 C 0.52014 0.94477 0.06377 0.0
C1537 C 0.47439 0.90016 0.09675 0.0
C1538 C 0.48828 0.89333 0.11561 0.0
C1539 C 0.45056 0.88618 0.09019 0.0
C1540 C 0.43538 0.89193 0.06994 0.0
C1541 C 0.4461 0.89491 0.04865 0.0
C1542 C 0.43198 0.90106 0.02978 0.0
C1543 C 0.40702 0.9041 0.03194 0.0
C1544 C 0.39608 0.90085 0.05296 0.0
C1545 C 0.41014 0.89473 0.0719 0.0
H1546 H 0.39614 0.90892 0.01733 0.0
H1547 H 0.5334 0.85463 0.20266 0.0
H1548 H 0.13095 0.22415 0.65326 0.0
H1549 H 0.11454 0.18884 0.63277 0.0
H1550 H 0.03793 0.20049 0.63582 0.0
H1551 H 0.05433 0.236 0.65658 0.0
H1552 H 0.036 0.1567 0.64172 0.0
H1553 H 0.07426 0.20995 0.58595 0.0
H1554 H 0.10813 0.23838 0.56874 0.0
H1555 H 0.15597 0.18853 0.56851 0.0
H1556 H 0.12249 0.15986 0.58601 0.0
H1557 H 0.97938 0.08032 0.55379 0.0
H1558 H 0.9972 0.11422 0.57615 0.0
H1559 H 0.07055 0.09466 0.58019 0.0
H1560 H 0.05251 0.06019 0.55791 0.0
H1561 H 0.07475 0.14174 0.57087 0.0
H1562 H 0.03463 0.08811 0.62577 0.0
H1563 H 0.99953 0.06011 0.64185 0.0
H1564 H 0.95373 0.11156 0.6423 0.0
H1565 H 0.98843 0.13981 0.62589 0.0
C1566 C 0.11058 0.21944 0.64949 0.0
C1567 C 0.09416 0.23348 0.65654 0.0
C1568 C 0.10113 0.19903 0.63761 0.0
C1569 C 0.07486 0.19183 0.63202 0.0
C1570 C 0.05828 0.20541 0.63963 0.0
C1571 C 0.06774 0.22584 0.65166 0.0
C1572 C 0.06485 0.1703 0.61835 0.0
C1573 C 0.04436 0.15372 0.62608 0.0
C1574 C 0.07578 0.16566 0.59801 0.0
C1575 C 0.09597 0.18283 0.58752 0.0
C1576 C 0.09208 0.2051 0.5824 0.0
C1577 C 0.11119 0.22125 0.57256 0.0
C1578 C 0.13422 0.21529 0.5676 0.0
C1579 C 0.13814 0.19313 0.5724 0.0
C1580 C 0.1191 0.17692 0.58227 0.0
C1581 C 0.99932 0.08307 0.55945 0.0
C1582 C 0.01439 0.06727 0.55398 0.0
C1583 C 0.00953 0.1026 0.57238 0.0
C1584 C 0.03531 0.10723 0.58023 0.0
C1585 C 0.05061 0.09167 0.57449 0.0
C1586 C 0.04025 0.07186 0.56174 0.0
C1587 C 0.04597 0.12829 0.59428 0.0
C1588 C 0.06652 0.14477 0.58656 0.0
C1589 C 0.03495 0.13294 0.6145 0.0
C1590 C 0.01405 0.11602 0.6244 0.0
C1591 C 0.01699 0.09341 0.62912 0.0
C1592 C 0.99719 0.0775 0.63832 0.0
C1593 C 0.97439 0.08404 0.64304 0.0
C1594 C 0.97138 0.10652 0.63861 0.0
C1595 C 0.99113 0.12249 0.62937 0.0
H1596 H 0.95908 0.0717 0.65017 0.0
H1597 H 0.14899 0.22781 0.55997 0.0
H1598 H 0.76874 0.33465 0.41318 0.0
H1599 H 0.7416 0.35477 0.4334 0.0
H1600 H 0.71787 0.38414 0.37052 0.0
H1601 H 0.74659 0.36576 0.35046 0.0
H1602 H 0.71927 0.41367 0.401 0.0
H1603 H 0.68271 0.33345 0.39566 0.0
H1604 H 0.68123 0.29197 0.40047 0.0
H1605 H 0.69121 0.29972 0.47243 0.0
H1606 H 0.69308 0.34133 0.468 0.0
H1607 H 0.59409 0.42557 0.42613 0.0
H1608 H 0.62994 0.4117 0.41122 0.0
H1609 H 0.65946 0.40201 0.47915 0.0
H1610 H 0.6236 0.41586 0.49418 0.0
H1611 H 0.65707 0.36404 0.44918 0.0
H1612 H 0.68729 0.446 0.4516 0.0
H1613 H 0.68085 0.48525 0.44329 0.0
H1614 H 0.67695 0.47224 0.37215 0.0
H1615 H 0.68268 0.43267 0.38003 0.0
C1616 C 0.75834 0.34589 0.40368 0.0
C1617 C 0.75956 0.34815 0.38004 0.0
C1618 C 0.7425 0.35715 0.41527 0.0
C1619 C 0.72703 0.37043 0.40343 0.0
C1620 C 0.72935 0.37381 0.38006 0.0
C1621 C 0.74556 0.36296 0.36854 0.0
C1622 C 0.7073 0.37964 0.41499 0.0
C1623 C 0.70567 0.40275 0.41146 0.0
C1624 C 0.68947 0.36552 0.42876 0.0
C1625 C 0.68835 0.34052 0.43148 0.0
C1626 C 0.68478 0.32632 0.41249 0.0
C1627 C 0.68384 0.30279 0.41515 0.0
C1628 C 0.68621 0.29323 0.43674 0.0
C1629 C 0.68944 0.30717 0.45572 0.0
C1630 C 0.69043 0.33072 0.45315 0.0
C1631 C 0.60819 0.42041 0.43786 0.0
C1632 C 0.60614 0.42183 0.46129 0.0
C1633 C 0.62867 0.4126 0.42934 0.0
C1634 C 0.64736 0.40599 0.44412 0.0
C1635 C 0.64523 0.40711 0.46751 0.0
C1636 C 0.62488 0.41515 0.47605 0.0
C1637 C 0.66911 0.39783 0.43504 0.0
C1638 C 0.67102 0.37496 0.43901 0.0
C1639 C 0.6867 0.41199 0.42122 0.0
C1640 C 0.68518 0.43628 0.41642 0.0
C1641 C 0.685 0.45147 0.43418 0.0
C1642 C 0.68139 0.47376 0.42955 0.0
C1643 C 0.67829 0.48115 0.40721 0.0
C1644 C 0.67922 0.46642 0.38944 0.0
C1645 C 0.68265 0.44406 0.39398 0.0
H1646 H 0.67519 0.49832 0.40367 0.0
H1647 H 0.68547 0.275 0.43876 0.0
loop_
_geom_bond_atom_site_label_1
_geom_bond_atom_site_label_2
_geom_bond_distance
_geom_bond_site_symmetry_2
_ccdc_geom_bond_type
C0 C1 1.384 . S
C0 H13 0.947 . S
C0 C35 1.382 . S
C1 C0 1.384 . S
C1 C2 1.378 . S
C2 C1 1.378 . S
C2 C3 1.378 . S
C2 H14 0.952 . S
C3 C2 1.378 . S
C3 H15 0.950 . S
C3 C34 1.383 . S
H4 C23 0.947 . S
H5 C24 0.946 . S
H6 C26 0.953 . S
H7 C27 0.945 . S
H8 C29 0.952 . S
H9 C30 0.949 . S
H10 C32 0.950 . S
H11 C33 0.948 . S
H12 C35 0.951 . S
H13 C0 0.947 . S
H14 C2 0.952 . S
H15 C3 0.950 . S
N16 C19 1.382 . S
N16 C21 1.363 . S
N17 C19 1.371 . S
N17 C20 1.372 . S
N18 C20 1.361 . S
N18 C21 1.377 . S
C19 N16 1.382 . S
C19 N17 1.371 . S
C19 C22 1.480 . S
C20 N17 1.372 . S
C20 N18 1.361 . S
C20 C28 1.457 . S
C21 N16 1.363 . S
C21 N18 1.377 . S
C21 C34 1.479 . S
C22 C19 1.480 . S
C22 C23 1.383 . S
C22 C27 1.385 . S
C23 H4 0.947 . S
C23 C22 1.383 . S
C23 C24 1.388 . S
C24 H5 0.946 . S
C24 C23 1.388 . S
C24 C25 1.384 . S
C25 C24 1.384 . S
C25 C26 1.377 . S
C26 H6 0.953 . S
C26 C25 1.377 . S
C26 C27 1.369 . S
C27 H7 0.945 . S
C27 C22 1.385 . S
C27 C26 1.369 . S
C28 C20 1.457 . S
C28 C29 1.372 . S
C28 C33 1.364 . S
C29 H8 0.952 . S
C29 C28 1.372 . S
C29 C30 1.389 . S
C30 H9 0.949 . S
C30 C29 1.389 . S
C30 C31 1.387 . S
C31 C30 1.387 . S
C31 C32 1.372 . S
C32 H10 0.950 . S
C32 C31 1.372 . S
C32 C33 1.379 . S
C33 H11 0.948 . S
C33 C28 1.364 . S
C33 C32 1.379 . S
C34 C3 1.383 . S
C34 C21 1.479 . S
C34 C35 1.398 . S
C35 C0 1.382 . S
C35 H12 0.951 . S
C35 C34 1.398 . S
C36 C37 1.384 . S
C36 H49 0.947 . S
C36 C71 1.382 . S
C37 C36 1.384 . S
C37 C38 1.378 . S
C38 C37 1.378 . S
C38 C39 1.378 . S
C38 H50 0.952 . S
C39 C38 1.378 . S
C39 H51 0.950 . S
C39 C70 1.383 . S
H40 C59 0.947 . S
H41 C60 0.946 . S
H42 C62 0.953 . S
H43 C63 0.945 . S
H44 C65 0.952 . S
H45 C66 0.949 . S
H46 C68 0.950 . S
H47 C69 0.948 . S
H48 C71 0.951 . S
H49 C36 0.947 . S
H50 C38 0.952 . S
H51 C39 0.950 . S
N52 C55 1.382 . S
N52 C57 1.363 . S
N53 C55 1.371 . S
N53 C56 1.372 . S
N54 C56 1.361 . S
N54 C57 1.377 . S
C55 N52 1.382 . S
C55 N53 1.371 . S
C55 C58 1.480 . S
C56 N53 1.372 . S
C56 N54 1.361 . S
C56 C64 1.457 . S
C57 N52 1.363 . S
C57 N54 1.377 . S
C57 C70 1.479 . S
C58 C55 1.480 . S
C58 C59 1.383 . S
C58 C63 1.385 . S
C59 H40 0.947 . S
C59 C58 1.383 . S
C59 C60 1.388 . S
C60 H41 0.946 . S
C60 C59 1.388 . S
C60 C61 1.384 . S
C61 C60 1.384 . S
C61 C62 1.377 . S
C62 H42 0.953 . S
C62 C61 1.377 . S
C62 C63 1.369 . S
C63 H43 0.945 . S
C63 C58 1.385 . S
C63 C62 1.369 . S
C64 C56 1.457 . S
C64 C65 1.372 . S
C64 C69 1.364 . S
C65 H44 0.952 . S
C65 C64 1.372 . S
C65 C66 1.389 . S
C66 H45 0.949 . S
C66 C65 1.389 . S
C66 C67 1.387 . S
C67 C66 1.387 . S
C67 C68 1.372 . S
C68 H46 0.950 . S
C68 C67 1.372 . S
C68 C69 1.379 . S
C69 H47 0.948 . S
C69 C64 1.364 . S
C69 C68 1.379 . S
C70 C39 1.383 . S
C70 C57 1.479 . S
C70 C71 1.398 . S
C71 C36 1.382 . S
C71 H48 0.951 . S
C71 C70 1.398 . S
C72 C73 1.384 . S
C72 H85 0.947 . S
C72 C107 1.382 . S
C73 C72 1.384 . S
C73 C74 1.378 . S
C74 C73 1.378 . S
C74 C75 1.378 . S
C74 H86 0.952 . S
C75 C74 1.378 . S
C75 H87 0.950 . S
C75 C106 1.383 . S
H76 C95 0.947 . S
H77 C96 0.946 . S
H78 C98 0.953 . S
H79 C99 0.945 . S
H80 C101 0.952 . S
H81 C102 0.949 . S
H82 C104 0.950 . S
H83 C105 0.948 . S
H84 C107 0.951 . S
H85 C72 0.947 . S
H86 C74 0.952 . S
H87 C75 0.950 . S
N88 C91 1.382 . S
N88 C93 1.363 . S
N89 C91 1.371 . S
N89 C92 1.372 . S
N90 C92 1.361 . S
N90 C93 1.377 . S
C91 N88 1.382 . S
C91 N89 1.371 . S
C91 C94 1.480 . S
C92 N89 1.372 . S
C92 N90 1.361 . S
C92 C100 1.457 . S
C93 N88 1.363 . S
C93 N90 1.377 . S
C93 C106 1.479 . S
C94 C91 1.480 . S
C94 C95 1.383 . S
C94 C99 1.385 . S
C95 H76 0.947 . S
C95 C94 1.383 . S
C95 C96 1.388 . S
C96 H77 0.946 . S
C96 C95 1.388 . S
C96 C97 1.384 . S
C97 C96 1.384 . S
C97 C98 1.377 . S
C98 H78 0.953 . S
C98 C97 1.377 . S
C98 C99 1.369 . S
C99 H79 0.945 . S
C99 C94 1.385 . S
C99 C98 1.369 . S
C100 C92 1.457 . S
C100 C101 1.372 . S
C100 C105 1.364 . S
C101 H80 0.952 . S
C101 C100 1.372 . S
C101 C102 1.389 . S
C102 H81 0.949 . S
C102 C101 1.389 . S
C102 C103 1.387 . S
C103 C102 1.387 . S
C103 C104 1.372 . S
C104 H82 0.950 . S
C104 C103 1.372 . S
C104 C105 1.379 . S
C105 H83 0.948 . S
C105 C100 1.364 . S
C105 C104 1.379 . S
C106 C75 1.383 . S
C106 C93 1.479 . S
C106 C107 1.398 . S
C107 C72 1.382 . S
C107 H84 0.951 . S
C107 C106 1.398 . S
C108 C109 1.384 . S
C108 H121 0.947 . S
C108 C143 1.382 . S
C109 C108 1.384 . S
C109 C110 1.378 . S
C110 C109 1.378 . S
C110 C111 1.378 . S
C110 H122 0.952 . S
C111 C110 1.378 . S
C111 H123 0.950 . S
C111 C142 1.383 . S
H112 C131 0.947 . S
H113 C132 0.946 . S
H114 C134 0.953 . S
H115 C135 0.945 . S
H116 C137 0.952 . S
H117 C138 0.949 . S
H118 C140 0.950 . S
H119 C141 0.948 . S
H120 C143 0.951 . S
H121 C108 0.947 . S
H122 C110 0.952 . S
H123 C111 0.950 . S
N124 C127 1.382 . S
N124 C129 1.363 . S
N125 C127 1.371 . S
N125 C128 1.372 . S
N126 C128 1.361 . S
N126 C129 1.377 . S
C127 N124 1.382 . S
C127 N125 1.371 . S
C127 C130 1.480 . S
C128 N125 1.372 . S
C128 N126 1.361 . S
C128 C136 1.457 . S
C129 N124 1.363 . S
C129 N126 1.377 . S
C129 C142 1.479 . S
C130 C127 1.480 . S
C130 C131 1.383 . S
C130 C135 1.385 . S
C131 H112 0.947 . S
C131 C130 1.383 . S
C131 C132 1.388 . S
C132 H113 0.946 . S
C132 C131 1.388 . S
C132 C133 1.384 . S
C133 C132 1.384 . S
C133 C134 1.377 . S
C134 H114 0.953 . S
C134 C133 1.377 . S
C134 C135 1.369 . S
C135 H115 0.945 . S
C135 C130 1.385 . S
C135 C134 1.369 . S
C136 C128 1.457 . S
C136 C137 1.372 . S
C136 C141 1.364 . S
C137 H116 0.952 . S
C137 C136 1.372 . S
C137 C138 1.389 . S
C138 H117 0.949 . S
C138 C137 1.389 . S
C138 C139 1.387 . S
C139 C138 1.387 . S
C139 C140 1.372 . S
C140 H118 0.950 . S
C140 C139 1.372 . S
C140 C141 1.379 . S
C141 H119 0.948 . S
C141 C136 1.364 . S
C141 C140 1.379 . S
C142 C111 1.383 . S
C142 C129 1.479 . S
C142 C143 1.398 . S
C143 C108 1.382 . S
C143 H120 0.951 . S
C143 C142 1.398 . S
C144 C145 1.384 . S
C144 H157 0.947 . S
C144 C179 1.382 . S
C145 C144 1.384 . S
C145 C146 1.378 . S
C146 C145 1.378 . S
C146 C147 1.378 . S
C146 H158 0.952 . S
C147 C146 1.378 . S
C147 H159 0.950 . S
C147 C178 1.383 . S
H148 C167 0.947 . S
H149 C168 0.946 . S
H150 C170 0.953 . S
H151 C171 0.945 . S
H152 C173 0.952 . S
H153 C174 0.949 . S
H154 C176 0.950 . S
H155 C177 0.948 . S
H156 C179 0.951 . S
H157 C144 0.947 . S
H158 C146 0.952 . S
H159 C147 0.950 . S
N160 C163 1.382 . S
N160 C165 1.363 . S
N161 C163 1.371 . S
N161 C164 1.372 . S
N162 C164 1.361 . S
N162 C165 1.377 . S
C163 N160 1.382 . S
C163 N161 1.371 . S
C163 C166 1.480 . S
C164 N161 1.372 . S
C164 N162 1.361 . S
C164 C172 1.457 . S
C165 N160 1.363 . S
C165 N162 1.377 . S
C165 C178 1.479 . S
C166 C163 1.480 . S
C166 C167 1.383 . S
C166 C171 1.385 . S
C167 H148 0.947 . S
C167 C166 1.383 . S
C167 C168 1.388 . S
C168 H149 0.946 . S
C168 C167 1.388 . S
C168 C169 1.384 . S
C169 C168 1.384 . S
C169 C170 1.377 . S
C170 H150 0.953 . S
C170 C169 1.377 . S
C170 C171 1.369 . S
C171 H151 0.945 . S
C171 C166 1.385 . S
C171 C170 1.369 . S
C172 C164 1.457 . S
C172 C173 1.372 . S
C172 C177 1.364 . S
C173 H152 0.952 . S
C173 C172 1.372 . S
C173 C174 1.389 . S
C174 H153 0.949 . S
C174 C173 1.389 . S
C174 C175 1.387 . S
C175 C174 1.387 . S
C175 C176 1.372 . S
C176 H154 0.950 . S
C176 C175 1.372 . S
C176 C177 1.379 . S
C177 H155 0.948 . S
C177 C172 1.364 . S
C177 C176 1.379 . S
C178 C147 1.383 . S
C178 C165 1.479 . S
C178 C179 1.398 . S
C179 C144 1.382 . S
C179 H156 0.951 . S
C179 C178 1.398 . S
C180 C181 1.384 . S
C180 H193 0.947 . S
C180 C215 1.382 . S
C181 C180 1.384 . S
C181 C182 1.378 . S
C182 C181 1.378 . S
C182 C183 1.378 . S
C182 H194 0.952 . S
C183 C182 1.378 . S
C183 H195 0.950 . S
C183 C214 1.383 . S
H184 C203 0.947 . S
H185 C204 0.946 . S
H186 C206 0.953 . S
H187 C207 0.945 . S
H188 C209 0.952 . S
H189 C210 0.949 . S
H190 C212 0.950 . S
H191 C213 0.948 . S
H192 C215 0.951 . S
H193 C180 0.947 . S
H194 C182 0.952 . S
H195 C183 0.950 . S
N196 C199 1.382 . S
N196 C201 1.363 . S
N197 C199 1.371 . S
N197 C200 1.372 . S
N198 C200 1.361 . S
N198 C201 1.377 . S
C199 N196 1.382 . S
C199 N197 1.371 . S
C199 C202 1.480 . S
C200 N197 1.372 . S
C200 N198 1.361 . S
C200 C208 1.457 . S
C201 N196 1.363 . S
C201 N198 1.377 . S
C201 C214 1.479 . S
C202 C199 1.480 . S
C202 C203 1.383 . S
C202 C207 1.385 . S
C203 H184 0.947 . S
C203 C202 1.383 . S
C203 C204 1.388 . S
C204 H185 0.946 . S
C204 C203 1.388 . S
C204 C205 1.384 . S
C205 C204 1.384 . S
C205 C206 1.377 . S
C206 H186 0.953 . S
C206 C205 1.377 . S
C206 C207 1.369 . S
C207 H187 0.945 . S
C207 C202 1.385 . S
C207 C206 1.369 . S
C208 C200 1.457 . S
C208 C209 1.372 . S
C208 C213 1.364 . S
C209 H188 0.952 . S
C209 C208 1.372 . S
C209 C210 1.389 . S
C210 H189 0.949 . S
C210 C209 1.389 . S
C210 C211 1.387 . S
C211 C210 1.387 . S
C211 C212 1.372 . S
C212 H190 0.950 . S
C212 C211 1.372 . S
C212 C213 1.379 . S
C213 H191 0.948 . S
C213 C208 1.364 . S
C213 C212 1.379 . S
C214 C183 1.383 . S
C214 C201 1.479 . S
C214 C215 1.398 . S
C215 C180 1.382 . S
C215 H192 0.951 . S
C215 C214 1.398 . S
C216 C217 1.384 . S
C216 H229 0.947 . S
C216 C251 1.382 . S
C217 C216 1.384 . S
C217 C218 1.378 . S
C218 C217 1.378 . S
C218 C219 1.378 . S
C218 H230 0.952 . S
C219 C218 1.378 . S
C219 H231 0.950 . S
C219 C250 1.383 . S
H220 C239 0.947 . S
H221 C240 0.946 . S
H222 C242 0.953 . S
H223 C243 0.945 . S
H224 C245 0.952 . S
H225 C246 0.949 . S
H226 C248 0.950 . S
H227 C249 0.948 . S
H228 C251 0.951 . S
H229 C216 0.947 . S
H230 C218 0.952 . S
H231 C219 0.950 . S
N232 C235 1.382 . S
N232 C237 1.363 . S
N233 C235 1.371 . S
N233 C236 1.372 . S
N234 C236 1.361 . S
N234 C237 1.377 . S
C235 N232 1.382 . S
C235 N233 1.371 . S
C235 C238 1.480 . S
C236 N233 1.372 . S
C236 N234 1.361 . S
C236 C244 1.457 . S
C237 N232 1.363 . S
C237 N234 1.377 . S
C237 C250 1.479 . S
C238 C235 1.480 . S
C238 C239 1.383 . S
C238 C243 1.385 . S
C239 H220 0.947 . S
C239 C238 1.383 . S
C239 C240 1.388 . S
C240 H221 0.946 . S
C240 C239 1.388 . S
C240 C241 1.384 . S
C241 C240 1.384 . S
C241 C242 1.377 . S
C242 H222 0.953 . S
C242 C241 1.377 . S
C242 C243 1.369 . S
C243 H223 0.945 . S
C243 C238 1.385 . S
C243 C242 1.369 . S
C244 C236 1.457 . S
C244 C245 1.372 . S
C244 C249 1.364 . S
C245 H224 0.952 . S
C245 C244 1.372 . S
C245 C246 1.389 . S
C246 H225 0.949 . S
C246 C245 1.389 . S
C246 C247 1.387 . S
C247 C246 1.387 . S
C247 C248 1.372 . S
C248 H226 0.950 . S
C248 C247 1.372 . S
C248 C249 1.379 . S
C249 H227 0.948 . S
C249 C244 1.364 . S
C249 C248 1.379 . S
C250 C219 1.383 . S
C250 C237 1.479 . S
C250 C251 1.398 . S
C251 C216 1.382 . S
C251 H228 0.951 . S
C251 C250 1.398 . S
C252 C253 1.384 . S
C252 H265 0.947 . S
C252 C287 1.382 . S
C253 C252 1.384 . S
C253 C254 1.378 . S
C254 C253 1.378 . S
C254 C255 1.378 . S
C254 H266 0.952 . S
C255 C254 1.378 . S
C255 H267 0.950 . S
C255 C286 1.383 . S
H256 C275 0.947 . S
H257 C276 0.946 . S
H258 C278 0.953 . S
H259 C279 0.945 . S
H260 C281 0.952 . S
H261 C282 0.949 . S
H262 C284 0.950 . S
H263 C285 0.948 . S
H264 C287 0.951 . S
H265 C252 0.947 . S
H266 C254 0.952 . S
H267 C255 0.950 . S
N268 C271 1.382 . S
N268 C273 1.363 . S
N269 C271 1.371 . S
N269 C272 1.372 . S
N270 C272 1.361 . S
N270 C273 1.377 . S
C271 N268 1.382 . S
C271 N269 1.371 . S
C271 C274 1.480 . S
C272 N269 1.372 . S
C272 N270 1.361 . S
C272 C280 1.457 . S
C273 N268 1.363 . S
C273 N270 1.377 . S
C273 C286 1.479 . S
C274 C271 1.480 . S
C274 C275 1.383 . S
C274 C279 1.385 . S
C275 H256 0.947 . S
C275 C274 1.383 . S
C275 C276 1.388 . S
C276 H257 0.946 . S
C276 C275 1.388 . S
C276 C277 1.384 . S
C277 C276 1.384 . S
C277 C278 1.377 . S
C278 H258 0.953 . S
C278 C277 1.377 . S
C278 C279 1.369 . S
C279 H259 0.945 . S
C279 C274 1.385 . S
C279 C278 1.369 . S
C280 C272 1.457 . S
C280 C281 1.372 . S
C280 C285 1.364 . S
C281 H260 0.952 . S
C281 C280 1.372 . S
C281 C282 1.389 . S
C282 H261 0.949 . S
C282 C281 1.389 . S
C282 C283 1.387 . S
C283 C282 1.387 . S
C283 C284 1.372 . S
C284 H262 0.950 . S
C284 C283 1.372 . S
C284 C285 1.379 . S
C285 H263 0.948 . S
C285 C280 1.364 . S
C285 C284 1.379 . S
C286 C255 1.383 . S
C286 C273 1.479 . S
C286 C287 1.398 . S
C287 C252 1.382 . S
C287 H264 0.951 . S
C287 C286 1.398 . S
Tb288 C290 2.821 . S
Tb288 O308 2.503 . S
Tb288 O309 2.444 . S
Tb288 O310 2.650 1_665 S
Tb288 O311 2.394 1_565 S
Tb288 O312 2.389 1_655 S
Tb288 O316 2.338 . S
Tb288 O319 2.329 1_565 S
Tb289 C299 2.809 . S
Tb289 O310 2.325 . S
Tb289 O313 2.341 1_545 S
Tb289 O314 2.484 . S
Tb289 O315 2.440 . S
Tb289 O316 2.658 1_445 S
Tb289 O317 2.409 1_545 S
Tb289 O318 2.378 1_455 S
C290 Tb288 2.821 . S
C290 C291 1.514 . S
C290 O308 1.248 . S
C290 O309 1.266 . S
C291 C290 1.514 . S
C291 C292 1.359 . S
C291 C296 1.348 . S
C292 C291 1.359 . S
C292 C293 1.380 . S
C292 H320 0.929 . S
C293 C292 1.380 . S
C293 C294 1.347 . S
C293 H321 0.931 . S
C294 C293 1.347 . S
C294 C295 1.369 . S
C295 C294 1.369 . S
C295 C296 1.408 . S
C295 H322 0.930 . S
C296 C291 1.348 . S
C296 C295 1.408 . S
C296 H323 0.930 . S
C297 O310 1.281 . S
C297 O311 1.254 1_455 S
C298 O312 1.236 . S
C298 O313 1.266 . S
C299 Tb289 2.809 . S
C299 C300 1.514 . S
C299 O314 1.248 . S
C299 O315 1.266 . S
C300 C299 1.514 . S
C300 C301 1.359 . S
C300 C305 1.348 . S
C301 C300 1.359 . S
C301 C302 1.380 . S
C301 H324 0.929 . S
C302 C301 1.380 . S
C302 C303 1.347 . S
C302 H325 0.931 . S
C303 C302 1.347 . S
C303 C304 1.369 . S
C304 C303 1.369 . S
C304 C305 1.408 . S
C304 H326 0.930 . S
C305 C300 1.348 . S
C305 C304 1.408 . S
C305 H327 0.930 . S
C306 O316 1.281 . S
C306 O317 1.254 1_655 S
C307 O318 1.236 . S
C307 O319 1.266 . S
O308 Tb288 2.503 . S
O308 C290 1.248 . S
O309 Tb288 2.444 . S
O309 C290 1.266 . S
O310 Tb288 2.650 1_445 S
O310 Tb289 2.325 . S
O310 C297 1.281 . S
O311 Tb288 2.394 1_545 S
O311 C297 1.254 1_655 S
O312 Tb288 2.389 1_455 S
O312 C298 1.236 . S
O313 Tb289 2.341 1_565 S
O313 C298 1.266 . S
O314 Tb289 2.484 . S
O314 C299 1.248 . S
O315 Tb289 2.440 . S
O315 C299 1.266 . S
O316 Tb288 2.338 . S
O316 Tb289 2.658 1_665 S
O316 C306 1.281 . S
O317 Tb289 2.409 1_565 S
O317 C306 1.254 1_455 S
O318 Tb289 2.378 1_655 S
O318 C307 1.236 . S
O319 Tb288 2.329 1_545 S
O319 C307 1.266 . S
H320 C292 0.929 . S
H321 C293 0.931 . S
H322 C295 0.930 . S
H323 C296 0.930 . S
H324 C301 0.929 . S
H325 C302 0.931 . S
H326 C304 0.930 . S
H327 C305 0.930 . S
Tb328 C330 2.809 . S
Tb328 O348 2.484 . S
Tb328 O349 2.440 . S
Tb328 O350 2.658 1_545 S
Tb328 O351 2.409 1_545 S
Tb328 O352 2.378 . S
Tb328 O356 2.325 1_554 S
Tb328 O359 2.341 1_544 S
Tb329 C339 2.809 . S
Tb329 O350 2.325 1_556 S
Tb329 O353 2.341 1_566 S
Tb329 O354 2.484 . S
Tb329 O355 2.440 . S
Tb329 O356 2.658 1_565 S
Tb329 O357 2.409 1_565 S
Tb329 O358 2.378 . S
C330 Tb328 2.809 . S
C330 C331 1.514 . S
C330 O348 1.248 . S
C330 O349 1.266 . S
C331 C330 1.514 . S
C331 C332 1.359 . S
C331 C336 1.348 . S
C332 C331 1.359 . S
C332 C333 1.380 . S
C332 H360 0.929 . S
C333 C332 1.380 . S
C333 C334 1.347 . S
C333 H361 0.931 . S
C334 C333 1.347 . S
C334 C335 1.369 . S
C335 C334 1.369 . S
C335 C336 1.408 . S
C335 H362 0.930 . S
C336 C331 1.348 . S
C336 C335 1.408 . S
C336 H363 0.930 . S
C337 O350 1.281 . S
C337 O351 1.254 . S
C338 O352 1.236 . S
C338 O353 1.266 . S
C339 Tb329 2.809 . S
C339 C340 1.514 . S
C339 O354 1.248 . S
C339 O355 1.266 . S
C340 C339 1.514 . S
C340 C341 1.359 . S
C340 C345 1.348 . S
C341 C340 1.359 . S
C341 C342 1.380 . S
C341 H364 0.929 . S
C342 C341 1.380 . S
C342 C343 1.347 . S
C342 H365 0.931 . S
C343 C342 1.347 . S
C343 C344 1.369 . S
C344 C343 1.369 . S
C344 C345 1.408 . S
C344 H366 0.930 . S
C345 C340 1.348 . S
C345 C344 1.408 . S
C345 H367 0.930 . S
C346 O356 1.281 . S
C346 O357 1.254 . S
C347 O358 1.236 . S
C347 O359 1.266 . S
O348 Tb328 2.484 . S
O348 C330 1.248 . S
O349 Tb328 2.440 . S
O349 C330 1.266 . S
O350 Tb328 2.658 1_565 S
O350 Tb329 2.325 1_554 S
O350 C337 1.281 . S
O351 Tb328 2.409 1_565 S
O351 C337 1.254 . S
O352 Tb328 2.378 . S
O352 C338 1.236 . S
O353 Tb329 2.341 1_544 S
O353 C338 1.266 . S
O354 Tb329 2.484 . S
O354 C339 1.248 . S
O355 Tb329 2.440 . S
O355 C339 1.266 . S
O356 Tb328 2.325 1_556 S
O356 Tb329 2.658 1_545 S
O356 C346 1.281 . S
O357 Tb329 2.409 1_545 S
O357 C346 1.254 . S
O358 Tb329 2.378 . S
O358 C347 1.236 . S
O359 Tb328 2.341 1_566 S
O359 C347 1.266 . S
H360 C332 0.929 . S
H361 C333 0.931 . S
H362 C335 0.930 . S
H363 C336 0.930 . S
H364 C341 0.929 . S
H365 C342 0.931 . S
H366 C344 0.930 . S
H367 C345 0.930 . S
Tb368 C370 2.809 . S
Tb368 O388 2.484 . S
Tb368 O389 2.440 . S
Tb368 O390 2.658 . S
Tb368 O391 2.409 . S
Tb368 O392 2.378 . S
Tb368 O396 2.325 . S
Tb368 O399 2.341 . S
Tb369 C379 2.809 . S
Tb369 O390 2.325 . S
Tb369 O393 2.341 . S
Tb369 O394 2.484 . S
Tb369 O395 2.440 . S
Tb369 O396 2.658 . S
Tb369 O397 2.409 . S
Tb369 O398 2.378 . S
C370 Tb368 2.809 . S
C370 C371 1.514 . S
C370 O388 1.248 . S
C370 O389 1.266 . S
C371 C370 1.514 . S
C371 C372 1.359 . S
C371 C376 1.348 . S
C372 C371 1.359 . S
C372 C373 1.380 . S
C372 H400 0.929 . S
C373 C372 1.380 . S
C373 C374 1.347 . S
C373 H401 0.931 . S
C374 C373 1.347 . S
C374 C375 1.369 . S
C375 C374 1.369 . S
C375 C376 1.408 . S
C375 H402 0.930 . S
C376 C371 1.348 . S
C376 C375 1.408 . S
C376 H403 0.930 . S
C377 O390 1.281 . S
C377 O391 1.254 . S
C378 O392 1.236 . S
C378 O393 1.266 . S
C379 Tb369 2.809 . S
C379 C380 1.514 . S
C379 O394 1.248 . S
C379 O395 1.266 . S
C380 C379 1.514 . S
C380 C381 1.359 . S
C380 C385 1.348 . S
C381 C380 1.359 . S
C381 C382 1.380 . S
C381 H404 0.929 . S
C382 C381 1.380 . S
C382 C383 1.347 . S
C382 H405 0.931 . S
C383 C382 1.347 . S
C383 C384 1.369 . S
C384 C383 1.369 . S
C384 C385 1.408 . S
C384 H406 0.930 . S
C385 C380 1.348 . S
C385 C384 1.408 . S
C385 H407 0.930 . S
C386 O396 1.281 . S
C386 O397 1.254 . S
C387 O398 1.236 . S
C387 O399 1.266 . S
O388 Tb368 2.484 . S
O388 C370 1.248 . S
O389 Tb368 2.440 . S
O389 C370 1.266 . S
O390 Tb368 2.658 . S
O390 Tb369 2.325 . S
O390 C377 1.281 . S
O391 Tb368 2.409 . S
O391 C377 1.254 . S
O392 Tb368 2.378 . S
O392 C378 1.236 . S
O393 Tb369 2.341 . S
O393 C378 1.266 . S
O394 Tb369 2.484 . S
O394 C379 1.248 . S
O395 Tb369 2.440 . S
O395 C379 1.266 . S
O396 Tb368 2.325 . S
O396 Tb369 2.658 . S
O396 C386 1.281 . S
O397 Tb369 2.409 . S
O397 C386 1.254 . S
O398 Tb369 2.378 . S
O398 C387 1.236 . S
O399 Tb368 2.341 . S
O399 C387 1.266 . S
H400 C372 0.929 . S
H401 C373 0.931 . S
H402 C375 0.930 . S
H403 C376 0.930 . S
H404 C381 0.929 . S
H405 C382 0.931 . S
H406 C384 0.930 . S
H407 C385 0.930 . S
Tb408 C410 2.779 1_455 S
Tb408 O428 2.446 1_455 S
Tb408 O429 2.427 1_455 S
Tb408 O430 2.682 1_556 S
Tb408 O431 2.437 1_556 S
Tb408 O432 2.361 1_456 S
Tb408 O436 2.308 1_455 S
Tb408 O439 2.369 . S
Tb409 C419 2.809 . S
Tb409 O430 2.325 . S
Tb409 O433 2.341 1_455 S
Tb409 O434 2.484 . S
Tb409 O435 2.440 . S
Tb409 O436 2.658 1_454 S
Tb409 O437 2.409 1_455 S
Tb409 O438 2.378 1_554 S
C410 Tb408 2.779 1_655 S
C410 C411 1.514 . S
C410 O428 1.248 . S
C410 O429 1.266 . S
C411 C410 1.514 . S
C411 C412 1.359 . S
C411 C416 1.348 . S
C412 C411 1.359 . S
C412 C413 1.380 . S
C412 H440 0.929 . S
C413 C412 1.380 . S
C413 C414 1.347 . S
C413 H441 0.931 . S
C414 C413 1.347 . S
C414 C415 1.369 . S
C415 C414 1.369 . S
C415 C416 1.408 . S
C415 H442 0.930 . S
C416 C411 1.348 . S
C416 C415 1.408 . S
C416 H443 0.930 . S
C417 O430 1.281 . S
C417 O431 1.254 . S
C418 O432 1.236 . S
C418 O433 1.266 . S
C419 Tb409 2.809 . S
C419 C420 1.514 . S
C419 O434 1.248 . S
C419 O435 1.266 . S
C420 C419 1.514 . S
C420 C421 1.359 . S
C420 C425 1.348 . S
C421 C420 1.359 . S
C421 C422 1.380 . S
C421 H444 0.929 . S
C422 C421 1.380 . S
C422 C423 1.347 . S
C422 H445 0.931 . S
C423 C422 1.347 . S
C423 C424 1.369 . S
C424 C423 1.369 . S
C424 C425 1.408 . S
C424 H446 0.930 . S
C425 C420 1.348 . S
C425 C424 1.408 . S
C425 H447 0.930 . S
C426 O436 1.281 . S
C426 O437 1.254 1_556 S
C427 O438 1.236 . S
C427 O439 1.266 . S
O428 Tb408 2.446 1_655 S
O428 C410 1.248 . S
O429 Tb408 2.427 1_655 S
O429 C410 1.266 . S
O430 Tb408 2.682 1_554 S
O430 Tb409 2.325 . S
O430 C417 1.281 . S
O431 Tb408 2.437 1_554 S
O431 C417 1.254 . S
O432 Tb408 2.361 1_654 S
O432 C418 1.236 . S
O433 Tb409 2.341 1_655 S
O433 C418 1.266 . S
O434 Tb409 2.484 . S
O434 C419 1.248 . S
O435 Tb409 2.440 . S
O435 C419 1.266 . S
O436 Tb408 2.308 1_655 S
O436 Tb409 2.658 1_656 S
O436 C426 1.281 . S
O437 Tb409 2.409 1_655 S
O437 C426 1.254 1_554 S
O438 Tb409 2.378 1_556 S
O438 C427 1.236 . S
O439 Tb408 2.369 . S
O439 C427 1.266 . S
H440 C412 0.929 . S
H441 C413 0.931 . S
H442 C415 0.930 . S
H443 C416 0.930 . S
H444 C421 0.929 . S
H445 C422 0.931 . S
H446 C424 0.930 . S
H447 C425 0.930 . S
H448 C466 0.951 . S
H449 C468 0.951 . S
H450 C470 0.950 . S
H451 C471 0.950 . S
H452 C473 0.950 . S
H453 C476 0.950 . S
H454 C477 0.950 . S
H455 C479 0.950 . S
H456 C480 0.950 . S
H457 C481 0.951 . S
H458 C483 0.951 . S
H459 C485 0.950 . S
H460 C486 0.950 . S
H461 C488 0.950 . S
H462 C491 0.950 . S
H463 C492 0.950 . S
H464 C494 0.950 . S
H465 C495 0.950 . S
C466 H448 0.951 . S
C466 C467 1.366 . S
C466 C468 1.388 . S
C467 C466 1.366 . S
C467 C471 1.385 . S
C468 H449 0.951 . S
C468 C466 1.388 . S
C468 C469 1.366 . S
C469 C468 1.366 . S
C469 C470 1.414 . S
C469 C472 1.499 . S
C470 H450 0.950 . S
C470 C469 1.414 . S
C470 C471 1.374 . S
C471 H451 0.950 . S
C471 C467 1.385 . S
C471 C470 1.374 . S
C472 C469 1.499 . S
C472 C473 1.373 . S
C472 C474 1.389 . S
C473 H452 0.950 . S
C473 C472 1.373 . S
C473 C489 1.377 . S
C474 C472 1.389 . S
C474 C475 1.524 . S
C474 C488 1.377 . S
C475 C474 1.524 . S
C475 C476 1.397 . S
C475 C480 1.363 . S
C476 H453 0.950 . S
C476 C475 1.397 . S
C476 C477 1.334 . S
C477 H454 0.950 . S
C477 C476 1.334 . S
C477 C478 1.287 . S
C478 C477 1.287 . S
C478 C479 1.524 . S
C478 H497 0.913 . S
C479 H455 0.950 . S
C479 C478 1.524 . S
C479 C480 1.415 . S
C480 H456 0.950 . S
C480 C475 1.363 . S
C480 C479 1.415 . S
C481 H457 0.951 . S
C481 C482 1.366 . S
C481 C483 1.388 . S
C482 C481 1.366 . S
C482 C486 1.385 . S
C483 H458 0.951 . S
C483 C481 1.388 . S
C483 C484 1.366 . S
C484 C483 1.366 . S
C484 C485 1.414 . S
C484 C487 1.499 . S
C485 H459 0.950 . S
C485 C484 1.414 . S
C485 C486 1.374 . S
C486 H460 0.950 . S
C486 C482 1.385 . S
C486 C485 1.374 . S
C487 C484 1.499 . S
C487 C488 1.373 . S
C487 C489 1.389 . S
C488 H461 0.950 . S
C488 C474 1.377 . S
C488 C487 1.373 . S
C489 C473 1.377 . S
C489 C487 1.389 . S
C489 C490 1.524 . S
C490 C489 1.524 . S
C490 C491 1.397 . S
C490 C495 1.363 . S
C491 H462 0.950 . S
C491 C490 1.397 . S
C491 C492 1.334 . S
C492 H463 0.950 . S
C492 C491 1.334 . S
C492 C493 1.287 . S
C493 C492 1.287 . S
C493 C494 1.524 . S
C493 H496 0.999 . S
C494 H464 0.950 . S
C494 C493 1.524 . S
C494 C495 1.415 . S
C495 H465 0.950 . S
C495 C490 1.363 . S
C495 C494 1.415 . S
H496 C493 0.999 . S
H497 C478 0.913 . S
H498 C516 0.951 . S
H499 C518 0.951 . S
H500 C520 0.950 . S
H501 C521 0.950 . S
H502 C523 0.950 . S
H503 C526 0.950 . S
H504 C527 0.950 . S
H505 C529 0.950 . S
H506 C530 0.950 . S
H507 C531 0.951 . S
H508 C533 0.951 . S
H509 C535 0.950 . S
H510 C536 0.950 . S
H511 C538 0.950 . S
H512 C541 0.950 . S
H513 C542 0.950 . S
H514 C544 0.950 . S
H515 C545 0.950 . S
C516 H498 0.951 . S
C516 C517 1.366 . S
C516 C518 1.388 . S
C517 C516 1.366 . S
C517 C521 1.385 . S
C518 H499 0.951 . S
C518 C516 1.388 . S
C518 C519 1.366 . S
C519 C518 1.366 . S
C519 C520 1.414 . S
C519 C522 1.499 . S
C520 H500 0.950 . S
C520 C519 1.414 . S
C520 C521 1.374 . S
C521 H501 0.950 . S
C521 C517 1.385 . S
C521 C520 1.374 . S
C522 C519 1.499 . S
C522 C523 1.373 . S
C522 C524 1.389 . S
C523 H502 0.950 . S
C523 C522 1.373 . S
C523 C539 1.377 . S
C524 C522 1.389 . S
C524 C525 1.524 . S
C524 C538 1.377 . S
C525 C524 1.524 . S
C525 C526 1.397 . S
C525 C530 1.363 . S
C526 H503 0.950 . S
C526 C525 1.397 . S
C526 C527 1.334 . S
C527 H504 0.950 . S
C527 C526 1.334 . S
C527 C528 1.287 . S
C528 C527 1.287 . S
C528 C529 1.524 . S
C528 H547 0.913 . S
C529 H505 0.950 . S
C529 C528 1.524 . S
C529 C530 1.415 . S
C530 H506 0.950 . S
C530 C525 1.363 . S
C530 C529 1.415 . S
C531 H507 0.951 . S
C531 C532 1.366 . S
C531 C533 1.388 . S
C532 C531 1.366 . S
C532 C536 1.385 . S
C533 H508 0.951 . S
C533 C531 1.388 . S
C533 C534 1.366 . S
C534 C533 1.366 . S
C534 C535 1.414 . S
C534 C537 1.499 . S
C535 H509 0.950 . S
C535 C534 1.414 . S
C535 C536 1.374 . S
C536 H510 0.950 . S
C536 C532 1.385 . S
C536 C535 1.374 . S
C537 C534 1.499 . S
C537 C538 1.373 . S
C537 C539 1.389 . S
C538 H511 0.950 . S
C538 C524 1.377 . S
C538 C537 1.373 . S
C539 C523 1.377 . S
C539 C537 1.389 . S
C539 C540 1.524 . S
C540 C539 1.524 . S
C540 C541 1.397 . S
C540 C545 1.363 . S
C541 H512 0.950 . S
C541 C540 1.397 . S
C541 C542 1.334 . S
C542 H513 0.950 . S
C542 C541 1.334 . S
C542 C543 1.287 . S
C543 C542 1.287 . S
C543 C544 1.524 . S
C543 H546 0.999 . S
C544 H514 0.950 . S
C544 C543 1.524 . S
C544 C545 1.415 . S
C545 H515 0.950 . S
C545 C540 1.363 . S
C545 C544 1.415 . S
H546 C543 0.999 . S
H547 C528 0.913 . S
H548 C566 0.951 . S
H549 C568 0.951 . S
H550 C570 0.950 . S
H551 C571 0.950 . S
H552 C573 0.950 . S
H553 C576 0.950 . S
H554 C577 0.950 . S
H555 C579 0.950 . S
H556 C580 0.950 . S
H557 C581 0.951 . S
H558 C583 0.951 . S
H559 C585 0.950 . S
H560 C586 0.950 . S
H561 C588 0.950 . S
H562 C591 0.950 . S
H563 C592 0.950 . S
H564 C594 0.950 . S
H565 C595 0.950 . S
C566 H548 0.951 . S
C566 C567 1.366 . S
C566 C568 1.388 . S
C567 C566 1.366 . S
C567 C571 1.385 . S
C568 H549 0.951 . S
C568 C566 1.388 . S
C568 C569 1.366 . S
C569 C568 1.366 . S
C569 C570 1.414 . S
C569 C572 1.499 . S
C570 H550 0.950 . S
C570 C569 1.414 . S
C570 C571 1.374 . S
C571 H551 0.950 . S
C571 C567 1.385 . S
C571 C570 1.374 . S
C572 C569 1.499 . S
C572 C573 1.373 . S
C572 C574 1.389 . S
C573 H552 0.950 . S
C573 C572 1.373 . S
C573 C589 1.377 . S
C574 C572 1.389 . S
C574 C575 1.524 . S
C574 C588 1.377 . S
C575 C574 1.524 . S
C575 C576 1.397 . S
C575 C580 1.363 . S
C576 H553 0.950 . S
C576 C575 1.397 . S
C576 C577 1.334 . S
C577 H554 0.950 . S
C577 C576 1.334 . S
C577 C578 1.287 . S
C578 C577 1.287 . S
C578 C579 1.524 . S
C578 H597 0.913 . S
C579 H555 0.950 . S
C579 C578 1.524 . S
C579 C580 1.415 . S
C580 H556 0.950 . S
C580 C575 1.363 . S
C580 C579 1.415 . S
C581 H557 0.951 . S
C581 C582 1.366 . S
C581 C583 1.388 . S
C582 C581 1.366 . S
C582 C586 1.385 . S
C583 H558 0.951 . S
C583 C581 1.388 . S
C583 C584 1.366 . S
C584 C583 1.366 . S
C584 C585 1.414 . S
C584 C587 1.499 . S
C585 H559 0.950 . S
C585 C584 1.414 . S
C585 C586 1.374 . S
C586 H560 0.950 . S
C586 C582 1.385 . S
C586 C585 1.374 . S
C587 C584 1.499 . S
C587 C588 1.373 . S
C587 C589 1.389 . S
C588 H561 0.950 . S
C588 C574 1.377 . S
C588 C587 1.373 . S
C589 C573 1.377 . S
C589 C587 1.389 . S
C589 C590 1.524 . S
C590 C589 1.524 . S
C590 C591 1.397 . S
C590 C595 1.363 . S
C591 H562 0.950 . S
C591 C590 1.397 . S
C591 C592 1.334 . S
C592 H563 0.950 . S
C592 C591 1.334 . S
C592 C593 1.287 . S
C593 C592 1.287 . S
C593 C594 1.524 . S
C593 H596 0.999 . S
C594 H564 0.950 . S
C594 C593 1.524 . S
C594 C595 1.415 . S
C595 H565 0.950 . S
C595 C590 1.363 . S
C595 C594 1.415 . S
H596 C593 0.999 . S
H597 C578 0.913 . S
H598 C616 0.951 . S
H599 C618 0.951 . S
H600 C620 0.950 . S
H601 C621 0.950 . S
H602 C623 0.950 . S
H603 C626 0.950 . S
H604 C627 0.950 . S
H605 C629 0.950 . S
H606 C630 0.950 . S
H607 C631 0.951 . S
H608 C633 0.951 . S
H609 C635 0.950 . S
H610 C636 0.950 . S
H611 C638 0.950 . S
H612 C641 0.950 . S
H613 C642 0.950 . S
H614 C644 0.950 . S
H615 C645 0.950 . S
C616 H598 0.951 . S
C616 C617 1.366 . S
C616 C618 1.388 . S
C617 C616 1.366 . S
C617 C621 1.385 . S
C618 H599 0.951 . S
C618 C616 1.388 . S
C618 C619 1.366 . S
C619 C618 1.366 . S
C619 C620 1.414 . S
C619 C622 1.499 . S
C620 H600 0.950 . S
C620 C619 1.414 . S
C620 C621 1.374 . S
C621 H601 0.950 . S
C621 C617 1.385 . S
C621 C620 1.374 . S
C622 C619 1.499 . S
C622 C623 1.373 . S
C622 C624 1.389 . S
C623 H602 0.950 . S
C623 C622 1.373 . S
C623 C639 1.377 . S
C624 C622 1.389 . S
C624 C625 1.524 . S
C624 C638 1.377 . S
C625 C624 1.524 . S
C625 C626 1.397 . S
C625 C630 1.363 . S
C626 H603 0.950 . S
C626 C625 1.397 . S
C626 C627 1.334 . S
C627 H604 0.950 . S
C627 C626 1.334 . S
C627 C628 1.287 . S
C628 C627 1.287 . S
C628 C629 1.524 . S
C628 H647 0.913 . S
C629 H605 0.950 . S
C629 C628 1.524 . S
C629 C630 1.415 . S
C630 H606 0.950 . S
C630 C625 1.363 . S
C630 C629 1.415 . S
C631 H607 0.951 . S
C631 C632 1.366 . S
C631 C633 1.388 . S
C632 C631 1.366 . S
C632 C636 1.385 . S
C633 H608 0.951 . S
C633 C631 1.388 . S
C633 C634 1.366 . S
C634 C633 1.366 . S
C634 C635 1.414 . S
C634 C637 1.499 . S
C635 H609 0.950 . S
C635 C634 1.414 . S
C635 C636 1.374 . S
C636 H610 0.950 . S
C636 C632 1.385 . S
C636 C635 1.374 . S
C637 C634 1.499 . S
C637 C638 1.373 . S
C637 C639 1.389 . S
C638 H611 0.950 . S
C638 C624 1.377 . S
C638 C637 1.373 . S
C639 C623 1.377 . S
C639 C637 1.389 . S
C639 C640 1.524 . S
C640 C639 1.524 . S
C640 C641 1.397 . S
C640 C645 1.363 . S
C641 H612 0.950 . S
C641 C640 1.397 . S
C641 C642 1.334 . S
C642 H613 0.950 . S
C642 C641 1.334 . S
C642 C643 1.287 . S
C643 C642 1.287 . S
C643 C644 1.524 . S
C643 H646 0.999 . S
C644 H614 0.950 . S
C644 C643 1.524 . S
C644 C645 1.415 . S
C645 H615 0.950 . S
C645 C640 1.363 . S
C645 C644 1.415 . S
H646 C643 0.999 . S
H647 C628 0.913 . S
H648 C666 0.951 . S
H649 C668 0.951 . S
H650 C670 0.950 . S
H651 C671 0.950 . S
H652 C673 0.950 . S
H653 C676 0.950 . S
H654 C677 0.950 . S
H655 C679 0.950 . S
H656 C680 0.950 . S
H657 C681 0.951 . S
H658 C683 0.951 . S
H659 C685 0.950 . S
H660 C686 0.950 . S
H661 C688 0.950 . S
H662 C691 0.950 . S
H663 C692 0.950 1_556 S
H664 C694 0.950 . S
H665 C695 0.950 . S
C666 H648 0.951 . S
C666 C667 1.366 . S
C666 C668 1.388 . S
C667 C666 1.366 . S
C667 C671 1.385 . S
C668 H649 0.951 . S
C668 C666 1.388 . S
C668 C669 1.366 . S
C669 C668 1.366 . S
C669 C670 1.414 . S
C669 C672 1.499 . S
C670 H650 0.950 . S
C670 C669 1.414 . S
C670 C671 1.374 . S
C671 H651 0.950 . S
C671 C667 1.385 . S
C671 C670 1.374 . S
C672 C669 1.499 . S
C672 C673 1.373 . S
C672 C674 1.389 . S
C673 H652 0.950 . S
C673 C672 1.373 . S
C673 C689 1.377 . S
C674 C672 1.389 . S
C674 C675 1.524 . S
C674 C688 1.377 . S
C675 C674 1.524 . S
C675 C676 1.397 . S
C675 C680 1.363 . S
C676 H653 0.950 . S
C676 C675 1.397 . S
C676 C677 1.334 . S
C677 H654 0.950 . S
C677 C676 1.334 . S
C677 C678 1.287 . S
C678 C677 1.287 . S
C678 C679 1.524 . S
C678 H697 0.913 . S
C679 H655 0.950 . S
C679 C678 1.524 . S
C679 C680 1.415 . S
C680 H656 0.950 . S
C680 C675 1.363 . S
C680 C679 1.415 . S
C681 H657 0.951 . S
C681 C682 1.366 . S
C681 C683 1.388 . S
C682 C681 1.366 . S
C682 C686 1.385 . S
C683 H658 0.951 . S
C683 C681 1.388 . S
C683 C684 1.366 . S
C684 C683 1.366 . S
C684 C685 1.414 . S
C684 C687 1.499 . S
C685 H659 0.950 . S
C685 C684 1.414 . S
C685 C686 1.374 . S
C686 H660 0.950 . S
C686 C682 1.385 . S
C686 C685 1.374 . S
C687 C684 1.499 . S
C687 C688 1.373 . S
C687 C689 1.389 . S
C688 H661 0.950 . S
C688 C674 1.377 . S
C688 C687 1.373 . S
C689 C673 1.377 . S
C689 C687 1.389 . S
C689 C690 1.524 . S
C690 C689 1.524 . S
C690 C691 1.397 . S
C690 C695 1.363 . S
C691 H662 0.950 . S
C691 C690 1.397 . S
C691 C692 1.334 . S
C692 H663 0.950 1_554 S
C692 C691 1.334 . S
C692 C693 1.287 1_554 S
C693 C692 1.287 1_556 S
C693 C694 1.524 1_556 S
C693 H696 0.999 . S
C694 H664 0.950 . S
C694 C693 1.524 1_554 S
C694 C695 1.415 . S
C695 H665 0.950 . S
C695 C690 1.363 . S
C695 C694 1.415 . S
H696 C693 0.999 . S
H697 C678 0.913 . S
H698 C716 0.951 . S
H699 C718 0.951 . S
H700 C720 0.950 . S
H701 C721 0.950 . S
H702 C723 0.950 . S
H703 C726 0.950 . S
H704 C727 0.950 . S
H705 C729 0.950 . S
H706 C730 0.950 . S
H707 C731 0.951 1_655 S
H708 C733 0.951 . S
H709 C735 0.950 . S
H710 C736 0.950 . S
H711 C738 0.950 . S
H712 C741 0.950 . S
H713 C742 0.950 . S
H714 C744 0.950 . S
H715 C745 0.950 . S
C716 H698 0.951 . S
C716 C717 1.366 . S
C716 C718 1.388 . S
C717 C716 1.366 . S
C717 C721 1.385 . S
C718 H699 0.951 . S
C718 C716 1.388 . S
C718 C719 1.366 . S
C719 C718 1.366 . S
C719 C720 1.414 . S
C719 C722 1.499 . S
C720 H700 0.950 . S
C720 C719 1.414 . S
C720 C721 1.374 . S
C721 H701 0.950 . S
C721 C717 1.385 . S
C721 C720 1.374 . S
C722 C719 1.499 . S
C722 C723 1.373 . S
C722 C724 1.389 . S
C723 H702 0.950 . S
C723 C722 1.373 . S
C723 C739 1.377 . S
C724 C722 1.389 . S
C724 C725 1.524 . S
C724 C738 1.377 . S
C725 C724 1.524 . S
C725 C726 1.397 . S
C725 C730 1.363 . S
C726 H703 0.950 . S
C726 C725 1.397 . S
C726 C727 1.334 . S
C727 H704 0.950 . S
C727 C726 1.334 . S
C727 C728 1.287 . S
C728 C727 1.287 . S
C728 C729 1.524 . S
C728 H747 0.913 . S
C729 H705 0.950 . S
C729 C728 1.524 . S
C729 C730 1.415 . S
C730 H706 0.950 . S
C730 C725 1.363 . S
C730 C729 1.415 . S
C731 H707 0.951 1_455 S
C731 C732 1.366 . S
C731 C733 1.388 . S
C732 C731 1.366 . S
C732 C736 1.385 . S
C733 H708 0.951 . S
C733 C731 1.388 . S
C733 C734 1.366 . S
C734 C733 1.366 . S
C734 C735 1.414 . S
C734 C737 1.499 . S
C735 H709 0.950 . S
C735 C734 1.414 . S
C735 C736 1.374 . S
C736 H710 0.950 . S
C736 C732 1.385 . S
C736 C735 1.374 . S
C737 C734 1.499 . S
C737 C738 1.373 . S
C737 C739 1.389 . S
C738 H711 0.950 . S
C738 C724 1.377 . S
C738 C737 1.373 . S
C739 C723 1.377 . S
C739 C737 1.389 . S
C739 C740 1.524 . S
C740 C739 1.524 . S
C740 C741 1.397 . S
C740 C745 1.363 . S
C741 H712 0.950 . S
C741 C740 1.397 . S
C741 C742 1.334 . S
C742 H713 0.950 . S
C742 C741 1.334 . S
C742 C743 1.287 . S
C743 C742 1.287 . S
C743 C744 1.524 1_455 S
C743 H746 0.999 1_455 S
C744 H714 0.950 . S
C744 C743 1.524 1_655 S
C744 C745 1.415 1_655 S
C745 H715 0.950 . S
C745 C740 1.363 . S
C745 C744 1.415 1_455 S
H746 C743 0.999 1_655 S
H747 C728 0.913 . S
H748 C766 0.951 . S
H749 C768 0.951 . S
H750 C770 0.950 . S
H751 C771 0.950 . S
H752 C773 0.950 . S
H753 C776 0.950 . S
H754 C777 0.950 . S
H755 C779 0.950 . S
H756 C780 0.950 . S
H757 C781 0.951 . S
H758 C783 0.951 . S
H759 C785 0.950 . S
H760 C786 0.950 . S
H761 C788 0.950 . S
H762 C791 0.950 . S
H763 C792 0.950 . S
H764 C794 0.950 . S
H765 C795 0.950 . S
C766 H748 0.951 . S
C766 C767 1.366 . S
C766 C768 1.388 . S
C767 C766 1.366 . S
C767 C771 1.385 . S
C768 H749 0.951 . S
C768 C766 1.388 . S
C768 C769 1.366 . S
C769 C768 1.366 . S
C769 C770 1.414 . S
C769 C772 1.499 . S
C770 H750 0.950 . S
C770 C769 1.414 . S
C770 C771 1.374 . S
C771 H751 0.950 . S
C771 C767 1.385 . S
C771 C770 1.374 . S
C772 C769 1.499 . S
C772 C773 1.373 . S
C772 C774 1.389 . S
C773 H752 0.950 . S
C773 C772 1.373 . S
C773 C789 1.377 . S
C774 C772 1.389 . S
C774 C775 1.524 . S
C774 C788 1.377 . S
C775 C774 1.524 . S
C775 C776 1.397 . S
C775 C780 1.363 . S
C776 H753 0.950 . S
C776 C775 1.397 . S
C776 C777 1.334 . S
C777 H754 0.950 . S
C777 C776 1.334 . S
C777 C778 1.287 . S
C778 C777 1.287 . S
C778 C779 1.524 . S
C778 H797 0.913 . S
C779 H755 0.950 . S
C779 C778 1.524 . S
C779 C780 1.415 . S
C780 H756 0.950 . S
C780 C775 1.363 . S
C780 C779 1.415 . S
C781 H757 0.951 . S
C781 C782 1.366 . S
C781 C783 1.388 . S
C782 C781 1.366 . S
C782 C786 1.385 . S
C783 H758 0.951 . S
C783 C781 1.388 . S
C783 C784 1.366 . S
C784 C783 1.366 . S
C784 C785 1.414 . S
C784 C787 1.499 . S
C785 H759 0.950 . S
C785 C784 1.414 . S
C785 C786 1.374 . S
C786 H760 0.950 . S
C786 C782 1.385 . S
C786 C785 1.374 . S
C787 C784 1.499 . S
C787 C788 1.373 . S
C787 C789 1.389 . S
C788 H761 0.950 . S
C788 C774 1.377 . S
C788 C787 1.373 . S
C789 C773 1.377 . S
C789 C787 1.389 . S
C789 C790 1.524 . S
C790 C789 1.524 . S
C790 C791 1.397 . S
C790 C795 1.363 . S
C791 H762 0.950 . S
C791 C790 1.397 . S
C791 C792 1.334 . S
C792 H763 0.950 . S
C792 C791 1.334 . S
C792 C793 1.287 . S
C793 C792 1.287 . S
C793 C794 1.524 . S
C793 H796 0.999 . S
C794 H764 0.950 . S
C794 C793 1.524 . S
C794 C795 1.415 . S
C795 H765 0.950 . S
C795 C790 1.363 . S
C795 C794 1.415 . S
H796 C793 0.999 . S
H797 C778 0.913 . S
H798 C816 0.951 . S
H799 C818 0.951 . S
H800 C820 0.950 . S
H801 C821 0.950 . S
H802 C823 0.950 . S
H803 C826 0.950 . S
H804 C827 0.950 . S
H805 C829 0.950 . S
H806 C830 0.950 . S
H807 C831 0.951 . S
H808 C833 0.951 . S
H809 C835 0.950 . S
H810 C836 0.950 . S
H811 C838 0.950 . S
H812 C841 0.950 . S
H813 C842 0.950 . S
H814 C844 0.950 . S
H815 C845 0.950 . S
C816 H798 0.951 . S
C816 C817 1.366 . S
C816 C818 1.388 . S
C817 C816 1.366 . S
C817 C821 1.385 . S
C818 H799 0.951 . S
C818 C816 1.388 . S
C818 C819 1.366 . S
C819 C818 1.366 . S
C819 C820 1.414 . S
C819 C822 1.499 . S
C820 H800 0.950 . S
C820 C819 1.414 . S
C820 C821 1.374 . S
C821 H801 0.950 . S
C821 C817 1.385 . S
C821 C820 1.374 . S
C822 C819 1.499 . S
C822 C823 1.373 . S
C822 C824 1.389 . S
C823 H802 0.950 . S
C823 C822 1.373 . S
C823 C839 1.377 . S
C824 C822 1.389 . S
C824 C825 1.524 . S
C824 C838 1.377 . S
C825 C824 1.524 . S
C825 C826 1.397 . S
C825 C830 1.363 . S
C826 H803 0.950 . S
C826 C825 1.397 . S
C826 C827 1.334 . S
C827 H804 0.950 . S
C827 C826 1.334 . S
C827 C828 1.287 . S
C828 C827 1.287 . S
C828 C829 1.524 . S
C828 H847 0.913 . S
C829 H805 0.950 . S
C829 C828 1.524 . S
C829 C830 1.415 . S
C830 H806 0.950 . S
C830 C825 1.363 . S
C830 C829 1.415 . S
C831 H807 0.951 . S
C831 C832 1.366 . S
C831 C833 1.388 . S
C832 C831 1.366 . S
C832 C836 1.385 . S
C833 H808 0.951 . S
C833 C831 1.388 . S
C833 C834 1.366 . S
C834 C833 1.366 . S
C834 C835 1.414 . S
C834 C837 1.499 . S
C835 H809 0.950 . S
C835 C834 1.414 . S
C835 C836 1.374 . S
C836 H810 0.950 . S
C836 C832 1.385 . S
C836 C835 1.374 . S
C837 C834 1.499 . S
C837 C838 1.373 . S
C837 C839 1.389 . S
C838 H811 0.950 . S
C838 C824 1.377 . S
C838 C837 1.373 . S
C839 C823 1.377 . S
C839 C837 1.389 . S
C839 C840 1.524 . S
C840 C839 1.524 . S
C840 C841 1.397 . S
C840 C845 1.363 . S
C841 H812 0.950 . S
C841 C840 1.397 . S
C841 C842 1.334 . S
C842 H813 0.950 . S
C842 C841 1.334 . S
C842 C843 1.287 . S
C843 C842 1.287 . S
C843 C844 1.524 . S
C843 H846 0.999 . S
C844 H814 0.950 . S
C844 C843 1.524 . S
C844 C845 1.415 . S
C845 H815 0.950 . S
C845 C840 1.363 . S
C845 C844 1.415 . S
H846 C843 0.999 . S
H847 C828 0.913 . S
H848 C866 0.951 . S
H849 C868 0.951 . S
H850 C870 0.950 . S
H851 C871 0.950 . S
H852 C873 0.950 . S
H853 C876 0.950 . S
H854 C877 0.950 . S
H855 C879 0.950 . S
H856 C880 0.950 . S
H857 C881 0.951 . S
H858 C883 0.951 . S
H859 C885 0.950 . S
H860 C886 0.950 . S
H861 C888 0.950 . S
H862 C891 0.950 . S
H863 C892 0.950 . S
H864 C894 0.950 . S
H865 C895 0.950 . S
C866 H848 0.951 . S
C866 C867 1.366 . S
C866 C868 1.388 . S
C867 C866 1.366 . S
C867 C871 1.385 . S
C868 H849 0.951 . S
C868 C866 1.388 . S
C868 C869 1.366 . S
C869 C868 1.366 . S
C869 C870 1.414 . S
C869 C872 1.499 . S
C870 H850 0.950 . S
C870 C869 1.414 . S
C870 C871 1.374 . S
C871 H851 0.950 . S
C871 C867 1.385 . S
C871 C870 1.374 . S
C872 C869 1.499 . S
C872 C873 1.373 . S
C872 C874 1.389 . S
C873 H852 0.950 . S
C873 C872 1.373 . S
C873 C889 1.377 . S
C874 C872 1.389 . S
C874 C875 1.524 . S
C874 C888 1.377 . S
C875 C874 1.524 . S
C875 C876 1.397 . S
C875 C880 1.363 . S
C876 H853 0.950 . S
C876 C875 1.397 . S
C876 C877 1.334 . S
C877 H854 0.950 . S
C877 C876 1.334 . S
C877 C878 1.287 . S
C878 C877 1.287 . S
C878 C879 1.524 . S
C878 H897 0.913 . S
C879 H855 0.950 . S
C879 C878 1.524 . S
C879 C880 1.415 . S
C880 H856 0.950 . S
C880 C875 1.363 . S
C880 C879 1.415 . S
C881 H857 0.951 . S
C881 C882 1.366 . S
C881 C883 1.388 . S
C882 C881 1.366 . S
C882 C886 1.385 . S
C883 H858 0.951 . S
C883 C881 1.388 . S
C883 C884 1.366 . S
C884 C883 1.366 . S
C884 C885 1.414 . S
C884 C887 1.499 . S
C885 H859 0.950 . S
C885 C884 1.414 . S
C885 C886 1.374 . S
C886 H860 0.950 . S
C886 C882 1.385 . S
C886 C885 1.374 . S
C887 C884 1.499 . S
C887 C888 1.373 . S
C887 C889 1.389 . S
C888 H861 0.950 . S
C888 C874 1.377 . S
C888 C887 1.373 . S
C889 C873 1.377 . S
C889 C887 1.389 . S
C889 C890 1.524 . S
C890 C889 1.524 . S
C890 C891 1.397 . S
C890 C895 1.363 . S
C891 H862 0.950 . S
C891 C890 1.397 . S
C891 C892 1.334 . S
C892 H863 0.950 . S
C892 C891 1.334 . S
C892 C893 1.287 . S
C893 C892 1.287 . S
C893 C894 1.524 . S
C893 H896 0.999 . S
C894 H864 0.950 . S
C894 C893 1.524 . S
C894 C895 1.415 . S
C895 H865 0.950 . S
C895 C890 1.363 . S
C895 C894 1.415 . S
H896 C893 0.999 . S
H897 C878 0.913 . S
H898 C916 0.951 . S
H899 C918 0.951 . S
H900 C920 0.950 . S
H901 C921 0.950 . S
H902 C923 0.950 . S
H903 C926 0.950 . S
H904 C927 0.950 . S
H905 C929 0.950 . S
H906 C930 0.950 . S
H907 C931 0.951 . S
H908 C933 0.951 . S
H909 C935 0.950 . S
H910 C936 0.950 . S
H911 C938 0.950 . S
H912 C941 0.950 . S
H913 C942 0.950 . S
H914 C944 0.950 . S
H915 C945 0.950 . S
C916 H898 0.951 . S
C916 C917 1.366 . S
C916 C918 1.388 . S
C917 C916 1.366 . S
C917 C921 1.385 . S
C918 H899 0.951 . S
C918 C916 1.388 . S
C918 C919 1.366 . S
C919 C918 1.366 . S
C919 C920 1.414 . S
C919 C922 1.499 . S
C920 H900 0.950 . S
C920 C919 1.414 . S
C920 C921 1.374 . S
C921 H901 0.950 . S
C921 C917 1.385 . S
C921 C920 1.374 . S
C922 C919 1.499 . S
C922 C923 1.373 . S
C922 C924 1.389 . S
C923 H902 0.950 . S
C923 C922 1.373 . S
C923 C939 1.377 . S
C924 C922 1.389 . S
C924 C925 1.524 . S
C924 C938 1.377 . S
C925 C924 1.524 . S
C925 C926 1.397 . S
C925 C930 1.363 . S
C926 H903 0.950 . S
C926 C925 1.397 . S
C926 C927 1.334 . S
C927 H904 0.950 . S
C927 C926 1.334 . S
C927 C928 1.287 . S
C928 C927 1.287 . S
C928 C929 1.524 . S
C928 H947 0.913 . S
C929 H905 0.950 . S
C929 C928 1.524 . S
C929 C930 1.415 . S
C930 H906 0.950 . S
C930 C925 1.363 . S
C930 C929 1.415 . S
C931 H907 0.951 . S
C931 C932 1.366 . S
C931 C933 1.388 . S
C932 C931 1.366 . S
C932 C936 1.385 . S
C933 H908 0.951 . S
C933 C931 1.388 . S
C933 C934 1.366 . S
C934 C933 1.366 . S
C934 C935 1.414 . S
C934 C937 1.499 . S
C935 H909 0.950 . S
C935 C934 1.414 . S
C935 C936 1.374 . S
C936 H910 0.950 . S
C936 C932 1.385 . S
C936 C935 1.374 . S
C937 C934 1.499 . S
C937 C938 1.373 . S
C937 C939 1.389 . S
C938 H911 0.950 . S
C938 C924 1.377 . S
C938 C937 1.373 . S
C939 C923 1.377 . S
C939 C937 1.389 . S
C939 C940 1.524 . S
C940 C939 1.524 . S
C940 C941 1.397 . S
C940 C945 1.363 . S
C941 H912 0.950 . S
C941 C940 1.397 . S
C941 C942 1.334 . S
C942 H913 0.950 . S
C942 C941 1.334 . S
C942 C943 1.287 . S
C943 C942 1.287 . S
C943 C944 1.524 . S
C943 H946 0.999 . S
C944 H914 0.950 . S
C944 C943 1.524 . S
C944 C945 1.415 . S
C945 H915 0.950 . S
C945 C940 1.363 . S
C945 C944 1.415 . S
H946 C943 0.999 . S
H947 C928 0.913 . S
H948 C966 0.951 . S
H949 C968 0.951 . S
H950 C970 0.950 . S
H951 C971 0.950 . S
H952 C973 0.950 . S
H953 C976 0.950 . S
H954 C977 0.950 . S
H955 C979 0.950 . S
H956 C980 0.950 . S
H957 C981 0.951 . S
H958 C983 0.951 . S
H959 C985 0.950 . S
H960 C986 0.950 . S
H961 C988 0.950 . S
H962 C991 0.950 . S
H963 C992 0.950 . S
H964 C994 0.950 . S
H965 C995 0.950 . S
C966 H948 0.951 . S
C966 C967 1.366 . S
C966 C968 1.388 . S
C967 C966 1.366 . S
C967 C971 1.385 . S
C968 H949 0.951 . S
C968 C966 1.388 . S
C968 C969 1.366 . S
C969 C968 1.366 . S
C969 C970 1.414 . S
C969 C972 1.499 . S
C970 H950 0.950 . S
C970 C969 1.414 . S
C970 C971 1.374 . S
C971 H951 0.950 . S
C971 C967 1.385 . S
C971 C970 1.374 . S
C972 C969 1.499 . S
C972 C973 1.373 . S
C972 C974 1.389 . S
C973 H952 0.950 . S
C973 C972 1.373 . S
C973 C989 1.377 . S
C974 C972 1.389 . S
C974 C975 1.524 . S
C974 C988 1.377 . S
C975 C974 1.524 . S
C975 C976 1.397 . S
C975 C980 1.363 . S
C976 H953 0.950 . S
C976 C975 1.397 . S
C976 C977 1.334 . S
C977 H954 0.950 . S
C977 C976 1.334 . S
C977 C978 1.287 . S
C978 C977 1.287 . S
C978 C979 1.524 . S
C978 H997 0.913 . S
C979 H955 0.950 . S
C979 C978 1.524 . S
C979 C980 1.415 . S
C980 H956 0.950 . S
C980 C975 1.363 . S
C980 C979 1.415 . S
C981 H957 0.951 . S
C981 C982 1.366 . S
C981 C983 1.388 . S
C982 C981 1.366 . S
C982 C986 1.385 . S
C983 H958 0.951 . S
C983 C981 1.388 . S
C983 C984 1.366 . S
C984 C983 1.366 . S
C984 C985 1.414 . S
C984 C987 1.499 . S
C985 H959 0.950 . S
C985 C984 1.414 . S
C985 C986 1.374 . S
C986 H960 0.950 . S
C986 C982 1.385 . S
C986 C985 1.374 . S
C987 C984 1.499 . S
C987 C988 1.373 . S
C987 C989 1.389 . S
C988 H961 0.950 . S
C988 C974 1.377 . S
C988 C987 1.373 . S
C989 C973 1.377 . S
C989 C987 1.389 . S
C989 C990 1.524 . S
C990 C989 1.524 . S
C990 C991 1.397 . S
C990 C995 1.363 . S
C991 H962 0.950 . S
C991 C990 1.397 . S
C991 C992 1.334 . S
C992 H963 0.950 . S
C992 C991 1.334 . S
C992 C993 1.287 . S
C993 C992 1.287 . S
C993 C994 1.524 . S
C993 H996 0.999 . S
C994 H964 0.950 . S
C994 C993 1.524 . S
C994 C995 1.415 . S
C995 H965 0.950 . S
C995 C990 1.363 . S
C995 C994 1.415 . S
H996 C993 0.999 . S
H997 C978 0.913 . S
H998 C1016 0.951 . S
H999 C1018 0.951 . S
H1000 C1020 0.950 . S
H1001 C1021 0.950 . S
H1002 C1023 0.950 . S
H1003 C1026 0.950 . S
H1004 C1027 0.950 . S
H1005 C1029 0.950 . S
H1006 C1030 0.950 . S
H1007 C1031 0.951 . S
H1008 C1033 0.951 . S
H1009 C1035 0.950 . S
H1010 C1036 0.950 . S
H1011 C1038 0.950 . S
H1012 C1041 0.950 . S
H1013 C1042 0.950 . S
H1014 C1044 0.950 . S
H1015 C1045 0.950 . S
C1016 H998 0.951 . S
C1016 C1017 1.366 . S
C1016 C1018 1.388 . S
C1017 C1016 1.366 . S
C1017 C1021 1.385 . S
C1018 H999 0.951 . S
C1018 C1016 1.388 . S
C1018 C1019 1.366 . S
C1019 C1018 1.366 . S
C1019 C1020 1.414 . S
C1019 C1022 1.499 . S
C1020 H1000 0.950 . S
C1020 C1019 1.414 . S
C1020 C1021 1.374 . S
C1021 H1001 0.950 . S
C1021 C1017 1.385 . S
C1021 C1020 1.374 . S
C1022 C1019 1.499 . S
C1022 C1023 1.373 . S
C1022 C1024 1.389 . S
C1023 H1002 0.950 . S
C1023 C1022 1.373 . S
C1023 C1039 1.377 . S
C1024 C1022 1.389 . S
C1024 C1025 1.524 . S
C1024 C1038 1.377 . S
C1025 C1024 1.524 . S
C1025 C1026 1.397 . S
C1025 C1030 1.363 . S
C1026 H1003 0.950 . S
C1026 C1025 1.397 . S
C1026 C1027 1.334 . S
C1027 H1004 0.950 . S
C1027 C1026 1.334 . S
C1027 C1028 1.287 . S
C1028 C1027 1.287 . S
C1028 C1029 1.524 . S
C1028 H1047 0.913 . S
C1029 H1005 0.950 . S
C1029 C1028 1.524 . S
C1029 C1030 1.415 . S
C1030 H1006 0.950 . S
C1030 C1025 1.363 . S
C1030 C1029 1.415 . S
C1031 H1007 0.951 . S
C1031 C1032 1.366 . S
C1031 C1033 1.388 . S
C1032 C1031 1.366 . S
C1032 C1036 1.385 . S
C1033 H1008 0.951 . S
C1033 C1031 1.388 . S
C1033 C1034 1.366 . S
C1034 C1033 1.366 . S
C1034 C1035 1.414 . S
C1034 C1037 1.499 . S
C1035 H1009 0.950 . S
C1035 C1034 1.414 . S
C1035 C1036 1.374 . S
C1036 H1010 0.950 . S
C1036 C1032 1.385 . S
C1036 C1035 1.374 . S
C1037 C1034 1.499 . S
C1037 C1038 1.373 . S
C1037 C1039 1.389 . S
C1038 H1011 0.950 . S
C1038 C1024 1.377 . S
C1038 C1037 1.373 . S
C1039 C1023 1.377 . S
C1039 C1037 1.389 . S
C1039 C1040 1.524 . S
C1040 C1039 1.524 . S
C1040 C1041 1.397 . S
C1040 C1045 1.363 . S
C1041 H1012 0.950 . S
C1041 C1040 1.397 . S
C1041 C1042 1.334 . S
C1042 H1013 0.950 . S
C1042 C1041 1.334 . S
C1042 C1043 1.287 . S
C1043 C1042 1.287 . S
C1043 C1044 1.524 . S
C1043 H1046 0.999 . S
C1044 H1014 0.950 . S
C1044 C1043 1.524 . S
C1044 C1045 1.415 . S
C1045 H1015 0.950 . S
C1045 C1040 1.363 . S
C1045 C1044 1.415 . S
H1046 C1043 0.999 . S
H1047 C1028 0.913 . S
H1048 C1066 0.951 . S
H1049 C1068 0.951 . S
H1050 C1070 0.950 . S
H1051 C1071 0.950 . S
H1052 C1073 0.950 . S
H1053 C1076 0.950 . S
H1054 C1077 0.950 . S
H1055 C1079 0.950 . S
H1056 C1080 0.950 . S
H1057 C1081 0.951 . S
H1058 C1083 0.951 . S
H1059 C1085 0.950 . S
H1060 C1086 0.950 . S
H1061 C1088 0.950 . S
H1062 C1091 0.950 . S
H1063 C1092 0.950 . S
H1064 C1094 0.950 . S
H1065 C1095 0.950 . S
C1066 H1048 0.951 . S
C1066 C1067 1.366 . S
C1066 C1068 1.388 . S
C1067 C1066 1.366 . S
C1067 C1071 1.385 . S
C1068 H1049 0.951 . S
C1068 C1066 1.388 . S
C1068 C1069 1.366 . S
C1069 C1068 1.366 . S
C1069 C1070 1.414 . S
C1069 C1072 1.499 . S
C1070 H1050 0.950 . S
C1070 C1069 1.414 . S
C1070 C1071 1.374 . S
C1071 H1051 0.950 . S
C1071 C1067 1.385 . S
C1071 C1070 1.374 . S
C1072 C1069 1.499 . S
C1072 C1073 1.373 . S
C1072 C1074 1.389 . S
C1073 H1052 0.950 . S
C1073 C1072 1.373 . S
C1073 C1089 1.377 . S
C1074 C1072 1.389 . S
C1074 C1075 1.524 . S
C1074 C1088 1.377 . S
C1075 C1074 1.524 . S
C1075 C1076 1.397 . S
C1075 C1080 1.363 . S
C1076 H1053 0.950 . S
C1076 C1075 1.397 . S
C1076 C1077 1.334 . S
C1077 H1054 0.950 . S
C1077 C1076 1.334 . S
C1077 C1078 1.287 . S
C1078 C1077 1.287 . S
C1078 C1079 1.524 . S
C1078 H1097 0.913 . S
C1079 H1055 0.950 . S
C1079 C1078 1.524 . S
C1079 C1080 1.415 . S
C1080 H1056 0.950 . S
C1080 C1075 1.363 . S
C1080 C1079 1.415 . S
C1081 H1057 0.951 . S
C1081 C1082 1.366 . S
C1081 C1083 1.388 . S
C1082 C1081 1.366 . S
C1082 C1086 1.385 . S
C1083 H1058 0.951 . S
C1083 C1081 1.388 . S
C1083 C1084 1.366 . S
C1084 C1083 1.366 . S
C1084 C1085 1.414 . S
C1084 C1087 1.499 . S
C1085 H1059 0.950 . S
C1085 C1084 1.414 . S
C1085 C1086 1.374 . S
C1086 H1060 0.950 . S
C1086 C1082 1.385 . S
C1086 C1085 1.374 . S
C1087 C1084 1.499 . S
C1087 C1088 1.373 . S
C1087 C1089 1.389 . S
C1088 H1061 0.950 . S
C1088 C1074 1.377 . S
C1088 C1087 1.373 . S
C1089 C1073 1.377 . S
C1089 C1087 1.389 . S
C1089 C1090 1.524 . S
C1090 C1089 1.524 . S
C1090 C1091 1.397 . S
C1090 C1095 1.363 . S
C1091 H1062 0.950 . S
C1091 C1090 1.397 . S
C1091 C1092 1.334 . S
C1092 H1063 0.950 . S
C1092 C1091 1.334 . S
C1092 C1093 1.287 . S
C1093 C1092 1.287 . S
C1093 C1094 1.524 . S
C1093 H1096 0.999 . S
C1094 H1064 0.950 . S
C1094 C1093 1.524 . S
C1094 C1095 1.415 . S
C1095 H1065 0.950 . S
C1095 C1090 1.363 . S
C1095 C1094 1.415 . S
H1096 C1093 0.999 . S
H1097 C1078 0.913 . S
H1098 C1116 0.951 . S
H1099 C1118 0.951 . S
H1100 C1120 0.950 . S
H1101 C1121 0.950 . S
H1102 C1123 0.950 . S
H1103 C1126 0.950 . S
H1104 C1127 0.950 . S
H1105 C1129 0.950 . S
H1106 C1130 0.950 . S
H1107 C1131 0.951 . S
H1108 C1133 0.951 . S
H1109 C1135 0.950 . S
H1110 C1136 0.950 . S
H1111 C1138 0.950 . S
H1112 C1141 0.950 . S
H1113 C1142 0.950 . S
H1114 C1144 0.950 . S
H1115 C1145 0.950 . S
C1116 H1098 0.951 . S
C1116 C1117 1.366 . S
C1116 C1118 1.388 . S
C1117 C1116 1.366 . S
C1117 C1121 1.385 . S
C1118 H1099 0.951 . S
C1118 C1116 1.388 . S
C1118 C1119 1.366 . S
C1119 C1118 1.366 . S
C1119 C1120 1.414 . S
C1119 C1122 1.499 . S
C1120 H1100 0.950 . S
C1120 C1119 1.414 . S
C1120 C1121 1.374 . S
C1121 H1101 0.950 . S
C1121 C1117 1.385 . S
C1121 C1120 1.374 . S
C1122 C1119 1.499 . S
C1122 C1123 1.373 . S
C1122 C1124 1.389 . S
C1123 H1102 0.950 . S
C1123 C1122 1.373 . S
C1123 C1139 1.377 . S
C1124 C1122 1.389 . S
C1124 C1125 1.524 . S
C1124 C1138 1.377 . S
C1125 C1124 1.524 . S
C1125 C1126 1.397 . S
C1125 C1130 1.363 . S
C1126 H1103 0.950 . S
C1126 C1125 1.397 . S
C1126 C1127 1.334 . S
C1127 H1104 0.950 . S
C1127 C1126 1.334 . S
C1127 C1128 1.287 . S
C1128 C1127 1.287 . S
C1128 C1129 1.524 . S
C1128 H1147 0.913 . S
C1129 H1105 0.950 . S
C1129 C1128 1.524 . S
C1129 C1130 1.415 . S
C1130 H1106 0.950 . S
C1130 C1125 1.363 . S
C1130 C1129 1.415 . S
C1131 H1107 0.951 . S
C1131 C1132 1.366 . S
C1131 C1133 1.388 . S
C1132 C1131 1.366 . S
C1132 C1136 1.385 . S
C1133 H1108 0.951 . S
C1133 C1131 1.388 . S
C1133 C1134 1.366 . S
C1134 C1133 1.366 . S
C1134 C1135 1.414 . S
C1134 C1137 1.499 . S
C1135 H1109 0.950 . S
C1135 C1134 1.414 . S
C1135 C1136 1.374 . S
C1136 H1110 0.950 . S
C1136 C1132 1.385 . S
C1136 C1135 1.374 . S
C1137 C1134 1.499 . S
C1137 C1138 1.373 . S
C1137 C1139 1.389 . S
C1138 H1111 0.950 . S
C1138 C1124 1.377 . S
C1138 C1137 1.373 . S
C1139 C1123 1.377 . S
C1139 C1137 1.389 . S
C1139 C1140 1.524 . S
C1140 C1139 1.524 . S
C1140 C1141 1.397 . S
C1140 C1145 1.363 . S
C1141 H1112 0.950 . S
C1141 C1140 1.397 . S
C1141 C1142 1.334 . S
C1142 H1113 0.950 . S
C1142 C1141 1.334 . S
C1142 C1143 1.287 . S
C1143 C1142 1.287 . S
C1143 C1144 1.524 . S
C1143 H1146 0.999 . S
C1144 H1114 0.950 . S
C1144 C1143 1.524 . S
C1144 C1145 1.415 . S
C1145 H1115 0.950 . S
C1145 C1140 1.363 . S
C1145 C1144 1.415 . S
H1146 C1143 0.999 . S
H1147 C1128 0.913 . S
H1148 C1166 0.951 . S
H1149 C1168 0.951 . S
H1150 C1170 0.950 . S
H1151 C1171 0.950 . S
H1152 C1173 0.950 . S
H1153 C1176 0.950 . S
H1154 C1177 0.950 . S
H1155 C1179 0.950 . S
H1156 C1180 0.950 . S
H1157 C1181 0.951 . S
H1158 C1183 0.951 . S
H1159 C1185 0.950 . S
H1160 C1186 0.950 . S
H1161 C1188 0.950 . S
H1162 C1191 0.950 . S
H1163 C1192 0.950 . S
H1164 C1194 0.950 . S
H1165 C1195 0.950 . S
C1166 H1148 0.951 . S
C1166 C1167 1.366 . S
C1166 C1168 1.388 . S
C1167 C1166 1.366 . S
C1167 C1171 1.385 . S
C1168 H1149 0.951 . S
C1168 C1166 1.388 . S
C1168 C1169 1.366 . S
C1169 C1168 1.366 . S
C1169 C1170 1.414 . S
C1169 C1172 1.499 . S
C1170 H1150 0.950 . S
C1170 C1169 1.414 . S
C1170 C1171 1.374 . S
C1171 H1151 0.950 . S
C1171 C1167 1.385 . S
C1171 C1170 1.374 . S
C1172 C1169 1.499 . S
C1172 C1173 1.373 . S
C1172 C1174 1.389 . S
C1173 H1152 0.950 . S
C1173 C1172 1.373 . S
C1173 C1189 1.377 . S
C1174 C1172 1.389 . S
C1174 C1175 1.524 . S
C1174 C1188 1.377 . S
C1175 C1174 1.524 . S
C1175 C1176 1.397 . S
C1175 C1180 1.363 . S
C1176 H1153 0.950 . S
C1176 C1175 1.397 . S
C1176 C1177 1.334 . S
C1177 H1154 0.950 . S
C1177 C1176 1.334 . S
C1177 C1178 1.287 . S
C1178 C1177 1.287 . S
C1178 C1179 1.524 . S
C1178 H1197 0.913 . S
C1179 H1155 0.950 . S
C1179 C1178 1.524 . S
C1179 C1180 1.415 . S
C1180 H1156 0.950 . S
C1180 C1175 1.363 . S
C1180 C1179 1.415 . S
C1181 H1157 0.951 . S
C1181 C1182 1.366 . S
C1181 C1183 1.388 . S
C1182 C1181 1.366 . S
C1182 C1186 1.385 . S
C1183 H1158 0.951 . S
C1183 C1181 1.388 . S
C1183 C1184 1.366 . S
C1184 C1183 1.366 . S
C1184 C1185 1.414 . S
C1184 C1187 1.499 . S
C1185 H1159 0.950 . S
C1185 C1184 1.414 . S
C1185 C1186 1.374 . S
C1186 H1160 0.950 . S
C1186 C1182 1.385 . S
C1186 C1185 1.374 . S
C1187 C1184 1.499 . S
C1187 C1188 1.373 . S
C1187 C1189 1.389 . S
C1188 H1161 0.950 . S
C1188 C1174 1.377 . S
C1188 C1187 1.373 . S
C1189 C1173 1.377 . S
C1189 C1187 1.389 . S
C1189 C1190 1.524 . S
C1190 C1189 1.524 . S
C1190 C1191 1.397 . S
C1190 C1195 1.363 . S
C1191 H1162 0.950 . S
C1191 C1190 1.397 . S
C1191 C1192 1.334 . S
C1192 H1163 0.950 . S
C1192 C1191 1.334 . S
C1192 C1193 1.287 . S
C1193 C1192 1.287 . S
C1193 C1194 1.524 . S
C1193 H1196 0.999 . S
C1194 H1164 0.950 . S
C1194 C1193 1.524 . S
C1194 C1195 1.415 . S
C1195 H1165 0.950 . S
C1195 C1190 1.363 . S
C1195 C1194 1.415 . S
H1196 C1193 0.999 . S
H1197 C1178 0.913 . S
H1198 C1216 0.951 . S
H1199 C1218 0.951 . S
H1200 C1220 0.950 . S
H1201 C1221 0.950 . S
H1202 C1223 0.950 . S
H1203 C1226 0.950 . S
H1204 C1227 0.950 . S
H1205 C1229 0.950 . S
H1206 C1230 0.950 . S
H1207 C1231 0.951 . S
H1208 C1233 0.951 . S
H1209 C1235 0.950 . S
H1210 C1236 0.950 . S
H1211 C1238 0.950 . S
H1212 C1241 0.950 . S
H1213 C1242 0.950 . S
H1214 C1244 0.950 . S
H1215 C1245 0.950 . S
C1216 H1198 0.951 . S
C1216 C1217 1.366 . S
C1216 C1218 1.388 . S
C1217 C1216 1.366 . S
C1217 C1221 1.385 . S
C1218 H1199 0.951 . S
C1218 C1216 1.388 . S
C1218 C1219 1.366 . S
C1219 C1218 1.366 . S
C1219 C1220 1.414 . S
C1219 C1222 1.499 . S
C1220 H1200 0.950 . S
C1220 C1219 1.414 . S
C1220 C1221 1.374 . S
C1221 H1201 0.950 . S
C1221 C1217 1.385 . S
C1221 C1220 1.374 . S
C1222 C1219 1.499 . S
C1222 C1223 1.373 . S
C1222 C1224 1.389 . S
C1223 H1202 0.950 . S
C1223 C1222 1.373 . S
C1223 C1239 1.377 . S
C1224 C1222 1.389 . S
C1224 C1225 1.524 . S
C1224 C1238 1.377 . S
C1225 C1224 1.524 . S
C1225 C1226 1.397 . S
C1225 C1230 1.363 . S
C1226 H1203 0.950 . S
C1226 C1225 1.397 . S
C1226 C1227 1.334 . S
C1227 H1204 0.950 . S
C1227 C1226 1.334 . S
C1227 C1228 1.287 . S
C1228 C1227 1.287 . S
C1228 C1229 1.524 . S
C1228 H1247 0.913 . S
C1229 H1205 0.950 . S
C1229 C1228 1.524 . S
C1229 C1230 1.415 . S
C1230 H1206 0.950 . S
C1230 C1225 1.363 . S
C1230 C1229 1.415 . S
C1231 H1207 0.951 . S
C1231 C1232 1.366 . S
C1231 C1233 1.388 . S
C1232 C1231 1.366 . S
C1232 C1236 1.385 . S
C1233 H1208 0.951 . S
C1233 C1231 1.388 . S
C1233 C1234 1.366 . S
C1234 C1233 1.366 . S
C1234 C1235 1.414 . S
C1234 C1237 1.499 . S
C1235 H1209 0.950 . S
C1235 C1234 1.414 . S
C1235 C1236 1.374 . S
C1236 H1210 0.950 . S
C1236 C1232 1.385 . S
C1236 C1235 1.374 . S
C1237 C1234 1.499 . S
C1237 C1238 1.373 . S
C1237 C1239 1.389 . S
C1238 H1211 0.950 . S
C1238 C1224 1.377 . S
C1238 C1237 1.373 . S
C1239 C1223 1.377 . S
C1239 C1237 1.389 . S
C1239 C1240 1.524 . S
C1240 C1239 1.524 . S
C1240 C1241 1.397 . S
C1240 C1245 1.363 . S
C1241 H1212 0.950 . S
C1241 C1240 1.397 . S
C1241 C1242 1.334 . S
C1242 H1213 0.950 . S
C1242 C1241 1.334 . S
C1242 C1243 1.287 . S
C1243 C1242 1.287 . S
C1243 C1244 1.524 . S
C1243 H1246 0.999 . S
C1244 H1214 0.950 . S
C1244 C1243 1.524 . S
C1244 C1245 1.415 . S
C1245 H1215 0.950 . S
C1245 C1240 1.363 . S
C1245 C1244 1.415 . S
H1246 C1243 0.999 . S
H1247 C1228 0.913 . S
H1248 C1266 0.951 . S
H1249 C1268 0.951 . S
H1250 C1270 0.950 . S
H1251 C1271 0.950 . S
H1252 C1273 0.950 . S
H1253 C1276 0.950 . S
H1254 C1277 0.950 . S
H1255 C1279 0.950 . S
H1256 C1280 0.950 . S
H1257 C1281 0.951 . S
H1258 C1283 0.951 . S
H1259 C1285 0.950 . S
H1260 C1286 0.950 . S
H1261 C1288 0.950 . S
H1262 C1291 0.950 . S
H1263 C1292 0.950 . S
H1264 C1294 0.950 . S
H1265 C1295 0.950 . S
C1266 H1248 0.951 . S
C1266 C1267 1.366 . S
C1266 C1268 1.388 . S
C1267 C1266 1.366 . S
C1267 C1271 1.385 . S
C1268 H1249 0.951 . S
C1268 C1266 1.388 . S
C1268 C1269 1.366 . S
C1269 C1268 1.366 . S
C1269 C1270 1.414 . S
C1269 C1272 1.499 . S
C1270 H1250 0.950 . S
C1270 C1269 1.414 . S
C1270 C1271 1.374 . S
C1271 H1251 0.950 . S
C1271 C1267 1.385 . S
C1271 C1270 1.374 . S
C1272 C1269 1.499 . S
C1272 C1273 1.373 . S
C1272 C1274 1.389 . S
C1273 H1252 0.950 . S
C1273 C1272 1.373 . S
C1273 C1289 1.377 . S
C1274 C1272 1.389 . S
C1274 C1275 1.524 . S
C1274 C1288 1.377 . S
C1275 C1274 1.524 . S
C1275 C1276 1.397 . S
C1275 C1280 1.363 . S
C1276 H1253 0.950 . S
C1276 C1275 1.397 . S
C1276 C1277 1.334 . S
C1277 H1254 0.950 . S
C1277 C1276 1.334 . S
C1277 C1278 1.287 . S
C1278 C1277 1.287 . S
C1278 C1279 1.524 . S
C1278 H1297 0.913 . S
C1279 H1255 0.950 . S
C1279 C1278 1.524 . S
C1279 C1280 1.415 . S
C1280 H1256 0.950 . S
C1280 C1275 1.363 . S
C1280 C1279 1.415 . S
C1281 H1257 0.951 . S
C1281 C1282 1.366 . S
C1281 C1283 1.388 . S
C1282 C1281 1.366 . S
C1282 C1286 1.385 . S
C1283 H1258 0.951 . S
C1283 C1281 1.388 . S
C1283 C1284 1.366 . S
C1284 C1283 1.366 . S
C1284 C1285 1.414 . S
C1284 C1287 1.499 . S
C1285 H1259 0.950 . S
C1285 C1284 1.414 . S
C1285 C1286 1.374 . S
C1286 H1260 0.950 . S
C1286 C1282 1.385 . S
C1286 C1285 1.374 . S
C1287 C1284 1.499 . S
C1287 C1288 1.373 . S
C1287 C1289 1.389 . S
C1288 H1261 0.950 . S
C1288 C1274 1.377 . S
C1288 C1287 1.373 . S
C1289 C1273 1.377 . S
C1289 C1287 1.389 . S
C1289 C1290 1.524 . S
C1290 C1289 1.524 . S
C1290 C1291 1.397 . S
C1290 C1295 1.363 . S
C1291 H1262 0.950 . S
C1291 C1290 1.397 . S
C1291 C1292 1.334 . S
C1292 H1263 0.950 . S
C1292 C1291 1.334 . S
C1292 C1293 1.287 . S
C1293 C1292 1.287 . S
C1293 C1294 1.524 . S
C1293 H1296 0.999 . S
C1294 H1264 0.950 . S
C1294 C1293 1.524 . S
C1294 C1295 1.415 . S
C1295 H1265 0.950 . S
C1295 C1290 1.363 . S
C1295 C1294 1.415 . S
H1296 C1293 0.999 . S
H1297 C1278 0.913 . S
H1298 C1316 0.951 . S
H1299 C1318 0.951 . S
H1300 C1320 0.950 . S
H1301 C1321 0.950 . S
H1302 C1323 0.950 . S
H1303 C1326 0.950 . S
H1304 C1327 0.950 . S
H1305 C1329 0.950 . S
H1306 C1330 0.950 . S
H1307 C1331 0.951 1_455 S
H1308 C1333 0.951 . S
H1309 C1335 0.950 . S
H1310 C1336 0.950 . S
H1311 C1338 0.950 . S
H1312 C1341 0.950 . S
H1313 C1342 0.950 . S
H1314 C1344 0.950 . S
H1315 C1345 0.950 . S
C1316 H1298 0.951 . S
C1316 C1317 1.366 . S
C1316 C1318 1.388 . S
C1317 C1316 1.366 . S
C1317 C1321 1.385 . S
C1318 H1299 0.951 . S
C1318 C1316 1.388 . S
C1318 C1319 1.366 . S
C1319 C1318 1.366 . S
C1319 C1320 1.414 . S
C1319 C1322 1.499 . S
C1320 H1300 0.950 . S
C1320 C1319 1.414 . S
C1320 C1321 1.374 . S
C1321 H1301 0.950 . S
C1321 C1317 1.385 . S
C1321 C1320 1.374 . S
C1322 C1319 1.499 . S
C1322 C1323 1.373 . S
C1322 C1324 1.389 . S
C1323 H1302 0.950 . S
C1323 C1322 1.373 . S
C1323 C1339 1.377 . S
C1324 C1322 1.389 . S
C1324 C1325 1.524 . S
C1324 C1338 1.377 . S
C1325 C1324 1.524 . S
C1325 C1326 1.397 . S
C1325 C1330 1.363 . S
C1326 H1303 0.950 . S
C1326 C1325 1.397 . S
C1326 C1327 1.334 . S
C1327 H1304 0.950 . S
C1327 C1326 1.334 . S
C1327 C1328 1.287 . S
C1328 C1327 1.287 . S
C1328 C1329 1.524 . S
C1328 H1347 0.913 . S
C1329 H1305 0.950 . S
C1329 C1328 1.524 . S
C1329 C1330 1.415 . S
C1330 H1306 0.950 . S
C1330 C1325 1.363 . S
C1330 C1329 1.415 . S
C1331 H1307 0.951 1_655 S
C1331 C1332 1.366 . S
C1331 C1333 1.388 . S
C1332 C1331 1.366 . S
C1332 C1336 1.385 . S
C1333 H1308 0.951 . S
C1333 C1331 1.388 . S
C1333 C1334 1.366 . S
C1334 C1333 1.366 . S
C1334 C1335 1.414 . S
C1334 C1337 1.499 . S
C1335 H1309 0.950 . S
C1335 C1334 1.414 . S
C1335 C1336 1.374 . S
C1336 H1310 0.950 . S
C1336 C1332 1.385 . S
C1336 C1335 1.374 . S
C1337 C1334 1.499 . S
C1337 C1338 1.373 . S
C1337 C1339 1.389 . S
C1338 H1311 0.950 . S
C1338 C1324 1.377 . S
C1338 C1337 1.373 . S
C1339 C1323 1.377 . S
C1339 C1337 1.389 . S
C1339 C1340 1.524 . S
C1340 C1339 1.524 . S
C1340 C1341 1.397 . S
C1340 C1345 1.363 . S
C1341 H1312 0.950 . S
C1341 C1340 1.397 . S
C1341 C1342 1.334 . S
C1342 H1313 0.950 . S
C1342 C1341 1.334 . S
C1342 C1343 1.287 . S
C1343 C1342 1.287 . S
C1343 C1344 1.524 . S
C1343 H1346 0.999 . S
C1344 H1314 0.950 . S
C1344 C1343 1.524 . S
C1344 C1345 1.415 . S
C1345 H1315 0.950 . S
C1345 C1340 1.363 . S
C1345 C1344 1.415 . S
H1346 C1343 0.999 . S
H1347 C1328 0.913 . S
H1348 C1366 0.951 . S
H1349 C1368 0.951 . S
H1350 C1370 0.950 . S
H1351 C1371 0.950 . S
H1352 C1373 0.950 . S
H1353 C1376 0.950 . S
H1354 C1377 0.950 . S
H1355 C1379 0.950 . S
H1356 C1380 0.950 . S
H1357 C1381 0.951 . S
H1358 C1383 0.951 . S
H1359 C1385 0.950 . S
H1360 C1386 0.950 . S
H1361 C1388 0.950 . S
H1362 C1391 0.950 . S
H1363 C1392 0.950 . S
H1364 C1394 0.950 . S
H1365 C1395 0.950 . S
C1366 H1348 0.951 . S
C1366 C1367 1.366 . S
C1366 C1368 1.388 . S
C1367 C1366 1.366 . S
C1367 C1371 1.385 . S
C1368 H1349 0.951 . S
C1368 C1366 1.388 . S
C1368 C1369 1.366 . S
C1369 C1368 1.366 . S
C1369 C1370 1.414 . S
C1369 C1372 1.499 . S
C1370 H1350 0.950 . S
C1370 C1369 1.414 . S
C1370 C1371 1.374 . S
C1371 H1351 0.950 . S
C1371 C1367 1.385 . S
C1371 C1370 1.374 . S
C1372 C1369 1.499 . S
C1372 C1373 1.373 . S
C1372 C1374 1.389 . S
C1373 H1352 0.950 . S
C1373 C1372 1.373 . S
C1373 C1389 1.377 . S
C1374 C1372 1.389 . S
C1374 C1375 1.524 . S
C1374 C1388 1.377 . S
C1375 C1374 1.524 . S
C1375 C1376 1.397 . S
C1375 C1380 1.363 . S
C1376 H1353 0.950 . S
C1376 C1375 1.397 . S
C1376 C1377 1.334 . S
C1377 H1354 0.950 . S
C1377 C1376 1.334 . S
C1377 C1378 1.287 . S
C1378 C1377 1.287 . S
C1378 C1379 1.524 . S
C1378 H1397 0.913 . S
C1379 H1355 0.950 . S
C1379 C1378 1.524 . S
C1379 C1380 1.415 . S
C1380 H1356 0.950 . S
C1380 C1375 1.363 . S
C1380 C1379 1.415 . S
C1381 H1357 0.951 . S
C1381 C1382 1.366 . S
C1381 C1383 1.388 . S
C1382 C1381 1.366 . S
C1382 C1386 1.385 . S
C1383 H1358 0.951 . S
C1383 C1381 1.388 . S
C1383 C1384 1.366 . S
C1384 C1383 1.366 . S
C1384 C1385 1.414 . S
C1384 C1387 1.499 . S
C1385 H1359 0.950 . S
C1385 C1384 1.414 . S
C1385 C1386 1.374 . S
C1386 H1360 0.950 . S
C1386 C1382 1.385 . S
C1386 C1385 1.374 . S
C1387 C1384 1.499 . S
C1387 C1388 1.373 . S
C1387 C1389 1.389 . S
C1388 H1361 0.950 . S
C1388 C1374 1.377 . S
C1388 C1387 1.373 . S
C1389 C1373 1.377 . S
C1389 C1387 1.389 . S
C1389 C1390 1.524 . S
C1390 C1389 1.524 . S
C1390 C1391 1.397 . S
C1390 C1395 1.363 . S
C1391 H1362 0.950 . S
C1391 C1390 1.397 . S
C1391 C1392 1.334 . S
C1392 H1363 0.950 . S
C1392 C1391 1.334 . S
C1392 C1393 1.287 . S
C1393 C1392 1.287 . S
C1393 C1394 1.524 . S
C1393 H1396 0.999 . S
C1394 H1364 0.950 . S
C1394 C1393 1.524 . S
C1394 C1395 1.415 . S
C1395 H1365 0.950 . S
C1395 C1390 1.363 . S
C1395 C1394 1.415 . S
H1396 C1393 0.999 . S
H1397 C1378 0.913 . S
H1398 C1416 0.951 . S
H1399 C1418 0.951 . S
H1400 C1420 0.950 . S
H1401 C1421 0.950 . S
H1402 C1423 0.950 . S
H1403 C1426 0.950 . S
H1404 C1427 0.950 . S
H1405 C1429 0.950 . S
H1406 C1430 0.950 . S
H1407 C1431 0.951 . S
H1408 C1433 0.951 . S
H1409 C1435 0.950 . S
H1410 C1436 0.950 . S
H1411 C1438 0.950 . S
H1412 C1441 0.950 . S
H1413 C1442 0.950 . S
H1414 C1444 0.950 . S
H1415 C1445 0.950 . S
C1416 H1398 0.951 . S
C1416 C1417 1.366 . S
C1416 C1418 1.388 . S
C1417 C1416 1.366 . S
C1417 C1421 1.385 . S
C1418 H1399 0.951 . S
C1418 C1416 1.388 . S
C1418 C1419 1.366 . S
C1419 C1418 1.366 . S
C1419 C1420 1.414 . S
C1419 C1422 1.499 . S
C1420 H1400 0.950 . S
C1420 C1419 1.414 . S
C1420 C1421 1.374 . S
C1421 H1401 0.950 . S
C1421 C1417 1.385 . S
C1421 C1420 1.374 . S
C1422 C1419 1.499 . S
C1422 C1423 1.373 . S
C1422 C1424 1.389 . S
C1423 H1402 0.950 . S
C1423 C1422 1.373 . S
C1423 C1439 1.377 . S
C1424 C1422 1.389 . S
C1424 C1425 1.524 . S
C1424 C1438 1.377 . S
C1425 C1424 1.524 . S
C1425 C1426 1.397 . S
C1425 C1430 1.363 . S
C1426 H1403 0.950 . S
C1426 C1425 1.397 . S
C1426 C1427 1.334 . S
C1427 H1404 0.950 . S
C1427 C1426 1.334 . S
C1427 C1428 1.287 . S
C1428 C1427 1.287 . S
C1428 C1429 1.524 . S
C1428 H1447 0.913 . S
C1429 H1405 0.950 . S
C1429 C1428 1.524 . S
C1429 C1430 1.415 . S
C1430 H1406 0.950 . S
C1430 C1425 1.363 . S
C1430 C1429 1.415 . S
C1431 H1407 0.951 . S
C1431 C1432 1.366 . S
C1431 C1433 1.388 . S
C1432 C1431 1.366 . S
C1432 C1436 1.385 . S
C1433 H1408 0.951 . S
C1433 C1431 1.388 . S
C1433 C1434 1.366 . S
C1434 C1433 1.366 . S
C1434 C1435 1.414 . S
C1434 C1437 1.499 . S
C1435 H1409 0.950 . S
C1435 C1434 1.414 . S
C1435 C1436 1.374 . S
C1436 H1410 0.950 . S
C1436 C1432 1.385 . S
C1436 C1435 1.374 . S
C1437 C1434 1.499 . S
C1437 C1438 1.373 . S
C1437 C1439 1.389 . S
C1438 H1411 0.950 . S
C1438 C1424 1.377 . S
C1438 C1437 1.373 . S
C1439 C1423 1.377 . S
C1439 C1437 1.389 . S
C1439 C1440 1.524 . S
C1440 C1439 1.524 . S
C1440 C1441 1.397 . S
C1440 C1445 1.363 . S
C1441 H1412 0.950 . S
C1441 C1440 1.397 . S
C1441 C1442 1.334 . S
C1442 H1413 0.950 . S
C1442 C1441 1.334 . S
C1442 C1443 1.287 . S
C1443 C1442 1.287 . S
C1443 C1444 1.524 . S
C1443 H1446 0.999 . S
C1444 H1414 0.950 . S
C1444 C1443 1.524 . S
C1444 C1445 1.415 . S
C1445 H1415 0.950 . S
C1445 C1440 1.363 . S
C1445 C1444 1.415 . S
H1446 C1443 0.999 . S
H1447 C1428 0.913 . S
H1448 C1466 0.951 . S
H1449 C1468 0.951 . S
H1450 C1470 0.950 . S
H1451 C1471 0.950 . S
H1452 C1473 0.950 . S
H1453 C1476 0.950 . S
H1454 C1477 0.950 . S
H1455 C1479 0.950 . S
H1456 C1480 0.950 . S
H1457 C1481 0.951 . S
H1458 C1483 0.951 . S
H1459 C1485 0.950 . S
H1460 C1486 0.950 . S
H1461 C1488 0.950 . S
H1462 C1491 0.950 . S
H1463 C1492 0.963 . S
H1464 C1494 0.950 1_554 S
H1465 C1495 0.950 . S
C1466 H1448 0.951 . S
C1466 C1467 1.366 . S
C1466 C1468 1.388 . S
C1467 C1466 1.366 . S
C1467 C1471 1.385 . S
C1468 H1449 0.951 . S
C1468 C1466 1.388 . S
C1468 C1469 1.366 . S
C1469 C1468 1.366 . S
C1469 C1470 1.414 . S
C1469 C1472 1.499 . S
C1470 H1450 0.950 . S
C1470 C1469 1.414 . S
C1470 C1471 1.374 . S
C1471 H1451 0.950 . S
C1471 C1467 1.385 . S
C1471 C1470 1.374 . S
C1472 C1469 1.499 . S
C1472 C1473 1.373 . S
C1472 C1474 1.389 . S
C1473 H1452 0.950 . S
C1473 C1472 1.373 . S
C1473 C1489 1.377 . S
C1474 C1472 1.389 . S
C1474 C1475 1.524 . S
C1474 C1488 1.377 . S
C1475 C1474 1.524 . S
C1475 C1476 1.397 . S
C1475 C1480 1.363 . S
C1476 H1453 0.950 . S
C1476 C1475 1.397 . S
C1476 C1477 1.334 . S
C1477 H1454 0.950 . S
C1477 C1476 1.334 . S
C1477 C1478 1.287 . S
C1478 C1477 1.287 . S
C1478 C1479 1.524 . S
C1478 H1497 0.913 . S
C1479 H1455 0.950 . S
C1479 C1478 1.524 . S
C1479 C1480 1.415 . S
C1480 H1456 0.950 . S
C1480 C1475 1.363 . S
C1480 C1479 1.415 . S
C1481 H1457 0.951 . S
C1481 C1482 1.366 . S
C1481 C1483 1.388 . S
C1482 C1481 1.366 . S
C1482 C1486 1.385 . S
C1483 H1458 0.951 . S
C1483 C1481 1.388 . S
C1483 C1484 1.366 . S
C1484 C1483 1.366 . S
C1484 C1485 1.414 . S
C1484 C1487 1.499 . S
C1485 H1459 0.950 . S
C1485 C1484 1.414 . S
C1485 C1486 1.374 . S
C1486 H1460 0.950 . S
C1486 C1482 1.385 . S
C1486 C1485 1.374 . S
C1487 C1484 1.499 . S
C1487 C1488 1.373 . S
C1487 C1489 1.389 . S
C1488 H1461 0.950 . S
C1488 C1474 1.377 . S
C1488 C1487 1.373 . S
C1489 C1473 1.377 . S
C1489 C1487 1.389 . S
C1489 C1490 1.524 . S
C1490 C1489 1.524 . S
C1490 C1491 1.397 . S
C1490 C1495 1.363 . S
C1491 H1462 0.950 . S
C1491 C1490 1.397 . S
C1491 C1492 1.334 . S
C1492 H1463 0.963 . S
C1492 C1491 1.334 . S
C1492 C1493 1.287 1_556 S
C1493 C1492 1.287 1_554 S
C1493 C1494 1.524 1_554 S
C1493 H1496 0.999 . S
C1494 H1464 0.950 1_556 S
C1494 C1493 1.524 1_556 S
C1494 C1495 1.415 . S
C1495 H1465 0.950 . S
C1495 C1490 1.363 . S
C1495 C1494 1.415 . S
H1496 C1493 0.999 . S
H1497 C1478 0.913 . S
H1498 C1516 0.951 . S
H1499 C1518 0.951 . S
H1500 C1520 0.950 . S
H1501 C1521 0.950 . S
H1502 C1523 0.950 . S
H1503 C1526 0.950 . S
H1504 C1527 0.950 . S
H1505 C1529 0.950 . S
H1506 C1530 0.950 . S
H1507 C1531 0.951 . S
H1508 C1533 0.951 . S
H1509 C1535 0.950 . S
H1510 C1536 0.950 . S
H1511 C1538 0.950 . S
H1512 C1541 0.950 . S
H1513 C1542 0.950 . S
H1514 C1544 0.950 . S
H1515 C1545 0.950 . S
C1516 H1498 0.951 . S
C1516 C1517 1.366 . S
C1516 C1518 1.388 . S
C1517 C1516 1.366 . S
C1517 C1521 1.385 . S
C1518 H1499 0.951 . S
C1518 C1516 1.388 . S
C1518 C1519 1.366 . S
C1519 C1518 1.366 . S
C1519 C1520 1.414 . S
C1519 C1522 1.499 . S
C1520 H1500 0.950 . S
C1520 C1519 1.414 . S
C1520 C1521 1.374 . S
C1521 H1501 0.950 . S
C1521 C1517 1.385 . S
C1521 C1520 1.374 . S
C1522 C1519 1.499 . S
C1522 C1523 1.373 . S
C1522 C1524 1.389 . S
C1523 H1502 0.950 . S
C1523 C1522 1.373 . S
C1523 C1539 1.377 . S
C1524 C1522 1.389 . S
C1524 C1525 1.524 . S
C1524 C1538 1.377 . S
C1525 C1524 1.524 . S
C1525 C1526 1.397 . S
C1525 C1530 1.363 . S
C1526 H1503 0.950 . S
C1526 C1525 1.397 . S
C1526 C1527 1.334 . S
C1527 H1504 0.950 . S
C1527 C1526 1.334 . S
C1527 C1528 1.287 . S
C1528 C1527 1.287 . S
C1528 C1529 1.524 . S
C1528 H1547 0.913 . S
C1529 H1505 0.950 . S
C1529 C1528 1.524 . S
C1529 C1530 1.415 . S
C1530 H1506 0.950 . S
C1530 C1525 1.363 . S
C1530 C1529 1.415 . S
C1531 H1507 0.951 . S
C1531 C1532 1.366 . S
C1531 C1533 1.388 . S
C1532 C1531 1.366 . S
C1532 C1536 1.385 . S
C1533 H1508 0.951 . S
C1533 C1531 1.388 . S
C1533 C1534 1.366 . S
C1534 C1533 1.366 . S
C1534 C1535 1.414 . S
C1534 C1537 1.499 . S
C1535 H1509 0.950 . S
C1535 C1534 1.414 . S
C1535 C1536 1.374 . S
C1536 H1510 0.950 . S
C1536 C1532 1.385 . S
C1536 C1535 1.374 . S
C1537 C1534 1.499 . S
C1537 C1538 1.373 . S
C1537 C1539 1.389 . S
C1538 H1511 0.950 . S
C1538 C1524 1.377 . S
C1538 C1537 1.373 . S
C1539 C1523 1.377 . S
C1539 C1537 1.389 . S
C1539 C1540 1.524 . S
C1540 C1539 1.524 . S
C1540 C1541 1.397 . S
C1540 C1545 1.363 . S
C1541 H1512 0.950 . S
C1541 C1540 1.397 . S
C1541 C1542 1.334 . S
C1542 H1513 0.950 . S
C1542 C1541 1.334 . S
C1542 C1543 1.287 . S
C1543 C1542 1.287 . S
C1543 C1544 1.524 . S
C1543 H1546 0.999 . S
C1544 H1514 0.950 . S
C1544 C1543 1.524 . S
C1544 C1545 1.415 . S
C1545 H1515 0.950 . S
C1545 C1540 1.363 . S
C1545 C1544 1.415 . S
H1546 C1543 0.999 . S
H1547 C1528 0.913 . S
H1548 C1566 0.951 . S
H1549 C1568 0.951 . S
H1550 C1570 0.950 . S
H1551 C1571 0.950 . S
H1552 C1573 0.950 . S
H1553 C1576 0.950 . S
H1554 C1577 0.950 . S
H1555 C1579 0.950 . S
H1556 C1580 0.950 . S
H1557 C1581 0.951 . S
H1558 C1583 0.951 . S
H1559 C1585 0.950 . S
H1560 C1586 0.950 . S
H1561 C1588 0.950 . S
H1562 C1591 0.950 . S
H1563 C1592 0.950 . S
H1564 C1594 0.950 1_655 S
H1565 C1595 0.950 . S
C1566 H1548 0.951 . S
C1566 C1567 1.366 . S
C1566 C1568 1.388 . S
C1567 C1566 1.366 . S
C1567 C1571 1.385 . S
C1568 H1549 0.951 . S
C1568 C1566 1.388 . S
C1568 C1569 1.366 . S
C1569 C1568 1.366 . S
C1569 C1570 1.414 . S
C1569 C1572 1.499 . S
C1570 H1550 0.950 . S
C1570 C1569 1.414 . S
C1570 C1571 1.374 . S
C1571 H1551 0.950 . S
C1571 C1567 1.385 . S
C1571 C1570 1.374 . S
C1572 C1569 1.499 . S
C1572 C1573 1.373 . S
C1572 C1574 1.389 . S
C1573 H1552 0.950 . S
C1573 C1572 1.373 . S
C1573 C1589 1.377 . S
C1574 C1572 1.389 . S
C1574 C1575 1.524 . S
C1574 C1588 1.377 . S
C1575 C1574 1.524 . S
C1575 C1576 1.397 . S
C1575 C1580 1.363 . S
C1576 H1553 0.950 . S
C1576 C1575 1.397 . S
C1576 C1577 1.334 . S
C1577 H1554 0.950 . S
C1577 C1576 1.334 . S
C1577 C1578 1.287 . S
C1578 C1577 1.287 . S
C1578 C1579 1.524 . S
C1578 H1597 0.913 . S
C1579 H1555 0.950 . S
C1579 C1578 1.524 . S
C1579 C1580 1.415 . S
C1580 H1556 0.950 . S
C1580 C1575 1.363 . S
C1580 C1579 1.415 . S
C1581 H1557 0.951 . S
C1581 C1582 1.366 . S
C1581 C1583 1.388 . S
C1582 C1581 1.366 . S
C1582 C1586 1.385 . S
C1583 H1558 0.951 . S
C1583 C1581 1.388 . S
C1583 C1584 1.366 . S
C1584 C1583 1.366 . S
C1584 C1585 1.414 . S
C1584 C1587 1.499 . S
C1585 H1559 0.950 . S
C1585 C1584 1.414 . S
C1585 C1586 1.374 . S
C1586 H1560 0.950 . S
C1586 C1582 1.385 . S
C1586 C1585 1.374 . S
C1587 C1584 1.499 . S
C1587 C1588 1.373 . S
C1587 C1589 1.389 . S
C1588 H1561 0.950 . S
C1588 C1574 1.377 . S
C1588 C1587 1.373 . S
C1589 C1573 1.377 . S
C1589 C1587 1.389 . S
C1589 C1590 1.524 . S
C1590 C1589 1.524 . S
C1590 C1591 1.397 . S
C1590 C1595 1.363 . S
C1591 H1562 0.950 . S
C1591 C1590 1.397 . S
C1591 C1592 1.334 . S
C1592 H1563 0.950 . S
C1592 C1591 1.334 . S
C1592 C1593 1.287 . S
C1593 C1592 1.287 . S
C1593 C1594 1.524 . S
C1593 H1596 0.999 . S
C1594 H1564 0.950 1_455 S
C1594 C1593 1.524 . S
C1594 C1595 1.415 . S
C1595 H1565 0.950 . S
C1595 C1590 1.363 . S
C1595 C1594 1.415 . S
H1596 C1593 0.999 . S
H1597 C1578 0.913 . S
H1598 C1616 0.951 . S
H1599 C1618 0.951 . S
H1600 C1620 0.950 . S
H1601 C1621 0.950 . S
H1602 C1623 0.950 . S
H1603 C1626 0.950 . S
H1604 C1627 0.950 . S
H1605 C1629 0.950 . S
H1606 C1630 0.950 . S
H1607 C1631 0.951 . S
H1608 C1633 0.951 . S
H1609 C1635 0.950 . S
H1610 C1636 0.950 . S
H1611 C1638 0.950 . S
H1612 C1641 0.950 . S
H1613 C1642 0.950 . S
H1614 C1644 0.950 . S
H1615 C1645 0.950 . S
C1616 H1598 0.951 . S
C1616 C1617 1.366 . S
C1616 C1618 1.388 . S
C1617 C1616 1.366 . S
C1617 C1621 1.385 . S
C1618 H1599 0.951 . S
C1618 C1616 1.388 . S
C1618 C1619 1.366 . S
C1619 C1618 1.366 . S
C1619 C1620 1.414 . S
C1619 C1622 1.499 . S
C1620 H1600 0.950 . S
C1620 C1619 1.414 . S
C1620 C1621 1.374 . S
C1621 H1601 0.950 . S
C1621 C1617 1.385 . S
C1621 C1620 1.374 . S
C1622 C1619 1.499 . S
C1622 C1623 1.373 . S
C1622 C1624 1.389 . S
C1623 H1602 0.950 . S
C1623 C1622 1.373 . S
C1623 C1639 1.377 . S
C1624 C1622 1.389 . S
C1624 C1625 1.524 . S
C1624 C1638 1.377 . S
C1625 C1624 1.524 . S
C1625 C1626 1.397 . S
C1625 C1630 1.363 . S
C1626 H1603 0.950 . S
C1626 C1625 1.397 . S
C1626 C1627 1.334 . S
C1627 H1604 0.950 . S
C1627 C1626 1.334 . S
C1627 C1628 1.287 . S
C1628 C1627 1.287 . S
C1628 C1629 1.524 . S
C1628 H1647 0.913 . S
C1629 H1605 0.950 . S
C1629 C1628 1.524 . S
C1629 C1630 1.415 . S
C1630 H1606 0.950 . S
C1630 C1625 1.363 . S
C1630 C1629 1.415 . S
C1631 H1607 0.951 . S
C1631 C1632 1.366 . S
C1631 C1633 1.388 . S
C1632 C1631 1.366 . S
C1632 C1636 1.385 . S
C1633 H1608 0.951 . S
C1633 C1631 1.388 . S
C1633 C1634 1.366 . S
C1634 C1633 1.366 . S
C1634 C1635 1.414 . S
C1634 C1637 1.499 . S
C1635 H1609 0.950 . S
C1635 C1634 1.414 . S
C1635 C1636 1.374 . S
C1636 H1610 0.950 . S
C1636 C1632 1.385 . S
C1636 C1635 1.374 . S
C1637 C1634 1.499 . S
C1637 C1638 1.373 . S
C1637 C1639 1.389 . S
C1638 H1611 0.950 . S
C1638 C1624 1.377 . S
C1638 C1637 1.373 . S
C1639 C1623 1.377 . S
C1639 C1637 1.389 . S
C1639 C1640 1.524 . S
C1640 C1639 1.524 . S
C1640 C1641 1.397 . S
C1640 C1645 1.363 . S
C1641 H1612 0.950 . S
C1641 C1640 1.397 . S
C1641 C1642 1.334 . S
C1642 H1613 0.950 . S
C1642 C1641 1.334 . S
C1642 C1643 1.287 . S
C1643 C1642 1.287 . S
C1643 C1644 1.524 . S
C1643 H1646 0.999 . S
C1644 H1614 0.950 . S
C1644 C1643 1.524 . S
C1644 C1645 1.415 . S
C1645 H1615 0.950 . S
C1645 C1640 1.363 . S
C1645 C1644 1.415 . S
H1646 C1643 0.999 . S
H1647 C1628 0.913 . S
C467 C1 1.322 . S
C482 C303 1.313 . S
C517 C67 1.258 . S
C532 C343 1.258 . S
C582 C377 2.138 . S
C567 C97 2.162 . S
C617 C133 2.646 . S
C632 C418 2.610 . S
C682 C338 1.420 . S
C667 C25 1.417 . S
C732 C298 2.178 . S
C717 C37 2.134 . S
C782 C426 1.448 . S
C767 C103 1.462 . S
C832 C387 1.761 . S
C817 C109 1.801 . S
C867 C31 1.204 . S
C882 C423 1.202 . S
C932 C346 1.907 . S
C917 C73 1.960 . S
C967 C139 2.474 . S
C982 C306 2.423 . S
C1017 C61 1.553 . S
C1032 C374 1.578 . S
C1082 C294 1.317 . S
C1067 C175 1.297 . S
C1117 C181 1.231 . S
C1132 C334 1.239 . S
C1167 C247 2.171 . S
C1182 C386 2.161 . S
C1217 C277 2.631 . S
C1232 C427 2.601 . S
C1267 C145 1.374 . S
C1282 C347 1.407 . S
C1332 C307 2.186 . S
C1317 C211 2.136 . S
C1382 C417 1.435 . S
C1367 C217 1.434 . S
C1432 C378 1.785 . S
C1417 C283 1.810 . S
C1467 C169 1.159 . S
C1482 C414 1.195 . S
C1532 C337 1.918 . S
C1517 C241 1.956 . S
C1582 C297 2.407 . S
C1567 C253 2.473 . S
C1617 C205 1.570 . S
C1632 C383 1.583 . S
