# Generated by pormake.
# Topology anh, (6,3)-cn, num edge types: 1
# Building blocks:
#     Node 0, Type 0, BuildingBlock: MIFKUJ_clean_sbu_0, # of connection points: 6
#     Node 1, Type 0, BuildingBlock: MIFKUJ_clean_sbu_0, # of connection points: 6
#     Node 2, Type 0, BuildingBlock: MIFKUJ_clean_sbu_0, # of connection points: 6
#     Node 3, Type 1, BuildingBlock: PAMTOO_clean_linker_0, # of connection points: 3
#     Node 4, Type 1, BuildingBlock: PAMTOO_clean_linker_0, # of connection points: 3
#     Node 5, Type 1, BuildingBlock: PAMTOO_clean_linker_0, # of connection points: 3
#     Node 6, Type 1, BuildingBlock: PAMTOO_clean_linker_0, # of connection points: 3
#     Node 7, Type 1, BuildingBlock: PAMTOO_clean_linker_0, # of connection points: 3
#     Node 8, Type 1, BuildingBlock: PAMTOO_clean_linker_0, # of connection points: 3
#     Edge 9, Type (0, 1), BuildingBlock: FUNLAD_clean_linker_0, # of connection points: 2
#     Edge 10, Type (0, 1), BuildingBlock: FUNLAD_clean_linker_0, # of connection points: 2
#     Edge 11, Type (0, 1), BuildingBlock: FUNLAD_clean_linker_0, # of connection points: 2
#     Edge 12, Type (0, 1), BuildingBlock: FUNLAD_clean_linker_0, # of connection points: 2
#     Edge 13, Type (0, 1), BuildingBlock: FUNLAD_clean_linker_0, # of connection points: 2
#     Edge 14, Type (0, 1), BuildingBlock: FUNLAD_clean_linker_0, # of connection points: 2
#     Edge 15, Type (0, 1), BuildingBlock: FUNLAD_clean_linker_0, # of connection points: 2
#     Edge 16, Type (0, 1), BuildingBlock: FUNLAD_clean_linker_0, # of connection points: 2
#     Edge 17, Type (0, 1), BuildingBlock: FUNLAD_clean_linker_0, # of connection points: 2
#     Edge 18, Type (0, 1), BuildingBlock: FUNLAD_clean_linker_0, # of connection points: 2
#     Edge 19, Type (0, 1), BuildingBlock: FUNLAD_clean_linker_0, # of connection points: 2
#     Edge 20, Type (0, 1), BuildingBlock: FUNLAD_clean_linker_0, # of connection points: 2
#     Edge 21, Type (0, 1), BuildingBlock: FUNLAD_clean_linker_0, # of connection points: 2
#     Edge 22, Type (0, 1), BuildingBlock: FUNLAD_clean_linker_0, # of connection points: 2
#     Edge 23, Type (0, 1), BuildingBlock: FUNLAD_clean_linker_0, # of connection points: 2
#     Edge 24, Type (0, 1), BuildingBlock: FUNLAD_clean_linker_0, # of connection points: 2
#     Edge 25, Type (0, 1), BuildingBlock: FUNLAD_clean_linker_0, # of connection points: 2
#     Edge 26, Type (0, 1), BuildingBlock: FUNLAD_clean_linker_0, # of connection points: 2
# Relax obj value: 0.083
# Max RMSD: 0.147
# Mean RMSD: 0.110
data_MOF--net-anh--node1-MIFKUJ_clean_sbu_0--node2-PAMTOO_clean_linker_0--edge1-FUNLAD_clean_linker_0
_symmetry_space_group_name_H-M    P1
_symmetry_Int_Tables_number       1
_symmetry_cell_setting            triclinic
loop_
_symmetry_equiv_pos_as_xyz
'x, y, z'
_cell_length_a     36.654305
_cell_length_b     36.918831
_cell_length_c     54.296961
_cell_angle_alpha  89.131563
_cell_angle_beta   93.345772
_cell_angle_gamma 120.74049
loop_
_atom_site_label
_atom_site_type_symbol
_atom_site_fract_x
_atom_site_fract_y
_atom_site_fract_z
_atom_type_partial_charge
Zn0 Zn 0.07568 0.55785 0.16343 0.0
Zn1 Zn 0.95669 0.46274 0.16354 0.0
C2 C 0.14249 0.54082 0.16846 0.0
O3 O 0.14486 0.55727 0.1902 0.0
C4 C 0.88406 0.46745 0.14667 0.0
O5 O 0.87823 0.43539 0.13325 0.0
O6 O 0.11078 0.62088 0.16589 0.0
O7 O 0.02527 0.5407 0.14028 0.0
O8 O 0.98838 0.47313 0.13264 0.0
C9 C 0.13751 0.64152 0.14988 0.0
O10 O 0.14082 0.62114 0.13132 0.0
O11 O 0.11363 0.53667 0.15255 0.0
C12 C 0.91878 0.37571 0.18092 0.0
O13 O 0.94751 0.39149 0.19942 0.0
O14 O 0.91786 0.39998 0.1644 0.0
O15 O 0.99171 0.48183 0.19636 0.0
O16 O 0.05822 0.5364 0.19736 0.0
O17 O 0.91757 0.48669 0.16085 0.0
C18 C 0.01565 0.50982 0.1261 0.0
C19 C 0.02661 0.50752 0.20814 0.0
Zn20 Zn 0.62469 0.0841 0.502 0.0
Zn21 Zn 0.59971 0.97239 0.5016 0.0
C22 C 0.70673 0.1493 0.51632 0.0
O23 O 0.68423 0.1479 0.53468 0.0
C24 C 0.51696 0.9104 0.48068 0.0
O25 O 0.54038 0.90539 0.46522 0.0
O26 O 0.60407 0.1252 0.50181 0.0
O27 O 0.59599 0.04742 0.47151 0.0
O28 O 0.62601 0.00875 0.47232 0.0
C29 C 0.60883 0.14584 0.48211 0.0
O30 O 0.62415 0.13732 0.46319 0.0
O31 O 0.68824 0.12235 0.49875 0.0
C32 C 0.59432 0.89554 0.51459 0.0
O33 O 0.56506 0.89437 0.52803 0.0
O34 O 0.61588 0.92778 0.50163 0.0
O35 O 0.61482 0.99787 0.53579 0.0
O36 O 0.61721 0.05924 0.5359 0.0
O37 O 0.53527 0.93972 0.49696 0.0
C38 C 0.60648 0.02429 0.46051 0.0
C39 C 0.61731 0.02891 0.54724 0.0
Zn40 Zn 0.63344 0.51873 0.83464 0.0
Zn41 Zn 0.54731 0.56332 0.83189 0.0
C42 C 0.6277 0.44258 0.8492 0.0
O43 O 0.65623 0.46869 0.86587 0.0
C44 C 0.55305 0.6418 0.82593 0.0
O45 O 0.51932 0.61801 0.8113 0.0
O46 O 0.69573 0.54885 0.82881 0.0
O47 O 0.60134 0.53348 0.80742 0.0
O48 O 0.55593 0.55451 0.79691 0.0
C49 C 0.70785 0.53396 0.81231 0.0
O50 O 0.67914 0.50112 0.79911 0.0
O51 O 0.61207 0.45682 0.83298 0.0
C52 C 0.47309 0.54826 0.85441 0.0
O53 O 0.50211 0.58044 0.86795 0.0
O54 O 0.48498 0.53247 0.83829 0.0
O55 O 0.58237 0.54564 0.8508 0.0
O56 O 0.62576 0.53083 0.87006 0.0
O57 O 0.57194 0.62519 0.8373 0.0
C58 C 0.58136 0.54266 0.79077 0.0
C59 C 0.59824 0.54161 0.87111 0.0
H60 H 0.60972 0.06334 0.23479 0.0
H61 H 0.47509 0.97421 0.22627 0.0
H62 H 0.54381 0.03935 0.16331 0.0
H63 H 0.45468 0.02227 0.15823 0.0
C64 C 0.44291 4e-05 0.17383 0.0
O65 O 0.46953 0.98437 0.17877 0.0
H66 H 0.44223 0.01763 0.19014 0.0
C67 C 0.58075 0.04607 0.22316 0.0
C68 C 0.58162 0.0543 0.1978 0.0
C69 C 0.54256 0.01739 0.2338 0.0
C70 C 0.50492 0.99677 0.21861 0.0
C71 C 0.50559 0.00491 0.19331 0.0
C72 C 0.54377 0.03353 0.18294 0.0
H73 H 0.65521 0.61216 0.57787 0.0
H74 H 0.66287 0.50308 0.56053 0.0
H75 H 0.67629 0.5907 0.50372 0.0
H76 H 0.64144 0.50486 0.47937 0.0
C77 C 0.637 0.49224 0.49837 0.0
O78 O 0.67237 0.51928 0.51329 0.0
H79 H 0.6076 0.49036 0.50456 0.0
C80 C 0.65992 0.59351 0.56457 0.0
C81 C 0.66604 0.6062 0.53993 0.0
C82 C 0.65883 0.55654 0.57223 0.0
C83 C 0.66475 0.5323 0.55504 0.0
C84 C 0.67102 0.54475 0.53037 0.0
C85 C 0.67263 0.5821 0.52297 0.0
H86 H 0.02092 0.55986 0.90806 0.0
H87 H 0.13553 0.55614 0.90117 0.0
H88 H 0.08598 0.5975 0.84064 0.0
H89 H 0.13158 0.55827 0.82019 0.0
C90 C 0.13897 0.55044 0.83897 0.0
O91 O 0.14524 0.58157 0.85541 0.0
H92 H 0.11146 0.51925 0.84374 0.0
C93 C 0.04707 0.56472 0.89733 0.0
C94 C 0.04977 0.57967 0.8732 0.0
C95 C 0.0781 0.55663 0.90781 0.0
C96 C 0.11176 0.56308 0.89366 0.0
C97 C 0.11426 0.57756 0.86945 0.0
C98 C 0.08391 0.58673 0.85947 0.0
H99 H 0.02717 0.44024 0.43373 0.0
H100 H 0.14458 0.559 0.44229 0.0
H101 H 0.08864 0.4847 0.50593 0.0
H102 H 0.15036 0.58937 0.51749 0.0
C103 C 0.15785 0.59222 0.49776 0.0
O104 O 0.15372 0.55467 0.49002 0.0
H105 H 0.13509 0.59888 0.48708 0.0
C106 C 0.05348 0.46385 0.44538 0.0
C107 C 0.05431 0.45761 0.47091 0.0
C108 C 0.08555 0.50043 0.4348 0.0
C109 C 0.11904 0.531 0.45016 0.0
C110 C 0.12007 0.52559 0.47575 0.0
C111 C 0.08741 0.48909 0.48619 0.0
H112 H 0.62462 0.98376 0.77366 0.0
H113 H 0.62348 0.09874 0.78371 0.0
H114 H 0.61656 0.02361 0.8462 0.0
H115 H 0.5697 0.06689 0.85526 0.0
C116 C 0.57898 0.08573 0.83817 0.0
O117 O 0.61729 0.09151 0.83143 0.0
H118 H 0.5533 0.06799 0.82355 0.0
C119 C 0.6245 0.00687 0.78568 0.0
C120 C 0.62115 -0.00039 0.81114 0.0
C121 C 0.62529 0.04245 0.77543 0.0
C122 C 0.62281 0.07099 0.7911 0.0
C123 C 0.61974 0.06405 0.81651 0.0
C124 C 0.6191 0.02863 0.82651 0.0
H125 H 0.60514 0.53502 0.08728 0.0
H126 H 0.49463 0.54585 0.09463 0.0
H127 H 0.54079 0.50038 0.15492 0.0
H128 H 0.44408 0.46113 0.15508 0.0
C129 C 0.44313 0.48114 0.13986 0.0
O130 O 0.48212 0.51811 0.1397 0.0
H131 H 0.43619 0.46325 0.12217 0.0
C132 C 0.58003 0.53225 0.09822 0.0
C133 C 0.57669 0.51693 0.12223 0.0
C134 C 0.55079 0.54301 0.08802 0.0
C135 C 0.51759 0.53782 0.10216 0.0
C136 C 0.51402 0.52254 0.12624 0.0
C137 C 0.54375 0.51235 0.13635 0.0
C138 C 0.20285 0.53001 0.18133 0.0
C139 C 0.17411 0.52896 0.16264 0.0
C140 C 0.23396 0.52057 0.17603 0.0
C141 C 0.23754 0.51035 0.15175 0.0
C142 C 0.20803 0.50819 0.13319 0.0
C143 C 0.17668 0.51745 0.13854 0.0
C144 C 0.27091 0.50094 0.14521 0.0
C145 C 0.30759 0.51411 0.15898 0.0
C146 C 0.34172 0.50542 0.15301 0.0
C147 C 0.38082 0.52659 0.16689 0.0
C148 C 0.41365 0.51911 0.1625 0.0
C149 C 0.40837 0.49055 0.14391 0.0
H150 H 0.30649 0.45807 0.12393 0.0
C151 C 0.3692 0.46885 0.13021 0.0
C152 C 0.33621 0.47611 0.13467 0.0
H153 H 0.36394 0.44588 0.11616 0.0
H154 H 0.20138 0.53813 0.20018 0.0
H155 H 0.25468 0.52093 0.19115 0.0
H156 H 0.20957 0.49987 0.11439 0.0
H157 H 0.1549 0.51615 0.12373 0.0
H158 H 0.26543 0.48416 0.12792 0.0
H159 H 0.31399 0.53358 0.17527 0.0
H160 H 0.38601 0.54895 0.18133 0.0
H161 H 0.44318 0.53556 0.17372 0.0
C162 C 0.77478 0.19066 0.4945 0.0
C163 C 0.75157 0.18414 0.51548 0.0
C164 C 0.81579 0.2259 0.49323 0.0
C165 C 0.83459 0.25525 0.51304 0.0
C166 C 0.81156 0.24812 0.53412 0.0
C167 C 0.77073 0.21301 0.53539 0.0
C168 C 0.87652 0.29509 0.51184 0.0
C169 C 0.9067 0.30042 0.49667 0.0
C170 C 0.94723 0.3411 0.49326 0.0
C171 C 0.97497 0.34142 0.47635 0.0
C172 C 0.01093 0.37908 0.47016 0.0
C173 C 0.02037 0.41752 0.48084 0.0
H174 H 0.93792 0.38132 0.5181 0.0
C175 C 0.99427 0.41735 0.4988 0.0
C176 C 0.9579 0.37956 0.5049 0.0
H177 H 0.00078 0.44667 0.50717 0.0
H178 H 0.76081 0.16924 0.47876 0.0
H179 H 0.8318 0.23067 0.47633 0.0
H180 H 0.82498 0.27017 0.5496 0.0
H181 H 0.75385 0.20905 0.55187 0.0
H182 H 0.8822 0.32054 0.5241 0.0
H183 H 0.9013 0.27368 0.48562 0.0
H184 H 0.96806 0.31254 0.46718 0.0
H185 H 0.03074 0.37834 0.45635 0.0
C186 C 0.54272 0.70319 0.82051 0.0
C187 C 0.568 0.68689 0.82953 0.0
C188 C 0.55677 0.74585 0.82355 0.0
C189 C 0.59652 0.7732 0.83565 0.0
C190 C 0.62192 0.75701 0.84459 0.0
C191 C 0.60761 0.71411 0.84181 0.0
C192 C 0.61329 0.81913 0.83718 0.0
C193 C 0.58759 0.83492 0.83888 0.0
C194 C 0.60141 0.87988 0.83504 0.0
C195 C 0.63559 0.90589 0.82045 0.0
C196 C 0.6432 0.94566 0.81361 0.0
C197 C 0.61692 0.96024 0.82121 0.0
H198 H 0.54959 0.87574 0.85455 0.0
C199 C 0.58415 0.93518 0.83678 0.0
C200 C 0.57633 0.89527 0.84348 0.0
H201 H 0.56314 0.94549 0.84271 0.0
H202 H 0.51211 0.68305 0.81092 0.0
H203 H 0.53696 0.75751 0.8157 0.0
H204 H 0.6529 0.77759 0.85369 0.0
H205 H 0.62786 0.70243 0.8489 0.0
H206 H 0.64737 0.84015 0.83634 0.0
H207 H 0.55427 0.81366 0.84222 0.0
H208 H 0.6551 0.8949 0.81309 0.0
H209 H 0.66883 0.9645 0.8017 0.0
C210 C 0.81204 0.4542 0.13236 0.0
C211 C 0.85031 0.4784 0.1466 0.0
C212 C 0.77907 0.46267 0.133 0.0
C213 C 0.7834 0.49555 0.14802 0.0
C214 C 0.82205 0.52048 0.16176 0.0
C215 C 0.85507 0.51184 0.16122 0.0
C216 C 0.74902 0.50577 0.14864 0.0
C217 C 0.70743 0.47658 0.14443 0.0
C218 C 0.67261 0.48629 0.14171 0.0
C219 C 0.6345 0.45712 0.12875 0.0
C220 C 0.6023 0.46625 0.12355 0.0
C221 C 0.60719 0.50443 0.13162 0.0
H222 H 0.70481 0.54664 0.16145 0.0
C223 C 0.64412 0.53282 0.14568 0.0
C224 C 0.67661 0.52384 0.15077 0.0
H225 H 0.6485 0.5626 0.15191 0.0
H226 H 0.80734 0.42842 0.12071 0.0
H227 H 0.75055 0.44377 0.12135 0.0
H228 H 0.82653 0.54642 0.17319 0.0
H229 H 0.88418 0.5312 0.17235 0.0
H230 H 0.75872 0.53838 0.15226 0.0
H231 H 0.69838 0.44396 0.14136 0.0
H232 H 0.6303 0.42784 0.12169 0.0
H233 H 0.57417 0.44415 0.11246 0.0
C234 C 0.45178 0.84403 0.46482 0.0
C235 C 0.47114 0.87815 0.48172 0.0
C236 C 0.41003 0.81102 0.46735 0.0
C237 C 0.38663 0.81116 0.487 0.0
C238 C 0.40538 0.8462 0.50321 0.0
C239 C 0.44716 0.87923 0.50068 0.0
C240 C 0.34276 0.77571 0.49116 0.0
C241 C 0.32718 0.73592 0.48273 0.0
C242 C 0.28376 0.69988 0.48712 0.0
C243 C 0.26633 0.6643 0.4714 0.0
C244 C 0.22605 0.62941 0.47488 0.0
C245 C 0.20243 0.6288 0.49453 0.0
H246 H 0.27248 0.72559 0.5197 0.0
C247 C 0.21971 0.66435 0.51027 0.0
C248 C 0.26002 0.69941 0.50675 0.0
H249 H 0.20198 0.66498 0.52537 0.0
H250 H 0.46914 0.84235 0.44984 0.0
H251 H 0.39642 0.78562 0.4538 0.0
H252 H 0.38803 0.84754 0.51832 0.0
H253 H 0.461 0.90505 0.51401 0.0
H254 H 0.32329 0.78279 0.50212 0.0
H255 H 0.34684 0.72891 0.4719 0.0
H256 H 0.28381 0.6636 0.45618 0.0
H257 H 0.21356 0.6029 0.46216 0.0
C258 C 0.633 0.38222 0.86662 0.0
C259 C 0.61517 0.39767 0.84886 0.0
C260 C 0.62242 0.34013 0.86581 0.0
C261 C 0.59395 0.31262 0.84703 0.0
C262 C 0.57521 0.32786 0.82976 0.0
C263 C 0.58577 0.36993 0.83059 0.0
C264 C 0.58302 0.26807 0.8446 0.0
C265 C 0.60731 0.25327 0.85457 0.0
C266 C 0.59762 0.2095 0.85044 0.0
C267 C 0.61297 0.19157 0.86808 0.0
C268 C 0.60605 0.15112 0.86434 0.0
C269 C 0.58389 0.12801 0.8428 0.0
H270 H 0.56479 0.19964 0.81425 0.0
C271 C 0.56902 0.14601 0.82495 0.0
C272 C 0.57569 0.18635 0.82873 0.0
H273 H 0.55274 0.12909 0.80791 0.0
H274 H 0.65537 0.40268 0.88114 0.0
H275 H 0.6365 0.32953 0.88005 0.0
H276 H 0.55286 0.30733 0.81525 0.0
H277 H 0.57122 0.38077 0.81673 0.0
H278 H 0.55448 0.24711 0.83334 0.0
H279 H 0.63566 0.27364 0.86608 0.0
H280 H 0.63049 0.20896 0.88477 0.0
H281 H 0.61846 0.13803 0.87811 0.0
C282 C 0.63475 0.86107 0.50238 0.0
C283 C 0.59985 0.85866 0.51347 0.0
C284 C 0.63943 0.82575 0.50148 0.0
C285 C 0.609 0.78734 0.5115 0.0
C286 C 0.57372 0.78487 0.52198 0.0
C287 C 0.56934 0.82013 0.52315 0.0
C288 C 0.61259 0.74909 0.51194 0.0
C289 C 0.64971 0.74969 0.5124 0.0
C290 C 0.6524 0.71157 0.51818 0.0
C291 C 0.68605 0.70802 0.50983 0.0
C292 C 0.69033 0.67342 0.51639 0.0
C293 C 0.66141 0.64225 0.53181 0.0
H294 H 0.59795 0.68217 0.54109 0.0
C295 C 0.62773 0.64579 0.54 0.0
C296 C 0.6234 0.68005 0.53344 0.0
H297 H 0.60467 0.62206 0.5517 0.0
H298 H 0.65856 0.89028 0.49454 0.0
H299 H 0.66654 0.82859 0.49274 0.0
H300 H 0.5497 0.75564 0.52973 0.0
H301 H 0.54181 0.81703 0.53155 0.0
H302 H 0.58328 0.71927 0.51397 0.0
H303 H 0.67923 0.779 0.5098 0.0
H304 H 0.70915 0.73214 0.49833 0.0
H305 H 0.71673 0.67156 0.50993 0.0
C306 C 0.78427 0.58109 0.8265 0.0
C307 C 0.75345 0.54874 0.81072 0.0
C308 C 0.82624 0.5899 0.82803 0.0
C309 C 0.83809 0.5665 0.81372 0.0
C310 C 0.80791 0.53622 0.79679 0.0
C311 C 0.76608 0.52756 0.79518 0.0
C312 C 0.87891 0.5678 0.81874 0.0
C313 C 0.91343 0.59972 0.8306 0.0
C314 C 0.94877 0.59438 0.84062 0.0
C315 C 0.99093 0.62802 0.84058 0.0
C316 C 0.02415 0.62325 0.85084 0.0
C317 C 0.01535 0.58517 0.86191 0.0
H318 H 0.90789 0.5302 0.85259 0.0
C319 C 0.97315 0.55183 0.86224 0.0
C320 C 0.9402 0.55631 0.85164 0.0
H321 H 0.96566 0.52217 0.87062 0.0
H322 H 0.77556 0.59811 0.83863 0.0
H323 H 0.84832 0.61301 0.84161 0.0
H324 H 0.81618 0.5177 0.7856 0.0
H325 H 0.74319 0.50267 0.78268 0.0
H326 H 0.87963 0.53973 0.81377 0.0
H327 H 0.91545 0.62968 0.83377 0.0
H328 H 0.99814 0.6578 0.83249 0.0
H329 H 0.05655 0.64944 0.85055 0.0
C330 C 0.19602 0.71043 0.13531 0.0
C331 C 0.16691 0.6874 0.15319 0.0
C332 C 0.2261 0.7531 0.13929 0.0
C333 C 0.22757 0.77367 0.16128 0.0
C334 C 0.19795 0.7508 0.17891 0.0
C335 C 0.16774 0.70819 0.17487 0.0
C336 C 0.26183 0.81759 0.16742 0.0
C337 C 0.28329 0.84641 0.15029 0.0
C338 C 0.3217 0.88819 0.15633 0.0
C339 C 0.35062 0.90864 0.13794 0.0
C340 C 0.38915 0.94588 0.14335 0.0
C341 C 0.3992 0.9637 0.16718 0.0
H342 H 0.30932 0.89336 0.19452 0.0
C343 C 0.36979 0.94429 0.18539 0.0
C344 C 0.33117 0.90713 0.17999 0.0
H345 H 0.37713 0.95741 0.20397 0.0
H346 H 0.19632 0.69528 0.11845 0.0
H347 H 0.24914 0.76917 0.12555 0.0
H348 H 0.19863 0.76577 0.19608 0.0
H349 H 0.14581 0.69133 0.18906 0.0
H350 H 0.27031 0.82544 0.18687 0.0
H351 H 0.27421 0.83824 0.13087 0.0
H352 H 0.34414 0.89494 0.11954 0.0
H353 H 0.41171 0.96011 0.12913 0.0
C354 C 0.59206 0.19569 0.50253 0.0
C355 C 0.60198 0.18201 0.48126 0.0
C356 C 0.59026 0.23263 0.5023 0.0
C357 C 0.59854 0.25673 0.48076 0.0
C358 C 0.60605 0.24169 0.4592 0.0
C359 C 0.60797 0.20488 0.45945 0.0
C360 C 0.60074 0.29806 0.48008 0.0
C361 C 0.61054 0.32314 0.50013 0.0
C362 C 0.61692 0.36621 0.49898 0.0
C363 C 0.61021 0.3833 0.51998 0.0
C364 C 0.6168 0.42408 0.51976 0.0
C365 C 0.63076 0.44872 0.49862 0.0
H366 H 0.63863 0.37988 0.46167 0.0
C367 C 0.63842 0.43215 0.47777 0.0
C368 C 0.63155 0.39127 0.47791 0.0
H369 H 0.64967 0.4508 0.46135 0.0
H370 H 0.58673 0.17846 0.51955 0.0
H371 H 0.58266 0.24218 0.51905 0.0
H372 H 0.61193 0.25926 0.44227 0.0
H373 H 0.61524 0.19499 0.44266 0.0
H374 H 0.59645 0.30909 0.4621 0.0
H375 H 0.61463 0.31229 0.5182 0.0
H376 H 0.59949 0.3649 0.53654 0.0
H377 H 0.61079 0.43634 0.53605 0.0
C378 C 0.41668 0.56003 0.86894 0.0
C379 C 0.42794 0.536 0.85487 0.0
C380 C 0.37553 0.55313 0.86667 0.0
C381 C 0.34467 0.52187 0.85038 0.0
C382 C 0.35497 0.4959 0.83757 0.0
C383 C 0.39643 0.50313 0.8396 0.0
C384 C 0.30202 0.5168 0.84628 0.0
C385 C 0.29715 0.55055 0.84506 0.0
C386 C 0.25542 0.54782 0.84182 0.0
C387 C 0.25382 0.58221 0.83166 0.0
C388 C 0.21578 0.58239 0.83012 0.0
C389 C 0.17877 0.54837 0.83898 0.0
H390 H 0.21844 0.48687 0.85889 0.0
C391 C 0.18013 0.51378 0.84902 0.0
C392 C 0.21811 0.51338 0.85035 0.0
H393 H 0.15201 0.48743 0.85625 0.0
H394 H 0.44002 0.58533 0.88106 0.0
H395 H 0.36807 0.57274 0.87742 0.0
H396 H 0.33145 0.47121 0.82518 0.0
H397 H 0.40409 0.48389 0.82865 0.0
H398 H 0.27486 0.48528 0.8429 0.0
H399 H 0.32526 0.58196 0.84589 0.0
H400 H 0.28221 0.60925 0.82517 0.0
H401 H 0.21539 0.60948 0.82249 0.0
C402 C 0.85791 0.31314 0.15895 0.0
C403 C 0.88545 0.33064 0.1801 0.0
C404 C 0.82384 0.27169 0.15882 0.0
C405 C 0.81617 0.24703 0.18005 0.0
C406 C 0.84509 0.26383 0.20069 0.0
C407 C 0.8794 0.30523 0.20074 0.0
C408 C 0.77762 0.20462 0.18191 0.0
C409 C 0.74138 0.19166 0.16784 0.0
C410 C 0.70052 0.1531 0.17303 0.0
C411 C 0.66236 0.1513 0.16531 0.0
C412 C 0.6234 0.11815 0.17243 0.0
C413 C 0.62193 0.08613 0.18737 0.0
H414 H 0.7271 0.11853 0.19187 0.0
C415 C 0.65975 0.08642 0.19375 0.0
C416 C 0.69867 0.11938 0.1865 0.0
H417 H 0.65928 0.06149 0.20478 0.0
H418 H 0.86225 0.3317 0.14255 0.0
H419 H 0.80351 0.25951 0.14214 0.0
H420 H 0.84029 0.2454 0.21719 0.0
H421 H 0.90025 0.31769 0.21726 0.0
H422 H 0.77788 0.18559 0.19727 0.0
H423 H 0.73996 0.21221 0.15382 0.0
H424 H 0.66279 0.17657 0.15467 0.0
H425 H 0.59468 0.11867 0.16724 0.0
C426 C 0.02796 0.48194 0.0876 0.0
C427 C 0.03526 0.51647 0.10213 0.0
C428 C 0.04342 0.48803 0.06403 0.0
C429 C 0.06625 0.52885 0.05442 0.0
C430 C 0.07533 0.56343 0.06944 0.0
C431 C 0.0598 0.55733 0.09297 0.0
C432 C 0.07949 0.53656 0.02857 0.0
C433 C 0.05785 0.50838 0.01005 0.0
C434 C 0.06549 0.51875 0.9836 0.0
C435 C 0.03114 0.49784 0.96614 0.0
C436 C 0.03564 0.50929 0.9414 0.0
C437 C 0.07482 0.54153 0.9335 0.0
H438 H 0.13287 0.56551 0.98832 0.0
C439 C 0.10994 0.56084 0.95064 0.0
C440 C 0.10534 0.54964 0.97551 0.0
H441 H 0.14056 0.58567 0.945 0.0
H442 H 0.00967 0.45007 0.09427 0.0
H443 H 0.03706 0.46067 0.05339 0.0
H444 H 0.09313 0.59523 0.0626 0.0
H445 H 0.06587 0.58459 0.10365 0.0
H446 H 0.10462 0.56813 0.0243 0.0
H447 H 0.03016 0.47824 0.01404 0.0
H448 H 0.00024 0.47357 0.97179 0.0
H449 H 0.00821 0.49338 0.92849 0.0
C450 C 0.58025 0.03808 0.41983 0.0
C451 C 0.59747 0.01711 0.4335 0.0
C452 C 0.57236 0.03196 0.39431 0.0
C453 C 0.58107 0.00428 0.38185 0.0
C454 C 0.59827 0.98335 0.39554 0.0
C455 C 0.60627 0.98955 0.42108 0.0
C456 C 0.57523 0.99851 0.35454 0.0
C457 C 0.5492 0.00714 0.34038 0.0
C458 C 0.54626 0.00551 0.31289 0.0
C459 C 0.51214 0.00638 0.30027 0.0
C460 C 0.51006 0.00875 0.27455 0.0
C461 C 0.54227 0.01053 0.26084 0.0
H462 H 0.60537 0.00658 0.30784 0.0
C463 C 0.57578 0.00844 0.27337 0.0
C464 C 0.57795 0.00622 0.29906 0.0
H465 H 0.60089 0.00932 0.26332 0.0
H466 H 0.57341 0.0598 0.42877 0.0
H467 H 0.56052 0.04991 0.38447 0.0
H468 H 0.6057 0.96219 0.38643 0.0
H469 H 0.61949 0.97284 0.43104 0.0
H470 H 0.59278 0.98614 0.34606 0.0
H471 H 0.52883 0.0158 0.34916 0.0
H472 H 0.48742 0.00618 0.31039 0.0
H473 H 0.48407 0.01081 0.2655 0.0
C474 C 0.61678 0.52924 0.75655 0.0
C475 C 0.58789 0.54052 0.76426 0.0
C476 C 0.62369 0.52886 0.73146 0.0
C477 C 0.60168 0.53974 0.71357 0.0
C478 C 0.57278 0.55083 0.72137 0.0
C479 C 0.56585 0.5511 0.74632 0.0
C480 C 0.60855 0.54174 0.68674 0.0
C481 C 0.62731 0.52378 0.67537 0.0
C482 C 0.63273 0.52744 0.64831 0.0
C483 C 0.66775 0.52778 0.63875 0.0
C484 C 0.67551 0.53528 0.61365 0.0
C485 C 0.64825 0.54248 0.59783 0.0
H486 H 0.57533 0.52923 0.63825 0.0
C487 C 0.61181 0.53936 0.60706 0.0
C488 C 0.60388 0.53152 0.63193 0.0
H489 H 0.58981 0.54383 0.59505 0.0
H490 H 0.63445 0.52125 0.76991 0.0
H491 H 0.64691 0.52097 0.72638 0.0
H492 H 0.55545 0.55951 0.70808 0.0
H493 H 0.5434 0.56006 0.7515 0.0
H494 H 0.59721 0.55925 0.67578 0.0
H495 H 0.64025 0.50731 0.68593 0.0
H496 H 0.69003 0.52392 0.65087 0.0
H497 H 0.70369 0.53732 0.60685 0.0
C498 C 0.62644 0.06517 0.58782 0.0
C499 C 0.62101 0.03009 0.5746 0.0
C500 C 0.6302 0.06644 0.6136 0.0
C501 C 0.62828 0.03245 0.6268 0.0
C502 C 0.6234 0.99769 0.61358 0.0
C503 C 0.61965 0.99641 0.58781 0.0
C504 C 0.63236 0.03243 0.65422 0.0
C505 C 0.62372 0.05588 0.66893 0.0
C506 C 0.62623 0.05411 0.69632 0.0
C507 C 0.60097 0.06422 0.70979 0.0
C508 C 0.60125 0.06132 0.7355 0.0
C509 C 0.62713 0.04856 0.74831 0.0
H510 H 0.67458 0.03652 0.69963 0.0
C511 C 0.65364 0.04002 0.7349 0.0
C512 C 0.65333 0.04288 0.70922 0.0
H513 H 0.6747 0.03109 0.74429 0.0
H514 H 0.62814 0.09191 0.57826 0.0
H515 H 0.63533 0.09443 0.62299 0.0
H516 H 0.62219 0.97123 0.62324 0.0
H517 H 0.61569 0.96895 0.57827 0.0
H518 H 0.64051 0.01032 0.66249 0.0
H519 H 0.61164 0.07502 0.66079 0.0
H520 H 0.58013 0.07339 0.70035 0.0
H521 H 0.58027 0.06789 0.74526 0.0
C522 C 0.61745 0.5695 0.91436 0.0
C523 C 0.58659 0.55021 0.89488 0.0
C524 C 0.6058 0.57418 0.93761 0.0
C525 C 0.56284 0.55919 0.94188 0.0
C526 C 0.53213 0.54029 0.92222 0.0
C527 C 0.54395 0.53604 0.8989 0.0
C528 C 0.54873 0.55799 0.96714 0.0
C529 C 0.57406 0.58535 0.98527 0.0
C530 C 0.56528 0.57848 0.01188 0.0
C531 C 0.59995 0.59811 0.02927 0.0
C532 C 0.59482 0.58799 0.05417 0.0
C533 C 0.55474 0.55826 0.06233 0.0
H534 H 0.49666 0.53621 0.0077 0.0
C535 C 0.51937 0.54091 0.04532 0.0
C536 C 0.52452 0.55091 0.0203 0.0
H537 H 0.48803 0.5181 0.05113 0.0
H538 H 0.65051 0.5802 0.91172 0.0
H539 H 0.63029 0.5876 0.95241 0.0
H540 H 0.49878 0.52773 0.92509 0.0
H541 H 0.51951 0.51971 0.88434 0.0
H542 H 0.51756 0.53186 0.97103 0.0
H543 H 0.60478 0.61178 0.9808 0.0
H544 H 0.6316 0.6199 0.02343 0.0
H545 H 0.62252 0.60252 0.06697 0.0
C546 C 0.06931 0.53138 0.24853 0.0
C547 C 0.03088 0.50374 0.23525 0.0
C548 C 0.07381 0.52776 0.27401 0.0
C549 C 0.03986 0.49649 0.28687 0.0
C550 C 0.0016 0.46866 0.27362 0.0
C551 C 0.99702 0.47235 0.24811 0.0
C552 C 0.04388 0.49085 0.31385 0.0
C553 C 0.07147 0.52222 0.32949 0.0
C554 C 0.07563 0.51612 0.35637 0.0
C555 C 0.08984 0.55054 0.37264 0.0
C556 C 0.09364 0.54571 0.39809 0.0
C557 C 0.08368 0.50635 0.40774 0.0
H558 H 0.05744 0.45019 0.35396 0.0
C559 C 0.07078 0.47224 0.39136 0.0
C560 C 0.06683 0.47704 0.36597 0.0
H561 H 0.06394 0.44179 0.39815 0.0
H562 H 0.09622 0.55572 0.23924 0.0
H563 H 0.10428 0.54895 0.28337 0.0
H564 H 0.97507 0.44403 0.28304 0.0
H565 H 0.96699 0.45048 0.23852 0.0
H566 H 0.02204 0.46009 0.32111 0.0
H567 H 0.09031 0.55403 0.3227 0.0
H568 H 0.09729 0.5811 0.3657 0.0
H569 H 0.10344 0.57255 0.41022 0.0
loop_
_geom_bond_atom_site_label_1
_geom_bond_atom_site_label_2
_geom_bond_distance
_geom_bond_site_symmetry_2
_ccdc_geom_bond_type
Zn0 O6 1.969 . S
Zn0 O7 1.965 . S
Zn0 O11 2.024 . S
Zn0 O16 1.969 . S
Zn1 O8 1.969 . S
Zn1 O14 1.969 . S
Zn1 O15 1.965 . S
Zn1 O17 2.024 . S
C2 O3 1.229 . S
C2 O11 1.058 . S
O3 C2 1.229 . S
C4 O5 1.229 . S
C4 O17 1.058 . S
O5 C4 1.229 . S
O6 Zn0 1.969 . S
O6 C9 1.267 . S
O7 Zn0 1.965 . S
O7 C18 1.260 . S
O8 Zn1 1.969 . S
O8 C18 1.258 1_655 S
C9 O6 1.267 . S
C9 O10 1.228 . S
O10 C9 1.228 . S
O11 Zn0 2.024 . S
O11 C2 1.058 . S
C12 O13 1.228 . S
C12 O14 1.267 . S
O13 C12 1.228 . S
O14 Zn1 1.969 . S
O14 C12 1.267 . S
O15 Zn1 1.965 . S
O15 C19 1.260 1_655 S
O16 Zn0 1.969 . S
O16 C19 1.258 . S
O17 Zn1 2.024 . S
O17 C4 1.058 . S
C18 O7 1.260 . S
C18 O8 1.258 1_455 S
C19 O15 1.260 1_455 S
C19 O16 1.258 . S
Zn20 O26 1.969 . S
Zn20 O27 1.965 . S
Zn20 O31 2.024 . S
Zn20 O36 1.969 . S
Zn21 O28 1.969 . S
Zn21 O34 1.969 . S
Zn21 O35 1.965 1_565 S
Zn21 O37 2.024 . S
C22 O23 1.229 . S
C22 O31 1.058 . S
O23 C22 1.229 . S
C24 O25 1.229 . S
C24 O37 1.058 . S
O25 C24 1.229 . S
O26 Zn20 1.969 . S
O26 C29 1.267 . S
O27 Zn20 1.965 . S
O27 C38 1.260 . S
O28 Zn21 1.969 . S
O28 C38 1.258 1_565 S
C29 O26 1.267 . S
C29 O30 1.228 . S
O30 C29 1.228 . S
O31 Zn20 2.024 . S
O31 C22 1.058 . S
C32 O33 1.228 . S
C32 O34 1.267 . S
O33 C32 1.228 . S
O34 Zn21 1.969 . S
O34 C32 1.267 . S
O35 Zn21 1.965 1_545 S
O35 C39 1.260 . S
O36 Zn20 1.969 . S
O36 C39 1.258 . S
O37 Zn21 2.024 . S
O37 C24 1.058 . S
C38 O27 1.260 . S
C38 O28 1.258 1_545 S
C39 O35 1.260 . S
C39 O36 1.258 . S
Zn40 O46 1.969 . S
Zn40 O47 1.965 . S
Zn40 O51 2.024 . S
Zn40 O56 1.969 . S
Zn41 O48 1.969 . S
Zn41 O54 1.969 . S
Zn41 O55 1.965 . S
Zn41 O57 2.024 . S
C42 O43 1.229 . S
C42 O51 1.058 . S
O43 C42 1.229 . S
C44 O45 1.229 . S
C44 O57 1.058 . S
O45 C44 1.229 . S
O46 Zn40 1.969 . S
O46 C49 1.267 . S
O47 Zn40 1.965 . S
O47 C58 1.260 . S
O48 Zn41 1.969 . S
O48 C58 1.258 . S
C49 O46 1.267 . S
C49 O50 1.228 . S
O50 C49 1.228 . S
O51 Zn40 2.024 . S
O51 C42 1.058 . S
C52 O53 1.228 . S
C52 O54 1.267 . S
O53 C52 1.228 . S
O54 Zn41 1.969 . S
O54 C52 1.267 . S
O55 Zn41 1.965 . S
O55 C59 1.260 . S
O56 Zn40 1.969 . S
O56 C59 1.258 . S
O57 Zn41 2.024 . S
O57 C44 1.058 . S
C58 O47 1.260 . S
C58 O48 1.258 . S
C59 O55 1.260 . S
C59 O56 1.258 . S
H60 C67 0.929 . S
H61 C70 0.930 1_565 S
H62 C72 0.929 . S
H63 C64 0.969 . S
C64 H63 0.969 . S
C64 O65 1.550 . S
C64 H66 0.973 . S
O65 C64 1.550 . S
O65 C71 1.412 1_565 S
H66 C64 0.973 . S
C67 H60 0.929 . S
C67 C68 1.400 . S
C67 C69 1.364 . S
C68 C67 1.400 . S
C68 C72 1.377 . S
C69 C67 1.364 . S
C69 C70 1.374 . S
C70 H61 0.930 1_545 S
C70 C69 1.374 . S
C70 C71 1.383 . S
C71 O65 1.412 1_545 S
C71 C70 1.383 . S
C71 C72 1.394 . S
C72 H62 0.929 . S
C72 C68 1.377 . S
C72 C71 1.394 . S
H73 C80 0.929 . S
H74 C83 0.930 . S
H75 C85 0.929 . S
H76 C77 0.969 . S
C77 H76 0.969 . S
C77 O78 1.550 . S
C77 H79 0.973 . S
O78 C77 1.550 . S
O78 C84 1.412 . S
H79 C77 0.973 . S
C80 H73 0.929 . S
C80 C81 1.400 . S
C80 C82 1.364 . S
C81 C80 1.400 . S
C81 C85 1.377 . S
C82 C80 1.364 . S
C82 C83 1.374 . S
C83 H74 0.930 . S
C83 C82 1.374 . S
C83 C84 1.383 . S
C84 O78 1.412 . S
C84 C83 1.383 . S
C84 C85 1.394 . S
C85 H75 0.929 . S
C85 C81 1.377 . S
C85 C84 1.394 . S
H86 C93 0.929 . S
H87 C96 0.930 . S
H88 C98 0.929 . S
H89 C90 0.969 . S
C90 H89 0.969 . S
C90 O91 1.550 . S
C90 H92 0.973 . S
O91 C90 1.550 . S
O91 C97 1.412 . S
H92 C90 0.973 . S
C93 H86 0.929 . S
C93 C94 1.400 . S
C93 C95 1.364 . S
C94 C93 1.400 . S
C94 C98 1.377 . S
C95 C93 1.364 . S
C95 C96 1.374 . S
C96 H87 0.930 . S
C96 C95 1.374 . S
C96 C97 1.383 . S
C97 O91 1.412 . S
C97 C96 1.383 . S
C97 C98 1.394 . S
C98 H88 0.929 . S
C98 C94 1.377 . S
C98 C97 1.394 . S
H99 C106 0.929 . S
H100 C109 0.930 . S
H101 C111 0.929 . S
H102 C103 0.969 . S
C103 H102 0.969 . S
C103 O104 1.550 . S
C103 H105 0.973 . S
O104 C103 1.550 . S
O104 C110 1.412 . S
H105 C103 0.973 . S
C106 H99 0.929 . S
C106 C107 1.400 . S
C106 C108 1.364 . S
C107 C106 1.400 . S
C107 C111 1.377 . S
C108 C106 1.364 . S
C108 C109 1.374 . S
C109 H100 0.930 . S
C109 C108 1.374 . S
C109 C110 1.383 . S
C110 O104 1.412 . S
C110 C109 1.383 . S
C110 C111 1.394 . S
C111 H101 0.929 . S
C111 C107 1.377 . S
C111 C110 1.394 . S
H112 C119 0.910 1_565 S
H113 C122 0.930 . S
H114 C124 0.929 . S
H115 C116 0.969 . S
C116 H115 0.969 . S
C116 O117 1.550 . S
C116 H118 0.973 . S
O117 C116 1.550 . S
O117 C123 1.412 . S
H118 C116 0.973 . S
C119 H112 0.910 1_545 S
C119 C120 1.398 1_545 S
C119 C121 1.384 . S
C120 C119 1.398 1_565 S
C120 C124 1.377 1_565 S
C121 C119 1.384 . S
C121 C122 1.374 . S
C122 H113 0.930 . S
C122 C121 1.374 . S
C122 C123 1.383 . S
C123 O117 1.412 . S
C123 C122 1.383 . S
C123 C124 1.394 . S
C124 H114 0.929 . S
C124 C120 1.377 1_545 S
C124 C123 1.394 . S
H125 C132 0.929 . S
H126 C135 0.930 . S
H127 C137 0.929 . S
H128 C129 0.969 . S
C129 H128 0.969 . S
C129 O130 1.550 . S
C129 H131 0.973 . S
O130 C129 1.550 . S
O130 C136 1.412 . S
H131 C129 0.973 . S
C132 H125 0.929 . S
C132 C133 1.400 . S
C132 C134 1.364 . S
C133 C132 1.400 . S
C133 C137 1.377 . S
C134 C132 1.364 . S
C134 C135 1.374 . S
C135 H126 0.930 . S
C135 C134 1.374 . S
C135 C136 1.383 . S
C136 O130 1.412 . S
C136 C135 1.383 . S
C136 C137 1.394 . S
C137 H127 0.929 . S
C137 C133 1.377 . S
C137 C136 1.394 . S
C138 C139 1.386 . S
C138 C140 1.383 . S
C138 H154 0.951 . S
C139 C138 1.386 . S
C139 C143 1.383 . S
C140 C138 1.383 . S
C140 C141 1.402 . S
C140 H155 0.951 . S
C141 C140 1.402 . S
C141 C142 1.375 . S
C141 C144 1.481 . S
C142 C141 1.375 . S
C142 C143 1.367 . S
C142 H156 0.951 . S
C143 C139 1.383 . S
C143 C142 1.367 . S
C143 H157 0.950 . S
C144 C141 1.481 . S
C144 C145 1.297 . S
C144 H158 0.950 . S
C145 C144 1.297 . S
C145 C146 1.479 . S
C145 H159 0.950 . S
C146 C145 1.479 . S
C146 C147 1.375 . S
C146 C152 1.404 . S
C147 C146 1.375 . S
C147 C148 1.369 . S
C147 H160 0.950 . S
C148 C147 1.369 . S
C148 C149 1.392 . S
C148 H161 0.951 . S
C149 C148 1.392 . S
C149 C151 1.384 . S
H150 C152 0.949 . S
C151 C149 1.384 . S
C151 C152 1.385 . S
C151 H153 0.950 . S
C152 C146 1.404 . S
C152 H150 0.949 . S
C152 C151 1.385 . S
H153 C151 0.950 . S
H154 C138 0.951 . S
H155 C140 0.951 . S
H156 C142 0.951 . S
H157 C143 0.950 . S
H158 C144 0.950 . S
H159 C145 0.950 . S
H160 C147 0.950 . S
H161 C148 0.951 . S
C162 C163 1.386 . S
C162 C164 1.383 . S
C162 H178 0.951 . S
C163 C162 1.386 . S
C163 C167 1.383 . S
C164 C162 1.383 . S
C164 C165 1.402 . S
C164 H179 0.951 . S
C165 C164 1.402 . S
C165 C166 1.375 . S
C165 C168 1.481 . S
C166 C165 1.375 . S
C166 C167 1.367 . S
C166 H180 0.951 . S
C167 C163 1.383 . S
C167 C166 1.367 . S
C167 H181 0.950 . S
C168 C165 1.481 . S
C168 C169 1.297 . S
C168 H182 0.950 . S
C169 C168 1.297 . S
C169 C170 1.479 . S
C169 H183 0.950 . S
C170 C169 1.479 . S
C170 C171 1.375 . S
C170 C176 1.404 . S
C171 C170 1.375 . S
C171 C172 1.369 . S
C171 H184 0.950 . S
C172 C171 1.369 . S
C172 C173 1.392 1_655 S
C172 H185 0.951 1_655 S
C173 C172 1.392 1_455 S
C173 C175 1.384 1_455 S
H174 C176 0.949 . S
C175 C173 1.384 1_655 S
C175 C176 1.385 . S
C175 H177 0.950 . S
C176 C170 1.404 . S
C176 H174 0.949 . S
C176 C175 1.385 . S
H177 C175 0.950 . S
H178 C162 0.951 . S
H179 C164 0.951 . S
H180 C166 0.951 . S
H181 C167 0.950 . S
H182 C168 0.950 . S
H183 C169 0.950 . S
H184 C171 0.950 . S
H185 C172 0.951 1_455 S
C186 C187 1.386 . S
C186 C188 1.383 . S
C186 H202 0.951 . S
C187 C186 1.386 . S
C187 C191 1.383 . S
C188 C186 1.383 . S
C188 C189 1.402 . S
C188 H203 0.951 . S
C189 C188 1.402 . S
C189 C190 1.375 . S
C189 C192 1.481 . S
C190 C189 1.375 . S
C190 C191 1.367 . S
C190 H204 0.951 . S
C191 C187 1.383 . S
C191 C190 1.367 . S
C191 H205 0.950 . S
C192 C189 1.481 . S
C192 C193 1.297 . S
C192 H206 0.950 . S
C193 C192 1.297 . S
C193 C194 1.479 . S
C193 H207 0.950 . S
C194 C193 1.479 . S
C194 C195 1.375 . S
C194 C200 1.404 . S
C195 C194 1.375 . S
C195 C196 1.369 . S
C195 H208 0.950 . S
C196 C195 1.369 . S
C196 C197 1.392 . S
C196 H209 0.951 . S
C197 C196 1.392 . S
C197 C199 1.384 . S
H198 C200 0.949 . S
C199 C197 1.384 . S
C199 C200 1.385 . S
C199 H201 0.950 . S
C200 C194 1.404 . S
C200 H198 0.949 . S
C200 C199 1.385 . S
H201 C199 0.950 . S
H202 C186 0.951 . S
H203 C188 0.951 . S
H204 C190 0.951 . S
H205 C191 0.950 . S
H206 C192 0.950 . S
H207 C193 0.950 . S
H208 C195 0.950 . S
H209 C196 0.951 . S
C210 C211 1.386 . S
C210 C212 1.383 . S
C210 H226 0.951 . S
C211 C210 1.386 . S
C211 C215 1.383 . S
C212 C210 1.383 . S
C212 C213 1.402 . S
C212 H227 0.951 . S
C213 C212 1.402 . S
C213 C214 1.375 . S
C213 C216 1.481 . S
C214 C213 1.375 . S
C214 C215 1.367 . S
C214 H228 0.951 . S
C215 C211 1.383 . S
C215 C214 1.367 . S
C215 H229 0.950 . S
C216 C213 1.481 . S
C216 C217 1.297 . S
C216 H230 0.950 . S
C217 C216 1.297 . S
C217 C218 1.479 . S
C217 H231 0.950 . S
C218 C217 1.479 . S
C218 C219 1.375 . S
C218 C224 1.404 . S
C219 C218 1.375 . S
C219 C220 1.369 . S
C219 H232 0.950 . S
C220 C219 1.369 . S
C220 C221 1.392 . S
C220 H233 0.951 . S
C221 C220 1.392 . S
C221 C223 1.384 . S
H222 C224 0.949 . S
C223 C221 1.384 . S
C223 C224 1.385 . S
C223 H225 0.950 . S
C224 C218 1.404 . S
C224 H222 0.949 . S
C224 C223 1.385 . S
H225 C223 0.950 . S
H226 C210 0.951 . S
H227 C212 0.951 . S
H228 C214 0.951 . S
H229 C215 0.950 . S
H230 C216 0.950 . S
H231 C217 0.950 . S
H232 C219 0.950 . S
H233 C220 0.951 . S
C234 C235 1.386 . S
C234 C236 1.383 . S
C234 H250 0.951 . S
C235 C234 1.386 . S
C235 C239 1.383 . S
C236 C234 1.383 . S
C236 C237 1.402 . S
C236 H251 0.951 . S
C237 C236 1.402 . S
C237 C238 1.375 . S
C237 C240 1.481 . S
C238 C237 1.375 . S
C238 C239 1.367 . S
C238 H252 0.951 . S
C239 C235 1.383 . S
C239 C238 1.367 . S
C239 H253 0.950 . S
C240 C237 1.481 . S
C240 C241 1.297 . S
C240 H254 0.950 . S
C241 C240 1.297 . S
C241 C242 1.479 . S
C241 H255 0.950 . S
C242 C241 1.479 . S
C242 C243 1.375 . S
C242 C248 1.404 . S
C243 C242 1.375 . S
C243 C244 1.369 . S
C243 H256 0.950 . S
C244 C243 1.369 . S
C244 C245 1.392 . S
C244 H257 0.951 . S
C245 C244 1.392 . S
C245 C247 1.384 . S
H246 C248 0.949 . S
C247 C245 1.384 . S
C247 C248 1.385 . S
C247 H249 0.950 . S
C248 C242 1.404 . S
C248 H246 0.949 . S
C248 C247 1.385 . S
H249 C247 0.950 . S
H250 C234 0.951 . S
H251 C236 0.951 . S
H252 C238 0.951 . S
H253 C239 0.950 . S
H254 C240 0.950 . S
H255 C241 0.950 . S
H256 C243 0.950 . S
H257 C244 0.951 . S
C258 C259 1.386 . S
C258 C260 1.383 . S
C258 H274 0.951 . S
C259 C258 1.386 . S
C259 C263 1.383 . S
C260 C258 1.383 . S
C260 C261 1.402 . S
C260 H275 0.951 . S
C261 C260 1.402 . S
C261 C262 1.375 . S
C261 C264 1.481 . S
C262 C261 1.375 . S
C262 C263 1.367 . S
C262 H276 0.951 . S
C263 C259 1.383 . S
C263 C262 1.367 . S
C263 H277 0.950 . S
C264 C261 1.481 . S
C264 C265 1.297 . S
C264 H278 0.950 . S
C265 C264 1.297 . S
C265 C266 1.479 . S
C265 H279 0.950 . S
C266 C265 1.479 . S
C266 C267 1.375 . S
C266 C272 1.404 . S
C267 C266 1.375 . S
C267 C268 1.369 . S
C267 H280 0.950 . S
C268 C267 1.369 . S
C268 C269 1.392 . S
C268 H281 0.951 . S
C269 C268 1.392 . S
C269 C271 1.384 . S
H270 C272 0.949 . S
C271 C269 1.384 . S
C271 C272 1.385 . S
C271 H273 0.950 . S
C272 C266 1.404 . S
C272 H270 0.949 . S
C272 C271 1.385 . S
H273 C271 0.950 . S
H274 C258 0.951 . S
H275 C260 0.951 . S
H276 C262 0.951 . S
H277 C263 0.950 . S
H278 C264 0.950 . S
H279 C265 0.950 . S
H280 C267 0.950 . S
H281 C268 0.951 . S
C282 C283 1.386 . S
C282 C284 1.383 . S
C282 H298 0.951 . S
C283 C282 1.386 . S
C283 C287 1.383 . S
C284 C282 1.383 . S
C284 C285 1.402 . S
C284 H299 0.951 . S
C285 C284 1.402 . S
C285 C286 1.375 . S
C285 C288 1.481 . S
C286 C285 1.375 . S
C286 C287 1.367 . S
C286 H300 0.951 . S
C287 C283 1.383 . S
C287 C286 1.367 . S
C287 H301 0.950 . S
C288 C285 1.481 . S
C288 C289 1.297 . S
C288 H302 0.950 . S
C289 C288 1.297 . S
C289 C290 1.479 . S
C289 H303 0.950 . S
C290 C289 1.479 . S
C290 C291 1.375 . S
C290 C296 1.404 . S
C291 C290 1.375 . S
C291 C292 1.369 . S
C291 H304 0.950 . S
C292 C291 1.369 . S
C292 C293 1.392 . S
C292 H305 0.951 . S
C293 C292 1.392 . S
C293 C295 1.384 . S
H294 C296 0.949 . S
C295 C293 1.384 . S
C295 C296 1.385 . S
C295 H297 0.950 . S
C296 C290 1.404 . S
C296 H294 0.949 . S
C296 C295 1.385 . S
H297 C295 0.950 . S
H298 C282 0.951 . S
H299 C284 0.951 . S
H300 C286 0.951 . S
H301 C287 0.950 . S
H302 C288 0.950 . S
H303 C289 0.950 . S
H304 C291 0.950 . S
H305 C292 0.951 . S
C306 C307 1.386 . S
C306 C308 1.383 . S
C306 H322 0.951 . S
C307 C306 1.386 . S
C307 C311 1.383 . S
C308 C306 1.383 . S
C308 C309 1.402 . S
C308 H323 0.951 . S
C309 C308 1.402 . S
C309 C310 1.375 . S
C309 C312 1.481 . S
C310 C309 1.375 . S
C310 C311 1.367 . S
C310 H324 0.951 . S
C311 C307 1.383 . S
C311 C310 1.367 . S
C311 H325 0.950 . S
C312 C309 1.481 . S
C312 C313 1.297 . S
C312 H326 0.950 . S
C313 C312 1.297 . S
C313 C314 1.479 . S
C313 H327 0.950 . S
C314 C313 1.479 . S
C314 C315 1.375 . S
C314 C320 1.404 . S
C315 C314 1.375 . S
C315 C316 1.369 1_655 S
C315 H328 0.950 . S
C316 C315 1.369 1_455 S
C316 C317 1.392 . S
C316 H329 0.951 . S
C317 C316 1.392 . S
C317 C319 1.384 1_455 S
H318 C320 0.949 . S
C319 C317 1.384 1_655 S
C319 C320 1.385 . S
C319 H321 0.950 . S
C320 C314 1.404 . S
C320 H318 0.949 . S
C320 C319 1.385 . S
H321 C319 0.950 . S
H322 C306 0.951 . S
H323 C308 0.951 . S
H324 C310 0.951 . S
H325 C311 0.950 . S
H326 C312 0.950 . S
H327 C313 0.950 . S
H328 C315 0.950 . S
H329 C316 0.951 . S
C330 C331 1.386 . S
C330 C332 1.383 . S
C330 H346 0.951 . S
C331 C330 1.386 . S
C331 C335 1.383 . S
C332 C330 1.383 . S
C332 C333 1.402 . S
C332 H347 0.951 . S
C333 C332 1.402 . S
C333 C334 1.375 . S
C333 C336 1.481 . S
C334 C333 1.375 . S
C334 C335 1.367 . S
C334 H348 0.951 . S
C335 C331 1.383 . S
C335 C334 1.367 . S
C335 H349 0.950 . S
C336 C333 1.481 . S
C336 C337 1.297 . S
C336 H350 0.950 . S
C337 C336 1.297 . S
C337 C338 1.479 . S
C337 H351 0.950 . S
C338 C337 1.479 . S
C338 C339 1.375 . S
C338 C344 1.404 . S
C339 C338 1.375 . S
C339 C340 1.369 . S
C339 H352 0.950 . S
C340 C339 1.369 . S
C340 C341 1.392 . S
C340 H353 0.951 . S
C341 C340 1.392 . S
C341 C343 1.384 . S
H342 C344 0.949 . S
C343 C341 1.384 . S
C343 C344 1.385 . S
C343 H345 0.950 . S
C344 C338 1.404 . S
C344 H342 0.949 . S
C344 C343 1.385 . S
H345 C343 0.950 . S
H346 C330 0.951 . S
H347 C332 0.951 . S
H348 C334 0.951 . S
H349 C335 0.950 . S
H350 C336 0.950 . S
H351 C337 0.950 . S
H352 C339 0.950 . S
H353 C340 0.951 . S
C354 C355 1.386 . S
C354 C356 1.383 . S
C354 H370 0.951 . S
C355 C354 1.386 . S
C355 C359 1.383 . S
C356 C354 1.383 . S
C356 C357 1.402 . S
C356 H371 0.951 . S
C357 C356 1.402 . S
C357 C358 1.375 . S
C357 C360 1.481 . S
C358 C357 1.375 . S
C358 C359 1.367 . S
C358 H372 0.951 . S
C359 C355 1.383 . S
C359 C358 1.367 . S
C359 H373 0.950 . S
C360 C357 1.481 . S
C360 C361 1.297 . S
C360 H374 0.950 . S
C361 C360 1.297 . S
C361 C362 1.479 . S
C361 H375 0.950 . S
C362 C361 1.479 . S
C362 C363 1.375 . S
C362 C368 1.404 . S
C363 C362 1.375 . S
C363 C364 1.369 . S
C363 H376 0.950 . S
C364 C363 1.369 . S
C364 C365 1.392 . S
C364 H377 0.951 . S
C365 C364 1.392 . S
C365 C367 1.384 . S
H366 C368 0.949 . S
C367 C365 1.384 . S
C367 C368 1.385 . S
C367 H369 0.950 . S
C368 C362 1.404 . S
C368 H366 0.949 . S
C368 C367 1.385 . S
H369 C367 0.950 . S
H370 C354 0.951 . S
H371 C356 0.951 . S
H372 C358 0.951 . S
H373 C359 0.950 . S
H374 C360 0.950 . S
H375 C361 0.950 . S
H376 C363 0.950 . S
H377 C364 0.951 . S
C378 C379 1.386 . S
C378 C380 1.383 . S
C378 H394 0.951 . S
C379 C378 1.386 . S
C379 C383 1.383 . S
C380 C378 1.383 . S
C380 C381 1.402 . S
C380 H395 0.951 . S
C381 C380 1.402 . S
C381 C382 1.375 . S
C381 C384 1.481 . S
C382 C381 1.375 . S
C382 C383 1.367 . S
C382 H396 0.951 . S
C383 C379 1.383 . S
C383 C382 1.367 . S
C383 H397 0.950 . S
C384 C381 1.481 . S
C384 C385 1.297 . S
C384 H398 0.950 . S
C385 C384 1.297 . S
C385 C386 1.479 . S
C385 H399 0.950 . S
C386 C385 1.479 . S
C386 C387 1.375 . S
C386 C392 1.404 . S
C387 C386 1.375 . S
C387 C388 1.369 . S
C387 H400 0.950 . S
C388 C387 1.369 . S
C388 C389 1.392 . S
C388 H401 0.951 . S
C389 C388 1.392 . S
C389 C391 1.384 . S
H390 C392 0.949 . S
C391 C389 1.384 . S
C391 C392 1.385 . S
C391 H393 0.950 . S
C392 C386 1.404 . S
C392 H390 0.949 . S
C392 C391 1.385 . S
H393 C391 0.950 . S
H394 C378 0.951 . S
H395 C380 0.951 . S
H396 C382 0.951 . S
H397 C383 0.950 . S
H398 C384 0.950 . S
H399 C385 0.950 . S
H400 C387 0.950 . S
H401 C388 0.951 . S
C402 C403 1.386 . S
C402 C404 1.383 . S
C402 H418 0.951 . S
C403 C402 1.386 . S
C403 C407 1.383 . S
C404 C402 1.383 . S
C404 C405 1.402 . S
C404 H419 0.951 . S
C405 C404 1.402 . S
C405 C406 1.375 . S
C405 C408 1.481 . S
C406 C405 1.375 . S
C406 C407 1.367 . S
C406 H420 0.951 . S
C407 C403 1.383 . S
C407 C406 1.367 . S
C407 H421 0.950 . S
C408 C405 1.481 . S
C408 C409 1.297 . S
C408 H422 0.950 . S
C409 C408 1.297 . S
C409 C410 1.479 . S
C409 H423 0.950 . S
C410 C409 1.479 . S
C410 C411 1.375 . S
C410 C416 1.404 . S
C411 C410 1.375 . S
C411 C412 1.369 . S
C411 H424 0.950 . S
C412 C411 1.369 . S
C412 C413 1.392 . S
C412 H425 0.951 . S
C413 C412 1.392 . S
C413 C415 1.384 . S
H414 C416 0.949 . S
C415 C413 1.384 . S
C415 C416 1.385 . S
C415 H417 0.950 . S
C416 C410 1.404 . S
C416 H414 0.949 . S
C416 C415 1.385 . S
H417 C415 0.950 . S
H418 C402 0.951 . S
H419 C404 0.951 . S
H420 C406 0.951 . S
H421 C407 0.950 . S
H422 C408 0.950 . S
H423 C409 0.950 . S
H424 C411 0.950 . S
H425 C412 0.951 . S
C426 C427 1.386 1_655 S
C426 C428 1.383 1_655 S
C426 H442 0.951 . S
C427 C426 1.386 1_455 S
C427 C431 1.383 . S
C428 C426 1.383 1_455 S
C428 C429 1.402 . S
C428 H443 0.951 1_455 S
C429 C428 1.402 . S
C429 C430 1.375 . S
C429 C432 1.481 . S
C430 C429 1.375 . S
C430 C431 1.367 . S
C430 H444 0.951 . S
C431 C427 1.383 . S
C431 C430 1.367 . S
C431 H445 0.950 . S
C432 C429 1.481 . S
C432 C433 1.297 . S
C432 H446 0.950 . S
C433 C432 1.297 . S
C433 C434 1.479 1_554 S
C433 H447 0.950 . S
C434 C433 1.479 1_556 S
C434 C435 1.375 . S
C434 C440 1.404 . S
C435 C434 1.375 . S
C435 C436 1.369 . S
C435 H448 0.950 1_455 S
C436 C435 1.369 . S
C436 C437 1.392 . S
C436 H449 0.951 . S
C437 C436 1.392 . S
C437 C439 1.384 . S
H438 C440 0.949 . S
C439 C437 1.384 . S
C439 C440 1.385 . S
C439 H441 0.950 . S
C440 C434 1.404 . S
C440 H438 0.949 . S
C440 C439 1.385 . S
H441 C439 0.950 . S
H442 C426 0.951 . S
H443 C428 0.951 1_655 S
H444 C430 0.951 . S
H445 C431 0.950 . S
H446 C432 0.950 . S
H447 C433 0.950 . S
H448 C435 0.950 1_655 S
H449 C436 0.951 . S
C450 C451 1.386 . S
C450 C452 1.383 . S
C450 H466 0.951 . S
C451 C450 1.386 . S
C451 C455 1.383 . S
C452 C450 1.383 . S
C452 C453 1.402 . S
C452 H467 0.951 . S
C453 C452 1.402 . S
C453 C454 1.375 . S
C453 C456 1.481 . S
C454 C453 1.375 . S
C454 C455 1.367 . S
C454 H468 0.951 . S
C455 C451 1.383 . S
C455 C454 1.367 . S
C455 H469 0.950 . S
C456 C453 1.481 . S
C456 C457 1.297 . S
C456 H470 0.950 . S
C457 C456 1.297 . S
C457 C458 1.479 . S
C457 H471 0.950 . S
C458 C457 1.479 . S
C458 C459 1.375 . S
C458 C464 1.404 . S
C459 C458 1.375 . S
C459 C460 1.369 . S
C459 H472 0.950 . S
C460 C459 1.369 . S
C460 C461 1.392 . S
C460 H473 0.951 . S
C461 C460 1.392 . S
C461 C463 1.384 . S
H462 C464 0.949 . S
C463 C461 1.384 . S
C463 C464 1.385 . S
C463 H465 0.950 . S
C464 C458 1.404 . S
C464 H462 0.949 . S
C464 C463 1.385 . S
H465 C463 0.950 . S
H466 C450 0.951 . S
H467 C452 0.951 . S
H468 C454 0.951 . S
H469 C455 0.950 . S
H470 C456 0.950 . S
H471 C457 0.950 . S
H472 C459 0.950 . S
H473 C460 0.951 . S
C474 C475 1.386 . S
C474 C476 1.383 . S
C474 H490 0.951 . S
C475 C474 1.386 . S
C475 C479 1.383 . S
C476 C474 1.383 . S
C476 C477 1.402 . S
C476 H491 0.951 . S
C477 C476 1.402 . S
C477 C478 1.375 . S
C477 C480 1.481 . S
C478 C477 1.375 . S
C478 C479 1.367 . S
C478 H492 0.951 . S
C479 C475 1.383 . S
C479 C478 1.367 . S
C479 H493 0.950 . S
C480 C477 1.481 . S
C480 C481 1.297 . S
C480 H494 0.950 . S
C481 C480 1.297 . S
C481 C482 1.479 . S
C481 H495 0.950 . S
C482 C481 1.479 . S
C482 C483 1.375 . S
C482 C488 1.404 . S
C483 C482 1.375 . S
C483 C484 1.369 . S
C483 H496 0.950 . S
C484 C483 1.369 . S
C484 C485 1.392 . S
C484 H497 0.951 . S
C485 C484 1.392 . S
C485 C487 1.384 . S
H486 C488 0.949 . S
C487 C485 1.384 . S
C487 C488 1.385 . S
C487 H489 0.950 . S
C488 C482 1.404 . S
C488 H486 0.949 . S
C488 C487 1.385 . S
H489 C487 0.950 . S
H490 C474 0.951 . S
H491 C476 0.951 . S
H492 C478 0.951 . S
H493 C479 0.950 . S
H494 C480 0.950 . S
H495 C481 0.950 . S
H496 C483 0.950 . S
H497 C484 0.951 . S
C498 C499 1.386 . S
C498 C500 1.383 . S
C498 H514 0.951 . S
C499 C498 1.386 . S
C499 C503 1.383 1_545 S
C500 C498 1.383 . S
C500 C501 1.402 . S
C500 H515 0.951 . S
C501 C500 1.402 . S
C501 C502 1.375 1_545 S
C501 C504 1.481 . S
C502 C501 1.375 1_565 S
C502 C503 1.367 . S
C502 H516 0.951 . S
C503 C499 1.383 1_565 S
C503 C502 1.367 . S
C503 H517 0.950 . S
C504 C501 1.481 . S
C504 C505 1.297 . S
C504 H518 0.950 1_545 S
C505 C504 1.297 . S
C505 C506 1.479 . S
C505 H519 0.950 . S
C506 C505 1.479 . S
C506 C507 1.375 . S
C506 C512 1.404 1_545 S
C507 C506 1.375 . S
C507 C508 1.369 . S
C507 H520 0.950 . S
C508 C507 1.369 . S
C508 C509 1.392 . S
C508 H521 0.951 . S
C509 C508 1.392 . S
C509 C511 1.384 . S
H510 C512 0.949 . S
C511 C509 1.384 . S
C511 C512 1.385 1_545 S
C511 H513 0.950 1_545 S
C512 C506 1.404 1_565 S
C512 H510 0.949 . S
C512 C511 1.385 1_565 S
H513 C511 0.950 1_565 S
H514 C498 0.951 . S
H515 C500 0.951 . S
H516 C502 0.951 . S
H517 C503 0.950 . S
H518 C504 0.950 1_565 S
H519 C505 0.950 . S
H520 C507 0.950 . S
H521 C508 0.951 . S
C522 C523 1.386 . S
C522 C524 1.383 . S
C522 H538 0.951 . S
C523 C522 1.386 . S
C523 C527 1.383 . S
C524 C522 1.383 . S
C524 C525 1.402 . S
C524 H539 0.951 . S
C525 C524 1.402 . S
C525 C526 1.375 . S
C525 C528 1.481 . S
C526 C525 1.375 . S
C526 C527 1.367 . S
C526 H540 0.951 . S
C527 C523 1.383 . S
C527 C526 1.367 . S
C527 H541 0.950 . S
C528 C525 1.481 . S
C528 C529 1.297 . S
C528 H542 0.950 . S
C529 C528 1.297 . S
C529 C530 1.479 1_556 S
C529 H543 0.950 . S
C530 C529 1.479 1_554 S
C530 C531 1.375 . S
C530 C536 1.404 . S
C531 C530 1.375 . S
C531 C532 1.369 . S
C531 H544 0.950 . S
C532 C531 1.369 . S
C532 C533 1.392 . S
C532 H545 0.951 . S
C533 C532 1.392 . S
C533 C535 1.384 . S
H534 C536 0.949 . S
C535 C533 1.384 . S
C535 C536 1.385 . S
C535 H537 0.950 . S
C536 C530 1.404 . S
C536 H534 0.949 . S
C536 C535 1.385 . S
H537 C535 0.950 . S
H538 C522 0.951 . S
H539 C524 0.951 . S
H540 C526 0.951 . S
H541 C527 0.950 . S
H542 C528 0.950 . S
H543 C529 0.950 . S
H544 C531 0.950 . S
H545 C532 0.951 . S
C546 C547 1.386 . S
C546 C548 1.383 . S
C546 H562 0.951 . S
C547 C546 1.386 . S
C547 C551 1.383 1_455 S
C548 C546 1.383 . S
C548 C549 1.402 . S
C548 H563 0.951 . S
C549 C548 1.402 . S
C549 C550 1.375 1_455 S
C549 C552 1.481 . S
C550 C549 1.375 1_655 S
C550 C551 1.367 . S
C550 H564 0.951 . S
C551 C547 1.383 1_655 S
C551 C550 1.367 . S
C551 H565 0.950 . S
C552 C549 1.481 . S
C552 C553 1.297 . S
C552 H566 0.950 . S
C553 C552 1.297 . S
C553 C554 1.479 . S
C553 H567 0.950 . S
C554 C553 1.479 . S
C554 C555 1.375 . S
C554 C560 1.404 . S
C555 C554 1.375 . S
C555 C556 1.369 . S
C555 H568 0.950 . S
C556 C555 1.369 . S
C556 C557 1.392 . S
C556 H569 0.951 . S
C557 C556 1.392 . S
C557 C559 1.384 . S
H558 C560 0.949 . S
C559 C557 1.384 . S
C559 C560 1.385 . S
C559 H561 0.950 . S
C560 C554 1.404 . S
C560 H558 0.949 . S
C560 C559 1.385 . S
H561 C559 0.950 . S
H562 C546 0.951 . S
H563 C548 0.951 . S
H564 C550 0.951 . S
H565 C551 0.950 . S
H566 C552 0.950 . S
H567 C553 0.950 . S
H568 C555 0.950 . S
H569 C556 0.951 . S
C139 C2 1.434 . S
C149 C129 1.420 . S
C163 C22 1.212 . S
C173 C107 1.326 . S
C187 C44 1.269 . S
C197 C120 1.361 . S
C211 C4 1.414 . S
C221 C133 1.497 . S
C245 C103 1.598 . S
C235 C24 1.612 . S
C269 C116 1.519 . S
C259 C42 1.571 . S
C283 C32 1.177 . S
C293 C81 1.186 . S
C307 C49 1.068 . S
C317 C94 1.078 . S
C331 C9 1.299 . S
C341 C64 1.220 . S
C365 C77 1.256 . S
C355 C29 1.249 . S
C389 C90 1.313 . S
C379 C52 1.341 . S
C403 C12 1.212 . S
C413 C68 1.231 . S
C437 C95 1.481 . S
C427 C18 1.507 . S
C451 C38 1.536 . S
C461 C69 1.536 . S
C475 C58 1.491 . S
C485 C82 1.503 . S
C509 C121 1.579 . S
C499 C39 1.587 . S
C533 C134 1.537 . S
C523 C59 1.513 . S
C547 C19 1.548 . S
C557 C108 1.560 . S
