# Generated by pormake.
# Topology pth, (4,4)-cn, num edge types: 1
# Building blocks:
#     Node 0, Type 0, BuildingBlock: GALJAG_clean_sbu_0, # of connection points: 4
#     Node 1, Type 0, BuildingBlock: GALJAG_clean_sbu_0, # of connection points: 4
#     Node 2, Type 0, BuildingBlock: GALJAG_clean_sbu_0, # of connection points: 4
#     Node 3, Type 1, BuildingBlock: NAWXER_clean_linker_0, # of connection points: 4
#     Node 4, Type 1, BuildingBlock: NAWXER_clean_linker_0, # of connection points: 4
#     Node 5, Type 1, BuildingBlock: NAWXER_clean_linker_0, # of connection points: 4
#     Edge 6, Type (0, 1), BuildingBlock: OJICUG_clean_linker_0, # of connection points: 2
#     Edge 7, Type (0, 1), BuildingBlock: OJICUG_clean_linker_0, # of connection points: 2
#     Edge 8, Type (0, 1), BuildingBlock: OJICUG_clean_linker_0, # of connection points: 2
#     Edge 9, Type (0, 1), BuildingBlock: OJICUG_clean_linker_0, # of connection points: 2
#     Edge 10, Type (0, 1), BuildingBlock: OJICUG_clean_linker_0, # of connection points: 2
#     Edge 11, Type (0, 1), BuildingBlock: OJICUG_clean_linker_0, # of connection points: 2
#     Edge 12, Type (0, 1), BuildingBlock: OJICUG_clean_linker_0, # of connection points: 2
#     Edge 13, Type (0, 1), BuildingBlock: OJICUG_clean_linker_0, # of connection points: 2
#     Edge 14, Type (0, 1), BuildingBlock: OJICUG_clean_linker_0, # of connection points: 2
#     Edge 15, Type (0, 1), BuildingBlock: OJICUG_clean_linker_0, # of connection points: 2
#     Edge 16, Type (0, 1), BuildingBlock: OJICUG_clean_linker_0, # of connection points: 2
#     Edge 17, Type (0, 1), BuildingBlock: OJICUG_clean_linker_0, # of connection points: 2
# Relax obj value: 0.002
# Max RMSD: 0.036
# Mean RMSD: 0.021
data_MOF--net-pth--node1-GALJAG_clean_sbu_0--node2-NAWXER_clean_linker_0--edge1-OJICUG_clean_linker_0
_symmetry_space_group_name_H-M    P1
_symmetry_Int_Tables_number       1
_symmetry_cell_setting            triclinic
loop_
_symmetry_equiv_pos_as_xyz
'x, y, z'
_cell_length_a     22.945345
_cell_length_b     22.931871
_cell_length_c     49.692932
_cell_angle_alpha  90.205212
_cell_angle_beta   90.138449
_cell_angle_gamma 119.98312
loop_
_atom_site_label
_atom_site_type_symbol
_atom_site_fract_x
_atom_site_fract_y
_atom_site_fract_z
_atom_type_partial_charge
In0 In 0.00666 0.00221 0.04506 0.0
O1 O 0.94687 0.04555 0.06552 0.0
O2 O 0.05274 0.09454 0.07194 0.0
C3 C 0.90959 0.91064 0.01252 0.0
C4 C 0.10184 0.08659 0.01056 0.0
C5 C 0.01848 0.9187 0.07994 0.0
O6 O 0.90301 0.95566 0.02458 0.0
O7 O 0.9645 0.91231 0.01697 0.0
O8 O 0.05255 0.93872 0.05863 0.0
O9 O 0.97959 0.9418 0.08392 0.0
C10 C -0.0018 0.09332 0.07674 0.0
O11 O 0.11586 0.06507 0.03153 0.0
O12 O 0.03995 0.06493 0.00686 0.0
In13 In -0.00138 0.00266 0.37807 0.0
O14 O 0.04966 0.11119 0.36317 0.0
O15 O 0.96696 0.03651 0.34053 0.0
C16 C 0.08993 0.00692 0.41352 0.0
C17 C 0.901 0.99621 0.41032 0.0
C18 C 0.99443 0.90922 0.34393 0.0
O19 O 0.10322 0.05473 0.39758 0.0
O20 O 0.03071 0.95793 0.41177 0.0
O21 O 0.94266 0.90145 0.35609 0.0
O22 O 0.04758 0.96411 0.34887 0.0
C23 C 0.01101 0.09778 0.34311 0.0
O24 O 0.89468 0.94523 0.39787 0.0
O25 O 0.95607 0.04951 0.40649 0.0
In26 In -0.00182 -0.00034 0.71167 0.0
O27 O 0.95144 0.89724 0.73254 0.0
O28 O 0.91754 0.96492 0.74372 0.0
C29 C 0.08438 0.99337 0.6766 0.0
C30 C 0.90987 0.00398 0.67701 0.0
C31 C 0.08649 0.09371 0.74607 0.0
O32 O 0.04529 0.94378 0.691 0.0
O33 O 0.07902 0.0451 0.6797 0.0
O34 O 0.04323 0.10157 0.7333 0.0
O35 O 0.08433 0.03845 0.74169 0.0
C36 C 0.91236 0.90798 0.74692 0.0
O37 O 0.95267 0.05544 0.68985 0.0
O38 O 0.9124 0.95119 0.68147 0.0
C39 C 0.95518 0.28338 0.25716 0.0
C40 C 0.01174 0.30018 0.27354 0.0
C41 C 0.95253 0.3321 0.24122 0.0
C42 C 0.00597 0.39869 0.24157 0.0
C43 C 0.06539 0.36714 0.27353 0.0
C44 C 0.06207 0.41599 0.25798 0.0
C45 C 0.00303 0.4511 0.2255 0.0
C46 C 0.03988 0.3216 0.16784 0.0
C47 C 0.99184 0.29204 0.14708 0.0
C48 C 0.0413 0.37186 0.18424 0.0
C49 C 0.99375 0.39272 0.18068 0.0
C50 C 0.94455 0.31336 0.14344 0.0
C51 C 0.94569 0.36334 0.16002 0.0
C52 C 0.99615 0.44781 0.19721 0.0
C53 C 0.05093 0.7282 0.17156 0.0
C54 C 0.01111 0.71302 0.14833 0.0
C55 C 0.04725 0.67648 0.18754 0.0
C56 C 0.0016 0.60866 0.18115 0.0
C57 C 0.96712 0.64554 0.14137 0.0
C58 C 0.96218 0.5938 0.15771 0.0
C59 C -0.00203 0.55291 0.19753 0.0
C60 C 0.94699 0.67257 0.25498 0.0
C61 C 0.99537 0.70543 0.27534 0.0
C62 C 0.9489 0.62349 0.23884 0.0
C63 C -0.00063 0.60663 0.24271 0.0
C64 C 0.04508 0.68756 0.27944 0.0
C65 C 0.04673 0.63829 0.26341 0.0
C66 C 0.00178 0.55442 0.22598 0.0
H67 H 0.91219 0.2329 0.25701 0.0
H68 H 0.90832 0.31808 0.22895 0.0
H69 H 0.11033 0.38196 0.2854 0.0
H70 H 0.10384 0.46726 0.25846 0.0
H71 H 0.07674 0.30612 0.1714 0.0
H72 H 0.08047 0.39521 0.19935 0.0
H73 H 0.9076 0.2926 0.12739 0.0
H74 H 0.90909 0.37928 0.15663 0.0
H75 H 0.08598 0.78005 0.17699 0.0
H76 H 0.08096 0.68974 0.20462 0.0
H77 H 0.93614 0.63294 0.12342 0.0
H78 H 0.92743 0.54206 0.15202 0.0
H79 H 0.9082 0.68539 0.25132 0.0
H80 H 0.91088 0.5986 0.22337 0.0
H81 H 0.08235 0.71121 0.29526 0.0
H82 H 0.08555 0.62543 0.26697 0.0
N83 N 0.00531 0.50404 0.23879 0.0
N84 N 0.9942 0.49902 0.18435 0.0
C85 C 0.7155 0.03981 0.50111 0.0
C86 C 0.6973 0.99231 0.48013 0.0
C87 C 0.66642 0.04057 0.51745 0.0
C88 C 0.59816 0.99275 0.51364 0.0
C89 C 0.62875 0.94532 0.47607 0.0
C90 C 0.57977 0.94566 0.49262 0.0
C91 C 0.54521 0.99336 0.53043 0.0
C92 C 0.67627 0.95532 0.58668 0.0
C93 C 0.70629 0.00304 0.60755 0.0
C94 C 0.62488 0.95352 0.57092 0.0
C95 C 0.60355 0.00053 0.57519 0.0
C96 C 0.68372 0.04908 0.61213 0.0
C97 C 0.63289 0.04773 0.59614 0.0
C98 C 0.54881 -0.00075 0.55885 0.0
C99 C 0.27243 0.94469 0.58822 0.0
C100 C 0.288 0.99445 0.60796 0.0
C101 C 0.32315 0.94627 0.57218 0.0
C102 C 0.39032 0.99761 0.57561 0.0
C103 C 0.35536 0.04544 0.61148 0.0
C104 C 0.40611 0.04663 0.59561 0.0
C105 C 0.44457 -0.00121 0.55919 0.0
C106 C 0.32525 0.05083 0.50217 0.0
C107 C 0.28938 0.0007 0.48273 0.0
C108 C 0.37411 0.04819 0.51812 0.0
C109 C 0.38809 0.99554 0.51482 0.0
C110 C 0.3036 0.94817 0.47944 0.0
C111 C 0.35302 0.94601 0.49517 0.0
C112 C 0.44143 0.99373 0.53088 0.0
H113 H 0.76776 0.07645 0.50501 0.0
H114 H 0.68191 0.07885 0.53295 0.0
H115 H 0.61267 0.90893 0.4598 0.0
H116 H 0.52734 0.90896 0.489 0.0
H117 H 0.69254 0.91935 0.58241 0.0
H118 H 0.60168 0.91515 0.55546 0.0
H119 H 0.70448 0.08554 0.62836 0.0
H120 H 0.61655 0.08384 0.60012 0.0
H121 H 0.22097 0.90492 0.58502 0.0
H122 H 0.30997 0.90699 0.55727 0.0
H123 H 0.36893 0.08391 0.62679 0.0
H124 H 0.4577 0.0862 0.59879 0.0
H125 H 0.31516 0.09177 0.50514 0.0
H126 H 0.4016 0.08775 0.53279 0.0
H127 H 0.27725 0.90935 0.46438 0.0
H128 H 0.36362 0.90541 0.49212 0.0
N129 N 0.49149 0.99062 0.51761 0.0
N130 N 0.49837 0.00195 0.57207 0.0
C131 C 0.32026 0.28014 0.83603 0.0
C132 C 0.28971 0.29794 0.81553 0.0
C133 C 0.37176 0.32956 0.85184 0.0
C134 C 0.39271 0.39792 0.84808 0.0
C135 C 0.31163 0.36656 0.8115 0.0
C136 C 0.36262 0.41595 0.82759 0.0
C137 C 0.44814 0.45109 0.8644 0.0
C138 C 0.28574 0.32733 0.92452 0.0
C139 C 0.30323 0.28884 0.94122 0.0
C140 C 0.33412 0.37844 0.90848 0.0
C141 C 0.40097 0.3924 0.90894 0.0
C142 C 0.37047 0.30311 0.94147 0.0
C143 C 0.41894 0.3549 0.92573 0.0
C144 C 0.45293 0.44731 0.89263 0.0
C145 C 0.67522 0.72373 0.92253 0.0
C146 C 0.70754 0.70737 0.94274 0.0
C147 C 0.62669 0.67344 0.90594 0.0
C148 C 0.60982 0.60594 0.9092 0.0
C149 C 0.69008 0.63969 0.94607 0.0
C150 C 0.64139 0.58947 0.92958 0.0
C151 C 0.55624 0.55171 0.89271 0.0
C152 C 0.72451 0.67216 0.83526 0.0
C153 C 0.70909 0.70678 0.8158 0.0
C154 C 0.67379 0.62321 0.85128 0.0
C155 C 0.60675 0.60802 0.84814 0.0
C156 C 0.64186 0.69106 0.81256 0.0
C157 C 0.5911 0.6417 0.82843 0.0
C158 C 0.55244 0.55487 0.86443 0.0
H159 H 0.3045 0.2279 0.83991 0.0
H160 H 0.39571 0.31412 0.86676 0.0
H161 H 0.29037 0.38236 0.79558 0.0
H162 H 0.37862 0.46841 0.824 0.0
H163 H 0.23495 0.31898 0.9242 0.0
H164 H 0.31956 0.40772 0.89598 0.0
H165 H 0.38576 0.274 0.95366 0.0
H166 H 0.47041 0.36508 0.92635 0.0
H167 H 0.68778 0.77544 0.91943 0.0
H168 H 0.60167 0.68721 0.89084 0.0
H169 H 0.71335 0.62539 0.96173 0.0
H170 H 0.62847 0.53764 0.93271 0.0
H171 H 0.77587 0.68334 0.83824 0.0
H172 H 0.68686 0.59671 0.86593 0.0
H173 H 0.62837 0.71626 0.79747 0.0
H174 H 0.53961 0.63015 0.82544 0.0
N175 N 0.49818 0.50484 0.85139 0.0
N176 N 0.50671 0.49766 0.90567 0.0
C177 C 0.05563 0.19982 0.10343 0.0
C178 C 0.99556 0.14402 0.09434 0.0
H179 H 0.10159 0.29073 0.12655 0.0
C180 C 0.93387 0.13721 0.10243 0.0
H181 H 0.10401 0.20675 0.09738 0.0
C182 C 0.93242 0.18509 0.11957 0.0
C183 C 0.99267 0.24087 0.12881 0.0
H184 H 0.88677 0.09455 0.09578 0.0
H185 H 0.88412 0.17784 0.12589 0.0
C186 C 0.05422 0.24777 0.12035 0.0
C187 C 0.85458 0.05487 0.43767 0.0
C188 C 0.84853 0.99447 0.428 0.0
H189 H 0.81114 0.10173 0.461 0.0
C190 C 0.79247 0.93312 0.43549 0.0
H191 H 0.89705 0.10301 0.43208 0.0
C192 C 0.74358 0.93225 0.45253 0.0
C193 C 0.74946 0.99279 0.4622 0.0
H194 H 0.78674 0.88578 0.42843 0.0
H195 H 0.70162 0.88407 0.45837 0.0
C196 C 0.80549 0.05408 0.45444 0.0
C197 C 0.86047 0.79596 0.76991 0.0
C198 C 0.86232 0.85727 0.76531 0.0
H199 H 0.81039 0.70013 0.78955 0.0
C200 C 0.81452 0.86929 0.7779 0.0
H201 H 0.89665 0.78532 0.76045 0.0
C202 C 0.76513 0.82058 0.79438 0.0
C203 C 0.76276 0.75899 0.79882 0.0
H204 H 0.81468 0.91609 0.77476 0.0
H205 H 0.72887 0.83124 0.80377 0.0
C206 C 0.81131 0.74738 0.78663 0.0
C207 C -0.00128 0.86282 0.12469 0.0
C208 C 0.02049 0.86878 0.09793 0.0
H209 H 0.98002 0.80902 0.16188 0.0
C210 C 0.04094 0.82435 0.08808 0.0
H211 H 0.98272 0.89651 0.13274 0.0
C212 C 0.03782 0.77354 0.10451 0.0
C213 C 0.01581 0.76752 0.1312 0.0
H214 H 0.05749 0.82764 0.06746 0.0
H215 H 0.05256 0.73891 0.09641 0.0
C216 C -0.00279 0.81304 0.14132 0.0
C217 C 0.12618 0.94708 0.44537 0.0
C218 C 0.14023 0.00659 0.43201 0.0
H219 H 0.1625 0.89869 0.47186 0.0
C220 C 0.20313 0.06475 0.43595 0.0
H221 H 0.07813 0.90144 0.44271 0.0
C222 C 0.25126 0.06323 0.45281 0.0
C223 C 0.23761 0.0033 0.46573 0.0
H224 H 0.21529 0.11129 0.4259 0.0
H225 H 0.29971 0.10851 0.45527 0.0
C226 C 0.17453 0.94536 0.46193 0.0
C227 C 0.19146 0.13902 0.77354 0.0
C228 C 0.13726 0.14555 0.76415 0.0
H229 H 0.28274 0.18247 0.79631 0.0
C230 C 0.13293 0.20222 0.77184 0.0
H231 H 0.19646 0.09614 0.76776 0.0
C232 C 0.18193 0.25141 0.7887 0.0
C233 C 0.23666 0.24524 0.79797 0.0
H234 H 0.09151 0.20839 0.76497 0.0
H235 H 0.17653 0.29393 0.79465 0.0
C236 C 0.24076 0.18842 0.7901 0.0
C237 C 0.86288 0.06515 0.6513 0.0
C238 C 0.8592 0.00443 0.65876 0.0
H239 H 0.81869 0.11261 0.62872 0.0
C240 C 0.80575 0.94348 0.64901 0.0
H241 H 0.90375 0.11291 0.65843 0.0
C242 C 0.7564 0.9431 0.6324 0.0
C243 C 0.7597 0.00376 0.62489 0.0
H244 H 0.80133 0.8958 0.65457 0.0
H245 H 0.71493 0.89503 0.62591 0.0
C246 C 0.81385 0.06486 0.63442 0.0
C247 C 0.79835 0.86047 0.9885 0.0
C248 C 0.8577 0.85954 0.99454 0.0
H249 H 0.70399 0.81279 0.96737 0.0
C250 C 0.8676 0.80896 0.98318 0.0
H251 H 0.78943 0.89889 0.99696 0.0
C252 C 0.819 0.75996 0.96631 0.0
C253 C 0.75944 0.76049 0.96032 0.0
H254 H 0.91295 0.80702 0.98738 0.0
H255 H 0.82836 0.7219 0.95776 0.0
C256 C 0.7497 0.81147 0.97146 0.0
C257 C 0.05416 0.86733 0.31468 0.0
C258 C 0.99376 0.85775 0.32577 0.0
H259 H 0.10185 0.82699 0.28991 0.0
C260 C 0.93343 0.79832 0.31971 0.0
H261 H 0.10146 0.9127 0.31892 0.0
C262 C 0.93369 0.74913 0.30304 0.0
C263 C 0.99434 0.7583 0.2923 0.0
H264 H 0.88612 0.7896 0.32798 0.0
H265 H 0.88663 0.70332 0.29902 0.0
C266 C 0.05447 0.81809 0.29819 0.0
C267 C 0.18283 0.05225 0.64594 0.0
C268 C 0.13459 0.99247 0.65831 0.0
H269 H 0.26895 0.09958 0.62031 0.0
C270 C 0.13613 0.93284 0.65356 0.0
H271 H 0.18293 0.09903 0.64921 0.0
C272 C 0.18536 0.93316 0.63689 0.0
C273 C 0.23433 0.99327 0.62491 0.0
H274 H 0.09959 0.88605 0.66285 0.0
H275 H 0.186 0.8867 0.63382 0.0
C276 C 0.23233 0.0527 0.62952 0.0
C277 C 0.22094 0.17353 0.00098 0.0
C278 C 0.15377 0.13574 0.9924 0.0
H279 H 0.32017 0.25282 0.99208 0.0
C280 C 0.13612 0.14711 0.96669 0.0
H281 H 0.23579 0.16615 0.02082 0.0
C282 C 0.18473 0.19576 0.9499 0.0
C283 C 0.2519 0.23497 0.95864 0.0
H284 H 0.08469 0.1183 0.9595 0.0
H285 H 0.16954 0.20241 0.93003 0.0
C286 C 0.26937 0.22298 0.98439 0.0
C287 C 0.04672 0.21759 0.33294 0.0
C288 C 0.01456 0.1499 0.32479 0.0
H289 H 0.06895 0.31748 0.32379 0.0
C290 C 0.98323 0.13196 0.29944 0.0
H291 H 0.07073 0.23266 0.35252 0.0
C292 C 0.9836 0.18079 0.28259 0.0
C293 C 0.01415 0.24854 0.29095 0.0
H294 H 0.95845 0.0801 0.2926 0.0
H295 H 0.95994 0.16525 0.26299 0.0
C296 C 0.04597 0.26626 0.31634 0.0
loop_
_geom_bond_atom_site_label_1
_geom_bond_atom_site_label_2
_geom_bond_distance
_geom_bond_site_symmetry_2
_ccdc_geom_bond_type
In0 O1 2.294 1_455 S
In0 O2 2.326 . S
In0 O6 2.266 1_445 S
In0 O7 2.326 1_445 S
In0 O8 2.266 1_545 S
In0 O9 2.326 1_445 S
In0 O11 2.294 . S
In0 O12 2.326 . S
O1 In0 2.294 1_655 S
O1 C10 1.240 1_655 S
O2 In0 2.326 . S
O2 C10 1.252 . S
C3 O6 1.252 . S
C3 O7 1.260 . S
C4 O11 1.240 . S
C4 O12 1.252 . S
C5 O8 1.252 1_655 S
C5 O9 1.260 . S
O6 In0 2.266 1_665 S
O6 C3 1.252 . S
O7 In0 2.326 1_665 S
O7 C3 1.260 . S
O8 In0 2.266 1_565 S
O8 C5 1.252 1_455 S
O9 In0 2.326 1_665 S
O9 C5 1.260 . S
C10 O1 1.240 1_455 S
C10 O2 1.252 . S
O11 In0 2.294 . S
O11 C4 1.240 . S
O12 In0 2.326 . S
O12 C4 1.252 . S
In13 O14 2.294 . S
In13 O15 2.326 1_455 S
In13 O19 2.266 . S
In13 O20 2.326 1_545 S
In13 O21 2.266 1_445 S
In13 O22 2.326 1_545 S
In13 O24 2.294 1_445 S
In13 O25 2.326 1_455 S
O14 In13 2.294 . S
O14 C23 1.240 1_455 S
O15 In13 2.326 1_655 S
O15 C23 1.252 . S
C16 O19 1.252 1_565 S
C16 O20 1.260 . S
C17 O24 1.240 1_545 S
C17 O25 1.252 . S
C18 O21 1.252 1_455 S
C18 O22 1.260 . S
O19 In13 2.266 . S
O19 C16 1.252 1_545 S
O20 In13 2.326 1_565 S
O20 C16 1.260 . S
O21 In13 2.266 1_665 S
O21 C18 1.252 1_655 S
O22 In13 2.326 1_565 S
O22 C18 1.260 . S
C23 O14 1.240 1_655 S
C23 O15 1.252 . S
O24 In13 2.294 1_665 S
O24 C17 1.240 1_565 S
O25 In13 2.326 1_655 S
O25 C17 1.252 . S
In26 O27 2.294 1_445 S
In26 O28 2.326 1_445 S
In26 O32 2.266 1_545 S
In26 O33 2.326 . S
In26 O34 2.266 . S
In26 O35 2.326 . S
In26 O37 2.294 1_455 S
In26 O38 2.326 1_445 S
O27 In26 2.294 1_665 S
O27 C36 1.240 . S
O28 In26 2.326 1_665 S
O28 C36 1.252 . S
C29 O32 1.252 1_545 S
C29 O33 1.260 . S
C30 O37 1.240 1_565 S
C30 O38 1.252 . S
C31 O34 1.252 . S
C31 O35 1.260 . S
O32 In26 2.266 1_565 S
O32 C29 1.252 1_565 S
O33 In26 2.326 . S
O33 C29 1.260 . S
O34 In26 2.266 . S
O34 C31 1.252 . S
O35 In26 2.326 . S
O35 C31 1.260 . S
C36 O27 1.240 . S
C36 O28 1.252 . S
O37 In26 2.294 1_655 S
O37 C30 1.240 1_545 S
O38 In26 2.326 1_665 S
O38 C30 1.252 . S
C39 C40 1.384 1_655 S
C39 C41 1.384 . S
C39 H67 0.931 . S
C40 C39 1.384 1_455 S
C40 C43 1.382 . S
C41 C39 1.384 . S
C41 C42 1.381 1_655 S
C41 H68 0.930 . S
C42 C41 1.381 1_455 S
C42 C44 1.381 . S
C42 C45 1.487 . S
C43 C40 1.382 . S
C43 C44 1.387 . S
C43 H69 0.930 . S
C44 C42 1.381 . S
C44 C43 1.387 . S
C44 H70 0.931 . S
C45 C42 1.487 . S
C45 C52 1.399 . S
C45 N83 1.343 . S
C46 C47 1.384 . S
C46 C48 1.384 . S
C46 H71 0.931 . S
C47 C46 1.384 . S
C47 C50 1.382 1_455 S
C48 C46 1.384 . S
C48 C49 1.391 . S
C48 H72 0.930 . S
C49 C48 1.391 . S
C49 C51 1.376 1_455 S
C49 C52 1.483 . S
C50 C47 1.382 1_655 S
C50 C51 1.387 . S
C50 H73 0.930 . S
C51 C49 1.376 1_655 S
C51 C50 1.387 . S
C51 H74 0.931 . S
C52 C45 1.399 . S
C52 C49 1.483 . S
C52 N84 1.343 1_455 S
C53 C54 1.384 . S
C53 C55 1.384 . S
C53 H75 0.931 . S
C54 C53 1.384 . S
C54 C57 1.382 1_455 S
C55 C53 1.384 . S
C55 C56 1.384 . S
C55 H76 0.930 . S
C56 C55 1.384 . S
C56 C58 1.375 1_455 S
C56 C59 1.491 . S
C57 C54 1.382 1_655 S
C57 C58 1.387 . S
C57 H77 0.930 . S
C58 C56 1.375 1_655 S
C58 C57 1.387 . S
C58 H78 0.931 . S
C59 C56 1.491 . S
C59 C66 1.399 . S
C59 N84 1.343 1_455 S
C60 C61 1.384 1_655 S
C60 C62 1.384 . S
C60 H79 0.931 . S
C61 C60 1.384 1_455 S
C61 C64 1.382 . S
C62 C60 1.384 . S
C62 C63 1.381 1_655 S
C62 H80 0.930 . S
C63 C62 1.381 1_455 S
C63 C65 1.381 . S
C63 C66 1.487 . S
C64 C61 1.382 . S
C64 C65 1.387 . S
C64 H81 0.930 . S
C65 C63 1.381 . S
C65 C64 1.387 . S
C65 H82 0.931 . S
C66 C59 1.399 . S
C66 C63 1.487 . S
C66 N83 1.343 . S
H67 C39 0.931 . S
H68 C41 0.930 . S
H69 C43 0.930 . S
H70 C44 0.931 . S
H71 C46 0.931 . S
H72 C48 0.930 . S
H73 C50 0.930 . S
H74 C51 0.931 . S
H75 C53 0.931 . S
H76 C55 0.930 . S
H77 C57 0.930 . S
H78 C58 0.931 . S
H79 C60 0.931 . S
H80 C62 0.930 . S
H81 C64 0.930 . S
H82 C65 0.931 . S
N83 C45 1.343 . S
N83 C66 1.343 . S
N84 C52 1.343 1_655 S
N84 C59 1.343 1_655 S
C85 C86 1.384 . S
C85 C87 1.384 . S
C85 H113 0.931 . S
C86 C85 1.384 . S
C86 C89 1.382 1_545 S
C87 C85 1.384 . S
C87 C88 1.378 1_545 S
C87 H114 0.930 . S
C88 C87 1.378 1_565 S
C88 C90 1.392 . S
C88 C91 1.480 . S
C89 C86 1.382 1_565 S
C89 C90 1.387 . S
C89 H115 0.930 . S
C90 C88 1.392 . S
C90 C89 1.387 . S
C90 H116 0.931 . S
C91 C88 1.480 . S
C91 C98 1.399 1_565 S
C91 N129 1.343 . S
C92 C93 1.384 1_565 S
C92 C94 1.384 . S
C92 H117 0.931 . S
C93 C92 1.384 1_545 S
C93 C96 1.382 . S
C94 C92 1.384 . S
C94 C95 1.381 1_565 S
C94 H118 0.930 . S
C95 C94 1.381 1_545 S
C95 C97 1.381 . S
C95 C98 1.487 . S
C96 C93 1.382 . S
C96 C97 1.387 . S
C96 H119 0.930 . S
C97 C95 1.381 . S
C97 C96 1.387 . S
C97 H120 0.931 . S
C98 C91 1.399 1_545 S
C98 C95 1.487 . S
C98 N130 1.343 . S
C99 C100 1.384 1_565 S
C99 C101 1.384 . S
C99 H121 0.931 . S
C100 C99 1.384 1_545 S
C100 C103 1.382 . S
C101 C99 1.384 . S
C101 C102 1.381 1_565 S
C101 H122 0.930 . S
C102 C101 1.381 1_545 S
C102 C104 1.381 . S
C102 C105 1.487 . S
C103 C100 1.382 . S
C103 C104 1.387 . S
C103 H123 0.930 . S
C104 C102 1.381 . S
C104 C103 1.387 . S
C104 H124 0.931 . S
C105 C102 1.487 . S
C105 C112 1.399 1_545 S
C105 N130 1.343 . S
C106 C107 1.384 . S
C106 C108 1.384 . S
C106 H125 0.931 . S
C107 C106 1.384 . S
C107 C110 1.382 1_545 S
C108 C106 1.384 . S
C108 C109 1.364 1_545 S
C108 H126 0.930 . S
C109 C108 1.364 1_565 S
C109 C111 1.391 . S
C109 C112 1.494 . S
C110 C107 1.382 1_565 S
C110 C111 1.387 . S
C110 H127 0.930 . S
C111 C109 1.391 . S
C111 C110 1.387 . S
C111 H128 0.931 . S
C112 C105 1.399 1_565 S
C112 C109 1.494 . S
C112 N129 1.343 . S
H113 C85 0.931 . S
H114 C87 0.930 . S
H115 C89 0.930 . S
H116 C90 0.931 . S
H117 C92 0.931 . S
H118 C94 0.930 . S
H119 C96 0.930 . S
H120 C97 0.931 . S
H121 C99 0.931 . S
H122 C101 0.930 . S
H123 C103 0.930 . S
H124 C104 0.931 . S
H125 C106 0.931 . S
H126 C108 0.930 . S
H127 C110 0.930 . S
H128 C111 0.931 . S
N129 C91 1.343 . S
N129 C112 1.343 . S
N130 C98 1.343 . S
N130 C105 1.343 . S
C131 C132 1.384 . S
C131 C133 1.384 . S
C131 H159 0.931 . S
C132 C131 1.384 . S
C132 C135 1.382 . S
C133 C131 1.384 . S
C133 C134 1.381 . S
C133 H160 0.930 . S
C134 C133 1.381 . S
C134 C136 1.381 . S
C134 C137 1.487 . S
C135 C132 1.382 . S
C135 C136 1.387 . S
C135 H161 0.930 . S
C136 C134 1.381 . S
C136 C135 1.387 . S
C136 H162 0.931 . S
C137 C134 1.487 . S
C137 C144 1.399 . S
C137 N175 1.343 . S
C138 C139 1.384 . S
C138 C140 1.384 . S
C138 H163 0.931 . S
C139 C138 1.384 . S
C139 C142 1.382 . S
C140 C138 1.384 . S
C140 C141 1.381 . S
C140 H164 0.930 . S
C141 C140 1.381 . S
C141 C143 1.381 . S
C141 C144 1.487 . S
C142 C139 1.382 . S
C142 C143 1.387 . S
C142 H165 0.930 . S
C143 C141 1.381 . S
C143 C142 1.387 . S
C143 H166 0.931 . S
C144 C137 1.399 . S
C144 C141 1.487 . S
C144 N176 1.343 . S
C145 C146 1.384 . S
C145 C147 1.384 . S
C145 H167 0.931 . S
C146 C145 1.384 . S
C146 C149 1.382 . S
C147 C145 1.384 . S
C147 C148 1.381 . S
C147 H168 0.930 . S
C148 C147 1.381 . S
C148 C150 1.381 . S
C148 C151 1.487 . S
C149 C146 1.382 . S
C149 C150 1.387 . S
C149 H169 0.930 . S
C150 C148 1.381 . S
C150 C149 1.387 . S
C150 H170 0.931 . S
C151 C148 1.487 . S
C151 C158 1.399 . S
C151 N176 1.343 . S
C152 C153 1.384 . S
C152 C154 1.384 . S
C152 H171 0.931 . S
C153 C152 1.384 . S
C153 C156 1.382 . S
C154 C152 1.384 . S
C154 C155 1.381 . S
C154 H172 0.930 . S
C155 C154 1.381 . S
C155 C157 1.381 . S
C155 C158 1.487 . S
C156 C153 1.382 . S
C156 C157 1.387 . S
C156 H173 0.930 . S
C157 C155 1.381 . S
C157 C156 1.387 . S
C157 H174 0.931 . S
C158 C151 1.399 . S
C158 C155 1.487 . S
C158 N175 1.343 . S
H159 C131 0.931 . S
H160 C133 0.930 . S
H161 C135 0.930 . S
H162 C136 0.931 . S
H163 C138 0.931 . S
H164 C140 0.930 . S
H165 C142 0.930 . S
H166 C143 0.931 . S
H167 C145 0.931 . S
H168 C147 0.930 . S
H169 C149 0.930 . S
H170 C150 0.931 . S
H171 C152 0.931 . S
H172 C154 0.930 . S
H173 C156 0.930 . S
H174 C157 0.931 . S
N175 C137 1.343 . S
N175 C158 1.343 . S
N176 C144 1.343 . S
N176 C151 1.343 . S
C177 C178 1.387 . S
C177 H181 0.950 . S
C177 C186 1.390 . S
C178 C177 1.387 . S
C178 C180 1.387 1_455 S
H179 C186 0.950 . S
C180 C178 1.387 1_655 S
C180 C182 1.390 . S
C180 H184 0.950 . S
H181 C177 0.950 . S
C182 C180 1.390 . S
C182 C183 1.387 1_655 S
C182 H185 0.950 . S
C183 C182 1.387 1_455 S
C183 C186 1.387 . S
H184 C180 0.950 . S
H185 C182 0.950 . S
C186 C177 1.390 . S
C186 H179 0.950 . S
C186 C183 1.387 . S
C187 C188 1.387 . S
C187 H191 0.950 . S
C187 C196 1.390 . S
C188 C187 1.387 . S
C188 C190 1.387 1_545 S
H189 C196 0.950 . S
C190 C188 1.387 1_565 S
C190 C192 1.390 . S
C190 H194 0.950 . S
H191 C187 0.950 . S
C192 C190 1.390 . S
C192 C193 1.387 1_565 S
C192 H195 0.950 . S
C193 C192 1.387 1_545 S
C193 C196 1.387 . S
H194 C190 0.950 . S
H195 C192 0.950 . S
C196 C187 1.390 . S
C196 H189 0.950 . S
C196 C193 1.387 . S
C197 C198 1.387 . S
C197 H201 0.950 . S
C197 C206 1.390 . S
C198 C197 1.387 . S
C198 C200 1.387 . S
H199 C206 0.950 . S
C200 C198 1.387 . S
C200 C202 1.390 . S
C200 H204 0.950 . S
H201 C197 0.950 . S
C202 C200 1.390 . S
C202 C203 1.387 . S
C202 H205 0.950 . S
C203 C202 1.387 . S
C203 C206 1.387 . S
H204 C200 0.950 . S
H205 C202 0.950 . S
C206 C197 1.390 . S
C206 H199 0.950 . S
C206 C203 1.387 . S
C207 C208 1.387 1_655 S
C207 H211 0.950 . S
C207 C216 1.390 . S
C208 C207 1.387 1_455 S
C208 C210 1.390 . S
H209 C216 0.950 . S
C210 C208 1.390 . S
C210 C212 1.390 . S
C210 H214 0.950 . S
H211 C207 0.950 . S
C212 C210 1.390 . S
C212 C213 1.387 . S
C212 H215 0.950 . S
C213 C212 1.387 . S
C213 C216 1.387 1_455 S
H214 C210 0.950 . S
H215 C212 0.950 . S
C216 C207 1.390 . S
C216 H209 0.950 . S
C216 C213 1.387 1_655 S
C217 C218 1.387 . S
C217 H221 0.950 . S
C217 C226 1.390 . S
C218 C217 1.387 . S
C218 C220 1.387 1_565 S
H219 C226 0.950 . S
C220 C218 1.387 1_545 S
C220 C222 1.390 . S
C220 H224 0.950 . S
H221 C217 0.950 . S
C222 C220 1.390 . S
C222 C223 1.387 . S
C222 H225 0.950 . S
C223 C222 1.387 . S
C223 C226 1.387 1_545 S
H224 C220 0.950 . S
H225 C222 0.950 . S
C226 C217 1.390 . S
C226 H219 0.950 . S
C226 C223 1.387 1_565 S
C227 C228 1.387 . S
C227 H231 0.950 . S
C227 C236 1.390 . S
C228 C227 1.387 . S
C228 C230 1.387 . S
H229 C236 0.950 . S
C230 C228 1.387 . S
C230 C232 1.390 . S
C230 H234 0.950 . S
H231 C227 0.950 . S
C232 C230 1.390 . S
C232 C233 1.387 . S
C232 H235 0.950 . S
C233 C232 1.387 . S
C233 C236 1.387 . S
H234 C230 0.950 . S
H235 C232 0.950 . S
C236 C227 1.390 . S
C236 H229 0.950 . S
C236 C233 1.387 . S
C237 C238 1.387 1_545 S
C237 H241 0.950 . S
C237 C246 1.390 . S
C238 C237 1.387 1_565 S
C238 C240 1.387 . S
H239 C246 0.950 . S
C240 C238 1.387 . S
C240 C242 1.390 . S
C240 H244 0.950 . S
H241 C237 0.950 . S
C242 C240 1.390 . S
C242 C243 1.372 1_565 S
C242 H245 0.950 . S
C243 C242 1.372 1_545 S
C243 C246 1.396 . S
H244 C240 0.950 . S
H245 C242 0.950 . S
C246 C237 1.390 . S
C246 H239 0.950 . S
C246 C243 1.396 . S
C247 C248 1.387 . S
C247 H251 0.950 1_556 S
C247 C256 1.390 . S
C248 C247 1.387 . S
C248 C250 1.387 . S
H249 C256 0.950 . S
C250 C248 1.387 . S
C250 C252 1.390 . S
C250 H254 0.950 . S
H251 C247 0.950 1_554 S
C252 C250 1.390 . S
C252 C253 1.387 . S
C252 H255 0.950 . S
C253 C252 1.387 . S
C253 C256 1.387 . S
H254 C250 0.950 . S
H255 C252 0.950 . S
C256 C247 1.390 . S
C256 H249 0.950 . S
C256 C253 1.387 . S
C257 C258 1.387 . S
C257 H261 0.950 . S
C257 C266 1.390 . S
C258 C257 1.387 . S
C258 C260 1.387 1_455 S
H259 C266 0.950 . S
C260 C258 1.387 1_655 S
C260 C262 1.390 . S
C260 H264 0.950 . S
H261 C257 0.950 . S
C262 C260 1.390 . S
C262 C263 1.387 1_655 S
C262 H265 0.950 . S
C263 C262 1.387 1_455 S
C263 C266 1.387 . S
H264 C260 0.950 . S
H265 C262 0.950 . S
C266 C257 1.390 . S
C266 H259 0.950 . S
C266 C263 1.387 . S
C267 C268 1.387 . S
C267 H271 0.950 . S
C267 C276 1.390 . S
C268 C267 1.387 . S
C268 C270 1.387 1_545 S
H269 C276 0.950 . S
C270 C268 1.387 1_565 S
C270 C272 1.390 . S
C270 H274 0.950 . S
H271 C267 0.950 . S
C272 C270 1.390 . S
C272 C273 1.387 1_565 S
C272 H275 0.950 . S
C273 C272 1.387 1_545 S
C273 C276 1.387 . S
H274 C270 0.950 . S
H275 C272 0.950 . S
C276 C267 1.390 . S
C276 H269 0.950 . S
C276 C273 1.387 . S
C277 C278 1.387 1_554 S
C277 H281 0.950 . S
C277 C286 1.390 1_554 S
C278 C277 1.387 1_556 S
C278 C280 1.387 . S
H279 C286 0.935 1_554 S
C280 C278 1.387 . S
C280 C282 1.390 . S
C280 H284 0.950 . S
H281 C277 0.950 . S
C282 C280 1.390 . S
C282 C283 1.387 . S
C282 H285 0.950 . S
C283 C282 1.387 . S
C283 C286 1.387 . S
H284 C280 0.950 . S
H285 C282 0.950 . S
C286 C277 1.390 1_556 S
C286 H279 0.935 1_556 S
C286 C283 1.387 . S
C287 C288 1.387 1_455 S
C287 H291 0.950 . S
C287 C296 1.390 . S
C288 C287 1.387 1_655 S
C288 C290 1.387 . S
H289 C296 0.950 . S
C290 C288 1.387 . S
C290 C292 1.390 . S
C290 H294 0.950 . S
H291 C287 0.950 . S
C292 C290 1.390 . S
C292 C293 1.387 1_655 S
C292 H295 0.950 . S
C293 C292 1.387 1_455 S
C293 C296 1.387 . S
H294 C290 0.950 . S
H295 C292 0.950 . S
C296 C287 1.390 . S
C296 H289 0.950 . S
C296 C293 1.387 . S
C183 C47 1.516 . S
C178 C10 1.516 . S
C188 C17 1.516 . S
C193 C86 1.516 . S
C198 C36 1.517 . S
C203 C153 1.515 . S
C208 C5 1.516 1_455 S
C213 C54 1.516 . S
C223 C107 1.516 . S
C218 C16 1.518 . S
C228 C31 1.517 . S
C233 C132 1.516 . S
C243 C93 1.523 . S
C238 C30 1.516 . S
C248 C3 1.517 1_556 S
C253 C146 1.515 . S
C263 C61 1.516 . S
C258 C18 1.518 . S
C273 C100 1.516 . S
C268 C29 1.518 . S
C283 C139 1.517 . S
C278 C4 1.517 1_556 S
C288 C23 1.516 . S
C293 C40 1.515 . S
