# Generated by pormake.
# Topology hwx, (6,3)-cn, num edge types: 1
# Building blocks:
#     Node 0, Type 0, BuildingBlock: OJICUG_clean_sbu_0, # of connection points: 6
#     Node 1, Type 0, BuildingBlock: OJICUG_clean_sbu_0, # of connection points: 6
#     Node 2, Type 0, BuildingBlock: OJICUG_clean_sbu_0, # of connection points: 6
#     Node 3, Type 0, BuildingBlock: OJICUG_clean_sbu_0, # of connection points: 6
#     Node 4, Type 1, BuildingBlock: KAKCAD_clean_linker_0, # of connection points: 3
#     Node 5, Type 1, BuildingBlock: KAKCAD_clean_linker_0, # of connection points: 3
#     Node 6, Type 1, BuildingBlock: KAKCAD_clean_linker_0, # of connection points: 3
#     Node 7, Type 1, BuildingBlock: KAKCAD_clean_linker_0, # of connection points: 3
#     Node 8, Type 1, BuildingBlock: KAKCAD_clean_linker_0, # of connection points: 3
#     Node 9, Type 1, BuildingBlock: KAKCAD_clean_linker_0, # of connection points: 3
#     Node 10, Type 1, BuildingBlock: KAKCAD_clean_linker_0, # of connection points: 3
#     Node 11, Type 1, BuildingBlock: KAKCAD_clean_linker_0, # of connection points: 3
#     Edge 12, Type (0, 1), BuildingBlock: XIVTED_clean_linker_0, # of connection points: 2
#     Edge 13, Type (0, 1), BuildingBlock: XIVTED_clean_linker_0, # of connection points: 2
#     Edge 14, Type (0, 1), BuildingBlock: XIVTED_clean_linker_0, # of connection points: 2
#     Edge 15, Type (0, 1), BuildingBlock: XIVTED_clean_linker_0, # of connection points: 2
#     Edge 16, Type (0, 1), BuildingBlock: XIVTED_clean_linker_0, # of connection points: 2
#     Edge 17, Type (0, 1), BuildingBlock: XIVTED_clean_linker_0, # of connection points: 2
#     Edge 18, Type (0, 1), BuildingBlock: XIVTED_clean_linker_0, # of connection points: 2
#     Edge 19, Type (0, 1), BuildingBlock: XIVTED_clean_linker_0, # of connection points: 2
#     Edge 20, Type (0, 1), BuildingBlock: XIVTED_clean_linker_0, # of connection points: 2
#     Edge 21, Type (0, 1), BuildingBlock: XIVTED_clean_linker_0, # of connection points: 2
#     Edge 22, Type (0, 1), BuildingBlock: XIVTED_clean_linker_0, # of connection points: 2
#     Edge 23, Type (0, 1), BuildingBlock: XIVTED_clean_linker_0, # of connection points: 2
#     Edge 24, Type (0, 1), BuildingBlock: XIVTED_clean_linker_0, # of connection points: 2
#     Edge 25, Type (0, 1), BuildingBlock: XIVTED_clean_linker_0, # of connection points: 2
#     Edge 26, Type (0, 1), BuildingBlock: XIVTED_clean_linker_0, # of connection points: 2
#     Edge 27, Type (0, 1), BuildingBlock: XIVTED_clean_linker_0, # of connection points: 2
#     Edge 28, Type (0, 1), BuildingBlock: XIVTED_clean_linker_0, # of connection points: 2
#     Edge 29, Type (0, 1), BuildingBlock: XIVTED_clean_linker_0, # of connection points: 2
#     Edge 30, Type (0, 1), BuildingBlock: XIVTED_clean_linker_0, # of connection points: 2
#     Edge 31, Type (0, 1), BuildingBlock: XIVTED_clean_linker_0, # of connection points: 2
#     Edge 32, Type (0, 1), BuildingBlock: XIVTED_clean_linker_0, # of connection points: 2
#     Edge 33, Type (0, 1), BuildingBlock: XIVTED_clean_linker_0, # of connection points: 2
#     Edge 34, Type (0, 1), BuildingBlock: XIVTED_clean_linker_0, # of connection points: 2
#     Edge 35, Type (0, 1), BuildingBlock: XIVTED_clean_linker_0, # of connection points: 2
# Relax obj value: 0.076
# Max RMSD: 0.101
# Mean RMSD: 0.093
data_MOF--net-hwx--node1-OJICUG_clean_sbu_0--node2-KAKCAD_clean_linker_0--edge1-XIVTED_clean_linker_0
_symmetry_space_group_name_H-M    P1
_symmetry_Int_Tables_number       1
_symmetry_cell_setting            triclinic
loop_
_symmetry_equiv_pos_as_xyz
'x, y, z'
_cell_length_a     61.656825
_cell_length_b     61.604816
_cell_length_c     27.741383
_cell_angle_alpha  89.845549
_cell_angle_beta   90.110464
_cell_angle_gamma 89.986768
loop_
_atom_site_label
_atom_site_type_symbol
_atom_site_fract_x
_atom_site_fract_y
_atom_site_fract_z
_atom_type_partial_charge
Sc0 Sc 0.213 0.2082 0.06118 0.0
Sc1 Sc 0.17606 0.174 -3e-05 0.0
Sc2 Sc 0.20704 0.21286 0.9361 0.0
O3 O 0.19869 0.19828 -0.00092 0.0
C4 C 0.20608 0.2533 0.00718 0.0
C5 C 0.16379 0.2016 0.09326 0.0
C6 C 0.15595 0.20779 0.92448 0.0
C7 C 0.21103 0.15688 0.0761 0.0
C8 C 0.25279 0.20822 0.98815 0.0
C9 C 0.20266 0.16319 0.90463 0.0
O10 O 0.20878 0.24216 0.04529 0.0
O11 O 0.1589 0.18821 0.0601 0.0
O12 O 0.17389 0.21707 0.91578 0.0
O13 O 0.21885 0.17557 0.08428 0.0
O14 O 0.24124 0.21031 0.95046 0.0
O15 O 0.19085 0.1573 0.9399 0.0
O16 O 0.24491 0.20747 0.03038 0.0
O17 O 0.19525 0.15366 0.04738 0.0
O18 O 0.20917 0.18257 0.89891 0.0
O19 O 0.18258 0.20974 0.09799 0.0
O20 O 0.20555 0.24489 0.96554 0.0
O21 O 0.15415 0.19154 0.95263 0.0
Sc22 Sc 0.2785 0.71182 0.44601 0.0
Sc23 Sc 0.31554 0.67796 0.50779 0.0
Sc24 Sc 0.27574 0.70716 0.57173 0.0
O25 O 0.28996 0.69895 0.5085 0.0
C26 C 0.27443 0.75223 0.51714 0.0
C27 C 0.32941 0.7141 0.43028 0.0
C28 C 0.32599 0.7069 0.59993 0.0
C29 C 0.29009 0.66335 0.41407 0.0
C30 C 0.23492 0.70112 0.50146 0.0
C31 C 0.28434 0.65661 0.58652 0.0
O32 O 0.27389 0.74364 0.47565 0.0
O33 O 0.33347 0.6978 0.4572 0.0
O34 O 0.3063 0.71197 0.60717 0.0
O35 O 0.2816 0.68189 0.40754 0.0
O36 O 0.24355 0.70335 0.54284 0.0
O37 O 0.30034 0.65572 0.55772 0.0
O38 O 0.24559 0.70288 0.46244 0.0
O39 O 0.30191 0.6588 0.45027 0.0
O40 O 0.27381 0.67395 0.59447 0.0
O41 O 0.31042 0.72176 0.42441 0.0
O42 O 0.27624 0.74129 0.55573 0.0
O43 O 0.33202 0.69485 0.56528 0.0
Sc44 Sc 0.77657 0.77776 0.93313 0.0
Sc45 Sc 0.81073 0.81446 0.99501 0.0
Sc46 Sc 0.7778 0.77773 0.05964 0.0
O47 O 0.78839 0.79 0.9959 0.0
C48 C 0.73412 0.77887 -0.00147 0.0
C49 C 0.77837 0.8285 0.91038 0.0
C50 C 0.78004 0.8285 0.08178 0.0
C51 C 0.82672 0.78464 0.9084 0.0
C52 C 0.78237 0.73487 0.99597 0.0
C53 C 0.82826 0.78426 0.08036 0.0
O54 O 0.74353 0.77766 0.95793 0.0
O55 O 0.79322 0.83255 0.94095 0.0
O56 O 0.77342 0.80935 0.09008 0.0
O57 O 0.80819 0.77622 0.90122 0.0
O58 O 0.78086 0.74463 0.03612 0.0
O59 O 0.83081 0.79911 0.04896 0.0
O60 O 0.78133 0.74469 0.9557 0.0
O61 O 0.83029 0.79865 0.94104 0.0
O62 O 0.81016 0.77498 0.0878 0.0
O63 O 0.77059 0.80961 0.90402 0.0
O64 O 0.74431 0.77939 0.03832 0.0
O65 O 0.7936 0.83303 0.04876 0.0
Sc66 Sc 0.71189 0.27901 0.55223 0.0
Sc67 Sc 0.67781 0.31727 0.49514 0.0
Sc68 Sc 0.70608 0.2783 0.42707 0.0
O69 O 0.69858 0.29161 0.49153 0.0
C70 C 0.75161 0.2779 0.47819 0.0
C71 C 0.71423 0.32969 0.57279 0.0
C72 C 0.70383 0.32883 0.40034 0.0
C73 C 0.66346 0.28921 0.58584 0.0
C74 C 0.7031 0.23613 0.49413 0.0
C75 C 0.65556 0.28614 0.41691 0.0
O76 O 0.74337 0.27545 0.51983 0.0
O77 O 0.69785 0.33433 0.54667 0.0
O78 O 0.70768 0.30904 0.39119 0.0
O79 O 0.68205 0.28067 0.59118 0.0
O80 O 0.70561 0.24548 0.4537 0.0
O81 O 0.65549 0.30279 0.44408 0.0
O82 O 0.70314 0.24629 0.53384 0.0
O83 O 0.65899 0.30241 0.55194 0.0
O84 O 0.67242 0.27477 0.40929 0.0
O85 O 0.72177 0.31056 0.57675 0.0
O86 O 0.74034 0.28096 0.44038 0.0
O87 O 0.69435 0.33494 0.43863 0.0
C88 C 0.22545 0.52886 0.82346 0.0
C89 C 0.24552 0.53883 0.81391 0.0
C90 C 0.22165 0.51887 0.868 0.0
C91 C 0.23778 0.51893 0.90382 0.0
C92 C 0.25809 0.5281 0.89351 0.0
C93 C 0.26194 0.53791 0.84904 0.0
C94 C 0.23332 0.51043 0.95272 0.0
C95 C 0.22393 0.48993 0.95934 0.0
C96 C 0.22104 0.48146 0.00599 0.0
C97 C 0.22722 0.49392 0.04607 0.0
C98 C 0.23649 0.51451 0.03993 0.0
C99 C 0.2393 0.5227 0.99313 0.0
C100 C 0.24387 0.52729 0.08212 0.0
C101 C 0.23135 0.52823 0.12438 0.0
C102 C 0.26346 0.53892 0.08001 0.0
C103 C 0.26999 0.55184 0.11853 0.0
C104 C 0.25719 0.55324 0.16017 0.0
C105 C 0.21331 0.45892 0.0127 0.0
C106 C 0.19599 0.45079 0.98519 0.0
C107 C 0.22412 0.44502 0.04497 0.0
C108 C 0.21826 0.42324 0.04846 0.0
C109 C 0.20144 0.41487 0.01976 0.0
C110 C 0.19008 0.42896 0.98876 0.0
C111 C 0.23801 0.54104 0.16317 0.0
H112 H 0.21256 0.5292 0.7969 0.0
H113 H 0.20586 0.51187 0.87511 0.0
H114 H 0.2709 0.52809 0.9203 0.0
H115 H 0.27747 0.54566 0.84309 0.0
H116 H 0.21988 0.48016 0.92815 0.0
H117 H 0.24607 0.53878 0.98799 0.0
H118 H 0.22526 0.48733 0.08206 0.0
H119 H 0.21611 0.51958 0.12697 0.0
H120 H 0.27375 0.53811 0.04847 0.0
H121 H 0.28501 0.56088 0.11566 0.0
H122 H 0.18722 0.46124 0.96048 0.0
H123 H 0.23776 0.45073 0.06607 0.0
H124 H 0.22776 0.54204 0.19477 0.0
H125 H 0.17687 0.42302 0.96663 0.0
H126 H 0.22761 0.41276 0.07202 0.0
C127 C 0.95387 0.72433 0.32336 0.0
C128 C 0.94336 0.7444 0.31717 0.0
C129 C 0.96534 0.71986 0.36577 0.0
C130 C 0.96625 0.7353 0.40287 0.0
C131 C 0.95636 0.75561 0.39599 0.0
C132 C 0.94509 0.76014 0.35351 0.0
C133 C 0.97646 0.72992 0.4497 0.0
C134 C -0.00281 0.72059 0.45176 0.0
C135 C 0.00695 0.71582 0.49644 0.0
C136 C 0.99538 0.71996 0.53911 0.0
C137 C 0.97476 0.72952 0.53746 0.0
C138 C 0.96541 0.73441 0.49266 0.0
C139 C 0.96313 0.73495 0.58243 0.0
C140 C 0.96115 0.71963 0.61973 0.0
C141 C 0.95357 0.7555 0.58783 0.0
C142 C 0.94187 0.7605 0.62932 0.0
C143 C 0.93936 0.74499 0.6661 0.0
C144 C 0.02973 0.70805 0.4987 0.0
C145 C 0.03781 0.69325 0.46462 0.0
C146 C 0.0439 0.71632 0.5339 0.0
C147 C 0.06565 0.71023 0.53462 0.0
C148 C 0.07384 0.69587 0.49992 0.0
C149 C 0.0597 0.68729 0.46509 0.0
C150 C 0.94925 0.72456 0.66112 0.0
H151 H 0.9529 0.71196 0.29575 0.0
H152 H 0.97281 0.70407 0.37029 0.0
H153 H 0.95702 0.76787 0.42388 0.0
H154 H 0.93699 0.77567 0.34998 0.0
H155 H 0.00604 0.71794 0.41857 0.0
H156 H 0.94928 0.74142 0.49122 0.0
H157 H 0.00261 0.71623 0.57379 0.0
H158 H 0.96833 0.70366 0.61635 0.0
H159 H 0.95506 0.76768 0.55979 0.0
H160 H 0.93424 0.77628 0.63194 0.0
H161 H 0.02726 0.68637 0.43741 0.0
H162 H 0.0384 0.72813 0.56002 0.0
H163 H 0.94765 0.71236 0.68907 0.0
H164 H 0.06559 0.67607 0.43812 0.0
H165 H 0.07626 0.71744 0.56131 0.0
C166 C 0.75531 0.45187 0.14474 0.0
C167 C 0.76351 0.43078 0.15125 0.0
C168 C 0.76226 0.46462 0.10599 0.0
C169 C 0.77748 0.45648 0.07299 0.0
C170 C 0.78638 0.4358 0.08072 0.0
C171 C 0.77954 0.42312 0.11954 0.0
C172 C 0.78288 0.46888 0.02881 0.0
C173 C 0.78698 0.49122 0.031 0.0
C174 C 0.79036 0.50333 0.9887 0.0
C175 C 0.78997 0.49273 0.94389 0.0
C176 C 0.78584 0.47034 0.94105 0.0
C177 C 0.78244 0.45856 0.98381 0.0
C178 C 0.78328 0.45943 0.89366 0.0
C179 C 0.7718 0.46957 0.85599 0.0
C180 C 0.79085 0.43813 0.88699 0.0
C181 C 0.78607 0.42683 0.84475 0.0
C182 C 0.77373 0.43662 0.80792 0.0
C183 C 0.79282 0.52724 0.99118 0.0
C184 C 0.77954 0.53939 0.02215 0.0
C185 C 0.8078 0.53816 0.96169 0.0
C186 C 0.80928 0.56079 0.96278 0.0
C187 C 0.79584 0.57291 0.99347 0.0
C188 C 0.78106 0.56195 0.02334 0.0
C189 C 0.76714 0.45832 0.81355 0.0
H190 H 0.74282 0.45817 0.16826 0.0
H191 H 0.75498 0.48045 0.10062 0.0
H192 H 0.79839 0.42928 0.05624 0.0
H193 H 0.78653 0.40711 0.1242 0.0
H194 H 0.78744 0.4992 0.06577 0.0
H195 H 0.77827 0.44149 0.98198 0.0
H196 H 0.79226 0.50203 0.91109 0.0
H197 H 0.76557 0.4859 0.86001 0.0
H198 H 0.80002 0.42996 0.91501 0.0
H199 H 0.79126 0.41009 0.84199 0.0
H200 H 0.76752 0.53152 0.04461 0.0
H201 H 0.81841 0.5292 0.93784 0.0
H202 H 0.75793 0.46648 0.78561 0.0
H203 H 0.7702 0.57086 0.04671 0.0
H204 H 0.82098 0.5688 0.93971 0.0
C205 C 0.02466 0.2507 0.68163 0.0
C206 C 0.04583 0.25824 0.68999 0.0
C207 C 0.01434 0.25484 0.63769 0.0
C208 C 0.02501 0.26657 0.60121 0.0
C209 C 0.04586 0.27477 0.61024 0.0
C210 C 0.05616 0.27066 0.65414 0.0
C211 C 0.015 0.26891 0.55286 0.0
C212 C 0.99283 0.27351 0.54815 0.0
C213 C 0.98275 0.27346 0.50267 0.0
C214 C 0.99537 0.26955 0.46147 0.0
C215 C 0.01767 0.26529 0.46546 0.0
C216 C 0.02733 0.26497 0.51132 0.0
C217 C 0.0307 0.26003 0.42211 0.0
C218 C 0.02226 0.24652 0.38585 0.0
C219 C 0.05195 0.26796 0.41742 0.0
C220 C 0.06461 0.26221 0.37784 0.0
C221 C 0.05628 0.24852 0.34179 0.0
C222 C 0.95883 0.2757 0.4985 0.0
C223 C 0.94527 0.26594 0.53295 0.0
C224 C 0.94932 0.28646 0.45897 0.0
C225 C 0.9268 0.28677 0.45321 0.0
C226 C 0.91331 0.27652 0.48714 0.0
C227 C 0.92283 0.26653 0.52758 0.0
C228 C 0.03489 0.24089 0.34606 0.0
H229 H 0.01622 0.24126 0.70871 0.0
H230 H -0.00167 0.24814 0.63164 0.0
H231 H 0.05439 0.28403 0.58296 0.0
H232 H 0.07257 0.27651 0.6592 0.0
H233 H 0.98337 0.2769 0.58015 0.0
H234 H 0.04428 0.26061 0.51491 0.0
H235 H 0.98776 0.26927 0.42627 0.0
H236 H 0.00604 0.2399 0.38865 0.0
H237 H 0.05886 0.27856 0.44448 0.0
H238 H 0.08112 0.26815 0.37612 0.0
H239 H 0.95195 0.25723 0.56353 0.0
H240 H 0.95927 0.29445 0.43213 0.0
H241 H 0.02788 0.23051 0.3187 0.0
H242 H 0.91295 0.25893 0.55509 0.0
H243 H 0.92004 0.29455 0.42153 0.0
C244 C 0.71209 0.95104 0.66768 0.0
C245 C 0.73246 0.94101 0.67265 0.0
C246 C 0.70678 0.96218 0.62527 0.0
C247 C 0.72161 0.96307 0.587 0.0
C248 C 0.74213 0.95351 0.59246 0.0
C249 C 0.74755 0.94269 0.63499 0.0
C250 C 0.71546 0.97299 0.54043 0.0
C251 C 0.70795 0.99444 0.53814 0.0
C252 C 0.70318 0.00423 0.49337 0.0
C253 C 0.70524 0.99177 0.4511 0.0
C254 C 0.71347 0.97058 0.45301 0.0
C255 C 0.71834 0.96124 0.49779 0.0
C256 C 0.71898 0.95891 0.40819 0.0
C257 C 0.70398 0.95716 0.37024 0.0
C258 C 0.73969 0.94974 0.40302 0.0
C259 C 0.74528 0.93883 0.36093 0.0
C260 C 0.73022 0.9367 0.32324 0.0
C261 C 0.69864 0.02798 0.49033 0.0
C262 C 0.688 0.03898 0.52792 0.0
C263 C 0.70657 0.04019 0.45123 0.0
C264 C 0.7046 0.06269 0.45046 0.0
C265 C 0.6953 0.07381 0.48945 0.0
C266 C 0.68654 0.06164 0.52772 0.0
C267 C 0.7095 0.94596 0.3282 0.0
H268 H 0.70022 0.95001 0.69633 0.0
H269 H 0.69085 0.96944 0.62171 0.0
H270 H 0.75388 0.95415 0.56349 0.0
H271 H 0.76327 0.93492 0.63766 0.0
H272 H 0.7071 0.00376 0.57113 0.0
H273 H 0.72454 0.94477 0.49944 0.0
H274 H 0.70149 -0.00118 0.41627 0.0
H275 H 0.68792 0.96414 0.37344 0.0
H276 H 0.75165 0.95113 0.43153 0.0
H277 H 0.76126 0.93161 0.35833 0.0
H278 H 0.68125 0.03017 0.55818 0.0
H279 H 0.71518 0.03259 0.42181 0.0
H280 H 0.69762 0.94456 0.29957 0.0
H281 H 0.67925 0.06958 0.55846 0.0
H282 H 0.71094 0.07139 0.41958 0.0
C283 C 0.52646 0.23048 0.181 0.0
C284 C 0.53816 0.24983 0.18773 0.0
C285 C 0.51684 0.22594 0.13649 0.0
C286 C 0.51893 0.24058 0.09789 0.0
C287 C 0.52979 0.26032 0.10527 0.0
C288 C 0.53927 0.26492 0.14974 0.0
C289 C 0.51095 0.23481 0.04924 0.0
C290 C 0.48999 0.22647 0.04267 0.0
C291 C 0.4824 0.22109 0.99629 0.0
C292 C 0.49638 0.22375 0.95669 0.0
C293 C 0.51707 0.23275 0.96267 0.0
C294 C 0.52432 0.23804 0.00903 0.0
C295 C 0.53056 0.23793 0.92017 0.0
C296 C 0.53336 0.22275 0.88303 0.0
C297 C 0.54023 0.25849 0.91602 0.0
C298 C 0.55251 0.26378 0.87552 0.0
C299 C 0.55547 0.24857 0.83851 0.0
C300 C 0.45941 0.21453 0.98871 0.0
C301 C 0.44811 0.20262 0.02397 0.0
C302 C 0.44814 0.22132 0.94717 0.0
C303 C 0.42613 0.21692 0.94169 0.0
C304 C 0.41453 0.20621 0.97824 0.0
C305 C 0.4259 0.19871 0.01906 0.0
C306 C 0.54581 0.22799 0.84263 0.0
H307 H 0.52521 0.21863 0.20978 0.0
H308 H 0.50854 0.21059 0.13167 0.0
H309 H 0.53139 0.27202 0.07625 0.0
H310 H 0.54836 0.27986 0.15357 0.0
H311 H 0.47937 0.22512 0.07358 0.0
H312 H 0.54052 0.24454 0.01383 0.0
H313 H 0.49095 0.21955 0.92076 0.0
H314 H 0.5261 0.20677 0.88546 0.0
H315 H 0.53809 0.27058 0.94389 0.0
H316 H 0.55999 0.27967 0.87355 0.0
H317 H 0.45628 0.19669 0.05597 0.0
H318 H 0.45603 0.23079 0.91937 0.0
H319 H 0.54779 0.216 0.81448 0.0
H320 H 0.41758 0.19052 0.0482 0.0
H321 H 0.41813 0.22243 0.90912 0.0
C322 C 0.2602 0.02661 0.31662 0.0
C323 C 0.26741 0.04798 0.30905 0.0
C324 C 0.26438 0.01601 0.36021 0.0
C325 C 0.27596 0.02651 0.39715 0.0
C326 C 0.28415 0.04744 0.3886 0.0
C327 C 0.27988 0.05808 0.34512 0.0
C328 C 0.27772 0.0164 0.44566 0.0
C329 C 0.28098 0.99396 0.4506 0.0
C330 C 0.27949 0.98381 0.49595 0.0
C331 C 0.27552 -0.00341 0.53687 0.0
C332 C 0.27294 0.01912 0.53272 0.0
C333 C 0.27405 0.0289 0.48709 0.0
C334 C 0.26755 0.03237 0.57546 0.0
C335 C 0.25102 0.02582 0.6071 0.0
C336 C 0.27819 0.05215 0.58353 0.0
C337 C 0.27205 0.06543 0.62179 0.0
C338 C 0.25496 0.05931 0.65248 0.0
C339 C 0.2804 0.95978 0.50014 0.0
C340 C 0.2709 0.9467 0.46445 0.0
C341 C 0.28976 0.94972 0.54074 0.0
C342 C 0.28903 0.92718 0.54616 0.0
C343 C 0.2792 0.91416 0.51076 0.0
C344 C 0.27051 0.9242 0.46945 0.0
C345 C 0.24475 0.03918 0.64519 0.0
H346 H 0.25083 0.01825 0.28933 0.0
H347 H 0.25766 -5e-05 0.36571 0.0
H348 H 0.29335 0.05586 0.4161 0.0
H349 H 0.28554 0.0746 0.34075 0.0
H350 H 0.28436 0.98435 0.41884 0.0
H351 H 0.27082 0.04614 0.48366 0.0
H352 H 0.27385 0.98901 0.57195 0.0
H353 H 0.24238 0.01073 0.60133 0.0
H354 H 0.29118 0.05741 0.56 0.0
H355 H 0.28057 0.08062 0.62702 0.0
H356 H 0.26322 0.95381 0.43302 0.0
H357 H 0.2975 0.95925 0.56862 0.0
H358 H 0.23137 0.0341 0.66779 0.0
H359 H 0.26326 0.91471 0.44085 0.0
H360 H 0.29578 0.92006 0.5786 0.0
C361 C 0.45146 0.76184 0.84592 0.0
C362 C 0.42943 0.76759 0.84316 0.0
C363 C 0.46385 0.76738 0.88623 0.0
C364 C 0.45457 0.77902 0.92457 0.0
C365 C 0.43279 0.78556 0.9209 0.0
C366 C 0.42035 0.77983 0.88081 0.0
C367 C 0.46717 0.78293 0.96947 0.0
C368 C 0.48944 0.78751 0.96744 0.0
C369 C 0.5021 0.7883 0.00963 0.0
C370 C 0.49182 0.78579 0.05456 0.0
C371 C 0.4694 0.78203 0.05742 0.0
C372 C 0.45729 0.78038 0.01467 0.0
C373 C 0.45865 0.77854 0.10471 0.0
C374 C 0.46861 0.76594 0.14083 0.0
C375 C 0.43783 0.78697 0.11315 0.0
C376 C 0.42686 0.78221 0.15583 0.0
C377 C 0.43652 0.76905 0.19138 0.0
C378 C 0.52616 0.79004 0.00652 0.0
C379 C 0.53738 0.77999 0.96852 0.0
C380 C 0.53822 0.80068 0.04249 0.0
C381 C 0.56089 0.80055 0.04141 0.0
C382 C 0.57207 0.79014 0.0038 0.0
C383 C 0.55996 0.78031 0.96684 0.0
C384 C 0.4577 0.76131 0.18375 0.0
H385 H 0.45911 0.75275 0.81725 0.0
H386 H 0.4805 0.76184 0.88798 0.0
H387 H 0.42522 0.79479 0.94946 0.0
H388 H 0.40339 0.78438 0.88023 0.0
H389 H 0.49698 0.79014 0.93269 0.0
H390 H 0.44028 0.77605 0.0166 0.0
H391 H 0.50131 0.78623 0.0874 0.0
H392 H 0.48457 0.75903 0.13538 0.0
H393 H 0.42982 0.79698 0.08634 0.0
H394 H 0.41049 0.78825 0.16008 0.0
H395 H 0.52881 0.7713 0.94047 0.0
H396 H 0.53021 0.80894 0.07189 0.0
H397 H 0.46575 0.75137 0.21062 0.0
H398 H 0.56788 0.7726 0.93659 0.0
H399 H 0.56957 0.80816 0.0708 0.0
H400 H 0.16389 0.23813 0.14819 0.0
H401 H 0.05845 0.20859 0.298 0.0
H402 H 0.12509 0.18167 0.11547 0.0
H403 H 0.08579 0.27309 0.29192 0.0
H404 H 0.08317 0.19741 0.23389 0.0
H405 H 0.13636 0.24997 0.20496 0.0
C406 C 0.14958 0.22816 0.15304 0.0
C407 C 0.14685 0.20878 0.12726 0.0
C408 C 0.0836 0.21404 0.24642 0.0
C409 C 0.11519 0.22235 0.19238 0.0
C410 C 0.06943 0.22049 0.28285 0.0
C411 C 0.07013 0.2418 0.30074 0.0
C412 C 0.09872 0.22893 0.22815 0.0
C413 C 0.08497 0.25638 0.28012 0.0
C414 C 0.13378 0.23504 0.18526 0.0
C415 C 0.12783 0.19671 0.13464 0.0
N416 N 0.09878 0.24962 0.24523 0.0
N417 N 0.11275 0.2036 0.16692 0.0
H418 H 0.30645 0.61806 0.59622 0.0
H419 H 0.21721 0.56745 0.77241 0.0
H420 H 0.2464 0.64964 0.63477 0.0
H421 H 0.28151 0.54079 0.75592 0.0
H422 H 0.22508 0.59364 0.70875 0.0
H423 H 0.29521 0.58617 0.64279 0.0
C424 C 0.29087 0.61825 0.61417 0.0
C425 C 0.2775 0.63669 0.61217 0.0
C426 C 0.2374 0.5819 0.71864 0.0
C427 C 0.26452 0.60026 0.66506 0.0
C428 C 0.23283 0.56679 0.75467 0.0
C429 C 0.24882 0.55208 0.76987 0.0
C430 C 0.25812 0.58235 0.6977 0.0
C431 C 0.26886 0.55214 0.74588 0.0
C432 C 0.28447 0.60005 0.64071 0.0
C433 C 0.25741 0.63596 0.6359 0.0
N434 N 0.27304 0.56721 0.7113 0.0
N435 N 0.2516 0.61811 0.6615 0.0
H436 H 0.86732 0.80507 0.09144 0.0
H437 H 0.91349 0.71699 0.27759 0.0
H438 H 0.83222 0.74781 0.13622 0.0
H439 H 0.9407 0.78112 0.26139 0.0
H440 H 0.88716 0.72543 0.21434 0.0
H441 H 0.89759 0.79403 0.14318 0.0
C442 C 0.86601 0.79013 0.1119 0.0
C443 C 0.8471 0.77747 0.10984 0.0
C444 C 0.89901 0.73759 0.22433 0.0
C445 C 0.8817 0.76471 0.16873 0.0
C446 C 0.91416 0.73272 0.26011 0.0
C447 C 0.9292 0.74844 0.27491 0.0
C448 C 0.89895 0.7583 0.20306 0.0
C449 C 0.92917 0.76865 0.25144 0.0
C450 C 0.88327 0.78387 0.14145 0.0
C451 C 0.84635 0.75824 0.13708 0.0
N452 N 0.91419 0.77306 0.2168 0.0
N453 N 0.86338 0.75248 0.16543 0.0
H454 H 0.75395 0.32893 0.61704 0.0
H455 H 0.73429 0.43805 0.762 0.0
H456 H 0.69837 0.37029 0.59305 0.0
H457 H 0.79622 0.4053 0.75803 0.0
H458 H 0.72117 0.41407 0.69865 0.0
H459 H 0.76988 0.35694 0.668 0.0
C460 C 0.74511 0.34394 0.62231 0.0
C461 C 0.72467 0.34716 0.60105 0.0
C462 C 0.73771 0.41228 0.71127 0.0
C463 C 0.74284 0.3793 0.65959 0.0
C464 C 0.7453 0.42609 0.74729 0.0
C465 C 0.7664 0.42365 0.76577 0.0
C466 C 0.75119 0.39572 0.69387 0.0
C467 C 0.7797 0.40752 0.7457 0.0
C468 C 0.75428 0.35997 0.65127 0.0
C469 C 0.71412 0.36705 0.6088 0.0
N470 N 0.7718 0.39404 0.71121 0.0
N471 N 0.72322 0.38227 0.63787 0.0
H472 H 0.61861 0.31038 0.40353 0.0
H473 H 0.56341 0.22054 0.23605 0.0
H474 H 0.64626 0.2474 0.37392 0.0
H475 H 0.54268 0.28744 0.23968 0.0
H476 H 0.58913 0.22811 0.30077 0.0
H477 H 0.58649 0.30024 0.35665 0.0
C478 C 0.61786 0.29437 0.38759 0.0
C479 C 0.6353 0.27984 0.39205 0.0
C480 C 0.57877 0.24108 0.28783 0.0
C481 C 0.59863 0.26814 0.33876 0.0
C482 C 0.56393 0.23672 0.25118 0.0
C483 C 0.55105 0.25345 0.23211 0.0
C484 C 0.58077 0.26232 0.30553 0.0
C485 C 0.5526 0.27418 0.25279 0.0
C486 C 0.59955 0.28862 0.36082 0.0
C487 C 0.63338 0.25927 0.37081 0.0
N488 N 0.56738 0.27809 0.28811 0.0
N489 N 0.61545 0.25409 0.34491 0.0
H490 H 0.19951 0.11855 0.90871 0.0
H491 H 0.25039 0.10331 0.64602 0.0
H492 H 0.22127 0.17109 0.81736 0.0
H493 H 0.2412 0.04972 0.74458 0.0
H494 H 0.23725 0.12804 0.70746 0.0
H495 H 0.21195 0.09263 0.84765 0.0
C496 C 0.2068 0.12464 0.87586 0.0
C497 C 0.20938 0.14704 0.86825 0.0
C498 C 0.23815 0.11088 0.71582 0.0
C499 C 0.22357 0.11758 0.79857 0.0
C500 C 0.24582 0.09674 0.6808 0.0
C501 C 0.24712 0.0744 0.69024 0.0
C502 C 0.23156 0.10271 0.76074 0.0
C503 C 0.24034 0.06681 0.73562 0.0
C504 C 0.21396 0.10985 0.84117 0.0
C505 C 0.21902 0.154 0.82507 0.0
N506 N 0.23285 0.08096 0.76927 0.0
N507 N 0.22571 0.13935 0.79198 0.0
H508 H 0.33022 0.75402 0.3869 0.0
H509 H 0.43643 0.72937 0.23667 0.0
H510 H 0.36946 0.6969 0.41069 0.0
H511 H 0.40761 0.79318 0.24438 0.0
H512 H 0.4128 0.71744 0.30189 0.0
H513 H 0.35869 0.76888 0.33555 0.0
C514 C 0.34488 0.74465 0.38157 0.0
C515 C 0.34736 0.72407 0.40276 0.0
C516 C 0.41183 0.73412 0.28968 0.0
C517 C 0.37998 0.74097 0.34374 0.0
C518 C 0.42543 0.74102 0.25256 0.0
C519 C 0.42392 0.7623 0.23455 0.0
C520 C 0.39641 0.74851 0.30861 0.0
C521 C 0.40903 0.77649 0.25624 0.0
C522 C 0.36118 0.75319 0.3524 0.0
C523 C 0.36682 0.71279 0.39499 0.0
N524 N 0.39569 0.76927 0.29173 0.0
N525 N 0.38228 0.72127 0.36559 0.0
H526 H 0.7414 0.82921 0.85554 0.0
H527 H 0.76952 0.94105 0.72696 0.0
H528 H 0.79603 0.86891 0.89706 0.0
H529 H 0.70722 0.90974 0.71406 0.0
H530 H 0.77949 0.9151 0.79015 0.0
H531 H 0.72857 0.8586 0.80365 0.0
C532 C 0.75069 0.84412 0.85384 0.0
C533 C 0.76993 0.84652 0.88041 0.0
C534 C 0.76353 0.91407 0.77396 0.0
C535 C 0.75532 0.88021 0.82099 0.0
C536 C 0.75787 0.92883 0.73787 0.0
C537 C 0.73757 0.92743 0.71521 0.0
C538 C 0.7489 0.8976 0.7869 0.0
C539 C 0.72299 0.91144 0.73086 0.0
C540 C 0.74328 0.86094 0.8244 0.0
C541 C 0.78115 0.86631 0.87714 0.0
N542 N 0.72904 0.89696 0.76535 0.0
N543 N 0.77379 0.88232 0.84758 0.0
H544 H 0.82867 0.74845 0.85207 0.0
H545 H 0.93823 0.782 0.72069 0.0
H546 H 0.86599 0.80471 0.89369 0.0
H547 H 0.90833 0.71903 0.70609 0.0
H548 H 0.91222 0.79087 0.78428 0.0
H549 H 0.85782 0.73765 0.79817 0.0
C550 C 0.84301 0.75855 0.84991 0.0
C551 C 0.8448 0.77763 0.87717 0.0
C552 C 0.91151 0.77503 0.76752 0.0
C553 C 0.8783 0.76531 0.8153 0.0
C554 C 0.92627 0.77 0.73115 0.0
C555 C 0.92533 0.74979 0.70799 0.0
C556 C 0.89555 0.75983 0.78032 0.0
C557 C 0.90972 0.73474 0.72323 0.0
C558 C 0.85972 0.75229 0.81928 0.0
C559 C 0.86391 0.7899 0.87327 0.0
N560 N 0.89529 0.74015 0.75809 0.0
N561 N 0.87986 0.78363 0.84251 0.0
H562 H 0.70727 0.37335 0.41006 0.0
H563 H 0.75361 0.38787 0.14246 0.0
H564 H 0.71717 0.32123 0.30854 0.0
H565 H 0.75195 0.44053 0.24477 0.0
H566 H 0.73826 0.3639 0.20299 0.0
H567 H 0.72128 0.39905 0.34974 0.0
C568 C 0.71225 0.36733 0.37515 0.0
C569 C 0.71114 0.34507 0.3645 0.0
C570 C 0.74128 0.38068 0.21245 0.0
C571 C 0.72711 0.37425 0.29572 0.0
C572 C 0.75024 0.39436 0.17791 0.0
C573 C 0.75435 0.4162 0.18869 0.0
C574 C 0.73626 0.3888 0.25833 0.0
C575 C 0.74898 0.42381 0.23489 0.0
C576 C 0.7203 0.38197 0.34087 0.0
C577 C 0.71786 0.33817 0.3187 0.0
N578 N 0.74025 0.4101 0.26815 0.0
N579 N 0.72554 0.35267 0.28621 0.0
H580 H 0.14981 0.24887 0.89137 0.0
H581 H 0.04637 0.21864 0.73531 0.0
H582 H 0.11803 0.18661 0.90156 0.0
H583 H 0.07283 0.28335 0.7452 0.0
H584 H 0.06996 0.20728 0.80156 0.0
H585 H 0.11972 0.26241 0.84318 0.0
C586 C 0.13639 0.23806 0.88364 0.0
C587 C 0.13656 0.21647 0.89984 0.0
C588 C 0.07039 0.22404 0.78969 0.0
C589 C 0.10201 0.23188 0.84425 0.0
C590 C 0.05683 0.23058 0.75201 0.0
C591 C 0.05782 0.25193 0.73426 0.0
C592 C 0.08513 0.23892 0.8095 0.0
C593 C 0.07187 0.26661 0.75699 0.0
C594 C 0.11914 0.24585 0.85626 0.0
C595 C 0.11858 0.20333 0.8895 0.0
N596 N 0.08513 0.25977 0.79304 0.0
N597 N 0.10213 0.21115 0.86166 0.0
H598 H 0.27808 0.66987 0.32083 0.0
H599 H 0.25846 0.54576 0.25772 0.0
H600 H 0.29304 0.61894 0.42293 0.0
H601 H 0.26927 0.59541 0.15046 0.0
H602 H 0.26748 0.57217 0.32098 0.0
H603 H 0.27092 0.64253 0.25977 0.0
C604 C 0.27983 0.6529 0.33045 0.0
C605 C 0.28614 0.64666 0.37707 0.0
C606 C 0.26801 0.57715 0.28354 0.0
C607 C 0.27787 0.61525 0.30718 0.0
C608 C 0.26277 0.56219 0.2476 0.0
C609 C 0.26321 0.56847 0.19896 0.0
C610 C 0.27329 0.59854 0.27053 0.0
C611 C 0.26897 0.58987 0.18753 0.0
C612 C 0.27584 0.63731 0.29546 0.0
C613 C 0.2883 0.62443 0.38733 0.0
N614 N 0.27364 0.60418 0.22307 0.0
N615 N 0.284 0.60945 0.35265 0.0
H616 H 0.36763 0.69264 0.61619 0.0
H617 H 0.39624 0.78919 0.79724 0.0
H618 H 0.32199 0.74233 0.65789 0.0
H619 H 0.43111 0.72835 0.79647 0.0
H620 H 0.37197 0.77495 0.73531 0.0
H621 H 0.39428 0.70833 0.6719 0.0
C622 C 0.36324 0.70685 0.63691 0.0
C623 C 0.3425 0.71607 0.63273 0.0
C624 C 0.38502 0.76479 0.74862 0.0
C625 C 0.37288 0.73416 0.69577 0.0
C626 C 0.39884 0.77286 0.78412 0.0
C627 C 0.41568 0.75991 0.80255 0.0
C628 C 0.38814 0.74368 0.73102 0.0
C629 C 0.41854 0.73905 0.7831 0.0
C630 C 0.37841 0.71575 0.66869 0.0
C631 C 0.33769 0.73451 0.66038 0.0
N632 N 0.40486 0.73156 0.74849 0.0
N633 N 0.35277 0.74297 0.69061 0.0
H634 H 0.74298 0.82797 0.13516 0.0
H635 H 0.76747 0.93871 0.27 0.0
H636 H 0.79684 0.86928 0.09663 0.0
H637 H 0.70617 0.90523 0.27926 0.0
H638 H 0.77849 0.91407 0.20544 0.0
H639 H 0.72924 0.85642 0.1876 0.0
C640 C 0.75194 0.84305 0.13772 0.0
C641 C 0.77124 0.84616 0.11187 0.0
C642 C 0.76252 0.9123 0.22116 0.0
C643 C 0.75553 0.87886 0.172 0.0
C644 C 0.75627 0.92628 0.25806 0.0
C645 C 0.73596 0.92385 0.28016 0.0
C646 C 0.74846 0.8956 0.20678 0.0
C647 C 0.72194 0.90769 0.26305 0.0
C648 C 0.74398 0.85936 0.16746 0.0
C649 C 0.78195 0.86617 0.11606 0.0
N650 N 0.72856 0.89399 0.22776 0.0
N651 N 0.77406 0.88171 0.14604 0.0
H652 H 0.66337 0.2539 0.64501 0.0
H653 H 0.55565 0.28601 0.78499 0.0
H654 H 0.62453 0.30943 0.60452 0.0
H655 H 0.58685 0.22353 0.79741 0.0
H656 H 0.58076 0.2956 0.71998 0.0
H657 H 0.6357 0.2433 0.70259 0.0
C658 C 0.64901 0.26393 0.64829 0.0
C659 C 0.64635 0.28272 0.62013 0.0
C660 C 0.58196 0.27973 0.73666 0.0
C661 C 0.61447 0.27054 0.68623 0.0
C662 C 0.56774 0.2743 0.77385 0.0
C663 C 0.56929 0.254 0.79669 0.0
C664 C 0.59796 0.26483 0.72271 0.0
C665 C 0.58502 0.2393 0.78055 0.0
C666 C 0.63313 0.25776 0.68103 0.0
C667 C 0.62725 0.29486 0.62558 0.0
N668 N 0.59887 0.24509 0.74483 0.0
N669 N 0.61207 0.28865 0.65837 0.0
H670 H 0.2516 0.15444 0.11458 0.0
H671 H 0.22776 0.04739 0.26405 0.0
H672 H 0.19291 0.11712 0.09642 0.0
H673 H 0.29105 0.07717 0.25561 0.0
H674 H 0.21525 0.07117 0.19932 0.0
H675 H 0.26676 0.12523 0.16333 0.0
C676 C 0.24192 0.14002 0.12071 0.0
C677 C 0.22083 0.13832 0.10196 0.0
C678 C 0.23195 0.07231 0.21119 0.0
C679 C 0.23812 0.10478 0.15805 0.0
C680 C 0.23918 0.05863 0.24801 0.0
C681 C 0.26048 0.0604 0.26572 0.0
C682 C 0.24603 0.08803 0.19224 0.0
C683 C 0.27438 0.07553 0.24389 0.0
C684 C 0.25065 0.12328 0.14837 0.0
C685 C 0.20919 0.11912 0.1104 0.0
N686 N 0.26684 0.08892 0.20869 0.0
N687 N 0.21789 0.10318 0.13844 0.0
H688 H 0.20624 0.27842 0.08897 0.0
H689 H 0.19333 0.38921 0.9416 0.0
H690 H 0.19856 0.28231 0.9343 0.0
H691 H 0.2006 0.38652 0.09634 0.0
H692 H 0.19142 0.34977 0.93971 0.0
H693 H 0.20137 0.31774 0.09364 0.0
C694 C 0.20353 0.2875 0.05601 0.0
C695 C 0.20303 0.27703 0.01112 0.0
C696 C 0.19324 0.35778 0.97418 0.0
C697 C 0.19731 0.32197 0.0163 0.0
C698 C 0.19411 0.38035 0.97532 0.0
C699 C 0.19729 0.39119 0.01917 0.0
C700 C 0.19569 0.34592 0.01713 0.0
C701 C 0.19854 0.37879 0.06164 0.0
C702 C 0.20068 0.30994 0.05874 0.0
C703 C 0.19928 0.28964 0.96969 0.0
N704 N 0.19793 0.35678 0.05953 0.0
N705 N 0.19665 0.31142 0.9733 0.0
H706 H 0.20885 0.69896 0.42107 0.0
H707 H 0.10041 0.6858 0.57569 0.0
H708 H 0.20728 0.69261 0.57619 0.0
H709 H 0.10077 0.69552 0.42161 0.0
H710 H 0.13991 0.68337 0.57478 0.0
H711 H 0.16963 0.69324 0.41892 0.0
C712 C 0.20032 0.69626 0.45465 0.0
C713 C 0.21139 0.69655 0.49894 0.0
C714 C 0.13137 0.68582 0.54105 0.0
C715 C 0.16653 0.68993 0.49665 0.0
C716 C 0.10883 0.68723 0.5416 0.0
C717 C 0.09736 0.69112 0.49875 0.0
C718 C 0.14256 0.68849 0.49737 0.0
C719 C 0.10901 0.69247 0.45544 0.0
C720 C 0.17792 0.69297 0.45336 0.0
C721 C 0.19946 0.6928 0.54122 0.0
N722 N 0.13103 0.69141 0.45592 0.0
N723 N 0.17769 0.68978 0.53902 0.0
H724 H 0.78542 0.7077 0.07412 0.0
H725 H 0.79852 0.60021 0.91565 0.0
H726 H 0.78717 0.70774 0.91839 0.0
H727 H 0.79453 0.60027 0.07097 0.0
H728 H 0.79693 0.63985 0.91605 0.0
H729 H 0.79077 0.66852 0.07368 0.0
C730 C 0.78692 0.69951 0.03979 0.0
C731 C 0.78571 0.71109 0.99619 0.0
C732 C 0.7965 0.6312 0.95006 0.0
C733 C 0.79192 0.66613 0.99552 0.0
C734 C 0.79757 0.60858 0.94987 0.0
C735 C 0.79653 0.59694 0.99334 0.0
C736 C 0.7944 0.64223 0.99404 0.0
C737 C 0.79503 0.6086 0.03658 0.0
C738 C 0.79001 0.6771 0.0396 0.0
C739 C 0.78788 0.69952 0.95289 0.0
N740 N 0.79393 0.6306 0.03582 0.0
N741 N 0.79083 0.67768 0.95367 0.0
H742 H 0.77771 0.29891 0.41318 0.0
H743 H 0.88582 0.24294 0.50809 0.0
H744 H 0.7794 0.25472 0.53416 0.0
H745 H 0.88631 0.30803 0.44956 0.0
H746 H 0.84643 0.2426 0.50185 0.0
H747 H 0.8176 0.298 0.4105 0.0
C748 C 0.78647 0.2889 0.43882 0.0
C749 C 0.77537 0.27695 0.47412 0.0
C750 C 0.85522 0.25692 0.49028 0.0
C751 C 0.8205 0.27564 0.47076 0.0
C752 C 0.87769 0.25722 0.49414 0.0
C753 C 0.88945 0.27573 0.48026 0.0
C754 C 0.84436 0.27507 0.47167 0.0
C755 C 0.87797 0.2934 0.46064 0.0
C756 C 0.80912 0.28849 0.4374 0.0
C757 C 0.78739 0.26432 0.50668 0.0
N758 N 0.85599 0.29267 0.45702 0.0
N759 N 0.80932 0.26391 0.50408 0.0
H760 H 0.6829 0.21063 0.56182 0.0
H761 H 0.72725 0.10068 0.45554 0.0
H762 H 0.7181 0.20752 0.42762 0.0
H763 H 0.66528 0.10224 0.52817 0.0
H764 H 0.72806 0.14008 0.45651 0.0
H765 H 0.68002 0.17079 0.56147 0.0
C766 C 0.69001 0.20157 0.5324 0.0
C767 C 0.70075 0.21232 0.49467 0.0
C768 C 0.71426 0.13175 0.47204 0.0
C769 C 0.69779 0.16715 0.49454 0.0
C770 C 0.71364 0.10922 0.47119 0.0
C771 C 0.69593 0.09794 0.49099 0.0
C772 C 0.69734 0.14325 0.49381 0.0
C773 C 0.67931 0.11013 0.51267 0.0
C774 C 0.68826 0.17896 0.53213 0.0
C775 C 0.70959 0.19989 0.45727 0.0
N776 N 0.68045 0.13218 0.51367 0.0
N777 N 0.7081 0.17795 0.4584 0.0
H778 H 0.27807 0.22445 0.91576 0.0
H779 H 0.38833 0.17321 0.01227 0.0
H780 H 0.28122 0.18754 0.04812 0.0
H781 H 0.38566 0.23493 0.93781 0.0
H782 H 0.34866 0.17222 0.01215 0.0
H783 H 0.31764 0.22207 0.90927 0.0
C784 C 0.28708 0.21574 0.94323 0.0
C785 C 0.27646 0.20637 0.98279 0.0
C786 C 0.35691 0.18584 0.99557 0.0
C787 C 0.3214 0.20332 0.97514 0.0
C788 C 0.37953 0.18651 0.99582 0.0
C789 C 0.39053 0.20423 0.97519 0.0
C790 C 0.34525 0.20277 0.97379 0.0
C791 C 0.3781 0.22071 0.95336 0.0
C792 C 0.30958 0.21444 0.93956 0.0
C793 C 0.28886 0.19524 0.01741 0.0
N794 N 0.35615 0.21956 0.9532 0.0
N795 N 0.31073 0.19396 0.01272 0.0
H796 H 0.25373 0.77985 0.45579 0.0
H797 H 0.30892 0.88634 0.55225 0.0
H798 H 0.29297 0.77862 0.5848 0.0
H799 H 0.24592 0.88728 0.48358 0.0
H800 H 0.30632 0.84682 0.55887 0.0
H801 H 0.25377 0.81951 0.4584 0.0
C802 C 0.26229 0.78797 0.48474 0.0
C803 C 0.27337 0.77604 0.52013 0.0
C804 C 0.29306 0.85581 0.54265 0.0
C805 C 0.27373 0.82122 0.52289 0.0
C806 C 0.29447 0.87835 0.53896 0.0
C807 C 0.27771 0.89025 0.51683 0.0
C808 C 0.27499 0.84509 0.52334 0.0
C809 C 0.25953 0.87885 0.49967 0.0
C810 C 0.26222 0.81054 0.48632 0.0
C811 C 0.28414 0.78729 0.55701 0.0
N812 N 0.25877 0.8569 0.5028 0.0
N813 N 0.28429 0.80935 0.55713 0.0
H814 H 0.70551 0.76166 0.93392 0.0
H815 H 0.60158 0.82042 0.03673 0.0
H816 H 0.70863 0.79933 0.06474 0.0
H817 H 0.59791 0.75696 0.9709 0.0
H818 H 0.64113 0.81745 0.03691 0.0
H819 H 0.66587 0.76453 0.93555 0.0
C820 C 0.69784 0.77055 0.9629 0.0
C821 C 0.71028 0.78019 -0.00061 0.0
C822 C 0.63153 0.80425 0.02246 0.0
C823 C 0.66522 0.78381 0.00092 0.0
C824 C 0.60895 0.80584 0.02252 0.0
C825 C 0.5962 0.78894 0.00364 0.0
C826 C 0.64143 0.78589 0.00251 0.0
C827 C 0.60689 0.77067 0.98478 0.0
C828 C 0.67529 0.7721 0.96388 0.0
C829 C 0.69957 0.7915 0.03619 0.0
N830 N 0.62887 0.76971 0.98437 0.0
N831 N 0.6776 0.79318 0.03582 0.0
loop_
_geom_bond_atom_site_label_1
_geom_bond_atom_site_label_2
_geom_bond_distance
_geom_bond_site_symmetry_2
_ccdc_geom_bond_type
Sc0 O3 2.031 . S
Sc0 O10 2.105 . S
Sc0 O13 2.105 . S
Sc0 O16 2.105 . S
Sc0 O19 2.105 . S
Sc1 O3 2.025 . S
Sc1 O11 2.110 . S
Sc1 O15 2.100 1_554 S
Sc1 O17 2.110 . S
Sc1 O21 2.100 1_554 S
Sc2 O3 2.020 1_556 S
Sc2 O12 2.105 . S
Sc2 O14 2.105 . S
Sc2 O18 2.105 . S
Sc2 O20 2.105 . S
O3 Sc0 2.031 . S
O3 Sc1 2.025 . S
O3 Sc2 2.020 1_554 S
C4 O10 1.272 . S
C4 O20 1.264 1_554 S
C5 O11 1.268 . S
C5 O19 1.268 . S
C6 O12 1.268 . S
C6 O21 1.268 . S
C7 O13 1.268 . S
C7 O17 1.268 . S
C8 O14 1.260 1_554 S
C8 O16 1.276 . S
C9 O15 1.268 . S
C9 O18 1.268 . S
O10 Sc0 2.105 . S
O10 C4 1.272 . S
O11 Sc1 2.110 . S
O11 C5 1.268 . S
O12 Sc2 2.105 . S
O12 C6 1.268 . S
O13 Sc0 2.105 . S
O13 C7 1.268 . S
O14 Sc2 2.105 . S
O14 C8 1.260 1_556 S
O15 Sc1 2.100 1_556 S
O15 C9 1.268 . S
O16 Sc0 2.105 . S
O16 C8 1.276 . S
O17 Sc1 2.110 . S
O17 C7 1.268 . S
O18 Sc2 2.105 . S
O18 C9 1.268 . S
O19 Sc0 2.105 . S
O19 C5 1.268 . S
O20 Sc2 2.105 . S
O20 C4 1.264 1_556 S
O21 Sc1 2.100 1_556 S
O21 C6 1.268 . S
Sc22 O25 2.025 . S
Sc22 O32 2.105 . S
Sc22 O35 2.105 . S
Sc22 O38 2.105 . S
Sc22 O41 2.105 . S
Sc23 O25 2.025 . S
Sc23 O33 2.105 . S
Sc23 O37 2.105 . S
Sc23 O39 2.105 . S
Sc23 O43 2.105 . S
Sc24 O25 2.025 . S
Sc24 O34 2.105 . S
Sc24 O36 2.105 . S
Sc24 O40 2.105 . S
Sc24 O42 2.105 . S
O25 Sc22 2.025 . S
O25 Sc23 2.025 . S
O25 Sc24 2.025 . S
C26 O32 1.268 . S
C26 O42 1.268 . S
C27 O33 1.268 . S
C27 O41 1.268 . S
C28 O34 1.268 . S
C28 O43 1.268 . S
C29 O35 1.268 . S
C29 O39 1.268 . S
C30 O36 1.268 . S
C30 O38 1.268 . S
C31 O37 1.268 . S
C31 O40 1.268 . S
O32 Sc22 2.105 . S
O32 C26 1.268 . S
O33 Sc23 2.105 . S
O33 C27 1.268 . S
O34 Sc24 2.105 . S
O34 C28 1.268 . S
O35 Sc22 2.105 . S
O35 C29 1.268 . S
O36 Sc24 2.105 . S
O36 C30 1.268 . S
O37 Sc23 2.105 . S
O37 C31 1.268 . S
O38 Sc22 2.105 . S
O38 C30 1.268 . S
O39 Sc23 2.105 . S
O39 C29 1.268 . S
O40 Sc24 2.105 . S
O40 C31 1.268 . S
O41 Sc22 2.105 . S
O41 C27 1.268 . S
O42 Sc24 2.105 . S
O42 C26 1.268 . S
O43 Sc23 2.105 . S
O43 C28 1.268 . S
Sc44 O47 2.020 1_556 S
Sc44 O54 2.105 . S
Sc44 O57 2.105 . S
Sc44 O60 2.105 . S
Sc44 O63 2.105 . S
Sc45 O47 2.025 . S
Sc45 O55 2.100 1_554 S
Sc45 O59 2.110 . S
Sc45 O61 2.100 1_554 S
Sc45 O65 2.110 . S
Sc46 O47 2.031 . S
Sc46 O56 2.105 . S
Sc46 O58 2.105 . S
Sc46 O62 2.105 . S
Sc46 O64 2.105 . S
O47 Sc44 2.020 1_554 S
O47 Sc45 2.025 . S
O47 Sc46 2.031 . S
C48 O54 1.264 1_554 S
C48 O64 1.272 . S
C49 O55 1.268 . S
C49 O63 1.268 . S
C50 O56 1.268 . S
C50 O65 1.268 . S
C51 O57 1.268 . S
C51 O61 1.268 . S
C52 O58 1.276 . S
C52 O60 1.260 1_554 S
C53 O59 1.268 . S
C53 O62 1.268 . S
O54 Sc44 2.105 . S
O54 C48 1.264 1_556 S
O55 Sc45 2.100 1_556 S
O55 C49 1.268 . S
O56 Sc46 2.105 . S
O56 C50 1.268 . S
O57 Sc44 2.105 . S
O57 C51 1.268 . S
O58 Sc46 2.105 . S
O58 C52 1.276 . S
O59 Sc45 2.110 . S
O59 C53 1.268 . S
O60 Sc44 2.105 . S
O60 C52 1.260 1_556 S
O61 Sc45 2.100 1_556 S
O61 C51 1.268 . S
O62 Sc46 2.105 . S
O62 C53 1.268 . S
O63 Sc44 2.105 . S
O63 C49 1.268 . S
O64 Sc46 2.105 . S
O64 C48 1.272 . S
O65 Sc45 2.110 . S
O65 C50 1.268 . S
Sc66 O69 2.025 . S
Sc66 O76 2.105 . S
Sc66 O79 2.105 . S
Sc66 O82 2.105 . S
Sc66 O85 2.105 . S
Sc67 O69 2.025 . S
Sc67 O77 2.105 . S
Sc67 O81 2.105 . S
Sc67 O83 2.105 . S
Sc67 O87 2.105 . S
Sc68 O69 2.025 . S
Sc68 O78 2.105 . S
Sc68 O80 2.105 . S
Sc68 O84 2.105 . S
Sc68 O86 2.105 . S
O69 Sc66 2.025 . S
O69 Sc67 2.025 . S
O69 Sc68 2.025 . S
C70 O76 1.268 . S
C70 O86 1.268 . S
C71 O77 1.268 . S
C71 O85 1.268 . S
C72 O78 1.268 . S
C72 O87 1.268 . S
C73 O79 1.268 . S
C73 O83 1.268 . S
C74 O80 1.268 . S
C74 O82 1.268 . S
C75 O81 1.268 . S
C75 O84 1.268 . S
O76 Sc66 2.105 . S
O76 C70 1.268 . S
O77 Sc67 2.105 . S
O77 C71 1.268 . S
O78 Sc68 2.105 . S
O78 C72 1.268 . S
O79 Sc66 2.105 . S
O79 C73 1.268 . S
O80 Sc68 2.105 . S
O80 C74 1.268 . S
O81 Sc67 2.105 . S
O81 C75 1.268 . S
O82 Sc66 2.105 . S
O82 C74 1.268 . S
O83 Sc67 2.105 . S
O83 C73 1.268 . S
O84 Sc68 2.105 . S
O84 C75 1.268 . S
O85 Sc66 2.105 . S
O85 C71 1.268 . S
O86 Sc68 2.105 . S
O86 C70 1.268 . S
O87 Sc67 2.105 . S
O87 C72 1.268 . S
C88 C89 1.386 . S
C88 C90 1.397 . S
C88 H112 0.931 . S
C89 C88 1.386 . S
C89 C93 1.397 . S
C90 C88 1.397 . S
C90 C91 1.384 . S
C90 H113 0.930 . S
C91 C90 1.384 . S
C91 C92 1.377 . S
C91 C94 1.481 . S
C92 C91 1.377 . S
C92 C93 1.389 . S
C92 H114 0.929 . S
C93 C89 1.397 . S
C93 C92 1.389 . S
C93 H115 0.931 . S
C94 C91 1.481 . S
C94 C95 1.387 . S
C94 C99 1.390 1_556 S
C95 C94 1.387 . S
C95 C96 1.401 1_556 S
C95 H116 0.930 . S
C96 C95 1.401 1_554 S
C96 C97 1.376 . S
C96 C105 1.511 . S
C97 C96 1.376 . S
C97 C98 1.392 . S
C97 H118 0.931 . S
C98 C97 1.392 . S
C98 C99 1.361 . S
C98 C100 1.500 . S
C99 C94 1.390 1_554 S
C99 C98 1.361 . S
C99 H117 0.931 . S
C100 C98 1.500 . S
C100 C101 1.371 . S
C100 C102 1.365 . S
C101 C100 1.371 . S
C101 C111 1.386 . S
C101 H119 0.931 . S
C102 C100 1.365 . S
C102 C103 1.409 . S
C102 H120 0.929 . S
C103 C102 1.409 . S
C103 C104 1.380 . S
C103 H121 0.930 . S
C104 C103 1.380 . S
C104 C111 1.357 . S
C105 C96 1.511 . S
C105 C106 1.341 1_554 S
C105 C107 1.371 . S
C106 C105 1.341 1_556 S
C106 C110 1.394 . S
C106 H122 0.930 . S
C107 C105 1.371 . S
C107 C108 1.392 . S
C107 H123 0.931 . S
C108 C107 1.392 . S
C108 C109 1.347 . S
C108 H126 0.932 . S
C109 C108 1.347 . S
C109 C110 1.320 1_554 S
C110 C106 1.394 . S
C110 C109 1.320 1_556 S
C110 H125 0.929 . S
C111 C101 1.386 . S
C111 C104 1.357 . S
C111 H124 0.928 . S
H112 C88 0.931 . S
H113 C90 0.930 . S
H114 C92 0.929 . S
H115 C93 0.931 . S
H116 C95 0.930 . S
H117 C99 0.931 . S
H118 C97 0.931 . S
H119 C101 0.931 . S
H120 C102 0.929 . S
H121 C103 0.930 . S
H122 C106 0.930 . S
H123 C107 0.931 . S
H124 C111 0.928 . S
H125 C110 0.929 . S
H126 C108 0.932 . S
C127 C128 1.386 . S
C127 C129 1.397 . S
C127 H151 0.931 . S
C128 C127 1.386 . S
C128 C132 1.397 . S
C129 C127 1.397 . S
C129 C130 1.384 . S
C129 H152 0.930 . S
C130 C129 1.384 . S
C130 C131 1.377 . S
C130 C133 1.481 . S
C131 C130 1.377 . S
C131 C132 1.389 . S
C131 H153 0.929 . S
C132 C128 1.397 . S
C132 C131 1.389 . S
C132 H154 0.931 . S
C133 C130 1.481 . S
C133 C134 1.387 . S
C133 C138 1.390 . S
C134 C133 1.387 . S
C134 C135 1.401 1_655 S
C134 H155 0.948 . S
C135 C134 1.401 1_455 S
C135 C136 1.376 1_455 S
C135 C144 1.511 . S
C136 C135 1.376 1_655 S
C136 C137 1.392 . S
C136 H157 0.931 . S
C137 C136 1.392 . S
C137 C138 1.361 . S
C137 C139 1.500 . S
C138 C133 1.390 . S
C138 C137 1.361 . S
C138 H156 0.931 . S
C139 C137 1.500 . S
C139 C140 1.371 . S
C139 C141 1.365 . S
C140 C139 1.371 . S
C140 C150 1.386 . S
C140 H158 0.931 . S
C141 C139 1.365 . S
C141 C142 1.409 . S
C141 H159 0.929 . S
C142 C141 1.409 . S
C142 C143 1.380 . S
C142 H160 0.930 . S
C143 C142 1.380 . S
C143 C150 1.357 . S
C144 C135 1.511 . S
C144 C145 1.341 . S
C144 C146 1.371 . S
C145 C144 1.341 . S
C145 C149 1.394 . S
C145 H161 0.930 . S
C146 C144 1.371 . S
C146 C147 1.392 . S
C146 H162 0.931 . S
C147 C146 1.392 . S
C147 C148 1.331 . S
C147 H165 0.932 . S
C148 C147 1.331 . S
C148 C149 1.336 . S
C149 C145 1.394 . S
C149 C148 1.336 . S
C149 H164 0.929 . S
C150 C140 1.386 . S
C150 C143 1.357 . S
C150 H163 0.928 . S
H151 C127 0.931 . S
H152 C129 0.930 . S
H153 C131 0.929 . S
H154 C132 0.931 . S
H155 C134 0.948 . S
H156 C138 0.931 . S
H157 C136 0.931 . S
H158 C140 0.931 . S
H159 C141 0.929 . S
H160 C142 0.930 . S
H161 C145 0.930 . S
H162 C146 0.931 . S
H163 C150 0.928 . S
H164 C149 0.929 . S
H165 C147 0.932 . S
C166 C167 1.386 . S
C166 C168 1.397 . S
C166 H190 0.931 . S
C167 C166 1.386 . S
C167 C171 1.397 . S
C168 C166 1.397 . S
C168 C169 1.384 . S
C168 H191 0.930 . S
C169 C168 1.384 . S
C169 C170 1.377 . S
C169 C172 1.481 . S
C170 C169 1.377 . S
C170 C171 1.389 . S
C170 H192 0.929 . S
C171 C167 1.397 . S
C171 C170 1.389 . S
C171 H193 0.931 . S
C172 C169 1.481 . S
C172 C173 1.387 . S
C172 C177 1.381 1_554 S
C173 C172 1.387 . S
C173 C174 1.401 1_554 S
C173 H194 0.930 . S
C174 C173 1.401 1_556 S
C174 C175 1.376 . S
C174 C183 1.511 . S
C175 C174 1.376 . S
C175 C176 1.392 . S
C175 H196 0.931 . S
C176 C175 1.392 . S
C176 C177 1.371 . S
C176 C178 1.500 . S
C177 C172 1.381 1_556 S
C177 C176 1.371 . S
C177 H195 0.931 . S
C178 C176 1.500 . S
C178 C179 1.371 . S
C178 C180 1.365 . S
C179 C178 1.371 . S
C179 C189 1.386 . S
C179 H197 0.931 . S
C180 C178 1.365 . S
C180 C181 1.409 . S
C180 H198 0.929 . S
C181 C180 1.409 . S
C181 C182 1.380 . S
C181 H199 0.930 . S
C182 C181 1.380 . S
C182 C189 1.357 . S
C183 C174 1.511 . S
C183 C184 1.341 1_556 S
C183 C185 1.371 . S
C184 C183 1.341 1_554 S
C184 C188 1.394 . S
C184 H200 0.930 . S
C185 C183 1.371 . S
C185 C186 1.392 . S
C185 H201 0.931 . S
C186 C185 1.392 . S
C186 C187 1.333 . S
C186 H204 0.932 . S
C187 C186 1.333 . S
C187 C188 1.334 1_556 S
C188 C184 1.394 . S
C188 C187 1.334 1_554 S
C188 H203 0.929 . S
C189 C179 1.386 . S
C189 C182 1.357 . S
C189 H202 0.928 . S
H190 C166 0.931 . S
H191 C168 0.930 . S
H192 C170 0.929 . S
H193 C171 0.931 . S
H194 C173 0.930 . S
H195 C177 0.931 . S
H196 C175 0.931 . S
H197 C179 0.931 . S
H198 C180 0.929 . S
H199 C181 0.930 . S
H200 C184 0.930 . S
H201 C185 0.931 . S
H202 C189 0.928 . S
H203 C188 0.929 . S
H204 C186 0.932 . S
C205 C206 1.386 . S
C205 C207 1.397 . S
C205 H229 0.931 . S
C206 C205 1.386 . S
C206 C210 1.397 . S
C207 C205 1.397 . S
C207 C208 1.384 . S
C207 H230 0.930 . S
C208 C207 1.384 . S
C208 C209 1.377 . S
C208 C211 1.481 . S
C209 C208 1.377 . S
C209 C210 1.389 . S
C209 H231 0.929 . S
C210 C206 1.397 . S
C210 C209 1.389 . S
C210 H232 0.931 . S
C211 C208 1.481 . S
C211 C212 1.387 . S
C211 C216 1.390 . S
C212 C211 1.387 . S
C212 C213 1.401 1_455 S
C212 H233 0.929 . S
C213 C212 1.401 1_655 S
C213 C214 1.376 1_655 S
C213 C222 1.511 . S
C214 C213 1.376 1_455 S
C214 C215 1.392 . S
C214 H235 0.952 . S
C215 C214 1.392 . S
C215 C216 1.361 . S
C215 C217 1.500 . S
C216 C211 1.390 . S
C216 C215 1.361 . S
C216 H234 0.931 . S
C217 C215 1.500 . S
C217 C218 1.371 . S
C217 C219 1.365 . S
C218 C217 1.371 . S
C218 C228 1.386 . S
C218 H236 0.931 . S
C219 C217 1.365 . S
C219 C220 1.409 . S
C219 H237 0.929 . S
C220 C219 1.409 . S
C220 C221 1.380 . S
C220 H238 0.930 . S
C221 C220 1.380 . S
C221 C228 1.357 . S
C222 C213 1.511 . S
C222 C223 1.341 . S
C222 C224 1.371 . S
C223 C222 1.341 . S
C223 C227 1.394 . S
C223 H239 0.930 . S
C224 C222 1.371 . S
C224 C225 1.392 . S
C224 H240 0.931 . S
C225 C224 1.392 . S
C225 C226 1.331 . S
C225 H243 0.932 . S
C226 C225 1.331 . S
C226 C227 1.336 . S
C227 C223 1.394 . S
C227 C226 1.336 . S
C227 H242 0.929 . S
C228 C218 1.386 . S
C228 C221 1.357 . S
C228 H241 0.928 . S
H229 C205 0.931 . S
H230 C207 0.930 . S
H231 C209 0.929 . S
H232 C210 0.931 . S
H233 C212 0.929 . S
H234 C216 0.931 . S
H235 C214 0.952 . S
H236 C218 0.931 . S
H237 C219 0.929 . S
H238 C220 0.930 . S
H239 C223 0.930 . S
H240 C224 0.931 . S
H241 C228 0.928 . S
H242 C227 0.929 . S
H243 C225 0.932 . S
C244 C245 1.386 . S
C244 C246 1.397 . S
C244 H268 0.931 . S
C245 C244 1.386 . S
C245 C249 1.397 . S
C246 C244 1.397 . S
C246 C247 1.384 . S
C246 H269 0.930 . S
C247 C246 1.384 . S
C247 C248 1.377 . S
C247 C250 1.481 . S
C248 C247 1.377 . S
C248 C249 1.389 . S
C248 H270 0.929 . S
C249 C245 1.397 . S
C249 C248 1.389 . S
C249 H271 0.931 . S
C250 C247 1.481 . S
C250 C251 1.387 . S
C250 C255 1.390 . S
C251 C250 1.387 . S
C251 C252 1.401 1_565 S
C251 H272 0.948 . S
C252 C251 1.401 1_545 S
C252 C253 1.376 1_545 S
C252 C261 1.511 . S
C253 C252 1.376 1_565 S
C253 C254 1.392 . S
C253 H274 0.931 . S
C254 C253 1.392 . S
C254 C255 1.361 . S
C254 C256 1.500 . S
C255 C250 1.390 . S
C255 C254 1.361 . S
C255 H273 0.931 . S
C256 C254 1.500 . S
C256 C257 1.371 . S
C256 C258 1.365 . S
C257 C256 1.371 . S
C257 C267 1.386 . S
C257 H275 0.931 . S
C258 C256 1.365 . S
C258 C259 1.409 . S
C258 H276 0.929 . S
C259 C258 1.409 . S
C259 C260 1.380 . S
C259 H277 0.930 . S
C260 C259 1.380 . S
C260 C267 1.357 . S
C261 C252 1.511 . S
C261 C262 1.341 . S
C261 C263 1.371 . S
C262 C261 1.341 . S
C262 C266 1.394 . S
C262 H278 0.930 . S
C263 C261 1.371 . S
C263 C264 1.392 . S
C263 H279 0.931 . S
C264 C263 1.392 . S
C264 C265 1.331 . S
C264 H282 0.932 . S
C265 C264 1.331 . S
C265 C266 1.336 . S
C266 C262 1.394 . S
C266 C265 1.336 . S
C266 H281 0.929 . S
C267 C257 1.386 . S
C267 C260 1.357 . S
C267 H280 0.928 . S
H268 C244 0.931 . S
H269 C246 0.930 . S
H270 C248 0.929 . S
H271 C249 0.931 . S
H272 C251 0.948 . S
H273 C255 0.931 . S
H274 C253 0.931 . S
H275 C257 0.931 . S
H276 C258 0.929 . S
H277 C259 0.930 . S
H278 C262 0.930 . S
H279 C263 0.931 . S
H280 C267 0.928 . S
H281 C266 0.929 . S
H282 C264 0.932 . S
C283 C284 1.386 . S
C283 C285 1.397 . S
C283 H307 0.931 . S
C284 C283 1.386 . S
C284 C288 1.397 . S
C285 C283 1.397 . S
C285 C286 1.384 . S
C285 H308 0.930 . S
C286 C285 1.384 . S
C286 C287 1.377 . S
C286 C289 1.481 . S
C287 C286 1.377 . S
C287 C288 1.389 . S
C287 H309 0.929 . S
C288 C284 1.397 . S
C288 C287 1.389 . S
C288 H310 0.931 . S
C289 C286 1.481 . S
C289 C290 1.387 . S
C289 C294 1.381 1_554 S
C290 C289 1.387 . S
C290 C291 1.401 1_554 S
C290 H311 0.930 . S
C291 C290 1.401 1_556 S
C291 C292 1.376 . S
C291 C300 1.511 . S
C292 C291 1.376 . S
C292 C293 1.392 . S
C292 H313 0.931 . S
C293 C292 1.392 . S
C293 C294 1.371 . S
C293 C295 1.500 . S
C294 C289 1.381 1_556 S
C294 C293 1.371 . S
C294 H312 0.931 . S
C295 C293 1.500 . S
C295 C296 1.371 . S
C295 C297 1.365 . S
C296 C295 1.371 . S
C296 C306 1.386 . S
C296 H314 0.931 . S
C297 C295 1.365 . S
C297 C298 1.409 . S
C297 H315 0.929 . S
C298 C297 1.409 . S
C298 C299 1.380 . S
C298 H316 0.930 . S
C299 C298 1.380 . S
C299 C306 1.357 . S
C300 C291 1.511 . S
C300 C301 1.341 1_556 S
C300 C302 1.371 . S
C301 C300 1.341 1_554 S
C301 C305 1.394 . S
C301 H317 0.930 . S
C302 C300 1.371 . S
C302 C303 1.392 . S
C302 H318 0.931 . S
C303 C302 1.392 . S
C303 C304 1.333 . S
C303 H321 0.932 . S
C304 C303 1.333 . S
C304 C305 1.334 1_556 S
C305 C301 1.394 . S
C305 C304 1.334 1_554 S
C305 H320 0.929 . S
C306 C296 1.386 . S
C306 C299 1.357 . S
C306 H319 0.928 . S
H307 C283 0.931 . S
H308 C285 0.930 . S
H309 C287 0.929 . S
H310 C288 0.931 . S
H311 C290 0.930 . S
H312 C294 0.931 . S
H313 C292 0.931 . S
H314 C296 0.931 . S
H315 C297 0.929 . S
H316 C298 0.930 . S
H317 C301 0.930 . S
H318 C302 0.931 . S
H319 C306 0.928 . S
H320 C305 0.929 . S
H321 C303 0.932 . S
C322 C323 1.386 . S
C322 C324 1.397 . S
C322 H346 0.931 . S
C323 C322 1.386 . S
C323 C327 1.397 . S
C324 C322 1.397 . S
C324 C325 1.384 . S
C324 H347 0.930 . S
C325 C324 1.384 . S
C325 C326 1.377 . S
C325 C328 1.481 . S
C326 C325 1.377 . S
C326 C327 1.389 . S
C326 H348 0.929 . S
C327 C323 1.397 . S
C327 C326 1.389 . S
C327 H349 0.931 . S
C328 C325 1.481 . S
C328 C329 1.387 . S
C328 C333 1.390 . S
C329 C328 1.387 . S
C329 C330 1.401 1_545 S
C329 H350 0.928 . S
C330 C329 1.401 1_565 S
C330 C331 1.376 1_565 S
C330 C339 1.511 . S
C331 C330 1.376 1_545 S
C331 C332 1.392 . S
C331 H352 0.952 . S
C332 C331 1.392 . S
C332 C333 1.361 . S
C332 C334 1.500 . S
C333 C328 1.390 . S
C333 C332 1.361 . S
C333 H351 0.931 . S
C334 C332 1.500 . S
C334 C335 1.371 . S
C334 C336 1.365 . S
C335 C334 1.371 . S
C335 C345 1.386 . S
C335 H353 0.931 . S
C336 C334 1.365 . S
C336 C337 1.409 . S
C336 H354 0.929 . S
C337 C336 1.409 . S
C337 C338 1.380 . S
C337 H355 0.930 . S
C338 C337 1.380 . S
C338 C345 1.357 . S
C339 C330 1.511 . S
C339 C340 1.341 . S
C339 C341 1.371 . S
C340 C339 1.341 . S
C340 C344 1.394 . S
C340 H356 0.930 . S
C341 C339 1.371 . S
C341 C342 1.392 . S
C341 H357 0.931 . S
C342 C341 1.392 . S
C342 C343 1.331 . S
C342 H360 0.932 . S
C343 C342 1.331 . S
C343 C344 1.336 . S
C344 C340 1.394 . S
C344 C343 1.336 . S
C344 H359 0.929 . S
C345 C335 1.386 . S
C345 C338 1.357 . S
C345 H358 0.928 . S
H346 C322 0.931 . S
H347 C324 0.930 . S
H348 C326 0.929 . S
H349 C327 0.931 . S
H350 C329 0.928 . S
H351 C333 0.931 . S
H352 C331 0.952 . S
H353 C335 0.931 . S
H354 C336 0.929 . S
H355 C337 0.930 . S
H356 C340 0.930 . S
H357 C341 0.931 . S
H358 C345 0.928 . S
H359 C344 0.929 . S
H360 C342 0.932 . S
C361 C362 1.386 . S
C361 C363 1.397 . S
C361 H385 0.931 . S
C362 C361 1.386 . S
C362 C366 1.397 . S
C363 C361 1.397 . S
C363 C364 1.384 . S
C363 H386 0.930 . S
C364 C363 1.384 . S
C364 C365 1.377 . S
C364 C367 1.481 . S
C365 C364 1.377 . S
C365 C366 1.389 . S
C365 H387 0.929 . S
C366 C362 1.397 . S
C366 C365 1.389 . S
C366 H388 0.931 . S
C367 C364 1.481 . S
C367 C368 1.387 . S
C367 C372 1.390 1_556 S
C368 C367 1.387 . S
C368 C369 1.401 1_556 S
C368 H389 0.930 . S
C369 C368 1.401 1_554 S
C369 C370 1.376 . S
C369 C378 1.511 . S
C370 C369 1.376 . S
C370 C371 1.392 . S
C370 H391 0.931 . S
C371 C370 1.392 . S
C371 C372 1.361 . S
C371 C373 1.500 . S
C372 C367 1.390 1_554 S
C372 C371 1.361 . S
C372 H390 0.931 . S
C373 C371 1.500 . S
C373 C374 1.371 . S
C373 C375 1.365 . S
C374 C373 1.371 . S
C374 C384 1.386 . S
C374 H392 0.931 . S
C375 C373 1.365 . S
C375 C376 1.409 . S
C375 H393 0.929 . S
C376 C375 1.409 . S
C376 C377 1.380 . S
C376 H394 0.930 . S
C377 C376 1.380 . S
C377 C384 1.357 . S
C378 C369 1.511 . S
C378 C379 1.341 1_554 S
C378 C380 1.371 . S
C379 C378 1.341 1_556 S
C379 C383 1.394 . S
C379 H395 0.930 . S
C380 C378 1.371 . S
C380 C381 1.392 . S
C380 H396 0.931 . S
C381 C380 1.392 . S
C381 C382 1.347 . S
C381 H399 0.932 . S
C382 C381 1.347 . S
C382 C383 1.320 1_554 S
C383 C379 1.394 . S
C383 C382 1.320 1_556 S
C383 H398 0.929 . S
C384 C374 1.386 . S
C384 C377 1.357 . S
C384 H397 0.928 . S
H385 C361 0.931 . S
H386 C363 0.930 . S
H387 C365 0.929 . S
H388 C366 0.931 . S
H389 C368 0.930 . S
H390 C372 0.931 . S
H391 C370 0.931 . S
H392 C374 0.931 . S
H393 C375 0.929 . S
H394 C376 0.930 . S
H395 C379 0.930 . S
H396 C380 0.931 . S
H397 C384 0.928 . S
H398 C383 0.929 . S
H399 C381 0.932 . S
H400 C406 0.930 . S
H401 C410 0.930 . S
H402 C415 0.929 . S
H403 C413 0.929 . S
H404 C408 0.929 . S
H405 C414 0.929 . S
C406 H400 0.930 . S
C406 C407 1.367 . S
C406 C414 1.378 . S
C407 C406 1.367 . S
C407 C415 1.433 . S
C408 H404 0.929 . S
C408 C410 1.378 . S
C408 C412 1.350 . S
C409 C412 1.463 . S
C409 C414 1.350 . S
C409 N417 1.427 . S
C410 H401 0.930 . S
C410 C408 1.378 . S
C410 C411 1.367 . S
C411 C410 1.367 . S
C411 C413 1.433 . S
C412 C408 1.350 . S
C412 C409 1.463 . S
C412 N416 1.427 . S
C413 H403 0.929 . S
C413 C411 1.433 . S
C413 N416 1.384 . S
C414 H405 0.929 . S
C414 C406 1.378 . S
C414 C409 1.350 . S
C415 H402 0.929 . S
C415 C407 1.433 . S
C415 N417 1.384 . S
N416 C412 1.427 . S
N416 C413 1.384 . S
N417 C409 1.427 . S
N417 C415 1.384 . S
H418 C424 0.930 . S
H419 C428 0.930 . S
H420 C433 0.929 . S
H421 C431 0.929 . S
H422 C426 0.929 . S
H423 C432 0.929 . S
C424 H418 0.930 . S
C424 C425 1.367 . S
C424 C432 1.378 . S
C425 C424 1.367 . S
C425 C433 1.433 . S
C426 H422 0.929 . S
C426 C428 1.378 . S
C426 C430 1.350 . S
C427 C430 1.463 . S
C427 C432 1.350 . S
C427 N435 1.427 . S
C428 H419 0.930 . S
C428 C426 1.378 . S
C428 C429 1.367 . S
C429 C428 1.367 . S
C429 C431 1.433 . S
C430 C426 1.350 . S
C430 C427 1.463 . S
C430 N434 1.427 . S
C431 H421 0.929 . S
C431 C429 1.433 . S
C431 N434 1.384 . S
C432 H423 0.929 . S
C432 C424 1.378 . S
C432 C427 1.350 . S
C433 H420 0.929 . S
C433 C425 1.433 . S
C433 N435 1.384 . S
N434 C430 1.427 . S
N434 C431 1.384 . S
N435 C427 1.427 . S
N435 C433 1.384 . S
H436 C442 0.930 . S
H437 C446 0.930 . S
H438 C451 0.929 . S
H439 C449 0.929 . S
H440 C444 0.929 . S
H441 C450 0.929 . S
C442 H436 0.930 . S
C442 C443 1.367 . S
C442 C450 1.378 . S
C443 C442 1.367 . S
C443 C451 1.433 . S
C444 H440 0.929 . S
C444 C446 1.378 . S
C444 C448 1.350 . S
C445 C448 1.463 . S
C445 C450 1.350 . S
C445 N453 1.427 . S
C446 H437 0.930 . S
C446 C444 1.378 . S
C446 C447 1.367 . S
C447 C446 1.367 . S
C447 C449 1.433 . S
C448 C444 1.350 . S
C448 C445 1.463 . S
C448 N452 1.427 . S
C449 H439 0.929 . S
C449 C447 1.433 . S
C449 N452 1.384 . S
C450 H441 0.929 . S
C450 C442 1.378 . S
C450 C445 1.350 . S
C451 H438 0.929 . S
C451 C443 1.433 . S
C451 N453 1.384 . S
N452 C448 1.427 . S
N452 C449 1.384 . S
N453 C445 1.427 . S
N453 C451 1.384 . S
H454 C460 0.930 . S
H455 C464 0.930 . S
H456 C469 0.929 . S
H457 C467 0.929 . S
H458 C462 0.929 . S
H459 C468 0.929 . S
C460 H454 0.930 . S
C460 C461 1.367 . S
C460 C468 1.378 . S
C461 C460 1.367 . S
C461 C469 1.433 . S
C462 H458 0.929 . S
C462 C464 1.378 . S
C462 C466 1.350 . S
C463 C466 1.463 . S
C463 C468 1.350 . S
C463 N471 1.427 . S
C464 H455 0.930 . S
C464 C462 1.378 . S
C464 C465 1.367 . S
C465 C464 1.367 . S
C465 C467 1.433 . S
C466 C462 1.350 . S
C466 C463 1.463 . S
C466 N470 1.427 . S
C467 H457 0.929 . S
C467 C465 1.433 . S
C467 N470 1.384 . S
C468 H459 0.929 . S
C468 C460 1.378 . S
C468 C463 1.350 . S
C469 H456 0.929 . S
C469 C461 1.433 . S
C469 N471 1.384 . S
N470 C466 1.427 . S
N470 C467 1.384 . S
N471 C463 1.427 . S
N471 C469 1.384 . S
H472 C478 0.930 . S
H473 C482 0.930 . S
H474 C487 0.929 . S
H475 C485 0.929 . S
H476 C480 0.929 . S
H477 C486 0.929 . S
C478 H472 0.930 . S
C478 C479 1.367 . S
C478 C486 1.378 . S
C479 C478 1.367 . S
C479 C487 1.433 . S
C480 H476 0.929 . S
C480 C482 1.378 . S
C480 C484 1.350 . S
C481 C484 1.463 . S
C481 C486 1.350 . S
C481 N489 1.427 . S
C482 H473 0.930 . S
C482 C480 1.378 . S
C482 C483 1.367 . S
C483 C482 1.367 . S
C483 C485 1.433 . S
C484 C480 1.350 . S
C484 C481 1.463 . S
C484 N488 1.427 . S
C485 H475 0.929 . S
C485 C483 1.433 . S
C485 N488 1.384 . S
C486 H477 0.929 . S
C486 C478 1.378 . S
C486 C481 1.350 . S
C487 H474 0.929 . S
C487 C479 1.433 . S
C487 N489 1.384 . S
N488 C484 1.427 . S
N488 C485 1.384 . S
N489 C481 1.427 . S
N489 C487 1.384 . S
H490 C496 0.930 . S
H491 C500 0.930 . S
H492 C505 0.929 . S
H493 C503 0.929 . S
H494 C498 0.929 . S
H495 C504 0.929 . S
C496 H490 0.930 . S
C496 C497 1.367 . S
C496 C504 1.378 . S
C497 C496 1.367 . S
C497 C505 1.433 . S
C498 H494 0.929 . S
C498 C500 1.378 . S
C498 C502 1.350 . S
C499 C502 1.463 . S
C499 C504 1.350 . S
C499 N507 1.427 . S
C500 H491 0.930 . S
C500 C498 1.378 . S
C500 C501 1.367 . S
C501 C500 1.367 . S
C501 C503 1.433 . S
C502 C498 1.350 . S
C502 C499 1.463 . S
C502 N506 1.427 . S
C503 H493 0.929 . S
C503 C501 1.433 . S
C503 N506 1.384 . S
C504 H495 0.929 . S
C504 C496 1.378 . S
C504 C499 1.350 . S
C505 H492 0.929 . S
C505 C497 1.433 . S
C505 N507 1.384 . S
N506 C502 1.427 . S
N506 C503 1.384 . S
N507 C499 1.427 . S
N507 C505 1.384 . S
H508 C514 0.930 . S
H509 C518 0.930 . S
H510 C523 0.929 . S
H511 C521 0.929 . S
H512 C516 0.929 . S
H513 C522 0.929 . S
C514 H508 0.930 . S
C514 C515 1.367 . S
C514 C522 1.378 . S
C515 C514 1.367 . S
C515 C523 1.433 . S
C516 H512 0.929 . S
C516 C518 1.378 . S
C516 C520 1.350 . S
C517 C520 1.463 . S
C517 C522 1.350 . S
C517 N525 1.427 . S
C518 H509 0.930 . S
C518 C516 1.378 . S
C518 C519 1.367 . S
C519 C518 1.367 . S
C519 C521 1.433 . S
C520 C516 1.350 . S
C520 C517 1.463 . S
C520 N524 1.427 . S
C521 H511 0.929 . S
C521 C519 1.433 . S
C521 N524 1.384 . S
C522 H513 0.929 . S
C522 C514 1.378 . S
C522 C517 1.350 . S
C523 H510 0.929 . S
C523 C515 1.433 . S
C523 N525 1.384 . S
N524 C520 1.427 . S
N524 C521 1.384 . S
N525 C517 1.427 . S
N525 C523 1.384 . S
H526 C532 0.930 . S
H527 C536 0.930 . S
H528 C541 0.929 . S
H529 C539 0.929 . S
H530 C534 0.929 . S
H531 C540 0.929 . S
C532 H526 0.930 . S
C532 C533 1.367 . S
C532 C540 1.378 . S
C533 C532 1.367 . S
C533 C541 1.433 . S
C534 H530 0.929 . S
C534 C536 1.378 . S
C534 C538 1.350 . S
C535 C538 1.463 . S
C535 C540 1.350 . S
C535 N543 1.427 . S
C536 H527 0.930 . S
C536 C534 1.378 . S
C536 C537 1.367 . S
C537 C536 1.367 . S
C537 C539 1.433 . S
C538 C534 1.350 . S
C538 C535 1.463 . S
C538 N542 1.427 . S
C539 H529 0.929 . S
C539 C537 1.433 . S
C539 N542 1.384 . S
C540 H531 0.929 . S
C540 C532 1.378 . S
C540 C535 1.350 . S
C541 H528 0.929 . S
C541 C533 1.433 . S
C541 N543 1.384 . S
N542 C538 1.427 . S
N542 C539 1.384 . S
N543 C535 1.427 . S
N543 C541 1.384 . S
H544 C550 0.930 . S
H545 C554 0.930 . S
H546 C559 0.929 . S
H547 C557 0.929 . S
H548 C552 0.929 . S
H549 C558 0.929 . S
C550 H544 0.930 . S
C550 C551 1.367 . S
C550 C558 1.378 . S
C551 C550 1.367 . S
C551 C559 1.433 . S
C552 H548 0.929 . S
C552 C554 1.378 . S
C552 C556 1.350 . S
C553 C556 1.463 . S
C553 C558 1.350 . S
C553 N561 1.427 . S
C554 H545 0.930 . S
C554 C552 1.378 . S
C554 C555 1.367 . S
C555 C554 1.367 . S
C555 C557 1.433 . S
C556 C552 1.350 . S
C556 C553 1.463 . S
C556 N560 1.427 . S
C557 H547 0.929 . S
C557 C555 1.433 . S
C557 N560 1.384 . S
C558 H549 0.929 . S
C558 C550 1.378 . S
C558 C553 1.350 . S
C559 H546 0.929 . S
C559 C551 1.433 . S
C559 N561 1.384 . S
N560 C556 1.427 . S
N560 C557 1.384 . S
N561 C553 1.427 . S
N561 C559 1.384 . S
H562 C568 0.930 . S
H563 C572 0.930 . S
H564 C577 0.929 . S
H565 C575 0.929 . S
H566 C570 0.929 . S
H567 C576 0.929 . S
C568 H562 0.930 . S
C568 C569 1.367 . S
C568 C576 1.378 . S
C569 C568 1.367 . S
C569 C577 1.433 . S
C570 H566 0.929 . S
C570 C572 1.378 . S
C570 C574 1.350 . S
C571 C574 1.463 . S
C571 C576 1.350 . S
C571 N579 1.427 . S
C572 H563 0.930 . S
C572 C570 1.378 . S
C572 C573 1.367 . S
C573 C572 1.367 . S
C573 C575 1.433 . S
C574 C570 1.350 . S
C574 C571 1.463 . S
C574 N578 1.427 . S
C575 H565 0.929 . S
C575 C573 1.433 . S
C575 N578 1.384 . S
C576 H567 0.929 . S
C576 C568 1.378 . S
C576 C571 1.350 . S
C577 H564 0.929 . S
C577 C569 1.433 . S
C577 N579 1.384 . S
N578 C574 1.427 . S
N578 C575 1.384 . S
N579 C571 1.427 . S
N579 C577 1.384 . S
H580 C586 0.930 . S
H581 C590 0.930 . S
H582 C595 0.929 . S
H583 C593 0.929 . S
H584 C588 0.929 . S
H585 C594 0.929 . S
C586 H580 0.930 . S
C586 C587 1.367 . S
C586 C594 1.378 . S
C587 C586 1.367 . S
C587 C595 1.433 . S
C588 H584 0.929 . S
C588 C590 1.378 . S
C588 C592 1.350 . S
C589 C592 1.463 . S
C589 C594 1.350 . S
C589 N597 1.427 . S
C590 H581 0.930 . S
C590 C588 1.378 . S
C590 C591 1.367 . S
C591 C590 1.367 . S
C591 C593 1.433 . S
C592 C588 1.350 . S
C592 C589 1.463 . S
C592 N596 1.427 . S
C593 H583 0.929 . S
C593 C591 1.433 . S
C593 N596 1.384 . S
C594 H585 0.929 . S
C594 C586 1.378 . S
C594 C589 1.350 . S
C595 H582 0.929 . S
C595 C587 1.433 . S
C595 N597 1.384 . S
N596 C592 1.427 . S
N596 C593 1.384 . S
N597 C589 1.427 . S
N597 C595 1.384 . S
H598 C604 0.930 . S
H599 C608 0.930 . S
H600 C613 0.929 . S
H601 C611 0.929 . S
H602 C606 0.929 . S
H603 C612 0.929 . S
C604 H598 0.930 . S
C604 C605 1.367 . S
C604 C612 1.378 . S
C605 C604 1.367 . S
C605 C613 1.433 . S
C606 H602 0.929 . S
C606 C608 1.378 . S
C606 C610 1.350 . S
C607 C610 1.463 . S
C607 C612 1.350 . S
C607 N615 1.427 . S
C608 H599 0.930 . S
C608 C606 1.378 . S
C608 C609 1.367 . S
C609 C608 1.367 . S
C609 C611 1.433 . S
C610 C606 1.350 . S
C610 C607 1.463 . S
C610 N614 1.427 . S
C611 H601 0.929 . S
C611 C609 1.433 . S
C611 N614 1.384 . S
C612 H603 0.929 . S
C612 C604 1.378 . S
C612 C607 1.350 . S
C613 H600 0.929 . S
C613 C605 1.433 . S
C613 N615 1.384 . S
N614 C610 1.427 . S
N614 C611 1.384 . S
N615 C607 1.427 . S
N615 C613 1.384 . S
H616 C622 0.930 . S
H617 C626 0.930 . S
H618 C631 0.929 . S
H619 C629 0.929 . S
H620 C624 0.929 . S
H621 C630 0.929 . S
C622 H616 0.930 . S
C622 C623 1.367 . S
C622 C630 1.378 . S
C623 C622 1.367 . S
C623 C631 1.433 . S
C624 H620 0.929 . S
C624 C626 1.378 . S
C624 C628 1.350 . S
C625 C628 1.463 . S
C625 C630 1.350 . S
C625 N633 1.427 . S
C626 H617 0.930 . S
C626 C624 1.378 . S
C626 C627 1.367 . S
C627 C626 1.367 . S
C627 C629 1.433 . S
C628 C624 1.350 . S
C628 C625 1.463 . S
C628 N632 1.427 . S
C629 H619 0.929 . S
C629 C627 1.433 . S
C629 N632 1.384 . S
C630 H621 0.929 . S
C630 C622 1.378 . S
C630 C625 1.350 . S
C631 H618 0.929 . S
C631 C623 1.433 . S
C631 N633 1.384 . S
N632 C628 1.427 . S
N632 C629 1.384 . S
N633 C625 1.427 . S
N633 C631 1.384 . S
H634 C640 0.930 . S
H635 C644 0.930 . S
H636 C649 0.929 . S
H637 C647 0.929 . S
H638 C642 0.929 . S
H639 C648 0.929 . S
C640 H634 0.930 . S
C640 C641 1.367 . S
C640 C648 1.378 . S
C641 C640 1.367 . S
C641 C649 1.433 . S
C642 H638 0.929 . S
C642 C644 1.378 . S
C642 C646 1.350 . S
C643 C646 1.463 . S
C643 C648 1.350 . S
C643 N651 1.427 . S
C644 H635 0.930 . S
C644 C642 1.378 . S
C644 C645 1.367 . S
C645 C644 1.367 . S
C645 C647 1.433 . S
C646 C642 1.350 . S
C646 C643 1.463 . S
C646 N650 1.427 . S
C647 H637 0.929 . S
C647 C645 1.433 . S
C647 N650 1.384 . S
C648 H639 0.929 . S
C648 C640 1.378 . S
C648 C643 1.350 . S
C649 H636 0.929 . S
C649 C641 1.433 . S
C649 N651 1.384 . S
N650 C646 1.427 . S
N650 C647 1.384 . S
N651 C643 1.427 . S
N651 C649 1.384 . S
H652 C658 0.930 . S
H653 C662 0.930 . S
H654 C667 0.929 . S
H655 C665 0.929 . S
H656 C660 0.929 . S
H657 C666 0.929 . S
C658 H652 0.930 . S
C658 C659 1.367 . S
C658 C666 1.378 . S
C659 C658 1.367 . S
C659 C667 1.433 . S
C660 H656 0.929 . S
C660 C662 1.378 . S
C660 C664 1.350 . S
C661 C664 1.463 . S
C661 C666 1.350 . S
C661 N669 1.427 . S
C662 H653 0.930 . S
C662 C660 1.378 . S
C662 C663 1.367 . S
C663 C662 1.367 . S
C663 C665 1.433 . S
C664 C660 1.350 . S
C664 C661 1.463 . S
C664 N668 1.427 . S
C665 H655 0.929 . S
C665 C663 1.433 . S
C665 N668 1.384 . S
C666 H657 0.929 . S
C666 C658 1.378 . S
C666 C661 1.350 . S
C667 H654 0.929 . S
C667 C659 1.433 . S
C667 N669 1.384 . S
N668 C664 1.427 . S
N668 C665 1.384 . S
N669 C661 1.427 . S
N669 C667 1.384 . S
H670 C676 0.930 . S
H671 C680 0.930 . S
H672 C685 0.929 . S
H673 C683 0.929 . S
H674 C678 0.929 . S
H675 C684 0.929 . S
C676 H670 0.930 . S
C676 C677 1.367 . S
C676 C684 1.378 . S
C677 C676 1.367 . S
C677 C685 1.433 . S
C678 H674 0.929 . S
C678 C680 1.378 . S
C678 C682 1.350 . S
C679 C682 1.463 . S
C679 C684 1.350 . S
C679 N687 1.427 . S
C680 H671 0.930 . S
C680 C678 1.378 . S
C680 C681 1.367 . S
C681 C680 1.367 . S
C681 C683 1.433 . S
C682 C678 1.350 . S
C682 C679 1.463 . S
C682 N686 1.427 . S
C683 H673 0.929 . S
C683 C681 1.433 . S
C683 N686 1.384 . S
C684 H675 0.929 . S
C684 C676 1.378 . S
C684 C679 1.350 . S
C685 H672 0.929 . S
C685 C677 1.433 . S
C685 N687 1.384 . S
N686 C682 1.427 . S
N686 C683 1.384 . S
N687 C679 1.427 . S
N687 C685 1.384 . S
H688 C694 0.930 . S
H689 C698 0.930 . S
H690 C703 0.929 . S
H691 C701 0.929 . S
H692 C696 0.929 . S
H693 C702 0.929 . S
C694 H688 0.930 . S
C694 C695 1.367 . S
C694 C702 1.378 . S
C695 C694 1.367 . S
C695 C703 1.433 1_554 S
C696 H692 0.929 . S
C696 C698 1.378 . S
C696 C700 1.350 . S
C697 C700 1.463 1_554 S
C697 C702 1.350 . S
C697 N705 1.427 1_554 S
C698 H689 0.930 . S
C698 C696 1.378 . S
C698 C699 1.388 . S
C699 C698 1.388 . S
C699 C701 1.412 1_556 S
C700 C696 1.350 . S
C700 C697 1.463 1_556 S
C700 N704 1.427 1_556 S
C701 H691 0.929 . S
C701 C699 1.412 1_554 S
C701 N704 1.384 . S
C702 H693 0.929 . S
C702 C694 1.378 . S
C702 C697 1.350 . S
C703 H690 0.929 . S
C703 C695 1.433 1_556 S
C703 N705 1.384 . S
N704 C700 1.427 1_554 S
N704 C701 1.384 . S
N705 C697 1.427 1_556 S
N705 C703 1.384 . S
H706 C712 0.930 . S
H707 C716 0.930 . S
H708 C721 0.929 . S
H709 C719 0.929 . S
H710 C714 0.929 . S
H711 C720 0.929 . S
C712 H706 0.930 . S
C712 C713 1.367 . S
C712 C720 1.378 . S
C713 C712 1.367 . S
C713 C721 1.433 . S
C714 H710 0.929 . S
C714 C716 1.378 . S
C714 C718 1.350 . S
C715 C718 1.463 . S
C715 C720 1.350 . S
C715 N723 1.427 . S
C716 H707 0.930 . S
C716 C714 1.378 . S
C716 C717 1.367 . S
C717 C716 1.367 . S
C717 C719 1.433 . S
C718 C714 1.350 . S
C718 C715 1.463 . S
C718 N722 1.427 . S
C719 H709 0.929 . S
C719 C717 1.433 . S
C719 N722 1.384 . S
C720 H711 0.929 . S
C720 C712 1.378 . S
C720 C715 1.350 . S
C721 H708 0.929 . S
C721 C713 1.433 . S
C721 N723 1.384 . S
N722 C718 1.427 . S
N722 C719 1.384 . S
N723 C715 1.427 . S
N723 C721 1.384 . S
H724 C730 0.930 . S
H725 C734 0.930 . S
H726 C739 0.929 . S
H727 C737 0.929 . S
H728 C732 0.929 . S
H729 C738 0.929 . S
C730 H724 0.930 . S
C730 C731 1.367 . S
C730 C738 1.378 . S
C731 C730 1.367 . S
C731 C739 1.433 1_554 S
C732 H728 0.929 . S
C732 C734 1.378 . S
C732 C736 1.367 . S
C733 C736 1.462 1_554 S
C733 C738 1.350 . S
C733 N741 1.427 1_554 S
C734 H725 0.930 . S
C734 C732 1.378 . S
C734 C735 1.372 . S
C735 C734 1.372 . S
C735 C737 1.428 1_556 S
C736 C732 1.367 . S
C736 C733 1.462 1_556 S
C736 N740 1.411 1_556 S
C737 H727 0.929 . S
C737 C735 1.428 1_554 S
C737 N740 1.384 . S
C738 H729 0.929 . S
C738 C730 1.378 . S
C738 C733 1.350 . S
C739 H726 0.929 . S
C739 C731 1.433 1_556 S
C739 N741 1.384 . S
N740 C736 1.411 1_554 S
N740 C737 1.384 . S
N741 C733 1.427 1_556 S
N741 C739 1.384 . S
H742 C748 0.930 . S
H743 C752 0.930 . S
H744 C757 0.929 . S
H745 C755 0.929 . S
H746 C750 0.929 . S
H747 C756 0.929 . S
C748 H742 0.930 . S
C748 C749 1.367 . S
C748 C756 1.378 . S
C749 C748 1.367 . S
C749 C757 1.433 . S
C750 H746 0.929 . S
C750 C752 1.378 . S
C750 C754 1.350 . S
C751 C754 1.463 . S
C751 C756 1.350 . S
C751 N759 1.427 . S
C752 H743 0.930 . S
C752 C750 1.378 . S
C752 C753 1.367 . S
C753 C752 1.367 . S
C753 C755 1.433 . S
C754 C750 1.350 . S
C754 C751 1.463 . S
C754 N758 1.427 . S
C755 H745 0.929 . S
C755 C753 1.433 . S
C755 N758 1.384 . S
C756 H747 0.929 . S
C756 C748 1.378 . S
C756 C751 1.350 . S
C757 H744 0.929 . S
C757 C749 1.433 . S
C757 N759 1.384 . S
N758 C754 1.427 . S
N758 C755 1.384 . S
N759 C751 1.427 . S
N759 C757 1.384 . S
H760 C766 0.930 . S
H761 C770 0.930 . S
H762 C775 0.929 . S
H763 C773 0.929 . S
H764 C768 0.929 . S
H765 C774 0.929 . S
C766 H760 0.930 . S
C766 C767 1.367 . S
C766 C774 1.378 . S
C767 C766 1.367 . S
C767 C775 1.433 . S
C768 H764 0.929 . S
C768 C770 1.378 . S
C768 C772 1.350 . S
C769 C772 1.463 . S
C769 C774 1.350 . S
C769 N777 1.427 . S
C770 H761 0.930 . S
C770 C768 1.378 . S
C770 C771 1.367 . S
C771 C770 1.367 . S
C771 C773 1.433 . S
C772 C768 1.350 . S
C772 C769 1.463 . S
C772 N776 1.427 . S
C773 H763 0.929 . S
C773 C771 1.433 . S
C773 N776 1.384 . S
C774 H765 0.929 . S
C774 C766 1.378 . S
C774 C769 1.350 . S
C775 H762 0.929 . S
C775 C767 1.433 . S
C775 N777 1.384 . S
N776 C772 1.427 . S
N776 C773 1.384 . S
N777 C769 1.427 . S
N777 C775 1.384 . S
H778 C784 0.930 . S
H779 C788 0.930 . S
H780 C793 0.929 . S
H781 C791 0.929 . S
H782 C786 0.929 . S
H783 C792 0.929 . S
C784 H778 0.930 . S
C784 C785 1.368 . S
C784 C792 1.378 . S
C785 C784 1.368 . S
C785 C793 1.432 1_556 S
C786 H782 0.929 . S
C786 C788 1.378 . S
C786 C790 1.350 . S
C787 C790 1.462 1_556 S
C787 C792 1.355 . S
C787 N795 1.422 1_556 S
C788 H779 0.930 . S
C788 C786 1.378 . S
C788 C789 1.367 . S
C789 C788 1.367 . S
C789 C791 1.433 1_554 S
C790 C786 1.350 . S
C790 C787 1.462 1_554 S
C790 N794 1.427 1_554 S
C791 H781 0.929 . S
C791 C789 1.433 1_556 S
C791 N794 1.384 . S
C792 H783 0.929 . S
C792 C784 1.378 . S
C792 C787 1.355 . S
C793 H780 0.929 . S
C793 C785 1.432 1_554 S
C793 N795 1.384 . S
N794 C790 1.427 1_556 S
N794 C791 1.384 . S
N795 C787 1.422 1_554 S
N795 C793 1.384 . S
H796 C802 0.930 . S
H797 C806 0.930 . S
H798 C811 0.929 . S
H799 C809 0.929 . S
H800 C804 0.929 . S
H801 C810 0.929 . S
C802 H796 0.930 . S
C802 C803 1.367 . S
C802 C810 1.378 . S
C803 C802 1.367 . S
C803 C811 1.433 . S
C804 H800 0.929 . S
C804 C806 1.378 . S
C804 C808 1.350 . S
C805 C808 1.463 . S
C805 C810 1.350 . S
C805 N813 1.427 . S
C806 H797 0.930 . S
C806 C804 1.378 . S
C806 C807 1.367 . S
C807 C806 1.367 . S
C807 C809 1.433 . S
C808 C804 1.350 . S
C808 C805 1.463 . S
C808 N812 1.427 . S
C809 H799 0.929 . S
C809 C807 1.433 . S
C809 N812 1.384 . S
C810 H801 0.929 . S
C810 C802 1.378 . S
C810 C805 1.350 . S
C811 H798 0.929 . S
C811 C803 1.433 . S
C811 N813 1.384 . S
N812 C808 1.427 . S
N812 C809 1.384 . S
N813 C805 1.427 . S
N813 C811 1.384 . S
H814 C820 0.930 . S
H815 C824 0.930 . S
H816 C829 0.929 . S
H817 C827 0.929 . S
H818 C822 0.929 . S
H819 C828 0.929 . S
C820 H814 0.930 . S
C820 C821 1.374 . S
C820 C828 1.378 . S
C821 C820 1.374 . S
C821 C829 1.426 1_556 S
C822 H818 0.929 . S
C822 C824 1.378 . S
C822 C826 1.350 . S
C823 C826 1.462 1_556 S
C823 C828 1.364 . S
C823 N831 1.413 1_556 S
C824 H815 0.930 . S
C824 C822 1.378 . S
C824 C825 1.378 . S
C825 C824 1.378 . S
C825 C827 1.422 1_554 S
C826 C822 1.350 . S
C826 C823 1.462 1_554 S
C826 N830 1.427 1_554 S
C827 H817 0.929 . S
C827 C825 1.422 1_556 S
C827 N830 1.384 . S
C828 H819 0.929 . S
C828 C820 1.378 . S
C828 C823 1.364 . S
C829 H816 0.929 . S
C829 C821 1.426 1_554 S
C829 N831 1.384 . S
N830 C826 1.427 1_556 S
N830 C827 1.384 . S
N831 C823 1.413 1_554 S
N831 C829 1.384 . S
C407 C5 1.480 . S
C411 C221 1.476 . S
C425 C31 1.484 . S
C429 C89 1.480 . S
C447 C128 1.483 . S
C443 C53 1.480 . S
C461 C71 1.479 . S
C465 C182 1.475 . S
C483 C284 1.477 . S
C479 C75 1.487 . S
C501 C338 1.473 . S
C497 C9 1.484 . S
C519 C377 1.475 . S
C515 C27 1.479 . S
C537 C245 1.479 . S
C533 C49 1.481 . S
C551 C51 1.480 . S
C555 C143 1.474 . S
C569 C72 1.487 . S
C573 C167 1.473 . S
C587 C6 1.481 . S
C591 C206 1.476 . S
C609 C104 1.478 . S
C605 C29 1.475 . S
C623 C28 1.479 . S
C627 C362 1.482 . S
C645 C260 1.470 . S
C641 C50 1.484 . S
C663 C299 1.473 . S
C659 C73 1.478 . S
C677 C7 1.485 . S
C681 C323 1.472 . S
C699 C109 1.504 1_556 S
C695 C4 1.503 . S
C717 C148 1.506 . S
C713 C30 1.502 . S
C731 C52 1.505 . S
C735 C187 1.496 . S
C749 C70 1.506 . S
C753 C226 1.495 . S
C771 C265 1.503 . S
C767 C74 1.505 . S
C785 C8 1.501 1_556 S
C789 C304 1.507 1_554 S
C803 C26 1.501 . S
C807 C343 1.501 . S
C821 C48 1.501 1_556 S
C825 C382 1.500 . S
