# Generated by pormake.
# Topology apo, (3,6)-cn, num edge types: 1
# Building blocks:
#     Node 0, Type 0, BuildingBlock: VETTIZ_charged_linker_0, # of connection points: 3
#     Node 1, Type 0, BuildingBlock: VETTIZ_charged_linker_0, # of connection points: 3
#     Node 2, Type 0, BuildingBlock: VETTIZ_charged_linker_0, # of connection points: 3
#     Node 3, Type 0, BuildingBlock: VETTIZ_charged_linker_0, # of connection points: 3
#     Node 4, Type 0, BuildingBlock: VETTIZ_charged_linker_0, # of connection points: 3
#     Node 5, Type 0, BuildingBlock: VETTIZ_charged_linker_0, # of connection points: 3
#     Node 6, Type 0, BuildingBlock: VETTIZ_charged_linker_0, # of connection points: 3
#     Node 7, Type 0, BuildingBlock: VETTIZ_charged_linker_0, # of connection points: 3
#     Node 8, Type 1, BuildingBlock: MIDCAF_clean_sbu_0, # of connection points: 6
#     Node 9, Type 1, BuildingBlock: MIDCAF_clean_sbu_0, # of connection points: 6
#     Node 10, Type 1, BuildingBlock: MIDCAF_clean_sbu_0, # of connection points: 6
#     Node 11, Type 1, BuildingBlock: MIDCAF_clean_sbu_0, # of connection points: 6
#     Edge 12, Type (0, 1), BuildingBlock: CIFDUS_clean_linker_0, # of connection points: 2
#     Edge 13, Type (0, 1), BuildingBlock: CIFDUS_clean_linker_0, # of connection points: 2
#     Edge 14, Type (0, 1), BuildingBlock: CIFDUS_clean_linker_0, # of connection points: 2
#     Edge 15, Type (0, 1), BuildingBlock: CIFDUS_clean_linker_0, # of connection points: 2
#     Edge 16, Type (0, 1), BuildingBlock: CIFDUS_clean_linker_0, # of connection points: 2
#     Edge 17, Type (0, 1), BuildingBlock: CIFDUS_clean_linker_0, # of connection points: 2
#     Edge 18, Type (0, 1), BuildingBlock: CIFDUS_clean_linker_0, # of connection points: 2
#     Edge 19, Type (0, 1), BuildingBlock: CIFDUS_clean_linker_0, # of connection points: 2
#     Edge 20, Type (0, 1), BuildingBlock: CIFDUS_clean_linker_0, # of connection points: 2
#     Edge 21, Type (0, 1), BuildingBlock: CIFDUS_clean_linker_0, # of connection points: 2
#     Edge 22, Type (0, 1), BuildingBlock: CIFDUS_clean_linker_0, # of connection points: 2
#     Edge 23, Type (0, 1), BuildingBlock: CIFDUS_clean_linker_0, # of connection points: 2
#     Edge 24, Type (0, 1), BuildingBlock: CIFDUS_clean_linker_0, # of connection points: 2
#     Edge 25, Type (0, 1), BuildingBlock: CIFDUS_clean_linker_0, # of connection points: 2
#     Edge 26, Type (0, 1), BuildingBlock: CIFDUS_clean_linker_0, # of connection points: 2
#     Edge 27, Type (0, 1), BuildingBlock: CIFDUS_clean_linker_0, # of connection points: 2
#     Edge 28, Type (0, 1), BuildingBlock: CIFDUS_clean_linker_0, # of connection points: 2
#     Edge 29, Type (0, 1), BuildingBlock: CIFDUS_clean_linker_0, # of connection points: 2
#     Edge 30, Type (0, 1), BuildingBlock: CIFDUS_clean_linker_0, # of connection points: 2
#     Edge 31, Type (0, 1), BuildingBlock: CIFDUS_clean_linker_0, # of connection points: 2
#     Edge 32, Type (0, 1), BuildingBlock: CIFDUS_clean_linker_0, # of connection points: 2
#     Edge 33, Type (0, 1), BuildingBlock: CIFDUS_clean_linker_0, # of connection points: 2
#     Edge 34, Type (0, 1), BuildingBlock: CIFDUS_clean_linker_0, # of connection points: 2
#     Edge 35, Type (0, 1), BuildingBlock: CIFDUS_clean_linker_0, # of connection points: 2
# Relax obj value: 0.090
# Max RMSD: 0.101
# Mean RMSD: 0.093
data_MOF--net-apo--node1-MIDCAF_clean_sbu_0--node2-VETTIZ_charged_linker_0--edge1-CIFDUS_clean_linker_0
_symmetry_space_group_name_H-M    P1
_symmetry_Int_Tables_number       1
_symmetry_cell_setting            triclinic
loop_
_symmetry_equiv_pos_as_xyz
'x, y, z'
_cell_length_a     37.961431
_cell_length_b     45.45548
_cell_length_c     40.432743
_cell_angle_alpha  89.794268
_cell_angle_beta   89.892407
_cell_angle_gamma 90.385917
loop_
_atom_site_label
_atom_site_type_symbol
_atom_site_fract_x
_atom_site_fract_y
_atom_site_fract_z
_atom_type_partial_charge
C0 C 0.35689 0.29857 0.50714 0.0
C1 C 0.37479 0.31825 0.52813 0.0
C2 C 0.38313 0.34668 0.51644 0.0
C3 C 0.35867 0.33481 0.46272 0.0
C4 C 0.34855 0.30752 0.47476 0.0
C5 C 0.32846 0.29001 0.44931 0.0
H6 H 0.26126 0.2801 0.29392 0.0
C7 C 0.34825 0.33664 0.42752 0.0
C8 C 0.32991 0.31069 0.41961 0.0
H9 H 0.24818 0.21924 0.37556 0.0
H10 H 0.28538 0.24949 0.40975 0.0
H11 H 0.25456 0.34078 0.3373 0.0
H12 H 0.34277 0.28964 0.30426 0.0
H13 H 0.35725 0.32636 0.30472 0.0
H14 H 0.3217 0.31568 0.27754 0.0
H15 H 0.26682 0.33659 0.29464 0.0
H16 H 0.28655 0.36464 0.31997 0.0
C17 C 0.29031 0.28538 0.4622 0.0
C18 C 0.34867 0.26116 0.4427 0.0
C19 C 0.39015 0.42315 0.35732 0.0
C20 C 0.38736 0.42999 0.32341 0.0
C21 C 0.36848 0.41049 0.30278 0.0
C22 C 0.35266 0.38489 0.31566 0.0
C23 C 0.35582 0.37845 0.34955 0.0
C24 C 0.37457 0.39734 0.3697 0.0
C25 C 0.37605 0.38662 0.40492 0.0
C26 C 0.35536 0.35799 0.40255 0.0
C27 C 0.3433 0.35346 0.37012 0.0
C28 C 0.35731 0.40937 0.42726 0.0
C29 C 0.41521 0.38138 0.41373 0.0
C30 C 0.26632 0.27342 0.3192 0.0
C31 C 0.25174 0.24717 0.33193 0.0
C32 C 0.25941 0.2391 0.36489 0.0
C33 C 0.28076 0.25686 0.38491 0.0
C34 C 0.29477 0.28315 0.37203 0.0
C35 C 0.28781 0.29092 0.33958 0.0
C36 C 0.30576 0.31934 0.33 0.0
C37 C 0.32322 0.32789 0.36243 0.0
C38 C 0.31672 0.30658 0.38699 0.0
C39 C 0.27712 0.34163 0.3197 0.0
C40 C 0.33317 0.31267 0.30257 0.0
H41 H 0.38304 0.37675 0.4763 0.0
H42 H 0.34989 0.27668 0.51568 0.0
H43 H 0.37748 0.26557 0.44093 0.0
H44 H 0.34137 0.25074 0.41906 0.0
H45 H 0.34434 0.24502 0.46303 0.0
H46 H 0.28211 0.30372 0.4786 0.0
H47 H 0.28786 0.26465 0.47666 0.0
H48 H 0.27059 0.2853 0.44212 0.0
H49 H 0.40376 0.43777 0.37417 0.0
H50 H 0.36614 0.41486 0.27654 0.0
H51 H 0.33858 0.37108 0.29869 0.0
H52 H 0.33674 0.42158 0.41337 0.0
H53 H 0.37628 0.42583 0.43714 0.0
H54 H 0.34295 0.39892 0.44809 0.0
H55 H 0.42894 0.37003 0.3931 0.0
H56 H 0.4188 0.36711 0.43553 0.0
H57 H 0.42914 0.40257 0.41818 0.0
H58 H 0.39707 0.36208 0.53217 0.0
C59 C 0.37528 0.35503 0.4839 0.0
C60 C 0.2571 0.20085 0.81718 0.0
C61 C 0.27542 0.226 0.82798 0.0
C62 C 0.26656 0.23841 0.85877 0.0
C63 C 0.22305 0.19991 0.8683 0.0
C64 C 0.23072 0.18851 0.83742 0.0
C65 C 0.20774 0.16245 0.82919 0.0
H66 H 0.07549 0.06968 0.87378 0.0
C67 C 0.19529 0.18125 0.88369 0.0
C68 C 0.18581 0.15954 0.86051 0.0
H69 H 0.13617 0.06852 0.78303 0.0
H70 H 0.16919 0.11101 0.80133 0.0
H71 H 0.13926 0.07286 0.91656 0.0
H72 H 0.06942 0.14085 0.88442 0.0
H73 H 0.07674 0.14529 0.92719 0.0
H74 H 0.05774 0.1115 0.9123 0.0
H75 H 0.10036 0.08144 0.93959 0.0
H76 H 0.14202 0.09948 0.94771 0.0
C77 C 0.23169 0.13542 0.82388 0.0
C78 C 0.18498 0.17066 0.79883 0.0
C79 C 0.15637 0.19759 1.00378 0.0
C80 C 0.13293 0.18178 0.02439 0.0
C81 C 0.11503 0.15714 0.0117 0.0
C82 C 0.1198 0.14839 0.97893 0.0
C83 C 0.14317 0.16416 0.95845 0.0
C84 C 0.16146 0.18808 0.97094 0.0
C85 C 0.18593 0.20137 0.9453 0.0
C86 C 0.17939 0.18127 0.91572 0.0
C87 C 0.15389 0.15989 0.92365 0.0
C88 C 0.22405 0.19887 0.95839 0.0
C89 C 0.17408 0.2333 0.9383 0.0
C90 C 0.0959 0.07829 0.85766 0.0
C91 C 0.10297 0.0653 0.82679 0.0
C92 C 0.12951 0.07809 0.80669 0.0
C93 C 0.14903 0.10266 0.81754 0.0
C94 C 0.14237 0.1145 0.84905 0.0
C95 C 0.11628 0.10208 0.8685 0.0
C96 C 0.11473 0.11541 0.90239 0.0
C97 C 0.1431 0.13895 0.89968 0.0
C98 C 0.15911 0.13855 0.86835 0.0
C99 C 0.12433 0.09118 0.92804 0.0
C100 C 0.07771 0.1289 0.90715 0.0
H101 H 0.23544 0.23569 0.90238 0.0
H102 H 0.26317 0.19106 0.79347 0.0
H103 H 0.17646 0.194 0.80017 0.0
H104 H 0.1603 0.15778 0.79731 0.0
H105 H 0.20002 0.16792 0.77545 0.0
H106 H 0.25405 0.13563 0.84164 0.0
H107 H 0.24292 0.13533 0.79849 0.0
H108 H 0.21792 0.11432 0.8284 0.0
H109 H 0.1702 0.2168 0.01297 0.0
H110 H 0.09652 0.14501 0.02708 0.0
H111 H 0.10472 0.12981 0.97078 0.0
H112 H 0.22858 0.17664 0.9691 0.0
H113 H 0.22912 0.21532 0.9781 0.0
H114 H 0.24416 0.20166 0.93892 0.0
H115 H 0.14494 0.23525 0.94023 0.0
H116 H 0.18047 0.24065 0.91291 0.0
H117 H 0.18595 0.2489 0.95627 0.0
H118 H 0.28046 0.25774 0.86756 0.0
C119 C 0.24062 0.22546 0.87902 0.0
C120 C 0.8451 0.18566 0.50976 0.0
C121 C 0.86409 0.16803 0.48761 0.0
C122 C 0.87467 0.13976 0.49775 0.0
C123 C 0.85008 0.14797 0.55237 0.0
C124 C 0.83792 0.175 0.54174 0.0
C125 C 0.8175 0.19059 0.56828 0.0
H126 H 0.75617 0.19615 0.72577 0.0
C127 C 0.84028 0.14433 0.58766 0.0
C128 C 0.82054 0.16896 0.59692 0.0
H129 H 0.74025 0.25786 0.64565 0.0
H130 H 0.77429 0.22772 0.60916 0.0
H131 H 0.74719 0.13548 0.6812 0.0
H132 H 0.83887 0.18602 0.70948 0.0
H133 H 0.84927 0.14856 0.7128 0.0
H134 H 0.81504 0.16355 0.7386 0.0
H135 H 0.76223 0.13769 0.72322 0.0
H136 H 0.78024 0.11126 0.69483 0.0
C137 C 0.7789 0.19384 0.5563 0.0
C138 C 0.83657 0.22008 0.57575 0.0
C139 C 0.88977 0.05864 0.65366 0.0
C140 C 0.88703 0.04987 0.68703 0.0
C141 C 0.86571 0.06664 0.70844 0.0
C142 C 0.84777 0.09162 0.69694 0.0
C143 C 0.85112 0.10017 0.66362 0.0
C144 C 0.8717 0.0836 0.64257 0.0
C145 C 0.87204 0.09566 0.60787 0.0
C146 C 0.84893 0.12259 0.61165 0.0
C147 C 0.83668 0.12521 0.64439 0.0
C148 C 0.85521 0.07245 0.58462 0.0
C149 C 0.91052 0.10405 0.59898 0.0
C150 C 0.75996 0.20291 0.70029 0.0
C151 C 0.74571 0.22954 0.68862 0.0
C152 C 0.75134 0.23769 0.65535 0.0
C153 C 0.77102 0.22006 0.63408 0.0
C154 C 0.78562 0.19384 0.64601 0.0
C155 C 0.7801 0.18553 0.67858 0.0
C156 C 0.7988 0.1572 0.68672 0.0
C157 C 0.81547 0.14967 0.65348 0.0
C158 C 0.8076 0.17135 0.62983 0.0
C159 C 0.77087 0.13407 0.69729 0.0
C160 C 0.82687 0.16388 0.71345 0.0
H161 H 0.87742 0.10826 0.53649 0.0
H162 H 0.83646 0.2074 0.50247 0.0
H163 H 0.86565 0.21717 0.57543 0.0
H164 H 0.83056 0.22877 0.60056 0.0
H165 H 0.82999 0.23706 0.55697 0.0
H166 H 0.77148 0.176 0.53881 0.0
H167 H 0.77496 0.21513 0.54331 0.0
H168 H 0.75955 0.19179 0.57667 0.0
H169 H 0.90607 0.04657 0.63647 0.0
H170 H 0.86248 0.06022 0.73409 0.0
H171 H 0.83191 0.1033 0.71446 0.0
H172 H 0.83598 0.0582 0.59809 0.0
H173 H 0.87551 0.05788 0.57374 0.0
H174 H 0.83971 0.08258 0.56448 0.0
H175 H 0.92326 0.11589 0.61987 0.0
H176 H 0.91263 0.11901 0.57756 0.0
H177 H 0.92633 0.08411 0.59376 0.0
H178 H 0.88954 0.12593 0.4811 0.0
C179 C 0.86788 0.12968 0.53 0.0
C180 C 0.76068 0.29986 0.19225 0.0
C181 C 0.78337 0.27982 0.17674 0.0
C182 C 0.77815 0.27295 0.14318 0.0
C183 C 0.72996 0.30746 0.1401 0.0
C184 C 0.73424 0.31354 0.17339 0.0
C185 C 0.70905 0.3369 0.18499 0.0
H186 H 0.59023 0.44207 0.14536 0.0
C187 C 0.70257 0.32716 0.12674 0.0
C188 C 0.6902 0.3446 0.15292 0.0
H189 H 0.62733 0.41862 0.24307 0.0
H190 H 0.66241 0.37973 0.21958 0.0
H191 H 0.66021 0.4369 0.10837 0.0
H192 H 0.57657 0.37392 0.12258 0.0
H193 H 0.58993 0.37154 0.08107 0.0
H194 H 0.57263 0.40571 0.09643 0.0
H195 H 0.62032 0.43824 0.08472 0.0
H196 H 0.65764 0.41681 0.07149 0.0
C197 C 0.73086 0.36314 0.19838 0.0
C198 C 0.6837 0.32286 0.2107 0.0
C199 C 0.6729 0.32512 1.00351 0.0
C200 C 0.65186 0.34339 0.98364 0.0
C201 C 0.63396 0.36703 0.99835 0.0
C202 C 0.63646 0.37229 0.03233 0.0
C203 C 0.65739 0.35389 0.05204 0.0
C204 C 0.67566 0.33106 0.03757 0.0
C205 C 0.69854 0.31525 0.06227 0.0
C206 C 0.68985 0.33168 0.09402 0.0
C207 C 0.66547 0.35406 0.08783 0.0
C208 C 0.73758 0.31953 0.05171 0.0
C209 C 0.68629 0.28274 0.06404 0.0
C210 C 0.60521 0.42831 0.16202 0.0
C211 C 0.60577 0.43376 0.1963 0.0
C212 C 0.62662 0.41542 0.21656 0.0
C213 C 0.6469 0.39267 0.20289 0.0
C214 C 0.64641 0.388 0.16852 0.0
C215 C 0.62524 0.40539 0.14887 0.0
C216 C 0.62695 0.39692 0.11302 0.0
C217 C 0.65278 0.37163 0.11423 0.0
C218 C 0.66454 0.36665 0.14671 0.0
C219 C 0.64178 0.42352 0.09311 0.0
C220 C 0.58965 0.38663 0.10238 0.0
H221 H 0.74922 0.28054 0.09932 0.0
H222 H 0.76441 0.30562 0.21798 0.0
H223 H 0.67829 0.29937 0.20478 0.0
H224 H 0.65753 0.33335 0.21091 0.0
H225 H 0.69511 0.32368 0.23596 0.0
H226 H 0.75335 0.3682 0.18156 0.0
H227 H 0.74178 0.35806 0.22321 0.0
H228 H 0.71565 0.38365 0.20004 0.0
H229 H 0.68721 0.30698 0.99272 0.0
H230 H 0.61742 0.38121 0.9835 0.0
H231 H 0.62193 0.39054 0.04191 0.0
H232 H 0.7413 0.33986 0.03665 0.0
H233 H 0.74694 0.30075 0.03663 0.0
H234 H 0.75541 0.32257 0.07304 0.0
H235 H 0.65702 0.28129 0.06445 0.0
H236 H 0.69511 0.27143 0.08674 0.0
H237 H 0.69573 0.27026 0.04222 0.0
H238 H 0.79543 0.25754 0.1309 0.0
C239 C 0.75149 0.28647 0.12487 0.0
C240 C 0.61803 0.59192 0.68871 0.0
C241 C 0.58764 0.5765 0.67776 0.0
C242 C 0.56993 0.58749 0.64958 0.0
C243 C 0.61652 0.62279 0.63955 0.0
C244 C 0.63142 0.61551 0.66956 0.0
C245 C 0.66151 0.63621 0.67793 0.0
H246 H 0.77484 0.7431 0.62526 0.0
C247 C 0.6383 0.6457 0.62358 0.0
C248 C 0.66417 0.65454 0.64627 0.0
H249 H 0.76124 0.71087 0.72543 0.0
H250 H 0.71611 0.67696 0.70654 0.0
H251 H 0.76456 0.67957 0.58823 0.0
H252 H 0.69531 0.75128 0.61148 0.0
H253 H 0.68361 0.73874 0.57196 0.0
H254 H 0.72717 0.75368 0.57871 0.0
H255 H 0.76737 0.71474 0.56802 0.0
H256 H 0.73821 0.68621 0.55336 0.0
C257 C 0.69516 0.61806 0.68387 0.0
C258 C 0.65047 0.65507 0.70806 0.0
C259 C 0.6258 0.66209 0.49974 0.0
C260 C 0.64398 0.67988 0.47687 0.0
C261 C 0.67055 0.69905 0.48815 0.0
C262 C 0.67965 0.69976 0.52183 0.0
C263 C 0.66167 0.68133 0.54445 0.0
C264 C 0.63483 0.66328 0.53328 0.0
C265 C 0.61732 0.64629 0.56085 0.0
C266 C 0.63938 0.65596 0.59033 0.0
C267 C 0.6653 0.67637 0.58055 0.0
C268 C 0.62133 0.61309 0.55349 0.0
C269 C 0.57845 0.65644 0.56373 0.0
C270 C 0.76198 0.72923 0.64351 0.0
C271 C 0.77173 0.73022 0.67709 0.0
C272 C 0.75469 0.7107 0.69939 0.0
C273 C 0.7281 0.69126 0.68852 0.0
C274 C 0.718 0.69151 0.65508 0.0
C275 C 0.73492 0.71035 0.63328 0.0
C276 C 0.71989 0.70882 0.59898 0.0
C277 C 0.69022 0.68679 0.60396 0.0
C278 C 0.6896 0.67615 0.63671 0.0
C279 C 0.74888 0.69692 0.57567 0.0
C280 C 0.70591 0.73968 0.58944 0.0
H281 H 0.5703 0.61656 0.60862 0.0
H282 H 0.63171 0.58542 0.71097 0.0
H283 H 0.62132 0.65611 0.7107 0.0
H284 H 0.65901 0.6783 0.70551 0.0
H285 H 0.66108 0.64593 0.7315 0.0
H286 H 0.69962 0.60265 0.66299 0.0
H287 H 0.69284 0.60488 0.70697 0.0
H288 H 0.71898 0.63202 0.68579 0.0
H289 H 0.60465 0.64771 0.49163 0.0
H290 H 0.6846 0.71309 0.47082 0.0
H291 H 0.70042 0.71456 0.52893 0.0
H292 H 0.64946 0.60765 0.549 0.0
H293 H 0.6061 0.60684 0.53112 0.0
H294 H 0.61216 0.59886 0.57388 0.0
H295 H 0.57349 0.67713 0.54975 0.0
H296 H 0.5711 0.66158 0.58964 0.0
H297 H 0.55996 0.63954 0.55399 0.0
H298 H 0.54498 0.57827 0.64171 0.0
C299 C 0.58442 0.61007 0.63031 0.0
C300 C 0.75593 0.78109 0.19346 0.0
C301 C 0.73679 0.75738 0.17989 0.0
C302 C 0.7388 0.75221 0.1456 0.0
C303 C 0.77846 0.79358 0.1387 0.0
C304 C 0.77688 0.79876 0.17239 0.0
C305 C 0.80038 0.82422 0.1822 0.0
H306 H 0.91115 0.93435 0.13298 0.0
C307 C 0.80164 0.81596 0.12337 0.0
C308 C 0.81454 0.83424 0.14868 0.0
H309 H 0.88567 0.90962 0.2336 0.0
H310 H 0.84616 0.87147 0.21328 0.0
H311 H 0.92115 0.86771 0.10711 0.0
H312 H 0.83735 0.93062 0.10418 0.0
H313 H 0.83233 0.90974 0.06803 0.0
H314 H 0.87205 0.93121 0.07406 0.0
H315 H 0.92259 0.90137 0.08374 0.0
H316 H 0.9043 0.86825 0.06665 0.0
C317 C 0.82993 0.81221 0.20475 0.0
C318 C 0.77746 0.84804 0.19863 0.0
C319 C 0.82556 0.8139 0.99903 0.0
C320 C 0.84336 0.83365 0.97784 0.0
C321 C 0.85652 0.86027 0.99071 0.0
C322 C 0.85359 0.86662 0.02438 0.0
C323 C 0.83723 0.84619 0.04562 0.0
C324 C 0.82222 0.82094 0.03274 0.0
C325 C 0.8031 0.80333 0.05895 0.0
C326 C 0.81097 0.82141 0.0898 0.0
C327 C 0.83166 0.84602 0.08179 0.0
C328 C 0.82004 0.77248 0.06083 0.0
C329 C 0.76326 0.80301 0.05035 0.0
C330 C 0.89776 0.92044 0.15088 0.0
C331 C 0.90233 0.92474 0.185 0.0
C332 C 0.88291 0.90676 0.20716 0.0
C333 C 0.86016 0.8845 0.1953 0.0
C334 C 0.85686 0.88009 0.16095 0.0
C335 C 0.87558 0.89809 0.13955 0.0
C336 C 0.87005 0.89033 0.10394 0.0
C337 C 0.84531 0.86424 0.1072 0.0
C338 C 0.83724 0.85831 0.14057 0.0
C339 C 0.90627 0.88157 0.08928 0.0
C340 C 0.85225 0.91678 0.0864 0.0
H341 H 0.75967 0.7649 0.09921 0.0
H342 H 0.7551 0.78536 0.21978 0.0
H343 H 0.75314 0.85181 0.18395 0.0
H344 H 0.79093 0.86957 0.20015 0.0
H345 H 0.7694 0.84121 0.22396 0.0
H346 H 0.83802 0.78982 0.19684 0.0
H347 H 0.82097 0.81066 0.23087 0.0
H348 H 0.85427 0.82558 0.20354 0.0
H349 H 0.81483 0.79345 0.98961 0.0
H350 H 0.87049 0.8757 0.97485 0.0
H351 H 0.86502 0.88691 0.03268 0.0
H352 H 0.84926 0.77431 0.05979 0.0
H353 H 0.8114 0.75854 0.0398 0.0
H354 H 0.81408 0.76075 0.08415 0.0
H355 H 0.75598 0.82201 0.0344 0.0
H356 H 0.74633 0.80521 0.07251 0.0
H357 H 0.75573 0.78265 0.0369 0.0
H358 H 0.72408 0.73424 0.13458 0.0
C359 C 0.75935 0.77013 0.12502 0.0
C360 C 0.09973 0.90505 0.3249 0.0
C361 C 0.06966 0.91972 0.33704 0.0
C362 C 0.05139 0.90733 0.36421 0.0
C363 C 0.09691 0.87109 0.37137 0.0
C364 C 0.11256 0.88041 0.34227 0.0
C365 C 0.14359 0.86129 0.33332 0.0
H366 H 0.25286 0.74983 0.37709 0.0
C367 C 0.11882 0.84792 0.38615 0.0
C368 C 0.14579 0.84133 0.36368 0.0
H369 H 0.24516 0.79259 0.28172 0.0
H370 H 0.2008 0.82552 0.30357 0.0
H371 H 0.24698 0.81072 0.42014 0.0
H372 H 0.17008 0.74489 0.39248 0.0
H373 H 0.16611 0.75267 0.43509 0.0
H374 H 0.20641 0.73741 0.41962 0.0
H375 H 0.24508 0.77539 0.44004 0.0
H376 H 0.21808 0.80561 0.45366 0.0
C377 C 0.17678 0.88093 0.32975 0.0
C378 C 0.13419 0.84389 0.30158 0.0
C379 C 0.09822 0.82107 0.50647 0.0
C380 C 0.11643 0.80369 0.5295 0.0
C381 C 0.14646 0.78821 0.51877 0.0
C382 C 0.15785 0.78997 0.4856 0.0
C383 C 0.13926 0.80764 0.46295 0.0
C384 C 0.11007 0.82287 0.47375 0.0
C385 C 0.09409 0.84155 0.44711 0.0
C386 C 0.11875 0.8354 0.41838 0.0
C387 C 0.14501 0.81536 0.42755 0.0
C388 C 0.09626 0.87401 0.4586 0.0
C389 C 0.05609 0.8302 0.44044 0.0
C390 C 0.24146 0.76611 0.36075 0.0
C391 C 0.25212 0.76816 0.32739 0.0
C392 C 0.23739 0.79039 0.30739 0.0
C393 C 0.21135 0.80924 0.32 0.0
C394 C 0.19989 0.80586 0.35293 0.0
C395 C 0.21534 0.78485 0.37287 0.0
C396 C 0.19993 0.78433 0.40725 0.0
C397 C 0.17096 0.80698 0.404 0.0
C398 C 0.17137 0.81987 0.37224 0.0
C399 C 0.2289 0.79431 0.43178 0.0
C400 C 0.18492 0.75319 0.41428 0.0
H401 H 0.05049 0.87585 0.40268 0.0
H402 H 0.11378 0.91326 0.30342 0.0
H403 H 0.10519 0.84187 0.29821 0.0
H404 H 0.1436 0.82091 0.30254 0.0
H405 H 0.14502 0.85485 0.27913 0.0
H406 H 0.17924 0.89593 0.35131 0.0
H407 H 0.17538 0.89465 0.30701 0.0
H408 H 0.20131 0.86806 0.32884 0.0
H409 H 0.0755 0.83373 0.51393 0.0
H410 H 0.16096 0.7746 0.53598 0.0
H411 H 0.1807 0.77755 0.47885 0.0
H412 H 0.12299 0.87914 0.46834 0.0
H413 H 0.07692 0.87827 0.47864 0.0
H414 H 0.09161 0.89008 0.4387 0.0
H415 H 0.05205 0.80728 0.44952 0.0
H416 H 0.05008 0.82914 0.41364 0.0
H417 H 0.03618 0.84416 0.45287 0.0
H418 H 0.02713 0.91698 0.37305 0.0
C419 C 0.06493 0.88334 0.38146 0.0
C420 C 0.25582 0.69574 0.81271 0.0
C421 C 0.23441 0.71852 0.82437 0.0
C422 C 0.24004 0.72974 0.85636 0.0
C423 C 0.28711 0.69483 0.86521 0.0
C424 C 0.28233 0.68458 0.83331 0.0
C425 C 0.30833 0.66103 0.82452 0.0
H426 H 0.4486 0.57852 0.8678 0.0
C427 C 0.31637 0.67823 0.88039 0.0
C428 C 0.32943 0.65885 0.85632 0.0
H429 H 0.38719 0.57355 0.77769 0.0
H430 H 0.35144 0.61362 0.79635 0.0
H431 H 0.44698 0.6507 0.88006 0.0
H432 H 0.38543 0.57599 0.91064 0.0
H433 H 0.38029 0.60143 0.94266 0.0
H434 H 0.42357 0.58738 0.93336 0.0
H435 H 0.46205 0.62227 0.90745 0.0
H436 H 0.43872 0.65378 0.92287 0.0
C437 C 0.33108 0.67241 0.79528 0.0
C438 C 0.28761 0.63227 0.81724 0.0
C439 C 0.34399 0.6886 1.00359 0.0
C440 C 0.36884 0.67456 0.02394 0.0
C441 C 0.39384 0.6558 0.00958 0.0
C442 C 0.39375 0.65033 0.97557 0.0
C443 C 0.36807 0.66347 0.95555 0.0
C444 C 0.34405 0.68264 0.96938 0.0
C445 C 0.31912 0.69472 0.9437 0.0
C446 C 0.33105 0.67837 0.9128 0.0
C447 C 0.35979 0.66019 0.92003 0.0
C448 C 0.32552 0.72834 0.94066 0.0
C449 C 0.2811 0.68616 0.95387 0.0
C450 C 0.4275 0.58577 0.85185 0.0
C451 C 0.42115 0.57232 0.82101 0.0
C452 C 0.39355 0.58347 0.80124 0.0
C453 C 0.3723 0.60662 0.81235 0.0
C454 C 0.37803 0.6186 0.84391 0.0
C455 C 0.40518 0.60799 0.86311 0.0
C456 C 0.40501 0.62073 0.8974 0.0
C457 C 0.37394 0.64152 0.89528 0.0
C458 C 0.35854 0.64051 0.86376 0.0
C459 C 0.44007 0.63768 0.90253 0.0
C460 C 0.39848 0.59524 0.92247 0.0
H461 H 0.26889 0.7271 0.90118 0.0
H462 H 0.252 0.68686 0.78814 0.0
H463 H 0.26324 0.63081 0.83251 0.0
H464 H 0.30255 0.61229 0.82371 0.0
H465 H 0.27964 0.63114 0.79086 0.0
H466 H 0.33806 0.69602 0.79873 0.0
H467 H 0.31661 0.67044 0.77152 0.0
H468 H 0.35649 0.66097 0.79299 0.0
H469 H 0.32467 0.70328 0.01413 0.0
H470 H 0.41332 0.64504 0.02491 0.0
H471 H 0.41344 0.63572 0.96628 0.0
H472 H 0.35296 0.73441 0.94761 0.0
H473 H 0.30747 0.74076 0.95705 0.0
H474 H 0.32263 0.73638 0.91495 0.0
H475 H 0.27969 0.6625 0.96093 0.0
H476 H 0.26187 0.68909 0.93377 0.0
H477 H 0.27228 0.69928 0.97545 0.0
H478 H 0.22358 0.74724 0.86572 0.0
C479 C 0.26618 0.71796 0.87689 0.0
Zn480 Zn 0.03017 0.14896 0.31777 0.0
Zn481 Zn 0.97524 0.13674 0.2009 0.0
Zn482 Zn 0.00338 0.14287 0.26025 0.0
C483 C 0.04093 0.16345 0.19126 0.0
C484 C 0.97786 0.08062 0.22786 0.0
O485 O 0.96479 0.16576 0.29328 0.0
O486 O 0.99428 0.17314 0.33958 0.0
C487 C 0.07997 0.17254 0.27616 0.0
O488 O 0.04183 0.16134 0.22312 0.0
O489 O 0.01461 0.15402 0.1754 0.0
O490 O 0.96838 0.09327 0.20153 0.0
O491 O 0.99174 0.09555 0.2516 0.0
O492 O 0.07526 0.1671 0.30641 0.0
O493 O 0.05605 0.1657 0.25479 0.0
O494 O 0.01098 0.09782 0.28076 0.0
O495 O 0.03154 0.107 0.33073 0.0
C496 C 0.02222 0.08867 0.30902 0.0
O497 O 0.95375 0.16901 0.25981 0.0
O498 O 0.93451 0.16275 0.20862 0.0
C499 C 0.96608 0.17526 0.32333 0.0
C500 C 0.93121 0.17432 0.23676 0.0
Zn501 Zn 0.54118 0.35065 0.7046 0.0
Zn502 Zn 0.48338 0.3488 0.81761 0.0
Zn503 Zn 0.51115 0.35288 0.76052 0.0
C504 C 0.49304 0.40915 0.80461 0.0
C505 C 0.43392 0.32381 0.7778 0.0
O506 O 0.56168 0.32674 0.76387 0.0
O507 O 0.58607 0.33184 0.71449 0.0
C508 C 0.53251 0.41046 0.71795 0.0
O509 O 0.50427 0.39921 0.77672 0.0
O510 O 0.48344 0.39144 0.82706 0.0
O511 O 0.43802 0.33055 0.80772 0.0
O512 O 0.45817 0.32997 0.75635 0.0
O513 O 0.54253 0.39321 0.6955 0.0
O514 O 0.5203 0.39997 0.74539 0.0
O515 O 0.47316 0.33299 0.72442 0.0
O516 O 0.50587 0.32757 0.67964 0.0
C517 C 0.47656 0.32465 0.69407 0.0
O518 O 0.54828 0.33076 0.7962 0.0
O519 O 0.51721 0.32476 0.84204 0.0
C520 C 0.58724 0.32177 0.74352 0.0
C521 C 0.54563 0.32154 0.82639 0.0
Zn522 Zn 0.0333 0.84008 0.82243 0.0
Zn523 Zn 0.94163 0.85122 0.66991 0.0
Zn524 Zn 0.00447 0.84657 0.76911 0.0
C525 C 0.97425 0.89343 0.72721 0.0
C526 C 0.93662 0.82338 0.74352 0.0
O527 O 0.05387 0.82295 0.75618 0.0
O528 O 0.07542 0.81923 0.80678 0.0
C529 C 0.02768 0.90175 0.81013 0.0
O530 O 0.99212 0.89189 0.75402 0.0
O531 O 0.96793 0.86902 0.71252 0.0
O532 O 0.94958 0.83917 0.72018 0.0
O533 O 0.95413 0.82278 0.77052 0.0
O534 O 0.03775 0.88308 0.83131 0.0
O535 O 0.01345 0.89291 0.78304 0.0
O536 O 0.96646 0.8234 0.80289 0.0
O537 O 0.99806 0.81722 0.84809 0.0
C538 C 0.96935 0.81395 0.83286 0.0
O539 O 0.033 0.82708 0.72718 0.0
O540 O 0.98531 0.84034 0.70135 0.0
C541 C 0.07812 0.81439 0.77619 0.0
C542 C 0.01576 0.82843 0.7 0.0
Zn543 Zn 0.52035 0.64222 0.19729 0.0
Zn544 Zn 0.46694 0.64465 0.31562 0.0
Zn545 Zn 0.49239 0.64696 0.2557 0.0
C546 C 0.52999 0.6754 0.32026 0.0
C547 C 0.4732 0.58722 0.29863 0.0
O548 O 0.45522 0.66951 0.22125 0.0
O549 O 0.4854 0.6669 0.17445 0.0
C550 C 0.56973 0.67222 0.23553 0.0
O551 O 0.53092 0.66901 0.28922 0.0
O552 O 0.50373 0.66819 0.33769 0.0
O553 O 0.46595 0.60176 0.3242 0.0
O554 O 0.4827 0.60051 0.27177 0.0
O555 O 0.56665 0.66001 0.2077 0.0
O556 O 0.54439 0.67058 0.2568 0.0
O557 O 0.50045 0.59974 0.24156 0.0
O558 O 0.51875 0.59927 0.18961 0.0
C559 C 0.5101 0.58551 0.21553 0.0
O560 O 0.44141 0.67169 0.25399 0.0
O561 O 0.42205 0.66394 0.30495 0.0
C562 C 0.45856 0.67531 0.19015 0.0
C563 C 0.41763 0.67491 0.27655 0.0
H564 H 0.04683 0.96543 0.37336 0.0
H565 H 0.06937 0.94097 0.27255 0.0
H566 H 0.05376 0.99075 0.25399 0.0
H567 H 0.03681 0.04235 0.26758 0.0
H568 H 0.01395 0.06423 0.36918 0.0
H569 H 0.02558 0.01391 0.38607 0.0
C570 C 0.04755 0.97051 0.34714 0.0
C571 C 0.05895 0.94923 0.32441 0.0
C572 C 0.03841 -0.00119 0.33679 0.0
C573 C 0.06089 0.95691 0.29069 0.0
C574 C 0.0518 0.98534 0.28006 0.0
C575 C 0.03362 0.03583 0.29323 0.0
C576 C 0.02459 0.05701 0.31712 0.0
C577 C 0.04087 0.00663 0.303 0.0
C578 C 0.02113 0.04842 0.35037 0.0
C579 C 0.02782 0.01965 0.36009 0.0
H580 H 0.44888 0.53031 0.86171 0.0
H581 H 0.43728 0.55192 0.75811 0.0
H582 H 0.4613 0.50403 0.74324 0.0
H583 H 0.47958 0.45373 0.76032 0.0
H584 H 0.49567 0.43568 0.86404 0.0
H585 H 0.47689 0.48508 0.87797 0.0
C586 C 0.45257 0.52541 0.83575 0.0
C587 C 0.44056 0.54503 0.81125 0.0
C588 C 0.46718 0.49824 0.8273 0.0
C589 C 0.44512 0.53717 0.77778 0.0
C590 C 0.45919 0.50978 0.76915 0.0
C591 C 0.48025 0.46101 0.78578 0.0
C592 C 0.48891 0.44097 0.81107 0.0
C593 C 0.46945 0.48977 0.79378 0.0
C594 C 0.4888 0.45055 0.8441 0.0
C595 C 0.47798 0.47881 0.85215 0.0
H596 H 0.55347 0.53092 0.64785 0.0
H597 H 0.59488 0.55674 0.74299 0.0
H598 H 0.57888 0.50834 0.76544 0.0
H599 H 0.55652 0.45682 0.75635 0.0
H600 H 0.51196 0.43512 0.66133 0.0
H601 H 0.52405 0.48455 0.64128 0.0
C602 C 0.55799 0.52691 0.67391 0.0
C603 C 0.57541 0.54811 0.69344 0.0
C604 C 0.54786 0.49955 0.68688 0.0
C605 C 0.58211 0.54104 0.72685 0.0
C606 C 0.57266 0.51332 0.73989 0.0
C607 C 0.54869 0.46331 0.73162 0.0
C608 C 0.53354 0.44229 0.71024 0.0
C609 C 0.55599 0.49213 0.71993 0.0
C610 C 0.52382 0.45083 0.67815 0.0
C611 C 0.53086 0.47907 0.66658 0.0
H612 H 0.89427 0.96264 0.23739 0.0
H613 H 0.96614 0.9402 0.15864 0.0
H614 H 0.99906 0.98553 0.16765 0.0
H615 H 0.00144 0.03516 0.1916 0.0
H616 H 0.9331 0.0567 0.27288 0.0
H617 H 0.90543 0.00785 0.26988 0.0
C618 C 0.91769 0.9672 0.22283 0.0
C619 C 0.92669 0.94855 0.1964 0.0
C620 C 0.93704 0.99329 0.22844 0.0
C621 C 0.95756 0.95475 0.17817 0.0
C622 C 0.97663 0.98063 0.1834 0.0
C623 C 0.98123 0.02871 0.20926 0.0
C624 C 0.96893 0.04931 0.23215 0.0
C625 C 0.96564 0.00067 0.20742 0.0
C626 C 0.9429 0.04096 0.25509 0.0
C627 C 0.92691 0.01316 0.25317 0.0
H628 H 0.89677 -0.00221 0.65498 0.0
H629 H 0.92027 0.04187 0.74677 0.0
H630 H 0.95044 -0.002 0.76699 0.0
H631 H 0.96894 0.94637 0.75907 0.0
H632 H 0.94637 0.90354 0.66635 0.0
H633 H 0.91771 0.94772 0.64599 0.0
C634 C 0.90887 -0.00194 0.67925 0.0
C635 C 0.90602 0.02324 0.69927 0.0
C636 C 0.92645 0.97286 0.69064 0.0
C637 C 0.92143 0.02274 0.73093 0.0
C638 C 0.93896 -0.00231 0.74247 0.0
C639 C 0.95814 0.94685 0.73428 0.0
C640 C 0.95968 0.92149 0.7144 0.0
C641 C 0.94147 0.97251 0.72261 0.0
C642 C 0.94526 0.92249 0.6824 0.0
C643 C 0.92886 0.94784 0.67065 0.0
H644 H 0.54215 0.45587 0.17652 0.0
H645 H 0.62543 0.47005 0.24747 0.0
H646 H 0.59802 0.51579 0.2648 0.0
H647 H 0.55581 0.55568 0.25368 0.0
H648 H 0.47807 0.54452 0.17729 0.0
H649 H 0.49762 0.49393 0.16823 0.0
C650 C 0.55445 0.4689 0.19576 0.0
C651 C 0.58629 0.45949 0.21016 0.0
C652 C 0.53944 0.49596 0.20459 0.0
C653 C 0.60093 0.4764 0.23589 0.0
C654 C 0.5854 0.50282 0.24569 0.0
C655 C 0.54255 0.54174 0.23581 0.0
C656 C 0.51538 0.55347 0.21636 0.0
C657 C 0.55535 0.51332 0.22944 0.0
C658 C 0.4988 0.53567 0.19271 0.0
C659 C 0.51021 0.5069 0.18736 0.0
H660 H 0.44953 0.45626 0.34098 0.0
H661 H 0.36065 0.46654 0.27553 0.0
H662 H 0.38351 0.51416 0.25737 0.0
H663 H 0.42464 0.55578 0.26532 0.0
H664 H 0.50901 0.54784 0.3357 0.0
H665 H 0.49233 0.49653 0.34661 0.0
C666 C 0.43503 0.46889 0.32281 0.0
C667 C 0.40312 0.45778 0.31001 0.0
C668 C 0.44763 0.49681 0.31334 0.0
C669 C 0.38537 0.47425 0.28573 0.0
C670 C 0.39831 0.50168 0.27545 0.0
C671 C 0.4398 0.54244 0.28236 0.0
C672 C 0.46811 0.55517 0.29954 0.0
C673 C 0.42889 0.51352 0.28971 0.0
C674 C 0.48729 0.53817 0.3221 0.0
C675 C 0.47757 0.50899 0.32848 0.0
H676 H 0.08111 0.02103 0.86755 0.0
H677 H 0.08415 0.04566 0.76432 0.0
H678 H 0.05816 -0.00197 0.74959 0.0
H679 H 0.03801 0.94773 0.76633 0.0
H680 H 0.03307 0.92629 0.87039 0.0
H681 H 0.05478 0.97498 0.88436 0.0
C682 C 0.07521 0.0167 0.8418 0.0
C683 C 0.08474 0.03727 0.81721 0.0
C684 C 0.05967 0.98969 0.83358 0.0
C685 C 0.07777 0.03023 0.78392 0.0
C686 C 0.0626 0.00302 0.77544 0.0
C687 C 0.04093 0.95404 0.79202 0.0
C688 C 0.03429 0.93324 0.81725 0.0
C689 C 0.05388 0.98233 0.80008 0.0
C690 C 0.0384 0.94169 0.85045 0.0
C691 C 0.05092 0.96954 0.85853 0.0
H692 H 0.15439 0.15796 0.08265 0.0
H693 H 0.08889 0.22562 0.04117 0.0
H694 H 0.05801 0.23066 0.09399 0.0
H695 H 0.04159 0.20794 0.14724 0.0
H696 H 0.10672 0.14034 0.18924 0.0
H697 H 0.14661 0.14362 0.14157 0.0
C698 C 0.13439 0.17466 0.08576 0.0
C699 C 0.12384 0.19147 0.05823 0.0
C700 C 0.11647 0.17712 0.11618 0.0
C701 C 0.09759 0.21274 0.06218 0.0
C702 C 0.07972 0.21538 0.09228 0.0
C703 C 0.06546 0.19496 0.14661 0.0
C704 C 0.07129 0.17389 0.17153 0.0
C705 C 0.08776 0.19663 0.11886 0.0
C706 C 0.10199 0.15692 0.17047 0.0
C707 C 0.12447 0.1585 0.14295 0.0
H708 H 0.35995 0.34105 0.58888 0.0
H709 H 0.42129 0.2747 0.53989 0.0
H710 H 0.45489 0.26629 0.59058 0.0
H711 H 0.47352 0.28439 0.64511 0.0
H712 H 0.41161 0.34977 0.69509 0.0
H713 H 0.37071 0.35131 0.64835 0.0
C714 C 0.38001 0.32419 0.58974 0.0
C715 C 0.38848 0.30869 0.56073 0.0
C716 C 0.39915 0.31942 0.61908 0.0
C717 C 0.41436 0.28681 0.56198 0.0
C718 C 0.43369 0.28214 0.59089 0.0
C719 C 0.45028 0.29812 0.64627 0.0
C720 C 0.44578 0.31719 0.67327 0.0
C721 C 0.42726 0.29917 0.61912 0.0
C722 C 0.41556 0.3348 0.67464 0.0
C723 C 0.39246 0.33601 0.64766 0.0
H724 H 0.62434 0.2946 0.95486 0.0
H725 H 0.66677 0.38055 0.93273 0.0
H726 H 0.64521 0.37704 0.8759 0.0
H727 H 0.60337 0.35436 0.8372 0.0
H728 H 0.55445 0.27154 0.86219 0.0
H729 H 0.59032 0.26813 0.91224 0.0
C730 C 0.62985 0.31204 0.93717 0.0
C731 C 0.64687 0.33785 0.94784 0.0
C732 C 0.61598 0.31037 0.90494 0.0
C733 C 0.65354 0.36055 0.92496 0.0
C734 C 0.64112 0.35857 0.89252 0.0
C735 C 0.60199 0.3349 0.85279 0.0
C736 C 0.57662 0.31311 0.84601 0.0
C737 C 0.62079 0.33423 0.88274 0.0
C738 C 0.5742 0.28835 0.86679 0.0
C739 C 0.59428 0.28668 0.8957 0.0
H740 H 0.85132 0.14662 0.42576 0.0
H741 H 0.90559 0.21584 0.4779 0.0
H742 H 0.93732 0.22957 0.42741 0.0
H743 H 0.95769 0.21525 0.37205 0.0
H744 H 0.90328 0.14648 0.31936 0.0
H745 H 0.86246 0.14004 0.36571 0.0
C746 C 0.86941 0.16519 0.42569 0.0
C747 C 0.87659 0.17998 0.45548 0.0
C748 C 0.88747 0.17304 0.39646 0.0
C749 C 0.89978 0.20416 0.45522 0.0
C750 C 0.91801 0.21192 0.4264 0.0
C751 C 0.93587 0.19981 0.37015 0.0
C752 C 0.93373 0.18115 0.34253 0.0
C753 C 0.91318 0.19569 0.39729 0.0
C754 C 0.90536 0.16125 0.34025 0.0
C755 C 0.88241 0.15716 0.36708 0.0
H756 H 0.88052 0.78691 0.95687 0.0
H757 H 0.82734 0.86438 0.92198 0.0
H758 H 0.85625 0.85992 0.86809 0.0
H759 H 0.90628 0.84063 0.83625 0.0
H760 H 0.96486 0.76731 0.87468 0.0
H761 H 0.92377 0.76263 0.92105 0.0
C762 C 0.8743 0.80207 0.93697 0.0
C763 C 0.85203 0.82596 0.94323 0.0
C764 C 0.89243 0.80021 0.9067 0.0
C765 C 0.8445 0.84585 0.91756 0.0
C766 C 0.8612 0.84339 0.88687 0.0
C767 C 0.909 0.82285 0.85403 0.0
C768 C 0.93841 0.80433 0.85221 0.0
C769 C 0.88663 0.8216 0.88179 0.0
C770 C 0.94226 0.78172 0.87565 0.0
C771 C 0.91901 0.77928 0.90235 0.0
H772 H 0.61548 0.72254 0.43832 0.0
H773 H 0.65069 0.63268 0.43692 0.0
H774 H 0.62559 0.62597 0.38176 0.0
H775 H 0.58433 0.6428 0.33928 0.0
H776 H 0.54235 0.73032 0.34406 0.0
H777 H 0.58014 0.74146 0.39157 0.0
C778 C 0.6184 0.70182 0.42539 0.0
C779 C 0.6347 0.67807 0.44143 0.0
C780 C 0.60263 0.69783 0.39422 0.0
C781 C 0.63808 0.65115 0.42488 0.0
C782 C 0.62371 0.64733 0.39343 0.0
C783 C 0.58483 0.66472 0.34984 0.0
C784 C 0.56127 0.68593 0.33802 0.0
C785 C 0.60471 0.67012 0.37847 0.0
C786 C 0.56096 0.71395 0.35244 0.0
C787 C 0.58211 0.7201 0.37993 0.0
H788 H 0.39805 0.71879 0.05967 0.0
H789 H 0.34212 0.63651 0.06903 0.0
H790 H 0.35751 0.6337 0.1277 0.0
H791 H 0.3982 0.64892 0.17185 0.0
H792 H 0.45859 0.72875 0.16065 0.0
H793 H 0.42927 0.73912 0.10814 0.0
C794 C 0.38811 0.70094 0.07502 0.0
C795 C 0.36895 0.67792 0.06032 0.0
C796 C 0.39814 0.69903 0.1085 0.0
C797 C 0.3567 0.65453 0.08007 0.0
C798 C 0.36572 0.65285 0.11353 0.0
C799 C 0.40337 0.66939 0.15876 0.0
C800 C 0.43018 0.68822 0.17016 0.0
C801 C 0.38794 0.67419 0.12756 0.0
C802 C 0.43757 0.71423 0.15256 0.0
C803 C 0.42128 0.71986 0.1222 0.0
H804 H 0.04926 0.79819 0.55169 0.0
H805 H 0.1561 0.80759 0.58619 0.0
H806 H 0.13474 0.81319 0.64308 0.0
H807 H 0.08492 0.8205 0.68221 0.0
H808 H 0.97847 0.81295 0.64576 0.0
H809 H 0.00038 0.8018 0.59067 0.0
C810 C 0.06793 0.80136 0.57166 0.0
C811 C 0.1042 0.80285 0.56458 0.0
C812 C 0.05545 0.80523 0.60404 0.0
C813 C 0.12804 0.80627 0.59091 0.0
C814 C 0.11581 0.80972 0.62343 0.0
C815 C 0.06661 0.81601 0.66226 0.0
C816 C 0.03008 0.81804 0.668 0.0
C817 C 0.07947 0.80997 0.63021 0.0
C818 C 0.00668 0.81212 0.64192 0.0
C819 C 0.01918 0.80563 0.61037 0.0
H820 H 0.19736 0.26475 0.29215 0.0
H821 H 0.25169 0.18745 0.3267 0.0
H822 H 0.20547 0.15611 0.30391 0.0
H823 H 0.14475 0.15145 0.28436 0.0
H824 H 0.08857 0.22813 0.25188 0.0
H825 H 0.14078 0.25887 0.2622 0.0
C826 C 0.19957 0.24103 0.29383 0.0
C827 C 0.2275 0.22849 0.3119 0.0
C828 C 0.1725 0.22303 0.28096 0.0
C829 C 0.22999 0.19769 0.31376 0.0
C830 C 0.20364 0.17972 0.30059 0.0
C831 C 0.1446 0.17469 0.27805 0.0
C832 C 0.11311 0.18759 0.2673 0.0
C833 C 0.17405 0.19222 0.28553 0.0
C834 C 0.11278 0.21772 0.25967 0.0
C835 C 0.14244 0.23534 0.26621 0.0
H836 H 0.28251 0.28154 0.80351 0.0
H837 H 0.33523 0.19809 0.80931 0.0
H838 H 0.38883 0.22023 0.78599 0.0
H839 H 0.42327 0.26526 0.77337 0.0
H840 H 0.37055 0.34863 0.76812 0.0
H841 H 0.31414 0.32466 0.78044 0.0
C842 C 0.30556 0.26817 0.79895 0.0
C843 C 0.30523 0.23838 0.80848 0.0
C844 C 0.3362 0.28106 0.7854 0.0
C845 C 0.33501 0.2211 0.80223 0.0
C846 C 0.36566 0.23377 0.78897 0.0
C847 C 0.39908 0.27784 0.77321 0.0
C848 C 0.40085 0.30856 0.76939 0.0
C849 C 0.36695 0.26397 0.78156 0.0
C850 C 0.3696 0.32487 0.77027 0.0
C851 C 0.33746 0.31122 0.77795 0.0
H852 H 0.68751 0.21658 0.72647 0.0
H853 H 0.75726 0.28764 0.69826 0.0
H854 H 0.71621 0.3234 0.72078 0.0
H855 H 0.65586 0.33466 0.73744 0.0
H856 H 0.58447 0.26468 0.76447 0.0
H857 H 0.63084 0.22833 0.7546 0.0
C858 C 0.69412 0.23982 0.7263 0.0
C859 C 0.72501 0.24954 0.71011 0.0
C860 C 0.66991 0.26047 0.73886 0.0
C861 C 0.73334 0.27972 0.71006 0.0
C862 C 0.70987 0.30018 0.72291 0.0
C863 C 0.65101 0.31153 0.74257 0.0
C864 C 0.61695 0.30226 0.75153 0.0
C865 C 0.67737 0.29089 0.7358 0.0
C866 C 0.61068 0.27229 0.75789 0.0
C867 C 0.63706 0.2515 0.7517 0.0
H868 H 0.78635 0.23748 0.22496 0.0
H869 H 0.85065 0.29538 0.16523 0.0
H870 H 0.90389 0.27078 0.18445 0.0
H871 H 0.93105 0.22821 0.21099 0.0
H872 H 0.86768 0.1678 0.26807 0.0
H873 H 0.81532 0.19809 0.25808 0.0
C874 C 0.81216 0.24505 0.21696 0.0
C875 C 0.81482 0.26809 0.19372 0.0
C876 C 0.84272 0.23025 0.22759 0.0
C877 C 0.8482 0.27766 0.18311 0.0
C878 C 0.87856 0.26356 0.19402 0.0
C879 C 0.90597 0.22238 0.22227 0.0
C880 C 0.90311 0.19621 0.2406 0.0
C881 C 0.87605 0.23923 0.2153 0.0
C882 C 0.87049 0.18826 0.25448 0.0
C883 C 0.84053 0.20536 0.24833 0.0
H884 H 0.82045 0.72455 0.72728 0.0
H885 H 0.78408 0.78589 0.65305 0.0
H886 H 0.83135 0.81974 0.66709 0.0
H887 H 0.88461 0.83152 0.69873 0.0
H888 H 0.91819 0.77303 0.77649 0.0
H889 H 0.86984 0.73908 0.76348 0.0
C890 C 0.82235 0.74549 0.71448 0.0
C891 C 0.79899 0.75197 0.68837 0.0
C892 C 0.84914 0.76557 0.72339 0.0
C893 C 0.80228 0.77945 0.67229 0.0
C894 C 0.82917 0.79914 0.68055 0.0
C895 C 0.88118 0.81143 0.71296 0.0
C896 C 0.90515 0.80461 0.73822 0.0
C897 C 0.85308 0.79225 0.70566 0.0
C898 C 0.90008 0.77875 0.75685 0.0
C899 C 0.87252 0.75927 0.74932 0.0
H900 H 0.68197 0.77164 0.22087 0.0
H901 H 0.74134 0.69822 0.1838 0.0
H902 H 0.69668 0.66402 0.20453 0.0
H903 H 0.63608 0.65596 0.22297 0.0
H904 H 0.57488 0.72846 0.25916 0.0
H905 H 0.62501 0.762 0.24995 0.0
C906 C 0.68556 0.7481 0.21838 0.0
C907 C 0.71457 0.73741 0.20038 0.0
C908 C 0.65922 0.72847 0.22985 0.0
C909 C 0.71898 0.7069 0.19721 0.0
C910 C 0.69341 0.68735 0.20896 0.0
C911 C 0.63419 0.67894 0.22992 0.0
C912 C 0.6019 0.68988 0.24134 0.0
C913 C 0.66269 0.69799 0.22382 0.0
C914 C 0.59961 0.71959 0.25042 0.0
C915 C 0.62814 0.7388 0.24474 0.0
H916 H 0.30825 0.7771 0.28479 0.0
H917 H 0.25178 0.70924 0.33841 0.0
H918 H 0.29544 0.6732 0.32208 0.0
H919 H 0.35297 0.6621 0.29878 0.0
H920 H 0.41134 0.72868 0.24561 0.0
H921 H 0.36311 0.76374 0.2543 0.0
C922 C 0.30523 0.75433 0.29241 0.0
C923 C 0.27719 0.74614 0.31365 0.0
C924 C 0.3307 0.73344 0.28285 0.0
C925 C 0.27362 0.71644 0.32303 0.0
C926 C 0.29844 0.69569 0.31346 0.0
C927 C 0.3547 0.68407 0.28827 0.0
C928 C 0.38566 0.69289 0.27178 0.0
C929 C 0.32757 0.70412 0.29428 0.0
C930 C 0.38762 0.72133 0.25818 0.0
C931 C 0.36025 0.74147 0.2636 0.0
H932 H 0.22874 0.772 0.79501 0.0
H933 H 0.17365 0.68992 0.81001 0.0
H934 H 0.11974 0.7112 0.78715 0.0
H935 H 0.08623 0.75586 0.77344 0.0
H936 H 0.14102 0.83816 0.75969 0.0
H937 H 0.1974 0.81407 0.77 0.0
C938 C 0.20511 0.75867 0.79235 0.0
C939 C 0.20476 0.72965 0.80439 0.0
C940 C 0.17428 0.77111 0.77924 0.0
C941 C 0.17425 0.71236 0.80089 0.0
C942 C 0.14348 0.72455 0.78792 0.0
C943 C 0.11075 0.76807 0.77088 0.0
C944 C 0.10969 0.79859 0.76544 0.0
C945 C 0.14283 0.75424 0.77827 0.0
C946 C 0.1414 0.81451 0.76314 0.0
C947 C 0.17355 0.80083 0.76973 0.0
loop_
_geom_bond_atom_site_label_1
_geom_bond_atom_site_label_2
_geom_bond_distance
_geom_bond_site_symmetry_2
_ccdc_geom_bond_type
C0 C1 1.391 . S
C0 C4 1.391 . S
C0 H42 0.948 . S
C1 C0 1.391 . S
C1 C2 1.391 . S
C2 C1 1.391 . S
C2 H58 0.947 . S
C2 C59 1.392 . S
C3 C4 1.391 . S
C3 C7 1.397 . S
C3 C59 1.419 . S
C4 C0 1.391 . S
C4 C3 1.391 . S
C4 C5 1.399 . S
C5 C4 1.399 . S
C5 C8 1.396 . S
C5 C17 1.453 . S
C5 C18 1.684 . S
H6 C30 0.948 . S
C7 C3 1.397 . S
C7 C8 1.394 . S
C7 C26 1.723 . S
C8 C5 1.396 . S
C8 C7 1.394 . S
C8 C38 1.723 . S
H9 C32 0.947 . S
H10 C33 0.948 . S
H11 C39 0.982 . S
H12 C40 0.979 . S
H13 C40 0.980 . S
H14 C40 0.983 . S
H15 C39 0.979 . S
H16 C39 0.977 . S
C17 C5 1.453 . S
C17 H46 0.982 . S
C17 H47 0.979 . S
C17 H48 0.977 . S
C18 C5 1.684 . S
C18 H43 0.979 . S
C18 H44 0.980 . S
C18 H45 0.983 . S
C19 C20 1.391 . S
C19 C24 1.391 . S
C19 H49 0.948 . S
C20 C19 1.391 . S
C20 C21 1.391 . S
C21 C20 1.391 . S
C21 C22 1.392 . S
C21 H50 0.947 . S
C22 C21 1.392 . S
C22 C23 1.419 . S
C22 H51 0.948 . S
C23 C22 1.419 . S
C23 C24 1.391 . S
C23 C27 1.397 . S
C24 C19 1.391 . S
C24 C23 1.391 . S
C24 C25 1.399 . S
C25 C24 1.399 . S
C25 C26 1.396 . S
C25 C28 1.453 . S
C25 C29 1.684 . S
C26 C7 1.723 . S
C26 C25 1.396 . S
C26 C27 1.394 . S
C27 C23 1.397 . S
C27 C26 1.394 . S
C27 C37 1.723 . S
C28 C25 1.453 . S
C28 H52 0.982 . S
C28 H53 0.979 . S
C28 H54 0.977 . S
C29 C25 1.684 . S
C29 H55 0.979 . S
C29 H56 0.980 . S
C29 H57 0.983 . S
C30 H6 0.948 . S
C30 C31 1.391 . S
C30 C35 1.391 . S
C31 C30 1.391 . S
C31 C32 1.391 . S
C32 H9 0.947 . S
C32 C31 1.391 . S
C32 C33 1.392 . S
C33 H10 0.948 . S
C33 C32 1.392 . S
C33 C34 1.419 . S
C34 C33 1.419 . S
C34 C35 1.391 . S
C34 C38 1.397 . S
C35 C30 1.391 . S
C35 C34 1.391 . S
C35 C36 1.399 . S
C36 C35 1.399 . S
C36 C37 1.396 . S
C36 C39 1.453 . S
C36 C40 1.684 . S
C37 C27 1.723 . S
C37 C36 1.396 . S
C37 C38 1.394 . S
C38 C8 1.723 . S
C38 C34 1.397 . S
C38 C37 1.394 . S
C39 H11 0.982 . S
C39 H15 0.979 . S
C39 H16 0.977 . S
C39 C36 1.453 . S
C40 H12 0.979 . S
C40 H13 0.980 . S
C40 H14 0.983 . S
C40 C36 1.684 . S
H41 C59 0.948 . S
H42 C0 0.948 . S
H43 C18 0.979 . S
H44 C18 0.980 . S
H45 C18 0.983 . S
H46 C17 0.982 . S
H47 C17 0.979 . S
H48 C17 0.977 . S
H49 C19 0.948 . S
H50 C21 0.947 . S
H51 C22 0.948 . S
H52 C28 0.982 . S
H53 C28 0.979 . S
H54 C28 0.977 . S
H55 C29 0.979 . S
H56 C29 0.980 . S
H57 C29 0.983 . S
H58 C2 0.947 . S
C59 C2 1.392 . S
C59 C3 1.419 . S
C59 H41 0.948 . S
C60 C61 1.391 . S
C60 C64 1.391 . S
C60 H102 0.948 . S
C61 C60 1.391 . S
C61 C62 1.391 . S
C62 C61 1.391 . S
C62 H118 0.947 . S
C62 C119 1.392 . S
C63 C64 1.391 . S
C63 C67 1.397 . S
C63 C119 1.419 . S
C64 C60 1.391 . S
C64 C63 1.391 . S
C64 C65 1.399 . S
C65 C64 1.399 . S
C65 C68 1.396 . S
C65 C77 1.453 . S
C65 C78 1.684 . S
H66 C90 0.948 . S
C67 C63 1.397 . S
C67 C68 1.394 . S
C67 C86 1.723 . S
C68 C65 1.396 . S
C68 C67 1.394 . S
C68 C98 1.723 . S
H69 C92 0.947 . S
H70 C93 0.948 . S
H71 C99 0.982 . S
H72 C100 0.979 . S
H73 C100 0.980 . S
H74 C100 0.983 . S
H75 C99 0.979 . S
H76 C99 0.977 . S
C77 C65 1.453 . S
C77 H106 0.982 . S
C77 H107 0.979 . S
C77 H108 0.977 . S
C78 C65 1.684 . S
C78 H103 0.979 . S
C78 H104 0.980 . S
C78 H105 0.983 . S
C79 C80 1.395 . S
C79 C84 1.384 1_554 S
C79 H109 0.952 . S
C80 C79 1.395 . S
C80 C81 1.390 1_554 S
C81 C80 1.390 1_556 S
C81 C82 1.395 . S
C81 H110 0.945 1_556 S
C82 C81 1.395 . S
C82 C83 1.419 . S
C82 H111 0.948 . S
C83 C82 1.419 . S
C83 C84 1.391 . S
C83 C87 1.397 . S
C84 C79 1.384 1_556 S
C84 C83 1.391 . S
C84 C85 1.399 . S
C85 C84 1.399 . S
C85 C86 1.396 . S
C85 C88 1.453 . S
C85 C89 1.684 . S
C86 C67 1.723 . S
C86 C85 1.396 . S
C86 C87 1.394 . S
C87 C83 1.397 . S
C87 C86 1.394 . S
C87 C97 1.723 . S
C88 C85 1.453 . S
C88 H112 0.982 . S
C88 H113 0.979 . S
C88 H114 0.977 . S
C89 C85 1.684 . S
C89 H115 0.979 . S
C89 H116 0.980 . S
C89 H117 0.983 . S
C90 H66 0.948 . S
C90 C91 1.391 . S
C90 C95 1.391 . S
C91 C90 1.391 . S
C91 C92 1.391 . S
C92 H69 0.947 . S
C92 C91 1.391 . S
C92 C93 1.392 . S
C93 H70 0.948 . S
C93 C92 1.392 . S
C93 C94 1.419 . S
C94 C93 1.419 . S
C94 C95 1.391 . S
C94 C98 1.397 . S
C95 C90 1.391 . S
C95 C94 1.391 . S
C95 C96 1.399 . S
C96 C95 1.399 . S
C96 C97 1.396 . S
C96 C99 1.453 . S
C96 C100 1.684 . S
C97 C87 1.723 . S
C97 C96 1.396 . S
C97 C98 1.394 . S
C98 C68 1.723 . S
C98 C94 1.397 . S
C98 C97 1.394 . S
C99 H71 0.982 . S
C99 H75 0.979 . S
C99 H76 0.977 . S
C99 C96 1.453 . S
C100 H72 0.979 . S
C100 H73 0.980 . S
C100 H74 0.983 . S
C100 C96 1.684 . S
H101 C119 0.948 . S
H102 C60 0.948 . S
H103 C78 0.979 . S
H104 C78 0.980 . S
H105 C78 0.983 . S
H106 C77 0.982 . S
H107 C77 0.979 . S
H108 C77 0.977 . S
H109 C79 0.952 . S
H110 C81 0.945 1_554 S
H111 C82 0.948 . S
H112 C88 0.982 . S
H113 C88 0.979 . S
H114 C88 0.977 . S
H115 C89 0.979 . S
H116 C89 0.980 . S
H117 C89 0.983 . S
H118 C62 0.947 . S
C119 C62 1.392 . S
C119 C63 1.419 . S
C119 H101 0.948 . S
C120 C121 1.391 . S
C120 C124 1.391 . S
C120 H162 0.948 . S
C121 C120 1.391 . S
C121 C122 1.391 . S
C122 C121 1.391 . S
C122 H178 0.947 . S
C122 C179 1.392 . S
C123 C124 1.391 . S
C123 C127 1.397 . S
C123 C179 1.419 . S
C124 C120 1.391 . S
C124 C123 1.391 . S
C124 C125 1.399 . S
C125 C124 1.399 . S
C125 C128 1.396 . S
C125 C137 1.453 . S
C125 C138 1.684 . S
H126 C150 0.948 . S
C127 C123 1.397 . S
C127 C128 1.394 . S
C127 C146 1.723 . S
C128 C125 1.396 . S
C128 C127 1.394 . S
C128 C158 1.723 . S
H129 C152 0.947 . S
H130 C153 0.948 . S
H131 C159 0.982 . S
H132 C160 0.979 . S
H133 C160 0.980 . S
H134 C160 0.983 . S
H135 C159 0.979 . S
H136 C159 0.977 . S
C137 C125 1.453 . S
C137 H166 0.982 . S
C137 H167 0.979 . S
C137 H168 0.977 . S
C138 C125 1.684 . S
C138 H163 0.979 . S
C138 H164 0.980 . S
C138 H165 0.983 . S
C139 C140 1.391 . S
C139 C144 1.391 . S
C139 H169 0.948 . S
C140 C139 1.391 . S
C140 C141 1.391 . S
C141 C140 1.391 . S
C141 C142 1.392 . S
C141 H170 0.947 . S
C142 C141 1.392 . S
C142 C143 1.419 . S
C142 H171 0.948 . S
C143 C142 1.419 . S
C143 C144 1.391 . S
C143 C147 1.397 . S
C144 C139 1.391 . S
C144 C143 1.391 . S
C144 C145 1.399 . S
C145 C144 1.399 . S
C145 C146 1.396 . S
C145 C148 1.453 . S
C145 C149 1.684 . S
C146 C127 1.723 . S
C146 C145 1.396 . S
C146 C147 1.394 . S
C147 C143 1.397 . S
C147 C146 1.394 . S
C147 C157 1.723 . S
C148 C145 1.453 . S
C148 H172 0.982 . S
C148 H173 0.979 . S
C148 H174 0.977 . S
C149 C145 1.684 . S
C149 H175 0.979 . S
C149 H176 0.980 . S
C149 H177 0.983 . S
C150 H126 0.948 . S
C150 C151 1.391 . S
C150 C155 1.391 . S
C151 C150 1.391 . S
C151 C152 1.391 . S
C152 H129 0.947 . S
C152 C151 1.391 . S
C152 C153 1.392 . S
C153 H130 0.948 . S
C153 C152 1.392 . S
C153 C154 1.419 . S
C154 C153 1.419 . S
C154 C155 1.391 . S
C154 C158 1.397 . S
C155 C150 1.391 . S
C155 C154 1.391 . S
C155 C156 1.399 . S
C156 C155 1.399 . S
C156 C157 1.396 . S
C156 C159 1.453 . S
C156 C160 1.684 . S
C157 C147 1.723 . S
C157 C156 1.396 . S
C157 C158 1.394 . S
C158 C128 1.723 . S
C158 C154 1.397 . S
C158 C157 1.394 . S
C159 H131 0.982 . S
C159 H135 0.979 . S
C159 H136 0.977 . S
C159 C156 1.453 . S
C160 H132 0.979 . S
C160 H133 0.980 . S
C160 H134 0.983 . S
C160 C156 1.684 . S
H161 C179 0.948 . S
H162 C120 0.948 . S
H163 C138 0.979 . S
H164 C138 0.980 . S
H165 C138 0.983 . S
H166 C137 0.982 . S
H167 C137 0.979 . S
H168 C137 0.977 . S
H169 C139 0.948 . S
H170 C141 0.947 . S
H171 C142 0.948 . S
H172 C148 0.982 . S
H173 C148 0.979 . S
H174 C148 0.977 . S
H175 C149 0.979 . S
H176 C149 0.980 . S
H177 C149 0.983 . S
H178 C122 0.947 . S
C179 C122 1.392 . S
C179 C123 1.419 . S
C179 H161 0.948 . S
C180 C181 1.391 . S
C180 C184 1.391 . S
C180 H222 0.948 . S
C181 C180 1.391 . S
C181 C182 1.391 . S
C182 C181 1.391 . S
C182 H238 0.947 . S
C182 C239 1.392 . S
C183 C184 1.391 . S
C183 C187 1.397 . S
C183 C239 1.419 . S
C184 C180 1.391 . S
C184 C183 1.391 . S
C184 C185 1.399 . S
C185 C184 1.399 . S
C185 C188 1.396 . S
C185 C197 1.453 . S
C185 C198 1.684 . S
H186 C210 0.948 . S
C187 C183 1.397 . S
C187 C188 1.394 . S
C187 C206 1.723 . S
C188 C185 1.396 . S
C188 C187 1.394 . S
C188 C218 1.723 . S
H189 C212 0.947 . S
H190 C213 0.948 . S
H191 C219 0.982 . S
H192 C220 0.979 . S
H193 C220 0.980 . S
H194 C220 0.983 . S
H195 C219 0.979 . S
H196 C219 0.977 . S
C197 C185 1.453 . S
C197 H226 0.982 . S
C197 H227 0.979 . S
C197 H228 0.977 . S
C198 C185 1.684 . S
C198 H223 0.979 . S
C198 H224 0.980 . S
C198 H225 0.983 . S
C199 C200 1.391 1_554 S
C199 C204 1.391 . S
C199 H229 0.948 1_554 S
C200 C199 1.391 1_556 S
C200 C201 1.391 1_556 S
C201 C200 1.391 1_554 S
C201 C202 1.392 . S
C201 H230 0.947 1_554 S
C202 C201 1.392 . S
C202 C203 1.419 . S
C202 H231 0.948 . S
C203 C202 1.419 . S
C203 C204 1.391 . S
C203 C207 1.397 . S
C204 C199 1.391 . S
C204 C203 1.391 . S
C204 C205 1.399 . S
C205 C204 1.399 . S
C205 C206 1.396 . S
C205 C208 1.453 . S
C205 C209 1.684 . S
C206 C187 1.723 . S
C206 C205 1.396 . S
C206 C207 1.394 . S
C207 C203 1.397 . S
C207 C206 1.394 . S
C207 C217 1.723 . S
C208 C205 1.453 . S
C208 H232 0.982 . S
C208 H233 0.979 . S
C208 H234 0.977 . S
C209 C205 1.684 . S
C209 H235 0.979 . S
C209 H236 0.980 . S
C209 H237 0.983 . S
C210 H186 0.948 . S
C210 C211 1.391 . S
C210 C215 1.391 . S
C211 C210 1.391 . S
C211 C212 1.391 . S
C212 H189 0.947 . S
C212 C211 1.391 . S
C212 C213 1.392 . S
C213 H190 0.948 . S
C213 C212 1.392 . S
C213 C214 1.419 . S
C214 C213 1.419 . S
C214 C215 1.391 . S
C214 C218 1.397 . S
C215 C210 1.391 . S
C215 C214 1.391 . S
C215 C216 1.399 . S
C216 C215 1.399 . S
C216 C217 1.396 . S
C216 C219 1.453 . S
C216 C220 1.684 . S
C217 C207 1.723 . S
C217 C216 1.396 . S
C217 C218 1.394 . S
C218 C188 1.723 . S
C218 C214 1.397 . S
C218 C217 1.394 . S
C219 H191 0.982 . S
C219 H195 0.979 . S
C219 H196 0.977 . S
C219 C216 1.453 . S
C220 H192 0.979 . S
C220 H193 0.980 . S
C220 H194 0.983 . S
C220 C216 1.684 . S
H221 C239 0.948 . S
H222 C180 0.948 . S
H223 C198 0.979 . S
H224 C198 0.980 . S
H225 C198 0.983 . S
H226 C197 0.982 . S
H227 C197 0.979 . S
H228 C197 0.977 . S
H229 C199 0.948 1_556 S
H230 C201 0.947 1_556 S
H231 C202 0.948 . S
H232 C208 0.982 . S
H233 C208 0.979 . S
H234 C208 0.977 . S
H235 C209 0.979 . S
H236 C209 0.980 . S
H237 C209 0.983 . S
H238 C182 0.947 . S
C239 C182 1.392 . S
C239 C183 1.419 . S
C239 H221 0.948 . S
C240 C241 1.391 . S
C240 C244 1.391 . S
C240 H282 0.948 . S
C241 C240 1.391 . S
C241 C242 1.391 . S
C242 C241 1.391 . S
C242 H298 0.947 . S
C242 C299 1.392 . S
C243 C244 1.391 . S
C243 C247 1.397 . S
C243 C299 1.419 . S
C244 C240 1.391 . S
C244 C243 1.391 . S
C244 C245 1.399 . S
C245 C244 1.399 . S
C245 C248 1.396 . S
C245 C257 1.453 . S
C245 C258 1.684 . S
H246 C270 0.948 . S
C247 C243 1.397 . S
C247 C248 1.394 . S
C247 C266 1.723 . S
C248 C245 1.396 . S
C248 C247 1.394 . S
C248 C278 1.723 . S
H249 C272 0.947 . S
H250 C273 0.948 . S
H251 C279 0.982 . S
H252 C280 0.979 . S
H253 C280 0.980 . S
H254 C280 0.983 . S
H255 C279 0.979 . S
H256 C279 0.977 . S
C257 C245 1.453 . S
C257 H286 0.982 . S
C257 H287 0.979 . S
C257 H288 0.977 . S
C258 C245 1.684 . S
C258 H283 0.979 . S
C258 H284 0.980 . S
C258 H285 0.983 . S
C259 C260 1.391 . S
C259 C264 1.391 . S
C259 H289 0.948 . S
C260 C259 1.391 . S
C260 C261 1.391 . S
C261 C260 1.391 . S
C261 C262 1.392 . S
C261 H290 0.947 . S
C262 C261 1.392 . S
C262 C263 1.419 . S
C262 H291 0.948 . S
C263 C262 1.419 . S
C263 C264 1.391 . S
C263 C267 1.397 . S
C264 C259 1.391 . S
C264 C263 1.391 . S
C264 C265 1.399 . S
C265 C264 1.399 . S
C265 C266 1.396 . S
C265 C268 1.453 . S
C265 C269 1.684 . S
C266 C247 1.723 . S
C266 C265 1.396 . S
C266 C267 1.394 . S
C267 C263 1.397 . S
C267 C266 1.394 . S
C267 C277 1.723 . S
C268 C265 1.453 . S
C268 H292 0.982 . S
C268 H293 0.979 . S
C268 H294 0.977 . S
C269 C265 1.684 . S
C269 H295 0.979 . S
C269 H296 0.980 . S
C269 H297 0.983 . S
C270 H246 0.948 . S
C270 C271 1.391 . S
C270 C275 1.391 . S
C271 C270 1.391 . S
C271 C272 1.391 . S
C272 H249 0.947 . S
C272 C271 1.391 . S
C272 C273 1.392 . S
C273 H250 0.948 . S
C273 C272 1.392 . S
C273 C274 1.419 . S
C274 C273 1.419 . S
C274 C275 1.391 . S
C274 C278 1.397 . S
C275 C270 1.391 . S
C275 C274 1.391 . S
C275 C276 1.399 . S
C276 C275 1.399 . S
C276 C277 1.396 . S
C276 C279 1.453 . S
C276 C280 1.684 . S
C277 C267 1.723 . S
C277 C276 1.396 . S
C277 C278 1.394 . S
C278 C248 1.723 . S
C278 C274 1.397 . S
C278 C277 1.394 . S
C279 H251 0.982 . S
C279 H255 0.979 . S
C279 H256 0.977 . S
C279 C276 1.453 . S
C280 H252 0.979 . S
C280 H253 0.980 . S
C280 H254 0.983 . S
C280 C276 1.684 . S
H281 C299 0.948 . S
H282 C240 0.948 . S
H283 C258 0.979 . S
H284 C258 0.980 . S
H285 C258 0.983 . S
H286 C257 0.982 . S
H287 C257 0.979 . S
H288 C257 0.977 . S
H289 C259 0.948 . S
H290 C261 0.947 . S
H291 C262 0.948 . S
H292 C268 0.982 . S
H293 C268 0.979 . S
H294 C268 0.977 . S
H295 C269 0.979 . S
H296 C269 0.980 . S
H297 C269 0.983 . S
H298 C242 0.947 . S
C299 C242 1.392 . S
C299 C243 1.419 . S
C299 H281 0.948 . S
C300 C301 1.391 . S
C300 C304 1.391 . S
C300 H342 0.948 . S
C301 C300 1.391 . S
C301 C302 1.391 . S
C302 C301 1.391 . S
C302 H358 0.947 . S
C302 C359 1.392 . S
C303 C304 1.391 . S
C303 C307 1.397 . S
C303 C359 1.419 . S
C304 C300 1.391 . S
C304 C303 1.391 . S
C304 C305 1.399 . S
C305 C304 1.399 . S
C305 C308 1.396 . S
C305 C317 1.453 . S
C305 C318 1.684 . S
H306 C330 0.948 . S
C307 C303 1.397 . S
C307 C308 1.394 . S
C307 C326 1.723 . S
C308 C305 1.396 . S
C308 C307 1.394 . S
C308 C338 1.723 . S
H309 C332 0.947 . S
H310 C333 0.948 . S
H311 C339 0.982 . S
H312 C340 0.979 . S
H313 C340 0.980 . S
H314 C340 0.983 . S
H315 C339 0.979 . S
H316 C339 0.977 . S
C317 C305 1.453 . S
C317 H346 0.982 . S
C317 H347 0.979 . S
C317 H348 0.977 . S
C318 C305 1.684 . S
C318 H343 0.979 . S
C318 H344 0.980 . S
C318 H345 0.983 . S
C319 C320 1.391 . S
C319 C324 1.391 1_556 S
C319 H349 0.948 . S
C320 C319 1.391 . S
C320 C321 1.391 . S
C321 C320 1.391 . S
C321 C322 1.392 1_556 S
C321 H350 0.947 . S
C322 C321 1.392 1_554 S
C322 C323 1.419 . S
C322 H351 0.948 . S
C323 C322 1.419 . S
C323 C324 1.391 . S
C323 C327 1.397 . S
C324 C319 1.391 1_554 S
C324 C323 1.391 . S
C324 C325 1.399 . S
C325 C324 1.399 . S
C325 C326 1.396 . S
C325 C328 1.453 . S
C325 C329 1.684 . S
C326 C307 1.723 . S
C326 C325 1.396 . S
C326 C327 1.394 . S
C327 C323 1.397 . S
C327 C326 1.394 . S
C327 C337 1.723 . S
C328 C325 1.453 . S
C328 H352 0.982 . S
C328 H353 0.979 . S
C328 H354 0.977 . S
C329 C325 1.684 . S
C329 H355 0.979 . S
C329 H356 0.980 . S
C329 H357 0.983 . S
C330 H306 0.948 . S
C330 C331 1.391 . S
C330 C335 1.391 . S
C331 C330 1.391 . S
C331 C332 1.391 . S
C332 H309 0.947 . S
C332 C331 1.391 . S
C332 C333 1.392 . S
C333 H310 0.948 . S
C333 C332 1.392 . S
C333 C334 1.419 . S
C334 C333 1.419 . S
C334 C335 1.391 . S
C334 C338 1.397 . S
C335 C330 1.391 . S
C335 C334 1.391 . S
C335 C336 1.399 . S
C336 C335 1.399 . S
C336 C337 1.396 . S
C336 C339 1.453 . S
C336 C340 1.684 . S
C337 C327 1.723 . S
C337 C336 1.396 . S
C337 C338 1.394 . S
C338 C308 1.723 . S
C338 C334 1.397 . S
C338 C337 1.394 . S
C339 H311 0.982 . S
C339 H315 0.979 . S
C339 H316 0.977 . S
C339 C336 1.453 . S
C340 H312 0.979 . S
C340 H313 0.980 . S
C340 H314 0.983 . S
C340 C336 1.684 . S
H341 C359 0.948 . S
H342 C300 0.948 . S
H343 C318 0.979 . S
H344 C318 0.980 . S
H345 C318 0.983 . S
H346 C317 0.982 . S
H347 C317 0.979 . S
H348 C317 0.977 . S
H349 C319 0.948 . S
H350 C321 0.947 . S
H351 C322 0.948 . S
H352 C328 0.982 . S
H353 C328 0.979 . S
H354 C328 0.977 . S
H355 C329 0.979 . S
H356 C329 0.980 . S
H357 C329 0.983 . S
H358 C302 0.947 . S
C359 C302 1.392 . S
C359 C303 1.419 . S
C359 H341 0.948 . S
C360 C361 1.391 . S
C360 C364 1.391 . S
C360 H402 0.948 . S
C361 C360 1.391 . S
C361 C362 1.391 . S
C362 C361 1.391 . S
C362 H418 0.947 . S
C362 C419 1.392 . S
C363 C364 1.391 . S
C363 C367 1.397 . S
C363 C419 1.419 . S
C364 C360 1.391 . S
C364 C363 1.391 . S
C364 C365 1.399 . S
C365 C364 1.399 . S
C365 C368 1.396 . S
C365 C377 1.453 . S
C365 C378 1.684 . S
H366 C390 0.948 . S
C367 C363 1.397 . S
C367 C368 1.394 . S
C367 C386 1.723 . S
C368 C365 1.396 . S
C368 C367 1.394 . S
C368 C398 1.723 . S
H369 C392 0.947 . S
H370 C393 0.948 . S
H371 C399 0.982 . S
H372 C400 0.979 . S
H373 C400 0.980 . S
H374 C400 0.983 . S
H375 C399 0.979 . S
H376 C399 0.977 . S
C377 C365 1.453 . S
C377 H406 0.982 . S
C377 H407 0.979 . S
C377 H408 0.977 . S
C378 C365 1.684 . S
C378 H403 0.979 . S
C378 H404 0.980 . S
C378 H405 0.983 . S
C379 C380 1.391 . S
C379 C384 1.391 . S
C379 H409 0.948 . S
C380 C379 1.391 . S
C380 C381 1.391 . S
C381 C380 1.391 . S
C381 C382 1.392 . S
C381 H410 0.947 . S
C382 C381 1.392 . S
C382 C383 1.419 . S
C382 H411 0.948 . S
C383 C382 1.419 . S
C383 C384 1.391 . S
C383 C387 1.397 . S
C384 C379 1.391 . S
C384 C383 1.391 . S
C384 C385 1.399 . S
C385 C384 1.399 . S
C385 C386 1.396 . S
C385 C388 1.453 . S
C385 C389 1.684 . S
C386 C367 1.723 . S
C386 C385 1.396 . S
C386 C387 1.394 . S
C387 C383 1.397 . S
C387 C386 1.394 . S
C387 C397 1.723 . S
C388 C385 1.453 . S
C388 H412 0.982 . S
C388 H413 0.979 . S
C388 H414 0.977 . S
C389 C385 1.684 . S
C389 H415 0.979 . S
C389 H416 0.980 . S
C389 H417 0.983 . S
C390 H366 0.948 . S
C390 C391 1.391 . S
C390 C395 1.391 . S
C391 C390 1.391 . S
C391 C392 1.391 . S
C392 H369 0.947 . S
C392 C391 1.391 . S
C392 C393 1.392 . S
C393 H370 0.948 . S
C393 C392 1.392 . S
C393 C394 1.419 . S
C394 C393 1.419 . S
C394 C395 1.391 . S
C394 C398 1.397 . S
C395 C390 1.391 . S
C395 C394 1.391 . S
C395 C396 1.399 . S
C396 C395 1.399 . S
C396 C397 1.396 . S
C396 C399 1.453 . S
C396 C400 1.684 . S
C397 C387 1.723 . S
C397 C396 1.396 . S
C397 C398 1.394 . S
C398 C368 1.723 . S
C398 C394 1.397 . S
C398 C397 1.394 . S
C399 H371 0.982 . S
C399 H375 0.979 . S
C399 H376 0.977 . S
C399 C396 1.453 . S
C400 H372 0.979 . S
C400 H373 0.980 . S
C400 H374 0.983 . S
C400 C396 1.684 . S
H401 C419 0.948 . S
H402 C360 0.948 . S
H403 C378 0.979 . S
H404 C378 0.980 . S
H405 C378 0.983 . S
H406 C377 0.982 . S
H407 C377 0.979 . S
H408 C377 0.977 . S
H409 C379 0.948 . S
H410 C381 0.947 . S
H411 C382 0.948 . S
H412 C388 0.982 . S
H413 C388 0.979 . S
H414 C388 0.977 . S
H415 C389 0.979 . S
H416 C389 0.980 . S
H417 C389 0.983 . S
H418 C362 0.947 . S
C419 C362 1.392 . S
C419 C363 1.419 . S
C419 H401 0.948 . S
C420 C421 1.391 . S
C420 C424 1.391 . S
C420 H462 0.948 . S
C421 C420 1.391 . S
C421 C422 1.391 . S
C422 C421 1.391 . S
C422 H478 0.947 . S
C422 C479 1.392 . S
C423 C424 1.391 . S
C423 C427 1.397 . S
C423 C479 1.419 . S
C424 C420 1.391 . S
C424 C423 1.391 . S
C424 C425 1.399 . S
C425 C424 1.399 . S
C425 C428 1.396 . S
C425 C437 1.453 . S
C425 C438 1.684 . S
H426 C450 0.948 . S
C427 C423 1.397 . S
C427 C428 1.394 . S
C427 C446 1.723 . S
C428 C425 1.396 . S
C428 C427 1.394 . S
C428 C458 1.723 . S
H429 C452 0.947 . S
H430 C453 0.948 . S
H431 C459 0.982 . S
H432 C460 0.979 . S
H433 C460 0.980 . S
H434 C460 0.983 . S
H435 C459 0.979 . S
H436 C459 0.977 . S
C437 C425 1.453 . S
C437 H466 0.982 . S
C437 H467 0.979 . S
C437 H468 0.977 . S
C438 C425 1.684 . S
C438 H463 0.979 . S
C438 H464 0.980 . S
C438 H465 0.983 . S
C439 C440 1.403 . S
C439 C444 1.368 1_554 S
C439 H469 0.961 . S
C440 C439 1.403 . S
C440 C441 1.391 1_554 S
C441 C440 1.391 1_556 S
C441 C442 1.392 . S
C441 H470 0.947 1_556 S
C442 C441 1.392 . S
C442 C443 1.419 . S
C442 H471 0.948 . S
C443 C442 1.419 . S
C443 C444 1.391 . S
C443 C447 1.397 . S
C444 C439 1.368 1_556 S
C444 C443 1.391 . S
C444 C445 1.399 . S
C445 C444 1.399 . S
C445 C446 1.396 . S
C445 C448 1.453 . S
C445 C449 1.684 . S
C446 C427 1.723 . S
C446 C445 1.396 . S
C446 C447 1.394 . S
C447 C443 1.397 . S
C447 C446 1.394 . S
C447 C457 1.723 . S
C448 C445 1.453 . S
C448 H472 0.982 . S
C448 H473 0.979 . S
C448 H474 0.977 . S
C449 C445 1.684 . S
C449 H475 0.979 . S
C449 H476 0.980 . S
C449 H477 0.983 . S
C450 H426 0.948 . S
C450 C451 1.391 . S
C450 C455 1.391 . S
C451 C450 1.391 . S
C451 C452 1.391 . S
C452 H429 0.947 . S
C452 C451 1.391 . S
C452 C453 1.392 . S
C453 H430 0.948 . S
C453 C452 1.392 . S
C453 C454 1.419 . S
C454 C453 1.419 . S
C454 C455 1.391 . S
C454 C458 1.397 . S
C455 C450 1.391 . S
C455 C454 1.391 . S
C455 C456 1.399 . S
C456 C455 1.399 . S
C456 C457 1.396 . S
C456 C459 1.453 . S
C456 C460 1.684 . S
C457 C447 1.723 . S
C457 C456 1.396 . S
C457 C458 1.394 . S
C458 C428 1.723 . S
C458 C454 1.397 . S
C458 C457 1.394 . S
C459 H431 0.982 . S
C459 H435 0.979 . S
C459 H436 0.977 . S
C459 C456 1.453 . S
C460 H432 0.979 . S
C460 H433 0.980 . S
C460 H434 0.983 . S
C460 C456 1.684 . S
H461 C479 0.948 . S
H462 C420 0.948 . S
H463 C438 0.979 . S
H464 C438 0.980 . S
H465 C438 0.983 . S
H466 C437 0.982 . S
H467 C437 0.979 . S
H468 C437 0.977 . S
H469 C439 0.961 . S
H470 C441 0.947 1_554 S
H471 C442 0.948 . S
H472 C448 0.982 . S
H473 C448 0.979 . S
H474 C448 0.977 . S
H475 C449 0.979 . S
H476 C449 0.980 . S
H477 C449 0.983 . S
H478 C422 0.947 . S
C479 C422 1.392 . S
C479 C423 1.419 . S
C479 H461 0.948 . S
Zn480 O486 1.920 1_455 S
Zn480 O492 1.898 . S
Zn480 O495 1.905 . S
Zn481 O489 1.905 1_655 S
Zn481 O490 1.898 . S
Zn481 O498 1.920 . S
Zn482 O485 2.080 1_455 S
Zn482 O488 2.114 . S
Zn482 O491 2.120 1_455 S
Zn482 O493 2.120 . S
Zn482 O494 2.114 . S
Zn482 O497 2.080 1_455 S
C483 O488 1.166 . S
C483 O489 1.182 . S
C484 O490 1.167 . S
C484 O491 1.299 . S
O485 Zn482 2.080 1_655 S
O485 C499 1.305 . S
O486 Zn480 1.920 1_655 S
O486 C499 1.234 . S
C487 O492 1.167 . S
C487 O493 1.299 . S
O488 Zn482 2.114 . S
O488 C483 1.166 . S
O489 Zn481 1.905 1_455 S
O489 C483 1.182 . S
O490 Zn481 1.898 . S
O490 C484 1.167 . S
O491 Zn482 2.120 1_655 S
O491 C484 1.299 . S
O492 Zn480 1.898 . S
O492 C487 1.167 . S
O493 Zn482 2.120 . S
O493 C487 1.299 . S
O494 Zn482 2.114 . S
O494 C496 1.166 . S
O495 Zn480 1.905 . S
O495 C496 1.182 . S
C496 O494 1.166 . S
C496 O495 1.182 . S
O497 Zn482 2.080 1_655 S
O497 C500 1.305 . S
O498 Zn481 1.920 . S
O498 C500 1.234 . S
C499 O485 1.305 . S
C499 O486 1.234 . S
C500 O497 1.305 . S
C500 O498 1.234 . S
Zn501 O507 1.920 . S
Zn501 O513 1.898 . S
Zn501 O516 1.905 . S
Zn502 O510 1.905 . S
Zn502 O511 1.898 . S
Zn502 O519 1.920 . S
Zn503 O506 2.080 . S
Zn503 O509 2.114 . S
Zn503 O512 2.120 . S
Zn503 O514 2.120 . S
Zn503 O515 2.114 . S
Zn503 O518 2.080 . S
C504 O509 1.166 . S
C504 O510 1.182 . S
C505 O511 1.167 . S
C505 O512 1.299 . S
O506 Zn503 2.080 . S
O506 C520 1.305 . S
O507 Zn501 1.920 . S
O507 C520 1.234 . S
C508 O513 1.167 . S
C508 O514 1.299 . S
O509 Zn503 2.114 . S
O509 C504 1.166 . S
O510 Zn502 1.905 . S
O510 C504 1.182 . S
O511 Zn502 1.898 . S
O511 C505 1.167 . S
O512 Zn503 2.120 . S
O512 C505 1.299 . S
O513 Zn501 1.898 . S
O513 C508 1.167 . S
O514 Zn503 2.120 . S
O514 C508 1.299 . S
O515 Zn503 2.114 . S
O515 C517 1.166 . S
O516 Zn501 1.905 . S
O516 C517 1.182 . S
C517 O515 1.166 . S
C517 O516 1.182 . S
O518 Zn503 2.080 . S
O518 C521 1.305 . S
O519 Zn502 1.920 . S
O519 C521 1.234 . S
C520 O506 1.305 . S
C520 O507 1.234 . S
C521 O518 1.305 . S
C521 O519 1.234 . S
Zn522 O528 1.920 . S
Zn522 O534 1.898 . S
Zn522 O537 1.905 1_455 S
Zn523 O531 1.905 . S
Zn523 O532 1.898 . S
Zn523 O540 1.920 1_655 S
Zn524 O527 2.080 . S
Zn524 O530 2.114 1_455 S
Zn524 O533 2.120 1_455 S
Zn524 O535 2.120 . S
Zn524 O536 2.114 1_455 S
Zn524 O539 2.080 . S
C525 O530 1.166 . S
C525 O531 1.182 . S
C526 O532 1.167 . S
C526 O533 1.299 . S
O527 Zn524 2.080 . S
O527 C541 1.305 . S
O528 Zn522 1.920 . S
O528 C541 1.234 . S
C529 O534 1.167 . S
C529 O535 1.299 . S
O530 Zn524 2.114 1_655 S
O530 C525 1.166 . S
O531 Zn523 1.905 . S
O531 C525 1.182 . S
O532 Zn523 1.898 . S
O532 C526 1.167 . S
O533 Zn524 2.120 1_655 S
O533 C526 1.299 . S
O534 Zn522 1.898 . S
O534 C529 1.167 . S
O535 Zn524 2.120 . S
O535 C529 1.299 . S
O536 Zn524 2.114 1_655 S
O536 C538 1.166 . S
O537 Zn522 1.905 1_655 S
O537 C538 1.182 . S
C538 O536 1.166 . S
C538 O537 1.182 . S
O539 Zn524 2.080 . S
O539 C542 1.305 . S
O540 Zn523 1.920 1_455 S
O540 C542 1.234 . S
C541 O527 1.305 . S
C541 O528 1.234 . S
C542 O539 1.305 . S
C542 O540 1.234 . S
Zn543 O549 1.920 . S
Zn543 O555 1.898 . S
Zn543 O558 1.905 . S
Zn544 O552 1.905 . S
Zn544 O553 1.898 . S
Zn544 O561 1.920 . S
Zn545 O548 2.080 . S
Zn545 O551 2.114 . S
Zn545 O554 2.120 . S
Zn545 O556 2.120 . S
Zn545 O557 2.114 . S
Zn545 O560 2.080 . S
C546 O551 1.166 . S
C546 O552 1.182 . S
C547 O553 1.167 . S
C547 O554 1.299 . S
O548 Zn545 2.080 . S
O548 C562 1.305 . S
O549 Zn543 1.920 . S
O549 C562 1.234 . S
C550 O555 1.167 . S
C550 O556 1.299 . S
O551 Zn545 2.114 . S
O551 C546 1.166 . S
O552 Zn544 1.905 . S
O552 C546 1.182 . S
O553 Zn544 1.898 . S
O553 C547 1.167 . S
O554 Zn545 2.120 . S
O554 C547 1.299 . S
O555 Zn543 1.898 . S
O555 C550 1.167 . S
O556 Zn545 2.120 . S
O556 C550 1.299 . S
O557 Zn545 2.114 . S
O557 C559 1.166 . S
O558 Zn543 1.905 . S
O558 C559 1.182 . S
C559 O557 1.166 . S
C559 O558 1.182 . S
O560 Zn545 2.080 . S
O560 C563 1.305 . S
O561 Zn544 1.920 . S
O561 C563 1.234 . S
C562 O548 1.305 . S
C562 O549 1.234 . S
C563 O560 1.305 . S
C563 O561 1.234 . S
H564 C570 0.930 . S
H565 C573 0.930 . S
H566 C574 0.930 . S
H567 C575 0.930 . S
H568 C578 0.930 . S
H569 C579 0.930 . S
C570 H564 0.930 . S
C570 C571 1.355 . S
C570 C572 1.415 1_565 S
C571 C570 1.355 . S
C571 C573 1.419 . S
C572 C570 1.415 1_545 S
C572 C577 1.425 . S
C572 C579 1.409 . S
C573 H565 0.930 . S
C573 C571 1.419 . S
C573 C574 1.362 . S
C574 H566 0.930 . S
C574 C573 1.362 . S
C574 C577 1.409 1_565 S
C575 H567 0.930 . S
C575 C576 1.355 . S
C575 C577 1.415 . S
C576 C575 1.355 . S
C576 C578 1.419 . S
C577 C572 1.425 . S
C577 C574 1.409 1_545 S
C577 C575 1.415 . S
C578 H568 0.930 . S
C578 C576 1.419 . S
C578 C579 1.362 . S
C579 H569 0.930 . S
C579 C572 1.409 . S
C579 C578 1.362 . S
H580 C586 0.930 . S
H581 C589 0.930 . S
H582 C590 0.930 . S
H583 C591 0.930 . S
H584 C594 0.930 . S
H585 C595 0.930 . S
C586 H580 0.930 . S
C586 C587 1.355 . S
C586 C588 1.415 . S
C587 C586 1.355 . S
C587 C589 1.419 . S
C588 C586 1.415 . S
C588 C593 1.425 . S
C588 C595 1.409 . S
C589 H581 0.930 . S
C589 C587 1.419 . S
C589 C590 1.362 . S
C590 H582 0.930 . S
C590 C589 1.362 . S
C590 C593 1.409 . S
C591 H583 0.930 . S
C591 C592 1.355 . S
C591 C593 1.415 . S
C592 C591 1.355 . S
C592 C594 1.419 . S
C593 C588 1.425 . S
C593 C590 1.409 . S
C593 C591 1.415 . S
C594 H584 0.930 . S
C594 C592 1.419 . S
C594 C595 1.362 . S
C595 H585 0.930 . S
C595 C588 1.409 . S
C595 C594 1.362 . S
H596 C602 0.930 . S
H597 C605 0.930 . S
H598 C606 0.930 . S
H599 C607 0.930 . S
H600 C610 0.930 . S
H601 C611 0.930 . S
C602 H596 0.930 . S
C602 C603 1.355 . S
C602 C604 1.415 . S
C603 C602 1.355 . S
C603 C605 1.419 . S
C604 C602 1.415 . S
C604 C609 1.425 . S
C604 C611 1.409 . S
C605 H597 0.930 . S
C605 C603 1.419 . S
C605 C606 1.362 . S
C606 H598 0.930 . S
C606 C605 1.362 . S
C606 C609 1.409 . S
C607 H599 0.930 . S
C607 C608 1.355 . S
C607 C609 1.415 . S
C608 C607 1.355 . S
C608 C610 1.419 . S
C609 C604 1.425 . S
C609 C606 1.409 . S
C609 C607 1.415 . S
C610 H600 0.930 . S
C610 C608 1.419 . S
C610 C611 1.362 . S
C611 H601 0.930 . S
C611 C604 1.409 . S
C611 C610 1.362 . S
H612 C618 0.930 . S
H613 C621 0.930 . S
H614 C622 0.930 . S
H615 C623 0.930 . S
H616 C626 0.930 . S
H617 C627 0.930 . S
C618 H612 0.930 . S
C618 C619 1.355 . S
C618 C620 1.415 1_565 S
C619 C618 1.355 . S
C619 C621 1.419 . S
C620 C618 1.415 1_545 S
C620 C625 1.425 . S
C620 C627 1.409 . S
C621 H613 0.930 . S
C621 C619 1.419 . S
C621 C622 1.362 . S
C622 H614 0.930 . S
C622 C621 1.362 . S
C622 C625 1.409 1_565 S
C623 H615 0.930 . S
C623 C624 1.355 . S
C623 C625 1.415 . S
C624 C623 1.355 . S
C624 C626 1.419 . S
C625 C620 1.425 . S
C625 C622 1.409 1_545 S
C625 C623 1.415 . S
C626 H616 0.930 . S
C626 C624 1.419 . S
C626 C627 1.362 . S
C627 H617 0.930 . S
C627 C620 1.409 . S
C627 C626 1.362 . S
H628 C634 0.930 . S
H629 C637 0.930 . S
H630 C638 0.930 . S
H631 C639 0.930 . S
H632 C642 0.930 . S
H633 C643 0.930 . S
C634 H628 0.930 . S
C634 C635 1.355 . S
C634 C636 1.415 1_545 S
C635 C634 1.355 . S
C635 C637 1.419 . S
C636 C634 1.415 1_565 S
C636 C641 1.425 . S
C636 C643 1.409 . S
C637 H629 0.930 . S
C637 C635 1.419 . S
C637 C638 1.362 . S
C638 H630 0.930 . S
C638 C637 1.362 . S
C638 C641 1.409 1_545 S
C639 H631 0.930 . S
C639 C640 1.355 . S
C639 C641 1.415 . S
C640 C639 1.355 . S
C640 C642 1.419 . S
C641 C636 1.425 . S
C641 C638 1.409 1_565 S
C641 C639 1.415 . S
C642 H632 0.930 . S
C642 C640 1.419 . S
C642 C643 1.362 . S
C643 H633 0.930 . S
C643 C636 1.409 . S
C643 C642 1.362 . S
H644 C650 0.930 . S
H645 C653 0.930 . S
H646 C654 0.930 . S
H647 C655 0.930 . S
H648 C658 0.930 . S
H649 C659 0.930 . S
C650 H644 0.930 . S
C650 C651 1.355 . S
C650 C652 1.415 . S
C651 C650 1.355 . S
C651 C653 1.419 . S
C652 C650 1.415 . S
C652 C657 1.425 . S
C652 C659 1.409 . S
C653 H645 0.930 . S
C653 C651 1.419 . S
C653 C654 1.362 . S
C654 H646 0.930 . S
C654 C653 1.362 . S
C654 C657 1.409 . S
C655 H647 0.930 . S
C655 C656 1.355 . S
C655 C657 1.415 . S
C656 C655 1.355 . S
C656 C658 1.419 . S
C657 C652 1.425 . S
C657 C654 1.409 . S
C657 C655 1.415 . S
C658 H648 0.930 . S
C658 C656 1.419 . S
C658 C659 1.362 . S
C659 H649 0.930 . S
C659 C652 1.409 . S
C659 C658 1.362 . S
H660 C666 0.930 . S
H661 C669 0.930 . S
H662 C670 0.930 . S
H663 C671 0.930 . S
H664 C674 0.930 . S
H665 C675 0.930 . S
C666 H660 0.930 . S
C666 C667 1.355 . S
C666 C668 1.415 . S
C667 C666 1.355 . S
C667 C669 1.419 . S
C668 C666 1.415 . S
C668 C673 1.425 . S
C668 C675 1.409 . S
C669 H661 0.930 . S
C669 C667 1.419 . S
C669 C670 1.362 . S
C670 H662 0.930 . S
C670 C669 1.362 . S
C670 C673 1.409 . S
C671 H663 0.930 . S
C671 C672 1.355 . S
C671 C673 1.415 . S
C672 C671 1.355 . S
C672 C674 1.419 . S
C673 C668 1.425 . S
C673 C670 1.409 . S
C673 C671 1.415 . S
C674 H664 0.930 . S
C674 C672 1.419 . S
C674 C675 1.362 . S
C675 H665 0.930 . S
C675 C668 1.409 . S
C675 C674 1.362 . S
H676 C682 0.930 . S
H677 C685 0.930 . S
H678 C686 0.930 . S
H679 C687 0.930 . S
H680 C690 0.930 . S
H681 C691 0.930 . S
C682 H676 0.930 . S
C682 C683 1.355 . S
C682 C684 1.415 1_545 S
C683 C682 1.355 . S
C683 C685 1.419 . S
C684 C682 1.415 1_565 S
C684 C689 1.425 . S
C684 C691 1.409 . S
C685 H677 0.930 . S
C685 C683 1.419 . S
C685 C686 1.362 1_545 S
C686 H678 0.930 . S
C686 C685 1.362 1_565 S
C686 C689 1.409 . S
C687 H679 0.930 . S
C687 C688 1.355 . S
C687 C689 1.415 . S
C688 C687 1.355 . S
C688 C690 1.419 . S
C689 C684 1.425 . S
C689 C686 1.409 . S
C689 C687 1.415 . S
C690 H680 0.930 . S
C690 C688 1.419 . S
C690 C691 1.362 . S
C691 H681 0.930 . S
C691 C684 1.409 . S
C691 C690 1.362 . S
H692 C698 0.930 . S
H693 C701 0.930 . S
H694 C702 0.930 . S
H695 C703 0.930 . S
H696 C706 0.930 . S
H697 C707 0.930 . S
C698 H692 0.930 . S
C698 C699 1.355 . S
C698 C700 1.415 . S
C699 C698 1.355 . S
C699 C701 1.419 . S
C700 C698 1.415 . S
C700 C705 1.425 . S
C700 C707 1.409 . S
C701 H693 0.930 . S
C701 C699 1.419 . S
C701 C702 1.362 . S
C702 H694 0.930 . S
C702 C701 1.362 . S
C702 C705 1.409 . S
C703 H695 0.930 . S
C703 C704 1.355 . S
C703 C705 1.415 . S
C704 C703 1.355 . S
C704 C706 1.419 . S
C705 C700 1.425 . S
C705 C702 1.409 . S
C705 C703 1.415 . S
C706 H696 0.930 . S
C706 C704 1.419 . S
C706 C707 1.362 . S
C707 H697 0.930 . S
C707 C700 1.409 . S
C707 C706 1.362 . S
H708 C714 0.930 . S
H709 C717 0.930 . S
H710 C718 0.930 . S
H711 C719 0.930 . S
H712 C722 0.930 . S
H713 C723 0.930 . S
C714 H708 0.930 . S
C714 C715 1.355 . S
C714 C716 1.415 . S
C715 C714 1.355 . S
C715 C717 1.419 . S
C716 C714 1.415 . S
C716 C721 1.425 . S
C716 C723 1.409 . S
C717 H709 0.930 . S
C717 C715 1.419 . S
C717 C718 1.362 . S
C718 H710 0.930 . S
C718 C717 1.362 . S
C718 C721 1.409 . S
C719 H711 0.930 . S
C719 C720 1.355 . S
C719 C721 1.415 . S
C720 C719 1.355 . S
C720 C722 1.419 . S
C721 C716 1.425 . S
C721 C718 1.409 . S
C721 C719 1.415 . S
C722 H712 0.930 . S
C722 C720 1.419 . S
C722 C723 1.362 . S
C723 H713 0.930 . S
C723 C716 1.409 . S
C723 C722 1.362 . S
H724 C730 0.930 . S
H725 C733 0.930 . S
H726 C734 0.930 . S
H727 C735 0.930 . S
H728 C738 0.930 . S
H729 C739 0.930 . S
C730 H724 0.930 . S
C730 C731 1.355 . S
C730 C732 1.415 . S
C731 C730 1.355 . S
C731 C733 1.419 . S
C732 C730 1.415 . S
C732 C737 1.425 . S
C732 C739 1.409 . S
C733 H725 0.930 . S
C733 C731 1.419 . S
C733 C734 1.362 . S
C734 H726 0.930 . S
C734 C733 1.362 . S
C734 C737 1.409 . S
C735 H727 0.930 . S
C735 C736 1.355 . S
C735 C737 1.415 . S
C736 C735 1.355 . S
C736 C738 1.419 . S
C737 C732 1.425 . S
C737 C734 1.409 . S
C737 C735 1.415 . S
C738 H728 0.930 . S
C738 C736 1.419 . S
C738 C739 1.362 . S
C739 H729 0.930 . S
C739 C732 1.409 . S
C739 C738 1.362 . S
H740 C746 0.930 . S
H741 C749 0.930 . S
H742 C750 0.930 . S
H743 C751 0.930 . S
H744 C754 0.930 . S
H745 C755 0.930 . S
C746 H740 0.930 . S
C746 C747 1.355 . S
C746 C748 1.415 . S
C747 C746 1.355 . S
C747 C749 1.419 . S
C748 C746 1.415 . S
C748 C753 1.425 . S
C748 C755 1.409 . S
C749 H741 0.930 . S
C749 C747 1.419 . S
C749 C750 1.362 . S
C750 H742 0.930 . S
C750 C749 1.362 . S
C750 C753 1.409 . S
C751 H743 0.930 . S
C751 C752 1.355 . S
C751 C753 1.415 . S
C752 C751 1.355 . S
C752 C754 1.419 . S
C753 C748 1.425 . S
C753 C750 1.409 . S
C753 C751 1.415 . S
C754 H744 0.930 . S
C754 C752 1.419 . S
C754 C755 1.362 . S
C755 H745 0.930 . S
C755 C748 1.409 . S
C755 C754 1.362 . S
H756 C762 0.930 . S
H757 C765 0.930 . S
H758 C766 0.930 . S
H759 C767 0.930 . S
H760 C770 0.930 . S
H761 C771 0.930 . S
C762 H756 0.930 . S
C762 C763 1.355 . S
C762 C764 1.415 . S
C763 C762 1.355 . S
C763 C765 1.419 . S
C764 C762 1.415 . S
C764 C769 1.425 . S
C764 C771 1.409 . S
C765 H757 0.930 . S
C765 C763 1.419 . S
C765 C766 1.362 . S
C766 H758 0.930 . S
C766 C765 1.362 . S
C766 C769 1.409 . S
C767 H759 0.930 . S
C767 C768 1.355 . S
C767 C769 1.415 . S
C768 C767 1.355 . S
C768 C770 1.419 . S
C769 C764 1.425 . S
C769 C766 1.409 . S
C769 C767 1.415 . S
C770 H760 0.930 . S
C770 C768 1.419 . S
C770 C771 1.362 . S
C771 H761 0.930 . S
C771 C764 1.409 . S
C771 C770 1.362 . S
H772 C778 0.930 . S
H773 C781 0.930 . S
H774 C782 0.930 . S
H775 C783 0.930 . S
H776 C786 0.930 . S
H777 C787 0.930 . S
C778 H772 0.930 . S
C778 C779 1.355 . S
C778 C780 1.415 . S
C779 C778 1.355 . S
C779 C781 1.419 . S
C780 C778 1.415 . S
C780 C785 1.425 . S
C780 C787 1.409 . S
C781 H773 0.930 . S
C781 C779 1.419 . S
C781 C782 1.362 . S
C782 H774 0.930 . S
C782 C781 1.362 . S
C782 C785 1.409 . S
C783 H775 0.930 . S
C783 C784 1.355 . S
C783 C785 1.415 . S
C784 C783 1.355 . S
C784 C786 1.419 . S
C785 C780 1.425 . S
C785 C782 1.409 . S
C785 C783 1.415 . S
C786 H776 0.930 . S
C786 C784 1.419 . S
C786 C787 1.362 . S
C787 H777 0.930 . S
C787 C780 1.409 . S
C787 C786 1.362 . S
H788 C794 0.930 . S
H789 C797 0.930 . S
H790 C798 0.930 . S
H791 C799 0.930 . S
H792 C802 0.930 . S
H793 C803 0.930 . S
C794 H788 0.930 . S
C794 C795 1.355 . S
C794 C796 1.415 . S
C795 C794 1.355 . S
C795 C797 1.419 . S
C796 C794 1.415 . S
C796 C801 1.425 . S
C796 C803 1.409 . S
C797 H789 0.930 . S
C797 C795 1.419 . S
C797 C798 1.362 . S
C798 H790 0.930 . S
C798 C797 1.362 . S
C798 C801 1.409 . S
C799 H791 0.930 . S
C799 C800 1.355 . S
C799 C801 1.415 . S
C800 C799 1.355 . S
C800 C802 1.419 . S
C801 C796 1.425 . S
C801 C798 1.409 . S
C801 C799 1.415 . S
C802 H792 0.930 . S
C802 C800 1.419 . S
C802 C803 1.362 . S
C803 H793 0.930 . S
C803 C796 1.409 . S
C803 C802 1.362 . S
H804 C810 0.930 . S
H805 C813 0.930 . S
H806 C814 0.930 . S
H807 C815 0.930 . S
H808 C818 0.930 . S
H809 C819 0.930 . S
C810 H804 0.930 . S
C810 C811 1.355 . S
C810 C812 1.415 . S
C811 C810 1.355 . S
C811 C813 1.419 . S
C812 C810 1.415 . S
C812 C817 1.425 . S
C812 C819 1.409 . S
C813 H805 0.930 . S
C813 C811 1.419 . S
C813 C814 1.362 . S
C814 H806 0.930 . S
C814 C813 1.362 . S
C814 C817 1.409 . S
C815 H807 0.930 . S
C815 C816 1.355 . S
C815 C817 1.415 . S
C816 C815 1.355 . S
C816 C818 1.419 . S
C817 C812 1.425 . S
C817 C814 1.409 . S
C817 C815 1.415 . S
C818 H808 0.930 . S
C818 C816 1.419 . S
C818 C819 1.362 . S
C819 H809 0.930 . S
C819 C812 1.409 . S
C819 C818 1.362 . S
H820 C826 0.930 . S
H821 C829 0.930 . S
H822 C830 0.930 . S
H823 C831 0.930 . S
H824 C834 0.930 . S
H825 C835 0.930 . S
C826 H820 0.930 . S
C826 C827 1.355 . S
C826 C828 1.415 . S
C827 C826 1.355 . S
C827 C829 1.419 . S
C828 C826 1.415 . S
C828 C833 1.425 . S
C828 C835 1.409 . S
C829 H821 0.930 . S
C829 C827 1.419 . S
C829 C830 1.362 . S
C830 H822 0.930 . S
C830 C829 1.362 . S
C830 C833 1.409 . S
C831 H823 0.930 . S
C831 C832 1.355 . S
C831 C833 1.415 . S
C832 C831 1.355 . S
C832 C834 1.419 . S
C833 C828 1.425 . S
C833 C830 1.409 . S
C833 C831 1.415 . S
C834 H824 0.930 . S
C834 C832 1.419 . S
C834 C835 1.362 . S
C835 H825 0.930 . S
C835 C828 1.409 . S
C835 C834 1.362 . S
H836 C842 0.930 . S
H837 C845 0.930 . S
H838 C846 0.930 . S
H839 C847 0.930 . S
H840 C850 0.930 . S
H841 C851 0.930 . S
C842 H836 0.930 . S
C842 C843 1.355 . S
C842 C844 1.415 . S
C843 C842 1.355 . S
C843 C845 1.419 . S
C844 C842 1.415 . S
C844 C849 1.425 . S
C844 C851 1.409 . S
C845 H837 0.930 . S
C845 C843 1.419 . S
C845 C846 1.362 . S
C846 H838 0.930 . S
C846 C845 1.362 . S
C846 C849 1.409 . S
C847 H839 0.930 . S
C847 C848 1.355 . S
C847 C849 1.415 . S
C848 C847 1.355 . S
C848 C850 1.419 . S
C849 C844 1.425 . S
C849 C846 1.409 . S
C849 C847 1.415 . S
C850 H840 0.930 . S
C850 C848 1.419 . S
C850 C851 1.362 . S
C851 H841 0.930 . S
C851 C844 1.409 . S
C851 C850 1.362 . S
H852 C858 0.930 . S
H853 C861 0.930 . S
H854 C862 0.930 . S
H855 C863 0.930 . S
H856 C866 0.930 . S
H857 C867 0.930 . S
C858 H852 0.930 . S
C858 C859 1.355 . S
C858 C860 1.415 . S
C859 C858 1.355 . S
C859 C861 1.419 . S
C860 C858 1.415 . S
C860 C865 1.425 . S
C860 C867 1.409 . S
C861 H853 0.930 . S
C861 C859 1.419 . S
C861 C862 1.362 . S
C862 H854 0.930 . S
C862 C861 1.362 . S
C862 C865 1.409 . S
C863 H855 0.930 . S
C863 C864 1.355 . S
C863 C865 1.415 . S
C864 C863 1.355 . S
C864 C866 1.419 . S
C865 C860 1.425 . S
C865 C862 1.409 . S
C865 C863 1.415 . S
C866 H856 0.930 . S
C866 C864 1.419 . S
C866 C867 1.362 . S
C867 H857 0.930 . S
C867 C860 1.409 . S
C867 C866 1.362 . S
H868 C874 0.930 . S
H869 C877 0.930 . S
H870 C878 0.930 . S
H871 C879 0.930 . S
H872 C882 0.930 . S
H873 C883 0.930 . S
C874 H868 0.930 . S
C874 C875 1.355 . S
C874 C876 1.415 . S
C875 C874 1.355 . S
C875 C877 1.419 . S
C876 C874 1.415 . S
C876 C881 1.425 . S
C876 C883 1.409 . S
C877 H869 0.930 . S
C877 C875 1.419 . S
C877 C878 1.362 . S
C878 H870 0.930 . S
C878 C877 1.362 . S
C878 C881 1.409 . S
C879 H871 0.930 . S
C879 C880 1.355 . S
C879 C881 1.415 . S
C880 C879 1.355 . S
C880 C882 1.419 . S
C881 C876 1.425 . S
C881 C878 1.409 . S
C881 C879 1.415 . S
C882 H872 0.930 . S
C882 C880 1.419 . S
C882 C883 1.362 . S
C883 H873 0.930 . S
C883 C876 1.409 . S
C883 C882 1.362 . S
H884 C890 0.930 . S
H885 C893 0.930 . S
H886 C894 0.930 . S
H887 C895 0.930 . S
H888 C898 0.930 . S
H889 C899 0.930 . S
C890 H884 0.930 . S
C890 C891 1.355 . S
C890 C892 1.415 . S
C891 C890 1.355 . S
C891 C893 1.419 . S
C892 C890 1.415 . S
C892 C897 1.425 . S
C892 C899 1.409 . S
C893 H885 0.930 . S
C893 C891 1.419 . S
C893 C894 1.362 . S
C894 H886 0.930 . S
C894 C893 1.362 . S
C894 C897 1.409 . S
C895 H887 0.930 . S
C895 C896 1.355 . S
C895 C897 1.415 . S
C896 C895 1.355 . S
C896 C898 1.419 . S
C897 C892 1.425 . S
C897 C894 1.409 . S
C897 C895 1.415 . S
C898 H888 0.930 . S
C898 C896 1.419 . S
C898 C899 1.362 . S
C899 H889 0.930 . S
C899 C892 1.409 . S
C899 C898 1.362 . S
H900 C906 0.930 . S
H901 C909 0.930 . S
H902 C910 0.930 . S
H903 C911 0.930 . S
H904 C914 0.930 . S
H905 C915 0.930 . S
C906 H900 0.930 . S
C906 C907 1.355 . S
C906 C908 1.415 . S
C907 C906 1.355 . S
C907 C909 1.419 . S
C908 C906 1.415 . S
C908 C913 1.425 . S
C908 C915 1.409 . S
C909 H901 0.930 . S
C909 C907 1.419 . S
C909 C910 1.362 . S
C910 H902 0.930 . S
C910 C909 1.362 . S
C910 C913 1.409 . S
C911 H903 0.930 . S
C911 C912 1.355 . S
C911 C913 1.415 . S
C912 C911 1.355 . S
C912 C914 1.419 . S
C913 C908 1.425 . S
C913 C910 1.409 . S
C913 C911 1.415 . S
C914 H904 0.930 . S
C914 C912 1.419 . S
C914 C915 1.362 . S
C915 H905 0.930 . S
C915 C908 1.409 . S
C915 C914 1.362 . S
H916 C922 0.930 . S
H917 C925 0.930 . S
H918 C926 0.930 . S
H919 C927 0.930 . S
H920 C930 0.930 . S
H921 C931 0.930 . S
C922 H916 0.930 . S
C922 C923 1.355 . S
C922 C924 1.415 . S
C923 C922 1.355 . S
C923 C925 1.419 . S
C924 C922 1.415 . S
C924 C929 1.425 . S
C924 C931 1.409 . S
C925 H917 0.930 . S
C925 C923 1.419 . S
C925 C926 1.362 . S
C926 H918 0.930 . S
C926 C925 1.362 . S
C926 C929 1.409 . S
C927 H919 0.930 . S
C927 C928 1.355 . S
C927 C929 1.415 . S
C928 C927 1.355 . S
C928 C930 1.419 . S
C929 C924 1.425 . S
C929 C926 1.409 . S
C929 C927 1.415 . S
C930 H920 0.930 . S
C930 C928 1.419 . S
C930 C931 1.362 . S
C931 H921 0.930 . S
C931 C924 1.409 . S
C931 C930 1.362 . S
H932 C938 0.930 . S
H933 C941 0.930 . S
H934 C942 0.930 . S
H935 C943 0.930 . S
H936 C946 0.930 . S
H937 C947 0.930 . S
C938 H932 0.930 . S
C938 C939 1.355 . S
C938 C940 1.415 . S
C939 C938 1.355 . S
C939 C941 1.419 . S
C940 C938 1.415 . S
C940 C945 1.425 . S
C940 C947 1.409 . S
C941 H933 0.930 . S
C941 C939 1.419 . S
C941 C942 1.362 . S
C942 H934 0.930 . S
C942 C941 1.362 . S
C942 C945 1.409 . S
C943 H935 0.930 . S
C943 C944 1.355 . S
C943 C945 1.415 . S
C944 C943 1.355 . S
C944 C946 1.419 . S
C945 C940 1.425 . S
C945 C942 1.409 . S
C945 C943 1.415 . S
C946 H936 0.930 . S
C946 C944 1.419 . S
C946 C947 1.362 . S
C947 H937 0.930 . S
C947 C940 1.409 . S
C947 C946 1.362 . S
C571 C361 1.396 . S
C576 C496 1.374 . S
C592 C504 1.374 . S
C587 C451 1.476 . S
C608 C508 1.356 . S
C603 C241 1.412 . S
C619 C331 1.460 . S
C624 C484 1.370 . S
C640 C525 1.378 . S
C635 C140 1.477 . S
C656 C559 1.453 . S
C651 C211 1.472 . S
C667 C20 1.466 . S
C672 C547 1.393 . S
C683 C91 1.466 . S
C688 C529 1.390 . S
C704 C483 1.347 . S
C699 C80 1.417 . S
C720 C517 1.307 . S
C715 C1 1.440 . S
C736 C521 1.294 . S
C731 C200 1.415 . S
C752 C499 1.378 . S
C747 C121 1.383 . S
C768 C538 1.368 . S
C763 C320 1.364 . S
C779 C260 1.476 . S
C784 C546 1.365 . S
C800 C562 1.270 . S
C795 C440 1.392 . S
C811 C380 1.477 . S
C816 C542 1.269 . S
C832 C487 1.321 . S
C827 C31 1.482 . S
C848 C505 1.246 . S
C843 C61 1.509 . S
C859 C151 1.459 . S
C864 C520 1.370 . S
C880 C500 1.262 . S
C875 C181 1.492 . S
C896 C526 1.303 . S
C891 C271 1.474 . S
C907 C301 1.501 . S
C912 C550 1.259 . S
C923 C391 1.479 . S
C928 C563 1.348 . S
C939 C421 1.436 . S
C944 C541 1.340 . S
