# Generated by pormake.
# Topology ftw, (4,12)-cn, num edge types: 1
# Building blocks:
#     Node 0, Type 0, BuildingBlock: MUDLON_clean_linker_0, # of connection points: 4
#     Node 1, Type 0, BuildingBlock: MUDLON_clean_linker_0, # of connection points: 4
#     Node 2, Type 0, BuildingBlock: MUDLON_clean_linker_0, # of connection points: 4
#     Node 3, Type 1, BuildingBlock: QEWDON_clean_sbu_0, # of connection points: 12
#     Edge 4, Type (0, 1), BuildingBlock: XIVTED_clean_linker_0, # of connection points: 2
#     Edge 5, Type (0, 1), BuildingBlock: XIVTED_clean_linker_0, # of connection points: 2
#     Edge 6, Type (0, 1), BuildingBlock: XIVTED_clean_linker_0, # of connection points: 2
#     Edge 7, Type (0, 1), BuildingBlock: XIVTED_clean_linker_0, # of connection points: 2
#     Edge 8, Type (0, 1), BuildingBlock: XIVTED_clean_linker_0, # of connection points: 2
#     Edge 9, Type (0, 1), BuildingBlock: XIVTED_clean_linker_0, # of connection points: 2
#     Edge 10, Type (0, 1), BuildingBlock: XIVTED_clean_linker_0, # of connection points: 2
#     Edge 11, Type (0, 1), BuildingBlock: XIVTED_clean_linker_0, # of connection points: 2
#     Edge 12, Type (0, 1), BuildingBlock: XIVTED_clean_linker_0, # of connection points: 2
#     Edge 13, Type (0, 1), BuildingBlock: XIVTED_clean_linker_0, # of connection points: 2
#     Edge 14, Type (0, 1), BuildingBlock: XIVTED_clean_linker_0, # of connection points: 2
#     Edge 15, Type (0, 1), BuildingBlock: XIVTED_clean_linker_0, # of connection points: 2
# Relax obj value: 0.099
# Max RMSD: 0.251
# Mean RMSD: 0.184
data_MOF--net-ftw--node1-QEWDON_clean_sbu_0--node2-MUDLON_clean_linker_0--edge1-XIVTED_clean_linker_0
_symmetry_space_group_name_H-M    P1
_symmetry_Int_Tables_number       1
_symmetry_cell_setting            triclinic
loop_
_symmetry_equiv_pos_as_xyz
'x, y, z'
_cell_length_a     29.703818
_cell_length_b     33.744487
_cell_length_c     31.68906
_cell_angle_alpha  89.97208
_cell_angle_beta   89.775639
_cell_angle_gamma 90.661639
loop_
_atom_site_label
_atom_site_type_symbol
_atom_site_fract_x
_atom_site_fract_y
_atom_site_fract_z
_atom_type_partial_charge
H0 H 0.93651 0.7008 0.54464 0.0
N1 N -0.00526 0.64443 0.51914 0.0
H2 H 0.93796 0.73741 0.61116 0.0
H3 H 0.04927 0.63167 0.58527 0.0
H4 H 0.04964 0.66658 0.65309 0.0
H5 H 0.05623 0.69972 0.49735 0.0
H6 H 0.05621 0.74255 0.43487 0.0
H7 H 0.93229 0.64471 0.45693 0.0
H8 H 0.93199 0.68714 0.39396 0.0
H9 H 0.9337 0.59702 0.55914 0.0
H10 H 0.0446 0.59548 0.47181 0.0
H11 H 0.93018 0.52573 0.55897 0.0
H12 H 0.0404 0.52435 0.46825 0.0
H13 H 0.9388 0.28032 0.54738 0.0
H14 H 0.94743 0.24337 0.61329 0.0
H15 H 0.05286 0.32467 0.65163 0.0
H16 H 0.0448 0.36095 0.58476 0.0
H17 H 0.05606 0.29417 0.50447 0.0
H18 H 0.06403 0.25066 0.44287 0.0
H19 H 0.94416 0.30144 0.38917 0.0
H20 H 0.93525 0.3427 0.45173 0.0
H21 H 0.9275 0.39245 0.55816 0.0
H22 H 0.92547 0.46366 0.55499 0.0
H23 H 0.04579 0.46286 0.47635 0.0
N24 N -0.01408 0.34362 0.52109 0.0
H25 H 0.04602 0.39169 0.48014 0.0
C26 C -0.00705 0.66363 0.55991 0.0
C27 C 0.96115 0.6931 0.56827 0.0
C28 C 0.96191 0.71385 0.60655 0.0
C29 C -0.006 0.70516 0.63779 0.0
C30 C 0.02499 0.67474 0.62966 0.0
C31 C 0.0246 0.65443 0.59106 0.0
C32 C -0.00546 0.6688 0.48157 0.0
C33 C 0.0291 0.69683 0.47479 0.0
C34 C 0.0288 0.72148 0.4392 0.0
C35 C -0.00586 0.71835 0.40914 0.0
C36 C 0.95951 0.69011 0.41608 0.0
C37 C 0.95952 0.66585 0.45208 0.0
C38 C -0.01011 0.60174 0.51601 0.0
C39 C 0.95716 0.581 0.53944 0.0
C40 C 0.95531 0.53938 0.53895 0.0
C41 C -0.01433 0.5168 0.51423 0.0
C42 C 0.01692 0.53859 0.48913 0.0
C43 C 0.01932 0.5801 0.49054 0.0
C44 C -0.00905 0.32344 0.56111 0.0
C45 C 0.96375 0.29018 0.57002 0.0
C46 C 0.96888 0.26901 0.60762 0.0
C47 C 0.00091 0.28098 0.63775 0.0
C48 C 0.02771 0.3148 0.6292 0.0
C49 C 0.02318 0.33554 0.59099 0.0
C50 C -0.00538 0.3214 0.48289 0.0
C51 C 0.03168 0.29594 0.47925 0.0
C52 C 0.0363 0.27118 0.44385 0.0
C53 C 0.00431 0.27183 0.41111 0.0
C54 C 0.96874 0.29901 0.41414 0.0
C55 C 0.96378 0.3231 0.44969 0.0
C56 C -0.01311 0.38657 0.51964 0.0
C57 C 0.95339 0.40804 0.54038 0.0
C58 C 0.95261 0.44956 0.53837 0.0
C59 C -0.01441 0.47148 0.51542 0.0
C60 C 0.01915 0.44908 0.49446 0.0
C61 C 0.01982 0.40752 0.49669 0.0
H62 H 0.46655 0.92561 0.30228 0.0
N63 N 0.50601 0.96583 0.36398 0.0
H64 H 0.3909 0.9349 0.27351 0.0
H65 H 0.4466 0.024 0.38682 0.0
H66 H 0.37023 0.03298 0.35827 0.0
H67 H 0.51814 0.02692 0.30693 0.0
H68 H 0.58563 0.03985 0.26409 0.0
H69 H 0.58416 0.92879 0.36666 0.0
H70 H 0.65245 0.94338 0.32735 0.0
H71 H 0.48237 0.90797 0.41702 0.0
H72 H 0.5388 0.02583 0.41229 0.0
H73 H 0.48998 0.9071 0.49349 0.0
H74 H 0.54415 0.027 0.48864 0.0
H75 H 0.47751 0.94119 0.74115 0.0
H76 H 0.40185 0.93824 0.77146 0.0
H77 H 0.35813 0.02586 0.68119 0.0
H78 H 0.43481 0.03067 0.65347 0.0
H79 H 0.52477 0.03709 0.74428 0.0
H80 H 0.59263 0.03866 0.78715 0.0
H81 H 0.64592 0.9415 0.7137 0.0
H82 H 0.57598 0.93751 0.67476 0.0
H83 H 0.46226 0.93354 0.63222 0.0
H84 H 0.46501 0.92525 0.55636 0.0
H85 H 0.57457 0.01106 0.54964 0.0
N86 N 0.50695 0.99043 0.67803 0.0
H87 H 0.56678 0.02289 0.62481 0.0
C88 C 0.46215 0.97379 0.34668 0.0
C89 C 0.44575 0.94906 0.31469 0.0
C90 C 0.40258 0.95415 0.29865 0.0
C91 C 0.3748 0.98402 0.31441 0.0
C92 C 0.39105 0.00939 0.34614 0.0
C93 C 0.43464 0.00438 0.36218 0.0
C94 C 0.5458 0.97629 0.33968 0.0
C95 C 0.54723 0.00832 0.31112 0.0
C96 C 0.58616 0.01594 0.28685 0.0
C97 C 0.62471 0.99225 0.29133 0.0
C98 C 0.6233 0.96145 0.32138 0.0
C99 C 0.58431 0.95327 0.34453 0.0
C100 C 0.51007 0.96683 0.40924 0.0
C101 C 0.49625 0.93378 0.43284 0.0
C102 C 0.50034 0.93362 0.47677 0.0
C103 C 0.51771 0.96702 0.49831 0.0
C104 C 0.53158 0.00017 0.47401 0.0
C105 C 0.52797 -1e-05 0.43007 0.0
C106 C 0.46204 0.9868 0.69556 0.0
C107 C 0.4517 0.95997 0.72817 0.0
C108 C 0.40807 0.95795 0.74507 0.0
C109 C 0.37348 0.9819 0.72898 0.0
C110 C 0.38381 0.00763 0.69523 0.0
C111 C 0.42762 0.0103 0.67912 0.0
C112 C 0.54525 0.98758 0.70599 0.0
C113 C 0.5508 0.01558 0.73825 0.0
C114 C 0.59024 0.01684 0.76225 0.0
C115 C 0.626 0.99085 0.75369 0.0
C116 C 0.61953 0.96187 0.72209 0.0
C117 C 0.57937 0.95973 0.69921 0.0
C118 C 0.5132 0.98003 0.6341 0.0
C119 C 0.48651 0.9509 0.61427 0.0
C120 C 0.48872 0.94577 0.5705 0.0
C121 C 0.51909 0.96844 0.54566 0.0
C122 C 0.54888 -0.00544 0.56662 0.0
C123 C 0.54512 0.00097 0.60999 0.0
H124 H 0.4585 0.28757 0.103 0.0
N125 N 0.50346 0.34601 0.06629 0.0
H126 H 0.38444 0.26069 0.08365 0.0
H127 H 0.45234 0.36943 0.99847 0.0
H128 H 0.3779 0.34289 0.97958 0.0
H129 H 0.51353 0.3038 0.99213 0.0
H130 H 0.57732 0.26218 0.97408 0.0
H131 H 0.58101 0.3412 0.10613 0.0
H132 H 0.64613 0.3016 0.08664 0.0
H133 H 0.47768 0.39712 0.1246 0.0
H134 H 0.54035 0.38941 1.00225 0.0
H135 H 0.48718 0.46829 0.124 0.0
H136 H 0.54712 0.45989 0.99876 0.0
H137 H 0.47983 0.69489 0.08328 0.0
H138 H 0.40538 0.72368 0.0868 0.0
H139 H 0.35667 0.63774 0.99604 0.0
H140 H 0.43263 0.61088 0.99034 0.0
H141 H 0.52087 0.70047 0.98 0.0
H142 H 0.58545 0.74581 0.9814 0.0
H143 H 0.64052 0.67983 0.08605 0.0
H144 H 0.57401 0.63759 0.08709 0.0
H145 H 0.47056 0.59849 0.0968 0.0
H146 H 0.47333 0.52839 0.10933 0.0
H147 H 0.57216 0.51805 1.00837 0.0
N148 N 0.50653 0.6372 0.02818 0.0
H149 H 0.56238 0.58707 0.99216 0.0
C150 C 0.46027 0.33102 0.05311 0.0
C151 C 0.44096 0.29989 0.07622 0.0
C152 C 0.39899 0.28469 0.06518 0.0
C153 C 0.37585 0.30041 0.03069 0.0
C154 C 0.39546 0.33074 1.00646 0.0
C155 C 0.43768 0.34598 0.01749 0.0
C156 C 0.54183 0.32418 0.05176 0.0
C157 C 0.54214 0.30345 1.01312 0.0
C158 C 0.57893 0.28022 1.00232 0.0
C159 C 0.61596 0.27825 0.02949 0.0
C160 C 0.61729 0.30196 0.06581 0.0
C161 C 0.58027 0.32435 0.07705 0.0
C162 C 0.50882 0.38823 0.06398 0.0
C163 C 0.49353 0.4112 0.09755 0.0
C164 C 0.49873 0.45225 0.09667 0.0
C165 C 0.51852 0.47141 0.06142 0.0
C166 C 0.53324 0.4476 0.02748 0.0
C167 C 0.52878 0.40666 0.02889 0.0
C168 C 0.46188 0.65173 0.03522 0.0
C169 C 0.45318 0.68214 0.06423 0.0
C170 C 0.41032 0.69804 0.06684 0.0
C171 C 0.3753 0.68287 0.04157 0.0
C172 C 0.38327 0.65027 1.01533 0.0
C173 C 0.42642 0.63507 1.01195 0.0
C174 C 0.54309 0.66524 0.03264 0.0
C175 C 0.54664 0.69644 1.00365 0.0
C176 C 0.58373 0.722 1.00428 0.0
C177 C 0.61862 0.71608 0.03332 0.0
C178 C 0.6141 0.68569 0.06354 0.0
C179 C 0.57624 0.661 0.06379 0.0
C180 C 0.51445 0.59733 0.04193 0.0
C181 C 0.49207 0.58069 0.0769 0.0
C182 C 0.49441 0.54009 0.08438 0.0
C183 C 0.52116 0.51566 0.05842 0.0
C184 C 0.5482 0.53414 0.02721 0.0
C185 C 0.54369 0.57415 0.01828 0.0
Zn186 Zn 0.06479 0.0545 0.98338 0.0
Zn187 Zn 0.07257 0.06124 0.08774 0.0
O188 O 0.05175 0.02515 0.03932 0.0
H189 H 0.0502 -0.00339 0.03911 0.0
C190 C 0.01067 0.11382 0.90107 0.0
O191 O 0.01827 0.07564 0.89838 0.0
Zn192 Zn 0.95158 0.9236 0.08389 0.0
Zn193 Zn 0.95876 0.93393 0.98081 0.0
O194 O 0.97194 0.96138 0.03711 0.0
H195 H 0.9734 0.9899 0.03841 0.0
Zn196 Zn 0.96332 0.08896 0.98059 0.0
O197 O -0.00903 0.07693 0.03852 0.0
Zn198 Zn 0.94144 0.06732 0.08115 0.0
H199 H -0.01884 0.08278 1.0102 0.0
Zn200 Zn 0.06056 0.90529 0.98028 0.0
O201 O 0.03205 0.90562 0.03994 0.0
H202 H 0.04183 0.90493 1.01086 0.0
Zn203 Zn 0.08177 0.91564 0.08295 0.0
C204 C 0.00687 0.86998 0.90362 0.0
O205 O 0.97339 0.89371 0.91188 0.0
O206 O 0.0985 0.10633 0.99354 0.0
O207 O 0.10914 0.10609 0.06307 0.0
O208 O 0.92331 0.88216 0.98907 0.0
O209 O 0.91511 0.87968 0.05879 0.0
O210 O 0.8954 0.09695 0.98725 0.0
O211 O 0.88487 0.08732 0.05622 0.0
C212 C 0.11625 0.99282 0.1234 0.0
O213 O 0.12778 0.8962 0.9873 0.0
O214 O 0.13825 0.8965 0.05696 0.0
O215 O 0.92716 0.96166 0.92995 0.0
C216 C 0.1155 0.12128 0.0267 0.0
O217 O 0.0958 0.03018 0.92979 0.0
C218 C 0.90648 0.9889 0.12406 0.0
O219 O -0.00842 0.12708 0.93414 0.0
C220 C 0.9071 0.86605 0.02211 0.0
O221 O 0.04127 0.87018 0.92749 0.0
C222 C -0.00498 0.10182 0.14917 0.0
O223 O 0.11443 0.03033 0.12332 0.0
O224 O 0.09005 0.97316 0.09922 0.0
C225 C 0.87017 0.09636 0.0198 0.0
O226 O 0.91078 0.95162 0.12266 0.0
O227 O 0.92976 0.01011 0.0984 0.0
C228 C 0.02748 0.8831 0.14629 0.0
O229 O 0.95622 0.09695 0.13308 0.0
O230 O 0.02996 0.08836 0.13065 0.0
C231 C 0.15257 0.89122 0.01942 0.0
O232 O 0.06868 0.88561 0.13608 0.0
O233 O -0.00166 0.89869 0.12226 0.0
C234 C 0.90544 -0.00617 0.92915 0.0
O235 O 0.90633 0.01701 0.96238 0.0
C236 C 0.109 -0.00467 0.92168 0.0
O237 O 0.10083 0.96694 0.94898 0.0
H238 H 0.07921 0.2429 0.36843 0.0
H239 H 0.92657 0.12891 0.19819 0.0
H240 H 0.93404 0.23504 0.37074 0.0
H241 H 0.07177 0.12647 0.1924 0.0
H242 H 0.93104 0.16715 0.26262 0.0
H243 H 0.0796 0.199 0.30643 0.0
C244 C 0.04746 0.23199 0.35615 0.0
C245 C 0.00643 0.24363 0.37461 0.0
C246 C 0.96212 0.15829 0.24756 0.0
C247 C 0.00676 0.19361 0.3034 0.0
C248 C 0.95958 0.13634 0.21047 0.0
C249 C -0.00117 0.12439 0.18946 0.0
C250 C 0.00426 0.16885 0.26436 0.0
C251 C 0.04057 0.13503 0.20743 0.0
C252 C 0.04776 0.20705 0.32059 0.0
C253 C 0.9665 0.22823 0.35713 0.0
N254 N 0.04222 0.15682 0.24379 0.0
N255 N 0.96775 0.20443 0.32266 0.0
H256 H 0.66072 0.06244 0.25793 0.0
H257 H 0.8917 0.96094 0.20223 0.0
H258 H 0.68388 0.93628 0.26278 0.0
H259 H 0.84351 0.04842 0.11502 0.0
H260 H 0.82286 0.96733 0.24334 0.0
H261 H 0.73235 0.07067 0.21913 0.0
C262 C 0.68044 0.03647 0.25093 0.0
C263 C 0.6663 -0.00139 0.26497 0.0
C264 C 0.82776 0.98598 0.21581 0.0
C265 C 0.74868 0.00836 0.22193 0.0
C266 C 0.86724 0.98269 0.1925 0.0
C267 C 0.87327 0.00415 0.15488 0.0
C268 C 0.79384 0.01126 0.20192 0.0
C269 C 0.8403 0.03176 0.14392 0.0
C270 C 0.7214 0.04137 0.229 0.0
C271 C 0.69371 0.96628 0.25463 0.0
N272 N 0.80142 0.03425 0.16706 0.0
N273 N 0.73359 0.972 0.23446 0.0
H274 H 0.97223 0.69767 0.32777 0.0
H275 H 0.04303 0.90726 0.2268 0.0
H276 H 0.01718 0.79757 0.40203 0.0
H277 H -0.01589 0.81173 0.15505 0.0
H278 H 0.03052 0.86898 0.29181 0.0
H279 H 0.97431 0.73949 0.26477 0.0
C280 C -0.01792 0.72851 0.33099 0.0
C281 C -0.00552 0.74397 0.37051 0.0
C282 C 0.02 0.85639 0.26196 0.0
C283 C -0.00265 0.79224 0.29796 0.0
C284 C 0.027 0.87831 0.22493 0.0
C285 C 0.01444 0.86255 0.18574 0.0
C286 C 0.00122 0.81799 0.25966 0.0
C287 C -0.00608 0.82495 0.18481 0.0
C288 C -0.01657 0.75239 0.29487 0.0
C289 C 0.00784 0.78409 0.37229 0.0
N290 N -0.01161 0.80376 0.22114 0.0
N291 N 0.00899 0.80672 0.33664 0.0
H292 H 0.35626 0.03345 0.25014 0.0
H293 H 0.10792 0.95785 0.20107 0.0
H294 H 0.29492 0.94565 0.33129 0.0
H295 H 0.20462 -0.00626 0.10658 0.0
H296 H 0.16874 0.9573 0.25397 0.0
H297 H 0.29071 0.02946 0.20373 0.0
C298 C 0.32825 0.01416 0.25869 0.0
C299 C 0.33071 0.98982 0.29426 0.0
C300 C 0.17669 0.96423 0.22139 0.0
C301 C 0.25643 0.98402 0.2409 0.0
C302 C 0.14228 0.96374 0.19111 0.0
C303 C 0.15163 0.97507 0.14929 0.0
C304 C 0.22009 0.97723 0.20964 0.0
C305 C 0.19627 0.98406 0.13829 0.0
C306 C 0.29124 0.01137 0.23197 0.0
C307 C 0.29392 0.96487 0.30394 0.0
N308 N 0.22861 0.98566 0.16835 0.0
N309 N 0.25814 0.96237 0.27719 0.0
H310 H 0.92318 0.73446 0.68429 0.0
H311 H 0.07777 0.83549 0.86241 0.0
H312 H 0.06834 0.72887 0.68393 0.0
H313 H 0.9335 0.84766 0.85668 0.0
H314 H 0.07517 0.7952 0.79816 0.0
H315 H 0.92649 0.77442 0.74834 0.0
C316 C 0.95583 0.74171 0.69745 0.0
C317 C -0.00446 0.72826 0.67817 0.0
C318 C 0.04404 0.80647 0.81107 0.0
C319 C -0.00052 0.77388 0.75247 0.0
C320 C 0.04548 0.82936 0.84788 0.0
C321 C 0.00573 0.84471 0.86524 0.0
C322 C 0.00249 0.79845 0.79155 0.0
C323 C 0.96498 0.8364 0.84453 0.0
C324 C 0.95765 0.76444 0.73431 0.0
C325 C 0.03672 0.73806 0.69765 0.0
N326 N 0.96441 0.81375 0.80898 0.0
N327 N 0.0376 0.76026 0.73356 0.0
H328 H 0.31481 0.04403 0.73907 0.0
H329 H 0.1568 0.92847 0.90163 0.0
H330 H 0.32659 0.9187 0.76394 0.0
H331 H 0.1311 0.04738 0.85833 0.0
H332 H 0.21508 0.92238 0.8473 0.0
H333 H 0.24368 0.044 0.77742 0.0
C334 C 0.30234 0.0163 0.752 0.0
C335 C 0.3276 0.98141 0.74869 0.0
C336 C 0.19626 0.94961 0.84931 0.0
C337 C 0.24605 0.98154 0.79394 0.0
C338 C 0.16288 0.95309 0.88034 0.0
C339 C 0.13941 0.98873 0.88507 0.0
C340 C 0.20648 0.98205 0.82294 0.0
C341 C 0.14876 0.01955 0.85635 0.0
C342 C 0.26163 0.01641 0.77424 0.0
C343 C 0.30931 0.94663 0.76669 0.0
N344 N 0.18187 0.01567 0.82694 0.0
N345 N 0.27007 0.9477 0.78895 0.0
H346 H 0.00932 0.30848 0.71928 0.0
H347 H 0.02747 0.09081 0.81987 0.0
H348 H 0.00507 0.20035 0.64686 0.0
H349 H 0.00616 0.19536 0.89535 0.0
H350 H 0.02781 0.13187 0.75651 0.0
H351 H 0.01592 0.26899 0.78411 0.0
C352 C 0.01014 0.27647 0.71697 0.0
C353 C 0.00647 0.25774 0.6775 0.0
C354 C 0.02341 0.14597 0.78691 0.0
C355 C 0.01416 0.21233 0.75159 0.0
C356 C 0.02349 0.12251 0.82326 0.0
C357 C 0.01655 0.13953 0.86317 0.0
C358 C 0.01688 0.18704 0.79019 0.0
C359 C 0.01136 0.18088 0.86529 0.0
C360 C 0.01368 0.25395 0.754 0.0
C361 C 0.00726 0.21611 0.67654 0.0
N362 N 0.01155 0.20318 0.82935 0.0
N363 N 0.01109 0.19493 0.71288 0.0
H364 H 0.66532 0.05769 0.78998 0.0
H365 H 0.88858 0.94644 0.86072 0.0
H366 H 0.68867 0.93267 0.7705 0.0
H367 H 0.84381 0.05374 0.92115 0.0
H368 H 0.82326 0.94857 0.81441 0.0
H369 H 0.73642 0.06239 0.82789 0.0
C370 C 0.68486 0.03107 0.79363 0.0
C371 C 0.66997 -0.00546 0.77677 0.0
C372 C 0.82794 0.97184 0.83757 0.0
C373 C 0.75307 0.00058 0.81885 0.0
C374 C 0.86543 0.97084 0.86391 0.0
C375 C 0.87136 -0.00041 0.89556 0.0
C376 C 0.79614 0.00193 0.84253 0.0
C377 C 0.84037 0.0307 0.89761 0.0
C378 C 0.72591 0.03407 0.81496 0.0
C379 C 0.69834 0.96172 0.78185 0.0
N380 N 0.80382 0.03086 0.87175 0.0
N381 N 0.73835 0.9656 0.8022 0.0
H382 H 0.3506 0.25633 0.96284 0.0
H383 H 0.13333 0.17876 0.08463 0.0
H384 H 0.30098 0.30775 0.07816 0.0
H385 H 0.1691 0.1393 0.9595 0.0
H386 H 0.19087 0.23073 0.07945 0.0
H387 H 0.28019 0.2181 0.9565 0.0
C388 C 0.32415 0.26032 0.98605 0.0
C389 C 0.33101 0.28476 0.0211 0.0
C390 C 0.18578 0.21107 0.05285 0.0
C391 C 0.25155 0.24123 1.01474 0.0
C392 C 0.15307 0.1814 0.05592 0.0
C393 C 0.14661 0.15499 0.02244 0.0
C394 C 0.21274 0.2137 1.01639 0.0
C395 C 0.17287 0.1595 0.98584 0.0
C396 C 0.28422 0.23846 0.98265 0.0
C397 C 0.29652 0.28887 0.05083 0.0
N398 N 0.20531 0.18803 0.98398 0.0
N399 N 0.25833 0.2669 0.04725 0.0
H400 H 0.32628 0.71689 0.10468 0.0
H401 H 0.17484 0.84447 0.9526 0.0
H402 H 0.32981 0.70056 0.96949 0.0
H403 H 0.22102 0.88315 0.07521 0.0
H404 H 0.22393 0.78727 0.95743 0.0
H405 H 0.27259 0.77025 0.09525 0.0
C406 C 0.31506 0.72406 0.07313 0.0
C407 C 0.33344 0.7053 0.03776 0.0
C408 C 0.22386 0.80877 0.98281 0.0
C409 C 0.27311 0.76618 0.02678 0.0
C410 C 0.19652 0.84177 0.97985 0.0
C411 C 0.1933 0.86799 1.01413 0.0
C412 C 0.24788 0.8025 0.0201 0.0
C413 C 0.222 0.86311 0.04855 0.0
C414 C 0.28487 0.75463 0.06774 0.0
C415 C 0.31683 0.7147 0.99759 0.0
N416 N 0.24759 0.83037 0.05105 0.0
N417 N 0.28796 0.74514 0.99305 0.0
H418 H 0.66146 0.25753 0.95709 0.0
H419 H 0.80793 0.10188 0.08268 0.0
H420 H 0.6457 0.2281 0.08898 0.0
H421 H 0.82845 0.12659 0.95007 0.0
H422 H 0.7402 0.14047 0.08142 0.0
H423 H 0.71682 0.2043 0.95031 0.0
C424 C 0.66967 0.23982 0.98446 0.0
C425 C 0.64985 0.24745 0.02379 0.0
C426 C 0.75903 0.13706 0.05233 0.0
C427 C 0.71171 0.18682 1.01627 0.0
C428 C 0.79772 0.11469 0.05299 0.0
C429 C 0.82443 0.11173 1.01664 0.0
C430 C 0.74718 0.15694 1.01519 0.0
C431 C 0.80919 0.12883 0.97903 0.0
C432 C 0.70094 0.2095 0.98059 0.0
C433 C 0.66113 0.22377 0.05834 0.0
N434 N 0.77181 0.15149 0.97942 0.0
N435 N 0.69144 0.19464 0.05377 0.0
H436 H 0.67258 0.74151 0.09813 0.0
H437 H 0.85144 0.85451 0.95489 0.0
H438 H 0.66115 0.7446 0.96216 0.0
H439 H 0.87947 0.81195 0.08052 0.0
H440 H 0.78001 0.81783 0.95612 0.0
H441 H 0.74606 0.77345 0.09232 0.0
C442 C 0.68545 0.74878 0.06703 0.0
C443 C 0.66082 0.73968 0.03057 0.0
C444 C 0.80229 0.81589 0.983 0.0
C445 C 0.7447 0.77686 0.02383 0.0
C446 C 0.84323 0.83642 0.98218 0.0
C447 C 0.87112 0.83632 0.01783 0.0
C448 C 0.78954 0.79531 0.01969 0.0
C449 C 0.85862 0.81302 0.05259 0.0
C450 C 0.72742 0.76708 0.06377 0.0
C451 C 0.67871 0.75118 0.99121 0.0
N452 N 0.81841 0.79376 0.05285 0.0
N453 N 0.7197 0.76919 0.98887 0.0
loop_
_geom_bond_atom_site_label_1
_geom_bond_atom_site_label_2
_geom_bond_distance
_geom_bond_site_symmetry_2
_ccdc_geom_bond_type
H0 C27 0.929 . S
N1 C26 1.433 . S
N1 C32 1.435 . S
N1 C38 1.423 . S
H2 C28 0.930 1_655 S
H3 C31 0.931 . S
H4 C30 0.929 . S
H5 C33 0.930 . S
H6 C34 0.932 . S
H7 C37 0.929 . S
H8 C36 0.931 . S
H9 C39 0.929 . S
H10 C43 0.932 . S
H11 C40 0.931 . S
H12 C42 0.929 . S
H13 C45 0.929 . S
H14 C46 0.930 1_655 S
H15 C48 0.929 . S
H16 C49 0.931 . S
H17 C51 0.930 . S
H18 C52 0.932 . S
H19 C54 0.931 . S
H20 C55 0.929 . S
H21 C57 0.929 . S
H22 C58 0.931 . S
H23 C60 0.929 . S
N24 C44 1.433 . S
N24 C50 1.435 . S
N24 C56 1.423 . S
H25 C61 0.932 . S
C26 N1 1.433 . S
C26 C27 1.363 1_455 S
C26 C31 1.370 . S
C27 H0 0.929 . S
C27 C26 1.363 1_655 S
C27 C28 1.385 1_655 S
C28 H2 0.930 1_455 S
C28 C27 1.385 1_455 S
C28 C29 1.357 . S
C29 C28 1.357 . S
C29 C30 1.406 . S
C30 H4 0.929 . S
C30 C29 1.406 . S
C30 C31 1.391 . S
C31 H3 0.931 . S
C31 C26 1.370 . S
C31 C30 1.391 . S
C32 N1 1.435 . S
C32 C33 1.358 . S
C32 C37 1.371 1_455 S
C33 H5 0.930 . S
C33 C32 1.358 . S
C33 C34 1.405 . S
C34 H6 0.932 . S
C34 C33 1.405 . S
C34 C35 1.383 . S
C35 C34 1.383 . S
C35 C36 1.393 1_455 S
C36 H8 0.931 . S
C36 C35 1.393 1_655 S
C36 C37 1.382 . S
C37 H7 0.929 . S
C37 C32 1.371 1_655 S
C37 C36 1.382 . S
C38 N1 1.423 . S
C38 C39 1.362 1_455 S
C38 C43 1.388 . S
C39 H9 0.929 . S
C39 C38 1.362 1_655 S
C39 C40 1.376 . S
C40 H11 0.931 . S
C40 C39 1.376 . S
C40 C41 1.396 . S
C41 C40 1.396 . S
C41 C42 1.348 1_655 S
C41 C59 1.472 . S
C42 H12 0.929 . S
C42 C41 1.348 1_455 S
C42 C43 1.443 . S
C43 H10 0.932 . S
C43 C38 1.388 . S
C43 C42 1.443 . S
C44 N24 1.433 . S
C44 C45 1.363 1_455 S
C44 C49 1.370 . S
C45 H13 0.929 . S
C45 C44 1.363 1_655 S
C45 C46 1.385 1_655 S
C46 H14 0.930 1_455 S
C46 C45 1.385 1_455 S
C46 C47 1.357 . S
C47 C46 1.357 . S
C47 C48 1.406 . S
C48 H15 0.929 . S
C48 C47 1.406 . S
C48 C49 1.391 . S
C49 H16 0.931 . S
C49 C44 1.370 . S
C49 C48 1.391 . S
C50 N24 1.435 . S
C50 C51 1.358 . S
C50 C55 1.371 1_455 S
C51 H17 0.930 . S
C51 C50 1.358 . S
C51 C52 1.405 . S
C52 H18 0.932 . S
C52 C51 1.405 . S
C52 C53 1.383 . S
C53 C52 1.383 . S
C53 C54 1.393 1_455 S
C54 H19 0.931 . S
C54 C53 1.393 1_655 S
C54 C55 1.382 . S
C55 H20 0.929 . S
C55 C50 1.371 1_655 S
C55 C54 1.382 . S
C56 N24 1.423 . S
C56 C57 1.362 1_455 S
C56 C61 1.388 . S
C57 H21 0.929 . S
C57 C56 1.362 1_655 S
C57 C58 1.376 . S
C58 H22 0.931 . S
C58 C57 1.376 . S
C58 C59 1.396 . S
C59 C41 1.472 . S
C59 C58 1.396 . S
C59 C60 1.348 1_655 S
C60 H23 0.929 . S
C60 C59 1.348 1_455 S
C60 C61 1.443 . S
C61 H25 0.932 . S
C61 C56 1.388 . S
C61 C60 1.443 . S
H62 C89 0.929 . S
N63 C88 1.433 . S
N63 C94 1.435 . S
N63 C100 1.423 . S
H64 C90 0.930 . S
H65 C93 0.931 . S
H66 C92 0.929 . S
H67 C95 0.930 . S
H68 C96 0.932 . S
H69 C99 0.929 . S
H70 C98 0.931 . S
H71 C101 0.929 . S
H72 C105 0.932 1_545 S
H73 C102 0.931 . S
H74 C104 0.929 1_545 S
H75 C107 0.929 . S
H76 C108 0.930 . S
H77 C110 0.929 . S
H78 C111 0.931 . S
H79 C113 0.930 . S
H80 C114 0.932 . S
H81 C116 0.931 . S
H82 C117 0.929 . S
H83 C119 0.929 . S
H84 C120 0.931 . S
H85 C122 0.929 1_545 S
N86 C106 1.433 . S
N86 C112 1.435 . S
N86 C118 1.423 . S
H87 C123 0.932 1_545 S
C88 N63 1.433 . S
C88 C89 1.363 . S
C88 C93 1.370 1_565 S
C89 H62 0.929 . S
C89 C88 1.363 . S
C89 C90 1.385 . S
C90 H64 0.930 . S
C90 C89 1.385 . S
C90 C91 1.357 . S
C91 C90 1.357 . S
C91 C92 1.406 1_565 S
C92 H66 0.929 . S
C92 C91 1.406 1_545 S
C92 C93 1.391 . S
C93 H65 0.931 . S
C93 C88 1.370 1_545 S
C93 C92 1.391 . S
C94 N63 1.435 . S
C94 C95 1.358 1_565 S
C94 C99 1.371 . S
C95 H67 0.930 . S
C95 C94 1.358 1_545 S
C95 C96 1.405 . S
C96 H68 0.932 . S
C96 C95 1.405 . S
C96 C97 1.375 1_545 S
C97 C96 1.375 1_565 S
C97 C98 1.404 . S
C98 H70 0.931 . S
C98 C97 1.404 . S
C98 C99 1.382 . S
C99 H69 0.929 . S
C99 C94 1.371 . S
C99 C98 1.382 . S
C100 N63 1.423 . S
C100 C101 1.362 . S
C100 C105 1.388 . S
C101 H71 0.929 . S
C101 C100 1.362 . S
C101 C102 1.376 . S
C102 H73 0.931 . S
C102 C101 1.376 . S
C102 C103 1.396 . S
C103 C102 1.396 . S
C103 C104 1.348 . S
C103 C121 1.472 . S
C104 H74 0.929 1_565 S
C104 C103 1.348 . S
C104 C105 1.443 . S
C105 H72 0.932 1_565 S
C105 C100 1.388 . S
C105 C104 1.443 . S
C106 N86 1.433 . S
C106 C107 1.363 . S
C106 C111 1.370 1_565 S
C107 H75 0.929 . S
C107 C106 1.363 . S
C107 C108 1.385 . S
C108 H76 0.930 . S
C108 C107 1.385 . S
C108 C109 1.357 . S
C109 C108 1.357 . S
C109 C110 1.406 1_565 S
C110 H77 0.929 . S
C110 C109 1.406 1_545 S
C110 C111 1.391 . S
C111 H78 0.931 . S
C111 C106 1.370 1_545 S
C111 C110 1.391 . S
C112 N86 1.435 . S
C112 C113 1.358 1_565 S
C112 C117 1.371 . S
C113 H79 0.930 . S
C113 C112 1.358 1_545 S
C113 C114 1.405 . S
C114 H80 0.932 . S
C114 C113 1.405 . S
C114 C115 1.375 1_545 S
C115 C114 1.375 1_565 S
C115 C116 1.404 . S
C116 H81 0.931 . S
C116 C115 1.404 . S
C116 C117 1.382 . S
C117 H82 0.929 . S
C117 C112 1.371 . S
C117 C116 1.382 . S
C118 N86 1.423 . S
C118 C119 1.362 . S
C118 C123 1.388 . S
C119 H83 0.929 . S
C119 C118 1.362 . S
C119 C120 1.376 . S
C120 H84 0.931 . S
C120 C119 1.376 . S
C120 C121 1.396 . S
C121 C103 1.472 . S
C121 C120 1.396 . S
C121 C122 1.348 . S
C122 H85 0.929 1_565 S
C122 C121 1.348 . S
C122 C123 1.443 . S
C123 H87 0.932 1_565 S
C123 C118 1.388 . S
C123 C122 1.443 . S
H124 C151 0.929 . S
N125 C150 1.433 . S
N125 C156 1.435 . S
N125 C162 1.423 . S
H126 C152 0.930 . S
H127 C155 0.919 1_556 S
H128 C154 0.929 . S
H129 C157 0.930 . S
H130 C158 0.932 . S
H131 C161 0.929 . S
H132 C160 0.931 . S
H133 C163 0.929 . S
H134 C167 0.932 1_556 S
H135 C164 0.931 . S
H136 C166 0.929 . S
H137 C169 0.929 . S
H138 C170 0.930 . S
H139 C172 0.929 . S
H140 C173 0.919 1_556 S
H141 C175 0.930 . S
H142 C176 0.932 . S
H143 C178 0.931 . S
H144 C179 0.929 . S
H145 C181 0.929 . S
H146 C182 0.931 . S
H147 C184 0.929 . S
N148 C168 1.433 . S
N148 C174 1.435 . S
N148 C180 1.423 . S
H149 C185 0.932 1_556 S
C150 N125 1.433 . S
C150 C151 1.363 . S
C150 C155 1.386 . S
C151 H124 0.929 . S
C151 C150 1.363 . S
C151 C152 1.385 . S
C152 H126 0.930 . S
C152 C151 1.385 . S
C152 C153 1.357 . S
C153 C152 1.357 . S
C153 C154 1.406 1_554 S
C154 H128 0.929 . S
C154 C153 1.406 1_556 S
C154 C155 1.388 1_556 S
C155 H127 0.919 1_554 S
C155 C150 1.386 . S
C155 C154 1.388 1_554 S
C156 N125 1.435 . S
C156 C157 1.358 1_554 S
C156 C161 1.371 . S
C157 H129 0.930 . S
C157 C156 1.358 1_556 S
C157 C158 1.405 . S
C158 H130 0.932 . S
C158 C157 1.405 . S
C158 C159 1.383 1_556 S
C159 C158 1.383 1_554 S
C159 C160 1.393 . S
C160 H132 0.931 . S
C160 C159 1.393 . S
C160 C161 1.382 . S
C161 H131 0.929 . S
C161 C156 1.371 . S
C161 C160 1.382 . S
C162 N125 1.423 . S
C162 C163 1.362 . S
C162 C167 1.388 . S
C163 H133 0.929 . S
C163 C162 1.362 . S
C163 C164 1.376 . S
C164 H135 0.931 . S
C164 C163 1.376 . S
C164 C165 1.396 . S
C165 C164 1.396 . S
C165 C166 1.348 . S
C165 C183 1.472 . S
C166 H136 0.929 . S
C166 C165 1.348 . S
C166 C167 1.443 . S
C167 H134 0.932 1_554 S
C167 C162 1.388 . S
C167 C166 1.443 . S
C168 N148 1.433 . S
C168 C169 1.363 . S
C168 C173 1.386 . S
C169 H137 0.929 . S
C169 C168 1.363 . S
C169 C170 1.385 . S
C170 H138 0.930 . S
C170 C169 1.385 . S
C170 C171 1.357 . S
C171 C170 1.357 . S
C171 C172 1.406 1_554 S
C172 H139 0.929 . S
C172 C171 1.406 1_556 S
C172 C173 1.388 1_556 S
C173 H140 0.919 1_554 S
C173 C168 1.386 . S
C173 C172 1.388 1_554 S
C174 N148 1.435 . S
C174 C175 1.358 1_554 S
C174 C179 1.371 . S
C175 H141 0.930 . S
C175 C174 1.358 1_556 S
C175 C176 1.405 . S
C176 H142 0.932 . S
C176 C175 1.405 . S
C176 C177 1.383 1_556 S
C177 C176 1.383 1_554 S
C177 C178 1.393 . S
C178 H143 0.931 . S
C178 C177 1.393 . S
C178 C179 1.382 . S
C179 H144 0.929 . S
C179 C174 1.371 . S
C179 C178 1.382 . S
C180 N148 1.423 . S
C180 C181 1.362 . S
C180 C185 1.388 . S
C181 H145 0.929 . S
C181 C180 1.362 . S
C181 C182 1.376 . S
C182 H146 0.931 . S
C182 C181 1.376 . S
C182 C183 1.396 . S
C183 C165 1.472 . S
C183 C182 1.396 . S
C183 C184 1.348 . S
C184 H147 0.929 . S
C184 C183 1.348 . S
C184 C185 1.443 . S
C185 H149 0.932 1_554 S
C185 C180 1.388 . S
C185 C184 1.443 . S
Zn186 O188 1.933 1_556 S
Zn186 O206 1.985 . S
Zn186 O217 1.955 . S
Zn187 O188 1.911 . S
Zn187 O207 1.970 . S
Zn187 O223 1.945 . S
Zn187 O230 1.981 . S
O188 Zn186 1.933 1_554 S
O188 Zn187 1.911 . S
O188 H189 0.841 . S
H189 O188 0.841 . S
C190 O191 1.246 . S
C190 O219 1.276 1_455 S
O191 C190 1.246 . S
Zn192 O194 1.911 . S
Zn192 O209 1.970 . S
Zn192 O226 1.945 . S
Zn192 O233 1.981 1_655 S
Zn193 O194 1.933 1_556 S
Zn193 O208 1.985 . S
Zn193 O215 1.955 . S
O194 Zn192 1.911 . S
O194 Zn193 1.933 1_554 S
O194 H195 0.841 . S
H195 O194 0.841 . S
Zn196 O197 1.933 1_556 S
Zn196 O210 1.985 . S
Zn196 O219 1.955 . S
O197 Zn196 1.933 1_554 S
O197 Zn198 1.911 . S
O197 H199 0.841 1_655 S
Zn198 O197 1.911 . S
Zn198 O211 1.970 . S
Zn198 O227 1.981 . S
Zn198 O229 1.945 . S
H199 O197 0.841 1_455 S
Zn200 O201 1.933 1_556 S
Zn200 O213 1.985 . S
Zn200 O221 1.955 . S
O201 Zn200 1.933 1_554 S
O201 H202 0.841 . S
O201 Zn203 1.911 . S
H202 O201 0.841 . S
Zn203 O201 1.911 . S
Zn203 O214 1.970 . S
Zn203 O224 1.981 . S
Zn203 O232 1.945 . S
C204 O205 1.246 . S
C204 O221 1.276 . S
O205 C204 1.246 . S
O206 Zn186 1.985 . S
O206 C216 1.245 1_556 S
O207 Zn187 1.970 . S
O207 C216 1.263 . S
O208 Zn193 1.985 . S
O208 C220 1.245 1_556 S
O209 Zn192 1.970 . S
O209 C220 1.263 . S
O210 Zn196 1.985 . S
O210 C225 1.245 1_556 S
O211 Zn198 1.970 . S
O211 C225 1.263 . S
C212 O223 1.267 . S
C212 O224 1.242 1_545 S
O213 Zn200 1.985 . S
O213 C231 1.245 1_556 S
O214 Zn203 1.970 . S
O214 C231 1.263 . S
O215 Zn193 1.955 . S
O215 C234 1.276 1_565 S
C216 O206 1.245 1_554 S
C216 O207 1.263 . S
O217 Zn186 1.955 . S
O217 C236 1.276 1_545 S
C218 O226 1.257 1_545 S
C218 O227 1.247 . S
O219 C190 1.276 1_655 S
O219 Zn196 1.955 . S
C220 O208 1.245 1_554 S
C220 O209 1.263 . S
O221 Zn200 1.955 . S
O221 C204 1.276 . S
C222 O229 1.262 1_455 S
C222 O230 1.245 . S
O223 Zn187 1.945 . S
O223 C212 1.267 . S
O224 Zn203 1.981 . S
O224 C212 1.242 1_565 S
C225 O210 1.245 1_554 S
C225 O211 1.263 . S
O226 Zn192 1.945 . S
O226 C218 1.257 1_565 S
O227 Zn198 1.981 . S
O227 C218 1.247 . S
C228 O232 1.262 . S
C228 O233 1.245 . S
O229 Zn198 1.945 . S
O229 C222 1.262 1_655 S
O230 Zn187 1.981 . S
O230 C222 1.245 . S
C231 O213 1.245 1_554 S
C231 O214 1.263 . S
O232 Zn203 1.945 . S
O232 C228 1.262 . S
O233 Zn192 1.981 1_455 S
O233 C228 1.245 . S
C234 O215 1.276 1_545 S
C234 O235 1.246 . S
O235 C234 1.246 . S
C236 O217 1.276 1_565 S
C236 O237 1.246 . S
O237 C236 1.246 . S
H238 C244 0.930 . S
H239 C248 0.930 . S
H240 C253 0.929 . S
H241 C251 0.929 . S
H242 C246 0.929 . S
H243 C252 0.929 . S
C244 H238 0.930 . S
C244 C245 1.367 . S
C244 C252 1.378 . S
C245 C244 1.367 . S
C245 C253 1.433 1_455 S
C246 H242 0.929 . S
C246 C248 1.378 . S
C246 C250 1.350 1_655 S
C247 C250 1.463 . S
C247 C252 1.350 . S
C247 N255 1.427 1_455 S
C248 H239 0.930 . S
C248 C246 1.378 . S
C248 C249 1.367 1_655 S
C249 C248 1.367 1_455 S
C249 C251 1.433 . S
C250 C246 1.350 1_455 S
C250 C247 1.463 . S
C250 N254 1.427 . S
C251 H241 0.929 . S
C251 C249 1.433 . S
C251 N254 1.384 . S
C252 H243 0.929 . S
C252 C244 1.378 . S
C252 C247 1.350 . S
C253 H240 0.929 . S
C253 C245 1.433 1_655 S
C253 N255 1.384 . S
N254 C250 1.427 . S
N254 C251 1.384 . S
N255 C247 1.427 1_655 S
N255 C253 1.384 . S
H256 C262 0.930 . S
H257 C266 0.930 . S
H258 C271 0.929 . S
H259 C269 0.929 . S
H260 C264 0.929 . S
H261 C270 0.929 . S
C262 H256 0.930 . S
C262 C263 1.367 . S
C262 C270 1.378 . S
C263 C262 1.367 . S
C263 C271 1.433 1_545 S
C264 H260 0.929 . S
C264 C266 1.378 . S
C264 C268 1.350 1_565 S
C265 C268 1.463 . S
C265 C270 1.350 . S
C265 N273 1.427 1_545 S
C266 H257 0.930 . S
C266 C264 1.378 . S
C266 C267 1.367 1_565 S
C267 C266 1.367 1_545 S
C267 C269 1.433 . S
C268 C264 1.350 1_545 S
C268 C265 1.463 . S
C268 N272 1.427 . S
C269 H259 0.929 . S
C269 C267 1.433 . S
C269 N272 1.384 . S
C270 H261 0.929 . S
C270 C262 1.378 . S
C270 C265 1.350 . S
C271 H258 0.929 . S
C271 C263 1.433 1_565 S
C271 N273 1.384 . S
N272 C268 1.427 . S
N272 C269 1.384 . S
N273 C265 1.427 1_565 S
N273 C271 1.384 . S
H274 C280 0.930 . S
H275 C284 0.930 . S
H276 C289 0.929 . S
H277 C287 0.929 . S
H278 C282 0.929 . S
H279 C288 0.929 . S
C280 H274 0.930 . S
C280 C281 1.367 . S
C280 C288 1.378 . S
C281 C280 1.367 . S
C281 C289 1.433 . S
C282 H278 0.929 . S
C282 C284 1.378 . S
C282 C286 1.350 . S
C283 C286 1.463 . S
C283 C288 1.350 . S
C283 N291 1.427 . S
C284 H275 0.930 . S
C284 C282 1.378 . S
C284 C285 1.367 . S
C285 C284 1.367 . S
C285 C287 1.433 . S
C286 C282 1.350 . S
C286 C283 1.463 . S
C286 N290 1.427 . S
C287 H277 0.929 . S
C287 C285 1.433 . S
C287 N290 1.384 . S
C288 H279 0.929 . S
C288 C280 1.378 . S
C288 C283 1.350 . S
C289 H276 0.929 . S
C289 C281 1.433 . S
C289 N291 1.384 . S
N290 C286 1.427 . S
N290 C287 1.384 . S
N291 C283 1.427 . S
N291 C289 1.384 . S
H292 C298 0.930 . S
H293 C302 0.930 . S
H294 C307 0.929 . S
H295 C305 0.929 . S
H296 C300 0.929 . S
H297 C306 0.929 . S
C298 H292 0.930 . S
C298 C299 1.379 . S
C298 C306 1.378 . S
C299 C298 1.379 . S
C299 C307 1.420 1_545 S
C300 H296 0.929 . S
C300 C302 1.378 . S
C300 C304 1.350 . S
C301 C304 1.463 . S
C301 C306 1.350 1_565 S
C301 N309 1.427 . S
C302 H293 0.930 . S
C302 C300 1.378 . S
C302 C303 1.367 . S
C303 C302 1.367 . S
C303 C305 1.433 1_565 S
C304 C300 1.350 . S
C304 C301 1.463 . S
C304 N308 1.427 1_565 S
C305 H295 0.929 . S
C305 C303 1.433 1_545 S
C305 N308 1.384 . S
C306 H297 0.929 . S
C306 C298 1.378 . S
C306 C301 1.350 1_545 S
C307 H294 0.929 . S
C307 C299 1.420 1_565 S
C307 N309 1.384 . S
N308 C304 1.427 1_545 S
N308 C305 1.384 . S
N309 C301 1.427 . S
N309 C307 1.384 . S
H310 C316 0.930 . S
H311 C320 0.930 . S
H312 C325 0.929 . S
H313 C323 0.929 . S
H314 C318 0.929 . S
H315 C324 0.929 . S
C316 H310 0.930 . S
C316 C317 1.367 1_655 S
C316 C324 1.378 . S
C317 C316 1.367 1_455 S
C317 C325 1.433 . S
C318 H314 0.929 . S
C318 C320 1.378 . S
C318 C322 1.350 . S
C319 C322 1.463 . S
C319 C324 1.350 1_455 S
C319 N327 1.427 . S
C320 H311 0.930 . S
C320 C318 1.378 . S
C320 C321 1.367 . S
C321 C320 1.367 . S
C321 C323 1.433 1_455 S
C322 C318 1.350 . S
C322 C319 1.463 . S
C322 N326 1.427 1_455 S
C323 H313 0.929 . S
C323 C321 1.433 1_655 S
C323 N326 1.384 . S
C324 H315 0.929 . S
C324 C316 1.378 . S
C324 C319 1.350 1_655 S
C325 H312 0.929 . S
C325 C317 1.433 . S
C325 N327 1.384 . S
N326 C322 1.427 1_655 S
N326 C323 1.384 . S
N327 C319 1.427 . S
N327 C325 1.384 . S
H328 C334 0.930 . S
H329 C338 0.930 . S
H330 C343 0.929 . S
H331 C341 0.929 . S
H332 C336 0.929 . S
H333 C342 0.929 . S
C334 H328 0.930 . S
C334 C335 1.381 . S
C334 C342 1.378 . S
C335 C334 1.381 . S
C335 C343 1.418 1_545 S
C336 H332 0.929 . S
C336 C338 1.378 . S
C336 C340 1.350 . S
C337 C340 1.463 . S
C337 C342 1.350 1_565 S
C337 N345 1.427 . S
C338 H329 0.930 . S
C338 C336 1.378 . S
C338 C339 1.367 . S
C339 C338 1.367 . S
C339 C341 1.433 1_565 S
C340 C336 1.350 . S
C340 C337 1.463 . S
C340 N344 1.427 1_565 S
C341 H331 0.929 . S
C341 C339 1.433 1_545 S
C341 N344 1.384 . S
C342 H333 0.929 . S
C342 C334 1.378 . S
C342 C337 1.350 1_545 S
C343 H330 0.929 . S
C343 C335 1.418 1_565 S
C343 N345 1.384 . S
N344 C340 1.427 1_545 S
N344 C341 1.384 . S
N345 C337 1.427 . S
N345 C343 1.384 . S
H346 C352 0.930 . S
H347 C356 0.930 . S
H348 C361 0.929 . S
H349 C359 0.929 . S
H350 C354 0.929 . S
H351 C360 0.929 . S
C352 H346 0.930 . S
C352 C353 1.367 . S
C352 C360 1.378 . S
C353 C352 1.367 . S
C353 C361 1.433 . S
C354 H350 0.929 . S
C354 C356 1.378 . S
C354 C358 1.350 . S
C355 C358 1.463 . S
C355 C360 1.350 . S
C355 N363 1.427 . S
C356 H347 0.930 . S
C356 C354 1.378 . S
C356 C357 1.367 . S
C357 C356 1.367 . S
C357 C359 1.433 . S
C358 C354 1.350 . S
C358 C355 1.463 . S
C358 N362 1.427 . S
C359 H349 0.929 . S
C359 C357 1.433 . S
C359 N362 1.384 . S
C360 H351 0.929 . S
C360 C352 1.378 . S
C360 C355 1.350 . S
C361 H348 0.929 . S
C361 C353 1.433 . S
C361 N363 1.384 . S
N362 C358 1.427 . S
N362 C359 1.384 . S
N363 C355 1.427 . S
N363 C361 1.384 . S
H364 C370 0.930 . S
H365 C374 0.930 . S
H366 C379 0.929 . S
H367 C377 0.929 . S
H368 C372 0.929 . S
H369 C378 0.929 . S
C370 H364 0.930 . S
C370 C371 1.367 . S
C370 C378 1.378 . S
C371 C370 1.367 . S
C371 C379 1.433 1_545 S
C372 H368 0.929 . S
C372 C374 1.378 . S
C372 C376 1.350 1_565 S
C373 C376 1.463 . S
C373 C378 1.350 . S
C373 N381 1.427 1_545 S
C374 H365 0.930 . S
C374 C372 1.378 . S
C374 C375 1.367 1_565 S
C375 C374 1.367 1_545 S
C375 C377 1.433 . S
C376 C372 1.350 1_545 S
C376 C373 1.463 . S
C376 N380 1.427 . S
C377 H367 0.929 . S
C377 C375 1.433 . S
C377 N380 1.384 . S
C378 H369 0.929 . S
C378 C370 1.378 . S
C378 C373 1.350 . S
C379 H366 0.929 . S
C379 C371 1.433 1_565 S
C379 N381 1.384 . S
N380 C376 1.427 . S
N380 C377 1.384 . S
N381 C373 1.427 1_565 S
N381 C379 1.384 . S
H382 C388 0.930 . S
H383 C392 0.930 . S
H384 C397 0.929 . S
H385 C395 0.929 . S
H386 C390 0.929 . S
H387 C396 0.929 . S
C388 H382 0.930 . S
C388 C389 1.367 1_556 S
C388 C396 1.378 . S
C389 C388 1.367 1_554 S
C389 C397 1.433 . S
C390 H386 0.929 . S
C390 C392 1.378 . S
C390 C394 1.350 . S
C391 C394 1.463 . S
C391 C396 1.350 1_554 S
C391 N399 1.427 . S
C392 H383 0.930 . S
C392 C390 1.378 . S
C392 C393 1.367 . S
C393 C392 1.367 . S
C393 C395 1.433 1_554 S
C394 C390 1.350 . S
C394 C391 1.463 . S
C394 N398 1.427 1_554 S
C395 H385 0.929 . S
C395 C393 1.433 1_556 S
C395 N398 1.384 . S
C396 H387 0.929 . S
C396 C388 1.378 . S
C396 C391 1.350 1_556 S
C397 H384 0.929 . S
C397 C389 1.433 . S
C397 N399 1.384 . S
N398 C394 1.427 1_556 S
N398 C395 1.384 . S
N399 C391 1.427 . S
N399 C397 1.384 . S
H400 C406 0.930 . S
H401 C410 0.930 . S
H402 C415 0.929 . S
H403 C413 0.929 . S
H404 C408 0.929 . S
H405 C414 0.929 . S
C406 H400 0.930 . S
C406 C407 1.367 . S
C406 C414 1.378 . S
C407 C406 1.367 . S
C407 C415 1.433 1_554 S
C408 H404 0.929 . S
C408 C410 1.378 . S
C408 C412 1.350 1_556 S
C409 C412 1.463 . S
C409 C414 1.350 . S
C409 N417 1.427 1_554 S
C410 H401 0.930 . S
C410 C408 1.378 . S
C410 C411 1.367 1_556 S
C411 C410 1.367 1_554 S
C411 C413 1.433 . S
C412 C408 1.350 1_554 S
C412 C409 1.463 . S
C412 N416 1.427 . S
C413 H403 0.929 . S
C413 C411 1.433 . S
C413 N416 1.384 . S
C414 H405 0.929 . S
C414 C406 1.378 . S
C414 C409 1.350 . S
C415 H402 0.929 . S
C415 C407 1.433 1_556 S
C415 N417 1.384 . S
N416 C412 1.427 . S
N416 C413 1.384 . S
N417 C409 1.427 1_556 S
N417 C415 1.384 . S
H418 C424 0.930 . S
H419 C428 0.930 . S
H420 C433 0.929 . S
H421 C431 0.929 . S
H422 C426 0.929 . S
H423 C432 0.929 . S
C424 H418 0.930 . S
C424 C425 1.367 1_556 S
C424 C432 1.378 . S
C425 C424 1.367 1_554 S
C425 C433 1.433 . S
C426 H422 0.929 . S
C426 C428 1.378 . S
C426 C430 1.350 . S
C427 C430 1.463 . S
C427 C432 1.350 1_554 S
C427 N435 1.427 . S
C428 H419 0.930 . S
C428 C426 1.378 . S
C428 C429 1.367 . S
C429 C428 1.367 . S
C429 C431 1.433 1_554 S
C430 C426 1.350 . S
C430 C427 1.463 . S
C430 N434 1.427 1_554 S
C431 H421 0.929 . S
C431 C429 1.433 1_556 S
C431 N434 1.384 . S
C432 H423 0.929 . S
C432 C424 1.378 . S
C432 C427 1.350 1_556 S
C433 H420 0.929 . S
C433 C425 1.433 . S
C433 N435 1.384 . S
N434 C430 1.427 1_556 S
N434 C431 1.384 . S
N435 C427 1.427 . S
N435 C433 1.384 . S
H436 C442 0.930 . S
H437 C446 0.930 . S
H438 C451 0.929 . S
H439 C449 0.929 . S
H440 C444 0.929 . S
H441 C450 0.929 . S
C442 H436 0.930 . S
C442 C443 1.367 . S
C442 C450 1.378 . S
C443 C442 1.367 . S
C443 C451 1.433 1_554 S
C444 H440 0.929 . S
C444 C446 1.378 . S
C444 C448 1.350 1_556 S
C445 C448 1.463 . S
C445 C450 1.350 . S
C445 N453 1.427 1_554 S
C446 H437 0.930 . S
C446 C444 1.378 . S
C446 C447 1.367 1_556 S
C447 C446 1.367 1_554 S
C447 C449 1.433 . S
C448 C444 1.350 1_554 S
C448 C445 1.463 . S
C448 N452 1.427 . S
C449 H439 0.929 . S
C449 C447 1.433 . S
C449 N452 1.384 . S
C450 H441 0.929 . S
C450 C442 1.378 . S
C450 C445 1.350 . S
C451 H438 0.929 . S
C451 C443 1.433 1_556 S
C451 N453 1.384 . S
N452 C448 1.427 . S
N452 C449 1.384 . S
N453 C445 1.427 1_556 S
N453 C451 1.384 . S
C249 C222 2.200 . S
C245 C53 2.271 . S
C267 C218 1.244 . S
C263 C97 1.357 1_545 S
C285 C228 2.206 . S
C281 C35 2.268 . S
C303 C212 1.420 1_565 S
C299 C91 1.451 1_545 S
C317 C29 2.464 . S
C321 C204 2.403 . S
C339 C236 1.521 . S
C335 C109 1.587 1_545 S
C353 C47 2.479 . S
C357 C190 2.412 . S
C371 C115 1.490 1_545 S
C375 C234 1.349 . S
C389 C153 1.125 . S
C393 C216 1.136 . S
C407 C171 1.134 . S
C411 C231 1.155 . S
C429 C225 0.943 . S
C425 C159 0.951 . S
C447 C220 1.008 . S
C443 C177 1.051 . S
