# Generated by pormake.
# Topology anh, (6,3)-cn, num edge types: 1
# Building blocks:
#     Node 0, Type 0, BuildingBlock: BETFEN_clean_sbu_0, # of connection points: 6
#     Node 1, Type 0, BuildingBlock: BETFEN_clean_sbu_0, # of connection points: 6
#     Node 2, Type 0, BuildingBlock: BETFEN_clean_sbu_0, # of connection points: 6
#     Node 3, Type 1, BuildingBlock: BELTOD_clean_linker_0, # of connection points: 3
#     Node 4, Type 1, BuildingBlock: BELTOD_clean_linker_0, # of connection points: 3
#     Node 5, Type 1, BuildingBlock: BELTOD_clean_linker_0, # of connection points: 3
#     Node 6, Type 1, BuildingBlock: BELTOD_clean_linker_0, # of connection points: 3
#     Node 7, Type 1, BuildingBlock: BELTOD_clean_linker_0, # of connection points: 3
#     Node 8, Type 1, BuildingBlock: BELTOD_clean_linker_0, # of connection points: 3
#     Edge 9, Type (0, 1), BuildingBlock: TEMPAE_clean_linker_10, # of connection points: 2
#     Edge 10, Type (0, 1), BuildingBlock: TEMPAE_clean_linker_10, # of connection points: 2
#     Edge 11, Type (0, 1), BuildingBlock: TEMPAE_clean_linker_10, # of connection points: 2
#     Edge 12, Type (0, 1), BuildingBlock: TEMPAE_clean_linker_10, # of connection points: 2
#     Edge 13, Type (0, 1), BuildingBlock: TEMPAE_clean_linker_10, # of connection points: 2
#     Edge 14, Type (0, 1), BuildingBlock: TEMPAE_clean_linker_10, # of connection points: 2
#     Edge 15, Type (0, 1), BuildingBlock: TEMPAE_clean_linker_10, # of connection points: 2
#     Edge 16, Type (0, 1), BuildingBlock: TEMPAE_clean_linker_10, # of connection points: 2
#     Edge 17, Type (0, 1), BuildingBlock: TEMPAE_clean_linker_10, # of connection points: 2
#     Edge 18, Type (0, 1), BuildingBlock: TEMPAE_clean_linker_10, # of connection points: 2
#     Edge 19, Type (0, 1), BuildingBlock: TEMPAE_clean_linker_10, # of connection points: 2
#     Edge 20, Type (0, 1), BuildingBlock: TEMPAE_clean_linker_10, # of connection points: 2
#     Edge 21, Type (0, 1), BuildingBlock: TEMPAE_clean_linker_10, # of connection points: 2
#     Edge 22, Type (0, 1), BuildingBlock: TEMPAE_clean_linker_10, # of connection points: 2
#     Edge 23, Type (0, 1), BuildingBlock: TEMPAE_clean_linker_10, # of connection points: 2
#     Edge 24, Type (0, 1), BuildingBlock: TEMPAE_clean_linker_10, # of connection points: 2
#     Edge 25, Type (0, 1), BuildingBlock: TEMPAE_clean_linker_10, # of connection points: 2
#     Edge 26, Type (0, 1), BuildingBlock: TEMPAE_clean_linker_10, # of connection points: 2
# Relax obj value: 0.179
# Max RMSD: 0.206
# Mean RMSD: 0.149
data_MOF--net-anh--node1-BETFEN_clean_sbu_0--node2-BELTOD_clean_linker_0--edge1-TEMPAE_clean_linker_10
_symmetry_space_group_name_H-M    P1
_symmetry_Int_Tables_number       1
_symmetry_cell_setting            triclinic
loop_
_symmetry_equiv_pos_as_xyz
'x, y, z'
_cell_length_a     34.097417
_cell_length_b     35.865853
_cell_length_c     61.930492
_cell_angle_alpha  90.303951
_cell_angle_beta   92.652984
_cell_angle_gamma 106.83621
loop_
_atom_site_label
_atom_site_type_symbol
_atom_site_fract_x
_atom_site_fract_y
_atom_site_fract_z
_atom_type_partial_charge
Pr0 Pr 1.00735 0.52646 0.15374 0.0
Pr1 Pr 0.03159 0.6121 0.14565 0.0
C2 C 0.97625 0.45401 0.16877 0.0
C3 C 0.93698 0.42375 0.17099 0.0
C4 C 0.93561 0.38455 0.16852 0.0
C5 C 0.89946 0.35505 0.17181 0.0
C6 C 0.86396 0.36423 0.17771 0.0
C7 C 0.86513 0.40365 0.17969 0.0
C8 C 0.90132 0.43321 0.17628 0.0
C9 C 1.01465 0.54429 0.11011 0.0
C10 C 0.93363 0.57053 0.14628 0.0
C11 C 0.06625 0.68604 0.13368 0.0
C12 C 0.10604 0.71557 0.13845 0.0
C13 C 0.10697 0.75365 0.1443 0.0
C14 C 0.1441 0.78119 0.15061 0.0
C15 C 0.18111 0.77119 0.15114 0.0
C16 C 0.18014 0.7332 0.14473 0.0
C17 C 0.14299 0.70564 0.13856 0.0
C18 C 0.02678 0.59335 0.18942 0.0
C19 C 0.1047 0.5666 0.14961 0.0
O20 O 0.9831 0.48558 0.18079 0.0
O21 O 0.98928 0.46076 0.14925 0.0
O22 O 0.99746 0.56058 0.12335 0.0
O23 O 0.02774 0.5172 0.1191 0.0
O24 O 0.96133 0.59993 0.13802 0.0
O25 O 0.94439 0.54153 0.15548 0.0
O26 O 0.06652 0.65565 0.12195 0.0
O27 O 0.04209 0.67713 0.14982 0.0
O28 O 0.04317 0.57779 0.17553 0.0
O29 O 1.013 0.6204 0.18102 0.0
O30 O 0.07799 0.53763 0.15876 0.0
O31 O 0.09332 0.59594 0.1413 0.0
H32 H 0.96281 0.37671 0.16447 0.0
H33 H 0.89972 0.325 0.17043 0.0
H34 H 0.83814 0.41161 0.18401 0.0
H35 H 0.90161 0.46334 0.1781 0.0
H36 H 0.07878 0.76183 0.14449 0.0
H37 H 0.14359 0.80997 0.15571 0.0
H38 H 0.20809 0.72463 0.14461 0.0
H39 H 0.14317 0.67641 0.13422 0.0
Pr40 Pr 0.5689 0.05137 0.51761 0.0
Pr41 Pr 0.48303 1.02864 0.52953 0.0
C42 C 0.64111 0.08312 0.49934 0.0
C43 C 0.67097 0.12156 0.49637 0.0
C44 C 0.71295 0.1247 0.49721 0.0
C45 C 0.74193 0.16053 0.49392 0.0
C46 C 0.72949 0.19401 0.48966 0.0
C47 C 0.68733 0.19089 0.48909 0.0
C48 C 0.65832 0.15501 0.4925 0.0
C49 C 0.56169 0.04092 0.56174 0.0
C50 C 0.52457 0.12341 0.52815 0.0
C51 C 0.40772 0.99334 0.54344 0.0
C52 C 0.3769 0.95524 0.53859 0.0
C53 C 0.3379 0.95409 0.52974 0.0
C54 C 0.30969 0.91863 0.52314 0.0
C55 C 0.31978 0.8834 0.52532 0.0
C56 C 0.35846 0.88454 0.5348 0.0
C57 C 0.38672 0.92002 0.5413 0.0
C58 C 0.49303 1.03434 0.48498 0.0
C59 C 0.52862 0.95673 0.52325 0.0
O60 O 0.6055 0.07596 0.48876 0.0
O61 O 0.6385 0.06966 0.51895 0.0
O62 O 0.54147 0.05911 0.55047 0.0
O63 O 0.58614 1.0281 0.55028 0.0
O64 O 0.49459 0.09603 0.53654 0.0
O65 O 0.55414 0.11327 0.51851 0.0
O66 O 0.44157 0.99313 0.55423 0.0
O67 O 0.41412 1.01811 0.52768 0.0
O68 O 0.51169 1.01785 0.49796 0.0
O69 O 0.4676 0.04848 0.49476 0.0
O70 O 0.55796 0.98296 0.5136 0.0
O71 O 0.49916 0.96792 0.53222 0.0
H72 H 0.72334 0.09927 0.50017 0.0
H73 H 0.77408 0.16181 0.4942 0.0
H74 H 0.6768 0.21621 0.48606 0.0
H75 H 0.62607 0.15338 0.49196 0.0
H76 H 0.32962 0.98082 0.5274 0.0
H77 H 0.28045 0.91902 0.51569 0.0
H78 H 0.36709 0.85799 0.53709 0.0
H79 H 0.41649 0.91984 0.54808 0.0
Pr80 Pr 0.45222 0.50454 0.81884 0.0
Pr81 Pr 0.48007 0.59069 0.83167 0.0
C82 C 0.44459 0.43511 0.80015 0.0
C83 C 0.47645 0.4204 0.79118 0.0
C84 C 0.4733 0.38066 0.79191 0.0
C85 C 0.50692 0.3677 0.78716 0.0
C86 C 0.5442 0.39442 0.78173 0.0
C87 C 0.54652 0.434 0.78008 0.0
C88 C 0.51299 0.44686 0.78483 0.0
C89 C 0.44562 0.5193 0.86257 0.0
C90 C 0.55221 0.54554 0.82981 0.0
C91 C 0.50958 0.66138 0.85083 0.0
C92 C 0.5069 0.70138 0.85078 0.0
C93 C 0.49275 0.71681 0.83226 0.0
C94 C 0.49754 0.75679 0.83123 0.0
C95 C 0.51664 0.78176 0.84869 0.0
C96 C 0.52781 0.76556 0.8678 0.0
C97 C 0.523 0.72565 0.8688 0.0
C98 C 0.4662 0.57622 0.78704 0.0
C99 C 0.38102 0.54802 0.82372 0.0
O100 O 0.43591 0.46367 0.78971 0.0
O101 O 0.4484 0.44078 0.82112 0.0
O102 O 0.47538 0.53598 0.85136 0.0
O103 O 0.41769 0.49311 0.85125 0.0
O104 O 0.54371 0.57821 0.83439 0.0
O105 O 0.52324 0.51365 0.82354 0.0
O106 O 0.47868 0.63426 0.8581 0.0
O107 O 0.52563 0.65027 0.83405 0.0
O108 O 0.48386 0.55876 0.80004 0.0
O109 O 0.45616 0.60396 0.79691 0.0
O110 O 0.39096 0.52104 0.81237 0.0
O111 O 0.40912 0.57452 0.83539 0.0
H112 H 0.44558 0.35993 0.79712 0.0
H113 H 0.50437 0.33705 0.78883 0.0
H114 H 0.57465 0.4552 0.77575 0.0
H115 H 0.51632 0.47776 0.78449 0.0
H116 H 0.47996 0.69832 0.81825 0.0
H117 H 0.48823 0.76845 0.8164 0.0
H118 H 0.54297 0.78402 0.88142 0.0
H119 H 0.53404 0.71407 0.88322 0.0
P120 P 0.56552 1.01493 0.2542 0.0
H121 H 0.54335 0.94822 0.2241 0.0
H122 H 0.47957 0.91419 0.20421 0.0
H123 H 0.42304 0.99903 0.22764 0.0
H124 H 0.48711 1.03256 0.24797 0.0
H125 H 0.63241 0.07674 0.27406 0.0
H126 H 0.67664 0.13748 0.26058 0.0
H127 H 0.60905 0.11498 0.19879 0.0
H128 H 0.56414 0.05455 0.21265 0.0
H129 H 0.55188 0.96053 0.28969 0.0
H130 H 0.54654 0.0776 0.27864 0.0
O131 O 0.59614 0.9861 0.25406 0.0
H132 H 0.53504 0.96589 0.32731 0.0
H133 H 0.52962 0.0832 0.31632 0.0
C134 C 0.51974 0.99261 0.23772 0.0
C135 C 0.51736 0.95969 0.22487 0.0
C136 C 0.48088 0.94039 0.21335 0.0
C137 C 0.44607 0.95377 0.21438 0.0
C138 C 0.44908 0.98764 0.22674 0.0
C139 C 0.48568 1.00693 0.23829 0.0
C140 C 0.59453 0.06153 0.24451 0.0
C141 C 0.62662 0.08523 0.25774 0.0
C142 C 0.65216 0.11976 0.24992 0.0
C143 C 0.64652 0.13101 0.22856 0.0
C144 C 0.61389 0.1074 0.2154 0.0
C145 C 0.58823 0.07279 0.22329 0.0
C146 C 0.55153 1.01901 0.28159 0.0
C147 C 0.5471 0.98741 0.29539 0.0
C148 C 0.53717 0.99042 0.31683 0.0
C149 C 0.5313 1.02509 0.32481 0.0
C150 C 0.53462 0.05636 0.31072 0.0
C151 C 0.54428 0.05319 0.2892 0.0
P152 P 0.54949 0.5468 0.5572 0.0
H153 H 0.55956 0.50314 0.51743 0.0
H154 H 0.55342 0.43388 0.51075 0.0
H155 H 0.49642 0.40547 0.57154 0.0
H156 H 0.50196 0.47368 0.57794 0.0
H157 H 0.60796 0.62315 0.54975 0.0
H158 H 0.60182 0.6875 0.54244 0.0
H159 H 0.47088 0.6394 0.53227 0.0
H160 H 0.47729 0.57371 0.53958 0.0
H161 H 0.59484 0.55189 0.59923 0.0
H162 H 0.47234 0.54795 0.57627 0.0
O163 O 0.60012 0.55369 0.55845 0.0
H164 H 0.57625 0.55733 0.63634 0.0
H165 H 0.45377 0.55466 0.6135 0.0
C166 C 0.53043 0.49486 0.54801 0.0
C167 C 0.54413 0.48196 0.52895 0.0
C168 C 0.54105 0.44196 0.52525 0.0
C169 C 0.52497 0.41329 0.54072 0.0
C170 C 0.50971 0.42612 0.55929 0.0
C171 C 0.51232 0.46578 0.56281 0.0
C172 C 0.54328 0.59218 0.54489 0.0
C173 C 0.57773 0.62557 0.54538 0.0
C174 C 0.57413 0.66318 0.54152 0.0
C175 C 0.53577 0.66969 0.53703 0.0
C176 C 0.50115 0.63615 0.5356 0.0
C177 C 0.5048 0.59814 0.53968 0.0
C178 C 0.5352 0.55013 0.58482 0.0
C179 C 0.56398 0.55254 0.60209 0.0
C180 C 0.55334 0.5559 0.6234 0.0
C181 C 0.51361 0.55692 0.62799 0.0
C182 C 0.48459 0.55383 0.61063 0.0
C183 C 0.49529 0.55037 0.58927 0.0
P184 P 0.99103 0.60133 0.87522 0.0
H185 H 0.04725 0.63314 0.84125 0.0
H186 H 0.10523 0.61485 0.82796 0.0
H187 H 0.06862 0.50736 0.86303 0.0
H188 H 1.01114 0.52677 0.87691 0.0
H189 H 0.92906 0.64068 0.87978 0.0
H190 H 0.8556 0.62295 0.87077 0.0
H191 H 0.86128 0.51599 0.84063 0.0
H192 H 0.93567 0.53382 0.8501 0.0
H193 H 0.06062 0.60742 0.90544 0.0
H194 H 0.92863 0.56913 0.90722 0.0
O195 O 1.00933 0.64978 0.87446 0.0
H196 H 0.0664 0.59593 0.94415 0.0
H197 H 0.93413 0.5593 0.9459 0.0
C198 C 0.02515 0.58161 0.86034 0.0
C199 C 0.05108 0.60521 0.84573 0.0
C200 C 0.08434 0.59457 0.83804 0.0
C201 C 0.09227 0.55982 0.84465 0.0
C202 C 0.06415 0.53475 0.85797 0.0
C203 C 0.0309 0.54556 0.86573 0.0
C204 C 0.93803 0.58891 0.8653 0.0
C205 C 0.9148 0.61366 0.87093 0.0
C206 C 0.87268 0.60333 0.86596 0.0
C207 C 0.85265 0.568 0.85512 0.0
C208 C 0.87603 0.54348 0.84894 0.0
C209 C 0.91845 0.55366 0.85426 0.0
C210 C 0.99429 0.58899 0.90333 0.0
C211 C 0.03288 0.59636 0.91412 0.0
C212 C 0.03613 0.59015 0.93632 0.0
C213 C 1.00073 0.57689 0.94824 0.0
C214 C 0.96206 0.56902 0.93724 0.0
C215 C 0.95888 0.57494 0.91502 0.0
P216 P 0.07158 0.51756 0.42111 0.0
H217 H 0.13375 0.53657 0.45667 0.0
H218 H 0.16853 0.59709 0.47627 0.0
H219 H 0.08917 0.65444 0.44244 0.0
H220 H 0.05509 0.59368 0.42246 0.0
H221 H 1.0088 0.4544 0.39928 0.0
H222 H 0.94897 0.40529 0.41163 0.0
H223 H 0.97264 0.45743 0.47578 0.0
H224 H 0.03204 0.50756 0.46299 0.0
H225 H 0.1269 0.5324 0.38554 0.0
H226 H 1.00329 0.53403 0.39603 0.0
O227 O 0.10558 0.49212 0.42186 0.0
H228 H 0.11813 0.54734 0.34749 0.0
H229 H 0.99431 0.54931 0.35792 0.0
C230 C 0.09235 0.56079 0.43781 0.0
C231 C 0.12356 0.56205 0.45358 0.0
C232 C 0.14329 0.59673 0.46491 0.0
C233 C 0.13197 0.63087 0.46082 0.0
C234 C 0.09922 0.62892 0.44571 0.0
C235 C 0.07951 0.59414 0.43435 0.0
C236 C 0.02432 0.48526 0.43005 0.0
C237 C 1.00059 0.45592 0.41588 0.0
C238 C 0.96663 0.42746 0.42306 0.0
C239 C 0.95607 0.42716 0.44476 0.0
C240 C 0.97958 0.45704 0.4589 0.0
C241 C 1.01359 0.48573 0.45162 0.0
C242 C 0.06542 0.53116 0.39345 0.0
C243 C 0.09787 0.53606 0.37965 0.0
C244 C 0.0929 0.54487 0.35792 0.0
C245 C 0.05538 0.54916 0.34963 0.0
C246 C 0.02332 0.54548 0.36373 0.0
C247 C 0.02844 0.53686 0.38551 0.0
P248 P 0.76697 0.13063 0.774 0.0
H249 H 0.77973 0.18368 0.81179 0.0
H250 H 0.76721 0.24712 0.8161 0.0
H251 H 0.7471 0.25128 0.74675 0.0
H252 H 0.76154 0.1896 0.74265 0.0
H253 H 0.77345 0.05799 0.79199 0.0
H254 H 0.72864 1.01047 0.81465 0.0
H255 H 0.65741 0.09035 0.8252 0.0
H256 H 0.70167 0.13724 0.80189 0.0
H257 H 0.78446 0.10124 0.73212 0.0
H258 H 0.68094 0.12123 0.76258 0.0
O259 O 0.8142 0.12648 0.77217 0.0
H260 H 0.7426 0.08244 0.69841 0.0
H261 H 0.63925 0.10302 0.72907 0.0
C262 C 0.76938 0.18112 0.77702 0.0
C263 C 0.77358 0.19885 0.79754 0.0
C264 C 0.76628 0.23502 0.79996 0.0
C265 C 0.75488 0.25383 0.78184 0.0
C266 C 0.75565 0.23784 0.76113 0.0
C267 C 0.76331 0.20202 0.75876 0.0
C268 C 0.74149 0.10145 0.79558 0.0
C269 C 0.74907 0.06582 0.79978 0.0
C270 C 0.72338 0.03867 0.81281 0.0
C271 C 0.68937 0.04661 0.82178 0.0
C272 C 0.68316 0.08325 0.81844 0.0
C273 C 0.70883 0.11031 0.80531 0.0
C274 C 0.73566 0.11214 0.7499 0.0
C275 C 0.75263 0.10108 0.73165 0.0
C276 C 0.72876 0.09066 0.71237 0.0
C277 C 0.68763 0.09137 0.71108 0.0
C278 C 0.67059 0.10163 0.72961 0.0
C279 C 0.69444 0.11201 0.74881 0.0
P280 P 0.49526 0.50135 0.09914 0.0
H281 H 0.5402 0.49085 0.13876 0.0
H282 H 0.61357 0.51071 0.14923 0.0
H283 H 0.6376 0.58358 0.09326 0.0
H284 H 0.5642 0.56428 0.08312 0.0
H285 H 0.41529 0.4536 0.11121 0.0
H286 H 0.35441 0.4692 0.1225 0.0
H287 H 0.42209 0.59128 0.12634 0.0
H288 H 0.48375 0.57526 0.11504 0.0
H289 H 0.54249 0.48971 0.06299 0.0
H290 H 0.43509 0.52764 0.0718 0.0
O291 O 0.48878 0.45372 0.10198 0.0
H292 H 0.53423 0.49627 0.02394 0.0
H293 H 0.42554 0.53245 0.03294 0.0
C294 C 0.54668 0.52545 0.10995 0.0
C295 C 0.5611 0.512 0.12908 0.0
C296 C 0.60311 0.52331 0.13503 0.0
C297 C 0.6315 0.54813 0.12184 0.0
C298 C 0.61656 0.56382 0.10353 0.0
C299 C 0.5745 0.55287 0.09776 0.0
C300 C 0.4544 0.51317 0.11266 0.0
C301 C 0.4176 0.48366 0.11505 0.0
C302 C 0.38253 0.49266 0.12126 0.0
C303 C 0.38324 0.53151 0.12508 0.0
C304 C 0.42064 0.56105 0.12362 0.0
C305 C 0.45592 0.55194 0.11728 0.0
C306 C 0.48992 0.50874 0.07045 0.0
C307 C 0.51725 0.49962 0.05655 0.0
C308 C 0.51219 0.50299 0.03418 0.0
C309 C 0.47911 0.51482 0.02519 0.0
C310 C 0.45177 0.52393 0.03923 0.0
C311 C 0.45715 0.52097 0.06161 0.0
C312 C 0.17504 0.59263 0.13528 0.0
C313 C 0.14783 0.56563 0.14799 0.0
C314 C 0.21498 0.59035 0.13237 0.0
C315 C 0.22822 0.56044 0.14247 0.0
C316 C 0.20141 0.53395 0.15592 0.0
C317 C 0.16158 0.53677 0.15845 0.0
C318 C 0.24242 0.61909 0.11782 0.0
C319 C 0.21435 0.50181 0.16712 0.0
C320 C 0.30873 0.52311 0.11631 0.0
C321 C 0.3443 0.54076 0.12921 0.0
C322 C 0.27113 0.52989 0.12023 0.0
C323 C 0.26873 0.55482 0.13762 0.0
C324 C 0.30468 0.57333 0.1505 0.0
C325 C 0.34211 0.56626 0.14607 0.0
C326 C 0.23382 0.50995 0.10588 0.0
C327 C 0.30337 0.59994 0.16924 0.0
H328 H 0.16482 0.61501 0.12708 0.0
H329 H 0.14099 0.51591 0.16842 0.0
H330 H 0.27281 0.63256 0.12614 0.0
H331 H 0.24766 0.60362 0.10316 0.0
H332 H 0.22898 0.64259 0.1127 0.0
H333 H 0.19123 0.48555 0.17835 0.0
H334 H 0.21897 0.48096 0.15489 0.0
H335 H 0.24404 0.51401 0.17637 0.0
H336 H 0.31034 0.50393 0.103 0.0
H337 H 0.36945 0.57989 0.15612 0.0
H338 H 0.2202 0.5319 0.09868 0.0
H339 H 0.21014 0.49035 0.11563 0.0
H340 H 0.24111 0.49248 0.09261 0.0
H341 H 0.29073 0.62364 0.16363 0.0
H342 H 0.33418 0.61316 0.17723 0.0
H343 H 0.28265 0.58334 0.1814 0.0
C344 C 0.79754 0.24396 0.49756 0.0
C345 C 0.7605 0.23158 0.4851 0.0
C346 C 0.82848 0.27766 0.49236 0.0
C347 C 0.82239 0.29945 0.47416 0.0
C348 C 0.78453 0.28783 0.46194 0.0
C349 C 0.75402 0.25412 0.46759 0.0
C350 C 0.86821 0.28923 0.50594 0.0
C351 C 0.77688 0.31009 0.44235 0.0
C352 C 0.89423 0.40175 0.46713 0.0
C353 C 0.92187 0.39469 0.45264 0.0
C354 C 0.86172 0.37109 0.47435 0.0
C355 C 0.85673 0.33249 0.46691 0.0
C356 C 0.88469 0.3252 0.45242 0.0
C357 C 0.9169 0.35627 0.44555 0.0
C358 C 0.8326 0.38001 0.48984 0.0
C359 C 0.88062 0.28449 0.44413 0.0
H360 H 0.80251 0.22701 0.51131 0.0
H361 H 0.72564 0.24456 0.45776 0.0
H362 H 0.89361 0.28622 0.49615 0.0
H363 H 0.87578 0.32024 0.51117 0.0
H364 H 0.86692 0.27104 0.5205 0.0
H365 H 0.74481 0.29905 0.43555 0.0
H366 H 0.7834 0.34148 0.44654 0.0
H367 H 0.79794 0.30769 0.42962 0.0
H368 H 0.89763 0.43133 0.47257 0.0
H369 H 0.93855 0.35035 0.43473 0.0
H370 H 0.83226 0.36295 0.50476 0.0
H371 H 0.80094 0.37118 0.48244 0.0
H372 H 0.84105 0.41145 0.49439 0.0
H373 H 0.88265 0.26532 0.45788 0.0
H374 H 0.9047 0.28378 0.43279 0.0
H375 H 0.85013 0.27208 0.4357 0.0
C376 C 0.5291 0.85034 0.86268 0.0
C377 C 0.53099 0.82452 0.84591 0.0
C378 C 0.54929 0.89038 0.8615 0.0
C379 C 0.57231 0.90457 0.84329 0.0
C380 C 0.57229 0.87894 0.82582 0.0
C381 C 0.55152 0.8393 0.82732 0.0
C382 C 0.54774 0.91696 0.8802 0.0
C383 C 0.59647 0.89286 0.80607 0.0
C384 C 0.61614 1.0087 0.82648 0.0
C385 C 0.65799 1.01485 0.832 0.0
C386 C 0.58682 0.97421 0.83202 0.0
C387 C 0.59982 0.94508 0.84301 0.0
C388 C 0.64137 0.9527 0.85039 0.0
C389 C 0.66993 0.98764 0.8449 0.0
C390 C 0.54261 0.96758 0.82439 0.0
C391 C 0.65642 0.9225 0.86235 0.0
H392 H 0.51292 0.83903 0.877 0.0
H393 H 0.55362 0.81948 0.81444 0.0
H394 H 0.57699 0.92359 0.89008 0.0
H395 H 0.5441 0.94502 0.87435 0.0
H396 H 0.52224 0.90338 0.89079 0.0
H397 H 0.59134 0.86964 0.79342 0.0
H398 H 0.58797 0.91794 0.79897 0.0
H399 H 0.62972 0.90295 0.81078 0.0
H400 H 0.60651 1.02948 0.81648 0.0
H401 H 0.70206 0.9927 0.84968 0.0
H402 H 0.52158 0.95265 0.83686 0.0
H403 H 0.53585 0.94856 0.80968 0.0
H404 H 0.53601 0.99537 0.82033 0.0
H405 H 0.63614 0.91026 0.87564 0.0
H406 H 0.6883 0.93464 0.86924 0.0
H407 H 0.65564 0.89811 0.85107 0.0
C408 C 0.85884 0.53397 0.14754 0.0
C409 C 0.88949 0.56894 0.14422 0.0
C410 C 0.81699 0.53151 0.14459 0.0
C411 C 0.80532 0.56497 0.13847 0.0
C412 C 0.83611 0.6006 0.13563 0.0
C413 C 0.87775 0.60207 0.13836 0.0
C414 C 0.78528 0.4928 0.1475 0.0
C415 C 0.82507 0.6371 0.12945 0.0
C416 C 0.70088 0.55003 0.10925 0.0
C417 C 0.67646 0.55478 0.12608 0.0
C418 C 0.74275 0.55339 0.11306 0.0
C419 C 0.761 0.56228 0.1342 0.0
C420 C 0.73671 0.56791 0.1512 0.0
C421 C 0.69467 0.56373 0.14698 0.0
C422 C 0.76724 0.54654 0.09452 0.0
C423 C 0.75507 0.57809 0.17387 0.0
H424 H 0.86751 0.50814 0.15197 0.0
H425 H 0.90115 0.62929 0.13589 0.0
H426 H 0.76336 0.49579 0.15961 0.0
H427 H 0.76735 0.48316 0.13203 0.0
H428 H 0.79929 0.46979 0.15282 0.0
H429 H 0.85247 0.66296 0.12908 0.0
H430 H 0.80898 0.63295 0.11325 0.0
H431 H 0.80371 0.64309 0.14106 0.0
H432 H 0.6869 0.54248 0.09313 0.0
H433 H 0.67602 0.56759 0.16004 0.0
H434 H 0.77965 0.52175 0.09816 0.0
H435 H 0.7938 0.57254 0.09241 0.0
H436 H 0.74859 0.54008 0.07903 0.0
H437 H 0.7667 0.55421 0.1802 0.0
H438 H 0.73253 0.58309 0.18509 0.0
H439 H 0.78162 0.60471 0.17377 0.0
C440 C 0.30529 0.81831 0.50634 0.0
C441 C 0.29069 0.84587 0.51704 0.0
C442 C 0.27833 0.78335 0.49787 0.0
C443 C 0.23555 0.77571 0.49996 0.0
C444 C 0.22055 0.80322 0.51084 0.0
C445 C 0.24826 0.83786 0.51929 0.0
C446 C 0.29563 0.75478 0.48643 0.0
C447 C 0.17517 0.79619 0.51338 0.0
C448 C 0.16622 0.70299 0.45948 0.0
C449 C 0.15582 0.66863 0.47142 0.0
C450 C 0.19129 0.7382 0.46872 0.0
C451 C 0.20659 0.73918 0.49044 0.0
C452 C 0.19547 0.70487 0.50275 0.0
C453 C 0.17019 0.67009 0.49312 0.0
C454 C 0.20232 0.77414 0.45505 0.0
C455 C 0.21108 0.70469 0.52595 0.0
H456 H 0.33788 0.8244 0.50416 0.0
H457 H 0.23665 0.85865 0.52776 0.0
H458 H 0.28558 0.72588 0.49409 0.0
H459 H 0.28373 0.75086 0.46934 0.0
H460 H 0.3297 0.76451 0.48674 0.0
H461 H 0.16845 0.82026 0.52244 0.0
H462 H 0.1589 0.79297 0.49724 0.0
H463 H 0.16245 0.76861 0.52201 0.0
H464 H 0.15583 0.70214 0.44263 0.0
H465 H 0.16187 0.64388 0.50259 0.0
H466 H 0.23586 0.78356 0.45288 0.0
H467 H 0.19464 0.79846 0.46329 0.0
H468 H 0.18614 0.76909 0.43883 0.0
H469 H 0.24503 0.71184 0.52671 0.0
H470 H 0.19832 0.67603 0.53358 0.0
H471 H 0.20305 0.72736 0.53557 0.0
C472 C 0.61891 0.4028 0.78975 0.0
C473 C 0.58137 0.38143 0.77961 0.0
C474 C 0.65317 0.38862 0.79006 0.0
C475 C 0.64965 0.35217 0.7801 0.0
C476 C 0.61256 0.33157 0.76879 0.0
C477 C 0.57881 0.34642 0.76873 0.0
C478 C 0.69205 0.41174 0.80224 0.0
C479 C 0.60793 0.29294 0.75755 0.0
C480 C 0.73967 0.31461 0.76874 0.0
C481 C 0.73556 0.2857 0.78439 0.0
C482 C 0.71338 0.33832 0.76782 0.0
C483 C 0.68289 0.33339 0.78314 0.0
C484 C 0.68147 0.30723 0.80028 0.0
C485 C 0.70756 0.28343 0.8006 0.0
C486 C 0.71647 0.36684 0.7497 0.0
C487 C 0.65036 0.30235 0.81742 0.0
H488 H 0.62112 0.42984 0.79829 0.0
H489 H 0.5501 0.33022 0.76053 0.0
H490 H 0.7198 0.40582 0.79619 0.0
H491 H 0.69587 0.44344 0.8011 0.0
H492 H 0.69003 0.40402 0.81956 0.0
H493 H 0.57843 0.2824 0.74788 0.0
H494 H 0.63351 0.2954 0.74669 0.0
H495 H 0.60931 0.27075 0.76975 0.0
H496 H 0.76202 0.31733 0.75652 0.0
H497 H 0.70382 0.26117 0.81273 0.0
H498 H 0.71701 0.39589 0.75621 0.0
H499 H 0.68904 0.35676 0.73845 0.0
H500 H 0.74431 0.36998 0.74041 0.0
H501 H 0.65083 0.33119 0.82419 0.0
H502 H 0.6561 0.28391 0.83086 0.0
H503 H 0.61913 0.2886 0.81009 0.0
C504 C 0.50093 0.88752 0.53734 0.0
C505 C 0.52852 0.91415 0.52444 0.0
C506 C 0.5007 0.84791 0.53909 0.0
C507 C 0.52852 0.83339 0.52757 0.0
C508 C 0.55612 0.85999 0.5143 0.0
C509 C 0.55596 0.89962 0.51301 0.0
C510 C 0.47087 0.82165 0.55366 0.0
C511 C 0.58615 0.84655 0.50142 0.0
C512 C 0.55741 0.7421 0.54801 0.0
C513 C 0.53264 0.71134 0.53471 0.0
C514 C 0.55611 0.7812 0.54596 0.0
C515 C 0.52969 0.79107 0.52999 0.0
C516 C 0.50441 0.76022 0.51654 0.0
C517 C 0.50592 0.72113 0.51914 0.0
C518 C 0.58317 0.81212 0.56111 0.0
C519 C 0.47595 0.7686 0.4991 0.0
H520 H 0.47959 0.89777 0.54643 0.0
H521 H 0.57747 0.91929 0.50291 0.0
H522 H 0.4516 0.79573 0.54439 0.0
H523 H 0.48797 0.81098 0.56674 0.0
H524 H 0.45043 0.83668 0.56111 0.0
H525 H 0.60439 0.86988 0.49112 0.0
H526 H 0.60753 0.83681 0.51252 0.0
H527 H 0.56952 0.82119 0.49093 0.0
H528 H 0.57775 0.73555 0.56042 0.0
H529 H 0.48668 0.69828 0.50857 0.0
H530 H 0.5641 0.82661 0.57013 0.0
H531 H 0.60442 0.83486 0.55171 0.0
H532 H 0.60156 0.80006 0.57292 0.0
H533 H 0.45386 0.78181 0.50636 0.0
H534 H 0.45849 0.74193 0.48979 0.0
H535 H 0.49384 0.79005 0.48775 0.0
C536 C 0.62754 0.5797 0.83114 0.0
C537 C 0.59558 0.54487 0.832 0.0
C538 C 0.66879 0.58007 0.83382 0.0
C539 C 0.67853 0.54488 0.83795 0.0
C540 C 0.6464 0.5095 0.83859 0.0
C541 C 0.60534 0.50986 0.83537 0.0
C542 C 0.702 0.61834 0.83258 0.0
C543 C 0.65509 0.47147 0.84362 0.0
C544 C 0.78964 0.54725 0.83001 0.0
C545 C 0.80736 0.55712 0.85092 0.0
C546 C 0.74739 0.54173 0.82562 0.0
C547 C 0.72227 0.54581 0.84259 0.0
C548 C 0.73975 0.55369 0.86392 0.0
C549 C 0.78203 0.5595 0.86778 0.0
C550 C 0.73025 0.53369 0.80261 0.0
C551 C 0.71407 0.55742 0.88257 0.0
H552 H 0.62031 0.60682 0.8283 0.0
H553 H 0.58084 0.48282 0.83616 0.0
H554 H 0.71923 0.62547 0.84843 0.0
H555 H 0.72419 0.61601 0.82047 0.0
H556 H 0.68947 0.64278 0.82815 0.0
H557 H 0.62884 0.44599 0.8385 0.0
H558 H 0.6829 0.46932 0.83575 0.0
H559 H 0.66083 0.46996 0.86133 0.0
H560 H 0.80913 0.54559 0.81691 0.0
H561 H 0.79555 0.56664 0.88402 0.0
H562 H 0.72774 0.56125 0.79546 0.0
H563 H 0.69907 0.51269 0.80189 0.0
H564 H 0.75037 0.52209 0.79254 0.0
H565 H 0.70272 0.58325 0.88036 0.0
H566 H 0.73158 0.56058 0.89839 0.0
H567 H 0.68683 0.53148 0.88302 0.0
C568 C 0.2294 0.83923 0.15381 0.0
C569 C 0.22031 0.79973 0.15913 0.0
C570 C 0.26573 0.86651 0.16185 0.0
C571 C 0.29376 0.85397 0.17545 0.0
C572 C 0.285 0.81412 0.1807 0.0
C573 C 0.24837 0.78757 0.17257 0.0
C574 C 0.274 0.90876 0.15592 0.0
C575 C 0.31414 0.79955 0.19513 0.0
C576 C 0.40544 0.91419 0.18291 0.0
C577 C 0.4064 0.93117 0.20348 0.0
C578 C 0.36877 0.88986 0.17332 0.0
C579 C 0.3321 0.88243 0.1845 0.0
C580 C 0.33255 0.90056 0.20492 0.0
C581 C 0.36968 0.92463 0.21417 0.0
C582 C 0.36953 0.87114 0.1515 0.0
C583 C 0.29406 0.89346 0.21733 0.0
H584 H 0.20818 0.84884 0.14323 0.0
H585 H 0.24136 0.75729 0.17711 0.0
H586 H 0.27703 0.92702 0.17077 0.0
H587 H 0.30345 0.91882 0.1478 0.0
H588 H 0.24925 0.91376 0.14505 0.0
H589 H 0.30329 0.76751 0.19723 0.0
H590 H 0.34488 0.80711 0.18826 0.0
H591 H 0.31787 0.81401 0.21129 0.0
H592 H 0.43355 0.91957 0.17439 0.0
H593 H 0.37018 0.93722 0.23017 0.0
H594 H 0.34614 0.87719 0.14012 0.0
H595 H 0.36169 0.83905 0.15311 0.0
H596 H 0.40001 0.88163 0.14438 0.0
H597 H 0.26914 0.89947 0.20706 0.0
H598 H 0.29897 0.91183 0.23228 0.0
H599 H 0.28339 0.8624 0.2219 0.0
C600 C 0.4903 0.17684 0.53544 0.0
C601 C 0.52509 0.16614 0.52953 0.0
C602 C 0.49006 0.21645 0.53661 0.0
C603 C 0.52571 0.24724 0.53219 0.0
C604 C 0.56102 0.23663 0.52633 0.0
C605 C 0.56017 0.1967 0.5249 0.0
C606 C 0.45126 0.22535 0.54254 0.0
C607 C 0.60016 0.26762 0.5218 0.0
C608 C 0.51648 0.35042 0.51821 0.0
C609 C 0.52557 0.37084 0.53822 0.0
C610 C 0.51624 0.31072 0.51604 0.0
C611 C 0.52618 0.29019 0.53414 0.0
C612 C 0.5361 0.31088 0.55426 0.0
C613 C 0.53533 0.35025 0.55607 0.0
C614 C 0.50468 0.29047 0.49427 0.0
C615 C 0.54782 0.29141 0.57406 0.0
H616 H 0.46276 0.15406 0.53898 0.0
H617 H 0.58746 0.18948 0.52037 0.0
H618 H 0.45689 0.24288 0.55778 0.0
H619 H 0.44178 0.24303 0.52978 0.0
H620 H 0.42559 0.19853 0.54469 0.0
H621 H 0.62503 0.25507 0.51745 0.0
H622 H 0.59452 0.28605 0.50838 0.0
H623 H 0.61082 0.28696 0.53626 0.0
H624 H 0.5086 0.36526 0.50421 0.0
H625 H 0.54316 0.36522 0.57161 0.0
H626 H 0.47759 0.26462 0.49558 0.0
H627 H 0.53016 0.27986 0.48883 0.0
H628 H 0.49742 0.30988 0.48177 0.0
H629 H 0.522 0.26588 0.57803 0.0
H630 H 0.55606 0.31144 0.58837 0.0
H631 H 0.5743 0.28047 0.57079 0.0
C632 C 0.3053 0.51535 0.81695 0.0
C633 C 0.33735 0.54785 0.82433 0.0
C634 C 0.26393 0.51423 0.81882 0.0
C635 C 0.25431 0.54653 0.8281 0.0
C636 C 0.28655 0.57976 0.83507 0.0
C637 C 0.32752 0.57993 0.8332 0.0
C638 C 0.23053 0.47814 0.81136 0.0
C639 C 0.2778 0.61503 0.84483 0.0
C640 C 0.14895 0.56255 0.81925 0.0
C641 C 0.13152 0.55183 0.83925 0.0
C642 C 0.18824 0.55972 0.81509 0.0
C643 C 0.21072 0.54547 0.83121 0.0
C644 C 0.19257 0.53287 0.85102 0.0
C645 C 0.15342 0.53637 0.85484 0.0
C646 C 0.20638 0.57349 0.79375 0.0
C647 C 0.21525 0.51724 0.86862 0.0
H648 H 0.31249 0.49034 0.81016 0.0
H649 H 0.35195 0.6053 0.83885 0.0
H650 H 0.21277 0.46473 0.82533 0.0
H651 H 0.20877 0.48588 0.79958 0.0
H652 H 0.24294 0.45614 0.80371 0.0
H653 H 0.30624 0.63913 0.84865 0.0
H654 H 0.25754 0.62586 0.83354 0.0
H655 H 0.26137 0.6069 0.85993 0.0
H656 H 0.13216 0.57389 0.80692 0.0
H657 H 0.14078 0.52849 0.87047 0.0
H658 H 0.21752 0.55069 0.78609 0.0
H659 H 0.23323 0.5996 0.79652 0.0
H660 H 0.18394 0.5811 0.78231 0.0
H661 H 0.227 0.49395 0.86201 0.0
H662 H 0.19557 0.50531 0.88223 0.0
H663 H 0.24215 0.54089 0.87504 0.0
C664 C 0.80632 0.33512 0.20179 0.0
C665 C 0.82678 0.33259 0.18295 0.0
C666 C 0.77414 0.30361 0.2083 0.0
C667 C 0.76204 0.26881 0.19563 0.0
C668 C 0.78127 0.26678 0.17605 0.0
C669 C 0.81348 0.29866 0.16998 0.0
C670 C 0.75451 0.30688 0.22932 0.0
C671 C 0.76902 0.23034 0.16199 0.0
C672 C 0.718 0.17415 0.22473 0.0
C673 C 0.67577 0.16634 0.21988 0.0
C674 C 0.74625 0.20736 0.21692 0.0
C675 C 0.73203 0.23345 0.20382 0.0
C676 C 0.68948 0.22567 0.19868 0.0
C677 C 0.66182 0.19217 0.20677 0.0
C678 C 0.79139 0.2145 0.22271 0.0
C679 C 0.67322 0.25282 0.18475 0.0
H680 H 0.8167 0.36111 0.21198 0.0
H681 H 0.82882 0.29679 0.15524 0.0
H682 H 0.72061 0.29784 0.2269 0.0
H683 H 0.76253 0.28698 0.24127 0.0
H684 H 0.76473 0.33698 0.23625 0.0
H685 H 0.78427 0.2347 0.14635 0.0
H686 H 0.77738 0.20647 0.1706 0.0
H687 H 0.73531 0.22067 0.15865 0.0
H688 H 0.72912 0.15397 0.23448 0.0
H689 H 0.62921 0.18647 0.20309 0.0
H690 H 0.80387 0.24304 0.23127 0.0
H691 H 0.80848 0.21572 0.20779 0.0
H692 H 0.79738 0.19148 0.23318 0.0
H693 H 0.68155 0.2822 0.19251 0.0
H694 H 0.63935 0.24232 0.18196 0.0
H695 H 0.6875 0.25604 0.16886 0.0
C696 C 0.99145 0.5739 0.07727 0.0
C697 C 1.01435 0.55085 0.08659 0.0
C698 C 0.98959 0.57885 0.0548 0.0
C699 C 1.01159 0.56071 0.04142 0.0
C700 C 0.03548 0.5381 0.05084 0.0
C701 C 0.03639 0.53329 0.07332 0.0
C702 C 0.96354 0.60294 0.04534 0.0
C703 C 0.05979 0.51872 0.03716 0.0
C704 C 0.97662 0.54111 0.9822 0.0
C705 C 1.00403 0.5723 0.9721 0.0
C706 C 0.97861 0.53713 0.00473 0.0
C707 C 1.00904 0.56474 0.01752 0.0
C708 C 0.03707 0.59605 0.00746 0.0
C709 C 0.0341 0.59957 0.98492 0.0
C710 C 0.94808 0.5034 0.01487 0.0
C711 C 0.07012 0.62593 0.02054 0.0
H712 H 0.97437 0.58753 0.08751 0.0
H713 H 0.05435 0.51565 0.08051 0.0
H714 H 0.98256 0.62705 0.03585 0.0
H715 H 0.93922 0.58463 0.03408 0.0
H716 H 0.94877 0.61552 0.05798 0.0
H717 H 0.0779 0.50321 0.04707 0.0
H718 H 0.03875 0.49746 0.02569 0.0
H719 H 0.08108 0.54077 0.0274 0.0
H720 H 0.95369 0.51957 0.97246 0.0
H721 H 0.05499 0.62413 0.97736 0.0
H722 H 0.93075 0.51445 0.02687 0.0
H723 H 0.96444 0.48503 0.02366 0.0
H724 H 0.92587 0.48483 0.0027 0.0
H725 H 0.05596 0.64105 0.03222 0.0
H726 H 0.09004 0.64809 0.01022 0.0
H727 H 0.0896 0.61133 0.03005 0.0
C728 C 0.47314 0.05055 0.44759 0.0
C729 C 0.49782 1.03495 0.4614 0.0
C730 C 0.47715 0.05056 0.42511 0.0
C731 C 0.5067 1.03481 0.41633 0.0
C732 C 0.53203 1.01949 0.43028 0.0
C733 C 0.52718 1.01965 0.45264 0.0
C734 C 0.44955 0.06706 0.41074 0.0
C735 C 0.56408 1.00267 0.42158 0.0
C736 C 0.49468 0.99828 0.35804 0.0
C737 C 0.52286 1.02878 0.34792 0.0
C738 C 0.4883 1.00035 0.38018 0.0
C739 C 0.51081 1.03363 0.39254 0.0
C740 C 0.53863 0.0649 0.38232 0.0
C741 C 0.54425 0.06214 0.36011 0.0
C742 C 0.45811 0.96653 0.39045 0.0
C743 C 0.5634 0.10076 0.39498 0.0
H744 H 0.45045 0.06245 0.45435 0.0
H745 H 0.54643 1.00769 0.46329 0.0
H746 H 0.46828 0.09081 0.40091 0.0
H747 H 0.43088 0.04412 0.39932 0.0
H748 H 0.42854 0.0787 0.42012 0.0
H749 H 0.58195 0.99279 0.43465 0.0
H750 H 0.54917 0.97752 0.4106 0.0
H751 H 0.58565 1.02476 0.41197 0.0
H752 H 0.4777 0.97266 0.34862 0.0
H753 H 0.56638 0.08562 0.35242 0.0
H754 H 0.43529 0.9769 0.39905 0.0
H755 H 0.47449 0.95317 0.40264 0.0
H756 H 0.44153 0.94369 0.3784 0.0
H757 H 0.5428 0.1136 0.40389 0.0
H758 H 0.58215 0.12332 0.38444 0.0
H759 H 0.58421 0.09263 0.40717 0.0
C760 C 0.48344 0.54392 0.75454 0.0
C761 C 0.46724 0.57214 0.76324 0.0
C762 C 0.48805 0.54118 0.73225 0.0
C763 C 0.47605 0.56731 0.71815 0.0
C764 C 0.45839 0.59513 0.72674 0.0
C765 C 0.45422 0.59724 0.74922 0.0
C766 C 0.507 0.51106 0.72388 0.0
C767 C 0.44496 0.62332 0.71226 0.0
C768 C 0.53107 0.58622 0.66546 0.0
C769 C 0.50276 0.56113 0.6508 0.0
C770 C 0.52232 0.58918 0.68724 0.0
C771 C 0.48416 0.5667 0.69466 0.0
C772 C 0.45495 0.54212 0.67987 0.0
C773 C 0.4646 0.53957 0.65815 0.0
C774 C 0.55438 0.61575 0.70244 0.0
C775 C 0.41391 0.51771 0.6871 0.0
H776 H 0.49344 0.5244 0.76527 0.0
H777 H 0.44157 0.61905 0.75584 0.0
H778 H 0.48669 0.49287 0.71093 0.0
H779 H 0.5366 0.52582 0.7167 0.0
H780 H 0.51272 0.49164 0.73682 0.0
H781 H 0.4293 0.64136 0.7212 0.0
H782 H 0.47204 0.64298 0.70478 0.0
H783 H 0.42385 0.60729 0.69892 0.0
H784 H 0.56029 0.60361 0.65989 0.0
H785 H 0.44262 0.51984 0.64706 0.0
H786 H 0.56428 0.59832 0.71519 0.0
H787 H 0.54126 0.63665 0.71063 0.0
H788 H 0.58184 0.63245 0.69397 0.0
H789 H 0.41848 0.49576 0.69875 0.0
H790 H 0.39345 0.50225 0.67336 0.0
H791 H 0.3983 0.53627 0.6956 0.0
C792 C 0.58597 1.0181 0.59596 0.0
C793 C 0.56745 0.04359 0.58546 0.0
C794 C 0.59966 1.02413 0.61769 0.0
C795 C 0.59484 0.05661 0.62915 0.0
C796 C 0.57327 0.08075 0.61909 0.0
C797 C 0.55964 0.07386 0.59725 0.0
C798 C 0.62209 0.99742 0.62784 0.0
C799 C 0.56722 0.11543 0.63088 0.0
C800 C 0.62192 0.06037 0.68947 0.0
C801 C 0.6631 0.08318 0.69025 0.0
C802 C 0.59864 0.05254 0.66979 0.0
C803 C 0.61707 0.06782 0.65048 0.0
C804 C 0.65833 0.09156 0.65126 0.0
C805 C 0.6808 0.09896 0.67112 0.0
C806 C 0.55475 1.0271 0.66956 0.0
C807 C 0.67912 0.10846 0.63102 0.0
H808 H 0.59153 0.99435 0.58687 0.0
H809 H 0.54523 0.09355 0.58912 0.0
H810 H 0.65519 1.01332 0.63024 0.0
H811 H 0.61039 0.98806 0.64394 0.0
H812 H 0.61901 0.97107 0.61762 0.0
H813 H 0.54462 0.1275 0.6221 0.0
H814 H 0.55674 0.10744 0.64738 0.0
H815 H 0.59692 0.13865 0.63265 0.0
H816 H 0.60812 0.04797 0.70421 0.0
H817 H 0.7123 0.11731 0.67169 0.0
H818 H 0.55202 0.99917 0.66098 0.0
H819 H 0.53426 0.04139 0.66065 0.0
H820 H 0.5438 1.02059 0.68613 0.0
H821 H 0.68089 0.08455 0.62001 0.0
H822 H 0.71067 0.12792 0.63455 0.0
H823 H 0.66092 0.12526 0.62227 0.0
C824 C 0.48402 0.54387 0.89745 0.0
C825 C 0.4477 0.52208 0.88642 0.0
C826 C 0.48816 0.54413 0.92009 0.0
C827 C 0.45493 0.52253 0.93202 0.0
C828 C 0.41759 0.50173 0.92099 0.0
C829 C 0.4145 0.50156 0.89827 0.0
C830 C 0.5286 0.56642 0.9312 0.0
C831 C 0.38127 0.47889 0.93317 0.0
C832 C 0.48024 0.48867 0.98757 0.0
C833 C 0.47262 0.51681 0.00129 0.0
C834 C 0.47446 0.49016 0.96504 0.0
C835 C 0.46011 0.52019 0.95593 0.0
C836 C 0.4518 0.5484 0.96964 0.0
C837 C 0.45842 0.54654 0.99212 0.0
C838 C 0.484 0.4597 0.95097 0.0
C839 C 0.4362 0.58071 0.96053 0.0
H840 H 0.50977 0.55987 0.88835 0.0
H841 H 0.3863 0.48489 0.88978 0.0
H842 H 0.52375 0.58706 0.94347 0.0
H843 H 0.54239 0.54586 0.93982 0.0
H844 H 0.55082 0.58303 0.91965 0.0
H845 H 0.35357 0.46662 0.92232 0.0
H846 H 0.38892 0.45456 0.94167 0.0
H847 H 0.37388 0.49776 0.94565 0.0
H848 H 0.49041 0.46513 0.99444 0.0
H849 H 0.45294 0.56874 0.00249 0.0
H850 H 0.50782 0.47394 0.93961 0.0
H851 H 0.45621 0.44367 0.94108 0.0
H852 H 0.49508 0.43835 0.96057 0.0
H853 H 0.45929 0.59934 0.9501 0.0
H854 H 0.4295 0.59935 0.97341 0.0
H855 H 0.40783 0.56826 0.95024 0.0
C856 C 1.01427 0.60813 0.22751 0.0
C857 C 0.02882 0.58598 0.21284 0.0
C858 C 1.0173 0.60239 0.24987 0.0
C859 C 0.03515 0.57369 0.25772 0.0
C860 C 0.04928 0.55082 0.24292 0.0
C861 C 0.04599 0.55728 0.22065 0.0
C862 C 1.0019 0.62737 0.26512 0.0
C863 C 0.0683 0.51981 0.25062 0.0
C864 C 0.0805 0.58328 0.31544 0.0
C865 C 0.04954 0.55651 0.32624 0.0
C866 C 0.07605 0.58938 0.2932 0.0
C867 C 0.0398 0.56813 0.28142 0.0
C868 C 1.00826 0.54133 0.29225 0.0
C869 C 1.01348 0.5359 0.31453 0.0
C870 C 0.11026 0.61843 0.28227 0.0
C871 C 0.96926 0.51798 0.28024 0.0
H872 H 1.00089 0.63029 0.22153 0.0
H873 H 0.05714 0.54001 0.20933 0.0
H874 H 0.97856 0.60868 0.27541 0.0
H875 H 0.02757 0.64446 0.27607 0.0
H876 H 0.9881 0.64788 0.25642 0.0
H877 H 0.07671 0.50382 0.23701 0.0
H878 H 0.09631 0.53329 0.26099 0.0
H879 H 0.04667 0.49856 0.26063 0.0
H880 H 0.10822 0.59964 0.32444 0.0
H881 H 0.98966 0.5148 0.32271 0.0
H882 H 0.09847 0.64102 0.2744 0.0
H883 H 0.12204 0.60355 0.2694 0.0
H884 H 0.1362 0.63302 0.29379 0.0
H885 H 0.95393 0.53782 0.27207 0.0
H886 H 0.94738 0.49884 0.29109 0.0
H887 H 0.97661 0.49958 0.26748 0.0
loop_
_geom_bond_atom_site_label_1
_geom_bond_atom_site_label_2
_geom_bond_distance
_geom_bond_site_symmetry_2
_ccdc_geom_bond_type
Pr0 C2 2.880 . S
Pr0 O20 2.562 . S
Pr0 O21 2.490 . S
Pr0 O22 2.695 1_655 S
Pr0 O23 2.512 . S
Pr0 O25 2.437 . S
Pr0 O28 2.432 . S
Pr0 O30 2.438 1_655 S
Pr1 C11 2.880 . S
Pr1 O22 2.436 . S
Pr1 O24 2.438 1_455 S
Pr1 O26 2.562 . S
Pr1 O27 2.490 . S
Pr1 O28 2.693 1_455 S
Pr1 O29 2.512 . S
Pr1 O31 2.437 . S
C2 Pr0 2.880 . S
C2 C3 1.491 . S
C2 O20 1.254 . S
C2 O21 1.225 . S
C3 C2 1.491 . S
C3 C4 1.392 . S
C3 C8 1.356 . S
C4 C3 1.392 . S
C4 C5 1.368 . S
C4 H32 0.929 . S
C5 C4 1.368 . S
C5 C6 1.386 . S
C5 H33 0.929 . S
C6 C5 1.386 . S
C6 C7 1.373 . S
C7 C6 1.373 . S
C7 C8 1.409 . S
C7 H34 0.931 . S
C8 C3 1.356 . S
C8 C7 1.409 . S
C8 H35 0.930 . S
C9 O22 1.270 . S
C9 O23 1.248 1_455 S
C10 O24 1.267 . S
C10 O25 1.278 . S
C11 Pr1 2.880 . S
C11 C12 1.491 . S
C11 O26 1.254 . S
C11 O27 1.225 . S
C12 C11 1.491 . S
C12 C13 1.392 . S
C12 C17 1.356 . S
C13 C12 1.392 . S
C13 C14 1.368 . S
C13 H36 0.929 . S
C14 C13 1.368 . S
C14 C15 1.386 . S
C14 H37 0.929 . S
C15 C14 1.386 . S
C15 C16 1.373 . S
C16 C15 1.373 . S
C16 C17 1.409 . S
C16 H38 0.931 . S
C17 C12 1.356 . S
C17 C16 1.409 . S
C17 H39 0.930 . S
C18 O28 1.268 1_455 S
C18 O29 1.248 . S
C19 O30 1.267 . S
C19 O31 1.278 . S
O20 Pr0 2.562 . S
O20 C2 1.254 . S
O21 Pr0 2.490 . S
O21 C2 1.225 . S
O22 Pr0 2.695 1_455 S
O22 Pr1 2.436 . S
O22 C9 1.270 . S
O23 Pr0 2.512 . S
O23 C9 1.248 1_655 S
O24 Pr1 2.438 1_655 S
O24 C10 1.267 . S
O25 Pr0 2.437 . S
O25 C10 1.278 . S
O26 Pr1 2.562 . S
O26 C11 1.254 . S
O27 Pr1 2.490 . S
O27 C11 1.225 . S
O28 Pr0 2.432 . S
O28 Pr1 2.693 1_655 S
O28 C18 1.268 1_655 S
O29 Pr1 2.512 . S
O29 C18 1.248 . S
O30 Pr0 2.438 1_455 S
O30 C19 1.267 . S
O31 Pr1 2.437 . S
O31 C19 1.278 . S
H32 C4 0.929 . S
H33 C5 0.929 . S
H34 C7 0.931 . S
H35 C8 0.930 . S
H36 C13 0.929 . S
H37 C14 0.929 . S
H38 C16 0.931 . S
H39 C17 0.930 . S
Pr40 C42 2.880 . S
Pr40 O60 2.562 . S
Pr40 O61 2.490 . S
Pr40 O62 2.695 . S
Pr40 O63 2.512 . S
Pr40 O65 2.437 . S
Pr40 O68 2.436 . S
Pr40 O70 2.438 1_545 S
Pr41 C51 2.880 . S
Pr41 O62 2.436 1_565 S
Pr41 O64 2.438 1_565 S
Pr41 O66 2.562 . S
Pr41 O67 2.490 . S
Pr41 O68 2.695 1_565 S
Pr41 O69 2.512 . S
Pr41 O71 2.437 . S
C42 Pr40 2.880 . S
C42 C43 1.491 . S
C42 O60 1.254 . S
C42 O61 1.225 . S
C43 C42 1.491 . S
C43 C44 1.392 . S
C43 C48 1.356 . S
C44 C43 1.392 . S
C44 C45 1.368 . S
C44 H72 0.929 . S
C45 C44 1.368 . S
C45 C46 1.386 . S
C45 H73 0.929 . S
C46 C45 1.386 . S
C46 C47 1.373 . S
C47 C46 1.373 . S
C47 C48 1.409 . S
C47 H74 0.931 . S
C48 C43 1.356 . S
C48 C47 1.409 . S
C48 H75 0.930 . S
C49 O62 1.270 . S
C49 O63 1.248 . S
C50 O64 1.267 . S
C50 O65 1.278 . S
C51 Pr41 2.880 . S
C51 C52 1.491 . S
C51 O66 1.254 . S
C51 O67 1.225 . S
C52 C51 1.491 . S
C52 C53 1.392 . S
C52 C57 1.356 . S
C53 C52 1.392 . S
C53 C54 1.368 . S
C53 H76 0.929 . S
C54 C53 1.368 . S
C54 C55 1.386 . S
C54 H77 0.929 . S
C55 C54 1.386 . S
C55 C56 1.373 . S
C56 C55 1.373 . S
C56 C57 1.409 . S
C56 H78 0.931 . S
C57 C52 1.356 . S
C57 C56 1.409 . S
C57 H79 0.930 . S
C58 O68 1.270 . S
C58 O69 1.248 1_545 S
C59 O70 1.267 . S
C59 O71 1.278 . S
O60 Pr40 2.562 . S
O60 C42 1.254 . S
O61 Pr40 2.490 . S
O61 C42 1.225 . S
O62 Pr40 2.695 . S
O62 Pr41 2.436 1_545 S
O62 C49 1.270 . S
O63 Pr40 2.512 . S
O63 C49 1.248 . S
O64 Pr41 2.438 1_545 S
O64 C50 1.267 . S
O65 Pr40 2.437 . S
O65 C50 1.278 . S
O66 Pr41 2.562 . S
O66 C51 1.254 . S
O67 Pr41 2.490 . S
O67 C51 1.225 . S
O68 Pr40 2.436 . S
O68 Pr41 2.695 1_545 S
O68 C58 1.270 . S
O69 Pr41 2.512 . S
O69 C58 1.248 1_565 S
O70 Pr40 2.438 1_565 S
O70 C59 1.267 . S
O71 Pr41 2.437 . S
O71 C59 1.278 . S
H72 C44 0.929 . S
H73 C45 0.929 . S
H74 C47 0.931 . S
H75 C48 0.930 . S
H76 C53 0.929 . S
H77 C54 0.929 . S
H78 C56 0.931 . S
H79 C57 0.930 . S
Pr80 C82 2.880 . S
Pr80 O100 2.562 . S
Pr80 O101 2.490 . S
Pr80 O102 2.695 . S
Pr80 O103 2.512 . S
Pr80 O105 2.437 . S
Pr80 O108 2.436 . S
Pr80 O110 2.438 . S
Pr81 C91 2.880 . S
Pr81 O102 2.436 . S
Pr81 O104 2.438 . S
Pr81 O106 2.562 . S
Pr81 O107 2.490 . S
Pr81 O108 2.695 . S
Pr81 O109 2.512 . S
Pr81 O111 2.437 . S
C82 Pr80 2.880 . S
C82 C83 1.491 . S
C82 O100 1.254 . S
C82 O101 1.225 . S
C83 C82 1.491 . S
C83 C84 1.392 . S
C83 C88 1.356 . S
C84 C83 1.392 . S
C84 C85 1.368 . S
C84 H112 0.929 . S
C85 C84 1.368 . S
C85 C86 1.386 . S
C85 H113 0.929 . S
C86 C85 1.386 . S
C86 C87 1.373 . S
C87 C86 1.373 . S
C87 C88 1.409 . S
C87 H114 0.931 . S
C88 C83 1.356 . S
C88 C87 1.409 . S
C88 H115 0.930 . S
C89 O102 1.270 . S
C89 O103 1.248 . S
C90 O104 1.267 . S
C90 O105 1.278 . S
C91 Pr81 2.880 . S
C91 C92 1.491 . S
C91 O106 1.254 . S
C91 O107 1.225 . S
C92 C91 1.491 . S
C92 C93 1.392 . S
C92 C97 1.356 . S
C93 C92 1.392 . S
C93 C94 1.368 . S
C93 H116 0.929 . S
C94 C93 1.368 . S
C94 C95 1.386 . S
C94 H117 0.929 . S
C95 C94 1.386 . S
C95 C96 1.373 . S
C96 C95 1.373 . S
C96 C97 1.409 . S
C96 H118 0.931 . S
C97 C92 1.356 . S
C97 C96 1.409 . S
C97 H119 0.930 . S
C98 O108 1.270 . S
C98 O109 1.248 . S
C99 O110 1.267 . S
C99 O111 1.278 . S
O100 Pr80 2.562 . S
O100 C82 1.254 . S
O101 Pr80 2.490 . S
O101 C82 1.225 . S
O102 Pr80 2.695 . S
O102 Pr81 2.436 . S
O102 C89 1.270 . S
O103 Pr80 2.512 . S
O103 C89 1.248 . S
O104 Pr81 2.438 . S
O104 C90 1.267 . S
O105 Pr80 2.437 . S
O105 C90 1.278 . S
O106 Pr81 2.562 . S
O106 C91 1.254 . S
O107 Pr81 2.490 . S
O107 C91 1.225 . S
O108 Pr80 2.436 . S
O108 Pr81 2.695 . S
O108 C98 1.270 . S
O109 Pr81 2.512 . S
O109 C98 1.248 . S
O110 Pr80 2.438 . S
O110 C99 1.267 . S
O111 Pr81 2.437 . S
O111 C99 1.278 . S
H112 C84 0.929 . S
H113 C85 0.929 . S
H114 C87 0.931 . S
H115 C88 0.930 . S
H116 C93 0.929 . S
H117 C94 0.929 . S
H118 C96 0.931 . S
H119 C97 0.930 . S
P120 O131 1.490 1_545 S
P120 C134 1.812 1_545 S
P120 C140 1.803 . S
P120 C146 1.819 . S
H121 C135 0.941 . S
H122 C136 0.939 . S
H123 C138 0.940 . S
H124 C139 0.940 1_545 S
H125 C141 0.939 . S
H126 C142 0.942 . S
H127 C144 0.940 . S
H128 C145 0.939 . S
H129 C147 0.941 . S
H130 C151 0.939 . S
O131 P120 1.490 1_565 S
H132 C148 0.939 . S
H133 C150 0.940 . S
C134 P120 1.812 1_565 S
C134 C135 1.389 . S
C134 C139 1.391 . S
C135 H121 0.941 . S
C135 C134 1.389 . S
C135 C136 1.397 . S
C136 H122 0.939 . S
C136 C135 1.397 . S
C136 C137 1.378 . S
C137 C136 1.378 . S
C137 C138 1.378 . S
C138 H123 0.940 . S
C138 C137 1.378 . S
C138 C139 1.396 . S
C139 H124 0.940 1_565 S
C139 C134 1.391 . S
C139 C138 1.396 . S
C140 P120 1.803 . S
C140 C141 1.378 . S
C140 C145 1.400 . S
C141 H125 0.939 . S
C141 C140 1.378 . S
C141 C142 1.361 . S
C142 H126 0.942 . S
C142 C141 1.361 . S
C142 C143 1.369 . S
C143 C142 1.369 . S
C143 C144 1.404 . S
C144 H127 0.940 . S
C144 C143 1.404 . S
C144 C145 1.389 . S
C145 H128 0.939 . S
C145 C140 1.400 . S
C145 C144 1.389 . S
C146 P120 1.819 . S
C146 C147 1.391 1_545 S
C146 C151 1.391 . S
C147 H129 0.941 . S
C147 C146 1.391 1_565 S
C147 C148 1.396 . S
C148 H132 0.939 . S
C148 C147 1.396 . S
C148 C149 1.397 1_565 S
C149 C148 1.397 1_545 S
C149 C150 1.385 . S
C150 H133 0.940 . S
C150 C149 1.385 . S
C150 C151 1.388 . S
C151 H130 0.939 . S
C151 C146 1.391 . S
C151 C150 1.388 . S
P152 O163 1.490 . S
P152 C166 1.812 . S
P152 C172 1.803 . S
P152 C178 1.819 . S
H153 C167 0.941 . S
H154 C168 0.939 . S
H155 C170 0.940 . S
H156 C171 0.940 . S
H157 C173 0.939 . S
H158 C174 0.942 . S
H159 C176 0.940 . S
H160 C177 0.939 . S
H161 C179 0.941 . S
H162 C183 0.939 . S
O163 P152 1.490 . S
H164 C180 0.939 . S
H165 C182 0.940 . S
C166 P152 1.812 . S
C166 C167 1.389 . S
C166 C171 1.391 . S
C167 H153 0.941 . S
C167 C166 1.389 . S
C167 C168 1.397 . S
C168 H154 0.939 . S
C168 C167 1.397 . S
C168 C169 1.378 . S
C169 C168 1.378 . S
C169 C170 1.378 . S
C170 H155 0.940 . S
C170 C169 1.378 . S
C170 C171 1.396 . S
C171 H156 0.940 . S
C171 C166 1.391 . S
C171 C170 1.396 . S
C172 P152 1.803 . S
C172 C173 1.378 . S
C172 C177 1.400 . S
C173 H157 0.939 . S
C173 C172 1.378 . S
C173 C174 1.361 . S
C174 H158 0.942 . S
C174 C173 1.361 . S
C174 C175 1.369 . S
C175 C174 1.369 . S
C175 C176 1.404 . S
C176 H159 0.940 . S
C176 C175 1.404 . S
C176 C177 1.389 . S
C177 H160 0.939 . S
C177 C172 1.400 . S
C177 C176 1.389 . S
C178 P152 1.819 . S
C178 C179 1.391 . S
C178 C183 1.391 . S
C179 H161 0.941 . S
C179 C178 1.391 . S
C179 C180 1.396 . S
C180 H164 0.939 . S
C180 C179 1.396 . S
C180 C181 1.397 . S
C181 C180 1.397 . S
C181 C182 1.385 . S
C182 H165 0.940 . S
C182 C181 1.385 . S
C182 C183 1.388 . S
C183 H162 0.939 . S
C183 C178 1.391 . S
C183 C182 1.388 . S
P184 O195 1.490 . S
P184 C198 1.812 . S
P184 C204 1.803 1_455 S
P184 C210 1.819 . S
H185 C199 0.941 . S
H186 C200 0.939 . S
H187 C202 0.940 . S
H188 C203 0.940 . S
H189 C205 0.939 . S
H190 C206 0.942 . S
H191 C208 0.940 . S
H192 C209 0.939 . S
H193 C211 0.941 . S
H194 C215 0.939 . S
O195 P184 1.490 . S
H196 C212 0.939 . S
H197 C214 0.940 . S
C198 P184 1.812 . S
C198 C199 1.389 . S
C198 C203 1.391 . S
C199 H185 0.941 . S
C199 C198 1.389 . S
C199 C200 1.397 . S
C200 H186 0.939 . S
C200 C199 1.397 . S
C200 C201 1.378 . S
C201 C200 1.378 . S
C201 C202 1.378 . S
C202 H187 0.940 . S
C202 C201 1.378 . S
C202 C203 1.396 . S
C203 H188 0.940 . S
C203 C198 1.391 . S
C203 C202 1.396 . S
C204 P184 1.803 1_655 S
C204 C205 1.378 . S
C204 C209 1.400 . S
C205 H189 0.939 . S
C205 C204 1.378 . S
C205 C206 1.361 . S
C206 H190 0.942 . S
C206 C205 1.361 . S
C206 C207 1.369 . S
C207 C206 1.369 . S
C207 C208 1.404 . S
C208 H191 0.940 . S
C208 C207 1.404 . S
C208 C209 1.389 . S
C209 H192 0.939 . S
C209 C204 1.400 . S
C209 C208 1.389 . S
C210 P184 1.819 . S
C210 C211 1.391 . S
C210 C215 1.391 1_455 S
C211 H193 0.941 . S
C211 C210 1.391 . S
C211 C212 1.396 . S
C212 H196 0.939 . S
C212 C211 1.396 . S
C212 C213 1.397 . S
C213 C212 1.397 . S
C213 C214 1.385 1_455 S
C214 H197 0.940 . S
C214 C213 1.385 1_655 S
C214 C215 1.388 . S
C215 H194 0.939 . S
C215 C210 1.391 1_655 S
C215 C214 1.388 . S
P216 O227 1.490 . S
P216 C230 1.812 . S
P216 C236 1.803 1_455 S
P216 C242 1.819 . S
H217 C231 0.941 . S
H218 C232 0.939 . S
H219 C234 0.940 . S
H220 C235 0.940 . S
H221 C237 0.939 . S
H222 C238 0.942 . S
H223 C240 0.940 . S
H224 C241 0.939 . S
H225 C243 0.941 . S
H226 C247 0.939 . S
O227 P216 1.490 . S
H228 C244 0.939 . S
H229 C246 0.940 . S
C230 P216 1.812 . S
C230 C231 1.389 . S
C230 C235 1.391 . S
C231 H217 0.941 . S
C231 C230 1.389 . S
C231 C232 1.397 . S
C232 H218 0.939 . S
C232 C231 1.397 . S
C232 C233 1.378 . S
C233 C232 1.378 . S
C233 C234 1.378 . S
C234 H219 0.940 . S
C234 C233 1.378 . S
C234 C235 1.396 . S
C235 H220 0.940 . S
C235 C230 1.391 . S
C235 C234 1.396 . S
C236 P216 1.803 1_655 S
C236 C237 1.378 . S
C236 C241 1.400 . S
C237 H221 0.939 . S
C237 C236 1.378 . S
C237 C238 1.361 . S
C238 H222 0.942 . S
C238 C237 1.361 . S
C238 C239 1.369 . S
C239 C238 1.369 . S
C239 C240 1.404 . S
C240 H223 0.940 . S
C240 C239 1.404 . S
C240 C241 1.389 . S
C241 H224 0.939 . S
C241 C236 1.400 . S
C241 C240 1.389 . S
C242 P216 1.819 . S
C242 C243 1.391 . S
C242 C247 1.391 1_455 S
C243 H225 0.941 . S
C243 C242 1.391 . S
C243 C244 1.396 . S
C244 H228 0.939 . S
C244 C243 1.396 . S
C244 C245 1.397 . S
C245 C244 1.397 . S
C245 C246 1.385 1_455 S
C246 H229 0.940 . S
C246 C245 1.385 1_655 S
C246 C247 1.388 . S
C247 H226 0.939 . S
C247 C242 1.391 1_655 S
C247 C246 1.388 . S
P248 O259 1.490 . S
P248 C262 1.812 . S
P248 C268 1.803 1_545 S
P248 C274 1.819 . S
H249 C263 0.941 . S
H250 C264 0.939 . S
H251 C266 0.940 . S
H252 C267 0.940 . S
H253 C269 0.939 . S
H254 C270 0.942 . S
H255 C272 0.940 . S
H256 C273 0.939 . S
H257 C275 0.941 . S
H258 C279 0.939 . S
O259 P248 1.490 . S
H260 C276 0.939 . S
H261 C278 0.940 . S
C262 P248 1.812 . S
C262 C263 1.389 . S
C262 C267 1.391 . S
C263 H249 0.941 . S
C263 C262 1.389 . S
C263 C264 1.397 . S
C264 H250 0.939 . S
C264 C263 1.397 . S
C264 C265 1.378 . S
C265 C264 1.378 . S
C265 C266 1.378 . S
C266 H251 0.940 . S
C266 C265 1.378 . S
C266 C267 1.396 . S
C267 H252 0.940 . S
C267 C262 1.391 . S
C267 C266 1.396 . S
C268 P248 1.803 1_565 S
C268 C269 1.378 . S
C268 C273 1.400 . S
C269 H253 0.939 . S
C269 C268 1.378 . S
C269 C270 1.361 . S
C270 H254 0.942 . S
C270 C269 1.361 . S
C270 C271 1.369 . S
C271 C270 1.369 . S
C271 C272 1.404 . S
C272 H255 0.940 . S
C272 C271 1.404 . S
C272 C273 1.389 . S
C273 H256 0.939 . S
C273 C268 1.400 . S
C273 C272 1.389 . S
C274 P248 1.819 . S
C274 C275 1.391 . S
C274 C279 1.391 1_545 S
C275 H257 0.941 . S
C275 C274 1.391 . S
C275 C276 1.396 . S
C276 H260 0.939 . S
C276 C275 1.396 . S
C276 C277 1.397 . S
C277 C276 1.397 . S
C277 C278 1.385 1_545 S
C278 H261 0.940 . S
C278 C277 1.385 1_565 S
C278 C279 1.388 . S
C279 H258 0.939 . S
C279 C274 1.391 1_565 S
C279 C278 1.388 . S
P280 O291 1.490 . S
P280 C294 1.812 . S
P280 C300 1.803 . S
P280 C306 1.819 . S
H281 C295 0.941 . S
H282 C296 0.939 . S
H283 C298 0.940 . S
H284 C299 0.940 . S
H285 C301 0.939 . S
H286 C302 0.942 . S
H287 C304 0.940 . S
H288 C305 0.939 . S
H289 C307 0.941 . S
H290 C311 0.939 . S
O291 P280 1.490 . S
H292 C308 0.939 . S
H293 C310 0.940 . S
C294 P280 1.812 . S
C294 C295 1.389 . S
C294 C299 1.391 . S
C295 H281 0.941 . S
C295 C294 1.389 . S
C295 C296 1.397 . S
C296 H282 0.939 . S
C296 C295 1.397 . S
C296 C297 1.378 . S
C297 C296 1.378 . S
C297 C298 1.378 . S
C298 H283 0.940 . S
C298 C297 1.378 . S
C298 C299 1.396 . S
C299 H284 0.940 . S
C299 C294 1.391 . S
C299 C298 1.396 . S
C300 P280 1.803 . S
C300 C301 1.378 . S
C300 C305 1.400 . S
C301 H285 0.939 . S
C301 C300 1.378 . S
C301 C302 1.361 . S
C302 H286 0.942 . S
C302 C301 1.361 . S
C302 C303 1.369 . S
C303 C302 1.369 . S
C303 C304 1.404 . S
C304 H287 0.940 . S
C304 C303 1.404 . S
C304 C305 1.389 . S
C305 H288 0.939 . S
C305 C300 1.400 . S
C305 C304 1.389 . S
C306 P280 1.819 . S
C306 C307 1.391 . S
C306 C311 1.391 . S
C307 H289 0.941 . S
C307 C306 1.391 . S
C307 C308 1.396 . S
C308 H292 0.939 . S
C308 C307 1.396 . S
C308 C309 1.397 . S
C309 C308 1.397 . S
C309 C310 1.385 . S
C310 H293 0.940 . S
C310 C309 1.385 . S
C310 C311 1.388 . S
C311 H290 0.939 . S
C311 C306 1.391 . S
C311 C310 1.388 . S
C312 C313 1.391 . S
C312 C314 1.394 . S
C312 H328 0.931 . S
C313 C312 1.391 . S
C313 C317 1.376 . S
C314 C312 1.394 . S
C314 C315 1.369 . S
C314 C318 1.531 . S
C315 C314 1.369 . S
C315 C316 1.410 . S
C315 C323 1.503 . S
C316 C315 1.410 . S
C316 C317 1.392 . S
C316 C319 1.511 . S
C317 C313 1.376 . S
C317 C316 1.392 . S
C317 H329 0.929 . S
C318 C314 1.531 . S
C318 H330 0.960 . S
C318 H331 0.962 . S
C318 H332 0.960 . S
C319 C316 1.511 . S
C319 H333 0.961 . S
C319 H334 0.961 . S
C319 H335 0.961 . S
C320 C321 1.370 . S
C320 C322 1.363 . S
C320 H336 0.931 . S
C321 C320 1.370 . S
C321 C325 1.408 . S
C322 C320 1.363 . S
C322 C323 1.370 . S
C322 C326 1.524 . S
C323 C315 1.503 . S
C323 C322 1.370 . S
C323 C324 1.403 . S
C324 C323 1.403 . S
C324 C325 1.404 . S
C324 C327 1.539 . S
C325 C321 1.408 . S
C325 C324 1.404 . S
C325 H337 0.930 . S
C326 C322 1.524 . S
C326 H338 0.956 . S
C326 H339 0.961 . S
C326 H340 0.961 . S
C327 C324 1.539 . S
C327 H341 0.958 . S
C327 H342 0.961 . S
C327 H343 0.960 . S
H328 C312 0.931 . S
H329 C317 0.929 . S
H330 C318 0.960 . S
H331 C318 0.962 . S
H332 C318 0.960 . S
H333 C319 0.961 . S
H334 C319 0.961 . S
H335 C319 0.961 . S
H336 C320 0.931 . S
H337 C325 0.930 . S
H338 C326 0.956 . S
H339 C326 0.961 . S
H340 C326 0.961 . S
H341 C327 0.958 . S
H342 C327 0.961 . S
H343 C327 0.960 . S
C344 C345 1.391 . S
C344 C346 1.394 . S
C344 H360 0.931 . S
C345 C344 1.391 . S
C345 C349 1.376 . S
C346 C344 1.394 . S
C346 C347 1.369 . S
C346 C350 1.531 . S
C347 C346 1.369 . S
C347 C348 1.410 . S
C347 C355 1.503 . S
C348 C347 1.410 . S
C348 C349 1.392 . S
C348 C351 1.511 . S
C349 C345 1.376 . S
C349 C348 1.392 . S
C349 H361 0.929 . S
C350 C346 1.531 . S
C350 H362 0.960 . S
C350 H363 0.962 . S
C350 H364 0.960 . S
C351 C348 1.511 . S
C351 H365 0.961 . S
C351 H366 0.961 . S
C351 H367 0.961 . S
C352 C353 1.370 . S
C352 C354 1.363 . S
C352 H368 0.931 . S
C353 C352 1.370 . S
C353 C357 1.408 . S
C354 C352 1.363 . S
C354 C355 1.370 . S
C354 C358 1.524 . S
C355 C347 1.503 . S
C355 C354 1.370 . S
C355 C356 1.403 . S
C356 C355 1.403 . S
C356 C357 1.404 . S
C356 C359 1.539 . S
C357 C353 1.408 . S
C357 C356 1.404 . S
C357 H369 0.930 . S
C358 C354 1.524 . S
C358 H370 0.956 . S
C358 H371 0.961 . S
C358 H372 0.961 . S
C359 C356 1.539 . S
C359 H373 0.958 . S
C359 H374 0.961 . S
C359 H375 0.960 . S
H360 C344 0.931 . S
H361 C349 0.929 . S
H362 C350 0.960 . S
H363 C350 0.962 . S
H364 C350 0.960 . S
H365 C351 0.961 . S
H366 C351 0.961 . S
H367 C351 0.961 . S
H368 C352 0.931 . S
H369 C357 0.930 . S
H370 C358 0.956 . S
H371 C358 0.961 . S
H372 C358 0.961 . S
H373 C359 0.958 . S
H374 C359 0.961 . S
H375 C359 0.960 . S
C376 C377 1.391 . S
C376 C378 1.394 . S
C376 H392 0.931 . S
C377 C376 1.391 . S
C377 C381 1.376 . S
C378 C376 1.394 . S
C378 C379 1.369 . S
C378 C382 1.531 . S
C379 C378 1.369 . S
C379 C380 1.410 . S
C379 C387 1.503 . S
C380 C379 1.410 . S
C380 C381 1.392 . S
C380 C383 1.511 . S
C381 C377 1.376 . S
C381 C380 1.392 . S
C381 H393 0.929 . S
C382 C378 1.531 . S
C382 H394 0.960 . S
C382 H395 0.962 . S
C382 H396 0.960 . S
C383 C380 1.511 . S
C383 H397 0.961 . S
C383 H398 0.961 . S
C383 H399 0.961 . S
C384 C385 1.370 . S
C384 C386 1.363 . S
C384 H400 0.931 . S
C385 C384 1.370 . S
C385 C389 1.408 . S
C386 C384 1.363 . S
C386 C387 1.370 . S
C386 C390 1.524 . S
C387 C379 1.503 . S
C387 C386 1.370 . S
C387 C388 1.403 . S
C388 C387 1.403 . S
C388 C389 1.404 . S
C388 C391 1.539 . S
C389 C385 1.408 . S
C389 C388 1.404 . S
C389 H401 0.930 . S
C390 C386 1.524 . S
C390 H402 0.956 . S
C390 H403 0.961 . S
C390 H404 0.961 . S
C391 C388 1.539 . S
C391 H405 0.958 . S
C391 H406 0.961 . S
C391 H407 0.960 . S
H392 C376 0.931 . S
H393 C381 0.929 . S
H394 C382 0.960 . S
H395 C382 0.962 . S
H396 C382 0.960 . S
H397 C383 0.961 . S
H398 C383 0.961 . S
H399 C383 0.961 . S
H400 C384 0.931 . S
H401 C389 0.930 . S
H402 C390 0.956 . S
H403 C390 0.961 . S
H404 C390 0.961 . S
H405 C391 0.958 . S
H406 C391 0.961 . S
H407 C391 0.960 . S
C408 C409 1.391 . S
C408 C410 1.394 . S
C408 H424 0.931 . S
C409 C408 1.391 . S
C409 C413 1.376 . S
C410 C408 1.394 . S
C410 C411 1.369 . S
C410 C414 1.531 . S
C411 C410 1.369 . S
C411 C412 1.410 . S
C411 C419 1.503 . S
C412 C411 1.410 . S
C412 C413 1.392 . S
C412 C415 1.511 . S
C413 C409 1.376 . S
C413 C412 1.392 . S
C413 H425 0.929 . S
C414 C410 1.531 . S
C414 H426 0.960 . S
C414 H427 0.962 . S
C414 H428 0.960 . S
C415 C412 1.511 . S
C415 H429 0.961 . S
C415 H430 0.961 . S
C415 H431 0.961 . S
C416 C417 1.370 . S
C416 C418 1.363 . S
C416 H432 0.931 . S
C417 C416 1.370 . S
C417 C421 1.408 . S
C418 C416 1.363 . S
C418 C419 1.370 . S
C418 C422 1.524 . S
C419 C411 1.503 . S
C419 C418 1.370 . S
C419 C420 1.403 . S
C420 C419 1.403 . S
C420 C421 1.404 . S
C420 C423 1.539 . S
C421 C417 1.408 . S
C421 C420 1.404 . S
C421 H433 0.930 . S
C422 C418 1.524 . S
C422 H434 0.956 . S
C422 H435 0.961 . S
C422 H436 0.961 . S
C423 C420 1.539 . S
C423 H437 0.958 . S
C423 H438 0.961 . S
C423 H439 0.960 . S
H424 C408 0.931 . S
H425 C413 0.929 . S
H426 C414 0.960 . S
H427 C414 0.962 . S
H428 C414 0.960 . S
H429 C415 0.961 . S
H430 C415 0.961 . S
H431 C415 0.961 . S
H432 C416 0.931 . S
H433 C421 0.930 . S
H434 C422 0.956 . S
H435 C422 0.961 . S
H436 C422 0.961 . S
H437 C423 0.958 . S
H438 C423 0.961 . S
H439 C423 0.960 . S
C440 C441 1.391 . S
C440 C442 1.394 . S
C440 H456 0.931 . S
C441 C440 1.391 . S
C441 C445 1.376 . S
C442 C440 1.394 . S
C442 C443 1.369 . S
C442 C446 1.531 . S
C443 C442 1.369 . S
C443 C444 1.410 . S
C443 C451 1.503 . S
C444 C443 1.410 . S
C444 C445 1.392 . S
C444 C447 1.511 . S
C445 C441 1.376 . S
C445 C444 1.392 . S
C445 H457 0.929 . S
C446 C442 1.531 . S
C446 H458 0.960 . S
C446 H459 0.962 . S
C446 H460 0.960 . S
C447 C444 1.511 . S
C447 H461 0.961 . S
C447 H462 0.961 . S
C447 H463 0.961 . S
C448 C449 1.370 . S
C448 C450 1.363 . S
C448 H464 0.931 . S
C449 C448 1.370 . S
C449 C453 1.408 . S
C450 C448 1.363 . S
C450 C451 1.370 . S
C450 C454 1.524 . S
C451 C443 1.503 . S
C451 C450 1.370 . S
C451 C452 1.403 . S
C452 C451 1.403 . S
C452 C453 1.404 . S
C452 C455 1.539 . S
C453 C449 1.408 . S
C453 C452 1.404 . S
C453 H465 0.930 . S
C454 C450 1.524 . S
C454 H466 0.956 . S
C454 H467 0.961 . S
C454 H468 0.961 . S
C455 C452 1.539 . S
C455 H469 0.958 . S
C455 H470 0.961 . S
C455 H471 0.960 . S
H456 C440 0.931 . S
H457 C445 0.929 . S
H458 C446 0.960 . S
H459 C446 0.962 . S
H460 C446 0.960 . S
H461 C447 0.961 . S
H462 C447 0.961 . S
H463 C447 0.961 . S
H464 C448 0.931 . S
H465 C453 0.930 . S
H466 C454 0.956 . S
H467 C454 0.961 . S
H468 C454 0.961 . S
H469 C455 0.958 . S
H470 C455 0.961 . S
H471 C455 0.960 . S
C472 C473 1.391 . S
C472 C474 1.394 . S
C472 H488 0.931 . S
C473 C472 1.391 . S
C473 C477 1.376 . S
C474 C472 1.394 . S
C474 C475 1.369 . S
C474 C478 1.531 . S
C475 C474 1.369 . S
C475 C476 1.410 . S
C475 C483 1.503 . S
C476 C475 1.410 . S
C476 C477 1.392 . S
C476 C479 1.511 . S
C477 C473 1.376 . S
C477 C476 1.392 . S
C477 H489 0.929 . S
C478 C474 1.531 . S
C478 H490 0.960 . S
C478 H491 0.962 . S
C478 H492 0.960 . S
C479 C476 1.511 . S
C479 H493 0.961 . S
C479 H494 0.961 . S
C479 H495 0.961 . S
C480 C481 1.370 . S
C480 C482 1.363 . S
C480 H496 0.931 . S
C481 C480 1.370 . S
C481 C485 1.408 . S
C482 C480 1.363 . S
C482 C483 1.370 . S
C482 C486 1.524 . S
C483 C475 1.503 . S
C483 C482 1.370 . S
C483 C484 1.403 . S
C484 C483 1.403 . S
C484 C485 1.404 . S
C484 C487 1.539 . S
C485 C481 1.408 . S
C485 C484 1.404 . S
C485 H497 0.930 . S
C486 C482 1.524 . S
C486 H498 0.956 . S
C486 H499 0.961 . S
C486 H500 0.961 . S
C487 C484 1.539 . S
C487 H501 0.958 . S
C487 H502 0.961 . S
C487 H503 0.960 . S
H488 C472 0.931 . S
H489 C477 0.929 . S
H490 C478 0.960 . S
H491 C478 0.962 . S
H492 C478 0.960 . S
H493 C479 0.961 . S
H494 C479 0.961 . S
H495 C479 0.961 . S
H496 C480 0.931 . S
H497 C485 0.930 . S
H498 C486 0.956 . S
H499 C486 0.961 . S
H500 C486 0.961 . S
H501 C487 0.958 . S
H502 C487 0.961 . S
H503 C487 0.960 . S
C504 C505 1.391 . S
C504 C506 1.394 . S
C504 H520 0.931 . S
C505 C504 1.391 . S
C505 C509 1.376 . S
C506 C504 1.394 . S
C506 C507 1.369 . S
C506 C510 1.531 . S
C507 C506 1.369 . S
C507 C508 1.410 . S
C507 C515 1.503 . S
C508 C507 1.410 . S
C508 C509 1.392 . S
C508 C511 1.511 . S
C509 C505 1.376 . S
C509 C508 1.392 . S
C509 H521 0.929 . S
C510 C506 1.531 . S
C510 H522 0.960 . S
C510 H523 0.962 . S
C510 H524 0.960 . S
C511 C508 1.511 . S
C511 H525 0.961 . S
C511 H526 0.961 . S
C511 H527 0.961 . S
C512 C513 1.370 . S
C512 C514 1.363 . S
C512 H528 0.931 . S
C513 C512 1.370 . S
C513 C517 1.408 . S
C514 C512 1.363 . S
C514 C515 1.370 . S
C514 C518 1.524 . S
C515 C507 1.503 . S
C515 C514 1.370 . S
C515 C516 1.403 . S
C516 C515 1.403 . S
C516 C517 1.404 . S
C516 C519 1.539 . S
C517 C513 1.408 . S
C517 C516 1.404 . S
C517 H529 0.930 . S
C518 C514 1.524 . S
C518 H530 0.956 . S
C518 H531 0.961 . S
C518 H532 0.961 . S
C519 C516 1.539 . S
C519 H533 0.958 . S
C519 H534 0.961 . S
C519 H535 0.960 . S
H520 C504 0.931 . S
H521 C509 0.929 . S
H522 C510 0.960 . S
H523 C510 0.962 . S
H524 C510 0.960 . S
H525 C511 0.961 . S
H526 C511 0.961 . S
H527 C511 0.961 . S
H528 C512 0.931 . S
H529 C517 0.930 . S
H530 C518 0.956 . S
H531 C518 0.961 . S
H532 C518 0.961 . S
H533 C519 0.958 . S
H534 C519 0.961 . S
H535 C519 0.960 . S
C536 C537 1.391 . S
C536 C538 1.394 . S
C536 H552 0.931 . S
C537 C536 1.391 . S
C537 C541 1.376 . S
C538 C536 1.394 . S
C538 C539 1.369 . S
C538 C542 1.531 . S
C539 C538 1.369 . S
C539 C540 1.410 . S
C539 C547 1.503 . S
C540 C539 1.410 . S
C540 C541 1.392 . S
C540 C543 1.511 . S
C541 C537 1.376 . S
C541 C540 1.392 . S
C541 H553 0.929 . S
C542 C538 1.531 . S
C542 H554 0.960 . S
C542 H555 0.962 . S
C542 H556 0.960 . S
C543 C540 1.511 . S
C543 H557 0.961 . S
C543 H558 0.961 . S
C543 H559 0.961 . S
C544 C545 1.370 . S
C544 C546 1.363 . S
C544 H560 0.931 . S
C545 C544 1.370 . S
C545 C549 1.408 . S
C546 C544 1.363 . S
C546 C547 1.370 . S
C546 C550 1.524 . S
C547 C539 1.503 . S
C547 C546 1.370 . S
C547 C548 1.403 . S
C548 C547 1.403 . S
C548 C549 1.404 . S
C548 C551 1.539 . S
C549 C545 1.408 . S
C549 C548 1.404 . S
C549 H561 0.930 . S
C550 C546 1.524 . S
C550 H562 0.956 . S
C550 H563 0.961 . S
C550 H564 0.961 . S
C551 C548 1.539 . S
C551 H565 0.958 . S
C551 H566 0.961 . S
C551 H567 0.960 . S
H552 C536 0.931 . S
H553 C541 0.929 . S
H554 C542 0.960 . S
H555 C542 0.962 . S
H556 C542 0.960 . S
H557 C543 0.961 . S
H558 C543 0.961 . S
H559 C543 0.961 . S
H560 C544 0.931 . S
H561 C549 0.930 . S
H562 C550 0.956 . S
H563 C550 0.961 . S
H564 C550 0.961 . S
H565 C551 0.958 . S
H566 C551 0.961 . S
H567 C551 0.960 . S
C568 C569 1.391 . S
C568 C570 1.394 . S
C568 H584 0.931 . S
C569 C568 1.391 . S
C569 C573 1.376 . S
C570 C568 1.394 . S
C570 C571 1.369 . S
C570 C574 1.531 . S
C571 C570 1.369 . S
C571 C572 1.410 . S
C571 C579 1.503 . S
C572 C571 1.410 . S
C572 C573 1.392 . S
C572 C575 1.511 . S
C573 C569 1.376 . S
C573 C572 1.392 . S
C573 H585 0.929 . S
C574 C570 1.531 . S
C574 H586 0.960 . S
C574 H587 0.962 . S
C574 H588 0.960 . S
C575 C572 1.511 . S
C575 H589 0.961 . S
C575 H590 0.961 . S
C575 H591 0.961 . S
C576 C577 1.370 . S
C576 C578 1.363 . S
C576 H592 0.931 . S
C577 C576 1.370 . S
C577 C581 1.408 . S
C578 C576 1.363 . S
C578 C579 1.370 . S
C578 C582 1.524 . S
C579 C571 1.503 . S
C579 C578 1.370 . S
C579 C580 1.403 . S
C580 C579 1.403 . S
C580 C581 1.404 . S
C580 C583 1.539 . S
C581 C577 1.408 . S
C581 C580 1.404 . S
C581 H593 0.930 . S
C582 C578 1.524 . S
C582 H594 0.956 . S
C582 H595 0.961 . S
C582 H596 0.961 . S
C583 C580 1.539 . S
C583 H597 0.958 . S
C583 H598 0.961 . S
C583 H599 0.960 . S
H584 C568 0.931 . S
H585 C573 0.929 . S
H586 C574 0.960 . S
H587 C574 0.962 . S
H588 C574 0.960 . S
H589 C575 0.961 . S
H590 C575 0.961 . S
H591 C575 0.961 . S
H592 C576 0.931 . S
H593 C581 0.930 . S
H594 C582 0.956 . S
H595 C582 0.961 . S
H596 C582 0.961 . S
H597 C583 0.958 . S
H598 C583 0.961 . S
H599 C583 0.960 . S
C600 C601 1.391 . S
C600 C602 1.394 . S
C600 H616 0.931 . S
C601 C600 1.391 . S
C601 C605 1.376 . S
C602 C600 1.394 . S
C602 C603 1.369 . S
C602 C606 1.531 . S
C603 C602 1.369 . S
C603 C604 1.410 . S
C603 C611 1.503 . S
C604 C603 1.410 . S
C604 C605 1.392 . S
C604 C607 1.511 . S
C605 C601 1.376 . S
C605 C604 1.392 . S
C605 H617 0.929 . S
C606 C602 1.531 . S
C606 H618 0.960 . S
C606 H619 0.962 . S
C606 H620 0.960 . S
C607 C604 1.511 . S
C607 H621 0.961 . S
C607 H622 0.961 . S
C607 H623 0.961 . S
C608 C609 1.370 . S
C608 C610 1.363 . S
C608 H624 0.931 . S
C609 C608 1.370 . S
C609 C613 1.408 . S
C610 C608 1.363 . S
C610 C611 1.370 . S
C610 C614 1.524 . S
C611 C603 1.503 . S
C611 C610 1.370 . S
C611 C612 1.403 . S
C612 C611 1.403 . S
C612 C613 1.404 . S
C612 C615 1.539 . S
C613 C609 1.408 . S
C613 C612 1.404 . S
C613 H625 0.930 . S
C614 C610 1.524 . S
C614 H626 0.956 . S
C614 H627 0.961 . S
C614 H628 0.961 . S
C615 C612 1.539 . S
C615 H629 0.958 . S
C615 H630 0.961 . S
C615 H631 0.960 . S
H616 C600 0.931 . S
H617 C605 0.929 . S
H618 C606 0.960 . S
H619 C606 0.962 . S
H620 C606 0.960 . S
H621 C607 0.961 . S
H622 C607 0.961 . S
H623 C607 0.961 . S
H624 C608 0.931 . S
H625 C613 0.930 . S
H626 C614 0.956 . S
H627 C614 0.961 . S
H628 C614 0.961 . S
H629 C615 0.958 . S
H630 C615 0.961 . S
H631 C615 0.960 . S
C632 C633 1.391 . S
C632 C634 1.394 . S
C632 H648 0.931 . S
C633 C632 1.391 . S
C633 C637 1.376 . S
C634 C632 1.394 . S
C634 C635 1.369 . S
C634 C638 1.531 . S
C635 C634 1.369 . S
C635 C636 1.410 . S
C635 C643 1.503 . S
C636 C635 1.410 . S
C636 C637 1.392 . S
C636 C639 1.511 . S
C637 C633 1.376 . S
C637 C636 1.392 . S
C637 H649 0.929 . S
C638 C634 1.531 . S
C638 H650 0.960 . S
C638 H651 0.962 . S
C638 H652 0.960 . S
C639 C636 1.511 . S
C639 H653 0.961 . S
C639 H654 0.961 . S
C639 H655 0.961 . S
C640 C641 1.370 . S
C640 C642 1.363 . S
C640 H656 0.931 . S
C641 C640 1.370 . S
C641 C645 1.408 . S
C642 C640 1.363 . S
C642 C643 1.370 . S
C642 C646 1.524 . S
C643 C635 1.503 . S
C643 C642 1.370 . S
C643 C644 1.403 . S
C644 C643 1.403 . S
C644 C645 1.404 . S
C644 C647 1.539 . S
C645 C641 1.408 . S
C645 C644 1.404 . S
C645 H657 0.930 . S
C646 C642 1.524 . S
C646 H658 0.956 . S
C646 H659 0.961 . S
C646 H660 0.961 . S
C647 C644 1.539 . S
C647 H661 0.958 . S
C647 H662 0.961 . S
C647 H663 0.960 . S
H648 C632 0.931 . S
H649 C637 0.929 . S
H650 C638 0.960 . S
H651 C638 0.962 . S
H652 C638 0.960 . S
H653 C639 0.961 . S
H654 C639 0.961 . S
H655 C639 0.961 . S
H656 C640 0.931 . S
H657 C645 0.930 . S
H658 C646 0.956 . S
H659 C646 0.961 . S
H660 C646 0.961 . S
H661 C647 0.958 . S
H662 C647 0.961 . S
H663 C647 0.960 . S
C664 C665 1.391 . S
C664 C666 1.394 . S
C664 H680 0.931 . S
C665 C664 1.391 . S
C665 C669 1.376 . S
C666 C664 1.394 . S
C666 C667 1.369 . S
C666 C670 1.531 . S
C667 C666 1.369 . S
C667 C668 1.410 . S
C667 C675 1.503 . S
C668 C667 1.410 . S
C668 C669 1.392 . S
C668 C671 1.511 . S
C669 C665 1.376 . S
C669 C668 1.392 . S
C669 H681 0.929 . S
C670 C666 1.531 . S
C670 H682 0.960 . S
C670 H683 0.962 . S
C670 H684 0.960 . S
C671 C668 1.511 . S
C671 H685 0.961 . S
C671 H686 0.961 . S
C671 H687 0.961 . S
C672 C673 1.370 . S
C672 C674 1.363 . S
C672 H688 0.931 . S
C673 C672 1.370 . S
C673 C677 1.408 . S
C674 C672 1.363 . S
C674 C675 1.370 . S
C674 C678 1.524 . S
C675 C667 1.503 . S
C675 C674 1.370 . S
C675 C676 1.403 . S
C676 C675 1.403 . S
C676 C677 1.404 . S
C676 C679 1.539 . S
C677 C673 1.408 . S
C677 C676 1.404 . S
C677 H689 0.930 . S
C678 C674 1.524 . S
C678 H690 0.956 . S
C678 H691 0.961 . S
C678 H692 0.961 . S
C679 C676 1.539 . S
C679 H693 0.958 . S
C679 H694 0.961 . S
C679 H695 0.960 . S
H680 C664 0.931 . S
H681 C669 0.929 . S
H682 C670 0.960 . S
H683 C670 0.962 . S
H684 C670 0.960 . S
H685 C671 0.961 . S
H686 C671 0.961 . S
H687 C671 0.961 . S
H688 C672 0.931 . S
H689 C677 0.930 . S
H690 C678 0.956 . S
H691 C678 0.961 . S
H692 C678 0.961 . S
H693 C679 0.958 . S
H694 C679 0.961 . S
H695 C679 0.960 . S
C696 C697 1.391 1_655 S
C696 C698 1.394 . S
C696 H712 0.931 . S
C697 C696 1.391 1_455 S
C697 C701 1.376 . S
C698 C696 1.394 . S
C698 C699 1.369 1_655 S
C698 C702 1.531 . S
C699 C698 1.369 1_455 S
C699 C700 1.410 . S
C699 C707 1.503 . S
C700 C699 1.410 . S
C700 C701 1.392 . S
C700 C703 1.511 . S
C701 C697 1.376 . S
C701 C700 1.392 . S
C701 H713 0.929 . S
C702 C698 1.531 . S
C702 H714 0.960 . S
C702 H715 0.962 . S
C702 H716 0.960 . S
C703 C700 1.511 . S
C703 H717 0.961 . S
C703 H718 0.961 . S
C703 H719 0.961 . S
C704 C705 1.370 1_655 S
C704 C706 1.363 1_556 S
C704 H720 0.931 . S
C705 C704 1.370 1_455 S
C705 C709 1.408 . S
C706 C704 1.363 1_554 S
C706 C707 1.370 1_655 S
C706 C710 1.524 . S
C707 C699 1.503 . S
C707 C706 1.370 1_455 S
C707 C708 1.403 . S
C708 C707 1.403 . S
C708 C709 1.404 1_554 S
C708 C711 1.539 . S
C709 C705 1.408 . S
C709 C708 1.404 1_556 S
C709 H721 0.930 . S
C710 C706 1.524 . S
C710 H722 0.956 . S
C710 H723 0.961 . S
C710 H724 0.961 . S
C711 C708 1.539 . S
C711 H725 0.958 . S
C711 H726 0.961 . S
C711 H727 0.960 . S
H712 C696 0.931 . S
H713 C701 0.929 . S
H714 C702 0.960 . S
H715 C702 0.962 . S
H716 C702 0.960 . S
H717 C703 0.961 . S
H718 C703 0.961 . S
H719 C703 0.961 . S
H720 C704 0.931 . S
H721 C709 0.930 . S
H722 C710 0.956 . S
H723 C710 0.961 . S
H724 C710 0.961 . S
H725 C711 0.958 . S
H726 C711 0.961 . S
H727 C711 0.960 . S
C728 C729 1.391 . S
C728 C730 1.394 . S
C728 H744 0.931 . S
C729 C728 1.391 . S
C729 C733 1.376 . S
C730 C728 1.394 . S
C730 C731 1.369 . S
C730 C734 1.531 . S
C731 C730 1.369 . S
C731 C732 1.410 . S
C731 C739 1.503 . S
C732 C731 1.410 . S
C732 C733 1.392 . S
C732 C735 1.511 1_545 S
C733 C729 1.376 . S
C733 C732 1.392 . S
C733 H745 0.929 1_545 S
C734 C730 1.531 . S
C734 H746 0.960 . S
C734 H747 0.962 . S
C734 H748 0.960 . S
C735 C732 1.511 1_565 S
C735 H749 0.961 . S
C735 H750 0.961 . S
C735 H751 0.961 1_565 S
C736 C737 1.370 . S
C736 C738 1.363 . S
C736 H752 0.931 1_545 S
C737 C736 1.370 . S
C737 C741 1.408 . S
C738 C736 1.363 . S
C738 C739 1.370 . S
C738 C742 1.524 1_545 S
C739 C731 1.503 . S
C739 C738 1.370 . S
C739 C740 1.403 . S
C740 C739 1.403 . S
C740 C741 1.404 . S
C740 C743 1.539 . S
C741 C737 1.408 . S
C741 C740 1.404 . S
C741 H753 0.930 . S
C742 C738 1.524 1_565 S
C742 H754 0.956 . S
C742 H755 0.961 . S
C742 H756 0.961 . S
C743 C740 1.539 . S
C743 H757 0.958 . S
C743 H758 0.961 . S
C743 H759 0.960 . S
H744 C728 0.931 . S
H745 C733 0.929 1_565 S
H746 C734 0.960 . S
H747 C734 0.962 . S
H748 C734 0.960 . S
H749 C735 0.961 . S
H750 C735 0.961 . S
H751 C735 0.961 1_545 S
H752 C736 0.931 1_565 S
H753 C741 0.930 . S
H754 C742 0.956 . S
H755 C742 0.961 . S
H756 C742 0.961 . S
H757 C743 0.958 . S
H758 C743 0.961 . S
H759 C743 0.960 . S
C760 C761 1.391 . S
C760 C762 1.394 . S
C760 H776 0.931 . S
C761 C760 1.391 . S
C761 C765 1.376 . S
C762 C760 1.394 . S
C762 C763 1.369 . S
C762 C766 1.531 . S
C763 C762 1.369 . S
C763 C764 1.410 . S
C763 C771 1.503 . S
C764 C763 1.410 . S
C764 C765 1.392 . S
C764 C767 1.511 . S
C765 C761 1.376 . S
C765 C764 1.392 . S
C765 H777 0.929 . S
C766 C762 1.531 . S
C766 H778 0.960 . S
C766 H779 0.962 . S
C766 H780 0.960 . S
C767 C764 1.511 . S
C767 H781 0.961 . S
C767 H782 0.961 . S
C767 H783 0.961 . S
C768 C769 1.370 . S
C768 C770 1.363 . S
C768 H784 0.931 . S
C769 C768 1.370 . S
C769 C773 1.408 . S
C770 C768 1.363 . S
C770 C771 1.370 . S
C770 C774 1.524 . S
C771 C763 1.503 . S
C771 C770 1.370 . S
C771 C772 1.403 . S
C772 C771 1.403 . S
C772 C773 1.404 . S
C772 C775 1.539 . S
C773 C769 1.408 . S
C773 C772 1.404 . S
C773 H785 0.930 . S
C774 C770 1.524 . S
C774 H786 0.956 . S
C774 H787 0.961 . S
C774 H788 0.961 . S
C775 C772 1.539 . S
C775 H789 0.958 . S
C775 H790 0.961 . S
C775 H791 0.960 . S
H776 C760 0.931 . S
H777 C765 0.929 . S
H778 C766 0.960 . S
H779 C766 0.962 . S
H780 C766 0.960 . S
H781 C767 0.961 . S
H782 C767 0.961 . S
H783 C767 0.961 . S
H784 C768 0.931 . S
H785 C773 0.930 . S
H786 C774 0.956 . S
H787 C774 0.961 . S
H788 C774 0.961 . S
H789 C775 0.958 . S
H790 C775 0.961 . S
H791 C775 0.960 . S
C792 C793 1.391 . S
C792 C794 1.394 . S
C792 H808 0.931 . S
C793 C792 1.391 . S
C793 C797 1.376 . S
C794 C792 1.394 . S
C794 C795 1.369 . S
C794 C798 1.531 . S
C795 C794 1.369 . S
C795 C796 1.410 . S
C795 C803 1.503 . S
C796 C795 1.410 . S
C796 C797 1.392 . S
C796 C799 1.511 . S
C797 C793 1.376 . S
C797 C796 1.392 . S
C797 H809 0.929 . S
C798 C794 1.531 . S
C798 H810 0.960 . S
C798 H811 0.962 1_545 S
C798 H812 0.960 . S
C799 C796 1.511 . S
C799 H813 0.961 . S
C799 H814 0.961 . S
C799 H815 0.961 . S
C800 C801 1.370 1_565 S
C800 C802 1.363 . S
C800 H816 0.931 . S
C801 C800 1.370 1_545 S
C801 C805 1.408 . S
C802 C800 1.363 . S
C802 C803 1.370 1_565 S
C802 C806 1.524 . S
C803 C795 1.503 . S
C803 C802 1.370 1_545 S
C803 C804 1.403 . S
C804 C803 1.403 . S
C804 C805 1.404 . S
C804 C807 1.539 . S
C805 C801 1.408 . S
C805 C804 1.404 . S
C805 H817 0.930 . S
C806 C802 1.524 . S
C806 H818 0.956 . S
C806 H819 0.961 . S
C806 H820 0.961 . S
C807 C804 1.539 . S
C807 H821 0.958 . S
C807 H822 0.961 . S
C807 H823 0.960 . S
H808 C792 0.931 . S
H809 C797 0.929 . S
H810 C798 0.960 . S
H811 C798 0.962 1_565 S
H812 C798 0.960 . S
H813 C799 0.961 . S
H814 C799 0.961 . S
H815 C799 0.961 . S
H816 C800 0.931 . S
H817 C805 0.930 . S
H818 C806 0.956 . S
H819 C806 0.961 . S
H820 C806 0.961 . S
H821 C807 0.958 . S
H822 C807 0.961 . S
H823 C807 0.960 . S
C824 C825 1.391 . S
C824 C826 1.394 . S
C824 H840 0.931 . S
C825 C824 1.391 . S
C825 C829 1.376 . S
C826 C824 1.394 . S
C826 C827 1.369 . S
C826 C830 1.531 . S
C827 C826 1.369 . S
C827 C828 1.410 . S
C827 C835 1.503 . S
C828 C827 1.410 . S
C828 C829 1.392 . S
C828 C831 1.511 . S
C829 C825 1.376 . S
C829 C828 1.392 . S
C829 H841 0.929 . S
C830 C826 1.531 . S
C830 H842 0.960 . S
C830 H843 0.962 . S
C830 H844 0.960 . S
C831 C828 1.511 . S
C831 H845 0.961 . S
C831 H846 0.961 . S
C831 H847 0.961 . S
C832 C833 1.370 . S
C832 C834 1.363 1_554 S
C832 H848 0.931 . S
C833 C832 1.370 . S
C833 C837 1.408 . S
C834 C832 1.363 1_556 S
C834 C835 1.370 . S
C834 C838 1.524 . S
C835 C827 1.503 . S
C835 C834 1.370 . S
C835 C836 1.403 . S
C836 C835 1.403 . S
C836 C837 1.404 1_556 S
C836 C839 1.539 . S
C837 C833 1.408 . S
C837 C836 1.404 1_554 S
C837 H849 0.930 . S
C838 C834 1.524 . S
C838 H850 0.956 . S
C838 H851 0.961 . S
C838 H852 0.961 . S
C839 C836 1.539 . S
C839 H853 0.958 . S
C839 H854 0.961 . S
C839 H855 0.960 . S
H840 C824 0.931 . S
H841 C829 0.929 . S
H842 C830 0.960 . S
H843 C830 0.962 . S
H844 C830 0.960 . S
H845 C831 0.961 . S
H846 C831 0.961 . S
H847 C831 0.961 . S
H848 C832 0.931 . S
H849 C837 0.930 . S
H850 C838 0.956 . S
H851 C838 0.961 . S
H852 C838 0.961 . S
H853 C839 0.958 . S
H854 C839 0.961 . S
H855 C839 0.960 . S
C856 C857 1.391 1_655 S
C856 C858 1.394 . S
C856 H872 0.931 . S
C857 C856 1.391 1_455 S
C857 C861 1.376 . S
C858 C856 1.394 . S
C858 C859 1.369 1_655 S
C858 C862 1.531 . S
C859 C858 1.369 1_455 S
C859 C860 1.410 . S
C859 C867 1.503 . S
C860 C859 1.410 . S
C860 C861 1.392 . S
C860 C863 1.511 . S
C861 C857 1.376 . S
C861 C860 1.392 . S
C861 H873 0.929 . S
C862 C858 1.531 . S
C862 H874 0.960 . S
C862 H875 0.962 . S
C862 H876 0.960 . S
C863 C860 1.511 . S
C863 H877 0.961 . S
C863 H878 0.961 . S
C863 H879 0.961 . S
C864 C865 1.375 1_455 S
C864 C866 1.363 . S
C864 H880 0.927 1_455 S
C865 C864 1.375 1_655 S
C865 C869 1.403 . S
C866 C864 1.363 . S
C866 C867 1.370 . S
C866 C870 1.524 . S
C867 C859 1.503 . S
C867 C866 1.370 . S
C867 C868 1.408 1_455 S
C868 C867 1.408 1_655 S
C868 C869 1.406 . S
C868 C871 1.521 1_655 S
C869 C865 1.403 . S
C869 C868 1.406 . S
C869 H881 0.930 . S
C870 C866 1.524 . S
C870 H882 0.956 1_455 S
C870 H883 0.961 . S
C870 H884 0.961 . S
C871 C868 1.521 1_455 S
C871 H885 0.937 1_455 S
C871 H886 0.979 . S
C871 H887 0.973 . S
H872 C856 0.931 . S
H873 C861 0.929 . S
H874 C862 0.960 . S
H875 C862 0.962 . S
H876 C862 0.960 . S
H877 C863 0.961 . S
H878 C863 0.961 . S
H879 C863 0.961 . S
H880 C864 0.927 1_655 S
H881 C869 0.930 . S
H882 C870 0.956 1_655 S
H883 C870 0.961 . S
H884 C870 0.961 . S
H885 C871 0.937 1_655 S
H886 C871 0.979 . S
H887 C871 0.973 . S
C313 C19 1.870 . S
C321 C303 1.823 . S
C345 C46 1.253 . S
C353 C239 1.210 . S
C377 C95 0.491 . S
C385 C271 0.365 . S
C409 C10 1.985 . S
C417 C297 1.928 . S
C449 C233 1.282 . S
C441 C55 1.289 . S
C481 C265 0.627 . S
C473 C86 0.541 . S
C505 C59 3.068 . S
C513 C175 3.014 . S
C537 C90 1.956 . S
C545 C207 1.942 . S
C569 C15 1.250 . S
C577 C137 1.266 . S
C609 C169 2.932 . S
C601 C50 2.953 . S
C641 C201 1.859 . S
C633 C99 1.900 . S
C665 C6 1.209 . S
C673 C143 1.223 . S
C705 C213 1.353 . S
C697 C9 1.363 . S
C729 C58 1.475 . S
C737 C149 1.474 . S
C761 C98 1.722 . S
C769 C181 1.750 . S
C801 C277 1.063 . S
C793 C49 1.054 . S
C833 C309 1.346 . S
C825 C89 1.355 . S
C857 C18 1.466 . S
C865 C245 1.439 1_655 S
