# Generated by pormake.
# Topology sit, (3,6)-cn, num edge types: 1
# Building blocks:
#     Node 0, Type 0, BuildingBlock: MIDCAF_clean_linker_0, # of connection points: 3
#     Node 1, Type 0, BuildingBlock: MIDCAF_clean_linker_0, # of connection points: 3
#     Node 2, Type 0, BuildingBlock: MIDCAF_clean_linker_0, # of connection points: 3
#     Node 3, Type 0, BuildingBlock: MIDCAF_clean_linker_0, # of connection points: 3
#     Node 4, Type 1, BuildingBlock: MIDCAF_clean_sbu_0, # of connection points: 6
#     Node 5, Type 1, BuildingBlock: MIDCAF_clean_sbu_0, # of connection points: 6
#     Edge 6, Type (0, 1), BuildingBlock: MIFKUJ_clean_linker_0, # of connection points: 2
#     Edge 7, Type (0, 1), BuildingBlock: MIFKUJ_clean_linker_0, # of connection points: 2
#     Edge 8, Type (0, 1), BuildingBlock: MIFKUJ_clean_linker_0, # of connection points: 2
#     Edge 9, Type (0, 1), BuildingBlock: MIFKUJ_clean_linker_0, # of connection points: 2
#     Edge 10, Type (0, 1), BuildingBlock: MIFKUJ_clean_linker_0, # of connection points: 2
#     Edge 11, Type (0, 1), BuildingBlock: MIFKUJ_clean_linker_0, # of connection points: 2
#     Edge 12, Type (0, 1), BuildingBlock: MIFKUJ_clean_linker_0, # of connection points: 2
#     Edge 13, Type (0, 1), BuildingBlock: MIFKUJ_clean_linker_0, # of connection points: 2
#     Edge 14, Type (0, 1), BuildingBlock: MIFKUJ_clean_linker_0, # of connection points: 2
#     Edge 15, Type (0, 1), BuildingBlock: MIFKUJ_clean_linker_0, # of connection points: 2
#     Edge 16, Type (0, 1), BuildingBlock: MIFKUJ_clean_linker_0, # of connection points: 2
#     Edge 17, Type (0, 1), BuildingBlock: MIFKUJ_clean_linker_0, # of connection points: 2
# Relax obj value: 0.111
# Max RMSD: 0.194
# Mean RMSD: 0.107
data_MOF--net-sit--node1-MIDCAF_clean_sbu_0--node2-MIDCAF_clean_linker_0--edge1-MIFKUJ_clean_linker_0
_symmetry_space_group_name_H-M    P1
_symmetry_Int_Tables_number       1
_symmetry_cell_setting            triclinic
loop_
_symmetry_equiv_pos_as_xyz
'x, y, z'
_cell_length_a     35.014689
_cell_length_b     48.389821
_cell_length_c     53.090502
_cell_angle_alpha  90.214264
_cell_angle_beta   89.320689
_cell_angle_gamma 84.436653
loop_
_atom_site_label
_atom_site_type_symbol
_atom_site_fract_x
_atom_site_fract_y
_atom_site_fract_z
_atom_type_partial_charge
C0 C 0.99 0.34226 0.02084 0.0
C1 C 0.95907 0.32792 0.01336 0.0
C2 C 0.96251 0.29875 0.01437 0.0
C3 C -0.00316 0.28416 0.02204 0.0
H4 H 0.04595 0.2124 0.05845 0.0
H5 H 0.0494 0.1685 0.08036 0.0
H6 H 0.17298 0.16645 0.08247 0.0
H7 H 0.16955 0.21111 0.06104 0.0
H8 H 0.20466 0.27675 0.05613 0.0
H9 H 0.25781 0.30559 0.04944 0.0
H10 H 0.19128 0.35258 0.99324 0.0
H11 H 0.13857 0.32473 0.00039 0.0
H12 H 0.04801 0.33945 0.03313 0.0
H13 H 0.98826 0.36471 0.01999 0.0
H14 H 0.93893 0.28726 0.00875 0.0
H15 H -0.00084 0.26168 0.02205 0.0
N16 N 0.06943 0.25728 0.0425 0.0
N17 N 0.13662 0.25734 0.04344 0.0
N18 N 0.09818 0.29652 0.02956 0.0
C19 C 0.10457 0.24397 0.04752 0.0
C20 C 0.13342 0.28363 0.03421 0.0
C21 C 0.06613 0.28365 0.0337 0.0
C22 C 0.10744 0.21562 0.0583 0.0
C23 C 0.074 0.20257 0.0633 0.0
C24 C 0.07598 0.17712 0.07567 0.0
C25 C 0.11147 0.16393 0.08327 0.0
C26 C 0.14513 0.17626 0.07717 0.0
C27 C 0.14315 0.20184 0.06482 0.0
C28 C 0.16732 0.29872 0.02904 0.0
C29 C 0.20168 0.29318 0.0423 0.0
C30 C 0.23201 0.3097 0.03848 0.0
C31 C 0.22843 0.33181 0.02122 0.0
C32 C 0.19457 0.33642 0.00732 0.0
C33 C 0.16439 0.32023 0.01128 0.0
C34 C 0.02837 0.29856 0.02835 0.0
C35 C 0.02433 0.32774 0.02813 0.0
C36 C 0.969 0.67995 0.96405 0.0
C37 C 0.93001 0.68611 0.97019 0.0
C38 C 0.91869 0.71022 0.98438 0.0
C39 C 0.94594 0.72768 0.99234 0.0
H40 H 0.98882 0.77711 0.06128 0.0
H41 H 0.98303 0.81271 0.09394 0.0
H42 H 0.0533 0.86299 0.04885 0.0
H43 H 0.06156 0.82604 0.01746 0.0
H44 H 0.13928 0.74045 0.03088 0.0
H45 H 0.19969 0.71115 0.02562 0.0
H46 H 0.17177 0.6964 0.94786 0.0
H47 H 0.11067 0.72432 0.95373 0.0
H48 H 0.0258 0.69154 0.96678 0.0
H49 H 0.97891 0.6613 0.95361 0.0
H50 H 0.88877 0.71569 0.98922 0.0
H51 H 0.93642 0.74599 0.00336 0.0
N52 N 0.00609 0.76079 0.01087 0.0
N53 N 0.07172 0.76757 0.01315 0.0
N54 N 0.05194 0.73142 0.98868 0.0
C55 C 0.03453 0.77552 0.01952 0.0
C56 C 0.08044 0.74554 0.9976 0.0
C57 C 0.01477 0.73872 0.99516 0.0
C58 C 0.02588 0.79887 0.03711 0.0
C59 C 0.00257 0.79599 0.05837 0.0
C60 C -0.00088 0.81659 0.07701 0.0
C61 C 0.01807 0.84088 0.0744 0.0
C62 C 0.0393 0.84433 0.05211 0.0
C63 C 0.04374 0.82332 0.03392 0.0
C64 C 0.12037 0.73434 0.99276 0.0
C65 C 0.14666 0.73146 0.01254 0.0
C66 C 0.18123 0.71462 0.0095 0.0
C67 C 0.19018 0.70079 0.98649 0.0
C68 C 0.1652 0.70589 0.9661 0.0
C69 C 0.13044 0.72218 0.96931 0.0
C70 C 0.98499 0.72134 0.98621 0.0
C71 C 0.99603 0.69733 0.97182 0.0
C72 C 0.47958 0.82804 0.47467 0.0
C73 C 0.44519 0.82771 0.48847 0.0
C74 C 0.44374 0.80942 0.5089 0.0
C75 C 0.47649 0.79232 0.51579 0.0
H76 H 0.51903 0.72045 0.55488 0.0
H77 H 0.51873 0.68201 0.5842 0.0
H78 H 0.64264 0.67456 0.58527 0.0
H79 H 0.64312 0.71344 0.55635 0.0
H80 H 0.67837 0.78007 0.54378 0.0
H81 H 0.73031 0.80981 0.53645 0.0
H82 H 0.68179 0.83355 0.46434 0.0
H83 H 0.62999 0.80464 0.47185 0.0
H84 H 0.53846 0.81259 0.4709 0.0
H85 H 0.48174 0.84211 0.459 0.0
H86 H 0.41745 0.80859 0.51972 0.0
H87 H 0.47495 0.77899 0.53204 0.0
N88 N 0.54754 0.75673 0.52719 0.0
N89 N 0.61475 0.75514 0.53023 0.0
N90 N 0.58102 0.78873 0.50524 0.0
C91 C 0.5812 0.74452 0.53638 0.0
C92 C 0.61469 0.7772 0.51448 0.0
C93 C 0.54739 0.77882 0.51151 0.0
C94 C 0.58111 0.72029 0.55338 0.0
C95 C 0.54629 0.7106 0.56124 0.0
C96 C 0.54608 0.68837 0.57791 0.0
C97 C 0.58065 0.67525 0.58709 0.0
C98 C 0.61549 0.68448 0.5788 0.0
C99 C 0.61573 0.70676 0.56215 0.0
C100 C 0.64992 0.79039 0.50854 0.0
C101 C 0.67936 0.79128 0.5262 0.0
C102 C 0.70894 0.80835 0.52204 0.0
C103 C 0.70946 0.8246 0.50014 0.0
C104 C 0.68145 0.82204 0.48179 0.0
C105 C 0.65195 0.80527 0.486 0.0
C106 C 0.51126 0.79358 0.50253 0.0
C107 C 0.51219 0.81122 0.48162 0.0
C108 C 0.4277 0.20208 0.46735 0.0
C109 C 0.39684 0.1994 0.48402 0.0
C110 C 0.39513 0.21427 0.50693 0.0
C111 C 0.42515 0.22984 0.51373 0.0
H112 H 0.46393 0.30746 0.54612 0.0
H113 H 0.46377 0.3477 0.57387 0.0
H114 H 0.58678 0.33257 0.58106 0.0
H115 H 0.58722 0.29282 0.55302 0.0
H116 H 0.62912 0.23165 0.53483 0.0
H117 H 0.68618 0.19907 0.52684 0.0
H118 H 0.62817 0.16292 0.46531 0.0
H119 H 0.57209 0.1953 0.47284 0.0
H120 H 0.48209 0.21769 0.46153 0.0
H121 H 0.42931 0.19166 0.44922 0.0
H122 H 0.37174 0.21264 0.5202 0.0
H123 H 0.42436 0.23976 0.53209 0.0
N124 N 0.49232 0.26354 0.52214 0.0
N125 N 0.55958 0.2565 0.52527 0.0
N126 N 0.5267 0.22635 0.50099 0.0
C127 C 0.52581 0.27172 0.53112 0.0
C128 C 0.56013 0.23377 0.51016 0.0
C129 C 0.49284 0.24094 0.50687 0.0
C130 C 0.52557 0.29669 0.54742 0.0
C131 C 0.49101 0.31277 0.55348 0.0
C132 C 0.49086 0.33584 0.56943 0.0
C133 C 0.52524 0.34336 0.57967 0.0
C134 C 0.55984 0.32763 0.57319 0.0
C135 C 0.56003 0.30461 0.55726 0.0
C136 C 0.59605 0.21606 0.5045 0.0
C137 C 0.62886 0.21697 0.51942 0.0
C138 C 0.66133 0.19819 0.515 0.0
C139 C 0.66159 0.1785 0.49544 0.0
C140 C 0.62906 0.17806 0.48032 0.0
C141 C 0.59677 0.19658 0.48477 0.0
C142 C 0.45735 0.23048 0.49782 0.0
C143 C 0.45775 0.21723 0.47426 0.0
Zn144 Zn 0.03486 0.0593 0.36135 0.0
Zn145 Zn 0.06728 0.95198 0.36251 0.0
Zn146 Zn 0.05254 0.0057 0.3627 0.0
C147 C 0.04958 0.96623 0.31356 0.0
C148 C 0.00497 0.96359 0.39432 0.0
O149 O 0.09889 0.02472 0.38213 0.0
O150 O 0.07344 0.06817 0.38643 0.0
C151 C 0.05159 0.04317 0.31242 0.0
O152 O 0.05197 0.99051 0.32315 0.0
O153 O 0.05218 0.945 0.32737 0.0
O154 O 0.03079 0.94408 0.38985 0.0
O155 O 0.00703 0.98768 0.38443 0.0
O156 O 0.04735 0.06512 0.32545 0.0
O157 O 0.05148 0.01922 0.32293 0.0
O158 O -0.00191 0.01671 0.38339 0.0
O159 O 0.98077 0.0603 0.37283 0.0
C160 C 0.9738 0.03847 0.38422 0.0
O161 O 0.10822 0.99566 0.38102 0.0
O162 O 0.12234 0.95142 0.37085 0.0
C163 C 0.10018 0.04947 0.3909 0.0
C164 C 0.13165 0.97346 0.38086 0.0
Zn165 Zn 0.56391 0.55256 0.86913 0.0
Zn166 Zn 0.57844 0.44401 0.86164 0.0
Zn167 Zn 0.57057 0.498 0.86585 0.0
C168 C 0.55784 0.46307 0.8149 0.0
C169 C 0.52245 0.45743 0.89853 0.0
O170 O 0.62372 0.51112 0.8823 0.0
O171 O 0.60994 0.55607 0.88963 0.0
C172 C 0.56489 0.53945 0.81806 0.0
O173 O 0.56356 0.48602 0.826 0.0
O174 O 0.5592 0.44067 0.82705 0.0
O175 O 0.54407 0.43695 0.89024 0.0
O176 O 0.5261 0.48207 0.89027 0.0
O177 O 0.56713 0.55999 0.83252 0.0
O178 O 0.56384 0.51488 0.82718 0.0
O179 O 0.52039 0.51122 0.89031 0.0
O180 O 0.51398 0.55708 0.88683 0.0
C181 C 0.50234 0.53509 0.89543 0.0
O182 O 0.62728 0.48201 0.88004 0.0
O183 O 0.63439 0.43811 0.86762 0.0
C184 C 0.63275 0.53435 0.89125 0.0
C185 C 0.64778 0.4585 0.87807 0.0
H186 H 0.15639 0.15275 0.12437 0.0
H187 H 0.14946 0.11762 0.15624 0.0
H188 H 0.06089 0.0846 0.11275 0.0
H189 H 0.06817 0.11958 0.0803 0.0
H190 H 0.0362 0.09893 0.15913 0.0
H191 H 0.14264 0.04337 0.12519 0.0
H192 H 0.2075 0.03211 0.10716 0.0
H193 H 0.25726 0.05812 0.17579 0.0
H194 H 0.19271 0.06993 0.19413 0.0
H195 H 0.01154 0.02416 0.27324 0.0
H196 H 0.02333 0.03189 0.22819 0.0
H197 H 0.12099 0.07561 0.24645 0.0
H198 H 0.10913 0.06818 0.29129 0.0
H199 H 0.13707 0.04257 0.20636 0.0
H200 H 0.03083 0.10848 0.23487 0.0
H201 H 0.96608 0.12187 0.25237 0.0
H202 H 0.91645 0.07758 0.19272 0.0
H203 H 0.98102 0.06344 0.17518 0.0
C204 C 0.13645 0.13742 0.12102 0.0
C205 C 0.11256 0.13919 0.09986 0.0
C206 C 0.1325 0.11727 0.13933 0.0
C207 C 0.1047 0.09842 0.13687 0.0
C208 C 0.08249 0.09897 0.11502 0.0
C209 C 0.08655 0.11907 0.09659 0.0
C210 C 0.09519 0.08139 0.15879 0.0
C211 C 0.05799 0.08589 0.16908 0.0
C212 C 0.12371 0.0647 0.17191 0.0
C213 C 0.16273 0.05764 0.16101 0.0
C214 C 0.16739 0.04688 0.13639 0.0
C215 C 0.20412 0.04036 0.12612 0.0
C216 C 0.23648 0.04441 0.14031 0.0
C217 C 0.23217 0.05496 0.16482 0.0
C218 C 0.1955 0.06153 0.17519 0.0
C219 C 0.03583 0.03499 0.26745 0.0
C220 C 0.0597 0.04544 0.28543 0.0
C221 C 0.04255 0.03933 0.24181 0.0
C222 C 0.07315 0.0541 0.23393 0.0
C223 C 0.09746 0.06391 0.25204 0.0
C224 C 0.09057 0.05982 0.27759 0.0
C225 C 0.07869 0.06128 0.20711 0.0
C226 C 0.11506 0.05488 0.19596 0.0
C227 C 0.04946 0.07635 0.19319 0.0
C228 C 0.01075 0.08459 0.20393 0.0
C229 C 0.00613 0.10136 0.22565 0.0
C230 C 0.96947 0.10911 0.23556 0.0
C231 C 0.93718 0.10051 0.22371 0.0
C232 C 0.94149 0.08421 0.20189 0.0
C233 C 0.97811 0.07626 0.192 0.0
H234 H 0.90881 0.10654 0.2314 0.0
H235 H 0.26489 0.03936 0.13233 0.0
H236 H 0.07522 0.8735 0.08724 0.0
H237 H 0.07762 0.90376 0.12349 0.0
H238 H 0.96596 0.88302 0.14783 0.0
H239 H 0.96125 0.8551 0.10999 0.0
H240 H 0.97114 0.93296 0.16034 0.0
H241 H 0.05516 0.84949 0.17052 0.0
H242 H 0.1078 0.8138 0.15931 0.0
H243 H 0.18823 0.87536 0.1606 0.0
H244 H 0.13594 0.9115 0.17151 0.0
H245 H 0.99243 0.94066 0.29304 0.0
H246 H 0.98475 0.92865 0.24871 0.0
H247 H 0.08457 0.97019 0.22917 0.0
H248 H 0.09221 0.98229 0.27381 0.0
H249 H 0.08761 0.91516 0.21243 0.0
H250 H -0.00045 0.99716 0.20704 0.0
H251 H 0.94553 0.0294 0.22303 0.0
H252 H 0.86964 0.96535 0.21558 0.0
H253 H 0.92369 0.93257 0.20068 0.0
C254 C 0.05046 0.87593 0.0997 0.0
C255 C 0.01815 0.86133 0.09556 0.0
C256 C 0.05227 0.89296 0.12083 0.0
C257 C 0.02259 0.89497 0.13893 0.0
C258 C 0.98952 0.88157 0.13434 0.0
C259 C 0.98715 0.86518 0.11279 0.0
C260 C 0.02676 0.90983 0.16317 0.0
C261 C 0.99653 0.92887 0.17176 0.0
C262 C 0.06009 0.90493 0.17806 0.0
C263 C 0.09159 0.88324 0.17154 0.0
C264 C 0.08403 0.85544 0.16824 0.0
C265 C 0.1138 0.83513 0.16196 0.0
C266 C 0.15131 0.84232 0.15917 0.0
C267 C 0.15915 0.86983 0.16272 0.0
C268 C 0.12947 0.89024 0.16896 0.0
C269 C 0.0122 0.9477 0.27916 0.0
C270 C 0.04263 0.96259 0.28659 0.0
C271 C 0.00771 0.94098 0.25387 0.0
C272 C 0.03387 0.94876 0.23563 0.0
C273 C 0.06393 0.96417 0.24297 0.0
C274 C 0.06821 0.97115 0.26834 0.0
C275 C 0.03199 0.93799 0.20955 0.0
C276 C 0.06257 0.91955 0.20072 0.0
C277 C -0.00139 0.94282 0.19485 0.0
C278 C 0.96574 0.96247 0.20316 0.0
C279 C 0.97141 0.99001 0.20922 0.0
C280 C 0.94081 0.00835 0.21797 0.0
C281 C 0.90413 0.99946 0.22026 0.0
C282 C 0.89806 0.97221 0.21382 0.0
C283 C 0.92872 0.95373 0.20528 0.0
H284 H 0.88043 0.01369 0.227 0.0
H285 H 0.17433 0.82657 0.15431 0.0
H286 H 0.53522 0.63208 0.58899 0.0
H287 H 0.53147 0.59808 0.62282 0.0
H288 H 0.62105 0.63471 0.66246 0.0
H289 H 0.62479 0.66867 0.629 0.0
H290 H 0.63084 0.5786 0.66444 0.0
H291 H 0.5258 0.65178 0.67656 0.0
H292 H 0.46684 0.6799 0.66355 0.0
H293 H 0.40919 0.60598 0.65587 0.0
H294 H 0.46802 0.5774 0.66854 0.0
H295 H 0.61401 0.56957 0.79365 0.0
H296 H 0.6159 0.58062 0.74898 0.0
H297 H 0.52175 0.5312 0.73593 0.0
H298 H 0.51922 0.52066 0.78129 0.0
H299 H 0.50972 0.5813 0.71429 0.0
H300 H 0.61108 0.50889 0.70776 0.0
H301 H 0.66917 0.48035 0.72205 0.0
H302 H 0.73314 0.5516 0.71814 0.0
H303 H 0.67515 0.58053 0.70453 0.0
C304 C 0.55416 0.6328 0.60491 0.0
C305 C 0.58022 0.65314 0.60636 0.0
C306 C 0.55206 0.61333 0.62415 0.0
C307 C 0.57578 0.61402 0.64523 0.0
C308 C 0.60262 0.6337 0.64629 0.0
C309 C 0.60479 0.65309 0.6271 0.0
C310 C 0.57168 0.59544 0.66699 0.0
C311 C 0.60434 0.57912 0.67531 0.0
C312 C 0.53672 0.59527 0.68065 0.0
C313 C 0.50139 0.61246 0.67317 0.0
C314 C 0.50062 0.64153 0.67191 0.0
C315 C 0.46723 0.65754 0.66463 0.0
C316 C 0.43433 0.64473 0.6588 0.0
C317 C 0.43472 0.61587 0.66033 0.0
C318 C 0.46807 0.59976 0.66756 0.0
C319 C 0.59398 0.56082 0.7812 0.0
C320 C 0.56682 0.54399 0.79072 0.0
C321 C 0.59535 0.56687 0.75562 0.0
C322 C 0.56955 0.55623 0.73895 0.0
C323 C 0.54225 0.53933 0.74841 0.0
C324 C 0.54092 0.53322 0.7742 0.0
C325 C 0.56933 0.56536 0.7123 0.0
C326 C 0.5359 0.57998 0.70303 0.0
C327 C 0.60353 0.56394 0.69769 0.0
C328 C 0.63872 0.5468 0.70552 0.0
C329 C 0.63748 0.5184 0.71034 0.0
C330 C 0.67036 0.50219 0.7182 0.0
C331 C 0.70481 0.51416 0.72104 0.0
C332 C 0.70643 0.54235 0.71596 0.0
C333 C 0.67356 0.55865 0.70816 0.0
H334 H 0.73026 0.50159 0.72712 0.0
H335 H 0.4085 0.65716 0.65318 0.0
H336 H 0.47431 0.35534 0.61841 0.0
H337 H 0.47856 0.38885 0.65235 0.0
H338 H 0.58029 0.41638 0.61779 0.0
H339 H 0.57605 0.38288 0.58351 0.0
H340 H 0.59276 0.40262 0.66518 0.0
H341 H 0.49828 0.46096 0.62326 0.0
H342 H 0.43843 0.47418 0.60044 0.0
H343 H 0.3722 0.45234 0.66465 0.0
H344 H 0.43163 0.4386 0.68777 0.0
H345 H 0.60292 0.48097 0.77763 0.0
H346 H 0.59695 0.47264 0.73235 0.0
H347 H 0.49314 0.43363 0.74616 0.0
H348 H 0.49937 0.44157 0.79144 0.0
H349 H 0.48672 0.46454 0.70393 0.0
H350 H 0.58231 0.39617 0.74049 0.0
H351 H 0.64228 0.38244 0.76312 0.0
H352 H 0.70633 0.42379 0.70771 0.0
H353 H 0.64662 0.43804 0.68494 0.0
C354 C 0.49696 0.36906 0.61759 0.0
C355 C 0.52498 0.36632 0.59833 0.0
C356 C 0.49933 0.38828 0.63703 0.0
C357 C 0.5296 0.4053 0.63753 0.0
C358 C 0.55669 0.40347 0.61776 0.0
C359 C 0.55434 0.38422 0.59828 0.0
C360 C 0.53537 0.4222 0.66028 0.0
C361 C 0.56991 0.41678 0.67329 0.0
C362 C 0.50546 0.44042 0.67102 0.0
C363 C 0.4695 0.44861 0.65722 0.0
C364 C 0.47097 0.45878 0.63247 0.0
C365 C 0.4371 0.4664 0.61948 0.0
C366 C 0.40154 0.46407 0.63108 0.0
C367 C 0.39977 0.45415 0.6557 0.0
C368 C 0.43355 0.44648 0.66877 0.0
C369 C 0.57839 0.47124 0.77082 0.0
C370 C 0.55134 0.4621 0.78774 0.0
C371 C 0.57496 0.46658 0.74501 0.0
C372 C 0.54454 0.45269 0.73583 0.0
C373 C 0.51666 0.44462 0.75277 0.0
C374 C 0.52027 0.44902 0.77857 0.0
C375 C 0.54341 0.44401 0.70908 0.0
C376 C 0.50983 0.45099 0.69539 0.0
C377 C 0.57418 0.4272 0.69763 0.0
C378 C 0.61003 0.41839 0.71118 0.0
C379 C 0.60918 0.40244 0.73323 0.0
C380 C 0.6431 0.39456 0.74606 0.0
C381 C 0.67808 0.40229 0.73689 0.0
C382 C 0.67922 0.41783 0.7148 0.0
C383 C 0.64536 0.4258 0.70192 0.0
H384 H 0.70431 0.3962 0.74687 0.0
H385 H 0.37535 0.46998 0.62099 0.0
H386 H 0.30617 0.31708 0.01884 0.0
H387 H 0.35607 0.34649 0.00603 0.0
H388 H 0.27105 0.41676 0.0004 0.0
H389 H 0.22131 0.38798 0.0142 0.0
H390 H 0.31526 0.40192 0.95521 0.0
H391 H 0.33107 0.42204 0.04255 0.0
H392 H 0.34103 0.41075 0.08738 0.0
H393 H 0.44999 0.3662 0.06919 0.0
H394 H 0.44042 0.37688 0.02417 0.0
H395 H 0.45101 0.48469 0.90523 0.0
H396 H 0.40075 0.47286 0.93465 0.0
H397 H 0.47655 0.40394 0.96176 0.0
H398 H 0.52749 0.4173 0.93402 0.0
H399 H 0.43278 0.42431 -0.00086 0.0
H400 H 0.41292 0.39771 0.91215 0.0
H401 H 0.40345 0.40709 0.86689 0.0
H402 H 0.30225 0.4616 0.88413 0.0
H403 H 0.31135 0.45269 0.92951 0.0
C404 C 0.29825 0.33895 0.0156 0.0
C405 C 0.25965 0.35006 0.01709 0.0
C406 C 0.32675 0.35569 0.00823 0.0
C407 C 0.31702 0.38367 0.00217 0.0
C408 C 0.27895 0.39515 0.0049 0.0
C409 C 0.2506 0.37859 0.01257 0.0
C410 C 0.34567 0.40005 0.99027 0.0
C411 C 0.34065 0.40729 0.96492 0.0
C412 C 0.37895 0.4065 0.00291 0.0
C413 C 0.38484 0.40005 0.02995 0.0
C414 C 0.35699 0.40961 0.04807 0.0
C415 C 0.3626 0.40337 0.07353 0.0
C416 C 0.39608 0.38771 0.08112 0.0
C417 C 0.42405 0.37831 0.06328 0.0
C418 C 0.41856 0.38447 0.03779 0.0
C419 C 0.4574 0.46802 0.91841 0.0
C420 C 0.49319 0.45229 0.91767 0.0
C421 C 0.42851 0.46086 0.93485 0.0
C422 C 0.4347 0.43719 0.95012 0.0
C423 C 0.47108 0.42227 0.9502 0.0
C424 C 0.50005 0.42976 0.93414 0.0
C425 C 0.40265 0.42594 0.96391 0.0
C426 C 0.4071 0.41937 0.98954 0.0
C427 C 0.36889 0.41983 0.95147 0.0
C428 C 0.36309 0.42483 0.9242 0.0
C429 C 0.38877 0.4118 0.90627 0.0
C430 C 0.38346 0.41702 0.88061 0.0
C431 C 0.35235 0.43501 0.87264 0.0
C432 C 0.32639 0.44773 0.89033 0.0
C433 C 0.33161 0.4426 0.91602 0.0
H434 H 0.34829 0.43903 0.85277 0.0
H435 H 0.40038 0.3829 0.10084 0.0
H436 H 0.92782 0.6589 0.92506 0.0
H437 H 0.88457 0.6249 0.91268 0.0
H438 H 0.824 0.63663 0.98375 0.0
H439 H 0.86866 0.66966 0.9969 0.0
H440 H 0.83427 0.58294 0.97212 0.0
H441 H 0.78798 0.66627 0.929 0.0
H442 H 0.79213 0.70685 0.9015 0.0
H443 H 0.82684 0.65292 0.83924 0.0
H444 H 0.82338 0.612 0.86648 0.0
H445 H 0.64592 0.55541 0.93705 0.0
H446 H 0.70668 0.56999 0.95202 0.0
H447 H 0.76411 0.53532 0.88511 0.0
H448 H 0.70323 0.51986 0.87045 0.0
H449 H 0.76234 0.59481 0.89235 0.0
H450 H 0.8016 0.5109 0.93627 0.0
H451 H 0.79665 0.4716 0.96516 0.0
H452 H 0.7694 0.52819 0.02661 0.0
H453 H 0.77474 0.56791 0.99822 0.0
C454 C 0.90553 0.6541 0.93819 0.0
C455 C 0.90178 0.66698 0.96202 0.0
C456 C 0.8806 0.63481 0.93097 0.0
C457 C 0.85085 0.62838 0.94719 0.0
C458 C 0.8468 0.64128 0.97094 0.0
C459 C 0.87202 0.66043 0.9783 0.0
C460 C 0.82372 0.60841 0.93923 0.0
C461 C 0.81831 0.58564 0.95477 0.0
C462 C 0.80368 0.61152 0.91626 0.0
C463 C 0.80587 0.63609 0.89985 0.0
C464 C 0.79682 0.66307 0.9095 0.0
C465 C 0.79898 0.68614 0.89395 0.0
C466 C 0.80986 0.68247 0.86866 0.0
C467 C 0.81849 0.65573 0.85885 0.0
C468 C 0.81642 0.63259 0.87433 0.0
C469 C 0.67186 0.54999 0.92606 0.0
C470 C 0.67022 0.53668 0.90265 0.0
C471 C 0.70651 0.55817 0.93465 0.0
C472 C 0.73978 0.5537 0.91965 0.0
C473 C 0.73872 0.53873 0.897 0.0
C474 C 0.70409 0.52996 0.88865 0.0
C475 C 0.77265 0.56954 0.92532 0.0
C476 C 0.77892 0.59178 0.90943 0.0
C477 C 0.7929 0.56616 0.94811 0.0
C478 C 0.78834 0.54239 0.96507 0.0
C479 C 0.79421 0.51499 0.9559 0.0
C480 C 0.79148 0.49262 0.9722 0.0
C481 C 0.78247 0.49738 0.99764 0.0
C482 C 0.77633 0.52453 0.00688 0.0
C483 C 0.77942 0.54698 0.99073 0.0
H484 H 0.78047 0.48004 0.01024 0.0
H485 H 0.8115 0.70035 0.85665 0.0
H486 H 0.92412 0.31686 0.96954 0.0
H487 H 0.87331 0.346 0.94843 0.0
H488 H 0.86703 0.40373 0.01078 0.0
H489 H 0.91796 0.37455 0.0321 0.0
H490 H 0.79424 0.39129 0.99173 0.0
H491 H 0.913 0.42163 0.96263 0.0
H492 H 0.979 0.41554 0.94543 0.0
H493 H 0.93829 0.37999 0.87778 0.0
H494 H 0.87209 0.38545 0.89476 0.0
H495 H 0.67042 0.4827 0.92107 0.0
H496 H 0.72804 0.46899 0.94521 0.0
H497 H 0.76514 0.40808 0.88819 0.0
H498 H 0.70853 0.42277 0.86342 0.0
H499 H 0.82554 0.42946 0.90811 0.0
H500 H 0.70989 0.39234 0.93896 0.0
H501 H 0.64351 0.39642 0.95562 0.0
H502 H 0.67806 0.44245 0.01936 0.0
H503 H 0.74458 0.43886 0.00291 0.0
C504 C 0.91136 0.33545 0.97898 0.0
C505 C 0.9249 0.34351 0.00241 0.0
C506 C 0.88267 0.35219 0.96681 0.0
C507 C 0.86699 0.37714 0.97795 0.0
C508 C 0.87907 0.3846 0.00189 0.0
C509 C 0.90808 0.36799 0.01397 0.0
C510 C 0.83869 0.39567 0.96409 0.0
C511 C 0.80116 0.40013 0.97367 0.0
C512 C 0.84787 0.40685 0.94046 0.0
C513 C 0.88761 0.40377 0.93006 0.0
C514 C 0.91815 0.41231 0.94417 0.0
C515 C 0.9556 0.40901 0.93445 0.0
C516 C 0.96285 0.39734 0.91055 0.0
C517 C 0.93264 0.38902 0.8963 0.0
C518 C 0.89514 0.39224 0.90596 0.0
C519 C 0.69178 0.46736 0.91314 0.0
C520 C 0.68533 0.45401 0.89027 0.0
C521 C 0.72443 0.45924 0.92712 0.0
C522 C 0.75052 0.4372 0.91868 0.0
C523 C 0.74534 0.42511 0.89506 0.0
C524 C 0.71292 0.4334 0.88099 0.0
C525 C 0.78074 0.42443 0.93538 0.0
C526 C 0.81871 0.42107 0.92636 0.0
C527 C 0.77187 0.414 0.95943 0.0
C528 C 0.73205 0.4157 0.96954 0.0
C529 C 0.70326 0.40348 0.95645 0.0
C530 C 0.66562 0.40568 0.96586 0.0
C531 C 0.65653 0.41978 0.98848 0.0
C532 C 0.68511 0.43161 0.0018 0.0
C533 C 0.72278 0.42951 0.99244 0.0
H534 H 0.62738 0.42147 0.99574 0.0
H535 H 0.99186 0.3948 0.90305 0.0
H536 H 0.26184 0.70112 0.0074 0.0
H537 H 0.31621 0.66563 0.00296 0.0
H538 H 0.24879 0.61738 0.95517 0.0
H539 H 0.19383 0.65151 0.96097 0.0
H540 H 0.2909 0.58375 0.98354 0.0
H541 H 0.31344 0.66299 0.93163 0.0
H542 H 0.32179 0.71223 0.92359 0.0
H543 H 0.41693 0.70784 0.97421 0.0
H544 H 0.40882 0.65861 0.98276 0.0
H545 H 0.42674 0.53632 0.88482 0.0
H546 H 0.37373 0.5551 0.91249 0.0
H547 H 0.45351 0.56301 0.97273 0.0
H548 H 0.50627 0.54318 0.94539 0.0
H549 H 0.41117 0.61444 0.94781 0.0
H550 H 0.39499 0.53054 0.991 0.0
H551 H 0.38462 0.48144 0.99756 0.0
H552 H 0.27675 0.49391 0.95966 0.0
H553 H 0.28669 0.54303 0.9525 0.0
C554 C 0.25842 0.68276 0.99627 0.0
C555 C 0.22362 0.6795 0.98413 0.0
C556 C 0.28962 0.66256 0.9936 0.0
C557 C 0.28679 0.63904 0.97837 0.0
C558 C 0.25176 0.63536 0.96695 0.0
C559 C 0.2205 0.65523 0.96991 0.0
C560 C 0.32064 0.61898 0.97286 0.0
C561 C 0.3172 0.59043 0.97567 0.0
C562 C 0.35533 0.62772 0.9632 0.0
C563 C 0.36021 0.65727 0.95809 0.0
C564 C 0.33595 0.6726 0.94118 0.0
C565 C 0.34067 0.70048 0.93652 0.0
C566 C 0.36978 0.71318 0.94846 0.0
C567 C 0.39432 0.69799 0.96503 0.0
C568 C 0.38969 0.67011 0.96979 0.0
C569 C 0.43246 0.54076 0.90436 0.0
C570 C 0.47013 0.53802 0.91328 0.0
C571 C 0.40233 0.55142 0.92012 0.0
C572 C 0.40986 0.56022 0.94463 0.0
C573 C 0.4472 0.5559 0.954 0.0
C574 C 0.47718 0.54461 0.93844 0.0
C575 C 0.3809 0.57932 0.9578 0.0
C576 C 0.38523 0.60776 0.95625 0.0
C577 C 0.34689 0.57041 0.96808 0.0
C578 C 0.34172 0.5405 0.97109 0.0
C579 C 0.36934 0.52275 0.9837 0.0
C580 C 0.36345 0.49492 0.98762 0.0
C581 C 0.32999 0.48461 0.9791 0.0
C582 C 0.3026 0.50197 0.96632 0.0
C583 C 0.30834 0.52982 0.96233 0.0
H584 H 0.32512 0.46324 0.98257 0.0
H585 H 0.3734 0.73477 0.94481 0.0
H586 H 0.69624 0.87744 0.4827 0.0
H587 H 0.74366 0.90896 0.47086 0.0
H588 H 0.83426 0.85025 0.49789 0.0
H589 H 0.78686 0.81809 0.50935 0.0
H590 H 0.84176 0.91101 0.50777 0.0
H591 H 0.81904 0.84528 0.44079 0.0
H592 H 0.77684 0.82184 0.41255 0.0
H593 H 0.73259 0.90063 0.3825 0.0
H594 H 0.77412 0.92456 0.4109 0.0
H595 H 0.00675 0.93186 0.43621 0.0
H596 H 0.9521 0.91762 0.46017 0.0
H597 H 0.87469 0.96813 0.41253 0.0
H598 H 0.92955 0.98151 0.38784 0.0
H599 H 0.85473 0.9178 0.41483 0.0
H600 H 0.8815 0.98401 0.4761 0.0
H601 H 0.92045 0.0099 0.50462 0.0
H602 H 0.95357 0.93513 0.5454 0.0
H603 H 0.91513 0.90872 0.517 0.0
C604 C 0.72625 0.87124 0.48626 0.0
C605 C 0.73797 0.84499 0.4964 0.0
C606 C 0.75319 0.88942 0.47974 0.0
C607 C 0.79232 0.88177 0.48335 0.0
C608 C 0.80406 0.85647 0.49509 0.0
C609 C 0.77702 0.83813 0.50154 0.0
C610 C 0.82094 0.89853 0.47192 0.0
C611 C 0.84497 0.91242 0.48748 0.0
C612 C 0.82385 0.90112 0.44548 0.0
C613 C 0.79934 0.88671 0.42815 0.0
C614 C 0.80007 0.85761 0.42831 0.0
C615 C 0.77632 0.84423 0.41226 0.0
C616 C 0.75196 0.85974 0.39579 0.0
C617 C 0.75141 0.88865 0.3953 0.0
C618 C 0.77506 0.90213 0.41136 0.0
C619 C 0.97806 0.94024 0.43114 0.0
C620 C 0.97221 0.95802 0.41044 0.0
C621 C 0.94688 0.93236 0.445 0.0
C622 C 0.90929 0.94212 0.43839 0.0
C623 C 0.90347 0.96053 0.41808 0.0
C624 C 0.93474 0.96831 0.40412 0.0
C625 C 0.87643 0.93015 0.4506 0.0
C626 C 0.85143 0.91696 0.43516 0.0
C627 C 0.87239 0.92862 0.47713 0.0
C628 C 0.89566 0.94434 0.49428 0.0
C629 C 0.89736 0.97304 0.49101 0.0
C630 C 0.91928 0.98782 0.50718 0.0
C631 C 0.93956 0.97415 0.52674 0.0
C632 C 0.93786 0.94569 0.53022 0.0
C633 C 0.91594 0.93081 0.51413 0.0
H634 H 0.95652 0.98563 0.53923 0.0
H635 H 0.73359 0.84935 0.38338 0.0
H636 H 0.31875 0.20592 0.4922 0.0
H637 H 0.27215 0.17338 0.48102 0.0
H638 H 0.36361 0.11608 0.45107 0.0
H639 H 0.41031 0.14796 0.46267 0.0
H640 H 0.30419 0.12653 0.41808 0.0
H641 H 0.32174 0.10053 0.50429 0.0
H642 H 0.3247 0.10837 0.55011 0.0
H643 H 0.20632 0.1413 0.55128 0.0
H644 H 0.20279 0.13404 0.50538 0.0
H645 H 0.17569 0.02954 0.38561 0.0
H646 H 0.23057 0.04669 0.40686 0.0
H647 H 0.15348 0.10595 0.44822 0.0
H648 H 0.09877 0.08763 0.42832 0.0
H649 H 0.21139 0.08884 0.47699 0.0
H650 H 0.19626 0.12218 0.3913 0.0
H651 H 0.19191 0.11666 0.34524 0.0
H652 H 0.30439 0.07253 0.34304 0.0
H653 H 0.30918 0.07751 0.38917 0.0
C654 C 0.32897 0.18624 0.48355 0.0
C655 C 0.36819 0.17972 0.47803 0.0
C656 C 0.30235 0.16768 0.47718 0.0
C657 C 0.31455 0.14233 0.46528 0.0
C658 C 0.35366 0.13559 0.46014 0.0
C659 C 0.38023 0.15398 0.4666 0.0
C660 C 0.28635 0.1235 0.45685 0.0
C661 C 0.28436 0.11784 0.43101 0.0
C662 C 0.26014 0.11263 0.47372 0.0
C663 C 0.26211 0.11695 0.50134 0.0
C664 C 0.29642 0.10966 0.51428 0.0
C665 C 0.29818 0.11396 0.54027 0.0
C666 C 0.26574 0.12538 0.55359 0.0
C667 C 0.23143 0.13247 0.54094 0.0
C668 C 0.22953 0.12824 0.51493 0.0
C669 C 0.17051 0.04541 0.39999 0.0
C670 C 0.13308 0.05704 0.40556 0.0
C671 C 0.20184 0.0555 0.41185 0.0
C672 C 0.19615 0.07793 0.42883 0.0
C673 C 0.15862 0.08863 0.43522 0.0
C674 C 0.12739 0.0783 0.42368 0.0
C675 C 0.22882 0.09225 0.43815 0.0
C676 C 0.23164 0.09715 0.46412 0.0
C677 C 0.25561 0.10274 0.42139 0.0
C678 C 0.25289 0.09994 0.39367 0.0
C679 C 0.21995 0.11116 0.38099 0.0
C680 C 0.21742 0.10814 0.35489 0.0
C681 C 0.24781 0.09418 0.34123 0.0
C682 C 0.28085 0.08329 0.35365 0.0
C683 C 0.28349 0.08621 0.37977 0.0
H684 H 0.2458 0.09187 0.32102 0.0
H685 H 0.26716 0.12869 0.57372 0.0
H686 H 0.41767 0.84026 0.44172 0.0
H687 H 0.36742 0.87638 0.43045 0.0
H688 H 0.34693 0.89614 0.50906 0.0
H689 H 0.39772 0.85997 0.52054 0.0
H690 H 0.28025 0.89408 0.48279 0.0
H691 H 0.39308 0.93977 0.47488 0.0
H692 H 0.45981 0.94569 0.46239 0.0
H693 H 0.43011 0.94063 0.38439 0.0
H694 H 0.36332 0.93421 0.39639 0.0
H695 H 0.1447 0.99326 0.42773 0.0
H696 H 0.20228 0.98143 0.45304 0.0
H697 H 0.25726 0.93784 0.38925 0.0
H698 H 0.20011 0.94965 0.36411 0.0
H699 H 0.3088 0.96386 0.41865 0.0
H700 H 0.20339 0.90413 0.42869 0.0
H701 H 0.13677 0.89667 0.44042 0.0
H702 H 0.1537 0.92837 0.5147 0.0
H703 H 0.22032 0.93635 0.50325 0.0
C704 C 0.40253 0.85231 0.45662 0.0
C705 C 0.41183 0.84747 0.48199 0.0
C706 C 0.37394 0.873 0.45016 0.0
C707 C 0.35418 0.88937 0.46891 0.0
C708 C 0.3622 0.88389 0.49433 0.0
C709 C 0.39094 0.86312 0.50084 0.0
C710 C 0.32465 0.9117 0.46152 0.0
C711 C 0.28662 0.90989 0.46935 0.0
C712 C 0.33304 0.9323 0.44398 0.0
C713 C 0.37314 0.93642 0.43657 0.0
C714 C 0.4008 0.93975 0.45506 0.0
C715 C 0.43865 0.94321 0.44807 0.0
C716 C 0.4492 0.94352 0.42262 0.0
C717 C 0.42189 0.94041 0.4041 0.0
C718 C 0.384 0.93691 0.41099 0.0
C719 C 0.16968 0.982 0.41899 0.0
C720 C 0.16828 0.97228 0.39409 0.0
C721 C 0.20239 0.97521 0.43341 0.0
C722 C 0.23379 0.95854 0.42304 0.0
C723 C 0.23339 0.9508 0.39756 0.0
C724 C 0.20074 0.9574 0.38326 0.0
C725 C 0.26447 0.94532 0.43909 0.0
C726 C 0.30271 0.94879 0.43287 0.0
C727 C 0.25634 0.92625 0.45811 0.0
C728 C 0.21656 0.92114 0.46505 0.0
C729 C 0.19279 0.90965 0.44747 0.0
C730 C 0.15507 0.90533 0.45407 0.0
C731 C 0.14097 0.91213 0.47827 0.0
C732 C 0.16463 0.92318 0.49595 0.0
C733 C 0.20235 0.92762 0.48942 0.0
H734 H 0.11175 0.90877 0.48334 0.0
H735 H 0.47852 0.9462 0.41724 0.0
H736 H 0.69422 0.16361 0.45013 0.0
H737 H 0.74478 0.1266 0.44125 0.0
H738 H 0.75607 0.10995 0.52072 0.0
H739 H 0.70463 0.14712 0.52983 0.0
H740 H 0.82645 0.11044 0.49539 0.0
H741 H 0.71536 0.06395 0.4879 0.0
H742 H 0.64914 0.05701 0.47596 0.0
H743 H 0.68045 0.06065 0.3977 0.0
H744 H 0.74671 0.06808 0.40913 0.0
H745 H 0.96711 0.0185 0.4318 0.0
H746 H 0.91149 0.02724 0.46032 0.0
H747 H 0.84779 0.07018 0.40071 0.0
H748 H 0.90293 0.06125 0.37229 0.0
H749 H 0.80161 0.04061 0.43037 0.0
H750 H 0.90308 0.10539 0.44221 0.0
H751 H 0.96929 0.11325 0.45377 0.0
H752 H 0.95489 0.07301 0.52476 0.0
H753 H 0.88866 0.0648 0.51349 0.0
C754 C 0.7073 0.15204 0.46575 0.0
C755 C 0.69514 0.158 0.49064 0.0
C756 C 0.73612 0.13085 0.46065 0.0
C757 C 0.75339 0.11508 0.48029 0.0
C758 C 0.74266 0.1217 0.50531 0.0
C759 C 0.71357 0.14301 0.51046 0.0
C760 C 0.78322 0.09226 0.47403 0.0
C761 C 0.8209 0.09454 0.48181 0.0
C762 C 0.77588 0.07133 0.45654 0.0
C763 C 0.7361 0.06658 0.44942 0.0
C764 C 0.70811 0.06341 0.46814 0.0
C765 C 0.67054 0.05939 0.46146 0.0
C766 C 0.6606 0.05838 0.43609 0.0
C767 C 0.68821 0.06138 0.41735 0.0
C768 C 0.72582 0.06544 0.42392 0.0
C769 C 0.94074 0.02904 0.42469 0.0
C770 C 0.93897 0.03917 0.39993 0.0
C771 C 0.90911 0.03404 0.44097 0.0
C772 C 0.87561 0.04944 0.43266 0.0
C773 C 0.87326 0.05808 0.40747 0.0
C774 C 0.90478 0.05317 0.39129 0.0
C775 C 0.8448 0.0602 0.45041 0.0
C776 C 0.8069 0.0556 0.44484 0.0
C777 C 0.85186 0.07884 0.47004 0.0
C778 C 0.8912 0.08435 0.47697 0.0
C779 C 0.91412 0.09823 0.46027 0.0
C780 C 0.95162 0.10272 0.46675 0.0
C781 C 0.96631 0.0936 0.48997 0.0
C782 C 0.94348 0.08006 0.50678 0.0
C783 C 0.90598 0.0755 0.50037 0.0
H784 H 0.99536 0.09706 0.49494 0.0
H785 H 0.63149 0.05528 0.43096 0.0
loop_
_geom_bond_atom_site_label_1
_geom_bond_atom_site_label_2
_geom_bond_distance
_geom_bond_site_symmetry_2
_ccdc_geom_bond_type
C0 C1 1.384 1_455 S
C0 H13 0.947 . S
C0 C35 1.382 . S
C1 C0 1.384 1_655 S
C1 C2 1.378 1_556 S
C2 C1 1.378 1_554 S
C2 C3 1.378 1_655 S
C2 H14 0.952 . S
C3 C2 1.378 1_455 S
C3 H15 0.950 . S
C3 C34 1.383 . S
H4 C23 0.947 . S
H5 C24 0.946 . S
H6 C26 0.953 . S
H7 C27 0.945 . S
H8 C29 0.952 . S
H9 C30 0.949 . S
H10 C32 0.950 . S
H11 C33 0.948 . S
H12 C35 0.951 . S
H13 C0 0.947 . S
H14 C2 0.952 . S
H15 C3 0.950 . S
N16 C19 1.382 . S
N16 C21 1.363 . S
N17 C19 1.371 . S
N17 C20 1.372 . S
N18 C20 1.361 . S
N18 C21 1.377 . S
C19 N16 1.382 . S
C19 N17 1.371 . S
C19 C22 1.480 . S
C20 N17 1.372 . S
C20 N18 1.361 . S
C20 C28 1.457 . S
C21 N16 1.363 . S
C21 N18 1.377 . S
C21 C34 1.479 . S
C22 C19 1.480 . S
C22 C23 1.383 . S
C22 C27 1.385 . S
C23 H4 0.947 . S
C23 C22 1.383 . S
C23 C24 1.388 . S
C24 H5 0.946 . S
C24 C23 1.388 . S
C24 C25 1.384 . S
C25 C24 1.384 . S
C25 C26 1.377 . S
C26 H6 0.953 . S
C26 C25 1.377 . S
C26 C27 1.369 . S
C27 H7 0.945 . S
C27 C22 1.385 . S
C27 C26 1.369 . S
C28 C20 1.457 . S
C28 C29 1.372 . S
C28 C33 1.364 1_554 S
C29 H8 0.952 . S
C29 C28 1.372 . S
C29 C30 1.389 . S
C30 H9 0.949 . S
C30 C29 1.389 . S
C30 C31 1.387 1_554 S
C31 C30 1.387 1_556 S
C31 C32 1.372 . S
C32 H10 0.950 . S
C32 C31 1.372 . S
C32 C33 1.379 . S
C33 H11 0.948 . S
C33 C28 1.364 1_556 S
C33 C32 1.379 . S
C34 C3 1.383 . S
C34 C21 1.479 . S
C34 C35 1.398 1_554 S
C35 C0 1.382 . S
C35 H12 0.951 . S
C35 C34 1.398 1_556 S
C36 C37 1.384 . S
C36 H49 0.947 . S
C36 C71 1.382 . S
C37 C36 1.384 . S
C37 C38 1.378 1_556 S
C38 C37 1.378 1_554 S
C38 C39 1.378 . S
C38 H50 0.952 . S
C39 C38 1.378 . S
C39 H51 0.950 . S
C39 C70 1.383 . S
H40 C59 0.947 . S
H41 C60 0.946 . S
H42 C62 0.953 . S
H43 C63 0.945 . S
H44 C65 0.952 . S
H45 C66 0.949 . S
H46 C68 0.950 . S
H47 C69 0.948 . S
H48 C71 0.951 . S
H49 C36 0.947 . S
H50 C38 0.952 . S
H51 C39 0.950 . S
N52 C55 1.382 1_655 S
N52 C57 1.363 . S
N53 C55 1.371 . S
N53 C56 1.372 . S
N54 C56 1.361 . S
N54 C57 1.377 1_455 S
C55 N52 1.382 1_455 S
C55 N53 1.371 . S
C55 C58 1.480 . S
C56 N53 1.372 . S
C56 N54 1.361 . S
C56 C64 1.451 1_554 S
C57 N52 1.363 . S
C57 N54 1.377 1_655 S
C57 C70 1.479 . S
C58 C55 1.480 . S
C58 C59 1.383 1_455 S
C58 C63 1.385 . S
C59 H40 0.947 . S
C59 C58 1.383 1_655 S
C59 C60 1.388 . S
C60 H41 0.946 . S
C60 C59 1.388 . S
C60 C61 1.384 1_655 S
C61 C60 1.384 1_455 S
C61 C62 1.377 . S
C62 H42 0.953 . S
C62 C61 1.377 . S
C62 C63 1.369 . S
C63 H43 0.945 . S
C63 C58 1.385 . S
C63 C62 1.369 . S
C64 C56 1.451 1_556 S
C64 C65 1.364 1_556 S
C64 C69 1.376 . S
C65 H44 0.952 . S
C65 C64 1.364 1_554 S
C65 C66 1.389 . S
C66 H45 0.949 . S
C66 C65 1.389 . S
C66 C67 1.387 1_554 S
C67 C66 1.387 1_556 S
C67 C68 1.372 . S
C68 H46 0.950 . S
C68 C67 1.372 . S
C68 C69 1.379 . S
C69 H47 0.948 . S
C69 C64 1.376 . S
C69 C68 1.379 . S
C70 C39 1.383 . S
C70 C57 1.479 . S
C70 C71 1.398 1_554 S
C71 C36 1.382 . S
C71 H48 0.951 . S
C71 C70 1.398 1_556 S
C72 C73 1.384 . S
C72 H85 0.947 . S
C72 C107 1.382 . S
C73 C72 1.384 . S
C73 C74 1.378 . S
C74 C73 1.378 . S
C74 C75 1.378 . S
C74 H86 0.952 . S
C75 C74 1.378 . S
C75 H87 0.950 . S
C75 C106 1.383 . S
H76 C95 0.947 . S
H77 C96 0.946 . S
H78 C98 0.953 . S
H79 C99 0.945 . S
H80 C101 0.952 . S
H81 C102 0.949 . S
H82 C104 0.950 . S
H83 C105 0.948 . S
H84 C107 0.951 . S
H85 C72 0.947 . S
H86 C74 0.952 . S
H87 C75 0.950 . S
N88 C91 1.382 . S
N88 C93 1.363 . S
N89 C91 1.371 . S
N89 C92 1.372 . S
N90 C92 1.361 . S
N90 C93 1.377 . S
C91 N88 1.382 . S
C91 N89 1.371 . S
C91 C94 1.480 . S
C92 N89 1.372 . S
C92 N90 1.361 . S
C92 C100 1.457 . S
C93 N88 1.363 . S
C93 N90 1.377 . S
C93 C106 1.479 . S
C94 C91 1.480 . S
C94 C95 1.383 . S
C94 C99 1.385 . S
C95 H76 0.947 . S
C95 C94 1.383 . S
C95 C96 1.388 . S
C96 H77 0.946 . S
C96 C95 1.388 . S
C96 C97 1.384 . S
C97 C96 1.384 . S
C97 C98 1.377 . S
C98 H78 0.953 . S
C98 C97 1.377 . S
C98 C99 1.369 . S
C99 H79 0.945 . S
C99 C94 1.385 . S
C99 C98 1.369 . S
C100 C92 1.457 . S
C100 C101 1.372 . S
C100 C105 1.364 . S
C101 H80 0.952 . S
C101 C100 1.372 . S
C101 C102 1.389 . S
C102 H81 0.949 . S
C102 C101 1.389 . S
C102 C103 1.387 . S
C103 C102 1.387 . S
C103 C104 1.372 . S
C104 H82 0.950 . S
C104 C103 1.372 . S
C104 C105 1.379 . S
C105 H83 0.948 . S
C105 C100 1.364 . S
C105 C104 1.379 . S
C106 C75 1.383 . S
C106 C93 1.479 . S
C106 C107 1.398 . S
C107 C72 1.382 . S
C107 H84 0.951 . S
C107 C106 1.398 . S
C108 C109 1.384 . S
C108 H121 0.947 . S
C108 C143 1.382 . S
C109 C108 1.384 . S
C109 C110 1.378 . S
C110 C109 1.378 . S
C110 C111 1.378 . S
C110 H122 0.952 . S
C111 C110 1.378 . S
C111 H123 0.950 . S
C111 C142 1.383 . S
H112 C131 0.947 . S
H113 C132 0.946 . S
H114 C134 0.953 . S
H115 C135 0.945 . S
H116 C137 0.952 . S
H117 C138 0.949 . S
H118 C140 0.950 . S
H119 C141 0.948 . S
H120 C143 0.951 . S
H121 C108 0.947 . S
H122 C110 0.952 . S
H123 C111 0.950 . S
N124 C127 1.382 . S
N124 C129 1.363 . S
N125 C127 1.371 . S
N125 C128 1.372 . S
N126 C128 1.361 . S
N126 C129 1.377 . S
C127 N124 1.382 . S
C127 N125 1.371 . S
C127 C130 1.480 . S
C128 N125 1.372 . S
C128 N126 1.361 . S
C128 C136 1.457 . S
C129 N124 1.363 . S
C129 N126 1.377 . S
C129 C142 1.479 . S
C130 C127 1.480 . S
C130 C131 1.383 . S
C130 C135 1.385 . S
C131 H112 0.947 . S
C131 C130 1.383 . S
C131 C132 1.388 . S
C132 H113 0.946 . S
C132 C131 1.388 . S
C132 C133 1.384 . S
C133 C132 1.384 . S
C133 C134 1.377 . S
C134 H114 0.953 . S
C134 C133 1.377 . S
C134 C135 1.369 . S
C135 H115 0.945 . S
C135 C130 1.385 . S
C135 C134 1.369 . S
C136 C128 1.457 . S
C136 C137 1.372 . S
C136 C141 1.364 . S
C137 H116 0.952 . S
C137 C136 1.372 . S
C137 C138 1.389 . S
C138 H117 0.949 . S
C138 C137 1.389 . S
C138 C139 1.387 . S
C139 C138 1.387 . S
C139 C140 1.372 . S
C140 H118 0.950 . S
C140 C139 1.372 . S
C140 C141 1.379 . S
C141 H119 0.948 . S
C141 C136 1.364 . S
C141 C140 1.379 . S
C142 C111 1.383 . S
C142 C129 1.479 . S
C142 C143 1.398 . S
C143 C108 1.382 . S
C143 H120 0.951 . S
C143 C142 1.398 . S
Zn144 O150 1.920 . S
Zn144 O156 1.898 . S
Zn144 O159 1.905 . S
Zn145 O153 1.905 . S
Zn145 O154 1.898 . S
Zn145 O162 1.920 . S
Zn146 O149 2.080 . S
Zn146 O152 2.114 1_545 S
Zn146 O155 2.120 1_545 S
Zn146 O157 2.120 . S
Zn146 O158 2.114 . S
Zn146 O161 2.080 1_545 S
C147 O152 1.166 . S
C147 O153 1.182 . S
C148 O154 1.167 . S
C148 O155 1.299 . S
O149 Zn146 2.080 . S
O149 C163 1.305 . S
O150 Zn144 1.920 . S
O150 C163 1.234 . S
C151 O156 1.167 . S
C151 O157 1.299 . S
O152 Zn146 2.114 1_565 S
O152 C147 1.166 . S
O153 Zn145 1.905 . S
O153 C147 1.182 . S
O154 Zn145 1.898 . S
O154 C148 1.167 . S
O155 Zn146 2.120 1_565 S
O155 C148 1.299 . S
O156 Zn144 1.898 . S
O156 C151 1.167 . S
O157 Zn146 2.120 . S
O157 C151 1.299 . S
O158 Zn146 2.114 . S
O158 C160 1.161 1_455 S
O159 Zn144 1.905 . S
O159 C160 1.177 1_455 S
C160 O158 1.161 1_655 S
C160 O159 1.177 1_655 S
O161 Zn146 2.080 1_565 S
O161 C164 1.305 . S
O162 Zn145 1.920 . S
O162 C164 1.234 . S
C163 O149 1.305 . S
C163 O150 1.234 . S
C164 O161 1.305 . S
C164 O162 1.234 . S
Zn165 O171 1.920 . S
Zn165 O177 1.898 . S
Zn165 O180 1.905 . S
Zn166 O174 1.905 . S
Zn166 O175 1.898 . S
Zn166 O183 1.920 . S
Zn167 O170 2.080 . S
Zn167 O173 2.114 . S
Zn167 O176 2.120 . S
Zn167 O178 2.120 . S
Zn167 O179 2.114 . S
Zn167 O182 2.080 . S
C168 O173 1.166 . S
C168 O174 1.182 . S
C169 O175 1.167 . S
C169 O176 1.299 . S
O170 Zn167 2.080 . S
O170 C184 1.305 . S
O171 Zn165 1.920 . S
O171 C184 1.234 . S
C172 O177 1.167 . S
C172 O178 1.299 . S
O173 Zn167 2.114 . S
O173 C168 1.166 . S
O174 Zn166 1.905 . S
O174 C168 1.182 . S
O175 Zn166 1.898 . S
O175 C169 1.167 . S
O176 Zn167 2.120 . S
O176 C169 1.299 . S
O177 Zn165 1.898 . S
O177 C172 1.167 . S
O178 Zn167 2.120 . S
O178 C172 1.299 . S
O179 Zn167 2.114 . S
O179 C181 1.166 . S
O180 Zn165 1.905 . S
O180 C181 1.182 . S
C181 O179 1.166 . S
C181 O180 1.182 . S
O182 Zn167 2.080 . S
O182 C185 1.305 . S
O183 Zn166 1.920 . S
O183 C185 1.234 . S
C184 O170 1.305 . S
C184 O171 1.234 . S
C185 O182 1.305 . S
C185 O183 1.234 . S
H186 C204 0.951 . S
H187 C206 0.951 . S
H188 C208 0.950 . S
H189 C209 0.950 . S
H190 C211 0.950 . S
H191 C214 0.950 . S
H192 C215 0.950 . S
H193 C217 0.950 . S
H194 C218 0.950 . S
H195 C219 0.951 . S
H196 C221 0.951 . S
H197 C223 0.950 . S
H198 C224 0.950 . S
H199 C226 0.950 . S
H200 C229 0.950 . S
H201 C230 0.950 . S
H202 C232 0.950 . S
H203 C233 0.950 . S
C204 H186 0.951 . S
C204 C205 1.366 . S
C204 C206 1.388 . S
C205 C204 1.366 . S
C205 C209 1.385 . S
C206 H187 0.951 . S
C206 C204 1.388 . S
C206 C207 1.366 . S
C207 C206 1.366 . S
C207 C208 1.414 . S
C207 C210 1.499 . S
C208 H188 0.950 . S
C208 C207 1.414 . S
C208 C209 1.374 . S
C209 H189 0.950 . S
C209 C205 1.385 . S
C209 C208 1.374 . S
C210 C207 1.499 . S
C210 C211 1.373 . S
C210 C212 1.389 . S
C211 H190 0.950 . S
C211 C210 1.373 . S
C211 C227 1.377 . S
C212 C210 1.389 . S
C212 C213 1.524 . S
C212 C226 1.377 . S
C213 C212 1.524 . S
C213 C214 1.397 . S
C213 C218 1.363 . S
C214 H191 0.950 . S
C214 C213 1.397 . S
C214 C215 1.334 . S
C215 H192 0.950 . S
C215 C214 1.334 . S
C215 C216 1.287 . S
C216 C215 1.287 . S
C216 C217 1.524 . S
C216 H235 0.913 . S
C217 H193 0.950 . S
C217 C216 1.524 . S
C217 C218 1.415 . S
C218 H194 0.950 . S
C218 C213 1.363 . S
C218 C217 1.415 . S
C219 H195 0.951 . S
C219 C220 1.366 . S
C219 C221 1.388 . S
C220 C219 1.366 . S
C220 C224 1.385 . S
C221 H196 0.951 . S
C221 C219 1.388 . S
C221 C222 1.366 . S
C222 C221 1.366 . S
C222 C223 1.414 . S
C222 C225 1.499 . S
C223 H197 0.950 . S
C223 C222 1.414 . S
C223 C224 1.374 . S
C224 H198 0.950 . S
C224 C220 1.385 . S
C224 C223 1.374 . S
C225 C222 1.499 . S
C225 C226 1.373 . S
C225 C227 1.389 . S
C226 H199 0.950 . S
C226 C212 1.377 . S
C226 C225 1.373 . S
C227 C211 1.377 . S
C227 C225 1.389 . S
C227 C228 1.524 . S
C228 C227 1.524 . S
C228 C229 1.397 . S
C228 C233 1.363 . S
C229 H200 0.950 . S
C229 C228 1.397 . S
C229 C230 1.334 1_455 S
C230 H201 0.950 . S
C230 C229 1.334 1_655 S
C230 C231 1.287 . S
C231 C230 1.287 . S
C231 C232 1.524 . S
C231 H234 0.999 . S
C232 H202 0.950 . S
C232 C231 1.524 . S
C232 C233 1.415 1_655 S
C233 H203 0.950 . S
C233 C228 1.363 . S
C233 C232 1.415 1_455 S
H234 C231 0.999 . S
H235 C216 0.913 . S
H236 C254 0.951 . S
H237 C256 0.951 . S
H238 C258 0.950 . S
H239 C259 0.950 . S
H240 C261 0.950 1_655 S
H241 C264 0.950 1_655 S
H242 C265 0.950 . S
H243 C267 0.950 . S
H244 C268 0.950 . S
H245 C269 0.951 1_655 S
H246 C271 0.951 1_655 S
H247 C273 0.950 . S
H248 C274 0.950 . S
H249 C276 0.950 . S
H250 C279 0.950 . S
H251 C280 0.960 . S
H252 C282 0.950 1_545 S
H253 C283 0.950 . S
C254 H236 0.951 . S
C254 C255 1.366 . S
C254 C256 1.388 . S
C255 C254 1.366 . S
C255 C259 1.385 1_455 S
C256 H237 0.951 . S
C256 C254 1.388 . S
C256 C257 1.366 . S
C257 C256 1.366 . S
C257 C258 1.414 1_455 S
C257 C260 1.499 . S
C258 H238 0.950 . S
C258 C257 1.414 1_655 S
C258 C259 1.374 . S
C259 H239 0.950 . S
C259 C255 1.385 1_655 S
C259 C258 1.374 . S
C260 C257 1.499 . S
C260 C261 1.373 . S
C260 C262 1.389 . S
C261 H240 0.950 1_455 S
C261 C260 1.373 . S
C261 C277 1.377 . S
C262 C260 1.389 . S
C262 C263 1.524 . S
C262 C276 1.377 . S
C263 C262 1.524 . S
C263 C264 1.397 . S
C263 C268 1.363 . S
C264 H241 0.950 1_455 S
C264 C263 1.397 . S
C264 C265 1.334 . S
C265 H242 0.950 . S
C265 C264 1.334 . S
C265 C266 1.287 . S
C266 C265 1.287 . S
C266 C267 1.524 . S
C266 H285 0.913 . S
C267 H243 0.950 . S
C267 C266 1.524 . S
C267 C268 1.415 . S
C268 H244 0.950 . S
C268 C263 1.363 . S
C268 C267 1.415 . S
C269 H245 0.951 1_455 S
C269 C270 1.366 . S
C269 C271 1.388 . S
C270 C269 1.366 . S
C270 C274 1.385 . S
C271 H246 0.951 1_455 S
C271 C269 1.388 . S
C271 C272 1.366 . S
C272 C271 1.366 . S
C272 C273 1.414 . S
C272 C275 1.499 . S
C273 H247 0.950 . S
C273 C272 1.414 . S
C273 C274 1.374 . S
C274 H248 0.950 . S
C274 C270 1.385 . S
C274 C273 1.374 . S
C275 C272 1.499 . S
C275 C276 1.373 . S
C275 C277 1.389 . S
C276 H249 0.950 . S
C276 C262 1.377 . S
C276 C275 1.373 . S
C277 C261 1.377 . S
C277 C275 1.389 . S
C277 C278 1.521 1_455 S
C278 C277 1.521 1_655 S
C278 C279 1.384 1_655 S
C278 C283 1.378 . S
C279 H250 0.950 . S
C279 C278 1.384 1_455 S
C279 C280 1.321 1_565 S
C280 H251 0.960 . S
C280 C279 1.321 1_545 S
C280 C281 1.290 1_455 S
C281 C280 1.290 1_655 S
C281 C282 1.524 1_545 S
C281 H284 0.999 . S
C282 H252 0.950 1_565 S
C282 C281 1.524 1_565 S
C282 C283 1.415 . S
C283 H253 0.950 . S
C283 C278 1.378 . S
C283 C282 1.415 . S
H284 C281 0.999 . S
H285 C266 0.913 . S
H286 C304 0.951 . S
H287 C306 0.951 . S
H288 C308 0.950 . S
H289 C309 0.950 . S
H290 C311 0.950 . S
H291 C314 0.950 . S
H292 C315 0.950 . S
H293 C317 0.950 . S
H294 C318 0.950 . S
H295 C319 0.951 . S
H296 C321 0.951 . S
H297 C323 0.950 . S
H298 C324 0.950 . S
H299 C326 0.950 . S
H300 C329 0.950 . S
H301 C330 0.950 . S
H302 C332 0.950 . S
H303 C333 0.950 . S
C304 H286 0.951 . S
C304 C305 1.366 . S
C304 C306 1.388 . S
C305 C304 1.366 . S
C305 C309 1.385 . S
C306 H287 0.951 . S
C306 C304 1.388 . S
C306 C307 1.366 . S
C307 C306 1.366 . S
C307 C308 1.414 . S
C307 C310 1.499 . S
C308 H288 0.950 . S
C308 C307 1.414 . S
C308 C309 1.374 . S
C309 H289 0.950 . S
C309 C305 1.385 . S
C309 C308 1.374 . S
C310 C307 1.499 . S
C310 C311 1.373 . S
C310 C312 1.389 . S
C311 H290 0.950 . S
C311 C310 1.373 . S
C311 C327 1.377 . S
C312 C310 1.389 . S
C312 C313 1.524 . S
C312 C326 1.377 . S
C313 C312 1.524 . S
C313 C314 1.397 . S
C313 C318 1.363 . S
C314 H291 0.950 . S
C314 C313 1.397 . S
C314 C315 1.334 . S
C315 H292 0.950 . S
C315 C314 1.334 . S
C315 C316 1.287 . S
C316 C315 1.287 . S
C316 C317 1.524 . S
C316 H335 0.913 . S
C317 H293 0.950 . S
C317 C316 1.524 . S
C317 C318 1.415 . S
C318 H294 0.950 . S
C318 C313 1.363 . S
C318 C317 1.415 . S
C319 H295 0.951 . S
C319 C320 1.366 . S
C319 C321 1.388 . S
C320 C319 1.366 . S
C320 C324 1.385 . S
C321 H296 0.951 . S
C321 C319 1.388 . S
C321 C322 1.366 . S
C322 C321 1.366 . S
C322 C323 1.414 . S
C322 C325 1.499 . S
C323 H297 0.950 . S
C323 C322 1.414 . S
C323 C324 1.374 . S
C324 H298 0.950 . S
C324 C320 1.385 . S
C324 C323 1.374 . S
C325 C322 1.499 . S
C325 C326 1.373 . S
C325 C327 1.389 . S
C326 H299 0.950 . S
C326 C312 1.377 . S
C326 C325 1.373 . S
C327 C311 1.377 . S
C327 C325 1.389 . S
C327 C328 1.524 . S
C328 C327 1.524 . S
C328 C329 1.397 . S
C328 C333 1.363 . S
C329 H300 0.950 . S
C329 C328 1.397 . S
C329 C330 1.334 . S
C330 H301 0.950 . S
C330 C329 1.334 . S
C330 C331 1.287 . S
C331 C330 1.287 . S
C331 C332 1.524 . S
C331 H334 0.999 . S
C332 H302 0.950 . S
C332 C331 1.524 . S
C332 C333 1.415 . S
C333 H303 0.950 . S
C333 C328 1.363 . S
C333 C332 1.415 . S
H334 C331 0.999 . S
H335 C316 0.913 . S
H336 C354 0.951 . S
H337 C356 0.951 . S
H338 C358 0.950 . S
H339 C359 0.950 . S
H340 C361 0.950 . S
H341 C364 0.950 . S
H342 C365 0.950 . S
H343 C367 0.950 . S
H344 C368 0.950 . S
H345 C369 0.951 . S
H346 C371 0.951 . S
H347 C373 0.950 . S
H348 C374 0.950 . S
H349 C376 0.950 . S
H350 C379 0.950 . S
H351 C380 0.950 . S
H352 C382 0.950 . S
H353 C383 0.950 . S
C354 H336 0.951 . S
C354 C355 1.366 . S
C354 C356 1.388 . S
C355 C354 1.366 . S
C355 C359 1.385 . S
C356 H337 0.951 . S
C356 C354 1.388 . S
C356 C357 1.366 . S
C357 C356 1.366 . S
C357 C358 1.414 . S
C357 C360 1.499 . S
C358 H338 0.950 . S
C358 C357 1.414 . S
C358 C359 1.374 . S
C359 H339 0.950 . S
C359 C355 1.385 . S
C359 C358 1.374 . S
C360 C357 1.499 . S
C360 C361 1.373 . S
C360 C362 1.389 . S
C361 H340 0.950 . S
C361 C360 1.373 . S
C361 C377 1.377 . S
C362 C360 1.389 . S
C362 C363 1.524 . S
C362 C376 1.377 . S
C363 C362 1.524 . S
C363 C364 1.397 . S
C363 C368 1.363 . S
C364 H341 0.950 . S
C364 C363 1.397 . S
C364 C365 1.334 . S
C365 H342 0.950 . S
C365 C364 1.334 . S
C365 C366 1.287 . S
C366 C365 1.287 . S
C366 C367 1.524 . S
C366 H385 0.913 . S
C367 H343 0.950 . S
C367 C366 1.524 . S
C367 C368 1.415 . S
C368 H344 0.950 . S
C368 C363 1.363 . S
C368 C367 1.415 . S
C369 H345 0.951 . S
C369 C370 1.366 . S
C369 C371 1.388 . S
C370 C369 1.366 . S
C370 C374 1.385 . S
C371 H346 0.951 . S
C371 C369 1.388 . S
C371 C372 1.366 . S
C372 C371 1.366 . S
C372 C373 1.414 . S
C372 C375 1.499 . S
C373 H347 0.950 . S
C373 C372 1.414 . S
C373 C374 1.374 . S
C374 H348 0.950 . S
C374 C370 1.385 . S
C374 C373 1.374 . S
C375 C372 1.499 . S
C375 C376 1.373 . S
C375 C377 1.389 . S
C376 H349 0.950 . S
C376 C362 1.377 . S
C376 C375 1.373 . S
C377 C361 1.377 . S
C377 C375 1.389 . S
C377 C378 1.524 . S
C378 C377 1.524 . S
C378 C379 1.397 . S
C378 C383 1.363 . S
C379 H350 0.950 . S
C379 C378 1.397 . S
C379 C380 1.334 . S
C380 H351 0.950 . S
C380 C379 1.334 . S
C380 C381 1.287 . S
C381 C380 1.287 . S
C381 C382 1.524 . S
C381 H384 0.999 . S
C382 H352 0.950 . S
C382 C381 1.524 . S
C382 C383 1.415 . S
C383 H353 0.950 . S
C383 C378 1.363 . S
C383 C382 1.415 . S
H384 C381 0.999 . S
H385 C366 0.913 . S
H386 C404 0.951 . S
H387 C406 0.951 . S
H388 C408 0.950 . S
H389 C409 0.950 . S
H390 C411 0.950 . S
H391 C414 0.950 . S
H392 C415 0.950 . S
H393 C417 0.950 . S
H394 C418 0.950 . S
H395 C419 0.951 . S
H396 C421 0.951 . S
H397 C423 0.950 . S
H398 C424 0.950 . S
H399 C426 0.950 . S
H400 C429 0.950 . S
H401 C430 0.950 . S
H402 C432 0.950 . S
H403 C433 0.950 . S
C404 H386 0.951 . S
C404 C405 1.366 . S
C404 C406 1.388 . S
C405 C404 1.366 . S
C405 C409 1.385 . S
C406 H387 0.951 . S
C406 C404 1.388 . S
C406 C407 1.366 . S
C407 C406 1.366 . S
C407 C408 1.414 . S
C407 C410 1.499 . S
C408 H388 0.950 . S
C408 C407 1.414 . S
C408 C409 1.374 . S
C409 H389 0.950 . S
C409 C405 1.385 . S
C409 C408 1.374 . S
C410 C407 1.499 . S
C410 C411 1.373 . S
C410 C412 1.389 . S
C411 H390 0.950 . S
C411 C410 1.373 . S
C411 C427 1.377 . S
C412 C410 1.389 . S
C412 C413 1.524 . S
C412 C426 1.377 . S
C413 C412 1.524 . S
C413 C414 1.397 1_556 S
C413 C418 1.363 . S
C414 H391 0.950 . S
C414 C413 1.397 1_554 S
C414 C415 1.334 . S
C415 H392 0.950 . S
C415 C414 1.334 . S
C415 C416 1.287 . S
C416 C415 1.287 . S
C416 C417 1.524 . S
C416 H435 0.913 . S
C417 H393 0.950 . S
C417 C416 1.524 . S
C417 C418 1.415 1_554 S
C418 H394 0.950 . S
C418 C413 1.363 . S
C418 C417 1.415 1_556 S
C419 H395 0.951 . S
C419 C420 1.366 . S
C419 C421 1.388 . S
C420 C419 1.366 . S
C420 C424 1.385 . S
C421 H396 0.951 . S
C421 C419 1.388 . S
C421 C422 1.366 . S
C422 C421 1.366 . S
C422 C423 1.414 . S
C422 C425 1.499 . S
C423 H397 0.950 . S
C423 C422 1.414 . S
C423 C424 1.374 . S
C424 H398 0.950 . S
C424 C420 1.385 . S
C424 C423 1.374 . S
C425 C422 1.499 . S
C425 C426 1.373 . S
C425 C427 1.389 . S
C426 H399 0.950 . S
C426 C412 1.377 . S
C426 C425 1.373 . S
C427 C411 1.377 . S
C427 C425 1.389 . S
C427 C428 1.524 . S
C428 C427 1.524 . S
C428 C429 1.397 . S
C428 C433 1.363 . S
C429 H400 0.950 . S
C429 C428 1.397 . S
C429 C430 1.334 . S
C430 H401 0.950 . S
C430 C429 1.334 . S
C430 C431 1.287 . S
C431 C430 1.287 . S
C431 C432 1.524 . S
C431 H434 0.999 . S
C432 H402 0.950 . S
C432 C431 1.524 . S
C432 C433 1.415 . S
C433 H403 0.950 . S
C433 C428 1.363 . S
C433 C432 1.415 . S
H434 C431 0.999 . S
H435 C416 0.913 . S
H436 C454 0.951 . S
H437 C456 0.951 . S
H438 C458 0.950 1_554 S
H439 C459 0.950 1_554 S
H440 C461 0.950 . S
H441 C464 0.950 . S
H442 C465 0.950 . S
H443 C467 0.950 . S
H444 C468 0.950 . S
H445 C469 0.951 . S
H446 C471 0.951 . S
H447 C473 0.950 . S
H448 C474 0.950 . S
H449 C476 0.950 . S
H450 C479 0.950 . S
H451 C480 0.950 . S
H452 C482 0.950 . S
H453 C483 0.950 . S
C454 H436 0.951 . S
C454 C455 1.366 . S
C454 C456 1.388 . S
C455 C454 1.366 . S
C455 C459 1.385 . S
C456 H437 0.951 . S
C456 C454 1.388 . S
C456 C457 1.366 . S
C457 C456 1.366 . S
C457 C458 1.414 . S
C457 C460 1.499 . S
C458 H438 0.950 1_556 S
C458 C457 1.414 . S
C458 C459 1.374 . S
C459 H439 0.950 1_556 S
C459 C455 1.385 . S
C459 C458 1.374 . S
C460 C457 1.499 . S
C460 C461 1.373 . S
C460 C462 1.389 . S
C461 H440 0.950 . S
C461 C460 1.373 . S
C461 C477 1.377 . S
C462 C460 1.389 . S
C462 C463 1.524 . S
C462 C476 1.377 . S
C463 C462 1.524 . S
C463 C464 1.397 . S
C463 C468 1.363 . S
C464 H441 0.950 . S
C464 C463 1.397 . S
C464 C465 1.334 . S
C465 H442 0.950 . S
C465 C464 1.334 . S
C465 C466 1.287 . S
C466 C465 1.287 . S
C466 C467 1.524 . S
C466 H485 0.913 . S
C467 H443 0.950 . S
C467 C466 1.524 . S
C467 C468 1.415 . S
C468 H444 0.950 . S
C468 C463 1.363 . S
C468 C467 1.415 . S
C469 H445 0.951 . S
C469 C470 1.366 . S
C469 C471 1.388 . S
C470 C469 1.366 . S
C470 C474 1.385 . S
C471 H446 0.951 . S
C471 C469 1.388 . S
C471 C472 1.366 . S
C472 C471 1.366 . S
C472 C473 1.414 . S
C472 C475 1.499 . S
C473 H447 0.950 . S
C473 C472 1.414 . S
C473 C474 1.374 . S
C474 H448 0.950 . S
C474 C470 1.385 . S
C474 C473 1.374 . S
C475 C472 1.499 . S
C475 C476 1.373 . S
C475 C477 1.389 . S
C476 H449 0.950 . S
C476 C462 1.377 . S
C476 C475 1.373 . S
C477 C461 1.377 . S
C477 C475 1.389 . S
C477 C478 1.524 . S
C478 C477 1.524 . S
C478 C479 1.397 . S
C478 C483 1.363 1_556 S
C479 H450 0.950 . S
C479 C478 1.397 . S
C479 C480 1.334 . S
C480 H451 0.950 . S
C480 C479 1.334 . S
C480 C481 1.264 1_556 S
C481 C480 1.264 1_554 S
C481 C482 1.538 . S
C481 H484 1.011 . S
C482 H452 0.950 . S
C482 C481 1.538 . S
C482 C483 1.415 . S
C483 H453 0.950 . S
C483 C478 1.363 1_554 S
C483 C482 1.415 . S
H484 C481 1.011 . S
H485 C466 0.913 . S
H486 C504 0.951 . S
H487 C506 0.951 . S
H488 C508 0.950 . S
H489 C509 0.950 . S
H490 C511 0.950 . S
H491 C514 0.950 . S
H492 C515 0.950 . S
H493 C517 0.950 . S
H494 C518 0.950 . S
H495 C519 0.951 . S
H496 C521 0.951 . S
H497 C523 0.950 . S
H498 C524 0.950 . S
H499 C526 0.950 . S
H500 C529 0.950 . S
H501 C530 0.950 . S
H502 C532 0.950 . S
H503 C533 0.950 . S
C504 H486 0.951 . S
C504 C505 1.366 . S
C504 C506 1.388 . S
C505 C504 1.366 . S
C505 C509 1.385 . S
C506 H487 0.951 . S
C506 C504 1.388 . S
C506 C507 1.366 . S
C507 C506 1.366 . S
C507 C508 1.414 . S
C507 C510 1.499 . S
C508 H488 0.950 . S
C508 C507 1.414 . S
C508 C509 1.374 . S
C509 H489 0.950 . S
C509 C505 1.385 . S
C509 C508 1.374 . S
C510 C507 1.499 . S
C510 C511 1.373 . S
C510 C512 1.389 . S
C511 H490 0.950 . S
C511 C510 1.373 . S
C511 C527 1.377 . S
C512 C510 1.389 . S
C512 C513 1.524 . S
C512 C526 1.377 . S
C513 C512 1.524 . S
C513 C514 1.397 . S
C513 C518 1.363 . S
C514 H491 0.950 . S
C514 C513 1.397 . S
C514 C515 1.334 . S
C515 H492 0.950 . S
C515 C514 1.334 . S
C515 C516 1.287 . S
C516 C515 1.287 . S
C516 C517 1.524 . S
C516 H535 0.913 . S
C517 H493 0.950 . S
C517 C516 1.524 . S
C517 C518 1.415 . S
C518 H494 0.950 . S
C518 C513 1.363 . S
C518 C517 1.415 . S
C519 H495 0.951 . S
C519 C520 1.366 . S
C519 C521 1.388 . S
C520 C519 1.366 . S
C520 C524 1.385 . S
C521 H496 0.951 . S
C521 C519 1.388 . S
C521 C522 1.366 . S
C522 C521 1.366 . S
C522 C523 1.414 . S
C522 C525 1.499 . S
C523 H497 0.950 . S
C523 C522 1.414 . S
C523 C524 1.374 . S
C524 H498 0.950 . S
C524 C520 1.385 . S
C524 C523 1.374 . S
C525 C522 1.499 . S
C525 C526 1.373 . S
C525 C527 1.389 . S
C526 H499 0.950 . S
C526 C512 1.377 . S
C526 C525 1.373 . S
C527 C511 1.377 . S
C527 C525 1.389 . S
C527 C528 1.524 . S
C528 C527 1.524 . S
C528 C529 1.397 . S
C528 C533 1.363 . S
C529 H500 0.950 . S
C529 C528 1.397 . S
C529 C530 1.334 . S
C530 H501 0.950 . S
C530 C529 1.334 . S
C530 C531 1.287 . S
C531 C530 1.287 . S
C531 C532 1.524 . S
C531 H534 0.999 1_556 S
C532 H502 0.950 . S
C532 C531 1.524 . S
C532 C533 1.415 . S
C533 H503 0.950 . S
C533 C528 1.363 . S
C533 C532 1.415 . S
H534 C531 0.999 1_554 S
H535 C516 0.913 . S
H536 C554 0.951 . S
H537 C556 0.951 . S
H538 C558 0.950 . S
H539 C559 0.950 . S
H540 C561 0.950 . S
H541 C564 0.950 . S
H542 C565 0.950 . S
H543 C567 0.950 . S
H544 C568 0.950 . S
H545 C569 0.951 . S
H546 C571 0.951 . S
H547 C573 0.950 . S
H548 C574 0.950 . S
H549 C576 0.950 . S
H550 C579 0.950 . S
H551 C580 0.950 . S
H552 C582 0.950 . S
H553 C583 0.950 . S
C554 H536 0.951 . S
C554 C555 1.366 . S
C554 C556 1.388 . S
C555 C554 1.366 . S
C555 C559 1.385 . S
C556 H537 0.951 . S
C556 C554 1.388 . S
C556 C557 1.366 . S
C557 C556 1.366 . S
C557 C558 1.414 . S
C557 C560 1.499 . S
C558 H538 0.950 . S
C558 C557 1.414 . S
C558 C559 1.374 . S
C559 H539 0.950 . S
C559 C555 1.385 . S
C559 C558 1.374 . S
C560 C557 1.499 . S
C560 C561 1.373 . S
C560 C562 1.389 . S
C561 H540 0.950 . S
C561 C560 1.373 . S
C561 C577 1.377 . S
C562 C560 1.389 . S
C562 C563 1.524 . S
C562 C576 1.377 . S
C563 C562 1.524 . S
C563 C564 1.397 . S
C563 C568 1.363 . S
C564 H541 0.950 . S
C564 C563 1.397 . S
C564 C565 1.334 . S
C565 H542 0.950 . S
C565 C564 1.334 . S
C565 C566 1.287 . S
C566 C565 1.287 . S
C566 C567 1.524 . S
C566 H585 0.913 . S
C567 H543 0.950 . S
C567 C566 1.524 . S
C567 C568 1.415 . S
C568 H544 0.950 . S
C568 C563 1.363 . S
C568 C567 1.415 . S
C569 H545 0.951 . S
C569 C570 1.366 . S
C569 C571 1.388 . S
C570 C569 1.366 . S
C570 C574 1.385 . S
C571 H546 0.951 . S
C571 C569 1.388 . S
C571 C572 1.366 . S
C572 C571 1.366 . S
C572 C573 1.414 . S
C572 C575 1.499 . S
C573 H547 0.950 . S
C573 C572 1.414 . S
C573 C574 1.374 . S
C574 H548 0.950 . S
C574 C570 1.385 . S
C574 C573 1.374 . S
C575 C572 1.499 . S
C575 C576 1.373 . S
C575 C577 1.389 . S
C576 H549 0.950 . S
C576 C562 1.377 . S
C576 C575 1.373 . S
C577 C561 1.377 . S
C577 C575 1.389 . S
C577 C578 1.524 . S
C578 C577 1.524 . S
C578 C579 1.397 . S
C578 C583 1.363 . S
C579 H550 0.950 . S
C579 C578 1.397 . S
C579 C580 1.334 . S
C580 H551 0.950 . S
C580 C579 1.334 . S
C580 C581 1.287 . S
C581 C580 1.287 . S
C581 C582 1.524 . S
C581 H584 0.999 . S
C582 H552 0.950 . S
C582 C581 1.524 . S
C582 C583 1.415 . S
C583 H553 0.950 . S
C583 C578 1.363 . S
C583 C582 1.415 . S
H584 C581 0.999 . S
H585 C566 0.913 . S
H586 C604 0.951 . S
H587 C606 0.951 . S
H588 C608 0.950 . S
H589 C609 0.950 . S
H590 C611 0.950 . S
H591 C614 0.950 . S
H592 C615 0.950 . S
H593 C617 0.950 . S
H594 C618 0.950 . S
H595 C619 0.951 . S
H596 C621 0.951 . S
H597 C623 0.950 . S
H598 C624 0.950 . S
H599 C626 0.950 . S
H600 C629 0.950 . S
H601 C630 0.950 . S
H602 C632 0.950 . S
H603 C633 0.950 . S
C604 H586 0.951 . S
C604 C605 1.366 . S
C604 C606 1.388 . S
C605 C604 1.366 . S
C605 C609 1.385 . S
C606 H587 0.951 . S
C606 C604 1.388 . S
C606 C607 1.366 . S
C607 C606 1.366 . S
C607 C608 1.414 . S
C607 C610 1.499 . S
C608 H588 0.950 . S
C608 C607 1.414 . S
C608 C609 1.374 . S
C609 H589 0.950 . S
C609 C605 1.385 . S
C609 C608 1.374 . S
C610 C607 1.499 . S
C610 C611 1.373 . S
C610 C612 1.389 . S
C611 H590 0.950 . S
C611 C610 1.373 . S
C611 C627 1.377 . S
C612 C610 1.389 . S
C612 C613 1.524 . S
C612 C626 1.377 . S
C613 C612 1.524 . S
C613 C614 1.397 . S
C613 C618 1.363 . S
C614 H591 0.950 . S
C614 C613 1.397 . S
C614 C615 1.334 . S
C615 H592 0.950 . S
C615 C614 1.334 . S
C615 C616 1.287 . S
C616 C615 1.287 . S
C616 C617 1.524 . S
C616 H635 0.913 . S
C617 H593 0.950 . S
C617 C616 1.524 . S
C617 C618 1.415 . S
C618 H594 0.950 . S
C618 C613 1.363 . S
C618 C617 1.415 . S
C619 H595 0.951 . S
C619 C620 1.366 . S
C619 C621 1.388 1_455 S
C620 C619 1.366 . S
C620 C624 1.385 1_455 S
C621 H596 0.951 . S
C621 C619 1.388 1_655 S
C621 C622 1.366 . S
C622 C621 1.366 . S
C622 C623 1.414 . S
C622 C625 1.499 . S
C623 H597 0.950 . S
C623 C622 1.414 . S
C623 C624 1.374 . S
C624 H598 0.950 . S
C624 C620 1.385 1_655 S
C624 C623 1.374 . S
C625 C622 1.499 . S
C625 C626 1.373 . S
C625 C627 1.389 . S
C626 H599 0.950 . S
C626 C612 1.377 . S
C626 C625 1.373 . S
C627 C611 1.377 . S
C627 C625 1.389 . S
C627 C628 1.524 . S
C628 C627 1.524 . S
C628 C629 1.397 . S
C628 C633 1.363 . S
C629 H600 0.950 . S
C629 C628 1.397 . S
C629 C630 1.334 1_655 S
C630 H601 0.950 . S
C630 C629 1.334 1_455 S
C630 C631 1.287 . S
C631 C630 1.287 . S
C631 C632 1.524 . S
C631 H634 0.999 . S
C632 H602 0.950 . S
C632 C631 1.524 . S
C632 C633 1.415 1_455 S
C633 H603 0.950 . S
C633 C628 1.363 . S
C633 C632 1.415 1_655 S
H634 C631 0.999 . S
H635 C616 0.913 . S
H636 C654 0.951 . S
H637 C656 0.951 . S
H638 C658 0.950 . S
H639 C659 0.950 . S
H640 C661 0.950 . S
H641 C664 0.950 . S
H642 C665 0.950 . S
H643 C667 0.950 . S
H644 C668 0.950 . S
H645 C669 0.951 . S
H646 C671 0.951 . S
H647 C673 0.950 . S
H648 C674 0.950 . S
H649 C676 0.950 . S
H650 C679 0.950 . S
H651 C680 0.950 . S
H652 C682 0.950 . S
H653 C683 0.950 . S
C654 H636 0.951 . S
C654 C655 1.366 . S
C654 C656 1.388 . S
C655 C654 1.366 . S
C655 C659 1.385 . S
C656 H637 0.951 . S
C656 C654 1.388 . S
C656 C657 1.366 . S
C657 C656 1.366 . S
C657 C658 1.414 . S
C657 C660 1.499 . S
C658 H638 0.950 . S
C658 C657 1.414 . S
C658 C659 1.374 . S
C659 H639 0.950 . S
C659 C655 1.385 . S
C659 C658 1.374 . S
C660 C657 1.499 . S
C660 C661 1.373 . S
C660 C662 1.389 . S
C661 H640 0.950 . S
C661 C660 1.373 . S
C661 C677 1.377 . S
C662 C660 1.389 . S
C662 C663 1.524 . S
C662 C676 1.377 . S
C663 C662 1.524 . S
C663 C664 1.397 . S
C663 C668 1.363 . S
C664 H641 0.950 . S
C664 C663 1.397 . S
C664 C665 1.334 . S
C665 H642 0.950 . S
C665 C664 1.334 . S
C665 C666 1.287 . S
C666 C665 1.287 . S
C666 C667 1.524 . S
C666 H685 0.913 . S
C667 H643 0.950 . S
C667 C666 1.524 . S
C667 C668 1.415 . S
C668 H644 0.950 . S
C668 C663 1.363 . S
C668 C667 1.415 . S
C669 H645 0.951 . S
C669 C670 1.366 . S
C669 C671 1.388 . S
C670 C669 1.366 . S
C670 C674 1.385 . S
C671 H646 0.951 . S
C671 C669 1.388 . S
C671 C672 1.366 . S
C672 C671 1.366 . S
C672 C673 1.414 . S
C672 C675 1.499 . S
C673 H647 0.950 . S
C673 C672 1.414 . S
C673 C674 1.374 . S
C674 H648 0.950 . S
C674 C670 1.385 . S
C674 C673 1.374 . S
C675 C672 1.499 . S
C675 C676 1.373 . S
C675 C677 1.389 . S
C676 H649 0.950 . S
C676 C662 1.377 . S
C676 C675 1.373 . S
C677 C661 1.377 . S
C677 C675 1.389 . S
C677 C678 1.524 . S
C678 C677 1.524 . S
C678 C679 1.397 . S
C678 C683 1.363 . S
C679 H650 0.950 . S
C679 C678 1.397 . S
C679 C680 1.334 . S
C680 H651 0.950 . S
C680 C679 1.334 . S
C680 C681 1.287 . S
C681 C680 1.287 . S
C681 C682 1.524 . S
C681 H684 0.999 . S
C682 H652 0.950 . S
C682 C681 1.524 . S
C682 C683 1.415 . S
C683 H653 0.950 . S
C683 C678 1.363 . S
C683 C682 1.415 . S
H684 C681 0.999 . S
H685 C666 0.913 . S
H686 C704 0.951 . S
H687 C706 0.951 . S
H688 C708 0.950 . S
H689 C709 0.950 . S
H690 C711 0.950 . S
H691 C714 0.950 . S
H692 C715 0.950 . S
H693 C717 0.950 . S
H694 C718 0.950 . S
H695 C719 0.951 . S
H696 C721 0.951 . S
H697 C723 0.950 . S
H698 C724 0.950 . S
H699 C726 0.950 . S
H700 C729 0.950 . S
H701 C730 0.950 . S
H702 C732 0.950 . S
H703 C733 0.950 . S
C704 H686 0.951 . S
C704 C705 1.366 . S
C704 C706 1.388 . S
C705 C704 1.366 . S
C705 C709 1.385 . S
C706 H687 0.951 . S
C706 C704 1.388 . S
C706 C707 1.366 . S
C707 C706 1.366 . S
C707 C708 1.414 . S
C707 C710 1.499 . S
C708 H688 0.950 . S
C708 C707 1.414 . S
C708 C709 1.374 . S
C709 H689 0.950 . S
C709 C705 1.385 . S
C709 C708 1.374 . S
C710 C707 1.499 . S
C710 C711 1.373 . S
C710 C712 1.389 . S
C711 H690 0.950 . S
C711 C710 1.373 . S
C711 C727 1.377 . S
C712 C710 1.389 . S
C712 C713 1.524 . S
C712 C726 1.377 . S
C713 C712 1.524 . S
C713 C714 1.397 . S
C713 C718 1.363 . S
C714 H691 0.950 . S
C714 C713 1.397 . S
C714 C715 1.334 . S
C715 H692 0.950 . S
C715 C714 1.334 . S
C715 C716 1.287 . S
C716 C715 1.287 . S
C716 C717 1.524 . S
C716 H735 0.913 . S
C717 H693 0.950 . S
C717 C716 1.524 . S
C717 C718 1.415 . S
C718 H694 0.950 . S
C718 C713 1.363 . S
C718 C717 1.415 . S
C719 H695 0.951 . S
C719 C720 1.366 . S
C719 C721 1.388 . S
C720 C719 1.366 . S
C720 C724 1.385 . S
C721 H696 0.951 . S
C721 C719 1.388 . S
C721 C722 1.366 . S
C722 C721 1.366 . S
C722 C723 1.414 . S
C722 C725 1.499 . S
C723 H697 0.950 . S
C723 C722 1.414 . S
C723 C724 1.374 . S
C724 H698 0.950 . S
C724 C720 1.385 . S
C724 C723 1.374 . S
C725 C722 1.499 . S
C725 C726 1.373 . S
C725 C727 1.389 . S
C726 H699 0.950 . S
C726 C712 1.377 . S
C726 C725 1.373 . S
C727 C711 1.377 . S
C727 C725 1.389 . S
C727 C728 1.524 . S
C728 C727 1.524 . S
C728 C729 1.397 . S
C728 C733 1.363 . S
C729 H700 0.950 . S
C729 C728 1.397 . S
C729 C730 1.334 . S
C730 H701 0.950 . S
C730 C729 1.334 . S
C730 C731 1.287 . S
C731 C730 1.287 . S
C731 C732 1.524 . S
C731 H734 0.999 . S
C732 H702 0.950 . S
C732 C731 1.524 . S
C732 C733 1.415 . S
C733 H703 0.950 . S
C733 C728 1.363 . S
C733 C732 1.415 . S
H734 C731 0.999 . S
H735 C716 0.913 . S
H736 C754 0.951 . S
H737 C756 0.951 . S
H738 C758 0.950 . S
H739 C759 0.950 . S
H740 C761 0.950 . S
H741 C764 0.950 . S
H742 C765 0.950 . S
H743 C767 0.950 . S
H744 C768 0.950 . S
H745 C769 0.951 . S
H746 C771 0.951 . S
H747 C773 0.950 . S
H748 C774 0.950 . S
H749 C776 0.950 . S
H750 C779 0.950 . S
H751 C780 0.950 . S
H752 C782 0.950 . S
H753 C783 0.950 . S
C754 H736 0.951 . S
C754 C755 1.366 . S
C754 C756 1.388 . S
C755 C754 1.366 . S
C755 C759 1.385 . S
C756 H737 0.951 . S
C756 C754 1.388 . S
C756 C757 1.366 . S
C757 C756 1.366 . S
C757 C758 1.414 . S
C757 C760 1.499 . S
C758 H738 0.950 . S
C758 C757 1.414 . S
C758 C759 1.374 . S
C759 H739 0.950 . S
C759 C755 1.385 . S
C759 C758 1.374 . S
C760 C757 1.499 . S
C760 C761 1.373 . S
C760 C762 1.389 . S
C761 H740 0.950 . S
C761 C760 1.373 . S
C761 C777 1.377 . S
C762 C760 1.389 . S
C762 C763 1.524 . S
C762 C776 1.377 . S
C763 C762 1.524 . S
C763 C764 1.397 . S
C763 C768 1.363 . S
C764 H741 0.950 . S
C764 C763 1.397 . S
C764 C765 1.334 . S
C765 H742 0.950 . S
C765 C764 1.334 . S
C765 C766 1.287 . S
C766 C765 1.287 . S
C766 C767 1.524 . S
C766 H785 0.913 . S
C767 H743 0.950 . S
C767 C766 1.524 . S
C767 C768 1.415 . S
C768 H744 0.950 . S
C768 C763 1.363 . S
C768 C767 1.415 . S
C769 H745 0.951 . S
C769 C770 1.366 . S
C769 C771 1.388 . S
C770 C769 1.366 . S
C770 C774 1.385 . S
C771 H746 0.951 . S
C771 C769 1.388 . S
C771 C772 1.366 . S
C772 C771 1.366 . S
C772 C773 1.414 . S
C772 C775 1.499 . S
C773 H747 0.950 . S
C773 C772 1.414 . S
C773 C774 1.374 . S
C774 H748 0.950 . S
C774 C770 1.385 . S
C774 C773 1.374 . S
C775 C772 1.499 . S
C775 C776 1.373 . S
C775 C777 1.389 . S
C776 H749 0.950 . S
C776 C762 1.377 . S
C776 C775 1.373 . S
C777 C761 1.377 . S
C777 C775 1.389 . S
C777 C778 1.524 . S
C778 C777 1.524 . S
C778 C779 1.397 . S
C778 C783 1.363 . S
C779 H750 0.950 . S
C779 C778 1.397 . S
C779 C780 1.334 . S
C780 H751 0.950 . S
C780 C779 1.334 . S
C780 C781 1.287 . S
C781 C780 1.287 . S
C781 C782 1.524 . S
C781 H784 0.999 . S
C782 H752 0.950 . S
C782 C781 1.524 . S
C782 C783 1.415 . S
C783 H753 0.950 . S
C783 C778 1.363 . S
C783 C782 1.415 . S
H784 C781 0.999 . S
H785 C766 0.913 . S
C220 C151 1.409 . S
C205 C25 1.499 . S
C270 C147 1.412 . S
C255 C61 1.512 . S
C320 C172 1.409 . S
C305 C97 1.499 . S
C355 C133 1.511 . S
C370 C168 1.413 . S
C405 C31 1.072 . S
C420 C169 0.983 . S
C470 C184 1.001 . S
C455 C37 1.116 . S
C505 C1 1.722 . S
C520 C185 1.594 . S
C570 C181 1.614 . S
C555 C67 1.746 . S
C620 C148 0.982 . S
C605 C103 1.073 . S
C655 C109 1.116 . S
C670 C163 1.004 . S
C720 C164 1.595 . S
C705 C73 1.722 . S
C770 C160 1.631 . S
C755 C139 1.746 . S
