# Generated by pormake.
# Topology zzz, (3,6)-cn, num edge types: 1
# Building blocks:
#     Node 0, Type 0, BuildingBlock: MIDCAF_clean_linker_0, # of connection points: 3
#     Node 1, Type 0, BuildingBlock: MIDCAF_clean_linker_0, # of connection points: 3
#     Node 2, Type 0, BuildingBlock: MIDCAF_clean_linker_0, # of connection points: 3
#     Node 3, Type 0, BuildingBlock: MIDCAF_clean_linker_0, # of connection points: 3
#     Node 4, Type 0, BuildingBlock: MIDCAF_clean_linker_0, # of connection points: 3
#     Node 5, Type 0, BuildingBlock: MIDCAF_clean_linker_0, # of connection points: 3
#     Node 6, Type 0, BuildingBlock: MIDCAF_clean_linker_0, # of connection points: 3
#     Node 7, Type 0, BuildingBlock: MIDCAF_clean_linker_0, # of connection points: 3
#     Node 8, Type 1, BuildingBlock: PAMTUU_clean_sbu_0, # of connection points: 6
#     Node 9, Type 1, BuildingBlock: PAMTUU_clean_sbu_0, # of connection points: 6
#     Node 10, Type 1, BuildingBlock: PAMTUU_clean_sbu_0, # of connection points: 6
#     Node 11, Type 1, BuildingBlock: PAMTUU_clean_sbu_0, # of connection points: 6
#     Edge 12, Type (0, 1), BuildingBlock: AJUNOK_clean_linker_0, # of connection points: 2
#     Edge 13, Type (0, 1), BuildingBlock: AJUNOK_clean_linker_0, # of connection points: 2
#     Edge 14, Type (0, 1), BuildingBlock: AJUNOK_clean_linker_0, # of connection points: 2
#     Edge 15, Type (0, 1), BuildingBlock: AJUNOK_clean_linker_0, # of connection points: 2
#     Edge 16, Type (0, 1), BuildingBlock: AJUNOK_clean_linker_0, # of connection points: 2
#     Edge 17, Type (0, 1), BuildingBlock: AJUNOK_clean_linker_0, # of connection points: 2
#     Edge 18, Type (0, 1), BuildingBlock: AJUNOK_clean_linker_0, # of connection points: 2
#     Edge 19, Type (0, 1), BuildingBlock: AJUNOK_clean_linker_0, # of connection points: 2
#     Edge 20, Type (0, 1), BuildingBlock: AJUNOK_clean_linker_0, # of connection points: 2
#     Edge 21, Type (0, 1), BuildingBlock: AJUNOK_clean_linker_0, # of connection points: 2
#     Edge 22, Type (0, 1), BuildingBlock: AJUNOK_clean_linker_0, # of connection points: 2
#     Edge 23, Type (0, 1), BuildingBlock: AJUNOK_clean_linker_0, # of connection points: 2
#     Edge 24, Type (0, 1), BuildingBlock: AJUNOK_clean_linker_0, # of connection points: 2
#     Edge 25, Type (0, 1), BuildingBlock: AJUNOK_clean_linker_0, # of connection points: 2
#     Edge 26, Type (0, 1), BuildingBlock: AJUNOK_clean_linker_0, # of connection points: 2
#     Edge 27, Type (0, 1), BuildingBlock: AJUNOK_clean_linker_0, # of connection points: 2
#     Edge 28, Type (0, 1), BuildingBlock: AJUNOK_clean_linker_0, # of connection points: 2
#     Edge 29, Type (0, 1), BuildingBlock: AJUNOK_clean_linker_0, # of connection points: 2
#     Edge 30, Type (0, 1), BuildingBlock: AJUNOK_clean_linker_0, # of connection points: 2
#     Edge 31, Type (0, 1), BuildingBlock: AJUNOK_clean_linker_0, # of connection points: 2
#     Edge 32, Type (0, 1), BuildingBlock: AJUNOK_clean_linker_0, # of connection points: 2
#     Edge 33, Type (0, 1), BuildingBlock: AJUNOK_clean_linker_0, # of connection points: 2
#     Edge 34, Type (0, 1), BuildingBlock: AJUNOK_clean_linker_0, # of connection points: 2
#     Edge 35, Type (0, 1), BuildingBlock: AJUNOK_clean_linker_0, # of connection points: 2
# Relax obj value: 0.422
# Max RMSD: 0.290
# Mean RMSD: 0.221
data_MOF--net-zzz--node1-PAMTUU_clean_sbu_0--node2-MIDCAF_clean_linker_0--edge1-AJUNOK_clean_linker_0
_symmetry_space_group_name_H-M    P1
_symmetry_Int_Tables_number       1
_symmetry_cell_setting            triclinic
loop_
_symmetry_equiv_pos_as_xyz
'x, y, z'
_cell_length_a     44.171833
_cell_length_b     48.42669
_cell_length_c     16.468993
_cell_angle_alpha  100.67913
_cell_angle_beta   89.892343
_cell_angle_gamma 89.008539
loop_
_atom_site_label
_atom_site_type_symbol
_atom_site_fract_x
_atom_site_fract_y
_atom_site_fract_z
_atom_type_partial_charge
C0 C 0.83948 0.5194 0.56376 0.0
C1 C 0.84971 0.49979 0.61197 0.0
C2 C 0.83386 0.47454 0.60546 0.0
C3 C 0.80938 0.46867 0.55144 0.0
H4 H 0.68628 0.50823 0.39371 0.0
H5 H 0.64398 0.5206 0.30939 0.0
H6 H 0.70066 0.50102 0.09164 0.0
H7 H 0.7426 0.49004 0.17599 0.0
H8 H 0.73927 0.41048 0.18468 0.0
H9 H 0.76557 0.37818 0.07501 0.0
H10 H 0.8417 0.37477 0.23722 0.0
H11 H 0.81522 0.40572 0.34705 0.0
H12 H 0.80836 0.52839 0.47043 0.0
H13 H 0.85109 0.53907 0.56681 0.0
H14 H 0.84128 0.4585 0.63927 0.0
H15 H 0.79877 0.44842 0.54633 0.0
N16 N 0.7574 0.49392 0.40088 0.0
N17 N 0.74544 0.45542 0.29633 0.0
N18 N 0.78282 0.45023 0.39206 0.0
C19 C 0.74034 0.48251 0.33348 0.0
C20 C 0.76644 0.43908 0.32495 0.0
C21 C 0.77869 0.47732 0.431 0.0
C22 C 0.71802 0.49865 0.29193 0.0
C23 C 0.68994 0.50781 0.32847 0.0
C24 C 0.66546 0.51419 0.27947 0.0
C25 C 0.66842 0.51118 0.19268 0.0
C26 C 0.6972 0.50377 0.15777 0.0
C27 C 0.72148 0.4976 0.20646 0.0
C28 C 0.77592 0.41194 0.27309 0.0
C29 C 0.76112 0.4019 0.19803 0.0
C30 C 0.77616 0.38336 0.13502 0.0
C31 C 0.80634 0.37522 0.14591 0.0
C32 C 0.81867 0.38107 0.22586 0.0
C33 C 0.80353 0.39922 0.28908 0.0
C34 C 0.79972 0.48768 0.50109 0.0
C35 C 0.81467 0.51349 0.50932 0.0
C36 C 0.0313 0.81664 0.66171 0.0
C37 C 1.00517 0.83355 0.68159 0.0
C38 C 0.97691 0.82224 0.65553 0.0
C39 C 0.97527 0.79636 0.60128 0.0
H40 H 0.95863 0.71223 0.24932 0.0
H41 H 0.9573 0.66559 0.16302 0.0
H42 H 0.02491 0.6362 0.31764 0.0
H43 H 0.02539 0.68301 0.40598 0.0
H44 H 0.04222 0.76539 0.20532 0.0
H45 H 0.06168 0.8007 0.12964 0.0
H46 H 1.01219 0.86573 0.2945 0.0
H47 H 0.99307 0.83089 0.36988 0.0
H48 H 0.0505 0.7801 0.58431 0.0
H49 H 0.05345 0.82475 0.68 0.0
H50 H 0.95634 0.83466 0.67053 0.0
H51 H 0.95365 0.79007 0.57351 0.0
N52 N 0.99735 0.74041 0.45485 0.0
N53 N 1.00385 0.74852 0.3187 0.0
N54 N 1.00806 0.78555 0.43041 0.0
C55 C 0.99785 0.73065 0.37124 0.0
C56 C 1.00889 0.77598 0.34826 0.0
C57 C 1.00249 0.76822 0.48396 0.0
C58 C 0.99201 0.70109 0.33437 0.0
C59 C 0.97246 0.69552 0.26641 0.0
C60 C 0.97191 0.6689 0.21661 0.0
C61 C 0.99121 0.64726 0.23286 0.0
C62 C 1.00947 0.65232 0.30404 0.0
C63 C 1.00973 0.67906 0.35477 0.0
C64 C 1.01638 0.79558 0.29349 0.0
C65 C 0.03506 0.78716 0.2239 0.0
C66 C 0.04634 0.80726 0.18128 0.0
C67 C 0.03856 0.83578 0.20718 0.0
C68 C 1.01844 0.84382 0.27355 0.0
C69 C 1.0076 0.82393 0.31666 0.0
C70 C 1.00184 0.7815 0.57173 0.0
C71 C 0.02959 0.79076 0.6075 0.0
C72 C 0.73043 0.97673 0.60009 0.0
C73 C 0.71044 0.99908 0.59234 0.0
C74 C 0.71841 0.01648 0.53599 0.0
C75 C 0.74465 0.01084 0.48619 0.0
H76 H 0.87475 0.93958 0.28024 0.0
H77 H 0.9163 0.94934 0.19257 0.0
H78 H 0.88545 0.03548 0.22007 0.0
H79 H 0.84325 0.02557 0.30846 0.0
H80 H 0.79952 0.92817 0.12895 0.0
H81 H 0.76127 0.9346 0.02816 0.0
H82 H 0.69114 0.92566 0.20323 0.0
H83 H 0.7291 0.91876 0.30365 0.0
H84 H 0.76984 0.95227 0.55297 0.0
H85 H 0.72493 0.96239 0.64093 0.0
H86 H 0.70365 0.03385 0.52794 0.0
H87 H 0.74873 0.02335 0.43927 0.0
N88 N 0.81067 0.98533 0.40053 0.0
N89 N 0.81272 0.95114 0.27816 0.0
N90 N 0.77088 0.95357 0.36551 0.0
C91 C 0.82594 0.97253 0.33014 0.0
C92 C 0.78517 0.94164 0.2946 0.0
C93 C 0.78312 0.97504 0.41904 0.0
C94 C 0.85574 0.98183 0.30236 0.0
C95 C 0.87737 0.96091 0.27029 0.0
C96 C 0.90107 0.96642 0.2192 0.0
C97 C 0.90398 0.99305 0.19807 0.0
C98 C 0.88385 0.01472 0.2352 0.0
C99 C 0.85986 0.00914 0.28661 0.0
C100 C 0.7671 0.92567 0.22662 0.0
C101 C 0.776 0.92573 0.14451 0.0
C102 C 0.75405 0.92931 0.08622 0.0
C103 C 0.72355 0.93275 0.11073 0.0
C104 C 0.7147 0.92428 0.18411 0.0
C105 C 0.73659 0.92051 0.24215 0.0
C106 C 0.7637 0.98762 0.49115 0.0
C107 C 0.75647 0.97102 0.54996 0.0
C108 C 0.46574 0.69528 0.06653 0.0
C109 C 0.48095 0.68281 0.99337 0.0
C110 C 0.50215 0.69885 0.95896 0.0
C111 C 0.50988 0.72558 1.00052 0.0
H112 H 0.59045 0.83172 0.17462 0.0
H113 H 0.59844 0.87554 0.1222 0.0
H114 H 0.50413 0.87756 0.05573 0.0
H115 H 0.49624 0.83397 0.10618 0.0
H116 H 0.54934 0.78436 0.4134 0.0
H117 H 0.56429 0.75513 0.51446 0.0
H118 H 0.59732 0.69069 0.31505 0.0
H119 H 0.58355 0.72013 0.21625 0.0
H120 H 0.46451 0.72954 0.16981 0.0
H121 H 0.44902 0.68372 0.09415 0.0
H122 H 0.51505 0.68988 0.90424 0.0
H123 H 0.52821 0.73635 0.97643 0.0
N124 N 0.51884 0.78347 0.11783 0.0
N125 N 0.55317 0.79272 0.22899 0.0
N126 N 0.52893 0.74928 0.19757 0.0
C127 C 0.53798 0.80138 0.1655 0.0
C128 C 0.54841 0.76647 0.24495 0.0
C129 C 0.514 0.75758 0.13466 0.0
C130 C 0.54274 0.82942 0.1443 0.0
C131 C 0.57141 0.84181 0.14987 0.0
C132 C 0.57604 0.86668 0.11939 0.0
C133 C 0.5519 0.87977 0.08467 0.0
C134 C 0.52308 0.86792 0.08233 0.0
C135 C 0.51862 0.84295 0.11107 0.0
C136 C 0.5655 0.75449 0.30736 0.0
C137 C 0.56104 0.76448 0.39216 0.0
C138 C 0.56903 0.74747 0.4496 0.0
C139 C 0.58129 0.72019 0.42269 0.0
C140 C 0.58802 0.7115 0.33831 0.0
C141 C 0.58019 0.72842 0.28151 0.0
C142 C 0.49725 0.73637 0.07814 0.0
C143 C 0.47425 0.72164 0.10935 0.0
C144 C 0.21045 0.51103 0.13513 0.0
C145 C 0.19868 0.48977 0.07347 0.0
C146 C 0.21706 0.46592 0.04512 0.0
C147 C 0.24507 0.46226 0.08191 0.0
H148 H 0.31863 0.52177 0.42229 0.0
H149 H 0.35813 0.53406 0.52653 0.0
H150 H 0.4237 0.48618 0.36112 0.0
H151 H 0.38406 0.47373 0.25742 0.0
H152 H 0.30988 0.43569 0.43985 0.0
H153 H 0.27022 0.43486 0.53743 0.0
H154 H 0.21149 0.3953 0.34159 0.0
H155 H 0.25078 0.3997 0.24134 0.0
H156 H 0.24606 0.52306 0.22361 0.0
H157 H 0.19699 0.52975 0.15821 0.0
H158 H 0.20926 0.44948 0.99626 0.0
H159 H 0.25757 0.44272 0.06196 0.0
N160 N 0.30361 0.49029 0.23372 0.0
N161 N 0.31838 0.45583 0.31048 0.0
N162 N 0.27574 0.44889 0.22688 0.0
C163 C 0.32357 0.48059 0.28643 0.0
C164 C 0.29438 0.43997 0.28223 0.0
C165 C 0.28 0.47364 0.20151 0.0
C166 C 0.34834 0.49747 0.33045 0.0
C167 C 0.34179 0.51514 0.40653 0.0
C168 C 0.36433 0.52168 0.46694 0.0
C169 C 0.39403 0.51072 0.45277 0.0
C170 C 0.40114 0.49503 0.37408 0.0
C171 C 0.37849 0.48822 0.31409 0.0
C172 C 0.28235 0.42026 0.33251 0.0
C173 C 0.28904 0.42559 0.41727 0.0
C174 C 0.26593 0.42483 0.47438 0.0
C175 C 0.23663 0.41683 0.44695 0.0
C176 C 0.23326 0.40331 0.36412 0.0
C177 C 0.25597 0.40543 0.3065 0.0
C178 C 0.25594 0.48246 0.14757 0.0
C179 C 0.23876 0.50738 0.17201 0.0
C180 C 1.02067 0.20551 0.98 0.0
C181 C 0.04309 0.18567 0.99202 0.0
C182 C 0.06322 0.19272 0.05854 0.0
C183 C 0.05913 0.21771 0.11597 0.0
H184 H 1.00001 0.34302 0.27667 0.0
H185 H 1.00484 0.38655 0.3787 0.0
H186 H 0.0701 0.34544 0.5129 0.0
H187 H 0.06522 0.30199 0.41068 0.0
H188 H 0.97387 0.26755 0.46372 0.0
H189 H 0.95165 0.23633 0.54738 0.0
H190 H 0.9413 0.17261 0.32868 0.0
H191 H 0.96251 0.20377 0.24482 0.0
H192 H 0.99686 0.24367 0.03228 0.0
H193 H 1.00497 0.20087 0.92905 0.0
H194 H 0.08033 0.1778 0.071 0.0
H195 H 0.07295 0.22117 0.1711 0.0
N196 N 0.03298 0.27868 0.21909 0.0
N197 N 1.00094 0.27916 0.33415 0.0
N198 N 1.00097 0.24081 0.22518 0.0
C199 C 1.02186 0.29193 0.29391 0.0
C200 C 0.99029 0.2536 0.29996 0.0
C201 C 1.02203 0.25305 0.18436 0.0
C202 C 0.03263 0.31945 0.33546 0.0
C203 C 1.01642 0.34378 0.32584 0.0
C204 C 1.01892 0.3685 0.38463 0.0
C205 C 0.03752 0.36915 0.45416 0.0
C206 C 0.05572 0.34551 0.45971 0.0
C207 C 0.05308 0.32075 0.4011 0.0
C208 C 0.97074 0.23788 0.34783 0.0
C209 C 0.9661 0.24719 0.43311 0.0
C210 C 0.95351 0.22929 0.48116 0.0
C211 C 0.9455 0.20185 0.44469 0.0
C212 C 0.94737 0.19363 0.35852 0.0
C213 C 0.9598 0.21147 0.31054 0.0
C214 C 0.03469 0.23594 0.10851 0.0
C215 C 1.01633 0.23028 0.03821 0.0
C216 C 0.35933 0.01119 0.14189 0.0
C217 C 0.36109 0.02508 0.07412 0.0
C218 C 0.33631 0.04253 0.06079 0.0
C219 C 0.31103 0.04647 0.1149 0.0
H220 H 0.21747 0.99298 0.31285 0.0
H221 H 0.17238 0.98233 0.38791 0.0
H222 H 0.14919 0.0707 0.44608 0.0
H223 H 0.19374 0.08106 0.36991 0.0
H224 H 0.25976 0.06371 0.54954 0.0
H225 H 0.28745 0.04986 0.66322 0.0
H226 H 0.37185 0.06183 0.54331 0.0
H227 H 0.34445 0.07514 0.42863 0.0
H228 H 0.33473 0.00537 0.24968 0.0
H229 H 0.37809 0.99824 0.15616 0.0
H230 H 0.33681 0.05369 1.0096 0.0
H231 H 0.29321 0.06118 0.10548 0.0
N232 N 0.25827 0.03716 0.25315 0.0
N233 N 0.25479 0.05818 0.39392 0.0
N234 N 0.3015 0.05532 0.32689 0.0
C235 C 0.24114 0.04549 0.32371 0.0
C236 C 0.28479 0.06305 0.39671 0.0
C237 C 0.28872 0.04294 0.25466 0.0
C238 C 0.20899 0.03784 0.33368 0.0
C239 C 0.20184 0.00993 0.33772 0.0
C240 C 0.17634 0.00395 0.38279 0.0
C241 C 0.15745 0.02574 0.42549 0.0
C242 C 0.16307 0.05333 0.41451 0.0
C243 C 0.18851 0.05927 0.36977 0.0
C244 C 0.3 0.06897 0.47785 0.0
C245 C 0.28423 0.06477 0.54892 0.0
C246 C 0.30002 0.05698 0.61465 0.0
C247 C 0.33162 0.05403 0.61062 0.0
C248 C 0.3474 0.06378 0.54763 0.0
C249 C 0.33165 0.07117 0.48133 0.0
C250 C 0.30995 0.03315 0.18389 0.0
C251 C 0.3343 0.01522 0.19572 0.0
C252 C 0.49943 0.34488 0.584 0.0
C253 C 0.52685 0.3463 0.62733 0.0
C254 C 0.54221 0.32117 0.63464 0.0
C255 C 0.53089 0.29515 0.59589 0.0
H256 H 0.53053 0.20399 0.57094 0.0
H257 H 0.53264 0.16139 0.62863 0.0
H258 H 0.4572 0.12843 0.47669 0.0
H259 H 0.45573 0.17117 0.41622 0.0
H260 H 0.42145 0.26793 0.32421 0.0
H261 H 0.41868 0.30089 0.22864 0.0
H262 H 0.50747 0.2733 0.13481 0.0
H263 H 0.51004 0.24013 0.23007 0.0
H264 H 0.46763 0.31892 0.50986 0.0
H265 H 0.48674 0.36383 0.57899 0.0
H266 H 0.56347 0.3217 0.66753 0.0
H267 H 0.54371 0.27611 0.59904 0.0
N268 N 0.49849 0.24233 0.51555 0.0
N269 N 0.47826 0.22085 0.38691 0.0
N270 N 0.48291 0.26983 0.42056 0.0
C271 C 0.48983 0.21867 0.4626 0.0
C272 C 0.47483 0.24674 0.36639 0.0
C273 C 0.49475 0.26798 0.49477 0.0
C274 C 0.49282 0.1911 0.4894 0.0
C275 C 0.51455 0.18759 0.54894 0.0
C276 C 0.51568 0.16317 0.58233 0.0
C277 C 0.49486 0.14159 0.55814 0.0
C278 C 0.47375 0.14451 0.49617 0.0
C279 C 0.47287 0.16901 0.4617 0.0
C280 C 0.46586 0.25135 0.28408 0.0
C281 C 0.43939 0.26744 0.27896 0.0
C282 C 0.43801 0.28663 0.22505 0.0
C283 C 0.4632 0.29009 0.17604 0.0
C284 C 0.4879 0.27122 0.1728 0.0
C285 C 0.48912 0.25183 0.22618 0.0
C286 C 0.50429 0.29408 0.54886 0.0
C287 C 0.48837 0.31914 0.54503 0.0
Tb288 Tb 1.00132 0.01485 0.75258 0.0
Tb289 Tb 0.05798 0.00668 0.86993 0.0
C290 C 0.99066 0.00586 0.93469 0.0
C291 C 0.94652 0.05211 0.64417 0.0
C292 C 0.93549 0.1041 0.59584 0.0
C293 C 0.93545 0.07902 0.537 0.0
C294 C 0.94092 0.05319 0.56107 0.0
C295 C 0.94488 0.07706 0.70357 0.0
C296 C 0.93917 0.10277 0.67962 0.0
C297 C 0.95676 0.02555 0.66739 0.0
O298 O 1.00948 0.05557 0.83033 0.0
O299 O 0.05994 0.05002 0.85297 0.0
O300 O 0.07621 1.00003 0.74422 0.0
O301 O 0.04129 0.02525 0.68513 0.0
O302 O 0.08188 0.01857 0.98093 0.0
O303 O 0.09881 0.98558 0.88468 0.0
O304 O 0.0362 0.96597 0.84387 0.0
O305 O 1.01306 0.97023 0.72233 0.0
O306 O 0.98215 0.99913 0.85725 0.0
O307 O 1.01828 0.01475 0.95284 0.0
C308 C 0.03607 0.06632 0.85095 0.0
O309 O 0.98247 0.01522 0.63531 0.0
O310 O 0.95511 0.02455 0.74569 0.0
C311 C 0.06825 0.01315 0.68434 0.0
C312 C 0.10179 0.9771 0.01938 0.0
C313 C 0.08972 0.93107 0.09495 0.0
C314 C 0.11216 0.92881 0.03361 0.0
C315 C 0.11832 0.95178 0.99647 0.0
C316 C 0.08166 0.98013 0.08676 0.0
C317 C 0.07571 0.95726 0.12423 0.0
C318 C 0.1007 0.99723 0.96237 0.0
C319 C 0.02303 0.95464 0.77452 0.0
H320 H 0.9328 0.07952 0.4719 0.0
H321 H 0.94211 0.03423 0.51437 0.0
H322 H 0.94913 0.07692 0.76825 0.0
H323 H 0.93881 0.12177 0.72627 0.0
H324 H 0.12317 0.90879 1.0097 0.0
H325 H 0.13404 0.94896 0.94486 0.0
H326 H 0.06871 0.99941 0.10654 0.0
H327 H 0.05867 0.95956 0.17256 0.0
Tb328 Tb 0.52352 0.98657 0.75323 0.0
Tb329 Tb 0.54472 0.03665 0.8973 0.0
C330 C 0.55207 0.97388 0.91246 0.0
C331 C 0.46768 0.94289 0.64576 0.0
C332 C 0.40871 0.96492 0.65574 0.0
C333 C 0.42073 0.95452 0.72264 0.0
C334 C 0.44997 0.94303 0.71724 0.0
C335 C 0.45356 0.94884 0.57457 0.0
C336 C 0.42411 0.95993 0.57969 0.0
C337 C 0.50063 0.94678 0.65458 0.0
O338 O 0.48726 0.99383 0.84716 0.0
O339 O 0.49527 0.0397 0.90553 0.0
O340 O 0.53269 0.05799 0.79776 0.0
O341 O 0.50356 0.02441 0.71854 0.0
O342 O 0.54362 0.05607 0.02252 0.0
O343 O 0.57262 0.07127 0.93607 0.0
O344 O 0.58624 0.01739 0.8343 0.0
O345 O 0.56679 0.99886 0.70768 0.0
O346 O 0.55446 0.96805 0.83187 0.0
O347 O 0.54193 0.99859 0.94888 0.0
C348 C 0.47769 0.01768 0.89286 0.0
O349 O 0.5105 0.96944 0.63179 0.0
O350 O 0.5119 0.94395 0.72568 0.0
C351 C 0.51353 0.05026 0.73746 0.0
C352 C 0.59514 0.06157 0.05702 0.0
C353 C 0.64232 0.02429 0.08006 0.0
C354 C 0.64735 0.04545 0.034 0.0
C355 C 0.62401 0.06417 0.02325 0.0
C356 C 0.59172 0.0432 0.11325 0.0
C357 C 0.61503 0.02447 0.12383 0.0
C358 C 0.56817 0.06982 0.01351 0.0
C359 C 0.59002 0.00783 0.75443 0.0
H360 H 0.4089 0.9581 0.78139 0.0
H361 H 0.45992 0.93788 0.77271 0.0
H362 H 0.46656 0.94869 0.51863 0.0
H363 H 0.41495 0.96789 0.52734 0.0
H364 H 0.66837 0.04612 1.00061 0.0
H365 H 0.62757 0.07841 0.9807 0.0
H366 H 0.57001 0.04106 0.14193 0.0
H367 H 0.61103 0.00893 0.16208 0.0
Tb368 Tb 0.50302 0.49994 0.8922 0.0
Tb369 Tb 0.55223 0.52607 0.77442 0.0
C370 C 0.48516 0.51466 0.71565 0.0
C371 C 0.46781 0.44939 1.00882 0.0
C372 C 0.46804 0.39748 0.064 0.0
C373 C 0.44113 0.4135 0.06464 0.0
C374 C 0.44104 0.4392 0.03722 0.0
C375 C 0.49484 0.43379 1.00933 0.0
C376 C 0.49494 0.40806 0.03654 0.0
C377 C 0.46662 0.47476 0.97149 0.0
O378 O 0.53714 0.46793 0.84942 0.0
O379 O 0.54964 0.48106 0.72773 0.0
O380 O 0.57839 0.51412 0.8759 0.0
O381 O 0.54105 0.51404 0.97349 0.0
O382 O 0.58952 0.5522 0.77079 0.0
O383 O 0.57096 0.52857 0.65855 0.0
O384 O 0.52956 0.56197 0.84908 0.0
O385 O 0.48788 0.54335 0.90399 0.0
O386 O 0.48236 0.49799 0.77002 0.0
O387 O 0.50876 0.53084 0.71563 0.0
C388 C 0.54702 0.46163 0.77322 0.0
O389 O 0.48282 0.49602 1.00563 0.0
O390 O 0.46925 0.47006 0.89142 0.0
C391 C 0.56985 0.51465 0.95294 0.0
C392 C 0.58841 0.57454 0.65569 0.0
C393 C 0.5869 0.62579 0.5963 0.0
C394 C 0.61332 0.61685 0.63227 0.0
C395 C 0.61405 0.59149 0.66158 0.0
C396 C 0.56193 0.5834 0.62008 0.0
C397 C 0.56129 0.6086 0.58998 0.0
C398 C 0.58927 0.54851 0.69043 0.0
C399 C 0.5032 0.56458 0.88692 0.0
H400 H 0.4201 0.40612 0.08611 0.0
H401 H 0.4199 0.45086 0.03667 0.0
H402 H 0.51568 0.44122 0.9869 0.0
H403 H 0.51594 0.39611 0.0342 0.0
H404 H 0.63341 0.62957 0.63822 0.0
H405 H 0.63461 0.58519 0.68953 0.0
H406 H 0.54172 0.57085 0.61537 0.0
H407 H 0.54083 0.61436 0.56056 0.0
Tb408 Tb 0.03528 0.51996 0.81102 0.0
Tb409 Tb 1.00663 0.47964 0.92462 0.0
C410 C 1.0072 0.54555 0.98134 0.0
C411 C 0.09626 0.52875 0.68694 0.0
C412 C 0.14419 0.49259 0.61814 0.0
C413 C 0.13465 0.51533 0.58087 0.0
C414 C 0.11043 0.53302 0.61434 0.0
C415 C 0.10715 0.50729 0.72639 0.0
C416 C 0.13009 0.48901 0.69158 0.0
C417 C 0.06703 0.54204 0.7156 0.0
O418 O 0.06756 0.51896 0.91078 0.0
O419 O 0.05606 0.47583 0.93516 0.0
O420 O 1.00434 0.45746 0.79827 0.0
O421 O 0.04781 0.47607 0.7647 0.0
O422 O 0.97745 0.47179 0.0181 0.0
O423 O 1.01002 0.44033 0.95995 0.0
O424 O 0.9667 0.49319 0.8621 0.0
O425 O 0.98835 0.51672 0.76725 0.0
O426 O 1.00943 0.54857 0.90372 0.0
O427 O 1.01169 0.52091 1.00258 0.0
C428 C 0.07521 0.49652 0.94014 0.0
O429 O 0.04392 0.52643 0.69033 0.0
O430 O 0.06527 0.5519 0.79482 0.0
C431 C 0.0273 0.45677 0.74814 0.0
C432 C 0.96362 0.4245 1.00092 0.0
C433 C 0.91401 0.38856 0.99139 0.0
C434 C 0.93125 0.39467 0.06411 0.0
C435 C 0.95584 0.4125 0.06875 0.0
C436 C 0.94792 0.41705 0.92622 0.0
C437 C 0.92334 0.39899 0.9213 0.0
C438 C 0.98707 0.44579 1.01057 0.0
C439 C 0.96451 0.50606 0.7981 0.0
H440 H 0.1452 0.51887 0.52437 0.0
H441 H 0.10217 0.54921 0.58219 0.0
H442 H 0.09655 0.50329 0.78181 0.0
H443 H 0.13541 0.47122 0.72048 0.0
H444 H 0.92446 0.3873 0.11954 0.0
H445 H 0.96791 0.41795 0.1266 0.0
H446 H 0.95394 0.42603 0.87294 0.0
H447 H 0.91069 0.3944 0.86426 0.0
C448 C 0.1051 0.03352 0.49189 0.0
C449 C 0.13405 0.02049 0.48773 0.0
C450 C 0.08388 0.03066 0.55412 0.0
C451 C 0.09064 0.01484 0.61598 0.0
H452 H 0.09879 0.04624 0.4468 0.0
H453 H 0.06214 0.04134 0.55429 0.0
S454 S 0.16365 0.97697 0.63463 0.0
N455 N 0.16839 0.9915 0.55257 0.0
N456 N 0.12895 0.98588 0.668 0.0
C457 C 0.11949 0.00151 0.612 0.0
C458 C 0.14098 0.00437 0.54852 0.0
C459 C 0.49756 0.12227 0.6885 0.0
C460 C 0.49479 0.1172 0.6019 0.0
C461 C 0.50198 0.10026 0.73174 0.0
C462 C 0.50343 0.07211 0.69061 0.0
H463 H 0.49725 0.14359 0.72322 0.0
H464 H 0.50514 0.10548 0.79801 0.0
S465 S 0.49438 0.047 0.46541 0.0
N466 N 0.49168 0.08159 0.47696 0.0
N467 N 0.49928 0.04004 0.55906 0.0
C468 C 0.49859 0.06644 0.60479 0.0
C469 C 0.49441 0.08902 0.56023 0.0
C470 C 0.44604 0.52283 0.51294 0.0
C471 C 0.41658 0.51304 0.52189 0.0
C472 C 0.46778 0.52387 0.57623 0.0
C473 C 0.46127 0.51452 0.6506 0.0
H474 H 0.45235 0.52979 0.4565 0.0
H475 H 0.49008 0.53155 0.56592 0.0
S476 S 0.3875 0.48656 0.70427 0.0
N477 N 0.38215 0.49375 0.61117 0.0
N478 N 0.42271 0.49532 0.7289 0.0
C479 C 0.43183 0.5047 0.66011 0.0
C480 C 0.40963 0.50406 0.59627 0.0
C481 C 0.06023 0.40702 0.561 0.0
C482 C 0.03462 0.39256 0.52625 0.0
C483 C 0.05771 0.42805 0.63227 0.0
C484 C 0.02961 0.43481 0.67238 0.0
H485 H 0.08232 0.40204 0.53288 0.0
H486 H 0.078 0.43872 0.65683 0.0
S487 S 0.95579 0.40278 0.60585 0.0
N488 N 0.98037 0.38641 0.53703 0.0
N489 N 0.97561 0.42554 0.67074 0.0
C490 C 1.00387 0.42046 0.63791 0.0
C491 C 1.00639 0.39944 0.56495 0.0
C492 C 0.9493 0.01651 0.14492 0.0
C493 C 0.92581 0.99686 0.13087 0.0
C494 C 0.97051 0.01904 0.08213 0.0
C495 C 0.9687 0.00248 1.00208 0.0
H496 H 0.95158 0.02972 0.20524 0.0
H497 H 0.98821 0.03437 0.09613 0.0
S498 S 0.91116 0.94807 0.93348 0.0
N499 N 0.90211 0.96064 0.03077 0.0
N500 N 0.94117 0.96557 0.91354 0.0
C501 C 0.9451 0.98295 0.9875 0.0
C502 C 0.92393 0.98011 0.05149 0.0
C503 C 0.53793 0.92922 0.07443 0.0
C504 C 0.55623 0.9052 0.04783 0.0
C505 C 0.53802 0.95194 0.03265 0.0
C506 C 0.55593 0.95127 0.96145 0.0
H507 H 0.52272 0.93008 0.12659 0.0
H508 H 0.52276 0.96956 0.05405 0.0
S509 S 0.6098 0.89425 0.87071 0.0
N510 N 0.5944 0.8829 0.94967 0.0
N511 N 0.59417 0.92545 0.86996 0.0
C512 C 0.57529 0.92789 0.93623 0.0
C513 C 0.57558 0.90491 0.97977 0.0
C514 C 0.64541 0.52667 0.06687 0.0
C515 C 0.64179 0.51402 0.13693 0.0
C516 C 0.6221 0.52698 1.00868 0.0
C517 C 0.59373 0.51502 0.01796 0.0
H518 H 0.66668 0.53624 0.05618 0.0
H519 H 0.62641 0.53671 0.95573 0.0
S520 S 0.57219 0.47853 0.18839 0.0
N521 N 0.60728 0.48847 0.21023 0.0
N522 N 0.5634 0.48994 0.1028 0.0
C523 C 0.58944 0.5028 0.08837 0.0
C524 C 0.61337 0.50212 0.14722 0.0
C525 C 0.99772 0.62212 0.0865 0.0
C526 C 0.99431 0.62073 0.17069 0.0
C527 C 1.00139 0.59778 0.02606 0.0
C528 C 1.00188 0.57088 0.04697 0.0
H529 H 0.99813 0.64229 0.06708 0.0
H530 H 1.00428 0.60023 0.96248 0.0
S531 S 0.99223 0.55565 0.25871 0.0
N532 N 0.99043 0.59028 0.27175 0.0
N533 N 0.99753 0.5444 0.15869 0.0
C534 C 0.99808 0.56915 0.13108 0.0
C535 C 0.99433 0.59406 0.19271 0.0
C536 C 0.91581 0.16134 0.47507 0.0
C537 C 0.9396 0.18029 0.49563 0.0
C538 C 0.91365 0.13733 0.51081 0.0
C539 C 0.93516 0.13154 0.56848 0.0
H540 H 0.89948 0.1645 0.4285 0.0
H541 H 0.89564 0.12273 0.4912 0.0
S542 S 1.00153 0.17467 0.64408 0.0
N543 N 0.98474 0.19188 0.57857 0.0
N544 N 0.98059 0.1469 0.64587 0.0
C545 C 0.95827 0.15094 0.59228 0.0
C546 C 0.9605 0.17532 0.55588 0.0
C547 C 0.33707 0.00488 0.63022 0.0
C548 C 0.34684 0.03288 0.65101 0.0
C549 C 0.35635 0.98237 0.63861 0.0
C550 C 0.38554 0.98735 0.67004 0.0
H551 H 0.31566 1.00018 0.59912 0.0
H552 H 0.34929 0.96111 0.61478 0.0
S553 S 0.42012 0.05648 0.74556 0.0
N554 N 0.38622 0.06423 0.71286 0.0
N555 N 0.42224 0.02182 0.73118 0.0
C556 C 0.3944 0.01514 0.69919 0.0
C557 C 0.37502 0.03802 0.68923 0.0
C558 C 0.5391 0.39539 0.61423 0.0
C559 C 0.53886 0.37434 0.66286 0.0
C560 C 0.54443 0.42346 0.64933 0.0
C561 C 0.54957 0.43154 0.73453 0.0
H562 H 0.53366 0.39031 0.54909 0.0
H563 H 0.54242 0.43909 0.61024 0.0
S564 S 0.55712 0.3837 0.88563 0.0
N565 N 0.54823 0.36286 0.79815 0.0
N566 N 0.55881 0.41564 0.86429 0.0
C567 C 0.55218 0.41033 0.78239 0.0
C568 C 0.54673 0.3817 0.74649 0.0
C569 C 0.18743 0.44319 0.45036 0.0
C570 C 0.20986 0.43082 0.49382 0.0
C571 C 0.16629 0.46268 0.49124 0.0
C572 C 0.16688 0.47132 0.57743 0.0
H573 H 0.18702 0.43914 0.3835 0.0
H574 H 0.14962 0.47137 0.45437 0.0
S575 S 0.21873 0.44326 0.72172 0.0
N576 N 0.2286 0.42591 0.62932 0.0
N577 N 0.19104 0.46492 0.70593 0.0
C578 C 0.18834 0.45836 0.62238 0.0
C579 C 0.2092 0.43758 0.58071 0.0
C580 C 0.03397 0.87777 0.14135 0.0
C581 C 0.05256 0.85779 0.16963 0.0
C582 C 0.04637 0.90125 0.11685 0.0
C583 C 0.07778 0.90565 0.12024 0.0
H584 H 1.00961 0.87549 0.13977 0.0
H585 H 0.03122 0.91615 0.09528 0.0
S586 S 0.1361 0.85937 0.18965 0.0
N587 N 0.10379 0.84355 0.19916 0.0
N588 N 0.12724 0.88797 0.15294 0.0
C589 C 0.09671 0.88547 0.14644 0.0
C590 C 0.08405 0.86144 0.17123 0.0
C591 C 0.67402 0.95021 0.06477 0.0
C592 C 0.70476 0.95479 0.08306 0.0
C593 C 0.65413 0.97281 0.06139 0.0
C594 C 0.66426 0.00075 0.07743 0.0
H595 H 0.66508 0.92919 0.05696 0.0
H596 H 0.63046 0.96847 0.04833 0.0
S597 S 0.74262 0.02392 0.12714 0.0
N598 N 0.74453 0.98935 0.11521 0.0
N599 N 0.70697 0.03164 0.10979 0.0
C600 C 0.69511 0.0055 0.09233 0.0
C601 C 0.71541 0.98255 0.09495 0.0
C602 C 0.48008 0.63351 0.01986 0.0
C603 C 0.47933 0.65192 0.96255 0.0
C604 C 0.48548 0.6046 0.99432 0.0
C605 C 0.49081 0.59324 0.91091 0.0
H606 H 0.47862 0.64161 0.08562 0.0
H607 H 0.48766 0.59146 0.04064 0.0
S608 S 0.48607 0.63076 0.73462 0.0
N609 N 0.47965 0.65543 0.81686 0.0
N610 N 0.49156 0.60129 0.76984 0.0
C611 C 0.48807 0.61079 0.85237 0.0
C612 C 0.48187 0.6401 0.87795 0.0
C613 C 0.85235 0.3504 0.07779 0.0
C614 C 0.82771 0.36898 0.07469 0.0
C615 C 0.87995 0.35412 0.03943 0.0
C616 C 0.88361 0.3764 0.99639 0.0
H617 H 0.8515 0.33518 0.11835 0.0
H618 H 0.8994 0.34157 0.05144 0.0
S619 S 0.82342 0.42534 0.94941 0.0
N620 N 0.80678 0.40618 1.00892 0.0
N621 N 0.85849 0.41302 0.93704 0.0
C622 C 0.85772 0.39183 0.98086 0.0
C623 C 0.82966 0.3881 0.01994 0.0
C624 C 1.01404 0.14253 0.93395 0.0
C625 C 0.04205 0.15619 0.94504 0.0
C626 C 1.01234 0.11378 0.90083 0.0
C627 C 0.0386 0.09727 0.87806 0.0
H628 H 0.99321 0.15383 0.95445 0.0
H629 H 0.99024 0.10426 0.89612 0.0
S630 S 0.11724 0.12351 0.8836 0.0
N631 N 0.09642 0.15155 0.9221 0.0
N632 N 0.09336 0.09735 0.86133 0.0
C633 C 0.06669 0.11087 0.88507 0.0
C634 C 0.06838 0.14029 0.91824 0.0
C635 C 0.40364 0.04668 1.00352 0.0
C636 C 0.38953 0.02256 0.0216 0.0
C637 C 0.43186 0.045 0.96178 0.0
C638 C 0.44717 0.01906 0.93494 0.0
H639 H 0.39328 0.06722 0.02413 0.0
H640 H 0.44179 0.06426 0.95074 0.0
S641 S 0.41963 0.94939 0.96391 0.0
N642 N 0.39283 0.97171 1.00595 0.0
N643 N 0.44555 0.9686 0.92965 0.0
C644 C 0.43296 0.99474 0.95113 0.0
C645 C 0.40436 0.99647 0.99376 0.0
C646 C 0.44374 0.32421 0.0894 0.0
C647 C 0.46594 0.31633 0.14214 0.0
C648 C 0.44479 0.35029 0.06361 0.0
C649 C 0.46784 0.36963 0.09058 0.0
H650 H 0.42535 0.31019 0.0684 0.0
H651 H 0.42736 0.35535 0.02229 0.0
S652 S 0.5297 0.35992 0.2355 0.0
N653 N 0.51076 0.33036 0.22367 0.0
N654 N 0.51238 0.37945 0.17696 0.0
C655 C 0.48998 0.36201 0.14406 0.0
C656 C 0.48908 0.33539 0.16948 0.0
C657 C 0.15608 0.5156 0.01385 0.0
C658 C 0.16687 0.49146 0.04164 0.0
C659 C 0.1266 0.51702 0.98158 0.0
C660 C 0.1063 0.49448 0.97642 0.0
H661 H 0.17074 0.5334 0.01562 0.0
H662 H 0.11978 0.53601 0.96014 0.0
S663 S 0.12274 0.42712 0.04647 0.0
N664 N 0.15425 0.44496 0.06553 0.0
N665 N 0.09928 0.44754 1.00537 0.0
C666 C 0.11669 0.47042 1.00558 0.0
C667 C 0.14674 0.46894 0.03794 0.0
C668 C 0.99401 0.88339 0.66934 0.0
C669 C 1.00797 0.86433 0.71321 0.0
C670 C 0.99892 0.91235 0.69005 0.0
C671 C 1.01793 0.92371 0.75593 0.0
H672 H 0.97994 0.87578 0.61639 0.0
H673 H 0.98785 0.92588 0.65325 0.0
S674 S 0.05864 0.8829 0.89362 0.0
N675 N 0.04069 0.85889 0.82769 0.0
N676 N 0.04996 0.91336 0.86735 0.0
C677 C 0.03146 0.90494 0.80193 0.0
C678 C 0.02654 0.8753 0.7803 0.0
C679 C 0.65336 0.00606 0.59326 0.0
C680 C 0.68022 0.00258 0.63687 0.0
C681 C 0.6246 0.00763 0.6316 0.0
C682 C 0.62115 0.00628 0.71599 0.0
H683 H 0.65447 0.00692 0.52807 0.0
H684 H 0.60483 0.01005 0.59456 0.0
S685 S 0.68402 0.99727 0.85886 0.0
N686 N 0.7012 0.9979 0.77008 0.0
N687 N 0.64747 0.00109 0.84191 0.0
C688 C 0.6478 0.00313 0.76074 0.0
C689 C 0.67711 0.00115 0.72135 0.0
C690 C 0.60976 0.68109 0.47199 0.0
C691 C 0.58432 0.69936 0.47887 0.0
C692 C 0.61083 0.65801 0.5124 0.0
C693 C 0.58656 0.65222 0.5618 0.0
H694 H 0.62863 0.68408 0.43261 0.0
H695 H 0.63035 0.64393 0.50193 0.0
S696 S 0.51609 0.69519 0.60806 0.0
N697 N 0.53496 0.71092 0.54346 0.0
N698 N 0.53767 0.66835 0.62229 0.0
C699 C 0.56176 0.67123 0.57327 0.0
C700 C 0.56052 0.69462 0.53146 0.0
C701 C 0.90478 0.51372 0.63319 0.0
C702 C 0.87786 0.50434 0.6646 0.0
C703 C 0.93227 0.51498 0.67749 0.0
C704 C 0.9343 0.50694 0.7556 0.0
H705 H 0.90494 0.51915 0.57229 0.0
H706 H 0.95231 0.52158 0.64883 0.0
S707 S 0.86962 0.48386 0.8701 0.0
N708 N 0.8546 0.48927 0.78258 0.0
N709 N 0.90584 0.49117 0.86467 0.0
C710 C 0.90723 0.49856 0.78908 0.0
C711 C 0.87926 0.49738 0.74408 0.0
loop_
_geom_bond_atom_site_label_1
_geom_bond_atom_site_label_2
_geom_bond_distance
_geom_bond_site_symmetry_2
_ccdc_geom_bond_type
C0 C1 1.384 . S
C0 H13 0.947 . S
C0 C35 1.382 . S
C1 C0 1.384 . S
C1 C2 1.378 . S
C2 C1 1.378 . S
C2 C3 1.378 . S
C2 H14 0.952 . S
C3 C2 1.378 . S
C3 H15 0.950 . S
C3 C34 1.383 . S
H4 C23 0.947 . S
H5 C24 0.946 . S
H6 C26 0.953 . S
H7 C27 0.945 . S
H8 C29 0.952 . S
H9 C30 0.949 . S
H10 C32 0.950 . S
H11 C33 0.948 . S
H12 C35 0.951 . S
H13 C0 0.947 . S
H14 C2 0.952 . S
H15 C3 0.950 . S
N16 C19 1.382 . S
N16 C21 1.363 . S
N17 C19 1.371 . S
N17 C20 1.372 . S
N18 C20 1.361 . S
N18 C21 1.377 . S
C19 N16 1.382 . S
C19 N17 1.371 . S
C19 C22 1.480 . S
C20 N17 1.372 . S
C20 N18 1.361 . S
C20 C28 1.457 . S
C21 N16 1.363 . S
C21 N18 1.377 . S
C21 C34 1.479 . S
C22 C19 1.480 . S
C22 C23 1.383 . S
C22 C27 1.385 . S
C23 H4 0.947 . S
C23 C22 1.383 . S
C23 C24 1.388 . S
C24 H5 0.946 . S
C24 C23 1.388 . S
C24 C25 1.384 . S
C25 C24 1.384 . S
C25 C26 1.377 . S
C26 H6 0.953 . S
C26 C25 1.377 . S
C26 C27 1.369 . S
C27 H7 0.945 . S
C27 C22 1.385 . S
C27 C26 1.369 . S
C28 C20 1.457 . S
C28 C29 1.372 . S
C28 C33 1.364 . S
C29 H8 0.952 . S
C29 C28 1.372 . S
C29 C30 1.389 . S
C30 H9 0.949 . S
C30 C29 1.389 . S
C30 C31 1.387 . S
C31 C30 1.387 . S
C31 C32 1.372 . S
C32 H10 0.950 . S
C32 C31 1.372 . S
C32 C33 1.379 . S
C33 H11 0.948 . S
C33 C28 1.364 . S
C33 C32 1.379 . S
C34 C3 1.383 . S
C34 C21 1.479 . S
C34 C35 1.398 . S
C35 C0 1.382 . S
C35 H12 0.951 . S
C35 C34 1.398 . S
C36 C37 1.384 1_655 S
C36 H49 0.948 . S
C36 C71 1.382 1_655 S
C37 C36 1.384 1_455 S
C37 C38 1.378 . S
C38 C37 1.378 . S
C38 C39 1.378 . S
C38 H50 0.952 . S
C39 C38 1.378 . S
C39 H51 0.950 . S
C39 C70 1.383 . S
H40 C59 0.947 . S
H41 C60 0.952 . S
H42 C62 0.953 . S
H43 C63 0.945 . S
H44 C65 0.948 1_655 S
H45 C66 0.949 . S
H46 C68 0.950 . S
H47 C69 0.948 . S
H48 C71 0.951 1_655 S
H49 C36 0.948 . S
H50 C38 0.952 . S
H51 C39 0.950 . S
N52 C55 1.382 . S
N52 C57 1.363 . S
N53 C55 1.371 . S
N53 C56 1.372 . S
N54 C56 1.361 . S
N54 C57 1.377 . S
C55 N52 1.382 . S
C55 N53 1.371 . S
C55 C58 1.480 . S
C56 N53 1.372 . S
C56 N54 1.361 . S
C56 C64 1.457 . S
C57 N52 1.363 . S
C57 N54 1.377 . S
C57 C70 1.479 . S
C58 C55 1.480 . S
C58 C59 1.383 . S
C58 C63 1.385 . S
C59 H40 0.947 . S
C59 C58 1.383 . S
C59 C60 1.385 1_455 S
C60 H41 0.952 . S
C60 C59 1.385 1_655 S
C60 C61 1.381 1_655 S
C61 C60 1.381 1_455 S
C61 C62 1.377 . S
C62 H42 0.953 . S
C62 C61 1.377 . S
C62 C63 1.369 . S
C63 H43 0.945 . S
C63 C58 1.385 . S
C63 C62 1.369 . S
C64 C56 1.457 . S
C64 C65 1.377 . S
C64 C69 1.364 . S
C65 H44 0.948 1_455 S
C65 C64 1.377 . S
C65 C66 1.388 1_455 S
C66 H45 0.949 . S
C66 C65 1.388 1_655 S
C66 C67 1.387 1_655 S
C67 C66 1.387 1_455 S
C67 C68 1.372 . S
C68 H46 0.950 . S
C68 C67 1.372 . S
C68 C69 1.379 . S
C69 H47 0.948 . S
C69 C64 1.364 . S
C69 C68 1.379 . S
C70 C39 1.383 . S
C70 C57 1.479 . S
C70 C71 1.398 . S
C71 C36 1.382 1_455 S
C71 H48 0.951 1_455 S
C71 C70 1.398 . S
C72 C73 1.384 1_565 S
C72 H85 0.948 . S
C72 C107 1.381 1_565 S
C73 C72 1.384 1_545 S
C73 C74 1.378 . S
C74 C73 1.378 . S
C74 C75 1.378 . S
C74 H86 0.952 . S
C75 C74 1.378 . S
C75 H87 0.950 . S
C75 C106 1.383 . S
H76 C95 0.947 . S
H77 C96 0.955 . S
H78 C98 0.953 . S
H79 C99 0.945 . S
H80 C101 0.950 1_565 S
H81 C102 0.948 . S
H82 C104 0.950 . S
H83 C105 0.948 . S
H84 C107 0.951 1_565 S
H85 C72 0.948 . S
H86 C74 0.952 . S
H87 C75 0.950 . S
N88 C91 1.382 . S
N88 C93 1.363 . S
N89 C91 1.371 . S
N89 C92 1.372 . S
N90 C92 1.361 . S
N90 C93 1.377 . S
C91 N88 1.382 . S
C91 N89 1.371 . S
C91 C94 1.480 . S
C92 N89 1.372 . S
C92 N90 1.361 . S
C92 C100 1.457 . S
C93 N88 1.363 . S
C93 N90 1.377 . S
C93 C106 1.479 . S
C94 C91 1.480 . S
C94 C95 1.383 . S
C94 C99 1.385 . S
C95 H76 0.947 . S
C95 C94 1.383 . S
C95 C96 1.388 1_545 S
C96 H77 0.955 . S
C96 C95 1.388 1_565 S
C96 C97 1.376 1_565 S
C97 C96 1.376 1_545 S
C97 C98 1.377 . S
C98 H78 0.953 . S
C98 C97 1.377 . S
C98 C99 1.369 . S
C99 H79 0.945 . S
C99 C94 1.385 . S
C99 C98 1.369 . S
C100 C92 1.457 . S
C100 C101 1.372 . S
C100 C105 1.364 . S
C101 H80 0.950 1_545 S
C101 C100 1.372 . S
C101 C102 1.395 1_545 S
C102 H81 0.948 . S
C102 C101 1.395 1_565 S
C102 C103 1.386 1_565 S
C103 C102 1.386 1_545 S
C103 C104 1.372 . S
C104 H82 0.950 . S
C104 C103 1.372 . S
C104 C105 1.379 . S
C105 H83 0.948 . S
C105 C100 1.364 . S
C105 C104 1.379 . S
C106 C75 1.383 . S
C106 C93 1.479 . S
C106 C107 1.398 . S
C107 C72 1.381 1_545 S
C107 H84 0.951 1_545 S
C107 C106 1.398 . S
C108 C109 1.384 . S
C108 H121 0.947 . S
C108 C143 1.382 . S
C109 C108 1.384 . S
C109 C110 1.378 . S
C110 C109 1.378 . S
C110 C111 1.378 . S
C110 H122 0.952 . S
C111 C110 1.378 . S
C111 H123 0.950 . S
C111 C142 1.383 . S
H112 C131 0.947 . S
H113 C132 0.946 . S
H114 C134 0.953 . S
H115 C135 0.945 . S
H116 C137 0.952 . S
H117 C138 0.949 . S
H118 C140 0.950 . S
H119 C141 0.948 . S
H120 C143 0.951 . S
H121 C108 0.947 . S
H122 C110 0.952 . S
H123 C111 0.950 . S
N124 C127 1.382 . S
N124 C129 1.363 . S
N125 C127 1.371 1_554 S
N125 C128 1.372 . S
N126 C128 1.361 . S
N126 C129 1.377 1_554 S
C127 N124 1.382 . S
C127 N125 1.371 1_556 S
C127 C130 1.480 . S
C128 N125 1.372 . S
C128 N126 1.361 . S
C128 C136 1.457 . S
C129 N124 1.363 . S
C129 N126 1.377 1_556 S
C129 C142 1.479 . S
C130 C127 1.480 . S
C130 C131 1.383 . S
C130 C135 1.385 1_556 S
C131 H112 0.947 . S
C131 C130 1.383 . S
C131 C132 1.388 . S
C132 H113 0.946 . S
C132 C131 1.388 . S
C132 C133 1.384 . S
C133 C132 1.384 . S
C133 C134 1.377 1_556 S
C134 H114 0.953 . S
C134 C133 1.377 1_554 S
C134 C135 1.369 . S
C135 H115 0.945 . S
C135 C130 1.385 1_554 S
C135 C134 1.369 . S
C136 C128 1.457 . S
C136 C137 1.372 . S
C136 C141 1.364 . S
C137 H116 0.952 . S
C137 C136 1.372 . S
C137 C138 1.389 . S
C138 H117 0.949 . S
C138 C137 1.389 . S
C138 C139 1.387 . S
C139 C138 1.387 . S
C139 C140 1.372 . S
C140 H118 0.950 . S
C140 C139 1.372 . S
C140 C141 1.379 . S
C141 H119 0.948 . S
C141 C136 1.364 . S
C141 C140 1.379 . S
C142 C111 1.383 . S
C142 C129 1.479 . S
C142 C143 1.398 . S
C143 C108 1.382 . S
C143 H120 0.951 . S
C143 C142 1.398 . S
C144 C145 1.384 . S
C144 H157 0.947 . S
C144 C179 1.382 . S
C145 C144 1.384 . S
C145 C146 1.378 . S
C146 C145 1.378 . S
C146 C147 1.378 . S
C146 H158 0.952 . S
C147 C146 1.378 . S
C147 H159 0.950 . S
C147 C178 1.383 1_556 S
H148 C167 0.947 . S
H149 C168 0.946 . S
H150 C170 0.953 . S
H151 C171 0.945 . S
H152 C173 0.952 . S
H153 C174 0.949 . S
H154 C176 0.950 . S
H155 C177 0.948 . S
H156 C179 0.951 1_554 S
H157 C144 0.947 . S
H158 C146 0.952 . S
H159 C147 0.950 . S
N160 C163 1.382 . S
N160 C165 1.363 . S
N161 C163 1.371 . S
N161 C164 1.372 . S
N162 C164 1.361 . S
N162 C165 1.377 . S
C163 N160 1.382 . S
C163 N161 1.371 . S
C163 C166 1.480 . S
C164 N161 1.372 . S
C164 N162 1.361 . S
C164 C172 1.457 . S
C165 N160 1.363 . S
C165 N162 1.377 . S
C165 C178 1.479 . S
C166 C163 1.480 . S
C166 C167 1.383 . S
C166 C171 1.385 . S
C167 H148 0.947 . S
C167 C166 1.383 . S
C167 C168 1.388 . S
C168 H149 0.946 . S
C168 C167 1.388 . S
C168 C169 1.384 . S
C169 C168 1.384 . S
C169 C170 1.377 . S
C170 H150 0.953 . S
C170 C169 1.377 . S
C170 C171 1.369 . S
C171 H151 0.945 . S
C171 C166 1.385 . S
C171 C170 1.369 . S
C172 C164 1.457 . S
C172 C173 1.372 . S
C172 C177 1.364 . S
C173 H152 0.952 . S
C173 C172 1.372 . S
C173 C174 1.389 . S
C174 H153 0.949 . S
C174 C173 1.389 . S
C174 C175 1.387 . S
C175 C174 1.387 . S
C175 C176 1.372 . S
C176 H154 0.950 . S
C176 C175 1.372 . S
C176 C177 1.379 . S
C177 H155 0.948 . S
C177 C172 1.364 . S
C177 C176 1.379 . S
C178 C147 1.383 1_554 S
C178 C165 1.479 . S
C178 C179 1.398 1_554 S
C179 C144 1.382 . S
C179 H156 0.951 1_556 S
C179 C178 1.398 1_556 S
C180 C181 1.384 1_655 S
C180 H193 0.947 . S
C180 C215 1.382 1_656 S
C181 C180 1.384 1_455 S
C181 C182 1.378 . S
C182 C181 1.378 . S
C182 C183 1.378 1_556 S
C182 H194 0.952 . S
C183 C182 1.378 1_554 S
C183 H195 0.950 . S
C183 C214 1.383 . S
H184 C203 0.947 . S
H185 C204 0.949 . S
H186 C206 0.953 . S
H187 C207 0.945 . S
H188 C209 0.948 1_655 S
H189 C210 0.954 . S
H190 C212 0.950 . S
H191 C213 0.948 . S
H192 C215 0.950 1_655 S
H193 C180 0.947 . S
H194 C182 0.952 . S
H195 C183 0.950 . S
N196 C199 1.382 . S
N196 C201 1.363 . S
N197 C199 1.371 . S
N197 C200 1.372 . S
N198 C200 1.361 . S
N198 C201 1.377 . S
C199 N196 1.382 . S
C199 N197 1.371 . S
C199 C202 1.480 . S
C200 N197 1.372 . S
C200 N198 1.361 . S
C200 C208 1.457 . S
C201 N196 1.363 . S
C201 N198 1.377 . S
C201 C214 1.479 . S
C202 C199 1.480 . S
C202 C203 1.383 . S
C202 C207 1.385 . S
C203 H184 0.947 . S
C203 C202 1.383 . S
C203 C204 1.387 1_455 S
C204 H185 0.949 . S
C204 C203 1.387 1_655 S
C204 C205 1.382 1_655 S
C205 C204 1.382 1_455 S
C205 C206 1.377 . S
C206 H186 0.953 . S
C206 C205 1.377 . S
C206 C207 1.369 . S
C207 H187 0.945 . S
C207 C202 1.385 . S
C207 C206 1.369 . S
C208 C200 1.457 . S
C208 C209 1.379 . S
C208 C213 1.364 . S
C209 H188 0.948 1_455 S
C209 C208 1.379 . S
C209 C210 1.386 1_455 S
C210 H189 0.954 . S
C210 C209 1.386 1_655 S
C210 C211 1.384 1_655 S
C211 C210 1.384 1_455 S
C211 C212 1.372 . S
C212 H190 0.950 . S
C212 C211 1.372 . S
C212 C213 1.379 . S
C213 H191 0.948 . S
C213 C208 1.364 . S
C213 C212 1.379 . S
C214 C183 1.383 . S
C214 C201 1.479 . S
C214 C215 1.400 . S
C215 C180 1.382 1_454 S
C215 H192 0.950 1_455 S
C215 C214 1.400 . S
C216 C217 1.385 1_565 S
C216 H229 0.947 . S
C216 C251 1.383 1_566 S
C217 C216 1.385 1_545 S
C217 C218 1.378 . S
C218 C217 1.378 . S
C218 C219 1.378 . S
C218 H230 0.952 . S
C219 C218 1.378 . S
C219 H231 0.950 . S
C219 C250 1.383 1_556 S
H220 C239 0.947 . S
H221 C240 0.947 . S
H222 C242 0.953 . S
H223 C243 0.945 . S
H224 C245 0.946 1_565 S
H225 C246 0.961 . S
H226 C248 0.950 . S
H227 C249 0.948 . S
H228 C251 0.949 1_565 S
H229 C216 0.947 . S
H230 C218 0.952 . S
H231 C219 0.950 . S
N232 C235 1.382 . S
N232 C237 1.363 . S
N233 C235 1.371 . S
N233 C236 1.372 . S
N234 C236 1.361 . S
N234 C237 1.377 . S
C235 N232 1.382 . S
C235 N233 1.371 . S
C235 C238 1.480 . S
C236 N233 1.372 . S
C236 N234 1.361 . S
C236 C244 1.457 . S
C237 N232 1.363 . S
C237 N234 1.377 . S
C237 C250 1.479 . S
C238 C235 1.480 . S
C238 C239 1.383 . S
C238 C243 1.385 . S
C239 H220 0.947 . S
C239 C238 1.383 . S
C239 C240 1.385 1_545 S
C240 H221 0.947 . S
C240 C239 1.385 1_565 S
C240 C241 1.386 1_565 S
C241 C240 1.386 1_545 S
C241 C242 1.377 . S
C242 H222 0.953 . S
C242 C241 1.377 . S
C242 C243 1.369 . S
C243 H223 0.945 . S
C243 C238 1.385 . S
C243 C242 1.369 . S
C244 C236 1.457 . S
C244 C245 1.385 . S
C244 C249 1.364 . S
C245 H224 0.946 1_545 S
C245 C244 1.385 . S
C245 C246 1.378 1_545 S
C246 H225 0.961 . S
C246 C245 1.378 1_565 S
C246 C247 1.381 1_565 S
C247 C246 1.381 1_545 S
C247 C248 1.372 . S
C248 H226 0.950 . S
C248 C247 1.372 . S
C248 C249 1.379 . S
C249 H227 0.948 . S
C249 C244 1.364 . S
C249 C248 1.379 . S
C250 C219 1.383 1_554 S
C250 C237 1.479 . S
C250 C251 1.399 . S
C251 C216 1.383 1_544 S
C251 H228 0.949 1_545 S
C251 C250 1.399 . S
C252 C253 1.384 . S
C252 H265 0.947 . S
C252 C287 1.382 . S
C253 C252 1.384 . S
C253 C254 1.378 . S
C254 C253 1.378 . S
C254 C255 1.378 . S
C254 H266 0.952 . S
C255 C254 1.378 . S
C255 H267 0.950 . S
C255 C286 1.383 . S
H256 C275 0.947 . S
H257 C276 0.946 . S
H258 C278 0.953 . S
H259 C279 0.945 . S
H260 C281 0.952 . S
H261 C282 0.949 . S
H262 C284 0.950 . S
H263 C285 0.948 . S
H264 C287 0.951 . S
H265 C252 0.947 . S
H266 C254 0.952 . S
H267 C255 0.950 . S
N268 C271 1.382 . S
N268 C273 1.363 . S
N269 C271 1.371 . S
N269 C272 1.372 . S
N270 C272 1.361 . S
N270 C273 1.377 . S
C271 N268 1.382 . S
C271 N269 1.371 . S
C271 C274 1.480 . S
C272 N269 1.372 . S
C272 N270 1.361 . S
C272 C280 1.457 . S
C273 N268 1.363 . S
C273 N270 1.377 . S
C273 C286 1.479 . S
C274 C271 1.480 . S
C274 C275 1.383 . S
C274 C279 1.385 . S
C275 H256 0.947 . S
C275 C274 1.383 . S
C275 C276 1.388 . S
C276 H257 0.946 . S
C276 C275 1.388 . S
C276 C277 1.384 . S
C277 C276 1.384 . S
C277 C278 1.377 . S
C278 H258 0.953 . S
C278 C277 1.377 . S
C278 C279 1.369 . S
C279 H259 0.945 . S
C279 C274 1.385 . S
C279 C278 1.369 . S
C280 C272 1.457 . S
C280 C281 1.372 . S
C280 C285 1.364 . S
C281 H260 0.952 . S
C281 C280 1.372 . S
C281 C282 1.389 . S
C282 H261 0.949 . S
C282 C281 1.389 . S
C282 C283 1.387 . S
C283 C282 1.387 . S
C283 C284 1.372 . S
C284 H262 0.950 . S
C284 C283 1.372 . S
C284 C285 1.379 . S
C285 H263 0.948 . S
C285 C280 1.364 . S
C285 C284 1.379 . S
C286 C255 1.383 . S
C286 C273 1.479 . S
C286 C287 1.398 . S
C287 C252 1.382 . S
C287 H264 0.951 . S
C287 C286 1.398 . S
Tb288 C297 2.764 . S
Tb288 O298 2.325 . S
Tb288 O301 2.303 1_655 S
Tb288 O305 2.322 1_545 S
Tb288 O306 2.349 . S
Tb288 O309 2.415 . S
Tb288 O310 2.399 . S
Tb289 O299 2.322 1_565 S
Tb289 O300 2.349 . S
Tb289 O302 2.415 . S
Tb289 O303 2.399 . S
Tb289 O304 2.325 . S
Tb289 O307 2.303 1_455 S
Tb289 C318 2.764 . S
C290 O306 1.261 . S
C290 O307 1.257 1_545 S
C291 C294 1.358 . S
C291 C295 1.332 . S
C291 C297 1.504 . S
C292 C293 1.373 . S
C292 C296 1.308 . S
C293 C292 1.373 . S
C293 C294 1.429 . S
C293 H320 0.932 . S
C294 C291 1.358 . S
C294 C293 1.429 . S
C294 H321 0.930 . S
C295 C291 1.332 . S
C295 C296 1.394 . S
C295 H322 0.896 1_655 S
C296 C292 1.308 . S
C296 C295 1.394 . S
C296 H323 0.929 . S
C297 Tb288 2.764 . S
C297 C291 1.504 . S
C297 O309 1.239 . S
C297 O310 1.263 . S
O298 Tb288 2.325 . S
O298 C308 1.236 1_655 S
O299 Tb289 2.322 1_545 S
O299 C308 1.257 . S
O300 Tb289 2.349 . S
O300 C311 1.261 . S
O301 Tb288 2.303 1_455 S
O301 C311 1.257 1_545 S
O302 Tb289 2.415 . S
O302 C318 1.239 . S
O303 Tb289 2.399 . S
O303 C318 1.263 . S
O304 Tb289 2.325 . S
O304 C319 1.236 1_455 S
O305 Tb288 2.322 1_565 S
O305 C319 1.257 . S
O306 Tb288 2.349 . S
O306 C290 1.261 . S
O307 Tb289 2.303 1_655 S
O307 C290 1.257 1_565 S
C308 O298 1.236 1_455 S
C308 O299 1.257 . S
O309 Tb288 2.415 . S
O309 C297 1.239 . S
O310 Tb288 2.399 . S
O310 C297 1.263 . S
C311 O300 1.261 . S
C311 O301 1.257 1_565 S
C312 C315 1.358 1_556 S
C312 C316 1.332 1_556 S
C312 C318 1.504 . S
C313 C314 1.373 . S
C313 C317 1.308 . S
C314 C313 1.373 . S
C314 C315 1.429 . S
C314 H324 0.932 . S
C315 C312 1.358 1_554 S
C315 C314 1.429 . S
C315 H325 0.930 1_554 S
C316 C312 1.332 1_554 S
C316 C317 1.394 . S
C316 H326 0.905 1_455 S
C317 C313 1.308 . S
C317 C316 1.394 . S
C317 H327 0.929 . S
C318 Tb289 2.764 . S
C318 O302 1.239 . S
C318 O303 1.263 . S
C318 C312 1.504 . S
C319 O304 1.236 1_655 S
C319 O305 1.257 . S
H320 C293 0.932 . S
H321 C294 0.930 . S
H322 C295 0.896 1_455 S
H323 C296 0.929 . S
H324 C314 0.932 . S
H325 C315 0.930 1_556 S
H326 C316 0.905 1_655 S
H327 C317 0.929 . S
Tb328 C337 2.764 . S
Tb328 O338 2.325 . S
Tb328 O341 2.303 1_565 S
Tb328 O345 2.322 . S
Tb328 O346 2.349 . S
Tb328 O349 2.415 1_565 S
Tb328 O350 2.399 . S
Tb329 O339 2.322 . S
Tb329 O340 2.349 . S
Tb329 O342 2.415 1_545 S
Tb329 O343 2.399 . S
Tb329 O344 2.325 . S
Tb329 O347 2.303 1_545 S
Tb329 C358 2.764 1_556 S
C330 O346 1.261 . S
C330 O347 1.257 . S
C331 C334 1.358 . S
C331 C335 1.311 1_565 S
C331 C337 1.504 . S
C332 C333 1.373 . S
C332 C336 1.308 . S
C333 C332 1.373 . S
C333 C334 1.429 . S
C333 H360 0.932 . S
C334 C331 1.358 . S
C334 C333 1.429 . S
C334 H361 0.930 . S
C335 C331 1.311 1_545 S
C335 C336 1.395 1_545 S
C335 H362 0.953 . S
C336 C332 1.308 . S
C336 C335 1.395 1_565 S
C336 H363 0.929 1_565 S
C337 Tb328 2.764 . S
C337 C331 1.504 . S
C337 O349 1.239 1_565 S
C337 O350 1.263 . S
O338 Tb328 2.325 . S
O338 C348 1.236 1_565 S
O339 Tb329 2.322 . S
O339 C348 1.257 . S
O340 Tb329 2.349 . S
O340 C351 1.261 . S
O341 Tb328 2.303 1_545 S
O341 C351 1.257 . S
O342 Tb329 2.415 1_565 S
O342 C358 1.239 1_566 S
O343 Tb329 2.399 . S
O343 C358 1.263 1_556 S
O344 Tb329 2.325 . S
O344 C359 1.236 1_545 S
O345 Tb328 2.322 . S
O345 C359 1.257 . S
O346 Tb328 2.349 . S
O346 C330 1.261 . S
O347 Tb329 2.303 1_565 S
O347 C330 1.257 . S
C348 O338 1.236 1_545 S
C348 O339 1.257 . S
O349 Tb328 2.415 1_545 S
O349 C337 1.239 1_545 S
O350 Tb328 2.399 . S
O350 C337 1.263 . S
C351 O340 1.261 . S
C351 O341 1.257 . S
C352 C355 1.358 . S
C352 C356 1.318 1_545 S
C352 C358 1.504 . S
C353 C354 1.373 . S
C353 C357 1.308 . S
C354 C353 1.373 . S
C354 C355 1.429 . S
C354 H364 0.932 . S
C355 C352 1.358 . S
C355 C354 1.429 . S
C355 H365 0.930 . S
C356 C352 1.318 1_565 S
C356 C357 1.395 1_565 S
C356 H366 0.945 . S
C357 C353 1.308 . S
C357 C356 1.395 1_545 S
C357 H367 0.929 1_545 S
C358 Tb329 2.764 1_554 S
C358 O342 1.239 1_544 S
C358 O343 1.263 1_554 S
C358 C352 1.504 . S
C359 O344 1.236 1_565 S
C359 O345 1.257 . S
H360 C333 0.932 . S
H361 C334 0.930 . S
H362 C335 0.953 . S
H363 C336 0.929 1_545 S
H364 C354 0.932 . S
H365 C355 0.930 . S
H366 C356 0.945 . S
H367 C357 0.929 1_565 S
Tb368 C377 2.764 1_556 S
Tb368 O378 2.325 . S
Tb368 O381 2.303 . S
Tb368 O385 2.322 . S
Tb368 O386 2.349 . S
Tb368 O389 2.415 1_556 S
Tb368 O390 2.399 . S
Tb369 O379 2.322 . S
Tb369 O380 2.349 . S
Tb369 O382 2.415 . S
Tb369 O383 2.399 . S
Tb369 O384 2.325 . S
Tb369 O387 2.303 . S
Tb369 C398 2.764 . S
C370 O386 1.261 . S
C370 O387 1.257 . S
C371 C374 1.358 . S
C371 C375 1.332 . S
C371 C377 1.504 . S
C372 C373 1.373 . S
C372 C376 1.308 . S
C373 C372 1.373 . S
C373 C374 1.429 . S
C373 H400 0.932 . S
C374 C371 1.358 . S
C374 C373 1.429 . S
C374 H401 0.930 . S
C375 C371 1.332 . S
C375 C376 1.394 . S
C375 H402 0.932 . S
C376 C372 1.308 . S
C376 C375 1.394 . S
C376 H403 0.929 . S
C377 Tb368 2.764 1_554 S
C377 C371 1.504 . S
C377 O389 1.239 . S
C377 O390 1.263 1_554 S
O378 Tb368 2.325 . S
O378 C388 1.236 . S
O379 Tb369 2.322 . S
O379 C388 1.257 . S
O380 Tb369 2.349 . S
O380 C391 1.261 . S
O381 Tb368 2.303 . S
O381 C391 1.257 . S
O382 Tb369 2.415 . S
O382 C398 1.239 . S
O383 Tb369 2.399 . S
O383 C398 1.263 . S
O384 Tb369 2.325 . S
O384 C399 1.236 . S
O385 Tb368 2.322 . S
O385 C399 1.257 . S
O386 Tb368 2.349 . S
O386 C370 1.261 . S
O387 Tb369 2.303 . S
O387 C370 1.257 . S
C388 O378 1.236 . S
C388 O379 1.257 . S
O389 Tb368 2.415 1_554 S
O389 C377 1.239 . S
O390 Tb368 2.399 . S
O390 C377 1.263 1_556 S
C391 O380 1.261 . S
C391 O381 1.257 . S
C392 C395 1.358 . S
C392 C396 1.332 . S
C392 C398 1.504 . S
C393 C394 1.373 . S
C393 C397 1.308 . S
C394 C393 1.373 . S
C394 C395 1.429 . S
C394 H404 0.932 . S
C395 C392 1.358 . S
C395 C394 1.429 . S
C395 H405 0.930 . S
C396 C392 1.332 . S
C396 C397 1.394 . S
C396 H406 0.932 . S
C397 C393 1.308 . S
C397 C396 1.394 . S
C397 H407 0.929 . S
C398 Tb369 2.764 . S
C398 O382 1.239 . S
C398 O383 1.263 . S
C398 C392 1.504 . S
C399 O384 1.236 . S
C399 O385 1.257 . S
H400 C373 0.932 . S
H401 C374 0.930 . S
H402 C375 0.932 . S
H403 C376 0.929 . S
H404 C394 0.932 . S
H405 C395 0.930 . S
H406 C396 0.932 . S
H407 C397 0.929 . S
Tb408 C417 2.764 . S
Tb408 O418 2.325 . S
Tb408 O421 2.303 . S
Tb408 O425 2.322 1_455 S
Tb408 O426 2.349 . S
Tb408 O429 2.415 . S
Tb408 O430 2.399 . S
Tb409 O419 2.322 1_655 S
Tb409 O420 2.349 . S
Tb409 O422 2.415 . S
Tb409 O423 2.399 . S
Tb409 O424 2.325 . S
Tb409 O427 2.303 . S
Tb409 C438 2.764 . S
C410 O426 1.261 . S
C410 O427 1.257 1_455 S
C411 C414 1.358 . S
C411 C415 1.332 . S
C411 C417 1.504 . S
C412 C413 1.373 . S
C412 C416 1.308 . S
C413 C412 1.373 . S
C413 C414 1.429 . S
C413 H440 0.932 . S
C414 C411 1.358 . S
C414 C413 1.429 . S
C414 H441 0.930 . S
C415 C411 1.332 . S
C415 C416 1.394 . S
C415 H442 0.932 . S
C416 C412 1.308 . S
C416 C415 1.394 . S
C416 H443 0.929 . S
C417 Tb408 2.764 . S
C417 C411 1.504 . S
C417 O429 1.239 . S
C417 O430 1.263 . S
O418 Tb408 2.325 . S
O418 C428 1.236 . S
O419 Tb409 2.322 1_455 S
O419 C428 1.257 . S
O420 Tb409 2.349 . S
O420 C431 1.261 . S
O421 Tb408 2.303 . S
O421 C431 1.257 1_455 S
O422 Tb409 2.415 . S
O422 C438 1.239 . S
O423 Tb409 2.399 . S
O423 C438 1.263 . S
O424 Tb409 2.325 . S
O424 C439 1.236 . S
O425 Tb408 2.322 1_655 S
O425 C439 1.257 . S
O426 Tb408 2.349 . S
O426 C410 1.261 . S
O427 Tb409 2.303 . S
O427 C410 1.257 1_655 S
C428 O418 1.236 . S
C428 O419 1.257 . S
O429 Tb408 2.415 . S
O429 C417 1.239 . S
O430 Tb408 2.399 . S
O430 C417 1.263 . S
C431 O420 1.261 . S
C431 O421 1.257 1_655 S
C432 C435 1.358 . S
C432 C436 1.332 . S
C432 C438 1.504 1_554 S
C433 C434 1.373 . S
C433 C437 1.308 . S
C434 C433 1.373 . S
C434 C435 1.429 . S
C434 H444 0.932 . S
C435 C432 1.358 . S
C435 C434 1.429 . S
C435 H445 0.930 1_554 S
C436 C432 1.332 . S
C436 C437 1.394 . S
C436 H446 0.932 . S
C437 C433 1.308 . S
C437 C436 1.394 . S
C437 H447 0.929 . S
C438 Tb409 2.764 . S
C438 O422 1.239 . S
C438 O423 1.263 . S
C438 C432 1.504 1_556 S
C439 O424 1.236 . S
C439 O425 1.257 . S
H440 C413 0.932 . S
H441 C414 0.930 . S
H442 C415 0.932 . S
H443 C416 0.929 . S
H444 C434 0.932 . S
H445 C435 0.930 1_556 S
H446 C436 0.932 . S
H447 C437 0.929 . S
C448 C449 1.388 . S
C448 C450 1.419 . S
C448 H452 0.930 . S
C449 C448 1.388 . S
C449 C458 1.405 1_545 S
C450 C448 1.419 . S
C450 C451 1.363 . S
C450 H453 0.929 . S
C451 C450 1.363 . S
C451 C457 1.428 1_545 S
H452 C448 0.930 . S
H453 C450 0.929 . S
S454 N455 1.613 . S
S454 N456 1.610 . S
N455 S454 1.613 . S
N455 C458 1.350 . S
N456 S454 1.610 . S
N456 C457 1.351 . S
C457 C451 1.428 1_565 S
C457 N456 1.351 . S
C457 C458 1.434 . S
C458 C449 1.405 1_565 S
C458 N455 1.350 . S
C458 C457 1.434 . S
C459 C460 1.369 . S
C459 C461 1.419 . S
C459 H463 0.930 . S
C460 C459 1.369 . S
C460 C469 1.429 . S
C461 C459 1.419 . S
C461 C462 1.363 . S
C461 H464 0.929 . S
C462 C461 1.363 . S
C462 C468 1.428 . S
H463 C459 0.930 . S
H464 C461 0.929 . S
S465 N466 1.613 . S
S465 N467 1.610 . S
N466 S465 1.613 . S
N466 C469 1.350 . S
N467 S465 1.610 . S
N467 C468 1.351 . S
C468 C462 1.428 . S
C468 N467 1.351 . S
C468 C469 1.434 . S
C469 C460 1.429 . S
C469 N466 1.350 . S
C469 C468 1.434 . S
C470 C471 1.369 . S
C470 C472 1.419 . S
C470 H474 0.930 . S
C471 C470 1.369 . S
C471 C480 1.429 . S
C472 C470 1.419 . S
C472 C473 1.363 . S
C472 H475 0.929 . S
C473 C472 1.363 . S
C473 C479 1.428 . S
H474 C470 0.930 . S
H475 C472 0.929 . S
S476 N477 1.613 . S
S476 N478 1.610 . S
N477 S476 1.613 . S
N477 C480 1.350 . S
N478 S476 1.610 . S
N478 C479 1.351 . S
C479 C473 1.428 . S
C479 N478 1.351 . S
C479 C480 1.434 . S
C480 C471 1.429 . S
C480 N477 1.350 . S
C480 C479 1.434 . S
C481 C482 1.371 . S
C481 C483 1.419 . S
C481 H485 0.930 . S
C482 C481 1.371 . S
C482 C491 1.427 1_455 S
C483 C481 1.419 . S
C483 C484 1.363 . S
C483 H486 0.929 . S
C484 C483 1.363 . S
C484 C490 1.428 1_455 S
H485 C481 0.930 . S
H486 C483 0.929 . S
S487 N488 1.613 . S
S487 N489 1.610 . S
N488 S487 1.613 . S
N488 C491 1.350 . S
N489 S487 1.610 . S
N489 C490 1.351 . S
C490 C484 1.428 1_655 S
C490 N489 1.351 . S
C490 C491 1.434 . S
C491 C482 1.427 1_655 S
C491 N488 1.350 . S
C491 C490 1.434 . S
C492 C493 1.369 1_545 S
C492 C494 1.419 . S
C492 H496 0.930 . S
C493 C492 1.369 1_565 S
C493 C502 1.429 . S
C494 C492 1.419 . S
C494 C495 1.363 1_545 S
C494 H497 0.929 . S
C495 C494 1.363 1_565 S
C495 C501 1.428 . S
H496 C492 0.930 . S
H497 C494 0.929 . S
S498 N499 1.613 . S
S498 N500 1.610 . S
N499 S498 1.613 . S
N499 C502 1.350 . S
N500 S498 1.610 . S
N500 C501 1.351 . S
C501 C495 1.428 . S
C501 N500 1.351 . S
C501 C502 1.434 . S
C502 C493 1.429 . S
C502 N499 1.350 . S
C502 C501 1.434 . S
C503 C504 1.369 . S
C503 C505 1.419 . S
C503 H507 0.930 1_556 S
C504 C503 1.369 . S
C504 C513 1.429 . S
C505 C503 1.419 . S
C505 C506 1.363 . S
C505 H508 0.929 . S
C506 C505 1.363 . S
C506 C512 1.428 . S
H507 C503 0.930 1_554 S
H508 C505 0.929 . S
S509 N510 1.613 . S
S509 N511 1.610 . S
N510 S509 1.613 . S
N510 C513 1.350 . S
N511 S509 1.610 . S
N511 C512 1.351 . S
C512 C506 1.428 . S
C512 N511 1.351 . S
C512 C513 1.434 . S
C513 C504 1.429 . S
C513 N510 1.350 . S
C513 C512 1.434 . S
C514 C515 1.369 . S
C514 C516 1.419 . S
C514 H518 0.930 . S
C515 C514 1.369 . S
C515 C524 1.429 . S
C516 C514 1.419 . S
C516 C517 1.363 . S
C516 H519 0.929 . S
C517 C516 1.363 . S
C517 C523 1.428 . S
H518 C514 0.930 . S
H519 C516 0.929 . S
S520 N521 1.613 . S
S520 N522 1.610 . S
N521 S520 1.613 . S
N521 C524 1.350 . S
N522 S520 1.610 . S
N522 C523 1.351 . S
C523 C517 1.428 . S
C523 N522 1.351 . S
C523 C524 1.434 . S
C524 C515 1.429 . S
C524 N521 1.350 . S
C524 C523 1.434 . S
C525 C526 1.379 . S
C525 C527 1.419 . S
C525 H529 0.930 . S
C526 C525 1.379 . S
C526 C535 1.419 1_655 S
C527 C525 1.419 . S
C527 C528 1.363 . S
C527 H530 0.929 . S
C528 C527 1.363 . S
C528 C534 1.428 1_655 S
H529 C525 0.930 . S
H530 C527 0.929 . S
S531 N532 1.613 . S
S531 N533 1.610 . S
N532 S531 1.613 . S
N532 C535 1.350 . S
N533 S531 1.610 . S
N533 C534 1.351 . S
C534 C528 1.428 1_455 S
C534 N533 1.351 . S
C534 C535 1.434 . S
C535 C526 1.419 1_455 S
C535 N532 1.350 . S
C535 C534 1.434 . S
C536 C537 1.369 . S
C536 C538 1.419 . S
C536 H540 0.930 . S
C537 C536 1.369 . S
C537 C546 1.424 1_655 S
C538 C536 1.419 . S
C538 C539 1.363 . S
C538 H541 0.929 . S
C539 C538 1.363 . S
C539 C545 1.428 . S
H540 C536 0.930 . S
H541 C538 0.929 . S
S542 N543 1.613 . S
S542 N544 1.610 1_455 S
N543 S542 1.613 . S
N543 C546 1.371 . S
N544 S542 1.610 1_655 S
N544 C545 1.351 . S
C545 C539 1.428 . S
C545 N544 1.351 . S
C545 C546 1.417 1_655 S
C546 C537 1.424 1_455 S
C546 N543 1.371 . S
C546 C545 1.417 1_455 S
C547 C548 1.369 1_565 S
C547 C549 1.419 . S
C547 H551 0.930 . S
C548 C547 1.369 1_545 S
C548 C557 1.429 . S
C549 C547 1.419 . S
C549 C550 1.363 . S
C549 H552 0.929 . S
C550 C549 1.363 . S
C550 C556 1.428 . S
H551 C547 0.930 . S
H552 C549 0.929 . S
S553 N554 1.613 . S
S553 N555 1.610 . S
N554 S553 1.613 . S
N554 C557 1.350 . S
N555 S553 1.610 . S
N555 C556 1.351 1_545 S
C556 C550 1.428 . S
C556 N555 1.351 1_565 S
C556 C557 1.434 1_565 S
C557 C548 1.429 . S
C557 N554 1.350 . S
C557 C556 1.434 1_545 S
C558 C559 1.369 . S
C558 C560 1.419 . S
C558 H562 0.930 . S
C559 C558 1.369 . S
C559 C568 1.429 . S
C560 C558 1.419 . S
C560 C561 1.363 . S
C560 H563 0.929 . S
C561 C560 1.363 . S
C561 C567 1.428 . S
H562 C558 0.930 . S
H563 C560 0.929 . S
S564 N565 1.613 . S
S564 N566 1.610 1_554 S
N565 S564 1.613 . S
N565 C568 1.350 1_554 S
N566 S564 1.610 1_556 S
N566 C567 1.351 . S
C567 C561 1.428 . S
C567 N566 1.351 . S
C567 C568 1.434 . S
C568 C559 1.429 . S
C568 N565 1.350 1_556 S
C568 C567 1.434 . S
C569 C570 1.369 . S
C569 C571 1.419 . S
C569 H573 0.930 . S
C570 C569 1.369 . S
C570 C579 1.429 . S
C571 C569 1.419 . S
C571 C572 1.363 . S
C571 H574 0.929 . S
C572 C571 1.363 . S
C572 C578 1.428 . S
H573 C569 0.930 . S
H574 C571 0.929 . S
S575 N576 1.613 . S
S575 N577 1.610 . S
N576 S575 1.613 . S
N576 C579 1.350 . S
N577 S575 1.610 . S
N577 C578 1.351 . S
C578 C572 1.428 . S
C578 N577 1.351 . S
C578 C579 1.434 . S
C579 C570 1.429 . S
C579 N576 1.350 . S
C579 C578 1.434 . S
C580 C581 1.366 1_655 S
C580 C582 1.408 1_655 S
C580 H584 0.945 . S
C581 C580 1.366 1_455 S
C581 C590 1.429 . S
C582 C580 1.408 1_455 S
C582 C583 1.363 . S
C582 H585 0.929 . S
C583 C582 1.363 . S
C583 C589 1.428 . S
H584 C580 0.945 . S
H585 C582 0.929 . S
S586 N587 1.613 . S
S586 N588 1.610 . S
N587 S586 1.613 . S
N587 C590 1.350 . S
N588 S586 1.610 . S
N588 C589 1.351 . S
C589 C583 1.428 . S
C589 N588 1.351 . S
C589 C590 1.434 . S
C590 C581 1.429 . S
C590 N587 1.350 . S
C590 C589 1.434 . S
C591 C592 1.369 . S
C591 C593 1.419 1_565 S
C591 H595 0.930 . S
C592 C591 1.369 . S
C592 C601 1.429 1_565 S
C593 C591 1.419 1_545 S
C593 C594 1.363 . S
C593 H596 0.929 1_545 S
C594 C593 1.363 . S
C594 C600 1.428 . S
H595 C591 0.930 . S
H596 C593 0.929 1_565 S
S597 N598 1.613 . S
S597 N599 1.610 . S
N598 S597 1.613 . S
N598 C601 1.350 . S
N599 S597 1.610 . S
N599 C600 1.351 . S
C600 C594 1.428 . S
C600 N599 1.351 . S
C600 C601 1.434 . S
C601 C592 1.429 1_545 S
C601 N598 1.350 . S
C601 C600 1.434 . S
C602 C603 1.369 . S
C602 C604 1.419 . S
C602 H606 0.930 . S
C603 C602 1.369 . S
C603 C612 1.429 . S
C604 C602 1.419 . S
C604 C605 1.363 . S
C604 H607 0.929 . S
C605 C604 1.363 . S
C605 C611 1.428 . S
H606 C602 0.930 . S
H607 C604 0.929 . S
S608 N609 1.613 . S
S608 N610 1.610 . S
N609 S608 1.613 . S
N609 C612 1.350 . S
N610 S608 1.610 . S
N610 C611 1.351 . S
C611 C605 1.428 . S
C611 N610 1.351 . S
C611 C612 1.434 . S
C612 C603 1.429 . S
C612 N609 1.350 . S
C612 C611 1.434 . S
C613 C614 1.369 . S
C613 C615 1.419 . S
C613 H617 0.930 . S
C614 C613 1.369 . S
C614 C623 1.429 . S
C615 C613 1.419 . S
C615 C616 1.363 . S
C615 H618 0.929 . S
C616 C615 1.363 . S
C616 C622 1.428 . S
H617 C613 0.930 . S
H618 C615 0.929 . S
S619 N620 1.613 . S
S619 N621 1.610 . S
N620 S619 1.613 . S
N620 C623 1.350 . S
N621 S619 1.610 . S
N621 C622 1.351 . S
C622 C616 1.428 . S
C622 N621 1.351 . S
C622 C623 1.434 . S
C623 C614 1.429 . S
C623 N620 1.350 . S
C623 C622 1.434 . S
C624 C625 1.369 . S
C624 C626 1.419 . S
C624 H628 0.930 . S
C625 C624 1.369 . S
C625 C634 1.429 . S
C626 C624 1.419 . S
C626 C627 1.363 . S
C626 H629 0.929 1_556 S
C627 C626 1.363 . S
C627 C633 1.428 . S
H628 C624 0.930 . S
H629 C626 0.929 1_554 S
S630 N631 1.613 . S
S630 N632 1.610 . S
N631 S630 1.613 . S
N631 C634 1.350 . S
N632 S630 1.610 . S
N632 C633 1.351 . S
C633 C627 1.428 . S
C633 N632 1.351 . S
C633 C634 1.434 . S
C634 C625 1.429 . S
C634 N631 1.350 . S
C634 C633 1.434 . S
C635 C636 1.369 . S
C635 C637 1.419 . S
C635 H639 0.930 . S
C636 C635 1.369 . S
C636 C645 1.429 1_545 S
C637 C635 1.419 . S
C637 C638 1.363 . S
C637 H640 0.929 . S
C638 C637 1.363 . S
C638 C644 1.428 1_545 S
H639 C635 0.930 . S
H640 C637 0.929 . S
S641 N642 1.613 . S
S641 N643 1.610 . S
N642 S641 1.613 . S
N642 C645 1.350 . S
N643 S641 1.610 . S
N643 C644 1.351 . S
C644 C638 1.428 1_565 S
C644 N643 1.351 . S
C644 C645 1.434 . S
C645 C636 1.429 1_565 S
C645 N642 1.350 . S
C645 C644 1.434 . S
C646 C647 1.369 . S
C646 C648 1.419 . S
C646 H650 0.930 . S
C647 C646 1.369 . S
C647 C656 1.429 . S
C648 C646 1.419 . S
C648 C649 1.363 . S
C648 H651 0.929 . S
C649 C648 1.363 . S
C649 C655 1.428 . S
H650 C646 0.930 . S
H651 C648 0.929 . S
S652 N653 1.613 . S
S652 N654 1.610 . S
N653 S652 1.613 . S
N653 C656 1.350 . S
N654 S652 1.610 . S
N654 C655 1.351 . S
C655 C649 1.428 . S
C655 N654 1.351 . S
C655 C656 1.434 . S
C656 C647 1.429 . S
C656 N653 1.350 . S
C656 C655 1.434 . S
C657 C658 1.369 . S
C657 C659 1.419 . S
C657 H661 0.930 . S
C658 C657 1.369 . S
C658 C667 1.429 . S
C659 C657 1.419 . S
C659 C660 1.363 . S
C659 H662 0.929 . S
C660 C659 1.363 . S
C660 C666 1.428 . S
H661 C657 0.930 . S
H662 C659 0.929 . S
S663 N664 1.613 . S
S663 N665 1.610 . S
N664 S663 1.613 . S
N664 C667 1.350 . S
N665 S663 1.610 . S
N665 C666 1.351 . S
C666 C660 1.428 . S
C666 N665 1.351 . S
C666 C667 1.434 . S
C667 C658 1.429 . S
C667 N664 1.350 . S
C667 C666 1.434 . S
C668 C669 1.369 . S
C668 C670 1.419 . S
C668 H672 0.930 . S
C669 C668 1.369 . S
C669 C678 1.429 1_655 S
C670 C668 1.419 . S
C670 C671 1.363 . S
C670 H673 0.929 . S
C671 C670 1.363 . S
C671 C677 1.428 1_655 S
H672 C668 0.930 . S
H673 C670 0.929 . S
S674 N675 1.613 . S
S674 N676 1.610 . S
N675 S674 1.613 . S
N675 C678 1.350 . S
N676 S674 1.610 . S
N676 C677 1.351 . S
C677 C671 1.428 1_455 S
C677 N676 1.351 . S
C677 C678 1.434 . S
C678 C669 1.429 1_455 S
C678 N675 1.350 . S
C678 C677 1.434 . S
C679 C680 1.369 1_545 S
C679 C681 1.419 . S
C679 H683 0.930 . S
C680 C679 1.369 1_565 S
C680 C689 1.429 . S
C681 C679 1.419 . S
C681 C682 1.363 1_545 S
C681 H684 0.929 . S
C682 C681 1.363 1_565 S
C682 C688 1.428 . S
H683 C679 0.930 . S
H684 C681 0.929 . S
S685 N686 1.613 . S
S685 N687 1.610 . S
N686 S685 1.613 . S
N686 C689 1.350 . S
N687 S685 1.610 . S
N687 C688 1.351 . S
C688 C682 1.428 . S
C688 N687 1.351 . S
C688 C689 1.434 . S
C689 C680 1.429 . S
C689 N686 1.350 . S
C689 C688 1.434 . S
C690 C691 1.369 . S
C690 C692 1.419 . S
C690 H694 0.930 . S
C691 C690 1.369 . S
C691 C700 1.429 . S
C692 C690 1.419 . S
C692 C693 1.363 . S
C692 H695 0.929 . S
C693 C692 1.363 . S
C693 C699 1.428 . S
H694 C690 0.930 . S
H695 C692 0.929 . S
S696 N697 1.613 . S
S696 N698 1.610 . S
N697 S696 1.613 . S
N697 C700 1.350 . S
N698 S696 1.610 . S
N698 C699 1.351 . S
C699 C693 1.428 . S
C699 N698 1.351 . S
C699 C700 1.434 . S
C700 C691 1.429 . S
C700 N697 1.350 . S
C700 C699 1.434 . S
C701 C702 1.369 . S
C701 C703 1.419 . S
C701 H705 0.930 . S
C702 C701 1.369 . S
C702 C711 1.429 . S
C703 C701 1.419 . S
C703 C704 1.363 . S
C703 H706 0.929 . S
C704 C703 1.363 . S
C704 C710 1.428 . S
H705 C701 0.930 . S
H706 C703 0.929 . S
S707 N708 1.607 1_554 S
S707 N709 1.602 1_554 S
N708 S707 1.607 1_556 S
N708 C711 1.350 . S
N709 S707 1.602 1_556 S
N709 C710 1.351 . S
C710 C704 1.428 . S
C710 N709 1.351 . S
C710 C711 1.434 . S
C711 C702 1.429 . S
C711 N708 1.350 . S
C711 C710 1.434 . S
C449 C241 2.537 . S
C451 C311 2.886 1_545 S
C462 C351 1.744 . S
C460 C277 1.657 . S
C473 C370 2.949 . S
C471 C169 2.606 . S
C484 C431 2.188 1_455 S
C482 C205 1.884 . S
C495 C290 2.890 1_564 S
C493 C97 2.532 1_565 S
C504 C133 1.714 . S
C506 C330 1.747 . S
C515 C25 2.565 . S
C517 C391 2.949 1_554 S
C526 C61 1.886 1_655 S
C528 C410 2.188 1_654 S
C539 C292 1.010 . S
C537 C211 1.094 1_655 S
C550 C332 0.589 . S
C548 C247 0.562 . S
C561 C388 1.632 . S
C559 C253 1.377 . S
C570 C175 0.781 . S
C572 C412 0.753 . S
C581 C67 1.034 . S
C583 C313 1.028 . S
C594 C353 0.614 . S
C592 C103 0.604 1_565 S
C605 C399 1.639 . S
C603 C109 1.441 . S
C614 C31 0.762 . S
C616 C433 0.766 . S
C625 C181 2.525 . S
C627 C308 2.905 . S
C636 C217 3.160 . S
C638 C348 3.563 . S
C649 C372 2.108 . S
C647 C283 2.036 . S
C660 C428 3.551 . S
C658 C145 3.149 . S
C669 C37 2.541 1_655 S
C671 C319 2.915 . S
C682 C359 3.564 . S
C680 C73 3.164 1_565 S
C693 C393 2.100 . S
C691 C139 2.019 . S
C702 C1 3.152 . S
C704 C439 3.555 . S
