# Generated by pormake.
# Topology ssa, (4,4)-cn, num edge types: 1
# Building blocks:
#     Node 0, Type 0, BuildingBlock: KOZSID_clean_sbu_0, # of connection points: 4
#     Node 1, Type 0, BuildingBlock: KOZSID_clean_sbu_0, # of connection points: 4
#     Node 2, Type 0, BuildingBlock: KOZSID_clean_sbu_0, # of connection points: 4
#     Node 3, Type 0, BuildingBlock: KOZSID_clean_sbu_0, # of connection points: 4
#     Node 4, Type 0, BuildingBlock: KOZSID_clean_sbu_0, # of connection points: 4
#     Node 5, Type 0, BuildingBlock: KOZSID_clean_sbu_0, # of connection points: 4
#     Node 6, Type 1, BuildingBlock: NAWXER_clean_linker_0, # of connection points: 4
#     Node 7, Type 1, BuildingBlock: NAWXER_clean_linker_0, # of connection points: 4
#     Node 8, Type 1, BuildingBlock: NAWXER_clean_linker_0, # of connection points: 4
#     Node 9, Type 1, BuildingBlock: NAWXER_clean_linker_0, # of connection points: 4
#     Node 10, Type 1, BuildingBlock: NAWXER_clean_linker_0, # of connection points: 4
#     Node 11, Type 1, BuildingBlock: NAWXER_clean_linker_0, # of connection points: 4
#     Edge 12, Type (0, 1), BuildingBlock: TEMPAE_clean_linker_10, # of connection points: 2
#     Edge 13, Type (0, 1), BuildingBlock: TEMPAE_clean_linker_10, # of connection points: 2
#     Edge 14, Type (0, 1), BuildingBlock: TEMPAE_clean_linker_10, # of connection points: 2
#     Edge 15, Type (0, 1), BuildingBlock: TEMPAE_clean_linker_10, # of connection points: 2
#     Edge 16, Type (0, 1), BuildingBlock: TEMPAE_clean_linker_10, # of connection points: 2
#     Edge 17, Type (0, 1), BuildingBlock: TEMPAE_clean_linker_10, # of connection points: 2
#     Edge 18, Type (0, 1), BuildingBlock: TEMPAE_clean_linker_10, # of connection points: 2
#     Edge 19, Type (0, 1), BuildingBlock: TEMPAE_clean_linker_10, # of connection points: 2
#     Edge 20, Type (0, 1), BuildingBlock: TEMPAE_clean_linker_10, # of connection points: 2
#     Edge 21, Type (0, 1), BuildingBlock: TEMPAE_clean_linker_10, # of connection points: 2
#     Edge 22, Type (0, 1), BuildingBlock: TEMPAE_clean_linker_10, # of connection points: 2
#     Edge 23, Type (0, 1), BuildingBlock: TEMPAE_clean_linker_10, # of connection points: 2
#     Edge 24, Type (0, 1), BuildingBlock: TEMPAE_clean_linker_10, # of connection points: 2
#     Edge 25, Type (0, 1), BuildingBlock: TEMPAE_clean_linker_10, # of connection points: 2
#     Edge 26, Type (0, 1), BuildingBlock: TEMPAE_clean_linker_10, # of connection points: 2
#     Edge 27, Type (0, 1), BuildingBlock: TEMPAE_clean_linker_10, # of connection points: 2
#     Edge 28, Type (0, 1), BuildingBlock: TEMPAE_clean_linker_10, # of connection points: 2
#     Edge 29, Type (0, 1), BuildingBlock: TEMPAE_clean_linker_10, # of connection points: 2
#     Edge 30, Type (0, 1), BuildingBlock: TEMPAE_clean_linker_10, # of connection points: 2
#     Edge 31, Type (0, 1), BuildingBlock: TEMPAE_clean_linker_10, # of connection points: 2
#     Edge 32, Type (0, 1), BuildingBlock: TEMPAE_clean_linker_10, # of connection points: 2
#     Edge 33, Type (0, 1), BuildingBlock: TEMPAE_clean_linker_10, # of connection points: 2
#     Edge 34, Type (0, 1), BuildingBlock: TEMPAE_clean_linker_10, # of connection points: 2
#     Edge 35, Type (0, 1), BuildingBlock: TEMPAE_clean_linker_10, # of connection points: 2
# Relax obj value: 0.006
# Max RMSD: 0.022
# Mean RMSD: 0.013
data_MOF--net-ssa--node1-KOZSID_clean_sbu_0--node2-NAWXER_clean_linker_0--edge1-TEMPAE_clean_linker_10
_symmetry_space_group_name_H-M    P1
_symmetry_Int_Tables_number       1
_symmetry_cell_setting            triclinic
loop_
_symmetry_equiv_pos_as_xyz
'x, y, z'
_cell_length_a     63.478894
_cell_length_b     64.841774
_cell_length_c     45.259042
_cell_angle_alpha  87.630486
_cell_angle_beta   90.038349
_cell_angle_gamma 122.15202
loop_
_atom_site_label
_atom_site_type_symbol
_atom_site_fract_x
_atom_site_fract_y
_atom_site_fract_z
_atom_type_partial_charge
C0 C 0.95687 0.50638 0.99617 0.0
C1 C 0.93478 0.50085 0.00993 0.0
C2 C 0.93455 0.4918 0.03791 0.0
C3 C 0.95626 0.49203 0.0396 0.0
N4 N 0.9701 0.50062 0.0144 0.0
Co5 Co 0.00197 0.50273 0.00652 0.0
N6 N 0.99575 0.4794 0.04026 0.0
C7 C 0.97879 0.4726 0.0624 0.0
C8 C 0.97827 0.45581 0.08231 0.0
C9 C 0.99633 0.45212 0.07243 0.0
C10 C 0.00711 0.46715 0.04709 0.0
N11 N 0.03398 0.50509 0.99856 0.0
C12 C 0.04262 0.49124 0.00948 0.0
C13 C 0.06674 0.50029 0.999 0.0
C14 C 0.07345 0.52062 0.98136 0.0
C15 C 0.05322 0.52293 0.98199 0.0
N16 N 0.00805 0.52603 0.97291 0.0
C17 C 0.03016 0.54196 0.95956 0.0
C18 C 0.02849 0.5558 0.93699 0.0
C19 C 0.00376 0.54809 0.93618 0.0
C20 C 0.99175 0.52986 0.95832 0.0
N21 N 0.01892 0.52989 0.03285 0.0
C22 C 0.04438 0.56934 0.06934 0.0
C23 C 0.02786 0.56879 0.04843 0.0
C24 C 0.01509 0.54877 0.03064 0.0
C25 C 0.04772 0.5497 0.07184 0.0
C26 C 0.03501 0.53031 0.05329 0.0
N27 N 0.98501 0.47566 0.98017 0.0
C28 C 0.98189 0.45908 0.93258 0.0
C29 C 0.95918 0.43814 0.94137 0.0
C30 C 0.94981 0.43606 0.96997 0.0
C31 C 0.96292 0.45509 0.98897 0.0
C32 C 0.99467 0.47754 0.95246 0.0
H33 H 0.95492 0.45329 0.01061 0.0
H34 H 0.01216 0.49352 0.94523 0.0
H35 H 0.00227 0.54867 0.01493 0.0
H36 H 0.03845 0.51578 0.05539 0.0
C37 C 0.96152 0.47971 0.06151 0.0
C38 C 0.96528 0.51779 0.96631 0.0
C39 C 0.03018 0.47182 0.03288 0.0
C40 C 0.05075 0.54009 0.96514 0.0
H41 H 0.92013 0.50273 0.00075 0.0
H42 H 0.91962 0.48453 0.05436 0.0
H43 H 0.9659 0.4469 0.10137 0.0
H44 H 0.00149 0.44026 0.08317 0.0
H45 H 0.07864 0.49348 0.00429 0.0
H46 H 0.09095 0.53223 0.96937 0.0
H47 H 0.04325 0.56915 0.92208 0.0
H48 H 0.99554 0.55511 0.92111 0.0
H49 H 0.02469 0.58362 0.04601 0.0
H50 H 0.06053 0.54958 0.08757 0.0
H51 H 0.98961 0.46117 0.91053 0.0
H52 H 0.93219 0.42008 0.97734 0.0
C53 C 0.53718 0.01024 0.55604 0.0
C54 C 0.53713 0.9997 0.58341 0.0
C55 C 0.51481 0.97815 0.58659 0.0
C56 C 0.50246 0.97677 0.5612 0.0
N57 N 0.51567 0.99602 0.54174 0.0
Co58 Co 0.50413 0.00215 0.50289 0.0
N59 N 0.47053 0.97135 0.50877 0.0
C60 C 0.46238 0.95519 0.53231 0.0
C61 C 0.4387 0.93545 0.52964 0.0
C62 C 0.43135 0.93899 0.50259 0.0
C63 C 0.45111 0.96076 0.49029 0.0
N64 N 0.49258 0.00833 0.4641 0.0
C65 C 0.47096 0.99425 0.44999 0.0
C66 C 0.47071 0.00496 0.4229 0.0
C67 C 0.49308 0.02648 0.41962 0.0
C68 C 0.50567 0.02766 0.44474 0.0
N69 N 0.53775 0.0329 0.49697 0.0
C70 C 0.54595 0.04891 0.47328 0.0
C71 C 0.56978 0.06845 0.4757 0.0
C72 C 0.57716 0.06494 0.50274 0.0
C73 C 0.55725 0.04343 0.51536 0.0
N74 N 0.5162 0.98363 0.4825 0.0
C75 C 0.52988 0.95561 0.45127 0.0
C76 C 0.53653 0.97884 0.44049 0.0
C77 C 0.52951 0.9924 0.45629 0.0
C78 C 0.51693 0.94693 0.47836 0.0
C79 C 0.51051 0.9612 0.49359 0.0
N80 N 0.49201 0.02063 0.52325 0.0
C81 C 0.49085 0.05712 0.52724 0.0
C82 C 0.47728 0.04813 0.55396 0.0
C83 C 0.47072 0.02488 0.56464 0.0
C84 C 0.47822 0.01159 0.54911 0.0
C85 C 0.49786 0.04316 0.51234 0.0
H86 H 0.47282 0.99416 0.55866 0.0
H87 H 0.50833 0.05116 0.49227 0.0
H88 H 0.53471 0.00972 0.44654 0.0
H89 H 0.50066 0.95352 0.51409 0.0
C90 C 0.4779 0.95846 0.55589 0.0
C91 C 0.55746 0.03433 0.5453 0.0
C92 C 0.45082 0.97011 0.46057 0.0
C93 C 0.53033 0.04581 0.44986 0.0
H94 H 0.55144 0.00708 0.5998 0.0
H95 H 0.50806 0.96538 0.60557 0.0
H96 H 0.42826 0.92004 0.54521 0.0
H97 H 0.41363 0.92672 0.49275 0.0
H98 H 0.45612 0.99769 0.40685 0.0
H99 H 0.49968 0.03938 0.40076 0.0
H100 H 0.58031 0.08374 0.45999 0.0
H101 H 0.59501 0.0771 0.51237 0.0
H102 H 0.54649 0.98628 0.41949 0.0
H103 H 0.51174 0.92917 0.48782 0.0
H104 H 0.49662 0.07512 0.51812 0.0
H105 H 0.45981 0.01688 0.58496 0.0
C106 C 0.54391 0.53412 0.95514 0.0
C107 C 0.54916 0.54995 0.93073 0.0
C108 C 0.52834 0.55068 0.92609 0.0
C109 C 0.51171 0.53545 0.94791 0.0
N110 N 0.52074 0.52528 0.96654 0.0
Co111 Co 0.5028 0.50186 0.00116 0.0
N112 N 0.47148 0.50152 0.99297 0.0
C113 C 0.46795 0.51393 0.97076 0.0
C114 C 0.44499 0.51109 0.9716 0.0
C115 C 0.43316 0.49617 0.99597 0.0
C116 C 0.44961 0.49057 0.00855 0.0
N117 N 0.48485 0.47841 0.03575 0.0
C118 C 0.46158 0.46935 0.04697 0.0
C119 C 0.45634 0.45347 0.07133 0.0
C120 C 0.47725 0.45293 0.07613 0.0
C121 C 0.49392 0.4683 0.05443 0.0
N122 N 0.53412 0.50221 0.00934 0.0
C123 C 0.5377 0.4899 0.03165 0.0
C124 C 0.56062 0.49266 0.03074 0.0
C125 C 0.57237 0.50739 0.00621 0.0
C126 C 0.55591 0.51296 0.9936 0.0
N127 N 0.51383 0.52957 0.02728 0.0
C128 C 0.52723 0.56772 0.0654 0.0
C129 C 0.531 0.54893 0.07332 0.0
C130 C 0.52401 0.53005 0.05419 0.0
C131 C 0.51708 0.56739 0.03797 0.0
C132 C 0.51083 0.54846 0.01928 0.0
N133 N 0.49177 0.47416 0.97505 0.0
C134 C 0.48845 0.43631 0.96435 0.0
C135 C 0.47814 0.43593 0.93701 0.0
C136 C 0.47437 0.45471 0.92912 0.0
C137 C 0.48147 0.47363 0.94822 0.0
C138 C 0.49481 0.45529 0.98301 0.0
H139 H 0.47871 0.48775 0.94061 0.0
H140 H 0.50232 0.45435 0.00365 0.0
H141 H 0.52676 0.51594 0.06183 0.0
H142 H 0.50344 0.54947 0.99858 0.0
C143 C 0.48715 0.52945 0.95062 0.0
C144 C 0.56121 0.52734 0.96582 0.0
C145 C 0.44415 0.47589 0.03611 0.0
C146 C 0.5185 0.47437 0.05177 0.0
H147 H 0.56613 0.5596 0.91734 0.0
H148 H 0.52547 0.56071 0.9085 0.0
H149 H 0.438 0.51952 0.95682 0.0
H150 H 0.41474 0.49066 0.00388 0.0
H151 H 0.43929 0.44362 0.08456 0.0
H152 H 0.48011 0.44288 0.09369 0.0
H153 H 0.56762 0.48424 0.04554 0.0
H154 H 0.59071 0.51274 0.99819 0.0
H155 H 0.53875 0.54849 0.0945 0.0
H156 H 0.51414 0.58182 0.03086 0.0
H157 H 0.49141 0.42189 0.97142 0.0
H158 H 0.46651 0.45512 0.908 0.0
C159 C 0.95818 0.44436 0.50859 0.0
C160 C 0.93668 0.42642 0.4956 0.0
C161 C 0.93324 0.43723 0.47116 0.0
C162 C 0.95286 0.46098 0.47048 0.0
N163 N 0.96874 0.46594 0.49288 0.0
Co164 Co 0.00019 0.49782 0.49964 0.0
N165 N 0.9932 0.51459 0.46634 0.0
C166 C 0.97261 0.50474 0.44974 0.0
C167 C 0.973 0.52071 0.42864 0.0
C168 C 0.99522 0.54202 0.43181 0.0
C169 C 0.00716 0.53776 0.45476 0.0
N170 N 0.03237 0.52936 0.50531 0.0
C171 C 0.04312 0.55075 0.48913 0.0
C172 C 0.06628 0.56784 0.49973 0.0
C173 C 0.07053 0.55668 0.5231 0.0
C174 C 0.04982 0.53355 0.52541 0.0
N175 N 0.00636 0.4814 0.53415 0.0
C176 C 0.0259 0.4918 0.55241 0.0
C177 C 0.02409 0.47671 0.57568 0.0
C178 C 0.00183 0.45549 0.57245 0.0
C179 C 0.99143 0.45881 0.54707 0.0
N180 N 0.01805 0.48878 0.47211 0.0
C181 C 0.0444 0.47744 0.43243 0.0
C182 C 0.05051 0.48087 0.46228 0.0
C183 C 0.03741 0.4867 0.48145 0.0
C184 C 0.02462 0.47955 0.42298 0.0
C185 C 0.01167 0.48488 0.44301 0.0
N186 N 0.98235 0.50683 0.52708 0.0
C187 C 0.98138 0.52631 0.57104 0.0
C188 C 0.95646 0.51837 0.56678 0.0
C189 C 0.94476 0.50479 0.54223 0.0
C190 C 0.95799 0.49942 0.52268 0.0
C191 C 0.99385 0.52024 0.55118 0.0
H192 H 0.94807 0.48919 0.50422 0.0
H193 H 0.01271 0.52646 0.55593 0.0
H194 H 0.04344 0.48954 0.50371 0.0
H195 H 0.99671 0.48596 0.43424 0.0
C196 C 0.95501 0.4797 0.45177 0.0
C197 C 0.96696 0.4404 0.53674 0.0
C198 C 0.03247 0.55558 0.46322 0.0
C199 C 0.04574 0.51573 0.54696 0.0
H200 H 0.92436 0.40766 0.50354 0.0
H201 H 0.9177 0.42903 0.4564 0.0
H202 H 0.9593 0.51699 0.41201 0.0
H203 H 0.00219 0.55852 0.41804 0.0
H204 H 0.07885 0.5864 0.49128 0.0
H205 H 0.08677 0.5645 0.53677 0.0
H206 H 0.0372 0.4808 0.59318 0.0
H207 H 0.99405 0.43959 0.58746 0.0
H208 H 0.06533 0.479 0.47102 0.0
H209 H 0.01927 0.47751 0.40005 0.0
H210 H 0.9911 0.53677 0.58994 0.0
H211 H 0.92551 0.49853 0.53791 0.0
C212 C 0.46469 0.99557 0.05354 0.0
C213 C 0.46407 0.00852 0.07686 0.0
C214 C 0.4866 0.02993 0.07655 0.0
C215 C 0.49957 0.02895 0.05305 0.0
N216 N 0.48659 0.00829 0.03806 0.0
Co217 Co 0.49814 0.9995 0.00219 0.0
N218 N 0.53192 0.03022 0.00312 0.0
C219 C 0.54027 0.04753 0.02337 0.0
C220 C 0.56428 0.06656 0.01805 0.0
C221 C 0.57166 0.06125 0.99269 0.0
C222 C 0.55156 0.03926 0.98394 0.0
N223 N 0.50962 0.99091 0.966 0.0
C224 C 0.53126 0.00399 0.95007 0.0
C225 C 0.53133 0.99187 0.92553 0.0
C226 C 0.50882 0.97043 0.92579 0.0
C227 C 0.49634 0.97073 0.95029 0.0
N228 N 0.46445 0.96855 0.00159 0.0
C229 C 0.45653 0.9508 0.98197 0.0
C230 C 0.43313 0.93105 0.98822 0.0
C231 C 0.42568 0.9363 0.01353 0.0
C232 C 0.44498 0.95921 0.02117 0.0
N233 N 0.48631 0.01665 0.97644 0.0
C234 C 0.47179 0.04203 0.93825 0.0
C235 C 0.46379 0.01778 0.93387 0.0
C236 C 0.47133 0.00557 0.95299 0.0
C237 C 0.48671 0.05322 0.96233 0.0
C238 C 0.49352 0.04026 0.98112 0.0
N239 N 0.51002 0.98237 0.02791 0.0
C240 C 0.51269 0.94713 0.03958 0.0
C241 C 0.52584 0.95756 0.06505 0.0
C242 C 0.53117 0.98067 0.07156 0.0
C243 C 0.52298 0.99258 0.05295 0.0
C244 C 0.50519 0.95983 0.02136 0.0
H245 H 0.52716 0.00991 0.05947 0.0
H246 H 0.49544 0.95096 0.00216 0.0
H247 H 0.46506 0.98728 0.94811 0.0
H248 H 0.5048 0.04983 0.99911 0.0
C249 C 0.52446 0.04634 0.04574 0.0
C250 C 0.44444 0.97087 0.04786 0.0
C251 C 0.55165 0.02837 0.95648 0.0
C252 C 0.47191 0.95274 0.95859 0.0
H253 H 0.44904 0.00283 0.09281 0.0
H254 H 0.49299 0.04425 0.09206 0.0
H255 H 0.57489 0.08271 0.03061 0.0
H256 H 0.58958 0.07256 0.98147 0.0
H257 H 0.54594 0.9981 0.90884 0.0
H258 H 0.50213 0.95652 0.90968 0.0
H259 H 0.42296 0.91451 0.97624 0.0
H260 H 0.40818 0.92425 0.02526 0.0
H261 H 0.45225 0.00844 0.91536 0.0
H262 H 0.49302 0.07192 0.96678 0.0
H263 H 0.50839 0.9293 0.03359 0.0
H264 H 0.54118 0.98932 0.09126 0.0
C265 C 0.51269 0.55378 0.49006 0.0
C266 C 0.50756 0.57045 0.50085 0.0
C267 C 0.49218 0.55937 0.52502 0.0
C268 C 0.48862 0.53661 0.52753 0.0
N269 N 0.50102 0.5325 0.5066 0.0
Co270 Co 0.49966 0.50124 0.50087 0.0
N271 N 0.4754 0.48438 0.53498 0.0
C272 C 0.46542 0.49386 0.55206 0.0
C273 C 0.44946 0.47793 0.57394 0.0
C274 C 0.4495 0.45711 0.57099 0.0
C275 C 0.46569 0.46165 0.54748 0.0
N276 N 0.4983 0.46997 0.49514 0.0
C277 C 0.4867 0.44873 0.51173 0.0
C278 C 0.49179 0.43204 0.50089 0.0
C279 C 0.50707 0.44308 0.47664 0.0
C280 C 0.51062 0.46583 0.47413 0.0
N281 N 0.52395 0.5181 0.46678 0.0
C282 C 0.53391 0.50861 0.4497 0.0
C283 C 0.55 0.52458 0.42794 0.0
C284 C 0.55007 0.54544 0.43098 0.0
C285 C 0.53381 0.54088 0.45441 0.0
N286 N 0.52763 0.51151 0.52834 0.0
C287 C 0.56662 0.52467 0.56818 0.0
C288 C 0.56584 0.51407 0.54159 0.0
C289 C 0.54653 0.50793 0.5221 0.0
C290 C 0.54757 0.52875 0.57428 0.0
C291 C 0.52836 0.52193 0.55437 0.0
N292 N 0.47171 0.49103 0.47337 0.0
C293 C 0.45223 0.47467 0.42689 0.0
C294 C 0.43367 0.47935 0.43291 0.0
C295 C 0.43405 0.48941 0.45967 0.0
C296 C 0.45291 0.49479 0.47957 0.0
C297 C 0.47108 0.48081 0.44718 0.0
H298 H 0.45196 0.50219 0.49967 0.0
H299 H 0.48509 0.47742 0.44097 0.0
H300 H 0.54721 0.50006 0.50226 0.0
H301 H 0.51425 0.52516 0.56062 0.0
C302 C 0.47231 0.51813 0.54792 0.0
C303 C 0.52759 0.55845 0.46318 0.0
C304 C 0.47199 0.44414 0.53876 0.0
C305 C 0.52697 0.48432 0.45378 0.0
H306 H 0.51364 0.58853 0.49184 0.0
H307 H 0.48387 0.56673 0.53853 0.0
H308 H 0.43943 0.48124 0.59048 0.0
H309 H 0.43919 0.4406 0.58493 0.0
H310 H 0.48578 0.41399 0.50993 0.0
H311 H 0.51536 0.43572 0.4631 0.0
H312 H 0.56007 0.52128 0.41144 0.0
H313 H 0.56053 0.562 0.41715 0.0
H314 H 0.5798 0.51004 0.5359 0.0
H315 H 0.54741 0.53725 0.59431 0.0
H316 H 0.45258 0.46691 0.40629 0.0
H317 H 0.41976 0.49302 0.46531 0.0
C318 C 0.30069 0.46559 0.17428 0.0
C319 C 0.29686 0.44624 0.15742 0.0
C320 C 0.28125 0.46335 0.19141 0.0
C321 C 0.25761 0.44182 0.19171 0.0
C322 C 0.27323 0.42464 0.1578 0.0
C323 C 0.25362 0.42258 0.17453 0.0
C324 C 0.23697 0.43986 0.20918 0.0
C325 C 0.28749 0.43309 0.27282 0.0
C326 C 0.29657 0.44976 0.29536 0.0
C327 C 0.26844 0.43072 0.25488 0.0
C328 C 0.25876 0.44562 0.25848 0.0
C329 C 0.28649 0.46416 0.29954 0.0
C330 C 0.26785 0.46218 0.28122 0.0
C331 C 0.23836 0.44337 0.23994 0.0
C332 C 0.1403 0.42944 0.27389 0.0
C333 C 0.14846 0.45064 0.28941 0.0
C334 C 0.15714 0.42718 0.25654 0.0
C335 C 0.18239 0.44592 0.25498 0.0
C336 C 0.17363 0.46953 0.28733 0.0
C337 C 0.19052 0.46705 0.27054 0.0
C338 C 0.20071 0.44319 0.23843 0.0
C339 C 0.16212 0.46175 0.16861 0.0
C340 C 0.14596 0.44179 0.15181 0.0
C341 C 0.17896 0.4606 0.18738 0.0
C342 C 0.18009 0.43956 0.18949 0.0
C343 C 0.14686 0.4206 0.1542 0.0
C344 C 0.16407 0.41962 0.17264 0.0
C345 C 0.19902 0.43909 0.20795 0.0
H346 H 0.31878 0.48238 0.17433 0.0
H347 H 0.28458 0.47852 0.20422 0.0
H348 H 0.26988 0.40958 0.14477 0.0
H349 H 0.23543 0.40592 0.17434 0.0
H350 H 0.29475 0.42153 0.26955 0.0
H351 H 0.26107 0.41694 0.23859 0.0
H352 H 0.29325 0.47717 0.31679 0.0
H353 H 0.2606 0.47372 0.28476 0.0
H354 H 0.12095 0.41466 0.27526 0.0
H355 H 0.15059 0.41062 0.24492 0.0
H356 H 0.18033 0.48594 0.29933 0.0
H357 H 0.20996 0.48163 0.26968 0.0
H358 H 0.16168 0.47823 0.16725 0.0
H359 H 0.19145 0.47634 0.19985 0.0
H360 H 0.13464 0.40503 0.14135 0.0
H361 H 0.16485 0.40332 0.1738 0.0
N362 N 0.21725 0.43763 0.19439 0.0
N363 N 0.22022 0.44511 0.25327 0.0
C364 C 0.85124 0.2881 0.79474 0.0
C365 C 0.84384 0.30033 0.81304 0.0
C366 C 0.83385 0.26906 0.77776 0.0
C367 C 0.8087 0.2618 0.77884 0.0
C368 C 0.81857 0.29292 0.81389 0.0
C369 C 0.80119 0.2737 0.79726 0.0
C370 C 0.78991 0.24152 0.76143 0.0
C371 C 0.83777 0.30387 0.69655 0.0
C372 C 0.84881 0.29846 0.67376 0.0
C373 C 0.81937 0.28523 0.71514 0.0
C374 C 0.81216 0.26087 0.71183 0.0
C375 C 0.84134 0.2741 0.67009 0.0
C376 C 0.82318 0.25548 0.68899 0.0
C377 C 0.79185 0.24077 0.73044 0.0
C378 C 0.68923 0.15901 0.70077 0.0
C379 C 0.69513 0.14891 0.67772 0.0
C380 C 0.70793 0.17633 0.71829 0.0
C381 C 0.73288 0.1835 0.71359 0.0
C382 C 0.72012 0.15639 0.67269 0.0
C383 C 0.73881 0.17355 0.69043 0.0
C384 C 0.75302 0.20253 0.73133 0.0
C385 C 0.70382 0.14041 0.79618 0.0
C386 C 0.69248 0.14633 0.8181 0.0
C387 C 0.72298 0.15876 0.77796 0.0
C388 C 0.73084 0.18331 0.78104 0.0
C389 C 0.7006 0.17094 0.82132 0.0
C390 C 0.71966 0.18923 0.80307 0.0
C391 C 0.75137 0.2031 0.76241 0.0
H392 H 0.8704 0.29295 0.79387 0.0
H393 H 0.83997 0.25983 0.76403 0.0
H394 H 0.81216 0.30213 0.82716 0.0
H395 H 0.78187 0.26839 0.79838 0.0
H396 H 0.84284 0.32246 0.69941 0.0
H397 H 0.81039 0.28987 0.73159 0.0
H398 H 0.84957 0.26948 0.65263 0.0
H399 H 0.81767 0.23681 0.6857 0.0
H400 H 0.67021 0.15398 0.70476 0.0
H401 H 0.70289 0.18441 0.73516 0.0
H402 H 0.72521 0.14888 0.65513 0.0
H403 H 0.75793 0.17902 0.68609 0.0
H404 H 0.69819 0.12164 0.79349 0.0
H405 H 0.73181 0.15379 0.7617 0.0
H406 H 0.69203 0.17605 0.83777 0.0
H407 H 0.7255 0.20804 0.80596 0.0
N408 N 0.76974 0.22269 0.77615 0.0
N409 N 0.77335 0.22127 0.71665 0.0
C410 C 0.58039 0.71362 0.21804 0.0
C411 C 0.56454 0.70589 0.19383 0.0
C412 C 0.58315 0.7325 0.23487 0.0
C413 C 0.56943 0.7434 0.22837 0.0
C414 C 0.55148 0.71729 0.18675 0.0
C415 C 0.55384 0.73578 0.20389 0.0
C416 C 0.57151 0.76319 0.24605 0.0
C417 C 0.54333 0.69961 0.31257 0.0
C418 C 0.5622 0.70261 0.33151 0.0
C419 C 0.5467 0.7192 0.29458 0.0
C420 C 0.56885 0.74211 0.29554 0.0
C421 C 0.58443 0.7255 0.33232 0.0
C422 C 0.58759 0.74524 0.31473 0.0
C423 C 0.57203 0.76294 0.27727 0.0
C424 C 0.54639 0.83576 0.30638 0.0
C425 C 0.56344 0.84899 0.32839 0.0
C426 C 0.54943 0.81995 0.28946 0.0
C427 C 0.56965 0.81713 0.29402 0.0
C428 C 0.58352 0.84586 0.33314 0.0
C429 C 0.58647 0.82993 0.31625 0.0
C430 C 0.57257 0.80002 0.27651 0.0
C431 C 0.58516 0.86198 0.21545 0.0
C432 C 0.56919 0.85494 0.19138 0.0
C433 C 0.58684 0.84453 0.2327 0.0
C434 C 0.57193 0.81966 0.22671 0.0
C435 C 0.55508 0.83026 0.18469 0.0
C436 C 0.55641 0.8128 0.20221 0.0
C437 C 0.57247 0.80055 0.24525 0.0
H438 H 0.59095 0.70532 0.2236 0.0
H439 H 0.5962 0.73867 0.25269 0.0
H440 H 0.53909 0.71158 0.16822 0.0
H441 H 0.5432 0.74395 0.19816 0.0
H442 H 0.52606 0.68207 0.31163 0.0
H443 H 0.53193 0.71656 0.28012 0.0
H444 H 0.59912 0.7282 0.34695 0.0
H445 H 0.60471 0.76288 0.31586 0.0
H446 H 0.5304 0.83726 0.30258 0.0
H447 H 0.53581 0.80973 0.27296 0.0
H448 H 0.59711 0.85589 0.34972 0.0
H449 H 0.60205 0.82781 0.3203 0.0
H450 H 0.59646 0.88098 0.22075 0.0
H451 H 0.59975 0.85051 0.25069 0.0
H452 H 0.54253 0.82438 0.16631 0.0
H453 H 0.54488 0.79381 0.19691 0.0
N454 N 0.57179 0.78203 0.23136 0.0
N455 N 0.57261 0.78136 0.2913 0.0
C456 C 0.86105 0.5667 0.72511 0.0
C457 C 0.85231 0.5508 0.70173 0.0
C458 C 0.84441 0.56883 0.74299 0.0
C459 C 0.81866 0.55457 0.73829 0.0
C460 C 0.82666 0.53699 0.69661 0.0
C461 C 0.81003 0.53884 0.71472 0.0
C462 C 0.8005 0.55643 0.75678 0.0
C463 C 0.83494 0.52835 0.8205 0.0
C464 C 0.8521 0.5465 0.83878 0.0
C465 C 0.81866 0.53207 0.80373 0.0
C466 C 0.81911 0.55387 0.80523 0.0
C467 C 0.85259 0.56836 0.8402 0.0
C468 C 0.83594 0.57188 0.82384 0.0
C469 C 0.8015 0.55745 0.7879 0.0
C470 C 0.70155 0.53343 0.82552 0.0
C471 C 0.70592 0.55294 0.84245 0.0
C472 C 0.72061 0.53533 0.80791 0.0
C473 C 0.7444 0.55667 0.80727 0.0
C474 C 0.72974 0.57431 0.84177 0.0
C475 C 0.74897 0.57602 0.82459 0.0
C476 C 0.76453 0.55851 0.78886 0.0
C477 C 0.71273 0.56701 0.72884 0.0
C478 C 0.70308 0.55058 0.70591 0.0
C479 C 0.73245 0.56953 0.74559 0.0
C480 C 0.74248 0.55517 0.74033 0.0
C481 C 0.71379 0.53691 0.7001 0.0
C482 C 0.73312 0.5391 0.71715 0.0
C483 C 0.76324 0.5571 0.75777 0.0
H484 H 0.8808 0.5778 0.7292 0.0
H485 H 0.85175 0.58187 0.76017 0.0
H486 H 0.81944 0.52448 0.67882 0.0
H487 H 0.79031 0.52776 0.71044 0.0
H488 H 0.83426 0.51137 0.81905 0.0
H489 H 0.80558 0.51784 0.78975 0.0
H490 H 0.86555 0.58251 0.85436 0.0
H491 H 0.8364 0.58874 0.8254 0.0
H492 H 0.68329 0.51682 0.82568 0.0
H493 H 0.71685 0.52013 0.79488 0.0
H494 H 0.73352 0.5895 0.85483 0.0
H495 H 0.76729 0.59255 0.82445 0.0
H496 H 0.705 0.57786 0.73403 0.0
H497 H 0.73992 0.58286 0.76242 0.0
H498 H 0.70743 0.52461 0.68211 0.0
H499 H 0.74072 0.52807 0.71223 0.0
N500 N 0.78133 0.55616 0.74305 0.0
N501 N 0.78361 0.55866 0.80277 0.0
C502 C 0.169 0.70396 0.21957 0.0
C503 C 0.15613 0.70853 0.19762 0.0
C504 C 0.18583 0.72257 0.23732 0.0
C505 C 0.19006 0.74611 0.23357 0.0
C506 C 0.16027 0.73206 0.19397 0.0
C507 C 0.1773 0.75076 0.21161 0.0
C508 C 0.20907 0.76617 0.2511 0.0
C509 C 0.14676 0.71572 0.31477 0.0
C510 C 0.15329 0.70408 0.33649 0.0
C511 C 0.16512 0.73526 0.29705 0.0
C512 C 0.19034 0.74341 0.30057 0.0
C513 C 0.17859 0.7125 0.34014 0.0
C514 C 0.19691 0.73206 0.32249 0.0
C515 C 0.21007 0.76418 0.2822 0.0
C516 C 0.29963 0.86232 0.31099 0.0
C517 C 0.30986 0.85439 0.33287 0.0
C518 C 0.2799 0.84546 0.29413 0.0
C519 C 0.27026 0.82036 0.2985 0.0
C520 C 0.29997 0.82926 0.33742 0.0
C521 C 0.28034 0.81244 0.32049 0.0
C522 C 0.24909 0.80209 0.28123 0.0
C523 C 0.31104 0.84347 0.21272 0.0
C524 C 0.30739 0.85913 0.19418 0.0
C525 C 0.29182 0.826 0.23154 0.0
C526 C 0.26858 0.82377 0.23178 0.0
C527 C 0.28428 0.85718 0.19479 0.0
C528 C 0.26487 0.83935 0.2132 0.0
C529 C 0.24784 0.80428 0.25021 0.0
H530 H 0.1661 0.68598 0.22297 0.0
H531 H 0.19591 0.71866 0.2536 0.0
H532 H 0.1508 0.73614 0.177 0.0
H533 H 0.18055 0.76887 0.20808 0.0
H534 H 0.12747 0.70993 0.31175 0.0
H535 H 0.15963 0.74416 0.28081 0.0
H536 H 0.18424 0.70375 0.35637 0.0
H537 H 0.21625 0.7381 0.32566 0.0
H538 H 0.30654 0.88153 0.30733 0.0
H539 H 0.27194 0.85206 0.27804 0.0
H540 H 0.30759 0.82258 0.35389 0.0
H541 H 0.27315 0.79318 0.3244 0.0
H542 H 0.32875 0.8447 0.21253 0.0
H543 H 0.2949 0.8139 0.24547 0.0
H544 H 0.28107 0.86899 0.18045 0.0
H545 H 0.24697 0.83772 0.21298 0.0
N546 N 0.2279 0.78628 0.2363 0.0
N547 N 0.23013 0.7821 0.29602 0.0
C548 C 0.41921 0.14206 0.78558 0.0
C549 C 0.43529 0.14887 0.80956 0.0
C550 C 0.41795 0.15972 0.76825 0.0
C551 C 0.43325 0.18456 0.77415 0.0
C552 C 0.44999 0.1736 0.81596 0.0
C553 C 0.44897 0.19124 0.79845 0.0
C554 C 0.43281 0.20378 0.75577 0.0
C555 C 0.45971 0.16945 0.69453 0.0
C556 C 0.44307 0.15655 0.67208 0.0
C557 C 0.45622 0.18484 0.71169 0.0
C558 C 0.43592 0.18751 0.70691 0.0
C559 C 0.42284 0.15937 0.66719 0.0
C560 C 0.41943 0.17491 0.6843 0.0
C561 C 0.43268 0.20439 0.72451 0.0
C562 C 0.46037 0.30448 0.68873 0.0
C563 C 0.44116 0.30119 0.67022 0.0
C564 C 0.45752 0.28502 0.70656 0.0
C565 C 0.43554 0.26195 0.70585 0.0
C566 C 0.41911 0.27812 0.66965 0.0
C567 C 0.41646 0.25853 0.68706 0.0
C568 C 0.43283 0.24126 0.72401 0.0
C569 C 0.42435 0.29023 0.78383 0.0
C570 C 0.44036 0.29802 0.80788 0.0
C571 C 0.42164 0.27144 0.76685 0.0
C572 C 0.43556 0.26071 0.77303 0.0
C573 C 0.45363 0.2868 0.81466 0.0
C574 C 0.45132 0.2684 0.79737 0.0
C575 C 0.43352 0.241 0.75523 0.0
H576 H 0.40743 0.12306 0.78046 0.0
H577 H 0.40497 0.15392 0.75034 0.0
H578 H 0.46268 0.17936 0.83419 0.0
H579 H 0.46084 0.21023 0.80362 0.0
H580 H 0.47539 0.16754 0.69892 0.0
H581 H 0.46951 0.19482 0.72858 0.0
H582 H 0.4099 0.14988 0.64981 0.0
H583 H 0.40386 0.177 0.68 0.0
H584 H 0.47751 0.32215 0.68948 0.0
H585 H 0.47254 0.28789 0.72072 0.0
H586 H 0.40416 0.2752 0.65534 0.0
H587 H 0.39946 0.24077 0.68613 0.0
H588 H 0.41364 0.2984 0.7785 0.0
H589 H 0.40845 0.2652 0.74917 0.0
H590 H 0.46615 0.29256 0.83307 0.0
H591 H 0.46212 0.26036 0.80286 0.0
N592 N 0.43342 0.2222 0.76979 0.0
N593 N 0.43241 0.22297 0.70985 0.0
C594 C 0.05237 0.44931 0.03733 0.0
C595 C 0.04554 0.46446 0.04957 0.0
C596 C 0.06824 0.44375 0.05244 0.0
C597 C 0.07707 0.45332 0.08054 0.0
C598 C 0.06976 0.46827 0.09312 0.0
C599 C 0.05439 0.47394 0.07728 0.0
C600 C 0.07608 0.4282 0.03807 0.0
C601 C 0.0785 0.47863 0.12314 0.0
C602 C 0.10286 0.42586 0.134 0.0
C603 C 0.12842 0.44338 0.13171 0.0
C604 C 0.08589 0.42841 0.11678 0.0
C605 C 0.09481 0.44873 0.09646 0.0
C606 C 0.12074 0.46586 0.09316 0.0
C607 C 0.13721 0.4631 0.11106 0.0
C608 C 0.05837 0.41002 0.1213 0.0
C609 C 0.13104 0.48754 0.07141 0.0
H610 H 0.04569 0.44228 0.01572 0.0
H611 H 0.04938 0.48599 0.08646 0.0
H612 H 0.09656 0.43889 0.03425 0.0
H613 H 0.07148 0.41223 0.05293 0.0
H614 H 0.06699 0.42157 0.01657 0.0
H615 H 0.0698 0.48861 0.13055 0.0
H616 H 0.07408 0.46378 0.13986 0.0
H617 H 0.099 0.49136 0.12242 0.0
H618 H 0.09609 0.41068 0.1501 0.0
H619 H 0.15703 0.4765 0.10911 0.0
H620 H 0.04963 0.40291 0.09981 0.0
H621 H 0.04929 0.41901 0.13072 0.0
H622 H 0.05455 0.39442 0.13645 0.0
H623 H 0.12328 0.48154 0.04922 0.0
H624 H 0.15168 0.49778 0.06947 0.0
H625 H 0.12544 0.50014 0.07858 0.0
C626 C 0.57922 0.0714 0.57503 0.0
C627 C 0.57762 0.05039 0.56539 0.0
C628 C 0.59844 0.08718 0.59342 0.0
C629 C 0.61633 0.08165 0.60249 0.0
C630 C 0.61466 0.06032 0.59286 0.0
C631 C 0.59538 0.04501 0.57419 0.0
C632 C 0.59968 0.10983 0.60297 0.0
C633 C 0.63326 0.05372 0.60221 0.0
C634 C 0.67865 0.13377 0.62765 0.0
C635 C 0.67529 0.13113 0.65851 0.0
C636 C 0.65969 0.11768 0.60916 0.0
C637 C 0.6369 0.09835 0.62185 0.0
C638 C 0.63356 0.09533 0.65301 0.0
C639 C 0.65275 0.11183 0.67096 0.0
C640 C 0.66386 0.12164 0.57603 0.0
C641 C 0.60964 0.07479 0.66738 0.0
H642 H 0.56544 0.07549 0.56799 0.0
H643 H 0.59412 0.0288 0.56642 0.0
H644 H 0.59868 0.10963 0.62746 0.0
H645 H 0.61773 0.12626 0.59558 0.0
H646 H 0.58438 0.11151 0.59387 0.0
H647 H 0.62901 0.03621 0.59333 0.0
H648 H 0.65223 0.06832 0.59444 0.0
H649 H 0.63351 0.05223 0.62671 0.0
H650 H 0.69592 0.14882 0.61792 0.0
H651 H 0.65019 0.10958 0.69482 0.0
H652 H 0.64997 0.1251 0.56611 0.0
H653 H 0.66119 0.10501 0.56631 0.0
H654 H 0.6828 0.13727 0.56969 0.0
H655 H 0.59388 0.07662 0.66061 0.0
H656 H 0.61032 0.07447 0.69191 0.0
H657 H 0.60567 0.05702 0.65983 0.0
C658 C 0.51563 0.5929 0.09299 0.0
C659 C 0.53349 0.58742 0.08568 0.0
C660 C 0.52131 0.61181 0.11172 0.0
C661 C 0.54562 0.62588 0.12287 0.0
C662 C 0.56372 0.62034 0.11562 0.0
C663 C 0.55734 0.60096 0.09732 0.0
C664 C 0.50136 0.61684 0.11939 0.0
C665 C 0.58994 0.63522 0.12662 0.0
C666 C 0.56448 0.68917 0.14512 0.0
C667 C 0.56139 0.68588 0.17594 0.0
C668 C 0.56023 0.66999 0.12766 0.0
C669 C 0.55218 0.64685 0.14137 0.0
C670 C 0.54937 0.64353 0.17257 0.0
C671 C 0.55426 0.66321 0.18954 0.0
C672 C 0.56391 0.67439 0.09451 0.0
C673 C 0.5404 0.61903 0.18793 0.0
H674 H 0.49711 0.58222 0.08419 0.0
H675 H 0.57117 0.59677 0.09147 0.0
H676 H 0.49912 0.6164 0.14377 0.0
H677 H 0.5069 0.63535 0.11072 0.0
H678 H 0.48307 0.60341 0.11014 0.0
H679 H 0.60168 0.62829 0.11937 0.0
H680 H 0.59872 0.65448 0.11833 0.0
H681 H 0.58969 0.63512 0.15113 0.0
H682 H 0.5702 0.7068 0.13468 0.0
H683 H 0.55169 0.66066 0.21339 0.0
H684 H 0.54582 0.66317 0.08362 0.0
H685 H 0.57649 0.66872 0.0864 0.0
H686 H 0.57186 0.69383 0.08754 0.0
H687 H 0.52134 0.60552 0.18074 0.0
H688 H 0.54003 0.6197 0.21241 0.0
H689 H 0.55255 0.61234 0.18168 0.0
C690 C 0.91905 0.50562 0.59876 0.0
C691 C 0.94263 0.52408 0.58786 0.0
C692 C 0.90544 0.51076 0.61824 0.0
C693 C 0.91556 0.53501 0.62668 0.0
C694 C 0.93947 0.5537 0.61591 0.0
C695 C 0.95282 0.54797 0.59675 0.0
C696 C 0.88014 0.49027 0.62958 0.0
C697 C 0.9507 0.57981 0.62412 0.0
C698 C 0.86824 0.54976 0.65176 0.0
C699 C 0.86974 0.54844 0.6826 0.0
C700 C 0.88364 0.54619 0.63328 0.0
C701 C 0.90066 0.54082 0.64601 0.0
C702 C 0.90258 0.53992 0.67716 0.0
C703 C 0.88719 0.54392 0.69511 0.0
C704 C 0.88132 0.54769 0.60016 0.0
C705 C 0.92031 0.53396 0.69152 0.0
H706 H 0.9113 0.48709 0.59216 0.0
H707 H 0.97099 0.56228 0.58813 0.0
H708 H 0.87947 0.48939 0.65412 0.0
H709 H 0.86564 0.49374 0.62199 0.0
H710 H 0.87544 0.47227 0.62191 0.0
H711 H 0.96975 0.59208 0.61446 0.0
H712 H 0.93875 0.58654 0.61624 0.0
H713 H 0.95155 0.58097 0.64851 0.0
H714 H 0.85493 0.55353 0.6421 0.0
H715 H 0.8882 0.54274 0.71898 0.0
H716 H 0.87454 0.52961 0.59109 0.0
H717 H 0.89981 0.56074 0.58962 0.0
H718 H 0.86829 0.55353 0.5938 0.0
H719 H 0.91503 0.51527 0.6862 0.0
H720 H 0.92033 0.53503 0.71596 0.0
H721 H 0.93952 0.54666 0.68265 0.0
C722 C 0.42994 0.9506 0.09813 0.0
C723 C 0.42432 0.95682 0.07057 0.0
C724 C 0.41108 0.93625 0.11937 0.0
C725 C 0.38601 0.92756 0.1125 0.0
C726 C 0.38035 0.93436 0.08489 0.0
C727 C 0.3997 0.94926 0.06438 0.0
C728 C 0.4179 0.92986 0.14881 0.0
C729 C 0.35383 0.92512 0.07657 0.0
C730 C 0.33713 0.86846 0.1525 0.0
C731 C 0.32738 0.87677 0.17332 0.0
C732 C 0.35596 0.88481 0.13227 0.0
C733 C 0.36562 0.91011 0.13343 0.0
C734 C 0.35595 0.91861 0.15464 0.0
C735 C 0.33665 0.90174 0.17415 0.0
C736 C 0.36543 0.87501 0.10959 0.0
C737 C 0.3662 0.94548 0.15695 0.0
H738 H 0.44911 0.95668 0.10284 0.0
H739 H 0.39555 0.95441 0.04309 0.0
H740 H 0.40935 0.93401 0.16716 0.0
H741 H 0.4105 0.91002 0.15071 0.0
H742 H 0.43836 0.93992 0.15168 0.0
H743 H 0.3527 0.93288 0.05472 0.0
H744 H 0.34327 0.90495 0.07577 0.0
H745 H 0.34454 0.92967 0.09353 0.0
H746 H 0.32972 0.84908 0.15181 0.0
H747 H 0.3291 0.90806 0.19044 0.0
H748 H 0.3855 0.88235 0.11277 0.0
H749 H 0.36355 0.88107 0.08699 0.0
H750 H 0.35526 0.85477 0.11095 0.0
H751 H 0.38642 0.95526 0.16124 0.0
H752 H 0.35681 0.94909 0.17489 0.0
H753 H 0.364 0.95324 0.13573 0.0
C754 C 0.47614 0.42637 0.5867 0.0
C755 C 0.46537 0.42277 0.55891 0.0
C756 C 0.47094 0.40647 0.60566 0.0
C757 C 0.45498 0.38248 0.59624 0.0
C758 C 0.44369 0.37879 0.56834 0.0
C759 C 0.44875 0.39905 0.55016 0.0
C760 C 0.48289 0.41114 0.63551 0.0
C761 C 0.42692 0.35351 0.55732 0.0
C762 C 0.46457 0.33392 0.631 0.0
C763 C 0.44438 0.32173 0.6511 0.0
C764 C 0.46797 0.35346 0.61263 0.0
C765 C 0.45107 0.3613 0.615 0.0
C766 C 0.43071 0.34911 0.63545 0.0
C767 C 0.42743 0.32922 0.65306 0.0
C768 C 0.4896 0.36568 0.59066 0.0
C769 C 0.41265 0.3573 0.63905 0.0
H770 H 0.48886 0.44482 0.59341 0.0
H771 H 0.44025 0.39643 0.52873 0.0
H772 H 0.4685 0.40071 0.6532 0.0
H773 H 0.49599 0.40475 0.63635 0.0
H774 H 0.49328 0.43078 0.64036 0.0
H775 H 0.41917 0.35378 0.5354 0.0
H776 H 0.4375 0.34442 0.55546 0.0
H777 H 0.41127 0.34226 0.57333 0.0
H778 H 0.47753 0.32792 0.62942 0.0
H779 H 0.41192 0.3198 0.66881 0.0
H780 H 0.50229 0.38509 0.59576 0.0
H781 H 0.48276 0.36537 0.56801 0.0
H782 H 0.50044 0.35673 0.59079 0.0
H783 H 0.4228 0.37658 0.64539 0.0
H784 H 0.3979 0.34596 0.65611 0.0
H785 H 0.40366 0.35647 0.61773 0.0
C786 C 0.55945 0.95017 0.42088 0.0
C787 C 0.53576 0.94027 0.43397 0.0
C788 C 0.56501 0.93591 0.40397 0.0
C789 C 0.54634 0.91124 0.39981 0.0
C790 C 0.5224 0.90115 0.41301 0.0
C791 C 0.51744 0.91576 0.43003 0.0
C792 C 0.59082 0.94723 0.39051 0.0
C793 C 0.50191 0.875 0.40881 0.0
C794 C 0.55186 0.88017 0.33353 0.0
C795 C 0.55998 0.86564 0.34656 0.0
C796 C 0.54754 0.89523 0.35056 0.0
C797 C 0.55169 0.89601 0.38134 0.0
C798 C 0.56034 0.88178 0.39456 0.0
C799 C 0.56428 0.8667 0.37704 0.0
C800 C 0.53825 0.91008 0.33565 0.0
C801 C 0.56509 0.88222 0.42729 0.0
H802 H 0.57372 0.96906 0.4241 0.0
H803 H 0.499 0.90813 0.43978 0.0
H804 H 0.59916 0.9367 0.39816 0.0
H805 H 0.58983 0.94652 0.36607 0.0
H806 H 0.60336 0.96652 0.39631 0.0
H807 H 0.48438 0.8699 0.42074 0.0
H808 H 0.49805 0.87209 0.38493 0.0
H809 H 0.50788 0.86252 0.41681 0.0
H810 H 0.5489 0.87981 0.30992 0.0
H811 H 0.57024 0.85532 0.38739 0.0
H812 H 0.55127 0.92973 0.33935 0.0
H813 H 0.51993 0.90476 0.3455 0.0
H814 H 0.53621 0.90762 0.31145 0.0
H815 H 0.57826 0.90122 0.43361 0.0
H816 H 0.57285 0.87093 0.43392 0.0
H817 H 0.54747 0.87533 0.44002 0.0
C818 C 0.57943 0.52252 0.91976 0.0
C819 C 0.58307 0.53325 0.94701 0.0
C820 C 0.59976 0.5271 0.90209 0.0
C821 C 0.62423 0.5424 0.91228 0.0
C822 C 0.62796 0.55363 0.93961 0.0
C823 C 0.60728 0.54918 0.95648 0.0
C824 C 0.59503 0.51521 0.8728 0.0
C825 C 0.65373 0.56973 0.95144 0.0
C826 C 0.67289 0.53135 0.88185 0.0
C827 C 0.68562 0.55083 0.86094 0.0
C828 C 0.65323 0.52873 0.89919 0.0
C829 C 0.6458 0.54571 0.89496 0.0
C830 C 0.65863 0.56544 0.87382 0.0
C831 C 0.67863 0.56792 0.85726 0.0
C832 C 0.64035 0.50774 0.92193 0.0
C833 C 0.6509 0.58359 0.86826 0.0
H834 H 0.56062 0.51033 0.91247 0.0
H835 H 0.60994 0.55764 0.97747 0.0
H836 H 0.60597 0.52915 0.85486 0.0
H837 H 0.60122 0.5021 0.8735 0.0
H838 H 0.57503 0.50528 0.86714 0.0
H839 H 0.65345 0.57754 0.97272 0.0
H840 H 0.66261 0.55903 0.9549 0.0
H841 H 0.66556 0.58491 0.93516 0.0
H842 H 0.67849 0.51826 0.88478 0.0
H843 H 0.68842 0.58287 0.84087 0.0
H844 H 0.62055 0.49549 0.91623 0.0
H845 H 0.64062 0.51469 0.94402 0.0
H846 H 0.64919 0.49687 0.92345 0.0
H847 H 0.63136 0.574 0.8609 0.0
H848 H 0.66293 0.59799 0.85119 0.0
H849 H 0.65162 0.59242 0.88902 0.0
C850 C 0.04516 0.59702 0.4423 0.0
C851 C 0.04856 0.5774 0.4436 0.0
C852 C 0.06094 0.61806 0.42449 0.0
C853 C 0.08065 0.61942 0.408 0.0
C854 C 0.08397 0.59946 0.40923 0.0
C855 C 0.0678 0.57863 0.42702 0.0
C856 C 0.05676 0.63892 0.42358 0.0
C857 C 0.10485 0.60028 0.39214 0.0
C858 C 0.11185 0.66482 0.3427 0.0
C859 C 0.13387 0.6831 0.35518 0.0
C860 C 0.09398 0.64429 0.35984 0.0
C861 C 0.09832 0.64193 0.39011 0.0
C862 C 0.12022 0.66057 0.403 0.0
C863 C 0.13768 0.68097 0.38541 0.0
C864 C 0.07077 0.62481 0.34539 0.0
C865 C 0.12549 0.6587 0.43523 0.0
H866 H 0.03025 0.59591 0.45539 0.0
H867 H 0.07029 0.56332 0.42827 0.0
H868 H 0.0732 0.65535 0.43231 0.0
H869 H 0.0546 0.64362 0.4004 0.0
H870 H 0.04001 0.63456 0.43677 0.0
H871 H 0.10454 0.58302 0.39509 0.0
H872 H 0.10358 0.60382 0.36822 0.0
H873 H 0.12304 0.61547 0.39949 0.0
H874 H 0.10888 0.66622 0.31931 0.0
H875 H 0.15443 0.69524 0.39533 0.0
H876 H 0.05397 0.62085 0.35809 0.0
H877 H 0.07069 0.60765 0.34548 0.0
H878 H 0.06939 0.63016 0.32218 0.0
H879 H 0.10988 0.65602 0.44937 0.0
H880 H 0.14296 0.67518 0.4421 0.0
H881 H 0.12705 0.64259 0.43944 0.0
C882 C 0.44018 0.04594 0.90973 0.0
C883 C 0.46498 0.0558 0.9177 0.0
C884 C 0.43347 0.0594 0.89132 0.0
C885 C 0.45208 0.08307 0.88039 0.0
C886 C 0.47725 0.09281 0.88777 0.0
C887 C 0.48336 0.0791 0.90649 0.0
C888 C 0.40643 0.04855 0.88417 0.0
C889 C 0.49768 0.11786 0.87624 0.0
C890 C 0.44095 0.11355 0.81404 0.0
C891 C 0.43725 0.13044 0.82765 0.0
C892 C 0.44511 0.09747 0.83097 0.0
C893 C 0.44531 0.0982 0.8622 0.0
C894 C 0.44058 0.11457 0.87606 0.0
C895 C 0.43675 0.1306 0.85859 0.0
C896 C 0.45031 0.08042 0.81541 0.0
C897 C 0.44032 0.11568 0.90931 0.0
H898 H 0.42595 0.02796 0.91855 0.0
H899 H 0.50259 0.08657 0.91234 0.0
H900 H 0.39981 0.05984 0.8932 0.0
H901 H 0.40419 0.04862 0.85986 0.0
H902 H 0.39438 0.02955 0.89346 0.0
H903 H 0.51643 0.12224 0.8829 0.0
H904 H 0.49739 0.11918 0.85174 0.0
H905 H 0.49456 0.13185 0.88472 0.0
H906 H 0.44153 0.11355 0.79009 0.0
H907 H 0.43359 0.14347 0.86912 0.0
H908 H 0.43785 0.06142 0.8244 0.0
H909 H 0.46972 0.08553 0.81945 0.0
H910 H 0.44781 0.08092 0.79115 0.0
H911 H 0.42746 0.09722 0.91963 0.0
H912 H 0.43454 0.12813 0.91664 0.0
H913 H 0.45917 0.12211 0.91769 0.0
C914 C 0.41018 0.49271 0.40195 0.0
C915 C 0.41419 0.47424 0.41127 0.0
C916 C 0.39144 0.48815 0.38197 0.0
C917 C 0.37602 0.46439 0.37161 0.0
C918 C 0.3801 0.44568 0.38087 0.0
C919 C 0.39937 0.45092 0.40038 0.0
C920 C 0.38802 0.50871 0.37216 0.0
C921 C 0.36373 0.42003 0.37075 0.0
C922 C 0.31284 0.4496 0.34548 0.0
C923 C 0.31644 0.45212 0.31471 0.0
C924 C 0.33182 0.45271 0.36423 0.0
C925 C 0.35513 0.45906 0.35186 0.0
C926 C 0.35876 0.46138 0.32073 0.0
C927 C 0.33922 0.45761 0.30248 0.0
C928 C 0.32706 0.44957 0.39728 0.0
C929 C 0.38349 0.4686 0.30674 0.0
H930 H 0.42186 0.51081 0.4102 0.0
H931 H 0.40245 0.43663 0.40778 0.0
H932 H 0.38869 0.51069 0.34765 0.0
H933 H 0.36947 0.50452 0.37975 0.0
H934 H 0.40247 0.52641 0.38097 0.0
H935 H 0.36968 0.4077 0.37952 0.0
H936 H 0.3442 0.41251 0.37816 0.0
H937 H 0.36396 0.42008 0.34624 0.0
H938 H 0.29509 0.44514 0.35485 0.0
H939 H 0.34198 0.45969 0.27864 0.0
H940 H 0.3393 0.46722 0.40763 0.0
H941 H 0.33161 0.43643 0.40692 0.0
H942 H 0.30741 0.44297 0.40324 0.0
H943 H 0.39807 0.48701 0.31357 0.0
H944 H 0.38301 0.46887 0.2822 0.0
H945 H 0.38907 0.45578 0.31453 0.0
C946 C 0.93101 0.42205 0.89876 0.0
C947 C 0.94474 0.4188 0.92057 0.0
C948 C 0.91552 0.40309 0.88031 0.0
C949 C 0.91414 0.38056 0.88355 0.0
C950 C 0.92869 0.37756 0.90502 0.0
C951 C 0.94364 0.39668 0.92355 0.0
C952 C 0.90001 0.40689 0.85808 0.0
C953 C 0.92808 0.35401 0.90882 0.0
C954 C 0.8553 0.32352 0.85959 0.0
C955 C 0.86221 0.32061 0.83132 0.0
C956 C 0.87198 0.34298 0.87668 0.0
C957 C 0.89645 0.35972 0.86562 0.0
C958 C 0.90381 0.35665 0.83745 0.0
C959 C 0.88656 0.33729 0.82053 0.0
C960 C 0.86331 0.34572 0.90651 0.0
C961 C 0.92985 0.37393 0.8251 0.0
H962 H 0.93185 0.4392 0.89677 0.0
H963 H 0.95434 0.39433 0.94054 0.0
H964 H 0.90359 0.40307 0.83559 0.0
H965 H 0.87996 0.39393 0.8635 0.0
H966 H 0.90387 0.42575 0.85766 0.0
H967 H 0.94186 0.35526 0.92496 0.0
H968 H 0.90926 0.33907 0.9166 0.0
H969 H 0.93191 0.34893 0.88727 0.0
H970 H 0.83679 0.3105 0.86852 0.0
H971 H 0.89208 0.33549 0.79862 0.0
H972 H 0.86547 0.36384 0.90716 0.0
H973 H 0.87497 0.3448 0.92413 0.0
H974 H 0.84354 0.33141 0.91167 0.0
H975 H 0.93341 0.3926 0.82222 0.0
H976 H 0.93299 0.36841 0.80344 0.0
H977 H 0.94367 0.37478 0.84086 0.0
C978 C 0.94245 0.51181 0.91936 0.0
C979 C 0.9489 0.52205 0.94704 0.0
C980 C 0.92732 0.51601 0.90062 0.0
C981 C 0.91833 0.53058 0.91005 0.0
C982 C 0.92515 0.54122 0.93791 0.0
C983 C 0.94074 0.53716 0.95585 0.0
C984 C 0.92094 0.50484 0.8708 0.0
C985 C 0.91573 0.55661 0.94894 0.0
C986 C 0.89489 0.55903 0.85457 0.0
C987 C 0.86913 0.54238 0.8567 0.0
C988 C 0.91122 0.55513 0.8713 0.0
C989 C 0.90143 0.53441 0.8911 0.0
C990 C 0.87537 0.51763 0.89342 0.0
C991 C 0.85955 0.52169 0.87592 0.0
C992 C 0.93891 0.57315 0.86777 0.0
C993 C 0.86419 0.49562 0.91473 0.0
H994 H 0.94925 0.50052 0.91245 0.0
H995 H 0.94642 0.54563 0.97695 0.0
H996 H 0.90051 0.49211 0.86952 0.0
H997 H 0.92662 0.5193 0.85306 0.0
H998 H 0.93015 0.4947 0.86638 0.0
H999 H 0.92247 0.56321 0.97134 0.0
H1000 H 0.92181 0.57262 0.93349 0.0
H1001 H 0.89508 0.54587 0.94973 0.0
H1002 H 0.90226 0.57491 0.83947 0.0
H1003 H 0.83958 0.50893 0.87766 0.0
H1004 H 0.94838 0.56355 0.86186 0.0
H1005 H 0.94656 0.5818 0.88903 0.0
H1006 H 0.94355 0.58771 0.85048 0.0
H1007 H 0.87157 0.484 0.90963 0.0
H1008 H 0.84355 0.4844 0.91394 0.0
H1009 H 0.86955 0.50155 0.93764 0.0
C1010 C 0.43113 0.9355 0.42697 0.0
C1011 C 0.43067 0.95428 0.44047 0.0
C1012 C 0.41179 0.91973 0.40872 0.0
C1013 C 0.39154 0.92283 0.40408 0.0
C1014 C 0.3912 0.942 0.41757 0.0
C1015 C 0.41085 0.95754 0.43568 0.0
C1016 C 0.41286 0.89956 0.39472 0.0
C1017 C 0.36993 0.94584 0.41324 0.0
C1018 C 0.35078 0.89371 0.338 0.0
C1019 C 0.33061 0.87221 0.35112 0.0
C1020 C 0.37069 0.91044 0.35497 0.0
C1021 C 0.37038 0.90557 0.38581 0.0
C1022 C 0.34998 0.88401 0.39922 0.0
C1023 C 0.33036 0.8676 0.38172 0.0
C1024 C 0.39219 0.93318 0.33988 0.0
C1025 C 0.3489 0.87825 0.43207 0.0
H1026 H 0.44657 0.93312 0.43093 0.0
H1027 H 0.41065 0.9721 0.44637 0.0
H1028 H 0.39678 0.88158 0.40273 0.0
H1029 H 0.4115 0.90089 0.37035 0.0
H1030 H 0.43028 0.90013 0.39979 0.0
H1031 H 0.37282 0.96197 0.42466 0.0
H1032 H 0.3676 0.94833 0.38932 0.0
H1033 H 0.35232 0.92948 0.42183 0.0
H1034 H 0.3512 0.89725 0.31432 0.0
H1035 H 0.31466 0.85119 0.39206 0.0
H1036 H 0.40965 0.9334 0.34291 0.0
H1037 H 0.39476 0.94961 0.3501 0.0
H1038 H 0.38939 0.9345 0.31581 0.0
H1039 H 0.3651 0.87698 0.43829 0.0
H1040 H 0.33158 0.86084 0.43911 0.0
H1041 H 0.35002 0.89316 0.44453 0.0
C1042 C 0.48955 0.41068 0.90924 0.0
C1043 C 0.47174 0.41618 0.91676 0.0
C1044 C 0.48375 0.39178 0.89045 0.0
C1045 C 0.4594 0.37774 0.87944 0.0
C1046 C 0.44134 0.38328 0.88692 0.0
C1047 C 0.44782 0.40265 0.90529 0.0
C1048 C 0.50366 0.38675 0.88253 0.0
C1049 C 0.41506 0.36842 0.87608 0.0
C1050 C 0.45052 0.34063 0.81248 0.0
C1051 C 0.44348 0.31794 0.82592 0.0
C1052 C 0.45544 0.36024 0.82959 0.0
C1053 C 0.45274 0.35683 0.8608 0.0
C1054 C 0.44475 0.33365 0.87436 0.0
C1055 C 0.44048 0.31454 0.85675 0.0
C1056 C 0.46435 0.38479 0.81438 0.0
C1057 C 0.44118 0.32915 0.9075 0.0
H1058 H 0.50812 0.42134 0.91792 0.0
H1059 H 0.43403 0.40686 0.9113 0.0
H1060 H 0.49812 0.3682 0.89107 0.0
H1061 H 0.50581 0.38726 0.85813 0.0
H1062 H 0.52198 0.40012 0.89174 0.0
H1063 H 0.40335 0.37532 0.88356 0.0
H1064 H 0.4152 0.36862 0.85156 0.0
H1065 H 0.40632 0.34914 0.88425 0.0
H1066 H 0.45302 0.34325 0.78862 0.0
H1067 H 0.43482 0.29689 0.86707 0.0
H1068 H 0.48343 0.39827 0.8215 0.0
H1069 H 0.45222 0.39145 0.82085 0.0
H1070 H 0.46461 0.38418 0.7899 0.0
H1071 H 0.45931 0.34031 0.91833 0.0
H1072 H 0.43323 0.30969 0.91436 0.0
H1073 H 0.42864 0.33481 0.9158 0.0
C1074 C 0.08444 0.48256 0.41429 0.0
C1075 C 0.05873 0.47214 0.41125 0.0
C1076 C 0.09822 0.47798 0.39435 0.0
C1077 C 0.0862 0.46315 0.37025 0.0
C1078 C 0.06033 0.45263 0.36688 0.0
C1079 C 0.04686 0.45698 0.38761 0.0
C1080 C 0.12573 0.48921 0.39896 0.0
C1081 C 0.04694 0.43703 0.34117 0.0
C1082 C 0.12833 0.47281 0.30476 0.0
C1083 C 0.13108 0.45284 0.30873 0.0
C1084 C 0.11308 0.47593 0.32408 0.0
C1085 C 0.10085 0.45901 0.34833 0.0
C1086 C 0.10341 0.43866 0.35222 0.0
C1087 C 0.11831 0.43568 0.33212 0.0
C1088 C 0.11035 0.49754 0.3188 0.0
C1089 C 0.09111 0.42053 0.37816 0.0
H1090 H 0.09399 0.49467 0.43203 0.0
H1091 H 0.02696 0.44839 0.38527 0.0
H1092 H 0.13021 0.47482 0.39972 0.0
H1093 H 0.13655 0.50212 0.38011 0.0
H1094 H 0.13198 0.49917 0.41972 0.0
H1095 H 0.02683 0.43051 0.34145 0.0
H1096 H 0.05553 0.44757 0.32001 0.0
H1097 H 0.04881 0.42096 0.34157 0.0
H1098 H 0.13819 0.48599 0.28653 0.0
H1099 H 0.1207 0.42038 0.33527 0.0
H1100 H 0.11844 0.50993 0.33735 0.0
H1101 H 0.09035 0.49133 0.31804 0.0
H1102 H 0.11973 0.50805 0.29784 0.0
H1103 H 0.09839 0.42991 0.39912 0.0
H1104 H 0.09441 0.40535 0.37754 0.0
H1105 H 0.07076 0.41274 0.37853 0.0
C1106 C 0.57127 0.06201 0.91778 0.0
C1107 C 0.57147 0.04326 0.93389 0.0
C1108 C 0.59073 0.0775 0.89774 0.0
C1109 C 0.61081 0.07408 0.89394 0.0
C1110 C 0.61072 0.05472 0.90977 0.0
C1111 C 0.59098 0.03951 0.9297 0.0
C1112 C 0.59015 0.09793 0.8813 0.0
C1113 C 0.63179 0.05053 0.90627 0.0
C1114 C 0.65282 0.1056 0.82603 0.0
C1115 C 0.67225 0.12703 0.8377 0.0
C1116 C 0.63292 0.08786 0.8442 0.0
C1117 C 0.63252 0.0917 0.8747 0.0
C1118 C 0.65241 0.113 0.88673 0.0
C1119 C 0.67203 0.13039 0.86808 0.0
C1120 C 0.61201 0.06536 0.83063 0.0
C1121 C 0.6527 0.11767 0.9192 0.0
H1122 H 0.55605 0.06477 0.92131 0.0
H1123 H 0.59097 0.02497 0.94245 0.0
H1124 H 0.60596 0.11577 0.88806 0.0
H1125 H 0.59234 0.09708 0.85715 0.0
H1126 H 0.57256 0.09726 0.88561 0.0
H1127 H 0.62811 0.03376 0.91873 0.0
H1128 H 0.63497 0.04903 0.88257 0.0
H1129 H 0.64923 0.06634 0.91431 0.0
H1130 H 0.65283 0.10301 0.80252 0.0
H1131 H 0.68723 0.14674 0.87729 0.0
H1132 H 0.5945 0.06521 0.83245 0.0
H1133 H 0.60886 0.04871 0.84283 0.0
H1134 H 0.61584 0.06443 0.80693 0.0
H1135 H 0.63654 0.11909 0.92497 0.0
H1136 H 0.67001 0.1347 0.92524 0.0
H1137 H 0.65092 0.10218 0.93284 0.0
C1138 C 0.55128 0.6036 0.45226 0.0
C1139 C 0.53456 0.58 0.44322 0.0
C1140 C 0.55685 0.62404 0.43411 0.0
C1141 C 0.54597 0.62065 0.40598 0.0
C1142 C 0.52985 0.59676 0.39633 0.0
C1143 C 0.52413 0.57668 0.41525 0.0
C1144 C 0.57378 0.64921 0.44536 0.0
C1145 C 0.51831 0.5924 0.36625 0.0
C1146 C 0.53794 0.67 0.37057 0.0
C1147 C 0.5584 0.68194 0.35082 0.0
C1148 C 0.53396 0.65029 0.38905 0.0
C1149 C 0.55054 0.64203 0.38717 0.0
C1150 C 0.57118 0.65398 0.36709 0.0
C1151 C 0.57504 0.67404 0.34935 0.0
C1152 C 0.51203 0.63833 0.41061 0.0
C1153 C 0.58891 0.64534 0.36401 0.0
H1154 H 0.5595 0.60599 0.47384 0.0
H1155 H 0.51133 0.55832 0.40833 0.0
H1156 H 0.58974 0.66031 0.42969 0.0
H1157 H 0.56349 0.65862 0.44684 0.0
H1158 H 0.58109 0.64869 0.46751 0.0
H1159 H 0.50765 0.57278 0.36131 0.0
H1160 H 0.50555 0.59919 0.36506 0.0
H1161 H 0.53298 0.60267 0.3488 0.0
H1162 H 0.52522 0.67631 0.37176 0.0
H1163 H 0.59076 0.68327 0.33387 0.0
H1164 H 0.5185 0.63843 0.43342 0.0
H1165 H 0.49914 0.61899 0.40536 0.0
H1166 H 0.50152 0.64761 0.41016 0.0
H1167 H 0.59751 0.64591 0.38554 0.0
H1168 H 0.60396 0.65656 0.34723 0.0
H1169 H 0.57857 0.62609 0.35756 0.0
C1170 C 0.47223 0.06339 0.60186 0.0
C1171 C 0.47061 0.06314 0.57093 0.0
C1172 C 0.46676 0.078 0.61814 0.0
C1173 C 0.45969 0.09291 0.60315 0.0
C1174 C 0.45776 0.09258 0.57199 0.0
C1175 C 0.46316 0.07765 0.55626 0.0
C1176 C 0.469 0.07781 0.65136 0.0
C1177 C 0.45031 0.10826 0.55522 0.0
C1178 C 0.42721 0.11696 0.64784 0.0
C1179 C 0.44707 0.14043 0.65369 0.0
C1180 C 0.43099 0.10132 0.63122 0.0
C1181 C 0.45515 0.10944 0.62004 0.0
C1182 C 0.47518 0.13326 0.62551 0.0
C1183 C 0.47091 0.14843 0.64233 0.0
C1184 C 0.40922 0.07597 0.62605 0.0
C1185 C 0.50117 0.14268 0.61373 0.0
H1186 H 0.47833 0.05255 0.61336 0.0
H1187 H 0.4615 0.07731 0.53243 0.0
H1188 H 0.48374 0.09618 0.65811 0.0
H1189 H 0.45131 0.07345 0.66216 0.0
H1190 H 0.4736 0.06436 0.65978 0.0
H1191 H 0.44917 0.10553 0.53107 0.0
H1192 H 0.43197 0.10411 0.56361 0.0
H1193 H 0.46401 0.12779 0.55884 0.0
H1194 H 0.40881 0.11063 0.65682 0.0
H1195 H 0.48624 0.16669 0.64646 0.0
H1196 H 0.41279 0.06223 0.63604 0.0
H1197 H 0.40695 0.07304 0.60199 0.0
H1198 H 0.39151 0.07265 0.63565 0.0
H1199 H 0.50788 0.13111 0.62294 0.0
H1200 H 0.51458 0.16184 0.61937 0.0
H1201 H 0.50107 0.14162 0.58932 0.0
C1202 C 0.39794 0.45328 0.04454 0.0
C1203 C 0.42192 0.46939 0.05454 0.0
C1204 C 0.37689 0.4482 0.06111 0.0
C1205 C 0.38002 0.45902 0.08863 0.0
C1206 C 0.40426 0.47454 0.09932 0.0
C1207 C 0.42496 0.47972 0.08197 0.0
C1208 C 0.35137 0.43187 0.04877 0.0
C1209 C 0.40835 0.48603 0.12881 0.0
C1210 C 0.33017 0.46856 0.1185 0.0
C1211 C 0.31751 0.44886 0.13914 0.0
C1212 C 0.35019 0.47173 0.10143 0.0
C1213 C 0.35804 0.45508 0.10562 0.0
C1214 C 0.34525 0.4351 0.12645 0.0
C1215 C 0.3249 0.43208 0.14278 0.0
C1216 C 0.36305 0.49299 0.07903 0.0
C1217 C 0.35341 0.41728 0.13195 0.0
H1218 H 0.39575 0.44515 0.02341 0.0
H1219 H 0.44361 0.49208 0.08964 0.0
H1220 H 0.33952 0.41646 0.06477 0.0
H1221 H 0.34218 0.44229 0.04526 0.0
H1222 H 0.35213 0.4244 0.02742 0.0
H1223 H 0.42827 0.4962 0.13484 0.0
H1224 H 0.40179 0.49884 0.12815 0.0
H1225 H 0.39737 0.47181 0.14647 0.0
H1226 H 0.32425 0.48141 0.1156 0.0
H1227 H 0.31515 0.41695 0.15895 0.0
H1228 H 0.36323 0.48637 0.05686 0.0
H1229 H 0.3827 0.50545 0.08511 0.0
H1230 H 0.35387 0.50355 0.07746 0.0
H1231 H 0.3532 0.4088 0.11108 0.0
H1232 H 0.34132 0.40259 0.14871 0.0
H1233 H 0.37284 0.42707 0.13971 0.0
C1234 C 0.92844 0.41634 0.56818 0.0
C1235 C 0.94991 0.41867 0.55606 0.0
C1236 C 0.91214 0.39612 0.58676 0.0
C1237 C 0.91768 0.37801 0.59356 0.0
C1238 C 0.93932 0.38025 0.58112 0.0
C1239 C 0.95509 0.40051 0.5622 0.0
C1240 C 0.88907 0.3942 0.59924 0.0
C1241 C 0.94596 0.36145 0.58811 0.0
C1242 C 0.8874 0.33951 0.66418 0.0
C1243 C 0.86736 0.31818 0.65318 0.0
C1244 C 0.90438 0.35887 0.64494 0.0
C1245 C 0.90095 0.35694 0.61403 0.0
C1246 C 0.88093 0.33528 0.6028 0.0
C1247 C 0.86445 0.31605 0.62255 0.0
C1248 C 0.92574 0.38154 0.6577 0.0
C1249 C 0.87649 0.3327 0.57001 0.0
H1250 H 0.92452 0.43046 0.56316 0.0
H1251 H 0.97165 0.40237 0.55246 0.0
H1252 H 0.87227 0.37671 0.59336 0.0
H1253 H 0.88968 0.39424 0.62374 0.0
H1254 H 0.88707 0.40943 0.59097 0.0
H1255 H 0.96344 0.3659 0.5766 0.0
H1256 H 0.94819 0.36011 0.6123 0.0
H1257 H 0.9307 0.34324 0.58161 0.0
H1258 H 0.88974 0.34104 0.68789 0.0
H1259 H 0.8488 0.29963 0.61408 0.0
H1260 H 0.92379 0.3973 0.65245 0.0
H1261 H 0.94365 0.38588 0.64755 0.0
H1262 H 0.92663 0.37955 0.68209 0.0
H1263 H 0.87262 0.34659 0.56131 0.0
H1264 H 0.86059 0.31435 0.56483 0.0
H1265 H 0.89338 0.33605 0.55812 0.0
C1266 C 0.55834 0.95554 0.09397 0.0
C1267 C 0.53367 0.94422 0.08481 0.0
C1268 C 0.56608 0.94273 0.11194 0.0
C1269 C 0.5486 0.91821 0.12127 0.0
C1270 C 0.52353 0.90692 0.11259 0.0
C1271 C 0.51642 0.92002 0.09425 0.0
C1272 C 0.59303 0.95523 0.12041 0.0
C1273 C 0.50426 0.88092 0.12247 0.0
C1274 C 0.5683 0.8739 0.14268 0.0
C1275 C 0.56653 0.87303 0.1736 0.0
C1276 C 0.56358 0.88938 0.12538 0.0
C1277 C 0.5565 0.90398 0.13941 0.0
C1278 C 0.55539 0.90369 0.17069 0.0
C1279 C 0.56062 0.88831 0.18745 0.0
C1280 C 0.56539 0.88951 0.0921 0.0
C1281 C 0.5476 0.91877 0.18641 0.0
H1282 H 0.5717 0.97423 0.08647 0.0
H1283 H 0.49727 0.91139 0.08744 0.0
H1284 H 0.59444 0.9547 0.14482 0.0
H1285 H 0.60139 0.94539 0.11152 0.0
H1286 H 0.60414 0.97454 0.1119 0.0
H1287 H 0.48535 0.87521 0.11482 0.0
H1288 H 0.50941 0.8684 0.11375 0.0
H1289 H 0.50361 0.87878 0.14697 0.0
H1290 H 0.57309 0.8622 0.13203 0.0
H1291 H 0.55907 0.88746 0.21139 0.0
H1292 H 0.57727 0.90848 0.08275 0.0
H1293 H 0.54663 0.88179 0.08273 0.0
H1294 H 0.57318 0.87871 0.08477 0.0
H1295 H 0.55911 0.93815 0.17841 0.0
H1296 H 0.54926 0.91769 0.21079 0.0
H1297 H 0.52797 0.91228 0.18139 0.0
C1298 C 0.6111 0.53913 0.57929 0.0
C1299 C 0.58686 0.53089 0.58953 0.0
C1300 C 0.62991 0.54337 0.599 0.0
C1301 C 0.6246 0.5399 0.62981 0.0
C1302 C 0.60052 0.53259 0.64042 0.0
C1303 C 0.58188 0.5279 0.62017 0.0
C1304 C 0.65529 0.55087 0.58679 0.0
C1305 C 0.59428 0.52913 0.67315 0.0
C1306 C 0.66417 0.52484 0.67767 0.0
C1307 C 0.68215 0.54778 0.68778 0.0
C1308 C 0.64529 0.52204 0.65898 0.0
C1309 C 0.64386 0.54255 0.65075 0.0
C1310 C 0.66131 0.56558 0.66171 0.0
C1311 C 0.68041 0.56798 0.67983 0.0
C1312 C 0.62718 0.49721 0.6475 0.0
C1313 C 0.66007 0.58777 0.65388 0.0
H1314 H 0.61539 0.5421 0.55575 0.0
H1315 H 0.56321 0.52125 0.62844 0.0
H1316 H 0.66981 0.56821 0.59616 0.0
H1317 H 0.65955 0.53682 0.59341 0.0
H1318 H 0.65655 0.55328 0.56228 0.0
H1319 H 0.57545 0.52565 0.67785 0.0
H1320 H 0.59504 0.51348 0.68257 0.0
H1321 H 0.60817 0.54552 0.68476 0.0
H1322 H 0.66488 0.50897 0.68424 0.0
H1323 H 0.69429 0.58584 0.68717 0.0
H1324 H 0.62839 0.49811 0.62297 0.0
H1325 H 0.60785 0.49135 0.65388 0.0
H1326 H 0.63082 0.4831 0.65605 0.0
H1327 H 0.6637 0.59239 0.6298 0.0
H1328 H 0.67382 0.60391 0.66603 0.0
H1329 H 0.64115 0.58388 0.65893 0.0
C1330 C 0.05896 0.58681 0.1188 0.0
C1331 C 0.05862 0.59047 0.08812 0.0
C1332 C 0.07366 0.60646 0.1367 0.0
C1333 C 0.08875 0.63024 0.12348 0.0
C1334 C 0.08812 0.63408 0.09253 0.0
C1335 C 0.07286 0.61414 0.07523 0.0
C1336 C 0.07348 0.60167 0.16966 0.0
C1337 C 0.10424 0.65909 0.07757 0.0
C1338 C 0.11518 0.68447 0.17261 0.0
C1339 C 0.13895 0.68887 0.17813 0.0
C1340 C 0.09863 0.6655 0.15476 0.0
C1341 C 0.10617 0.65082 0.14187 0.0
C1342 C 0.1303 0.65547 0.147 0.0
C1343 C 0.14633 0.67435 0.16518 0.0
C1344 C 0.07294 0.6609 0.15008 0.0
C1345 C 0.13917 0.64044 0.13337 0.0
H1346 H 0.04777 0.5685 0.12876 0.0
H1347 H 0.07275 0.61691 0.05146 0.0
H1348 H 0.09207 0.60573 0.17637 0.0
H1349 H 0.06956 0.61387 0.18172 0.0
H1350 H 0.05939 0.58246 0.17668 0.0
H1351 H 0.10076 0.65919 0.05352 0.0
H1352 H 0.10088 0.67232 0.08794 0.0
H1353 H 0.12415 0.66556 0.08049 0.0
H1354 H 0.10936 0.69556 0.18278 0.0
H1355 H 0.16482 0.67793 0.16906 0.0
H1356 H 0.05869 0.64221 0.15863 0.0
H1357 H 0.0698 0.66199 0.12611 0.0
H1358 H 0.07007 0.67416 0.16134 0.0
H1359 H 0.12716 0.62109 0.14132 0.0
H1360 H 0.15875 0.64691 0.13879 0.0
H1361 H 0.13769 0.64107 0.10896 0.0
loop_
_geom_bond_atom_site_label_1
_geom_bond_atom_site_label_2
_geom_bond_distance
_geom_bond_site_symmetry_2
_ccdc_geom_bond_type
C0 C1 1.443 . S
C0 N4 1.376 1_556 S
C0 C38 1.389 . S
C1 C0 1.443 . S
C1 C2 1.340 1_556 S
C1 H41 0.951 . S
C2 C1 1.340 1_554 S
C2 C3 1.439 . S
C2 H42 0.950 . S
C3 C2 1.439 . S
C3 N4 1.374 . S
C3 C37 1.395 . S
N4 C0 1.376 1_554 S
N4 C3 1.374 . S
N4 Co5 1.974 1_655 S
Co5 N4 1.974 1_455 S
Co5 N6 2.017 1_455 S
Co5 N11 2.042 1_554 S
Co5 N16 1.973 1_554 S
Co5 N21 2.297 . S
Co5 N27 2.269 1_454 S
N6 Co5 2.017 1_655 S
N6 C7 1.376 . S
N6 C10 1.383 1_655 S
C7 N6 1.376 . S
C7 C8 1.446 . S
C7 C37 1.391 . S
C8 C7 1.446 . S
C8 C9 1.339 1_655 S
C8 H43 0.949 . S
C9 C8 1.339 1_455 S
C9 C10 1.439 . S
C9 H44 0.950 . S
C10 N6 1.383 1_455 S
C10 C9 1.439 . S
C10 C39 1.392 . S
N11 Co5 2.042 1_556 S
N11 C12 1.376 1_556 S
N11 C15 1.374 . S
C12 N11 1.376 1_554 S
C12 C13 1.443 . S
C12 C39 1.389 . S
C13 C12 1.443 . S
C13 C14 1.340 1_554 S
C13 H45 0.951 . S
C14 C13 1.340 1_556 S
C14 C15 1.439 . S
C14 H46 0.950 . S
C15 N11 1.374 . S
C15 C14 1.439 . S
C15 C40 1.395 . S
N16 Co5 1.973 1_556 S
N16 C17 1.376 . S
N16 C20 1.383 1_455 S
C17 N16 1.376 . S
C17 C18 1.446 . S
C17 C40 1.391 . S
C18 C17 1.446 . S
C18 C19 1.339 1_455 S
C18 H47 0.949 . S
C19 C18 1.339 1_655 S
C19 C20 1.439 . S
C19 H48 0.950 . S
C20 N16 1.383 1_655 S
C20 C19 1.439 . S
C20 C38 1.392 . S
N21 Co5 2.297 . S
N21 C24 1.332 . S
N21 C26 1.332 . S
C22 C23 1.386 . S
C22 C25 1.388 . S
C23 C22 1.386 . S
C23 C24 1.382 . S
C23 H49 0.950 . S
C24 N21 1.332 . S
C24 C23 1.382 . S
C24 H35 0.952 1_554 S
C25 C22 1.388 . S
C25 C26 1.382 . S
C25 H50 0.950 . S
C26 N21 1.332 . S
C26 C25 1.382 . S
C26 H36 0.948 . S
N27 Co5 2.269 1_656 S
N27 C31 1.332 . S
N27 C32 1.332 . S
C28 C29 1.388 . S
C28 C32 1.382 . S
C28 H51 0.950 . S
C29 C28 1.388 . S
C29 C30 1.386 . S
C30 C29 1.386 . S
C30 C31 1.382 . S
C30 H52 0.950 . S
C31 N27 1.332 . S
C31 C30 1.382 . S
C31 H33 0.952 1_556 S
C32 N27 1.332 . S
C32 C28 1.382 . S
C32 H34 0.948 . S
H33 C31 0.952 1_554 S
H34 C32 0.948 . S
H35 C24 0.952 1_556 S
H36 C26 0.948 . S
C37 C3 1.395 . S
C37 C7 1.391 . S
C38 C0 1.389 . S
C38 C20 1.392 . S
C39 C10 1.392 . S
C39 C12 1.389 . S
C40 C15 1.395 . S
C40 C17 1.391 . S
H41 C1 0.951 . S
H42 C2 0.950 . S
H43 C8 0.949 . S
H44 C9 0.950 . S
H45 C13 0.951 . S
H46 C14 0.950 . S
H47 C18 0.949 . S
H48 C19 0.950 . S
H49 C23 0.950 . S
H50 C25 0.950 . S
H51 C28 0.950 . S
H52 C30 0.950 . S
C53 C54 1.443 . S
C53 N57 1.376 1_545 S
C53 C91 1.389 . S
C54 C53 1.443 . S
C54 C55 1.340 1_545 S
C54 H94 0.951 . S
C55 C54 1.340 1_565 S
C55 C56 1.439 . S
C55 H95 0.950 . S
C56 C55 1.439 . S
C56 N57 1.374 . S
C56 C90 1.395 . S
N57 C53 1.376 1_565 S
N57 C56 1.374 . S
N57 Co58 1.997 1_565 S
Co58 N57 1.997 1_545 S
Co58 N59 1.972 1_545 S
Co58 N64 2.021 . S
Co58 N69 2.018 . S
Co58 N74 2.241 1_545 S
Co58 N80 2.324 . S
N59 Co58 1.972 1_565 S
N59 C60 1.376 . S
N59 C63 1.383 . S
C60 N59 1.376 . S
C60 C61 1.446 . S
C60 C90 1.391 . S
C61 C60 1.446 . S
C61 C62 1.339 . S
C61 H96 0.949 . S
C62 C61 1.339 . S
C62 C63 1.439 . S
C62 H97 0.950 . S
C63 N59 1.383 . S
C63 C62 1.439 . S
C63 C92 1.392 . S
N64 Co58 2.021 . S
N64 C65 1.376 1_545 S
N64 C68 1.374 . S
C65 N64 1.376 1_565 S
C65 C66 1.443 . S
C65 C92 1.389 . S
C66 C65 1.443 . S
C66 C67 1.340 1_565 S
C66 H98 0.951 . S
C67 C66 1.340 1_545 S
C67 C68 1.439 . S
C67 H99 0.950 . S
C68 N64 1.374 . S
C68 C67 1.439 . S
C68 C93 1.395 . S
N69 Co58 2.018 . S
N69 C70 1.376 . S
N69 C73 1.383 . S
C70 N69 1.376 . S
C70 C71 1.446 . S
C70 C93 1.391 . S
C71 C70 1.446 . S
C71 C72 1.339 . S
C71 H100 0.949 . S
C72 C71 1.339 . S
C72 C73 1.439 . S
C72 H101 0.950 . S
C73 N69 1.383 . S
C73 C72 1.439 . S
C73 C91 1.392 . S
N74 Co58 2.241 1_565 S
N74 C77 1.332 . S
N74 C79 1.332 . S
C75 C76 1.386 . S
C75 C78 1.388 . S
C76 C75 1.386 . S
C76 C77 1.382 . S
C76 H102 0.950 . S
C77 N74 1.332 . S
C77 C76 1.382 . S
C77 H88 0.952 1_565 S
C78 C75 1.388 . S
C78 C79 1.382 . S
C78 H103 0.950 . S
C79 N74 1.332 . S
C79 C78 1.382 . S
C79 H89 0.948 . S
N80 Co58 2.324 . S
N80 C84 1.332 . S
N80 C85 1.332 . S
C81 C82 1.388 . S
C81 C85 1.382 . S
C81 H104 0.950 . S
C82 C81 1.388 . S
C82 C83 1.386 . S
C83 C82 1.386 . S
C83 C84 1.382 . S
C83 H105 0.950 . S
C84 N80 1.332 . S
C84 C83 1.382 . S
C84 H86 0.952 1_545 S
C85 N80 1.332 . S
C85 C81 1.382 . S
C85 H87 0.948 . S
H86 C84 0.952 1_565 S
H87 C85 0.948 . S
H88 C77 0.952 1_545 S
H89 C79 0.948 . S
C90 C56 1.395 . S
C90 C60 1.391 . S
C91 C53 1.389 . S
C91 C73 1.392 . S
C92 C63 1.392 . S
C92 C65 1.389 . S
C93 C68 1.395 . S
C93 C70 1.391 . S
H94 C54 0.951 . S
H95 C55 0.950 . S
H96 C61 0.949 . S
H97 C62 0.950 . S
H98 C66 0.951 . S
H99 C67 0.950 . S
H100 C71 0.949 . S
H101 C72 0.950 . S
H102 C76 0.950 . S
H103 C78 0.950 . S
H104 C81 0.950 . S
H105 C83 0.950 . S
C106 C107 1.443 . S
C106 N110 1.376 . S
C106 C144 1.389 . S
C107 C106 1.443 . S
C107 C108 1.340 . S
C107 H147 0.951 . S
C108 C107 1.340 . S
C108 C109 1.439 . S
C108 H148 0.950 . S
C109 C108 1.439 . S
C109 N110 1.374 . S
C109 C143 1.395 . S
N110 C106 1.376 . S
N110 C109 1.374 . S
N110 Co111 1.992 1_556 S
Co111 N110 1.992 1_554 S
Co111 N112 1.991 1_554 S
Co111 N117 2.025 . S
Co111 N122 1.998 . S
Co111 N127 2.293 . S
Co111 N133 2.273 1_554 S
N112 Co111 1.991 1_556 S
N112 C113 1.376 . S
N112 C116 1.383 1_556 S
C113 N112 1.376 . S
C113 C114 1.446 . S
C113 C143 1.391 . S
C114 C113 1.446 . S
C114 C115 1.339 . S
C114 H149 0.949 . S
C115 C114 1.339 . S
C115 C116 1.439 1_556 S
C115 H150 0.950 1_556 S
C116 N112 1.383 1_554 S
C116 C115 1.439 1_554 S
C116 C145 1.392 . S
N117 Co111 2.025 . S
N117 C118 1.376 . S
N117 C121 1.374 . S
C118 N117 1.376 . S
C118 C119 1.443 . S
C118 C145 1.389 . S
C119 C118 1.443 . S
C119 C120 1.340 . S
C119 H151 0.951 . S
C120 C119 1.340 . S
C120 C121 1.439 . S
C120 H152 0.950 . S
C121 N117 1.374 . S
C121 C120 1.439 . S
C121 C146 1.395 . S
N122 Co111 1.998 . S
N122 C123 1.376 . S
N122 C126 1.383 1_554 S
C123 N122 1.376 . S
C123 C124 1.446 . S
C123 C146 1.391 . S
C124 C123 1.446 . S
C124 C125 1.339 . S
C124 H153 0.949 . S
C125 C124 1.339 . S
C125 C126 1.439 1_554 S
C125 H154 0.950 1_554 S
C126 N122 1.383 1_556 S
C126 C125 1.439 1_556 S
C126 C144 1.392 . S
N127 Co111 2.293 . S
N127 C130 1.332 . S
N127 C132 1.332 . S
C128 C129 1.386 . S
C128 C131 1.388 . S
C129 C128 1.386 . S
C129 C130 1.382 . S
C129 H155 0.950 . S
C130 N127 1.332 . S
C130 C129 1.382 . S
C130 H141 0.952 . S
C131 C128 1.388 . S
C131 C132 1.382 . S
C131 H156 0.950 . S
C132 N127 1.332 . S
C132 C131 1.382 . S
C132 H142 0.948 . S
N133 Co111 2.273 1_556 S
N133 C137 1.332 . S
N133 C138 1.332 . S
C134 C135 1.388 . S
C134 C138 1.382 . S
C134 H157 0.950 . S
C135 C134 1.388 . S
C135 C136 1.386 . S
C136 C135 1.386 . S
C136 C137 1.382 . S
C136 H158 0.950 . S
C137 N133 1.332 . S
C137 C136 1.382 . S
C137 H139 0.952 . S
C138 N133 1.332 . S
C138 C134 1.382 . S
C138 H140 0.948 . S
H139 C137 0.952 . S
H140 C138 0.948 . S
H141 C130 0.952 . S
H142 C132 0.948 . S
C143 C109 1.395 . S
C143 C113 1.391 . S
C144 C106 1.389 . S
C144 C126 1.392 . S
C145 C116 1.392 . S
C145 C118 1.389 . S
C146 C121 1.395 . S
C146 C123 1.391 . S
H147 C107 0.951 . S
H148 C108 0.950 . S
H149 C114 0.949 . S
H150 C115 0.950 1_554 S
H151 C119 0.951 . S
H152 C120 0.950 . S
H153 C124 0.949 . S
H154 C125 0.950 1_556 S
H155 C129 0.950 . S
H156 C131 0.950 . S
H157 C134 0.950 . S
H158 C136 0.950 . S
C159 C160 1.443 . S
C159 N163 1.376 . S
C159 C197 1.389 . S
C160 C159 1.443 . S
C160 C161 1.340 . S
C160 H200 0.951 . S
C161 C160 1.340 . S
C161 C162 1.439 . S
C161 H201 0.950 . S
C162 C161 1.439 . S
C162 N163 1.374 . S
C162 C196 1.395 . S
N163 C159 1.376 . S
N163 C162 1.374 . S
N163 Co164 1.986 1_655 S
Co164 N163 1.986 1_455 S
Co164 N165 1.980 1_455 S
Co164 N170 2.031 . S
Co164 N175 2.010 . S
Co164 N180 2.311 . S
Co164 N186 2.255 1_455 S
N165 Co164 1.980 1_655 S
N165 C166 1.376 . S
N165 C169 1.383 1_655 S
C166 N165 1.376 . S
C166 C167 1.446 . S
C166 C196 1.391 . S
C167 C166 1.446 . S
C167 C168 1.339 1_655 S
C167 H202 0.949 . S
C168 C167 1.339 1_455 S
C168 C169 1.439 . S
C168 H203 0.950 . S
C169 N165 1.383 1_455 S
C169 C168 1.439 . S
C169 C198 1.392 . S
N170 Co164 2.031 . S
N170 C171 1.376 . S
N170 C174 1.374 . S
C171 N170 1.376 . S
C171 C172 1.443 . S
C171 C198 1.389 . S
C172 C171 1.443 . S
C172 C173 1.340 . S
C172 H204 0.951 . S
C173 C172 1.340 . S
C173 C174 1.439 . S
C173 H205 0.950 . S
C174 N170 1.374 . S
C174 C173 1.439 . S
C174 C199 1.395 . S
N175 Co164 2.010 . S
N175 C176 1.376 . S
N175 C179 1.383 1_455 S
C176 N175 1.376 . S
C176 C177 1.446 . S
C176 C199 1.391 . S
C177 C176 1.446 . S
C177 C178 1.339 1_455 S
C177 H206 0.949 . S
C178 C177 1.339 1_655 S
C178 C179 1.439 . S
C178 H207 0.950 . S
C179 N175 1.383 1_655 S
C179 C178 1.439 . S
C179 C197 1.392 . S
N180 Co164 2.311 . S
N180 C183 1.332 . S
N180 C185 1.332 . S
C181 C182 1.386 . S
C181 C184 1.388 . S
C182 C181 1.386 . S
C182 C183 1.382 . S
C182 H208 0.950 . S
C183 N180 1.332 . S
C183 C182 1.382 . S
C183 H194 0.952 . S
C184 C181 1.388 . S
C184 C185 1.382 . S
C184 H209 0.950 . S
C185 N180 1.332 . S
C185 C184 1.382 . S
C185 H195 0.948 . S
N186 Co164 2.255 1_655 S
N186 C190 1.332 . S
N186 C191 1.332 . S
C187 C188 1.388 . S
C187 C191 1.382 . S
C187 H210 0.950 . S
C188 C187 1.388 . S
C188 C189 1.386 . S
C189 C188 1.386 . S
C189 C190 1.382 . S
C189 H211 0.950 . S
C190 N186 1.332 . S
C190 C189 1.382 . S
C190 H192 0.952 . S
C191 N186 1.332 . S
C191 C187 1.382 . S
C191 H193 0.948 . S
H192 C190 0.952 . S
H193 C191 0.948 . S
H194 C183 0.952 . S
H195 C185 0.948 . S
C196 C162 1.395 . S
C196 C166 1.391 . S
C197 C159 1.389 . S
C197 C179 1.392 . S
C198 C169 1.392 . S
C198 C171 1.389 . S
C199 C174 1.395 . S
C199 C176 1.391 . S
H200 C160 0.951 . S
H201 C161 0.950 . S
H202 C167 0.949 . S
H203 C168 0.950 . S
H204 C172 0.951 . S
H205 C173 0.950 . S
H206 C177 0.949 . S
H207 C178 0.950 . S
H208 C182 0.950 . S
H209 C184 0.950 . S
H210 C187 0.950 . S
H211 C189 0.950 . S
C212 C213 1.443 . S
C212 N216 1.376 1_565 S
C212 C250 1.389 . S
C213 C212 1.443 . S
C213 C214 1.340 1_565 S
C213 H253 0.951 . S
C214 C213 1.340 1_545 S
C214 C215 1.439 . S
C214 H254 0.950 . S
C215 C214 1.439 . S
C215 N216 1.374 . S
C215 C249 1.395 . S
N216 C212 1.376 1_545 S
N216 C215 1.374 . S
N216 Co217 2.041 . S
Co217 N216 2.041 . S
Co217 N218 2.021 . S
Co217 N223 1.976 1_544 S
Co217 N228 1.969 1_544 S
Co217 N233 2.314 1_554 S
Co217 N239 2.252 1_545 S
N218 Co217 2.021 . S
N218 C219 1.376 . S
N218 C222 1.383 1_554 S
C219 N218 1.376 . S
C219 C220 1.446 . S
C219 C249 1.391 . S
C220 C219 1.446 . S
C220 C221 1.339 1_554 S
C220 H255 0.949 . S
C221 C220 1.339 1_556 S
C221 C222 1.439 . S
C221 H256 0.950 . S
C222 N218 1.383 1_556 S
C222 C221 1.439 . S
C222 C251 1.392 . S
N223 Co217 1.976 1_566 S
N223 C224 1.376 1_565 S
N223 C227 1.374 . S
C224 N223 1.376 1_545 S
C224 C225 1.443 . S
C224 C251 1.389 . S
C225 C224 1.443 . S
C225 C226 1.340 1_545 S
C225 H257 0.951 . S
C226 C225 1.340 1_565 S
C226 C227 1.439 . S
C226 H258 0.950 . S
C227 N223 1.374 . S
C227 C226 1.439 . S
C227 C252 1.395 . S
N228 Co217 1.969 1_566 S
N228 C229 1.376 . S
N228 C232 1.383 1_556 S
C229 N228 1.376 . S
C229 C230 1.446 . S
C229 C252 1.391 . S
C230 C229 1.446 . S
C230 C231 1.339 1_556 S
C230 H259 0.949 . S
C231 C230 1.339 1_554 S
C231 C232 1.439 . S
C231 H260 0.950 . S
C232 N228 1.383 1_554 S
C232 C231 1.439 . S
C232 C250 1.392 . S
N233 Co217 2.314 1_556 S
N233 C236 1.332 . S
N233 C238 1.332 . S
C234 C235 1.386 . S
C234 C237 1.388 . S
C235 C234 1.386 . S
C235 C236 1.382 . S
C235 H261 0.950 . S
C236 N233 1.332 . S
C236 C235 1.382 . S
C236 H247 0.952 1_545 S
C237 C234 1.388 . S
C237 C238 1.382 . S
C237 H262 0.950 . S
C238 N233 1.332 . S
C238 C237 1.382 . S
C238 H248 0.948 . S
N239 Co217 2.252 1_565 S
N239 C243 1.332 . S
N239 C244 1.332 . S
C240 C241 1.388 . S
C240 C244 1.382 . S
C240 H263 0.950 . S
C241 C240 1.388 . S
C241 C242 1.386 . S
C242 C241 1.386 . S
C242 C243 1.382 . S
C242 H264 0.950 . S
C243 N239 1.332 . S
C243 C242 1.382 . S
C243 H245 0.952 1_565 S
C244 N239 1.332 . S
C244 C240 1.382 . S
C244 H246 0.948 . S
H245 C243 0.952 1_545 S
H246 C244 0.948 . S
H247 C236 0.952 1_565 S
H248 C238 0.948 . S
C249 C215 1.395 . S
C249 C219 1.391 . S
C250 C212 1.389 . S
C250 C232 1.392 . S
C251 C222 1.392 . S
C251 C224 1.389 . S
C252 C227 1.395 . S
C252 C229 1.391 . S
H253 C213 0.951 . S
H254 C214 0.950 . S
H255 C220 0.949 . S
H256 C221 0.950 . S
H257 C225 0.951 . S
H258 C226 0.950 . S
H259 C230 0.949 . S
H260 C231 0.950 . S
H261 C235 0.950 . S
H262 C237 0.950 . S
H263 C240 0.950 . S
H264 C242 0.950 . S
C265 C266 1.443 . S
C265 N269 1.376 . S
C265 C303 1.389 . S
C266 C265 1.443 . S
C266 C267 1.340 . S
C266 H306 0.951 . S
C267 C266 1.340 . S
C267 C268 1.439 . S
C267 H307 0.950 . S
C268 C267 1.439 . S
C268 N269 1.374 . S
C268 C302 1.395 . S
N269 C265 1.376 . S
N269 C268 1.374 . S
N269 Co270 2.008 . S
Co270 N269 2.008 . S
Co270 N271 1.995 . S
Co270 N276 2.008 . S
Co270 N281 1.995 . S
Co270 N286 2.282 . S
Co270 N292 2.282 . S
N271 Co270 1.995 . S
N271 C272 1.376 . S
N271 C275 1.383 . S
C272 N271 1.376 . S
C272 C273 1.446 . S
C272 C302 1.391 . S
C273 C272 1.446 . S
C273 C274 1.339 . S
C273 H308 0.949 . S
C274 C273 1.339 . S
C274 C275 1.439 . S
C274 H309 0.950 . S
C275 N271 1.383 . S
C275 C274 1.439 . S
C275 C304 1.392 . S
N276 Co270 2.008 . S
N276 C277 1.376 . S
N276 C280 1.374 . S
C277 N276 1.376 . S
C277 C278 1.443 . S
C277 C304 1.389 . S
C278 C277 1.443 . S
C278 C279 1.340 . S
C278 H310 0.951 . S
C279 C278 1.340 . S
C279 C280 1.439 . S
C279 H311 0.950 . S
C280 N276 1.374 . S
C280 C279 1.439 . S
C280 C305 1.395 . S
N281 Co270 1.995 . S
N281 C282 1.376 . S
N281 C285 1.383 . S
C282 N281 1.376 . S
C282 C283 1.446 . S
C282 C305 1.391 . S
C283 C282 1.446 . S
C283 C284 1.339 . S
C283 H312 0.949 . S
C284 C283 1.339 . S
C284 C285 1.439 . S
C284 H313 0.950 . S
C285 N281 1.383 . S
C285 C284 1.439 . S
C285 C303 1.392 . S
N286 Co270 2.282 . S
N286 C289 1.332 . S
N286 C291 1.332 . S
C287 C288 1.386 . S
C287 C290 1.388 . S
C288 C287 1.386 . S
C288 C289 1.382 . S
C288 H314 0.950 . S
C289 N286 1.332 . S
C289 C288 1.382 . S
C289 H300 0.952 . S
C290 C287 1.388 . S
C290 C291 1.382 . S
C290 H315 0.950 . S
C291 N286 1.332 . S
C291 C290 1.382 . S
C291 H301 0.948 . S
N292 Co270 2.282 . S
N292 C296 1.332 . S
N292 C297 1.332 . S
C293 C294 1.388 . S
C293 C297 1.382 . S
C293 H316 0.950 . S
C294 C293 1.388 . S
C294 C295 1.386 . S
C295 C294 1.386 . S
C295 C296 1.382 . S
C295 H317 0.950 . S
C296 N292 1.332 . S
C296 C295 1.382 . S
C296 H298 0.952 . S
C297 N292 1.332 . S
C297 C293 1.382 . S
C297 H299 0.948 . S
H298 C296 0.952 . S
H299 C297 0.948 . S
H300 C289 0.952 . S
H301 C291 0.948 . S
C302 C268 1.395 . S
C302 C272 1.391 . S
C303 C265 1.389 . S
C303 C285 1.392 . S
C304 C275 1.392 . S
C304 C277 1.389 . S
C305 C280 1.395 . S
C305 C282 1.391 . S
H306 C266 0.951 . S
H307 C267 0.950 . S
H308 C273 0.949 . S
H309 C274 0.950 . S
H310 C278 0.951 . S
H311 C279 0.950 . S
H312 C283 0.949 . S
H313 C284 0.950 . S
H314 C288 0.950 . S
H315 C290 0.950 . S
H316 C293 0.950 . S
H317 C295 0.950 . S
C318 C319 1.384 . S
C318 C320 1.384 . S
C318 H346 0.931 . S
C319 C318 1.384 . S
C319 C322 1.382 . S
C320 C318 1.384 . S
C320 C321 1.381 . S
C320 H347 0.930 . S
C321 C320 1.381 . S
C321 C323 1.381 . S
C321 C324 1.487 . S
C322 C319 1.382 . S
C322 C323 1.387 . S
C322 H348 0.930 . S
C323 C321 1.381 . S
C323 C322 1.387 . S
C323 H349 0.931 . S
C324 C321 1.487 . S
C324 C331 1.399 . S
C324 N362 1.343 . S
C325 C326 1.384 . S
C325 C327 1.384 . S
C325 H350 0.931 . S
C326 C325 1.384 . S
C326 C329 1.382 . S
C327 C325 1.384 . S
C327 C328 1.381 . S
C327 H351 0.930 . S
C328 C327 1.381 . S
C328 C330 1.381 . S
C328 C331 1.487 . S
C329 C326 1.382 . S
C329 C330 1.387 . S
C329 H352 0.930 . S
C330 C328 1.381 . S
C330 C329 1.387 . S
C330 H353 0.931 . S
C331 C324 1.399 . S
C331 C328 1.487 . S
C331 N363 1.343 . S
C332 C333 1.384 . S
C332 C334 1.384 . S
C332 H354 0.931 . S
C333 C332 1.384 . S
C333 C336 1.382 . S
C334 C332 1.384 . S
C334 C335 1.381 . S
C334 H355 0.930 . S
C335 C334 1.381 . S
C335 C337 1.381 . S
C335 C338 1.487 . S
C336 C333 1.382 . S
C336 C337 1.387 . S
C336 H356 0.930 . S
C337 C335 1.381 . S
C337 C336 1.387 . S
C337 H357 0.931 . S
C338 C335 1.487 . S
C338 C345 1.399 . S
C338 N363 1.343 . S
C339 C340 1.384 . S
C339 C341 1.384 . S
C339 H358 0.931 . S
C340 C339 1.384 . S
C340 C343 1.382 . S
C341 C339 1.384 . S
C341 C342 1.381 . S
C341 H359 0.930 . S
C342 C341 1.381 . S
C342 C344 1.381 . S
C342 C345 1.487 . S
C343 C340 1.382 . S
C343 C344 1.387 . S
C343 H360 0.930 . S
C344 C342 1.381 . S
C344 C343 1.387 . S
C344 H361 0.931 . S
C345 C338 1.399 . S
C345 C342 1.487 . S
C345 N362 1.343 . S
H346 C318 0.931 . S
H347 C320 0.930 . S
H348 C322 0.930 . S
H349 C323 0.931 . S
H350 C325 0.931 . S
H351 C327 0.930 . S
H352 C329 0.930 . S
H353 C330 0.931 . S
H354 C332 0.931 . S
H355 C334 0.930 . S
H356 C336 0.930 . S
H357 C337 0.931 . S
H358 C339 0.931 . S
H359 C341 0.930 . S
H360 C343 0.930 . S
H361 C344 0.931 . S
N362 C324 1.343 . S
N362 C345 1.343 . S
N363 C331 1.343 . S
N363 C338 1.343 . S
C364 C365 1.384 . S
C364 C366 1.384 . S
C364 H392 0.931 . S
C365 C364 1.384 . S
C365 C368 1.382 . S
C366 C364 1.384 . S
C366 C367 1.381 . S
C366 H393 0.930 . S
C367 C366 1.381 . S
C367 C369 1.381 . S
C367 C370 1.487 . S
C368 C365 1.382 . S
C368 C369 1.387 . S
C368 H394 0.930 . S
C369 C367 1.381 . S
C369 C368 1.387 . S
C369 H395 0.931 . S
C370 C367 1.487 . S
C370 C377 1.399 . S
C370 N408 1.343 . S
C371 C372 1.384 . S
C371 C373 1.384 . S
C371 H396 0.931 . S
C372 C371 1.384 . S
C372 C375 1.382 . S
C373 C371 1.384 . S
C373 C374 1.381 . S
C373 H397 0.930 . S
C374 C373 1.381 . S
C374 C376 1.381 . S
C374 C377 1.487 . S
C375 C372 1.382 . S
C375 C376 1.387 . S
C375 H398 0.930 . S
C376 C374 1.381 . S
C376 C375 1.387 . S
C376 H399 0.931 . S
C377 C370 1.399 . S
C377 C374 1.487 . S
C377 N409 1.343 . S
C378 C379 1.384 . S
C378 C380 1.384 . S
C378 H400 0.931 . S
C379 C378 1.384 . S
C379 C382 1.382 . S
C380 C378 1.384 . S
C380 C381 1.381 . S
C380 H401 0.930 . S
C381 C380 1.381 . S
C381 C383 1.381 . S
C381 C384 1.487 . S
C382 C379 1.382 . S
C382 C383 1.387 . S
C382 H402 0.930 . S
C383 C381 1.381 . S
C383 C382 1.387 . S
C383 H403 0.931 . S
C384 C381 1.487 . S
C384 C391 1.399 . S
C384 N409 1.343 . S
C385 C386 1.384 . S
C385 C387 1.384 . S
C385 H404 0.931 . S
C386 C385 1.384 . S
C386 C389 1.382 . S
C387 C385 1.384 . S
C387 C388 1.381 . S
C387 H405 0.930 . S
C388 C387 1.381 . S
C388 C390 1.381 . S
C388 C391 1.487 . S
C389 C386 1.382 . S
C389 C390 1.387 . S
C389 H406 0.930 . S
C390 C388 1.381 . S
C390 C389 1.387 . S
C390 H407 0.931 . S
C391 C384 1.399 . S
C391 C388 1.487 . S
C391 N408 1.343 . S
H392 C364 0.931 . S
H393 C366 0.930 . S
H394 C368 0.930 . S
H395 C369 0.931 . S
H396 C371 0.931 . S
H397 C373 0.930 . S
H398 C375 0.930 . S
H399 C376 0.931 . S
H400 C378 0.931 . S
H401 C380 0.930 . S
H402 C382 0.930 . S
H403 C383 0.931 . S
H404 C385 0.931 . S
H405 C387 0.930 . S
H406 C389 0.930 . S
H407 C390 0.931 . S
N408 C370 1.343 . S
N408 C391 1.343 . S
N409 C377 1.343 . S
N409 C384 1.343 . S
C410 C411 1.384 . S
C410 C412 1.384 . S
C410 H438 0.931 . S
C411 C410 1.384 . S
C411 C414 1.382 . S
C412 C410 1.384 . S
C412 C413 1.381 . S
C412 H439 0.930 . S
C413 C412 1.381 . S
C413 C415 1.381 . S
C413 C416 1.487 . S
C414 C411 1.382 . S
C414 C415 1.387 . S
C414 H440 0.930 . S
C415 C413 1.381 . S
C415 C414 1.387 . S
C415 H441 0.931 . S
C416 C413 1.487 . S
C416 C423 1.399 . S
C416 N454 1.343 . S
C417 C418 1.384 . S
C417 C419 1.384 . S
C417 H442 0.931 . S
C418 C417 1.384 . S
C418 C421 1.382 . S
C419 C417 1.384 . S
C419 C420 1.381 . S
C419 H443 0.930 . S
C420 C419 1.381 . S
C420 C422 1.381 . S
C420 C423 1.487 . S
C421 C418 1.382 . S
C421 C422 1.387 . S
C421 H444 0.930 . S
C422 C420 1.381 . S
C422 C421 1.387 . S
C422 H445 0.931 . S
C423 C416 1.399 . S
C423 C420 1.487 . S
C423 N455 1.343 . S
C424 C425 1.384 . S
C424 C426 1.384 . S
C424 H446 0.931 . S
C425 C424 1.384 . S
C425 C428 1.382 . S
C426 C424 1.384 . S
C426 C427 1.381 . S
C426 H447 0.930 . S
C427 C426 1.381 . S
C427 C429 1.381 . S
C427 C430 1.487 . S
C428 C425 1.382 . S
C428 C429 1.387 . S
C428 H448 0.930 . S
C429 C427 1.381 . S
C429 C428 1.387 . S
C429 H449 0.931 . S
C430 C427 1.487 . S
C430 C437 1.399 . S
C430 N455 1.343 . S
C431 C432 1.384 . S
C431 C433 1.384 . S
C431 H450 0.931 . S
C432 C431 1.384 . S
C432 C435 1.382 . S
C433 C431 1.384 . S
C433 C434 1.381 . S
C433 H451 0.930 . S
C434 C433 1.381 . S
C434 C436 1.381 . S
C434 C437 1.487 . S
C435 C432 1.382 . S
C435 C436 1.387 . S
C435 H452 0.930 . S
C436 C434 1.381 . S
C436 C435 1.387 . S
C436 H453 0.931 . S
C437 C430 1.399 . S
C437 C434 1.487 . S
C437 N454 1.343 . S
H438 C410 0.931 . S
H439 C412 0.930 . S
H440 C414 0.930 . S
H441 C415 0.931 . S
H442 C417 0.931 . S
H443 C419 0.930 . S
H444 C421 0.930 . S
H445 C422 0.931 . S
H446 C424 0.931 . S
H447 C426 0.930 . S
H448 C428 0.930 . S
H449 C429 0.931 . S
H450 C431 0.931 . S
H451 C433 0.930 . S
H452 C435 0.930 . S
H453 C436 0.931 . S
N454 C416 1.343 . S
N454 C437 1.343 . S
N455 C423 1.343 . S
N455 C430 1.343 . S
C456 C457 1.384 . S
C456 C458 1.384 . S
C456 H484 0.931 . S
C457 C456 1.384 . S
C457 C460 1.382 . S
C458 C456 1.384 . S
C458 C459 1.381 . S
C458 H485 0.930 . S
C459 C458 1.381 . S
C459 C461 1.381 . S
C459 C462 1.487 . S
C460 C457 1.382 . S
C460 C461 1.387 . S
C460 H486 0.930 . S
C461 C459 1.381 . S
C461 C460 1.387 . S
C461 H487 0.931 . S
C462 C459 1.487 . S
C462 C469 1.399 . S
C462 N500 1.343 . S
C463 C464 1.384 . S
C463 C465 1.384 . S
C463 H488 0.931 . S
C464 C463 1.384 . S
C464 C467 1.382 . S
C465 C463 1.384 . S
C465 C466 1.381 . S
C465 H489 0.930 . S
C466 C465 1.381 . S
C466 C468 1.381 . S
C466 C469 1.487 . S
C467 C464 1.382 . S
C467 C468 1.387 . S
C467 H490 0.930 . S
C468 C466 1.381 . S
C468 C467 1.387 . S
C468 H491 0.931 . S
C469 C462 1.399 . S
C469 C466 1.487 . S
C469 N501 1.343 . S
C470 C471 1.384 . S
C470 C472 1.384 . S
C470 H492 0.931 . S
C471 C470 1.384 . S
C471 C474 1.382 . S
C472 C470 1.384 . S
C472 C473 1.381 . S
C472 H493 0.930 . S
C473 C472 1.381 . S
C473 C475 1.381 . S
C473 C476 1.487 . S
C474 C471 1.382 . S
C474 C475 1.387 . S
C474 H494 0.930 . S
C475 C473 1.381 . S
C475 C474 1.387 . S
C475 H495 0.931 . S
C476 C473 1.487 . S
C476 C483 1.399 . S
C476 N501 1.343 . S
C477 C478 1.384 . S
C477 C479 1.384 . S
C477 H496 0.931 . S
C478 C477 1.384 . S
C478 C481 1.382 . S
C479 C477 1.384 . S
C479 C480 1.381 . S
C479 H497 0.930 . S
C480 C479 1.381 . S
C480 C482 1.381 . S
C480 C483 1.487 . S
C481 C478 1.382 . S
C481 C482 1.387 . S
C481 H498 0.930 . S
C482 C480 1.381 . S
C482 C481 1.387 . S
C482 H499 0.931 . S
C483 C476 1.399 . S
C483 C480 1.487 . S
C483 N500 1.343 . S
H484 C456 0.931 . S
H485 C458 0.930 . S
H486 C460 0.930 . S
H487 C461 0.931 . S
H488 C463 0.931 . S
H489 C465 0.930 . S
H490 C467 0.930 . S
H491 C468 0.931 . S
H492 C470 0.931 . S
H493 C472 0.930 . S
H494 C474 0.930 . S
H495 C475 0.931 . S
H496 C477 0.931 . S
H497 C479 0.930 . S
H498 C481 0.930 . S
H499 C482 0.931 . S
N500 C462 1.343 . S
N500 C483 1.343 . S
N501 C469 1.343 . S
N501 C476 1.343 . S
C502 C503 1.384 . S
C502 C504 1.384 . S
C502 H530 0.931 . S
C503 C502 1.384 . S
C503 C506 1.382 . S
C504 C502 1.384 . S
C504 C505 1.381 . S
C504 H531 0.930 . S
C505 C504 1.381 . S
C505 C507 1.381 . S
C505 C508 1.487 . S
C506 C503 1.382 . S
C506 C507 1.387 . S
C506 H532 0.930 . S
C507 C505 1.381 . S
C507 C506 1.387 . S
C507 H533 0.931 . S
C508 C505 1.487 . S
C508 C515 1.399 . S
C508 N546 1.343 . S
C509 C510 1.384 . S
C509 C511 1.384 . S
C509 H534 0.931 . S
C510 C509 1.384 . S
C510 C513 1.382 . S
C511 C509 1.384 . S
C511 C512 1.381 . S
C511 H535 0.930 . S
C512 C511 1.381 . S
C512 C514 1.381 . S
C512 C515 1.487 . S
C513 C510 1.382 . S
C513 C514 1.387 . S
C513 H536 0.930 . S
C514 C512 1.381 . S
C514 C513 1.387 . S
C514 H537 0.931 . S
C515 C508 1.399 . S
C515 C512 1.487 . S
C515 N547 1.343 . S
C516 C517 1.384 . S
C516 C518 1.384 . S
C516 H538 0.931 . S
C517 C516 1.384 . S
C517 C520 1.382 . S
C518 C516 1.384 . S
C518 C519 1.381 . S
C518 H539 0.930 . S
C519 C518 1.381 . S
C519 C521 1.381 . S
C519 C522 1.487 . S
C520 C517 1.382 . S
C520 C521 1.387 . S
C520 H540 0.930 . S
C521 C519 1.381 . S
C521 C520 1.387 . S
C521 H541 0.931 . S
C522 C519 1.487 . S
C522 C529 1.399 . S
C522 N547 1.343 . S
C523 C524 1.384 . S
C523 C525 1.384 . S
C523 H542 0.931 . S
C524 C523 1.384 . S
C524 C527 1.382 . S
C525 C523 1.384 . S
C525 C526 1.381 . S
C525 H543 0.930 . S
C526 C525 1.381 . S
C526 C528 1.381 . S
C526 C529 1.487 . S
C527 C524 1.382 . S
C527 C528 1.387 . S
C527 H544 0.930 . S
C528 C526 1.381 . S
C528 C527 1.387 . S
C528 H545 0.931 . S
C529 C522 1.399 . S
C529 C526 1.487 . S
C529 N546 1.343 . S
H530 C502 0.931 . S
H531 C504 0.930 . S
H532 C506 0.930 . S
H533 C507 0.931 . S
H534 C509 0.931 . S
H535 C511 0.930 . S
H536 C513 0.930 . S
H537 C514 0.931 . S
H538 C516 0.931 . S
H539 C518 0.930 . S
H540 C520 0.930 . S
H541 C521 0.931 . S
H542 C523 0.931 . S
H543 C525 0.930 . S
H544 C527 0.930 . S
H545 C528 0.931 . S
N546 C508 1.343 . S
N546 C529 1.343 . S
N547 C515 1.343 . S
N547 C522 1.343 . S
C548 C549 1.384 . S
C548 C550 1.384 . S
C548 H576 0.931 . S
C549 C548 1.384 . S
C549 C552 1.382 . S
C550 C548 1.384 . S
C550 C551 1.381 . S
C550 H577 0.930 . S
C551 C550 1.381 . S
C551 C553 1.381 . S
C551 C554 1.487 . S
C552 C549 1.382 . S
C552 C553 1.387 . S
C552 H578 0.930 . S
C553 C551 1.381 . S
C553 C552 1.387 . S
C553 H579 0.931 . S
C554 C551 1.487 . S
C554 C561 1.399 . S
C554 N592 1.343 . S
C555 C556 1.384 . S
C555 C557 1.384 . S
C555 H580 0.931 . S
C556 C555 1.384 . S
C556 C559 1.382 . S
C557 C555 1.384 . S
C557 C558 1.381 . S
C557 H581 0.930 . S
C558 C557 1.381 . S
C558 C560 1.381 . S
C558 C561 1.487 . S
C559 C556 1.382 . S
C559 C560 1.387 . S
C559 H582 0.930 . S
C560 C558 1.381 . S
C560 C559 1.387 . S
C560 H583 0.931 . S
C561 C554 1.399 . S
C561 C558 1.487 . S
C561 N593 1.343 . S
C562 C563 1.384 . S
C562 C564 1.384 . S
C562 H584 0.931 . S
C563 C562 1.384 . S
C563 C566 1.382 . S
C564 C562 1.384 . S
C564 C565 1.381 . S
C564 H585 0.930 . S
C565 C564 1.381 . S
C565 C567 1.381 . S
C565 C568 1.487 . S
C566 C563 1.382 . S
C566 C567 1.387 . S
C566 H586 0.930 . S
C567 C565 1.381 . S
C567 C566 1.387 . S
C567 H587 0.931 . S
C568 C565 1.487 . S
C568 C575 1.399 . S
C568 N593 1.343 . S
C569 C570 1.384 . S
C569 C571 1.384 . S
C569 H588 0.931 . S
C570 C569 1.384 . S
C570 C573 1.382 . S
C571 C569 1.384 . S
C571 C572 1.381 . S
C571 H589 0.930 . S
C572 C571 1.381 . S
C572 C574 1.381 . S
C572 C575 1.487 . S
C573 C570 1.382 . S
C573 C574 1.387 . S
C573 H590 0.930 . S
C574 C572 1.381 . S
C574 C573 1.387 . S
C574 H591 0.931 . S
C575 C568 1.399 . S
C575 C572 1.487 . S
C575 N592 1.343 . S
H576 C548 0.931 . S
H577 C550 0.930 . S
H578 C552 0.930 . S
H579 C553 0.931 . S
H580 C555 0.931 . S
H581 C557 0.930 . S
H582 C559 0.930 . S
H583 C560 0.931 . S
H584 C562 0.931 . S
H585 C564 0.930 . S
H586 C566 0.930 . S
H587 C567 0.931 . S
H588 C569 0.931 . S
H589 C571 0.930 . S
H590 C573 0.930 . S
H591 C574 0.931 . S
N592 C554 1.343 . S
N592 C575 1.343 . S
N593 C561 1.343 . S
N593 C568 1.343 . S
C594 C595 1.391 . S
C594 C596 1.394 . S
C594 H610 0.931 . S
C595 C594 1.391 . S
C595 C599 1.376 . S
C596 C594 1.394 . S
C596 C597 1.369 . S
C596 C600 1.531 . S
C597 C596 1.369 . S
C597 C598 1.410 . S
C597 C605 1.503 . S
C598 C597 1.410 . S
C598 C599 1.392 . S
C598 C601 1.511 . S
C599 C595 1.376 . S
C599 C598 1.392 . S
C599 H611 0.929 . S
C600 C596 1.531 . S
C600 H612 0.960 . S
C600 H613 0.962 . S
C600 H614 0.960 . S
C601 C598 1.511 . S
C601 H615 0.961 . S
C601 H616 0.961 . S
C601 H617 0.961 . S
C602 C603 1.370 . S
C602 C604 1.363 . S
C602 H618 0.931 . S
C603 C602 1.370 . S
C603 C607 1.408 . S
C604 C602 1.363 . S
C604 C605 1.370 . S
C604 C608 1.524 . S
C605 C597 1.503 . S
C605 C604 1.370 . S
C605 C606 1.403 . S
C606 C605 1.403 . S
C606 C607 1.404 . S
C606 C609 1.539 . S
C607 C603 1.408 . S
C607 C606 1.404 . S
C607 H619 0.930 . S
C608 C604 1.524 . S
C608 H620 0.956 . S
C608 H621 0.961 . S
C608 H622 0.961 . S
C609 C606 1.539 . S
C609 H623 0.958 . S
C609 H624 0.961 . S
C609 H625 0.960 . S
H610 C594 0.931 . S
H611 C599 0.929 . S
H612 C600 0.960 . S
H613 C600 0.962 . S
H614 C600 0.960 . S
H615 C601 0.961 . S
H616 C601 0.961 . S
H617 C601 0.961 . S
H618 C602 0.931 . S
H619 C607 0.930 . S
H620 C608 0.956 . S
H621 C608 0.961 . S
H622 C608 0.961 . S
H623 C609 0.958 . S
H624 C609 0.961 . S
H625 C609 0.960 . S
C626 C627 1.391 . S
C626 C628 1.394 . S
C626 H642 0.931 . S
C627 C626 1.391 . S
C627 C631 1.376 . S
C628 C626 1.394 . S
C628 C629 1.369 . S
C628 C632 1.531 . S
C629 C628 1.369 . S
C629 C630 1.410 . S
C629 C637 1.503 . S
C630 C629 1.410 . S
C630 C631 1.392 . S
C630 C633 1.511 . S
C631 C627 1.376 . S
C631 C630 1.392 . S
C631 H643 0.929 . S
C632 C628 1.531 . S
C632 H644 0.960 . S
C632 H645 0.962 . S
C632 H646 0.960 . S
C633 C630 1.511 . S
C633 H647 0.961 . S
C633 H648 0.961 . S
C633 H649 0.961 . S
C634 C635 1.370 . S
C634 C636 1.363 . S
C634 H650 0.931 . S
C635 C634 1.370 . S
C635 C639 1.408 . S
C636 C634 1.363 . S
C636 C637 1.370 . S
C636 C640 1.524 . S
C637 C629 1.503 . S
C637 C636 1.370 . S
C637 C638 1.403 . S
C638 C637 1.403 . S
C638 C639 1.404 . S
C638 C641 1.539 . S
C639 C635 1.408 . S
C639 C638 1.404 . S
C639 H651 0.930 . S
C640 C636 1.524 . S
C640 H652 0.956 . S
C640 H653 0.961 . S
C640 H654 0.961 . S
C641 C638 1.539 . S
C641 H655 0.958 . S
C641 H656 0.961 . S
C641 H657 0.960 . S
H642 C626 0.931 . S
H643 C631 0.929 . S
H644 C632 0.960 . S
H645 C632 0.962 . S
H646 C632 0.960 . S
H647 C633 0.961 . S
H648 C633 0.961 . S
H649 C633 0.961 . S
H650 C634 0.931 . S
H651 C639 0.930 . S
H652 C640 0.956 . S
H653 C640 0.961 . S
H654 C640 0.961 . S
H655 C641 0.958 . S
H656 C641 0.961 . S
H657 C641 0.960 . S
C658 C659 1.391 . S
C658 C660 1.394 . S
C658 H674 0.931 . S
C659 C658 1.391 . S
C659 C663 1.376 . S
C660 C658 1.394 . S
C660 C661 1.369 . S
C660 C664 1.531 . S
C661 C660 1.369 . S
C661 C662 1.410 . S
C661 C669 1.503 . S
C662 C661 1.410 . S
C662 C663 1.392 . S
C662 C665 1.511 . S
C663 C659 1.376 . S
C663 C662 1.392 . S
C663 H675 0.929 . S
C664 C660 1.531 . S
C664 H676 0.960 . S
C664 H677 0.962 . S
C664 H678 0.960 . S
C665 C662 1.511 . S
C665 H679 0.961 . S
C665 H680 0.961 . S
C665 H681 0.961 . S
C666 C667 1.370 . S
C666 C668 1.363 . S
C666 H682 0.931 . S
C667 C666 1.370 . S
C667 C671 1.408 . S
C668 C666 1.363 . S
C668 C669 1.370 . S
C668 C672 1.524 . S
C669 C661 1.503 . S
C669 C668 1.370 . S
C669 C670 1.403 . S
C670 C669 1.403 . S
C670 C671 1.404 . S
C670 C673 1.539 . S
C671 C667 1.408 . S
C671 C670 1.404 . S
C671 H683 0.930 . S
C672 C668 1.524 . S
C672 H684 0.956 . S
C672 H685 0.961 . S
C672 H686 0.961 . S
C673 C670 1.539 . S
C673 H687 0.958 . S
C673 H688 0.961 . S
C673 H689 0.960 . S
H674 C658 0.931 . S
H675 C663 0.929 . S
H676 C664 0.960 . S
H677 C664 0.962 . S
H678 C664 0.960 . S
H679 C665 0.961 . S
H680 C665 0.961 . S
H681 C665 0.961 . S
H682 C666 0.931 . S
H683 C671 0.930 . S
H684 C672 0.956 . S
H685 C672 0.961 . S
H686 C672 0.961 . S
H687 C673 0.958 . S
H688 C673 0.961 . S
H689 C673 0.960 . S
C690 C691 1.391 . S
C690 C692 1.394 . S
C690 H706 0.931 . S
C691 C690 1.391 . S
C691 C695 1.376 . S
C692 C690 1.394 . S
C692 C693 1.369 . S
C692 C696 1.531 . S
C693 C692 1.369 . S
C693 C694 1.410 . S
C693 C701 1.503 . S
C694 C693 1.410 . S
C694 C695 1.392 . S
C694 C697 1.511 . S
C695 C691 1.376 . S
C695 C694 1.392 . S
C695 H707 0.929 . S
C696 C692 1.531 . S
C696 H708 0.960 . S
C696 H709 0.962 . S
C696 H710 0.960 . S
C697 C694 1.511 . S
C697 H711 0.961 . S
C697 H712 0.961 . S
C697 H713 0.961 . S
C698 C699 1.370 . S
C698 C700 1.363 . S
C698 H714 0.931 . S
C699 C698 1.370 . S
C699 C703 1.408 . S
C700 C698 1.363 . S
C700 C701 1.370 . S
C700 C704 1.524 . S
C701 C693 1.503 . S
C701 C700 1.370 . S
C701 C702 1.403 . S
C702 C701 1.403 . S
C702 C703 1.404 . S
C702 C705 1.539 . S
C703 C699 1.408 . S
C703 C702 1.404 . S
C703 H715 0.930 . S
C704 C700 1.524 . S
C704 H716 0.956 . S
C704 H717 0.961 . S
C704 H718 0.961 . S
C705 C702 1.539 . S
C705 H719 0.958 . S
C705 H720 0.961 . S
C705 H721 0.960 . S
H706 C690 0.931 . S
H707 C695 0.929 . S
H708 C696 0.960 . S
H709 C696 0.962 . S
H710 C696 0.960 . S
H711 C697 0.961 . S
H712 C697 0.961 . S
H713 C697 0.961 . S
H714 C698 0.931 . S
H715 C703 0.930 . S
H716 C704 0.956 . S
H717 C704 0.961 . S
H718 C704 0.961 . S
H719 C705 0.958 . S
H720 C705 0.961 . S
H721 C705 0.960 . S
C722 C723 1.391 . S
C722 C724 1.394 . S
C722 H738 0.931 . S
C723 C722 1.391 . S
C723 C727 1.376 . S
C724 C722 1.394 . S
C724 C725 1.369 . S
C724 C728 1.531 . S
C725 C724 1.369 . S
C725 C726 1.410 . S
C725 C733 1.503 . S
C726 C725 1.410 . S
C726 C727 1.392 . S
C726 C729 1.511 . S
C727 C723 1.376 . S
C727 C726 1.392 . S
C727 H739 0.929 . S
C728 C724 1.531 . S
C728 H740 0.960 . S
C728 H741 0.962 . S
C728 H742 0.960 . S
C729 C726 1.511 . S
C729 H743 0.961 . S
C729 H744 0.961 . S
C729 H745 0.961 . S
C730 C731 1.370 . S
C730 C732 1.363 . S
C730 H746 0.931 . S
C731 C730 1.370 . S
C731 C735 1.408 . S
C732 C730 1.363 . S
C732 C733 1.370 . S
C732 C736 1.524 . S
C733 C725 1.503 . S
C733 C732 1.370 . S
C733 C734 1.403 . S
C734 C733 1.403 . S
C734 C735 1.404 . S
C734 C737 1.539 . S
C735 C731 1.408 . S
C735 C734 1.404 . S
C735 H747 0.930 . S
C736 C732 1.524 . S
C736 H748 0.956 . S
C736 H749 0.961 . S
C736 H750 0.961 . S
C737 C734 1.539 . S
C737 H751 0.958 . S
C737 H752 0.961 . S
C737 H753 0.960 . S
H738 C722 0.931 . S
H739 C727 0.929 . S
H740 C728 0.960 . S
H741 C728 0.962 . S
H742 C728 0.960 . S
H743 C729 0.961 . S
H744 C729 0.961 . S
H745 C729 0.961 . S
H746 C730 0.931 . S
H747 C735 0.930 . S
H748 C736 0.956 . S
H749 C736 0.961 . S
H750 C736 0.961 . S
H751 C737 0.958 . S
H752 C737 0.961 . S
H753 C737 0.960 . S
C754 C755 1.391 . S
C754 C756 1.394 . S
C754 H770 0.931 . S
C755 C754 1.391 . S
C755 C759 1.376 . S
C756 C754 1.394 . S
C756 C757 1.369 . S
C756 C760 1.531 . S
C757 C756 1.369 . S
C757 C758 1.410 . S
C757 C765 1.503 . S
C758 C757 1.410 . S
C758 C759 1.392 . S
C758 C761 1.511 . S
C759 C755 1.376 . S
C759 C758 1.392 . S
C759 H771 0.929 . S
C760 C756 1.531 . S
C760 H772 0.960 . S
C760 H773 0.962 . S
C760 H774 0.960 . S
C761 C758 1.511 . S
C761 H775 0.961 . S
C761 H776 0.961 . S
C761 H777 0.961 . S
C762 C763 1.370 . S
C762 C764 1.363 . S
C762 H778 0.931 . S
C763 C762 1.370 . S
C763 C767 1.408 . S
C764 C762 1.363 . S
C764 C765 1.370 . S
C764 C768 1.524 . S
C765 C757 1.503 . S
C765 C764 1.370 . S
C765 C766 1.403 . S
C766 C765 1.403 . S
C766 C767 1.404 . S
C766 C769 1.539 . S
C767 C763 1.408 . S
C767 C766 1.404 . S
C767 H779 0.930 . S
C768 C764 1.524 . S
C768 H780 0.956 . S
C768 H781 0.961 . S
C768 H782 0.961 . S
C769 C766 1.539 . S
C769 H783 0.958 . S
C769 H784 0.961 . S
C769 H785 0.960 . S
H770 C754 0.931 . S
H771 C759 0.929 . S
H772 C760 0.960 . S
H773 C760 0.962 . S
H774 C760 0.960 . S
H775 C761 0.961 . S
H776 C761 0.961 . S
H777 C761 0.961 . S
H778 C762 0.931 . S
H779 C767 0.930 . S
H780 C768 0.956 . S
H781 C768 0.961 . S
H782 C768 0.961 . S
H783 C769 0.958 . S
H784 C769 0.961 . S
H785 C769 0.960 . S
C786 C787 1.391 . S
C786 C788 1.394 . S
C786 H802 0.931 . S
C787 C786 1.391 . S
C787 C791 1.376 . S
C788 C786 1.394 . S
C788 C789 1.369 . S
C788 C792 1.531 . S
C789 C788 1.369 . S
C789 C790 1.410 . S
C789 C797 1.503 . S
C790 C789 1.410 . S
C790 C791 1.392 . S
C790 C793 1.511 . S
C791 C787 1.376 . S
C791 C790 1.392 . S
C791 H803 0.929 . S
C792 C788 1.531 . S
C792 H804 0.960 . S
C792 H805 0.962 . S
C792 H806 0.960 . S
C793 C790 1.511 . S
C793 H807 0.961 . S
C793 H808 0.961 . S
C793 H809 0.961 . S
C794 C795 1.370 . S
C794 C796 1.363 . S
C794 H810 0.931 . S
C795 C794 1.370 . S
C795 C799 1.408 . S
C796 C794 1.363 . S
C796 C797 1.370 . S
C796 C800 1.524 . S
C797 C789 1.503 . S
C797 C796 1.370 . S
C797 C798 1.403 . S
C798 C797 1.403 . S
C798 C799 1.404 . S
C798 C801 1.539 . S
C799 C795 1.408 . S
C799 C798 1.404 . S
C799 H811 0.930 . S
C800 C796 1.524 . S
C800 H812 0.956 . S
C800 H813 0.961 . S
C800 H814 0.961 . S
C801 C798 1.539 . S
C801 H815 0.958 . S
C801 H816 0.961 . S
C801 H817 0.960 . S
H802 C786 0.931 . S
H803 C791 0.929 . S
H804 C792 0.960 . S
H805 C792 0.962 . S
H806 C792 0.960 . S
H807 C793 0.961 . S
H808 C793 0.961 . S
H809 C793 0.961 . S
H810 C794 0.931 . S
H811 C799 0.930 . S
H812 C800 0.956 . S
H813 C800 0.961 . S
H814 C800 0.961 . S
H815 C801 0.958 . S
H816 C801 0.961 . S
H817 C801 0.960 . S
C818 C819 1.391 . S
C818 C820 1.394 . S
C818 H834 0.931 . S
C819 C818 1.391 . S
C819 C823 1.376 . S
C820 C818 1.394 . S
C820 C821 1.369 . S
C820 C824 1.531 . S
C821 C820 1.369 . S
C821 C822 1.410 . S
C821 C829 1.503 . S
C822 C821 1.410 . S
C822 C823 1.392 . S
C822 C825 1.511 . S
C823 C819 1.376 . S
C823 C822 1.392 . S
C823 H835 0.929 . S
C824 C820 1.531 . S
C824 H836 0.960 . S
C824 H837 0.962 . S
C824 H838 0.960 . S
C825 C822 1.511 . S
C825 H839 0.961 . S
C825 H840 0.961 . S
C825 H841 0.961 . S
C826 C827 1.370 . S
C826 C828 1.363 . S
C826 H842 0.931 . S
C827 C826 1.370 . S
C827 C831 1.408 . S
C828 C826 1.363 . S
C828 C829 1.370 . S
C828 C832 1.524 . S
C829 C821 1.503 . S
C829 C828 1.370 . S
C829 C830 1.403 . S
C830 C829 1.403 . S
C830 C831 1.404 . S
C830 C833 1.539 . S
C831 C827 1.408 . S
C831 C830 1.404 . S
C831 H843 0.930 . S
C832 C828 1.524 . S
C832 H844 0.956 . S
C832 H845 0.961 . S
C832 H846 0.961 . S
C833 C830 1.539 . S
C833 H847 0.958 . S
C833 H848 0.961 . S
C833 H849 0.960 . S
H834 C818 0.931 . S
H835 C823 0.929 . S
H836 C824 0.960 . S
H837 C824 0.962 . S
H838 C824 0.960 . S
H839 C825 0.961 . S
H840 C825 0.961 . S
H841 C825 0.961 . S
H842 C826 0.931 . S
H843 C831 0.930 . S
H844 C832 0.956 . S
H845 C832 0.961 . S
H846 C832 0.961 . S
H847 C833 0.958 . S
H848 C833 0.961 . S
H849 C833 0.960 . S
C850 C851 1.391 . S
C850 C852 1.394 . S
C850 H866 0.931 . S
C851 C850 1.391 . S
C851 C855 1.376 . S
C852 C850 1.394 . S
C852 C853 1.369 . S
C852 C856 1.531 . S
C853 C852 1.369 . S
C853 C854 1.410 . S
C853 C861 1.503 . S
C854 C853 1.410 . S
C854 C855 1.392 . S
C854 C857 1.511 . S
C855 C851 1.376 . S
C855 C854 1.392 . S
C855 H867 0.929 . S
C856 C852 1.531 . S
C856 H868 0.960 . S
C856 H869 0.962 . S
C856 H870 0.960 . S
C857 C854 1.511 . S
C857 H871 0.961 . S
C857 H872 0.961 . S
C857 H873 0.961 . S
C858 C859 1.370 . S
C858 C860 1.363 . S
C858 H874 0.931 . S
C859 C858 1.370 . S
C859 C863 1.408 . S
C860 C858 1.363 . S
C860 C861 1.370 . S
C860 C864 1.524 . S
C861 C853 1.503 . S
C861 C860 1.370 . S
C861 C862 1.403 . S
C862 C861 1.403 . S
C862 C863 1.404 . S
C862 C865 1.539 . S
C863 C859 1.408 . S
C863 C862 1.404 . S
C863 H875 0.930 . S
C864 C860 1.524 . S
C864 H876 0.956 . S
C864 H877 0.961 . S
C864 H878 0.961 . S
C865 C862 1.539 . S
C865 H879 0.958 . S
C865 H880 0.961 . S
C865 H881 0.960 . S
H866 C850 0.931 . S
H867 C855 0.929 . S
H868 C856 0.960 . S
H869 C856 0.962 . S
H870 C856 0.960 . S
H871 C857 0.961 . S
H872 C857 0.961 . S
H873 C857 0.961 . S
H874 C858 0.931 . S
H875 C863 0.930 . S
H876 C864 0.956 . S
H877 C864 0.961 . S
H878 C864 0.961 . S
H879 C865 0.958 . S
H880 C865 0.961 . S
H881 C865 0.960 . S
C882 C883 1.391 . S
C882 C884 1.394 . S
C882 H898 0.931 . S
C883 C882 1.391 . S
C883 C887 1.376 . S
C884 C882 1.394 . S
C884 C885 1.369 . S
C884 C888 1.531 . S
C885 C884 1.369 . S
C885 C886 1.410 . S
C885 C893 1.503 . S
C886 C885 1.410 . S
C886 C887 1.392 . S
C886 C889 1.511 . S
C887 C883 1.376 . S
C887 C886 1.392 . S
C887 H899 0.929 . S
C888 C884 1.531 . S
C888 H900 0.960 . S
C888 H901 0.962 . S
C888 H902 0.960 . S
C889 C886 1.511 . S
C889 H903 0.961 . S
C889 H904 0.961 . S
C889 H905 0.961 . S
C890 C891 1.370 . S
C890 C892 1.363 . S
C890 H906 0.931 . S
C891 C890 1.370 . S
C891 C895 1.408 . S
C892 C890 1.363 . S
C892 C893 1.370 . S
C892 C896 1.524 . S
C893 C885 1.503 . S
C893 C892 1.370 . S
C893 C894 1.403 . S
C894 C893 1.403 . S
C894 C895 1.404 . S
C894 C897 1.539 . S
C895 C891 1.408 . S
C895 C894 1.404 . S
C895 H907 0.930 . S
C896 C892 1.524 . S
C896 H908 0.956 . S
C896 H909 0.961 . S
C896 H910 0.961 . S
C897 C894 1.539 . S
C897 H911 0.958 . S
C897 H912 0.961 . S
C897 H913 0.960 . S
H898 C882 0.931 . S
H899 C887 0.929 . S
H900 C888 0.960 . S
H901 C888 0.962 . S
H902 C888 0.960 . S
H903 C889 0.961 . S
H904 C889 0.961 . S
H905 C889 0.961 . S
H906 C890 0.931 . S
H907 C895 0.930 . S
H908 C896 0.956 . S
H909 C896 0.961 . S
H910 C896 0.961 . S
H911 C897 0.958 . S
H912 C897 0.961 . S
H913 C897 0.960 . S
C914 C915 1.391 . S
C914 C916 1.394 . S
C914 H930 0.931 . S
C915 C914 1.391 . S
C915 C919 1.376 . S
C916 C914 1.394 . S
C916 C917 1.369 . S
C916 C920 1.531 . S
C917 C916 1.369 . S
C917 C918 1.410 . S
C917 C925 1.503 . S
C918 C917 1.410 . S
C918 C919 1.392 . S
C918 C921 1.511 . S
C919 C915 1.376 . S
C919 C918 1.392 . S
C919 H931 0.929 . S
C920 C916 1.531 . S
C920 H932 0.960 . S
C920 H933 0.962 . S
C920 H934 0.960 . S
C921 C918 1.511 . S
C921 H935 0.961 . S
C921 H936 0.961 . S
C921 H937 0.961 . S
C922 C923 1.370 . S
C922 C924 1.363 . S
C922 H938 0.931 . S
C923 C922 1.370 . S
C923 C927 1.408 . S
C924 C922 1.363 . S
C924 C925 1.370 . S
C924 C928 1.524 . S
C925 C917 1.503 . S
C925 C924 1.370 . S
C925 C926 1.403 . S
C926 C925 1.403 . S
C926 C927 1.404 . S
C926 C929 1.539 . S
C927 C923 1.408 . S
C927 C926 1.404 . S
C927 H939 0.930 . S
C928 C924 1.524 . S
C928 H940 0.956 . S
C928 H941 0.961 . S
C928 H942 0.961 . S
C929 C926 1.539 . S
C929 H943 0.958 . S
C929 H944 0.961 . S
C929 H945 0.960 . S
H930 C914 0.931 . S
H931 C919 0.929 . S
H932 C920 0.960 . S
H933 C920 0.962 . S
H934 C920 0.960 . S
H935 C921 0.961 . S
H936 C921 0.961 . S
H937 C921 0.961 . S
H938 C922 0.931 . S
H939 C927 0.930 . S
H940 C928 0.956 . S
H941 C928 0.961 . S
H942 C928 0.961 . S
H943 C929 0.958 . S
H944 C929 0.961 . S
H945 C929 0.960 . S
C946 C947 1.391 . S
C946 C948 1.394 . S
C946 H962 0.931 . S
C947 C946 1.391 . S
C947 C951 1.376 . S
C948 C946 1.394 . S
C948 C949 1.369 . S
C948 C952 1.531 . S
C949 C948 1.369 . S
C949 C950 1.410 . S
C949 C957 1.503 . S
C950 C949 1.410 . S
C950 C951 1.392 . S
C950 C953 1.511 . S
C951 C947 1.376 . S
C951 C950 1.392 . S
C951 H963 0.929 . S
C952 C948 1.531 . S
C952 H964 0.960 . S
C952 H965 0.962 . S
C952 H966 0.960 . S
C953 C950 1.511 . S
C953 H967 0.961 . S
C953 H968 0.961 . S
C953 H969 0.961 . S
C954 C955 1.370 . S
C954 C956 1.363 . S
C954 H970 0.931 . S
C955 C954 1.370 . S
C955 C959 1.408 . S
C956 C954 1.363 . S
C956 C957 1.370 . S
C956 C960 1.524 . S
C957 C949 1.503 . S
C957 C956 1.370 . S
C957 C958 1.403 . S
C958 C957 1.403 . S
C958 C959 1.404 . S
C958 C961 1.539 . S
C959 C955 1.408 . S
C959 C958 1.404 . S
C959 H971 0.930 . S
C960 C956 1.524 . S
C960 H972 0.956 . S
C960 H973 0.961 . S
C960 H974 0.961 . S
C961 C958 1.539 . S
C961 H975 0.958 . S
C961 H976 0.961 . S
C961 H977 0.960 . S
H962 C946 0.931 . S
H963 C951 0.929 . S
H964 C952 0.960 . S
H965 C952 0.962 . S
H966 C952 0.960 . S
H967 C953 0.961 . S
H968 C953 0.961 . S
H969 C953 0.961 . S
H970 C954 0.931 . S
H971 C959 0.930 . S
H972 C960 0.956 . S
H973 C960 0.961 . S
H974 C960 0.961 . S
H975 C961 0.958 . S
H976 C961 0.961 . S
H977 C961 0.960 . S
C978 C979 1.391 . S
C978 C980 1.394 . S
C978 H994 0.931 . S
C979 C978 1.391 . S
C979 C983 1.376 . S
C980 C978 1.394 . S
C980 C981 1.369 . S
C980 C984 1.531 . S
C981 C980 1.369 . S
C981 C982 1.410 . S
C981 C989 1.503 . S
C982 C981 1.410 . S
C982 C983 1.392 . S
C982 C985 1.511 . S
C983 C979 1.376 . S
C983 C982 1.392 . S
C983 H995 0.929 . S
C984 C980 1.531 . S
C984 H996 0.960 . S
C984 H997 0.962 . S
C984 H998 0.960 . S
C985 C982 1.511 . S
C985 H999 0.961 . S
C985 H1000 0.961 . S
C985 H1001 0.961 . S
C986 C987 1.370 . S
C986 C988 1.363 . S
C986 H1002 0.931 . S
C987 C986 1.370 . S
C987 C991 1.408 . S
C988 C986 1.363 . S
C988 C989 1.370 . S
C988 C992 1.524 . S
C989 C981 1.503 . S
C989 C988 1.370 . S
C989 C990 1.403 . S
C990 C989 1.403 . S
C990 C991 1.404 . S
C990 C993 1.539 . S
C991 C987 1.408 . S
C991 C990 1.404 . S
C991 H1003 0.930 . S
C992 C988 1.524 . S
C992 H1004 0.956 . S
C992 H1005 0.961 . S
C992 H1006 0.961 . S
C993 C990 1.539 . S
C993 H1007 0.958 . S
C993 H1008 0.961 . S
C993 H1009 0.960 . S
H994 C978 0.931 . S
H995 C983 0.929 . S
H996 C984 0.960 . S
H997 C984 0.962 . S
H998 C984 0.960 . S
H999 C985 0.961 . S
H1000 C985 0.961 . S
H1001 C985 0.961 . S
H1002 C986 0.931 . S
H1003 C991 0.930 . S
H1004 C992 0.956 . S
H1005 C992 0.961 . S
H1006 C992 0.961 . S
H1007 C993 0.958 . S
H1008 C993 0.961 . S
H1009 C993 0.960 . S
C1010 C1011 1.391 . S
C1010 C1012 1.394 . S
C1010 H1026 0.931 . S
C1011 C1010 1.391 . S
C1011 C1015 1.376 . S
C1012 C1010 1.394 . S
C1012 C1013 1.369 . S
C1012 C1016 1.531 . S
C1013 C1012 1.369 . S
C1013 C1014 1.410 . S
C1013 C1021 1.503 . S
C1014 C1013 1.410 . S
C1014 C1015 1.392 . S
C1014 C1017 1.511 . S
C1015 C1011 1.376 . S
C1015 C1014 1.392 . S
C1015 H1027 0.929 . S
C1016 C1012 1.531 . S
C1016 H1028 0.960 . S
C1016 H1029 0.962 . S
C1016 H1030 0.960 . S
C1017 C1014 1.511 . S
C1017 H1031 0.961 . S
C1017 H1032 0.961 . S
C1017 H1033 0.961 . S
C1018 C1019 1.370 . S
C1018 C1020 1.363 . S
C1018 H1034 0.931 . S
C1019 C1018 1.370 . S
C1019 C1023 1.408 . S
C1020 C1018 1.363 . S
C1020 C1021 1.370 . S
C1020 C1024 1.524 . S
C1021 C1013 1.503 . S
C1021 C1020 1.370 . S
C1021 C1022 1.403 . S
C1022 C1021 1.403 . S
C1022 C1023 1.404 . S
C1022 C1025 1.539 . S
C1023 C1019 1.408 . S
C1023 C1022 1.404 . S
C1023 H1035 0.930 . S
C1024 C1020 1.524 . S
C1024 H1036 0.956 . S
C1024 H1037 0.961 . S
C1024 H1038 0.961 . S
C1025 C1022 1.539 . S
C1025 H1039 0.958 . S
C1025 H1040 0.961 . S
C1025 H1041 0.960 . S
H1026 C1010 0.931 . S
H1027 C1015 0.929 . S
H1028 C1016 0.960 . S
H1029 C1016 0.962 . S
H1030 C1016 0.960 . S
H1031 C1017 0.961 . S
H1032 C1017 0.961 . S
H1033 C1017 0.961 . S
H1034 C1018 0.931 . S
H1035 C1023 0.930 . S
H1036 C1024 0.956 . S
H1037 C1024 0.961 . S
H1038 C1024 0.961 . S
H1039 C1025 0.958 . S
H1040 C1025 0.961 . S
H1041 C1025 0.960 . S
C1042 C1043 1.391 . S
C1042 C1044 1.394 . S
C1042 H1058 0.931 . S
C1043 C1042 1.391 . S
C1043 C1047 1.376 . S
C1044 C1042 1.394 . S
C1044 C1045 1.369 . S
C1044 C1048 1.531 . S
C1045 C1044 1.369 . S
C1045 C1046 1.410 . S
C1045 C1053 1.503 . S
C1046 C1045 1.410 . S
C1046 C1047 1.392 . S
C1046 C1049 1.511 . S
C1047 C1043 1.376 . S
C1047 C1046 1.392 . S
C1047 H1059 0.929 . S
C1048 C1044 1.531 . S
C1048 H1060 0.960 . S
C1048 H1061 0.962 . S
C1048 H1062 0.960 . S
C1049 C1046 1.511 . S
C1049 H1063 0.961 . S
C1049 H1064 0.961 . S
C1049 H1065 0.961 . S
C1050 C1051 1.370 . S
C1050 C1052 1.363 . S
C1050 H1066 0.931 . S
C1051 C1050 1.370 . S
C1051 C1055 1.408 . S
C1052 C1050 1.363 . S
C1052 C1053 1.370 . S
C1052 C1056 1.524 . S
C1053 C1045 1.503 . S
C1053 C1052 1.370 . S
C1053 C1054 1.403 . S
C1054 C1053 1.403 . S
C1054 C1055 1.404 . S
C1054 C1057 1.539 . S
C1055 C1051 1.408 . S
C1055 C1054 1.404 . S
C1055 H1067 0.930 . S
C1056 C1052 1.524 . S
C1056 H1068 0.956 . S
C1056 H1069 0.961 . S
C1056 H1070 0.961 . S
C1057 C1054 1.539 . S
C1057 H1071 0.958 . S
C1057 H1072 0.961 . S
C1057 H1073 0.960 . S
H1058 C1042 0.931 . S
H1059 C1047 0.929 . S
H1060 C1048 0.960 . S
H1061 C1048 0.962 . S
H1062 C1048 0.960 . S
H1063 C1049 0.961 . S
H1064 C1049 0.961 . S
H1065 C1049 0.961 . S
H1066 C1050 0.931 . S
H1067 C1055 0.930 . S
H1068 C1056 0.956 . S
H1069 C1056 0.961 . S
H1070 C1056 0.961 . S
H1071 C1057 0.958 . S
H1072 C1057 0.961 . S
H1073 C1057 0.960 . S
C1074 C1075 1.391 . S
C1074 C1076 1.394 . S
C1074 H1090 0.931 . S
C1075 C1074 1.391 . S
C1075 C1079 1.376 . S
C1076 C1074 1.394 . S
C1076 C1077 1.369 . S
C1076 C1080 1.531 . S
C1077 C1076 1.369 . S
C1077 C1078 1.410 . S
C1077 C1085 1.503 . S
C1078 C1077 1.410 . S
C1078 C1079 1.392 . S
C1078 C1081 1.511 . S
C1079 C1075 1.376 . S
C1079 C1078 1.392 . S
C1079 H1091 0.929 . S
C1080 C1076 1.531 . S
C1080 H1092 0.960 . S
C1080 H1093 0.962 . S
C1080 H1094 0.960 . S
C1081 C1078 1.511 . S
C1081 H1095 0.961 . S
C1081 H1096 0.961 . S
C1081 H1097 0.961 . S
C1082 C1083 1.370 . S
C1082 C1084 1.363 . S
C1082 H1098 0.931 . S
C1083 C1082 1.370 . S
C1083 C1087 1.408 . S
C1084 C1082 1.363 . S
C1084 C1085 1.370 . S
C1084 C1088 1.524 . S
C1085 C1077 1.503 . S
C1085 C1084 1.370 . S
C1085 C1086 1.403 . S
C1086 C1085 1.403 . S
C1086 C1087 1.404 . S
C1086 C1089 1.539 . S
C1087 C1083 1.408 . S
C1087 C1086 1.404 . S
C1087 H1099 0.930 . S
C1088 C1084 1.524 . S
C1088 H1100 0.956 . S
C1088 H1101 0.961 . S
C1088 H1102 0.961 . S
C1089 C1086 1.539 . S
C1089 H1103 0.958 . S
C1089 H1104 0.961 . S
C1089 H1105 0.960 . S
H1090 C1074 0.931 . S
H1091 C1079 0.929 . S
H1092 C1080 0.960 . S
H1093 C1080 0.962 . S
H1094 C1080 0.960 . S
H1095 C1081 0.961 . S
H1096 C1081 0.961 . S
H1097 C1081 0.961 . S
H1098 C1082 0.931 . S
H1099 C1087 0.930 . S
H1100 C1088 0.956 . S
H1101 C1088 0.961 . S
H1102 C1088 0.961 . S
H1103 C1089 0.958 . S
H1104 C1089 0.961 . S
H1105 C1089 0.960 . S
C1106 C1107 1.391 . S
C1106 C1108 1.394 . S
C1106 H1122 0.931 . S
C1107 C1106 1.391 . S
C1107 C1111 1.376 . S
C1108 C1106 1.394 . S
C1108 C1109 1.369 . S
C1108 C1112 1.531 . S
C1109 C1108 1.369 . S
C1109 C1110 1.410 . S
C1109 C1117 1.503 . S
C1110 C1109 1.410 . S
C1110 C1111 1.392 . S
C1110 C1113 1.511 . S
C1111 C1107 1.376 . S
C1111 C1110 1.392 . S
C1111 H1123 0.929 . S
C1112 C1108 1.531 . S
C1112 H1124 0.960 . S
C1112 H1125 0.962 . S
C1112 H1126 0.960 . S
C1113 C1110 1.511 . S
C1113 H1127 0.961 . S
C1113 H1128 0.961 . S
C1113 H1129 0.961 . S
C1114 C1115 1.370 . S
C1114 C1116 1.363 . S
C1114 H1130 0.931 . S
C1115 C1114 1.370 . S
C1115 C1119 1.408 . S
C1116 C1114 1.363 . S
C1116 C1117 1.370 . S
C1116 C1120 1.524 . S
C1117 C1109 1.503 . S
C1117 C1116 1.370 . S
C1117 C1118 1.403 . S
C1118 C1117 1.403 . S
C1118 C1119 1.404 . S
C1118 C1121 1.539 . S
C1119 C1115 1.408 . S
C1119 C1118 1.404 . S
C1119 H1131 0.930 . S
C1120 C1116 1.524 . S
C1120 H1132 0.956 . S
C1120 H1133 0.961 . S
C1120 H1134 0.961 . S
C1121 C1118 1.539 . S
C1121 H1135 0.958 . S
C1121 H1136 0.961 . S
C1121 H1137 0.960 . S
H1122 C1106 0.931 . S
H1123 C1111 0.929 . S
H1124 C1112 0.960 . S
H1125 C1112 0.962 . S
H1126 C1112 0.960 . S
H1127 C1113 0.961 . S
H1128 C1113 0.961 . S
H1129 C1113 0.961 . S
H1130 C1114 0.931 . S
H1131 C1119 0.930 . S
H1132 C1120 0.956 . S
H1133 C1120 0.961 . S
H1134 C1120 0.961 . S
H1135 C1121 0.958 . S
H1136 C1121 0.961 . S
H1137 C1121 0.960 . S
C1138 C1139 1.391 . S
C1138 C1140 1.394 . S
C1138 H1154 0.931 . S
C1139 C1138 1.391 . S
C1139 C1143 1.376 . S
C1140 C1138 1.394 . S
C1140 C1141 1.369 . S
C1140 C1144 1.531 . S
C1141 C1140 1.369 . S
C1141 C1142 1.410 . S
C1141 C1149 1.503 . S
C1142 C1141 1.410 . S
C1142 C1143 1.392 . S
C1142 C1145 1.511 . S
C1143 C1139 1.376 . S
C1143 C1142 1.392 . S
C1143 H1155 0.929 . S
C1144 C1140 1.531 . S
C1144 H1156 0.960 . S
C1144 H1157 0.962 . S
C1144 H1158 0.960 . S
C1145 C1142 1.511 . S
C1145 H1159 0.961 . S
C1145 H1160 0.961 . S
C1145 H1161 0.961 . S
C1146 C1147 1.370 . S
C1146 C1148 1.363 . S
C1146 H1162 0.931 . S
C1147 C1146 1.370 . S
C1147 C1151 1.408 . S
C1148 C1146 1.363 . S
C1148 C1149 1.370 . S
C1148 C1152 1.524 . S
C1149 C1141 1.503 . S
C1149 C1148 1.370 . S
C1149 C1150 1.403 . S
C1150 C1149 1.403 . S
C1150 C1151 1.404 . S
C1150 C1153 1.539 . S
C1151 C1147 1.408 . S
C1151 C1150 1.404 . S
C1151 H1163 0.930 . S
C1152 C1148 1.524 . S
C1152 H1164 0.956 . S
C1152 H1165 0.961 . S
C1152 H1166 0.961 . S
C1153 C1150 1.539 . S
C1153 H1167 0.958 . S
C1153 H1168 0.961 . S
C1153 H1169 0.960 . S
H1154 C1138 0.931 . S
H1155 C1143 0.929 . S
H1156 C1144 0.960 . S
H1157 C1144 0.962 . S
H1158 C1144 0.960 . S
H1159 C1145 0.961 . S
H1160 C1145 0.961 . S
H1161 C1145 0.961 . S
H1162 C1146 0.931 . S
H1163 C1151 0.930 . S
H1164 C1152 0.956 . S
H1165 C1152 0.961 . S
H1166 C1152 0.961 . S
H1167 C1153 0.958 . S
H1168 C1153 0.961 . S
H1169 C1153 0.960 . S
C1170 C1171 1.391 . S
C1170 C1172 1.394 . S
C1170 H1186 0.931 . S
C1171 C1170 1.391 . S
C1171 C1175 1.376 . S
C1172 C1170 1.394 . S
C1172 C1173 1.369 . S
C1172 C1176 1.531 . S
C1173 C1172 1.369 . S
C1173 C1174 1.410 . S
C1173 C1181 1.503 . S
C1174 C1173 1.410 . S
C1174 C1175 1.392 . S
C1174 C1177 1.511 . S
C1175 C1171 1.376 . S
C1175 C1174 1.392 . S
C1175 H1187 0.929 . S
C1176 C1172 1.531 . S
C1176 H1188 0.960 . S
C1176 H1189 0.962 . S
C1176 H1190 0.960 . S
C1177 C1174 1.511 . S
C1177 H1191 0.961 . S
C1177 H1192 0.961 . S
C1177 H1193 0.961 . S
C1178 C1179 1.370 . S
C1178 C1180 1.363 . S
C1178 H1194 0.931 . S
C1179 C1178 1.370 . S
C1179 C1183 1.408 . S
C1180 C1178 1.363 . S
C1180 C1181 1.370 . S
C1180 C1184 1.524 . S
C1181 C1173 1.503 . S
C1181 C1180 1.370 . S
C1181 C1182 1.403 . S
C1182 C1181 1.403 . S
C1182 C1183 1.404 . S
C1182 C1185 1.539 . S
C1183 C1179 1.408 . S
C1183 C1182 1.404 . S
C1183 H1195 0.930 . S
C1184 C1180 1.524 . S
C1184 H1196 0.956 . S
C1184 H1197 0.961 . S
C1184 H1198 0.961 . S
C1185 C1182 1.539 . S
C1185 H1199 0.958 . S
C1185 H1200 0.961 . S
C1185 H1201 0.960 . S
H1186 C1170 0.931 . S
H1187 C1175 0.929 . S
H1188 C1176 0.960 . S
H1189 C1176 0.962 . S
H1190 C1176 0.960 . S
H1191 C1177 0.961 . S
H1192 C1177 0.961 . S
H1193 C1177 0.961 . S
H1194 C1178 0.931 . S
H1195 C1183 0.930 . S
H1196 C1184 0.956 . S
H1197 C1184 0.961 . S
H1198 C1184 0.961 . S
H1199 C1185 0.958 . S
H1200 C1185 0.961 . S
H1201 C1185 0.960 . S
C1202 C1203 1.391 . S
C1202 C1204 1.394 . S
C1202 H1218 0.931 . S
C1203 C1202 1.391 . S
C1203 C1207 1.376 . S
C1204 C1202 1.394 . S
C1204 C1205 1.369 . S
C1204 C1208 1.531 . S
C1205 C1204 1.369 . S
C1205 C1206 1.410 . S
C1205 C1213 1.503 . S
C1206 C1205 1.410 . S
C1206 C1207 1.392 . S
C1206 C1209 1.511 . S
C1207 C1203 1.376 . S
C1207 C1206 1.392 . S
C1207 H1219 0.929 . S
C1208 C1204 1.531 . S
C1208 H1220 0.960 . S
C1208 H1221 0.962 . S
C1208 H1222 0.960 . S
C1209 C1206 1.511 . S
C1209 H1223 0.961 . S
C1209 H1224 0.961 . S
C1209 H1225 0.961 . S
C1210 C1211 1.370 . S
C1210 C1212 1.363 . S
C1210 H1226 0.931 . S
C1211 C1210 1.370 . S
C1211 C1215 1.408 . S
C1212 C1210 1.363 . S
C1212 C1213 1.370 . S
C1212 C1216 1.524 . S
C1213 C1205 1.503 . S
C1213 C1212 1.370 . S
C1213 C1214 1.403 . S
C1214 C1213 1.403 . S
C1214 C1215 1.404 . S
C1214 C1217 1.539 . S
C1215 C1211 1.408 . S
C1215 C1214 1.404 . S
C1215 H1227 0.930 . S
C1216 C1212 1.524 . S
C1216 H1228 0.956 . S
C1216 H1229 0.961 . S
C1216 H1230 0.961 . S
C1217 C1214 1.539 . S
C1217 H1231 0.958 . S
C1217 H1232 0.961 . S
C1217 H1233 0.960 . S
H1218 C1202 0.931 . S
H1219 C1207 0.929 . S
H1220 C1208 0.960 . S
H1221 C1208 0.962 . S
H1222 C1208 0.960 . S
H1223 C1209 0.961 . S
H1224 C1209 0.961 . S
H1225 C1209 0.961 . S
H1226 C1210 0.931 . S
H1227 C1215 0.930 . S
H1228 C1216 0.956 . S
H1229 C1216 0.961 . S
H1230 C1216 0.961 . S
H1231 C1217 0.958 . S
H1232 C1217 0.961 . S
H1233 C1217 0.960 . S
C1234 C1235 1.391 . S
C1234 C1236 1.394 . S
C1234 H1250 0.931 . S
C1235 C1234 1.391 . S
C1235 C1239 1.376 . S
C1236 C1234 1.394 . S
C1236 C1237 1.369 . S
C1236 C1240 1.531 . S
C1237 C1236 1.369 . S
C1237 C1238 1.410 . S
C1237 C1245 1.503 . S
C1238 C1237 1.410 . S
C1238 C1239 1.392 . S
C1238 C1241 1.511 . S
C1239 C1235 1.376 . S
C1239 C1238 1.392 . S
C1239 H1251 0.929 . S
C1240 C1236 1.531 . S
C1240 H1252 0.960 . S
C1240 H1253 0.962 . S
C1240 H1254 0.960 . S
C1241 C1238 1.511 . S
C1241 H1255 0.961 . S
C1241 H1256 0.961 . S
C1241 H1257 0.961 . S
C1242 C1243 1.370 . S
C1242 C1244 1.363 . S
C1242 H1258 0.931 . S
C1243 C1242 1.370 . S
C1243 C1247 1.408 . S
C1244 C1242 1.363 . S
C1244 C1245 1.370 . S
C1244 C1248 1.524 . S
C1245 C1237 1.503 . S
C1245 C1244 1.370 . S
C1245 C1246 1.403 . S
C1246 C1245 1.403 . S
C1246 C1247 1.404 . S
C1246 C1249 1.539 . S
C1247 C1243 1.408 . S
C1247 C1246 1.404 . S
C1247 H1259 0.930 . S
C1248 C1244 1.524 . S
C1248 H1260 0.956 . S
C1248 H1261 0.961 . S
C1248 H1262 0.961 . S
C1249 C1246 1.539 . S
C1249 H1263 0.958 . S
C1249 H1264 0.961 . S
C1249 H1265 0.960 . S
H1250 C1234 0.931 . S
H1251 C1239 0.929 . S
H1252 C1240 0.960 . S
H1253 C1240 0.962 . S
H1254 C1240 0.960 . S
H1255 C1241 0.961 . S
H1256 C1241 0.961 . S
H1257 C1241 0.961 . S
H1258 C1242 0.931 . S
H1259 C1247 0.930 . S
H1260 C1248 0.956 . S
H1261 C1248 0.961 . S
H1262 C1248 0.961 . S
H1263 C1249 0.958 . S
H1264 C1249 0.961 . S
H1265 C1249 0.960 . S
C1266 C1267 1.391 . S
C1266 C1268 1.394 . S
C1266 H1282 0.931 . S
C1267 C1266 1.391 . S
C1267 C1271 1.376 . S
C1268 C1266 1.394 . S
C1268 C1269 1.369 . S
C1268 C1272 1.531 . S
C1269 C1268 1.369 . S
C1269 C1270 1.410 . S
C1269 C1277 1.503 . S
C1270 C1269 1.410 . S
C1270 C1271 1.392 . S
C1270 C1273 1.511 . S
C1271 C1267 1.376 . S
C1271 C1270 1.392 . S
C1271 H1283 0.929 . S
C1272 C1268 1.531 . S
C1272 H1284 0.960 . S
C1272 H1285 0.962 . S
C1272 H1286 0.960 . S
C1273 C1270 1.511 . S
C1273 H1287 0.961 . S
C1273 H1288 0.961 . S
C1273 H1289 0.961 . S
C1274 C1275 1.370 . S
C1274 C1276 1.363 . S
C1274 H1290 0.931 . S
C1275 C1274 1.370 . S
C1275 C1279 1.408 . S
C1276 C1274 1.363 . S
C1276 C1277 1.370 . S
C1276 C1280 1.524 . S
C1277 C1269 1.503 . S
C1277 C1276 1.370 . S
C1277 C1278 1.403 . S
C1278 C1277 1.403 . S
C1278 C1279 1.404 . S
C1278 C1281 1.539 . S
C1279 C1275 1.408 . S
C1279 C1278 1.404 . S
C1279 H1291 0.930 . S
C1280 C1276 1.524 . S
C1280 H1292 0.956 . S
C1280 H1293 0.961 . S
C1280 H1294 0.961 . S
C1281 C1278 1.539 . S
C1281 H1295 0.958 . S
C1281 H1296 0.961 . S
C1281 H1297 0.960 . S
H1282 C1266 0.931 . S
H1283 C1271 0.929 . S
H1284 C1272 0.960 . S
H1285 C1272 0.962 . S
H1286 C1272 0.960 . S
H1287 C1273 0.961 . S
H1288 C1273 0.961 . S
H1289 C1273 0.961 . S
H1290 C1274 0.931 . S
H1291 C1279 0.930 . S
H1292 C1280 0.956 . S
H1293 C1280 0.961 . S
H1294 C1280 0.961 . S
H1295 C1281 0.958 . S
H1296 C1281 0.961 . S
H1297 C1281 0.960 . S
C1298 C1299 1.391 . S
C1298 C1300 1.394 . S
C1298 H1314 0.931 . S
C1299 C1298 1.391 . S
C1299 C1303 1.376 . S
C1300 C1298 1.394 . S
C1300 C1301 1.369 . S
C1300 C1304 1.531 . S
C1301 C1300 1.369 . S
C1301 C1302 1.410 . S
C1301 C1309 1.503 . S
C1302 C1301 1.410 . S
C1302 C1303 1.392 . S
C1302 C1305 1.511 . S
C1303 C1299 1.376 . S
C1303 C1302 1.392 . S
C1303 H1315 0.929 . S
C1304 C1300 1.531 . S
C1304 H1316 0.960 . S
C1304 H1317 0.962 . S
C1304 H1318 0.960 . S
C1305 C1302 1.511 . S
C1305 H1319 0.961 . S
C1305 H1320 0.961 . S
C1305 H1321 0.961 . S
C1306 C1307 1.370 . S
C1306 C1308 1.363 . S
C1306 H1322 0.931 . S
C1307 C1306 1.370 . S
C1307 C1311 1.408 . S
C1308 C1306 1.363 . S
C1308 C1309 1.370 . S
C1308 C1312 1.524 . S
C1309 C1301 1.503 . S
C1309 C1308 1.370 . S
C1309 C1310 1.403 . S
C1310 C1309 1.403 . S
C1310 C1311 1.404 . S
C1310 C1313 1.539 . S
C1311 C1307 1.408 . S
C1311 C1310 1.404 . S
C1311 H1323 0.930 . S
C1312 C1308 1.524 . S
C1312 H1324 0.956 . S
C1312 H1325 0.961 . S
C1312 H1326 0.961 . S
C1313 C1310 1.539 . S
C1313 H1327 0.958 . S
C1313 H1328 0.961 . S
C1313 H1329 0.960 . S
H1314 C1298 0.931 . S
H1315 C1303 0.929 . S
H1316 C1304 0.960 . S
H1317 C1304 0.962 . S
H1318 C1304 0.960 . S
H1319 C1305 0.961 . S
H1320 C1305 0.961 . S
H1321 C1305 0.961 . S
H1322 C1306 0.931 . S
H1323 C1311 0.930 . S
H1324 C1312 0.956 . S
H1325 C1312 0.961 . S
H1326 C1312 0.961 . S
H1327 C1313 0.958 . S
H1328 C1313 0.961 . S
H1329 C1313 0.960 . S
C1330 C1331 1.391 . S
C1330 C1332 1.394 . S
C1330 H1346 0.931 . S
C1331 C1330 1.391 . S
C1331 C1335 1.376 . S
C1332 C1330 1.394 . S
C1332 C1333 1.369 . S
C1332 C1336 1.531 . S
C1333 C1332 1.369 . S
C1333 C1334 1.410 . S
C1333 C1341 1.503 . S
C1334 C1333 1.410 . S
C1334 C1335 1.392 . S
C1334 C1337 1.511 . S
C1335 C1331 1.376 . S
C1335 C1334 1.392 . S
C1335 H1347 0.929 . S
C1336 C1332 1.531 . S
C1336 H1348 0.960 . S
C1336 H1349 0.962 . S
C1336 H1350 0.960 . S
C1337 C1334 1.511 . S
C1337 H1351 0.961 . S
C1337 H1352 0.961 . S
C1337 H1353 0.961 . S
C1338 C1339 1.370 . S
C1338 C1340 1.363 . S
C1338 H1354 0.931 . S
C1339 C1338 1.370 . S
C1339 C1343 1.408 . S
C1340 C1338 1.363 . S
C1340 C1341 1.370 . S
C1340 C1344 1.524 . S
C1341 C1333 1.503 . S
C1341 C1340 1.370 . S
C1341 C1342 1.403 . S
C1342 C1341 1.403 . S
C1342 C1343 1.404 . S
C1342 C1345 1.539 . S
C1343 C1339 1.408 . S
C1343 C1342 1.404 . S
C1343 H1355 0.930 . S
C1344 C1340 1.524 . S
C1344 H1356 0.956 . S
C1344 H1357 0.961 . S
C1344 H1358 0.961 . S
C1345 C1342 1.539 . S
C1345 H1359 0.958 . S
C1345 H1360 0.961 . S
C1345 H1361 0.960 . S
H1346 C1330 0.931 . S
H1347 C1335 0.929 . S
H1348 C1336 0.960 . S
H1349 C1336 0.962 . S
H1350 C1336 0.960 . S
H1351 C1337 0.961 . S
H1352 C1337 0.961 . S
H1353 C1337 0.961 . S
H1354 C1338 0.931 . S
H1355 C1343 0.930 . S
H1356 C1344 0.956 . S
H1357 C1344 0.961 . S
H1358 C1344 0.961 . S
H1359 C1345 0.958 . S
H1360 C1345 0.961 . S
H1361 C1345 0.960 . S
C595 C39 1.780 . S
C603 C340 1.750 . S
C627 C91 1.736 . S
C635 C379 1.734 . S
C667 C411 1.583 . S
C659 C128 1.607 . S
C699 C457 1.534 . S
C691 C188 1.566 . S
C731 C524 1.664 . S
C723 C250 1.653 . S
C763 C563 1.733 . S
C755 C304 1.733 . S
C787 C75 1.653 . S
C795 C425 1.642 . S
C819 C144 1.754 . S
C827 C471 1.752 . S
C859 C510 1.681 . S
C851 C198 1.708 . S
C891 C549 1.541 . S
C883 C234 1.578 . S
C915 C294 1.550 . S
C923 C326 1.524 . S
C955 C365 1.565 . S
C947 C29 1.570 . S
C987 C464 1.752 . S
C979 C38 1.780 . S
C1011 C92 1.746 . S
C1019 C517 1.716 . S
C1051 C570 1.585 . S
C1043 C135 1.606 . S
C1075 C181 1.550 . S
C1083 C333 1.549 . S
C1107 C251 1.667 . S
C1115 C386 1.643 . S
C1139 C303 1.733 . S
C1147 C418 1.731 . S
C1171 C82 1.663 . S
C1179 C556 1.636 . S
C1211 C319 1.749 . S
C1203 C145 1.754 . S
C1235 C197 1.702 . S
C1243 C372 1.703 . S
C1267 C241 1.576 . S
C1275 C432 1.543 . S
C1299 C287 1.537 . S
C1307 C478 1.536 . S
C1331 C22 1.583 . S
C1339 C503 1.565 . S
