# Generated by pormake.
# Topology anh, (6,3)-cn, num edge types: 1
# Building blocks:
#     Node 0, Type 0, BuildingBlock: GEDQOX_clean_sbu_0, # of connection points: 6
#     Node 1, Type 0, BuildingBlock: GEDQOX_clean_sbu_0, # of connection points: 6
#     Node 2, Type 0, BuildingBlock: GEDQOX_clean_sbu_0, # of connection points: 6
#     Node 3, Type 1, BuildingBlock: CUQRIR_clean_linker_1, # of connection points: 3
#     Node 4, Type 1, BuildingBlock: CUQRIR_clean_linker_1, # of connection points: 3
#     Node 5, Type 1, BuildingBlock: CUQRIR_clean_linker_1, # of connection points: 3
#     Node 6, Type 1, BuildingBlock: CUQRIR_clean_linker_1, # of connection points: 3
#     Node 7, Type 1, BuildingBlock: CUQRIR_clean_linker_1, # of connection points: 3
#     Node 8, Type 1, BuildingBlock: CUQRIR_clean_linker_1, # of connection points: 3
#     Edge 9, Type (0, 1), BuildingBlock: KIFKEQ_clean_linker_1, # of connection points: 2
#     Edge 10, Type (0, 1), BuildingBlock: KIFKEQ_clean_linker_1, # of connection points: 2
#     Edge 11, Type (0, 1), BuildingBlock: KIFKEQ_clean_linker_1, # of connection points: 2
#     Edge 12, Type (0, 1), BuildingBlock: KIFKEQ_clean_linker_1, # of connection points: 2
#     Edge 13, Type (0, 1), BuildingBlock: KIFKEQ_clean_linker_1, # of connection points: 2
#     Edge 14, Type (0, 1), BuildingBlock: KIFKEQ_clean_linker_1, # of connection points: 2
#     Edge 15, Type (0, 1), BuildingBlock: KIFKEQ_clean_linker_1, # of connection points: 2
#     Edge 16, Type (0, 1), BuildingBlock: KIFKEQ_clean_linker_1, # of connection points: 2
#     Edge 17, Type (0, 1), BuildingBlock: KIFKEQ_clean_linker_1, # of connection points: 2
#     Edge 18, Type (0, 1), BuildingBlock: KIFKEQ_clean_linker_1, # of connection points: 2
#     Edge 19, Type (0, 1), BuildingBlock: KIFKEQ_clean_linker_1, # of connection points: 2
#     Edge 20, Type (0, 1), BuildingBlock: KIFKEQ_clean_linker_1, # of connection points: 2
#     Edge 21, Type (0, 1), BuildingBlock: KIFKEQ_clean_linker_1, # of connection points: 2
#     Edge 22, Type (0, 1), BuildingBlock: KIFKEQ_clean_linker_1, # of connection points: 2
#     Edge 23, Type (0, 1), BuildingBlock: KIFKEQ_clean_linker_1, # of connection points: 2
#     Edge 24, Type (0, 1), BuildingBlock: KIFKEQ_clean_linker_1, # of connection points: 2
#     Edge 25, Type (0, 1), BuildingBlock: KIFKEQ_clean_linker_1, # of connection points: 2
#     Edge 26, Type (0, 1), BuildingBlock: KIFKEQ_clean_linker_1, # of connection points: 2
# Relax obj value: 0.199
# Max RMSD: 0.214
# Mean RMSD: 0.167
data_MOF--net-anh--node1-GEDQOX_clean_sbu_0--node2-CUQRIR_clean_linker_1--edge1-KIFKEQ_clean_linker_1
_symmetry_space_group_name_H-M    P1
_symmetry_Int_Tables_number       1
_symmetry_cell_setting            triclinic
loop_
_symmetry_equiv_pos_as_xyz
'x, y, z'
_cell_length_a     28.844535
_cell_length_b     27.855791
_cell_length_c     47.069906
_cell_angle_alpha  88.289446
_cell_angle_beta   90.756189
_cell_angle_gamma 100.43006
loop_
_atom_site_label
_atom_site_type_symbol
_atom_site_fract_x
_atom_site_fract_y
_atom_site_fract_z
_atom_type_partial_charge
Nd0 Nd 1.06904 0.55857 0.15587 0.0
Nd1 Nd 1.05 0.45008 0.16331 0.0
C2 C 0.10485 0.65033 0.14184 0.0
C3 C 0.15073 0.68301 0.14688 0.0
C4 C 0.192 0.67649 0.13303 0.0
C5 C 0.23536 0.70621 0.13911 0.0
C6 C 0.23862 0.74307 0.15926 0.0
C7 C 0.19711 0.74986 0.17278 0.0
C8 C 0.15376 0.72041 0.16654 0.0
C9 C 1.05612 0.52583 0.2113 0.0
C10 C 0.16222 0.49995 0.16081 0.0
C11 C 1.01856 0.3589 0.18093 0.0
C12 C 0.97357 0.32536 0.18704 0.0
C13 C 0.94176 0.33606 0.20729 0.0
C14 C 0.90061 0.30251 0.21366 0.0
C15 C 0.89022 0.25759 0.19987 0.0
C16 C 0.92177 0.24755 0.17922 0.0
C17 C 0.96299 0.28094 0.173 0.0
C18 C 1.06797 0.48219 0.10877 0.0
C19 C 0.9574 0.50896 0.15384 0.0
O20 O 0.10445 0.6141 0.12468 0.0
O21 O 1.07841 0.63772 0.16415 0.0
O22 O 1.03951 0.56277 0.20066 0.0
O23 O 1.07997 0.50873 0.19318 0.0
O24 O 0.14592 0.54066 0.15425 0.0
O25 O 0.13208 0.4594 0.16779 0.0
O26 O 1.03171 0.395 0.19816 0.0
O27 O 1.02754 0.37138 0.15428 0.0
O28 O 1.08377 0.4453 0.12027 0.0
O29 O 1.04169 0.49966 0.12542 0.0
O30 O 0.97294 0.46894 0.16313 0.0
O31 O 0.98834 0.54856 0.14642 0.0
H32 H 0.19102 0.64816 0.11766 0.0
H33 H 0.26631 0.70031 0.12792 0.0
H34 H 0.19813 0.77724 0.18873 0.0
H35 H 0.12262 0.72637 0.17754 0.0
H36 H 0.94887 0.37003 0.2185 0.0
H37 H 0.87752 0.31138 0.22989 0.0
H38 H 0.91464 0.21385 0.16775 0.0
H39 H 0.98687 0.27184 0.15728 0.0
Nd40 Nd 0.58055 1.00086 0.53215 0.0
Nd41 Nd 0.68385 0.02002 0.52224 0.0
C42 C 0.49267 0.96666 0.54765 0.0
C43 C 0.45627 0.92457 0.53971 0.0
C44 C 0.43525 0.8913 0.56081 0.0
C45 C 0.40232 0.85006 0.55349 0.0
C46 C 0.38958 0.84134 0.52487 0.0
C47 C 0.4102 0.87527 0.50386 0.0
C48 C 0.44331 0.91622 0.51115 0.0
C49 C 0.60495 0.01646 0.47595 0.0
C50 C 0.63633 0.907 0.52675 0.0
C51 C 0.77049 0.05356 0.50402 0.0
C52 C 0.80111 0.10055 0.4965 0.0
C53 C 0.78574 0.13536 0.47818 0.0
C54 C 0.81611 0.1791 0.471 0.0
C55 C 0.86234 0.18903 0.48211 0.0
C56 C 0.8771 0.15432 0.50085 0.0
C57 C 0.8469 0.11057 0.50785 0.0
C58 C 0.65994 1.00217 0.57836 0.0
C59 C 0.62908 0.11217 0.5316 0.0
O60 O 0.52928 0.95636 0.56165 0.0
O61 O 0.50408 1.00145 0.52836 0.0
O62 O 0.57162 0.03432 0.48761 0.0
O63 O 0.62329 0.9903 0.49351 0.0
O64 O 0.59821 0.92315 0.53458 0.0
O65 O 0.67438 0.93724 0.51802 0.0
O66 O 0.73494 0.0381 0.48707 0.0
O67 O 0.76 0.04568 0.53087 0.0
O68 O 0.69396 0.98581 0.56632 0.0
O69 O 0.64098 0.02872 0.56125 0.0
O70 O 0.66294 0.09671 0.51777 0.0
O71 O 0.59589 0.08066 0.54451 0.0
H72 H 0.44483 0.89685 0.58296 0.0
H73 H 0.38764 0.82449 0.57021 0.0
H74 H 0.40067 0.87035 0.48167 0.0
H75 H 0.45895 0.9411 0.49435 0.0
H76 H 0.75043 0.12869 0.46925 0.0
H77 H 0.80359 0.20469 0.45633 0.0
H78 H 0.91199 0.16103 0.51035 0.0
H79 H 0.85938 0.08441 0.52217 0.0
Nd80 Nd 0.5635 0.5723 0.84184 0.0
Nd81 Nd 0.66413 0.5906 0.85109 0.0
C82 C 0.47762 0.5809 0.82557 0.0
C83 C 0.4506 0.61919 0.83123 0.0
C84 C 0.46758 0.65517 0.85094 0.0
C85 C 0.44016 0.68925 0.85835 0.0
C86 C 0.39493 0.68729 0.8465 0.0
C87 C 0.3794 0.65277 0.82546 0.0
C88 C 0.40712 0.61909 0.81787 0.0
C89 C 0.58717 0.56105 0.89807 0.0
C90 C 0.61978 0.68598 0.8496 0.0
C91 C 0.75113 0.58167 0.86365 0.0
C92 C 0.77799 0.54634 0.8521 0.0
C93 C 0.76725 0.49642 0.85992 0.0
C94 C 0.78768 0.46223 0.84569 0.0
C95 C 0.81971 0.47734 0.82357 0.0
C96 C 0.83118 0.52744 0.81627 0.0
C97 C 0.81061 0.56146 0.83036 0.0
C98 C 0.63896 0.5963 0.79464 0.0
C99 C 0.60808 0.47681 0.84166 0.0
O100 O 0.51445 0.59442 0.80946 0.0
O101 O 0.48628 0.55457 0.84779 0.0
O102 O 0.55365 0.53264 0.88498 0.0
O103 O 0.60653 0.59592 0.88191 0.0
O104 O 0.58401 0.65639 0.8382 0.0
O105 O 0.65515 0.66826 0.86119 0.0
O106 O 0.71562 0.56382 0.88015 0.0
O107 O 0.74095 0.61451 0.84536 0.0
O108 O 0.67203 0.62714 0.8064 0.0
O109 O 0.62108 0.5636 0.81227 0.0
O110 O 0.6442 0.50576 0.85342 0.0
O111 O 0.57264 0.49528 0.83074 0.0
H112 H 0.50127 0.65572 0.86147 0.0
H113 H 0.45335 0.71544 0.8744 0.0
H114 H 0.34443 0.64932 0.81621 0.0
H115 H 0.39368 0.59165 0.80253 0.0
H116 H 0.74255 0.48363 0.87679 0.0
H117 H 0.77859 0.42404 0.85211 0.0
H118 H 0.85712 0.54075 0.80012 0.0
H119 H 0.81975 0.59964 0.82392 0.0
C120 C 0.57355 0.98027 0.22123 0.0
N121 N 0.60182 1.00239 0.24209 0.0
N122 N 0.5386 0.94596 0.2324 0.0
C123 C 0.58149 0.9902 0.18994 0.0
C124 C 0.54659 0.94819 0.26081 0.0
N125 N 0.58517 0.98204 0.26666 0.0
C126 C 0.51523 0.91895 0.2829 0.0
H127 H 0.5635 0.02054 0.18292 0.0
H128 H 0.56681 0.95752 0.1776 0.0
H129 H 0.61966 1.00118 0.1854 0.0
H130 H 0.51879 0.93665 0.30378 0.0
H131 H 0.52534 0.88252 0.28571 0.0
H132 H 0.47779 0.91359 0.27593 0.0
C133 C 0.63089 0.51072 0.5456 0.0
N134 N 0.62774 0.54662 0.56407 0.0
N135 N 0.6233 0.46641 0.55918 0.0
C136 C 0.63831 0.51816 0.51414 0.0
C137 C 0.61539 0.47639 0.5864 0.0
N138 N 0.61771 0.52486 0.58936 0.0
C139 C 0.60745 0.43891 0.61039 0.0
H140 H 0.62138 0.54849 0.5058 0.0
H141 H 0.62394 0.48434 0.50272 0.0
H142 H 0.67669 0.52765 0.50995 0.0
H143 H 0.62149 0.40567 0.6053 0.0
H144 H 0.56901 0.42837 0.61413 0.0
H145 H 0.62433 0.45419 0.63028 0.0
C146 C 0.10973 0.55132 0.85467 0.0
N147 N 0.11661 0.5663 0.88174 0.0
N148 N 1.08057 0.50741 0.85394 0.0
C149 C 0.13458 0.57757 0.8292 0.0
C150 C 1.06972 0.49651 0.88163 0.0
N151 N 0.09262 0.5317 0.89854 0.0
C152 C 1.03243 0.45471 0.8919 0.0
H153 H 0.13434 0.55261 0.81125 0.0
H154 H 0.1716 0.59343 0.83471 0.0
H155 H 0.11652 0.60797 0.82239 0.0
H156 H 1.04774 0.42095 0.89353 0.0
H157 H 1.00228 0.44857 0.87675 0.0
H158 H 1.01897 0.46174 0.91306 0.0
C159 C 0.12152 0.52306 0.46383 0.0
N160 N 0.09774 0.49711 0.44252 0.0
N161 N 0.15595 0.55829 0.45315 0.0
C162 C 0.11363 0.51206 0.49503 0.0
C163 C 0.15242 0.55302 0.42471 0.0
N164 N 0.1174 0.51556 0.41823 0.0
C165 C 0.18104 0.58678 0.40328 0.0
H166 H 0.14598 0.52564 0.50754 0.0
H167 H 0.10271 0.47222 0.49917 0.0
H168 H 1.08515 0.53063 0.50227 0.0
H169 H 0.21181 0.57073 0.39709 0.0
H170 H 0.19424 0.62312 0.41228 0.0
H171 H 0.15983 0.59154 0.3839 0.0
C172 C 0.61881 0.08135 0.82531 0.0
N173 N 0.62463 0.04457 0.80808 0.0
N174 N 0.62497 0.12469 0.81058 0.0
C175 C 0.60988 0.07565 0.85669 0.0
C176 C 0.63452 0.11298 0.78388 0.0
N177 N 0.63466 0.06463 0.7824 0.0
C178 C 0.64149 0.14847 0.75888 0.0
H179 H 0.57139 0.06492 0.86019 0.0
H180 H 0.62249 0.11049 0.86753 0.0
H181 H 0.6275 0.04665 0.86618 0.0
H182 H 0.67977 0.16254 0.75633 0.0
H183 H 0.6235 0.17983 0.76216 0.0
H184 H 0.62801 0.13035 0.73898 0.0
C185 C 0.56208 0.5087 0.14975 0.0
N186 N 0.5989 0.51127 0.13106 0.0
N187 N 0.51959 0.5078 0.13582 0.0
C188 C 0.56735 0.50531 0.18138 0.0
C189 C 0.53235 0.51037 0.10816 0.0
N190 N 0.57945 0.51232 0.10529 0.0
C191 C 0.49827 0.51105 0.08366 0.0
H192 H 0.53281 0.492 0.19165 0.0
H193 H 0.58215 0.54209 0.1893 0.0
H194 H 0.59243 0.4807 0.18723 0.0
H195 H 0.4685 0.52889 0.08958 0.0
H196 H 0.48373 0.47285 0.07802 0.0
H197 H 0.51572 0.53023 0.0646 0.0
H198 H 0.23582 0.57795 0.15075 0.0
H199 H 0.21146 0.4229 0.16856 0.0
H200 H 0.32049 0.57877 0.14789 0.0
H201 H 0.29629 0.42361 0.16605 0.0
H202 H 0.4475 0.4311 0.13004 0.0
H203 H 0.36323 0.42882 0.13729 0.0
H204 H 0.39437 0.57462 0.16953 0.0
H205 H 0.4789 0.5764 0.16179 0.0
C206 C 0.24828 0.54382 0.15424 0.0
C207 C 0.21552 0.50031 0.1599 0.0
C208 C 0.29758 0.54433 0.15277 0.0
C209 C 0.31689 0.50128 0.15668 0.0
C210 C 0.284 0.45778 0.16247 0.0
C211 C 0.23469 0.45734 0.16412 0.0
C212 C 0.43648 0.46216 0.13947 0.0
C213 C 0.47079 0.50339 0.146 0.0
C214 C 0.38762 0.46106 0.14357 0.0
C215 C 0.37033 0.50155 0.15405 0.0
C216 C 0.40503 0.54258 0.16113 0.0
C217 C 0.45408 0.54346 0.15719 0.0
H218 H 0.95721 0.20103 0.47224 0.0
H219 H 0.84247 0.28144 0.4737 0.0
H220 H 1.01194 0.27611 0.46149 0.0
H221 H 0.89696 0.35638 0.46112 0.0
H222 H 1.01737 0.48819 0.47259 0.0
H223 H 0.95905 0.41389 0.48091 0.0
H224 H 1.03653 0.33604 0.42566 0.0
H225 H 0.09599 0.40982 0.41899 0.0
C226 C 0.94355 0.23471 0.47022 0.0
C227 C 0.89533 0.23502 0.47412 0.0
C228 C 0.97494 0.27783 0.46356 0.0
C229 C 0.95903 0.32253 0.46032 0.0
C230 C 0.91067 0.3228 0.46377 0.0
C231 C 0.87925 0.27962 0.47064 0.0
C232 C 1.02179 0.45499 0.46242 0.0
C233 C 1.06126 0.45441 0.44542 0.0
C234 C 0.98816 0.41254 0.46685 0.0
C235 C 0.99309 0.36864 0.45412 0.0
C236 C 1.03193 0.36879 0.43627 0.0
C237 C 1.06571 0.41114 0.43209 0.0
H238 H 0.54788 0.73204 0.83261 0.0
H239 H 0.69325 0.76168 0.8605 0.0
H240 H 0.54952 0.81878 0.82446 0.0
H241 H 0.6948 0.8493 0.85239 0.0
H242 H 0.55503 0.98207 0.83484 0.0
H243 H 0.55439 0.89615 0.84811 0.0
H244 H 0.69268 0.90674 0.81166 0.0
H245 H 0.69329 0.99286 0.79912 0.0
C246 C 0.58013 0.75708 0.83739 0.0
C247 C 0.62046 0.73961 0.84728 0.0
C248 C 0.58098 0.80707 0.83278 0.0
C249 C 0.62229 0.84125 0.83769 0.0
C250 C 0.66249 0.82398 0.84809 0.0
C251 C 0.66152 0.77376 0.85296 0.0
C252 C 0.58531 0.96592 0.82995 0.0
C253 C 0.62416 0.9939 0.81595 0.0
C254 C 0.58493 0.91669 0.83733 0.0
C255 C 0.62354 0.89435 0.831 0.0
C256 C 0.66259 0.92274 0.8172 0.0
C257 C 0.66278 0.97186 0.8097 0.0
H258 H 0.91041 0.58743 0.14562 0.0
H259 H 0.88189 0.43085 0.1567 0.0
H260 H 0.82559 0.5877 0.14173 0.0
H261 H 0.79713 0.43099 0.15245 0.0
H262 H 0.64917 0.44365 0.11377 0.0
H263 H 0.73367 0.44297 0.11971 0.0
H264 H 0.74932 0.57582 0.16642 0.0
H265 H 0.66428 0.57592 0.16042 0.0
C266 C 0.88627 0.55286 0.14722 0.0
C267 C 0.90422 0.50911 0.15148 0.0
C268 C 0.83702 0.55303 0.14513 0.0
C269 C 0.80311 0.50938 0.14668 0.0
C270 C 0.82118 0.4656 0.15081 0.0
C271 C 0.87037 0.46551 0.15341 0.0
C272 C 0.67052 0.47262 0.12546 0.0
C273 C 0.64916 0.50968 0.13667 0.0
C274 C 0.71941 0.47218 0.12905 0.0
C275 C 0.74974 0.50936 0.14361 0.0
C276 C 0.72815 0.54654 0.15486 0.0
C277 C 0.67892 0.54646 0.15167 0.0
H278 H 0.30927 0.79664 0.55276 0.0
H279 H 0.39289 0.78472 0.47866 0.0
H280 H 0.25378 0.72404 0.53903 0.0
H281 H 0.33616 0.71443 0.46405 0.0
H282 H 0.24988 0.56596 0.45384 0.0
H283 H 0.30753 0.63135 0.47435 0.0
H284 H 0.19364 0.69742 0.50491 0.0
H285 H 0.13651 0.63035 0.48523 0.0
C286 C 0.31594 0.77854 0.53359 0.0
C287 C 0.35558 0.79679 0.51678 0.0
C288 C 0.28375 0.73719 0.52552 0.0
C289 C 0.29033 0.71316 0.50041 0.0
C290 C 0.33017 0.73132 0.48376 0.0
C291 C 0.36242 0.77231 0.49191 0.0
C292 C 0.2376 0.5942 0.46542 0.0
C293 C 0.18921 0.59357 0.4681 0.0
C294 C 0.27038 0.63189 0.47692 0.0
C295 C 0.25537 0.67025 0.49097 0.0
C296 C 0.20662 0.66839 0.49451 0.0
C297 C 0.17385 0.63022 0.48325 0.0
H298 H 0.54153 0.40519 0.81811 0.0
H299 H 0.67578 0.42732 0.86193 0.0
H300 H 0.5449 0.31851 0.81408 0.0
H301 H 0.67919 0.34122 0.85791 0.0
H302 H 0.69538 0.20214 0.80994 0.0
H303 H 0.68997 0.28671 0.81971 0.0
H304 H 0.54347 0.24074 0.84196 0.0
H305 H 0.54947 0.15588 0.83186 0.0
C306 C 0.57166 0.39165 0.82701 0.0
C307 C 0.60867 0.42357 0.84008 0.0
C308 C 0.57345 0.34184 0.82486 0.0
C309 C 0.61243 0.32283 0.83557 0.0
C310 C 0.64893 0.35464 0.84908 0.0
C311 C 0.64697 0.40418 0.85139 0.0
C312 C 0.66238 0.21027 0.81742 0.0
C313 C 0.62294 0.17283 0.82035 0.0
C314 C 0.65917 0.25857 0.82305 0.0
C315 C 0.6162 0.27067 0.83154 0.0
C316 C 0.57695 0.23279 0.83519 0.0
C317 C 0.58039 0.18426 0.82977 0.0
H318 H 0.7121 0.86018 0.53127 0.0
H319 H 0.56002 0.83323 0.52778 0.0
H320 H 0.71092 0.77312 0.53986 0.0
H321 H 0.55862 0.74625 0.53486 0.0
H322 H 0.56549 0.6022 0.57954 0.0
H323 H 0.56917 0.68908 0.56991 0.0
H324 H 0.69737 0.69393 0.52239 0.0
H325 H 0.69515 0.60747 0.53424 0.0
C326 C 0.67844 0.83552 0.53181 0.0
C327 C 0.63618 0.8537 0.52903 0.0
C328 C 0.67769 0.78544 0.53665 0.0
C329 C 0.63463 0.75219 0.53842 0.0
C330 C 0.59249 0.77051 0.5345 0.0
C331 C 0.59325 0.82053 0.53014 0.0
C332 C 0.5948 0.62212 0.56743 0.0
C333 C 0.63004 0.59812 0.5577 0.0
C334 C 0.59658 0.67188 0.56142 0.0
C335 C 0.63335 0.69899 0.54503 0.0
C336 C 0.66871 0.67472 0.53528 0.0
C337 C 0.66719 0.62496 0.54169 0.0
H338 H 0.8456 0.47221 0.76781 0.0
H339 H 0.85613 0.4043 0.85073 0.0
H340 H 0.91953 0.44885 0.75437 0.0
H341 H 0.92856 0.38042 0.83727 0.0
H342 H 1.06855 0.41097 0.84285 0.0
H343 H 1.00249 0.36835 0.81481 0.0
H344 H 0.97749 0.50755 0.78109 0.0
H345 H 1.04068 0.54901 0.81001 0.0
C346 C 0.86241 0.45019 0.78267 0.0
C347 C 0.84704 0.44309 0.81098 0.0
C348 C 0.90443 0.43613 0.77479 0.0
C349 C 0.9316 0.41616 0.79547 0.0
C350 C 0.90961 0.39768 0.82108 0.0
C351 C 0.86779 0.41181 0.82902 0.0
C352 C 1.0498 0.43197 0.8285 0.0
C353 C 1.05778 0.48315 0.82959 0.0
C354 C 1.01249 0.4076 0.81215 0.0
C355 C 0.9832 0.43454 0.79683 0.0
C356 C 0.99842 0.48532 0.7931 0.0
C357 C 1.03484 0.50954 0.80987 0.0
H358 H 0.32528 0.71525 0.16359 0.0
H359 H 0.25762 0.84041 0.17184 0.0
H360 H 0.40035 0.76446 0.17714 0.0
H361 H 0.33188 0.88861 0.18727 0.0
H362 H 0.47789 0.97721 0.19512 0.0
H363 H 0.40787 0.92831 0.17373 0.0
H364 H 0.43975 0.7995 0.21771 0.0
H365 H 0.51105 0.84834 0.23746 0.0
C366 C 0.32633 0.75332 0.16812 0.0
C367 C 0.28506 0.77364 0.16667 0.0
C368 C 0.36941 0.78145 0.17633 0.0
C369 C 0.37242 0.83061 0.18353 0.0
C370 C 0.33131 0.85113 0.18159 0.0
C371 C 0.28835 0.82314 0.17315 0.0
C372 C 0.47026 0.93825 0.19959 0.0
C373 C 0.4996 0.91647 0.21797 0.0
C374 C 0.42983 0.91026 0.18771 0.0
C375 C 0.41761 0.85984 0.19416 0.0
C376 C 0.44802 0.83799 0.21195 0.0
C377 C 0.48862 0.86596 0.22357 0.0
H378 H 0.68465 0.18796 0.50254 0.0
H379 H 0.57187 0.15676 0.56356 0.0
H380 H 0.68215 0.27503 0.50444 0.0
H381 H 0.57043 0.24332 0.56622 0.0
H382 H 0.5481 0.39586 0.55175 0.0
H383 H 0.54871 0.31044 0.54138 0.0
H384 H 0.70057 0.34387 0.53423 0.0
H385 H 0.69883 0.42974 0.54346 0.0
C386 C 0.65946 0.19965 0.51644 0.0
C387 C 0.62837 0.16527 0.53284 0.0
C388 C 0.65814 0.24966 0.51762 0.0
C389 C 0.62584 0.2665 0.53532 0.0
C390 C 0.59502 0.23192 0.55179 0.0
C391 C 0.59612 0.18208 0.55047 0.0
C392 C 0.58126 0.3848 0.54714 0.0
C393 C 0.62333 0.41889 0.54808 0.0
C394 C 0.58188 0.33588 0.54162 0.0
C395 C 0.62481 0.31978 0.53743 0.0
C396 C 0.6668 0.35476 0.53709 0.0
C397 C 0.66599 0.4039 0.54233 0.0
H398 H 0.38516 0.70432 0.90305 0.0
H399 H 0.32557 0.72897 0.82039 0.0
H400 H 0.3102 0.70683 0.92487 0.0
H401 H 0.24986 0.72785 0.84192 0.0
H402 H 0.19152 0.56586 0.91579 0.0
H403 H 0.25902 0.63106 0.9189 0.0
H404 H 0.18324 0.72733 0.87068 0.0
H405 H 0.11547 0.66046 0.86759 0.0
C406 C 0.35681 0.71257 0.88954 0.0
C407 C 0.3603 0.7131 0.85973 0.0
C408 C 0.31352 0.71372 0.90215 0.0
C409 C 0.27324 0.71363 0.88501 0.0
C410 C 0.27961 0.72586 0.85589 0.0
C411 C 0.32312 0.72583 0.84334 0.0
C412 C 0.18871 0.60164 0.90705 0.0
C413 C 0.14936 0.60819 0.89081 0.0
C414 C 0.22732 0.63949 0.90892 0.0
C415 C 0.22728 0.68439 0.89421 0.0
C416 C 0.18491 0.69291 0.8816 0.0
C417 C 0.14627 0.6548 0.87972 0.0
H418 H 0.80171 0.27398 0.21287 0.0
H419 H 0.88109 0.15786 0.20392 0.0
H420 H 0.73213 0.21396 0.22557 0.0
H421 H 0.81102 0.0979 0.21492 0.0
H422 H 0.69065 1.00139 0.26021 0.0
H423 H 0.76003 0.06479 0.25232 0.0
H424 H 0.67373 0.15234 0.20567 0.0
H425 H 0.60415 0.08968 0.21529 0.0
C426 C 0.80443 0.2357 0.21362 0.0
C427 C 0.84722 0.22095 0.2073 0.0
C428 C 0.76426 0.20115 0.22057 0.0
C429 C 0.76572 0.15089 0.22131 0.0
C430 C 0.80854 0.13622 0.21501 0.0
C431 C 0.8487 0.17071 0.20822 0.0
C432 C 0.68654 0.03479 0.24898 0.0
C433 C 0.64218 0.041 0.23861 0.0
C434 C 0.72636 0.07082 0.24395 0.0
C435 C 0.72277 0.11377 0.22814 0.0
C436 C 0.67795 0.12016 0.21819 0.0
C437 C 0.63813 0.08419 0.22343 0.0
H438 H 0.13802 0.46386 0.07562 0.0
H439 H 1.01819 0.53693 0.07507 0.0
H440 H 0.14977 0.4834 0.02523 0.0
H441 H 1.02842 0.55472 0.02405 0.0
H442 H 0.1124 0.45874 0.93207 0.0
H443 H 0.10976 0.45276 0.98369 0.0
H444 H 1.07531 0.59745 0.98575 0.0
H445 H 1.07578 0.60181 0.93353 0.0
C446 C 0.11414 0.48415 0.0646 0.0
C447 C 1.07674 0.49823 0.07898 0.0
C448 C 0.12073 0.49517 0.03572 0.0
C449 C 0.08947 0.51975 0.02042 0.0
C450 C 1.05329 0.53593 0.03519 0.0
C451 C 1.04716 0.5255 0.06433 0.0
C452 C 0.10414 0.48906 0.94368 0.0
C453 C 0.09378 0.53041 0.9291 0.0
C454 C 0.10322 0.48606 0.97323 0.0
C455 C 0.09253 0.52477 0.98896 0.0
C456 C 1.08321 0.56682 0.97428 0.0
C457 C 1.08385 0.56959 0.94453 0.0
H458 H 0.59404 0.08932 0.43836 0.0
H459 H 0.63289 0.94703 0.44407 0.0
H460 H 0.60075 0.08994 0.38682 0.0
H461 H 0.63569 0.9451 0.39255 0.0
H462 H 0.65188 0.95128 0.29921 0.0
H463 H 0.66768 0.96762 0.34944 0.0
H464 H 0.56099 0.05903 0.34783 0.0
H465 H 0.54943 0.04576 0.29716 0.0
C466 C 0.60388 0.05807 0.42842 0.0
C467 C 0.61265 0.01802 0.44503 0.0
C468 C 0.60732 0.05808 0.39881 0.0
C469 C 0.61805 0.01724 0.38501 0.0
C470 C 0.62815 0.97772 0.402 0.0
C471 C 0.62614 0.97847 0.43167 0.0
C472 C 0.63358 0.97648 0.3096 0.0
C473 C 0.60032 0.99823 0.29452 0.0
C474 C 0.64169 0.98512 0.33854 0.0
C475 C 0.6152 0.01419 0.35327 0.0
C476 C 0.58297 0.03723 0.33755 0.0
C477 C 0.57603 0.02965 0.30847 0.0
H478 H 0.5828 0.52401 0.76625 0.0
H479 H 0.6765 0.66219 0.75326 0.0
H480 H 0.574 0.51545 0.71513 0.0
H481 H 0.66644 0.65471 0.70182 0.0
H482 H 0.68881 0.58327 0.61542 0.0
H483 H 0.69039 0.60782 0.665 0.0
H484 H 0.54274 0.54335 0.67243 0.0
H485 H 0.54257 0.51739 0.62321 0.0
C486 C 0.60094 0.55295 0.75239 0.0
C487 C 0.63066 0.59353 0.76368 0.0
C488 C 0.59559 0.54833 0.72302 0.0
C489 C 0.61947 0.58444 0.7042 0.0
C490 C 0.64804 0.62588 0.71562 0.0
C491 C 0.65365 0.63031 0.74507 0.0
C492 C 0.65664 0.57569 0.62765 0.0
C493 C 0.61566 0.5485 0.61592 0.0
C494 C 0.65734 0.58966 0.65599 0.0
C495 C 0.61683 0.57689 0.67295 0.0
C496 C 0.57489 0.55274 0.66028 0.0
C497 C 0.57447 0.53835 0.6321 0.0
H498 H 0.71265 0.96534 0.61915 0.0
H499 H 0.5907 0.03398 0.60756 0.0
H500 H 0.70513 0.96853 0.67071 0.0
H501 H 0.58303 0.03691 0.65917 0.0
H502 H 0.71318 0.06644 0.75242 0.0
H503 H 0.71705 0.04072 0.70331 0.0
H504 H 0.5674 0.98403 0.70449 0.0
H505 H 0.56431 1.00957 0.75392 0.0
C506 C 0.6839 0.98057 0.62764 0.0
C507 C 0.65254 0.99991 0.60939 0.0
C508 C 0.67966 0.98242 0.65713 0.0
C509 C 0.64357 1.00301 0.66895 0.0
C510 C 0.61092 0.02036 0.65067 0.0
C511 C 0.6155 0.01903 0.62116 0.0
C512 C 0.68169 0.04683 0.74236 0.0
C513 C 0.63863 0.03927 0.75669 0.0
C514 C 0.68371 0.03224 0.71433 0.0
C515 C 0.64243 1.01063 0.70001 0.0
C516 C 0.59968 1.00086 0.71496 0.0
C517 C 0.5979 0.01486 0.74319 0.0
H518 H 0.65268 0.61796 0.9322 0.0
H519 H 0.54475 0.4885 0.93325 0.0
H520 H 0.66641 0.60543 0.98336 0.0
H521 H 0.55727 0.47665 0.98365 0.0
H522 H 0.5933 0.44243 0.07012 0.0
H523 H 0.60822 0.45401 0.01914 0.0
H524 H 0.62752 0.61036 0.02822 0.0
H525 H 0.61489 0.59789 0.07945 0.0
C526 C 0.63203 0.58687 0.94332 0.0
C527 C 0.59747 0.55439 0.92874 0.0
C528 C 0.63981 0.57966 0.9726 0.0
C529 C 0.61333 0.53968 0.98776 0.0
C530 C 0.57931 0.50712 0.9728 0.0
C531 C 0.57165 0.51428 0.9438 0.0
C532 C 0.60326 0.47914 0.06128 0.0
C533 C 0.60367 0.51928 0.07854 0.0
C534 C 0.61086 0.48596 0.03203 0.0
C535 C 0.6178 0.53317 0.0193 0.0
C536 C 0.62248 0.57352 0.03712 0.0
C537 C 0.61553 0.56654 0.0665 0.0
H538 H 0.09562 0.45443 0.2379 0.0
H539 H 1.01783 0.56931 0.25392 0.0
H540 H 0.10279 0.43924 0.28902 0.0
H541 H 1.02622 0.55547 0.30487 0.0
H542 H 1.03016 0.51252 0.39636 0.0
H543 H 1.00723 0.50359 0.34617 0.0
H544 H 0.14781 0.48162 0.32646 0.0
H545 H 0.16933 0.48862 0.37666 0.0
C546 C 1.07974 0.47614 0.25237 0.0
C547 C 1.0566 0.51338 0.24199 0.0
C548 C 1.084 0.46763 0.28165 0.0
C549 C 1.06542 0.49636 0.30115 0.0
C550 C 1.04047 0.53217 0.29058 0.0
C551 C 1.036 0.54046 0.26134 0.0
C552 C 1.05541 0.50434 0.38125 0.0
C553 C 0.10152 0.50172 0.39002 0.0
C554 C 1.04263 0.49977 0.35253 0.0
C555 C 1.07587 0.49262 0.33213 0.0
C556 C 0.12111 0.48674 0.34146 0.0
C557 C 0.13369 0.49111 0.37013 0.0
loop_
_geom_bond_atom_site_label_1
_geom_bond_atom_site_label_2
_geom_bond_distance
_geom_bond_site_symmetry_2
_ccdc_geom_bond_type
Nd0 C2 2.836 . S
Nd0 O20 2.500 . S
Nd0 O21 2.492 . S
Nd0 O22 2.487 . S
Nd0 O23 2.682 1_455 S
Nd0 O24 2.410 . S
Nd0 O29 2.414 . S
Nd0 O31 2.424 1_455 S
Nd1 C11 2.836 . S
Nd1 O23 2.414 . S
Nd1 O25 2.424 1_655 S
Nd1 O26 2.500 . S
Nd1 O27 2.492 . S
Nd1 O28 2.487 . S
Nd1 O29 2.682 1_655 S
Nd1 O30 2.410 . S
C2 Nd0 2.836 . S
C2 C3 1.498 . S
C2 O20 1.258 . S
C2 O21 1.239 . S
C3 C2 1.498 . S
C3 C4 1.366 . S
C3 C8 1.407 . S
C4 C3 1.366 . S
C4 C5 1.392 . S
C4 H32 0.930 . S
C5 C4 1.392 . S
C5 C6 1.398 . S
C5 H33 0.929 . S
C6 C5 1.398 . S
C6 C7 1.352 . S
C7 C6 1.352 . S
C7 C8 1.384 . S
C7 H34 0.930 . S
C8 C3 1.407 . S
C8 C7 1.384 . S
C8 H35 0.929 . S
C9 O22 1.241 1_655 S
C9 O23 1.273 . S
C10 O24 1.251 . S
C10 O25 1.268 . S
C11 Nd1 2.836 . S
C11 C12 1.498 . S
C11 O26 1.258 . S
C11 O27 1.239 . S
C12 C11 1.498 . S
C12 C13 1.366 . S
C12 C17 1.407 . S
C13 C12 1.366 . S
C13 C14 1.392 . S
C13 H36 0.930 . S
C14 C13 1.392 . S
C14 C15 1.398 . S
C14 H37 0.929 . S
C15 C14 1.398 . S
C15 C16 1.352 . S
C16 C15 1.352 . S
C16 C17 1.384 . S
C16 H38 0.930 . S
C17 C12 1.407 . S
C17 C16 1.384 . S
C17 H39 0.929 . S
C18 O28 1.241 1_455 S
C18 O29 1.273 . S
C19 O30 1.251 . S
C19 O31 1.268 . S
O20 Nd0 2.500 . S
O20 C2 1.258 . S
O21 Nd0 2.492 . S
O21 C2 1.239 . S
O22 Nd0 2.487 . S
O22 C9 1.241 1_455 S
O23 Nd0 2.682 1_655 S
O23 Nd1 2.414 . S
O23 C9 1.273 . S
O24 Nd0 2.410 . S
O24 C10 1.251 . S
O25 Nd1 2.424 1_455 S
O25 C10 1.268 . S
O26 Nd1 2.500 . S
O26 C11 1.258 . S
O27 Nd1 2.492 . S
O27 C11 1.239 . S
O28 Nd1 2.487 . S
O28 C18 1.241 1_655 S
O29 Nd0 2.414 . S
O29 Nd1 2.682 1_455 S
O29 C18 1.273 . S
O30 Nd1 2.410 . S
O30 C19 1.251 . S
O31 Nd0 2.424 1_655 S
O31 C19 1.268 . S
H32 C4 0.930 . S
H33 C5 0.929 . S
H34 C7 0.930 . S
H35 C8 0.929 . S
H36 C13 0.930 . S
H37 C14 0.929 . S
H38 C16 0.930 . S
H39 C17 0.929 . S
Nd40 C42 2.836 . S
Nd40 O60 2.500 . S
Nd40 O61 2.492 . S
Nd40 O62 2.487 . S
Nd40 O63 2.682 1_565 S
Nd40 O64 2.410 . S
Nd40 O69 2.414 1_565 S
Nd40 O71 2.424 1_565 S
Nd41 C51 2.836 . S
Nd41 O63 2.414 . S
Nd41 O65 2.424 1_545 S
Nd41 O66 2.500 . S
Nd41 O67 2.492 . S
Nd41 O68 2.487 . S
Nd41 O69 2.682 . S
Nd41 O70 2.410 . S
C42 Nd40 2.836 . S
C42 C43 1.498 . S
C42 O60 1.258 . S
C42 O61 1.239 . S
C43 C42 1.498 . S
C43 C44 1.366 . S
C43 C48 1.407 . S
C44 C43 1.366 . S
C44 C45 1.392 . S
C44 H72 0.930 . S
C45 C44 1.392 . S
C45 C46 1.398 . S
C45 H73 0.929 . S
C46 C45 1.398 . S
C46 C47 1.352 . S
C47 C46 1.352 . S
C47 C48 1.384 . S
C47 H74 0.930 . S
C48 C43 1.407 . S
C48 C47 1.384 . S
C48 H75 0.929 . S
C49 O62 1.241 1_545 S
C49 O63 1.273 . S
C50 O64 1.251 . S
C50 O65 1.268 . S
C51 Nd41 2.836 . S
C51 C52 1.498 . S
C51 O66 1.258 . S
C51 O67 1.239 . S
C52 C51 1.498 . S
C52 C53 1.366 . S
C52 C57 1.407 . S
C53 C52 1.366 . S
C53 C54 1.392 . S
C53 H76 0.930 . S
C54 C53 1.392 . S
C54 C55 1.398 . S
C54 H77 0.929 . S
C55 C54 1.398 . S
C55 C56 1.352 . S
C56 C55 1.352 . S
C56 C57 1.384 . S
C56 H78 0.930 . S
C57 C52 1.407 . S
C57 C56 1.384 . S
C57 H79 0.929 . S
C58 O68 1.241 . S
C58 O69 1.273 . S
C59 O70 1.251 . S
C59 O71 1.268 . S
O60 Nd40 2.500 . S
O60 C42 1.258 . S
O61 Nd40 2.492 . S
O61 C42 1.239 . S
O62 Nd40 2.487 . S
O62 C49 1.241 1_565 S
O63 Nd40 2.682 1_545 S
O63 Nd41 2.414 . S
O63 C49 1.273 . S
O64 Nd40 2.410 . S
O64 C50 1.251 . S
O65 Nd41 2.424 1_565 S
O65 C50 1.268 . S
O66 Nd41 2.500 . S
O66 C51 1.258 . S
O67 Nd41 2.492 . S
O67 C51 1.239 . S
O68 Nd41 2.487 . S
O68 C58 1.241 . S
O69 Nd40 2.414 1_545 S
O69 Nd41 2.682 . S
O69 C58 1.273 . S
O70 Nd41 2.410 . S
O70 C59 1.251 . S
O71 Nd40 2.424 1_545 S
O71 C59 1.268 . S
H72 C44 0.930 . S
H73 C45 0.929 . S
H74 C47 0.930 . S
H75 C48 0.929 . S
H76 C53 0.930 . S
H77 C54 0.929 . S
H78 C56 0.930 . S
H79 C57 0.929 . S
Nd80 C82 2.836 . S
Nd80 O100 2.500 . S
Nd80 O101 2.492 . S
Nd80 O102 2.487 . S
Nd80 O103 2.682 . S
Nd80 O104 2.410 . S
Nd80 O109 2.414 . S
Nd80 O111 2.424 . S
Nd81 C91 2.836 . S
Nd81 O103 2.414 . S
Nd81 O105 2.424 . S
Nd81 O106 2.500 . S
Nd81 O107 2.492 . S
Nd81 O108 2.487 . S
Nd81 O109 2.682 . S
Nd81 O110 2.410 . S
C82 Nd80 2.836 . S
C82 C83 1.498 . S
C82 O100 1.258 . S
C82 O101 1.239 . S
C83 C82 1.498 . S
C83 C84 1.366 . S
C83 C88 1.407 . S
C84 C83 1.366 . S
C84 C85 1.392 . S
C84 H112 0.930 . S
C85 C84 1.392 . S
C85 C86 1.398 . S
C85 H113 0.929 . S
C86 C85 1.398 . S
C86 C87 1.352 . S
C87 C86 1.352 . S
C87 C88 1.384 . S
C87 H114 0.930 . S
C88 C83 1.407 . S
C88 C87 1.384 . S
C88 H115 0.929 . S
C89 O102 1.241 . S
C89 O103 1.273 . S
C90 O104 1.251 . S
C90 O105 1.268 . S
C91 Nd81 2.836 . S
C91 C92 1.498 . S
C91 O106 1.258 . S
C91 O107 1.239 . S
C92 C91 1.498 . S
C92 C93 1.366 . S
C92 C97 1.407 . S
C93 C92 1.366 . S
C93 C94 1.392 . S
C93 H116 0.930 . S
C94 C93 1.392 . S
C94 C95 1.398 . S
C94 H117 0.929 . S
C95 C94 1.398 . S
C95 C96 1.352 . S
C96 C95 1.352 . S
C96 C97 1.384 . S
C96 H118 0.930 . S
C97 C92 1.407 . S
C97 C96 1.384 . S
C97 H119 0.929 . S
C98 O108 1.241 . S
C98 O109 1.273 . S
C99 O110 1.251 . S
C99 O111 1.268 . S
O100 Nd80 2.500 . S
O100 C82 1.258 . S
O101 Nd80 2.492 . S
O101 C82 1.239 . S
O102 Nd80 2.487 . S
O102 C89 1.241 . S
O103 Nd80 2.682 . S
O103 Nd81 2.414 . S
O103 C89 1.273 . S
O104 Nd80 2.410 . S
O104 C90 1.251 . S
O105 Nd81 2.424 . S
O105 C90 1.268 . S
O106 Nd81 2.500 . S
O106 C91 1.258 . S
O107 Nd81 2.492 . S
O107 C91 1.239 . S
O108 Nd81 2.487 . S
O108 C98 1.241 . S
O109 Nd80 2.414 . S
O109 Nd81 2.682 . S
O109 C98 1.273 . S
O110 Nd81 2.410 . S
O110 C99 1.251 . S
O111 Nd80 2.424 . S
O111 C99 1.268 . S
H112 C84 0.930 . S
H113 C85 0.929 . S
H114 C87 0.930 . S
H115 C88 0.929 . S
H116 C93 0.930 . S
H117 C94 0.929 . S
H118 C96 0.930 . S
H119 C97 0.929 . S
C120 N121 1.317 1_565 S
C120 N122 1.348 . S
C120 C123 1.484 1_565 S
N121 C120 1.317 1_545 S
N121 N125 1.370 . S
N122 C120 1.348 . S
N122 C124 1.346 . S
C123 C120 1.484 1_545 S
C123 H127 0.969 . S
C123 H128 0.952 1_545 S
C123 H129 0.961 . S
C124 N122 1.346 . S
C124 N125 1.307 1_565 S
C124 C126 1.486 . S
N125 N121 1.370 . S
N125 C124 1.307 1_545 S
C126 C124 1.486 . S
C126 H130 0.960 . S
C126 H131 0.960 . S
C126 H132 0.959 . S
H127 C123 0.969 . S
H128 C123 0.952 1_565 S
H129 C123 0.961 . S
H130 C126 0.960 . S
H131 C126 0.960 . S
H132 C126 0.959 . S
C133 N134 1.317 . S
C133 N135 1.348 . S
C133 C136 1.485 . S
N134 C133 1.317 . S
N134 N138 1.370 . S
N135 C133 1.348 . S
N135 C137 1.346 . S
C136 C133 1.485 . S
C136 H140 0.960 . S
C136 H141 0.961 . S
C136 H142 0.960 . S
C137 N135 1.346 . S
C137 N138 1.307 . S
C137 C139 1.486 . S
N138 N134 1.370 . S
N138 C137 1.307 . S
C139 C137 1.486 . S
C139 H143 0.960 . S
C139 H144 0.960 . S
C139 H145 0.959 . S
H140 C136 0.960 . S
H141 C136 0.961 . S
H142 C136 0.960 . S
H143 C139 0.960 . S
H144 C139 0.960 . S
H145 C139 0.959 . S
C146 N147 1.317 . S
C146 N148 1.348 1_455 S
C146 C149 1.485 . S
N147 C146 1.317 . S
N147 N151 1.370 . S
N148 C146 1.348 1_655 S
N148 C150 1.346 . S
C149 C146 1.485 . S
C149 H153 0.960 . S
C149 H154 0.961 . S
C149 H155 0.960 . S
C150 N148 1.346 . S
C150 N151 1.307 1_655 S
C150 C152 1.486 . S
N151 N147 1.370 . S
N151 C150 1.307 1_455 S
C152 C150 1.486 . S
C152 H156 0.960 . S
C152 H157 0.960 . S
C152 H158 0.959 . S
H153 C149 0.960 . S
H154 C149 0.961 . S
H155 C149 0.960 . S
H156 C152 0.960 . S
H157 C152 0.960 . S
H158 C152 0.959 . S
C159 N160 1.317 1_455 S
C159 N161 1.348 . S
C159 C162 1.485 . S
N160 C159 1.317 1_655 S
N160 N164 1.370 1_655 S
N161 C159 1.348 . S
N161 C163 1.346 . S
C162 C159 1.485 . S
C162 H166 0.960 1_455 S
C162 H167 0.961 . S
C162 H168 0.960 1_455 S
C163 N161 1.346 . S
C163 N164 1.307 . S
C163 C165 1.486 . S
N164 N160 1.370 1_455 S
N164 C163 1.307 . S
C165 C163 1.486 . S
C165 H169 0.960 . S
C165 H170 0.960 . S
C165 H171 0.959 . S
H166 C162 0.960 1_655 S
H167 C162 0.961 . S
H168 C162 0.960 1_655 S
H169 C165 0.960 . S
H170 C165 0.960 . S
H171 C165 0.959 . S
C172 N173 1.317 . S
C172 N174 1.348 . S
C172 C175 1.485 . S
N173 C172 1.317 . S
N173 N177 1.370 . S
N174 C172 1.348 . S
N174 C176 1.346 . S
C175 C172 1.485 . S
C175 H179 0.960 . S
C175 H180 0.961 . S
C175 H181 0.960 . S
C176 N174 1.346 . S
C176 N177 1.307 . S
C176 C178 1.486 . S
N177 N173 1.370 . S
N177 C176 1.307 . S
C178 C176 1.486 . S
C178 H182 0.960 . S
C178 H183 0.960 . S
C178 H184 0.959 . S
H179 C175 0.960 . S
H180 C175 0.961 . S
H181 C175 0.960 . S
H182 C178 0.960 . S
H183 C178 0.960 . S
H184 C178 0.959 . S
C185 N186 1.317 . S
C185 N187 1.348 . S
C185 C188 1.485 . S
N186 C185 1.317 . S
N186 N190 1.370 . S
N187 C185 1.348 . S
N187 C189 1.346 . S
C188 C185 1.485 . S
C188 H192 0.960 . S
C188 H193 0.961 . S
C188 H194 0.960 . S
C189 N187 1.346 . S
C189 N190 1.307 . S
C189 C191 1.486 . S
N190 N186 1.370 . S
N190 C189 1.307 . S
C191 C189 1.486 . S
C191 H195 0.960 . S
C191 H196 0.960 . S
C191 H197 0.959 . S
H192 C188 0.960 . S
H193 C188 0.961 . S
H194 C188 0.960 . S
H195 C191 0.960 . S
H196 C191 0.960 . S
H197 C191 0.959 . S
H198 C206 0.950 . S
H199 C211 0.950 . S
H200 C208 0.950 . S
H201 C210 0.950 . S
H202 C212 0.950 . S
H203 C214 0.950 . S
H204 C216 0.950 . S
H205 C217 0.950 . S
C206 H198 0.950 . S
C206 C207 1.386 . S
C206 C208 1.391 . S
C207 C206 1.386 . S
C207 C211 1.393 . S
C208 H200 0.950 . S
C208 C206 1.391 . S
C208 C209 1.400 . S
C209 C208 1.400 . S
C209 C210 1.398 . S
C209 C215 1.491 . S
C210 H201 0.950 . S
C210 C209 1.398 . S
C210 C211 1.391 . S
C211 H199 0.950 . S
C211 C207 1.393 . S
C211 C210 1.391 . S
C212 H202 0.950 . S
C212 C213 1.386 . S
C212 C214 1.391 . S
C213 C212 1.386 . S
C213 C217 1.393 . S
C214 H203 0.950 . S
C214 C212 1.391 . S
C214 C215 1.400 . S
C215 C209 1.491 . S
C215 C214 1.400 . S
C215 C216 1.398 . S
C216 H204 0.950 . S
C216 C215 1.398 . S
C216 C217 1.391 . S
C217 H205 0.950 . S
C217 C213 1.393 . S
C217 C216 1.391 . S
H218 C226 0.950 . S
H219 C231 0.950 . S
H220 C228 0.950 . S
H221 C230 0.950 . S
H222 C232 0.950 . S
H223 C234 0.950 . S
H224 C236 0.950 . S
H225 C237 0.950 . S
C226 H218 0.950 . S
C226 C227 1.386 . S
C226 C228 1.391 . S
C227 C226 1.386 . S
C227 C231 1.393 . S
C228 H220 0.950 . S
C228 C226 1.391 . S
C228 C229 1.400 . S
C229 C228 1.400 . S
C229 C230 1.398 . S
C229 C235 1.491 . S
C230 H221 0.950 . S
C230 C229 1.398 . S
C230 C231 1.391 . S
C231 H219 0.950 . S
C231 C227 1.393 . S
C231 C230 1.391 . S
C232 H222 0.950 . S
C232 C233 1.386 . S
C232 C234 1.391 . S
C233 C232 1.386 . S
C233 C237 1.393 . S
C234 H223 0.950 . S
C234 C232 1.391 . S
C234 C235 1.400 . S
C235 C229 1.491 . S
C235 C234 1.400 . S
C235 C236 1.398 . S
C236 H224 0.950 . S
C236 C235 1.398 . S
C236 C237 1.391 . S
C237 H225 0.950 . S
C237 C233 1.393 . S
C237 C236 1.391 . S
H238 C246 0.950 . S
H239 C251 0.950 . S
H240 C248 0.950 . S
H241 C250 0.950 . S
H242 C252 0.950 . S
H243 C254 0.950 . S
H244 C256 0.950 . S
H245 C257 0.950 . S
C246 H238 0.950 . S
C246 C247 1.386 . S
C246 C248 1.391 . S
C247 C246 1.386 . S
C247 C251 1.393 . S
C248 H240 0.950 . S
C248 C246 1.391 . S
C248 C249 1.400 . S
C249 C248 1.400 . S
C249 C250 1.398 . S
C249 C255 1.491 . S
C250 H241 0.950 . S
C250 C249 1.398 . S
C250 C251 1.391 . S
C251 H239 0.950 . S
C251 C247 1.393 . S
C251 C250 1.391 . S
C252 H242 0.950 . S
C252 C253 1.386 . S
C252 C254 1.391 . S
C253 C252 1.386 . S
C253 C257 1.393 . S
C254 H243 0.950 . S
C254 C252 1.391 . S
C254 C255 1.400 . S
C255 C249 1.491 . S
C255 C254 1.400 . S
C255 C256 1.398 . S
C256 H244 0.950 . S
C256 C255 1.398 . S
C256 C257 1.391 . S
C257 H245 0.950 . S
C257 C253 1.393 . S
C257 C256 1.391 . S
H258 C266 0.950 . S
H259 C271 0.950 . S
H260 C268 0.950 . S
H261 C270 0.950 . S
H262 C272 0.950 . S
H263 C274 0.950 . S
H264 C276 0.950 . S
H265 C277 0.950 . S
C266 H258 0.950 . S
C266 C267 1.386 . S
C266 C268 1.391 . S
C267 C266 1.386 . S
C267 C271 1.393 . S
C268 H260 0.950 . S
C268 C266 1.391 . S
C268 C269 1.400 . S
C269 C268 1.400 . S
C269 C270 1.398 . S
C269 C275 1.491 . S
C270 H261 0.950 . S
C270 C269 1.398 . S
C270 C271 1.391 . S
C271 H259 0.950 . S
C271 C267 1.393 . S
C271 C270 1.391 . S
C272 H262 0.950 . S
C272 C273 1.386 . S
C272 C274 1.391 . S
C273 C272 1.386 . S
C273 C277 1.393 . S
C274 H263 0.950 . S
C274 C272 1.391 . S
C274 C275 1.400 . S
C275 C269 1.491 . S
C275 C274 1.400 . S
C275 C276 1.398 . S
C276 H264 0.950 . S
C276 C275 1.398 . S
C276 C277 1.391 . S
C277 H265 0.950 . S
C277 C273 1.393 . S
C277 C276 1.391 . S
H278 C286 0.950 . S
H279 C291 0.950 . S
H280 C288 0.950 . S
H281 C290 0.950 . S
H282 C292 0.950 . S
H283 C294 0.950 . S
H284 C296 0.950 . S
H285 C297 0.950 . S
C286 H278 0.950 . S
C286 C287 1.386 . S
C286 C288 1.391 . S
C287 C286 1.386 . S
C287 C291 1.393 . S
C288 H280 0.950 . S
C288 C286 1.391 . S
C288 C289 1.400 . S
C289 C288 1.400 . S
C289 C290 1.398 . S
C289 C295 1.491 . S
C290 H281 0.950 . S
C290 C289 1.398 . S
C290 C291 1.391 . S
C291 H279 0.950 . S
C291 C287 1.393 . S
C291 C290 1.391 . S
C292 H282 0.950 . S
C292 C293 1.386 . S
C292 C294 1.391 . S
C293 C292 1.386 . S
C293 C297 1.393 . S
C294 H283 0.950 . S
C294 C292 1.391 . S
C294 C295 1.400 . S
C295 C289 1.491 . S
C295 C294 1.400 . S
C295 C296 1.398 . S
C296 H284 0.950 . S
C296 C295 1.398 . S
C296 C297 1.391 . S
C297 H285 0.950 . S
C297 C293 1.393 . S
C297 C296 1.391 . S
H298 C306 0.950 . S
H299 C311 0.950 . S
H300 C308 0.950 . S
H301 C310 0.950 . S
H302 C312 0.950 . S
H303 C314 0.950 . S
H304 C316 0.950 . S
H305 C317 0.950 . S
C306 H298 0.950 . S
C306 C307 1.386 . S
C306 C308 1.391 . S
C307 C306 1.386 . S
C307 C311 1.393 . S
C308 H300 0.950 . S
C308 C306 1.391 . S
C308 C309 1.400 . S
C309 C308 1.400 . S
C309 C310 1.398 . S
C309 C315 1.491 . S
C310 H301 0.950 . S
C310 C309 1.398 . S
C310 C311 1.391 . S
C311 H299 0.950 . S
C311 C307 1.393 . S
C311 C310 1.391 . S
C312 H302 0.950 . S
C312 C313 1.386 . S
C312 C314 1.391 . S
C313 C312 1.386 . S
C313 C317 1.393 . S
C314 H303 0.950 . S
C314 C312 1.391 . S
C314 C315 1.400 . S
C315 C309 1.491 . S
C315 C314 1.400 . S
C315 C316 1.398 . S
C316 H304 0.950 . S
C316 C315 1.398 . S
C316 C317 1.391 . S
C317 H305 0.950 . S
C317 C313 1.393 . S
C317 C316 1.391 . S
H318 C326 0.950 . S
H319 C331 0.950 . S
H320 C328 0.950 . S
H321 C330 0.950 . S
H322 C332 0.950 . S
H323 C334 0.950 . S
H324 C336 0.950 . S
H325 C337 0.950 . S
C326 H318 0.950 . S
C326 C327 1.386 . S
C326 C328 1.391 . S
C327 C326 1.386 . S
C327 C331 1.393 . S
C328 H320 0.950 . S
C328 C326 1.391 . S
C328 C329 1.400 . S
C329 C328 1.400 . S
C329 C330 1.398 . S
C329 C335 1.491 . S
C330 H321 0.950 . S
C330 C329 1.398 . S
C330 C331 1.391 . S
C331 H319 0.950 . S
C331 C327 1.393 . S
C331 C330 1.391 . S
C332 H322 0.950 . S
C332 C333 1.386 . S
C332 C334 1.391 . S
C333 C332 1.386 . S
C333 C337 1.393 . S
C334 H323 0.950 . S
C334 C332 1.391 . S
C334 C335 1.400 . S
C335 C329 1.491 . S
C335 C334 1.400 . S
C335 C336 1.398 . S
C336 H324 0.950 . S
C336 C335 1.398 . S
C336 C337 1.391 . S
C337 H325 0.950 . S
C337 C333 1.393 . S
C337 C336 1.391 . S
H338 C346 0.950 . S
H339 C351 0.950 . S
H340 C348 0.950 . S
H341 C350 0.950 . S
H342 C352 0.950 . S
H343 C354 0.950 . S
H344 C356 0.950 . S
H345 C357 0.950 . S
C346 H338 0.950 . S
C346 C347 1.386 . S
C346 C348 1.391 . S
C347 C346 1.386 . S
C347 C351 1.393 . S
C348 H340 0.950 . S
C348 C346 1.391 . S
C348 C349 1.400 . S
C349 C348 1.400 . S
C349 C350 1.398 . S
C349 C355 1.491 . S
C350 H341 0.950 . S
C350 C349 1.398 . S
C350 C351 1.391 . S
C351 H339 0.950 . S
C351 C347 1.393 . S
C351 C350 1.391 . S
C352 H342 0.950 . S
C352 C353 1.386 . S
C352 C354 1.391 . S
C353 C352 1.386 . S
C353 C357 1.393 . S
C354 H343 0.950 . S
C354 C352 1.391 . S
C354 C355 1.400 . S
C355 C349 1.491 . S
C355 C354 1.400 . S
C355 C356 1.398 . S
C356 H344 0.950 . S
C356 C355 1.398 . S
C356 C357 1.391 . S
C357 H345 0.950 . S
C357 C353 1.393 . S
C357 C356 1.391 . S
H358 C366 0.950 . S
H359 C371 0.950 . S
H360 C368 0.950 . S
H361 C370 0.950 . S
H362 C372 0.950 . S
H363 C374 0.950 . S
H364 C376 0.950 . S
H365 C377 0.950 . S
C366 H358 0.950 . S
C366 C367 1.386 . S
C366 C368 1.391 . S
C367 C366 1.386 . S
C367 C371 1.393 . S
C368 H360 0.950 . S
C368 C366 1.391 . S
C368 C369 1.400 . S
C369 C368 1.400 . S
C369 C370 1.398 . S
C369 C375 1.491 . S
C370 H361 0.950 . S
C370 C369 1.398 . S
C370 C371 1.391 . S
C371 H359 0.950 . S
C371 C367 1.393 . S
C371 C370 1.391 . S
C372 H362 0.950 . S
C372 C373 1.386 . S
C372 C374 1.391 . S
C373 C372 1.386 . S
C373 C377 1.393 . S
C374 H363 0.950 . S
C374 C372 1.391 . S
C374 C375 1.400 . S
C375 C369 1.491 . S
C375 C374 1.400 . S
C375 C376 1.398 . S
C376 H364 0.950 . S
C376 C375 1.398 . S
C376 C377 1.391 . S
C377 H365 0.950 . S
C377 C373 1.393 . S
C377 C376 1.391 . S
H378 C386 0.950 . S
H379 C391 0.950 . S
H380 C388 0.950 . S
H381 C390 0.950 . S
H382 C392 0.950 . S
H383 C394 0.950 . S
H384 C396 0.950 . S
H385 C397 0.950 . S
C386 H378 0.950 . S
C386 C387 1.386 . S
C386 C388 1.391 . S
C387 C386 1.386 . S
C387 C391 1.393 . S
C388 H380 0.950 . S
C388 C386 1.391 . S
C388 C389 1.400 . S
C389 C388 1.400 . S
C389 C390 1.398 . S
C389 C395 1.491 . S
C390 H381 0.950 . S
C390 C389 1.398 . S
C390 C391 1.391 . S
C391 H379 0.950 . S
C391 C387 1.393 . S
C391 C390 1.391 . S
C392 H382 0.950 . S
C392 C393 1.386 . S
C392 C394 1.391 . S
C393 C392 1.386 . S
C393 C397 1.393 . S
C394 H383 0.950 . S
C394 C392 1.391 . S
C394 C395 1.400 . S
C395 C389 1.491 . S
C395 C394 1.400 . S
C395 C396 1.398 . S
C396 H384 0.950 . S
C396 C395 1.398 . S
C396 C397 1.391 . S
C397 H385 0.950 . S
C397 C393 1.393 . S
C397 C396 1.391 . S
H398 C406 0.950 . S
H399 C411 0.950 . S
H400 C408 0.950 . S
H401 C410 0.950 . S
H402 C412 0.950 . S
H403 C414 0.950 . S
H404 C416 0.950 . S
H405 C417 0.950 . S
C406 H398 0.950 . S
C406 C407 1.386 . S
C406 C408 1.391 . S
C407 C406 1.386 . S
C407 C411 1.393 . S
C408 H400 0.950 . S
C408 C406 1.391 . S
C408 C409 1.400 . S
C409 C408 1.400 . S
C409 C410 1.398 . S
C409 C415 1.491 . S
C410 H401 0.950 . S
C410 C409 1.398 . S
C410 C411 1.391 . S
C411 H399 0.950 . S
C411 C407 1.393 . S
C411 C410 1.391 . S
C412 H402 0.950 . S
C412 C413 1.386 . S
C412 C414 1.391 . S
C413 C412 1.386 . S
C413 C417 1.393 . S
C414 H403 0.950 . S
C414 C412 1.391 . S
C414 C415 1.400 . S
C415 C409 1.491 . S
C415 C414 1.400 . S
C415 C416 1.398 . S
C416 H404 0.950 . S
C416 C415 1.398 . S
C416 C417 1.391 . S
C417 H405 0.950 . S
C417 C413 1.393 . S
C417 C416 1.391 . S
H418 C426 0.950 . S
H419 C431 0.950 . S
H420 C428 0.950 . S
H421 C430 0.950 . S
H422 C432 0.950 1_565 S
H423 C434 0.950 . S
H424 C436 0.950 . S
H425 C437 0.950 . S
C426 H418 0.950 . S
C426 C427 1.386 . S
C426 C428 1.391 . S
C427 C426 1.386 . S
C427 C431 1.393 . S
C428 H420 0.950 . S
C428 C426 1.391 . S
C428 C429 1.400 . S
C429 C428 1.400 . S
C429 C430 1.398 . S
C429 C435 1.491 . S
C430 H421 0.950 . S
C430 C429 1.398 . S
C430 C431 1.391 . S
C431 H419 0.950 . S
C431 C427 1.393 . S
C431 C430 1.391 . S
C432 H422 0.950 1_545 S
C432 C433 1.386 . S
C432 C434 1.391 . S
C433 C432 1.386 . S
C433 C437 1.393 . S
C434 H423 0.950 . S
C434 C432 1.391 . S
C434 C435 1.400 . S
C435 C429 1.491 . S
C435 C434 1.400 . S
C435 C436 1.398 . S
C436 H424 0.950 . S
C436 C435 1.398 . S
C436 C437 1.391 . S
C437 H425 0.950 . S
C437 C433 1.393 . S
C437 C436 1.391 . S
H438 C446 0.950 . S
H439 C451 0.950 . S
H440 C448 0.950 . S
H441 C450 0.950 . S
H442 C452 0.950 . S
H443 C454 0.950 . S
H444 C456 0.950 . S
H445 C457 0.950 . S
C446 H438 0.950 . S
C446 C447 1.386 . S
C446 C448 1.391 . S
C447 C446 1.386 . S
C447 C451 1.393 1_455 S
C448 H440 0.950 . S
C448 C446 1.391 . S
C448 C449 1.400 . S
C449 C448 1.400 . S
C449 C450 1.398 1_455 S
C449 C455 1.491 1_554 S
C450 H441 0.950 . S
C450 C449 1.398 1_655 S
C450 C451 1.391 . S
C451 H439 0.950 . S
C451 C447 1.393 1_655 S
C451 C450 1.391 . S
C452 H442 0.950 . S
C452 C453 1.386 1_655 S
C452 C454 1.391 . S
C453 C452 1.386 1_455 S
C453 C457 1.393 . S
C454 H443 0.950 . S
C454 C452 1.391 . S
C454 C455 1.400 1_655 S
C455 C449 1.491 1_556 S
C455 C454 1.400 1_455 S
C455 C456 1.398 . S
C456 H444 0.950 . S
C456 C455 1.398 . S
C456 C457 1.391 . S
C457 H445 0.950 . S
C457 C453 1.393 . S
C457 C456 1.391 . S
H458 C466 0.950 . S
H459 C471 0.950 . S
H460 C468 0.950 . S
H461 C470 0.950 . S
H462 C472 0.950 . S
H463 C474 0.950 . S
H464 C476 0.950 . S
H465 C477 0.950 . S
C466 H458 0.950 . S
C466 C467 1.386 . S
C466 C468 1.391 . S
C467 C466 1.386 . S
C467 C471 1.393 1_545 S
C468 H460 0.950 . S
C468 C466 1.391 . S
C468 C469 1.400 . S
C469 C468 1.400 . S
C469 C470 1.398 1_545 S
C469 C475 1.491 . S
C470 H461 0.950 . S
C470 C469 1.398 1_565 S
C470 C471 1.391 . S
C471 H459 0.950 . S
C471 C467 1.393 1_565 S
C471 C470 1.391 . S
C472 H462 0.950 . S
C472 C473 1.386 1_565 S
C472 C474 1.391 . S
C473 C472 1.386 1_545 S
C473 C477 1.393 . S
C474 H463 0.950 . S
C474 C472 1.391 . S
C474 C475 1.400 1_565 S
C475 C469 1.491 . S
C475 C474 1.400 1_545 S
C475 C476 1.398 . S
C476 H464 0.950 . S
C476 C475 1.398 . S
C476 C477 1.391 . S
C477 H465 0.950 . S
C477 C473 1.393 . S
C477 C476 1.391 . S
H478 C486 0.950 . S
H479 C491 0.950 . S
H480 C488 0.950 . S
H481 C490 0.950 . S
H482 C492 0.950 . S
H483 C494 0.950 . S
H484 C496 0.950 . S
H485 C497 0.950 . S
C486 H478 0.950 . S
C486 C487 1.386 . S
C486 C488 1.391 . S
C487 C486 1.386 . S
C487 C491 1.393 . S
C488 H480 0.950 . S
C488 C486 1.391 . S
C488 C489 1.400 . S
C489 C488 1.400 . S
C489 C490 1.398 . S
C489 C495 1.491 . S
C490 H481 0.950 . S
C490 C489 1.398 . S
C490 C491 1.391 . S
C491 H479 0.950 . S
C491 C487 1.393 . S
C491 C490 1.391 . S
C492 H482 0.950 . S
C492 C493 1.386 . S
C492 C494 1.391 . S
C493 C492 1.386 . S
C493 C497 1.393 . S
C494 H483 0.950 . S
C494 C492 1.391 . S
C494 C495 1.400 . S
C495 C489 1.491 . S
C495 C494 1.400 . S
C495 C496 1.398 . S
C496 H484 0.950 . S
C496 C495 1.398 . S
C496 C497 1.391 . S
C497 H485 0.950 . S
C497 C493 1.393 . S
C497 C496 1.391 . S
H498 C506 0.950 . S
H499 C511 0.950 . S
H500 C508 0.950 . S
H501 C510 0.950 . S
H502 C512 0.950 . S
H503 C514 0.950 . S
H504 C516 0.950 . S
H505 C517 0.950 . S
C506 H498 0.950 . S
C506 C507 1.386 1_565 S
C506 C508 1.391 . S
C507 C506 1.386 1_545 S
C507 C511 1.393 . S
C508 H500 0.950 . S
C508 C506 1.391 . S
C508 C509 1.400 1_565 S
C509 C508 1.400 1_545 S
C509 C510 1.398 . S
C509 C515 1.491 . S
C510 H501 0.950 . S
C510 C509 1.398 . S
C510 C511 1.391 . S
C511 H499 0.950 . S
C511 C507 1.393 . S
C511 C510 1.391 . S
C512 H502 0.950 . S
C512 C513 1.386 . S
C512 C514 1.391 . S
C513 C512 1.386 . S
C513 C517 1.393 1_545 S
C514 H503 0.950 . S
C514 C512 1.391 . S
C514 C515 1.400 . S
C515 C509 1.491 . S
C515 C514 1.400 . S
C515 C516 1.398 1_545 S
C516 H504 0.950 . S
C516 C515 1.398 1_565 S
C516 C517 1.391 . S
C517 H505 0.950 . S
C517 C513 1.393 1_565 S
C517 C516 1.391 . S
H518 C526 0.950 . S
H519 C531 0.950 . S
H520 C528 0.950 . S
H521 C530 0.950 . S
H522 C532 0.950 . S
H523 C534 0.950 . S
H524 C536 0.950 . S
H525 C537 0.950 . S
C526 H518 0.950 . S
C526 C527 1.386 . S
C526 C528 1.391 . S
C527 C526 1.386 . S
C527 C531 1.393 . S
C528 H520 0.950 . S
C528 C526 1.391 . S
C528 C529 1.400 . S
C529 C528 1.400 . S
C529 C530 1.398 . S
C529 C535 1.491 1_556 S
C530 H521 0.950 . S
C530 C529 1.398 . S
C530 C531 1.391 . S
C531 H519 0.950 . S
C531 C527 1.393 . S
C531 C530 1.391 . S
C532 H522 0.950 . S
C532 C533 1.386 . S
C532 C534 1.391 . S
C533 C532 1.386 . S
C533 C537 1.393 . S
C534 H523 0.950 . S
C534 C532 1.391 . S
C534 C535 1.400 . S
C535 C529 1.491 1_554 S
C535 C534 1.400 . S
C535 C536 1.398 . S
C536 H524 0.950 . S
C536 C535 1.398 . S
C536 C537 1.391 . S
C537 H525 0.950 . S
C537 C533 1.393 . S
C537 C536 1.391 . S
H538 C546 0.950 . S
H539 C551 0.949 . S
H540 C548 0.950 . S
H541 C550 0.950 . S
H542 C552 0.950 . S
H543 C554 0.950 . S
H544 C556 0.950 . S
H545 C557 0.950 . S
C546 H538 0.950 . S
C546 C547 1.386 . S
C546 C548 1.391 . S
C547 C546 1.386 . S
C547 C551 1.393 1_655 S
C548 H540 0.950 . S
C548 C546 1.391 . S
C548 C549 1.400 . S
C549 C548 1.400 . S
C549 C550 1.398 1_655 S
C549 C555 1.491 . S
C550 H541 0.950 . S
C550 C549 1.398 1_455 S
C550 C551 1.391 . S
C551 H539 0.949 . S
C551 C547 1.393 1_455 S
C551 C550 1.391 . S
C552 H542 0.950 . S
C552 C553 1.386 1_455 S
C552 C554 1.391 . S
C553 C552 1.386 1_655 S
C553 C557 1.393 . S
C554 H543 0.950 . S
C554 C552 1.391 . S
C554 C555 1.400 1_455 S
C555 C549 1.491 . S
C555 C554 1.400 1_655 S
C555 C556 1.398 . S
C556 H544 0.950 . S
C556 C555 1.398 . S
C556 C557 1.391 . S
C557 H545 0.950 . S
C557 C553 1.393 . S
C557 C556 1.391 . S
C207 C10 2.833 . S
C213 N187 2.787 . S
C227 C55 1.082 . S
C233 N160 1.090 . S
C247 C90 1.810 . S
C253 N173 1.819 1_565 S
C267 C19 3.229 . S
C273 N186 3.276 . S
C293 N161 1.421 . S
C287 C46 1.376 . S
C313 N174 2.024 . S
C307 C99 2.006 . S
C327 C50 1.808 . S
C333 N134 1.803 . S
C347 C95 0.341 . S
C353 N148 0.295 . S
C367 C6 1.344 . S
C373 N122 1.354 . S
C393 N135 1.985 . S
C387 C59 1.985 . S
C413 N147 0.750 . S
C407 C86 0.771 . S
C427 C15 1.196 . S
C433 N121 1.188 . S
C453 N151 1.276 . S
C447 C18 1.269 . S
C467 C49 1.475 . S
C473 N125 1.540 . S
C487 C98 1.446 . S
C493 N138 1.461 . S
C513 N177 1.476 . S
C507 C58 1.461 . S
C533 N190 1.745 . S
C527 C89 1.711 . S
C547 C9 1.489 . S
C553 N164 1.593 1_655 S
