# Generated by pormake.
# Topology pyr, (3,6)-cn, num edge types: 1
# Building blocks:
#     Node 0, Type 0, BuildingBlock: VETTIZ_charged_linker_0, # of connection points: 3
#     Node 1, Type 0, BuildingBlock: VETTIZ_charged_linker_0, # of connection points: 3
#     Node 2, Type 0, BuildingBlock: VETTIZ_charged_linker_0, # of connection points: 3
#     Node 3, Type 0, BuildingBlock: VETTIZ_charged_linker_0, # of connection points: 3
#     Node 4, Type 0, BuildingBlock: VETTIZ_charged_linker_0, # of connection points: 3
#     Node 5, Type 0, BuildingBlock: VETTIZ_charged_linker_0, # of connection points: 3
#     Node 6, Type 0, BuildingBlock: VETTIZ_charged_linker_0, # of connection points: 3
#     Node 7, Type 0, BuildingBlock: VETTIZ_charged_linker_0, # of connection points: 3
#     Node 8, Type 1, BuildingBlock: FUNLAD_clean_sbu_0, # of connection points: 6
#     Node 9, Type 1, BuildingBlock: FUNLAD_clean_sbu_0, # of connection points: 6
#     Node 10, Type 1, BuildingBlock: FUNLAD_clean_sbu_0, # of connection points: 6
#     Node 11, Type 1, BuildingBlock: FUNLAD_clean_sbu_0, # of connection points: 6
#     Edge 12, Type (0, 1), BuildingBlock: EZIPEK_clean_linker_0, # of connection points: 2
#     Edge 13, Type (0, 1), BuildingBlock: EZIPEK_clean_linker_0, # of connection points: 2
#     Edge 14, Type (0, 1), BuildingBlock: EZIPEK_clean_linker_0, # of connection points: 2
#     Edge 15, Type (0, 1), BuildingBlock: EZIPEK_clean_linker_0, # of connection points: 2
#     Edge 16, Type (0, 1), BuildingBlock: EZIPEK_clean_linker_0, # of connection points: 2
#     Edge 17, Type (0, 1), BuildingBlock: EZIPEK_clean_linker_0, # of connection points: 2
#     Edge 18, Type (0, 1), BuildingBlock: EZIPEK_clean_linker_0, # of connection points: 2
#     Edge 19, Type (0, 1), BuildingBlock: EZIPEK_clean_linker_0, # of connection points: 2
#     Edge 20, Type (0, 1), BuildingBlock: EZIPEK_clean_linker_0, # of connection points: 2
#     Edge 21, Type (0, 1), BuildingBlock: EZIPEK_clean_linker_0, # of connection points: 2
#     Edge 22, Type (0, 1), BuildingBlock: EZIPEK_clean_linker_0, # of connection points: 2
#     Edge 23, Type (0, 1), BuildingBlock: EZIPEK_clean_linker_0, # of connection points: 2
#     Edge 24, Type (0, 1), BuildingBlock: EZIPEK_clean_linker_0, # of connection points: 2
#     Edge 25, Type (0, 1), BuildingBlock: EZIPEK_clean_linker_0, # of connection points: 2
#     Edge 26, Type (0, 1), BuildingBlock: EZIPEK_clean_linker_0, # of connection points: 2
#     Edge 27, Type (0, 1), BuildingBlock: EZIPEK_clean_linker_0, # of connection points: 2
#     Edge 28, Type (0, 1), BuildingBlock: EZIPEK_clean_linker_0, # of connection points: 2
#     Edge 29, Type (0, 1), BuildingBlock: EZIPEK_clean_linker_0, # of connection points: 2
#     Edge 30, Type (0, 1), BuildingBlock: EZIPEK_clean_linker_0, # of connection points: 2
#     Edge 31, Type (0, 1), BuildingBlock: EZIPEK_clean_linker_0, # of connection points: 2
#     Edge 32, Type (0, 1), BuildingBlock: EZIPEK_clean_linker_0, # of connection points: 2
#     Edge 33, Type (0, 1), BuildingBlock: EZIPEK_clean_linker_0, # of connection points: 2
#     Edge 34, Type (0, 1), BuildingBlock: EZIPEK_clean_linker_0, # of connection points: 2
#     Edge 35, Type (0, 1), BuildingBlock: EZIPEK_clean_linker_0, # of connection points: 2
# Relax obj value: 0.086
# Max RMSD: 0.073
# Mean RMSD: 0.034
data_MOF--net-pry--node1-FUNLAD_clean_sbu_0--node2-VETTIZ_charged_linker_0--edge1-EZIPEK_clean_linker_0
_symmetry_space_group_name_H-M    P1
_symmetry_Int_Tables_number       1
_symmetry_cell_setting            triclinic
loop_
_symmetry_equiv_pos_as_xyz
'x, y, z'
_cell_length_a     34.15062
_cell_length_b     36.42526
_cell_length_c     36.530596
_cell_angle_alpha  90.092554
_cell_angle_beta   90.105566
_cell_angle_gamma 84.780984
loop_
_atom_site_label
_atom_site_type_symbol
_atom_site_fract_x
_atom_site_fract_y
_atom_site_fract_z
_atom_type_partial_charge
C0 C 0.11326 0.09616 0.29844 0.0
C1 C 0.08006 0.10862 0.31947 0.0
C2 C 0.0575 0.14099 0.30763 0.0
C3 C 0.10141 0.14784 0.25543 0.0
C4 C 0.12327 0.11592 0.26694 0.0
C5 C 0.15768 0.10577 0.24201 0.0
H6 H 0.26856 0.141 0.09383 0.0
C7 C 0.12055 0.162 0.22166 0.0
C8 C 0.15375 0.13694 0.21413 0.0
H9 H 0.28531 0.04838 0.16732 0.0
H10 H 0.22801 0.07193 0.20232 0.0
H11 H 0.25335 0.19966 0.15199 0.0
H12 H 0.17078 0.14361 0.08907 0.0
H13 H 0.15636 0.19131 0.08796 0.0
H14 H 0.20375 0.17448 0.07051 0.0
H15 H 0.2373 0.21611 0.10776 0.0
H16 H 0.21131 0.23103 0.14904 0.0
C17 C 0.19589 0.10618 0.26483 0.0
C18 C 0.15181 0.06804 0.22417 0.0
C19 C 0.0646 0.27899 0.15018 0.0
C20 C 0.07738 0.29704 0.11786 0.0
C21 C 0.11616 0.28512 0.10626 0.0
C22 C 0.13767 0.25382 0.12073 0.0
C23 C 0.12206 0.23381 0.14911 0.0
C24 C 0.08695 0.24726 0.16472 0.0
C25 C 0.07783 0.22409 0.19798 0.0
C26 C 0.11214 0.19364 0.19812 0.0
C27 C 0.13767 0.19973 0.16884 0.0
C28 C 0.07833 0.24865 0.23238 0.0
C29 C 0.03803 0.20821 0.19164 0.0
C30 C 0.25955 0.12566 0.11726 0.0
C31 C 0.28128 0.09258 0.12762 0.0
C32 C 0.26891 0.07372 0.15862 0.0
C33 C 0.23564 0.08757 0.17893 0.0
C34 C 0.21424 0.12086 0.16834 0.0
C35 C 0.22645 0.13918 0.13786 0.0
C36 C 0.20097 0.17441 0.1308 0.0
C37 C 0.17077 0.17398 0.16146 0.0
C38 C 0.17869 0.14268 0.18365 0.0
C39 C 0.22687 0.20711 0.13481 0.0
C40 C 0.18196 0.17116 0.09253 0.0
H41 H 0.04945 0.18482 0.26862 0.0
H42 H 0.13122 0.07144 0.30646 0.0
H43 H 0.12012 0.06535 0.21875 0.0
H44 H 0.16609 0.06441 0.19716 0.0
H45 H 0.16282 0.0449 0.2423 0.0
H46 H 0.19364 0.1297 0.28443 0.0
H47 H 0.2016 0.0804 0.28093 0.0
H48 H 0.22196 0.11007 0.24795 0.0
H49 H 0.03872 0.28877 0.16512 0.0
H50 H 0.13043 0.2999 0.08519 0.0
H51 H 0.16593 0.24631 0.1089 0.0
H52 H 0.10454 0.26468 0.23219 0.0
H53 H 0.05168 0.26854 0.23346 0.0
H54 H 0.08018 0.23253 0.25794 0.0
H55 H 0.03722 0.19545 0.164 0.0
H56 H 0.03268 0.18643 0.21146 0.0
H57 H 0.01339 0.23027 0.19343 0.0
H58 H 0.03176 0.1513 0.32308 0.0
C59 C 0.0679 0.16053 0.276 0.0
C60 C 0.24378 0.90064 0.61996 0.0
C61 C 0.2221 0.93389 0.63129 0.0
C62 C 0.2302 0.9456 0.66755 0.0
C63 C 0.28686 0.9004 0.6733 0.0
C64 C 0.27606 0.88507 0.64072 0.0
C65 C 0.30156 0.85012 0.63212 0.0
H66 H 0.46859 0.73931 0.658 0.0
C67 C 0.32277 0.87857 0.6875 0.0
C68 C 0.33156 0.84898 0.66336 0.0
H69 H 0.37131 0.72489 0.58516 0.0
H70 H 0.33572 0.77709 0.61102 0.0
H71 H 0.46459 0.83418 0.66036 0.0
H72 H 0.40624 0.75842 0.72877 0.0
H73 H 0.43017 0.79103 0.75452 0.0
H74 H 0.45899 0.7573 0.72746 0.0
H75 H 0.49218 0.79917 0.68693 0.0
H76 H 0.47176 0.84126 0.70791 0.0
C77 C 0.32091 0.85496 0.59438 0.0
C78 C 0.27551 0.81734 0.63387 0.0
C79 C 0.39129 0.92503 0.80076 0.0
C80 C 0.42621 0.91382 0.81986 0.0
C81 C 0.44986 0.88286 0.8062 0.0
C82 C 0.43882 0.86352 0.77457 0.0
C83 C 0.40358 0.87499 0.75592 0.0
C84 C 0.3807 0.90553 0.76926 0.0
C85 C 0.34432 0.91442 0.74648 0.0
C86 C 0.34853 0.88429 0.71744 0.0
C87 C 0.38339 0.86073 0.7227 0.0
C88 C 0.34666 0.95321 0.7298 0.0
C89 C 0.30784 0.91104 0.77106 0.0
C90 C 0.44134 0.74879 0.64482 0.0
C91 C 0.42718 0.73088 0.61292 0.0
C92 C 0.38694 0.74067 0.60449 0.0
C93 C 0.3652 0.77093 0.62053 0.0
C94 C 0.38203 0.79152 0.64774 0.0
C95 C 0.41857 0.77927 0.66126 0.0
C96 C 0.42824 0.80176 0.6949 0.0
C97 C 0.39235 0.8304 0.69764 0.0
C98 C 0.36585 0.82421 0.66906 0.0
C99 C 0.46637 0.82007 0.68737 0.0
C100 C 0.43133 0.77587 0.72835 0.0
H101 H 0.26739 0.94148 0.71433 0.0
H102 H 0.2357 0.88624 0.59559 0.0
H103 H 0.24687 0.82494 0.64764 0.0
H104 H 0.28948 0.79406 0.65024 0.0
H105 H 0.26877 0.80723 0.60605 0.0
H106 H 0.33525 0.88117 0.59361 0.0
H107 H 0.29857 0.85588 0.57217 0.0
H108 H 0.34389 0.83273 0.58782 0.0
H109 H 0.37239 0.94857 0.81032 0.0
H110 H 0.47692 0.87354 0.8202 0.0
H111 H 0.45812 0.84031 0.76572 0.0
H112 H 0.37665 0.95602 0.71892 0.0
H113 H 0.34023 0.97502 0.7508 0.0
H114 H 0.32658 0.959 0.70648 0.0
H115 H 0.31437 0.89047 0.79324 0.0
H116 H 0.28294 0.90086 0.75588 0.0
H117 H 0.29799 0.93779 0.78425 0.0
H118 H 0.21135 0.96606 0.68181 0.0
C119 C 0.26267 0.93004 0.68777 0.0
C120 C 0.58416 0.33119 0.99198 0.0
C121 C 0.55557 0.31681 0.96962 0.0
C122 C 0.5353 0.33955 0.9435 0.0
C123 C 0.57635 0.38823 0.9577 0.0
C124 C 0.59439 0.36702 0.9853 0.0
C125 C 0.62725 0.38574 1.00305 0.0
H126 H 0.76272 0.50777 0.98239 0.0
C127 C 0.59796 0.42095 0.95278 0.0
C128 C 0.62766 0.42019 0.97946 0.0
H129 H 0.75343 0.43195 0.07192 0.0
H130 H 0.6899 0.41662 0.0489 0.0
H131 H 0.66713 0.54109 0.98405 0.0
H132 H 0.73939 0.4601 0.92304 0.0
H133 H 0.70354 0.47807 0.89209 0.0
H134 H 0.73704 0.50815 0.91188 0.0
H135 H 0.70366 0.55219 0.95162 0.0
H136 H 0.65394 0.54623 0.93758 0.0
C137 C 0.61554 0.39528 0.04308 0.0
C138 C 0.66568 0.36 0.99937 0.0
C139 C 0.57958 0.48792 0.83263 0.0
C140 C 0.6035 0.51059 0.81382 0.0
C141 C 0.6336 0.52683 0.83243 0.0
C142 C 0.64157 0.5181 0.86924 0.0
C143 C 0.61976 0.49227 0.88686 0.0
C144 C 0.58869 0.47847 0.86877 0.0
C145 C 0.57106 0.44887 0.8899 0.0
C146 C 0.59711 0.4466 0.92363 0.0
C147 C 0.6254 0.47207 0.92178 0.0
C148 C 0.52823 0.46318 0.8996 0.0
C149 C 0.57512 0.41271 0.86666 0.0
C150 C 0.74659 0.48835 0.99734 0.0
C151 C 0.76295 0.47041 0.02837 0.0
C152 C 0.74123 0.4456 0.04759 0.0
C153 C 0.70473 0.43664 0.03408 0.0
C154 C 0.69018 0.4527 1.00119 0.0
C155 C 0.71027 0.4793 0.98438 0.0
C156 C 0.69045 0.49404 0.95012 0.0
C157 C 0.65506 0.47189 0.94895 0.0
C158 C 0.65549 0.44695 0.97834 0.0
C159 C 0.67826 0.53565 0.95577 0.0
C160 C 0.71888 0.485 0.91748 0.0
H161 H 0.529 0.39117 0.91723 0.0
H162 H 0.5996 0.31412 1.01261 0.0
H163 H 0.66948 0.34997 0.9707 0.0
H164 H 0.69228 0.37355 1.00612 0.0
H165 H 0.66507 0.33557 1.01746 0.0
H166 H 0.58308 0.40051 0.04596 0.0
H167 H 0.62553 0.37238 0.0619 0.0
H168 H 0.62723 0.42096 0.05264 0.0
H169 H 0.55658 0.47496 0.81838 0.0
H170 H 0.65217 0.54449 0.81793 0.0
H171 H 0.66581 0.53007 0.88182 0.0
H172 H 0.5262 0.49294 0.90699 0.0
H173 H 0.50822 0.46003 0.87602 0.0
H174 H 0.51697 0.44927 0.92379 0.0
H175 H 0.59543 0.41429 0.84306 0.0
H176 H 0.58818 0.38864 0.88232 0.0
H177 H 0.54634 0.40626 0.85531 0.0
H178 H 0.5128 0.32901 0.92651 0.0
C179 C 0.545 0.37545 0.93797 0.0
C180 C 0.96802 0.68546 0.50144 0.0
C181 C 0.94284 0.71177 0.51968 0.0
C182 C 0.90651 0.70221 0.5329 0.0
C183 C 0.91633 0.64414 0.50033 0.0
C184 C 0.95382 0.65225 0.49096 0.0
C185 C 0.97215 0.62664 0.46226 0.0
H186 H 0.94046 0.53296 0.31287 0.0
C187 C 0.9062 0.6132 0.47703 0.0
C188 C 0.9389 0.60259 0.45494 0.0
H189 H 0.04962 0.56953 0.35223 0.0
H190 H 0.02156 0.57903 0.4128 0.0
H191 H 0.92426 0.48627 0.38989 0.0
H192 H 0.88167 0.59253 0.34734 0.0
H193 H 0.84171 0.5695 0.36344 0.0
H194 H 0.87169 0.54923 0.3273 0.0
H195 H 0.88274 0.49162 0.35967 0.0
H196 H 0.87718 0.49649 0.4087 0.0
C197 C 0.00865 0.60436 0.47908 0.0
C198 C 0.98125 0.65043 0.42848 0.0
C199 C 0.7652 0.57936 0.47425 0.0
C200 C 0.74547 0.55586 0.45171 0.0
C201 C 0.76602 0.53624 0.42342 0.0
C202 C 0.80605 0.53993 0.41771 0.0
C203 C 0.82545 0.56385 0.44025 0.0
C204 C 0.80511 0.58288 0.46811 0.0
C205 C 0.83035 0.60741 0.48899 0.0
C206 C 0.86974 0.59857 0.47017 0.0
C207 C 0.86646 0.57356 0.44127 0.0
C208 C 0.83207 0.59501 0.52949 0.0
C209 C 0.8134 0.64811 0.48321 0.0
C210 C 0.9583 0.54231 0.33495 0.0
C211 C 0.99663 0.55164 0.32815 0.0
C212 C 0.01984 0.56279 0.35716 0.0
C213 C 1.00342 0.56859 0.39197 0.0
C214 C 0.96327 0.56447 0.39699 0.0
C215 C 0.94218 0.54874 0.36981 0.0
C216 C 0.90053 0.54432 0.38138 0.0
C217 C 0.89929 0.56354 0.41842 0.0
C218 C 0.93583 0.57635 0.42661 0.0
C219 C 0.8956 0.5026 0.38494 0.0
C220 C 0.87217 0.56478 0.35345 0.0
H221 H 0.86457 0.66271 0.5328 0.0
H222 H 0.99596 0.69282 0.49109 0.0
H223 H 0.95639 0.67164 0.42296 0.0
H224 H 0.98546 0.63501 0.40278 0.0
H225 H 0.00805 0.66495 0.43317 0.0
H226 H 0.00732 0.60386 0.50951 0.0
H227 H 0.03626 0.61632 0.47141 0.0
H228 H 0.01072 0.57496 0.47079 0.0
H229 H 0.74981 0.59461 0.49619 0.0
H230 H 0.75106 0.51785 0.40601 0.0
H231 H 0.82028 0.5244 0.39576 0.0
H232 H 0.83691 0.56445 0.53138 0.0
H233 H 0.80409 0.60388 0.54378 0.0
H234 H 0.85661 0.60577 0.54468 0.0
H235 H 0.79158 0.65104 0.4605 0.0
H236 H 0.83636 0.66617 0.47525 0.0
H237 H 0.79827 0.65958 0.50817 0.0
H238 H 0.88695 0.7224 0.54726 0.0
C239 C 0.89334 0.66801 0.52374 0.0
C240 C 0.90003 0.74611 0.92693 0.0
C241 C 0.93357 0.72374 0.9157 0.0
C242 C 0.95404 0.73494 0.88455 0.0
C243 C 0.90711 0.78956 0.87652 0.0
C244 C 0.88754 0.77843 0.90728 0.0
C245 C 0.85238 0.80455 0.91646 0.0
H246 H 0.72646 0.95446 0.88041 0.0
C247 C 0.88525 0.82455 0.86221 0.0
C248 C 0.85306 0.83287 0.88601 0.0
H249 H 0.72596 0.87962 0.97183 0.0
H250 H 0.78439 0.84507 0.94889 0.0
H251 H 0.74773 0.89529 0.81962 0.0
H252 H 0.82527 0.95917 0.88113 0.0
H253 H 0.83658 0.96132 0.83412 0.0
H254 H 0.78864 0.97887 0.84976 0.0
H255 H 0.7539 0.94224 0.80796 0.0
H256 H 0.78628 0.90436 0.79022 0.0
C257 C 0.8154 0.78288 0.91415 0.0
C258 C 0.85957 0.82165 0.95458 0.0
C259 C 0.93085 0.89566 0.74898 0.0
C260 C 0.91613 0.92926 0.73107 0.0
C261 C 0.8774 0.94286 0.74161 0.0
C262 C 0.858 0.92896 0.77186 0.0
C263 C 0.87575 0.89912 0.79195 0.0
C264 C 0.91089 0.88185 0.77962 0.0
C265 C 0.92299 0.84765 0.8025 0.0
C266 C 0.8904 0.84858 0.83149 0.0
C267 C 0.86274 0.87922 0.82495 0.0
C268 C 0.92278 0.81342 0.7776 0.0
C269 C 0.96349 0.852 0.81988 0.0
C270 C 0.7393 0.93074 0.89545 0.0
C271 C 0.7216 0.91972 0.92811 0.0
C272 C 0.73909 0.88867 0.94681 0.0
C273 C 0.7731 0.86863 0.93332 0.0
C274 C 0.79048 0.87962 0.90063 0.0
C275 C 0.77386 0.91049 0.88243 0.0
C276 C 0.79705 0.91821 0.84844 0.0
C277 C 0.83026 0.88704 0.84937 0.0
C278 C 0.82587 0.86433 0.87986 0.0
C279 C 0.77 0.9152 0.81467 0.0
C280 C 0.81269 0.95647 0.85324 0.0
H281 H 0.95786 0.77442 0.84158 0.0
H282 H 0.88364 0.73848 0.95067 0.0
H283 H 0.89149 0.82307 0.9599 0.0
H284 H 0.84673 0.85054 0.95693 0.0
H285 H 0.84788 0.8051 0.9769 0.0
H286 H 0.81787 0.76294 0.89097 0.0
H287 H 0.8116 0.76699 0.93962 0.0
H288 H 0.7881 0.80065 0.90868 0.0
H289 H 0.95651 0.87914 0.73949 0.0
H290 H 0.86118 0.96462 0.72632 0.0
H291 H 0.82945 0.94204 0.77835 0.0
H292 H 0.89555 0.815 0.76071 0.0
H293 H 0.94839 0.81146 0.75875 0.0
H294 H 0.92319 0.78757 0.79331 0.0
H295 H 0.96368 0.87955 0.83301 0.0
H296 H 0.97109 0.83146 0.84148 0.0
H297 H 0.98701 0.84947 0.7988 0.0
H298 H 0.97997 0.71827 0.8752 0.0
C299 C 0.94106 0.76753 0.86499 0.0
C300 C 0.7656 0.13143 0.42764 0.0
C301 C 0.7888 0.09941 0.41666 0.0
C302 C 0.77819 0.08115 0.38455 0.0
C303 C 0.72186 0.12643 0.37521 0.0
C304 C 0.73269 0.14449 0.40649 0.0
C305 C 0.706 0.17893 0.41369 0.0
H306 H 0.5481 0.29798 0.37128 0.0
C307 C 0.68597 0.14744 0.35965 0.0
C308 C 0.67684 0.17838 0.38211 0.0
H309 H 0.63254 0.30442 0.45868 0.0
H310 H 0.66701 0.24743 0.43891 0.0
H311 H 0.5431 0.20355 0.37536 0.0
H312 H 0.61549 0.26761 0.30717 0.0
H313 H 0.59146 0.23502 0.28156 0.0
H314 H 0.56274 0.27256 0.30365 0.0
H315 H 0.52165 0.23757 0.34381 0.0
H316 H 0.53992 0.19243 0.32825 0.0
C317 C 0.68586 0.17436 0.4512 0.0
C318 C 0.73103 0.21237 0.41131 0.0
C319 C 0.61922 0.0967 0.24719 0.0
C320 C 0.5832 0.10564 0.22812 0.0
C321 C 0.56395 0.14105 0.2369 0.0
C322 C 0.57577 0.1627 0.26658 0.0
C323 C 0.60878 0.15044 0.28776 0.0
C324 C 0.63029 0.11817 0.27721 0.0
C325 C 0.66553 0.10934 0.30164 0.0
C326 C 0.66147 0.14111 0.32892 0.0
C327 C 0.62821 0.16582 0.32078 0.0
C328 C 0.66101 0.07181 0.32032 0.0
C329 C 0.70315 0.11007 0.27814 0.0
C330 C 0.57398 0.2868 0.38605 0.0
C331 C 0.58757 0.30593 0.4169 0.0
C332 C 0.62145 0.29049 0.43511 0.0
C333 C 0.64152 0.25724 0.42342 0.0
C334 C 0.62811 0.23853 0.39273 0.0
C335 C 0.59488 0.2532 0.37433 0.0
C336 C 0.58614 0.22915 0.34162 0.0
C337 C 0.61938 0.19782 0.34374 0.0
C338 C 0.64371 0.20383 0.37404 0.0
C339 C 0.54543 0.21491 0.34728 0.0
C340 C 0.58883 0.25219 0.30647 0.0
H341 H 0.73861 0.07918 0.33971 0.0
H342 H 0.77332 0.1463 0.45192 0.0
H343 H 0.75654 0.2066 0.3926 0.0
H344 H 0.71453 0.23715 0.39958 0.0
H345 H 0.74283 0.21932 0.43855 0.0
H346 H 0.67836 0.14551 0.45495 0.0
H347 H 0.70551 0.18087 0.47412 0.0
H348 H 0.6576 0.19142 0.45393 0.0
H349 H 0.63978 0.07401 0.23922 0.0
H350 H 0.53956 0.15285 0.22061 0.0
H351 H 0.55878 0.18841 0.27183 0.0
H352 H 0.62983 0.06947 0.32805 0.0
H353 H 0.67019 0.04851 0.30166 0.0
H354 H 0.67765 0.06813 0.34615 0.0
H355 H 0.69927 0.13197 0.2569 0.0
H356 H 0.72894 0.1168 0.29428 0.0
H357 H 0.7103 0.08335 0.26389 0.0
H358 H 0.79577 0.05658 0.37547 0.0
C359 C 0.74497 0.09438 0.36387 0.0
C360 C 0.43709 0.55553 0.1884 0.0
C361 C 0.41421 0.53544 0.21126 0.0
C362 C 0.38266 0.51795 0.19669 0.0
C363 C 0.39351 0.54558 0.1377 0.0
C364 C 0.426 0.56067 0.15183 0.0
C365 C 0.44387 0.58569 0.12525 0.0
H366 H 0.40492 0.71209 1.00153 0.0
C367 C 0.38643 0.56068 0.10058 0.0
C368 C 0.41633 0.58343 0.09262 0.0
H369 H 0.51087 0.689 0.06525 0.0
H370 H 0.49368 0.62689 0.0766 0.0
H371 H 0.34083 0.67516 0.04926 0.0
H372 H 0.41451 0.62934 0.96235 0.0
H373 H 0.37652 0.5999 0.96671 0.0
H374 H 0.36488 0.64748 0.9538 0.0
H375 H 0.34114 0.69099 1.00259 0.0
H376 H 0.31403 0.65332 1.01476 0.0
C377 C 0.44106 0.62474 0.14266 0.0
C378 C 0.48654 0.56967 0.11664 0.0
C379 C 0.25677 0.5433 0.03874 0.0
C380 C 0.23936 0.55662 1.00606 0.0
C381 C 0.26054 0.57816 0.98246 0.0
C382 C 0.29794 0.588 0.99259 0.0
C383 C 0.31408 0.57584 0.02635 0.0
C384 C 0.29416 0.55275 0.04804 0.0
C385 C 0.31649 0.54092 0.08201 0.0
C386 C 0.35373 0.55994 0.07673 0.0
C387 C 0.35152 0.58149 0.04481 0.0
C388 C 0.29199 0.5565 0.11525 0.0
C389 C 0.3247 0.49835 0.08141 0.0
C390 C 0.42444 0.69324 1.01747 0.0
C391 C 0.45825 0.70534 0.03402 0.0
C392 C 0.48423 0.68019 0.05326 0.0
C393 C 0.47397 0.64468 0.06034 0.0
C394 C 0.43694 0.63521 0.04921 0.0
C395 C 0.41458 0.65744 0.02509 0.0
C396 C 0.37859 0.63953 1.01266 0.0
C397 C 0.38075 0.60584 0.03765 0.0
C398 C 0.41424 0.60478 0.06009 0.0
C399 C 0.34153 0.6661 0.02016 0.0
C400 C 0.38363 0.62859 0.97178 0.0
H401 H 0.34744 0.50947 0.15021 0.0
H402 H 0.46166 0.56883 0.19946 0.0
H403 H 0.49304 0.54113 0.12719 0.0
H404 H 0.49193 0.56761 0.08671 0.0
H405 H 0.50845 0.58669 0.12912 0.0
H406 H 0.41018 0.63356 0.1506 0.0
H407 H 0.45964 0.62508 0.16761 0.0
H408 H 0.45063 0.64621 0.12458 0.0
H409 H 0.24125 0.52624 0.057 0.0
H410 H 0.24763 0.58813 0.95684 0.0
H411 H 0.31269 0.60516 0.97432 0.0
H412 H 0.27702 0.58421 0.10897 0.0
H413 H 0.2689 0.53822 0.12259 0.0
H414 H 0.30982 0.56096 0.13974 0.0
H415 H 0.32818 0.48782 0.05287 0.0
H416 H 0.3526 0.48868 0.0952 0.0
H417 H 0.30021 0.48485 0.09411 0.0
H418 H 0.36503 0.50211 0.21427 0.0
C419 C 0.37248 0.52252 0.15971 0.0
C420 C 0.05922 0.33941 0.55685 0.0
C421 C 0.08307 0.31094 0.54043 0.0
C422 C 0.12051 0.3175 0.52737 0.0
C423 C 0.11229 0.37912 0.55315 0.0
C424 C 0.07463 0.37289 0.56367 0.0
C425 C 0.05581 0.4029 0.58752 0.0
H426 H 0.08496 0.53107 0.71054 0.0
C427 C 0.12117 0.41471 0.56925 0.0
C428 C 0.08804 0.42895 0.589 0.0
H429 H 0.98913 0.4625 0.69691 0.0
H430 H 0.00897 0.44942 0.63515 0.0
H431 H 0.08707 0.55796 0.61939 0.0
H432 H 0.15358 0.4729 0.68233 0.0
H433 H 0.18393 0.5027 0.65939 0.0
H434 H 0.1509 0.52125 0.69342 0.0
H435 H 0.12809 0.56801 0.64724 0.0
H436 H 0.1347 0.55059 0.60107 0.0
C437 C 0.01888 0.42063 0.56737 0.0
C438 C 0.04744 0.38582 0.62563 0.0
C439 C 0.25983 0.45323 0.56235 0.0
C440 C 0.27644 0.48581 0.57189 0.0
C441 C 0.25241 0.51501 0.58797 0.0
C442 C 0.2127 0.51119 0.59558 0.0
C443 C 0.1969 0.47801 0.58675 0.0
C444 C 0.21991 0.45049 0.56883 0.0
C445 C 0.19673 0.41963 0.55648 0.0
C446 C 0.15615 0.43284 0.57064 0.0
C447 C 0.15683 0.46625 0.58989 0.0
C448 C 0.19786 0.41773 0.51407 0.0
C449 C 0.21402 0.38396 0.57588 0.0
C450 C 0.06855 0.51315 0.69394 0.0
C451 C 0.03648 0.4966 0.70909 0.0
C452 C 0.01451 0.47485 0.68643 0.0
C453 C 0.0267 0.46636 0.65086 0.0
C454 C 0.06292 0.47693 0.63889 0.0
C455 C 0.08237 0.50168 0.65914 0.0
C456 C 0.12124 0.50857 0.64186 0.0
C457 C 0.12378 0.47995 0.61113 0.0
C458 C 0.08931 0.46174 0.6098 0.0
C459 C 0.11795 0.54839 0.62673 0.0
C460 C 0.15432 0.501 0.67064 0.0
H461 H 0.16444 0.35497 0.52404 0.0
H462 H 0.03056 0.33445 0.56751 0.0
H463 H 0.06 0.35669 0.62839 0.0
H464 H 0.06123 0.40009 0.64842 0.0
H465 H 0.01541 0.38589 0.63085 0.0
H466 H 0.02463 0.42313 0.53754 0.0
H467 H 0.99371 0.40362 0.57062 0.0
H468 H 0.01003 0.44905 0.57677 0.0
H469 H 0.27737 0.4308 0.54903 0.0
H470 H 0.2645 0.54065 0.59474 0.0
H471 H 0.19566 0.53404 0.60802 0.0
H472 H 0.20095 0.44532 0.50193 0.0
H473 H 0.22302 0.39879 0.50434 0.0
H474 H 0.17029 0.40916 0.50219 0.0
H475 H 0.22064 0.3896 0.60508 0.0
H476 H 0.19367 0.36217 0.57652 0.0
H477 H 0.24183 0.37271 0.56264 0.0
H478 H 0.13918 0.29546 0.51466 0.0
C479 C 0.13514 0.35181 0.53328 0.0
C480 C 0.03483 0.03433 0.45541 0.0
N481 N 0.01858 0.09206 0.55321 0.0
C482 C 0.05556 0.101 0.54553 0.0
C483 C 0.06447 0.13732 0.54725 0.0
C484 C 0.03494 0.16476 0.55637 0.0
C485 C 0.99747 0.15513 0.56593 0.0
C486 C 0.98985 0.11807 0.56425 0.0
Zn487 Zn 0.00706 0.04103 0.53639 0.0
C488 C 0.93019 0.04223 0.49681 0.0
N489 N 0.9897 0.93546 0.49536 0.0
C490 C 0.01958 0.90971 0.48644 0.0
C491 C 0.95284 0.92588 0.50241 0.0
C492 C 0.94544 0.88903 0.50302 0.0
C493 C 0.97634 0.86198 0.49671 0.0
C494 C 0.01348 0.87231 0.48709 0.0
Zn495 Zn 1.00049 0.98662 0.51213 0.0
O496 O 0.03048 0.05544 0.48318 0.0
C497 C 0.07778 0.98609 0.55174 0.0
O498 O 0.02625 1.00103 0.4589 0.0
H499 H 0.92979 0.94652 0.51058 0.0
H500 H 0.07767 0.08043 0.53544 0.0
H501 H 0.04871 0.91793 0.48138 0.0
O502 O 0.06409 0.01947 0.55551 0.0
O503 O 0.05753 0.9646 0.53374 0.0
H504 H 0.96054 0.11044 0.56962 0.0
O505 O 0.97496 0.97276 0.56508 0.0
O506 O 0.98347 0.02607 0.58996 0.0
O507 O 0.94385 1.00909 0.49084 0.0
O508 O 0.94976 0.06246 0.51698 0.0
C509 C 0.9729 0.99343 0.59331 0.0
H510 H 0.09355 0.14422 0.53957 0.0
H511 H 0.97419 0.1761 0.57305 0.0
H512 H 0.91649 0.88161 0.51047 0.0
H513 H 0.03774 0.85169 0.48189 0.0
C514 C 0.57671 0.98642 0.99603 0.0
N515 N 0.51255 0.09146 0.99287 0.0
C516 C 0.52401 0.10005 0.95847 0.0
C517 C 0.5304 0.13653 0.94984 0.0
C518 C 0.52563 0.1637 0.97724 0.0
C519 C 0.51347 0.15406 1.01207 0.0
C520 C 0.5067 0.11787 0.01919 0.0
Zn521 Zn 0.50544 0.03913 1.01012 0.0
C522 C 0.47149 0.99033 0.95488 0.0
N523 N 0.49056 0.93363 0.05327 0.0
C524 C 0.5214 0.90933 0.06319 0.0
C525 C 0.45455 0.92214 0.04581 0.0
C526 C 0.44904 0.88477 0.04592 0.0
C527 C 0.48096 0.85914 0.05354 0.0
C528 C 0.5172 0.87151 0.06344 0.0
Zn529 Zn 0.49905 0.9856 0.03668 0.0
O530 O 0.56351 0.01981 0.99056 0.0
C531 C 0.53409 0.03289 0.09218 0.0
O532 O 0.55636 0.96594 1.01512 0.0
H533 H 0.43077 0.94166 0.03697 0.0
H534 H 0.52865 0.07865 0.93797 0.0
H535 H 0.54986 0.91903 0.06854 0.0
O536 O 0.52988 0.0536 0.06411 0.0
O537 O 0.5246 0.99993 0.08931 0.0
H538 H 0.49741 0.11101 0.04624 0.0
O539 O 0.44157 1.0068 0.05827 0.0
O540 O 0.44649 0.0582 0.0289 0.0
O541 O 0.47407 0.97075 0.9838 0.0
O542 O 0.48168 0.02317 0.95693 0.0
C543 C 0.42692 0.03928 0.05029 0.0
H544 H 0.53965 0.14337 0.92254 0.0
H545 H 0.50939 0.17443 0.03372 0.0
H546 H 0.42077 0.87584 0.03818 0.0
H547 H 0.54227 0.85209 0.06956 0.0
C548 C 0.53108 0.44812 0.4843 0.0
N549 N 0.54832 0.49931 0.58828 0.0
C550 C 0.53734 0.47272 0.61125 0.0
C551 C 0.54969 0.47217 0.64779 0.0
C552 C 0.57335 0.49921 0.66011 0.0
C553 C 0.58594 0.52486 0.63555 0.0
C554 C 0.57289 0.52452 0.59963 0.0
Zn555 Zn 0.52286 0.51001 0.53866 0.0
C556 C 0.58348 0.5378 0.48724 0.0
N557 N 0.47428 0.5428 0.43643 0.0
C558 C 0.44969 0.51815 0.424 0.0
C559 C 0.48516 0.57047 0.41477 0.0
C560 C 0.4727 0.57278 0.37831 0.0
C561 C 0.449 0.54637 0.36471 0.0
C562 C 0.43649 0.51954 0.38806 0.0
Zn563 Zn 0.49979 0.53075 0.48559 0.0
O564 O 0.53988 0.45431 0.51763 0.0
C565 C 0.43928 0.50254 0.53692 0.0
O566 O 0.5131 0.47425 0.46603 0.0
H567 H 0.50506 0.58948 0.42518 0.0
H568 H 0.51749 0.45322 0.60178 0.0
H569 H 0.44211 0.49594 0.44128 0.0
O570 O 0.4687 0.49332 0.55723 0.0
O571 O 0.44444 0.5184 0.50659 0.0
H572 H 0.58071 0.54597 0.5815 0.0
O573 O 0.48737 0.58714 0.50534 0.0
O574 O 0.50459 0.5659 0.55938 0.0
O575 O 0.55496 0.54308 0.46503 0.0
O576 O 0.57735 0.52599 0.51914 0.0
C577 C 0.49103 0.59295 0.53961 0.0
H578 H 0.53956 0.45207 0.66654 0.0
H579 H 0.60407 0.54608 0.64456 0.0
H580 H 0.48281 0.59372 0.36053 0.0
H581 H 0.41835 0.49875 0.37804 0.0
C582 C 0.98031 0.58486 0.99475 0.0
N583 N 0.00847 0.54026 0.1004 0.0
C584 C 0.03134 0.56709 0.11114 0.0
C585 C 0.03649 0.57419 0.14846 0.0
C586 C 0.01752 0.55355 0.1743 0.0
C587 C 0.9939 0.52655 0.16246 0.0
C588 C 0.98988 0.52023 0.1253 0.0
Zn589 Zn 1.0035 0.52389 0.04746 0.0
C590 C 0.92389 0.5011 0.03136 0.0
N591 N 0.99462 0.48331 0.93921 0.0
C592 C 0.96879 0.50526 0.91866 0.0
C593 C 0.02096 0.45796 0.9233 0.0
C594 C 0.02408 0.45634 0.88514 0.0
C595 C 1.00181 0.48276 0.86371 0.0
C596 C 0.97302 0.50662 0.88091 0.0
Zn597 Zn 0.9998 0.49914 0.9924 0.0
O598 O 0.98482 0.5805 0.02921 0.0
C599 C 0.0794 0.52177 1.00746 0.0
O600 O 0.98565 0.5564 0.9745 0.0
H601 H 0.04127 0.4408 0.94011 0.0
H602 H 0.04611 0.58247 0.09088 0.0
H603 H 0.94691 0.52414 0.93167 0.0
O604 O 0.06284 0.53305 0.03704 0.0
O605 O 0.06016 0.50536 0.98368 0.0
H606 H 0.97241 0.49866 0.11649 0.0
O607 O 0.01396 0.44249 1.0118 0.0
O608 O 0.02209 0.467 0.06562 0.0
O609 O 0.93998 0.49269 1.00085 0.0
O610 O 0.94367 0.51474 0.05654 0.0
C611 C 0.02273 0.43816 0.04566 0.0
H612 H 0.05494 0.59527 0.15709 0.0
H613 H 0.97899 0.51022 0.18189 0.0
H614 H 0.04611 0.43697 0.87271 0.0
H615 H 0.95502 0.52722 0.86552 0.0
C616 C 0.09205 0.08956 0.38642 0.0
C617 C 0.06921 0.08803 0.35385 0.0
C618 C 0.02379 0.05051 0.38746 0.0
C619 C 0.04815 0.04993 0.41928 0.0
N620 N 0.10962 0.06346 0.44619 0.0
N621 N 0.01714 0.06115 0.32185 0.0
C622 C 0.08344 0.06798 0.41784 0.0
C623 C 0.03621 0.06674 0.35401 0.0
N624 N 0.12125 0.11281 0.38787 0.0
N625 N 0.98764 0.03736 0.38954 0.0
H626 H 0.02506 0.07262 0.2971 0.0
H627 H 0.9958 0.04265 0.31906 0.0
H628 H 0.97724 0.02547 0.41312 0.0
H629 H 0.96653 0.04109 0.36896 0.0
H630 H 0.13603 0.1186 0.41185 0.0
H631 H 0.12853 0.12884 0.36569 0.0
H632 H 0.13764 0.07254 0.4455 0.0
H633 H 0.10484 0.04737 0.46907 0.0
C634 C 0.46964 0.95674 0.85373 0.0
C635 C 0.43758 0.93432 0.85416 0.0
C636 C 0.42383 0.95445 0.91813 0.0
C637 C 0.45848 0.97353 0.9191 0.0
N638 N 0.51808 0.98724 0.88844 0.0
N639 N 0.38781 0.90755 0.88928 0.0
C640 C 0.48226 0.97334 0.88696 0.0
C641 C 0.41569 0.93208 0.8871 0.0
N642 N 0.48753 0.96313 0.82122 0.0
N643 N 0.39763 0.95891 0.94635 0.0
H644 H 0.38105 0.89071 0.86747 0.0
H645 H 0.37393 0.90146 0.91361 0.0
H646 H 0.40172 0.97602 0.96867 0.0
H647 H 0.37002 0.94891 0.94585 0.0
H648 H 0.50796 0.98245 0.81815 0.0
H649 H 0.47939 0.9515 0.79655 0.0
H650 H 0.53872 0.98384 0.86748 0.0
H651 H 0.52892 0.9992 0.91184 0.0
C652 C 0.62278 0.48472 0.75258 0.0
C653 C 0.60028 0.51184 0.77361 0.0
C654 C 0.55925 0.52946 0.72058 0.0
C655 C 0.5825 0.50312 0.69928 0.0
N656 N 0.64043 0.46073 0.69231 0.0
N657 N 0.55248 0.56439 0.77726 0.0
C658 C 0.61558 0.48229 0.71446 0.0
C659 C 0.5702 0.53569 0.75739 0.0
N660 N 0.64977 0.46022 0.76937 0.0
N661 N 0.52604 0.54758 0.70589 0.0
H662 H 0.56006 0.56939 0.80439 0.0
H663 H 0.53287 0.58497 0.76618 0.0
H664 H 0.51722 0.54398 0.67886 0.0
H665 H 0.5056 0.56418 0.72104 0.0
H666 H 0.66341 0.43699 0.75645 0.0
H667 H 0.65696 0.46175 0.79706 0.0
H668 H 0.66745 0.44817 0.70097 0.0
H669 H 0.63541 0.45753 0.66435 0.0
C670 C 0.03479 0.52825 0.27283 0.0
C671 C 0.00947 0.55603 0.28994 0.0
C672 C 0.99717 0.58773 0.23151 0.0
C673 C 0.02142 0.55929 0.21413 0.0
N674 N 0.07129 0.50841 0.21818 0.0
N675 N 0.97584 0.61723 0.28846 0.0
C676 C 0.04309 0.53157 0.23496 0.0
C677 C 0.99383 0.58754 0.27017 0.0
N678 N 0.04929 0.49804 0.29237 0.0
N679 N 0.97548 0.61354 0.21097 0.0
H680 H 0.97261 0.61793 0.31685 0.0
H681 H 0.9673 0.64237 0.27597 0.0
H682 H 0.97796 0.61521 0.18259 0.0
H683 H 0.9534 0.63201 0.22173 0.0
H684 H 0.06437 0.47486 0.28063 0.0
H685 H 0.04433 0.49529 0.32037 0.0
H686 H 0.09041 0.48941 0.23215 0.0
H687 H 0.07785 0.51061 0.19041 0.0
C688 C 0.35144 0.09912 0.10854 0.0
C689 C 0.318 0.07885 0.107 0.0
C690 C 0.35487 0.03331 0.06668 0.0
C691 C 0.38786 0.05481 0.06664 0.0
N692 N 0.41039 0.11511 0.07902 0.0
N693 N 0.28526 0.02995 0.07949 0.0
C694 C 0.384 0.08978 0.08486 0.0
C695 C 0.31906 0.04673 0.08474 0.0
N696 N 0.35295 0.12671 0.1338 0.0
N697 N 0.3573 1.00033 0.0486 0.0
H698 H 0.25873 0.03903 0.09205 0.0
H699 H 0.28253 1.00891 0.0606 0.0
H700 H 0.38011 0.99207 0.0307 0.0
H701 H 0.33714 0.9808 0.05189 0.0
H702 H 0.37846 0.13942 0.13934 0.0
H703 H 0.33007 0.13429 0.15195 0.0
H704 H 0.40612 0.14222 0.08837 0.0
H705 H 0.43432 0.1109 0.06176 0.0
C706 C 0.16122 0.98089 0.62131 0.0
C707 C 0.18912 0.95322 0.60719 0.0
C708 C 0.14733 0.95256 0.55143 0.0
C709 C 0.11589 0.97285 0.57041 0.0
N710 N 0.09252 1.00009 0.62785 0.0
N711 N 0.21766 0.93523 0.54897 0.0
C712 C 0.1227 0.98494 0.60667 0.0
C713 C 0.18474 0.94468 0.56928 0.0
N714 N 0.17315 1.00841 0.64273 0.0
N715 N 0.14196 0.94121 0.51627 0.0
H716 H 0.24583 0.93642 0.55976 0.0
H717 H 0.21756 0.93164 0.5207 0.0
H718 H 0.11702 0.94943 0.50087 0.0
H719 H 0.16156 0.92213 0.50292 0.0
H720 H 0.15392 0.0306 0.65148 0.0
H721 H 0.2029 1.01232 0.6457 0.0
H722 H 0.09676 1.00733 0.65514 0.0
H723 H 0.06315 1.00141 0.61966 0.0
C724 C 0.81365 0.51121 0.04918 0.0
C725 C 0.80425 0.47577 0.03794 0.0
C726 C 0.87429 0.45523 0.03383 0.0
C727 C 0.88319 0.49224 0.03804 0.0
N728 N 0.86147 0.55644 0.04776 0.0
N729 N 0.82567 0.4146 1.0157 0.0
C730 C 0.85301 0.52052 0.04582 0.0
C731 C 0.83456 0.44767 0.02974 0.0
N732 N 0.78479 0.53585 0.06287 0.0
N733 N 0.90384 0.42727 0.03419 0.0
H734 H 0.79702 0.40771 1.01178 0.0
H735 H 0.84682 0.39502 1.00515 0.0
H736 H 0.93333 0.43183 0.03774 0.0
H737 H 0.89876 0.3995 0.03485 0.0
H738 H 0.79028 0.56098 0.07453 0.0
H739 H 0.75576 0.52948 0.06572 0.0
H740 H 0.84 0.5786 0.04922 0.0
H741 H 0.88988 0.56443 0.04516 0.0
C742 C 0.69361 0.51769 0.47522 0.0
C743 C 0.70358 0.55076 0.45875 0.0
C744 C 0.63467 0.57631 0.46172 0.0
C745 C 0.62433 0.54214 0.47563 0.0
N746 N 0.64271 0.47753 0.48747 0.0
N747 N 0.68333 0.60898 0.43006 0.0
C748 C 0.65344 0.512 0.48002 0.0
C749 C 0.67398 0.57933 0.45005 0.0
N750 N 0.72252 0.49226 0.4876 0.0
N751 N 0.60759 0.60636 0.46139 0.0
H752 H 0.71186 0.61211 0.42119 0.0
H753 H 0.66238 0.62879 0.41959 0.0
H754 H 0.57871 0.60549 0.47032 0.0
H755 H 0.61459 0.6329 0.45528 0.0
H756 H 0.7169 0.46971 0.50363 0.0
H757 H 0.75243 0.49532 0.48471 0.0
H758 H 0.66234 0.45391 0.48684 0.0
H759 H 0.61359 0.47178 0.49065 0.0
C760 C 0.02269 0.35305 0.11056 0.0
C761 C 0.05439 0.32915 0.09623 0.0
C762 C 0.05835 0.37284 0.04446 0.0
C763 C 0.03221 0.39986 0.06227 0.0
N764 N 0.98618 0.41345 0.11172 0.0
N765 N 0.07728 0.30773 0.03694 0.0
C766 C 0.01381 0.38941 0.09541 0.0
C767 C 0.065 0.33652 0.05935 0.0
N768 N 0.99582 0.33866 0.13257 0.0
N769 N 0.07868 0.38189 1.01412 0.0
H770 H 0.07751 0.28038 0.04552 0.0
H771 H 0.08182 0.31073 1.00893 0.0
H772 H 0.07593 0.408 1.0024 0.0
H773 H 0.10116 0.36421 1.00273 0.0
H774 H 0.97129 0.35385 0.14349 0.0
H775 H 0.99302 0.31043 0.13254 0.0
H776 H 0.9765 0.41017 0.13845 0.0
H777 H 0.97341 0.43701 0.09876 0.0
C778 C 0.51027 0.26747 0.98001 0.0
C779 C 0.54834 0.27735 0.97123 0.0
C780 C 0.57205 0.21214 0.96519 0.0
C781 C 0.53315 0.20256 0.97066 0.0
N782 N 0.46374 0.22151 0.97441 0.0
N783 N 0.61287 0.2595 0.94627 0.0
C784 C 0.50174 0.23044 0.97522 0.0
C785 C 0.57855 0.24982 0.96109 0.0
N786 N 0.48273 0.29314 0.99422 0.0
N787 N 0.60304 0.18561 0.96555 0.0
H788 H 0.61853 0.28678 0.94177 0.0
H789 H 0.63406 0.24037 0.93506 0.0
H790 H 0.59977 0.15764 0.96884 0.0
H791 H 0.63225 0.19174 0.96578 0.0
H792 H 0.45578 0.28654 1.00441 0.0
H793 H 0.48833 0.32038 0.99921 0.0
H794 H 0.43958 0.24117 0.97426 0.0
H795 H 0.45646 0.19463 0.97008 0.0
C796 C 0.93972 0.76841 0.48144 0.0
C797 C 0.95003 0.75088 0.51532 0.0
C798 C 0.9773 0.80663 0.53738 0.0
C799 C 0.96971 0.82297 0.50247 0.0
N800 N 0.94944 0.81832 0.4396 0.0
N801 N 0.98226 0.75074 0.57394 0.0
C802 C 0.95257 0.80351 0.47399 0.0
C803 C 0.96985 0.76928 0.54293 0.0
N804 N 0.91685 0.75176 0.45672 0.0
N805 N 0.99061 0.82717 0.5654 0.0
H806 H 0.97604 0.72372 0.57921 0.0
H807 H 1.00067 0.76116 0.59336 0.0
H808 H 0.99747 0.8543 0.56209 0.0
H809 H 0.99253 0.81826 0.59245 0.0
H810 H 0.90472 0.76486 0.43349 0.0
H811 H 0.90711 0.72577 0.46073 0.0
H812 H 0.94132 0.80382 0.41665 0.0
H813 H 0.95818 0.84429 0.4333 0.0
C814 C 0.48819 0.68263 0.59911 0.0
C815 C 0.45047 0.7002 0.58975 0.0
C816 C 0.44375 0.65142 0.54369 0.0
C817 C 0.47824 0.6305 0.55653 0.0
N818 N 0.53556 0.62871 0.59578 0.0
N819 N 0.41563 0.71333 0.53304 0.0
C820 C 0.50095 0.64672 0.5843 0.0
C821 C 0.43477 0.68824 0.55605 0.0
N822 N 0.51492 0.70302 0.61538 0.0
N823 N 0.41788 0.63607 0.52102 0.0
H824 H 0.41396 0.7416 0.5384 0.0
H825 H 0.40657 0.70642 0.50682 0.0
H826 H 0.42054 0.60831 0.51365 0.0
H827 H 0.39115 0.65016 0.51337 0.0
H828 H 0.54369 0.69303 0.62155 0.0
H829 H 0.51075 0.73173 0.61577 0.0
H830 H 0.54997 0.63573 0.6196 0.0
H831 H 0.54957 0.60633 0.58184 0.0
C832 C 0.92373 0.98561 0.68826 0.0
C833 C 0.93741 0.94914 0.69983 0.0
C834 C 0.98115 0.94568 0.64531 0.0
C835 C 0.96105 0.97845 0.63028 0.0
N836 N 0.90988 0.02802 0.6379 0.0
N837 N 1.00039 0.91387 0.70135 0.0
C838 C 0.93164 0.99805 0.65204 0.0
C839 C 0.97194 0.93364 0.68156 0.0
N840 N 0.90854 1.01052 0.7136 0.0
N841 N 0.0103 0.92642 0.6258 0.0
H842 H 1.0004 0.9149 0.72988 0.0
H843 H 0.0274 0.90356 0.69054 0.0
H844 H 0.02169 0.9359 0.60151 0.0
H845 H 0.02195 0.90002 0.63321 0.0
H846 H 0.90149 0.03833 0.7077 0.0
H847 H 0.90872 1.00443 0.74152 0.0
H848 H 0.88546 0.04094 0.65135 0.0
H849 H 0.91378 0.03769 0.61142 0.0
C850 C 0.52839 0.08814 0.18302 0.0
C851 C 0.56714 0.08081 0.19758 0.0
C852 C 0.5808 0.03577 0.14695 0.0
C853 C 0.54534 0.04865 0.12889 0.0
N854 N 0.48412 0.08718 0.13116 0.0
N855 N 0.6103 0.02525 0.20628 0.0
C856 C 0.51891 0.07498 0.14733 0.0
C857 C 0.58872 0.04846 0.1832 0.0
N858 N 0.49882 0.10175 0.20573 0.0
N859 N 0.6073 1.01135 0.12971 0.0
H860 H 0.60702 0.02756 0.23461 0.0
H861 H 0.62454 1.00012 0.19789 0.0
H862 H 0.60249 1.00107 0.10355 0.0
H863 H 0.63523 1.00386 0.1404 0.0
H864 H 0.46928 0.1046 0.19815 0.0
H865 H 0.5032 0.1046 0.23383 0.0
H866 H 0.46611 0.1097 0.1409 0.0
H867 H 0.47435 0.07591 0.10697 0.0
C868 C 0.45167 0.51259 0.26658 0.0
C869 C 0.42111 0.53648 0.25107 0.0
C870 C 0.40733 0.56583 0.31059 0.0
C871 C 0.44011 0.54416 0.32531 0.0
N872 N 0.49678 0.50024 0.31728 0.0
N873 N 0.37275 0.58891 0.25619 0.0
C874 C 0.46323 0.51839 0.30329 0.0
C875 C 0.3996 0.56392 0.27251 0.0
N876 N 0.46902 0.484 0.24632 0.0
N877 N 0.38312 0.58751 0.33319 0.0
H878 H 0.36545 0.58792 0.22849 0.0
H879 H 0.35959 0.61215 0.26946 0.0
H880 H 0.38856 0.59032 0.36113 0.0
H881 H 0.35624 0.60067 0.32491 0.0
H882 H 0.48866 0.46325 0.2571 0.0
H883 H 0.46133 0.47926 0.21917 0.0
H884 H 0.5171 0.48407 0.30158 0.0
H885 H 0.50607 0.50354 0.34421 0.0
C886 C 0.0589 0.48775 0.77494 0.0
C887 C 0.02838 0.49747 0.74922 0.0
C888 C 0.98013 0.49204 0.79775 0.0
C889 C 0.01077 0.48785 0.82418 0.0
N890 N 0.0791 0.49619 0.83726 0.0
N891 N 0.96031 0.52005 0.73998 0.0
C892 C 0.05016 0.49028 0.81269 0.0
C893 C 0.98905 0.50338 0.76188 0.0
N894 N 0.09545 0.47363 0.76401 0.0
N895 N 0.94308 0.48346 0.806 0.0
H896 H 0.9663 0.53041 0.71416 0.0
H897 H 0.93174 0.5271 0.74925 0.0
H898 H 0.936 0.47204 0.83102 0.0
H899 H 0.9208 0.48363 0.78642 0.0
H900 H 0.11716 0.46399 0.78266 0.0
H901 H 0.1025 0.46694 0.73696 0.0
H902 H 0.10758 0.50049 0.82909 0.0
H903 H 0.07355 0.5015 0.86491 0.0
C904 C 0.68507 0.9706 0.96575 0.0
C905 C 0.684 0.93919 0.94271 0.0
C906 C 0.61218 0.94127 0.95177 0.0
C907 C 0.61381 0.97047 0.97757 0.0
N908 N 0.65249 1.01027 1.01234 0.0
N909 N 0.6472 0.89253 0.91595 0.0
C910 C 0.65043 0.98465 0.98517 0.0
C911 C 0.64768 0.92402 0.93633 0.0
N912 N 0.71929 0.98711 0.96896 0.0
N913 N 0.57646 0.93096 0.94076 0.0
H914 H 0.67189 0.8804 0.90229 0.0
H915 H 0.62302 0.87715 0.91424 0.0
H916 H 0.54982 0.94261 0.95126 0.0
H917 H 0.5728 0.91314 0.91897 0.0
H918 H 0.72132 1.0123 0.98198 0.0
H919 H 0.74532 0.97695 0.95613 0.0
H920 H 0.67874 0.01896 0.02218 0.0
H921 H 0.62802 0.02084 0.02731 0.0
C922 C 0.8231 0.05561 0.4631 0.0
C923 C 0.82474 0.08543 0.43819 0.0
C924 C 0.89562 0.08633 0.45112 0.0
C925 C 0.8935 0.05795 0.47763 0.0
N926 N 0.8543 0.01919 0.51278 0.0
N927 N 0.8612 0.13246 0.41186 0.0
C928 C 0.85696 0.04349 0.48459 0.0
C929 C 0.86061 0.10181 0.43336 0.0
N930 N 0.78919 0.03855 0.46591 0.0
N931 N 0.93147 0.09718 0.44139 0.0
H932 H 0.83693 0.14346 0.39683 0.0
H933 H 0.88485 0.14854 0.41078 0.0
H934 H 0.95778 0.08674 0.45353 0.0
H935 H 0.93574 0.11423 0.41919 0.0
H936 H 0.78713 1.01404 0.48007 0.0
H937 H 0.76337 0.04774 0.45213 0.0
H938 H 0.82792 1.01036 0.52201 0.0
H939 H 0.87829 1.01001 0.52912 0.0
C940 C 0.19036 0.51093 0.99427 0.0
C941 C 0.19848 0.5483 0.99798 0.0
C942 C 0.128 0.56733 0.99588 0.0
C943 C 0.12013 0.53008 0.99988 0.0
N944 N 0.14356 0.46581 1.00441 0.0
N945 N 0.17446 0.61238 1.00626 0.0
C946 C 0.1512 0.50156 0.99896 0.0
C947 C 0.16719 0.57674 0.99935 0.0
N948 N 0.22016 0.48458 0.9862 0.0
N949 N 0.09806 0.59355 0.98798 0.0
H950 H 0.20262 0.62068 1.00979 0.0
H951 H 0.15225 0.63325 1.01156 0.0
H952 H 0.06929 0.58698 0.98374 0.0
H953 H 0.10254 0.6207 0.98151 0.0
H954 H 0.21564 0.45735 0.98008 0.0
H955 H 0.24905 0.49088 0.98211 0.0
H956 H 0.16545 0.44429 1.00809 0.0
H957 H 0.11518 0.45808 1.00792 0.0
C958 C 0.34503 0.49753 0.59221 0.0
C959 C 0.31862 0.48957 0.56377 0.0
C960 C 0.37394 0.48097 0.52139 0.0
C961 C 0.39889 0.49526 0.54784 0.0
N962 N 0.40537 0.52416 0.60706 0.0
N963 N 0.30747 0.48255 0.49877 0.0
C964 C 0.38381 0.50541 0.58302 0.0
C965 C 0.33291 0.48384 0.52755 0.0
N966 N 0.33372 0.49639 0.62801 0.0
N967 N 0.38948 0.4633 0.49102 0.0
H968 H 0.27702 0.48676 0.5017 0.0
H969 H 0.31684 0.48148 0.4716 0.0
H970 H 0.41973 0.45788 0.48724 0.0
H971 H 0.37251 0.45001 0.47229 0.0
H972 H 0.3532 0.49866 0.64972 0.0
H973 H 0.30612 0.48925 0.63603 0.0
H974 H 0.39384 0.53518 0.63153 0.0
H975 H 0.4332 0.53209 0.60109 0.0
C976 C 0.92675 0.65608 0.92968 0.0
C977 C 0.94617 0.68836 0.9363 0.0
C978 C 0.98754 0.65382 0.9831 0.0
C979 C 0.96686 0.62192 0.97747 0.0
N980 N 0.90954 0.59703 0.9524 0.0
N981 N 0.9908 0.71974 0.97355 0.0
C982 C 0.9345 0.62432 0.9526 0.0
C983 C 0.97536 0.68767 0.96427 0.0
N984 N 0.90123 0.65543 0.90088 0.0
N985 N 0.01972 0.65162 1.00552 0.0
H986 H 0.98348 0.74453 0.95984 0.0
H987 H 0.00862 0.72251 0.99634 0.0
H988 H 0.02853 0.62839 0.02107 0.0
H989 H 0.03917 0.67196 1.00715 0.0
H990 H 0.88955 0.63156 0.89189 0.0
H991 H 0.89429 0.67812 0.88392 0.0
H992 H 0.88329 0.59863 0.9377 0.0
H993 H 0.91269 0.5746 0.97022 0.0
C994 C 0.48329 0.76363 1.01062 0.0
C995 C 0.46294 0.74514 0.03767 0.0
C996 C 0.45873 0.80008 0.07683 0.0
C997 C 0.47656 0.8194 0.04872 0.0
N998 N 0.50122 0.82201 0.98698 0.0
N999 N 0.42584 0.74653 0.094 0.0
C1000 C 0.48765 0.80185 1.01504 0.0
C1001 C 0.44905 0.76362 0.07008 0.0
N1002 N 0.49916 0.74442 0.9812 0.0
N1003 N 0.45201 0.81634 0.11029 0.0
H1004 H 0.41846 0.71959 0.09041 0.0
H1005 H 0.41121 0.7599 0.11591 0.0
H1006 H 0.45842 0.84322 0.11604 0.0
H1007 H 0.44314 0.80238 0.13323 0.0
H1008 H 0.51812 0.75517 0.96259 0.0
H1009 H 0.49535 0.71668 0.97667 0.0
H1010 H 0.50564 0.8119 0.9605 0.0
H1011 H 0.50562 0.84987 0.98943 0.0
C1012 C 0.04979 0.25797 0.51495 0.0
C1013 C 0.07127 0.27312 0.54355 0.0
C1014 C 0.06187 0.2202 0.5828 0.0
C1015 C 0.04348 0.20357 0.55315 0.0
N1016 N 0.02278 0.20394 0.48992 0.0
N1017 N 0.10213 0.26776 0.60311 0.0
C1018 C 0.03805 0.22177 0.5189 0.0
C1019 C 0.07852 0.25398 0.57709 0.0
N1020 N 0.03994 0.27853 0.48447 0.0
N1021 N 0.06278 0.20388 0.61653 0.0
H1022 H 0.11448 0.29275 0.60026 0.0
H1023 H 0.11206 0.25325 0.62635 0.0
H1024 H 0.05109 0.17886 0.62146 0.0
H1025 H 0.07206 0.21637 0.64026 0.0
H1026 H 0.02057 0.27081 0.46444 0.0
H1027 H 0.0493 0.30468 0.48025 0.0
H1028 H 0.02242 0.21382 0.4632 0.0
H1029 H 0.01237 0.17798 0.49215 0.0
C1030 C 0.57643 0.37601 0.41468 0.0
C1031 C 0.56786 0.34227 0.43104 0.0
C1032 C 0.53093 0.37803 0.47985 0.0
C1033 C 0.54327 0.41153 0.46578 0.0
N1034 N 0.58196 0.44169 0.4216 0.0
N1035 N 0.53878 0.31092 0.48065 0.0
C1036 C 0.56678 0.41032 0.43342 0.0
C1037 C 0.54553 0.34332 0.46402 0.0
N1038 N 0.59396 0.37531 0.38105 0.0
N1039 N 0.50381 0.37944 0.50741 0.0
H1040 H 0.54652 0.28522 0.46877 0.0
H1041 H 0.52738 0.30935 0.50696 0.0
H1042 H 0.49211 0.40411 0.51924 0.0
H1043 H 0.49028 0.35665 0.51644 0.0
H1044 H 0.5969 0.3988 0.36548 0.0
H1045 H 0.60274 0.35091 0.36719 0.0
H1046 H 0.6031 0.44202 0.40114 0.0
H1047 H 0.57617 0.46724 0.43425 0.0
loop_
_geom_bond_atom_site_label_1
_geom_bond_atom_site_label_2
_geom_bond_distance
_geom_bond_site_symmetry_2
_ccdc_geom_bond_type
C0 C1 1.391 . S
C0 C4 1.391 . S
C0 H42 0.948 . S
C1 C0 1.391 . S
C1 C2 1.391 . S
C2 C1 1.391 . S
C2 H58 0.947 . S
C2 C59 1.392 . S
C3 C4 1.391 . S
C3 C7 1.397 . S
C3 C59 1.419 . S
C4 C0 1.391 . S
C4 C3 1.391 . S
C4 C5 1.399 . S
C5 C4 1.399 . S
C5 C8 1.396 . S
C5 C17 1.453 . S
C5 C18 1.684 . S
H6 C30 0.948 . S
C7 C3 1.397 . S
C7 C8 1.394 . S
C7 C26 1.723 . S
C8 C5 1.396 . S
C8 C7 1.394 . S
C8 C38 1.723 . S
H9 C32 0.947 . S
H10 C33 0.948 . S
H11 C39 0.982 . S
H12 C40 0.979 . S
H13 C40 0.980 . S
H14 C40 0.983 . S
H15 C39 0.979 . S
H16 C39 0.977 . S
C17 C5 1.453 . S
C17 H46 0.982 . S
C17 H47 0.979 . S
C17 H48 0.977 . S
C18 C5 1.684 . S
C18 H43 0.979 . S
C18 H44 0.980 . S
C18 H45 0.983 . S
C19 C20 1.391 . S
C19 C24 1.391 . S
C19 H49 0.948 . S
C20 C19 1.391 . S
C20 C21 1.391 . S
C21 C20 1.391 . S
C21 C22 1.392 . S
C21 H50 0.947 . S
C22 C21 1.392 . S
C22 C23 1.419 . S
C22 H51 0.948 . S
C23 C22 1.419 . S
C23 C24 1.391 . S
C23 C27 1.397 . S
C24 C19 1.391 . S
C24 C23 1.391 . S
C24 C25 1.399 . S
C25 C24 1.399 . S
C25 C26 1.396 . S
C25 C28 1.453 . S
C25 C29 1.684 . S
C26 C7 1.723 . S
C26 C25 1.396 . S
C26 C27 1.394 . S
C27 C23 1.397 . S
C27 C26 1.394 . S
C27 C37 1.723 . S
C28 C25 1.453 . S
C28 H52 0.982 . S
C28 H53 0.979 . S
C28 H54 0.977 . S
C29 C25 1.684 . S
C29 H55 0.978 1_455 S
C29 H56 0.980 . S
C29 H57 0.983 1_455 S
C30 H6 0.948 . S
C30 C31 1.391 . S
C30 C35 1.391 . S
C31 C30 1.391 . S
C31 C32 1.391 . S
C32 H9 0.947 . S
C32 C31 1.391 . S
C32 C33 1.392 . S
C33 H10 0.948 . S
C33 C32 1.392 . S
C33 C34 1.419 . S
C34 C33 1.419 . S
C34 C35 1.391 . S
C34 C38 1.397 . S
C35 C30 1.391 . S
C35 C34 1.391 . S
C35 C36 1.399 . S
C36 C35 1.399 . S
C36 C37 1.396 . S
C36 C39 1.453 . S
C36 C40 1.684 . S
C37 C27 1.723 . S
C37 C36 1.396 . S
C37 C38 1.394 . S
C38 C8 1.723 . S
C38 C34 1.397 . S
C38 C37 1.394 . S
C39 H11 0.982 . S
C39 H15 0.979 . S
C39 H16 0.977 . S
C39 C36 1.453 . S
C40 H12 0.979 . S
C40 H13 0.980 . S
C40 H14 0.983 . S
C40 C36 1.684 . S
H41 C59 0.948 . S
H42 C0 0.948 . S
H43 C18 0.979 . S
H44 C18 0.980 . S
H45 C18 0.983 . S
H46 C17 0.982 . S
H47 C17 0.979 . S
H48 C17 0.977 . S
H49 C19 0.948 . S
H50 C21 0.947 . S
H51 C22 0.948 . S
H52 C28 0.982 . S
H53 C28 0.979 . S
H54 C28 0.977 . S
H55 C29 0.978 1_655 S
H56 C29 0.980 . S
H57 C29 0.983 1_655 S
H58 C2 0.947 . S
C59 C2 1.392 . S
C59 C3 1.419 . S
C59 H41 0.948 . S
C60 C61 1.391 . S
C60 C64 1.391 . S
C60 H102 0.948 . S
C61 C60 1.391 . S
C61 C62 1.391 . S
C62 C61 1.391 . S
C62 H118 0.947 . S
C62 C119 1.392 . S
C63 C64 1.391 . S
C63 C67 1.397 . S
C63 C119 1.419 . S
C64 C60 1.391 . S
C64 C63 1.391 . S
C64 C65 1.399 . S
C65 C64 1.399 . S
C65 C68 1.396 . S
C65 C77 1.453 . S
C65 C78 1.684 . S
H66 C90 0.948 . S
C67 C63 1.397 . S
C67 C68 1.394 . S
C67 C86 1.723 . S
C68 C65 1.396 . S
C68 C67 1.394 . S
C68 C98 1.723 . S
H69 C92 0.947 . S
H70 C93 0.948 . S
H71 C99 0.982 . S
H72 C100 0.979 . S
H73 C100 0.980 . S
H74 C100 0.983 . S
H75 C99 0.979 . S
H76 C99 0.977 . S
C77 C65 1.453 . S
C77 H106 0.982 . S
C77 H107 0.979 . S
C77 H108 0.977 . S
C78 C65 1.684 . S
C78 H103 0.979 . S
C78 H104 0.980 . S
C78 H105 0.983 . S
C79 C80 1.391 . S
C79 C84 1.391 . S
C79 H109 0.948 . S
C80 C79 1.391 . S
C80 C81 1.391 . S
C81 C80 1.391 . S
C81 C82 1.392 . S
C81 H110 0.947 . S
C82 C81 1.392 . S
C82 C83 1.419 . S
C82 H111 0.948 . S
C83 C82 1.419 . S
C83 C84 1.391 . S
C83 C87 1.397 . S
C84 C79 1.391 . S
C84 C83 1.391 . S
C84 C85 1.399 . S
C85 C84 1.399 . S
C85 C86 1.396 . S
C85 C88 1.453 . S
C85 C89 1.684 . S
C86 C67 1.723 . S
C86 C85 1.396 . S
C86 C87 1.394 . S
C87 C83 1.397 . S
C87 C86 1.394 . S
C87 C97 1.723 . S
C88 C85 1.453 . S
C88 H112 0.982 . S
C88 H113 0.979 . S
C88 H114 0.977 . S
C89 C85 1.684 . S
C89 H115 0.979 . S
C89 H116 0.980 . S
C89 H117 0.983 . S
C90 H66 0.948 . S
C90 C91 1.391 . S
C90 C95 1.391 . S
C91 C90 1.391 . S
C91 C92 1.391 . S
C92 H69 0.947 . S
C92 C91 1.391 . S
C92 C93 1.392 . S
C93 H70 0.948 . S
C93 C92 1.392 . S
C93 C94 1.419 . S
C94 C93 1.419 . S
C94 C95 1.391 . S
C94 C98 1.397 . S
C95 C90 1.391 . S
C95 C94 1.391 . S
C95 C96 1.399 . S
C96 C95 1.399 . S
C96 C97 1.396 . S
C96 C99 1.453 . S
C96 C100 1.684 . S
C97 C87 1.723 . S
C97 C96 1.396 . S
C97 C98 1.394 . S
C98 C68 1.723 . S
C98 C94 1.397 . S
C98 C97 1.394 . S
C99 H71 0.982 . S
C99 H75 0.979 . S
C99 H76 0.977 . S
C99 C96 1.453 . S
C100 H72 0.979 . S
C100 H73 0.980 . S
C100 H74 0.983 . S
C100 C96 1.684 . S
H101 C119 0.948 . S
H102 C60 0.948 . S
H103 C78 0.979 . S
H104 C78 0.980 . S
H105 C78 0.983 . S
H106 C77 0.982 . S
H107 C77 0.979 . S
H108 C77 0.977 . S
H109 C79 0.948 . S
H110 C81 0.947 . S
H111 C82 0.948 . S
H112 C88 0.982 . S
H113 C88 0.979 . S
H114 C88 0.977 . S
H115 C89 0.979 . S
H116 C89 0.980 . S
H117 C89 0.983 . S
H118 C62 0.947 . S
C119 C62 1.392 . S
C119 C63 1.419 . S
C119 H101 0.948 . S
C120 C121 1.391 . S
C120 C124 1.391 . S
C120 H162 0.948 . S
C121 C120 1.391 . S
C121 C122 1.391 . S
C122 C121 1.391 . S
C122 H178 0.947 . S
C122 C179 1.392 . S
C123 C124 1.391 . S
C123 C127 1.397 . S
C123 C179 1.419 . S
C124 C120 1.391 . S
C124 C123 1.391 . S
C124 C125 1.399 . S
C125 C124 1.399 . S
C125 C128 1.396 . S
C125 C137 1.453 . S
C125 C138 1.684 . S
H126 C150 0.948 . S
C127 C123 1.397 . S
C127 C128 1.394 . S
C127 C146 1.723 . S
C128 C125 1.396 . S
C128 C127 1.394 . S
C128 C158 1.723 . S
H129 C152 0.947 1_554 S
H130 C153 0.948 . S
H131 C159 0.982 . S
H132 C160 0.979 . S
H133 C160 0.980 . S
H134 C160 0.983 . S
H135 C159 0.979 . S
H136 C159 0.977 . S
C137 C125 1.453 . S
C137 H166 0.982 . S
C137 H167 0.979 1_556 S
C137 H168 0.977 . S
C138 C125 1.684 . S
C138 H163 0.979 . S
C138 H164 0.980 . S
C138 H165 0.983 . S
C139 C140 1.391 . S
C139 C144 1.391 . S
C139 H169 0.948 . S
C140 C139 1.391 . S
C140 C141 1.391 . S
C141 C140 1.391 . S
C141 C142 1.392 . S
C141 H170 0.947 . S
C142 C141 1.392 . S
C142 C143 1.419 . S
C142 H171 0.948 . S
C143 C142 1.419 . S
C143 C144 1.391 . S
C143 C147 1.397 . S
C144 C139 1.391 . S
C144 C143 1.391 . S
C144 C145 1.399 . S
C145 C144 1.399 . S
C145 C146 1.396 . S
C145 C148 1.453 . S
C145 C149 1.684 . S
C146 C127 1.723 . S
C146 C145 1.396 . S
C146 C147 1.394 . S
C147 C143 1.397 . S
C147 C146 1.394 . S
C147 C157 1.723 . S
C148 C145 1.453 . S
C148 H172 0.982 . S
C148 H173 0.979 . S
C148 H174 0.977 . S
C149 C145 1.684 . S
C149 H175 0.979 . S
C149 H176 0.980 . S
C149 H177 0.983 . S
C150 H126 0.948 . S
C150 C151 1.391 . S
C150 C155 1.391 . S
C151 C150 1.391 . S
C151 C152 1.391 . S
C152 H129 0.947 1_556 S
C152 C151 1.391 . S
C152 C153 1.392 . S
C153 H130 0.948 . S
C153 C152 1.392 . S
C153 C154 1.419 . S
C154 C153 1.419 . S
C154 C155 1.391 . S
C154 C158 1.397 . S
C155 C150 1.391 . S
C155 C154 1.391 . S
C155 C156 1.399 . S
C156 C155 1.399 . S
C156 C157 1.396 . S
C156 C159 1.453 . S
C156 C160 1.684 . S
C157 C147 1.723 . S
C157 C156 1.396 . S
C157 C158 1.394 . S
C158 C128 1.723 . S
C158 C154 1.397 . S
C158 C157 1.394 . S
C159 H131 0.982 . S
C159 H135 0.979 . S
C159 H136 0.977 . S
C159 C156 1.453 . S
C160 H132 0.979 . S
C160 H133 0.980 . S
C160 H134 0.983 . S
C160 C156 1.684 . S
H161 C179 0.948 . S
H162 C120 0.948 . S
H163 C138 0.979 . S
H164 C138 0.980 . S
H165 C138 0.983 . S
H166 C137 0.982 . S
H167 C137 0.979 1_554 S
H168 C137 0.977 . S
H169 C139 0.948 . S
H170 C141 0.947 . S
H171 C142 0.948 . S
H172 C148 0.982 . S
H173 C148 0.979 . S
H174 C148 0.977 . S
H175 C149 0.979 . S
H176 C149 0.980 . S
H177 C149 0.983 . S
H178 C122 0.947 . S
C179 C122 1.392 . S
C179 C123 1.419 . S
C179 H161 0.948 . S
C180 C181 1.391 . S
C180 C184 1.391 . S
C180 H222 0.948 . S
C181 C180 1.391 . S
C181 C182 1.391 . S
C182 C181 1.391 . S
C182 H238 0.947 . S
C182 C239 1.392 . S
C183 C184 1.391 . S
C183 C187 1.397 . S
C183 C239 1.419 . S
C184 C180 1.391 . S
C184 C183 1.391 . S
C184 C185 1.399 . S
C185 C184 1.399 . S
C185 C188 1.396 . S
C185 C197 1.453 . S
C185 C198 1.684 . S
H186 C210 0.948 . S
C187 C183 1.397 . S
C187 C188 1.394 . S
C187 C206 1.723 . S
C188 C185 1.396 . S
C188 C187 1.394 . S
C188 C218 1.723 . S
H189 C212 0.947 . S
H190 C213 0.948 . S
H191 C219 0.982 . S
H192 C220 0.979 . S
H193 C220 0.980 . S
H194 C220 0.983 . S
H195 C219 0.979 . S
H196 C219 0.977 . S
C197 C185 1.453 . S
C197 H226 0.982 . S
C197 H227 0.979 . S
C197 H228 0.977 . S
C198 C185 1.684 . S
C198 H223 0.979 . S
C198 H224 0.980 . S
C198 H225 0.983 . S
C199 C200 1.391 . S
C199 C204 1.391 . S
C199 H229 0.948 . S
C200 C199 1.391 . S
C200 C201 1.391 . S
C201 C200 1.391 . S
C201 C202 1.392 . S
C201 H230 0.947 . S
C202 C201 1.392 . S
C202 C203 1.419 . S
C202 H231 0.948 . S
C203 C202 1.419 . S
C203 C204 1.391 . S
C203 C207 1.397 . S
C204 C199 1.391 . S
C204 C203 1.391 . S
C204 C205 1.399 . S
C205 C204 1.399 . S
C205 C206 1.396 . S
C205 C208 1.453 . S
C205 C209 1.684 . S
C206 C187 1.723 . S
C206 C205 1.396 . S
C206 C207 1.394 . S
C207 C203 1.397 . S
C207 C206 1.394 . S
C207 C217 1.723 . S
C208 C205 1.453 . S
C208 H232 0.982 . S
C208 H233 0.979 . S
C208 H234 0.977 . S
C209 C205 1.684 . S
C209 H235 0.979 . S
C209 H236 0.980 . S
C209 H237 0.983 . S
C210 H186 0.948 . S
C210 C211 1.391 . S
C210 C215 1.391 . S
C211 C210 1.391 . S
C211 C212 1.391 . S
C212 H189 0.947 . S
C212 C211 1.391 . S
C212 C213 1.392 . S
C213 H190 0.948 . S
C213 C212 1.392 . S
C213 C214 1.419 . S
C214 C213 1.419 . S
C214 C215 1.391 . S
C214 C218 1.397 . S
C215 C210 1.391 . S
C215 C214 1.391 . S
C215 C216 1.399 . S
C216 C215 1.399 . S
C216 C217 1.396 . S
C216 C219 1.453 . S
C216 C220 1.684 . S
C217 C207 1.723 . S
C217 C216 1.396 . S
C217 C218 1.394 . S
C218 C188 1.723 . S
C218 C214 1.397 . S
C218 C217 1.394 . S
C219 H191 0.982 . S
C219 H195 0.979 . S
C219 H196 0.977 . S
C219 C216 1.453 . S
C220 H192 0.979 . S
C220 H193 0.980 . S
C220 H194 0.983 . S
C220 C216 1.684 . S
H221 C239 0.948 . S
H222 C180 0.948 . S
H223 C198 0.979 . S
H224 C198 0.980 . S
H225 C198 0.983 . S
H226 C197 0.982 . S
H227 C197 0.979 . S
H228 C197 0.977 . S
H229 C199 0.948 . S
H230 C201 0.947 . S
H231 C202 0.948 . S
H232 C208 0.982 . S
H233 C208 0.979 . S
H234 C208 0.977 . S
H235 C209 0.979 . S
H236 C209 0.980 . S
H237 C209 0.983 . S
H238 C182 0.947 . S
C239 C182 1.392 . S
C239 C183 1.419 . S
C239 H221 0.948 . S
C240 C241 1.391 . S
C240 C244 1.391 . S
C240 H282 0.948 . S
C241 C240 1.391 . S
C241 C242 1.391 . S
C242 C241 1.391 . S
C242 H298 0.947 . S
C242 C299 1.392 . S
C243 C244 1.391 . S
C243 C247 1.397 . S
C243 C299 1.419 . S
C244 C240 1.391 . S
C244 C243 1.391 . S
C244 C245 1.399 . S
C245 C244 1.399 . S
C245 C248 1.396 . S
C245 C257 1.453 . S
C245 C258 1.684 . S
H246 C270 0.948 . S
C247 C243 1.397 . S
C247 C248 1.394 . S
C247 C266 1.723 . S
C248 C245 1.396 . S
C248 C247 1.394 . S
C248 C278 1.723 . S
H249 C272 0.947 . S
H250 C273 0.948 . S
H251 C279 0.982 . S
H252 C280 0.979 . S
H253 C280 0.980 . S
H254 C280 0.983 . S
H255 C279 0.979 . S
H256 C279 0.977 . S
C257 C245 1.453 . S
C257 H286 0.982 . S
C257 H287 0.979 . S
C257 H288 0.977 . S
C258 C245 1.684 . S
C258 H283 0.979 . S
C258 H284 0.980 . S
C258 H285 0.983 . S
C259 C260 1.391 . S
C259 C264 1.391 . S
C259 H289 0.948 . S
C260 C259 1.391 . S
C260 C261 1.391 . S
C261 C260 1.391 . S
C261 C262 1.392 . S
C261 H290 0.947 . S
C262 C261 1.392 . S
C262 C263 1.419 . S
C262 H291 0.948 . S
C263 C262 1.419 . S
C263 C264 1.391 . S
C263 C267 1.397 . S
C264 C259 1.391 . S
C264 C263 1.391 . S
C264 C265 1.399 . S
C265 C264 1.399 . S
C265 C266 1.396 . S
C265 C268 1.453 . S
C265 C269 1.684 . S
C266 C247 1.723 . S
C266 C265 1.396 . S
C266 C267 1.394 . S
C267 C263 1.397 . S
C267 C266 1.394 . S
C267 C277 1.723 . S
C268 C265 1.453 . S
C268 H292 0.982 . S
C268 H293 0.979 . S
C268 H294 0.977 . S
C269 C265 1.684 . S
C269 H295 0.986 . S
C269 H296 0.980 . S
C269 H297 0.983 1_655 S
C270 H246 0.948 . S
C270 C271 1.391 . S
C270 C275 1.391 . S
C271 C270 1.391 . S
C271 C272 1.391 . S
C272 H249 0.947 . S
C272 C271 1.391 . S
C272 C273 1.392 . S
C273 H250 0.948 . S
C273 C272 1.392 . S
C273 C274 1.419 . S
C274 C273 1.419 . S
C274 C275 1.391 . S
C274 C278 1.397 . S
C275 C270 1.391 . S
C275 C274 1.391 . S
C275 C276 1.399 . S
C276 C275 1.399 . S
C276 C277 1.396 . S
C276 C279 1.453 . S
C276 C280 1.684 . S
C277 C267 1.723 . S
C277 C276 1.396 . S
C277 C278 1.394 . S
C278 C248 1.723 . S
C278 C274 1.397 . S
C278 C277 1.394 . S
C279 H251 0.982 . S
C279 H255 0.979 . S
C279 H256 0.977 . S
C279 C276 1.453 . S
C280 H252 0.979 . S
C280 H253 0.980 . S
C280 H254 0.983 . S
C280 C276 1.684 . S
H281 C299 0.948 . S
H282 C240 0.948 . S
H283 C258 0.979 . S
H284 C258 0.980 . S
H285 C258 0.983 . S
H286 C257 0.982 . S
H287 C257 0.979 . S
H288 C257 0.977 . S
H289 C259 0.948 . S
H290 C261 0.947 . S
H291 C262 0.948 . S
H292 C268 0.982 . S
H293 C268 0.979 . S
H294 C268 0.977 . S
H295 C269 0.986 . S
H296 C269 0.980 . S
H297 C269 0.983 1_455 S
H298 C242 0.947 . S
C299 C242 1.392 . S
C299 C243 1.419 . S
C299 H281 0.948 . S
C300 C301 1.391 . S
C300 C304 1.391 . S
C300 H342 0.948 . S
C301 C300 1.391 . S
C301 C302 1.391 . S
C302 C301 1.391 . S
C302 H358 0.947 . S
C302 C359 1.392 . S
C303 C304 1.391 . S
C303 C307 1.397 . S
C303 C359 1.419 . S
C304 C300 1.391 . S
C304 C303 1.391 . S
C304 C305 1.399 . S
C305 C304 1.399 . S
C305 C308 1.396 . S
C305 C317 1.453 . S
C305 C318 1.684 . S
H306 C330 0.948 . S
C307 C303 1.397 . S
C307 C308 1.394 . S
C307 C326 1.723 . S
C308 C305 1.396 . S
C308 C307 1.394 . S
C308 C338 1.723 . S
H309 C332 0.947 . S
H310 C333 0.948 . S
H311 C339 0.982 . S
H312 C340 0.979 . S
H313 C340 0.980 . S
H314 C340 0.983 . S
H315 C339 0.979 . S
H316 C339 0.977 . S
C317 C305 1.453 . S
C317 H346 0.982 . S
C317 H347 0.979 . S
C317 H348 0.977 . S
C318 C305 1.684 . S
C318 H343 0.979 . S
C318 H344 0.980 . S
C318 H345 0.983 . S
C319 C320 1.391 . S
C319 C324 1.391 . S
C319 H349 0.948 . S
C320 C319 1.391 . S
C320 C321 1.391 . S
C321 C320 1.391 . S
C321 C322 1.392 . S
C321 H350 0.947 . S
C322 C321 1.392 . S
C322 C323 1.419 . S
C322 H351 0.948 . S
C323 C322 1.419 . S
C323 C324 1.391 . S
C323 C327 1.397 . S
C324 C319 1.391 . S
C324 C323 1.391 . S
C324 C325 1.399 . S
C325 C324 1.399 . S
C325 C326 1.396 . S
C325 C328 1.453 . S
C325 C329 1.684 . S
C326 C307 1.723 . S
C326 C325 1.396 . S
C326 C327 1.394 . S
C327 C323 1.397 . S
C327 C326 1.394 . S
C327 C337 1.723 . S
C328 C325 1.453 . S
C328 H352 0.982 . S
C328 H353 0.979 . S
C328 H354 0.977 . S
C329 C325 1.684 . S
C329 H355 0.979 . S
C329 H356 0.980 . S
C329 H357 0.983 . S
C330 H306 0.948 . S
C330 C331 1.391 . S
C330 C335 1.391 . S
C331 C330 1.391 . S
C331 C332 1.391 . S
C332 H309 0.947 . S
C332 C331 1.391 . S
C332 C333 1.392 . S
C333 H310 0.948 . S
C333 C332 1.392 . S
C333 C334 1.419 . S
C334 C333 1.419 . S
C334 C335 1.391 . S
C334 C338 1.397 . S
C335 C330 1.391 . S
C335 C334 1.391 . S
C335 C336 1.399 . S
C336 C335 1.399 . S
C336 C337 1.396 . S
C336 C339 1.453 . S
C336 C340 1.684 . S
C337 C327 1.723 . S
C337 C336 1.396 . S
C337 C338 1.394 . S
C338 C308 1.723 . S
C338 C334 1.397 . S
C338 C337 1.394 . S
C339 H311 0.982 . S
C339 H315 0.979 . S
C339 H316 0.977 . S
C339 C336 1.453 . S
C340 H312 0.979 . S
C340 H313 0.980 . S
C340 H314 0.983 . S
C340 C336 1.684 . S
H341 C359 0.948 . S
H342 C300 0.948 . S
H343 C318 0.979 . S
H344 C318 0.980 . S
H345 C318 0.983 . S
H346 C317 0.982 . S
H347 C317 0.979 . S
H348 C317 0.977 . S
H349 C319 0.948 . S
H350 C321 0.947 . S
H351 C322 0.948 . S
H352 C328 0.982 . S
H353 C328 0.979 . S
H354 C328 0.977 . S
H355 C329 0.979 . S
H356 C329 0.980 . S
H357 C329 0.983 . S
H358 C302 0.947 . S
C359 C302 1.392 . S
C359 C303 1.419 . S
C359 H341 0.948 . S
C360 C361 1.391 . S
C360 C364 1.391 . S
C360 H402 0.948 . S
C361 C360 1.391 . S
C361 C362 1.391 . S
C362 C361 1.391 . S
C362 H418 0.947 . S
C362 C419 1.392 . S
C363 C364 1.391 . S
C363 C367 1.397 . S
C363 C419 1.419 . S
C364 C360 1.391 . S
C364 C363 1.391 . S
C364 C365 1.399 . S
C365 C364 1.399 . S
C365 C368 1.396 . S
C365 C377 1.453 . S
C365 C378 1.684 . S
H366 C390 0.948 . S
C367 C363 1.397 . S
C367 C368 1.394 . S
C367 C386 1.723 . S
C368 C365 1.396 . S
C368 C367 1.394 . S
C368 C398 1.723 . S
H369 C392 0.947 . S
H370 C393 0.948 . S
H371 C399 0.982 . S
H372 C400 0.979 . S
H373 C400 0.980 . S
H374 C400 0.983 . S
H375 C399 0.979 . S
H376 C399 0.977 . S
C377 C365 1.453 . S
C377 H406 0.982 . S
C377 H407 0.979 . S
C377 H408 0.977 . S
C378 C365 1.684 . S
C378 H403 0.979 . S
C378 H404 0.980 . S
C378 H405 0.983 . S
C379 C380 1.391 . S
C379 C384 1.391 . S
C379 H409 0.948 . S
C380 C379 1.391 . S
C380 C381 1.391 . S
C381 C380 1.391 . S
C381 C382 1.392 . S
C381 H410 0.947 1_554 S
C382 C381 1.392 . S
C382 C383 1.419 . S
C382 H411 0.948 . S
C383 C382 1.419 . S
C383 C384 1.391 . S
C383 C387 1.397 . S
C384 C379 1.391 . S
C384 C383 1.391 . S
C384 C385 1.399 . S
C385 C384 1.399 . S
C385 C386 1.396 . S
C385 C388 1.453 . S
C385 C389 1.684 . S
C386 C367 1.723 . S
C386 C385 1.396 . S
C386 C387 1.394 . S
C387 C383 1.397 . S
C387 C386 1.394 . S
C387 C397 1.723 . S
C388 C385 1.453 . S
C388 H412 0.982 . S
C388 H413 0.979 . S
C388 H414 0.977 . S
C389 C385 1.684 . S
C389 H415 0.979 . S
C389 H416 0.980 . S
C389 H417 0.983 . S
C390 H366 0.948 . S
C390 C391 1.391 . S
C390 C395 1.391 . S
C391 C390 1.391 . S
C391 C392 1.391 . S
C392 H369 0.947 . S
C392 C391 1.391 . S
C392 C393 1.392 . S
C393 H370 0.948 . S
C393 C392 1.392 . S
C393 C394 1.419 . S
C394 C393 1.419 . S
C394 C395 1.391 . S
C394 C398 1.397 . S
C395 C390 1.391 . S
C395 C394 1.391 . S
C395 C396 1.399 . S
C396 C395 1.399 . S
C396 C397 1.396 . S
C396 C399 1.453 . S
C396 C400 1.684 1_554 S
C397 C387 1.723 . S
C397 C396 1.396 . S
C397 C398 1.394 . S
C398 C368 1.723 . S
C398 C394 1.397 . S
C398 C397 1.394 . S
C399 H371 0.982 . S
C399 H375 0.979 . S
C399 H376 0.977 . S
C399 C396 1.453 . S
C400 H372 0.979 . S
C400 H373 0.980 . S
C400 H374 0.983 . S
C400 C396 1.684 1_556 S
H401 C419 0.948 . S
H402 C360 0.948 . S
H403 C378 0.979 . S
H404 C378 0.980 . S
H405 C378 0.983 . S
H406 C377 0.982 . S
H407 C377 0.979 . S
H408 C377 0.977 . S
H409 C379 0.948 . S
H410 C381 0.947 1_556 S
H411 C382 0.948 . S
H412 C388 0.982 . S
H413 C388 0.979 . S
H414 C388 0.977 . S
H415 C389 0.979 . S
H416 C389 0.980 . S
H417 C389 0.983 . S
H418 C362 0.947 . S
C419 C362 1.392 . S
C419 C363 1.419 . S
C419 H401 0.948 . S
C420 C421 1.391 . S
C420 C424 1.391 . S
C420 H462 0.948 . S
C421 C420 1.391 . S
C421 C422 1.391 . S
C422 C421 1.391 . S
C422 H478 0.947 . S
C422 C479 1.392 . S
C423 C424 1.391 . S
C423 C427 1.397 . S
C423 C479 1.419 . S
C424 C420 1.391 . S
C424 C423 1.391 . S
C424 C425 1.399 . S
C425 C424 1.399 . S
C425 C428 1.396 . S
C425 C437 1.453 . S
C425 C438 1.684 . S
H426 C450 0.948 . S
C427 C423 1.397 . S
C427 C428 1.394 . S
C427 C446 1.723 . S
C428 C425 1.396 . S
C428 C427 1.394 . S
C428 C458 1.723 . S
H429 C452 0.947 . S
H430 C453 0.948 . S
H431 C459 0.982 . S
H432 C460 0.979 . S
H433 C460 0.980 . S
H434 C460 0.983 . S
H435 C459 0.979 . S
H436 C459 0.977 . S
C437 C425 1.453 . S
C437 H466 0.982 . S
C437 H467 0.979 . S
C437 H468 0.977 . S
C438 C425 1.684 . S
C438 H463 0.979 . S
C438 H464 0.980 . S
C438 H465 0.983 . S
C439 C440 1.391 . S
C439 C444 1.391 . S
C439 H469 0.948 . S
C440 C439 1.391 . S
C440 C441 1.391 . S
C441 C440 1.391 . S
C441 C442 1.392 . S
C441 H470 0.947 . S
C442 C441 1.392 . S
C442 C443 1.419 . S
C442 H471 0.948 . S
C443 C442 1.419 . S
C443 C444 1.391 . S
C443 C447 1.397 . S
C444 C439 1.391 . S
C444 C443 1.391 . S
C444 C445 1.399 . S
C445 C444 1.399 . S
C445 C446 1.396 . S
C445 C448 1.453 . S
C445 C449 1.684 . S
C446 C427 1.723 . S
C446 C445 1.396 . S
C446 C447 1.394 . S
C447 C443 1.397 . S
C447 C446 1.394 . S
C447 C457 1.723 . S
C448 C445 1.453 . S
C448 H472 0.982 . S
C448 H473 0.979 . S
C448 H474 0.977 . S
C449 C445 1.684 . S
C449 H475 0.979 . S
C449 H476 0.980 . S
C449 H477 0.983 . S
C450 H426 0.948 . S
C450 C451 1.391 . S
C450 C455 1.391 . S
C451 C450 1.391 . S
C451 C452 1.391 . S
C452 H429 0.947 . S
C452 C451 1.391 . S
C452 C453 1.392 . S
C453 H430 0.948 . S
C453 C452 1.392 . S
C453 C454 1.419 . S
C454 C453 1.419 . S
C454 C455 1.391 . S
C454 C458 1.397 . S
C455 C450 1.391 . S
C455 C454 1.391 . S
C455 C456 1.399 . S
C456 C455 1.399 . S
C456 C457 1.396 . S
C456 C459 1.453 . S
C456 C460 1.684 . S
C457 C447 1.723 . S
C457 C456 1.396 . S
C457 C458 1.394 . S
C458 C428 1.723 . S
C458 C454 1.397 . S
C458 C457 1.394 . S
C459 H431 0.982 . S
C459 H435 0.979 . S
C459 H436 0.977 . S
C459 C456 1.453 . S
C460 H432 0.979 . S
C460 H433 0.980 . S
C460 H434 0.983 . S
C460 C456 1.684 . S
H461 C479 0.948 . S
H462 C420 0.948 . S
H463 C438 0.979 . S
H464 C438 0.980 . S
H465 C438 0.983 . S
H466 C437 0.982 . S
H467 C437 0.979 . S
H468 C437 0.977 . S
H469 C439 0.948 . S
H470 C441 0.947 . S
H471 C442 0.948 . S
H472 C448 0.982 . S
H473 C448 0.979 . S
H474 C448 0.977 . S
H475 C449 0.979 . S
H476 C449 0.980 . S
H477 C449 0.983 . S
H478 C422 0.947 . S
C479 C422 1.392 . S
C479 C423 1.419 . S
C479 H461 0.948 . S
C480 O496 1.251 . S
C480 O498 1.254 1_545 S
N481 C482 1.333 . S
N481 C486 1.307 . S
N481 Zn487 2.020 . S
C482 N481 1.333 . S
C482 C483 1.379 . S
C482 H500 0.952 . S
C483 C482 1.379 . S
C483 C484 1.390 . S
C483 H510 0.949 . S
C484 C483 1.390 . S
C484 C485 1.357 . S
C485 C484 1.357 . S
C485 C486 1.370 . S
C485 H511 0.950 . S
C486 N481 1.307 . S
C486 C485 1.370 . S
C486 H504 0.948 1_455 S
Zn487 N481 2.020 . S
Zn487 O496 2.039 . S
Zn487 O502 2.034 . S
Zn487 O506 2.025 1_455 S
Zn487 O508 2.024 1_455 S
C488 O507 1.246 1_545 S
C488 O508 1.249 . S
N489 C490 1.307 . S
N489 C491 1.333 . S
N489 Zn495 2.020 . S
C490 N489 1.307 . S
C490 C494 1.370 . S
C490 H501 0.948 1_655 S
C491 N489 1.333 . S
C491 C492 1.379 . S
C491 H499 0.952 . S
C492 C491 1.379 . S
C492 C493 1.390 . S
C492 H512 0.949 . S
C493 C492 1.390 . S
C493 C494 1.357 . S
C494 C490 1.370 . S
C494 C493 1.357 . S
C494 H513 0.950 . S
Zn495 N489 2.020 . S
Zn495 O498 2.025 1_655 S
Zn495 O503 2.024 1_655 S
Zn495 O505 2.039 . S
Zn495 O507 2.034 . S
O496 C480 1.251 . S
O496 Zn487 2.039 . S
C497 O502 1.246 1_565 S
C497 O503 1.249 . S
O498 C480 1.254 1_565 S
O498 Zn495 2.025 1_455 S
H499 C491 0.952 . S
H500 C482 0.952 . S
H501 C490 0.948 1_455 S
O502 Zn487 2.034 . S
O502 C497 1.246 1_545 S
O503 Zn495 2.024 1_455 S
O503 C497 1.249 . S
H504 C486 0.948 1_655 S
O505 Zn495 2.039 . S
O505 C509 1.251 . S
O506 Zn487 2.025 1_655 S
O506 C509 1.254 1_545 S
O507 C488 1.246 1_565 S
O507 Zn495 2.034 . S
O508 Zn487 2.024 1_655 S
O508 C488 1.249 . S
C509 O505 1.251 . S
C509 O506 1.254 1_565 S
H510 C483 0.949 . S
H511 C485 0.950 . S
H512 C492 0.949 . S
H513 C494 0.950 . S
C514 O530 1.251 1_565 S
C514 O532 1.254 . S
N515 C516 1.333 . S
N515 C520 1.307 . S
N515 Zn521 2.020 . S
C516 N515 1.333 . S
C516 C517 1.379 . S
C516 H534 0.952 . S
C517 C516 1.379 . S
C517 C518 1.390 . S
C517 H544 0.949 . S
C518 C517 1.390 . S
C518 C519 1.357 . S
C519 C518 1.357 . S
C519 C520 1.370 . S
C519 H545 0.950 . S
C520 N515 1.307 . S
C520 C519 1.370 . S
C520 H538 0.948 . S
Zn521 N515 2.020 . S
Zn521 O530 2.039 . S
Zn521 O536 2.034 1_556 S
Zn521 O540 2.025 1_556 S
Zn521 O542 2.024 . S
C522 O541 1.246 . S
C522 O542 1.249 1_565 S
N523 C524 1.307 . S
N523 C525 1.333 . S
N523 Zn529 2.020 . S
C524 N523 1.307 . S
C524 C528 1.370 . S
C524 H535 0.948 . S
C525 N523 1.333 . S
C525 C526 1.379 . S
C525 H533 0.952 . S
C526 C525 1.379 . S
C526 C527 1.390 . S
C526 H546 0.949 . S
C527 C526 1.390 . S
C527 C528 1.357 . S
C528 C524 1.370 . S
C528 C527 1.357 . S
C528 H547 0.950 . S
Zn529 N523 2.020 . S
Zn529 O532 2.025 1_554 S
Zn529 O537 2.024 . S
Zn529 O539 2.039 . S
Zn529 O541 2.034 1_554 S
O530 C514 1.251 1_545 S
O530 Zn521 2.039 . S
C531 O536 1.246 . S
C531 O537 1.249 1_545 S
O532 C514 1.254 . S
O532 Zn529 2.025 1_556 S
H533 C525 0.952 . S
H534 C516 0.952 . S
H535 C524 0.948 . S
O536 Zn521 2.034 1_554 S
O536 C531 1.246 . S
O537 Zn529 2.024 . S
O537 C531 1.249 1_565 S
H538 C520 0.948 . S
O539 Zn529 2.039 . S
O539 C543 1.251 1_565 S
O540 Zn521 2.025 1_554 S
O540 C543 1.254 . S
O541 C522 1.246 . S
O541 Zn529 2.034 1_556 S
O542 Zn521 2.024 . S
O542 C522 1.249 1_545 S
C543 O539 1.251 1_545 S
C543 O540 1.254 . S
H544 C517 0.949 . S
H545 C519 0.950 . S
H546 C526 0.949 . S
H547 C528 0.950 . S
C548 O564 1.251 . S
C548 O566 1.254 . S
N549 C550 1.333 . S
N549 C554 1.307 . S
N549 Zn555 2.020 . S
C550 N549 1.333 . S
C550 C551 1.379 . S
C550 H568 0.952 . S
C551 C550 1.379 . S
C551 C552 1.390 . S
C551 H578 0.949 . S
C552 C551 1.390 . S
C552 C553 1.357 . S
C553 C552 1.357 . S
C553 C554 1.370 . S
C553 H579 0.950 . S
C554 N549 1.307 . S
C554 C553 1.370 . S
C554 H572 0.948 . S
Zn555 N549 2.020 . S
Zn555 O564 2.039 . S
Zn555 O570 2.034 . S
Zn555 O574 2.025 . S
Zn555 O576 2.024 . S
C556 O575 1.246 . S
C556 O576 1.249 . S
N557 C558 1.307 . S
N557 C559 1.333 . S
N557 Zn563 2.020 . S
C558 N557 1.307 . S
C558 C562 1.370 . S
C558 H569 0.948 . S
C559 N557 1.333 . S
C559 C560 1.379 . S
C559 H567 0.952 . S
C560 C559 1.379 . S
C560 C561 1.390 . S
C560 H580 0.949 . S
C561 C560 1.390 . S
C561 C562 1.357 . S
C562 C558 1.370 . S
C562 C561 1.357 . S
C562 H581 0.950 . S
Zn563 N557 2.020 . S
Zn563 O566 2.025 . S
Zn563 O571 2.024 . S
Zn563 O573 2.039 . S
Zn563 O575 2.034 . S
O564 C548 1.251 . S
O564 Zn555 2.039 . S
C565 O570 1.246 . S
C565 O571 1.249 . S
O566 C548 1.254 . S
O566 Zn563 2.025 . S
H567 C559 0.952 . S
H568 C550 0.952 . S
H569 C558 0.948 . S
O570 Zn555 2.034 . S
O570 C565 1.246 . S
O571 Zn563 2.024 . S
O571 C565 1.249 . S
H572 C554 0.948 . S
O573 Zn563 2.039 . S
O573 C577 1.251 . S
O574 Zn555 2.025 . S
O574 C577 1.254 . S
O575 C556 1.246 . S
O575 Zn563 2.034 . S
O576 Zn555 2.024 . S
O576 C556 1.249 . S
C577 O573 1.251 . S
C577 O574 1.254 . S
H578 C551 0.949 . S
H579 C553 0.950 . S
H580 C560 0.949 . S
H581 C562 0.950 . S
C582 O598 1.251 1_556 S
C582 O600 1.254 . S
N583 C584 1.333 . S
N583 C588 1.307 . S
N583 Zn589 2.020 . S
C584 N583 1.333 . S
C584 C585 1.379 . S
C584 H602 0.952 . S
C585 C584 1.379 . S
C585 C586 1.390 . S
C585 H612 0.949 . S
C586 C585 1.390 . S
C586 C587 1.357 . S
C587 C586 1.357 . S
C587 C588 1.370 . S
C587 H613 0.950 . S
C588 N583 1.307 . S
C588 C587 1.370 . S
C588 H606 0.948 . S
Zn589 N583 2.020 . S
Zn589 O598 2.039 . S
Zn589 O604 2.034 1_655 S
Zn589 O608 2.025 1_655 S
Zn589 O610 2.024 . S
C590 O609 1.246 . S
C590 O610 1.249 1_556 S
N591 C592 1.307 . S
N591 C593 1.333 . S
N591 Zn597 2.020 . S
C592 N591 1.307 . S
C592 C596 1.370 . S
C592 H603 0.948 . S
C593 N591 1.333 . S
C593 C594 1.379 . S
C593 H601 0.952 . S
C594 C593 1.379 . S
C594 C595 1.390 . S
C594 H614 0.949 . S
C595 C594 1.390 . S
C595 C596 1.357 . S
C596 C592 1.370 . S
C596 C595 1.357 . S
C596 H615 0.950 . S
Zn597 N591 2.020 . S
Zn597 O600 2.025 1_455 S
Zn597 O605 2.024 . S
Zn597 O607 2.039 . S
Zn597 O609 2.034 1_455 S
O598 C582 1.251 1_554 S
O598 Zn589 2.039 . S
C599 O604 1.246 . S
C599 O605 1.249 1_554 S
O600 C582 1.254 . S
O600 Zn597 2.025 1_655 S
H601 C593 0.952 . S
H602 C584 0.952 . S
H603 C592 0.948 . S
O604 Zn589 2.034 1_455 S
O604 C599 1.246 . S
O605 Zn597 2.024 . S
O605 C599 1.249 1_556 S
H606 C588 0.948 . S
O607 Zn597 2.039 . S
O607 C611 1.251 1_556 S
O608 Zn589 2.025 1_455 S
O608 C611 1.254 . S
O609 C590 1.246 . S
O609 Zn597 2.034 1_655 S
O610 Zn589 2.024 . S
O610 C590 1.249 1_554 S
C611 O607 1.251 1_554 S
C611 O608 1.254 . S
H612 C585 0.949 . S
H613 C587 0.950 . S
H614 C594 0.949 . S
H615 C596 0.950 . S
C616 C617 1.363 . S
C616 C622 1.379 . S
C616 N624 1.356 . S
C617 C616 1.363 . S
C617 C623 1.363 . S
C618 C619 1.363 . S
C618 C623 1.379 . S
C618 N625 1.356 1_455 S
C619 C618 1.363 . S
C619 C622 1.363 . S
N620 C622 1.356 . S
N620 H632 0.984 . S
N620 H633 0.985 . S
N621 C623 1.356 1_655 S
N621 H626 0.984 1_655 S
N621 H627 0.985 . S
C622 C616 1.379 . S
C622 C619 1.363 . S
C622 N620 1.356 . S
C623 C617 1.363 . S
C623 C618 1.379 . S
C623 N621 1.356 1_455 S
N624 C616 1.356 . S
N624 H630 0.984 . S
N624 H631 0.984 . S
N625 C618 1.356 1_655 S
N625 H628 0.984 . S
N625 H629 0.985 1_545 S
H626 N621 0.984 1_455 S
H627 N621 0.985 . S
H628 N625 0.984 . S
H629 N625 0.985 1_565 S
H630 N624 0.984 . S
H631 N624 0.984 . S
H632 N620 0.984 . S
H633 N620 0.985 . S
C634 C635 1.363 . S
C634 C640 1.379 . S
C634 N642 1.356 . S
C635 C634 1.363 . S
C635 C641 1.363 . S
C636 C637 1.363 . S
C636 C641 1.379 . S
C636 N643 1.356 . S
C637 C636 1.363 . S
C637 C640 1.363 . S
N638 C640 1.356 1_545 S
N638 H650 0.984 . S
N638 H651 0.985 . S
N639 C641 1.356 . S
N639 H644 0.984 . S
N639 H645 0.985 . S
C640 C634 1.379 . S
C640 C637 1.363 . S
C640 N638 1.356 1_565 S
C641 C635 1.363 . S
C641 C636 1.379 . S
C641 N639 1.356 . S
N642 C634 1.356 . S
N642 H648 0.974 1_565 S
N642 H649 0.984 . S
N643 C636 1.356 . S
N643 H646 0.984 . S
N643 H647 0.985 . S
H644 N639 0.984 . S
H645 N639 0.985 . S
H646 N643 0.984 . S
H647 N643 0.985 . S
H648 N642 0.974 1_545 S
H649 N642 0.984 . S
H650 N638 0.984 . S
H651 N638 0.985 . S
C652 C653 1.363 . S
C652 C658 1.379 . S
C652 N660 1.356 . S
C653 C652 1.363 . S
C653 C659 1.363 . S
C654 C655 1.363 . S
C654 C659 1.379 . S
C654 N661 1.356 . S
C655 C654 1.363 . S
C655 C658 1.363 . S
N656 C658 1.356 . S
N656 H668 0.984 . S
N656 H669 0.985 . S
N657 C659 1.356 . S
N657 H662 0.984 . S
N657 H663 0.985 . S
C658 C652 1.379 . S
C658 C655 1.363 . S
C658 N656 1.356 . S
C659 C653 1.363 . S
C659 C654 1.379 . S
C659 N657 1.356 . S
N660 C652 1.356 . S
N660 H666 0.984 . S
N660 H667 0.984 . S
N661 C654 1.356 . S
N661 H664 0.984 . S
N661 H665 0.985 . S
H662 N657 0.984 . S
H663 N657 0.985 . S
H664 N661 0.984 . S
H665 N661 0.985 . S
H666 N660 0.984 . S
H667 N660 0.984 . S
H668 N656 0.984 . S
H669 N656 0.985 . S
C670 C671 1.363 . S
C670 C676 1.379 . S
C670 N678 1.356 . S
C671 C670 1.363 . S
C671 C677 1.363 . S
C672 C673 1.363 . S
C672 C677 1.379 . S
C672 N679 1.356 . S
C673 C672 1.363 . S
C673 C676 1.363 . S
N674 C676 1.356 . S
N674 H686 0.984 . S
N674 H687 0.985 . S
N675 C677 1.356 . S
N675 H680 0.984 . S
N675 H681 0.985 . S
C676 C670 1.379 . S
C676 C673 1.363 . S
C676 N674 1.356 . S
C677 C671 1.363 . S
C677 C672 1.379 . S
C677 N675 1.356 . S
N678 C670 1.356 . S
N678 H684 0.984 . S
N678 H685 0.984 . S
N679 C672 1.356 . S
N679 H682 0.984 . S
N679 H683 0.985 . S
H680 N675 0.984 . S
H681 N675 0.985 . S
H682 N679 0.984 . S
H683 N679 0.985 . S
H684 N678 0.984 . S
H685 N678 0.984 . S
H686 N674 0.984 . S
H687 N674 0.985 . S
C688 C689 1.363 . S
C688 C694 1.379 . S
C688 N696 1.356 . S
C689 C688 1.363 . S
C689 C695 1.363 . S
C690 C691 1.363 . S
C690 C695 1.379 . S
C690 N697 1.356 1_545 S
C691 C690 1.363 . S
C691 C694 1.363 . S
N692 C694 1.356 . S
N692 H704 0.984 1_554 S
N692 H705 0.985 . S
N693 C695 1.357 . S
N693 H698 0.985 . S
N693 H699 0.983 1_545 S
C694 C688 1.379 . S
C694 C691 1.363 . S
C694 N692 1.356 . S
C695 C689 1.363 . S
C695 C690 1.379 . S
C695 N693 1.357 . S
N696 C688 1.356 . S
N696 H702 0.984 . S
N696 H703 0.984 . S
N697 C690 1.356 1_565 S
N697 H700 0.984 . S
N697 H701 0.985 . S
H698 N693 0.985 . S
H699 N693 0.983 1_565 S
H700 N697 0.984 . S
H701 N697 0.985 . S
H702 N696 0.984 . S
H703 N696 0.984 . S
H704 N692 0.984 1_556 S
H705 N692 0.985 . S
C706 C707 1.363 . S
C706 C712 1.379 . S
C706 N714 1.356 . S
C707 C706 1.363 . S
C707 C713 1.363 . S
C708 C709 1.363 . S
C708 C713 1.379 . S
C708 N715 1.356 . S
C709 C708 1.363 . S
C709 C712 1.363 . S
N710 C712 1.350 1_545 S
N710 H722 0.992 . S
N710 H723 0.983 1_545 S
N711 C713 1.356 . S
N711 H716 0.984 . S
N711 H717 0.985 . S
C712 C706 1.379 . S
C712 C709 1.363 . S
C712 N710 1.350 1_565 S
C713 C707 1.363 . S
C713 C708 1.379 . S
C713 N711 1.356 . S
N714 C706 1.356 . S
N714 H720 0.984 1_565 S
N714 H721 0.984 . S
N715 C708 1.356 . S
N715 H718 0.984 . S
N715 H719 0.985 . S
H716 N711 0.984 . S
H717 N711 0.985 . S
H718 N715 0.984 . S
H719 N715 0.985 . S
H720 N714 0.984 1_545 S
H721 N714 0.984 . S
H722 N710 0.992 . S
H723 N710 0.983 1_565 S
C724 C725 1.344 1_554 S
C724 C730 1.379 . S
C724 N732 1.371 . S
C725 C724 1.344 1_556 S
C725 C731 1.363 . S
C726 C727 1.363 . S
C726 C731 1.379 . S
C726 N733 1.356 . S
C727 C726 1.363 . S
C727 C730 1.363 1_556 S
N728 C730 1.356 . S
N728 H740 0.984 . S
N728 H741 0.985 . S
N729 C731 1.356 . S
N729 H734 0.984 . S
N729 H735 0.985 . S
C730 C724 1.379 . S
C730 C727 1.363 1_554 S
C730 N728 1.356 . S
C731 C725 1.363 . S
C731 C726 1.379 . S
C731 N729 1.356 . S
N732 C724 1.371 . S
N732 H738 0.984 . S
N732 H739 0.984 . S
N733 C726 1.356 . S
N733 H736 0.984 . S
N733 H737 0.985 . S
H734 N729 0.984 . S
H735 N729 0.985 . S
H736 N733 0.984 . S
H737 N733 0.985 . S
H738 N732 0.984 . S
H739 N732 0.984 . S
H740 N728 0.984 . S
H741 N728 0.985 . S
C742 C743 1.363 . S
C742 C748 1.379 . S
C742 N750 1.356 . S
C743 C742 1.363 . S
C743 C749 1.363 . S
C744 C745 1.363 . S
C744 C749 1.379 . S
C744 N751 1.356 . S
C745 C744 1.363 . S
C745 C748 1.363 . S
N746 C748 1.356 . S
N746 H758 0.984 . S
N746 H759 0.985 . S
N747 C749 1.356 . S
N747 H752 0.984 . S
N747 H753 0.985 . S
C748 C742 1.379 . S
C748 C745 1.363 . S
C748 N746 1.356 . S
C749 C743 1.363 . S
C749 C744 1.379 . S
C749 N747 1.356 . S
N750 C742 1.356 . S
N750 H756 0.984 . S
N750 H757 0.984 . S
N751 C744 1.356 . S
N751 H754 0.984 . S
N751 H755 0.985 . S
H752 N747 0.984 . S
H753 N747 0.985 . S
H754 N751 0.984 . S
H755 N751 0.985 . S
H756 N750 0.984 . S
H757 N750 0.984 . S
H758 N746 0.984 . S
H759 N746 0.985 . S
C760 C761 1.363 . S
C760 C766 1.379 . S
C760 N768 1.356 . S
C761 C760 1.363 . S
C761 C767 1.363 . S
C762 C763 1.363 . S
C762 C767 1.379 . S
C762 N769 1.356 1_554 S
C763 C762 1.363 . S
C763 C766 1.363 . S
N764 C766 1.356 1_655 S
N764 H776 0.984 . S
N764 H777 0.985 . S
N765 C767 1.356 . S
N765 H770 0.984 . S
N765 H771 0.970 1_554 S
C766 C760 1.379 . S
C766 C763 1.363 . S
C766 N764 1.356 1_455 S
C767 C761 1.363 . S
C767 C762 1.379 . S
C767 N765 1.356 . S
N768 C760 1.356 . S
N768 H774 0.984 1_455 S
N768 H775 0.984 . S
N769 C762 1.356 1_556 S
N769 H772 0.984 . S
N769 H773 0.985 . S
H770 N765 0.984 . S
H771 N765 0.970 1_556 S
H772 N769 0.984 . S
H773 N769 0.985 . S
H774 N768 0.984 1_655 S
H775 N768 0.984 . S
H776 N764 0.984 . S
H777 N764 0.985 . S
C778 C779 1.363 . S
C778 C784 1.379 . S
C778 N786 1.356 . S
C779 C778 1.363 . S
C779 C785 1.363 . S
C780 C781 1.363 . S
C780 C785 1.379 . S
C780 N787 1.356 . S
C781 C780 1.363 . S
C781 C784 1.363 . S
N782 C784 1.356 . S
N782 H794 0.984 . S
N782 H795 0.985 . S
N783 C785 1.356 1_554 S
N783 H788 0.984 . S
N783 H789 0.985 . S
C784 C778 1.379 . S
C784 C781 1.363 . S
C784 N782 1.356 . S
C785 C779 1.363 . S
C785 C780 1.379 . S
C785 N783 1.356 1_556 S
N786 C778 1.356 . S
N786 H792 0.984 . S
N786 H793 0.984 . S
N787 C780 1.356 . S
N787 H790 0.984 . S
N787 H791 0.985 1_556 S
H788 N783 0.984 . S
H789 N783 0.985 . S
H790 N787 0.984 . S
H791 N787 0.985 1_554 S
H792 N786 0.984 . S
H793 N786 0.984 . S
H794 N782 0.984 . S
H795 N782 0.985 . S
C796 C797 1.363 . S
C796 C802 1.379 . S
C796 N804 1.356 . S
C797 C796 1.363 . S
C797 C803 1.363 . S
C798 C799 1.363 . S
C798 C803 1.379 . S
C798 N805 1.356 . S
C799 C798 1.363 . S
C799 C802 1.363 . S
N800 C802 1.356 . S
N800 H812 0.984 . S
N800 H813 0.985 . S
N801 C803 1.356 . S
N801 H806 0.984 . S
N801 H807 0.985 . S
C802 C796 1.379 . S
C802 C799 1.363 . S
C802 N800 1.356 . S
C803 C797 1.363 . S
C803 C798 1.379 . S
C803 N801 1.356 . S
N804 C796 1.356 . S
N804 H810 0.984 . S
N804 H811 0.984 . S
N805 C798 1.356 . S
N805 H808 0.984 . S
N805 H809 0.985 . S
H806 N801 0.984 . S
H807 N801 0.985 . S
H808 N805 0.984 . S
H809 N805 0.985 . S
H810 N804 0.984 . S
H811 N804 0.984 . S
H812 N800 0.984 . S
H813 N800 0.985 . S
C814 C815 1.363 . S
C814 C820 1.379 . S
C814 N822 1.356 . S
C815 C814 1.363 . S
C815 C821 1.363 . S
C816 C817 1.363 . S
C816 C821 1.379 . S
C816 N823 1.356 . S
C817 C816 1.363 . S
C817 C820 1.363 . S
N818 C820 1.356 . S
N818 H830 0.984 . S
N818 H831 0.985 . S
N819 C821 1.356 . S
N819 H824 0.984 . S
N819 H825 0.985 . S
C820 C814 1.379 . S
C820 C817 1.363 . S
C820 N818 1.356 . S
C821 C815 1.363 . S
C821 C816 1.379 . S
C821 N819 1.356 . S
N822 C814 1.356 . S
N822 H828 0.984 . S
N822 H829 0.984 . S
N823 C816 1.356 . S
N823 H826 0.984 . S
N823 H827 0.985 . S
H824 N819 0.984 . S
H825 N819 0.985 . S
H826 N823 0.984 . S
H827 N823 0.985 . S
H828 N822 0.984 . S
H829 N822 0.984 . S
H830 N818 0.984 . S
H831 N818 0.985 . S
C832 C833 1.363 . S
C832 C838 1.379 . S
C832 N840 1.356 . S
C833 C832 1.363 . S
C833 C839 1.363 . S
C834 C835 1.363 . S
C834 C839 1.379 . S
C834 N841 1.356 1_655 S
C835 C834 1.363 . S
C835 C838 1.363 . S
N836 C838 1.356 1_545 S
N836 H848 0.984 . S
N836 H849 0.985 . S
N837 C839 1.356 . S
N837 H842 0.984 . S
N837 H843 0.985 1_655 S
C838 C832 1.379 . S
C838 C835 1.363 . S
C838 N836 1.356 1_565 S
C839 C833 1.363 . S
C839 C834 1.379 . S
C839 N837 1.356 . S
N840 C832 1.356 . S
N840 H846 0.984 1_565 S
N840 H847 0.984 . S
N841 C834 1.356 1_455 S
N841 H844 0.984 . S
N841 H845 0.985 . S
H842 N837 0.984 . S
H843 N837 0.985 1_455 S
H844 N841 0.984 . S
H845 N841 0.985 . S
H846 N840 0.984 1_545 S
H847 N840 0.984 . S
H848 N836 0.984 . S
H849 N836 0.985 . S
C850 C851 1.363 . S
C850 C856 1.379 . S
C850 N858 1.356 . S
C851 C850 1.363 . S
C851 C857 1.363 . S
C852 C853 1.363 . S
C852 C857 1.379 . S
C852 N859 1.356 1_545 S
C853 C852 1.363 . S
C853 C856 1.363 . S
N854 C856 1.356 . S
N854 H866 0.984 . S
N854 H867 0.985 . S
N855 C857 1.356 . S
N855 H860 0.984 . S
N855 H861 0.985 1_545 S
C856 C850 1.379 . S
C856 C853 1.363 . S
C856 N854 1.356 . S
C857 C851 1.363 . S
C857 C852 1.379 . S
C857 N855 1.356 . S
N858 C850 1.356 . S
N858 H864 0.984 . S
N858 H865 0.984 . S
N859 C852 1.356 1_565 S
N859 H862 0.984 . S
N859 H863 0.985 . S
H860 N855 0.984 . S
H861 N855 0.985 1_565 S
H862 N859 0.984 . S
H863 N859 0.985 . S
H864 N858 0.984 . S
H865 N858 0.984 . S
H866 N854 0.984 . S
H867 N854 0.985 . S
C868 C869 1.363 . S
C868 C874 1.379 . S
C868 N876 1.356 . S
C869 C868 1.363 . S
C869 C875 1.363 . S
C870 C871 1.363 . S
C870 C875 1.379 . S
C870 N877 1.356 . S
C871 C870 1.363 . S
C871 C874 1.363 . S
N872 C874 1.356 . S
N872 H884 0.984 . S
N872 H885 0.985 . S
N873 C875 1.356 . S
N873 H878 0.984 . S
N873 H879 0.985 . S
C874 C868 1.379 . S
C874 C871 1.363 . S
C874 N872 1.356 . S
C875 C869 1.363 . S
C875 C870 1.379 . S
C875 N873 1.356 . S
N876 C868 1.356 . S
N876 H882 0.984 . S
N876 H883 0.984 . S
N877 C870 1.356 . S
N877 H880 0.984 . S
N877 H881 0.985 . S
H878 N873 0.984 . S
H879 N873 0.985 . S
H880 N877 0.984 . S
H881 N877 0.985 . S
H882 N876 0.984 . S
H883 N876 0.984 . S
H884 N872 0.984 . S
H885 N872 0.985 . S
C886 C887 1.363 . S
C886 C892 1.379 . S
C886 N894 1.356 . S
C887 C886 1.363 . S
C887 C893 1.363 . S
C888 C889 1.363 . S
C888 C893 1.379 . S
C888 N895 1.356 . S
C889 C888 1.363 . S
C889 C892 1.363 . S
N890 C892 1.356 . S
N890 H902 0.984 . S
N890 H903 0.985 . S
N891 C893 1.356 . S
N891 H896 0.984 . S
N891 H897 0.985 . S
C892 C886 1.379 . S
C892 C889 1.363 . S
C892 N890 1.356 . S
C893 C887 1.363 . S
C893 C888 1.379 . S
C893 N891 1.356 . S
N894 C886 1.356 . S
N894 H900 0.984 . S
N894 H901 0.984 . S
N895 C888 1.356 . S
N895 H898 0.984 . S
N895 H899 0.985 . S
H896 N891 0.984 . S
H897 N891 0.985 . S
H898 N895 0.984 . S
H899 N895 0.985 . S
H900 N894 0.984 . S
H901 N894 0.984 . S
H902 N890 0.984 . S
H903 N890 0.985 . S
C904 C905 1.363 . S
C904 C910 1.379 . S
C904 N912 1.356 1_565 S
C905 C904 1.363 . S
C905 C911 1.363 . S
C906 C907 1.363 . S
C906 C911 1.379 . S
C906 N913 1.356 . S
C907 C906 1.363 . S
C907 C910 1.363 . S
N908 C910 1.356 1_545 S
N908 H920 0.984 . S
N908 H921 0.985 . S
N909 C911 1.356 . S
N909 H914 0.984 . S
N909 H915 0.985 . S
C910 C904 1.379 . S
C910 C907 1.363 . S
C910 N908 1.356 1_565 S
C911 C905 1.363 . S
C911 C906 1.379 . S
C911 N909 1.356 . S
N912 C904 1.356 1_545 S
N912 H918 0.984 . S
N912 H919 0.984 1_545 S
N913 C906 1.356 . S
N913 H916 0.984 . S
N913 H917 0.985 . S
H914 N909 0.984 . S
H915 N909 0.985 . S
H916 N913 0.984 . S
H917 N913 0.985 . S
H918 N912 0.984 . S
H919 N912 0.984 1_565 S
H920 N908 0.984 . S
H921 N908 0.985 . S
C922 C923 1.363 . S
C922 C928 1.379 . S
C922 N930 1.356 1_545 S
C923 C922 1.363 . S
C923 C929 1.363 . S
C924 C925 1.363 . S
C924 C929 1.379 . S
C924 N931 1.356 . S
C925 C924 1.363 . S
C925 C928 1.363 . S
N926 C928 1.356 1_565 S
N926 H938 0.984 . S
N926 H939 0.985 . S
N927 C929 1.356 . S
N927 H932 0.984 . S
N927 H933 0.985 . S
C928 C922 1.379 . S
C928 C925 1.363 . S
C928 N926 1.356 1_545 S
C929 C923 1.363 . S
C929 C924 1.379 . S
C929 N927 1.356 . S
N930 C922 1.356 1_565 S
N930 H936 0.984 . S
N930 H937 0.984 1_565 S
N931 C924 1.356 . S
N931 H934 0.984 . S
N931 H935 0.985 . S
H932 N927 0.984 . S
H933 N927 0.985 . S
H934 N931 0.984 . S
H935 N931 0.985 . S
H936 N930 0.984 . S
H937 N930 0.984 1_545 S
H938 N926 0.984 . S
H939 N926 0.985 . S
C940 C941 1.363 . S
C940 C946 1.379 . S
C940 N948 1.356 . S
C941 C940 1.363 . S
C941 C947 1.344 1_554 S
C942 C943 1.363 1_556 S
C942 C947 1.379 . S
C942 N949 1.356 . S
C943 C942 1.363 1_554 S
C943 C946 1.363 . S
N944 C946 1.356 . S
N944 H956 0.984 . S
N944 H957 0.985 . S
N945 C947 1.372 . S
N945 H950 0.984 . S
N945 H951 0.985 . S
C946 C940 1.379 . S
C946 C943 1.363 . S
C946 N944 1.356 . S
C947 C941 1.344 1_556 S
C947 C942 1.379 . S
C947 N945 1.372 . S
N948 C940 1.356 . S
N948 H954 0.984 . S
N948 H955 0.984 . S
N949 C942 1.356 . S
N949 H952 0.984 . S
N949 H953 0.985 . S
H950 N945 0.984 . S
H951 N945 0.985 . S
H952 N949 0.984 . S
H953 N949 0.985 . S
H954 N948 0.984 . S
H955 N948 0.984 . S
H956 N944 0.984 . S
H957 N944 0.985 . S
C958 C959 1.363 . S
C958 C964 1.379 . S
C958 N966 1.356 . S
C959 C958 1.363 . S
C959 C965 1.363 . S
C960 C961 1.363 . S
C960 C965 1.379 . S
C960 N967 1.356 . S
C961 C960 1.363 . S
C961 C964 1.363 . S
N962 C964 1.356 . S
N962 H974 0.984 . S
N962 H975 0.985 . S
N963 C965 1.356 . S
N963 H968 0.984 . S
N963 H969 0.985 . S
C964 C958 1.379 . S
C964 C961 1.363 . S
C964 N962 1.356 . S
C965 C959 1.363 . S
C965 C960 1.379 . S
C965 N963 1.356 . S
N966 C958 1.356 . S
N966 H972 0.984 . S
N966 H973 0.984 . S
N967 C960 1.356 . S
N967 H970 0.984 . S
N967 H971 0.985 . S
H968 N963 0.984 . S
H969 N963 0.985 . S
H970 N967 0.984 . S
H971 N967 0.985 . S
H972 N966 0.984 . S
H973 N966 0.984 . S
H974 N962 0.984 . S
H975 N962 0.985 . S
C976 C977 1.363 . S
C976 C982 1.379 . S
C976 N984 1.356 . S
C977 C976 1.363 . S
C977 C983 1.363 . S
C978 C979 1.363 . S
C978 C983 1.379 . S
C978 N985 1.356 1_655 S
C979 C978 1.363 . S
C979 C982 1.363 . S
N980 C982 1.356 . S
N980 H992 0.984 . S
N980 H993 0.985 . S
N981 C983 1.356 1_455 S
N981 H986 0.984 1_455 S
N981 H987 0.985 . S
C982 C976 1.379 . S
C982 C979 1.363 . S
C982 N980 1.356 . S
C983 C977 1.363 . S
C983 C978 1.379 . S
C983 N981 1.356 1_655 S
N984 C976 1.356 . S
N984 H990 0.984 . S
N984 H991 0.984 . S
N985 C978 1.356 1_455 S
N985 H988 0.984 . S
N985 H989 0.985 1_556 S
H986 N981 0.984 1_655 S
H987 N981 0.985 . S
H988 N985 0.984 . S
H989 N985 0.985 1_554 S
H990 N984 0.984 . S
H991 N984 0.984 . S
H992 N980 0.984 . S
H993 N980 0.985 . S
C994 C995 1.363 . S
C994 C1000 1.379 . S
C994 N1002 1.356 1_554 S
C995 C994 1.363 . S
C995 C1001 1.363 . S
C996 C997 1.363 . S
C996 C1001 1.379 . S
C996 N1003 1.356 . S
C997 C996 1.363 . S
C997 C1000 1.363 . S
N998 C1000 1.356 . S
N998 H1010 0.984 1_554 S
N998 H1011 0.985 . S
N999 C1001 1.356 . S
N999 H1004 0.984 . S
N999 H1005 0.985 . S
C1000 C994 1.379 . S
C1000 C997 1.363 . S
C1000 N998 1.356 . S
C1001 C995 1.363 . S
C1001 C996 1.379 . S
C1001 N999 1.356 . S
N1002 C994 1.356 1_556 S
N1002 H1008 0.984 . S
N1002 H1009 0.984 . S
N1003 C996 1.356 . S
N1003 H1006 0.984 . S
N1003 H1007 0.985 . S
H1004 N999 0.984 . S
H1005 N999 0.985 . S
H1006 N1003 0.984 . S
H1007 N1003 0.985 . S
H1008 N1002 0.984 . S
H1009 N1002 0.984 . S
H1010 N998 0.984 1_556 S
H1011 N998 0.985 . S
C1012 C1013 1.363 . S
C1012 C1018 1.379 . S
C1012 N1020 1.356 . S
C1013 C1012 1.363 . S
C1013 C1019 1.363 . S
C1014 C1015 1.363 . S
C1014 C1019 1.379 . S
C1014 N1021 1.356 . S
C1015 C1014 1.363 . S
C1015 C1018 1.363 . S
N1016 C1018 1.356 . S
N1016 H1028 0.984 . S
N1016 H1029 0.985 . S
N1017 C1019 1.356 . S
N1017 H1022 0.984 . S
N1017 H1023 0.985 . S
C1018 C1012 1.379 . S
C1018 C1015 1.363 . S
C1018 N1016 1.356 . S
C1019 C1013 1.363 . S
C1019 C1014 1.379 . S
C1019 N1017 1.356 . S
N1020 C1012 1.356 . S
N1020 H1026 0.984 . S
N1020 H1027 0.984 . S
N1021 C1014 1.356 . S
N1021 H1024 0.984 . S
N1021 H1025 0.985 . S
H1022 N1017 0.984 . S
H1023 N1017 0.985 . S
H1024 N1021 0.984 . S
H1025 N1021 0.985 . S
H1026 N1020 0.984 . S
H1027 N1020 0.984 . S
H1028 N1016 0.984 . S
H1029 N1016 0.985 . S
C1030 C1031 1.363 . S
C1030 C1036 1.379 . S
C1030 N1038 1.356 . S
C1031 C1030 1.363 . S
C1031 C1037 1.363 . S
C1032 C1033 1.363 . S
C1032 C1037 1.379 . S
C1032 N1039 1.356 . S
C1033 C1032 1.363 . S
C1033 C1036 1.363 . S
N1034 C1036 1.356 . S
N1034 H1046 0.984 . S
N1034 H1047 0.985 . S
N1035 C1037 1.356 . S
N1035 H1040 0.984 . S
N1035 H1041 0.985 . S
C1036 C1030 1.379 . S
C1036 C1033 1.363 . S
C1036 N1034 1.356 . S
C1037 C1031 1.363 . S
C1037 C1032 1.379 . S
C1037 N1035 1.356 . S
N1038 C1030 1.356 . S
N1038 H1044 0.984 . S
N1038 H1045 0.984 . S
N1039 C1032 1.356 . S
N1039 H1042 0.984 . S
N1039 H1043 0.985 . S
H1040 N1035 0.984 . S
H1041 N1035 0.985 . S
H1042 N1039 0.984 . S
H1043 N1039 0.985 . S
H1044 N1038 0.984 . S
H1045 N1038 0.984 . S
H1046 N1034 0.984 . S
H1047 N1034 0.985 . S
C617 C1 2.332 . S
C619 C480 2.345 . S
C635 C80 2.248 . S
C637 C522 2.324 . S
C655 C552 1.118 . S
C653 C140 1.082 . S
C671 C211 1.092 . S
C673 C586 1.181 . S
C691 C543 1.885 . S
C689 C31 1.878 . S
C709 C497 1.885 . S
C707 C61 1.818 . S
C727 C590 1.440 . S
C725 C151 1.348 . S
C745 C556 1.502 . S
C743 C200 1.383 . S
C761 C20 2.203 . S
C763 C611 2.241 . S
C781 C518 1.258 . S
C779 C121 1.153 . S
C797 C181 1.224 . S
C799 C493 1.280 . S
C815 C91 2.121 . S
C817 C577 2.222 . S
C835 C509 2.345 . S
C833 C260 2.312 . S
C851 C320 2.248 . S
C853 C531 2.324 . S
C869 C361 1.142 . S
C871 C561 1.118 . S
C887 C451 1.092 . S
C889 C595 1.179 . S
C905 C271 1.851 . S
C907 C514 1.885 . S
C925 C488 1.885 . S
C923 C301 1.822 . S
C943 C599 1.440 . S
C941 C380 1.422 . S
C961 C565 1.502 . S
C959 C440 1.383 . S
C977 C241 2.244 . S
C979 C582 2.241 . S
C997 C527 1.258 . S
C995 C391 1.218 . S
C1015 C484 1.280 . S
C1013 C421 1.223 . S
C1031 C331 2.121 . S
C1033 C548 2.222 . S
