# Generated by pormake.
# Topology anh, (6,3)-cn, num edge types: 1
# Building blocks:
#     Node 0, Type 0, BuildingBlock: CUWYAW_clean_sbu_0, # of connection points: 6
#     Node 1, Type 0, BuildingBlock: CUWYAW_clean_sbu_0, # of connection points: 6
#     Node 2, Type 0, BuildingBlock: CUWYAW_clean_sbu_0, # of connection points: 6
#     Node 3, Type 1, BuildingBlock: PAMTOO_clean_linker_0, # of connection points: 3
#     Node 4, Type 1, BuildingBlock: PAMTOO_clean_linker_0, # of connection points: 3
#     Node 5, Type 1, BuildingBlock: PAMTOO_clean_linker_0, # of connection points: 3
#     Node 6, Type 1, BuildingBlock: PAMTOO_clean_linker_0, # of connection points: 3
#     Node 7, Type 1, BuildingBlock: PAMTOO_clean_linker_0, # of connection points: 3
#     Node 8, Type 1, BuildingBlock: PAMTOO_clean_linker_0, # of connection points: 3
#     Edge 9, Type (0, 1), BuildingBlock: AJUNOK_clean_linker_0, # of connection points: 2
#     Edge 10, Type (0, 1), BuildingBlock: AJUNOK_clean_linker_0, # of connection points: 2
#     Edge 11, Type (0, 1), BuildingBlock: AJUNOK_clean_linker_0, # of connection points: 2
#     Edge 12, Type (0, 1), BuildingBlock: AJUNOK_clean_linker_0, # of connection points: 2
#     Edge 13, Type (0, 1), BuildingBlock: AJUNOK_clean_linker_0, # of connection points: 2
#     Edge 14, Type (0, 1), BuildingBlock: AJUNOK_clean_linker_0, # of connection points: 2
#     Edge 15, Type (0, 1), BuildingBlock: AJUNOK_clean_linker_0, # of connection points: 2
#     Edge 16, Type (0, 1), BuildingBlock: AJUNOK_clean_linker_0, # of connection points: 2
#     Edge 17, Type (0, 1), BuildingBlock: AJUNOK_clean_linker_0, # of connection points: 2
#     Edge 18, Type (0, 1), BuildingBlock: AJUNOK_clean_linker_0, # of connection points: 2
#     Edge 19, Type (0, 1), BuildingBlock: AJUNOK_clean_linker_0, # of connection points: 2
#     Edge 20, Type (0, 1), BuildingBlock: AJUNOK_clean_linker_0, # of connection points: 2
#     Edge 21, Type (0, 1), BuildingBlock: AJUNOK_clean_linker_0, # of connection points: 2
#     Edge 22, Type (0, 1), BuildingBlock: AJUNOK_clean_linker_0, # of connection points: 2
#     Edge 23, Type (0, 1), BuildingBlock: AJUNOK_clean_linker_0, # of connection points: 2
#     Edge 24, Type (0, 1), BuildingBlock: AJUNOK_clean_linker_0, # of connection points: 2
#     Edge 25, Type (0, 1), BuildingBlock: AJUNOK_clean_linker_0, # of connection points: 2
#     Edge 26, Type (0, 1), BuildingBlock: AJUNOK_clean_linker_0, # of connection points: 2
# Relax obj value: 0.380
# Max RMSD: 0.160
# Mean RMSD: 0.121
data_MOF--net-anh--node1-CUWYAW_clean_sbu_0--node2-PAMTOO_clean_linker_0--edge1-AJUNOK_clean_linker_0
_symmetry_space_group_name_H-M    P1
_symmetry_Int_Tables_number       1
_symmetry_cell_setting            triclinic
loop_
_symmetry_equiv_pos_as_xyz
'x, y, z'
_cell_length_a     22.031295
_cell_length_b     22.093759
_cell_length_c     37.505353
_cell_angle_alpha  86.265518
_cell_angle_beta   93.40751
_cell_angle_gamma 119.4322
loop_
_atom_site_label
_atom_site_type_symbol
_atom_site_fract_x
_atom_site_fract_y
_atom_site_fract_z
_atom_type_partial_charge
C0 C 1.14105 0.40499 0.13035 0.0
Eu1 Eu 0.22099 0.53788 0.13863 0.0
C2 C 1.06467 0.36218 0.1261 0.0
C3 C 1.02723 0.31436 0.15368 0.0
C4 C 0.95546 0.28815 0.15539 0.0
C5 C 0.92031 0.30917 0.12941 0.0
C6 C 0.95606 0.34975 0.0995 0.0
C7 C 1.02795 0.37648 0.09786 0.0
C8 C 0.2533 0.59529 0.20413 0.0
C9 C 1.12009 0.61159 0.12595 0.0
C10 C 0.35281 0.82069 0.1443 0.0
Eu11 Eu 0.28622 0.68885 0.13374 0.0
C12 C 0.38836 0.89643 0.14852 0.0
C13 C 0.374 0.93856 0.12374 0.0
C14 C 0.39686 1.00791 0.13049 0.0
C15 C 0.43522 1.03682 0.16203 0.0
C16 C 0.45269 0.99566 0.18599 0.0
C17 C 0.42934 0.92592 0.17933 0.0
C18 C 0.24987 0.62818 0.06993 0.0
C19 C 0.38916 0.61648 0.13139 0.0
O20 O 1.17338 0.44932 0.10411 0.0
O21 O 1.16352 0.43228 0.16155 0.0
O22 O 0.26572 0.5469 0.19505 0.0
O23 O 0.22581 0.61309 0.17777 0.0
O24 O 1.12751 0.55626 0.12149 0.0
O25 O 1.17471 0.66921 0.13704 0.0
O26 O 0.35083 0.77528 0.1692 0.0
O27 O 0.3218 0.79442 0.11389 0.0
O28 O 0.24169 0.6805 0.07669 0.0
O29 O 0.27874 0.61327 0.09615 0.0
O30 O 0.38533 0.67471 0.13384 0.0
O31 O 0.33091 0.55561 0.13139 0.0
H32 H 1.05429 0.30198 0.17552 0.0
H33 H 0.9288 0.25677 0.17874 0.0
H34 H 0.92923 0.36511 0.07891 0.0
H35 H 1.05513 0.41232 0.07587 0.0
H36 H 0.34181 0.91704 0.09989 0.0
H37 H 0.38127 1.03772 0.11191 0.0
H38 H 0.48262 1.01687 0.21043 0.0
H39 H 0.44094 0.89453 0.19888 0.0
C40 C 0.67746 0.30083 0.48648 0.0
Eu41 Eu 0.7145 0.20911 0.47419 0.0
C42 C 0.72575 0.37601 0.4903 0.0
C43 C 0.77925 0.4113 0.46594 0.0
C44 C 0.84127 0.46937 0.4759 0.0
C45 C 0.85009 0.49667 0.50978 0.0
C46 C 0.79215 0.46748 0.53209 0.0
C47 C 0.7309 0.4069 0.52269 0.0
C48 C 0.75168 0.15134 0.53157 0.0
C49 C 0.88369 0.30548 0.45506 0.0
C50 C 0.84374 1.06321 0.44893 0.0
Eu51 Eu 0.78722 0.14145 0.45383 0.0
C52 C 0.83396 0.99445 0.4414 0.0
C53 C 0.87577 0.99054 0.41584 0.0
C54 C 0.8863 0.93316 0.41621 0.0
C55 C 0.85577 0.87953 0.4425 0.0
C56 C 0.8061 0.87911 0.4646 0.0
C57 C 0.7953 0.9363 0.46409 0.0
C58 C 0.74452 0.19517 0.39724 0.0
C59 C 0.61398 1.04568 0.45901 0.0
O60 O 0.67149 0.27638 0.45484 0.0
O61 O 0.68536 0.26144 0.51161 0.0
O62 O 0.68975 0.1428 0.52492 0.0
O63 O 0.79157 0.18724 0.50624 0.0
O64 O 0.82168 0.30186 0.45571 0.0
O65 O 0.886 0.24698 0.4598 0.0
O66 O 0.81964 1.06997 0.47864 0.0
O67 O 0.83919 1.10182 0.42222 0.0
O68 O 0.80408 0.19668 0.39932 0.0
O69 O 0.70862 0.16223 0.42372 0.0
O70 O 0.67449 1.04604 0.45715 0.0
O71 O 0.61509 1.1057 0.46285 0.0
H72 H 0.77676 0.38978 0.44062 0.0
H73 H 0.88397 0.48815 0.45803 0.0
H74 H 0.79577 0.48828 0.55796 0.0
H75 H 0.69018 0.38108 0.54197 0.0
H76 H 0.90576 1.03472 0.39792 0.0
H77 H 0.92441 0.93449 0.39874 0.0
H78 H 0.78207 0.83889 0.48537 0.0
H79 H 0.76208 0.93765 0.48383 0.0
C80 C 1.0291 0.78529 0.78014 0.0
Eu81 Eu 0.89847 0.71571 0.79677 0.0
C82 C 1.07161 0.75681 0.76783 0.0
C83 C 1.14322 0.78836 0.77581 0.0
C84 C 1.17761 0.74919 0.77597 0.0
C85 C 1.13953 0.67663 0.77097 0.0
C86 C 1.06986 0.64902 0.75796 0.0
C87 C 1.03724 0.68932 0.75547 0.0
C88 C 0.84563 0.68231 0.86366 0.0
C89 C 0.82409 0.54724 0.79459 0.0
C90 C 0.61624 0.5577 0.80297 0.0
Eu91 Eu 0.74709 0.64549 0.79385 0.0
C92 C 0.54529 0.52883 0.81531 0.0
C93 C 0.49418 0.46625 0.80115 0.0
C94 C 0.42864 0.43001 0.81596 0.0
C95 C 0.4128 0.45605 0.8451 0.0
C96 C 0.46313 0.52102 0.85803 0.0
C97 C 0.52941 0.55694 0.84343 0.0
C98 C 0.80658 0.67419 0.72945 0.0
C99 C 0.81878 0.81194 0.78771 0.0
O100 O 0.97826 0.77964 0.75825 0.0
O101 O 1.00859 0.7657 0.81297 0.0
O102 O 0.89991 0.67988 0.85399 0.0
O103 O 0.82212 0.70587 0.83775 0.0
O104 O 0.88309 0.60601 0.78906 0.0
O105 O 0.76701 0.55103 0.80016 0.0
O106 O 0.66562 0.56575 0.82644 0.0
O107 O 0.63765 0.60158 0.77543 0.0
O108 O 0.75417 0.68314 0.73513 0.0
O109 O 0.82278 0.65001 0.75702 0.0
O110 O 0.75993 0.75457 0.79587 0.0
O111 O 0.87668 0.80802 0.78474 0.0
H112 H 1.1713 0.84132 0.78454 0.0
H113 H 0.23246 0.77475 0.78349 0.0
H114 H 1.03645 0.59465 0.75345 0.0
H115 H 0.9825 0.6648 0.74779 0.0
H116 H 0.50605 0.44363 0.77963 0.0
H117 H 0.39138 0.38003 0.80552 0.0
H118 H 0.4518 0.54332 0.87985 0.0
H119 H 0.56864 0.60528 0.85467 0.0
H120 H 0.72347 0.23564 0.23808 0.0
H121 H 0.57932 0.29482 0.27492 0.0
H122 H 0.64416 0.34154 0.16621 0.0
H123 H 0.48372 0.34207 0.18024 0.0
C124 C 0.49405 0.3118 0.20221 0.0
O125 O 0.564 0.34851 0.21276 0.0
H126 H 0.4619 0.30797 0.22488 0.0
C127 C 0.68853 0.25687 0.23269 0.0
C128 C 0.68616 0.28553 0.1986 0.0
C129 C 0.65177 0.26132 0.2607 0.0
C130 C 0.60932 0.29209 0.25384 0.0
C131 C 0.60591 0.32003 0.21963 0.0
C132 C 0.64526 0.31784 0.19227 0.0
H133 H 0.88949 0.74323 0.56677 0.0
H134 H 1.05211 0.72752 0.62909 0.0
H135 H 1.07863 0.78672 0.51752 0.0
H136 H 1.14121 0.66583 0.59272 0.0
C137 C 1.12926 0.687 0.56723 0.0
O138 O 1.1292 0.74827 0.57389 0.0
H139 H 1.17225 0.6995 0.54905 0.0
C140 C 0.94057 0.74713 0.56871 0.0
C141 C 0.98013 0.76461 0.53802 0.0
C142 C 0.96699 0.73661 0.60204 0.0
C143 C 1.032 0.73879 0.60398 0.0
C144 C 1.07113 0.75485 0.57323 0.0
C145 C 1.0469 0.7717 0.54085 0.0
H146 H 1.17602 0.56771 0.91052 0.0
H147 H 1.12027 0.36992 0.96288 0.0
H148 H 1.13093 0.39066 0.84913 0.0
H149 H 1.11978 0.22482 0.89852 0.0
C150 C 1.14413 0.27652 0.91058 0.0
O151 O 1.10011 0.30436 0.90398 0.0
H152 H 1.14823 0.26723 0.93986 0.0
C153 C 1.16157 0.51358 0.90859 0.0
C154 C 1.15435 0.48538 0.87488 0.0
C155 C 1.15223 0.47339 0.94036 0.0
C156 C 1.12938 0.40222 0.93861 0.0
C157 C 1.12071 0.37285 0.90553 0.0
C158 C 1.13467 0.41444 0.87395 0.0
H159 H 1.11723 0.52362 0.35678 0.0
H160 H 0.31857 0.70651 0.36459 0.0
H161 H 1.19509 0.62001 0.45859 0.0
H162 H 0.292 0.79781 0.4441 0.0
C163 C 0.33299 0.79504 0.42959 0.0
O164 O 0.31831 0.72525 0.43232 0.0
H165 H 0.32683 0.80921 0.40114 0.0
C166 C 1.15682 0.56448 0.37289 0.0
C167 C 1.1467 0.56354 0.40993 0.0
C168 C 0.21836 0.61535 0.35643 0.0
C169 C 0.27112 0.66773 0.37716 0.0
C170 C 0.26362 0.67204 0.41373 0.0
C171 C 0.20111 0.6187 0.43026 0.0
H172 H 0.80482 1.03604 0.68924 0.0
H173 H 0.82383 0.23954 0.69014 0.0
H174 H 0.83339 0.134 0.78947 0.0
H175 H 0.75071 0.22481 0.78684 0.0
C176 C 0.78269 0.26403 0.76603 0.0
O177 O 0.8378 0.25186 0.75941 0.0
H178 H 0.7488 0.25396 0.74147 0.0
C179 C 0.81123 1.07946 0.70405 0.0
C180 C 0.81908 1.07665 0.74163 0.0
C181 C 0.81274 0.1376 0.68516 0.0
C182 C 0.82271 0.19477 0.70442 0.0
C183 C 0.82869 0.19427 0.74205 0.0
C184 C 0.82744 0.13477 0.76061 0.0
H185 H 0.90701 0.64476 0.02257 0.0
H186 H 0.72546 0.66941 0.02587 0.0
H187 H 0.81047 0.62057 0.12307 0.0
H188 H 0.63576 0.54604 0.10966 0.0
C189 C 0.63757 0.59163 0.09428 0.0
O190 O 0.70739 0.64521 0.09462 0.0
H191 H 0.6206 0.57543 0.06634 0.0
C192 C 0.86634 0.64416 0.03769 0.0
C193 C 0.86649 0.63087 0.07499 0.0
C194 C 0.81567 0.65694 0.01929 0.0
C195 C 0.76338 0.65733 0.03922 0.0
C196 C 0.75948 0.6431 0.07653 0.0
C197 C 0.81201 0.63045 0.0944 0.0
C198 C 0.46434 0.55761 0.13457 0.0
C199 C 0.45824 0.61764 0.12575 0.0
C200 C 0.52399 0.55284 0.12658 0.0
C201 C 0.58208 0.60755 0.10905 0.0
H202 H 0.42158 0.51259 0.14722 0.0
H203 H 0.52324 0.50399 0.1331 0.0
S204 S 0.5939 0.77654 0.0789 0.0
N205 N 0.51761 0.73413 0.09817 0.0
N206 N 0.62788 0.72421 0.08242 0.0
C207 C 0.57727 0.66836 0.10023 0.0
C208 C 0.51647 0.67371 0.10886 0.0
C209 C 1.01692 0.39097 0.461 0.0
C210 C 0.95012 0.37464 0.44597 0.0
C211 C 1.07926 0.45355 0.45133 0.0
C212 C 1.079 0.50333 0.42554 0.0
H213 H 1.02133 0.35459 0.4803 0.0
H214 H 1.12856 0.46153 0.46314 0.0
S215 S 0.91948 0.48633 0.37698 0.0
N216 N 0.88983 0.41508 0.40307 0.0
N217 N 1.00436 0.53041 0.38543 0.0
C218 C 1.01253 0.48776 0.41065 0.0
C219 C 0.94933 0.4246 0.42063 0.0
C220 C 0.75721 0.8844 0.7724 0.0
C221 C 0.81964 0.88157 0.7799 0.0
C222 C 0.75715 0.94762 0.76198 0.0
C223 C 0.81934 1.01234 0.7593 0.0
H224 H 0.70762 0.83676 0.77329 0.0
H225 H 0.70774 0.94546 0.75498 0.0
S226 S 0.99731 1.03638 0.77681 0.0
N227 N 0.94601 0.95199 0.78424 0.0
N228 N 0.94521 1.06894 0.7655 0.0
C229 C 0.88186 1.01073 0.76758 0.0
C230 C 0.88217 0.94634 0.77767 0.0
C231 C 1.03171 0.65546 0.13107 0.0
C232 C 1.05149 0.61113 0.11545 0.0
C233 C 0.97018 0.65869 0.11976 0.0
C234 C 0.92531 0.61864 0.09171 0.0
H235 H 1.06464 0.68884 0.15207 0.0
H236 H 0.95931 0.69511 0.13216 0.0
S237 S 0.95262 0.49469 0.04125 0.0
N238 N 1.01955 0.52641 0.07003 0.0
N239 N 0.90588 0.53182 0.04925 0.0
C240 C 0.94421 0.57348 0.07631 0.0
C241 C 1.00625 0.56986 0.08798 0.0
C242 C 0.53639 0.9207 0.43624 0.0
C243 C 0.54381 0.97799 0.45498 0.0
C244 C 0.47007 0.86024 0.42991 0.0
C245 C 0.40725 0.85228 0.44288 0.0
H246 H 0.58198 0.92366 0.42502 0.0
H247 H 0.46774 0.82037 0.41365 0.0
S248 S 0.39711 0.98414 0.49562 0.0
N249 N 0.48087 1.01981 0.48758 0.0
N250 N 0.35919 0.90824 0.47665 0.0
C251 C 0.41473 0.9083 0.46267 0.0
C252 C 0.48165 0.96996 0.46853 0.0
C253 C 0.86648 0.46768 0.77017 0.0
C254 C 0.81902 0.47615 0.79058 0.0
C255 C 0.85768 0.40068 0.76349 0.0
C256 C 0.802 0.33835 0.77771 0.0
H257 H 0.90935 0.51311 0.75792 0.0
H258 H 0.89375 0.39772 0.74625 0.0
S259 S 0.66373 0.33042 0.83353 0.0
N260 N 0.71454 0.41447 0.82518 0.0
N261 N 0.69874 0.29131 0.81336 0.0
C262 C 0.7553 0.34665 0.79866 0.0
C263 C 0.76366 0.41426 0.805 0.0
C264 C 0.96261 0.87542 0.46285 0.0
C265 C 0.89047 0.83866 0.45464 0.0
C266 C 0.99359 0.84757 0.48729 0.0
C267 C 0.95346 0.78201 0.50412 0.0
H268 H 0.99396 0.92914 0.45367 0.0
H269 H 1.04742 0.88053 0.49575 0.0
S270 S 0.76834 0.65645 0.48314 0.0
N271 N 0.78371 0.72747 0.45888 0.0
N272 N 0.8426 0.67436 0.5046 0.0
C273 C 0.884 0.7407 0.49212 0.0
C274 C 0.85228 0.76924 0.46736 0.0
C275 C 0.21131 0.65076 0.81782 0.0
C276 C 1.16469 0.62877 0.78793 0.0
C277 C 0.21347 0.60307 0.84345 0.0
C278 C 1.16657 0.53125 0.84167 0.0
H279 H 0.24235 0.70497 0.82386 0.0
H280 H 0.24885 0.62371 0.8663 0.0
S281 S 1.05986 0.44558 0.76067 0.0
N282 N 1.09457 0.52959 0.75066 0.0
N283 N 1.08759 0.43975 0.8019 0.0
C284 C 1.12857 0.50793 0.8091 0.0
C285 C 1.13051 0.55688 0.78158 0.0
C286 C 0.43553 1.11788 0.20556 0.0
C287 C 0.45101 1.10739 0.17139 0.0
C288 C 0.4467 0.18305 0.21473 0.0
C289 C 0.47293 0.23988 0.18994 0.0
H290 H 0.41412 1.07526 0.22534 0.0
H291 H 0.43591 0.18943 0.24163 0.0
S292 S 0.52572 0.24126 0.0978 0.0
N293 N 0.49739 0.16044 0.1133 0.0
N294 N 0.51601 0.28249 0.13029 0.0
C295 C 0.48846 0.23024 0.1557 0.0
C296 C 0.47809 0.16414 0.14649 0.0
C297 C 0.94058 0.54118 0.55967 0.0
C298 C 0.9214 0.54739 0.52359 0.0
C299 C 1.00831 0.58386 0.57308 0.0
C300 C 1.06058 0.63281 0.55077 0.0
H301 H 0.90336 0.50253 0.5779 0.0
H302 H 1.01968 0.57929 0.60132 0.0
S303 S 1.03976 0.67193 0.45475 0.0
N304 N 0.96112 0.61117 0.46643 0.0
N305 N 1.09031 0.6846 0.49093 0.0
C306 C 1.04342 0.6383 0.51451 0.0
C307 C 0.9735 0.59757 0.50115 0.0
C308 C 0.28349 0.37757 0.84162 0.0
C309 C 0.34503 0.41307 0.86264 0.0
C310 C 0.2198 0.33224 0.85729 0.0
C311 C 0.21483 0.32199 0.89457 0.0
H312 H 0.28452 0.38468 0.81277 0.0
H313 H 1.17368 0.30581 0.84017 0.0
S314 S 0.36067 0.39869 0.96152 0.0
N315 N 0.39746 0.43114 0.9227 0.0
N316 N 0.27673 0.34883 0.95219 0.0
C317 C 0.27568 0.35692 0.91598 0.0
C318 C 0.34093 0.40204 0.90001 0.0
C319 C 0.79666 0.23626 0.14763 0.0
C320 C 0.85235 0.30177 0.13787 0.0
C321 C 0.73875 0.23059 0.16436 0.0
C322 C 0.7352 0.29029 0.17201 0.0
H323 H 0.79989 0.1896 0.14426 0.0
H324 H 0.69874 0.1796 0.17355 0.0
S325 S 0.86707 0.47321 0.15163 0.0
N326 N 0.89943 0.4271 0.13613 0.0
N327 N 0.79069 0.41617 0.16764 0.0
C328 C 0.78844 0.3556 0.16039 0.0
C329 C 0.84718 0.36143 0.14334 0.0
C330 C 1.17468 0.59332 0.01421 0.0
C331 C 0.22405 0.58741 0.03749 0.0
C332 C 1.14946 0.55428 -0.01658 0.0
C333 C 1.17272 0.50801 0.975 0.0
H334 H 1.15538 0.62823 0.0198 0.0
H335 H 1.11202 0.5608 0.96588 0.0
S336 S 0.30308 0.47536 0.02698 0.0
N337 N 0.29588 0.53259 0.04993 0.0
N338 N 0.24883 0.45968 -0.00789 0.0
C339 C 0.22159 0.50132 -0.00169 0.0
C340 C 0.24725 0.541 0.02952 0.0
C341 C 0.69129 0.16246 0.3364 0.0
C342 C 0.71477 0.20954 0.36395 0.0
C343 C 0.66651 0.17752 0.30364 0.0
C344 C 0.66498 0.24039 0.2974 0.0
H345 H 0.69333 1.11442 0.33999 0.0
H346 H 0.65049 0.14075 0.28263 0.0
S347 S 0.72004 0.37968 0.36193 0.0
N348 N 0.73319 0.31956 0.38376 0.0
N349 N 0.68834 0.34924 0.32203 0.0
C350 C 0.68648 0.28672 0.32535 0.0
C351 C 0.7112 0.271 0.35867 0.0
C352 C 0.87689 0.65119 0.68879 0.0
C353 C 0.84362 0.68932 0.69594 0.0
C354 C 0.91679 0.66687 0.65845 0.0
C355 C 0.92551 0.72183 0.63439 0.0
H356 H 0.87186 0.60864 0.70676 0.0
H357 H 0.94043 0.63531 0.65365 0.0
S358 S 0.85349 0.84092 0.64291 0.0
N359 N 0.82358 0.78552 0.67761 0.0
N360 N 0.90061 0.81705 0.62098 0.0
C361 C 0.89312 0.761 0.64159 0.0
C362 C 0.85157 0.74418 0.67226 0.0
C363 C 0.83422 0.19591 0.58552 0.0
C364 C 0.77385 0.14281 0.56915 0.0
C365 C 0.84722 0.1936 0.62287 0.0
C366 C 0.80107 0.13753 0.6452 0.0
H367 H 0.86979 0.24117 0.56972 0.0
H368 H 0.89325 0.23655 0.63445 0.0
S369 S 0.6373 0.98412 0.61507 0.0
N370 N 0.6688 1.03183 0.57804 0.0
N371 N 0.69362 1.02683 0.64748 0.0
C372 C 0.74205 1.08307 0.62877 0.0
C373 C 0.7284 1.08593 0.59103 0.0
C374 C 0.89201 0.71526 0.92607 0.0
C375 C 0.83386 0.68378 0.90243 0.0
C376 C 0.88495 0.70955 0.96332 0.0
C377 C 0.81939 0.67021 -0.02086 0.0
H378 H 0.94405 0.74377 0.91568 0.0
H379 H 0.93195 0.73505 -0.02009 0.0
S380 S 0.64974 0.57908 0.92883 0.0
N381 N 0.70791 0.61523 0.8973 0.0
N382 N 0.69427 0.6009 0.96727 0.0
C383 C 0.76028 0.64039 0.95565 0.0
C384 C 0.76761 0.64783 0.91743 0.0
C385 C 1.1941 0.61679 0.25404 0.0
C386 C 0.24797 0.6063 0.24257 0.0
C387 C 1.18432 0.61911 0.29078 0.0
C388 C 0.22896 0.61269 0.31747 0.0
H389 H 1.15789 0.62102 0.23458 0.0
H390 H 1.14158 0.62614 0.29838 0.0
S391 S 0.37913 0.58685 0.30165 0.0
N392 N 0.34683 0.59034 0.26116 0.0
N393 N 0.32979 0.59685 0.32957 0.0
C394 C 0.28384 0.60389 0.30624 0.0
C395 C 0.29295 0.60015 0.26905 0.0
loop_
_geom_bond_atom_site_label_1
_geom_bond_atom_site_label_2
_geom_bond_distance
_geom_bond_site_symmetry_2
_ccdc_geom_bond_type
C0 Eu1 2.835 . S
C0 C2 1.500 . S
C0 O20 1.257 . S
C0 O21 1.260 . S
Eu1 C0 2.835 . S
Eu1 O20 2.473 . S
Eu1 O21 2.480 . S
Eu1 O22 2.430 . S
Eu1 O23 2.670 1_655 S
Eu1 O24 2.394 . S
Eu1 O29 2.355 1_655 S
Eu1 O31 2.374 1_655 S
C2 C0 1.500 . S
C2 C3 1.377 . S
C2 C7 1.377 . S
C3 C2 1.377 . S
C3 C4 1.395 . S
C3 H32 0.931 . S
C4 C3 1.395 . S
C4 C5 1.383 . S
C4 H33 0.931 . S
C5 C4 1.383 . S
C5 C6 1.394 . S
C6 C5 1.394 . S
C6 C7 1.378 . S
C6 H34 0.931 . S
C7 C2 1.377 . S
C7 C6 1.378 . S
C7 H35 0.931 . S
C8 O22 1.259 1_455 S
C8 O23 1.270 . S
C9 O24 1.251 . S
C9 O25 1.251 . S
C10 Eu11 2.835 . S
C10 C12 1.500 . S
C10 O26 1.257 . S
C10 O27 1.260 . S
Eu11 C10 2.835 . S
Eu11 O23 2.355 . S
Eu11 O25 2.374 1_455 S
Eu11 O26 2.473 . S
Eu11 O27 2.480 . S
Eu11 O28 2.430 . S
Eu11 O29 2.670 . S
Eu11 O30 2.394 . S
C12 C10 1.500 . S
C12 C13 1.377 . S
C12 C17 1.377 . S
C13 C12 1.377 . S
C13 C14 1.395 . S
C13 H36 0.931 . S
C14 C13 1.395 . S
C14 C15 1.383 . S
C14 H37 0.931 . S
C15 C14 1.383 . S
C15 C16 1.394 . S
C16 C15 1.394 . S
C16 C17 1.378 . S
C16 H38 0.931 . S
C17 C12 1.377 . S
C17 C16 1.378 . S
C17 H39 0.931 . S
C18 O28 1.259 . S
C18 O29 1.270 . S
C19 O30 1.251 . S
C19 O31 1.251 . S
O20 C0 1.257 . S
O20 Eu1 2.473 . S
O21 C0 1.260 . S
O21 Eu1 2.480 . S
O22 Eu1 2.430 . S
O22 C8 1.259 1_655 S
O23 Eu1 2.670 1_455 S
O23 C8 1.270 . S
O23 Eu11 2.355 . S
O24 Eu1 2.394 . S
O24 C9 1.251 . S
O25 C9 1.251 . S
O25 Eu11 2.374 1_655 S
O26 C10 1.257 . S
O26 Eu11 2.473 . S
O27 C10 1.260 . S
O27 Eu11 2.480 . S
O28 Eu11 2.430 . S
O28 C18 1.259 . S
O29 Eu1 2.355 1_455 S
O29 Eu11 2.670 . S
O29 C18 1.270 . S
O30 Eu11 2.394 . S
O30 C19 1.251 . S
O31 Eu1 2.374 1_455 S
O31 C19 1.251 . S
H32 C3 0.931 . S
H33 C4 0.931 . S
H34 C6 0.931 . S
H35 C7 0.931 . S
H36 C13 0.931 . S
H37 C14 0.931 . S
H38 C16 0.931 . S
H39 C17 0.931 . S
C40 Eu41 2.835 . S
C40 C42 1.500 . S
C40 O60 1.257 . S
C40 O61 1.260 . S
Eu41 C40 2.835 . S
Eu41 O60 2.473 . S
Eu41 O61 2.480 . S
Eu41 O62 2.430 . S
Eu41 O63 2.670 . S
Eu41 O64 2.394 . S
Eu41 O69 2.355 . S
Eu41 O71 2.374 1_545 S
C42 C40 1.500 . S
C42 C43 1.377 . S
C42 C47 1.377 . S
C43 C42 1.377 . S
C43 C44 1.395 . S
C43 H72 0.931 . S
C44 C43 1.395 . S
C44 C45 1.383 . S
C44 H73 0.931 . S
C45 C44 1.383 . S
C45 C46 1.394 . S
C46 C45 1.394 . S
C46 C47 1.378 . S
C46 H74 0.931 . S
C47 C42 1.377 . S
C47 C46 1.378 . S
C47 H75 0.931 . S
C48 O62 1.259 . S
C48 O63 1.270 . S
C49 O64 1.251 . S
C49 O65 1.251 . S
C50 Eu51 2.835 . S
C50 C52 1.500 . S
C50 O66 1.257 . S
C50 O67 1.260 . S
Eu51 C50 2.835 . S
Eu51 O63 2.355 1_565 S
Eu51 O65 2.374 1_565 S
Eu51 O66 2.473 . S
Eu51 O67 2.480 . S
Eu51 O68 2.430 1_565 S
Eu51 O69 2.670 1_565 S
Eu51 O70 2.394 . S
C52 C50 1.500 . S
C52 C53 1.377 . S
C52 C57 1.377 . S
C53 C52 1.377 . S
C53 C54 1.395 . S
C53 H76 0.931 . S
C54 C53 1.395 . S
C54 C55 1.383 . S
C54 H77 0.931 . S
C55 C54 1.383 . S
C55 C56 1.394 . S
C56 C55 1.394 . S
C56 C57 1.378 . S
C56 H78 0.931 . S
C57 C52 1.377 . S
C57 C56 1.378 . S
C57 H79 0.931 . S
C58 O68 1.259 . S
C58 O69 1.270 . S
C59 O70 1.251 . S
C59 O71 1.251 . S
O60 C40 1.257 . S
O60 Eu41 2.473 . S
O61 C40 1.260 . S
O61 Eu41 2.480 . S
O62 Eu41 2.430 . S
O62 C48 1.259 . S
O63 Eu41 2.670 . S
O63 C48 1.270 . S
O63 Eu51 2.355 1_545 S
O64 Eu41 2.394 . S
O64 C49 1.251 . S
O65 C49 1.251 . S
O65 Eu51 2.374 1_545 S
O66 C50 1.257 . S
O66 Eu51 2.473 . S
O67 C50 1.260 . S
O67 Eu51 2.480 . S
O68 Eu51 2.430 1_545 S
O68 C58 1.259 . S
O69 Eu41 2.355 . S
O69 Eu51 2.670 1_545 S
O69 C58 1.270 . S
O70 Eu51 2.394 . S
O70 C59 1.251 . S
O71 Eu41 2.374 1_565 S
O71 C59 1.251 . S
H72 C43 0.931 . S
H73 C44 0.931 . S
H74 C46 0.931 . S
H75 C47 0.931 . S
H76 C53 0.931 . S
H77 C54 0.931 . S
H78 C56 0.931 . S
H79 C57 0.931 . S
C80 Eu81 2.835 . S
C80 C82 1.500 . S
C80 O100 1.257 . S
C80 O101 1.260 . S
Eu81 C80 2.835 . S
Eu81 O100 2.473 . S
Eu81 O101 2.480 . S
Eu81 O102 2.430 . S
Eu81 O103 2.670 . S
Eu81 O104 2.394 . S
Eu81 O109 2.355 . S
Eu81 O111 2.374 . S
C82 C80 1.500 . S
C82 C83 1.377 . S
C82 C87 1.377 . S
C83 C82 1.377 . S
C83 C84 1.395 . S
C83 H112 0.931 . S
C84 C83 1.395 . S
C84 C85 1.383 . S
C84 H113 0.931 . S
C85 C84 1.383 . S
C85 C86 1.394 . S
C86 C85 1.394 . S
C86 C87 1.378 . S
C86 H114 0.931 . S
C87 C82 1.377 . S
C87 C86 1.378 . S
C87 H115 0.931 . S
C88 O102 1.259 . S
C88 O103 1.270 . S
C89 O104 1.251 . S
C89 O105 1.251 . S
C90 Eu91 2.835 . S
C90 C92 1.500 . S
C90 O106 1.257 . S
C90 O107 1.260 . S
Eu91 C90 2.835 . S
Eu91 O103 2.355 . S
Eu91 O105 2.374 . S
Eu91 O106 2.473 . S
Eu91 O107 2.480 . S
Eu91 O108 2.430 . S
Eu91 O109 2.670 . S
Eu91 O110 2.394 . S
C92 C90 1.500 . S
C92 C93 1.377 . S
C92 C97 1.377 . S
C93 C92 1.377 . S
C93 C94 1.395 . S
C93 H116 0.931 . S
C94 C93 1.395 . S
C94 C95 1.383 . S
C94 H117 0.931 . S
C95 C94 1.383 . S
C95 C96 1.394 . S
C96 C95 1.394 . S
C96 C97 1.378 . S
C96 H118 0.931 . S
C97 C92 1.377 . S
C97 C96 1.378 . S
C97 H119 0.931 . S
C98 O108 1.259 . S
C98 O109 1.270 . S
C99 O110 1.251 . S
C99 O111 1.251 . S
O100 C80 1.257 . S
O100 Eu81 2.473 . S
O101 C80 1.260 . S
O101 Eu81 2.480 . S
O102 Eu81 2.430 . S
O102 C88 1.259 . S
O103 Eu81 2.670 . S
O103 C88 1.270 . S
O103 Eu91 2.355 . S
O104 Eu81 2.394 . S
O104 C89 1.251 . S
O105 C89 1.251 . S
O105 Eu91 2.374 . S
O106 C90 1.257 . S
O106 Eu91 2.473 . S
O107 C90 1.260 . S
O107 Eu91 2.480 . S
O108 Eu91 2.430 . S
O108 C98 1.259 . S
O109 Eu81 2.355 . S
O109 Eu91 2.670 . S
O109 C98 1.270 . S
O110 Eu91 2.394 . S
O110 C99 1.251 . S
O111 Eu81 2.374 . S
O111 C99 1.251 . S
H112 C83 0.931 . S
H113 C84 0.931 . S
H114 C86 0.931 . S
H115 C87 0.931 . S
H116 C93 0.931 . S
H117 C94 0.931 . S
H118 C96 0.931 . S
H119 C97 0.931 . S
H120 C127 0.929 . S
H121 C130 0.930 1_565 S
H122 C132 0.929 . S
H123 C124 0.969 . S
C124 H123 0.969 . S
C124 O125 1.550 . S
C124 H126 0.973 . S
O125 C124 1.550 . S
O125 C131 1.412 1_565 S
H126 C124 0.973 . S
C127 H120 0.929 . S
C127 C128 1.400 . S
C127 C129 1.364 . S
C128 C127 1.400 . S
C128 C132 1.377 . S
C129 C127 1.364 . S
C129 C130 1.374 . S
C130 H121 0.930 1_545 S
C130 C129 1.374 . S
C130 C131 1.383 . S
C131 O125 1.412 1_545 S
C131 C130 1.383 . S
C131 C132 1.394 . S
C132 H122 0.929 . S
C132 C128 1.377 . S
C132 C131 1.394 . S
H133 C140 0.929 . S
H134 C143 0.930 . S
H135 C145 0.929 . S
H136 C137 0.969 . S
C137 H136 0.969 . S
C137 O138 1.550 . S
C137 H139 0.973 . S
O138 C137 1.550 . S
O138 C144 1.412 . S
H139 C137 0.973 . S
C140 H133 0.929 . S
C140 C141 1.400 . S
C140 C142 1.364 . S
C141 C140 1.400 . S
C141 C145 1.377 . S
C142 C140 1.364 . S
C142 C143 1.374 . S
C143 H134 0.930 . S
C143 C142 1.374 . S
C143 C144 1.383 . S
C144 O138 1.412 . S
C144 C143 1.383 . S
C144 C145 1.394 . S
C145 H135 0.929 . S
C145 C141 1.377 . S
C145 C144 1.394 . S
H146 C153 0.929 . S
H147 C156 0.930 . S
H148 C158 0.929 . S
H149 C150 0.969 . S
C150 H149 0.969 . S
C150 O151 1.550 . S
C150 H152 0.973 . S
O151 C150 1.550 . S
O151 C157 1.412 . S
H152 C150 0.973 . S
C153 H146 0.929 . S
C153 C154 1.400 . S
C153 C155 1.364 1_655 S
C154 C153 1.400 . S
C154 C158 1.377 1_655 S
C155 C153 1.364 1_455 S
C155 C156 1.374 . S
C156 H147 0.930 . S
C156 C155 1.374 . S
C156 C157 1.383 . S
C157 O151 1.412 . S
C157 C156 1.383 . S
C157 C158 1.394 . S
C158 H148 0.929 . S
C158 C154 1.377 1_455 S
C158 C157 1.394 . S
H159 C166 0.926 1_655 S
H160 C169 0.930 . S
H161 C171 0.929 . S
H162 C163 0.969 . S
C163 H162 0.969 . S
C163 O164 1.550 . S
C163 H165 0.973 . S
O164 C163 1.550 . S
O164 C170 1.412 . S
H165 C163 0.973 . S
C166 H159 0.926 1_455 S
C166 C167 1.400 . S
C166 C168 1.364 . S
C167 C166 1.400 . S
C167 C171 1.377 . S
C168 C166 1.364 . S
C168 C169 1.374 . S
C169 H160 0.930 . S
C169 C168 1.374 . S
C169 C170 1.383 . S
C170 O164 1.412 . S
C170 C169 1.383 . S
C170 C171 1.394 . S
C171 H161 0.929 . S
C171 C167 1.377 . S
C171 C170 1.394 . S
H172 C179 0.929 . S
H173 C182 0.930 . S
H174 C184 0.929 . S
H175 C176 0.969 . S
C176 H175 0.969 . S
C176 O177 1.550 . S
C176 H178 0.973 . S
O177 C176 1.550 . S
O177 C183 1.412 . S
H178 C176 0.973 . S
C179 H172 0.929 . S
C179 C180 1.400 . S
C179 C181 1.364 1_565 S
C180 C179 1.400 . S
C180 C184 1.377 . S
C181 C179 1.364 1_545 S
C181 C182 1.374 . S
C182 H173 0.930 . S
C182 C181 1.374 . S
C182 C183 1.383 . S
C183 O177 1.412 . S
C183 C182 1.383 . S
C183 C184 1.394 1_545 S
C184 H174 0.929 . S
C184 C180 1.377 . S
C184 C183 1.394 1_565 S
H185 C192 0.929 . S
H186 C195 0.930 . S
H187 C197 0.929 . S
H188 C189 0.969 . S
C189 H188 0.969 . S
C189 O190 1.550 . S
C189 H191 0.973 . S
O190 C189 1.550 . S
O190 C196 1.412 . S
H191 C189 0.973 . S
C192 H185 0.929 . S
C192 C193 1.400 . S
C192 C194 1.364 . S
C193 C192 1.400 . S
C193 C197 1.377 . S
C194 C192 1.364 . S
C194 C195 1.374 . S
C195 H186 0.930 . S
C195 C194 1.374 . S
C195 C196 1.383 . S
C196 O190 1.412 . S
C196 C195 1.383 . S
C196 C197 1.394 . S
C197 H187 0.929 . S
C197 C193 1.377 . S
C197 C196 1.394 . S
C198 C199 1.369 . S
C198 C200 1.419 . S
C198 H202 0.930 . S
C199 C198 1.369 . S
C199 C208 1.429 . S
C200 C198 1.419 . S
C200 C201 1.363 . S
C200 H203 0.929 . S
C201 C200 1.363 . S
C201 C207 1.428 . S
H202 C198 0.930 . S
H203 C200 0.929 . S
S204 N205 1.613 . S
S204 N206 1.610 . S
N205 S204 1.613 . S
N205 C208 1.350 . S
N206 S204 1.610 . S
N206 C207 1.351 . S
C207 C201 1.428 . S
C207 N206 1.351 . S
C207 C208 1.434 . S
C208 C199 1.429 . S
C208 N205 1.350 . S
C208 C207 1.434 . S
C209 C210 1.369 . S
C209 C211 1.419 . S
C209 H213 0.930 . S
C210 C209 1.369 . S
C210 C219 1.429 . S
C211 C209 1.419 . S
C211 C212 1.363 . S
C211 H214 0.929 . S
C212 C211 1.363 . S
C212 C218 1.428 . S
H213 C209 0.930 . S
H214 C211 0.929 . S
S215 N216 1.613 . S
S215 N217 1.610 . S
N216 S215 1.613 . S
N216 C219 1.350 . S
N217 S215 1.610 . S
N217 C218 1.351 . S
C218 C212 1.428 . S
C218 N217 1.351 . S
C218 C219 1.434 . S
C219 C210 1.429 . S
C219 N216 1.350 . S
C219 C218 1.434 . S
C220 C221 1.369 . S
C220 C222 1.419 . S
C220 H224 0.930 . S
C221 C220 1.369 . S
C221 C230 1.429 . S
C222 C220 1.419 . S
C222 C223 1.363 . S
C222 H225 0.929 . S
C223 C222 1.363 . S
C223 C229 1.428 . S
H224 C220 0.930 . S
H225 C222 0.929 . S
S226 N227 1.613 . S
S226 N228 1.610 . S
N227 S226 1.613 . S
N227 C230 1.350 . S
N228 S226 1.610 . S
N228 C229 1.351 . S
C229 C223 1.428 . S
C229 N228 1.351 . S
C229 C230 1.434 . S
C230 C221 1.429 . S
C230 N227 1.350 . S
C230 C229 1.434 . S
C231 C232 1.369 . S
C231 C233 1.419 . S
C231 H235 0.930 . S
C232 C231 1.369 . S
C232 C241 1.429 . S
C233 C231 1.419 . S
C233 C234 1.363 . S
C233 H236 0.929 . S
C234 C233 1.363 . S
C234 C240 1.428 . S
H235 C231 0.930 . S
H236 C233 0.929 . S
S237 N238 1.613 . S
S237 N239 1.610 . S
N238 S237 1.613 . S
N238 C241 1.350 . S
N239 S237 1.610 . S
N239 C240 1.351 . S
C240 C234 1.428 . S
C240 N239 1.351 . S
C240 C241 1.434 . S
C241 C232 1.429 . S
C241 N238 1.350 . S
C241 C240 1.434 . S
C242 C243 1.369 . S
C242 C244 1.419 . S
C242 H246 0.930 . S
C243 C242 1.369 . S
C243 C252 1.429 . S
C244 C242 1.419 . S
C244 C245 1.363 . S
C244 H247 0.929 . S
C245 C244 1.363 . S
C245 C251 1.428 . S
H246 C242 0.930 . S
H247 C244 0.929 . S
S248 N249 1.613 . S
S248 N250 1.610 . S
N249 S248 1.613 . S
N249 C252 1.350 . S
N250 S248 1.610 . S
N250 C251 1.351 . S
C251 C245 1.428 . S
C251 N250 1.351 . S
C251 C252 1.434 . S
C252 C243 1.429 . S
C252 N249 1.350 . S
C252 C251 1.434 . S
C253 C254 1.369 . S
C253 C255 1.419 . S
C253 H257 0.930 . S
C254 C253 1.369 . S
C254 C263 1.429 . S
C255 C253 1.419 . S
C255 C256 1.363 . S
C255 H258 0.929 . S
C256 C255 1.363 . S
C256 C262 1.428 . S
H257 C253 0.930 . S
H258 C255 0.929 . S
S259 N260 1.613 . S
S259 N261 1.610 . S
N260 S259 1.613 . S
N260 C263 1.350 . S
N261 S259 1.610 . S
N261 C262 1.351 . S
C262 C256 1.428 . S
C262 N261 1.351 . S
C262 C263 1.434 . S
C263 C254 1.429 . S
C263 N260 1.350 . S
C263 C262 1.434 . S
C264 C265 1.369 . S
C264 C266 1.419 . S
C264 H268 0.930 . S
C265 C264 1.369 . S
C265 C274 1.429 . S
C266 C264 1.419 . S
C266 C267 1.363 . S
C266 H269 0.929 . S
C267 C266 1.363 . S
C267 C273 1.428 . S
H268 C264 0.930 . S
H269 C266 0.929 . S
S270 N271 1.613 . S
S270 N272 1.610 . S
N271 S270 1.613 . S
N271 C274 1.350 . S
N272 S270 1.610 . S
N272 C273 1.351 . S
C273 C267 1.428 . S
C273 N272 1.351 . S
C273 C274 1.434 . S
C274 C265 1.429 . S
C274 N271 1.350 . S
C274 C273 1.434 . S
C275 C276 1.369 . S
C275 C277 1.419 . S
C275 H279 0.930 . S
C276 C275 1.369 . S
C276 C285 1.429 . S
C277 C275 1.419 . S
C277 C278 1.363 . S
C277 H280 0.929 . S
C278 C277 1.363 . S
C278 C284 1.428 . S
H279 C275 0.930 . S
H280 C277 0.929 . S
S281 N282 1.600 1_455 S
S281 N283 1.609 1_455 S
N282 S281 1.600 1_655 S
N282 C285 1.350 . S
N283 S281 1.609 1_655 S
N283 C284 1.351 . S
C284 C278 1.428 . S
C284 N283 1.351 . S
C284 C285 1.434 . S
C285 C276 1.429 . S
C285 N282 1.350 . S
C285 C284 1.434 . S
C286 C287 1.369 . S
C286 C288 1.419 . S
C286 H290 0.930 . S
C287 C286 1.369 . S
C287 C296 1.429 . S
C288 C286 1.419 . S
C288 C289 1.363 . S
C288 H291 0.929 . S
C289 C288 1.363 . S
C289 C295 1.428 . S
H290 C286 0.930 . S
H291 C288 0.929 . S
S292 N293 1.613 . S
S292 N294 1.610 . S
N293 S292 1.613 . S
N293 C296 1.350 . S
N294 S292 1.610 . S
N294 C295 1.351 . S
C295 C289 1.428 . S
C295 N294 1.351 . S
C295 C296 1.434 . S
C296 C287 1.429 . S
C296 N293 1.350 . S
C296 C295 1.434 . S
C297 C298 1.369 . S
C297 C299 1.419 . S
C297 H301 0.930 . S
C298 C297 1.369 . S
C298 C307 1.429 . S
C299 C297 1.419 . S
C299 C300 1.363 . S
C299 H302 0.929 . S
C300 C299 1.363 . S
C300 C306 1.428 . S
H301 C297 0.930 . S
H302 C299 0.929 . S
S303 N304 1.613 . S
S303 N305 1.610 . S
N304 S303 1.613 . S
N304 C307 1.350 . S
N305 S303 1.610 . S
N305 C306 1.351 . S
C306 C300 1.428 . S
C306 N305 1.351 . S
C306 C307 1.434 . S
C307 C298 1.429 . S
C307 N304 1.350 . S
C307 C306 1.434 . S
C308 C309 1.369 . S
C308 C310 1.419 . S
C308 H312 0.930 . S
C309 C308 1.369 . S
C309 C318 1.429 . S
C310 C308 1.419 . S
C310 C311 1.363 . S
C310 H313 0.929 . S
C311 C310 1.363 . S
C311 C317 1.428 . S
H312 C308 0.930 . S
H313 C310 0.929 . S
S314 N315 1.613 . S
S314 N316 1.610 . S
N315 S314 1.613 . S
N315 C318 1.350 . S
N316 S314 1.610 . S
N316 C317 1.351 . S
C317 C311 1.428 . S
C317 N316 1.351 . S
C317 C318 1.434 . S
C318 C309 1.429 . S
C318 N315 1.350 . S
C318 C317 1.434 . S
C319 C320 1.369 . S
C319 C321 1.419 . S
C319 H323 0.930 . S
C320 C319 1.369 . S
C320 C329 1.429 . S
C321 C319 1.419 . S
C321 C322 1.363 . S
C321 H324 0.929 . S
C322 C321 1.363 . S
C322 C328 1.428 . S
H323 C319 0.930 . S
H324 C321 0.929 . S
S325 N326 1.613 . S
S325 N327 1.610 . S
N326 S325 1.613 . S
N326 C329 1.350 . S
N327 S325 1.610 . S
N327 C328 1.351 . S
C328 C322 1.428 . S
C328 N327 1.351 . S
C328 C329 1.434 . S
C329 C320 1.429 . S
C329 N326 1.350 . S
C329 C328 1.434 . S
C330 C331 1.369 1_655 S
C330 C332 1.419 1_554 S
C330 H334 0.930 . S
C331 C330 1.369 1_455 S
C331 C340 1.429 . S
C332 C330 1.419 1_556 S
C332 C333 1.363 1_655 S
C332 H335 0.929 . S
C333 C332 1.363 1_455 S
C333 C339 1.429 . S
H334 C330 0.930 . S
H335 C332 0.929 . S
S336 N337 1.613 . S
S336 N338 1.610 1_554 S
N337 S336 1.613 . S
N337 C340 1.350 . S
N338 S336 1.610 1_556 S
N338 C339 1.351 . S
C339 C333 1.429 . S
C339 N338 1.351 . S
C339 C340 1.433 1_556 S
C340 C331 1.429 . S
C340 N337 1.350 . S
C340 C339 1.433 1_554 S
C341 C342 1.369 . S
C341 C343 1.419 . S
C341 H345 0.930 1_545 S
C342 C341 1.369 . S
C342 C351 1.429 . S
C343 C341 1.419 . S
C343 C344 1.363 . S
C343 H346 0.931 . S
C344 C343 1.363 . S
C344 C350 1.428 . S
H345 C341 0.930 1_565 S
H346 C343 0.931 . S
S347 N348 1.613 . S
S347 N349 1.610 . S
N348 S347 1.613 . S
N348 C351 1.350 . S
N349 S347 1.610 . S
N349 C350 1.351 . S
C350 C344 1.428 . S
C350 N349 1.351 . S
C350 C351 1.434 . S
C351 C342 1.429 . S
C351 N348 1.350 . S
C351 C350 1.434 . S
C352 C353 1.369 . S
C352 C354 1.419 . S
C352 H356 0.930 . S
C353 C352 1.369 . S
C353 C362 1.429 . S
C354 C352 1.419 . S
C354 C355 1.363 . S
C354 H357 0.929 . S
C355 C354 1.363 . S
C355 C361 1.428 . S
H356 C352 0.930 . S
H357 C354 0.929 . S
S358 N359 1.613 . S
S358 N360 1.610 . S
N359 S358 1.613 . S
N359 C362 1.350 . S
N360 S358 1.610 . S
N360 C361 1.351 . S
C361 C355 1.428 . S
C361 N360 1.351 . S
C361 C362 1.434 . S
C362 C353 1.429 . S
C362 N359 1.350 . S
C362 C361 1.434 . S
C363 C364 1.369 . S
C363 C365 1.419 . S
C363 H367 0.930 . S
C364 C363 1.369 . S
C364 C373 1.429 1_545 S
C365 C363 1.419 . S
C365 C366 1.363 . S
C365 H368 0.929 . S
C366 C365 1.363 . S
C366 C372 1.428 1_545 S
H367 C363 0.930 . S
H368 C365 0.929 . S
S369 N370 1.613 . S
S369 N371 1.610 . S
N370 S369 1.613 . S
N370 C373 1.350 . S
N371 S369 1.610 . S
N371 C372 1.351 . S
C372 C366 1.428 1_565 S
C372 N371 1.351 . S
C372 C373 1.434 . S
C373 C364 1.429 1_565 S
C373 N370 1.350 . S
C373 C372 1.434 . S
C374 C375 1.369 . S
C374 C376 1.419 1_556 S
C374 H378 0.930 . S
C375 C374 1.369 . S
C375 C384 1.429 . S
C376 C374 1.419 1_554 S
C376 C377 1.363 . S
C376 H379 0.929 . S
C377 C376 1.363 . S
C377 C383 1.428 1_554 S
H378 C374 0.930 . S
H379 C376 0.929 . S
S380 N381 1.613 . S
S380 N382 1.610 1_556 S
N381 S380 1.613 . S
N381 C384 1.350 . S
N382 S380 1.610 1_554 S
N382 C383 1.351 1_554 S
C383 C377 1.428 1_556 S
C383 N382 1.351 1_556 S
C383 C384 1.434 . S
C384 C375 1.429 . S
C384 N381 1.350 . S
C384 C383 1.434 . S
C385 C386 1.369 . S
C385 C387 1.419 . S
C385 H389 0.930 1_455 S
C386 C385 1.369 . S
C386 C395 1.429 . S
C387 C385 1.419 . S
C387 C388 1.363 . S
C387 H390 0.929 . S
C388 C387 1.363 . S
C388 C394 1.428 . S
H389 C385 0.930 1_655 S
H390 C387 0.929 . S
S391 N392 1.613 . S
S391 N393 1.610 . S
N392 S391 1.613 . S
N392 C395 1.350 . S
N393 S391 1.610 . S
N393 C394 1.351 . S
C394 C388 1.428 . S
C394 N393 1.351 . S
C394 C395 1.434 . S
C395 C386 1.429 . S
C395 N392 1.350 . S
C395 C394 1.434 . S
C199 C19 3.077 . S
C201 C189 2.884 . S
C210 C49 3.049 . S
C212 C167 3.009 1_655 S
C221 C99 2.998 . S
C223 C180 2.969 . S
C232 C9 3.057 . S
C234 C193 3.018 . S
C245 C163 2.900 . S
C243 C59 3.084 . S
C256 C176 2.950 . S
C254 C89 3.156 . S
C265 C55 0.472 . S
C267 C141 0.400 . S
C276 C85 0.726 . S
C278 C154 0.683 . S
C287 C15 0.723 . S
C289 C124 0.713 . S
C300 C137 0.727 . S
C298 C45 0.740 . S
C311 C150 0.836 . S
C309 C95 0.798 . S
C320 C5 0.679 . S
C322 C128 0.648 . S
C333 C155 1.152 . S
C331 C18 1.149 . S
C342 C58 1.201 . S
C344 C129 1.190 . S
C353 C98 1.068 . S
C355 C142 1.100 . S
C366 C181 1.845 . S
C364 C48 1.707 . S
C377 C194 1.768 . S
C375 C88 1.718 . S
C386 C8 1.711 . S
C388 C168 1.797 . S
