# Generated by pormake.
# Topology pyr, (3,6)-cn, num edge types: 1
# Building blocks:
#     Node 0, Type 0, BuildingBlock: BETDIP_clean_linker_0, # of connection points: 3
#     Node 1, Type 0, BuildingBlock: BETDIP_clean_linker_0, # of connection points: 3
#     Node 2, Type 0, BuildingBlock: BETDIP_clean_linker_0, # of connection points: 3
#     Node 3, Type 0, BuildingBlock: BETDIP_clean_linker_0, # of connection points: 3
#     Node 4, Type 0, BuildingBlock: BETDIP_clean_linker_0, # of connection points: 3
#     Node 5, Type 0, BuildingBlock: BETDIP_clean_linker_0, # of connection points: 3
#     Node 6, Type 0, BuildingBlock: BETDIP_clean_linker_0, # of connection points: 3
#     Node 7, Type 0, BuildingBlock: BETDIP_clean_linker_0, # of connection points: 3
#     Node 8, Type 1, BuildingBlock: PAMTUU_clean_sbu_0, # of connection points: 6
#     Node 9, Type 1, BuildingBlock: PAMTUU_clean_sbu_0, # of connection points: 6
#     Node 10, Type 1, BuildingBlock: PAMTUU_clean_sbu_0, # of connection points: 6
#     Node 11, Type 1, BuildingBlock: PAMTUU_clean_sbu_0, # of connection points: 6
#     Edge 12, Type (0, 1), BuildingBlock: AJUNOK_clean_linker_0, # of connection points: 2
#     Edge 13, Type (0, 1), BuildingBlock: AJUNOK_clean_linker_0, # of connection points: 2
#     Edge 14, Type (0, 1), BuildingBlock: AJUNOK_clean_linker_0, # of connection points: 2
#     Edge 15, Type (0, 1), BuildingBlock: AJUNOK_clean_linker_0, # of connection points: 2
#     Edge 16, Type (0, 1), BuildingBlock: AJUNOK_clean_linker_0, # of connection points: 2
#     Edge 17, Type (0, 1), BuildingBlock: AJUNOK_clean_linker_0, # of connection points: 2
#     Edge 18, Type (0, 1), BuildingBlock: AJUNOK_clean_linker_0, # of connection points: 2
#     Edge 19, Type (0, 1), BuildingBlock: AJUNOK_clean_linker_0, # of connection points: 2
#     Edge 20, Type (0, 1), BuildingBlock: AJUNOK_clean_linker_0, # of connection points: 2
#     Edge 21, Type (0, 1), BuildingBlock: AJUNOK_clean_linker_0, # of connection points: 2
#     Edge 22, Type (0, 1), BuildingBlock: AJUNOK_clean_linker_0, # of connection points: 2
#     Edge 23, Type (0, 1), BuildingBlock: AJUNOK_clean_linker_0, # of connection points: 2
#     Edge 24, Type (0, 1), BuildingBlock: AJUNOK_clean_linker_0, # of connection points: 2
#     Edge 25, Type (0, 1), BuildingBlock: AJUNOK_clean_linker_0, # of connection points: 2
#     Edge 26, Type (0, 1), BuildingBlock: AJUNOK_clean_linker_0, # of connection points: 2
#     Edge 27, Type (0, 1), BuildingBlock: AJUNOK_clean_linker_0, # of connection points: 2
#     Edge 28, Type (0, 1), BuildingBlock: AJUNOK_clean_linker_0, # of connection points: 2
#     Edge 29, Type (0, 1), BuildingBlock: AJUNOK_clean_linker_0, # of connection points: 2
#     Edge 30, Type (0, 1), BuildingBlock: AJUNOK_clean_linker_0, # of connection points: 2
#     Edge 31, Type (0, 1), BuildingBlock: AJUNOK_clean_linker_0, # of connection points: 2
#     Edge 32, Type (0, 1), BuildingBlock: AJUNOK_clean_linker_0, # of connection points: 2
#     Edge 33, Type (0, 1), BuildingBlock: AJUNOK_clean_linker_0, # of connection points: 2
#     Edge 34, Type (0, 1), BuildingBlock: AJUNOK_clean_linker_0, # of connection points: 2
#     Edge 35, Type (0, 1), BuildingBlock: AJUNOK_clean_linker_0, # of connection points: 2
# Relax obj value: 0.189
# Max RMSD: 0.177
# Mean RMSD: 0.134
data_MOF--net-pyr--node1-PAMTUU_clean_sbu_0--node2-BETDIP_clean_linker_0--edge1-AJUNOK_clean_linker_0
_symmetry_space_group_name_H-M    P1
_symmetry_Int_Tables_number       1
_symmetry_cell_setting            triclinic
loop_
_symmetry_equiv_pos_as_xyz
'x, y, z'
_cell_length_a     28.050606
_cell_length_b     28.765299
_cell_length_c     28.202572
_cell_angle_alpha  91.018215
_cell_angle_beta   88.355249
_cell_angle_gamma 108.84262
loop_
_atom_site_label
_atom_site_type_symbol
_atom_site_fract_x
_atom_site_fract_y
_atom_site_fract_z
_atom_type_partial_charge
H0 H 0.38167 0.3733 0.24493 0.0
H1 H 0.46292 0.32592 0.13245 0.0
H2 H 0.42513 0.24465 0.26204 0.0
H3 H 0.41773 0.4558 0.1957 0.0
C4 C 0.39706 0.42849 0.17018 0.0
C5 C 0.40127 0.34881 0.23144 0.0
C6 C 0.4009 0.30853 0.25885 0.0
C7 C 0.42355 0.35532 0.18565 0.0
C8 C 0.44728 0.32211 0.16831 0.0
C9 C 0.44939 0.28312 0.19656 0.0
C10 C 0.4265 0.27679 0.24178 0.0
N11 N 0.41846 0.39206 0.155 0.0
H12 H 0.14386 0.81233 0.81022 0.0
H13 H 0.18569 0.77479 0.67105 0.0
H14 H 0.23882 0.7217 0.79289 0.0
H15 H 0.12609 0.80238 0.64635 0.0
C16 C 0.1182 0.82644 0.6733 0.0
C17 C 0.16068 0.79033 0.78814 0.0
C18 C 0.19169 0.76637 0.80807 0.0
C19 C 0.15589 0.79162 0.73896 0.0
C20 C 0.18423 0.77 0.70904 0.0
C21 C 0.2144 0.74499 0.72868 0.0
C22 C 0.21452 0.74004 0.77795 0.0
N23 N 0.128 0.82093 0.72159 0.0
H24 H 0.75052 0.45626 0.88396 0.0
H25 H 0.62088 0.3258 0.86965 0.0
H26 H 0.72523 0.33689 0.98141 0.0
H27 H 0.61623 0.3601 0.79564 0.0
C28 C 0.63212 0.39982 0.79752 0.0
C29 C 0.72832 0.42006 0.89615 0.0
C30 C 0.7457 0.3989 0.9345 0.0
C31 C 0.68311 0.39496 0.87226 0.0
C32 C 0.65507 0.34627 0.8874 0.0
C33 C 0.67146 0.32399 0.92595 0.0
C34 C 0.71521 0.35202 0.94979 0.0
N35 N 0.66775 0.42058 0.83437 0.0
H36 H 0.82064 0.63225 0.39556 0.0
H37 H 0.94466 0.76566 0.37473 0.0
H38 H 0.82812 0.76025 0.47976 0.0
H39 H 0.93847 0.73081 0.29519 0.0
C40 C 0.93045 0.6918 0.30119 0.0
C41 C 0.83917 0.67052 0.40449 0.0
C42 C 0.81828 0.69331 0.4404 0.0
C43 C 0.88351 0.69644 0.37923 0.0
C44 C 0.90922 0.74599 0.39224 0.0
C45 C 0.89021 0.76902 0.42987 0.0
C46 C 0.84424 0.74234 0.45255 0.0
N47 N 0.90143 0.67053 0.34249 0.0
H48 H 0.59212 0.76366 0.9929 0.0
H49 H 0.68079 0.73382 0.87659 0.0
H50 H 0.63792 0.8641 0.8762 0.0
H51 H 0.63524 0.63234 0.9309 0.0
C52 C 0.6605 0.66731 0.9433 0.0
C53 C 0.61083 0.77369 0.95866 0.0
C54 C 0.61086 0.81729 0.9366 0.0
C55 C 0.63624 0.74357 0.93755 0.0
C56 C 0.66067 0.75641 0.89326 0.0
C57 C 0.66118 0.79971 0.87106 0.0
C58 C 0.63552 0.82947 0.89241 0.0
N59 N 0.6383 0.70174 0.96243 0.0
H60 H 0.92878 0.3044 0.3247 0.0
H61 H 0.89239 0.36174 0.45703 0.0
H62 H 0.83353 0.39535 0.32802 0.0
H63 H 0.89287 0.28488 0.4773 0.0
C64 C 0.92514 0.27964 0.45858 0.0
C65 C 0.91264 0.32922 0.34334 0.0
C66 C 0.88128 0.3503 0.31969 0.0
C67 C 0.91732 0.33353 0.39263 0.0
C68 C 0.89096 0.36003 0.41869 0.0
C69 C 0.8596 0.38137 0.39552 0.0
C70 C 0.85843 0.37969 0.34584 0.0
N71 N 0.94252 0.30466 0.41525 0.0
H72 H 0.30821 0.63762 0.25219 0.0
H73 H 0.4376 0.76696 0.27328 0.0
H74 H 0.33496 0.76185 0.16098 0.0
H75 H 0.44244 0.73124 0.34342 0.0
C76 C 0.42539 0.69165 0.34193 0.0
C77 C 0.33086 0.67441 0.24195 0.0
C78 C 0.31446 0.69774 0.20467 0.0
C79 C 0.3754 0.69836 0.26737 0.0
C80 C 0.40415 0.74749 0.2541 0.0
C81 C 0.38944 0.77165 0.21594 0.0
C82 C 0.34532 0.74526 0.19151 0.0
N83 N 0.38942 0.6716 0.30516 0.0
H84 H 0.10744 0.32815 0.75088 0.0
H85 H 0.23881 0.45814 0.75237 0.0
H86 H 0.23188 0.34204 0.65294 0.0
H87 H 0.18588 0.4919 0.78968 0.0
C88 C 0.16105 0.46378 0.81233 0.0
C89 C 0.14432 0.34895 0.73669 0.0
C90 C 0.16553 0.32961 0.69793 0.0
C91 C 0.1699 0.39569 0.75669 0.0
C92 C 0.21776 0.42291 0.7373 0.0
C93 C 0.23994 0.40376 0.69945 0.0
C94 C 0.21395 0.35706 0.68106 0.0
N95 N 0.14734 0.41348 0.79668 0.0
Tb96 Tb 0.07302 0.06497 0.51987 0.0
Tb97 Tb 0.97661 0.04079 0.59451 0.0
C98 C 0.97977 0.96765 0.51092 0.0
C99 C 0.18713 0.12501 0.44457 0.0
C100 C 0.26217 0.2041 0.40253 0.0
C101 C 0.26795 0.15742 0.40393 0.0
C102 C 0.23066 0.11819 0.42474 0.0
C103 C 0.18211 0.17204 0.4455 0.0
C104 C 0.21949 0.21145 0.42445 0.0
C105 C 0.14711 0.0822 0.46281 0.0
O106 O 0.04095 0.123 0.50933 0.0
O107 O 0.96152 0.07829 0.5333 0.0
O108 O 1.0236 0.11409 0.61589 0.0
O109 O 0.0987 0.1193 0.57715 0.0
O110 O 0.89797 1.02042 0.59997 0.0
O111 O 0.94369 1.03995 0.66232 0.0
O112 O 1.02577 1.00531 0.62631 0.0
O113 O 0.07607 1.00325 0.56095 0.0
O114 O 1.01186 1.00483 0.48799 0.0
O115 O 0.96695 0.97244 0.5555 0.0
C116 C 0.99296 0.11758 0.51362 0.0
O117 O 0.14929 0.07289 0.50763 0.0
O118 O 0.10135 0.07744 0.45008 0.0
C119 C 0.07195 0.13625 0.60804 0.0
C120 C 0.86215 0.98344 0.67139 0.0
C121 C 0.7931 0.90795 0.72341 0.0
C122 C 0.8345 0.89967 0.6998 0.0
C123 C 0.86897 0.93734 0.67386 0.0
C124 C 0.82023 0.99128 0.69366 0.0
C125 C 0.78592 0.95384 0.71949 0.0
C126 C 0.89814 1.02412 0.64605 0.0
C127 C 0.05887 0.98879 0.60378 0.0
H128 H 0.30022 0.15066 0.38685 0.0
H129 H 0.23513 0.08213 0.42409 0.0
H130 H 0.14883 0.17792 0.4613 0.0
H131 H 0.21446 0.24723 0.42411 0.0
H132 H 0.84049 0.86441 0.70197 0.0
H133 H 0.90114 0.93082 0.65631 0.0
H134 H 0.8145 1.0267 0.69176 0.0
H135 H 0.75465 0.96133 0.73778 0.0
Tb136 Tb 0.58593 0.06273 0.10215 0.0
Tb137 Tb 0.47939 1.0374 1.0472 0.0
C138 C 0.55361 0.97594 1.02774 0.0
C139 C 0.71175 0.13241 0.14544 0.0
C140 C 0.78384 0.22194 0.17026 0.0
C141 C 0.79247 0.17733 0.17863 0.0
C142 C 0.75649 0.13277 0.16638 0.0
C143 C 0.70494 0.17687 0.13324 0.0
C144 C 0.74079 0.22143 0.14568 0.0
C145 C 0.67109 0.08589 0.1392 0.0
O146 O 0.60251 0.10764 1.03724 0.0
O147 O 0.52423 0.11069 1.02076 0.0
O148 O 0.47378 0.08163 0.1088 0.0
O149 O 0.55691 0.12178 0.12246 0.0
O150 O 0.4375 1.02732 0.98507 0.0
O151 O 0.40158 1.02364 1.05427 0.0
O152 O 0.46707 0.97396 0.09335 0.0
O153 O 0.53335 1.00197 0.14441 0.0
O154 O 0.57751 0.99438 0.06623 0.0
O155 O 0.52041 0.9938 1.00961 0.0
C156 C 0.57367 0.12905 1.01625 0.0
O157 O 0.62932 0.08182 0.16311 0.0
O158 O 0.66278 0.07082 0.09542 0.0
C159 C 0.50951 0.11911 0.12598 0.0
C160 C 0.35693 0.9697 0.99642 0.0
C161 C 0.28794 0.88117 0.96473 0.0
C162 C 0.27719 0.92544 0.96116 0.0
C163 C 0.31157 0.96949 0.97692 0.0
C164 C 0.36624 0.92524 1.00314 0.0
C165 C 0.33193 0.8812 0.98736 0.0
C166 C 0.39481 1.0163 1.00898 0.0
C167 C 0.4905 0.96858 0.13166 0.0
H168 H 0.82483 0.17667 0.19836 0.0
H169 H 0.76233 0.09864 0.17562 0.0
H170 H 0.6707 0.17706 0.11652 0.0
H171 H 0.73318 0.25536 0.13923 0.0
H172 H 0.24412 0.92659 0.94293 0.0
H173 H 0.30374 1.00358 0.97204 0.0
H174 H 0.40097 0.92487 1.01875 0.0
H175 H 0.34119 0.84759 0.99012 0.0
Tb176 Tb 0.52372 0.49987 0.5373 0.0
Tb177 Tb 0.53405 0.59488 0.60352 0.0
C178 C 0.48793 0.58586 0.49898 0.0
C179 C 0.57635 0.41671 0.47571 0.0
C180 C 0.67291 0.40834 0.45851 0.0
C181 C 0.64447 0.41565 0.4208 0.0
C182 C 0.59655 0.41964 0.42931 0.0
C183 C 0.60452 0.40833 0.51324 0.0
C184 C 0.65222 0.40412 0.50472 0.0
C185 C 0.53032 0.43008 0.48549 0.0
O186 O 0.59173 0.55669 0.51381 0.0
O187 O 0.61185 0.60767 0.5784 0.0
O188 O 0.55575 0.54588 0.65222 0.0
O189 O 0.56952 0.49142 0.59741 0.0
O190 O 0.55204 0.6716 0.60998 0.0
O191 O 0.51817 0.62437 0.66846 0.0
O192 O 0.45401 0.55133 0.60472 0.0
O193 O 0.45818 0.47551 0.58463 0.0
O194 O 0.47771 0.5376 0.5002 0.0
O195 O 0.51663 0.61346 0.53186 0.0
C196 C 0.62382 0.59285 0.53666 0.0
O197 O 0.5121 0.42419 0.5288 0.0
O198 O 0.53165 0.4724 0.46891 0.0
C199 C 0.57102 0.50793 0.64167 0.0
C200 C 0.48525 0.68701 0.65228 0.0
C201 C 0.39606 0.71135 0.66219 0.0
C202 C 0.4364 0.73243 0.6926 0.0
C203 C 0.48072 0.72007 0.68784 0.0
C204 C 0.44571 0.66775 0.62061 0.0
C205 C 0.40133 0.67958 0.62572 0.0
C206 C 0.5281 0.66805 0.65072 0.0
C207 C 0.43428 0.50329 0.60467 0.0
H208 H 0.65948 0.41859 0.38475 0.0
H209 H 0.57598 0.42674 0.39986 0.0
H210 H 0.5906 0.40675 0.5495 0.0
H211 H 0.67353 0.39895 0.53446 0.0
H212 H 0.43275 0.75677 0.72121 0.0
H213 H 0.51063 0.73496 0.7128 0.0
H214 H 0.44843 0.64214 0.59289 0.0
H215 H 0.37067 0.66305 0.60194 0.0
Tb216 Tb 0.03105 0.60442 1.03745 0.0
Tb217 Tb 0.03177 0.50584 0.09206 0.0
C218 C 0.07844 0.53019 0.98709 0.0
C219 C 0.96795 0.68254 0.9891 0.0
C220 C 0.87086 0.68577 0.96955 0.0
C221 C 0.91401 0.72124 0.9504 0.0
C222 C 0.96239 0.7194 0.95985 0.0
C223 C 0.92475 0.64838 1.00935 0.0
C224 C 0.87685 0.64988 0.99963 0.0
C225 C 1.0175 0.67656 0.99694 0.0
O226 O 0.96561 0.54541 1.01116 0.0
O227 O 0.95353 0.48616 0.06808 0.0
O228 O 1.01014 0.55162 0.14659 0.0
O229 O 0.97897 0.59649 0.09782 0.0
O230 O 1.02435 0.4306 0.09187 0.0
O231 O 0.04497 0.47442 0.1551 0.0
O232 O 0.10986 0.55536 0.09349 0.0
O233 O 0.09631 0.62898 0.08482 0.0
O234 O 0.08241 0.57677 0.99395 0.0
O235 O 0.05402 0.49669 1.01813 0.0
C236 C 0.93788 0.50399 1.03084 0.0
O237 O 0.03001 0.67731 1.04117 0.0
O238 O 1.02512 0.6397 0.97416 0.0
C239 C 0.98563 0.58301 0.14058 0.0
C240 C 0.08971 0.42003 0.13745 0.0
C241 C 0.18615 0.4111 0.14808 0.0
C242 C 0.15263 0.40518 0.18724 0.0
C243 C 0.10469 0.40936 0.18191 0.0
C244 C 0.12275 0.42456 0.09803 0.0
C245 C 0.17037 0.41988 0.10328 0.0
C246 C 0.04342 0.43352 0.13382 0.0
C247 C 0.12451 0.60335 0.0997 0.0
H248 H 0.91019 0.7493 0.92711 0.0
H249 H 0.9952 0.74603 0.94373 0.0
H250 H 0.92793 0.61966 1.032 0.0
H251 H 0.84424 0.62245 1.01516 0.0
H252 H 0.16403 0.3985 0.22217 0.0
H253 H 0.08013 0.40635 0.21287 0.0
H254 H 0.11272 0.43382 0.06347 0.0
H255 H 0.19579 0.42551 0.0727 0.0
C256 C 0.38409 0.27756 0.34195 0.0
C257 C 0.36706 0.29415 0.30116 0.0
C258 C 0.35006 0.25206 0.37726 0.0
C259 C 0.29791 0.24244 0.37299 0.0
H260 H 0.42365 0.28167 0.34515 0.0
H261 H 0.3643 0.23709 0.40663 0.0
S262 S 0.23452 0.28222 0.27542 0.0
N263 N 0.29496 0.30256 0.2604 0.0
N264 N 0.23119 0.25499 0.32701 0.0
C265 C 0.2808 0.26238 0.33441 0.0
C266 C 0.31537 0.28818 0.29837 0.0
C267 C 0.26496 0.79494 0.86123 0.0
C268 C 0.21231 0.78117 0.85613 0.0
C269 C 0.28849 0.82291 0.89985 0.0
C270 C 0.26059 0.83897 0.9347 0.0
H271 H 0.28923 0.78849 0.83312 0.0
H272 H 0.32932 0.83613 0.89973 0.0
S273 S 0.12142 0.80251 0.94513 0.0
N274 N 0.13229 0.77694 0.8948 0.0
N275 N 0.17733 0.83195 0.9669 0.0
C276 C 0.20776 0.82122 0.93311 0.0
C277 C 0.18346 0.79171 0.89397 0.0
C278 C 0.62673 0.48023 0.76 0.0
C279 C 0.61923 0.42911 0.7575 0.0
C280 C 0.61138 0.50551 0.72306 0.0
C281 C 0.58878 0.48141 0.68099 0.0
H282 H 0.64366 0.50083 0.79116 0.0
H283 H 0.61753 0.54446 0.7275 0.0
S284 S 0.56001 0.34775 0.65665 0.0
N285 N 0.58663 0.35575 0.70892 0.0
N286 N 0.55925 0.40242 0.64072 0.0
C287 C 0.58165 0.4305 0.67821 0.0
C288 C 0.59638 0.4048 0.71587 0.0
C289 C 0.95368 0.68166 0.21582 0.0
C290 C 0.94254 0.66128 0.26147 0.0
C291 C 0.96594 0.65546 0.17725 0.0
C292 C 0.96893 0.60777 0.18241 0.0
H293 H 0.95282 0.71845 0.2097 0.0
H294 H 0.97441 0.67348 0.14318 0.0
S295 S 0.94293 0.53687 0.29441 0.0
N296 N 0.93435 0.58948 0.30935 0.0
N297 N 0.95897 0.54098 0.2374 0.0
C298 C 0.95793 0.58676 0.22793 0.0
C299 C 0.94432 0.6132 0.26719 0.0
C300 C 0.44064 0.21222 0.14202 0.0
C301 C 0.46833 0.24429 0.17686 0.0
C302 C 0.45392 0.17143 0.12656 0.0
C303 C 0.49585 0.1616 0.14488 0.0
H304 H 0.40767 0.21804 0.12752 0.0
H305 H 0.43135 0.14768 0.09964 0.0
S306 S 0.58117 0.23551 0.23624 0.0
N307 N 0.5393 0.26405 0.2294 0.0
N308 N 0.56557 0.18814 0.19917 0.0
C309 C 0.52448 0.19409 0.17912 0.0
C310 C 0.5103 0.23518 0.19551 0.0
C311 C 0.1055 0.87915 0.60957 0.0
C312 C 0.10136 0.86757 0.65791 0.0
C313 C 0.09211 0.9186 0.59294 0.0
C314 C 0.07334 0.948 0.62388 0.0
H315 H 0.11983 0.85781 0.58427 0.0
H316 H 0.0961 0.92563 0.55518 0.0
S317 S 0.053 0.93175 0.75391 0.0
N318 N 0.07592 0.8878 0.73686 0.0
N319 N 0.05004 0.96183 0.70533 0.0
C320 C 0.06805 0.93632 0.67237 0.0
C321 C 0.08229 0.89621 0.68948 0.0
C322 C 0.81226 0.47676 0.9659 0.0
C323 C 0.79531 0.42521 0.95917 0.0
C324 C 0.85768 0.50159 0.98926 0.0
C325 C 0.8882 0.47629 1.00842 0.0
H326 H 0.79003 0.49837 0.95346 0.0
H327 H 0.86874 0.54114 0.99272 0.0
S328 S 0.86519 0.3422 0.99726 0.0
N329 N 0.81709 0.35065 0.97052 0.0
N330 N 0.89949 0.39688 1.01676 0.0
C331 C 0.87215 0.42499 1.00199 0.0
C332 C 0.82672 0.39972 0.97696 0.0
C333 C 0.76206 0.67074 0.51438 0.0
C334 C 0.76881 0.66661 0.46479 0.0
C335 C 0.71535 0.64729 0.53756 0.0
C336 C 0.67339 0.61838 0.51221 0.0
H337 H 0.79329 0.6921 0.53562 0.0
H338 H 0.7123 0.65147 0.57566 0.0
S339 S 0.66982 0.59872 0.38126 0.0
N340 N 0.7282 0.63364 0.391 0.0
N341 N 0.6415 0.58897 0.43393 0.0
C342 C 0.67962 0.61434 0.4625 0.0
C343 C 0.72692 0.63846 0.43903 0.0
C344 C 0.32011 0.45016 0.19194 0.0
C345 C 0.34287 0.42194 0.16382 0.0
C346 C 0.26907 0.44534 0.18754 0.0
C347 C 0.23894 0.41246 0.15446 0.0
H348 H 0.34199 0.47631 0.2176 0.0
H349 H 0.25336 0.46842 0.20942 0.0
S350 S 0.27959 0.32896 0.0732 0.0
N351 N 0.33083 0.35896 0.10235 0.0
N352 N 0.23494 0.35025 0.09398 0.0
C353 C 0.26099 0.38366 0.12639 0.0
C354 C 0.31293 0.38826 0.13111 0.0
C355 C 0.59273 0.25381 0.95416 0.0
C356 C 0.64486 0.27149 0.94283 0.0
C357 C 0.56982 0.20754 0.97639 0.0
C358 C 0.59776 0.17642 0.98863 0.0
H359 H 0.56971 0.27673 0.94752 0.0
H360 H 0.52998 0.19683 0.98541 0.0
S361 S 0.7345 0.20264 0.96186 0.0
N362 N 0.72256 0.2512 0.94186 0.0
N363 N 0.68047 0.16629 0.98395 0.0
C364 C 0.6495 0.19298 0.97572 0.0
C365 C 0.6726 0.23964 0.95284 0.0
C366 C 0.92054 0.82864 0.49754 0.0
C367 C 0.91772 0.82002 0.44813 0.0
C368 C 0.94063 0.8761 0.51685 0.0
C369 C 0.95967 0.9178 0.48791 0.0
H370 H 0.90646 0.79825 0.52187 0.0
H371 H 0.94121 0.87993 0.55513 0.0
S372 S 0.96337 0.91608 0.35611 0.0
N373 N 0.93696 0.85776 0.37046 0.0
N374 N 0.97596 0.94694 0.40672 0.0
C375 C 0.95881 0.90984 0.43835 0.0
C376 C 0.93773 0.86114 0.41854 0.0
C377 C 0.26079 0.68752 0.70327 0.0
C378 C 0.2551 0.73421 0.70062 0.0
C379 C 0.30595 0.68002 0.68864 0.0
C380 C 0.34698 0.71897 0.67125 0.0
H381 H 0.23121 0.65736 0.71936 0.0
H382 H 0.30986 0.64423 0.69361 0.0
S383 S 0.35081 0.84752 0.65525 0.0
N384 N 0.29378 0.81949 0.67746 0.0
N385 N 0.37865 0.80503 0.65001 0.0
C386 C 0.34118 0.76522 0.66651 0.0
C387 C 0.29511 0.77287 0.681 0.0
C388 C 0.67464 0.83471 0.78964 0.0
C389 C 0.69385 0.81779 0.82885 0.0
C390 C 0.70685 0.86079 0.75347 0.0
C391 C 0.75931 0.871 0.75551 0.0
H392 H 0.63473 0.82965 0.78803 0.0
H393 H 0.69089 0.87518 0.72488 0.0
S394 S 0.82789 0.8322 0.84949 0.0
N395 N 0.76804 0.81055 0.86648 0.0
N396 N 0.82869 0.85991 0.79855 0.0
C397 C 0.77863 0.85168 0.79308 0.0
C398 C 0.74582 0.825 0.82983 0.0
C399 C 0.8076 0.31554 0.26769 0.0
C400 C 0.86028 0.32984 0.27295 0.0
C401 C 0.78395 0.28465 0.23082 0.0
C402 C 0.81166 0.26585 0.19802 0.0
H403 H 0.7834 0.3244 0.29447 0.0
H404 H 0.74311 0.27173 0.23082 0.0
S405 S 0.95076 0.30013 0.18891 0.0
N406 N 0.9401 0.32999 0.23652 0.0
N407 N 0.89477 0.26932 0.16806 0.0
C408 C 0.86449 0.28311 0.19987 0.0
C409 C 0.88896 0.31569 0.23711 0.0
C410 C 0.42836 0.61099 0.38144 0.0
C411 C 0.43782 0.6625 0.3823 0.0
C412 C 0.44367 0.58617 0.41888 0.0
C413 C 0.46902 0.61137 0.45942 0.0
H414 H 0.40989 0.58971 0.35121 0.0
H415 H 0.43609 0.54691 0.41561 0.0
S416 S 0.49952 0.74605 0.48082 0.0
N417 N 0.47245 0.73693 0.42879 0.0
N418 N 0.49984 0.69161 0.49783 0.0
C419 C 0.47726 0.66268 0.46084 0.0
C420 C 0.46215 0.68766 0.42291 0.0
C421 C 0.11031 0.44713 0.89059 0.0
C422 C 0.13978 0.48048 0.85683 0.0
C423 C 0.09135 0.46352 0.93248 0.0
C424 C 0.1006 0.51407 0.94264 0.0
H425 H 0.10193 0.40802 0.88483 0.0
H426 H 0.06887 0.43604 0.95698 0.0
S427 S 0.17587 0.61658 0.86544 0.0
N428 N 0.17749 0.56661 0.83665 0.0
N429 N 0.1419 0.59715 0.91428 0.0
C430 C 0.1301 0.54769 0.90897 0.0
C431 C 0.14958 0.53099 0.86655 0.0
C432 C 0.5618 0.87706 0.93842 0.0
C433 C 0.59148 0.8537 0.96186 0.0
C434 C 0.54838 0.9157 0.96011 0.0
C435 C 0.56468 0.93279 1.00586 0.0
H436 H 0.54958 0.86591 0.90268 0.0
H437 H 0.52623 0.93303 0.94041 0.0
S438 S 0.64248 0.88291 0.08261 0.0
N439 N 0.6363 0.85012 1.0333 0.0
N440 N 0.6107 0.92123 0.07458 0.0
C441 C 0.59331 0.90857 1.03006 0.0
C442 C 0.60678 0.86946 1.00798 0.0
C443 C 0.98651 0.23229 0.45266 0.0
C444 C 0.94253 0.23857 0.47293 0.0
C445 C 1.00239 0.1928 0.46562 0.0
C446 C 0.97437 0.15769 0.49864 0.0
H447 H 1.00909 0.25819 0.42688 0.0
H448 H 0.03679 0.18971 0.44952 0.0
S449 S 0.85705 0.15858 0.56272 0.0
N450 N 0.87192 0.20728 0.52833 0.0
N451 N 0.90106 0.1328 0.55219 0.0
C452 C 0.93031 0.1637 0.5191 0.0
C453 C 0.91464 0.20424 0.50641 0.0
C454 C 0.25041 0.62388 0.16399 0.0
C455 C 0.26512 0.67354 0.179 0.0
C456 C 0.20582 0.60197 0.13812 0.0
C457 C 0.17325 0.62839 0.12567 0.0
H458 H 0.274 0.60178 0.17161 0.0
H459 H 0.19692 0.56373 0.12774 0.0
S460 S 0.19151 0.75836 0.15981 0.0
N461 N 0.24062 0.74734 0.18186 0.0
N462 N 0.15861 0.70698 0.13309 0.0
C463 C 0.18714 0.67783 0.14115 0.0
C464 C 0.2323 0.70003 0.16768 0.0
C465 C 0.32718 0.40828 0.67096 0.0
C466 C 0.29044 0.43164 0.67816 0.0
C467 C 0.37308 0.4316 0.64694 0.0
C468 C 0.38457 0.47952 0.62913 0.0
H469 H 0.32023 0.37133 0.68378 0.0
H470 H 0.39997 0.41189 0.64263 0.0
S471 S 0.30003 0.55568 0.63578 0.0
N472 N 0.26788 0.50473 0.66368 0.0
N473 N 0.35437 0.54894 0.61918 0.0
C474 C 0.34828 0.50347 0.63623 0.0
C475 C 0.3013 0.47952 0.66056 0.0
C476 C 0.74917 0.7173 0.96627 0.0
C477 C 0.71535 0.67446 0.9462 0.0
C478 C 0.80032 0.72205 0.97167 0.0
C479 C 0.81913 0.68405 0.95747 0.0
H480 H 0.73598 0.74688 0.97886 0.0
H481 H 0.82482 0.75478 0.98868 0.0
S482 S 0.7476 0.56704 0.89858 0.0
N483 N 0.70557 0.59533 0.90871 0.0
N484 N 0.80111 0.60409 0.91937 0.0
C485 C 0.78621 0.64211 0.93567 0.0
C486 C 0.7345 0.6374 0.9299 0.0
C487 C 0.39066 0.85492 0.18474 0.0
C488 C 0.41789 0.82451 0.20052 0.0
C489 C 0.41452 0.90144 0.16428 0.0
C490 C 0.46735 0.92163 0.15957 0.0
H491 H 0.3499 0.84231 0.18729 0.0
H492 H 0.39102 0.92167 0.15142 0.0
S493 S 0.55782 0.85997 0.19653 0.0
N494 N 0.50218 0.81993 0.21017 0.0
N495 N 0.54663 0.90801 0.17409 0.0
C496 C 0.49554 0.89315 0.17713 0.0
C497 C 0.47109 0.84486 0.19709 0.0
C498 C 0.1127 0.23899 0.70166 0.0
C499 C 0.13858 0.2808 0.67454 0.0
C500 C 0.09118 0.19231 0.68018 0.0
C501 C 0.09569 0.18524 0.63087 0.0
H502 H 0.10993 0.24206 0.73989 0.0
H503 H 0.0717 0.16132 0.70246 0.0
S504 S 0.15247 0.28281 0.54274 0.0
N505 N 0.1611 0.31204 0.59432 0.0
N506 N 0.12367 0.22443 0.55516 0.0
C507 C 0.12002 0.22664 0.60326 0.0
C508 C 0.14062 0.27425 0.62473 0.0
C509 C 0.80624 0.43569 0.40881 0.0
C510 C 0.81844 0.39384 0.42154 0.0
C511 C 0.75978 0.44104 0.42237 0.0
C512 C 0.724 0.40492 0.4494 0.0
H513 H 0.83166 0.46312 0.38598 0.0
H514 H 0.75113 0.47292 0.41037 0.0
S515 S 0.7382 0.28976 0.49395 0.0
N516 N 0.79142 0.31662 0.46445 0.0
N517 N 0.70465 0.32726 0.49043 0.0
C518 C 0.73681 0.3644 0.46473 0.0
C519 C 0.78395 0.35878 0.45077 0.0
loop_
_geom_bond_atom_site_label_1
_geom_bond_atom_site_label_2
_geom_bond_distance
_geom_bond_site_symmetry_2
_ccdc_geom_bond_type
H0 C5 0.930 . S
H1 C8 0.930 . S
H2 C10 0.930 . S
H3 C4 1.016 . S
C4 H3 1.016 . S
C4 N11 1.286 . S
C5 H0 0.930 . S
C5 C6 1.397 . S
C5 C7 1.361 . S
C6 C5 1.397 . S
C6 C10 1.390 . S
C7 C5 1.361 . S
C7 C8 1.393 . S
C7 N11 1.413 . S
C8 H1 0.930 . S
C8 C7 1.393 . S
C8 C9 1.399 . S
C9 C8 1.399 . S
C9 C10 1.381 . S
C10 H2 0.930 . S
C10 C6 1.390 . S
C10 C9 1.381 . S
N11 C4 1.286 . S
N11 C7 1.413 . S
H12 C17 0.930 . S
H13 C20 0.930 . S
H14 C22 0.930 . S
H15 C16 1.016 . S
C16 H15 1.016 . S
C16 N23 1.286 . S
C17 H12 0.930 . S
C17 C18 1.397 . S
C17 C19 1.361 . S
C18 C17 1.397 . S
C18 C22 1.390 . S
C19 C17 1.361 . S
C19 C20 1.393 . S
C19 N23 1.413 . S
C20 H13 0.930 . S
C20 C19 1.393 . S
C20 C21 1.399 . S
C21 C20 1.399 . S
C21 C22 1.381 . S
C22 H14 0.930 . S
C22 C18 1.390 . S
C22 C21 1.381 . S
N23 C16 1.286 . S
N23 C19 1.413 . S
H24 C29 0.930 . S
H25 C32 0.930 . S
H26 C34 0.930 . S
H27 C28 1.016 . S
C28 H27 1.016 . S
C28 N35 1.286 . S
C29 H24 0.930 . S
C29 C30 1.397 . S
C29 C31 1.361 . S
C30 C29 1.397 . S
C30 C34 1.390 . S
C31 C29 1.361 . S
C31 C32 1.393 . S
C31 N35 1.413 . S
C32 H25 0.930 . S
C32 C31 1.393 . S
C32 C33 1.399 . S
C33 C32 1.399 . S
C33 C34 1.381 . S
C34 H26 0.930 . S
C34 C30 1.390 . S
C34 C33 1.381 . S
N35 C28 1.286 . S
N35 C31 1.413 . S
H36 C41 0.930 . S
H37 C44 0.930 . S
H38 C46 0.930 . S
H39 C40 1.016 . S
C40 H39 1.016 . S
C40 N47 1.286 . S
C41 H36 0.930 . S
C41 C42 1.397 . S
C41 C43 1.361 . S
C42 C41 1.397 . S
C42 C46 1.390 . S
C43 C41 1.361 . S
C43 C44 1.393 . S
C43 N47 1.413 . S
C44 H37 0.930 . S
C44 C43 1.393 . S
C44 C45 1.399 . S
C45 C44 1.399 . S
C45 C46 1.381 . S
C46 H38 0.930 . S
C46 C42 1.390 . S
C46 C45 1.381 . S
N47 C40 1.286 . S
N47 C43 1.413 . S
H48 C53 0.930 . S
H49 C56 0.930 . S
H50 C58 0.930 . S
H51 C52 1.016 . S
C52 H51 1.016 . S
C52 N59 1.286 . S
C53 H48 0.930 . S
C53 C54 1.397 . S
C53 C55 1.361 . S
C54 C53 1.397 . S
C54 C58 1.390 . S
C55 C53 1.361 . S
C55 C56 1.393 . S
C55 N59 1.413 . S
C56 H49 0.930 . S
C56 C55 1.393 . S
C56 C57 1.399 . S
C57 C56 1.399 . S
C57 C58 1.381 . S
C58 H50 0.930 . S
C58 C54 1.390 . S
C58 C57 1.381 . S
N59 C52 1.286 . S
N59 C55 1.413 . S
H60 C65 0.930 . S
H61 C68 0.930 . S
H62 C70 0.930 . S
H63 C64 1.016 . S
C64 H63 1.016 . S
C64 N71 1.286 . S
C65 H60 0.930 . S
C65 C66 1.397 . S
C65 C67 1.361 . S
C66 C65 1.397 . S
C66 C70 1.390 . S
C67 C65 1.361 . S
C67 C68 1.393 . S
C67 N71 1.413 . S
C68 H61 0.930 . S
C68 C67 1.393 . S
C68 C69 1.399 . S
C69 C68 1.399 . S
C69 C70 1.381 . S
C70 H62 0.930 . S
C70 C66 1.390 . S
C70 C69 1.381 . S
N71 C64 1.286 . S
N71 C67 1.413 . S
H72 C77 0.930 . S
H73 C80 0.930 . S
H74 C82 0.930 . S
H75 C76 1.016 . S
C76 H75 1.016 . S
C76 N83 1.286 . S
C77 H72 0.930 . S
C77 C78 1.397 . S
C77 C79 1.361 . S
C78 C77 1.397 . S
C78 C82 1.390 . S
C79 C77 1.361 . S
C79 C80 1.393 . S
C79 N83 1.413 . S
C80 H73 0.930 . S
C80 C79 1.393 . S
C80 C81 1.399 . S
C81 C80 1.399 . S
C81 C82 1.381 . S
C82 H74 0.930 . S
C82 C78 1.390 . S
C82 C81 1.381 . S
N83 C76 1.286 . S
N83 C79 1.413 . S
H84 C89 0.930 . S
H85 C92 0.930 . S
H86 C94 0.930 . S
H87 C88 1.016 . S
C88 H87 1.016 . S
C88 N95 1.286 . S
C89 H84 0.930 . S
C89 C90 1.397 . S
C89 C91 1.361 . S
C90 C89 1.397 . S
C90 C94 1.390 . S
C91 C89 1.361 . S
C91 C92 1.393 . S
C91 N95 1.413 . S
C92 H85 0.930 . S
C92 C91 1.393 . S
C92 C93 1.399 . S
C93 C92 1.399 . S
C93 C94 1.381 . S
C94 H86 0.930 . S
C94 C90 1.390 . S
C94 C93 1.381 . S
N95 C88 1.286 . S
N95 C91 1.413 . S
Tb96 C105 2.764 . S
Tb96 O106 2.325 . S
Tb96 O109 2.303 . S
Tb96 O113 2.322 1_545 S
Tb96 O114 2.349 1_545 S
Tb96 O117 2.415 . S
Tb96 O118 2.399 . S
Tb97 O107 2.327 . S
Tb97 O108 2.354 . S
Tb97 O110 2.410 1_545 S
Tb97 O111 2.398 1_545 S
Tb97 O112 2.321 1_545 S
Tb97 O115 2.299 1_545 S
Tb97 C126 2.761 1_545 S
C98 O114 1.261 1_655 S
C98 O115 1.257 . S
C99 C102 1.358 . S
C99 C103 1.332 . S
C99 C105 1.504 . S
C100 C101 1.373 . S
C100 C104 1.308 . S
C101 C100 1.373 . S
C101 C102 1.429 . S
C101 H128 0.932 . S
C102 C99 1.358 . S
C102 C101 1.429 . S
C102 H129 0.930 . S
C103 C99 1.332 . S
C103 C104 1.394 . S
C103 H130 0.932 . S
C104 C100 1.308 . S
C104 C103 1.394 . S
C104 H131 0.929 . S
C105 Tb96 2.764 . S
C105 C99 1.504 . S
C105 O117 1.239 . S
C105 O118 1.263 . S
O106 Tb96 2.325 . S
O106 C116 1.236 1_455 S
O107 Tb97 2.327 . S
O107 C116 1.257 . S
O108 Tb97 2.354 . S
O108 C119 1.261 1_655 S
O109 Tb96 2.303 . S
O109 C119 1.257 . S
O110 Tb97 2.410 1_565 S
O110 C126 1.239 . S
O111 Tb97 2.398 1_565 S
O111 C126 1.263 . S
O112 Tb97 2.321 1_565 S
O112 C127 1.236 1_655 S
O113 Tb96 2.322 1_565 S
O113 C127 1.257 . S
O114 Tb96 2.349 1_565 S
O114 C98 1.261 1_455 S
O115 Tb97 2.299 1_565 S
O115 C98 1.257 . S
C116 O106 1.236 1_655 S
C116 O107 1.257 . S
O117 Tb96 2.415 . S
O117 C105 1.239 . S
O118 Tb96 2.399 . S
O118 C105 1.263 . S
C119 O108 1.261 1_455 S
C119 O109 1.257 . S
C120 C123 1.358 . S
C120 C124 1.332 . S
C120 C126 1.504 . S
C121 C122 1.373 . S
C121 C125 1.308 . S
C122 C121 1.373 . S
C122 C123 1.429 . S
C122 H132 0.932 . S
C123 C120 1.358 . S
C123 C122 1.429 . S
C123 H133 0.930 . S
C124 C120 1.332 . S
C124 C125 1.394 . S
C124 H134 0.932 . S
C125 C121 1.308 . S
C125 C124 1.394 . S
C125 H135 0.929 . S
C126 Tb97 2.761 1_565 S
C126 O110 1.239 . S
C126 O111 1.263 . S
C126 C120 1.504 . S
C127 O112 1.236 1_455 S
C127 O113 1.257 . S
H128 C101 0.932 . S
H129 C102 0.930 . S
H130 C103 0.932 . S
H131 C104 0.929 . S
H132 C122 0.932 . S
H133 C123 0.930 . S
H134 C124 0.932 . S
H135 C125 0.929 . S
Tb136 C145 2.764 . S
Tb136 O146 2.330 . S
Tb136 O149 2.303 . S
Tb136 O153 2.322 1_545 S
Tb136 O154 2.349 1_545 S
Tb136 O157 2.415 . S
Tb136 O158 2.399 . S
Tb137 O147 2.322 . S
Tb137 O148 2.349 1_556 S
Tb137 O150 2.415 1_545 S
Tb137 O151 2.399 1_545 S
Tb137 O152 2.325 1_546 S
Tb137 O155 2.303 1_545 S
Tb137 C166 2.764 1_545 S
C138 O154 1.261 1_556 S
C138 O155 1.257 . S
C139 C142 1.358 . S
C139 C143 1.332 . S
C139 C145 1.504 . S
C140 C141 1.373 . S
C140 C144 1.308 . S
C141 C140 1.373 . S
C141 C142 1.429 . S
C141 H168 0.932 . S
C142 C139 1.358 . S
C142 C141 1.429 . S
C142 H169 0.930 . S
C143 C139 1.332 . S
C143 C144 1.394 . S
C143 H170 0.932 . S
C144 C140 1.308 . S
C144 C143 1.394 . S
C144 H171 0.929 . S
C145 Tb136 2.764 . S
C145 C139 1.504 . S
C145 O157 1.239 . S
C145 O158 1.263 . S
O146 Tb136 2.330 . S
O146 C156 1.231 1_554 S
O147 Tb137 2.322 . S
O147 C156 1.257 . S
O148 Tb137 2.349 1_554 S
O148 C159 1.261 . S
O149 Tb136 2.303 . S
O149 C159 1.257 . S
O150 Tb137 2.415 1_565 S
O150 C166 1.239 . S
O151 Tb137 2.399 1_565 S
O151 C166 1.263 . S
O152 Tb137 2.325 1_564 S
O152 C167 1.236 . S
O153 Tb136 2.322 1_565 S
O153 C167 1.257 . S
O154 Tb136 2.349 1_565 S
O154 C138 1.261 1_554 S
O155 Tb137 2.303 1_565 S
O155 C138 1.257 . S
C156 O146 1.231 1_556 S
C156 O147 1.257 . S
O157 Tb136 2.415 . S
O157 C145 1.239 . S
O158 Tb136 2.399 . S
O158 C145 1.263 . S
C159 O148 1.261 . S
C159 O149 1.257 . S
C160 C163 1.358 . S
C160 C164 1.332 . S
C160 C166 1.504 . S
C161 C162 1.373 . S
C161 C165 1.308 . S
C162 C161 1.373 . S
C162 C163 1.429 . S
C162 H172 0.932 . S
C163 C160 1.358 . S
C163 C162 1.429 . S
C163 H173 0.930 . S
C164 C160 1.332 . S
C164 C165 1.394 . S
C164 H174 0.932 . S
C165 C161 1.308 . S
C165 C164 1.394 . S
C165 H175 0.929 . S
C166 Tb137 2.764 1_565 S
C166 O150 1.239 . S
C166 O151 1.263 . S
C166 C160 1.504 . S
C167 O152 1.236 . S
C167 O153 1.257 . S
H168 C141 0.932 . S
H169 C142 0.930 . S
H170 C143 0.932 . S
H171 C144 0.929 . S
H172 C162 0.932 . S
H173 C163 0.930 . S
H174 C164 0.932 . S
H175 C165 0.929 . S
Tb176 C185 2.764 . S
Tb176 O186 2.325 . S
Tb176 O189 2.303 . S
Tb176 O193 2.322 . S
Tb176 O194 2.349 . S
Tb176 O197 2.415 . S
Tb176 O198 2.399 . S
Tb177 O187 2.322 . S
Tb177 O188 2.349 . S
Tb177 O190 2.415 . S
Tb177 O191 2.399 . S
Tb177 O192 2.325 . S
Tb177 O195 2.303 . S
Tb177 C206 2.764 . S
C178 O194 1.261 . S
C178 O195 1.257 . S
C179 C182 1.358 . S
C179 C183 1.332 . S
C179 C185 1.504 . S
C180 C181 1.373 . S
C180 C184 1.308 . S
C181 C180 1.373 . S
C181 C182 1.429 . S
C181 H208 0.932 . S
C182 C179 1.358 . S
C182 C181 1.429 . S
C182 H209 0.930 . S
C183 C179 1.332 . S
C183 C184 1.394 . S
C183 H210 0.932 . S
C184 C180 1.308 . S
C184 C183 1.394 . S
C184 H211 0.929 . S
C185 Tb176 2.764 . S
C185 C179 1.504 . S
C185 O197 1.239 . S
C185 O198 1.263 . S
O186 Tb176 2.325 . S
O186 C196 1.236 . S
O187 Tb177 2.322 . S
O187 C196 1.257 . S
O188 Tb177 2.349 . S
O188 C199 1.261 . S
O189 Tb176 2.303 . S
O189 C199 1.257 . S
O190 Tb177 2.415 . S
O190 C206 1.239 . S
O191 Tb177 2.399 . S
O191 C206 1.263 . S
O192 Tb177 2.325 . S
O192 C207 1.236 . S
O193 Tb176 2.322 . S
O193 C207 1.257 . S
O194 Tb176 2.349 . S
O194 C178 1.261 . S
O195 Tb177 2.303 . S
O195 C178 1.257 . S
C196 O186 1.236 . S
C196 O187 1.257 . S
O197 Tb176 2.415 . S
O197 C185 1.239 . S
O198 Tb176 2.399 . S
O198 C185 1.263 . S
C199 O188 1.261 . S
C199 O189 1.257 . S
C200 C203 1.358 . S
C200 C204 1.332 . S
C200 C206 1.504 . S
C201 C202 1.373 . S
C201 C205 1.308 . S
C202 C201 1.373 . S
C202 C203 1.429 . S
C202 H212 0.932 . S
C203 C200 1.358 . S
C203 C202 1.429 . S
C203 H213 0.930 . S
C204 C200 1.332 . S
C204 C205 1.394 . S
C204 H214 0.932 . S
C205 C201 1.308 . S
C205 C204 1.394 . S
C205 H215 0.929 . S
C206 Tb177 2.764 . S
C206 O190 1.239 . S
C206 O191 1.263 . S
C206 C200 1.504 . S
C207 O192 1.236 . S
C207 O193 1.257 . S
H208 C181 0.932 . S
H209 C182 0.930 . S
H210 C183 0.932 . S
H211 C184 0.929 . S
H212 C202 0.932 . S
H213 C203 0.930 . S
H214 C204 0.932 . S
H215 C205 0.929 . S
Tb216 C225 2.764 1_455 S
Tb216 O226 2.325 1_455 S
Tb216 O229 2.303 1_456 S
Tb216 O233 2.322 1_556 S
Tb216 O234 2.349 . S
Tb216 O237 2.415 1_455 S
Tb216 O238 2.399 1_455 S
Tb217 O227 2.322 1_455 S
Tb217 O228 2.349 1_455 S
Tb217 O230 2.415 . S
Tb217 O231 2.399 . S
Tb217 O232 2.325 . S
Tb217 O235 2.303 1_554 S
Tb217 C246 2.764 . S
C218 O234 1.261 . S
C218 O235 1.257 . S
C219 C222 1.358 . S
C219 C223 1.332 . S
C219 C225 1.504 . S
C220 C221 1.373 . S
C220 C224 1.308 . S
C221 C220 1.373 . S
C221 C222 1.429 . S
C221 H248 0.932 . S
C222 C219 1.358 . S
C222 C221 1.429 . S
C222 H249 0.930 . S
C223 C219 1.332 . S
C223 C224 1.394 . S
C223 H250 0.932 . S
C224 C220 1.308 . S
C224 C223 1.394 . S
C224 H251 0.929 . S
C225 Tb216 2.764 1_655 S
C225 C219 1.504 . S
C225 O237 1.239 . S
C225 O238 1.263 . S
O226 Tb216 2.325 1_655 S
O226 C236 1.236 . S
O227 Tb217 2.322 1_655 S
O227 C236 1.257 1_554 S
O228 Tb217 2.349 1_655 S
O228 C239 1.261 . S
O229 Tb216 2.303 1_654 S
O229 C239 1.257 . S
O230 Tb217 2.415 . S
O230 C246 1.239 . S
O231 Tb217 2.399 . S
O231 C246 1.263 . S
O232 Tb217 2.325 . S
O232 C247 1.236 . S
O233 Tb216 2.322 1_554 S
O233 C247 1.257 . S
O234 Tb216 2.349 . S
O234 C218 1.261 . S
O235 Tb217 2.303 1_556 S
O235 C218 1.257 . S
C236 O226 1.236 . S
C236 O227 1.257 1_556 S
O237 Tb216 2.415 1_655 S
O237 C225 1.239 . S
O238 Tb216 2.399 1_655 S
O238 C225 1.263 . S
C239 O228 1.261 . S
C239 O229 1.257 . S
C240 C243 1.358 . S
C240 C244 1.332 . S
C240 C246 1.504 . S
C241 C242 1.373 . S
C241 C245 1.308 . S
C242 C241 1.373 . S
C242 C243 1.429 . S
C242 H252 0.932 . S
C243 C240 1.358 . S
C243 C242 1.429 . S
C243 H253 0.930 . S
C244 C240 1.332 . S
C244 C245 1.394 . S
C244 H254 0.932 . S
C245 C241 1.308 . S
C245 C244 1.394 . S
C245 H255 0.929 . S
C246 Tb217 2.764 . S
C246 O230 1.239 . S
C246 O231 1.263 . S
C246 C240 1.504 . S
C247 O232 1.236 . S
C247 O233 1.257 . S
H248 C221 0.932 . S
H249 C222 0.930 . S
H250 C223 0.932 . S
H251 C224 0.929 . S
H252 C242 0.932 . S
H253 C243 0.930 . S
H254 C244 0.932 . S
H255 C245 0.929 . S
C256 C257 1.369 . S
C256 C258 1.419 . S
C256 H260 0.930 . S
C257 C256 1.369 . S
C257 C266 1.429 . S
C258 C256 1.419 . S
C258 C259 1.363 . S
C258 H261 0.929 . S
C259 C258 1.363 . S
C259 C265 1.428 . S
H260 C256 0.930 . S
H261 C258 0.929 . S
S262 N263 1.613 . S
S262 N264 1.610 . S
N263 S262 1.613 . S
N263 C266 1.350 . S
N264 S262 1.610 . S
N264 C265 1.351 . S
C265 C259 1.428 . S
C265 N264 1.351 . S
C265 C266 1.434 . S
C266 C257 1.429 . S
C266 N263 1.350 . S
C266 C265 1.434 . S
C267 C268 1.369 . S
C267 C269 1.419 . S
C267 H271 0.930 . S
C268 C267 1.369 . S
C268 C277 1.429 . S
C269 C267 1.419 . S
C269 C270 1.363 . S
C269 H272 0.929 . S
C270 C269 1.363 . S
C270 C276 1.428 . S
H271 C267 0.930 . S
H272 C269 0.929 . S
S273 N274 1.613 . S
S273 N275 1.610 . S
N274 S273 1.613 . S
N274 C277 1.350 . S
N275 S273 1.610 . S
N275 C276 1.351 . S
C276 C270 1.428 . S
C276 N275 1.351 . S
C276 C277 1.434 . S
C277 C268 1.429 . S
C277 N274 1.350 . S
C277 C276 1.434 . S
C278 C279 1.369 . S
C278 C280 1.419 . S
C278 H282 0.930 . S
C279 C278 1.369 . S
C279 C288 1.429 . S
C280 C278 1.419 . S
C280 C281 1.363 . S
C280 H283 0.929 . S
C281 C280 1.363 . S
C281 C287 1.428 . S
H282 C278 0.930 . S
H283 C280 0.929 . S
S284 N285 1.613 . S
S284 N286 1.610 . S
N285 S284 1.613 . S
N285 C288 1.350 . S
N286 S284 1.610 . S
N286 C287 1.351 . S
C287 C281 1.428 . S
C287 N286 1.351 . S
C287 C288 1.434 . S
C288 C279 1.429 . S
C288 N285 1.350 . S
C288 C287 1.434 . S
C289 C290 1.369 . S
C289 C291 1.419 . S
C289 H293 0.930 . S
C290 C289 1.369 . S
C290 C299 1.429 . S
C291 C289 1.419 . S
C291 C292 1.363 . S
C291 H294 0.929 . S
C292 C291 1.363 . S
C292 C298 1.428 . S
H293 C289 0.930 . S
H294 C291 0.929 . S
S295 N296 1.613 . S
S295 N297 1.610 . S
N296 S295 1.613 . S
N296 C299 1.350 . S
N297 S295 1.610 . S
N297 C298 1.351 . S
C298 C292 1.428 . S
C298 N297 1.351 . S
C298 C299 1.434 . S
C299 C290 1.429 . S
C299 N296 1.350 . S
C299 C298 1.434 . S
C300 C301 1.369 . S
C300 C302 1.419 . S
C300 H304 0.930 . S
C301 C300 1.369 . S
C301 C310 1.429 . S
C302 C300 1.419 . S
C302 C303 1.363 . S
C302 H305 0.929 . S
C303 C302 1.363 . S
C303 C309 1.428 . S
H304 C300 0.930 . S
H305 C302 0.929 . S
S306 N307 1.613 . S
S306 N308 1.610 . S
N307 S306 1.613 . S
N307 C310 1.350 . S
N308 S306 1.610 . S
N308 C309 1.351 . S
C309 C303 1.428 . S
C309 N308 1.351 . S
C309 C310 1.434 . S
C310 C301 1.429 . S
C310 N307 1.350 . S
C310 C309 1.434 . S
C311 C312 1.369 1_655 S
C311 C313 1.419 . S
C311 H315 0.930 . S
C312 C311 1.369 1_455 S
C312 C321 1.429 . S
C313 C311 1.419 . S
C313 C314 1.363 1_655 S
C313 H316 0.929 . S
C314 C313 1.363 1_455 S
C314 C320 1.428 . S
H315 C311 0.930 . S
H316 C313 0.929 . S
S317 N318 1.613 . S
S317 N319 1.610 . S
N318 S317 1.613 . S
N318 C321 1.350 . S
N319 S317 1.610 . S
N319 C320 1.351 . S
C320 C314 1.428 . S
C320 N319 1.351 . S
C320 C321 1.434 . S
C321 C312 1.429 . S
C321 N318 1.350 . S
C321 C320 1.434 . S
C322 C323 1.369 . S
C322 C324 1.419 . S
C322 H326 0.930 . S
C323 C322 1.369 . S
C323 C332 1.429 . S
C324 C322 1.419 . S
C324 C325 1.363 . S
C324 H327 0.929 . S
C325 C324 1.363 . S
C325 C331 1.428 . S
H326 C322 0.930 . S
H327 C324 0.929 . S
S328 N329 1.613 . S
S328 N330 1.610 . S
N329 S328 1.613 . S
N329 C332 1.350 . S
N330 S328 1.610 . S
N330 C331 1.351 . S
C331 C325 1.428 . S
C331 N330 1.351 . S
C331 C332 1.434 . S
C332 C323 1.429 . S
C332 N329 1.350 . S
C332 C331 1.434 . S
C333 C334 1.369 . S
C333 C335 1.419 . S
C333 H337 0.930 . S
C334 C333 1.369 . S
C334 C343 1.429 . S
C335 C333 1.419 . S
C335 C336 1.363 . S
C335 H338 0.929 . S
C336 C335 1.363 . S
C336 C342 1.428 . S
H337 C333 0.930 . S
H338 C335 0.929 . S
S339 N340 1.613 . S
S339 N341 1.610 . S
N340 S339 1.613 . S
N340 C343 1.350 . S
N341 S339 1.610 . S
N341 C342 1.351 . S
C342 C336 1.428 . S
C342 N341 1.351 . S
C342 C343 1.434 . S
C343 C334 1.429 . S
C343 N340 1.350 . S
C343 C342 1.434 . S
C344 C345 1.369 . S
C344 C346 1.419 . S
C344 H348 0.930 . S
C345 C344 1.369 . S
C345 C354 1.429 . S
C346 C344 1.419 . S
C346 C347 1.363 . S
C346 H349 0.929 . S
C347 C346 1.363 . S
C347 C353 1.428 . S
H348 C344 0.930 . S
H349 C346 0.929 . S
S350 N351 1.613 . S
S350 N352 1.610 . S
N351 S350 1.613 . S
N351 C354 1.350 . S
N352 S350 1.610 . S
N352 C353 1.351 . S
C353 C347 1.428 . S
C353 N352 1.351 . S
C353 C354 1.434 . S
C354 C345 1.429 . S
C354 N351 1.350 . S
C354 C353 1.434 . S
C355 C356 1.369 . S
C355 C357 1.419 . S
C355 H359 0.930 . S
C356 C355 1.369 . S
C356 C365 1.429 . S
C357 C355 1.419 . S
C357 C358 1.363 . S
C357 H360 0.929 . S
C358 C357 1.363 . S
C358 C364 1.428 . S
H359 C355 0.930 . S
H360 C357 0.929 . S
S361 N362 1.613 . S
S361 N363 1.610 . S
N362 S361 1.613 . S
N362 C365 1.350 . S
N363 S361 1.610 . S
N363 C364 1.351 . S
C364 C358 1.428 . S
C364 N363 1.351 . S
C364 C365 1.434 . S
C365 C356 1.429 . S
C365 N362 1.350 . S
C365 C364 1.434 . S
C366 C367 1.369 . S
C366 C368 1.419 . S
C366 H370 0.930 . S
C367 C366 1.369 . S
C367 C376 1.429 . S
C368 C366 1.419 . S
C368 C369 1.363 . S
C368 H371 0.929 . S
C369 C368 1.363 . S
C369 C375 1.428 . S
H370 C366 0.930 . S
H371 C368 0.929 . S
S372 N373 1.613 . S
S372 N374 1.610 . S
N373 S372 1.613 . S
N373 C376 1.350 . S
N374 S372 1.610 . S
N374 C375 1.351 . S
C375 C369 1.428 . S
C375 N374 1.351 . S
C375 C376 1.434 . S
C376 C367 1.429 . S
C376 N373 1.350 . S
C376 C375 1.434 . S
C377 C378 1.369 . S
C377 C379 1.419 . S
C377 H381 0.930 . S
C378 C377 1.369 . S
C378 C387 1.429 . S
C379 C377 1.419 . S
C379 C380 1.363 . S
C379 H382 0.929 . S
C380 C379 1.363 . S
C380 C386 1.428 . S
H381 C377 0.930 . S
H382 C379 0.929 . S
S383 N384 1.613 . S
S383 N385 1.610 . S
N384 S383 1.613 . S
N384 C387 1.350 . S
N385 S383 1.610 . S
N385 C386 1.351 . S
C386 C380 1.428 . S
C386 N385 1.351 . S
C386 C387 1.434 . S
C387 C378 1.429 . S
C387 N384 1.350 . S
C387 C386 1.434 . S
C388 C389 1.369 . S
C388 C390 1.419 . S
C388 H392 0.930 . S
C389 C388 1.369 . S
C389 C398 1.429 . S
C390 C388 1.419 . S
C390 C391 1.363 . S
C390 H393 0.929 . S
C391 C390 1.363 . S
C391 C397 1.428 . S
H392 C388 0.930 . S
H393 C390 0.929 . S
S394 N395 1.613 . S
S394 N396 1.610 . S
N395 S394 1.613 . S
N395 C398 1.350 . S
N396 S394 1.610 . S
N396 C397 1.351 . S
C397 C391 1.428 . S
C397 N396 1.351 . S
C397 C398 1.434 . S
C398 C389 1.429 . S
C398 N395 1.350 . S
C398 C397 1.434 . S
C399 C400 1.369 . S
C399 C401 1.419 . S
C399 H403 0.930 . S
C400 C399 1.369 . S
C400 C409 1.429 . S
C401 C399 1.419 . S
C401 C402 1.363 . S
C401 H404 0.929 . S
C402 C401 1.363 . S
C402 C408 1.428 . S
H403 C399 0.930 . S
H404 C401 0.929 . S
S405 N406 1.613 . S
S405 N407 1.610 . S
N406 S405 1.613 . S
N406 C409 1.350 . S
N407 S405 1.610 . S
N407 C408 1.351 . S
C408 C402 1.428 . S
C408 N407 1.351 . S
C408 C409 1.434 . S
C409 C400 1.429 . S
C409 N406 1.350 . S
C409 C408 1.434 . S
C410 C411 1.369 . S
C410 C412 1.419 . S
C410 H414 0.930 . S
C411 C410 1.369 . S
C411 C420 1.429 . S
C412 C410 1.419 . S
C412 C413 1.363 . S
C412 H415 0.929 . S
C413 C412 1.363 . S
C413 C419 1.428 . S
H414 C410 0.930 . S
H415 C412 0.929 . S
S416 N417 1.613 . S
S416 N418 1.610 . S
N417 S416 1.613 . S
N417 C420 1.350 . S
N418 S416 1.610 . S
N418 C419 1.351 . S
C419 C413 1.428 . S
C419 N418 1.351 . S
C419 C420 1.434 . S
C420 C411 1.429 . S
C420 N417 1.350 . S
C420 C419 1.434 . S
C421 C422 1.369 . S
C421 C423 1.419 . S
C421 H425 0.930 . S
C422 C421 1.369 . S
C422 C431 1.429 . S
C423 C421 1.419 . S
C423 C424 1.363 . S
C423 H426 0.929 . S
C424 C423 1.363 . S
C424 C430 1.428 . S
H425 C421 0.930 . S
H426 C423 0.929 . S
S427 N428 1.613 . S
S427 N429 1.610 . S
N428 S427 1.613 . S
N428 C431 1.350 . S
N429 S427 1.610 . S
N429 C430 1.351 . S
C430 C424 1.428 . S
C430 N429 1.351 . S
C430 C431 1.434 . S
C431 C422 1.429 . S
C431 N428 1.350 . S
C431 C430 1.434 . S
C432 C433 1.369 . S
C432 C434 1.419 . S
C432 H436 0.930 . S
C433 C432 1.369 . S
C433 C442 1.429 . S
C434 C432 1.419 . S
C434 C435 1.363 . S
C434 H437 0.929 . S
C435 C434 1.363 . S
C435 C441 1.428 . S
H436 C432 0.930 . S
H437 C434 0.929 . S
S438 N439 1.613 1_554 S
S438 N440 1.610 1_554 S
N439 S438 1.613 1_556 S
N439 C442 1.350 . S
N440 S438 1.610 1_556 S
N440 C441 1.351 . S
C441 C435 1.428 . S
C441 N440 1.351 . S
C441 C442 1.434 . S
C442 C433 1.429 . S
C442 N439 1.350 . S
C442 C441 1.434 . S
C443 C444 1.369 . S
C443 C445 1.419 . S
C443 H447 0.930 . S
C444 C443 1.369 . S
C444 C453 1.429 . S
C445 C443 1.419 . S
C445 C446 1.363 . S
C445 H448 0.929 . S
C446 C445 1.363 . S
C446 C452 1.428 . S
H447 C443 0.930 . S
H448 C445 0.929 . S
S449 N450 1.613 . S
S449 N451 1.610 . S
N450 S449 1.613 . S
N450 C453 1.350 . S
N451 S449 1.610 . S
N451 C452 1.351 . S
C452 C446 1.428 . S
C452 N451 1.351 . S
C452 C453 1.434 . S
C453 C444 1.429 . S
C453 N450 1.350 . S
C453 C452 1.434 . S
C454 C455 1.369 . S
C454 C456 1.419 . S
C454 H458 0.930 . S
C455 C454 1.369 . S
C455 C464 1.429 . S
C456 C454 1.419 . S
C456 C457 1.363 . S
C456 H459 0.929 . S
C457 C456 1.363 . S
C457 C463 1.428 . S
H458 C454 0.930 . S
H459 C456 0.929 . S
S460 N461 1.613 . S
S460 N462 1.610 . S
N461 S460 1.613 . S
N461 C464 1.350 . S
N462 S460 1.610 . S
N462 C463 1.351 . S
C463 C457 1.428 . S
C463 N462 1.351 . S
C463 C464 1.434 . S
C464 C455 1.429 . S
C464 N461 1.350 . S
C464 C463 1.434 . S
C465 C466 1.369 . S
C465 C467 1.419 . S
C465 H469 0.930 . S
C466 C465 1.369 . S
C466 C475 1.429 . S
C467 C465 1.419 . S
C467 C468 1.363 . S
C467 H470 0.929 . S
C468 C467 1.363 . S
C468 C474 1.428 . S
H469 C465 0.930 . S
H470 C467 0.929 . S
S471 N472 1.613 . S
S471 N473 1.610 . S
N472 S471 1.613 . S
N472 C475 1.350 . S
N473 S471 1.610 . S
N473 C474 1.351 . S
C474 C468 1.428 . S
C474 N473 1.351 . S
C474 C475 1.434 . S
C475 C466 1.429 . S
C475 N472 1.350 . S
C475 C474 1.434 . S
C476 C477 1.369 . S
C476 C478 1.419 . S
C476 H480 0.930 . S
C477 C476 1.369 . S
C477 C486 1.429 . S
C478 C476 1.419 . S
C478 C479 1.363 . S
C478 H481 0.929 . S
C479 C478 1.363 . S
C479 C485 1.428 . S
H480 C476 0.930 . S
H481 C478 0.929 . S
S482 N483 1.613 . S
S482 N484 1.610 . S
N483 S482 1.613 . S
N483 C486 1.350 . S
N484 S482 1.610 . S
N484 C485 1.351 . S
C485 C479 1.428 . S
C485 N484 1.351 . S
C485 C486 1.434 . S
C486 C477 1.429 . S
C486 N483 1.350 . S
C486 C485 1.434 . S
C487 C488 1.369 . S
C487 C489 1.419 . S
C487 H491 0.930 . S
C488 C487 1.369 . S
C488 C497 1.429 . S
C489 C487 1.419 . S
C489 C490 1.363 . S
C489 H492 0.929 . S
C490 C489 1.363 . S
C490 C496 1.428 . S
H491 C487 0.930 . S
H492 C489 0.929 . S
S493 N494 1.613 . S
S493 N495 1.610 . S
N494 S493 1.613 . S
N494 C497 1.350 . S
N495 S493 1.610 . S
N495 C496 1.351 . S
C496 C490 1.428 . S
C496 N495 1.351 . S
C496 C497 1.434 . S
C497 C488 1.429 . S
C497 N494 1.350 . S
C497 C496 1.434 . S
C498 C499 1.369 . S
C498 C500 1.419 . S
C498 H502 0.930 . S
C499 C498 1.369 . S
C499 C508 1.429 . S
C500 C498 1.419 . S
C500 C501 1.363 . S
C500 H503 0.929 . S
C501 C500 1.363 . S
C501 C507 1.428 . S
H502 C498 0.930 . S
H503 C500 0.929 . S
S504 N505 1.613 . S
S504 N506 1.610 . S
N505 S504 1.613 . S
N505 C508 1.350 . S
N506 S504 1.610 . S
N506 C507 1.351 . S
C507 C501 1.428 . S
C507 N506 1.351 . S
C507 C508 1.434 . S
C508 C499 1.429 . S
C508 N505 1.350 . S
C508 C507 1.434 . S
C509 C510 1.369 . S
C509 C511 1.419 . S
C509 H513 0.930 . S
C510 C509 1.369 . S
C510 C519 1.429 . S
C511 C509 1.419 . S
C511 C512 1.363 . S
C511 H514 0.929 . S
C512 C511 1.363 . S
C512 C518 1.428 . S
H513 C509 0.930 . S
H514 C511 0.929 . S
S515 N516 1.613 . S
S515 N517 1.610 . S
N516 S515 1.613 . S
N516 C519 1.350 . S
N517 S515 1.610 . S
N517 C518 1.351 . S
C518 C512 1.428 . S
C518 N517 1.351 . S
C518 C519 1.434 . S
C519 C510 1.429 . S
C519 N516 1.350 . S
C519 C518 1.434 . S
C257 C6 0.949 . S
C259 C100 0.987 . S
C268 C18 1.266 . S
C270 C161 1.268 . S
C281 C199 2.657 . S
C279 C28 2.699 . S
C290 C40 1.942 . S
C292 C239 1.892 . S
C303 C159 1.394 . S
C301 C9 1.316 . S
C314 C127 1.970 . S
C312 C16 1.810 . S
C325 C236 1.867 . S
C323 C30 1.887 . S
C336 C196 1.657 . S
C334 C42 1.684 . S
C345 C4 1.269 . S
C347 C241 1.258 . S
C358 C156 2.602 . S
C356 C33 2.591 . S
C367 C45 2.023 . S
C369 C98 1.988 . S
C378 C21 1.487 . S
C380 C201 1.585 . S
C391 C121 0.997 . S
C389 C57 0.989 . S
C400 C66 1.278 . S
C402 C140 1.288 . S
C411 C76 2.747 . S
C413 C178 2.697 . S
C422 C88 1.853 . S
C424 C218 1.838 . S
C433 C54 1.320 . S
C435 C138 1.396 . S
C446 C116 2.047 . S
C444 C64 1.940 . S
C457 C247 1.769 . S
C455 C78 1.792 . S
C468 C207 1.724 . S
C466 C93 1.746 . S
C477 C52 1.247 . S
C479 C220 1.303 . S
C490 C167 2.602 . S
C488 C81 2.585 . S
C501 C119 1.984 . S
C499 C90 2.009 . S
C510 C69 1.467 . S
C512 C180 1.591 . S
