# Generated by pormake.
# Topology pyr, (3,6)-cn, num edge types: 1
# Building blocks:
#     Node 0, Type 0, BuildingBlock: QEWDON_clean_linker_0, # of connection points: 3
#     Node 1, Type 0, BuildingBlock: QEWDON_clean_linker_0, # of connection points: 3
#     Node 2, Type 0, BuildingBlock: QEWDON_clean_linker_0, # of connection points: 3
#     Node 3, Type 0, BuildingBlock: QEWDON_clean_linker_0, # of connection points: 3
#     Node 4, Type 0, BuildingBlock: QEWDON_clean_linker_0, # of connection points: 3
#     Node 5, Type 0, BuildingBlock: QEWDON_clean_linker_0, # of connection points: 3
#     Node 6, Type 0, BuildingBlock: QEWDON_clean_linker_0, # of connection points: 3
#     Node 7, Type 0, BuildingBlock: QEWDON_clean_linker_0, # of connection points: 3
#     Node 8, Type 1, BuildingBlock: MIFKUJ_clean_sbu_0, # of connection points: 6
#     Node 9, Type 1, BuildingBlock: MIFKUJ_clean_sbu_0, # of connection points: 6
#     Node 10, Type 1, BuildingBlock: MIFKUJ_clean_sbu_0, # of connection points: 6
#     Node 11, Type 1, BuildingBlock: MIFKUJ_clean_sbu_0, # of connection points: 6
#     Edge 12, Type (0, 1), BuildingBlock: TEMPAE_clean_linker_10, # of connection points: 2
#     Edge 13, Type (0, 1), BuildingBlock: TEMPAE_clean_linker_10, # of connection points: 2
#     Edge 14, Type (0, 1), BuildingBlock: TEMPAE_clean_linker_10, # of connection points: 2
#     Edge 15, Type (0, 1), BuildingBlock: TEMPAE_clean_linker_10, # of connection points: 2
#     Edge 16, Type (0, 1), BuildingBlock: TEMPAE_clean_linker_10, # of connection points: 2
#     Edge 17, Type (0, 1), BuildingBlock: TEMPAE_clean_linker_10, # of connection points: 2
#     Edge 18, Type (0, 1), BuildingBlock: TEMPAE_clean_linker_10, # of connection points: 2
#     Edge 19, Type (0, 1), BuildingBlock: TEMPAE_clean_linker_10, # of connection points: 2
#     Edge 20, Type (0, 1), BuildingBlock: TEMPAE_clean_linker_10, # of connection points: 2
#     Edge 21, Type (0, 1), BuildingBlock: TEMPAE_clean_linker_10, # of connection points: 2
#     Edge 22, Type (0, 1), BuildingBlock: TEMPAE_clean_linker_10, # of connection points: 2
#     Edge 23, Type (0, 1), BuildingBlock: TEMPAE_clean_linker_10, # of connection points: 2
#     Edge 24, Type (0, 1), BuildingBlock: TEMPAE_clean_linker_10, # of connection points: 2
#     Edge 25, Type (0, 1), BuildingBlock: TEMPAE_clean_linker_10, # of connection points: 2
#     Edge 26, Type (0, 1), BuildingBlock: TEMPAE_clean_linker_10, # of connection points: 2
#     Edge 27, Type (0, 1), BuildingBlock: TEMPAE_clean_linker_10, # of connection points: 2
#     Edge 28, Type (0, 1), BuildingBlock: TEMPAE_clean_linker_10, # of connection points: 2
#     Edge 29, Type (0, 1), BuildingBlock: TEMPAE_clean_linker_10, # of connection points: 2
#     Edge 30, Type (0, 1), BuildingBlock: TEMPAE_clean_linker_10, # of connection points: 2
#     Edge 31, Type (0, 1), BuildingBlock: TEMPAE_clean_linker_10, # of connection points: 2
#     Edge 32, Type (0, 1), BuildingBlock: TEMPAE_clean_linker_10, # of connection points: 2
#     Edge 33, Type (0, 1), BuildingBlock: TEMPAE_clean_linker_10, # of connection points: 2
#     Edge 34, Type (0, 1), BuildingBlock: TEMPAE_clean_linker_10, # of connection points: 2
#     Edge 35, Type (0, 1), BuildingBlock: TEMPAE_clean_linker_10, # of connection points: 2
# Relax obj value: 0.096
# Max RMSD: 0.268
# Mean RMSD: 0.179
data_MOF--net-pyr--node1-MIFKUJ_clean_sbu_0--node2-QEWDON_clean_linker_0--edge1-TEMPAE_clean_linker_10
_symmetry_space_group_name_H-M    P1
_symmetry_Int_Tables_number       1
_symmetry_cell_setting            triclinic
loop_
_symmetry_equiv_pos_as_xyz
'x, y, z'
_cell_length_a     39.467231
_cell_length_b     35.551923
_cell_length_c     40.875271
_cell_angle_alpha  85.640781
_cell_angle_beta   88.293561
_cell_angle_gamma 108.01825
loop_
_atom_site_label
_atom_site_type_symbol
_atom_site_fract_x
_atom_site_fract_y
_atom_site_fract_z
_atom_type_partial_charge
H0 H 0.27255 0.26544 0.19514 0.0
C1 C 0.25481 0.24875 0.21559 0.0
C2 C 0.25493 0.21013 0.22648 0.0
C3 C 0.23252 0.26659 0.23151 0.0
H4 H 0.23231 0.16048 0.26319 0.0
C5 C 0.23182 0.18956 0.25361 0.0
C6 C 0.20972 0.20746 0.26996 0.0
C7 C 0.21011 0.24583 0.25849 0.0
C8 C 0.23697 0.30921 0.22395 0.0
H9 H 0.19378 0.26021 0.27134 0.0
C10 C 0.2133 0.32233 0.20433 0.0
C11 C 0.21706 0.36331 0.19941 0.0
C12 C 0.2642 0.33694 0.23868 0.0
H13 H 0.28233 0.32726 0.2541 0.0
C14 C 0.26771 0.37721 0.23439 0.0
H15 H 0.19241 0.30079 0.19285 0.0
C16 C 0.2443 0.39032 0.21515 0.0
H17 H 0.24737 0.42176 0.21297 0.0
H18 H 0.28846 0.39836 0.24629 0.0
H19 H 0.31655 0.89054 0.76797 0.0
C20 C 0.33291 0.87509 0.75668 0.0
C21 C 0.36512 0.87405 0.77027 0.0
C22 C 0.32038 0.85402 0.7295 0.0
H23 H 0.409 0.84967 0.7656 0.0
C24 C 0.38501 0.85267 0.75511 0.0
C25 C 0.37363 0.83362 0.72682 0.0
C26 C 0.34126 0.83426 0.71419 0.0
C27 C 0.28297 0.84621 0.72094 0.0
H28 H 0.33132 0.8175 0.69348 0.0
C29 C 0.2704 0.87642 0.70697 0.0
C30 C 0.23424 0.86762 0.69986 0.0
C31 C 0.2594 0.80743 0.72742 0.0
H32 H 0.2687 0.78385 0.73816 0.0
C33 C 0.2236 0.79883 0.72054 0.0
H34 H 0.28854 0.90632 0.70161 0.0
C35 C 0.21102 0.82872 0.70693 0.0
H36 H 0.18318 0.8213 0.70132 0.0
H37 H 0.20559 0.76889 0.72567 0.0
H38 H 0.71919 0.41738 0.84443 0.0
C39 C 0.71048 0.38688 0.85515 0.0
C40 C 0.73163 0.37438 0.87804 0.0
C41 C 0.67666 0.36123 0.84882 0.0
H42 H 0.73368 0.32752 0.91413 0.0
C43 C 0.71873 0.33626 0.89475 0.0
C44 C 0.68534 0.31059 0.88827 0.0
C45 C 0.66572 0.32228 0.86386 0.0
C46 C 0.65005 0.37622 0.83161 0.0
H47 H 0.64002 0.30183 0.85892 0.0
C48 C 0.65996 0.40516 0.80454 0.0
C49 C 0.63422 0.42024 0.79045 0.0
C50 C 0.61407 0.36272 0.84386 0.0
H51 H 0.6055 0.34177 0.86541 0.0
C52 C 0.58853 0.37678 0.82913 0.0
H53 H 0.68742 0.41633 0.79481 0.0
C54 C 0.59849 0.4054 0.8026 0.0
H55 H 0.57825 0.41628 0.79163 0.0
H56 H 0.56103 0.36594 0.83867 0.0
H57 H 0.86707 0.7755 0.27029 0.0
C58 C 0.84643 0.75969 0.28892 0.0
C59 C 0.85029 0.76907 0.32168 0.0
C60 C 0.81542 0.7305 0.28032 0.0
H61 H 0.82623 0.7574 0.37071 0.0
C62 C 0.82311 0.74966 0.34557 0.0
C63 C 0.79136 0.72227 0.33728 0.0
C64 C 0.78811 0.71209 0.30478 0.0
C65 C 0.81057 0.71912 0.246 0.0
H66 H 0.76387 0.69029 0.29836 0.0
C67 C 0.83878 0.71372 0.22692 0.0
C68 C 0.83279 0.69786 0.19612 0.0
C69 C 0.77668 0.71085 0.23302 0.0
H70 H 0.75465 0.71584 0.2465 0.0
C71 C 0.77049 0.69526 0.20279 0.0
H72 H 0.86504 0.7211 0.23655 0.0
C73 C 0.79795 0.68801 0.18481 0.0
H74 H 0.7914 0.67401 0.16225 0.0
H75 H 0.74404 0.68801 0.1935 0.0
H76 H 0.79589 0.80447 0.85779 0.0
C77 C 0.80923 0.82066 0.83503 0.0
C78 C 0.84358 0.81993 0.82566 0.0
C79 C 0.79165 0.84122 0.81454 0.0
H80 H 0.88626 0.83818 0.78815 0.0
C81 C 0.86024 0.83992 0.7956 0.0
C82 C 0.84285 0.86026 0.77451 0.0
C83 C 0.80854 0.86085 0.78445 0.0
C84 C 0.75385 0.83797 0.82201 0.0
H85 H 0.79461 0.8763 0.76867 0.0
C86 C 0.74354 0.8589 0.8465 0.0
C87 C 0.70743 0.85731 0.85097 0.0
C88 C 0.72786 0.81478 0.80286 0.0
H89 H 0.73531 0.79863 0.78391 0.0
C90 C 0.69215 0.81229 0.80782 0.0
H91 H 0.76359 0.8774 0.86098 0.0
C92 C 0.68198 0.83343 0.83156 0.0
H93 H 0.65404 0.83112 0.83475 0.0
H94 H 0.6723 0.79421 0.79298 0.0
H95 H 0.72482 0.21736 0.42059 0.0
C96 C 0.71594 0.2113 0.39613 0.0
C97 C 0.73253 0.19068 0.37635 0.0
C98 C 0.68611 0.22122 0.3854 0.0
H99 H 0.73011 0.16115 0.33189 0.0
C100 C 0.7187 0.17933 0.34602 0.0
C101 C 0.68841 0.18854 0.33539 0.0
C102 C 0.67337 0.211 0.35469 0.0
C103 C 0.6624 0.232 0.40889 0.0
H104 H 0.64977 0.21802 0.34704 0.0
C105 C 0.66811 0.27136 0.41659 0.0
C106 C 0.64339 0.27991 0.43807 0.0
C107 C 0.63192 0.20178 0.42224 0.0
H108 H 0.62694 0.17148 0.4161 0.0
C109 C 0.60741 0.21035 0.44317 0.0
H110 H 0.69133 0.29492 0.406 0.0
C111 C 0.61308 0.2491 0.4511 0.0
H112 H 0.59345 0.25517 0.46721 0.0
H113 H 0.58384 0.18692 0.45314 0.0
H114 H 0.36672 0.72778 0.27745 0.0
C115 C 0.3428 0.72051 0.26378 0.0
C116 C 0.33977 0.74751 0.23802 0.0
C117 C 0.3161 0.68328 0.27011 0.0
H118 H 0.30916 0.75756 0.1975 0.0
C119 C 0.31058 0.73728 0.21828 0.0
C120 C 0.28427 0.70043 0.22382 0.0
C121 C 0.28623 0.67433 0.25054 0.0
C122 C 0.32052 0.65224 0.29484 0.0
H123 H 0.26522 0.64616 0.25487 0.0
C124 C 0.33867 0.66237 0.32373 0.0
C125 C 0.34243 0.63251 0.34658 0.0
C126 C 0.30713 0.61174 0.28915 0.0
H127 H 0.29458 0.60254 0.26665 0.0
C128 C 0.31039 0.58224 0.31209 0.0
H129 H 0.34957 0.69315 0.32876 0.0
C130 C 0.32778 0.59247 0.34073 0.0
H131 H 0.3308 0.5691 0.35789 0.0
H132 H 0.2999 0.55132 0.30739 0.0
H133 H 0.23129 0.39272 0.77995 0.0
C134 C 0.21726 0.36939 0.76509 0.0
C135 C 0.23254 0.36603 0.73446 0.0
C136 C 0.18444 0.34196 0.77693 0.0
H137 H 0.22651 0.333 0.69172 0.0
C138 C 0.21473 0.33542 0.71546 0.0
C139 C 0.18139 0.30856 0.72664 0.0
C140 C 0.16646 0.31193 0.7574 0.0
C141 C 0.16905 0.34386 0.80996 0.0
H142 H 0.14084 0.29105 0.7662 0.0
C143 C 0.16408 0.37923 0.8191 0.0
C144 C 0.14704 0.37973 0.84962 0.0
C145 C 0.15799 0.30956 0.83211 0.0
H146 H 0.16183 0.2821 0.82565 0.0
C147 C 0.14189 0.3104 0.86277 0.0
H148 H 0.17196 0.40571 0.80203 0.0
C149 C 0.13612 0.3452 0.87142 0.0
H150 H 0.12291 0.34518 0.89505 0.0
H151 H 0.13342 0.28387 0.87969 0.0
Zn152 Zn 0.04186 0.03788 0.54022 0.0
Zn153 Zn 0.97293 0.05218 0.49629 0.0
C154 C 0.07213 0.11396 0.56354 0.0
O155 O 0.09489 0.11651 0.53872 0.0
C156 C 0.93624 0.97743 0.46938 0.0
O157 O 0.90903 0.97913 0.48788 0.0
O158 O 0.08028 0.0181 0.55981 0.0
O159 O 0.99496 0.99419 0.54939 0.0
O160 O 0.96169 0.03373 0.5455 0.0
C161 C 0.07661 0.98204 0.56891 0.0
O162 O 0.04673 0.9545 0.56375 0.0
O163 O 0.04442 0.08364 0.56787 0.0
C164 C 0.92436 0.07635 0.45274 0.0
O165 O 0.9384 0.05882 0.43138 0.0
O166 O 0.93511 0.07765 0.48187 0.0
O167 O 0.02113 0.09078 0.47875 0.0
O168 O 0.05771 0.05672 0.49285 0.0
O169 O 0.96616 0.00425 0.47026 0.0
C170 C 0.96802 0.00339 0.55922 0.0
C171 C 0.04982 0.08222 0.47362 0.0
Zn172 Zn 0.51149 0.9903 0.03027 0.0
Zn173 Zn 0.48856 0.06311 0.10359 0.0
C174 C 0.46079 0.94675 0.98866 0.0
O175 O 0.46476 0.91724 0.00789 0.0
C176 C 0.53692 0.10364 0.14601 0.0
O177 O 0.53117 0.1324 0.12712 0.0
O178 O 0.55203 0.97045 0.01405 0.0
O179 O 0.52617 0.04974 0.03805 0.0
O180 O 0.52115 0.09848 0.06707 0.0
C181 C 0.58226 0.99115 1.00058 0.0
O182 O 0.591 0.03007 0.9986 0.0
O183 O 0.47782 0.98214 0.9941 0.0
C184 C 0.43603 0.08355 0.14414 0.0
O185 O 0.45397 0.07166 0.16709 0.0
O186 O 0.44427 0.08074 0.11416 0.0
O187 O 0.48284 0.01133 0.0866 0.0
O188 O 0.48463 0.95544 0.07064 0.0
O189 O 0.51951 0.06797 0.14185 0.0
C190 C 0.53516 0.08648 0.04298 0.0
C191 C 0.47494 0.97424 0.09232 0.0
Zn192 Zn 0.53817 0.54936 0.54341 0.0
Zn193 Zn 0.51828 0.6054 0.5915 0.0
C194 C 0.57856 0.60625 0.49535 0.0
O195 O 0.55072 0.58747 0.47953 0.0
C196 C 0.469 0.5542 0.64068 0.0
O197 O 0.49011 0.57905 0.65913 0.0
O198 O 0.54904 0.50568 0.52018 0.0
O199 O 0.54112 0.53488 0.59108 0.0
O200 O 0.56467 0.59627 0.60345 0.0
C201 C 0.58154 0.50655 0.52124 0.0
O202 O 0.6033 0.53322 0.53784 0.0
O203 O 0.57901 0.59727 0.52601 0.0
C204 C 0.47996 0.65309 0.61259 0.0
O205 O 0.45778 0.62867 0.59459 0.0
O206 O 0.51126 0.65056 0.61509 0.0
O207 O 0.51099 0.61923 0.54423 0.0
O208 O 0.49286 0.55826 0.52918 0.0
O209 O 0.47664 0.55768 0.60987 0.0
C210 C 0.56248 0.55982 0.60746 0.0
C211 C 0.49228 0.59393 0.52629 0.0
Zn212 Zn 0.01181 0.61105 0.9804 0.0
Zn213 Zn 0.04155 0.5571 0.03994 0.0
C214 C 0.96269 0.55683 0.94687 0.0
O215 O 0.98397 0.57981 0.9231 0.0
C216 C 0.09449 0.62789 0.06202 0.0
O217 O 0.06768 0.63954 0.07162 0.0
O218 O 0.99928 0.65333 0.95061 0.0
O219 O 0.01187 0.62921 0.02606 0.0
O220 O 1.00042 0.57292 0.05777 0.0
C221 C 0.97051 0.65935 0.96034 0.0
O222 O 0.95418 0.64046 0.98811 0.0
O223 O 0.96938 0.56298 0.97657 0.0
C224 C 0.07658 0.50291 0.06323 0.0
O225 O 0.09794 0.5228 0.03827 0.0
O226 O 0.04799 0.51113 0.06972 0.0
O227 O 0.03765 0.54055 0.99413 0.0
O228 O 0.05495 0.5974 0.96295 0.0
O229 O 0.08895 0.59833 0.04503 0.0
C230 C 0.99701 0.60712 0.05177 0.0
C231 C 0.05588 0.56211 0.96952 0.0
C232 C 0.19074 0.20779 0.32886 0.0
C233 C 0.18788 0.18761 0.30038 0.0
C234 C 0.16922 0.19061 0.35747 0.0
C235 C 0.14374 0.15247 0.35753 0.0
C236 C 0.14107 0.13168 0.32894 0.0
C237 C 0.16342 0.14937 0.30078 0.0
C238 C 0.17353 0.21349 0.38754 0.0
C239 C 0.11408 0.09113 0.32788 0.0
C240 C 0.10702 0.09411 0.4399 0.0
C241 C 0.0742 0.10133 0.44434 0.0
C242 C 0.12982 0.11047 0.41185 0.0
C243 C 0.11965 0.13463 0.38741 0.0
C244 C 0.08667 0.14223 0.39175 0.0
C245 C 0.06441 0.1256 0.42014 0.0
C246 C 0.16483 0.10185 0.40838 0.0
C247 C 0.07482 0.16782 0.36627 0.0
H248 H 0.20996 0.23718 0.32874 0.0
H249 H 0.16109 0.13379 0.27875 0.0
H250 H 0.14837 0.2197 0.39386 0.0
H251 H 0.17903 0.19549 0.4089 0.0
H252 H 0.1955 0.24213 0.38389 0.0
H253 H 0.11587 0.07851 0.30409 0.0
H254 H 0.11801 0.07036 0.34798 0.0
H255 H 0.08674 0.09303 0.33184 0.0
H256 H 0.11498 0.07547 0.45838 0.0
H257 H 0.0391 0.13128 0.42317 0.0
H258 H 0.18731 0.13004 0.40613 0.0
H259 H 0.16594 0.08705 0.38562 0.0
H260 H 0.16888 0.08255 0.4296 0.0
H261 H 0.0944 0.1981 0.36324 0.0
H262 H 0.04812 0.17024 0.37292 0.0
H263 H 0.07386 0.15535 0.34211 0.0
C264 C 0.41306 0.90496 0.80823 0.0
C265 C 0.37669 0.89199 0.80165 0.0
C266 C 0.42411 0.91596 0.83934 0.0
C267 C 0.39841 0.91634 0.86406 0.0
C268 C 0.36205 0.90665 0.85693 0.0
C269 C 0.35149 0.89365 0.82615 0.0
C270 C 0.46315 0.92535 0.84617 0.0
C271 C 0.33412 0.90863 0.88222 0.0
C272 C 0.42499 0.89981 0.95087 0.0
C273 C 0.44041 0.9389 0.95881 0.0
C274 C 0.4097 0.89202 0.9206 0.0
C275 C 0.40958 0.92412 0.8979 0.0
C276 C 0.4231 0.96355 0.90663 0.0
C277 C 0.43853 0.97049 0.93695 0.0
C278 C 0.39553 0.84951 0.91219 0.0
C279 C 0.42282 0.99853 0.88338 0.0
H280 H 0.43309 0.90555 0.78935 0.0
H281 H 0.32329 0.88348 0.82196 0.0
H282 H 0.47344 0.95546 0.85471 0.0
H283 H 0.46642 0.90398 0.86613 0.0
H284 H 0.47978 0.92386 0.8242 0.0
H285 H 0.308 0.90558 0.87143 0.0
H286 H 0.33028 0.88447 0.90215 0.0
H287 H 0.34296 0.93721 0.89358 0.0
H288 H 0.42606 0.87522 0.96775 0.0
H289 H 0.45011 0.00081 0.94304 0.0
H290 H 0.41206 0.84493 0.89134 0.0
H291 H 0.36783 0.84296 0.90427 0.0
H292 H 0.39573 0.82792 0.93325 0.0
H293 H 0.44362 0.00338 0.86327 0.0
H294 H 0.4283 0.02626 0.89596 0.0
H295 H 0.39673 0.99276 0.87201 0.0
C296 C 0.65351 0.44433 0.73198 0.0
C297 C 0.64338 0.45189 0.76328 0.0
C298 C 0.65023 0.4684 0.70414 0.0
C299 C 0.63599 0.49991 0.70813 0.0
C300 C 0.63019 0.51043 0.74004 0.0
C301 C 0.63419 0.4863 0.7673 0.0
C302 C 0.65788 0.45716 0.6705 0.0
C303 C 0.61477 0.54353 0.74554 0.0
C304 C 0.61738 0.56649 0.63841 0.0
C305 C 0.58202 0.54531 0.63285 0.0
C306 C 0.63626 0.55122 0.66178 0.0
C307 C 0.61874 0.51482 0.68053 0.0
C308 C 0.58296 0.49348 0.67482 0.0
C309 C 0.56526 0.50877 0.65071 0.0
C310 C 0.6748 0.57377 0.66633 0.0
C311 C 0.56292 0.45488 0.69467 0.0
H312 H 0.66076 0.4177 0.72901 0.0
H313 H 0.62669 0.4921 0.79171 0.0
H314 H 0.6327 0.43855 0.66101 0.0
H315 H 0.66889 0.4839 0.65292 0.0
H316 H 0.67696 0.4398 0.67133 0.0
H317 H 0.61768 0.55219 0.77111 0.0
H318 H 0.62774 0.57012 0.72835 0.0
H319 H 0.5859 0.53345 0.74091 0.0
H320 H 0.63043 0.59444 0.624 0.0
H321 H 0.53787 0.49248 0.64629 0.0
H322 H 0.69161 0.55435 0.66272 0.0
H323 H 0.67805 0.58264 0.69177 0.0
H324 H 0.6849 0.60085 0.64891 0.0
H325 H 0.57671 0.43244 0.69147 0.0
H326 H 0.53501 0.44254 0.68741 0.0
H327 H 0.56229 0.4595 0.7212 0.0
C328 C 0.86061 0.68987 0.14184 0.0
C329 C 0.86197 0.68994 0.1762 0.0
C330 C 0.88492 0.67768 0.12309 0.0
C331 C 0.91296 0.66784 0.1386 0.0
C332 C 0.91645 0.67086 0.17271 0.0
C333 C 0.8904 0.68076 0.19126 0.0
C334 C 0.87975 0.67393 0.08683 0.0
C335 C 0.94728 0.66282 0.1897 0.0
C336 C 0.94971 0.59642 0.09628 0.0
C337 C 0.97768 0.6226 0.07609 0.0
C338 C 0.92901 0.61079 0.11749 0.0
C339 C 0.93726 0.65228 0.11921 0.0
C340 C 0.96679 0.67875 0.10022 0.0
C341 C 0.98627 0.6636 0.07839 0.0
C342 C 0.89718 0.58164 0.13672 0.0
C343 C 0.97723 0.72308 0.10218 0.0
H344 H 0.84007 0.69863 0.12936 0.0
H345 H 0.89208 0.6802 0.21765 0.0
H346 H 0.9033 0.69409 0.07212 0.0
H347 H 0.87725 0.64318 0.0811 0.0
H348 H 0.85562 0.68106 0.07883 0.0
H349 H 0.9486 0.67119 0.21538 0.0
H350 H 0.94465 0.63081 0.19015 0.0
H351 H 0.97288 0.67957 0.17599 0.0
H352 H 0.94302 0.56472 0.09443 0.0
H353 H 0.00823 0.68389 0.06307 0.0
H354 H 0.87235 0.5871 0.12872 0.0
H355 H 0.89877 0.58584 0.16329 0.0
H356 H 0.8951 0.5503 0.13336 0.0
H357 H 0.95854 0.73517 0.08841 0.0
H358 H 0.00468 0.73847 0.09144 0.0
H359 H 0.97563 0.73019 0.12804 0.0
C360 C 0.2707 0.15153 0.20697 0.0
C361 C 0.28064 0.19235 0.21093 0.0
C362 C 0.29516 0.13416 0.19395 0.0
C363 C 0.33055 0.15808 0.18434 0.0
C364 C 0.34054 0.19946 0.18748 0.0
C365 C 0.31564 0.21599 0.20083 0.0
C366 C 0.28335 0.08993 0.19124 0.0
C367 C 0.37791 0.22618 0.17763 0.0
C368 C 0.40281 0.10757 0.18693 0.0
C369 C 0.40846 0.10222 0.15371 0.0
C370 C 0.37791 0.12593 0.19701 0.0
C371 C 0.35771 0.13934 0.17342 0.0
C372 C 0.36328 0.13429 0.13979 0.0
C373 C 0.38858 0.11585 0.13031 0.0
C374 C 0.37323 0.13097 0.23308 0.0
C375 C 0.34244 0.14836 0.11384 0.0
H376 H 0.2437 0.13298 0.21416 0.0
H377 H 0.32402 0.2474 0.20422 0.0
H378 H 0.2887 0.0837 0.16574 0.0
H379 H 0.2989 0.07592 0.20753 0.0
H380 H 0.25451 0.07574 0.19816 0.0
H381 H 0.38077 0.25804 0.17935 0.0
H382 H 0.39714 0.21806 0.19376 0.0
H383 H 0.38541 0.22215 0.15206 0.0
H384 H 0.41809 0.09755 0.20532 0.0
H385 H 0.3928 0.11217 0.10459 0.0
H386 H 0.34528 0.11515 0.24215 0.0
H387 H 0.3785 0.16284 0.23671 0.0
H388 H 0.39132 0.11944 0.24831 0.0
H389 H 0.31352 0.13244 0.1186 0.0
H390 H 0.35058 0.14346 0.08867 0.0
H391 H 0.34619 0.18048 0.11491 0.0
C392 C 0.23254 0.91434 0.65172 0.0
C393 C 0.22008 0.89773 0.68366 0.0
C394 C 0.21333 0.93458 0.63284 0.0
C395 C 0.18125 0.93839 0.64651 0.0
C396 C 0.17064 0.92497 0.67987 0.0
C397 C 0.19007 0.90449 0.69796 0.0
C398 C 0.22564 0.94866 0.59745 0.0
C399 C 0.13708 0.92916 0.69566 0.0
C400 C 0.13171 0.00084 0.60097 0.0
C401 C 0.10479 0.97154 0.58713 0.0
C402 C 0.15724 0.99076 0.62001 0.0
C403 C 0.15604 0.95054 0.62493 0.0
C404 C 0.12947 0.92103 0.61032 0.0
C405 C 0.10406 0.93186 0.59182 0.0
C406 C 0.18481 0.02293 0.6356 0.0
C407 C 0.12747 0.87779 0.61471 0.0
H408 H 0.25571 0.9089 0.64067 0.0
H409 H 0.18066 0.89175 0.72279 0.0
H410 H 0.20788 0.92859 0.5812 0.0
H411 H 0.22397 0.97893 0.59124 0.0
H412 H 0.25346 0.94892 0.59203 0.0
H413 H 0.13563 0.92291 0.72281 0.0
H414 H 0.13548 0.95951 0.68974 0.0
H415 H 0.11344 0.90798 0.68586 0.0
H416 H 0.13231 0.03159 0.59764 0.0
H417 H 0.08346 0.90911 0.58111 0.0
H418 H 0.21202 0.02213 0.629 0.0
H419 H 0.18087 0.01769 0.66276 0.0
H420 H 0.18332 0.05302 0.628 0.0
H421 H 0.15343 0.87435 0.60685 0.0
H422 H 0.10628 0.85884 0.60044 0.0
H423 H 0.12201 0.86673 0.64107 0.0
C424 C 0.76886 0.41038 0.92086 0.0
C425 C 0.76501 0.40269 0.88783 0.0
C426 C 0.80055 0.43628 0.93102 0.0
C427 C 0.82926 0.45435 0.90763 0.0
C428 C 0.82537 0.44696 0.87414 0.0
C429 C 0.79303 0.42144 0.86455 0.0
C430 C 0.80336 0.44419 0.96678 0.0
C431 C 0.85558 0.46537 0.8486 0.0
C432 C 0.9021 0.54643 0.92774 0.0
C433 C 0.92819 0.53019 0.93879 0.0
C434 C 0.86952 0.52203 0.91784 0.0
C435 C 0.86348 0.48059 0.91839 0.0
C436 C 0.89 0.46416 0.92955 0.0
C437 C 0.92211 0.48927 0.93992 0.0
C438 C 0.84169 0.5406 0.90673 0.0
C439 C 0.88467 0.42019 0.93004 0.0
H440 H 0.74688 0.39621 0.93873 0.0
H441 H 0.7899 0.41536 0.83903 0.0
H442 H 0.82493 0.43402 0.97735 0.0
H443 H 0.81051 0.47657 0.96912 0.0
H444 H 0.77809 0.42893 0.98157 0.0
H445 H 0.84811 0.45693 0.82356 0.0
H446 H 0.86401 0.49821 0.84818 0.0
H447 H 0.879 0.45587 0.85501 0.0
H448 H 0.90727 0.57831 0.92683 0.0
H449 H 0.94275 0.47712 0.94817 0.0
H450 H 0.81638 0.52677 0.92177 0.0
H451 H 0.83594 0.53506 0.88082 0.0
H452 H 0.85028 0.57317 0.90867 0.0
H453 H 0.86087 0.40331 0.94615 0.0
H454 H 0.90812 0.41227 0.93893 0.0
H455 H 0.87965 0.41052 0.90497 0.0
C456 C 0.75417 0.73179 0.38477 0.0
C457 C 0.76093 0.70671 0.36218 0.0
C458 C 0.72578 0.71809 0.40848 0.0
C459 C 0.70285 0.67865 0.4091 0.0
C460 C 0.70906 0.65321 0.3862 0.0
C461 C 0.73825 0.66744 0.36319 0.0
C462 C 0.72016 0.74595 0.4327 0.0
C463 C 0.68475 0.61105 0.3859 0.0
C464 C 0.6446 0.62891 0.4855 0.0
C465 C 0.61116 0.63052 0.47622 0.0
C466 C 0.67498 0.64524 0.46412 0.0
C467 C 0.67175 0.6642 0.43317 0.0
C468 C 0.63838 0.66792 0.42459 0.0
C469 C 0.60836 0.65061 0.44612 0.0
C470 C 0.71008 0.64038 0.47393 0.0
C471 C 0.63406 0.68861 0.39205 0.0
H472 H 0.77081 0.76252 0.38369 0.0
H473 H 0.74338 0.6477 0.34613 0.0
H474 H 0.69361 0.75005 0.43002 0.0
H475 H 0.72055 0.73295 0.45819 0.0
H476 H 0.74091 0.77554 0.42932 0.0
H477 H 0.69316 0.59515 0.36639 0.0
H478 H 0.68429 0.59432 0.41004 0.0
H479 H 0.65704 0.61099 0.38193 0.0
H480 H 0.64667 0.61285 0.5086 0.0
H481 H 0.58243 0.65179 0.43901 0.0
H482 H 0.73148 0.66944 0.47094 0.0
H483 H 0.71784 0.62054 0.45757 0.0
H484 H 0.7087 0.6275 0.49975 0.0
H485 H 0.65393 0.71868 0.3884 0.0
H486 H 0.60693 0.69149 0.39021 0.0
H487 H 0.63903 0.67166 0.37173 0.0
C488 C 0.15623 0.35845 0.17845 0.0
C489 C 0.19299 0.37864 0.17831 0.0
C490 C 0.13337 0.37457 0.16028 0.0
C491 C 0.14747 0.41195 0.14183 0.0
C492 C 0.18458 0.43205 0.14114 0.0
C493 C 0.2068 0.41499 0.15897 0.0
C494 C 0.09406 0.3519 0.16117 0.0
C495 C 0.20086 0.47206 0.12199 0.0
C496 C 0.10248 0.44763 0.07038 0.0
C497 C 0.08832 0.4745 0.08466 0.0
C498 C 0.11965 0.42501 0.08921 0.0
C499 C 0.12384 0.43039 0.123 0.0
C500 C 0.10857 0.45669 0.13777 0.0
C501 C 0.09058 0.47812 0.11845 0.0
C502 C 0.13499 0.39697 0.07248 0.0
C503 C 0.11329 0.4642 0.17345 0.0
H504 H 0.14513 0.33052 0.1934 0.0
H505 H 0.23522 0.43045 0.15789 0.0
H506 H 0.07849 0.36941 0.1722 0.0
H507 H 0.08538 0.34729 0.1358 0.0
H508 H 0.08744 0.32252 0.17556 0.0
H509 H 0.23023 0.48375 0.1239 0.0
H510 H 0.19517 0.46995 0.09567 0.0
H511 H 0.18875 0.4938 0.13122 0.0
H512 H 0.10091 0.44507 0.04417 0.0
H513 H 0.08034 0.4996 0.12933 0.0
H514 H 0.12746 0.36764 0.08699 0.0
H515 H 0.16455 0.40898 0.07093 0.0
H516 H 0.12576 0.39262 0.04722 0.0
H517 H 0.10582 0.43571 0.18916 0.0
H518 H 0.09708 0.48251 0.18199 0.0
H519 H 0.1418 0.47995 0.17693 0.0
C520 C 0.68147 0.24481 0.91801 0.0
C521 C 0.66712 0.27579 0.91138 0.0
C522 C 0.66296 0.21163 0.93966 0.0
C523 C 0.6298 0.21007 0.95499 0.0
C524 C 0.6158 0.24187 0.94883 0.0
C525 C 0.63465 0.2743 0.92711 0.0
C526 C 0.67859 0.17819 0.94592 0.0
C527 C 0.58074 0.24159 0.96496 0.0
C528 C 0.55976 0.11364 0.98642 0.0
C529 C 0.56153 0.11574 0.02037 0.0
C530 C 0.58291 0.14353 0.96463 0.0
C531 C 0.60908 0.17523 0.97731 0.0
C532 C 0.61227 0.17604 0.01167 0.0
C533 C 0.58792 0.14658 0.03286 0.0
C534 C 0.57796 0.14242 0.92819 0.0
C535 C 0.6404 0.20885 0.02604 0.0
H536 H 0.70672 0.2463 0.90589 0.0
H537 H 0.62401 0.29879 0.9224 0.0
H538 H 0.68092 0.17236 0.97268 0.0
H539 H 0.66054 0.15054 0.93733 0.0
H540 H 0.70532 0.18475 0.93321 0.0
H541 H 0.57363 0.26873 0.9573 0.0
H542 H 0.55898 0.21529 0.95866 0.0
H543 H 0.58208 0.23932 0.99207 0.0
H544 H 0.53916 0.08968 0.97697 0.0
H545 H 0.5894 0.1477 0.05924 0.0
H546 H 0.6037 0.14592 0.91471 0.0
H547 H 0.56874 0.16761 0.91907 0.0
H548 H 0.55811 0.11434 0.92223 0.0
H549 H 0.66695 0.21329 0.01371 0.0
H550 H 0.64202 0.20252 0.05289 0.0
H551 H 0.6342 0.23716 0.02183 0.0
C552 C 0.89971 0.79567 0.35797 0.0
C553 C 0.87967 0.80256 0.33176 0.0
C554 C 0.91633 0.82615 0.37753 0.0
C555 C 0.91256 0.86426 0.37071 0.0
C556 C 0.89604 0.87241 0.34186 0.0
C557 C 0.87979 0.84134 0.32261 0.0
C558 C 0.93409 0.81617 0.4077 0.0
C559 C 0.89172 0.91268 0.33343 0.0
C560 C 0.89814 0.91761 0.44439 0.0
C561 C 0.93114 0.94722 0.44522 0.0
C562 C 0.89204 0.89036 0.42043 0.0
C563 C 0.9196 0.89272 0.39655 0.0
C564 C 0.95317 0.92211 0.3975 0.0
C565 C 0.95858 0.94898 0.42185 0.0
C566 C 0.85584 0.85925 0.42044 0.0
C567 C 0.98319 0.92543 0.37259 0.0
H568 H 0.89935 0.76552 0.36513 0.0
H569 H 0.86392 0.84654 0.30258 0.0
H570 H 0.95842 0.84081 0.41184 0.0
H571 H 0.91541 0.81149 0.42955 0.0
H572 H 0.94145 0.78864 0.40579 0.0
H573 H 0.88454 0.91635 0.30757 0.0
H574 H 0.87017 0.91618 0.34981 0.0
H575 H 0.91656 0.93675 0.33733 0.0
H576 H 0.8768 0.91593 0.46231 0.0
H577 H 0.98417 0.97181 0.42221 0.0
H578 H 0.85876 0.82912 0.42264 0.0
H579 H 0.84345 0.86272 0.39686 0.0
H580 H 0.83741 0.86115 0.44088 0.0
H581 H 0.98925 0.89694 0.37319 0.0
H582 H 0.00792 0.94948 0.37702 0.0
H583 H 0.97499 0.9314 0.34749 0.0
C584 C 0.4049 0.81797 0.67839 0.0
C585 C 0.39413 0.81036 0.7118 0.0
C586 C 0.42243 0.79454 0.66327 0.0
C587 C 0.4285 0.76223 0.68193 0.0
C588 C 0.41837 0.75504 0.71593 0.0
C589 C 0.40153 0.77949 0.73055 0.0
C590 C 0.43334 0.8035 0.62709 0.0
C591 C 0.42381 0.72047 0.73649 0.0
C592 C 0.43081 0.67604 0.63402 0.0
C593 C 0.46746 0.68103 0.63091 0.0
C594 C 0.41787 0.70184 0.65113 0.0
C595 C 0.44219 0.73382 0.66516 0.0
C596 C 0.47925 0.73898 0.66238 0.0
C597 C 0.49148 0.71229 0.64542 0.0
C598 C 0.37809 0.69495 0.65402 0.0
C599 C 0.50591 0.77304 0.67681 0.0
H600 H 0.39929 0.84209 0.66407 0.0
H601 H 0.39289 0.77355 0.75638 0.0
H602 H 0.46165 0.80509 0.62277 0.0
H603 H 0.41697 0.7792 0.61331 0.0
H604 H 0.4299 0.83189 0.61693 0.0
H605 H 0.41656 0.72052 0.76296 0.0
H606 H 0.40719 0.69218 0.72771 0.0
H607 H 0.45203 0.72109 0.73385 0.0
H608 H 0.41203 0.65169 0.62321 0.0
H609 H 0.51982 0.71624 0.64311 0.0
H610 H 0.37184 0.72071 0.64169 0.0
H611 H 0.36886 0.69224 0.68025 0.0
H612 H 0.3627 0.66772 0.64284 0.0
H613 H 0.5046 0.80164 0.66492 0.0
H614 H 0.53367 0.77212 0.67353 0.0
H615 H 0.49926 0.77257 0.70343 0.0
C616 C 0.89684 0.89989 0.73825 0.0
C617 C 0.86001 0.87984 0.74181 0.0
C618 C 0.91332 0.91853 0.70773 0.0
C619 C 0.89253 0.91755 0.67994 0.0
C620 C 0.85544 0.89704 0.6832 0.0
C621 C 0.83968 0.87837 0.71398 0.0
C622 C 0.95299 0.93975 0.70532 0.0
C623 C 0.83236 0.89482 0.65415 0.0
C624 C 0.92976 0.99933 0.61034 0.0
C625 C 0.94628 0.98068 0.58875 0.0
C626 C 0.91187 0.979 0.6399 0.0
C627 C 0.90963 0.93872 0.64771 0.0
C628 C 0.92502 0.91929 0.6253 0.0
C629 C 0.94358 0.94064 0.59637 0.0
C630 C 0.89629 0.00099 0.66328 0.0
C631 C 0.92259 0.87618 0.63221 0.0
H632 H 0.91281 0.90162 0.75952 0.0
H633 H 0.81139 0.86224 0.71613 0.0
H634 H 0.96618 0.92762 0.68625 0.0
H635 H 0.95813 0.97175 0.69773 0.0
H636 H 0.96555 0.93692 0.72897 0.0
H637 H 0.80405 0.87723 0.6606 0.0
H638 H 0.83346 0.92518 0.64437 0.0
H639 H 0.84262 0.8812 0.63412 0.0
H640 H 0.93196 0.03032 0.60472 0.0
H641 H 0.95609 0.92597 0.57966 0.0
H642 H 0.9095 0.00187 0.68693 0.0
H643 H 0.86746 0.98517 0.66868 0.0
H644 H 0.89957 0.03195 0.65333 0.0
H645 H 0.93827 0.87275 0.65367 0.0
H646 H 0.93283 0.86442 0.61092 0.0
H647 H 0.89451 0.85779 0.63854 0.0
C648 C 0.63206 0.15562 0.30877 0.0
C649 C 0.66947 0.17094 0.30659 0.0
C650 C 0.61298 0.14159 0.28158 0.0
C651 C 0.63173 0.14182 0.25152 0.0
C652 C 0.66954 0.1549 0.24954 0.0
C653 C 0.68805 0.16959 0.27713 0.0
C654 C 0.57265 0.12817 0.28469 0.0
C655 C 0.69034 0.1547 0.21801 0.0
C656 C 0.57261 0.08298 0.18953 0.0
C657 C 0.56318 0.11306 0.17151 0.0
C658 C 0.5968 0.09207 0.21448 0.0
C659 C 0.61133 0.13203 0.22174 0.0
C660 C 0.60278 0.16253 0.20281 0.0
C661 C 0.57896 0.15267 0.17785 0.0
C662 C 0.60586 0.05886 0.23374 0.0
C663 C 0.61732 0.20547 0.20999 0.0
H664 H 0.61749 0.15511 0.33179 0.0
H665 H 0.71694 0.18105 0.27534 0.0
H666 H 0.5625 0.14792 0.26809 0.0
H667 H 0.5617 0.09765 0.2771 0.0
H668 H 0.56219 0.12854 0.31016 0.0
H669 H 0.71926 0.16078 0.22165 0.0
H670 H 0.67991 0.12561 0.20765 0.0
H671 H 0.68712 0.17769 0.19954 0.0
H672 H 0.56084 0.05231 0.18442 0.0
H673 H 0.57198 0.17609 0.16386 0.0
H674 H 0.59364 0.05455 0.25909 0.0
H675 H 0.63516 0.06654 0.23568 0.0
H676 H 0.59606 0.03032 0.22237 0.0
H677 H 0.60654 0.20914 0.23451 0.0
H678 H 0.61016 0.22582 0.19143 0.0
H679 H 0.64679 0.21457 0.21069 0.0
C680 C 0.40025 0.66271 0.37149 0.0
C681 C 0.36367 0.64216 0.37563 0.0
C682 C 0.42271 0.66251 0.39744 0.0
C683 C 0.40794 0.64153 0.42804 0.0
C684 C 0.37049 0.62452 0.43319 0.0
C685 C 0.34879 0.62474 0.40676 0.0
C686 C 0.46248 0.68125 0.39108 0.0
C687 C 0.35365 0.60279 0.46571 0.0
C688 C 0.45937 0.58332 0.47495 0.0
C689 C 0.4716 0.60684 0.50074 0.0
C690 C 0.43961 0.59512 0.4506 0.0
C691 C 0.4314 0.63103 0.4524 0.0
C692 C 0.44392 0.65513 0.47822 0.0
C693 C 0.46419 0.64289 0.50197 0.0
C694 C 0.42701 0.56876 0.4232 0.0
C695 C 0.43565 0.69352 0.48097 0.0
H696 H 0.41168 0.67608 0.3473 0.0
H697 H 0.32039 0.60913 0.40986 0.0
H698 H 0.47452 0.69747 0.41214 0.0
H699 H 0.47496 0.65761 0.38809 0.0
H700 H 0.4691 0.7021 0.36846 0.0
H701 H 0.32427 0.59679 0.46727 0.0
H702 H 0.35913 0.57397 0.46888 0.0
H703 H 0.36527 0.62014 0.48636 0.0
H704 H 0.46538 0.55568 0.47367 0.0
H705 H 0.47369 0.66126 0.52186 0.0
H706 H 0.43593 0.58599 0.39901 0.0
H707 H 0.39741 0.55763 0.42436 0.0
H708 H 0.43714 0.54283 0.42452 0.0
H709 H 0.44919 0.7152 0.46003 0.0
H710 H 0.44454 0.70687 0.5042 0.0
H711 H 0.40657 0.68855 0.47971 0.0
C712 C 0.10255 0.41361 0.8615 0.0
C713 C 0.13834 0.41522 0.85837 0.0
C714 C 0.09285 0.4443 0.87457 0.0
C715 C 0.11965 0.47696 0.88534 0.0
C716 C 0.15609 0.47982 0.88037 0.0
C717 C 0.16506 0.44882 0.86668 0.0
C718 C 0.0537 0.44011 0.87929 0.0
C719 C 0.18534 0.51372 0.89212 0.0
C720 C 0.08616 0.55871 0.9151 0.0
C721 C 0.07616 0.54409 0.94797 0.0
C722 C 0.10202 0.53823 0.89433 0.0
C723 C 0.10885 0.50327 0.90718 0.0
C724 C 0.10098 0.49015 0.94085 0.0
C725 C 0.08392 0.51003 0.96046 0.0
C726 C 0.10958 0.55264 0.85839 0.0
C727 C 0.10852 0.45359 0.95595 0.0
H728 H 0.08204 0.3875 0.85488 0.0
H729 H 0.19274 0.44973 0.86429 0.0
H730 H 0.04513 0.43248 0.90571 0.0
H731 H 0.04885 0.46853 0.87161 0.0
H732 H 0.03679 0.41646 0.86518 0.0
H733 H 0.21201 0.51538 0.88138 0.0
H734 H 0.18048 0.54246 0.8859 0.0
H735 H 0.1857 0.5095 0.91928 0.0
H736 H 0.08003 0.58488 0.90523 0.0
H737 H 0.07574 0.49796 0.98555 0.0
H738 H 0.0904 0.53178 0.84369 0.0
H739 H 0.13676 0.55316 0.85013 0.0
H740 H 0.10711 0.58276 0.85309 0.0
H741 H 0.08893 0.42663 0.94785 0.0
H742 H 0.10657 0.45156 0.98322 0.0
H743 H 0.13556 0.45347 0.94787 0.0
C744 C 0.70409 0.87966 0.90783 0.0
C745 C 0.69548 0.88101 0.8748 0.0
C746 C 0.68897 0.8982 0.931 0.0
C747 C 0.66485 0.91868 0.92083 0.0
C748 C 0.65734 0.9214 0.88723 0.0
C749 C 0.67273 0.90265 0.86474 0.0
C750 C 0.69769 0.89453 0.96655 0.0
C751 C 0.63205 0.94307 0.8751 0.0
C752 C 0.59233 0.93098 0.97874 0.0
C753 C 0.60538 0.97151 0.98368 0.0
C754 C 0.61211 0.913 0.95957 0.0
C755 C 0.64603 0.9359 0.94513 0.0
C756 C 0.66015 0.97629 0.95141 0.0
C757 C 0.63962 0.99365 0.97041 0.0
C758 C 0.5959 0.86991 0.95345 0.0
C759 C 0.69639 0.00162 0.93692 0.0
H760 H 0.72149 0.8628 0.91578 0.0
H761 H 0.66638 0.90427 0.83915 0.0
H762 H 0.70471 0.92389 0.97667 0.0
H763 H 0.67388 0.87468 0.98118 0.0
H764 H 0.7201 0.88213 0.96984 0.0
H765 H 0.63002 0.94368 0.84803 0.0
H766 H 0.60503 0.92845 0.88699 0.0
H767 H 0.64099 0.97409 0.88193 0.0
H768 H 0.56596 0.9135 0.98883 0.0
H769 H 0.65014 0.02488 0.97423 0.0
H770 H 0.61494 0.85328 0.95902 0.0
H771 H 0.59025 0.86768 0.92711 0.0
H772 H 0.57064 0.85536 0.96847 0.0
H773 H 0.71664 0.98653 0.94219 0.0
H774 H 0.70507 0.03127 0.94662 0.0
H775 H 0.69562 0.00589 0.90981 0.0
C776 C 0.75179 0.14065 0.41013 0.0
C777 C 0.76094 0.17586 0.38939 0.0
C778 C 0.77817 0.12486 0.42168 0.0
C779 C 0.81455 0.14505 0.41243 0.0
C780 C 0.82384 0.18115 0.3919 0.0
C781 C 0.79681 0.19601 0.38042 0.0
C782 C 0.76702 0.08611 0.44314 0.0
C783 C 0.86226 0.20371 0.38163 0.0
C784 C 0.88546 0.11915 0.46274 0.0
C785 C 0.89612 0.0939 0.44282 0.0
C786 C 0.85912 0.13623 0.45311 0.0
C787 C 0.84271 0.12748 0.42304 0.0
C788 C 0.85306 0.10166 0.40303 0.0
C789 C 0.87973 0.08542 0.41304 0.0
C790 C 0.849 0.16385 0.47499 0.0
C791 C 0.83585 0.09107 0.37104 0.0
H792 H 0.72387 0.12514 0.41683 0.0
H793 H 0.80364 0.22325 0.36429 0.0
H794 H 0.7751 0.06336 0.4306 0.0
H795 H 0.78073 0.08984 0.46653 0.0
H796 H 0.73774 0.07481 0.4489 0.0
H797 H 0.86515 0.23245 0.36727 0.0
H798 H 0.87828 0.20961 0.40361 0.0
H799 H 0.87366 0.18554 0.36642 0.0
H800 H 0.89799 0.12594 0.48574 0.0
H801 H 0.88753 0.06573 0.39755 0.0
H802 H 0.82011 0.15216 0.48238 0.0
H803 H 0.8538 0.19337 0.46132 0.0
H804 H 0.86432 0.16779 0.49753 0.0
H805 H 0.80659 0.07738 0.37559 0.0
H806 H 0.84652 0.0701 0.35852 0.0
H807 H 0.84026 0.11833 0.35419 0.0
C808 C 0.2688 0.69052 0.166 0.0
C809 C 0.25744 0.68761 0.19918 0.0
C810 C 0.24419 0.67958 0.14179 0.0
C811 C 0.20733 0.66568 0.15103 0.0
C812 C 0.19569 0.66166 0.18464 0.0
C813 C 0.22101 0.67253 0.20844 0.0
C814 C 0.25759 0.68366 0.1063 0.0
C815 C 0.15653 0.6467 0.19533 0.0
C816 C 0.14038 0.67791 0.08994 0.0
C817 C 0.12728 0.63951 0.08003 0.0
C818 C 0.16755 0.68721 0.11213 0.0
C819 C 0.18092 0.65697 0.1254 0.0
C820 C 0.1684 0.61836 0.11477 0.0
C821 C 0.14203 0.61025 0.09181 0.0
C822 C 0.18101 0.72898 0.12232 0.0
C823 C 0.18142 0.58509 0.12883 0.0
H824 H 0.2971 0.70141 0.15899 0.0
H825 H 0.21237 0.67013 0.23415 0.0
H826 H 0.24654 0.6551 0.09529 0.0
H827 H 0.24831 0.70609 0.09207 0.0
H828 H 0.28718 0.69281 0.10348 0.0
H829 H 0.152 0.64353 0.2225 0.0
H830 H 0.14301 0.66759 0.18481 0.0
H831 H 0.14372 0.6175 0.18588 0.0
H832 H 0.12876 0.70038 0.08093 0.0
H833 H 0.13138 0.58027 0.08469 0.0
H834 H 0.21053 0.74054 0.11892 0.0
H835 H 0.17397 0.72891 0.14881 0.0
H836 H 0.16958 0.74958 0.10808 0.0
H837 H 0.21098 0.59415 0.12674 0.0
H838 H 0.1706 0.55749 0.11636 0.0
H839 H 0.17313 0.57831 0.15536 0.0
C840 C 0.26905 0.43038 0.70497 0.0
C841 C 0.26733 0.3943 0.72228 0.0
C842 C 0.3019 0.45687 0.69208 0.0
C843 C 0.33364 0.44689 0.69678 0.0
C844 C 0.3319 0.41062 0.71483 0.0
C845 C 0.29865 0.38465 0.7273 0.0
C846 C 0.30261 0.49525 0.6731 0.0
C847 C 0.36509 0.39907 0.72065 0.0
C848 C 0.41375 0.49625 0.63698 0.0
C849 C 0.43498 0.52568 0.65523 0.0
C850 C 0.3808 0.47028 0.65028 0.0
C851 C 0.36861 0.47409 0.68245 0.0
C852 C 0.3899 0.50378 0.70095 0.0
C853 C 0.42287 0.52903 0.68721 0.0
C854 C 0.35892 0.43884 0.62987 0.0
C855 C 0.37767 0.5092 0.73514 0.0
H856 H 0.24459 0.43758 0.70122 0.0
H857 H 0.29703 0.35664 0.74081 0.0
H858 H 0.32111 0.52086 0.68401 0.0
H859 H 0.31273 0.49583 0.64739 0.0
H860 H 0.27579 0.49925 0.67273 0.0
H861 H 0.35924 0.37018 0.73568 0.0
H862 H 0.37822 0.39698 0.69678 0.0
H863 H 0.38444 0.42224 0.73336 0.0
H864 H 0.42286 0.49351 0.61226 0.0
H865 H 0.43889 0.55192 0.70141 0.0
H866 H 0.33253 0.44301 0.62621 0.0
H867 H 0.35397 0.40898 0.64298 0.0
H868 H 0.37225 0.43953 0.6054 0.0
H869 H 0.35199 0.5158 0.73439 0.0
H870 H 0.39741 0.53364 0.74633 0.0
H871 H 0.37289 0.48134 0.7513 0.0
C872 C 0.89378 0.81621 0.86024 0.0
C873 C 0.86174 0.79683 0.84634 0.0
C874 C 0.91209 0.79466 0.8789 0.0
C875 C 0.89853 0.75261 0.88296 0.0
C876 C 0.86621 0.73292 0.86868 0.0
C877 C 0.84797 0.75534 0.85086 0.0
C878 C 0.94589 0.81689 0.89437 0.0
C879 C 0.85112 0.68818 0.87189 0.0
C880 C 0.96305 0.69546 0.90684 0.0
C881 C 0.95382 0.68493 0.94045 0.0
C882 C 0.94517 0.71729 0.88775 0.0
C883 C 0.91779 0.72936 0.90272 0.0
C884 C 0.90883 0.71932 0.93674 0.0
C885 C 0.92675 0.6971 0.95506 0.0
C886 C 0.9551 0.72685 0.85144 0.0
C887 C 0.88019 0.73193 0.95384 0.0
H888 H 0.90435 0.84833 0.85666 0.0
H889 H 0.82334 0.74041 0.83976 0.0
H890 H 0.94322 0.80901 0.92132 0.0
H891 H 0.96862 0.80815 0.88462 0.0
H892 H 0.95233 0.8496 0.88966 0.0
H893 H 0.82628 0.6774 0.85858 0.0
H894 H 0.87111 0.67518 0.86207 0.0
H895 H 0.8452 0.67694 0.89817 0.0
H896 H 0.98364 0.68583 0.89528 0.0
H897 H 0.91943 0.6892 0.98103 0.0
H898 H 0.96377 0.75946 0.84523 0.0
H899 H 0.93142 0.71387 0.8372 0.0
H900 H 0.97686 0.7153 0.84347 0.0
H901 H 0.88666 0.7647 0.95032 0.0
H902 H 0.87704 0.72263 0.98062 0.0
H903 H 0.85423 0.7189 0.94288 0.0
C904 C 0.38852 0.78564 0.19832 0.0
C905 C 0.36886 0.78423 0.22765 0.0
C906 C 0.409 0.82194 0.18208 0.0
C907 C 0.41017 0.85769 0.19585 0.0
C908 C 0.39259 0.85623 0.22687 0.0
C909 C 0.37169 0.81928 0.24236 0.0
C910 C 0.42683 0.82204 0.14881 0.0
C911 C 0.39388 0.8937 0.24252 0.0
C912 C 0.47945 0.94287 0.14751 0.0
C913 C 0.45849 0.95354 0.12379 0.0
C914 C 0.46356 0.91453 0.17382 0.0
C915 C 0.42616 0.89591 0.1755 0.0
C916 C 0.40482 0.9093 0.15297 0.0
C917 C 0.42137 0.93828 0.1274 0.0
C918 C 0.48705 0.90193 0.19794 0.0
C919 C 0.3649 0.88997 0.15349 0.0
H920 H 0.38572 0.75834 0.18691 0.0
H921 H 0.35591 0.81798 0.26484 0.0
H922 H 0.41422 0.83609 0.12958 0.0
H923 H 0.45546 0.83973 0.14816 0.0
H924 H 0.42476 0.79161 0.14244 0.0
H925 H 0.38405 0.88741 0.26874 0.0
H926 H 0.4215 0.91458 0.24082 0.0
H927 H 0.37697 0.90885 0.22922 0.0
H928 H 0.50829 0.95493 0.14442 0.0
H929 H 0.40546 0.94669 0.10871 0.0
H930 H 0.49032 0.87341 0.1916 0.0
H931 H 0.47467 0.8971 0.22327 0.0
H932 H 0.51394 0.92432 0.1975 0.0
H933 H 0.35907 0.85985 0.14492 0.0
H934 H 0.35189 0.90729 0.1373 0.0
H935 H 0.35278 0.88653 0.17879 0.0
C936 C 0.17778 0.25018 0.69492 0.0
C937 C 0.16185 0.2774 0.7059 0.0
C938 C 0.16014 0.22158 0.67409 0.0
C939 C 0.1262 0.22099 0.66324 0.0
C940 C 0.1097 0.24796 0.67492 0.0
C941 C 0.12759 0.27556 0.69644 0.0
C942 C 0.17824 0.19264 0.66303 0.0
C943 C 0.07384 0.24873 0.66363 0.0
C944 C 0.1055 0.18098 0.58006 0.0
C945 C 0.08205 0.1427 0.58877 0.0
C946 C 0.11894 0.20715 0.60402 0.0
C947 C 0.10944 0.19443 0.63767 0.0
C948 C 0.08515 0.15605 0.64662 0.0
C949 C 0.07141 0.13078 0.62201 0.0
C950 C 0.14411 0.24813 0.59335 0.0
C951 C 0.075 0.141 0.68223 0.0
H952 H 0.20412 0.25137 0.70264 0.0
H953 H 0.11534 0.29671 0.70498 0.0
H954 H 0.1597 0.16183 0.66692 0.0
H955 H 0.18569 0.19904 0.63634 0.0
H956 H 0.20273 0.19429 0.67633 0.0
H957 H 0.06389 0.27022 0.67619 0.0
H958 H 0.0759 0.25699 0.63675 0.0
H959 H 0.05388 0.21881 0.66822 0.0
H960 H 0.11379 0.19031 0.55441 0.0
H961 H 0.0537 0.10098 0.62893 0.0
H962 H 0.17091 0.25106 0.60247 0.0
H963 H 0.13455 0.27099 0.60415 0.0
H964 H 0.14682 0.25446 0.5662 0.0
H965 H 0.09885 0.13804 0.69455 0.0
H966 H 0.05385 0.11168 0.68503 0.0
H967 H 0.06555 0.16246 0.69522 0.0
C968 C 0.6458 0.32684 0.48042 0.0
C969 C 0.6476 0.32054 0.4471 0.0
C970 C 0.64003 0.36128 0.49036 0.0
C971 C 0.63601 0.39019 0.46632 0.0
C972 C 0.64112 0.38568 0.43253 0.0
C973 C 0.64682 0.35068 0.42325 0.0
C974 C 0.63521 0.365 0.52663 0.0
C975 C 0.63793 0.41637 0.40623 0.0
C976 C 0.57181 0.44332 0.49428 0.0
C977 C 0.59521 0.47822 0.50451 0.0
C978 C 0.58489 0.41508 0.48066 0.0
C979 C 0.62225 0.42221 0.47676 0.0
C980 C 0.64598 0.45825 0.48563 0.0
C981 C 0.63217 0.48569 0.49962 0.0
C982 C 0.55869 0.37686 0.47165 0.0
C983 C 0.68592 0.46727 0.48147 0.0
H984 H 0.64666 0.30352 0.49879 0.0
H985 H 0.64813 0.34573 0.39746 0.0
H986 H 0.65115 0.39487 0.53298 0.0
H987 H 0.60675 0.3613 0.53298 0.0
H988 H 0.64312 0.34231 0.54203 0.0
H989 H 0.6481 0.41172 0.38172 0.0
H990 H 0.60948 0.41468 0.4047 0.0
H991 H 0.65278 0.44674 0.41239 0.0
H992 H 0.54326 0.43746 0.49792 0.0
H993 H 0.65047 0.5129 0.50706 0.0
H994 H 0.562 0.3514 0.48723 0.0
H995 H 0.56405 0.37221 0.44572 0.0
H996 H 0.53056 0.37657 0.47488 0.0
H997 H 0.69468 0.44786 0.49961 0.0
H998 H 0.70049 0.4987 0.48512 0.0
H999 H 0.69364 0.46097 0.45664 0.0
loop_
_geom_bond_atom_site_label_1
_geom_bond_atom_site_label_2
_geom_bond_distance
_geom_bond_site_symmetry_2
_ccdc_geom_bond_type
H0 C1 0.949 . S
C1 H0 0.949 . S
C1 C2 1.395 . S
C1 C3 1.391 . S
C2 C1 1.395 . S
C2 C5 1.390 . S
C3 C1 1.391 . S
C3 C7 1.387 . S
C3 C8 1.491 . S
H4 C5 0.950 . S
C5 C2 1.390 . S
C5 H4 0.950 . S
C5 C6 1.378 . S
C6 C5 1.378 . S
C6 C7 1.409 . S
C7 C3 1.387 . S
C7 C6 1.409 . S
C7 H9 0.951 . S
C8 C3 1.491 . S
C8 C10 1.382 . S
C8 C12 1.404 . S
H9 C7 0.951 . S
C10 C8 1.382 . S
C10 C11 1.390 . S
C10 H15 0.949 . S
C11 C10 1.390 . S
C11 C16 1.399 . S
C12 C8 1.404 . S
C12 H13 0.950 . S
C12 C14 1.375 . S
H13 C12 0.950 . S
C14 C12 1.375 . S
C14 C16 1.382 . S
C14 H18 0.950 . S
H15 C10 0.949 . S
C16 C11 1.399 . S
C16 C14 1.382 . S
C16 H17 0.952 . S
H17 C16 0.952 . S
H18 C14 0.950 . S
H19 C20 0.949 . S
C20 H19 0.949 . S
C20 C21 1.395 . S
C20 C22 1.391 . S
C21 C20 1.395 . S
C21 C24 1.390 . S
C22 C20 1.391 . S
C22 C26 1.387 . S
C22 C27 1.491 . S
H23 C24 0.950 . S
C24 C21 1.390 . S
C24 H23 0.950 . S
C24 C25 1.378 . S
C25 C24 1.378 . S
C25 C26 1.409 . S
C26 C22 1.387 . S
C26 C25 1.409 . S
C26 H28 0.951 . S
C27 C22 1.491 . S
C27 C29 1.382 . S
C27 C31 1.404 . S
H28 C26 0.951 . S
C29 C27 1.382 . S
C29 C30 1.390 . S
C29 H34 0.949 . S
C30 C29 1.390 . S
C30 C35 1.399 . S
C31 C27 1.404 . S
C31 H32 0.950 . S
C31 C33 1.375 . S
H32 C31 0.950 . S
C33 C31 1.375 . S
C33 C35 1.382 . S
C33 H37 0.950 . S
H34 C29 0.949 . S
C35 C30 1.399 . S
C35 C33 1.382 . S
C35 H36 0.952 . S
H36 C35 0.952 . S
H37 C33 0.950 . S
H38 C39 0.949 . S
C39 H38 0.949 . S
C39 C40 1.395 . S
C39 C41 1.391 . S
C40 C39 1.395 . S
C40 C43 1.390 . S
C41 C39 1.391 . S
C41 C45 1.387 . S
C41 C46 1.491 . S
H42 C43 0.950 . S
C43 C40 1.390 . S
C43 H42 0.950 . S
C43 C44 1.378 . S
C44 C43 1.378 . S
C44 C45 1.409 . S
C45 C41 1.387 . S
C45 C44 1.409 . S
C45 H47 0.951 . S
C46 C41 1.491 . S
C46 C48 1.382 . S
C46 C50 1.404 . S
H47 C45 0.951 . S
C48 C46 1.382 . S
C48 C49 1.390 . S
C48 H53 0.949 . S
C49 C48 1.390 . S
C49 C54 1.399 . S
C50 C46 1.404 . S
C50 H51 0.950 . S
C50 C52 1.375 . S
H51 C50 0.950 . S
C52 C50 1.375 . S
C52 C54 1.382 . S
C52 H56 0.950 . S
H53 C48 0.949 . S
C54 C49 1.399 . S
C54 C52 1.382 . S
C54 H55 0.952 . S
H55 C54 0.952 . S
H56 C52 0.950 . S
H57 C58 0.949 . S
C58 H57 0.949 . S
C58 C59 1.395 . S
C58 C60 1.391 . S
C59 C58 1.395 . S
C59 C62 1.390 . S
C60 C58 1.391 . S
C60 C64 1.387 . S
C60 C65 1.491 . S
H61 C62 0.950 . S
C62 C59 1.390 . S
C62 H61 0.950 . S
C62 C63 1.378 . S
C63 C62 1.378 . S
C63 C64 1.409 . S
C64 C60 1.387 . S
C64 C63 1.409 . S
C64 H66 0.951 . S
C65 C60 1.491 . S
C65 C67 1.382 . S
C65 C69 1.404 . S
H66 C64 0.951 . S
C67 C65 1.382 . S
C67 C68 1.390 . S
C67 H72 0.949 . S
C68 C67 1.390 . S
C68 C73 1.399 . S
C69 C65 1.404 . S
C69 H70 0.950 . S
C69 C71 1.375 . S
H70 C69 0.950 . S
C71 C69 1.375 . S
C71 C73 1.382 . S
C71 H75 0.950 . S
H72 C67 0.949 . S
C73 C68 1.399 . S
C73 C71 1.382 . S
C73 H74 0.952 . S
H74 C73 0.952 . S
H75 C71 0.950 . S
H76 C77 0.949 . S
C77 H76 0.949 . S
C77 C78 1.395 . S
C77 C79 1.391 . S
C78 C77 1.395 . S
C78 C81 1.390 . S
C79 C77 1.391 . S
C79 C83 1.387 . S
C79 C84 1.491 . S
H80 C81 0.950 . S
C81 C78 1.390 . S
C81 H80 0.950 . S
C81 C82 1.378 . S
C82 C81 1.378 . S
C82 C83 1.409 . S
C83 C79 1.387 . S
C83 C82 1.409 . S
C83 H85 0.951 . S
C84 C79 1.491 . S
C84 C86 1.382 . S
C84 C88 1.404 . S
H85 C83 0.951 . S
C86 C84 1.382 . S
C86 C87 1.390 . S
C86 H91 0.949 . S
C87 C86 1.390 . S
C87 C92 1.399 . S
C88 C84 1.404 . S
C88 H89 0.950 . S
C88 C90 1.375 . S
H89 C88 0.950 . S
C90 C88 1.375 . S
C90 C92 1.382 . S
C90 H94 0.950 . S
H91 C86 0.949 . S
C92 C87 1.399 . S
C92 C90 1.382 . S
C92 H93 0.952 . S
H93 C92 0.952 . S
H94 C90 0.950 . S
H95 C96 0.949 . S
C96 H95 0.949 . S
C96 C97 1.395 . S
C96 C98 1.391 . S
C97 C96 1.395 . S
C97 C100 1.390 . S
C98 C96 1.391 . S
C98 C102 1.387 . S
C98 C103 1.491 . S
H99 C100 0.950 . S
C100 C97 1.390 . S
C100 H99 0.950 . S
C100 C101 1.378 . S
C101 C100 1.378 . S
C101 C102 1.409 . S
C102 C98 1.387 . S
C102 C101 1.409 . S
C102 H104 0.951 . S
C103 C98 1.491 . S
C103 C105 1.382 . S
C103 C107 1.404 . S
H104 C102 0.951 . S
C105 C103 1.382 . S
C105 C106 1.390 . S
C105 H110 0.949 . S
C106 C105 1.390 . S
C106 C111 1.399 . S
C107 C103 1.404 . S
C107 H108 0.950 . S
C107 C109 1.375 . S
H108 C107 0.950 . S
C109 C107 1.375 . S
C109 C111 1.382 . S
C109 H113 0.950 . S
H110 C105 0.949 . S
C111 C106 1.399 . S
C111 C109 1.382 . S
C111 H112 0.952 . S
H112 C111 0.952 . S
H113 C109 0.950 . S
H114 C115 0.949 . S
C115 H114 0.949 . S
C115 C116 1.395 . S
C115 C117 1.391 . S
C116 C115 1.395 . S
C116 C119 1.390 . S
C117 C115 1.391 . S
C117 C121 1.387 . S
C117 C122 1.491 . S
H118 C119 0.950 . S
C119 C116 1.390 . S
C119 H118 0.950 . S
C119 C120 1.378 . S
C120 C119 1.378 . S
C120 C121 1.409 . S
C121 C117 1.387 . S
C121 C120 1.409 . S
C121 H123 0.951 . S
C122 C117 1.491 . S
C122 C124 1.382 . S
C122 C126 1.404 . S
H123 C121 0.951 . S
C124 C122 1.382 . S
C124 C125 1.390 . S
C124 H129 0.949 . S
C125 C124 1.390 . S
C125 C130 1.399 . S
C126 C122 1.404 . S
C126 H127 0.950 . S
C126 C128 1.375 . S
H127 C126 0.950 . S
C128 C126 1.375 . S
C128 C130 1.382 . S
C128 H132 0.950 . S
H129 C124 0.949 . S
C130 C125 1.399 . S
C130 C128 1.382 . S
C130 H131 0.952 . S
H131 C130 0.952 . S
H132 C128 0.950 . S
H133 C134 0.949 . S
C134 H133 0.949 . S
C134 C135 1.395 . S
C134 C136 1.391 . S
C135 C134 1.395 . S
C135 C138 1.390 . S
C136 C134 1.391 . S
C136 C140 1.387 . S
C136 C141 1.491 . S
H137 C138 0.950 . S
C138 C135 1.390 . S
C138 H137 0.950 . S
C138 C139 1.378 . S
C139 C138 1.378 . S
C139 C140 1.409 . S
C140 C136 1.387 . S
C140 C139 1.409 . S
C140 H142 0.951 . S
C141 C136 1.491 . S
C141 C143 1.382 . S
C141 C145 1.404 . S
H142 C140 0.951 . S
C143 C141 1.382 . S
C143 C144 1.390 . S
C143 H148 0.949 . S
C144 C143 1.390 . S
C144 C149 1.399 . S
C145 C141 1.404 . S
C145 H146 0.950 . S
C145 C147 1.375 . S
H146 C145 0.950 . S
C147 C145 1.375 . S
C147 C149 1.382 . S
C147 H151 0.950 . S
H148 C143 0.949 . S
C149 C144 1.399 . S
C149 C147 1.382 . S
C149 H150 0.952 . S
H150 C149 0.952 . S
H151 C147 0.950 . S
Zn152 O158 1.969 . S
Zn152 O159 1.959 1_545 S
Zn152 O163 2.024 . S
Zn152 O168 1.969 . S
Zn153 O160 1.969 1_545 S
Zn153 O166 1.969 . S
Zn153 O167 1.965 1_655 S
Zn153 O169 2.024 1_545 S
C154 O155 1.229 . S
C154 O163 1.058 . S
O155 C154 1.229 . S
C156 O157 1.229 . S
C156 O169 1.058 . S
O157 C156 1.229 . S
O158 Zn152 1.969 . S
O158 C161 1.267 1_545 S
O159 Zn152 1.959 1_565 S
O159 C170 1.258 1_455 S
O160 Zn153 1.969 1_565 S
O160 C170 1.258 . S
C161 O158 1.267 1_565 S
C161 O162 1.228 1_565 S
O162 C161 1.228 1_545 S
O163 Zn152 2.024 . S
O163 C154 1.058 . S
C164 O165 1.228 . S
C164 O166 1.267 . S
O165 C164 1.228 . S
O166 Zn153 1.969 . S
O166 C164 1.267 . S
O167 Zn153 1.965 1_455 S
O167 C171 1.260 . S
O168 Zn152 1.969 . S
O168 C171 1.258 . S
O169 Zn153 2.024 1_565 S
O169 C156 1.058 . S
C170 O159 1.258 1_655 S
C170 O160 1.258 . S
C171 O167 1.260 . S
C171 O168 1.258 . S
Zn172 O178 1.969 . S
Zn172 O179 1.965 1_565 S
Zn172 O183 2.024 1_554 S
Zn172 O188 1.969 . S
Zn173 O180 1.969 . S
Zn173 O186 1.969 . S
Zn173 O187 1.965 . S
Zn173 O189 2.024 . S
C174 O175 1.229 . S
C174 O183 1.058 . S
O175 C174 1.229 . S
C176 O177 1.229 . S
C176 O189 1.058 . S
O177 C176 1.229 . S
O178 Zn172 1.969 . S
O178 C181 1.267 . S
O179 Zn172 1.965 1_545 S
O179 C190 1.260 . S
O180 Zn173 1.969 . S
O180 C190 1.258 . S
C181 O178 1.267 . S
C181 O182 1.228 1_554 S
O182 C181 1.228 1_556 S
O183 Zn172 2.024 1_556 S
O183 C174 1.058 . S
C184 O185 1.228 . S
C184 O186 1.267 . S
O185 C184 1.228 . S
O186 Zn173 1.969 . S
O186 C184 1.267 . S
O187 Zn173 1.965 . S
O187 C191 1.260 1_545 S
O188 Zn172 1.969 . S
O188 C191 1.258 . S
O189 Zn173 2.024 . S
O189 C176 1.058 . S
C190 O179 1.260 . S
C190 O180 1.258 . S
C191 O187 1.260 1_565 S
C191 O188 1.258 . S
Zn192 O198 1.969 . S
Zn192 O199 1.965 . S
Zn192 O203 2.024 . S
Zn192 O208 1.969 . S
Zn193 O200 1.969 . S
Zn193 O206 1.969 . S
Zn193 O207 1.965 . S
Zn193 O209 2.024 . S
C194 O195 1.229 . S
C194 O203 1.058 . S
O195 C194 1.229 . S
C196 O197 1.229 . S
C196 O209 1.058 . S
O197 C196 1.229 . S
O198 Zn192 1.969 . S
O198 C201 1.267 . S
O199 Zn192 1.965 . S
O199 C210 1.260 . S
O200 Zn193 1.969 . S
O200 C210 1.258 . S
C201 O198 1.267 . S
C201 O202 1.228 . S
O202 C201 1.228 . S
O203 Zn192 2.024 . S
O203 C194 1.058 . S
C204 O205 1.228 . S
C204 O206 1.267 . S
O205 C204 1.228 . S
O206 Zn193 1.969 . S
O206 C204 1.267 . S
O207 Zn193 1.965 . S
O207 C211 1.260 . S
O208 Zn192 1.969 . S
O208 C211 1.258 . S
O209 Zn193 2.024 . S
O209 C196 1.058 . S
C210 O199 1.260 . S
C210 O200 1.258 . S
C211 O207 1.260 . S
C211 O208 1.258 . S
Zn212 O218 1.969 1_655 S
Zn212 O219 1.965 1_656 S
Zn212 O223 2.024 . S
Zn212 O228 1.969 1_655 S
Zn213 O220 1.969 . S
Zn213 O226 1.969 . S
Zn213 O227 1.963 . S
Zn213 O229 2.024 . S
C214 O215 1.229 . S
C214 O223 1.058 . S
O215 C214 1.229 . S
C216 O217 1.229 . S
C216 O229 1.058 . S
O217 C216 1.229 . S
O218 Zn212 1.969 1_455 S
O218 C221 1.267 1_455 S
O219 Zn212 1.965 1_454 S
O219 C230 1.260 . S
O220 Zn213 1.969 . S
O220 C230 1.258 . S
C221 O218 1.267 1_655 S
C221 O222 1.228 . S
O222 C221 1.228 . S
O223 Zn212 2.024 . S
O223 C214 1.058 . S
C224 O225 1.228 . S
C224 O226 1.267 . S
O225 C224 1.228 . S
O226 Zn213 1.969 . S
O226 C224 1.267 . S
O227 Zn213 1.963 . S
O227 C231 1.262 1_554 S
O228 Zn212 1.969 1_455 S
O228 C231 1.258 . S
O229 Zn213 2.024 . S
O229 C216 1.058 . S
C230 O219 1.260 . S
C230 O220 1.258 . S
C231 O227 1.262 1_556 S
C231 O228 1.258 . S
C232 C233 1.391 . S
C232 C234 1.394 . S
C232 H248 0.931 . S
C233 C232 1.391 . S
C233 C237 1.376 . S
C234 C232 1.394 . S
C234 C235 1.369 . S
C234 C238 1.531 . S
C235 C234 1.369 . S
C235 C236 1.410 . S
C235 C243 1.503 . S
C236 C235 1.410 . S
C236 C237 1.392 . S
C236 C239 1.511 . S
C237 C233 1.376 . S
C237 C236 1.392 . S
C237 H249 0.929 . S
C238 C234 1.531 . S
C238 H250 0.960 . S
C238 H251 0.962 . S
C238 H252 0.960 . S
C239 C236 1.511 . S
C239 H253 0.961 . S
C239 H254 0.961 . S
C239 H255 0.961 . S
C240 C241 1.370 . S
C240 C242 1.363 . S
C240 H256 0.931 . S
C241 C240 1.370 . S
C241 C245 1.408 . S
C242 C240 1.363 . S
C242 C243 1.370 . S
C242 C246 1.524 . S
C243 C235 1.503 . S
C243 C242 1.370 . S
C243 C244 1.403 . S
C244 C243 1.403 . S
C244 C245 1.404 . S
C244 C247 1.539 . S
C245 C241 1.408 . S
C245 C244 1.404 . S
C245 H257 0.930 . S
C246 C242 1.524 . S
C246 H258 0.956 . S
C246 H259 0.961 . S
C246 H260 0.961 . S
C247 C244 1.539 . S
C247 H261 0.958 . S
C247 H262 0.961 . S
C247 H263 0.960 . S
H248 C232 0.931 . S
H249 C237 0.929 . S
H250 C238 0.960 . S
H251 C238 0.962 . S
H252 C238 0.960 . S
H253 C239 0.961 . S
H254 C239 0.961 . S
H255 C239 0.961 . S
H256 C240 0.931 . S
H257 C245 0.930 . S
H258 C246 0.956 . S
H259 C246 0.961 . S
H260 C246 0.961 . S
H261 C247 0.958 . S
H262 C247 0.961 . S
H263 C247 0.960 . S
C264 C265 1.391 . S
C264 C266 1.394 . S
C264 H280 0.931 . S
C265 C264 1.391 . S
C265 C269 1.376 . S
C266 C264 1.394 . S
C266 C267 1.369 . S
C266 C270 1.531 . S
C267 C266 1.369 . S
C267 C268 1.410 . S
C267 C275 1.503 . S
C268 C267 1.410 . S
C268 C269 1.392 . S
C268 C271 1.511 . S
C269 C265 1.376 . S
C269 C268 1.392 . S
C269 H281 0.929 . S
C270 C266 1.531 . S
C270 H282 0.960 . S
C270 H283 0.962 . S
C270 H284 0.960 . S
C271 C268 1.511 . S
C271 H285 0.961 . S
C271 H286 0.961 . S
C271 H287 0.961 . S
C272 C273 1.370 . S
C272 C274 1.363 . S
C272 H288 0.931 . S
C273 C272 1.370 . S
C273 C277 1.408 . S
C274 C272 1.363 . S
C274 C275 1.370 . S
C274 C278 1.524 . S
C275 C267 1.503 . S
C275 C274 1.370 . S
C275 C276 1.403 . S
C276 C275 1.403 . S
C276 C277 1.404 . S
C276 C279 1.539 1_565 S
C277 C273 1.408 . S
C277 C276 1.404 . S
C277 H289 0.930 1_565 S
C278 C274 1.524 . S
C278 H290 0.956 . S
C278 H291 0.961 . S
C278 H292 0.961 . S
C279 C276 1.539 1_545 S
C279 H293 0.958 . S
C279 H294 0.961 . S
C279 H295 0.960 1_545 S
H280 C264 0.931 . S
H281 C269 0.929 . S
H282 C270 0.960 . S
H283 C270 0.962 . S
H284 C270 0.960 . S
H285 C271 0.961 . S
H286 C271 0.961 . S
H287 C271 0.961 . S
H288 C272 0.931 . S
H289 C277 0.930 1_545 S
H290 C278 0.956 . S
H291 C278 0.961 . S
H292 C278 0.961 . S
H293 C279 0.958 . S
H294 C279 0.961 . S
H295 C279 0.960 1_565 S
C296 C297 1.391 . S
C296 C298 1.394 . S
C296 H312 0.931 . S
C297 C296 1.391 . S
C297 C301 1.376 . S
C298 C296 1.394 . S
C298 C299 1.369 . S
C298 C302 1.531 . S
C299 C298 1.369 . S
C299 C300 1.410 . S
C299 C307 1.503 . S
C300 C299 1.410 . S
C300 C301 1.392 . S
C300 C303 1.511 . S
C301 C297 1.376 . S
C301 C300 1.392 . S
C301 H313 0.929 . S
C302 C298 1.531 . S
C302 H314 0.960 . S
C302 H315 0.962 . S
C302 H316 0.960 . S
C303 C300 1.511 . S
C303 H317 0.961 . S
C303 H318 0.961 . S
C303 H319 0.961 . S
C304 C305 1.370 . S
C304 C306 1.363 . S
C304 H320 0.931 . S
C305 C304 1.370 . S
C305 C309 1.408 . S
C306 C304 1.363 . S
C306 C307 1.370 . S
C306 C310 1.524 . S
C307 C299 1.503 . S
C307 C306 1.370 . S
C307 C308 1.403 . S
C308 C307 1.403 . S
C308 C309 1.404 . S
C308 C311 1.539 . S
C309 C305 1.408 . S
C309 C308 1.404 . S
C309 H321 0.930 . S
C310 C306 1.524 . S
C310 H322 0.956 . S
C310 H323 0.961 . S
C310 H324 0.961 . S
C311 C308 1.539 . S
C311 H325 0.958 . S
C311 H326 0.961 . S
C311 H327 0.960 . S
H312 C296 0.931 . S
H313 C301 0.929 . S
H314 C302 0.960 . S
H315 C302 0.962 . S
H316 C302 0.960 . S
H317 C303 0.961 . S
H318 C303 0.961 . S
H319 C303 0.961 . S
H320 C304 0.931 . S
H321 C309 0.930 . S
H322 C310 0.956 . S
H323 C310 0.961 . S
H324 C310 0.961 . S
H325 C311 0.958 . S
H326 C311 0.961 . S
H327 C311 0.960 . S
C328 C329 1.391 . S
C328 C330 1.394 . S
C328 H344 0.931 . S
C329 C328 1.391 . S
C329 C333 1.376 . S
C330 C328 1.394 . S
C330 C331 1.369 . S
C330 C334 1.531 . S
C331 C330 1.369 . S
C331 C332 1.410 . S
C331 C339 1.503 . S
C332 C331 1.410 . S
C332 C333 1.392 . S
C332 C335 1.511 . S
C333 C329 1.376 . S
C333 C332 1.392 . S
C333 H345 0.929 . S
C334 C330 1.531 . S
C334 H346 0.960 . S
C334 H347 0.962 . S
C334 H348 0.960 . S
C335 C332 1.511 . S
C335 H349 0.961 . S
C335 H350 0.961 . S
C335 H351 0.961 . S
C336 C337 1.370 . S
C336 C338 1.363 . S
C336 H352 0.931 . S
C337 C336 1.370 . S
C337 C341 1.408 . S
C338 C336 1.363 . S
C338 C339 1.370 . S
C338 C342 1.524 . S
C339 C331 1.503 . S
C339 C338 1.370 . S
C339 C340 1.403 . S
C340 C339 1.403 . S
C340 C341 1.404 . S
C340 C343 1.539 . S
C341 C337 1.408 . S
C341 C340 1.404 . S
C341 H353 0.930 1_655 S
C342 C338 1.524 . S
C342 H354 0.956 . S
C342 H355 0.961 . S
C342 H356 0.961 . S
C343 C340 1.539 . S
C343 H357 0.958 . S
C343 H358 0.961 1_655 S
C343 H359 0.960 . S
H344 C328 0.931 . S
H345 C333 0.929 . S
H346 C334 0.960 . S
H347 C334 0.962 . S
H348 C334 0.960 . S
H349 C335 0.961 . S
H350 C335 0.961 . S
H351 C335 0.961 . S
H352 C336 0.931 . S
H353 C341 0.930 1_455 S
H354 C342 0.956 . S
H355 C342 0.961 . S
H356 C342 0.961 . S
H357 C343 0.958 . S
H358 C343 0.961 1_455 S
H359 C343 0.960 . S
C360 C361 1.391 . S
C360 C362 1.394 . S
C360 H376 0.931 . S
C361 C360 1.391 . S
C361 C365 1.376 . S
C362 C360 1.394 . S
C362 C363 1.369 . S
C362 C366 1.531 . S
C363 C362 1.369 . S
C363 C364 1.410 . S
C363 C371 1.503 . S
C364 C363 1.410 . S
C364 C365 1.392 . S
C364 C367 1.511 . S
C365 C361 1.376 . S
C365 C364 1.392 . S
C365 H377 0.929 . S
C366 C362 1.531 . S
C366 H378 0.960 . S
C366 H379 0.962 . S
C366 H380 0.960 . S
C367 C364 1.511 . S
C367 H381 0.961 . S
C367 H382 0.961 . S
C367 H383 0.961 . S
C368 C369 1.370 . S
C368 C370 1.363 . S
C368 H384 0.931 . S
C369 C368 1.370 . S
C369 C373 1.408 . S
C370 C368 1.363 . S
C370 C371 1.370 . S
C370 C374 1.524 . S
C371 C363 1.503 . S
C371 C370 1.370 . S
C371 C372 1.403 . S
C372 C371 1.403 . S
C372 C373 1.404 . S
C372 C375 1.539 . S
C373 C369 1.408 . S
C373 C372 1.404 . S
C373 H385 0.930 . S
C374 C370 1.524 . S
C374 H386 0.956 . S
C374 H387 0.961 . S
C374 H388 0.961 . S
C375 C372 1.539 . S
C375 H389 0.958 . S
C375 H390 0.961 . S
C375 H391 0.960 . S
H376 C360 0.931 . S
H377 C365 0.929 . S
H378 C366 0.960 . S
H379 C366 0.962 . S
H380 C366 0.960 . S
H381 C367 0.961 . S
H382 C367 0.961 . S
H383 C367 0.961 . S
H384 C368 0.931 . S
H385 C373 0.930 . S
H386 C374 0.956 . S
H387 C374 0.961 . S
H388 C374 0.961 . S
H389 C375 0.958 . S
H390 C375 0.961 . S
H391 C375 0.960 . S
C392 C393 1.391 . S
C392 C394 1.394 . S
C392 H408 0.931 . S
C393 C392 1.391 . S
C393 C397 1.376 . S
C394 C392 1.394 . S
C394 C395 1.369 . S
C394 C398 1.531 . S
C395 C394 1.369 . S
C395 C396 1.410 . S
C395 C403 1.503 . S
C396 C395 1.410 . S
C396 C397 1.392 . S
C396 C399 1.511 . S
C397 C393 1.376 . S
C397 C396 1.392 . S
C397 H409 0.929 . S
C398 C394 1.531 . S
C398 H410 0.960 . S
C398 H411 0.962 . S
C398 H412 0.960 . S
C399 C396 1.511 . S
C399 H413 0.961 . S
C399 H414 0.961 . S
C399 H415 0.961 . S
C400 C401 1.370 1_545 S
C400 C402 1.363 1_545 S
C400 H416 0.931 . S
C401 C400 1.370 1_565 S
C401 C405 1.408 . S
C402 C400 1.363 1_565 S
C402 C403 1.370 . S
C402 C406 1.524 1_565 S
C403 C395 1.503 . S
C403 C402 1.370 . S
C403 C404 1.403 . S
C404 C403 1.403 . S
C404 C405 1.404 . S
C404 C407 1.539 . S
C405 C401 1.408 . S
C405 C404 1.404 . S
C405 H417 0.930 . S
C406 C402 1.524 1_545 S
C406 H418 0.956 . S
C406 H419 0.961 . S
C406 H420 0.961 . S
C407 C404 1.539 . S
C407 H421 0.958 . S
C407 H422 0.961 . S
C407 H423 0.960 . S
H408 C392 0.931 . S
H409 C397 0.929 . S
H410 C398 0.960 . S
H411 C398 0.962 . S
H412 C398 0.960 . S
H413 C399 0.961 . S
H414 C399 0.961 . S
H415 C399 0.961 . S
H416 C400 0.931 . S
H417 C405 0.930 . S
H418 C406 0.956 . S
H419 C406 0.961 . S
H420 C406 0.961 . S
H421 C407 0.958 . S
H422 C407 0.961 . S
H423 C407 0.960 . S
C424 C425 1.391 . S
C424 C426 1.394 . S
C424 H440 0.931 . S
C425 C424 1.391 . S
C425 C429 1.376 . S
C426 C424 1.394 . S
C426 C427 1.369 . S
C426 C430 1.531 . S
C427 C426 1.369 . S
C427 C428 1.410 . S
C427 C435 1.503 . S
C428 C427 1.410 . S
C428 C429 1.392 . S
C428 C431 1.511 . S
C429 C425 1.376 . S
C429 C428 1.392 . S
C429 H441 0.929 . S
C430 C426 1.531 . S
C430 H442 0.960 . S
C430 H443 0.962 . S
C430 H444 0.960 . S
C431 C428 1.511 . S
C431 H445 0.961 . S
C431 H446 0.961 . S
C431 H447 0.961 . S
C432 C433 1.370 . S
C432 C434 1.363 . S
C432 H448 0.931 . S
C433 C432 1.370 . S
C433 C437 1.408 . S
C434 C432 1.363 . S
C434 C435 1.370 . S
C434 C438 1.524 . S
C435 C427 1.503 . S
C435 C434 1.370 . S
C435 C436 1.403 . S
C436 C435 1.403 . S
C436 C437 1.404 . S
C436 C439 1.539 . S
C437 C433 1.408 . S
C437 C436 1.404 . S
C437 H449 0.930 . S
C438 C434 1.524 . S
C438 H450 0.956 . S
C438 H451 0.961 . S
C438 H452 0.961 . S
C439 C436 1.539 . S
C439 H453 0.958 . S
C439 H454 0.961 . S
C439 H455 0.960 . S
H440 C424 0.931 . S
H441 C429 0.929 . S
H442 C430 0.960 . S
H443 C430 0.962 . S
H444 C430 0.960 . S
H445 C431 0.961 . S
H446 C431 0.961 . S
H447 C431 0.961 . S
H448 C432 0.931 . S
H449 C437 0.930 . S
H450 C438 0.956 . S
H451 C438 0.961 . S
H452 C438 0.961 . S
H453 C439 0.958 . S
H454 C439 0.961 . S
H455 C439 0.960 . S
C456 C457 1.391 . S
C456 C458 1.394 . S
C456 H472 0.931 . S
C457 C456 1.391 . S
C457 C461 1.376 . S
C458 C456 1.394 . S
C458 C459 1.369 . S
C458 C462 1.531 . S
C459 C458 1.369 . S
C459 C460 1.410 . S
C459 C467 1.503 . S
C460 C459 1.410 . S
C460 C461 1.392 . S
C460 C463 1.511 . S
C461 C457 1.376 . S
C461 C460 1.392 . S
C461 H473 0.929 . S
C462 C458 1.531 . S
C462 H474 0.960 . S
C462 H475 0.962 . S
C462 H476 0.960 . S
C463 C460 1.511 . S
C463 H477 0.961 . S
C463 H478 0.961 . S
C463 H479 0.961 . S
C464 C465 1.370 . S
C464 C466 1.363 . S
C464 H480 0.931 . S
C465 C464 1.370 . S
C465 C469 1.408 . S
C466 C464 1.363 . S
C466 C467 1.370 . S
C466 C470 1.524 . S
C467 C459 1.503 . S
C467 C466 1.370 . S
C467 C468 1.403 . S
C468 C467 1.403 . S
C468 C469 1.404 . S
C468 C471 1.539 . S
C469 C465 1.408 . S
C469 C468 1.404 . S
C469 H481 0.930 . S
C470 C466 1.524 . S
C470 H482 0.956 . S
C470 H483 0.961 . S
C470 H484 0.961 . S
C471 C468 1.539 . S
C471 H485 0.958 . S
C471 H486 0.961 . S
C471 H487 0.960 . S
H472 C456 0.931 . S
H473 C461 0.929 . S
H474 C462 0.960 . S
H475 C462 0.962 . S
H476 C462 0.960 . S
H477 C463 0.961 . S
H478 C463 0.961 . S
H479 C463 0.961 . S
H480 C464 0.931 . S
H481 C469 0.930 . S
H482 C470 0.956 . S
H483 C470 0.961 . S
H484 C470 0.961 . S
H485 C471 0.958 . S
H486 C471 0.961 . S
H487 C471 0.960 . S
C488 C489 1.391 . S
C488 C490 1.394 . S
C488 H504 0.931 . S
C489 C488 1.391 . S
C489 C493 1.376 . S
C490 C488 1.394 . S
C490 C491 1.369 . S
C490 C494 1.531 . S
C491 C490 1.369 . S
C491 C492 1.410 . S
C491 C499 1.503 . S
C492 C491 1.410 . S
C492 C493 1.392 . S
C492 C495 1.511 . S
C493 C489 1.376 . S
C493 C492 1.392 . S
C493 H505 0.929 . S
C494 C490 1.531 . S
C494 H506 0.960 . S
C494 H507 0.962 . S
C494 H508 0.960 . S
C495 C492 1.511 . S
C495 H509 0.961 . S
C495 H510 0.961 . S
C495 H511 0.961 . S
C496 C497 1.370 . S
C496 C498 1.363 . S
C496 H512 0.931 . S
C497 C496 1.370 . S
C497 C501 1.408 . S
C498 C496 1.363 . S
C498 C499 1.370 . S
C498 C502 1.524 . S
C499 C491 1.503 . S
C499 C498 1.370 . S
C499 C500 1.403 . S
C500 C499 1.403 . S
C500 C501 1.404 . S
C500 C503 1.539 . S
C501 C497 1.408 . S
C501 C500 1.404 . S
C501 H513 0.930 . S
C502 C498 1.524 . S
C502 H514 0.956 . S
C502 H515 0.961 . S
C502 H516 0.961 . S
C503 C500 1.539 . S
C503 H517 0.958 . S
C503 H518 0.961 . S
C503 H519 0.960 . S
H504 C488 0.931 . S
H505 C493 0.929 . S
H506 C494 0.960 . S
H507 C494 0.962 . S
H508 C494 0.960 . S
H509 C495 0.961 . S
H510 C495 0.961 . S
H511 C495 0.961 . S
H512 C496 0.931 . S
H513 C501 0.930 . S
H514 C502 0.956 . S
H515 C502 0.961 . S
H516 C502 0.961 . S
H517 C503 0.958 . S
H518 C503 0.961 . S
H519 C503 0.960 . S
C520 C521 1.391 . S
C520 C522 1.394 . S
C520 H536 0.931 . S
C521 C520 1.391 . S
C521 C525 1.376 . S
C522 C520 1.394 . S
C522 C523 1.369 . S
C522 C526 1.531 . S
C523 C522 1.369 . S
C523 C524 1.410 . S
C523 C531 1.503 . S
C524 C523 1.410 . S
C524 C525 1.392 . S
C524 C527 1.511 . S
C525 C521 1.376 . S
C525 C524 1.392 . S
C525 H537 0.929 . S
C526 C522 1.531 . S
C526 H538 0.960 . S
C526 H539 0.962 . S
C526 H540 0.960 . S
C527 C524 1.511 . S
C527 H541 0.961 . S
C527 H542 0.961 . S
C527 H543 0.961 . S
C528 C529 1.370 1_556 S
C528 C530 1.363 . S
C528 H544 0.931 . S
C529 C528 1.370 1_554 S
C529 C533 1.408 . S
C530 C528 1.363 . S
C530 C531 1.370 . S
C530 C534 1.524 . S
C531 C523 1.503 . S
C531 C530 1.370 . S
C531 C532 1.403 1_556 S
C532 C531 1.403 1_554 S
C532 C533 1.404 . S
C532 C535 1.539 . S
C533 C529 1.408 . S
C533 C532 1.404 . S
C533 H545 0.930 . S
C534 C530 1.524 . S
C534 H546 0.956 . S
C534 H547 0.961 . S
C534 H548 0.961 . S
C535 C532 1.539 . S
C535 H549 0.958 . S
C535 H550 0.961 . S
C535 H551 0.960 . S
H536 C520 0.931 . S
H537 C525 0.929 . S
H538 C526 0.960 . S
H539 C526 0.962 . S
H540 C526 0.960 . S
H541 C527 0.961 . S
H542 C527 0.961 . S
H543 C527 0.961 . S
H544 C528 0.931 . S
H545 C533 0.930 . S
H546 C534 0.956 . S
H547 C534 0.961 . S
H548 C534 0.961 . S
H549 C535 0.958 . S
H550 C535 0.961 . S
H551 C535 0.960 . S
C552 C553 1.391 . S
C552 C554 1.394 . S
C552 H568 0.931 . S
C553 C552 1.391 . S
C553 C557 1.376 . S
C554 C552 1.394 . S
C554 C555 1.369 . S
C554 C558 1.531 . S
C555 C554 1.369 . S
C555 C556 1.410 . S
C555 C563 1.503 . S
C556 C555 1.410 . S
C556 C557 1.392 . S
C556 C559 1.511 . S
C557 C553 1.376 . S
C557 C556 1.392 . S
C557 H569 0.929 . S
C558 C554 1.531 . S
C558 H570 0.960 . S
C558 H571 0.962 . S
C558 H572 0.960 . S
C559 C556 1.511 . S
C559 H573 0.961 . S
C559 H574 0.961 . S
C559 H575 0.961 . S
C560 C561 1.370 . S
C560 C562 1.363 . S
C560 H576 0.931 . S
C561 C560 1.370 . S
C561 C565 1.408 . S
C562 C560 1.363 . S
C562 C563 1.370 . S
C562 C566 1.524 . S
C563 C555 1.503 . S
C563 C562 1.370 . S
C563 C564 1.403 . S
C564 C563 1.403 . S
C564 C565 1.404 . S
C564 C567 1.539 . S
C565 C561 1.408 . S
C565 C564 1.404 . S
C565 H577 0.930 . S
C566 C562 1.524 . S
C566 H578 0.956 . S
C566 H579 0.961 . S
C566 H580 0.961 . S
C567 C564 1.539 . S
C567 H581 0.958 . S
C567 H582 0.961 . S
C567 H583 0.960 . S
H568 C552 0.931 . S
H569 C557 0.929 . S
H570 C558 0.960 . S
H571 C558 0.962 . S
H572 C558 0.960 . S
H573 C559 0.961 . S
H574 C559 0.961 . S
H575 C559 0.961 . S
H576 C560 0.931 . S
H577 C565 0.930 . S
H578 C566 0.956 . S
H579 C566 0.961 . S
H580 C566 0.961 . S
H581 C567 0.958 . S
H582 C567 0.961 . S
H583 C567 0.960 . S
C584 C585 1.391 . S
C584 C586 1.394 . S
C584 H600 0.931 . S
C585 C584 1.391 . S
C585 C589 1.376 . S
C586 C584 1.394 . S
C586 C587 1.369 . S
C586 C590 1.531 . S
C587 C586 1.369 . S
C587 C588 1.410 . S
C587 C595 1.503 . S
C588 C587 1.410 . S
C588 C589 1.392 . S
C588 C591 1.511 . S
C589 C585 1.376 . S
C589 C588 1.392 . S
C589 H601 0.929 . S
C590 C586 1.531 . S
C590 H602 0.960 . S
C590 H603 0.962 . S
C590 H604 0.960 . S
C591 C588 1.511 . S
C591 H605 0.961 . S
C591 H606 0.961 . S
C591 H607 0.961 . S
C592 C593 1.370 . S
C592 C594 1.363 . S
C592 H608 0.931 . S
C593 C592 1.370 . S
C593 C597 1.408 . S
C594 C592 1.363 . S
C594 C595 1.370 . S
C594 C598 1.524 . S
C595 C587 1.503 . S
C595 C594 1.370 . S
C595 C596 1.403 . S
C596 C595 1.403 . S
C596 C597 1.404 . S
C596 C599 1.539 . S
C597 C593 1.408 . S
C597 C596 1.404 . S
C597 H609 0.930 . S
C598 C594 1.524 . S
C598 H610 0.956 . S
C598 H611 0.961 . S
C598 H612 0.961 . S
C599 C596 1.539 . S
C599 H613 0.958 . S
C599 H614 0.961 . S
C599 H615 0.960 . S
H600 C584 0.931 . S
H601 C589 0.929 . S
H602 C590 0.960 . S
H603 C590 0.962 . S
H604 C590 0.960 . S
H605 C591 0.961 . S
H606 C591 0.961 . S
H607 C591 0.961 . S
H608 C592 0.931 . S
H609 C597 0.930 . S
H610 C598 0.956 . S
H611 C598 0.961 . S
H612 C598 0.961 . S
H613 C599 0.958 . S
H614 C599 0.961 . S
H615 C599 0.960 . S
C616 C617 1.391 . S
C616 C618 1.394 . S
C616 H632 0.931 . S
C617 C616 1.391 . S
C617 C621 1.376 . S
C618 C616 1.394 . S
C618 C619 1.369 . S
C618 C622 1.531 . S
C619 C618 1.369 . S
C619 C620 1.410 . S
C619 C627 1.503 . S
C620 C619 1.410 . S
C620 C621 1.392 . S
C620 C623 1.511 . S
C621 C617 1.376 . S
C621 C620 1.392 . S
C621 H633 0.929 . S
C622 C618 1.531 . S
C622 H634 0.960 . S
C622 H635 0.962 . S
C622 H636 0.960 . S
C623 C620 1.511 . S
C623 H637 0.961 . S
C623 H638 0.961 . S
C623 H639 0.961 . S
C624 C625 1.370 . S
C624 C626 1.363 . S
C624 H640 0.931 1_565 S
C625 C624 1.370 . S
C625 C629 1.408 . S
C626 C624 1.363 . S
C626 C627 1.370 . S
C626 C630 1.524 . S
C627 C619 1.503 . S
C627 C626 1.370 . S
C627 C628 1.403 . S
C628 C627 1.403 . S
C628 C629 1.404 . S
C628 C631 1.539 . S
C629 C625 1.408 . S
C629 C628 1.404 . S
C629 H641 0.930 . S
C630 C626 1.524 . S
C630 H642 0.956 . S
C630 H643 0.961 . S
C630 H644 0.961 1_565 S
C631 C628 1.539 . S
C631 H645 0.958 . S
C631 H646 0.961 . S
C631 H647 0.960 . S
H632 C616 0.931 . S
H633 C621 0.929 . S
H634 C622 0.960 . S
H635 C622 0.962 . S
H636 C622 0.960 . S
H637 C623 0.961 . S
H638 C623 0.961 . S
H639 C623 0.961 . S
H640 C624 0.931 1_545 S
H641 C629 0.930 . S
H642 C630 0.956 . S
H643 C630 0.961 . S
H644 C630 0.961 1_545 S
H645 C631 0.958 . S
H646 C631 0.961 . S
H647 C631 0.960 . S
C648 C649 1.391 . S
C648 C650 1.394 . S
C648 H664 0.931 . S
C649 C648 1.391 . S
C649 C653 1.376 . S
C650 C648 1.394 . S
C650 C651 1.369 . S
C650 C654 1.531 . S
C651 C650 1.369 . S
C651 C652 1.410 . S
C651 C659 1.503 . S
C652 C651 1.410 . S
C652 C653 1.392 . S
C652 C655 1.511 . S
C653 C649 1.376 . S
C653 C652 1.392 . S
C653 H665 0.929 . S
C654 C650 1.531 . S
C654 H666 0.960 . S
C654 H667 0.962 . S
C654 H668 0.960 . S
C655 C652 1.511 . S
C655 H669 0.961 . S
C655 H670 0.961 . S
C655 H671 0.961 . S
C656 C657 1.370 . S
C656 C658 1.363 . S
C656 H672 0.931 . S
C657 C656 1.370 . S
C657 C661 1.408 . S
C658 C656 1.363 . S
C658 C659 1.370 . S
C658 C662 1.524 . S
C659 C651 1.503 . S
C659 C658 1.370 . S
C659 C660 1.403 . S
C660 C659 1.403 . S
C660 C661 1.404 . S
C660 C663 1.539 . S
C661 C657 1.408 . S
C661 C660 1.404 . S
C661 H673 0.930 . S
C662 C658 1.524 . S
C662 H674 0.956 . S
C662 H675 0.961 . S
C662 H676 0.961 . S
C663 C660 1.539 . S
C663 H677 0.958 . S
C663 H678 0.961 . S
C663 H679 0.960 . S
H664 C648 0.931 . S
H665 C653 0.929 . S
H666 C654 0.960 . S
H667 C654 0.962 . S
H668 C654 0.960 . S
H669 C655 0.961 . S
H670 C655 0.961 . S
H671 C655 0.961 . S
H672 C656 0.931 . S
H673 C661 0.930 . S
H674 C662 0.956 . S
H675 C662 0.961 . S
H676 C662 0.961 . S
H677 C663 0.958 . S
H678 C663 0.961 . S
H679 C663 0.960 . S
C680 C681 1.391 . S
C680 C682 1.394 . S
C680 H696 0.931 . S
C681 C680 1.391 . S
C681 C685 1.376 . S
C682 C680 1.394 . S
C682 C683 1.369 . S
C682 C686 1.531 . S
C683 C682 1.369 . S
C683 C684 1.410 . S
C683 C691 1.503 . S
C684 C683 1.410 . S
C684 C685 1.392 . S
C684 C687 1.511 . S
C685 C681 1.376 . S
C685 C684 1.392 . S
C685 H697 0.929 . S
C686 C682 1.531 . S
C686 H698 0.960 . S
C686 H699 0.962 . S
C686 H700 0.960 . S
C687 C684 1.511 . S
C687 H701 0.961 . S
C687 H702 0.961 . S
C687 H703 0.961 . S
C688 C689 1.370 . S
C688 C690 1.363 . S
C688 H704 0.931 . S
C689 C688 1.370 . S
C689 C693 1.408 . S
C690 C688 1.363 . S
C690 C691 1.370 . S
C690 C694 1.524 . S
C691 C683 1.503 . S
C691 C690 1.370 . S
C691 C692 1.403 . S
C692 C691 1.403 . S
C692 C693 1.404 . S
C692 C695 1.539 . S
C693 C689 1.408 . S
C693 C692 1.404 . S
C693 H705 0.930 . S
C694 C690 1.524 . S
C694 H706 0.956 . S
C694 H707 0.961 . S
C694 H708 0.961 . S
C695 C692 1.539 . S
C695 H709 0.958 . S
C695 H710 0.961 . S
C695 H711 0.960 . S
H696 C680 0.931 . S
H697 C685 0.929 . S
H698 C686 0.960 . S
H699 C686 0.962 . S
H700 C686 0.960 . S
H701 C687 0.961 . S
H702 C687 0.961 . S
H703 C687 0.961 . S
H704 C688 0.931 . S
H705 C693 0.930 . S
H706 C694 0.956 . S
H707 C694 0.961 . S
H708 C694 0.961 . S
H709 C695 0.958 . S
H710 C695 0.961 . S
H711 C695 0.960 . S
C712 C713 1.391 . S
C712 C714 1.394 . S
C712 H728 0.931 . S
C713 C712 1.391 . S
C713 C717 1.376 . S
C714 C712 1.394 . S
C714 C715 1.369 . S
C714 C718 1.531 . S
C715 C714 1.369 . S
C715 C716 1.410 . S
C715 C723 1.503 . S
C716 C715 1.410 . S
C716 C717 1.392 . S
C716 C719 1.511 . S
C717 C713 1.376 . S
C717 C716 1.392 . S
C717 H729 0.929 . S
C718 C714 1.531 . S
C718 H730 0.960 . S
C718 H731 0.962 . S
C718 H732 0.960 . S
C719 C716 1.511 . S
C719 H733 0.961 . S
C719 H734 0.961 . S
C719 H735 0.961 . S
C720 C721 1.370 . S
C720 C722 1.363 . S
C720 H736 0.931 . S
C721 C720 1.370 . S
C721 C725 1.408 . S
C722 C720 1.363 . S
C722 C723 1.370 . S
C722 C726 1.524 . S
C723 C715 1.503 . S
C723 C722 1.370 . S
C723 C724 1.403 . S
C724 C723 1.403 . S
C724 C725 1.404 . S
C724 C727 1.539 . S
C725 C721 1.408 . S
C725 C724 1.404 . S
C725 H737 0.930 . S
C726 C722 1.524 . S
C726 H738 0.956 . S
C726 H739 0.961 . S
C726 H740 0.961 . S
C727 C724 1.539 . S
C727 H741 0.958 . S
C727 H742 0.961 1_556 S
C727 H743 0.960 . S
H728 C712 0.931 . S
H729 C717 0.929 . S
H730 C718 0.960 . S
H731 C718 0.962 . S
H732 C718 0.960 . S
H733 C719 0.961 . S
H734 C719 0.961 . S
H735 C719 0.961 . S
H736 C720 0.931 . S
H737 C725 0.930 . S
H738 C726 0.956 . S
H739 C726 0.961 . S
H740 C726 0.961 . S
H741 C727 0.958 . S
H742 C727 0.961 1_554 S
H743 C727 0.960 . S
C744 C745 1.391 . S
C744 C746 1.394 . S
C744 H760 0.931 . S
C745 C744 1.391 . S
C745 C749 1.376 . S
C746 C744 1.394 . S
C746 C747 1.369 . S
C746 C750 1.531 . S
C747 C746 1.369 . S
C747 C748 1.410 . S
C747 C755 1.503 . S
C748 C747 1.410 . S
C748 C749 1.392 . S
C748 C751 1.511 . S
C749 C745 1.376 . S
C749 C748 1.392 . S
C749 H761 0.929 . S
C750 C746 1.531 . S
C750 H762 0.960 . S
C750 H763 0.962 . S
C750 H764 0.960 . S
C751 C748 1.511 . S
C751 H765 0.961 . S
C751 H766 0.961 . S
C751 H767 0.961 . S
C752 C753 1.370 . S
C752 C754 1.363 . S
C752 H768 0.931 . S
C753 C752 1.370 . S
C753 C757 1.408 . S
C754 C752 1.363 . S
C754 C755 1.370 . S
C754 C758 1.524 . S
C755 C747 1.503 . S
C755 C754 1.370 . S
C755 C756 1.403 . S
C756 C755 1.403 . S
C756 C757 1.404 . S
C756 C759 1.539 . S
C757 C753 1.408 . S
C757 C756 1.404 . S
C757 H769 0.930 1_565 S
C758 C754 1.524 . S
C758 H770 0.956 . S
C758 H771 0.961 . S
C758 H772 0.961 . S
C759 C756 1.539 . S
C759 H773 0.958 . S
C759 H774 0.961 1_565 S
C759 H775 0.960 . S
H760 C744 0.931 . S
H761 C749 0.929 . S
H762 C750 0.960 . S
H763 C750 0.962 . S
H764 C750 0.960 . S
H765 C751 0.961 . S
H766 C751 0.961 . S
H767 C751 0.961 . S
H768 C752 0.931 . S
H769 C757 0.930 1_545 S
H770 C758 0.956 . S
H771 C758 0.961 . S
H772 C758 0.961 . S
H773 C759 0.958 . S
H774 C759 0.961 1_545 S
H775 C759 0.960 . S
C776 C777 1.391 . S
C776 C778 1.394 . S
C776 H792 0.931 . S
C777 C776 1.391 . S
C777 C781 1.376 . S
C778 C776 1.394 . S
C778 C779 1.369 . S
C778 C782 1.531 . S
C779 C778 1.369 . S
C779 C780 1.410 . S
C779 C787 1.503 . S
C780 C779 1.410 . S
C780 C781 1.392 . S
C780 C783 1.511 . S
C781 C777 1.376 . S
C781 C780 1.392 . S
C781 H793 0.929 . S
C782 C778 1.531 . S
C782 H794 0.960 . S
C782 H795 0.962 . S
C782 H796 0.960 . S
C783 C780 1.511 . S
C783 H797 0.961 . S
C783 H798 0.961 . S
C783 H799 0.961 . S
C784 C785 1.370 . S
C784 C786 1.363 . S
C784 H800 0.931 . S
C785 C784 1.370 . S
C785 C789 1.408 . S
C786 C784 1.363 . S
C786 C787 1.370 . S
C786 C790 1.524 . S
C787 C779 1.503 . S
C787 C786 1.370 . S
C787 C788 1.403 . S
C788 C787 1.403 . S
C788 C789 1.404 . S
C788 C791 1.539 . S
C789 C785 1.408 . S
C789 C788 1.404 . S
C789 H801 0.930 . S
C790 C786 1.524 . S
C790 H802 0.956 . S
C790 H803 0.961 . S
C790 H804 0.961 . S
C791 C788 1.539 . S
C791 H805 0.958 . S
C791 H806 0.961 . S
C791 H807 0.960 . S
H792 C776 0.931 . S
H793 C781 0.929 . S
H794 C782 0.960 . S
H795 C782 0.962 . S
H796 C782 0.960 . S
H797 C783 0.961 . S
H798 C783 0.961 . S
H799 C783 0.961 . S
H800 C784 0.931 . S
H801 C789 0.930 . S
H802 C790 0.956 . S
H803 C790 0.961 . S
H804 C790 0.961 . S
H805 C791 0.958 . S
H806 C791 0.961 . S
H807 C791 0.960 . S
C808 C809 1.391 . S
C808 C810 1.394 . S
C808 H824 0.931 . S
C809 C808 1.391 . S
C809 C813 1.376 . S
C810 C808 1.394 . S
C810 C811 1.369 . S
C810 C814 1.531 . S
C811 C810 1.369 . S
C811 C812 1.410 . S
C811 C819 1.503 . S
C812 C811 1.410 . S
C812 C813 1.392 . S
C812 C815 1.511 . S
C813 C809 1.376 . S
C813 C812 1.392 . S
C813 H825 0.929 . S
C814 C810 1.531 . S
C814 H826 0.960 . S
C814 H827 0.962 . S
C814 H828 0.960 . S
C815 C812 1.511 . S
C815 H829 0.961 . S
C815 H830 0.961 . S
C815 H831 0.961 . S
C816 C817 1.370 . S
C816 C818 1.363 . S
C816 H832 0.931 . S
C817 C816 1.370 . S
C817 C821 1.408 . S
C818 C816 1.363 . S
C818 C819 1.370 . S
C818 C822 1.524 . S
C819 C811 1.503 . S
C819 C818 1.370 . S
C819 C820 1.403 . S
C820 C819 1.403 . S
C820 C821 1.404 . S
C820 C823 1.539 . S
C821 C817 1.408 . S
C821 C820 1.404 . S
C821 H833 0.930 . S
C822 C818 1.524 . S
C822 H834 0.956 . S
C822 H835 0.961 . S
C822 H836 0.961 . S
C823 C820 1.539 . S
C823 H837 0.958 . S
C823 H838 0.961 . S
C823 H839 0.960 . S
H824 C808 0.931 . S
H825 C813 0.929 . S
H826 C814 0.960 . S
H827 C814 0.962 . S
H828 C814 0.960 . S
H829 C815 0.961 . S
H830 C815 0.961 . S
H831 C815 0.961 . S
H832 C816 0.931 . S
H833 C821 0.930 . S
H834 C822 0.956 . S
H835 C822 0.961 . S
H836 C822 0.961 . S
H837 C823 0.958 . S
H838 C823 0.961 . S
H839 C823 0.960 . S
C840 C841 1.391 . S
C840 C842 1.394 . S
C840 H856 0.931 . S
C841 C840 1.391 . S
C841 C845 1.376 . S
C842 C840 1.394 . S
C842 C843 1.369 . S
C842 C846 1.531 . S
C843 C842 1.369 . S
C843 C844 1.410 . S
C843 C851 1.503 . S
C844 C843 1.410 . S
C844 C845 1.392 . S
C844 C847 1.511 . S
C845 C841 1.376 . S
C845 C844 1.392 . S
C845 H857 0.929 . S
C846 C842 1.531 . S
C846 H858 0.960 . S
C846 H859 0.962 . S
C846 H860 0.960 . S
C847 C844 1.511 . S
C847 H861 0.961 . S
C847 H862 0.961 . S
C847 H863 0.961 . S
C848 C849 1.370 . S
C848 C850 1.363 . S
C848 H864 0.931 . S
C849 C848 1.370 . S
C849 C853 1.408 . S
C850 C848 1.363 . S
C850 C851 1.370 . S
C850 C854 1.524 . S
C851 C843 1.503 . S
C851 C850 1.370 . S
C851 C852 1.403 . S
C852 C851 1.403 . S
C852 C853 1.404 . S
C852 C855 1.539 . S
C853 C849 1.408 . S
C853 C852 1.404 . S
C853 H865 0.930 . S
C854 C850 1.524 . S
C854 H866 0.956 . S
C854 H867 0.961 . S
C854 H868 0.961 . S
C855 C852 1.539 . S
C855 H869 0.958 . S
C855 H870 0.961 . S
C855 H871 0.960 . S
H856 C840 0.931 . S
H857 C845 0.929 . S
H858 C846 0.960 . S
H859 C846 0.962 . S
H860 C846 0.960 . S
H861 C847 0.961 . S
H862 C847 0.961 . S
H863 C847 0.961 . S
H864 C848 0.931 . S
H865 C853 0.930 . S
H866 C854 0.956 . S
H867 C854 0.961 . S
H868 C854 0.961 . S
H869 C855 0.958 . S
H870 C855 0.961 . S
H871 C855 0.960 . S
C872 C873 1.391 . S
C872 C874 1.394 . S
C872 H888 0.931 . S
C873 C872 1.391 . S
C873 C877 1.376 . S
C874 C872 1.394 . S
C874 C875 1.369 . S
C874 C878 1.531 . S
C875 C874 1.369 . S
C875 C876 1.410 . S
C875 C883 1.503 . S
C876 C875 1.410 . S
C876 C877 1.392 . S
C876 C879 1.511 . S
C877 C873 1.376 . S
C877 C876 1.392 . S
C877 H889 0.929 . S
C878 C874 1.531 . S
C878 H890 0.960 . S
C878 H891 0.962 . S
C878 H892 0.960 . S
C879 C876 1.511 . S
C879 H893 0.961 . S
C879 H894 0.961 . S
C879 H895 0.961 . S
C880 C881 1.370 . S
C880 C882 1.363 . S
C880 H896 0.931 . S
C881 C880 1.370 . S
C881 C885 1.408 . S
C882 C880 1.363 . S
C882 C883 1.370 . S
C882 C886 1.524 . S
C883 C875 1.503 . S
C883 C882 1.370 . S
C883 C884 1.403 . S
C884 C883 1.403 . S
C884 C885 1.404 . S
C884 C887 1.539 . S
C885 C881 1.408 . S
C885 C884 1.404 . S
C885 H897 0.930 . S
C886 C882 1.524 . S
C886 H898 0.956 . S
C886 H899 0.961 . S
C886 H900 0.961 . S
C887 C884 1.539 . S
C887 H901 0.958 . S
C887 H902 0.961 . S
C887 H903 0.960 . S
H888 C872 0.931 . S
H889 C877 0.929 . S
H890 C878 0.960 . S
H891 C878 0.962 . S
H892 C878 0.960 . S
H893 C879 0.961 . S
H894 C879 0.961 . S
H895 C879 0.961 . S
H896 C880 0.931 . S
H897 C885 0.930 . S
H898 C886 0.956 . S
H899 C886 0.961 . S
H900 C886 0.961 . S
H901 C887 0.958 . S
H902 C887 0.961 . S
H903 C887 0.960 . S
C904 C905 1.391 . S
C904 C906 1.394 . S
C904 H920 0.931 . S
C905 C904 1.391 . S
C905 C909 1.376 . S
C906 C904 1.394 . S
C906 C907 1.369 . S
C906 C910 1.531 . S
C907 C906 1.369 . S
C907 C908 1.410 . S
C907 C915 1.503 . S
C908 C907 1.410 . S
C908 C909 1.392 . S
C908 C911 1.511 . S
C909 C905 1.376 . S
C909 C908 1.392 . S
C909 H921 0.929 . S
C910 C906 1.531 . S
C910 H922 0.960 . S
C910 H923 0.962 . S
C910 H924 0.960 . S
C911 C908 1.511 . S
C911 H925 0.961 . S
C911 H926 0.961 . S
C911 H927 0.961 . S
C912 C913 1.370 . S
C912 C914 1.363 . S
C912 H928 0.931 . S
C913 C912 1.370 . S
C913 C917 1.408 . S
C914 C912 1.363 . S
C914 C915 1.370 . S
C914 C918 1.524 . S
C915 C907 1.503 . S
C915 C914 1.370 . S
C915 C916 1.403 . S
C916 C915 1.403 . S
C916 C917 1.404 . S
C916 C919 1.539 . S
C917 C913 1.408 . S
C917 C916 1.404 . S
C917 H929 0.930 . S
C918 C914 1.524 . S
C918 H930 0.956 . S
C918 H931 0.961 . S
C918 H932 0.961 . S
C919 C916 1.539 . S
C919 H933 0.958 . S
C919 H934 0.961 . S
C919 H935 0.960 . S
H920 C904 0.931 . S
H921 C909 0.929 . S
H922 C910 0.960 . S
H923 C910 0.962 . S
H924 C910 0.960 . S
H925 C911 0.961 . S
H926 C911 0.961 . S
H927 C911 0.961 . S
H928 C912 0.931 . S
H929 C917 0.930 . S
H930 C918 0.956 . S
H931 C918 0.961 . S
H932 C918 0.961 . S
H933 C919 0.958 . S
H934 C919 0.961 . S
H935 C919 0.960 . S
C936 C937 1.391 . S
C936 C938 1.394 . S
C936 H952 0.931 . S
C937 C936 1.391 . S
C937 C941 1.376 . S
C938 C936 1.394 . S
C938 C939 1.369 . S
C938 C942 1.531 . S
C939 C938 1.369 . S
C939 C940 1.410 . S
C939 C947 1.503 . S
C940 C939 1.410 . S
C940 C941 1.392 . S
C940 C943 1.511 . S
C941 C937 1.376 . S
C941 C940 1.392 . S
C941 H953 0.929 . S
C942 C938 1.531 . S
C942 H954 0.960 . S
C942 H955 0.962 . S
C942 H956 0.960 . S
C943 C940 1.511 . S
C943 H957 0.961 . S
C943 H958 0.961 . S
C943 H959 0.961 . S
C944 C945 1.370 . S
C944 C946 1.363 . S
C944 H960 0.931 . S
C945 C944 1.370 . S
C945 C949 1.408 . S
C946 C944 1.363 . S
C946 C947 1.370 . S
C946 C950 1.524 . S
C947 C939 1.503 . S
C947 C946 1.370 . S
C947 C948 1.403 . S
C948 C947 1.403 . S
C948 C949 1.404 . S
C948 C951 1.539 . S
C949 C945 1.408 . S
C949 C948 1.404 . S
C949 H961 0.930 . S
C950 C946 1.524 . S
C950 H962 0.956 . S
C950 H963 0.961 . S
C950 H964 0.961 . S
C951 C948 1.539 . S
C951 H965 0.958 . S
C951 H966 0.961 . S
C951 H967 0.960 . S
H952 C936 0.931 . S
H953 C941 0.929 . S
H954 C942 0.960 . S
H955 C942 0.962 . S
H956 C942 0.960 . S
H957 C943 0.961 . S
H958 C943 0.961 . S
H959 C943 0.961 . S
H960 C944 0.931 . S
H961 C949 0.930 . S
H962 C950 0.956 . S
H963 C950 0.961 . S
H964 C950 0.961 . S
H965 C951 0.958 . S
H966 C951 0.961 . S
H967 C951 0.960 . S
C968 C969 1.391 . S
C968 C970 1.394 . S
C968 H984 0.931 . S
C969 C968 1.391 . S
C969 C973 1.376 . S
C970 C968 1.394 . S
C970 C971 1.369 . S
C970 C974 1.531 . S
C971 C970 1.369 . S
C971 C972 1.410 . S
C971 C979 1.503 . S
C972 C971 1.410 . S
C972 C973 1.392 . S
C972 C975 1.511 . S
C973 C969 1.376 . S
C973 C972 1.392 . S
C973 H985 0.929 . S
C974 C970 1.531 . S
C974 H986 0.960 . S
C974 H987 0.962 . S
C974 H988 0.960 . S
C975 C972 1.511 . S
C975 H989 0.961 . S
C975 H990 0.961 . S
C975 H991 0.961 . S
C976 C977 1.370 . S
C976 C978 1.363 . S
C976 H992 0.931 . S
C977 C976 1.370 . S
C977 C981 1.408 . S
C978 C976 1.363 . S
C978 C979 1.370 . S
C978 C982 1.524 . S
C979 C971 1.503 . S
C979 C978 1.370 . S
C979 C980 1.403 . S
C980 C979 1.403 . S
C980 C981 1.404 . S
C980 C983 1.539 . S
C981 C977 1.408 . S
C981 C980 1.404 . S
C981 H993 0.930 . S
C982 C978 1.524 . S
C982 H994 0.956 . S
C982 H995 0.961 . S
C982 H996 0.961 . S
C983 C980 1.539 . S
C983 H997 0.958 . S
C983 H998 0.961 . S
C983 H999 0.960 . S
H984 C968 0.931 . S
H985 C973 0.929 . S
H986 C974 0.960 . S
H987 C974 0.962 . S
H988 C974 0.960 . S
H989 C975 0.961 . S
H990 C975 0.961 . S
H991 C975 0.961 . S
H992 C976 0.931 . S
H993 C981 0.930 . S
H994 C982 0.956 . S
H995 C982 0.961 . S
H996 C982 0.961 . S
H997 C983 0.958 . S
H998 C983 0.961 . S
H999 C983 0.960 . S
C233 C6 1.720 . S
C241 C171 1.736 . S
C265 C21 1.750 . S
C273 C174 1.697 . S
C305 C210 1.130 . S
C297 C49 1.025 . S
C329 C68 1.452 . S
C337 C230 1.473 1_655 S
C369 C184 2.380 . S
C361 C2 2.379 . S
C401 C161 1.237 . S
C393 C30 1.110 . S
C433 C214 1.359 . S
C425 C40 1.391 . S
C465 C194 1.221 . S
C457 C63 1.367 . S
C489 C11 1.271 . S
C497 C224 1.355 . S
C529 C190 1.828 . S
C521 C44 1.848 . S
C553 C59 1.376 . S
C561 C156 1.333 . S
C585 C25 1.606 . S
C593 C204 1.542 . S
C625 C170 1.861 . S
C617 C82 1.877 . S
C649 C101 1.476 . S
C657 C176 1.429 . S
C681 C125 1.528 . S
C689 C211 1.584 . S
C713 C144 1.186 . S
C721 C231 1.199 . S
C745 C87 1.423 . S
C753 C181 1.443 1_556 S
C785 C164 2.220 . S
C777 C97 2.193 . S
C817 C216 1.292 . S
C809 C120 1.508 . S
C849 C196 1.235 . S
C841 C135 1.294 . S
C873 C78 1.758 . S
C881 C221 1.625 . S
C913 C191 1.337 . S
C905 C116 1.318 . S
C945 C154 1.795 . S
C937 C139 1.860 . S
C969 C106 1.246 . S
C977 C201 1.264 . S
