# Generated by pormake.
# Topology ftw, (4,12)-cn, num edge types: 1
# Building blocks:
#     Node 0, Type 0, BuildingBlock: NAWXER_clean_linker_0, # of connection points: 4
#     Node 1, Type 0, BuildingBlock: NAWXER_clean_linker_0, # of connection points: 4
#     Node 2, Type 0, BuildingBlock: NAWXER_clean_linker_0, # of connection points: 4
#     Node 3, Type 1, BuildingBlock: EZIPEK_clean_sbu_0, # of connection points: 12
#     Edge 4, Type (0, 1), BuildingBlock: TEMPAE_clean_linker_10, # of connection points: 2
#     Edge 5, Type (0, 1), BuildingBlock: TEMPAE_clean_linker_10, # of connection points: 2
#     Edge 6, Type (0, 1), BuildingBlock: TEMPAE_clean_linker_10, # of connection points: 2
#     Edge 7, Type (0, 1), BuildingBlock: TEMPAE_clean_linker_10, # of connection points: 2
#     Edge 8, Type (0, 1), BuildingBlock: TEMPAE_clean_linker_10, # of connection points: 2
#     Edge 9, Type (0, 1), BuildingBlock: TEMPAE_clean_linker_10, # of connection points: 2
#     Edge 10, Type (0, 1), BuildingBlock: TEMPAE_clean_linker_10, # of connection points: 2
#     Edge 11, Type (0, 1), BuildingBlock: TEMPAE_clean_linker_10, # of connection points: 2
#     Edge 12, Type (0, 1), BuildingBlock: TEMPAE_clean_linker_10, # of connection points: 2
#     Edge 13, Type (0, 1), BuildingBlock: TEMPAE_clean_linker_10, # of connection points: 2
#     Edge 14, Type (0, 1), BuildingBlock: TEMPAE_clean_linker_10, # of connection points: 2
#     Edge 15, Type (0, 1), BuildingBlock: TEMPAE_clean_linker_10, # of connection points: 2
# Relax obj value: 0.032
# Max RMSD: 0.131
# Mean RMSD: 0.100
data_MOF--net-ftw--node1-EZIPEK_clean_sbu_0--node2-NAWXER_clean_linker_0--edge1-TEMPAE_clean_linker_10
_symmetry_space_group_name_H-M    P1
_symmetry_Int_Tables_number       1
_symmetry_cell_setting            triclinic
loop_
_symmetry_equiv_pos_as_xyz
'x, y, z'
_cell_length_a     27.903013
_cell_length_b     29.374867
_cell_length_c     28.415149
_cell_angle_alpha  89.996453
_cell_angle_beta   90.271754
_cell_angle_gamma 90.003381
loop_
_atom_site_label
_atom_site_type_symbol
_atom_site_fract_x
_atom_site_fract_y
_atom_site_fract_z
_atom_type_partial_charge
C0 C 0.01773 0.67811 0.59671 0.0
C1 C 0.98364 0.67849 0.63321 0.0
C2 C 0.01795 0.64318 0.56295 0.0
C3 C 0.98375 0.60804 0.56457 0.0
C4 C 0.94901 0.64368 0.63409 0.0
C5 C 0.94917 0.609 0.60037 0.0
C6 C 0.98712 0.56703 0.53386 0.0
C7 C 0.96603 0.68073 0.42576 0.0
C8 C 0.00035 0.68255 0.38952 0.0
C9 C 0.96586 0.6447 0.4583 0.0
C10 C 0.0003 0.60982 0.45566 0.0
C11 C 0.0352 0.64797 0.38762 0.0
C12 C 0.03505 0.61217 0.42009 0.0
C13 C -0.0029 0.56782 0.48501 0.0
C14 C 0.96594 0.37537 0.42033 0.0
C15 C 0.00052 0.37457 0.38431 0.0
C16 C 0.9659 0.41018 0.45422 0.0
C17 C 0.00065 0.44484 0.45306 0.0
C18 C 0.03579 0.40879 0.38398 0.0
C19 C 0.03571 0.44346 0.41773 0.0
C20 C -0.00264 0.48588 0.48371 0.0
C21 C 0.0187 0.37231 0.59186 0.0
C22 C 0.98433 0.3704 0.62804 0.0
C23 C 0.01874 0.40828 0.55925 0.0
C24 C 0.98418 0.44305 0.56183 0.0
C25 C 0.94928 0.40479 0.6298 0.0
C26 C 0.94934 0.44058 0.59732 0.0
C27 C 0.98736 0.48508 0.53253 0.0
H28 H 0.04473 0.7045 0.59457 0.0
H29 H 0.04598 0.64284 0.53674 0.0
H30 H 0.92267 0.6422 0.66191 0.0
H31 H 0.92276 0.58208 0.60302 0.0
H32 H 0.93884 0.70686 0.42865 0.0
H33 H 0.93772 0.64333 0.48436 0.0
H34 H 0.06172 0.64757 0.35993 0.0
H35 H 0.06165 0.58551 0.41665 0.0
H36 H 0.93845 0.34941 0.42198 0.0
H37 H 0.93757 0.41089 0.48011 0.0
H38 H 0.06256 0.40985 0.35653 0.0
H39 H 0.06255 0.47002 0.41548 0.0
H40 H 0.04605 0.34631 0.58909 0.0
H41 H 0.04693 0.40974 0.53325 0.0
H42 H 0.92269 0.40508 0.65744 0.0
H43 H 0.92263 0.46715 0.60068 0.0
N44 N 0.98259 0.5257 0.55516 0.0
N45 N 0.00189 0.52719 0.4624 0.0
C46 C 0.56819 0.97001 0.66762 0.0
C47 C 0.60812 0.94109 0.67107 0.0
C48 C 0.53572 0.96534 0.63059 0.0
C49 C 0.54173 0.93083 0.5969 0.0
C50 C 0.61294 0.9052 0.63874 0.0
C51 C 0.58007 0.90025 0.60184 0.0
C52 C 0.51425 0.93219 0.55237 0.0
C53 C 0.39818 0.91162 0.66182 0.0
C54 C 0.36859 0.95009 0.66619 0.0
C55 C 0.43075 0.90865 0.62467 0.0
C56 C 0.4334 0.94392 0.59145 0.0
C57 C 0.37191 0.98538 0.63315 0.0
C58 C 0.40381 0.98218 0.59601 0.0
C59 C 0.46464 0.94102 0.55011 0.0
C60 C 0.41897 0.9569 0.34414 0.0
C61 C 0.38448 0.99157 0.34879 0.0
C62 C 0.44881 0.94551 0.38201 0.0
C63 C 0.44478 0.96891 0.42486 0.0
C64 C 0.38208 0.01605 0.39113 0.0
C65 C 0.41189 1.00481 0.42871 0.0
C66 C 0.47024 0.95363 0.46761 0.0
C67 C 0.59324 1.00677 0.38066 0.0
C68 C 0.62221 0.97175 0.3626 0.0
C69 C 0.55809 0.99713 0.41386 0.0
C70 C 0.55168 0.95247 0.42994 0.0
C71 C 0.61443 0.92674 0.37786 0.0
C72 C 0.5799 0.91732 0.41182 0.0
C73 C 0.51949 0.94373 0.46949 0.0
H74 H 0.5633 0.9977 0.69231 0.0
H75 H 0.50786 0.99072 0.6268 0.0
H76 H 0.64362 0.88264 0.64025 0.0
H77 H 0.58593 0.87392 0.57579 0.0
H78 H 0.39601 0.88403 0.68701 0.0
H79 H 0.45299 0.87862 0.62128 0.0
H80 H 0.34898 0.01506 0.63544 0.0
H81 H 0.40529 1.00969 0.57062 0.0
H82 H 0.42189 0.93772 0.31173 0.0
H83 H 0.47332 0.91715 0.37843 0.0
H84 H 0.35551 0.04247 0.39617 0.0
H85 H 0.40812 0.0233 0.4615 0.0
H86 H 0.59873 0.04189 0.37046 0.0
H87 H 0.53718 0.02481 0.42839 0.0
H88 H 0.63534 0.8988 0.36398 0.0
H89 H 0.57549 0.88272 0.42428 0.0
N90 N 0.53971 0.9334 0.51172 0.0
N91 N 0.44475 0.95145 0.50793 0.0
C92 C 0.40816 0.37496 0.97129 0.0
C93 C 0.37279 0.3721 1.0063 0.0
C94 C 0.44054 0.41129 0.97082 0.0
C95 C 0.43844 0.44517 1.00564 0.0
C96 C 0.37141 0.40563 0.04153 0.0
C97 C 0.40376 0.44183 0.04108 0.0
C98 C 0.46829 0.48669 1.00273 0.0
C99 C 0.57746 0.37561 0.02713 0.0
C100 C 0.613 0.37177 0.99242 0.0
C101 C 0.54512 0.41193 0.02634 0.0
C102 C 0.5474 0.44483 0.99054 0.0
C103 C 0.61454 0.40424 0.95613 0.0
C104 C 0.58221 0.4405 0.95536 0.0
C105 C 0.5178 0.48655 0.99251 0.0
C106 C 0.58801 0.67061 0.03275 0.0
C107 C 0.61328 0.6822 0.99161 0.0
C108 C 0.55509 0.63478 0.03256 0.0
C109 C 0.54743 0.60931 0.99154 0.0
C110 C 0.60369 0.65756 0.95005 0.0
C111 C 0.57174 0.62097 0.95029 0.0
C112 C 0.51802 0.56777 0.99298 0.0
C113 C 0.41023 0.6813 0.97621 0.0
C114 C 0.3752 0.68367 0.01155 0.0
C115 C 0.44213 0.64467 0.97452 0.0
C116 C 0.43995 0.60996 0.00846 0.0
C117 C 0.37384 0.64942 0.04606 0.0
C118 C 0.40577 0.61289 0.0444 0.0
C119 C 0.46881 0.56798 1.00377 0.0
H120 H 0.41033 0.34948 0.94383 0.0
H121 H 0.46606 0.41365 0.94233 0.0
H122 H 0.34419 0.40485 0.06857 0.0
H123 H 0.40106 0.46783 0.06799 0.0
H124 H 0.57519 0.35096 0.05538 0.0
H125 H 0.51955 0.41513 0.0547 0.0
H126 H 0.64189 0.40264 0.92926 0.0
H127 H 0.58508 0.4658 0.92776 0.0
H128 H 0.59486 0.68799 0.06569 0.0
H129 H 0.53714 0.62568 0.06496 0.0
H130 H 0.62132 0.66603 0.91735 0.0
H131 H 0.56622 0.60152 0.91832 0.0
H132 H 0.41236 0.70731 0.94928 0.0
H133 H 0.46704 0.64262 0.94551 0.0
H134 H 0.34687 0.64985 0.07335 0.0
H135 H 0.40298 0.58626 0.07063 0.0
N136 N 0.44593 0.52742 0.00815 0.0
N137 N 0.54061 0.52717 0.98781 0.0
C138 C 0.99136 0.13493 0.891 0.0
C139 C -0.00584 0.1393 0.1216 0.0
C140 C 0.99076 0.91384 0.89593 0.0
C141 C -0.00498 0.9181 0.12663 0.0
C142 C 0.11017 0.91753 0.01035 0.0
C143 C 0.10902 0.13673 1.00309 0.0
C144 C 0.87697 0.91666 0.00919 0.0
C145 C 0.87615 0.13617 0.00783 0.0
C146 C 0.8801 0.02469 0.12388 0.0
C147 C 0.1122 0.02995 0.11948 0.0
C148 C 0.87452 0.0178 0.89785 0.0
C149 C 0.10615 1.01316 0.89505 0.0
Eu150 Eu -0.00733 0.11371 1.00672 0.0
O151 O 0.03568 0.06853 0.0492 0.0
O152 O 0.94953 0.06676 0.96619 0.0
Eu153 Eu 0.08192 0.027 1.00734 0.0
Eu154 Eu 0.90376 0.02636 0.01019 0.0
O155 O 0.03438 0.06718 0.96462 0.0
O156 O 0.95191 0.06806 0.05052 0.0
Eu157 Eu 0.99109 0.02484 0.91947 0.0
Eu158 Eu -0.00476 0.02825 0.09812 0.0
O159 O 0.03351 0.98533 0.9677 0.0
O160 O 0.03629 0.98633 0.05115 0.0
O161 O 0.95212 0.98633 0.05234 0.0
O162 O 0.95089 0.98506 0.96898 0.0
Eu163 Eu -0.00665 0.93913 0.01094 0.0
O164 O 0.99165 0.15004 0.93553 0.0
O165 O -0.00665 0.15286 0.0765 0.0
O166 O -0.00775 0.90021 0.94099 0.0
O167 O -0.00587 0.90292 0.08215 0.0
O168 O 0.12332 0.96115 0.01014 0.0
O169 O 0.12261 0.09321 1.00237 0.0
O170 O 0.86309 0.96004 0.00795 0.0
O171 O 0.86266 0.09264 0.00972 0.0
O172 O 0.92549 0.02808 0.13835 0.0
O173 O 0.06736 0.02908 0.13578 0.0
O174 O 0.91945 0.01911 0.88198 0.0
O175 O 0.06097 0.01668 0.87985 0.0
O176 O 0.92212 0.90175 0.01178 0.0
O177 O 0.06499 0.90237 0.01045 0.0
O178 O 0.92142 0.15093 1.00635 0.0
O179 O 0.06374 0.15138 1.00531 0.0
O180 O -0.00496 0.09602 0.13606 0.0
O181 O -0.00421 0.96195 0.13932 0.0
O182 O 0.99126 0.0911 0.87821 0.0
O183 O 0.98982 0.95712 0.88156 0.0
O184 O 0.12087 0.01784 0.93934 0.0
O185 O 0.1244 0.02999 0.07432 0.0
O186 O 0.86161 0.02174 0.94271 0.0
O187 O 0.86504 0.02317 0.07938 0.0
C188 C 0.04148 0.32059 0.32835 0.0
C189 C -0.00104 0.3395 0.34607 0.0
C190 C 0.04073 0.28903 0.2911 0.0
C191 C -0.00363 0.2757 0.27091 0.0
C192 C 0.9533 0.29441 0.28872 0.0
C193 C 0.95511 0.32602 0.32595 0.0
C194 C 0.08748 0.26975 0.27347 0.0
C195 C 0.90524 0.28109 0.26834 0.0
C196 C -0.00313 0.22136 0.14855 0.0
C197 C -0.00591 0.17476 0.15935 0.0
C198 C -0.00261 0.25459 0.18437 0.0
C199 C -0.00499 0.24107 0.23223 0.0
C200 C 0.99187 0.1942 0.24331 0.0
C201 C 0.99146 0.16179 0.20695 0.0
C202 C 0.0008 0.30421 0.17103 0.0
C203 C 0.98915 0.17816 0.29374 0.0
H204 H 0.07553 0.33021 0.34392 0.0
H205 H 0.92208 0.34085 0.33872 0.0
H206 H 0.08785 0.23226 0.2782 0.0
H207 H 0.0912 0.27655 0.23525 0.0
H208 H 0.11901 0.28436 0.29211 0.0
H209 H 0.87506 0.29893 0.28582 0.0
H210 H 0.90413 0.28903 0.23018 0.0
H211 H 0.89982 0.24384 0.27202 0.0
H212 H -0.00107 0.23198 0.1121 0.0
H213 H 0.98908 0.12606 0.21612 0.0
H214 H 0.03362 0.31935 0.18669 0.0
H215 H 0.96973 0.32313 0.18541 0.0
H216 H 0.00177 0.30927 0.1323 0.0
H217 H 0.02152 0.18935 0.31338 0.0
H218 H 0.98627 0.14053 0.2965 0.0
H219 H 0.95768 0.19364 0.31129 0.0
C220 C 0.65535 0.01623 0.2948 0.0
C221 C 0.66134 0.98233 0.32914 0.0
C222 C 0.69212 0.02651 0.26315 0.0
C223 C 0.73532 1.00141 0.26509 0.0
C224 C 0.74186 0.96745 0.29978 0.0
C225 C 0.70502 0.95875 0.3318 0.0
C226 C 0.68434 0.06352 0.227 0.0
C227 C 0.78726 0.93949 0.3023 0.0
C228 C 0.80455 0.99036 0.15186 0.0
C229 C 0.84314 0.01982 0.16 0.0
C230 C 0.76938 0.98387 0.18604 0.0
C231 C 0.77237 1.00842 0.22878 0.0
C232 C 0.81089 0.03886 0.23689 0.0
C233 C 0.84641 0.04369 0.20251 0.0
C234 C 0.72948 0.95022 0.17667 0.0
C235 C 0.81439 0.06638 0.28164 0.0
H236 H 0.6216 0.0343 0.29204 0.0
H237 H 0.71052 0.93334 0.35894 0.0
H238 H 0.71486 0.08775 0.22745 0.0
H239 H 0.68266 0.04833 0.1913 0.0
H240 H 0.65069 0.08279 0.23316 0.0
H241 H 0.78705 0.915 0.3321 0.0
H242 H 0.7918 0.92014 0.26907 0.0
H243 H 0.81888 0.96207 0.30615 0.0
H244 H 0.80251 0.97147 0.11911 0.0
H245 H 0.87626 0.06666 0.20847 0.0
H246 H 0.69431 0.96776 0.17775 0.0
H247 H 0.72922 0.92373 0.20452 0.0
H248 H 0.73309 0.93318 0.14195 0.0
H249 H 0.78131 0.08682 0.28633 0.0
H250 H 0.84572 0.08974 0.28168 0.0
H251 H 0.81742 0.04333 0.31242 0.0
C252 C 0.95509 0.73417 0.33374 0.0
C253 C -0.00105 0.71902 0.35258 0.0
C254 C 0.95343 0.76668 0.2973 0.0
C255 C -0.00335 0.78453 0.27888 0.0
C256 C 0.04098 0.7698 0.29803 0.0
C257 C 0.04159 0.73747 0.3346 0.0
C258 C 0.90537 0.78154 0.27812 0.0
C259 C 0.08792 0.78801 0.27964 0.0
C260 C -0.00381 0.83678 0.15563 0.0
C261 C -0.00491 0.88366 0.16542 0.0
C262 C -0.00352 0.80423 0.19208 0.0
C263 C -0.00443 0.81868 0.23967 0.0
C264 C -0.00579 0.86586 0.24983 0.0
C265 C -0.00597 0.89764 0.21277 0.0
C266 C -0.00197 0.7543 0.17963 0.0
C267 C -0.00694 0.88285 0.29997 0.0
H268 H 0.92191 0.71981 0.3467 0.0
H269 H 0.07568 0.7267 0.34923 0.0
H270 H 0.90164 0.81903 0.28117 0.0
H271 H 0.90276 0.77295 0.24017 0.0
H272 H 0.87502 0.76519 0.29681 0.0
H273 H 0.11935 0.77311 0.29819 0.0
H274 H 0.09106 0.7805 0.24151 0.0
H275 H 0.0891 0.82555 0.28369 0.0
H276 H -0.003 0.82532 0.11939 0.0
H277 H -0.00695 0.93361 0.22114 0.0
H278 H 0.96658 0.73657 0.19482 0.0
H279 H 0.03058 0.73844 0.19507 0.0
H280 H -0.00181 0.74852 0.14099 0.0
H281 H 0.96142 0.86867 0.31838 0.0
H282 H 0.99156 0.92059 0.30203 0.0
H283 H 0.0254 0.87097 0.31922 0.0
C284 C 0.33262 0.04405 0.30137 0.0
C285 C 0.34804 0.99967 0.31165 0.0
C286 C 0.29419 0.05177 0.27048 0.0
C287 C 0.27114 0.0142 0.24902 0.0
C288 C 0.28748 0.96944 0.25802 0.0
C289 C 0.32563 0.96269 0.28943 0.0
C290 C 0.27774 0.09998 0.26143 0.0
C291 C 0.26407 0.9286 0.23517 0.0
C292 C 0.14421 0.0248 0.20202 0.0
C293 C 0.15242 0.02931 0.1536 0.0
C294 C 0.18266 0.021 0.23379 0.0
C295 C 0.23021 0.02158 0.21659 0.0
C296 C 0.23876 0.02735 0.16803 0.0
C297 C 0.19983 0.0313 0.13719 0.0
C298 C 0.17244 0.01524 0.28558 0.0
C299 C 0.28902 0.02798 0.1484 0.0
H300 H 0.35022 0.07278 0.31802 0.0
H301 H 0.33683 0.92829 0.29779 0.0
H302 H 0.27945 0.10769 0.22327 0.0
H303 H 0.2398 0.10386 0.27227 0.0
H304 H 0.29974 0.12543 0.28076 0.0
H305 H 0.28194 0.89615 0.245 0.0
H306 H 0.22588 0.92665 0.24567 0.0
H307 H 0.26489 0.93211 0.1963 0.0
H308 H 0.10781 0.02335 0.21508 0.0
H309 H 0.20685 0.03512 0.09992 0.0
H310 H 0.19206 0.04137 0.30626 0.0
H311 H 0.18537 0.98145 0.29758 0.0
H312 H 0.1336 0.01799 0.29354 0.0
H313 H 0.31089 0.05426 0.1665 0.0
H314 H 0.28952 0.03493 0.10997 0.0
H315 H 0.30653 0.99463 0.15485 0.0
C316 C 0.94243 0.73136 0.6902 0.0
C317 C 0.98506 0.71374 0.67134 0.0
C318 C 0.94312 0.76293 0.72745 0.0
C319 C 0.98753 0.77775 0.74634 0.0
C320 C 0.03072 0.7605 0.72727 0.0
C321 C 0.02897 0.72871 0.6902 0.0
C322 C 0.89623 0.78057 0.74651 0.0
C323 C 0.07885 0.7756 0.74611 0.0
C324 C 0.9903 0.89162 0.81046 0.0
C325 C 0.99017 0.87847 0.85809 0.0
C326 C 0.98966 0.8593 0.77402 0.0
C327 C 0.98878 0.81233 0.78505 0.0
C328 C 0.98869 0.79864 0.83292 0.0
C329 C 0.98944 0.83179 0.86882 0.0
C330 C 0.98985 0.87553 0.72357 0.0
C331 C 0.9876 0.74891 0.84621 0.0
H332 H 0.90829 0.72069 0.67559 0.0
H333 H 0.06214 0.71493 0.67659 0.0
H334 H 0.89399 0.77364 0.78483 0.0
H335 H 0.89423 0.81802 0.74183 0.0
H336 H 0.86472 0.76485 0.72883 0.0
H337 H 0.10914 0.75895 0.72762 0.0
H338 H 0.08259 0.81303 0.74236 0.0
H339 H 0.08157 0.76766 0.7842 0.0
H340 H 0.99092 0.92742 0.80131 0.0
H341 H 0.9893 0.82103 0.9053 0.0
H342 H 0.95732 0.86312 0.70501 0.0
H343 H 0.02132 0.86133 0.70491 0.0
H344 H 0.99098 0.91324 0.72083 0.0
H345 H 0.95495 0.73265 0.83142 0.0
H346 H 0.98797 0.74374 0.88494 0.0
H347 H 0.01895 0.73113 0.83092 0.0
C348 C 0.29925 0.9188 0.7107 0.0
C349 C 0.33279 0.95361 0.70387 0.0
C350 C 0.26103 0.92473 0.74197 0.0
C351 C 0.25682 0.96631 0.76675 0.0
C352 C 0.29172 1.00079 0.76124 0.0
C353 C 0.32935 0.99398 0.7298 0.0
C354 C 0.22447 0.88721 0.74739 0.0
C355 C 0.28867 0.04534 0.78766 0.0
C356 C 0.13779 1.00828 0.813 0.0
C357 C 0.14325 0.99977 0.86117 0.0
C358 C 0.17396 0.99602 0.78133 0.0
C359 C 0.21593 0.97435 0.79848 0.0
C360 C 0.22056 0.96389 0.84677 0.0
C361 C 0.18426 0.97696 0.87757 0.0
C362 C 0.16804 1.00759 0.72986 0.0
C363 C 0.26446 0.94019 0.86622 0.0
H364 H 0.30183 0.88777 0.69021 0.0
H365 H 0.35569 0.02066 0.72464 0.0
H366 H 0.22034 0.87817 0.78506 0.0
H367 H 0.18901 0.8992 0.73461 0.0
H368 H 0.23439 0.85608 0.7275 0.0
H369 H 0.3193 0.06826 0.77989 0.0
H370 H 0.25493 0.06321 0.7782 0.0
H371 H 0.28786 0.0389 0.82612 0.0
H372 H 0.1059 0.02548 0.80024 0.0
H373 H 0.1881 0.96914 0.91469 0.0
H374 H 0.17406 0.97691 0.7079 0.0
H375 H 0.19527 0.03322 0.7196 0.0
H376 H 0.1319 0.02147 0.72175 0.0
H377 H 0.27226 0.90895 0.84571 0.0
H378 H 0.26025 0.93065 0.90381 0.0
H379 H 0.29603 0.96294 0.86308 0.0
C380 C 0.02986 0.31953 0.68429 0.0
C381 C 0.98594 0.33407 0.66509 0.0
C382 C 0.0317 0.28715 0.72083 0.0
C383 C 0.98861 0.26874 0.73895 0.0
C384 C 0.94421 0.28287 0.71945 0.0
C385 C 0.94342 0.31514 0.68283 0.0
C386 C 0.07982 0.27301 0.74045 0.0
C387 C 0.89741 0.26404 0.73748 0.0
C388 C -0.00729 0.15558 0.8049 0.0
C389 C 0.99107 0.16945 0.85226 0.0
C390 C -0.00781 0.18742 0.7679 0.0
C391 C 0.98991 0.23455 0.77811 0.0
C392 C 0.98838 0.24889 0.82573 0.0
C393 C 0.98901 0.21629 0.86213 0.0
C394 C -0.00604 0.17053 0.71774 0.0
C395 C 0.98585 0.29877 0.83825 0.0
H396 H 0.06293 0.33429 0.67151 0.0
H397 H 0.9093 0.3255 0.66794 0.0
H398 H 0.08193 0.28163 0.77842 0.0
H399 H 0.0842 0.23559 0.73742 0.0
H400 H 0.11007 0.28983 0.72204 0.0
H401 H 0.8659 0.27853 0.71869 0.0
H402 H 0.89682 0.22648 0.7334 0.0
H403 H 0.89385 0.27148 0.77558 0.0
H404 H -0.00559 0.11965 0.79648 0.0
H405 H 0.98769 0.22767 0.89838 0.0
H406 H 0.02544 0.18526 0.69953 0.0
H407 H 0.96152 0.18192 0.69831 0.0
H408 H -0.00384 0.13283 0.71561 0.0
H409 H 0.01709 0.31703 0.82332 0.0
H410 H 0.98527 0.30448 0.87689 0.0
H411 H 0.95313 0.31413 0.82258 0.0
C412 C 0.66977 0.9166 0.73045 0.0
C413 C 0.64694 0.95142 0.70515 0.0
C414 C 0.70758 0.92645 0.76157 0.0
C415 C 0.72272 0.97214 0.76727 0.0
C416 C 0.69986 1.00735 0.74177 0.0
C417 C 0.66237 0.99654 0.71091 0.0
C418 C 0.73119 0.88812 0.78845 0.0
C419 C 0.71507 0.05648 0.747 0.0
C420 C 0.78784 1.00664 0.87869 0.0
C421 C 0.83568 1.00827 0.86359 0.0
C422 C 0.75085 0.9943 0.84782 0.0
C423 C 0.76186 0.98353 0.80062 0.0
C424 C 0.80989 0.98523 0.78495 0.0
C425 C 0.84629 0.99765 0.81664 0.0
C426 C 0.69996 0.99295 0.86572 0.0
C427 C 0.82282 0.97379 0.73478 0.0
H428 H 0.65782 0.88173 0.72617 0.0
H429 H 0.64561 0.02347 0.69061 0.0
H430 H 0.7701 0.88722 0.78063 0.0
H431 H 0.72753 0.89393 0.82683 0.0
H432 H 0.71544 0.85442 0.77969 0.0
H433 H 0.69357 0.07977 0.72447 0.0
H434 H 0.7113 0.06736 0.78418 0.0
H435 H 0.75341 0.06022 0.73758 0.0
H436 H 0.77908 0.01458 0.91488 0.0
H437 H 0.8831 0.99836 0.80467 0.0
H438 H 0.68384 0.95906 0.85884 0.0
H439 H 0.67791 0.01847 0.84664 0.0
H440 H 0.69778 1.0001 0.90404 0.0
H441 H 0.81046 0.93889 0.72604 0.0
H442 H 0.86202 0.97586 0.72845 0.0
H443 H 0.80434 0.99748 0.71029 0.0
C444 C 0.31387 0.32369 0.96217 0.0
C445 C 0.33582 0.33573 1.00491 0.0
C446 C 0.27702 0.29121 0.96064 0.0
C447 C 0.26168 0.27042 1.00289 0.0
C448 C 0.28402 0.28201 0.04607 0.0
C449 C 0.32089 0.31446 0.04655 0.0
C450 C 0.25412 0.27956 0.9139 0.0
C451 C 0.26873 0.26036 0.09182 0.0
C452 C 0.13739 0.21779 1.00708 0.0
C453 C 0.14777 0.17132 1.00187 0.0
C454 C 0.17411 0.25047 1.00724 0.0
C455 C 0.22231 0.23637 1.00194 0.0
C456 C 0.23302 0.18967 0.99621 0.0
C457 C 0.1957 0.15774 0.99628 0.0
C458 C 0.16139 0.30006 0.01354 0.0
C459 C 0.28399 0.17334 0.99031 0.0
H460 H 0.3247 0.34048 0.92996 0.0
H461 H 0.33811 0.32322 0.0796 0.0
H462 H 0.2571 0.24247 0.90717 0.0
H463 H 0.21537 0.28798 0.91472 0.0
H464 H 0.27084 0.29816 0.88415 0.0
H465 H 0.28979 0.2731 0.12238 0.0
H466 H 0.23023 0.26735 0.09819 0.0
H467 H 0.27299 0.22287 0.08977 0.0
H468 H 0.1006 0.22873 0.01152 0.0
H469 H 0.20433 0.12201 0.99206 0.0
H470 H 0.17472 0.32017 0.98326 0.0
H471 H 0.17913 0.31361 0.04564 0.0
H472 H 0.12213 0.30549 0.01666 0.0
H473 H 0.30051 0.19009 0.95937 0.0
H474 H 0.28621 0.13587 0.98553 0.0
H475 H 0.30566 0.1829 0.02162 0.0
C476 C 0.32367 0.74076 0.05307 0.0
C477 C 0.33834 0.72014 0.011 0.0
C478 C 0.28684 0.77325 0.05331 0.0
C479 C 0.26424 0.78547 0.01043 0.0
C480 C 0.2794 0.76541 0.96774 0.0
C481 C 0.31621 0.7329 0.96856 0.0
C482 C 0.27183 0.79424 0.09947 0.0
C483 C 0.25625 0.77779 0.92131 0.0
C484 C 0.13949 0.83687 0.01539 0.0
C485 C 0.14937 0.88343 0.01026 0.0
C486 C 0.17657 0.80457 0.0155 0.0
C487 C 0.22461 0.81919 0.01025 0.0
C488 C 0.23485 0.86602 1.00486 0.0
C489 C 0.19717 0.89754 1.00493 0.0
C490 C 0.16437 0.75481 0.02133 0.0
C491 C 0.28563 0.88288 0.99897 0.0
H492 H 0.34104 0.73145 0.08588 0.0
H493 H 0.32683 0.71661 0.93602 0.0
H494 H 0.27572 0.8318 0.09784 0.0
H495 H 0.23346 0.78685 0.10612 0.0
H496 H 0.29331 0.78132 0.12965 0.0
H497 H 0.27294 0.75981 0.89115 0.0
H498 H 0.21755 0.76916 0.92213 0.0
H499 H 0.25898 0.81501 0.91523 0.0
H500 H 0.10279 0.82554 0.01958 0.0
H501 H 0.2054 0.93335 1.00065 0.0
H502 H 0.18271 0.74097 0.05297 0.0
H503 H 0.17742 0.73522 0.99057 0.0
H504 H 0.12521 0.74902 0.02492 0.0
H505 H 0.30792 0.87205 0.02941 0.0
H506 H 0.28757 0.92054 0.99592 0.0
H507 H 0.30163 0.86763 0.96697 0.0
C508 C 0.66496 0.31261 0.95465 0.0
C509 C 0.65002 0.33555 0.99532 0.0
C510 C 0.70162 0.27998 0.95663 0.0
C511 C 0.72381 0.27002 1.00033 0.0
C512 C 0.70855 0.29264 0.0416 0.0
C513 C 0.67187 0.32517 0.03858 0.0
C514 C 0.71683 0.25636 0.91191 0.0
C515 C 0.73138 0.28288 0.08883 0.0
C516 C 0.7894 0.15754 0.01272 0.0
C517 C 0.83739 0.17075 1.00678 0.0
C518 C 0.75215 0.18952 0.01091 0.0
C519 C 0.76303 0.23589 1.00288 0.0
C520 C 0.81128 0.2496 0.9971 0.0
C521 C 0.8479 0.21689 0.99918 0.0
C522 C 0.70111 0.17365 0.01743 0.0
C523 C 0.82419 0.29881 0.98839 0.0
H524 H 0.64785 0.32014 0.92122 0.0
H525 H 0.66104 0.34328 0.07002 0.0
H526 H 0.75536 0.26291 0.90525 0.0
H527 H 0.7124 0.219 0.91568 0.0
H528 H 0.69583 0.26788 0.88081 0.0
H529 H 0.71478 0.30283 0.11769 0.0
H530 H 0.72816 0.24613 0.09727 0.0
H531 H 0.77018 0.29102 0.08764 0.0
H532 H 0.7807 0.12208 0.01881 0.0
H533 H 0.88474 0.22755 0.99441 0.0
H534 H 0.6795 0.1821 0.98574 0.0
H535 H 0.68467 0.19163 0.04765 0.0
H536 H 0.69873 0.13639 0.02373 0.0
H537 H 0.80642 0.311 0.95573 0.0
H538 H 0.86346 0.30394 0.98493 0.0
H539 H 0.81103 0.32029 0.01772 0.0
C540 C 0.69247 0.71378 0.965 0.0
C541 C 0.65105 0.71819 0.99261 0.0
C542 C 0.72892 0.74661 0.9664 0.0
C543 C 0.72478 0.7841 0.99732 0.0
C544 C 0.68338 0.78885 0.02546 0.0
C545 C 0.64671 0.75627 0.02222 0.0
C546 C 0.77209 0.74096 0.93505 0.0
C547 C 0.67807 0.82809 0.0594 0.0
C548 C 0.84053 0.84283 0.0334 0.0
C549 C 0.83862 0.88244 1.00612 0.0
C550 C 0.8032 0.81084 0.03151 0.0
C551 C 0.76401 0.81815 1.00049 0.0
C552 C 0.76251 0.85782 0.97223 0.0
C553 C 0.79958 0.88982 0.9759 0.0
C554 C 0.8054 0.76952 0.06307 0.0
C555 C 0.7222 0.86618 0.93762 0.0
H556 H 0.69703 0.68418 0.94275 0.0
H557 H 0.61464 0.76073 0.04304 0.0
H558 H 0.77745 0.7721 0.91359 0.0
H559 H 0.80479 0.73626 0.95685 0.0
H560 H 0.76853 0.71134 0.91098 0.0
H561 H 0.64424 0.8262 0.07976 0.0
H562 H 0.70869 0.82849 0.08447 0.0
H563 H 0.67872 0.86084 0.03998 0.0
H564 H 0.87064 0.83743 0.05701 0.0
H565 H 0.7985 0.92032 0.95439 0.0
H566 H 0.80591 0.73807 0.0415 0.0
H567 H 0.77292 0.76806 0.08541 0.0
H568 H 0.83756 0.76967 0.08627 0.0
H569 H 0.72144 0.83854 0.911 0.0
H570 H 0.72595 0.89928 0.9191 0.0
H571 H 0.68721 0.8657 0.95595 0.0
loop_
_geom_bond_atom_site_label_1
_geom_bond_atom_site_label_2
_geom_bond_distance
_geom_bond_site_symmetry_2
_ccdc_geom_bond_type
C0 C1 1.384 1_455 S
C0 C2 1.384 . S
C0 H28 0.931 . S
C1 C0 1.384 1_655 S
C1 C4 1.382 . S
C2 C0 1.384 . S
C2 C3 1.381 1_455 S
C2 H29 0.930 . S
C3 C2 1.381 1_655 S
C3 C5 1.381 . S
C3 C6 1.487 . S
C4 C1 1.382 . S
C4 C5 1.387 . S
C4 H30 0.930 . S
C5 C3 1.381 . S
C5 C4 1.387 . S
C5 H31 0.931 . S
C6 C3 1.487 . S
C6 C13 1.399 1_655 S
C6 N44 1.343 . S
C7 C8 1.384 1_655 S
C7 C9 1.384 . S
C7 H32 0.931 . S
C8 C7 1.384 1_455 S
C8 C11 1.382 . S
C9 C7 1.384 . S
C9 C10 1.381 1_655 S
C9 H33 0.930 . S
C10 C9 1.381 1_455 S
C10 C12 1.381 . S
C10 C13 1.487 . S
C11 C8 1.382 . S
C11 C12 1.387 . S
C11 H34 0.930 . S
C12 C10 1.381 . S
C12 C11 1.387 . S
C12 H35 0.931 . S
C13 C6 1.399 1_455 S
C13 C10 1.487 . S
C13 N45 1.343 . S
C14 C15 1.384 1_655 S
C14 C16 1.384 . S
C14 H36 0.931 . S
C15 C14 1.384 1_455 S
C15 C18 1.382 . S
C16 C14 1.384 . S
C16 C17 1.381 1_655 S
C16 H37 0.930 . S
C17 C16 1.381 1_455 S
C17 C19 1.381 . S
C17 C20 1.487 . S
C18 C15 1.382 . S
C18 C19 1.387 . S
C18 H38 0.930 . S
C19 C17 1.381 . S
C19 C18 1.387 . S
C19 H39 0.931 . S
C20 C17 1.487 . S
C20 C27 1.399 1_455 S
C20 N45 1.343 . S
C21 C22 1.384 1_455 S
C21 C23 1.384 . S
C21 H40 0.931 . S
C22 C21 1.384 1_655 S
C22 C25 1.382 . S
C23 C21 1.384 . S
C23 C24 1.381 1_455 S
C23 H41 0.930 . S
C24 C23 1.381 1_655 S
C24 C26 1.381 . S
C24 C27 1.487 . S
C25 C22 1.382 . S
C25 C26 1.387 . S
C25 H42 0.930 . S
C26 C24 1.381 . S
C26 C25 1.387 . S
C26 H43 0.931 . S
C27 C20 1.399 1_655 S
C27 C24 1.487 . S
C27 N44 1.343 . S
H28 C0 0.931 . S
H29 C2 0.930 . S
H30 C4 0.930 . S
H31 C5 0.931 . S
H32 C7 0.931 . S
H33 C9 0.930 . S
H34 C11 0.930 . S
H35 C12 0.931 . S
H36 C14 0.931 . S
H37 C16 0.930 . S
H38 C18 0.930 . S
H39 C19 0.931 . S
H40 C21 0.931 . S
H41 C23 0.930 . S
H42 C25 0.930 . S
H43 C26 0.931 . S
N44 C6 1.343 . S
N44 C27 1.343 . S
N45 C13 1.343 . S
N45 C20 1.343 . S
C46 C47 1.384 1_545 S
C46 C48 1.384 . S
C46 H74 0.931 . S
C47 C46 1.384 1_565 S
C47 C50 1.382 . S
C48 C46 1.384 . S
C48 C49 1.381 1_545 S
C48 H75 0.930 . S
C49 C48 1.381 1_565 S
C49 C51 1.381 . S
C49 C52 1.487 . S
C50 C47 1.382 . S
C50 C51 1.387 . S
C50 H76 0.930 . S
C51 C49 1.381 . S
C51 C50 1.387 . S
C51 H77 0.931 . S
C52 C49 1.487 . S
C52 C59 1.399 1_565 S
C52 N90 1.343 . S
C53 C54 1.384 1_565 S
C53 C55 1.384 . S
C53 H78 0.931 . S
C54 C53 1.384 1_545 S
C54 C57 1.382 . S
C55 C53 1.384 . S
C55 C56 1.381 1_565 S
C55 H79 0.930 . S
C56 C55 1.381 1_545 S
C56 C58 1.381 . S
C56 C59 1.487 . S
C57 C54 1.382 . S
C57 C58 1.387 . S
C57 H80 0.930 . S
C58 C56 1.381 . S
C58 C57 1.387 . S
C58 H81 0.931 . S
C59 C52 1.399 1_545 S
C59 C56 1.487 . S
C59 N91 1.343 . S
C60 C61 1.384 1_565 S
C60 C62 1.384 . S
C60 H82 0.931 . S
C61 C60 1.384 1_545 S
C61 C64 1.382 . S
C62 C60 1.384 . S
C62 C63 1.381 1_565 S
C62 H83 0.930 . S
C63 C62 1.381 1_545 S
C63 C65 1.381 . S
C63 C66 1.487 . S
C64 C61 1.382 . S
C64 C65 1.387 . S
C64 H84 0.930 . S
C65 C63 1.381 . S
C65 C64 1.387 . S
C65 H85 0.931 . S
C66 C63 1.487 . S
C66 C73 1.399 1_545 S
C66 N91 1.343 . S
C67 C68 1.384 1_545 S
C67 C69 1.384 . S
C67 H86 0.931 . S
C68 C67 1.384 1_565 S
C68 C71 1.382 . S
C69 C67 1.384 . S
C69 C70 1.381 1_545 S
C69 H87 0.930 . S
C70 C69 1.381 1_565 S
C70 C72 1.381 . S
C70 C73 1.487 . S
C71 C68 1.382 . S
C71 C72 1.387 . S
C71 H88 0.930 . S
C72 C70 1.381 . S
C72 C71 1.387 . S
C72 H89 0.931 . S
C73 C66 1.399 1_565 S
C73 C70 1.487 . S
C73 N90 1.343 . S
H74 C46 0.931 . S
H75 C48 0.930 . S
H76 C50 0.930 . S
H77 C51 0.931 . S
H78 C53 0.931 . S
H79 C55 0.930 . S
H80 C57 0.930 . S
H81 C58 0.931 . S
H82 C60 0.931 . S
H83 C62 0.930 . S
H84 C64 0.930 . S
H85 C65 0.931 . S
H86 C67 0.931 . S
H87 C69 0.930 . S
H88 C71 0.930 . S
H89 C72 0.931 . S
N90 C52 1.343 . S
N90 C73 1.343 . S
N91 C59 1.343 . S
N91 C66 1.343 . S
C92 C93 1.384 1_556 S
C92 C94 1.384 . S
C92 H120 0.931 . S
C93 C92 1.384 1_554 S
C93 C96 1.382 . S
C94 C92 1.384 . S
C94 C95 1.381 1_556 S
C94 H121 0.930 . S
C95 C94 1.381 1_554 S
C95 C97 1.381 . S
C95 C98 1.487 . S
C96 C93 1.382 . S
C96 C97 1.387 . S
C96 H122 0.930 . S
C97 C95 1.381 . S
C97 C96 1.387 . S
C97 H123 0.931 . S
C98 C95 1.487 . S
C98 C105 1.399 1_554 S
C98 N136 1.343 . S
C99 C100 1.384 1_554 S
C99 C101 1.384 . S
C99 H124 0.931 . S
C100 C99 1.384 1_556 S
C100 C103 1.382 . S
C101 C99 1.384 . S
C101 C102 1.381 1_554 S
C101 H125 0.930 . S
C102 C101 1.381 1_556 S
C102 C104 1.381 . S
C102 C105 1.487 . S
C103 C100 1.382 . S
C103 C104 1.387 . S
C103 H126 0.930 . S
C104 C102 1.381 . S
C104 C103 1.387 . S
C104 H127 0.931 . S
C105 C98 1.399 1_556 S
C105 C102 1.487 . S
C105 N137 1.343 . S
C106 C107 1.384 1_554 S
C106 C108 1.384 . S
C106 H128 0.931 . S
C107 C106 1.384 1_556 S
C107 C110 1.382 . S
C108 C106 1.384 . S
C108 C109 1.381 1_554 S
C108 H129 0.930 . S
C109 C108 1.381 1_556 S
C109 C111 1.381 . S
C109 C112 1.487 . S
C110 C107 1.382 . S
C110 C111 1.387 . S
C110 H130 0.930 . S
C111 C109 1.381 . S
C111 C110 1.387 . S
C111 H131 0.931 . S
C112 C109 1.487 . S
C112 C119 1.399 1_556 S
C112 N137 1.343 . S
C113 C114 1.384 1_556 S
C113 C115 1.384 . S
C113 H132 0.931 . S
C114 C113 1.384 1_554 S
C114 C117 1.382 . S
C115 C113 1.384 . S
C115 C116 1.381 1_556 S
C115 H133 0.930 . S
C116 C115 1.381 1_554 S
C116 C118 1.381 . S
C116 C119 1.487 . S
C117 C114 1.382 . S
C117 C118 1.387 . S
C117 H134 0.930 . S
C118 C116 1.381 . S
C118 C117 1.387 . S
C118 H135 0.931 . S
C119 C112 1.399 1_554 S
C119 C116 1.487 . S
C119 N136 1.343 . S
H120 C92 0.931 . S
H121 C94 0.930 . S
H122 C96 0.930 . S
H123 C97 0.931 . S
H124 C99 0.931 . S
H125 C101 0.930 . S
H126 C103 0.930 . S
H127 C104 0.931 . S
H128 C106 0.931 . S
H129 C108 0.930 . S
H130 C110 0.930 . S
H131 C111 0.931 . S
H132 C113 0.931 . S
H133 C115 0.930 . S
H134 C117 0.930 . S
H135 C118 0.931 . S
N136 C98 1.343 . S
N136 C119 1.343 . S
N137 C105 1.343 . S
N137 C112 1.343 . S
C138 O164 1.283 . S
C138 O182 1.283 . S
C139 O165 1.283 . S
C139 O180 1.283 . S
C140 O166 1.283 . S
C140 O183 1.283 . S
C141 O167 1.283 . S
C141 O181 1.283 . S
C142 O168 1.283 . S
C142 O177 1.283 . S
C143 O169 1.283 . S
C143 O179 1.283 . S
C144 O170 1.283 . S
C144 O176 1.283 . S
C145 O171 1.283 . S
C145 O178 1.283 . S
C146 O172 1.283 . S
C146 O187 1.283 . S
C147 O173 1.283 . S
C147 O185 1.283 . S
C148 O174 1.283 . S
C148 O186 1.283 . S
C149 O175 1.283 . S
C149 O184 1.283 . S
Eu150 O151 2.370 . S
Eu150 O152 2.370 1_454 S
Eu150 O155 2.370 1_554 S
Eu150 O156 2.370 1_455 S
Eu150 O164 2.363 1_554 S
Eu150 O165 2.363 . S
Eu150 O178 2.363 1_455 S
Eu150 O179 2.363 . S
O151 Eu150 2.370 . S
O151 Eu153 2.370 . S
O151 Eu158 2.370 . S
O152 Eu150 2.370 1_656 S
O152 Eu154 2.370 1_556 S
O152 Eu157 2.370 1_655 S
Eu153 O151 2.370 . S
Eu153 O155 2.370 1_554 S
Eu153 O159 2.370 1_544 S
Eu153 O160 2.370 1_545 S
Eu153 O168 2.363 1_545 S
Eu153 O169 2.363 . S
Eu153 O184 2.363 1_554 S
Eu153 O185 2.363 . S
Eu154 O152 2.370 1_554 S
Eu154 O156 2.370 . S
Eu154 O161 2.370 1_545 S
Eu154 O162 2.370 1_544 S
Eu154 O170 2.363 1_545 S
Eu154 O171 2.363 . S
Eu154 O186 2.363 1_554 S
Eu154 O187 2.363 . S
O155 Eu150 2.370 1_556 S
O155 Eu153 2.370 1_556 S
O155 Eu157 2.370 . S
O156 Eu150 2.370 1_655 S
O156 Eu154 2.370 . S
O156 Eu158 2.370 1_655 S
Eu157 O152 2.370 1_455 S
Eu157 O155 2.370 . S
Eu157 O159 2.370 1_545 S
Eu157 O162 2.370 1_445 S
Eu157 O174 2.363 1_455 S
Eu157 O175 2.363 . S
Eu157 O182 2.363 . S
Eu157 O183 2.363 1_545 S
Eu158 O151 2.370 . S
Eu158 O156 2.370 1_455 S
Eu158 O160 2.370 1_545 S
Eu158 O161 2.370 1_445 S
Eu158 O172 2.363 1_455 S
Eu158 O173 2.363 . S
Eu158 O180 2.363 . S
Eu158 O181 2.363 1_545 S
O159 Eu153 2.370 1_566 S
O159 Eu157 2.370 1_565 S
O159 Eu163 2.370 1_556 S
O160 Eu153 2.370 1_565 S
O160 Eu158 2.370 1_565 S
O160 Eu163 2.370 . S
O161 Eu154 2.370 1_565 S
O161 Eu158 2.370 1_665 S
O161 Eu163 2.370 1_655 S
O162 Eu154 2.370 1_566 S
O162 Eu157 2.370 1_665 S
O162 Eu163 2.370 1_656 S
Eu163 O159 2.370 1_554 S
Eu163 O160 2.370 . S
Eu163 O161 2.370 1_455 S
Eu163 O162 2.370 1_454 S
Eu163 O166 2.363 1_554 S
Eu163 O167 2.363 . S
Eu163 O176 2.363 1_455 S
Eu163 O177 2.363 . S
O164 C138 1.283 . S
O164 Eu150 2.363 1_556 S
O165 C139 1.283 . S
O165 Eu150 2.363 . S
O166 C140 1.283 . S
O166 Eu163 2.363 1_556 S
O167 C141 1.283 . S
O167 Eu163 2.363 . S
O168 C142 1.283 . S
O168 Eu153 2.363 1_565 S
O169 C143 1.283 . S
O169 Eu153 2.363 . S
O170 C144 1.283 . S
O170 Eu154 2.363 1_565 S
O171 C145 1.283 . S
O171 Eu154 2.363 . S
O172 C146 1.283 . S
O172 Eu158 2.363 1_655 S
O173 C147 1.283 . S
O173 Eu158 2.363 . S
O174 C148 1.283 . S
O174 Eu157 2.363 1_655 S
O175 C149 1.283 . S
O175 Eu157 2.363 . S
O176 C144 1.283 . S
O176 Eu163 2.363 1_655 S
O177 C142 1.283 . S
O177 Eu163 2.363 . S
O178 C145 1.283 . S
O178 Eu150 2.363 1_655 S
O179 C143 1.283 . S
O179 Eu150 2.363 . S
O180 C139 1.283 . S
O180 Eu158 2.363 . S
O181 C141 1.283 . S
O181 Eu158 2.363 1_565 S
O182 C138 1.283 . S
O182 Eu157 2.363 . S
O183 C140 1.283 . S
O183 Eu157 2.363 1_565 S
O184 C149 1.283 . S
O184 Eu153 2.363 1_556 S
O185 C147 1.283 . S
O185 Eu153 2.363 . S
O186 C148 1.283 . S
O186 Eu154 2.363 1_556 S
O187 C146 1.283 . S
O187 Eu154 2.363 . S
C188 C189 1.391 . S
C188 C190 1.394 . S
C188 H204 0.931 . S
C189 C188 1.391 . S
C189 C193 1.376 1_455 S
C190 C188 1.394 . S
C190 C191 1.369 . S
C190 C194 1.531 . S
C191 C190 1.369 . S
C191 C192 1.410 1_455 S
C191 C199 1.503 . S
C192 C191 1.410 1_655 S
C192 C193 1.392 . S
C192 C195 1.511 . S
C193 C189 1.376 1_655 S
C193 C192 1.392 . S
C193 H205 0.929 . S
C194 C190 1.531 . S
C194 H206 0.960 . S
C194 H207 0.962 . S
C194 H208 0.960 . S
C195 C192 1.511 . S
C195 H209 0.961 . S
C195 H210 0.961 . S
C195 H211 0.961 . S
C196 C197 1.363 1_655 S
C196 C198 1.363 . S
C196 H212 0.931 . S
C197 C196 1.363 1_455 S
C197 C201 1.416 . S
C198 C196 1.363 . S
C198 C199 1.370 1_655 S
C198 C202 1.524 . S
C199 C191 1.503 . S
C199 C198 1.370 1_455 S
C199 C200 1.403 . S
C200 C199 1.403 . S
C200 C201 1.404 . S
C200 C203 1.539 . S
C201 C197 1.416 . S
C201 C200 1.404 . S
C201 H213 0.930 . S
C202 C198 1.524 . S
C202 H214 0.956 . S
C202 H215 0.961 . S
C202 H216 0.961 . S
C203 C200 1.539 . S
C203 H217 0.958 . S
C203 H218 0.961 . S
C203 H219 0.960 . S
H204 C188 0.931 . S
H205 C193 0.929 . S
H206 C194 0.960 . S
H207 C194 0.962 . S
H208 C194 0.960 . S
H209 C195 0.961 . S
H210 C195 0.961 . S
H211 C195 0.961 . S
H212 C196 0.931 . S
H213 C201 0.930 . S
H214 C202 0.956 . S
H215 C202 0.961 . S
H216 C202 0.961 . S
H217 C203 0.958 . S
H218 C203 0.961 . S
H219 C203 0.960 . S
C220 C221 1.391 . S
C220 C222 1.394 . S
C220 H236 0.931 . S
C221 C220 1.391 . S
C221 C225 1.376 1_545 S
C222 C220 1.394 . S
C222 C223 1.369 . S
C222 C226 1.531 . S
C223 C222 1.369 . S
C223 C224 1.407 1_545 S
C223 C231 1.503 . S
C224 C223 1.407 1_565 S
C224 C225 1.393 . S
C224 C227 1.513 . S
C225 C221 1.376 1_565 S
C225 C224 1.393 . S
C225 H237 0.929 . S
C226 C222 1.531 . S
C226 H238 0.960 . S
C226 H239 0.962 . S
C226 H240 0.960 . S
C227 C224 1.513 . S
C227 H241 0.961 . S
C227 H242 0.961 . S
C227 H243 0.961 1_565 S
C228 C229 1.370 1_565 S
C228 C230 1.363 . S
C228 H244 0.931 . S
C229 C228 1.370 1_545 S
C229 C233 1.408 . S
C230 C228 1.363 . S
C230 C231 1.370 1_565 S
C230 C234 1.524 . S
C231 C223 1.503 . S
C231 C230 1.370 1_545 S
C231 C232 1.403 . S
C232 C231 1.403 . S
C232 C233 1.404 . S
C232 C235 1.539 . S
C233 C229 1.408 . S
C233 C232 1.404 . S
C233 H245 0.930 . S
C234 C230 1.524 . S
C234 H246 0.956 . S
C234 H247 0.961 . S
C234 H248 0.961 . S
C235 C232 1.539 . S
C235 H249 0.958 . S
C235 H250 0.961 . S
C235 H251 0.960 . S
H236 C220 0.931 . S
H237 C225 0.929 . S
H238 C226 0.960 . S
H239 C226 0.962 . S
H240 C226 0.960 . S
H241 C227 0.961 . S
H242 C227 0.961 . S
H243 C227 0.961 1_545 S
H244 C228 0.931 . S
H245 C233 0.930 . S
H246 C234 0.956 . S
H247 C234 0.961 . S
H248 C234 0.961 . S
H249 C235 0.958 . S
H250 C235 0.961 . S
H251 C235 0.960 . S
C252 C253 1.391 1_655 S
C252 C254 1.394 . S
C252 H268 0.931 . S
C253 C252 1.391 1_455 S
C253 C257 1.376 . S
C254 C252 1.394 . S
C254 C255 1.369 1_655 S
C254 C258 1.531 . S
C255 C254 1.369 1_455 S
C255 C256 1.410 . S
C255 C263 1.503 . S
C256 C255 1.410 . S
C256 C257 1.392 . S
C256 C259 1.511 . S
C257 C253 1.376 . S
C257 C256 1.392 . S
C257 H269 0.929 . S
C258 C254 1.531 . S
C258 H270 0.960 . S
C258 H271 0.962 . S
C258 H272 0.960 . S
C259 C256 1.511 . S
C259 H273 0.961 . S
C259 H274 0.961 . S
C259 H275 0.961 . S
C260 C261 1.365 1_655 S
C260 C262 1.363 . S
C260 H276 0.931 . S
C261 C260 1.365 1_455 S
C261 C265 1.414 . S
C262 C260 1.363 . S
C262 C263 1.370 1_655 S
C262 C266 1.524 . S
C263 C255 1.503 . S
C263 C262 1.370 1_455 S
C263 C264 1.403 . S
C264 C263 1.403 . S
C264 C265 1.404 . S
C264 C267 1.539 . S
C265 C261 1.414 . S
C265 C264 1.404 . S
C265 H277 0.930 . S
C266 C262 1.524 . S
C266 H278 0.956 . S
C266 H279 0.961 1_655 S
C266 H280 0.961 . S
C267 C264 1.539 . S
C267 H281 0.958 . S
C267 H282 0.961 . S
C267 H283 0.960 . S
H268 C252 0.931 . S
H269 C257 0.929 . S
H270 C258 0.960 . S
H271 C258 0.962 . S
H272 C258 0.960 . S
H273 C259 0.961 . S
H274 C259 0.961 . S
H275 C259 0.961 . S
H276 C260 0.931 . S
H277 C265 0.930 . S
H278 C266 0.956 . S
H279 C266 0.961 1_455 S
H280 C266 0.961 . S
H281 C267 0.958 . S
H282 C267 0.961 . S
H283 C267 0.960 . S
C284 C285 1.391 . S
C284 C286 1.394 . S
C284 H300 0.931 . S
C285 C284 1.391 . S
C285 C289 1.376 1_545 S
C286 C284 1.394 . S
C286 C287 1.369 . S
C286 C290 1.531 . S
C287 C286 1.369 . S
C287 C288 1.410 1_545 S
C287 C295 1.503 . S
C288 C287 1.410 1_565 S
C288 C289 1.392 . S
C288 C291 1.511 . S
C289 C285 1.376 1_565 S
C289 C288 1.392 . S
C289 H301 0.929 . S
C290 C286 1.531 . S
C290 H302 0.960 . S
C290 H303 0.962 . S
C290 H304 0.960 . S
C291 C288 1.511 . S
C291 H305 0.961 . S
C291 H306 0.961 . S
C291 H307 0.961 . S
C292 C293 1.363 1_565 S
C292 C294 1.363 . S
C292 H308 0.931 . S
C293 C292 1.363 1_545 S
C293 C297 1.417 . S
C294 C292 1.363 . S
C294 C295 1.370 1_565 S
C294 C298 1.524 . S
C295 C287 1.503 . S
C295 C294 1.370 1_545 S
C295 C296 1.403 . S
C296 C295 1.403 . S
C296 C297 1.404 . S
C296 C299 1.539 . S
C297 C293 1.417 . S
C297 C296 1.404 . S
C297 H309 0.930 . S
C298 C294 1.524 . S
C298 H310 0.956 . S
C298 H311 0.961 . S
C298 H312 0.961 . S
C299 C296 1.539 . S
C299 H313 0.958 . S
C299 H314 0.961 . S
C299 H315 0.960 . S
H300 C284 0.931 . S
H301 C289 0.929 . S
H302 C290 0.960 . S
H303 C290 0.962 . S
H304 C290 0.960 . S
H305 C291 0.961 . S
H306 C291 0.961 . S
H307 C291 0.961 . S
H308 C292 0.931 . S
H309 C297 0.930 . S
H310 C298 0.956 . S
H311 C298 0.961 . S
H312 C298 0.961 . S
H313 C299 0.958 . S
H314 C299 0.961 . S
H315 C299 0.960 . S
C316 C317 1.391 . S
C316 C318 1.394 . S
C316 H332 0.931 . S
C317 C316 1.391 . S
C317 C321 1.376 1_655 S
C318 C316 1.394 . S
C318 C319 1.369 . S
C318 C322 1.531 . S
C319 C318 1.369 . S
C319 C320 1.410 1_655 S
C319 C327 1.503 . S
C320 C319 1.410 1_455 S
C320 C321 1.392 . S
C320 C323 1.511 . S
C321 C317 1.376 1_455 S
C321 C320 1.392 . S
C321 H333 0.929 . S
C322 C318 1.531 . S
C322 H334 0.960 . S
C322 H335 0.962 . S
C322 H336 0.960 . S
C323 C320 1.511 . S
C323 H337 0.961 . S
C323 H338 0.961 . S
C323 H339 0.961 . S
C324 C325 1.359 1_455 S
C324 C326 1.363 . S
C324 H340 0.931 . S
C325 C324 1.359 1_655 S
C325 C329 1.422 . S
C326 C324 1.363 . S
C326 C327 1.370 1_455 S
C326 C330 1.524 . S
C327 C319 1.503 . S
C327 C326 1.370 1_655 S
C327 C328 1.403 . S
C328 C327 1.403 . S
C328 C329 1.404 . S
C328 C331 1.539 . S
C329 C325 1.422 . S
C329 C328 1.404 . S
C329 H341 0.930 . S
C330 C326 1.524 . S
C330 H342 0.956 . S
C330 H343 0.961 . S
C330 H344 0.961 . S
C331 C328 1.539 . S
C331 H345 0.958 . S
C331 H346 0.961 . S
C331 H347 0.960 . S
H332 C316 0.931 . S
H333 C321 0.929 . S
H334 C322 0.960 . S
H335 C322 0.962 . S
H336 C322 0.960 . S
H337 C323 0.961 . S
H338 C323 0.961 . S
H339 C323 0.961 . S
H340 C324 0.931 . S
H341 C329 0.930 . S
H342 C330 0.956 . S
H343 C330 0.961 . S
H344 C330 0.961 . S
H345 C331 0.958 . S
H346 C331 0.961 . S
H347 C331 0.960 . S
C348 C349 1.391 . S
C348 C350 1.394 . S
C348 H364 0.931 . S
C349 C348 1.391 . S
C349 C353 1.376 1_565 S
C350 C348 1.394 . S
C350 C351 1.369 . S
C350 C354 1.531 . S
C351 C350 1.369 . S
C351 C352 1.410 . S
C351 C359 1.503 . S
C352 C351 1.410 . S
C352 C353 1.392 1_565 S
C352 C355 1.511 1_565 S
C353 C349 1.376 1_545 S
C353 C352 1.392 1_545 S
C353 H365 0.929 . S
C354 C350 1.531 . S
C354 H366 0.960 . S
C354 H367 0.962 1_565 S
C354 H368 0.960 . S
C355 C352 1.511 1_545 S
C355 H369 0.961 . S
C355 H370 0.961 . S
C355 H371 0.961 1_545 S
C356 C357 1.370 1_545 S
C356 C358 1.363 . S
C356 H372 0.931 . S
C357 C356 1.370 1_565 S
C357 C361 1.408 . S
C358 C356 1.363 . S
C358 C359 1.370 1_545 S
C358 C362 1.524 . S
C359 C351 1.503 . S
C359 C358 1.370 1_565 S
C359 C360 1.403 . S
C360 C359 1.403 . S
C360 C361 1.404 . S
C360 C363 1.539 . S
C361 C357 1.408 . S
C361 C360 1.404 . S
C361 H373 0.930 . S
C362 C358 1.524 . S
C362 H374 0.956 . S
C362 H375 0.961 . S
C362 H376 0.961 . S
C363 C360 1.539 . S
C363 H377 0.958 . S
C363 H378 0.961 . S
C363 H379 0.960 . S
H364 C348 0.931 . S
H365 C353 0.929 . S
H366 C354 0.960 . S
H367 C354 0.962 1_545 S
H368 C354 0.960 . S
H369 C355 0.961 . S
H370 C355 0.961 . S
H371 C355 0.961 1_565 S
H372 C356 0.931 . S
H373 C361 0.930 . S
H374 C362 0.956 . S
H375 C362 0.961 . S
H376 C362 0.961 . S
H377 C363 0.958 . S
H378 C363 0.961 . S
H379 C363 0.960 . S
C380 C381 1.408 . S
C380 C382 1.394 . S
C380 H396 0.931 . S
C381 C380 1.408 . S
C381 C385 1.360 1_455 S
C382 C380 1.394 . S
C382 C383 1.369 . S
C382 C386 1.531 . S
C383 C382 1.369 . S
C383 C384 1.410 1_455 S
C383 C391 1.503 . S
C384 C383 1.410 1_655 S
C384 C385 1.392 . S
C384 C387 1.511 . S
C385 C381 1.360 1_655 S
C385 C384 1.392 . S
C385 H397 0.929 . S
C386 C382 1.531 . S
C386 H398 0.960 . S
C386 H399 0.962 . S
C386 H400 0.960 . S
C387 C384 1.511 . S
C387 H401 0.961 . S
C387 H402 0.961 . S
C387 H403 0.961 . S
C388 C389 1.370 1_655 S
C388 C390 1.363 . S
C388 H404 0.931 . S
C389 C388 1.370 1_455 S
C389 C393 1.408 . S
C390 C388 1.363 . S
C390 C391 1.370 1_655 S
C390 C394 1.524 . S
C391 C383 1.503 . S
C391 C390 1.370 1_455 S
C391 C392 1.403 . S
C392 C391 1.403 . S
C392 C393 1.404 . S
C392 C395 1.539 . S
C393 C389 1.408 . S
C393 C392 1.404 . S
C393 H405 0.930 . S
C394 C390 1.524 . S
C394 H406 0.956 1_655 S
C394 H407 0.961 . S
C394 H408 0.961 . S
C395 C392 1.539 . S
C395 H409 0.958 . S
C395 H410 0.961 . S
C395 H411 0.954 1_455 S
H396 C380 0.931 . S
H397 C385 0.929 . S
H398 C386 0.960 . S
H399 C386 0.962 . S
H400 C386 0.960 . S
H401 C387 0.961 . S
H402 C387 0.961 . S
H403 C387 0.961 . S
H404 C388 0.931 . S
H405 C393 0.930 . S
H406 C394 0.956 1_455 S
H407 C394 0.961 . S
H408 C394 0.961 . S
H409 C395 0.958 . S
H410 C395 0.961 . S
H411 C395 0.954 1_655 S
C412 C413 1.391 . S
C412 C414 1.394 . S
C412 H428 0.931 . S
C413 C412 1.391 . S
C413 C417 1.376 1_565 S
C414 C412 1.394 . S
C414 C415 1.369 . S
C414 C418 1.531 . S
C415 C414 1.369 . S
C415 C416 1.410 1_565 S
C415 C423 1.503 . S
C416 C415 1.410 1_545 S
C416 C417 1.392 . S
C416 C419 1.511 . S
C417 C413 1.376 1_545 S
C417 C416 1.392 . S
C417 H429 0.929 . S
C418 C414 1.531 . S
C418 H430 0.960 . S
C418 H431 0.962 . S
C418 H432 0.960 . S
C419 C416 1.511 . S
C419 H433 0.961 . S
C419 H434 0.961 . S
C419 H435 0.961 . S
C420 C421 1.360 1_545 S
C420 C422 1.363 . S
C420 H436 0.931 . S
C421 C420 1.360 1_565 S
C421 C425 1.420 . S
C422 C420 1.363 . S
C422 C423 1.370 1_545 S
C422 C426 1.524 . S
C423 C415 1.503 . S
C423 C422 1.370 1_565 S
C423 C424 1.403 . S
C424 C423 1.403 . S
C424 C425 1.404 . S
C424 C427 1.539 . S
C425 C421 1.420 . S
C425 C424 1.404 . S
C425 H437 0.930 . S
C426 C422 1.524 . S
C426 H438 0.956 . S
C426 H439 0.961 . S
C426 H440 0.961 . S
C427 C424 1.539 . S
C427 H441 0.958 . S
C427 H442 0.961 . S
C427 H443 0.960 . S
H428 C412 0.931 . S
H429 C417 0.929 . S
H430 C418 0.960 . S
H431 C418 0.962 . S
H432 C418 0.960 . S
H433 C419 0.961 . S
H434 C419 0.961 . S
H435 C419 0.961 . S
H436 C420 0.931 . S
H437 C425 0.930 . S
H438 C426 0.956 . S
H439 C426 0.961 . S
H440 C426 0.961 . S
H441 C427 0.958 . S
H442 C427 0.961 . S
H443 C427 0.960 . S
C444 C445 1.385 1_556 S
C444 C446 1.394 . S
C444 H460 0.931 . S
C445 C444 1.385 1_554 S
C445 C449 1.382 . S
C446 C444 1.394 . S
C446 C447 1.367 . S
C446 C450 1.531 . S
C447 C446 1.367 . S
C447 C448 1.412 1_556 S
C447 C455 1.503 1_556 S
C448 C447 1.412 1_554 S
C448 C449 1.392 . S
C448 C451 1.511 . S
C449 C445 1.382 . S
C449 C448 1.392 . S
C449 H461 0.929 . S
C450 C446 1.531 . S
C450 H462 0.960 . S
C450 H463 0.962 . S
C450 H464 0.960 . S
C451 C448 1.511 . S
C451 H465 0.961 . S
C451 H466 0.961 . S
C451 H467 0.961 . S
C452 C453 1.369 1_556 S
C452 C454 1.363 . S
C452 H468 0.931 . S
C453 C452 1.369 1_554 S
C453 C457 1.409 . S
C454 C452 1.363 . S
C454 C455 1.370 1_556 S
C454 C458 1.524 . S
C455 C447 1.503 1_554 S
C455 C454 1.370 1_554 S
C455 C456 1.403 . S
C456 C455 1.403 . S
C456 C457 1.404 . S
C456 C459 1.539 . S
C457 C453 1.409 . S
C457 C456 1.404 . S
C457 H469 0.930 . S
C458 C454 1.524 . S
C458 H470 0.956 . S
C458 H471 0.961 1_556 S
C458 H472 0.961 . S
C459 C456 1.539 . S
C459 H473 0.958 1_554 S
C459 H474 0.961 . S
C459 H475 0.960 . S
H460 C444 0.931 . S
H461 C449 0.929 . S
H462 C450 0.960 . S
H463 C450 0.962 . S
H464 C450 0.960 . S
H465 C451 0.961 . S
H466 C451 0.961 . S
H467 C451 0.961 . S
H468 C452 0.931 . S
H469 C457 0.930 . S
H470 C458 0.956 . S
H471 C458 0.961 1_554 S
H472 C458 0.961 . S
H473 C459 0.958 1_556 S
H474 C459 0.961 . S
H475 C459 0.960 . S
C476 C477 1.391 . S
C476 C478 1.394 . S
C476 H492 0.931 . S
C477 C476 1.391 . S
C477 C481 1.376 1_554 S
C478 C476 1.394 . S
C478 C479 1.369 . S
C478 C482 1.531 . S
C479 C478 1.369 . S
C479 C480 1.410 1_554 S
C479 C487 1.503 . S
C480 C479 1.410 1_556 S
C480 C481 1.392 . S
C480 C483 1.511 . S
C481 C477 1.376 1_556 S
C481 C480 1.392 . S
C481 H493 0.929 . S
C482 C478 1.531 . S
C482 H494 0.960 . S
C482 H495 0.962 . S
C482 H496 0.960 . S
C483 C480 1.511 . S
C483 H497 0.961 . S
C483 H498 0.961 . S
C483 H499 0.961 . S
C484 C485 1.368 1_556 S
C484 C486 1.363 . S
C484 H500 0.931 . S
C485 C484 1.368 1_554 S
C485 C489 1.411 . S
C486 C484 1.363 . S
C486 C487 1.370 1_556 S
C486 C490 1.524 . S
C487 C479 1.503 . S
C487 C486 1.370 1_554 S
C487 C488 1.403 . S
C488 C487 1.403 . S
C488 C489 1.404 . S
C488 C491 1.539 . S
C489 C485 1.411 . S
C489 C488 1.404 . S
C489 H501 0.930 . S
C490 C486 1.524 . S
C490 H502 0.956 . S
C490 H503 0.961 . S
C490 H504 0.961 . S
C491 C488 1.539 . S
C491 H505 0.958 . S
C491 H506 0.961 . S
C491 H507 0.960 . S
H492 C476 0.931 . S
H493 C481 0.929 . S
H494 C482 0.960 . S
H495 C482 0.962 . S
H496 C482 0.960 . S
H497 C483 0.961 . S
H498 C483 0.961 . S
H499 C483 0.961 . S
H500 C484 0.931 . S
H501 C489 0.930 . S
H502 C490 0.956 . S
H503 C490 0.961 . S
H504 C490 0.961 . S
H505 C491 0.958 . S
H506 C491 0.961 . S
H507 C491 0.960 . S
C508 C509 1.391 . S
C508 C510 1.394 . S
C508 H524 0.931 . S
C509 C508 1.391 . S
C509 C513 1.376 1_556 S
C510 C508 1.394 . S
C510 C511 1.369 . S
C510 C514 1.531 . S
C511 C510 1.369 . S
C511 C512 1.410 1_556 S
C511 C519 1.503 . S
C512 C511 1.410 1_554 S
C512 C513 1.392 . S
C512 C515 1.511 . S
C513 C509 1.376 1_554 S
C513 C512 1.392 . S
C513 H525 0.929 . S
C514 C510 1.531 . S
C514 H526 0.960 . S
C514 H527 0.962 . S
C514 H528 0.960 . S
C515 C512 1.511 . S
C515 H529 0.961 . S
C515 H530 0.961 . S
C515 H531 0.961 1_554 S
C516 C517 1.370 1_554 S
C516 C518 1.363 . S
C516 H532 0.931 . S
C517 C516 1.370 1_556 S
C517 C521 1.408 . S
C518 C516 1.363 . S
C518 C519 1.370 1_554 S
C518 C522 1.524 . S
C519 C511 1.503 . S
C519 C518 1.370 1_556 S
C519 C520 1.403 . S
C520 C519 1.403 . S
C520 C521 1.404 . S
C520 C523 1.539 . S
C521 C517 1.408 . S
C521 C520 1.404 . S
C521 H533 0.930 . S
C522 C518 1.524 . S
C522 H534 0.956 . S
C522 H535 0.961 . S
C522 H536 0.961 . S
C523 C520 1.539 . S
C523 H537 0.958 . S
C523 H538 0.961 . S
C523 H539 0.960 . S
H524 C508 0.931 . S
H525 C513 0.929 . S
H526 C514 0.960 . S
H527 C514 0.962 . S
H528 C514 0.960 . S
H529 C515 0.961 . S
H530 C515 0.961 . S
H531 C515 0.961 1_556 S
H532 C516 0.931 . S
H533 C521 0.930 . S
H534 C522 0.956 . S
H535 C522 0.961 . S
H536 C522 0.961 . S
H537 C523 0.958 . S
H538 C523 0.961 . S
H539 C523 0.960 . S
C540 C541 1.391 . S
C540 C542 1.394 . S
C540 H556 0.931 . S
C541 C540 1.391 . S
C541 C545 1.376 1_556 S
C542 C540 1.394 . S
C542 C543 1.369 . S
C542 C546 1.531 . S
C543 C542 1.369 . S
C543 C544 1.410 1_556 S
C543 C551 1.503 . S
C544 C543 1.410 1_554 S
C544 C545 1.392 . S
C544 C547 1.511 . S
C545 C541 1.376 1_554 S
C545 C544 1.392 . S
C545 H557 0.929 . S
C546 C542 1.531 . S
C546 H558 0.960 . S
C546 H559 0.962 . S
C546 H560 0.960 . S
C547 C544 1.511 . S
C547 H561 0.961 . S
C547 H562 0.961 . S
C547 H563 0.961 . S
C548 C549 1.370 1_554 S
C548 C550 1.363 . S
C548 H564 0.931 . S
C549 C548 1.370 1_556 S
C549 C553 1.408 . S
C550 C548 1.363 . S
C550 C551 1.370 1_554 S
C550 C554 1.524 . S
C551 C543 1.503 . S
C551 C550 1.370 1_556 S
C551 C552 1.403 . S
C552 C551 1.403 . S
C552 C553 1.404 . S
C552 C555 1.539 . S
C553 C549 1.408 . S
C553 C552 1.404 . S
C553 H565 0.930 . S
C554 C550 1.524 . S
C554 H566 0.956 . S
C554 H567 0.961 . S
C554 H568 0.961 . S
C555 C552 1.539 . S
C555 H569 0.958 . S
C555 H570 0.961 . S
C555 H571 0.960 . S
H556 C540 0.931 . S
H557 C545 0.929 . S
H558 C546 0.960 . S
H559 C546 0.962 . S
H560 C546 0.960 . S
H561 C547 0.961 . S
H562 C547 0.961 . S
H563 C547 0.961 . S
H564 C548 0.931 . S
H565 C553 0.930 . S
H566 C554 0.956 . S
H567 C554 0.961 . S
H568 C554 0.961 . S
H569 C555 0.958 . S
H570 C555 0.961 . S
H571 C555 0.960 . S
C197 C139 1.774 . S
C189 C15 1.768 . S
C229 C146 1.301 . S
C221 C68 1.294 1_545 S
C261 C141 1.774 . S
C253 C8 1.773 . S
C293 C147 1.299 . S
C285 C61 1.297 . S
C317 C1 1.760 . S
C325 C140 1.780 1_655 S
C357 C149 1.300 1_565 S
C349 C54 1.299 1_565 S
C381 C22 1.759 1_455 S
C389 C138 1.777 . S
C413 C47 1.284 . S
C421 C148 1.305 1_565 S
C445 C93 1.525 . S
C453 C143 1.522 . S
C477 C114 1.524 . S
C485 C142 1.525 . S
C517 C145 1.526 1_556 S
C509 C100 1.515 . S
C549 C144 1.526 1_556 S
C541 C107 1.524 . S
