# Generated by pormake.
# Topology pth, (4,4)-cn, num edge types: 1
# Building blocks:
#     Node 0, Type 0, BuildingBlock: TATPOV_clean_sbu_0, # of connection points: 4
#     Node 1, Type 0, BuildingBlock: TATPOV_clean_sbu_0, # of connection points: 4
#     Node 2, Type 0, BuildingBlock: TATPOV_clean_sbu_0, # of connection points: 4
#     Node 3, Type 1, BuildingBlock: NAWXER_clean_linker_0, # of connection points: 4
#     Node 4, Type 1, BuildingBlock: NAWXER_clean_linker_0, # of connection points: 4
#     Node 5, Type 1, BuildingBlock: NAWXER_clean_linker_0, # of connection points: 4
#     Edge 6, Type (0, 1), BuildingBlock: OJICUG_clean_linker_0, # of connection points: 2
#     Edge 7, Type (0, 1), BuildingBlock: OJICUG_clean_linker_0, # of connection points: 2
#     Edge 8, Type (0, 1), BuildingBlock: OJICUG_clean_linker_0, # of connection points: 2
#     Edge 9, Type (0, 1), BuildingBlock: OJICUG_clean_linker_0, # of connection points: 2
#     Edge 10, Type (0, 1), BuildingBlock: OJICUG_clean_linker_0, # of connection points: 2
#     Edge 11, Type (0, 1), BuildingBlock: OJICUG_clean_linker_0, # of connection points: 2
#     Edge 12, Type (0, 1), BuildingBlock: OJICUG_clean_linker_0, # of connection points: 2
#     Edge 13, Type (0, 1), BuildingBlock: OJICUG_clean_linker_0, # of connection points: 2
#     Edge 14, Type (0, 1), BuildingBlock: OJICUG_clean_linker_0, # of connection points: 2
#     Edge 15, Type (0, 1), BuildingBlock: OJICUG_clean_linker_0, # of connection points: 2
#     Edge 16, Type (0, 1), BuildingBlock: OJICUG_clean_linker_0, # of connection points: 2
#     Edge 17, Type (0, 1), BuildingBlock: OJICUG_clean_linker_0, # of connection points: 2
# Relax obj value: 0.037
# Max RMSD: 0.162
# Mean RMSD: 0.080
data_MOF--net-pth--node1-TATPOV_clean_sbu_0--node2-NAWXER_clean_linker_0--edge1-OJICUG_clean_linker_0
_symmetry_space_group_name_H-M    P1
_symmetry_Int_Tables_number       1
_symmetry_cell_setting            triclinic
loop_
_symmetry_equiv_pos_as_xyz
'x, y, z'
_cell_length_a     22.764436
_cell_length_b     22.665937
_cell_length_c     49.0584
_cell_angle_alpha  92.902376
_cell_angle_beta   92.186488
_cell_angle_gamma 120.68041
loop_
_atom_site_label
_atom_site_type_symbol
_atom_site_fract_x
_atom_site_fract_y
_atom_site_fract_z
_atom_type_partial_charge
Zn0 Zn 0.15534 0.00231 0.04061 0.0
Zn1 Zn 0.08987 0.06234 0.05983 0.0
O2 O 0.08696 -0.00124 0.08924 0.0
O3 O 0.151 0.95776 0.07542 0.0
O4 O 0.05887 0.12163 0.07881 0.0
O5 O 0.2384 0.08965 0.03194 0.0
O6 O 0.17942 0.13677 0.04512 0.0
C7 C 0.11329 0.96153 0.09287 0.0
C8 C 0.0237 0.96368 0.01066 0.0
O9 O 0.02022 0.00517 0.02812 0.0
O10 O 0.07436 0.9547 0.0121 0.0
C11 C 0.00367 0.10149 0.09053 0.0
O12 O 0.95876 0.03529 0.09006 0.0
C13 C 0.23231 0.14197 0.03488 0.0
Zn14 Zn 0.16658 0.11728 0.34788 0.0
Zn15 Zn 0.07082 0.0845 0.38355 0.0
O16 O 0.15591 0.10287 0.40722 0.0
O17 O 0.23437 0.12644 0.37794 0.0
O18 O 0.00514 0.07755 0.41122 0.0
O19 O 0.16153 0.19798 0.33576 0.0
O20 O 0.0729 0.15885 0.36073 0.0
C21 C 0.21605 0.11708 0.40216 0.0
C22 C 0.04461 0.97874 0.33843 0.0
O23 O 0.02624 -0.00781 0.36096 0.0
O24 O 0.09943 0.02335 0.3288 0.0
C25 C 0.96209 0.02371 0.42199 0.0
O26 O 0.95805 0.96486 0.41519 0.0
C27 C 0.10997 0.19963 0.34347 0.0
Zn28 Zn 0.10632 0.92238 0.74567 0.0
Zn29 Zn 0.04498 0.97932 0.71888 0.0
O30 O 0.10594 0.97094 0.69096 0.0
O31 O 0.15332 0.91994 0.71177 0.0
O32 O 0.98498 0.00234 0.69635 0.0
O33 O 0.01721 0.84037 0.75449 0.0
O34 O 0.97054 0.89453 0.73607 0.0
C35 C 0.14565 0.94675 0.69092 0.0
C36 C 0.14003 0.06121 0.76769 0.0
O37 O 0.10209 0.05914 0.74745 0.0
O38 O 0.14794 0.01051 0.77126 0.0
C39 C -0.00305 0.05939 0.68809 0.0
O40 O 0.0569 0.11517 0.69448 0.0
C41 C 0.96483 0.84453 0.74883 0.0
C42 C 0.95454 0.30821 0.26262 0.0
C43 C 0.0139 0.34556 0.28054 0.0
C44 C 0.93213 0.34279 0.24622 0.0
C45 C 0.96854 0.41494 0.2479 0.0
C46 C 0.04992 0.41763 0.28207 0.0
C47 C 0.02712 0.45194 0.26606 0.0
C48 C 0.94712 0.45421 0.23146 0.0
C49 C 0.02081 0.34936 0.17297 0.0
C50 C 0.9673 0.30167 0.15408 0.0
C51 C 0.01395 0.3982 0.1888 0.0
C52 C 0.95343 0.40018 0.1861 0.0
C53 C 0.90682 0.30402 0.15136 0.0
C54 C 0.90021 0.35329 0.16709 0.0
C55 C 0.94595 0.45186 0.20266 0.0
C56 C 0.04709 0.74048 0.18754 0.0
C57 C 0.01131 0.74104 0.16375 0.0
C58 C 0.02336 0.68026 0.20082 0.0
C59 C 0.96355 0.61931 0.19051 0.0
C60 C 0.95083 0.68036 0.15361 0.0
C61 C 0.92758 0.61958 0.16672 0.0
C62 C 0.94226 0.55523 0.20399 0.0
C63 C 0.89614 0.69056 0.25574 0.0
C64 C 0.93359 0.7142 0.2813 0.0
C65 C 0.89346 0.6357 0.24024 0.0
C66 C 0.9301 0.60525 0.24971 0.0
C67 C 0.96552 0.68018 0.29169 0.0
C68 C 0.96393 0.62633 0.27602 0.0
C69 C 0.93489 0.55246 0.23245 0.0
H70 H 0.92616 0.25246 0.26106 0.0
H71 H 0.88652 0.31348 0.23244 0.0
H72 H 0.09541 0.44748 0.29587 0.0
H73 H 0.05582 0.50773 0.26765 0.0
H74 H 0.06783 0.34855 0.17566 0.0
H75 H 0.056 0.43459 0.20311 0.0
H76 H 0.86507 0.26848 0.13676 0.0
H77 H 0.85335 0.35448 0.16459 0.0
H78 H 0.09389 0.7865 0.19568 0.0
H79 H 0.05266 0.68088 0.21888 0.0
H80 H 0.92292 0.67942 0.13505 0.0
H81 H 0.88182 0.5729 0.15831 0.0
H82 H 0.87065 0.7158 0.24745 0.0
H83 H 0.8643 0.61847 0.22058 0.0
H84 H -0.00471 0.69793 0.31124 0.0
H85 H -0.00805 0.60333 0.28404 0.0
N86 N 0.93972 0.5032 0.24511 0.0
N87 N 0.94499 0.5034 0.18993 0.0
C88 C 0.79416 0.09302 0.51412 0.0
C89 C 0.7729 0.03992 0.49318 0.0
C90 C 0.74606 0.09805 0.52941 0.0
C91 C 0.6759 0.04979 0.52414 0.0
C92 C 0.70258 -0.00798 0.48789 0.0
C93 C 0.6546 -0.00281 0.50311 0.0
C94 C 0.62377 0.05418 0.53975 0.0
C95 C 0.74854 0.00888 0.59876 0.0
C96 C 0.78539 0.06203 0.61961 0.0
C97 C 0.69633 0.00728 0.58227 0.0
C98 C 0.68039 0.05917 0.58609 0.0
C99 C 0.76882 0.11357 0.62357 0.0
C100 C 0.7164 0.11183 0.60706 0.0
C101 C 0.62551 0.05818 0.56862 0.0
C102 C 0.33834 0.9646 0.58916 0.0
C103 C 0.34519 0.00823 0.61193 0.0
C104 C 0.3942 0.98101 0.57368 0.0
C105 C 0.45802 0.04064 0.58105 0.0
C106 C 0.40848 0.06879 0.61887 0.0
C107 C 0.46482 0.08437 0.60376 0.0
C108 C 0.51851 0.05384 0.56639 0.0
C109 C 0.40271 0.11534 0.50979 0.0
C110 C 0.3832 0.08139 0.48341 0.0
C111 C 0.44523 0.10528 0.52787 0.0
C112 C 0.46775 0.05987 0.52009 0.0
C113 C 0.40484 0.03529 0.47581 0.0
C114 C 0.44669 0.0247 0.49394 0.0
C115 C 0.5191 0.05456 0.53765 0.0
H116 H 0.848 0.13061 0.51873 0.0
H117 H 0.76362 0.1399 0.54518 0.0
H118 H 0.68447 0.95128 0.47159 0.0
H119 H 0.60066 0.95976 0.49855 0.0
H120 H 0.76032 0.96865 0.59508 0.0
H121 H 0.66829 0.96538 0.56655 0.0
H122 H 0.7956 0.1546 0.6397 0.0
H123 H 0.70437 0.15198 0.61049 0.0
H124 H 0.29003 0.91746 0.58361 0.0
H125 H 0.3882 0.94596 0.55649 0.0
H126 H 0.41489 0.1027 0.63657 0.0
H127 H 0.51379 0.13021 0.6099 0.0
H128 H 0.38741 0.15179 0.51603 0.0
H129 H 0.46265 0.13526 0.54745 0.0
H130 H 0.3899 0.00786 0.45568 0.0
H131 H 0.46358 -0.01023 0.48733 0.0
N132 N 0.57109 0.05335 0.52544 0.0
N133 N 0.5724 0.05712 0.58086 0.0
C134 C 0.3661 0.30522 0.85531 0.0
C135 C 0.31553 0.30681 0.83842 0.0
C136 C 0.41828 0.36512 0.86968 0.0
C137 C 0.42139 0.42795 0.86731 0.0
C138 C 0.31791 0.36986 0.8368 0.0
C139 C 0.37093 0.43005 0.85086 0.0
C140 C 0.48117 0.49216 0.87965 0.0
C141 C 0.35594 0.37901 0.94911 0.0
C142 C 0.39272 0.36406 0.96851 0.0
C143 C 0.38997 0.42476 0.9293 0.0
C144 C 0.46123 0.45586 0.9285 0.0
C145 C 0.46412 0.39661 0.96801 0.0
C146 C 0.49793 0.44206 0.94828 0.0
C147 C 0.49962 0.50475 0.90806 0.0
C148 C 0.75159 0.78757 0.91993 0.0
C149 C 0.79019 0.77418 0.93894 0.0
C150 C 0.69118 0.7331 0.90659 0.0
C151 C 0.66847 0.66511 0.91259 0.0
C152 C 0.76753 0.70609 0.94461 0.0
C153 C 0.7069 0.65215 0.93175 0.0
C154 C 0.60339 0.60679 0.90011 0.0
C155 C 0.75106 0.66506 0.83566 0.0
C156 C 0.73434 0.68655 0.81171 0.0
C157 C 0.70342 0.63507 0.85507 0.0
C158 C 0.63833 0.62742 0.85148 0.0
C159 C 0.66854 0.67752 0.80779 0.0
C160 C 0.62082 0.64781 0.82745 0.0
C161 C 0.58708 0.59218 0.87161 0.0
H162 H 0.36725 0.2583 0.85664 0.0
H163 H 0.45777 0.36288 0.88182 0.0
H164 H 0.27943 0.37304 0.82439 0.0
H165 H 0.373 0.47839 0.84868 0.0
H166 H 0.30075 0.35433 0.94889 0.0
H167 H 0.36066 0.43592 0.91476 0.0
H168 H 0.49397 0.38691 0.98288 0.0
H169 H 0.55305 0.46587 0.94828 0.0
H170 H 0.76828 0.83988 0.91538 0.0
H171 H 0.66162 0.74402 0.89206 0.0
H172 H 0.79613 0.69472 0.95945 0.0
H173 H 0.69008 0.60004 0.93669 0.0
H174 H 0.80138 0.67191 0.83964 0.0
H175 H 0.71741 0.6169 0.87275 0.0
H176 H 0.65366 0.69269 0.78942 0.0
H177 H 0.57029 0.6408 0.82392 0.0
N178 N 0.52581 0.53606 0.86246 0.0
N179 N 0.55958 0.56211 0.9171 0.0
C180 C 0.04504 0.22231 0.10915 0.0
C181 C -0.00736 0.15265 0.1059 0.0
H182 H 0.0779 0.32368 0.12673 0.0
C183 C 0.93094 0.13256 0.1181 0.0
H184 H 0.09321 0.23971 0.10002 0.0
C185 C 0.9222 0.18101 0.13343 0.0
C186 C 0.97521 0.25037 0.13707 0.0
H187 H 0.88958 0.07935 0.11599 0.0
H188 H 0.87453 0.16394 0.14293 0.0
C189 C 0.0365 0.27047 0.12462 0.0
C190 C 0.86279 0.96796 0.4514 0.0
C191 C 0.9155 0.02766 0.44128 0.0
H192 H 0.77678 0.92508 0.476 0.0
C193 C 0.92245 0.09156 0.44922 0.0
H194 H 0.85617 0.91799 0.44576 0.0
C195 C 0.87703 0.09558 0.46648 0.0
C196 C 0.82344 0.0358 0.47615 0.0
H197 H 0.96253 0.13864 0.44183 0.0
H198 H 0.88283 0.1454 0.47164 0.0
C199 C 0.81713 0.97198 0.46861 0.0
C200 C 0.8497 0.81572 0.76352 0.0
C201 C 0.89943 0.79709 0.76038 0.0
H202 H 0.75923 0.79626 0.78262 0.0
C203 C 0.88965 0.73697 0.77134 0.0
H204 H 0.85581 0.86188 0.75534 0.0
C205 C 0.83365 0.69871 0.78661 0.0
C206 C 0.78676 0.72032 0.79164 0.0
H207 H 0.9266 0.72078 0.76897 0.0
H208 H 0.82842 0.65338 0.79526 0.0
C209 C 0.79412 0.77793 0.77912 0.0
C210 C 0.02526 0.88599 0.12383 0.0
C211 C 0.09157 0.91399 0.11483 0.0
H212 H 0.9472 0.80794 0.14608 0.0
C213 C 0.1329 0.88838 0.12392 0.0
H214 H -0.008 0.90422 0.11689 0.0
C215 C 0.10755 0.83406 0.1408 0.0
C216 C 0.03992 0.80338 0.14845 0.0
H217 H 0.18407 0.90882 0.11721 0.0
H218 H 0.13977 0.81388 0.14682 0.0
C219 C -0.00065 0.83053 0.14025 0.0
C220 C 0.24328 0.10492 0.45096 0.0
C221 C 0.26213 0.11543 0.42386 0.0
H222 H 0.26698 0.08585 0.49114 0.0
C223 C 0.32305 0.11857 0.41706 0.0
H224 H 0.19665 0.10222 0.45686 0.0
C225 C 0.36266 0.10855 0.43656 0.0
C226 C 0.34269 0.09578 0.46337 0.0
H227 H 0.33926 0.12669 0.39642 0.0
H228 H 0.40878 0.11021 0.43058 0.0
C229 C 0.28345 0.09555 0.47058 0.0
C230 C 0.19891 0.18885 0.77755 0.0
C231 C 0.17786 0.12372 0.78663 0.0
H232 H 0.26048 0.29775 0.78637 0.0
C233 C 0.19717 0.11894 0.81356 0.0
H234 H 0.18493 0.19392 0.75681 0.0
C235 C 0.23883 0.17826 0.83082 0.0
C236 C 0.2636 0.24385 0.82132 0.0
H237 H 0.18074 0.06922 0.82121 0.0
H238 H 0.25267 0.17254 0.85146 0.0
C239 C 0.24193 0.24836 0.79462 0.0
C240 C 0.88003 0.00044 0.66392 0.0
C241 C 0.94308 0.06142 0.67094 0.0
H242 H 0.78098 0.95313 0.64262 0.0
C243 C 0.95371 0.1232 0.66126 0.0
H244 H 0.86982 0.9519 0.67111 0.0
C245 C 0.90242 0.12374 0.64474 0.0
C246 C 0.83972 0.06247 0.63752 0.0
H247 H 0.00168 0.17103 0.66629 0.0
H248 H 0.91227 0.17187 0.63725 0.0
C249 C 0.82908 0.00097 0.64743 0.0
C250 C 0.90844 0.92801 0.9878 0.0
C251 C 0.96703 0.92211 0.98956 0.0
H252 H 0.80601 0.88562 0.96977 0.0
C253 C 0.96946 0.87251 0.97201 0.0
H254 H 0.90522 0.96601 1.00091 0.0
C255 C 0.913 0.82686 0.95441 0.0
C256 C 0.85322 0.83026 0.95377 0.0
H257 H 0.01399 0.86693 0.9726 0.0
H258 H 0.9151 0.78718 0.94197 0.0
C259 C 0.85193 0.88246 0.9699 0.0
C260 C 0.97052 0.85083 0.33774 0.0
C261 C 0.0044 0.91031 0.32357 0.0
H262 H 0.92107 0.74065 0.33518 0.0
C263 C 0.00568 0.9039 0.29502 0.0
H264 H 0.96896 0.85463 0.35977 0.0
C265 C 0.97733 0.8392 0.28101 0.0
C266 C 0.94829 0.77987 0.29538 0.0
H267 H 0.03103 0.94911 0.28364 0.0
H268 H 0.98237 0.83592 0.25919 0.0
C269 C 0.94331 0.7859 0.32374 0.0
C270 C 0.21125 0.01516 0.65294 0.0
C271 C 0.18915 0.95708 0.66795 0.0
H272 H 0.2795 0.07764 0.62365 0.0
C273 C 0.21497 0.91333 0.66277 0.0
H274 H 0.19268 0.05012 0.6567 0.0
C275 C 0.26345 0.92843 0.64353 0.0
C276 C 0.28808 0.98836 0.62965 0.0
H277 H 0.19886 0.86831 0.67407 0.0
H278 H 0.28393 0.89491 0.64036 0.0
C279 C 0.26107 0.03118 0.63421 0.0
C280 C 0.33736 0.21018 0.00998 0.0
C281 C 0.28029 0.20529 0.02213 0.0
H282 H 0.41679 0.26346 0.98323 0.0
C283 C 0.26426 0.25682 0.01854 0.0
H284 H 0.35111 0.17136 0.0123 0.0
C285 C 0.30193 0.30966 1.00175 0.0
C286 C 0.35664 0.31228 0.98842 0.0
H287 H 0.22062 0.25461 0.02762 0.0
H288 H 0.28733 0.34761 0.99874 0.0
C289 C 0.37509 0.26307 0.99331 0.0
C290 C 0.01891 0.2253 0.32996 0.0
C291 C 0.08741 0.24179 0.32963 0.0
H292 H 0.94163 0.24459 0.31418 0.0
C293 C 0.13187 0.29397 0.31363 0.0
H294 H 0.98322 0.1849 0.3419 0.0
C295 C 0.108 0.32811 0.2979 0.0
C296 C 0.03905 0.31002 0.29758 0.0
H297 H 0.1848 0.30758 0.31287 0.0
H298 H 0.14305 0.36757 0.28545 0.0
C299 C -0.00519 0.25874 0.31388 0.0
loop_
_geom_bond_atom_site_label_1
_geom_bond_atom_site_label_2
_geom_bond_distance
_geom_bond_site_symmetry_2
_ccdc_geom_bond_type
Zn0 O3 2.031 . S
Zn0 O5 2.049 1_564 S
Zn0 O10 2.067 . S
Zn1 O2 1.962 . S
Zn1 O4 1.986 . S
Zn1 O6 1.996 . S
Zn1 O9 1.943 . S
O2 Zn1 1.962 . S
O2 C7 1.254 1_545 S
O3 Zn0 2.031 . S
O3 C7 1.269 . S
O4 Zn1 1.986 . S
O4 C11 1.262 . S
O5 Zn0 2.049 1_546 S
O5 C13 1.260 1_556 S
O6 Zn1 1.996 . S
O6 C13 1.257 . S
C7 O2 1.254 1_565 S
C7 O3 1.269 . S
C8 O9 1.249 1_665 S
C8 O10 1.270 1_655 S
O9 Zn1 1.943 . S
O9 C8 1.249 1_445 S
O10 Zn0 2.067 . S
O10 C8 1.270 1_455 S
C11 O4 1.262 . S
C11 O12 1.232 . S
O12 C11 1.232 . S
C13 O5 1.260 1_554 S
C13 O6 1.257 . S
Zn14 O17 2.031 . S
Zn14 O19 2.049 . S
Zn14 O24 2.067 . S
Zn15 O16 1.962 . S
Zn15 O18 1.986 1_455 S
Zn15 O20 1.996 . S
Zn15 O23 1.943 1_445 S
O16 Zn15 1.962 . S
O16 C21 1.254 . S
O17 Zn14 2.031 . S
O17 C21 1.269 . S
O18 Zn15 1.986 1_655 S
O18 C25 1.262 . S
O19 Zn14 2.049 . S
O19 C27 1.260 . S
O20 Zn15 1.996 . S
O20 C27 1.257 . S
C21 O16 1.254 . S
C21 O17 1.269 . S
C22 O23 1.249 1_455 S
C22 O24 1.270 1_565 S
O23 Zn15 1.943 1_665 S
O23 C22 1.249 1_655 S
O24 Zn14 2.067 . S
O24 C22 1.270 1_545 S
C25 O18 1.262 . S
C25 O26 1.232 . S
O26 C25 1.232 . S
C27 O19 1.260 . S
C27 O20 1.257 . S
Zn28 O31 2.031 1_565 S
Zn28 O33 2.049 . S
Zn28 O38 2.067 1_565 S
Zn29 O30 1.962 1_545 S
Zn29 O32 1.992 1_445 S
Zn29 O34 1.996 1_445 S
Zn29 O37 1.943 . S
O30 Zn29 1.962 1_565 S
O30 C35 1.254 . S
O31 Zn28 2.031 1_545 S
O31 C35 1.269 1_545 S
O32 Zn29 1.992 1_665 S
O32 C39 1.251 1_565 S
O33 Zn28 2.049 . S
O33 C41 1.260 1_455 S
O34 Zn29 1.996 1_665 S
O34 C41 1.257 . S
C35 O30 1.254 . S
C35 O31 1.269 1_565 S
C36 O37 1.249 . S
C36 O38 1.270 . S
O37 Zn29 1.943 . S
O37 C36 1.249 . S
O38 Zn28 2.067 1_545 S
O38 C36 1.270 . S
C39 O32 1.251 1_545 S
C39 O40 1.232 1_655 S
O40 C39 1.232 1_455 S
C41 O33 1.260 1_655 S
C41 O34 1.257 . S
C42 C43 1.384 . S
C42 C44 1.384 . S
C42 H70 0.931 1_455 S
C43 C42 1.384 . S
C43 C46 1.382 . S
C44 C42 1.384 . S
C44 C45 1.381 . S
C44 H71 0.930 1_455 S
C45 C44 1.381 . S
C45 C47 1.381 . S
C45 C48 1.487 . S
C46 C43 1.382 . S
C46 C47 1.387 . S
C46 H72 0.930 . S
C47 C45 1.381 . S
C47 C46 1.387 . S
C47 H73 0.931 . S
C48 C45 1.487 . S
C48 C55 1.399 . S
C48 N86 1.343 . S
C49 C50 1.384 . S
C49 C51 1.384 . S
C49 H74 0.931 . S
C50 C49 1.384 . S
C50 C53 1.382 . S
C51 C49 1.384 . S
C51 C52 1.381 . S
C51 H75 0.930 . S
C52 C51 1.381 . S
C52 C54 1.381 . S
C52 C55 1.487 . S
C53 C50 1.382 . S
C53 C54 1.387 . S
C53 H76 0.930 1_455 S
C54 C52 1.381 . S
C54 C53 1.387 . S
C54 H77 0.931 1_455 S
C55 C48 1.399 . S
C55 C52 1.487 . S
C55 N87 1.343 . S
C56 C57 1.384 . S
C56 C58 1.384 . S
C56 H78 0.931 . S
C57 C56 1.384 . S
C57 C60 1.382 . S
C58 C56 1.384 . S
C58 C59 1.381 . S
C58 H79 0.930 . S
C59 C58 1.381 . S
C59 C61 1.381 . S
C59 C62 1.487 . S
C60 C57 1.382 . S
C60 C61 1.387 . S
C60 H80 0.930 1_455 S
C61 C59 1.381 . S
C61 C60 1.387 . S
C61 H81 0.931 1_455 S
C62 C59 1.487 . S
C62 C69 1.399 . S
C62 N87 1.343 . S
C63 C64 1.384 . S
C63 C65 1.384 . S
C63 H82 0.931 1_455 S
C64 C63 1.384 . S
C64 C67 1.382 . S
C65 C63 1.384 . S
C65 C66 1.381 . S
C65 H83 0.930 1_455 S
C66 C65 1.381 . S
C66 C68 1.381 . S
C66 C69 1.487 . S
C67 C64 1.382 . S
C67 C68 1.387 . S
C67 H84 0.930 . S
C68 C66 1.381 . S
C68 C67 1.387 . S
C68 H85 0.931 . S
C69 C62 1.399 . S
C69 C66 1.487 . S
C69 N86 1.343 . S
H70 C42 0.931 1_655 S
H71 C44 0.930 1_655 S
H72 C46 0.930 . S
H73 C47 0.931 . S
H74 C49 0.931 . S
H75 C51 0.930 . S
H76 C53 0.930 1_655 S
H77 C54 0.931 1_655 S
H78 C56 0.931 . S
H79 C58 0.930 . S
H80 C60 0.930 1_655 S
H81 C61 0.931 1_655 S
H82 C63 0.931 1_655 S
H83 C65 0.930 1_655 S
H84 C67 0.930 . S
H85 C68 0.931 . S
N86 C48 1.343 . S
N86 C69 1.343 . S
N87 C55 1.343 . S
N87 C62 1.343 . S
C88 C89 1.384 . S
C88 C90 1.384 . S
C88 H116 0.931 . S
C89 C88 1.384 . S
C89 C92 1.382 . S
C90 C88 1.384 . S
C90 C91 1.381 . S
C90 H117 0.930 . S
C91 C90 1.381 . S
C91 C93 1.380 . S
C91 C94 1.487 . S
C92 C89 1.382 . S
C92 C93 1.388 . S
C92 H118 0.930 1_545 S
C93 C91 1.380 . S
C93 C92 1.388 . S
C93 H119 0.931 1_545 S
C94 C91 1.487 . S
C94 C101 1.399 . S
C94 N132 1.343 . S
C95 C96 1.384 1_565 S
C95 C97 1.384 . S
C95 H120 0.931 . S
C96 C95 1.384 1_545 S
C96 C99 1.382 . S
C97 C95 1.384 . S
C97 C98 1.381 1_565 S
C97 H121 0.930 . S
C98 C97 1.381 1_545 S
C98 C100 1.381 . S
C98 C101 1.487 . S
C99 C96 1.382 . S
C99 C100 1.387 . S
C99 H122 0.930 . S
C100 C98 1.381 . S
C100 C99 1.387 . S
C100 H123 0.931 . S
C101 C94 1.399 . S
C101 C98 1.487 . S
C101 N133 1.343 . S
C102 C103 1.384 1_565 S
C102 C104 1.384 . S
C102 H124 0.931 . S
C103 C102 1.384 1_545 S
C103 C106 1.382 . S
C104 C102 1.384 . S
C104 C105 1.381 1_565 S
C104 H125 0.930 . S
C105 C104 1.381 1_545 S
C105 C107 1.381 . S
C105 C108 1.487 . S
C106 C103 1.382 . S
C106 C107 1.387 . S
C106 H126 0.930 . S
C107 C105 1.381 . S
C107 C106 1.387 . S
C107 H127 0.931 . S
C108 C105 1.487 . S
C108 C115 1.399 . S
C108 N133 1.343 . S
C109 C110 1.384 . S
C109 C111 1.384 . S
C109 H128 0.931 . S
C110 C109 1.384 . S
C110 C113 1.382 . S
C111 C109 1.384 . S
C111 C112 1.381 . S
C111 H129 0.930 . S
C112 C111 1.381 . S
C112 C114 1.380 . S
C112 C115 1.487 . S
C113 C110 1.382 . S
C113 C114 1.387 . S
C113 H130 0.930 1_545 S
C114 C112 1.380 . S
C114 C113 1.387 . S
C114 H131 0.933 1_545 S
C115 C108 1.399 . S
C115 C112 1.487 . S
C115 N132 1.343 . S
H116 C88 0.931 . S
H117 C90 0.930 . S
H118 C92 0.930 1_565 S
H119 C93 0.931 1_565 S
H120 C95 0.931 . S
H121 C97 0.930 . S
H122 C99 0.930 . S
H123 C100 0.931 . S
H124 C102 0.931 . S
H125 C104 0.930 . S
H126 C106 0.930 . S
H127 C107 0.931 . S
H128 C109 0.931 . S
H129 C111 0.930 . S
H130 C113 0.930 1_565 S
H131 C114 0.933 1_565 S
N132 C94 1.343 . S
N132 C115 1.343 . S
N133 C101 1.343 . S
N133 C108 1.343 . S
C134 C135 1.384 . S
C134 C136 1.384 . S
C134 H162 0.931 . S
C135 C134 1.384 . S
C135 C138 1.382 . S
C136 C134 1.384 . S
C136 C137 1.381 . S
C136 H163 0.930 . S
C137 C136 1.381 . S
C137 C139 1.381 . S
C137 C140 1.487 . S
C138 C135 1.382 . S
C138 C139 1.387 . S
C138 H164 0.930 . S
C139 C137 1.381 . S
C139 C138 1.387 . S
C139 H165 0.931 . S
C140 C137 1.487 . S
C140 C147 1.399 . S
C140 N178 1.343 . S
C141 C142 1.384 . S
C141 C143 1.384 . S
C141 H166 0.931 . S
C142 C141 1.384 . S
C142 C145 1.382 . S
C143 C141 1.384 . S
C143 C144 1.381 . S
C143 H167 0.930 . S
C144 C143 1.381 . S
C144 C146 1.381 . S
C144 C147 1.487 . S
C145 C142 1.382 . S
C145 C146 1.387 . S
C145 H168 0.930 . S
C146 C144 1.381 . S
C146 C145 1.387 . S
C146 H169 0.931 . S
C147 C140 1.399 . S
C147 C144 1.487 . S
C147 N179 1.343 . S
C148 C149 1.384 . S
C148 C150 1.384 . S
C148 H170 0.931 . S
C149 C148 1.384 . S
C149 C152 1.382 . S
C150 C148 1.384 . S
C150 C151 1.381 . S
C150 H171 0.930 . S
C151 C150 1.381 . S
C151 C153 1.381 . S
C151 C154 1.487 . S
C152 C149 1.382 . S
C152 C153 1.387 . S
C152 H172 0.930 . S
C153 C151 1.381 . S
C153 C152 1.387 . S
C153 H173 0.931 . S
C154 C151 1.487 . S
C154 C161 1.399 . S
C154 N179 1.343 . S
C155 C156 1.384 . S
C155 C157 1.384 . S
C155 H174 0.931 . S
C156 C155 1.384 . S
C156 C159 1.382 . S
C157 C155 1.384 . S
C157 C158 1.381 . S
C157 H175 0.930 . S
C158 C157 1.381 . S
C158 C160 1.381 . S
C158 C161 1.487 . S
C159 C156 1.382 . S
C159 C160 1.387 . S
C159 H176 0.930 . S
C160 C158 1.381 . S
C160 C159 1.387 . S
C160 H177 0.931 . S
C161 C154 1.399 . S
C161 C158 1.487 . S
C161 N178 1.343 . S
H162 C134 0.931 . S
H163 C136 0.930 . S
H164 C138 0.930 . S
H165 C139 0.931 . S
H166 C141 0.931 . S
H167 C143 0.930 . S
H168 C145 0.930 . S
H169 C146 0.931 . S
H170 C148 0.931 . S
H171 C150 0.930 . S
H172 C152 0.930 . S
H173 C153 0.931 . S
H174 C155 0.931 . S
H175 C157 0.930 . S
H176 C159 0.930 . S
H177 C160 0.931 . S
N178 C140 1.343 . S
N178 C161 1.343 . S
N179 C147 1.343 . S
N179 C154 1.343 . S
C180 C181 1.387 . S
C180 H184 0.950 . S
C180 C189 1.390 . S
C181 C180 1.387 . S
C181 C183 1.387 1_455 S
H182 C189 0.950 . S
C183 C181 1.387 1_655 S
C183 C185 1.390 1_655 S
C183 H187 0.950 . S
H184 C180 0.950 . S
C185 C183 1.390 1_455 S
C185 C186 1.387 . S
C185 H188 0.950 1_455 S
C186 C185 1.387 . S
C186 C189 1.387 . S
H187 C183 0.950 . S
H188 C185 0.950 1_655 S
C189 C180 1.390 . S
C189 H182 0.950 . S
C189 C186 1.387 . S
C190 C191 1.387 1_565 S
C190 H194 0.950 . S
C190 C199 1.390 . S
C191 C190 1.387 1_545 S
C191 C193 1.387 . S
H192 C199 0.950 . S
C193 C191 1.387 . S
C193 C195 1.390 . S
C193 H197 0.950 . S
H194 C190 0.950 . S
C195 C193 1.390 . S
C195 C196 1.387 . S
C195 H198 0.950 . S
C196 C195 1.387 . S
C196 C199 1.387 1_545 S
H197 C193 0.950 . S
H198 C195 0.950 . S
C199 C190 1.390 . S
C199 H192 0.950 . S
C199 C196 1.387 1_565 S
C200 C201 1.387 . S
C200 H204 0.950 . S
C200 C209 1.390 . S
C201 C200 1.387 . S
C201 C203 1.387 . S
H202 C209 0.950 . S
C203 C201 1.387 . S
C203 C205 1.390 . S
C203 H207 0.950 . S
H204 C200 0.950 . S
C205 C203 1.390 . S
C205 C206 1.387 . S
C205 H208 0.950 . S
C206 C205 1.387 . S
C206 C209 1.387 . S
H207 C203 0.950 . S
H208 C205 0.950 . S
C209 C200 1.390 . S
C209 H202 0.950 . S
C209 C206 1.387 . S
C210 C211 1.387 . S
C210 H214 0.950 1_455 S
C210 C219 1.390 . S
C211 C210 1.387 . S
C211 C213 1.387 . S
H212 C219 0.950 1_655 S
C213 C211 1.387 . S
C213 C215 1.390 . S
C213 H217 0.950 . S
H214 C210 0.950 1_655 S
C215 C213 1.390 . S
C215 C216 1.387 . S
C215 H218 0.950 . S
C216 C215 1.387 . S
C216 C219 1.387 . S
H217 C213 0.950 . S
H218 C215 0.950 . S
C219 C210 1.390 . S
C219 H212 0.950 1_455 S
C219 C216 1.387 . S
C220 C221 1.387 . S
C220 H224 0.950 . S
C220 C229 1.390 . S
C221 C220 1.387 . S
C221 C223 1.387 . S
H222 C229 0.950 . S
C223 C221 1.387 . S
C223 C225 1.390 . S
C223 H227 0.950 . S
H224 C220 0.950 . S
C225 C223 1.390 . S
C225 C226 1.387 . S
C225 H228 0.950 . S
C226 C225 1.387 . S
C226 C229 1.387 . S
H227 C223 0.950 . S
H228 C225 0.950 . S
C229 C220 1.390 . S
C229 H222 0.950 . S
C229 C226 1.387 . S
C230 C231 1.387 . S
C230 H234 0.950 . S
C230 C239 1.390 . S
C231 C230 1.387 . S
C231 C233 1.387 . S
H232 C239 0.950 . S
C233 C231 1.387 . S
C233 C235 1.390 . S
C233 H237 0.950 . S
H234 C230 0.950 . S
C235 C233 1.390 . S
C235 C236 1.387 . S
C235 H238 0.950 . S
C236 C235 1.387 . S
C236 C239 1.387 . S
H237 C233 0.950 . S
H238 C235 0.950 . S
C239 C230 1.390 . S
C239 H232 0.950 . S
C239 C236 1.387 . S
C240 C241 1.387 1_565 S
C240 H244 0.950 . S
C240 C249 1.390 . S
C241 C240 1.387 1_545 S
C241 C243 1.387 . S
H242 C249 0.950 . S
C243 C241 1.387 . S
C243 C245 1.390 . S
C243 H247 0.950 . S
H244 C240 0.950 . S
C245 C243 1.390 . S
C245 C246 1.387 . S
C245 H248 0.950 . S
C246 C245 1.387 . S
C246 C249 1.387 1_545 S
H247 C243 0.950 . S
H248 C245 0.950 . S
C249 C240 1.390 . S
C249 H242 0.950 . S
C249 C246 1.387 1_565 S
C250 C251 1.387 1_556 S
C250 H254 0.950 . S
C250 C259 1.390 . S
C251 C250 1.387 1_554 S
C251 C253 1.387 . S
H252 C259 0.950 . S
C253 C251 1.387 . S
C253 C255 1.390 1_554 S
C253 H257 0.950 . S
H254 C250 0.950 . S
C255 C253 1.390 1_556 S
C255 C256 1.387 . S
C255 H258 0.950 . S
C256 C255 1.387 . S
C256 C259 1.387 . S
H257 C253 0.950 . S
H258 C255 0.950 . S
C259 C250 1.390 . S
C259 H252 0.950 . S
C259 C256 1.387 . S
C260 C261 1.387 . S
C260 H264 0.950 1_455 S
C260 C269 1.390 . S
C261 C260 1.387 . S
C261 C263 1.387 . S
H262 C269 0.950 . S
C263 C261 1.387 . S
C263 C265 1.390 . S
C263 H267 0.950 . S
H264 C260 0.950 1_655 S
C265 C263 1.390 . S
C265 C266 1.387 . S
C265 H268 0.950 . S
C266 C265 1.387 . S
C266 C269 1.387 . S
H267 C263 0.950 . S
H268 C265 0.950 . S
C269 C260 1.390 . S
C269 H262 0.950 . S
C269 C266 1.387 . S
C270 C271 1.387 . S
C270 H274 0.950 . S
C270 C279 1.390 . S
C271 C270 1.387 . S
C271 C273 1.387 1_545 S
H272 C279 0.950 . S
C273 C271 1.387 1_565 S
C273 C275 1.390 . S
C273 H277 0.950 . S
H274 C270 0.950 . S
C275 C273 1.390 . S
C275 C276 1.387 1_565 S
C275 H278 0.950 . S
C276 C275 1.387 1_545 S
C276 C279 1.387 . S
H277 C273 0.950 . S
H278 C275 0.950 . S
C279 C270 1.390 . S
C279 H272 0.950 . S
C279 C276 1.387 . S
C280 C281 1.396 . S
C280 H284 0.950 . S
C280 C289 1.390 . S
C281 C280 1.396 . S
C281 C283 1.388 . S
H282 C289 0.950 . S
C283 C281 1.388 . S
C283 C285 1.398 . S
C283 H287 0.943 1_556 S
H284 C280 0.950 . S
C285 C283 1.398 . S
C285 C286 1.387 . S
C285 H288 0.950 . S
C286 C285 1.387 . S
C286 C289 1.387 . S
H287 C283 0.943 1_554 S
H288 C285 0.950 . S
C289 C280 1.390 . S
C289 H282 0.950 . S
C289 C286 1.387 . S
C290 C291 1.387 1_655 S
C290 H294 0.950 . S
C290 C299 1.390 . S
C291 C290 1.387 1_455 S
C291 C293 1.387 . S
H292 C299 0.950 . S
C293 C291 1.387 . S
C293 C295 1.390 . S
C293 H297 0.950 . S
H294 C290 0.950 . S
C295 C293 1.390 . S
C295 C296 1.387 . S
C295 H298 0.950 . S
C296 C295 1.387 . S
C296 C299 1.387 1_455 S
H297 C293 0.950 . S
H298 C295 0.950 . S
C299 C290 1.390 . S
C299 H292 0.950 . S
C299 C296 1.387 1_655 S
C186 C50 1.372 . S
C181 C11 1.354 . S
C191 C25 1.416 . S
C196 C89 1.433 . S
C201 C41 1.395 . S
C206 C156 1.460 . S
C211 C7 1.399 . S
C216 C57 1.403 . S
C226 C110 1.460 . S
C221 C21 1.453 . S
C231 C36 1.420 . S
C236 C135 1.493 . S
C246 C96 1.425 . S
C241 C39 1.408 . S
C251 C8 1.421 . S
C256 C149 1.499 . S
C266 C64 1.527 . S
C261 C22 1.453 . S
C276 C103 1.452 . S
C271 C35 1.446 1_545 S
C286 C142 1.458 . S
C281 C13 1.382 1_556 S
C291 C27 1.461 . S
C296 C43 1.496 . S
