# Generated by pormake.
# Topology ssb, (4,4)-cn, num edge types: 1
# Building blocks:
#     Node 0, Type 0, BuildingBlock: NAWXER_clean_linker_0, # of connection points: 4
#     Node 1, Type 0, BuildingBlock: NAWXER_clean_linker_0, # of connection points: 4
#     Node 2, Type 0, BuildingBlock: NAWXER_clean_linker_0, # of connection points: 4
#     Node 3, Type 0, BuildingBlock: NAWXER_clean_linker_0, # of connection points: 4
#     Node 4, Type 0, BuildingBlock: NAWXER_clean_linker_0, # of connection points: 4
#     Node 5, Type 0, BuildingBlock: NAWXER_clean_linker_0, # of connection points: 4
#     Node 6, Type 0, BuildingBlock: NAWXER_clean_linker_0, # of connection points: 4
#     Node 7, Type 0, BuildingBlock: NAWXER_clean_linker_0, # of connection points: 4
#     Node 8, Type 1, BuildingBlock: NAWXER_clean_sbu_0, # of connection points: 4
#     Node 9, Type 1, BuildingBlock: NAWXER_clean_sbu_0, # of connection points: 4
#     Node 10, Type 1, BuildingBlock: NAWXER_clean_sbu_0, # of connection points: 4
#     Node 11, Type 1, BuildingBlock: NAWXER_clean_sbu_0, # of connection points: 4
#     Node 12, Type 1, BuildingBlock: NAWXER_clean_sbu_0, # of connection points: 4
#     Node 13, Type 1, BuildingBlock: NAWXER_clean_sbu_0, # of connection points: 4
#     Node 14, Type 1, BuildingBlock: NAWXER_clean_sbu_0, # of connection points: 4
#     Node 15, Type 1, BuildingBlock: NAWXER_clean_sbu_0, # of connection points: 4
#     Edge 16, Type (0, 1), BuildingBlock: AJUNOK_clean_linker_0, # of connection points: 2
#     Edge 17, Type (0, 1), BuildingBlock: AJUNOK_clean_linker_0, # of connection points: 2
#     Edge 18, Type (0, 1), BuildingBlock: AJUNOK_clean_linker_0, # of connection points: 2
#     Edge 19, Type (0, 1), BuildingBlock: AJUNOK_clean_linker_0, # of connection points: 2
#     Edge 20, Type (0, 1), BuildingBlock: AJUNOK_clean_linker_0, # of connection points: 2
#     Edge 21, Type (0, 1), BuildingBlock: AJUNOK_clean_linker_0, # of connection points: 2
#     Edge 22, Type (0, 1), BuildingBlock: AJUNOK_clean_linker_0, # of connection points: 2
#     Edge 23, Type (0, 1), BuildingBlock: AJUNOK_clean_linker_0, # of connection points: 2
#     Edge 24, Type (0, 1), BuildingBlock: AJUNOK_clean_linker_0, # of connection points: 2
#     Edge 25, Type (0, 1), BuildingBlock: AJUNOK_clean_linker_0, # of connection points: 2
#     Edge 26, Type (0, 1), BuildingBlock: AJUNOK_clean_linker_0, # of connection points: 2
#     Edge 27, Type (0, 1), BuildingBlock: AJUNOK_clean_linker_0, # of connection points: 2
#     Edge 28, Type (0, 1), BuildingBlock: AJUNOK_clean_linker_0, # of connection points: 2
#     Edge 29, Type (0, 1), BuildingBlock: AJUNOK_clean_linker_0, # of connection points: 2
#     Edge 30, Type (0, 1), BuildingBlock: AJUNOK_clean_linker_0, # of connection points: 2
#     Edge 31, Type (0, 1), BuildingBlock: AJUNOK_clean_linker_0, # of connection points: 2
#     Edge 32, Type (0, 1), BuildingBlock: AJUNOK_clean_linker_0, # of connection points: 2
#     Edge 33, Type (0, 1), BuildingBlock: AJUNOK_clean_linker_0, # of connection points: 2
#     Edge 34, Type (0, 1), BuildingBlock: AJUNOK_clean_linker_0, # of connection points: 2
#     Edge 35, Type (0, 1), BuildingBlock: AJUNOK_clean_linker_0, # of connection points: 2
#     Edge 36, Type (0, 1), BuildingBlock: AJUNOK_clean_linker_0, # of connection points: 2
#     Edge 37, Type (0, 1), BuildingBlock: AJUNOK_clean_linker_0, # of connection points: 2
#     Edge 38, Type (0, 1), BuildingBlock: AJUNOK_clean_linker_0, # of connection points: 2
#     Edge 39, Type (0, 1), BuildingBlock: AJUNOK_clean_linker_0, # of connection points: 2
#     Edge 40, Type (0, 1), BuildingBlock: AJUNOK_clean_linker_0, # of connection points: 2
#     Edge 41, Type (0, 1), BuildingBlock: AJUNOK_clean_linker_0, # of connection points: 2
#     Edge 42, Type (0, 1), BuildingBlock: AJUNOK_clean_linker_0, # of connection points: 2
#     Edge 43, Type (0, 1), BuildingBlock: AJUNOK_clean_linker_0, # of connection points: 2
#     Edge 44, Type (0, 1), BuildingBlock: AJUNOK_clean_linker_0, # of connection points: 2
#     Edge 45, Type (0, 1), BuildingBlock: AJUNOK_clean_linker_0, # of connection points: 2
#     Edge 46, Type (0, 1), BuildingBlock: AJUNOK_clean_linker_0, # of connection points: 2
#     Edge 47, Type (0, 1), BuildingBlock: AJUNOK_clean_linker_0, # of connection points: 2
# Relax obj value: 0.000
# Max RMSD: 0.001
# Mean RMSD: 0.001
data_MOF--net-ssb--node1-NAWXER_clean_sbu_0--node2-NAWXER_clean_linker_0--edge1-AJUNOK_clean_linker_0
_symmetry_space_group_name_H-M    P1
_symmetry_Int_Tables_number       1
_symmetry_cell_setting            triclinic
loop_
_symmetry_equiv_pos_as_xyz
'x, y, z'
_cell_length_a     41.58405
_cell_length_b     41.939808
_cell_length_c     36.475662
_cell_angle_alpha  89.976802
_cell_angle_beta   89.941736
_cell_angle_gamma 89.913126
loop_
_atom_site_label
_atom_site_type_symbol
_atom_site_fract_x
_atom_site_fract_y
_atom_site_fract_z
_atom_type_partial_charge
C0 C 0.32436 0.27769 0.15741 0.0
C1 C 0.35447 0.27844 0.1749 0.0
C2 C 0.29603 0.27456 0.17792 0.0
C3 C 0.29726 0.27281 0.2164 0.0
C4 C 0.35572 0.27529 0.21321 0.0
C5 C 0.32741 0.27253 0.23372 0.0
C6 C 0.26763 0.27159 0.23918 0.0
C7 C 0.26068 0.36301 0.17251 0.0
C8 C 0.23148 0.36596 0.15325 0.0
C9 C 0.26449 0.3396 0.19944 0.0
C10 C 0.23946 0.31814 0.20684 0.0
C11 C 0.2062 0.34504 0.16155 0.0
C12 C 0.21021 0.32132 0.18796 0.0
C13 C 0.24203 0.29369 0.23588 0.0
C14 C 0.1732 0.27705 0.37949 0.0
C15 C 0.14168 0.28409 0.36825 0.0
C16 C 0.19754 0.27243 0.35353 0.0
C17 C 0.19068 0.27454 0.31587 0.0
C18 C 0.13514 0.28738 0.33068 0.0
C19 C 0.15942 0.28274 0.30475 0.0
C20 C 0.21629 0.27054 0.28795 0.0
C21 C 0.20591 0.17543 0.34167 0.0
C22 C 0.23386 0.16178 0.35664 0.0
C23 C 0.2078 0.20251 0.31941 0.0
C24 C 0.23752 0.21756 0.31287 0.0
C25 C 0.26369 0.17623 0.34905 0.0
C26 C 0.26547 0.20378 0.32754 0.0
C27 C 0.23993 0.24625 0.28892 0.0
H28 H 0.32276 0.27917 0.12782 0.0
H29 H 0.27318 0.27378 0.16374 0.0
H30 H 0.37862 0.2755 0.22735 0.0
H31 H 0.32906 0.27087 0.26331 0.0
H32 H 0.28061 0.37886 0.16678 0.0
H33 H 0.28685 0.33845 0.21456 0.0
H34 H 0.1831 0.3473 0.1481 0.0
H35 H 0.1903 0.30546 0.1938 0.0
H36 H 0.17884 0.27442 0.40832 0.0
H37 H 0.22169 0.26724 0.36289 0.0
H38 H 0.11113 0.29329 0.32134 0.0
H39 H 0.15368 0.28517 0.27592 0.0
H40 H 0.18245 0.16544 0.34737 0.0
H41 H 0.18588 0.21147 0.30717 0.0
H42 H 0.28581 0.16613 0.35961 0.0
H43 H 0.2888 0.21437 0.32243 0.0
N44 N 0.26525 0.24841 0.26525 0.0
N45 N 0.21783 0.29255 0.26079 0.0
C46 C 0.69034 0.2665 0.16787 0.0
C47 C 0.67894 0.23703 0.15472 0.0
C48 C 0.71877 0.26826 0.18833 0.0
C49 C 0.73718 0.24072 0.19507 0.0
C50 C 0.69709 0.20947 0.1621 0.0
C51 C 0.72591 0.21136 0.18162 0.0
C52 C 0.76572 0.24087 0.21974 0.0
C53 C 0.78992 0.31857 0.1365 0.0
C54 C 0.79087 0.34902 0.15263 0.0
C55 C 0.78904 0.29112 0.15845 0.0
C56 C 0.78925 0.29375 0.19685 0.0
C57 C 0.7911 0.35152 0.191 0.0
C58 C 0.79068 0.32415 0.21287 0.0
C59 C 0.78945 0.26522 0.22082 0.0
C60 C 0.88297 0.20425 0.32872 0.0
C61 C 0.88737 0.22921 0.35385 0.0
C62 C 0.86172 0.20783 0.29933 0.0
C63 C 0.84399 0.23618 0.29499 0.0
C64 C 0.87188 0.25857 0.34739 0.0
C65 C 0.8503 0.26199 0.31828 0.0
C66 C 0.81647 0.23765 0.26919 0.0
C67 C 0.79382 0.17202 0.36079 0.0
C68 C 0.79352 0.13989 0.35011 0.0
C69 C 0.79217 0.19614 0.33453 0.0
C70 C 0.79086 0.18858 0.29702 0.0
C71 C 0.79064 0.13229 0.31271 0.0
C72 C 0.78933 0.1565 0.28633 0.0
C73 C 0.79222 0.2142 0.26913 0.0
H74 H 0.67699 0.28826 0.16287 0.0
H75 H 0.72556 0.29105 0.1998 0.0
H76 H 0.68863 0.18617 0.1538 0.0
H77 H 0.73907 0.18954 0.18703 0.0
H78 H 0.78944 0.31606 0.10695 0.0
H79 H 0.78839 0.26789 0.1455 0.0
H80 H 0.79185 0.3747 0.20407 0.0
H81 H 0.79111 0.32673 0.24242 0.0
H82 H 0.89486 0.18152 0.33265 0.0
H83 H 0.85783 0.18782 0.28111 0.0
H84 H 0.8758 0.27868 0.36545 0.0
H85 H 0.83728 0.28422 0.31516 0.0
H86 H 0.79502 0.17849 0.38951 0.0
H87 H 0.79244 0.22076 0.34348 0.0
H88 H 0.78993 0.10764 0.30391 0.0
H89 H 0.78799 0.1502 0.25757 0.0
N90 N 0.76818 0.21642 0.24416 0.0
N91 N 0.81387 0.26259 0.24556 0.0
C92 C 0.67272 0.77607 0.14156 0.0
C93 C 0.64116 0.78349 0.15244 0.0
C94 C 0.69649 0.77006 0.16779 0.0
C95 C 0.68906 0.77112 0.20539 0.0
C96 C 0.63418 0.78611 0.19003 0.0
C97 C 0.65795 0.78011 0.21624 0.0
C98 C 0.71377 0.76402 0.23354 0.0
C99 C 0.69961 0.67168 0.17204 0.0
C100 C 0.72773 0.65748 0.15805 0.0
C101 C 0.70153 0.69776 0.1959 0.0
C102 C 0.73157 0.7109 0.20521 0.0
C103 C 0.75769 0.67034 0.16799 0.0
C104 C 0.75956 0.69672 0.19113 0.0
C105 C 0.73464 0.73744 0.23195 0.0
C106 C 0.81611 0.74762 0.36896 0.0
C107 C 0.846 0.74053 0.35273 0.0
C108 C 0.78883 0.75277 0.34718 0.0
C109 C 0.79124 0.75189 0.30875 0.0
C110 C 0.84811 0.73868 0.31442 0.0
C111 C 0.82104 0.74426 0.29271 0.0
C112 C 0.76304 0.75693 0.28447 0.0
C113 C 0.76933 0.84725 0.35307 0.0
C114 C 0.74001 0.85742 0.36857 0.0
C115 C 0.77003 0.82293 0.32679 0.0
C116 C 0.74153 0.80741 0.3164 0.0
C117 C 0.71147 0.84256 0.35713 0.0
C118 C 0.71228 0.81772 0.33169 0.0
C119 C 0.74086 0.78254 0.28742 0.0
H120 H 0.67875 0.77396 0.11276 0.0
H121 H 0.72059 0.76424 0.15868 0.0
H122 H 0.61017 0.79231 0.19915 0.0
H123 H 0.6518 0.78174 0.24505 0.0
H124 H 0.67612 0.66275 0.16452 0.0
H125 H 0.67951 0.70725 0.2074 0.0
H126 H 0.77987 0.65975 0.15821 0.0
H127 H 0.78307 0.70594 0.19824 0.0
H128 H 0.81389 0.74906 0.39851 0.0
H129 H 0.76597 0.75747 0.36035 0.0
H130 H 0.87091 0.73372 0.3012 0.0
H131 H 0.82352 0.74304 0.26316 0.0
H132 H 0.7918 0.85828 0.36101 0.0
H133 H 0.7928 0.81669 0.31429 0.0
H134 H 0.6883 0.85054 0.36714 0.0
H135 H 0.6898 0.80678 0.32354 0.0
N136 N 0.71735 0.78501 0.26161 0.0
N137 N 0.75869 0.73545 0.25705 0.0
C138 C 0.37075 0.70412 0.17744 0.0
C139 C 0.3795 0.72895 0.15362 0.0
C140 C 0.34643 0.70878 0.20343 0.0
C141 C 0.33017 0.73817 0.20554 0.0
C142 C 0.36391 0.75861 0.15671 0.0
C143 C 0.33957 0.76319 0.1825 0.0
C144 C 0.3025 0.74282 0.23051 0.0
C145 C 0.27883 0.67318 0.14385 0.0
C146 C 0.27747 0.64203 0.15788 0.0
C147 C 0.27642 0.69939 0.16731 0.0
C148 C 0.27325 0.69493 0.20533 0.0
C149 C 0.27307 0.6376 0.19578 0.0
C150 C 0.27085 0.66387 0.21931 0.0
C151 C 0.27558 0.72243 0.2306 0.0
C152 C 0.1817 0.79593 0.3271 0.0
C153 C 0.16636 0.77 0.34421 0.0
C154 C 0.20856 0.79107 0.30451 0.0
C155 C 0.22157 0.76032 0.29971 0.0
C156 C 0.17856 0.73913 0.33789 0.0
C157 C 0.2058 0.73439 0.31606 0.0
C158 C 0.25079 0.75452 0.27688 0.0
C159 C 0.28027 0.82422 0.36411 0.0
C160 C 0.29014 0.85399 0.35047 0.0
C161 C 0.27692 0.79816 0.3406 0.0
C162 C 0.28261 0.80162 0.30285 0.0
C163 C 0.29725 0.85707 0.31302 0.0
C164 C 0.29363 0.83106 0.28944 0.0
C165 C 0.27833 0.77452 0.2773 0.0
H166 H 0.38287 0.68127 0.17615 0.0
H167 H 0.34004 0.68934 0.22157 0.0
H168 H 0.3702 0.77816 0.13865 0.0
H169 H 0.32743 0.78605 0.18373 0.0
H170 H 0.28173 0.67725 0.11471 0.0
H171 H 0.27797 0.72319 0.15589 0.0
H172 H 0.27211 0.61381 0.20731 0.0
H173 H 0.26855 0.65994 0.24855 0.0
H174 H 0.17339 0.82008 0.3316 0.0
H175 H 0.21921 0.81149 0.29105 0.0
H176 H 0.16706 0.71848 0.34994 0.0
H177 H 0.21479 0.71034 0.31234 0.0
H178 H 0.27486 0.82124 0.39297 0.0
H179 H 0.26952 0.77542 0.35186 0.0
H180 H 0.30455 0.87986 0.30178 0.0
H181 H 0.29863 0.83416 0.2605 0.0
N182 N 0.3028 0.7681 0.25369 0.0
N183 N 0.25078 0.72892 0.25381 0.0
C184 C 0.14936 0.76216 0.65823 0.0
C185 C 0.14755 0.73209 0.64121 0.0
C186 C 0.17349 0.76875 0.68376 0.0
C187 C 0.19678 0.74563 0.69222 0.0
C188 C 0.17032 0.7087 0.6505 0.0
C189 C 0.19468 0.71543 0.6757 0.0
C190 C 0.22234 0.75168 0.7197 0.0
C191 C 0.23724 0.82322 0.63007 0.0
C192 C 0.23361 0.85502 0.64148 0.0
C193 C 0.23995 0.79872 0.65581 0.0
C194 C 0.23847 0.80547 0.69348 0.0
C195 C 0.23203 0.86177 0.67916 0.0
C196 C 0.23469 0.8372 0.70497 0.0
C197 C 0.24134 0.7796 0.7209 0.0
C198 C 0.34788 0.73891 0.82218 0.0
C199 C 0.35318 0.76677 0.84273 0.0
C200 C 0.32113 0.73629 0.79925 0.0
C201 C 0.29891 0.76143 0.79637 0.0
C202 C 0.33169 0.79246 0.83872 0.0
C203 C 0.30485 0.78984 0.81563 0.0
C204 C 0.27036 0.75847 0.77211 0.0
C205 C 0.2522 0.68594 0.86188 0.0
C206 C 0.2467 0.65463 0.84977 0.0
C207 C 0.2544 0.71097 0.83663 0.0
C208 C 0.25195 0.70489 0.79883 0.0
C209 C 0.24456 0.64853 0.81208 0.0
C210 C 0.24715 0.6734 0.78688 0.0
C211 C 0.25045 0.73111 0.77163 0.0
H212 H 0.13213 0.7807 0.65171 0.0
H213 H 0.17373 0.79183 0.69704 0.0
H214 H 0.1691 0.68506 0.63867 0.0
H215 H 0.21198 0.69695 0.68228 0.0
H216 H 0.23831 0.81734 0.60118 0.0
H217 H 0.24342 0.7745 0.64626 0.0
H218 H 0.22953 0.88613 0.68863 0.0
H219 H 0.23368 0.84293 0.7339 0.0
H220 H 0.36453 0.71907 0.82379 0.0
H221 H 0.3179 0.71458 0.78362 0.0
H222 H 0.33526 0.81428 0.85404 0.0
H223 H 0.28838 0.80978 0.81336 0.0
H224 H 0.25389 0.69113 0.89091 0.0
H225 H 0.25698 0.73508 0.84678 0.0
H226 H 0.24085 0.62448 0.80211 0.0
H227 H 0.24496 0.66805 0.75793 0.0
N228 N 0.22762 0.7288 0.74522 0.0
N229 N 0.26467 0.7819 0.74701 0.0
C230 C 0.36965 0.26007 0.85281 0.0
C231 C 0.37069 0.23292 0.8754 0.0
C232 C 0.34713 0.26229 0.82455 0.0
C233 C 0.32493 0.23761 0.81889 0.0
C234 C 0.34968 0.20753 0.86844 0.0
C235 C 0.32697 0.20987 0.84037 0.0
C236 C 0.29967 0.24001 0.79057 0.0
C237 C 0.28412 0.32046 0.87094 0.0
C238 C 0.28573 0.35059 0.85413 0.0
C239 C 0.28099 0.29281 0.84971 0.0
C240 C 0.28006 0.29476 0.81124 0.0
C241 C 0.2846 0.35246 0.81568 0.0
C242 C 0.2816 0.32485 0.79449 0.0
C243 C 0.27783 0.26583 0.78797 0.0
C244 C 0.17559 0.20621 0.69361 0.0
C245 C 0.16531 0.23224 0.67234 0.0
C246 C 0.20318 0.20849 0.71531 0.0
C247 C 0.22115 0.23687 0.71631 0.0
C248 C 0.18291 0.26087 0.67403 0.0
C249 C 0.21043 0.26321 0.69598 0.0
C250 C 0.25055 0.23908 0.73927 0.0
C251 C 0.27624 0.17436 0.64683 0.0
C252 C 0.28425 0.14294 0.65646 0.0
C253 C 0.27297 0.19774 0.67376 0.0
C254 C 0.27688 0.18999 0.71099 0.0
C255 C 0.2891 0.1353 0.69352 0.0
C256 C 0.28554 0.15868 0.72057 0.0
C257 C 0.27435 0.21497 0.73959 0.0
H258 H 0.38615 0.27966 0.8572 0.0
H259 H 0.34678 0.28342 0.80747 0.0
H260 H 0.35018 0.18633 0.8854 0.0
H261 H 0.31038 0.19034 0.83604 0.0
H262 H 0.28457 0.31837 0.90054 0.0
H263 H 0.27926 0.26993 0.86334 0.0
H264 H 0.28611 0.37532 0.80196 0.0
H265 H 0.28095 0.32696 0.76489 0.0
H266 H 0.16206 0.18417 0.6939 0.0
H267 H 0.21034 0.1881 0.73162 0.0
H268 H 0.17559 0.28138 0.65801 0.0
H269 H 0.22368 0.28543 0.69656 0.0
H270 H 0.27266 0.18086 0.61837 0.0
H271 H 0.2677 0.22195 0.66535 0.0
H272 H 0.29495 0.11112 0.70162 0.0
H273 H 0.28919 0.15222 0.74903 0.0
N274 N 0.29736 0.21589 0.76593 0.0
N275 N 0.25376 0.26414 0.76272 0.0
C276 C 0.82878 0.24223 0.6748 0.0
C277 C 0.83856 0.26895 0.65431 0.0
C278 C 0.80002 0.24277 0.6947 0.0
C279 C 0.78037 0.27004 0.69454 0.0
C280 C 0.819 0.29632 0.65444 0.0
C281 C 0.79029 0.2969 0.6745 0.0
C282 C 0.75141 0.27197 0.71822 0.0
C283 C 0.72795 0.19523 0.63509 0.0
C284 C 0.72555 0.16477 0.6509 0.0
C285 C 0.72905 0.22243 0.65732 0.0
C286 C 0.72754 0.21951 0.69566 0.0
C287 C 0.72407 0.16192 0.68919 0.0
C288 C 0.72466 0.18907 0.71134 0.0
C289 C 0.72753 0.24791 0.71973 0.0
C290 C 0.63407 0.30699 0.82865 0.0
C291 C 0.63018 0.28173 0.85355 0.0
C292 C 0.65613 0.3045 0.79984 0.0
C293 C 0.67484 0.27678 0.79553 0.0
C294 C 0.64794 0.25351 0.84818 0.0
C295 C 0.66997 0.25103 0.81935 0.0
C296 C 0.70136 0.27567 0.76838 0.0
C297 C 0.73092 0.33702 0.8608 0.0
C298 C 0.72827 0.36956 0.85241 0.0
C299 C 0.73088 0.31436 0.83292 0.0
C300 C 0.72778 0.32378 0.79617 0.0
C301 C 0.72542 0.37909 0.81561 0.0
C302 C 0.72544 0.35629 0.78756 0.0
C303 C 0.72545 0.29924 0.76735 0.0
H304 H 0.84377 0.22112 0.67617 0.0
H305 H 0.79368 0.22219 0.71111 0.0
H306 H 0.82589 0.31727 0.63895 0.0
H307 H 0.77583 0.31841 0.67447 0.0
H308 H 0.72944 0.19793 0.6056 0.0
H309 H 0.73077 0.24571 0.6446 0.0
H310 H 0.72228 0.13865 0.70194 0.0
H311 H 0.72327 0.18629 0.74084 0.0
H312 H 0.62009 0.32866 0.83145 0.0
H313 H 0.65911 0.32449 0.78134 0.0
H314 H 0.64541 0.23362 0.86691 0.0
H315 H 0.68418 0.22948 0.8166 0.0
H316 H 0.73291 0.32911 0.88899 0.0
H317 H 0.73289 0.28935 0.84007 0.0
H318 H 0.72355 0.40412 0.8086 0.0
H319 H 0.72298 0.36392 0.75933 0.0
N320 N 0.74942 0.29675 0.7422 0.0
N321 N 0.70346 0.25066 0.74486 0.0
C322 C 0.84322 0.77343 0.64631 0.0
C323 C 0.87648 0.7723 0.65272 0.0
C324 C 0.82154 0.76952 0.67512 0.0
C325 C 0.83262 0.76514 0.71115 0.0
C326 C 0.88765 0.76754 0.6887 0.0
C327 C 0.86584 0.76372 0.7177 0.0
C328 C 0.8092 0.76293 0.74168 0.0
C329 C 0.81217 0.86056 0.69738 0.0
C330 C 0.78382 0.87069 0.67992 0.0
C331 C 0.81188 0.8342 0.72078 0.0
C332 C 0.78363 0.81631 0.72584 0.0
C333 C 0.75502 0.85423 0.68739 0.0
C334 C 0.75496 0.82727 0.70999 0.0
C335 C 0.78424 0.78557 0.7462 0.0
C336 C 0.70706 0.73586 0.87383 0.0
C337 C 0.67617 0.73565 0.85817 0.0
C338 C 0.73424 0.74096 0.85196 0.0
C339 C 0.73098 0.74578 0.81403 0.0
C340 C 0.67301 0.74002 0.82019 0.0
C341 C 0.70016 0.74533 0.79837 0.0
C342 C 0.75936 0.75169 0.79039 0.0
C343 C 0.76347 0.65271 0.83431 0.0
C344 C 0.78877 0.64907 0.85952 0.0
C345 C 0.76304 0.67844 0.81002 0.0
C346 C 0.78783 0.70111 0.81061 0.0
C347 C 0.81459 0.67062 0.85846 0.0
C348 C 0.81414 0.69644 0.83411 0.0
C349 C 0.78573 0.73041 0.78811 0.0
H350 H 0.83395 0.77733 0.61892 0.0
H351 H 0.79601 0.77026 0.6693 0.0
H352 H 0.91321 0.76629 0.69425 0.0
H353 H 0.87486 0.76025 0.74527 0.0
H354 H 0.83493 0.87211 0.69196 0.0
H355 H 0.83415 0.82711 0.73384 0.0
H356 H 0.73259 0.86173 0.67501 0.0
H357 H 0.7327 0.81431 0.71395 0.0
H358 H 0.7101 0.73247 0.90306 0.0
H359 H 0.75774 0.74155 0.86472 0.0
H360 H 0.64944 0.74026 0.80755 0.0
H361 H 0.69711 0.74902 0.76918 0.0
H362 H 0.74366 0.63596 0.83393 0.0
H363 H 0.74292 0.68111 0.79142 0.0
H364 H 0.83444 0.66825 0.87749 0.0
H365 H 0.83366 0.7135 0.83471 0.0
N366 N 0.80954 0.7366 0.76349 0.0
N367 N 0.75979 0.77866 0.76965 0.0
C368 C 0.96001 0.2677 0.57374 0.0
C369 C 0.04599 0.27947 0.48314 0.0
O370 O 0.97309 0.29373 0.56379 0.0
Zn371 Zn 1.00584 0.27546 0.53194 0.0
O372 O 0.97222 0.24113 0.56327 0.0
Zn373 Zn 0.0106 0.22451 0.529 0.0
O374 O 0.04187 0.20429 0.56131 0.0
O375 O 0.04076 0.25636 0.56856 0.0
O376 O 0.03988 0.25063 0.49208 0.0
O377 O 0.03235 0.30235 0.50005 0.0
O378 O 0.97627 0.25159 0.49203 0.0
O379 O 0.98678 0.19975 0.49308 0.0
C380 C 0.05267 0.22914 0.57692 0.0
C381 C 0.97136 0.22336 0.47983 0.0
C382 C 0.73433 0.05277 0.55772 0.0
C383 C 0.73977 0.96375 0.47119 0.0
O384 O 0.76305 0.04342 0.55099 0.0
Zn385 Zn 0.78707 0.00876 0.51831 0.0
O386 O 0.71079 0.03879 0.54242 0.0
Zn387 Zn 0.73568 0.0077 0.51454 0.0
O388 O 0.75575 0.977 0.55518 0.0
O389 O 0.80854 0.98297 0.55524 0.0
O390 O 0.71438 0.97668 0.48386 0.0
O391 O 0.7675 0.9736 0.48151 0.0
O392 O 0.81168 0.03555 0.48513 0.0
O393 O 0.75937 0.03695 0.47487 0.0
C394 C 0.78344 0.96973 0.56806 0.0
C395 C 0.78794 0.04579 0.46653 0.0
C396 C 0.96976 0.77626 0.53427 0.0
C397 C 0.05467 0.77635 0.44041 0.0
O398 O 0.98401 0.80111 0.52235 0.0
Zn399 Zn 0.01074 0.77878 0.48639 0.0
O400 O 0.97725 0.74877 0.52156 0.0
Zn401 Zn 1.00874 0.72734 0.48233 0.0
O402 O 0.03572 0.70119 0.51409 0.0
O403 O 0.04117 0.75315 0.52308 0.0
O404 O 0.04437 0.74861 0.44894 0.0
O405 O 0.04138 0.80093 0.45416 0.0
O406 O 0.9745 0.76112 0.45063 0.0
O407 O 0.97785 0.7087 0.44815 0.0
C408 C 0.04858 0.72437 0.53118 0.0
C409 C 0.96396 0.73445 0.43856 0.0
C410 C 0.28334 0.04478 0.54412 0.0
C411 C 0.28454 0.96465 0.44647 0.0
O412 O 0.30832 0.03228 0.52986 0.0
Zn413 Zn 0.28589 0.00574 0.49445 0.0
O414 O 0.25541 0.03634 0.53299 0.0
Zn415 Zn 0.23392 0.00487 0.49431 0.0
O416 O 0.21134 0.97493 0.52639 0.0
O417 O 0.26425 0.97098 0.52907 0.0
O418 O 0.25638 0.97294 0.45705 0.0
O419 O 0.30904 0.97855 0.45988 0.0
O420 O 0.26374 0.04084 0.46059 0.0
O421 O 0.21103 0.03428 0.46204 0.0
C422 C 0.23639 0.96116 0.53882 0.0
C423 C 0.23554 0.04937 0.45043 0.0
C424 C 0.47274 0.72603 0.03591 0.0
C425 C 0.55822 0.73217 0.94385 0.0
O426 O 0.47909 0.75427 0.02461 0.0
Zn427 Zn 0.5087 0.77814 0.98526 0.0
O428 O 0.48621 0.70202 0.02089 0.0
Zn429 Zn 0.51252 0.72674 0.98682 0.0
O430 O 0.54121 0.75237 0.02576 0.0
O431 O 0.53418 0.80439 0.01867 0.0
O432 O 0.54511 0.70672 0.95547 0.0
O433 O 0.54627 0.75922 0.95268 0.0
O434 O 0.47726 0.7965 0.95102 0.0
O435 O 0.47642 0.74403 0.95093 0.0
C436 C 0.54728 0.78108 0.03548 0.0
C437 C 0.46478 0.7706 0.93985 0.0
C438 C 0.28176 0.54129 0.04901 0.0
C439 C 0.28444 0.46089 0.95084 0.0
O440 O 0.30719 0.52908 0.03538 0.0
Zn441 Zn 0.28547 0.5021 0.99949 0.0
O442 O 0.25421 0.53386 0.03589 0.0
Zn443 Zn 0.23376 0.50402 0.99454 0.0
O444 O 0.20718 0.47573 0.02378 0.0
O445 O 0.25936 0.47126 0.03499 0.0
O446 O 0.25636 0.47141 0.95855 0.0
O447 O 0.30867 0.47172 0.96809 0.0
O448 O 0.26765 0.53736 0.96269 0.0
O449 O 0.21464 0.53476 0.96144 0.0
C450 C 0.23025 0.46329 0.04169 0.0
C451 C 0.24064 0.5477 0.95067 0.0
C452 C 0.54571 0.28311 0.98089 0.0
C453 C 0.4694 0.2816 0.08388 0.0
O454 O 0.53527 0.30757 0.99784 0.0
Zn455 Zn 0.50998 0.2844 0.0347 0.0
O456 O 0.53808 0.25528 0.99231 0.0
Zn457 Zn 0.51058 0.23304 0.03418 0.0
O458 O 0.48014 0.20953 1.00385 0.0
O459 O 0.47491 0.26191 1.00089 0.0
O460 O 0.47889 0.25381 0.07392 0.0
O461 O 0.48166 0.30622 0.069 0.0
O462 O 0.54652 0.2636 0.06805 0.0
O463 O 0.54368 0.21128 0.06217 0.0
C464 C 0.46563 0.23403 0.9914 0.0
C465 C 0.55729 0.23574 0.07563 0.0
C466 C 0.73307 0.54687 0.06224 0.0
C467 C 0.73441 0.46446 0.96791 0.0
O468 O 0.76148 0.53916 0.05176 0.0
Zn469 Zn 0.78397 0.50591 0.01531 0.0
O470 O 0.70883 0.53194 0.0498 0.0
Zn471 Zn 0.73239 0.50458 0.01633 0.0
O472 O 0.75519 0.47107 0.05216 0.0
O473 O 0.80772 0.47666 0.04673 0.0
O474 O 0.70953 0.47683 0.98247 0.0
O475 O 0.76237 0.47367 0.97791 0.0
O476 O 0.80632 0.53467 0.98205 0.0
O477 O 0.75344 0.53871 0.97956 0.0
C478 C 0.78374 0.46243 0.0609 0.0
C479 C 0.78131 0.54807 0.96904 0.0
C480 C 0.11797 0.30544 0.42683 0.0
C481 C 0.1153 0.28586 0.39557 0.0
C482 C 0.09428 0.30512 0.4544 0.0
C483 C 0.0676 0.28477 0.45171 0.0
H484 H 0.13881 0.32062 0.43028 0.0
H485 H 0.09767 0.31959 0.47868 0.0
S486 S 0.04865 0.23002 0.37491 0.0
N487 N 0.08314 0.2466 0.36315 0.0
N488 N 0.03892 0.2459 0.41481 0.0
C489 C 0.06417 0.26596 0.42009 0.0
C490 C 0.08795 0.26651 0.39203 0.0
C491 C 0.77024 0.09135 0.37924 0.0
C492 C 0.79463 0.11442 0.37822 0.0
C493 C 0.76894 0.06877 0.40746 0.0
C494 C 0.79224 0.0681 0.43546 0.0
H495 H 0.75136 0.09143 0.35878 0.0
H496 H 0.74918 0.05195 0.40758 0.0
S497 S 0.86237 0.12218 0.44367 0.0
N498 N 0.84354 0.13447 0.40638 0.0
N499 N 0.84131 0.09171 0.45941 0.0
C500 C 0.81752 0.09028 0.43395 0.0
C501 C 0.81861 0.11358 0.40539 0.0
C502 C 0.88407 0.76188 0.3994 0.0
C503 C 0.87542 0.73718 0.37544 0.0
C504 C 0.9128 0.76063 0.41931 0.0
C505 C 0.93395 0.73441 0.4165 0.0
H506 H 0.86884 0.78273 0.40216 0.0
H507 H 0.91834 0.78043 0.43728 0.0
S508 S 0.9215 0.66277 0.35868 0.0
N509 N 0.88965 0.68529 0.35054 0.0
N510 N 0.94359 0.68265 0.38855 0.0
C511 C 0.92523 0.70915 0.39322 0.0
C512 C 0.89605 0.71065 0.37249 0.0
C513 C 0.2623 0.88965 0.39468 0.0
C514 C 0.29021 0.88228 0.37478 0.0
C515 C 0.26089 0.9165 0.41726 0.0
C516 C 0.28747 0.93704 0.42124 0.0
H517 H 0.24115 0.87472 0.39243 0.0
H518 H 0.23871 0.9209 0.43203 0.0
S519 S 0.36659 0.92779 0.37536 0.0
N520 N 0.34523 0.89725 0.36043 0.0
N521 N 0.34279 0.94784 0.40343 0.0
C522 C 0.31572 0.92982 0.40166 0.0
C523 C 0.31701 0.90249 0.37822 0.0
C524 C 0.08997 0.73534 0.62166 0.0
C525 C 0.12164 0.72538 0.61419 0.0
C526 C 0.06574 0.73272 0.59523 0.0
C527 C 0.07208 0.71944 0.56065 0.0
H528 H 0.08404 0.74616 0.64778 0.0
H529 H 0.04211 0.74228 0.60138 0.0
S530 S 0.1504 0.68924 0.52715 0.0
N531 N 0.15779 0.70135 0.5694 0.0
N532 N 0.11169 0.69569 0.52019 0.0
C533 C 0.10309 0.70803 0.55321 0.0
C534 C 0.12801 0.7111 0.57993 0.0
C535 C 0.25897 0.11398 0.60459 0.0
C536 C 0.2855 0.11796 0.62786 0.0
C537 C 0.25885 0.09035 0.57762 0.0
C538 C 0.28539 0.06991 0.57252 0.0
H539 H 0.23789 0.12898 0.6076 0.0
H540 H 0.23766 0.08823 0.56054 0.0
S541 S 0.36131 0.07136 0.62578 0.0
N542 N 0.33932 0.10018 0.64391 0.0
N543 N 0.33926 0.05566 0.59275 0.0
C544 C 0.31236 0.07395 0.59527 0.0
C545 C 0.31233 0.09792 0.62314 0.0
C546 C 0.89117 0.29401 0.6359 0.0
C547 C 0.86933 0.26843 0.63335 0.0
C548 C 0.92052 0.29369 0.61673 0.0
C549 C 0.92928 0.26764 0.59455 0.0
H550 H 0.8857 0.3143 0.65319 0.0
H551 H 0.93659 0.31384 0.61958 0.0
S552 S 0.87911 0.19624 0.57562 0.0
N553 N 0.85746 0.21756 0.6046 0.0
N554 N 0.91266 0.21649 0.56934 0.0
C555 C 0.90739 0.24214 0.59135 0.0
C556 C 0.87746 0.24264 0.61054 0.0
C557 C 0.76674 0.89335 0.61942 0.0
C558 C 0.7845 0.89676 0.65206 0.0
C559 C 0.76691 0.91704 0.59241 0.0
C560 C 0.78544 0.94477 0.59642 0.0
H561 H 0.75274 0.87204 0.61444 0.0
H562 H 0.75259 0.91346 0.56793 0.0
S563 S 0.83504 0.96655 0.67679 0.0
N564 N 0.81992 0.93132 0.68739 0.0
N565 N 0.82139 0.97504 0.6354 0.0
C566 C 0.80359 0.94858 0.62848 0.0
C567 C 0.80286 0.92477 0.65656 0.0
C568 C 0.92486 0.79659 0.62205 0.0
C569 C 0.89929 0.77458 0.62152 0.0
C570 C 0.9469 0.7984 0.59281 0.0
C571 C 0.94429 0.77786 0.5625 0.0
H572 H 0.92788 0.8124 0.64527 0.0
H573 H 0.96671 0.81507 0.59457 0.0
S574 S 0.88114 0.71679 0.54744 0.0
N575 N 0.87236 0.73244 0.58775 0.0
N576 N 0.91345 0.73586 0.53302 0.0
C577 C 0.91843 0.75629 0.5614 0.0
C578 C 0.89602 0.75462 0.59085 0.0
C579 C 0.20898 0.90448 0.61418 0.0
C580 C 0.2335 0.88125 0.61417 0.0
C581 C 0.20926 0.92986 0.58894 0.0
C582 C 0.23441 0.93312 0.5634 0.0
H583 H 0.1895 0.90299 0.63384 0.0
H584 H 0.1902 0.94747 0.5901 0.0
S585 S 0.30389 0.87821 0.55175 0.0
N586 N 0.28322 0.86294 0.58616 0.0
N587 N 0.28379 0.91025 0.53885 0.0
C588 C 0.25877 0.90974 0.56289 0.0
C589 C 0.25831 0.88392 0.58824 0.0
C590 C 0.11307 0.25455 0.64929 0.0
C591 C 0.136 0.22986 0.64895 0.0
C592 C 0.08582 0.25353 0.62672 0.0
C593 C 0.08015 0.22768 0.60295 0.0
H594 H 0.11623 0.27495 0.66712 0.0
H595 H 0.06917 0.2734 0.62774 0.0
S596 S 0.13324 0.15722 0.59085 0.0
N597 N 0.15157 0.17901 0.62217 0.0
N598 N 0.10002 0.17679 0.5803 0.0
C599 C 0.1026 0.20252 0.60272 0.0
C600 C 0.13056 0.20369 0.62555 0.0
C601 C 0.75039 0.11296 0.63286 0.0
C602 C 0.72605 0.13577 0.62773 0.0
C603 C 0.75232 0.08588 0.61051 0.0
C604 C 0.72961 0.08024 0.58265 0.0
H605 H 0.76853 0.11647 0.65377 0.0
H606 H 0.77194 0.0693 0.61498 0.0
S607 S 0.66036 0.1322 0.55926 0.0
N608 N 0.67831 0.15081 0.5935 0.0
N609 N 0.6815 0.09944 0.55183 0.0
C610 C 0.70459 0.10244 0.57792 0.0
C611 C 0.70297 0.13038 0.60031 0.0
C612 C 0.93797 0.21003 0.38479 0.0
C613 C 0.90737 0.22445 0.38723 0.0
C614 C 0.95802 0.20752 0.41567 0.0
C615 C 0.94813 0.21951 0.44981 0.0
H616 H 0.94698 0.20178 0.35858 0.0
H617 H 0.98198 0.19774 0.41238 0.0
S618 S 0.86883 0.25478 0.47224 0.0
N619 N 0.86684 0.24699 0.42792 0.0
N620 N 0.9051 0.24347 0.4853 0.0
C621 C 0.91715 0.23243 0.45305 0.0
C622 C 0.89661 0.23459 0.42192 0.0
C623 C 0.75868 0.91134 0.38957 0.0
C624 C 0.73909 0.8844 0.39525 0.0
C625 C 0.75841 0.93704 0.4141 0.0
C626 C 0.73799 0.9372 0.44479 0.0
H627 H 0.77427 0.91276 0.36582 0.0
H628 H 0.77417 0.9571 0.40887 0.0
S629 S 0.68352 0.87218 0.47392 0.0
N630 N 0.70013 0.85891 0.4357 0.0
N631 N 0.69856 0.90813 0.48058 0.0
C632 C 0.71814 0.91073 0.45088 0.0
C633 C 0.71893 0.88413 0.42641 0.0
C634 C 0.13659 0.75649 0.40195 0.0
C635 C 0.13837 0.77461 0.36949 0.0
C636 C 0.10976 0.75811 0.42505 0.0
C637 C 0.08378 0.77847 0.41726 0.0
H638 H 0.15599 0.74051 0.40948 0.0
H639 H 0.1092 0.74301 0.44917 0.0
S640 S 0.07609 0.83151 0.33661 0.0
N641 N 0.11126 0.81379 0.33093 0.0
N642 N 0.06142 0.81771 0.37561 0.0
C643 C 0.0855 0.7977 0.38586 0.0
C644 C 0.11266 0.79561 0.36172 0.0
C645 C 0.25168 0.13157 0.41234 0.0
C646 C 0.23221 0.13307 0.38082 0.0
C647 C 0.25201 0.10455 0.43484 0.0
C648 C 0.23239 0.07811 0.4273 0.0
H649 H 0.26696 0.15145 0.41973 0.0
H650 H 0.26782 0.10437 0.45845 0.0
S651 S 0.17731 0.06917 0.34833 0.0
N652 N 0.19327 0.10491 0.34287 0.0
N653 N 0.19294 0.05472 0.3865 0.0
C654 C 0.21219 0.07934 0.39658 0.0
C655 C 0.2123 0.10667 0.37305 0.0
C656 C 0.62339 0.71009 0.87486 0.0
C657 C 0.64708 0.73337 0.88162 0.0
C658 C 0.59493 0.70895 0.89577 0.0
C659 C 0.58897 0.73159 0.92338 0.0
H660 H 0.62688 0.69277 0.85319 0.0
H661 H 0.57713 0.69091 0.88959 0.0
S662 S 0.6438 0.79665 0.95246 0.0
N663 N 0.66301 0.77884 0.91852 0.0
N664 N 0.60967 0.77706 0.95736 0.0
C665 C 0.61272 0.75462 0.93066 0.0
C666 C 0.64174 0.75543 0.90989 0.0
C667 C 0.26856 0.62217 0.90127 0.0
C668 C 0.24363 0.62815 0.87631 0.0
C669 C 0.26715 0.59614 0.92521 0.0
C670 C 0.24052 0.57537 0.92549 0.0
H671 H 0.28965 0.63732 0.90171 0.0
H672 H 0.28716 0.59231 0.9437 0.0
S673 S 0.16821 0.58188 0.8665 0.0
N674 N 0.19111 0.6121 0.85383 0.0
N675 N 0.1882 0.56324 0.89927 0.0
C676 C 0.21503 0.5816 0.90124 0.0
C677 C 0.21668 0.60794 0.87649 0.0
C678 C 0.41485 0.20633 0.91106 0.0
C679 C 0.39295 0.23172 0.90698 0.0
C680 C 0.43753 0.20623 0.93961 0.0
C681 C 0.43888 0.23151 0.9649 0.0
H682 H 0.41515 0.18702 0.89135 0.0
H683 H 0.4549 0.18699 0.94094 0.0
S684 S 0.38325 0.30082 0.96932 0.0
N685 N 0.37158 0.28072 0.9328 0.0
N686 N 0.41391 0.28066 0.98637 0.0
C687 C 0.41583 0.25604 0.9622 0.0
C688 C 0.39295 0.25614 0.93323 0.0
C689 C 0.70474 0.41579 0.88687 0.0
C690 C 0.72966 0.39342 0.88217 0.0
C691 C 0.70576 0.43825 0.91542 0.0
C692 C 0.732 0.43931 0.93969 0.0
H693 H 0.68428 0.41576 0.8685 0.0
H694 H 0.6863 0.4553 0.91797 0.0
S695 S 0.8029 0.38528 0.93927 0.0
N696 N 0.7809 0.37333 0.90426 0.0
N697 N 0.78295 0.41528 0.95778 0.0
C698 C 0.75686 0.41677 0.93537 0.0
C699 C 0.75566 0.39389 0.90663 0.0
C700 C 0.62115 0.25344 0.14665 0.0
C701 C 0.64757 0.23497 0.13485 0.0
C702 C 0.59168 0.25276 0.128 0.0
C703 C 0.58711 0.23297 0.09739 0.0
H704 H 0.62322 0.2687 0.17046 0.0
H705 H 0.57234 0.26802 0.13748 0.0
S706 S 0.64834 0.1809 0.0541 0.0
N707 N 0.66721 0.1973 0.08914 0.0
N708 N 0.61124 0.19493 0.05547 0.0
C709 C 0.61288 0.2139 0.08561 0.0
C710 C 0.64321 0.21514 0.104 0.0
C711 C 0.74729 0.62851 0.10243 0.0
C712 C 0.72645 0.62956 0.13283 0.0
C713 C 0.74885 0.60171 0.07974 0.0
C714 C 0.72917 0.57506 0.08599 0.0
H715 H 0.76284 0.6485 0.09621 0.0
H716 H 0.76564 0.60189 0.05698 0.0
S717 S 0.67016 0.56539 0.16124 0.0
N718 N 0.68571 0.60113 0.16801 0.0
N719 N 0.68776 0.55124 0.124 0.0
C720 C 0.70742 0.57597 0.11539 0.0
C721 C 0.70624 0.60312 0.13911 0.0
C722 C 0.42947 0.74784 0.12312 0.0
C723 C 0.40521 0.72471 0.12586 0.0
C724 C 0.45191 0.747 0.09467 0.0
C725 C 0.4512 0.72288 0.06788 0.0
H726 H 0.43065 0.76724 0.14267 0.0
H727 H 0.4696 0.76591 0.0932 0.0
S728 S 0.39338 0.65589 0.06343 0.0
N729 N 0.38229 0.67632 0.10007 0.0
N730 N 0.42512 0.67454 0.04657 0.0
C731 C 0.42808 0.69869 0.07113 0.0
C732 C 0.40491 0.69966 0.10015 0.0
C733 C 0.2386 0.42233 0.13261 0.0
C734 C 0.22736 0.39135 0.12526 0.0
C735 C 0.23758 0.44613 0.1058 0.0
C736 C 0.22467 0.44004 0.07097 0.0
H737 H 0.24894 0.42806 0.15904 0.0
H738 H 0.24783 0.46926 0.11199 0.0
S739 S 0.19181 0.3635 0.03756 0.0
N740 N 0.20284 0.35606 0.08021 0.0
N741 N 0.20002 0.40151 0.0303 0.0
C742 C 0.21215 0.40977 0.06353 0.0
C743 C 0.21366 0.38524 0.09062 0.0
C744 C 0.40935 0.25876 0.15766 0.0
C745 C 0.38467 0.2814 0.15326 0.0
C746 C 0.43727 0.25983 0.13608 0.0
C747 C 0.44196 0.28397 0.10977 0.0
H748 H 0.40659 0.23943 0.17711 0.0
H749 H 0.45511 0.24122 0.13956 0.0
S750 S 0.38527 0.34993 0.08894 0.0
N751 N 0.36716 0.32935 0.12158 0.0
N752 N 0.41984 0.33162 0.0813 0.0
C753 C 0.41797 0.30744 0.106 0.0
C754 C 0.38926 0.30604 0.1276 0.0
C755 C 0.76621 0.40118 0.13481 0.0
C756 C 0.79058 0.37832 0.12974 0.0
C757 C 0.76471 0.42866 0.11295 0.0
C758 C 0.78793 0.43473 0.08572 0.0
H759 H 0.74772 0.39741 0.15531 0.0
H760 H 0.74503 0.44521 0.11726 0.0
S761 S 0.85722 0.38273 0.06234 0.0
N762 N 0.83875 0.36369 0.09596 0.0
N763 N 0.83633 0.4157 0.05527 0.0
C764 C 0.81289 0.41243 0.08097 0.0
C765 C 0.81407 0.38411 0.10282 0.0
C766 C 0.61857 0.80576 0.09368 0.0
C767 C 0.61516 0.78594 0.12469 0.0
C768 C 0.59537 0.80589 0.06559 0.0
C769 C 0.56844 0.78577 0.06745 0.0
H770 H 0.63961 0.82075 0.09082 0.0
H771 H 0.59935 0.82054 0.04154 0.0
S772 S 0.54777 0.73029 0.14306 0.0
N773 N 0.58211 0.74656 0.15584 0.0
N774 N 0.53891 0.74664 0.10316 0.0
C775 C 0.56434 0.76664 0.09873 0.0
C776 C 0.58759 0.76676 0.12735 0.0
C777 C 0.30561 0.61243 0.10726 0.0
C778 C 0.28009 0.61438 0.13265 0.0
C779 C 0.30716 0.58767 0.08135 0.0
C780 C 0.28292 0.5644 0.0796 0.0
H781 H 0.32424 0.63046 0.10713 0.0
H782 H 0.32665 0.58755 0.06161 0.0
S783 S 0.21207 0.55781 0.14116 0.0
N784 N 0.23095 0.59012 0.15536 0.0
N785 N 0.23373 0.54377 0.1068 0.0
C786 C 0.2579 0.56554 0.10561 0.0
C787 C 0.25652 0.59047 0.13212 0.0
C788 C 0.40201 0.79463 0.86849 0.0
C789 C 0.38075 0.76848 0.86876 0.0
C790 C 0.42899 0.79558 0.89182 0.0
C791 C 0.43572 0.77032 0.91609 0.0
H792 H 0.39815 0.81418 0.84956 0.0
H793 H 0.44501 0.81588 0.89029 0.0
S794 S 0.38493 0.69859 0.93097 0.0
N795 N 0.36651 0.71841 0.89801 0.0
N796 N 0.41704 0.71984 0.94126 0.0
C797 C 0.41393 0.74462 0.91745 0.0
C798 C 0.38653 0.74378 0.89396 0.0
C799 C 0.31006 0.38349 0.90477 0.0
C800 C 0.28702 0.38009 0.87673 0.0
C801 C 0.31042 0.41061 0.92751 0.0
C802 C 0.28738 0.43496 0.92337 0.0
H803 H 0.32771 0.3649 0.90939 0.0
H804 H 0.32796 0.41185 0.9494 0.0
S805 S 0.22266 0.43794 0.85336 0.0
N806 N 0.24123 0.4038 0.84559 0.0
N807 N 0.24182 0.45449 0.88807 0.0
C808 C 0.26478 0.43214 0.89483 0.0
C809 C 0.26461 0.40479 0.87159 0.0
C810 C 0.58618 0.25909 0.89211 0.0
C811 C 0.60745 0.2843 0.88491 0.0
C812 C 0.5659 0.25961 0.92267 0.0
C813 C 0.56583 0.28542 0.94739 0.0
H814 H 0.58536 0.23859 0.87408 0.0
H815 H 0.55025 0.23933 0.92707 0.0
S816 S 0.61698 0.35756 0.94097 0.0
N817 N 0.62734 0.33598 0.90495 0.0
N818 N 0.58862 0.33714 0.96232 0.0
C819 C 0.58635 0.31126 0.9401 0.0
C820 C 0.60729 0.31065 0.9089 0.0
C821 C 0.81312 0.60292 0.89394 0.0
C822 C 0.78718 0.62393 0.88816 0.0
C823 C 0.81139 0.57866 0.92052 0.0
C824 C 0.78366 0.57462 0.94221 0.0
H825 H 0.83465 0.6049 0.87736 0.0
H826 H 0.83166 0.56263 0.92359 0.0
S827 S 0.71087 0.62621 0.94082 0.0
N828 N 0.73425 0.641 0.90845 0.0
N829 N 0.73076 0.5956 0.95805 0.0
C830 C 0.75801 0.59624 0.93741 0.0
C831 C 0.75983 0.62083 0.91049 0.0
loop_
_geom_bond_atom_site_label_1
_geom_bond_atom_site_label_2
_geom_bond_distance
_geom_bond_site_symmetry_2
_ccdc_geom_bond_type
C0 C1 1.384 . S
C0 C2 1.384 . S
C0 H28 0.931 . S
C1 C0 1.384 . S
C1 C4 1.382 . S
C2 C0 1.384 . S
C2 C3 1.381 . S
C2 H29 0.930 . S
C3 C2 1.381 . S
C3 C5 1.381 . S
C3 C6 1.487 . S
C4 C1 1.382 . S
C4 C5 1.387 . S
C4 H30 0.930 . S
C5 C3 1.381 . S
C5 C4 1.387 . S
C5 H31 0.931 . S
C6 C3 1.487 . S
C6 C13 1.399 . S
C6 N44 1.343 . S
C7 C8 1.384 . S
C7 C9 1.384 . S
C7 H32 0.931 . S
C8 C7 1.384 . S
C8 C11 1.382 . S
C9 C7 1.384 . S
C9 C10 1.381 . S
C9 H33 0.930 . S
C10 C9 1.381 . S
C10 C12 1.381 . S
C10 C13 1.487 . S
C11 C8 1.382 . S
C11 C12 1.387 . S
C11 H34 0.930 . S
C12 C10 1.381 . S
C12 C11 1.387 . S
C12 H35 0.931 . S
C13 C6 1.399 . S
C13 C10 1.487 . S
C13 N45 1.343 . S
C14 C15 1.384 . S
C14 C16 1.384 . S
C14 H36 0.931 . S
C15 C14 1.384 . S
C15 C18 1.382 . S
C16 C14 1.384 . S
C16 C17 1.381 . S
C16 H37 0.930 . S
C17 C16 1.381 . S
C17 C19 1.381 . S
C17 C20 1.487 . S
C18 C15 1.382 . S
C18 C19 1.387 . S
C18 H38 0.930 . S
C19 C17 1.381 . S
C19 C18 1.387 . S
C19 H39 0.931 . S
C20 C17 1.487 . S
C20 C27 1.399 . S
C20 N45 1.343 . S
C21 C22 1.384 . S
C21 C23 1.384 . S
C21 H40 0.931 . S
C22 C21 1.384 . S
C22 C25 1.382 . S
C23 C21 1.384 . S
C23 C24 1.381 . S
C23 H41 0.930 . S
C24 C23 1.381 . S
C24 C26 1.381 . S
C24 C27 1.487 . S
C25 C22 1.382 . S
C25 C26 1.387 . S
C25 H42 0.930 . S
C26 C24 1.381 . S
C26 C25 1.387 . S
C26 H43 0.931 . S
C27 C20 1.399 . S
C27 C24 1.487 . S
C27 N44 1.343 . S
H28 C0 0.931 . S
H29 C2 0.930 . S
H30 C4 0.930 . S
H31 C5 0.931 . S
H32 C7 0.931 . S
H33 C9 0.930 . S
H34 C11 0.930 . S
H35 C12 0.931 . S
H36 C14 0.931 . S
H37 C16 0.930 . S
H38 C18 0.930 . S
H39 C19 0.931 . S
H40 C21 0.931 . S
H41 C23 0.930 . S
H42 C25 0.930 . S
H43 C26 0.931 . S
N44 C6 1.343 . S
N44 C27 1.343 . S
N45 C13 1.343 . S
N45 C20 1.343 . S
C46 C47 1.384 . S
C46 C48 1.384 . S
C46 H74 0.931 . S
C47 C46 1.384 . S
C47 C50 1.382 . S
C48 C46 1.384 . S
C48 C49 1.381 . S
C48 H75 0.930 . S
C49 C48 1.381 . S
C49 C51 1.381 . S
C49 C52 1.487 . S
C50 C47 1.382 . S
C50 C51 1.387 . S
C50 H76 0.930 . S
C51 C49 1.381 . S
C51 C50 1.387 . S
C51 H77 0.931 . S
C52 C49 1.487 . S
C52 C59 1.399 . S
C52 N90 1.343 . S
C53 C54 1.384 . S
C53 C55 1.384 . S
C53 H78 0.931 . S
C54 C53 1.384 . S
C54 C57 1.382 . S
C55 C53 1.384 . S
C55 C56 1.381 . S
C55 H79 0.930 . S
C56 C55 1.381 . S
C56 C58 1.381 . S
C56 C59 1.487 . S
C57 C54 1.382 . S
C57 C58 1.387 . S
C57 H80 0.930 . S
C58 C56 1.381 . S
C58 C57 1.387 . S
C58 H81 0.931 . S
C59 C52 1.399 . S
C59 C56 1.487 . S
C59 N91 1.343 . S
C60 C61 1.384 . S
C60 C62 1.384 . S
C60 H82 0.931 . S
C61 C60 1.384 . S
C61 C64 1.382 . S
C62 C60 1.384 . S
C62 C63 1.381 . S
C62 H83 0.930 . S
C63 C62 1.381 . S
C63 C65 1.381 . S
C63 C66 1.487 . S
C64 C61 1.382 . S
C64 C65 1.387 . S
C64 H84 0.930 . S
C65 C63 1.381 . S
C65 C64 1.387 . S
C65 H85 0.931 . S
C66 C63 1.487 . S
C66 C73 1.399 . S
C66 N91 1.343 . S
C67 C68 1.384 . S
C67 C69 1.384 . S
C67 H86 0.931 . S
C68 C67 1.384 . S
C68 C71 1.382 . S
C69 C67 1.384 . S
C69 C70 1.381 . S
C69 H87 0.930 . S
C70 C69 1.381 . S
C70 C72 1.381 . S
C70 C73 1.487 . S
C71 C68 1.382 . S
C71 C72 1.387 . S
C71 H88 0.930 . S
C72 C70 1.381 . S
C72 C71 1.387 . S
C72 H89 0.931 . S
C73 C66 1.399 . S
C73 C70 1.487 . S
C73 N90 1.343 . S
H74 C46 0.931 . S
H75 C48 0.930 . S
H76 C50 0.930 . S
H77 C51 0.931 . S
H78 C53 0.931 . S
H79 C55 0.930 . S
H80 C57 0.930 . S
H81 C58 0.931 . S
H82 C60 0.931 . S
H83 C62 0.930 . S
H84 C64 0.930 . S
H85 C65 0.931 . S
H86 C67 0.931 . S
H87 C69 0.930 . S
H88 C71 0.930 . S
H89 C72 0.931 . S
N90 C52 1.343 . S
N90 C73 1.343 . S
N91 C59 1.343 . S
N91 C66 1.343 . S
C92 C93 1.384 . S
C92 C94 1.384 . S
C92 H120 0.931 . S
C93 C92 1.384 . S
C93 C96 1.382 . S
C94 C92 1.384 . S
C94 C95 1.381 . S
C94 H121 0.930 . S
C95 C94 1.381 . S
C95 C97 1.381 . S
C95 C98 1.487 . S
C96 C93 1.382 . S
C96 C97 1.387 . S
C96 H122 0.930 . S
C97 C95 1.381 . S
C97 C96 1.387 . S
C97 H123 0.931 . S
C98 C95 1.487 . S
C98 C105 1.399 . S
C98 N136 1.343 . S
C99 C100 1.384 . S
C99 C101 1.384 . S
C99 H124 0.931 . S
C100 C99 1.384 . S
C100 C103 1.382 . S
C101 C99 1.384 . S
C101 C102 1.381 . S
C101 H125 0.930 . S
C102 C101 1.381 . S
C102 C104 1.381 . S
C102 C105 1.487 . S
C103 C100 1.382 . S
C103 C104 1.387 . S
C103 H126 0.930 . S
C104 C102 1.381 . S
C104 C103 1.387 . S
C104 H127 0.931 . S
C105 C98 1.399 . S
C105 C102 1.487 . S
C105 N137 1.343 . S
C106 C107 1.384 . S
C106 C108 1.384 . S
C106 H128 0.931 . S
C107 C106 1.384 . S
C107 C110 1.382 . S
C108 C106 1.384 . S
C108 C109 1.381 . S
C108 H129 0.930 . S
C109 C108 1.381 . S
C109 C111 1.381 . S
C109 C112 1.487 . S
C110 C107 1.382 . S
C110 C111 1.387 . S
C110 H130 0.930 . S
C111 C109 1.381 . S
C111 C110 1.387 . S
C111 H131 0.931 . S
C112 C109 1.487 . S
C112 C119 1.399 . S
C112 N137 1.343 . S
C113 C114 1.384 . S
C113 C115 1.384 . S
C113 H132 0.931 . S
C114 C113 1.384 . S
C114 C117 1.382 . S
C115 C113 1.384 . S
C115 C116 1.381 . S
C115 H133 0.930 . S
C116 C115 1.381 . S
C116 C118 1.381 . S
C116 C119 1.487 . S
C117 C114 1.382 . S
C117 C118 1.387 . S
C117 H134 0.930 . S
C118 C116 1.381 . S
C118 C117 1.387 . S
C118 H135 0.931 . S
C119 C112 1.399 . S
C119 C116 1.487 . S
C119 N136 1.343 . S
H120 C92 0.931 . S
H121 C94 0.930 . S
H122 C96 0.930 . S
H123 C97 0.931 . S
H124 C99 0.931 . S
H125 C101 0.930 . S
H126 C103 0.930 . S
H127 C104 0.931 . S
H128 C106 0.931 . S
H129 C108 0.930 . S
H130 C110 0.930 . S
H131 C111 0.931 . S
H132 C113 0.931 . S
H133 C115 0.930 . S
H134 C117 0.930 . S
H135 C118 0.931 . S
N136 C98 1.343 . S
N136 C119 1.343 . S
N137 C105 1.343 . S
N137 C112 1.343 . S
C138 C139 1.384 . S
C138 C140 1.384 . S
C138 H166 0.931 . S
C139 C138 1.384 . S
C139 C142 1.382 . S
C140 C138 1.384 . S
C140 C141 1.381 . S
C140 H167 0.930 . S
C141 C140 1.381 . S
C141 C143 1.381 . S
C141 C144 1.487 . S
C142 C139 1.382 . S
C142 C143 1.387 . S
C142 H168 0.930 . S
C143 C141 1.381 . S
C143 C142 1.387 . S
C143 H169 0.931 . S
C144 C141 1.487 . S
C144 C151 1.399 . S
C144 N182 1.343 . S
C145 C146 1.384 . S
C145 C147 1.384 . S
C145 H170 0.931 . S
C146 C145 1.384 . S
C146 C149 1.382 . S
C147 C145 1.384 . S
C147 C148 1.381 . S
C147 H171 0.930 . S
C148 C147 1.381 . S
C148 C150 1.381 . S
C148 C151 1.487 . S
C149 C146 1.382 . S
C149 C150 1.387 . S
C149 H172 0.930 . S
C150 C148 1.381 . S
C150 C149 1.387 . S
C150 H173 0.931 . S
C151 C144 1.399 . S
C151 C148 1.487 . S
C151 N183 1.343 . S
C152 C153 1.384 . S
C152 C154 1.384 . S
C152 H174 0.931 . S
C153 C152 1.384 . S
C153 C156 1.382 . S
C154 C152 1.384 . S
C154 C155 1.381 . S
C154 H175 0.930 . S
C155 C154 1.381 . S
C155 C157 1.381 . S
C155 C158 1.487 . S
C156 C153 1.382 . S
C156 C157 1.387 . S
C156 H176 0.930 . S
C157 C155 1.381 . S
C157 C156 1.387 . S
C157 H177 0.931 . S
C158 C155 1.487 . S
C158 C165 1.399 . S
C158 N183 1.343 . S
C159 C160 1.384 . S
C159 C161 1.384 . S
C159 H178 0.931 . S
C160 C159 1.384 . S
C160 C163 1.382 . S
C161 C159 1.384 . S
C161 C162 1.381 . S
C161 H179 0.930 . S
C162 C161 1.381 . S
C162 C164 1.381 . S
C162 C165 1.487 . S
C163 C160 1.382 . S
C163 C164 1.387 . S
C163 H180 0.930 . S
C164 C162 1.381 . S
C164 C163 1.387 . S
C164 H181 0.931 . S
C165 C158 1.399 . S
C165 C162 1.487 . S
C165 N182 1.343 . S
H166 C138 0.931 . S
H167 C140 0.930 . S
H168 C142 0.930 . S
H169 C143 0.931 . S
H170 C145 0.931 . S
H171 C147 0.930 . S
H172 C149 0.930 . S
H173 C150 0.931 . S
H174 C152 0.931 . S
H175 C154 0.930 . S
H176 C156 0.930 . S
H177 C157 0.931 . S
H178 C159 0.931 . S
H179 C161 0.930 . S
H180 C163 0.930 . S
H181 C164 0.931 . S
N182 C144 1.343 . S
N182 C165 1.343 . S
N183 C151 1.343 . S
N183 C158 1.343 . S
C184 C185 1.384 . S
C184 C186 1.384 . S
C184 H212 0.931 . S
C185 C184 1.384 . S
C185 C188 1.382 . S
C186 C184 1.384 . S
C186 C187 1.381 . S
C186 H213 0.930 . S
C187 C186 1.381 . S
C187 C189 1.381 . S
C187 C190 1.487 . S
C188 C185 1.382 . S
C188 C189 1.387 . S
C188 H214 0.930 . S
C189 C187 1.381 . S
C189 C188 1.387 . S
C189 H215 0.931 . S
C190 C187 1.487 . S
C190 C197 1.399 . S
C190 N228 1.343 . S
C191 C192 1.384 . S
C191 C193 1.384 . S
C191 H216 0.931 . S
C192 C191 1.384 . S
C192 C195 1.382 . S
C193 C191 1.384 . S
C193 C194 1.381 . S
C193 H217 0.930 . S
C194 C193 1.381 . S
C194 C196 1.381 . S
C194 C197 1.487 . S
C195 C192 1.382 . S
C195 C196 1.387 . S
C195 H218 0.930 . S
C196 C194 1.381 . S
C196 C195 1.387 . S
C196 H219 0.931 . S
C197 C190 1.399 . S
C197 C194 1.487 . S
C197 N229 1.343 . S
C198 C199 1.384 . S
C198 C200 1.384 . S
C198 H220 0.931 . S
C199 C198 1.384 . S
C199 C202 1.382 . S
C200 C198 1.384 . S
C200 C201 1.381 . S
C200 H221 0.930 . S
C201 C200 1.381 . S
C201 C203 1.381 . S
C201 C204 1.487 . S
C202 C199 1.382 . S
C202 C203 1.387 . S
C202 H222 0.930 . S
C203 C201 1.381 . S
C203 C202 1.387 . S
C203 H223 0.931 . S
C204 C201 1.487 . S
C204 C211 1.399 . S
C204 N229 1.343 . S
C205 C206 1.384 . S
C205 C207 1.384 . S
C205 H224 0.931 . S
C206 C205 1.384 . S
C206 C209 1.382 . S
C207 C205 1.384 . S
C207 C208 1.381 . S
C207 H225 0.930 . S
C208 C207 1.381 . S
C208 C210 1.381 . S
C208 C211 1.487 . S
C209 C206 1.382 . S
C209 C210 1.387 . S
C209 H226 0.930 . S
C210 C208 1.381 . S
C210 C209 1.387 . S
C210 H227 0.931 . S
C211 C204 1.399 . S
C211 C208 1.487 . S
C211 N228 1.343 . S
H212 C184 0.931 . S
H213 C186 0.930 . S
H214 C188 0.930 . S
H215 C189 0.931 . S
H216 C191 0.931 . S
H217 C193 0.930 . S
H218 C195 0.930 . S
H219 C196 0.931 . S
H220 C198 0.931 . S
H221 C200 0.930 . S
H222 C202 0.930 . S
H223 C203 0.931 . S
H224 C205 0.931 . S
H225 C207 0.930 . S
H226 C209 0.930 . S
H227 C210 0.931 . S
N228 C190 1.343 . S
N228 C211 1.343 . S
N229 C197 1.343 . S
N229 C204 1.343 . S
C230 C231 1.384 . S
C230 C232 1.384 . S
C230 H258 0.931 . S
C231 C230 1.384 . S
C231 C234 1.382 . S
C232 C230 1.384 . S
C232 C233 1.381 . S
C232 H259 0.930 . S
C233 C232 1.381 . S
C233 C235 1.381 . S
C233 C236 1.487 . S
C234 C231 1.382 . S
C234 C235 1.387 . S
C234 H260 0.930 . S
C235 C233 1.381 . S
C235 C234 1.387 . S
C235 H261 0.931 . S
C236 C233 1.487 . S
C236 C243 1.399 . S
C236 N274 1.343 . S
C237 C238 1.384 . S
C237 C239 1.384 . S
C237 H262 0.931 . S
C238 C237 1.384 . S
C238 C241 1.382 . S
C239 C237 1.384 . S
C239 C240 1.381 . S
C239 H263 0.930 . S
C240 C239 1.381 . S
C240 C242 1.381 . S
C240 C243 1.487 . S
C241 C238 1.382 . S
C241 C242 1.387 . S
C241 H264 0.930 . S
C242 C240 1.381 . S
C242 C241 1.387 . S
C242 H265 0.931 . S
C243 C236 1.399 . S
C243 C240 1.487 . S
C243 N275 1.343 . S
C244 C245 1.384 . S
C244 C246 1.384 . S
C244 H266 0.931 . S
C245 C244 1.384 . S
C245 C248 1.382 . S
C246 C244 1.384 . S
C246 C247 1.381 . S
C246 H267 0.930 . S
C247 C246 1.381 . S
C247 C249 1.381 . S
C247 C250 1.487 . S
C248 C245 1.382 . S
C248 C249 1.387 . S
C248 H268 0.930 . S
C249 C247 1.381 . S
C249 C248 1.387 . S
C249 H269 0.931 . S
C250 C247 1.487 . S
C250 C257 1.399 . S
C250 N275 1.343 . S
C251 C252 1.384 . S
C251 C253 1.384 . S
C251 H270 0.931 . S
C252 C251 1.384 . S
C252 C255 1.382 . S
C253 C251 1.384 . S
C253 C254 1.381 . S
C253 H271 0.930 . S
C254 C253 1.381 . S
C254 C256 1.381 . S
C254 C257 1.487 . S
C255 C252 1.382 . S
C255 C256 1.387 . S
C255 H272 0.930 . S
C256 C254 1.381 . S
C256 C255 1.387 . S
C256 H273 0.931 . S
C257 C250 1.399 . S
C257 C254 1.487 . S
C257 N274 1.343 . S
H258 C230 0.931 . S
H259 C232 0.930 . S
H260 C234 0.930 . S
H261 C235 0.931 . S
H262 C237 0.931 . S
H263 C239 0.930 . S
H264 C241 0.930 . S
H265 C242 0.931 . S
H266 C244 0.931 . S
H267 C246 0.930 . S
H268 C248 0.930 . S
H269 C249 0.931 . S
H270 C251 0.931 . S
H271 C253 0.930 . S
H272 C255 0.930 . S
H273 C256 0.931 . S
N274 C236 1.343 . S
N274 C257 1.343 . S
N275 C243 1.343 . S
N275 C250 1.343 . S
C276 C277 1.384 . S
C276 C278 1.384 . S
C276 H304 0.931 . S
C277 C276 1.384 . S
C277 C280 1.382 . S
C278 C276 1.384 . S
C278 C279 1.381 . S
C278 H305 0.930 . S
C279 C278 1.381 . S
C279 C281 1.381 . S
C279 C282 1.487 . S
C280 C277 1.382 . S
C280 C281 1.387 . S
C280 H306 0.930 . S
C281 C279 1.381 . S
C281 C280 1.387 . S
C281 H307 0.931 . S
C282 C279 1.487 . S
C282 C289 1.399 . S
C282 N320 1.343 . S
C283 C284 1.384 . S
C283 C285 1.384 . S
C283 H308 0.931 . S
C284 C283 1.384 . S
C284 C287 1.382 . S
C285 C283 1.384 . S
C285 C286 1.381 . S
C285 H309 0.930 . S
C286 C285 1.381 . S
C286 C288 1.381 . S
C286 C289 1.487 . S
C287 C284 1.382 . S
C287 C288 1.387 . S
C287 H310 0.930 . S
C288 C286 1.381 . S
C288 C287 1.387 . S
C288 H311 0.931 . S
C289 C282 1.399 . S
C289 C286 1.487 . S
C289 N321 1.343 . S
C290 C291 1.384 . S
C290 C292 1.384 . S
C290 H312 0.931 . S
C291 C290 1.384 . S
C291 C294 1.382 . S
C292 C290 1.384 . S
C292 C293 1.381 . S
C292 H313 0.930 . S
C293 C292 1.381 . S
C293 C295 1.381 . S
C293 C296 1.487 . S
C294 C291 1.382 . S
C294 C295 1.387 . S
C294 H314 0.930 . S
C295 C293 1.381 . S
C295 C294 1.387 . S
C295 H315 0.931 . S
C296 C293 1.487 . S
C296 C303 1.399 . S
C296 N321 1.343 . S
C297 C298 1.384 . S
C297 C299 1.384 . S
C297 H316 0.931 . S
C298 C297 1.384 . S
C298 C301 1.382 . S
C299 C297 1.384 . S
C299 C300 1.381 . S
C299 H317 0.930 . S
C300 C299 1.381 . S
C300 C302 1.381 . S
C300 C303 1.487 . S
C301 C298 1.382 . S
C301 C302 1.387 . S
C301 H318 0.930 . S
C302 C300 1.381 . S
C302 C301 1.387 . S
C302 H319 0.931 . S
C303 C296 1.399 . S
C303 C300 1.487 . S
C303 N320 1.343 . S
H304 C276 0.931 . S
H305 C278 0.930 . S
H306 C280 0.930 . S
H307 C281 0.931 . S
H308 C283 0.931 . S
H309 C285 0.930 . S
H310 C287 0.930 . S
H311 C288 0.931 . S
H312 C290 0.931 . S
H313 C292 0.930 . S
H314 C294 0.930 . S
H315 C295 0.931 . S
H316 C297 0.931 . S
H317 C299 0.930 . S
H318 C301 0.930 . S
H319 C302 0.931 . S
N320 C282 1.343 . S
N320 C303 1.343 . S
N321 C289 1.343 . S
N321 C296 1.343 . S
C322 C323 1.384 . S
C322 C324 1.384 . S
C322 H350 0.931 . S
C323 C322 1.384 . S
C323 C326 1.382 . S
C324 C322 1.384 . S
C324 C325 1.381 . S
C324 H351 0.930 . S
C325 C324 1.381 . S
C325 C327 1.381 . S
C325 C328 1.487 . S
C326 C323 1.382 . S
C326 C327 1.387 . S
C326 H352 0.930 . S
C327 C325 1.381 . S
C327 C326 1.387 . S
C327 H353 0.931 . S
C328 C325 1.487 . S
C328 C335 1.399 . S
C328 N366 1.343 . S
C329 C330 1.384 . S
C329 C331 1.384 . S
C329 H354 0.931 . S
C330 C329 1.384 . S
C330 C333 1.382 . S
C331 C329 1.384 . S
C331 C332 1.381 . S
C331 H355 0.930 . S
C332 C331 1.381 . S
C332 C334 1.381 . S
C332 C335 1.487 . S
C333 C330 1.382 . S
C333 C334 1.387 . S
C333 H356 0.930 . S
C334 C332 1.381 . S
C334 C333 1.387 . S
C334 H357 0.931 . S
C335 C328 1.399 . S
C335 C332 1.487 . S
C335 N367 1.343 . S
C336 C337 1.384 . S
C336 C338 1.384 . S
C336 H358 0.931 . S
C337 C336 1.384 . S
C337 C340 1.382 . S
C338 C336 1.384 . S
C338 C339 1.381 . S
C338 H359 0.930 . S
C339 C338 1.381 . S
C339 C341 1.381 . S
C339 C342 1.487 . S
C340 C337 1.382 . S
C340 C341 1.387 . S
C340 H360 0.930 . S
C341 C339 1.381 . S
C341 C340 1.387 . S
C341 H361 0.931 . S
C342 C339 1.487 . S
C342 C349 1.399 . S
C342 N367 1.343 . S
C343 C344 1.384 . S
C343 C345 1.384 . S
C343 H362 0.931 . S
C344 C343 1.384 . S
C344 C347 1.382 . S
C345 C343 1.384 . S
C345 C346 1.381 . S
C345 H363 0.930 . S
C346 C345 1.381 . S
C346 C348 1.381 . S
C346 C349 1.487 . S
C347 C344 1.382 . S
C347 C348 1.387 . S
C347 H364 0.930 . S
C348 C346 1.381 . S
C348 C347 1.387 . S
C348 H365 0.931 . S
C349 C342 1.399 . S
C349 C346 1.487 . S
C349 N366 1.343 . S
H350 C322 0.931 . S
H351 C324 0.930 . S
H352 C326 0.930 . S
H353 C327 0.931 . S
H354 C329 0.931 . S
H355 C331 0.930 . S
H356 C333 0.930 . S
H357 C334 0.931 . S
H358 C336 0.931 . S
H359 C338 0.930 . S
H360 C340 0.930 . S
H361 C341 0.931 . S
H362 C343 0.931 . S
H363 C345 0.930 . S
H364 C347 0.930 . S
H365 C348 0.931 . S
N366 C328 1.343 . S
N366 C349 1.343 . S
N367 C335 1.343 . S
N367 C342 1.343 . S
C368 O370 1.247 . S
C368 O372 1.258 . S
C369 O376 1.247 . S
C369 O377 1.258 . S
O370 C368 1.247 . S
O370 Zn371 2.029 . S
Zn371 O370 2.029 . S
Zn371 O375 2.034 1_655 S
Zn371 O377 2.034 1_655 S
Zn371 O378 2.029 . S
O372 C368 1.258 . S
O372 Zn373 2.028 1_655 S
Zn373 O372 2.028 1_455 S
Zn373 O374 2.035 . S
Zn373 O376 2.035 . S
Zn373 O379 2.028 1_455 S
O374 Zn373 2.035 . S
O374 C380 1.247 . S
O375 Zn371 2.034 1_455 S
O375 C380 1.258 . S
O376 C369 1.247 . S
O376 Zn373 2.035 . S
O377 C369 1.258 . S
O377 Zn371 2.034 1_455 S
O378 Zn371 2.029 . S
O378 C381 1.247 . S
O379 Zn373 2.028 1_655 S
O379 C381 1.258 . S
C380 O374 1.247 . S
C380 O375 1.258 . S
C381 O378 1.247 . S
C381 O379 1.258 . S
C382 O384 1.247 . S
C382 O386 1.258 . S
C383 O390 1.247 . S
C383 O391 1.258 . S
O384 C382 1.247 . S
O384 Zn385 2.035 . S
Zn385 O384 2.035 . S
Zn385 O389 2.028 1_545 S
Zn385 O391 2.028 1_545 S
Zn385 O392 2.035 . S
O386 C382 1.258 . S
O386 Zn387 2.034 1_545 S
Zn387 O386 2.034 1_565 S
Zn387 O388 2.029 . S
Zn387 O390 2.029 . S
Zn387 O393 2.034 1_565 S
O388 Zn387 2.029 . S
O388 C394 1.247 . S
O389 Zn385 2.028 1_565 S
O389 C394 1.258 . S
O390 C383 1.247 . S
O390 Zn387 2.029 . S
O391 C383 1.258 . S
O391 Zn385 2.028 1_565 S
O392 Zn385 2.035 . S
O392 C395 1.247 . S
O393 Zn387 2.034 1_545 S
O393 C395 1.258 . S
C394 O388 1.247 . S
C394 O389 1.258 . S
C395 O392 1.247 . S
C395 O393 1.258 . S
C396 O398 1.247 . S
C396 O400 1.258 . S
C397 O404 1.247 . S
C397 O405 1.258 . S
O398 C396 1.247 . S
O398 Zn399 2.029 . S
Zn399 O398 2.029 . S
Zn399 O403 2.034 1_655 S
Zn399 O405 2.034 1_655 S
Zn399 O406 2.029 . S
O400 C396 1.258 . S
O400 Zn401 2.028 1_655 S
Zn401 O400 2.028 1_455 S
Zn401 O402 2.035 . S
Zn401 O404 2.035 . S
Zn401 O407 2.028 1_455 S
O402 Zn401 2.035 . S
O402 C408 1.247 . S
O403 Zn399 2.034 1_455 S
O403 C408 1.258 . S
O404 C397 1.247 . S
O404 Zn401 2.035 . S
O405 C397 1.258 . S
O405 Zn399 2.034 1_455 S
O406 Zn399 2.029 . S
O406 C409 1.247 . S
O407 Zn401 2.028 1_655 S
O407 C409 1.258 . S
C408 O402 1.247 . S
C408 O403 1.258 . S
C409 O406 1.247 . S
C409 O407 1.258 . S
C410 O412 1.247 . S
C410 O414 1.258 . S
C411 O418 1.247 . S
C411 O419 1.258 . S
O412 C410 1.247 . S
O412 Zn413 2.035 . S
Zn413 O412 2.035 . S
Zn413 O417 2.028 1_545 S
Zn413 O419 2.028 1_545 S
Zn413 O420 2.035 . S
O414 C410 1.258 . S
O414 Zn415 2.034 1_545 S
Zn415 O414 2.034 1_565 S
Zn415 O416 2.029 . S
Zn415 O418 2.029 . S
Zn415 O421 2.034 1_565 S
O416 Zn415 2.029 . S
O416 C422 1.247 . S
O417 Zn413 2.028 1_565 S
O417 C422 1.258 . S
O418 C411 1.247 . S
O418 Zn415 2.029 . S
O419 C411 1.258 . S
O419 Zn413 2.028 1_565 S
O420 Zn413 2.035 . S
O420 C423 1.247 . S
O421 Zn415 2.034 1_545 S
O421 C423 1.258 . S
C422 O416 1.247 . S
C422 O417 1.258 . S
C423 O420 1.247 . S
C423 O421 1.258 . S
C424 O426 1.247 . S
C424 O428 1.258 . S
C425 O432 1.247 . S
C425 O433 1.258 . S
O426 C424 1.247 . S
O426 Zn427 2.028 . S
Zn427 O426 2.028 . S
Zn427 O431 2.035 . S
Zn427 O433 2.035 1_554 S
Zn427 O434 2.028 1_554 S
O428 C424 1.258 . S
O428 Zn429 2.035 . S
Zn429 O428 2.035 . S
Zn429 O430 2.028 . S
Zn429 O432 2.028 1_554 S
Zn429 O435 2.035 1_554 S
O430 Zn429 2.028 . S
O430 C436 1.247 . S
O431 Zn427 2.035 . S
O431 C436 1.258 . S
O432 C425 1.247 . S
O432 Zn429 2.028 1_556 S
O433 C425 1.258 . S
O433 Zn427 2.035 1_556 S
O434 Zn427 2.028 1_556 S
O434 C437 1.247 . S
O435 Zn429 2.035 1_556 S
O435 C437 1.258 . S
C436 O430 1.247 . S
C436 O431 1.258 . S
C437 O434 1.247 . S
C437 O435 1.258 . S
C438 O440 1.247 . S
C438 O442 1.258 . S
C439 O446 1.247 . S
C439 O447 1.258 . S
O440 C438 1.247 . S
O440 Zn441 2.028 . S
Zn441 O440 2.028 . S
Zn441 O445 2.035 . S
Zn441 O447 2.035 1_554 S
Zn441 O448 2.028 1_554 S
O442 C438 1.258 . S
O442 Zn443 2.035 . S
Zn443 O442 2.035 . S
Zn443 O444 2.028 . S
Zn443 O446 2.028 1_554 S
Zn443 O449 2.035 1_554 S
O444 Zn443 2.028 . S
O444 C450 1.247 . S
O445 Zn441 2.035 . S
O445 C450 1.258 . S
O446 C439 1.247 . S
O446 Zn443 2.028 1_556 S
O447 C439 1.258 . S
O447 Zn441 2.035 1_556 S
O448 Zn441 2.028 1_556 S
O448 C451 1.247 . S
O449 Zn443 2.035 1_556 S
O449 C451 1.258 . S
C450 O444 1.247 . S
C450 O445 1.258 . S
C451 O448 1.247 . S
C451 O449 1.258 . S
C452 O454 1.247 . S
C452 O456 1.258 . S
C453 O460 1.247 . S
C453 O461 1.258 . S
O454 C452 1.247 . S
O454 Zn455 2.028 1_556 S
Zn455 O454 2.028 1_554 S
Zn455 O459 2.035 1_554 S
Zn455 O461 2.035 . S
Zn455 O462 2.028 . S
O456 C452 1.258 . S
O456 Zn457 2.035 1_556 S
Zn457 O456 2.035 1_554 S
Zn457 O458 2.028 1_554 S
Zn457 O460 2.028 . S
Zn457 O463 2.035 . S
O458 Zn457 2.028 1_556 S
O458 C464 1.247 . S
O459 Zn455 2.035 1_556 S
O459 C464 1.258 . S
O460 C453 1.247 . S
O460 Zn457 2.028 . S
O461 C453 1.258 . S
O461 Zn455 2.035 . S
O462 Zn455 2.028 . S
O462 C465 1.247 . S
O463 Zn457 2.035 . S
O463 C465 1.258 . S
C464 O458 1.247 . S
C464 O459 1.258 . S
C465 O462 1.247 . S
C465 O463 1.258 . S
C466 O468 1.247 . S
C466 O470 1.258 . S
C467 O474 1.247 . S
C467 O475 1.258 . S
O468 C466 1.247 . S
O468 Zn469 2.028 . S
Zn469 O468 2.028 . S
Zn469 O473 2.035 . S
Zn469 O475 2.035 1_554 S
Zn469 O476 2.028 1_554 S
O470 C466 1.258 . S
O470 Zn471 2.035 . S
Zn471 O470 2.035 . S
Zn471 O472 2.028 . S
Zn471 O474 2.028 1_554 S
Zn471 O477 2.035 1_554 S
O472 Zn471 2.028 . S
O472 C478 1.247 . S
O473 Zn469 2.035 . S
O473 C478 1.258 . S
O474 C467 1.247 . S
O474 Zn471 2.028 1_556 S
O475 C467 1.258 . S
O475 Zn469 2.035 1_556 S
O476 Zn469 2.028 1_556 S
O476 C479 1.247 . S
O477 Zn471 2.035 1_556 S
O477 C479 1.258 . S
C478 O472 1.247 . S
C478 O473 1.258 . S
C479 O476 1.247 . S
C479 O477 1.258 . S
C480 C481 1.369 . S
C480 C482 1.419 . S
C480 H484 0.930 . S
C481 C480 1.369 . S
C481 C490 1.429 . S
C482 C480 1.419 . S
C482 C483 1.363 . S
C482 H485 0.929 . S
C483 C482 1.363 . S
C483 C489 1.428 . S
H484 C480 0.930 . S
H485 C482 0.929 . S
S486 N487 1.613 . S
S486 N488 1.610 . S
N487 S486 1.613 . S
N487 C490 1.350 . S
N488 S486 1.610 . S
N488 C489 1.351 . S
C489 C483 1.428 . S
C489 N488 1.351 . S
C489 C490 1.434 . S
C490 C481 1.429 . S
C490 N487 1.350 . S
C490 C489 1.434 . S
C491 C492 1.369 . S
C491 C493 1.419 . S
C491 H495 0.930 . S
C492 C491 1.369 . S
C492 C501 1.429 . S
C493 C491 1.419 . S
C493 C494 1.363 . S
C493 H496 0.929 . S
C494 C493 1.363 . S
C494 C500 1.428 . S
H495 C491 0.930 . S
H496 C493 0.929 . S
S497 N498 1.613 . S
S497 N499 1.610 . S
N498 S497 1.613 . S
N498 C501 1.350 . S
N499 S497 1.610 . S
N499 C500 1.351 . S
C500 C494 1.428 . S
C500 N499 1.351 . S
C500 C501 1.434 . S
C501 C492 1.429 . S
C501 N498 1.350 . S
C501 C500 1.434 . S
C502 C503 1.369 . S
C502 C504 1.419 . S
C502 H506 0.930 . S
C503 C502 1.369 . S
C503 C512 1.429 . S
C504 C502 1.419 . S
C504 C505 1.363 . S
C504 H507 0.929 . S
C505 C504 1.363 . S
C505 C511 1.428 . S
H506 C502 0.930 . S
H507 C504 0.929 . S
S508 N509 1.613 . S
S508 N510 1.610 . S
N509 S508 1.613 . S
N509 C512 1.350 . S
N510 S508 1.610 . S
N510 C511 1.351 . S
C511 C505 1.428 . S
C511 N510 1.351 . S
C511 C512 1.434 . S
C512 C503 1.429 . S
C512 N509 1.350 . S
C512 C511 1.434 . S
C513 C514 1.369 . S
C513 C515 1.419 . S
C513 H517 0.930 . S
C514 C513 1.369 . S
C514 C523 1.429 . S
C515 C513 1.419 . S
C515 C516 1.363 . S
C515 H518 0.929 . S
C516 C515 1.363 . S
C516 C522 1.428 . S
H517 C513 0.930 . S
H518 C515 0.929 . S
S519 N520 1.613 . S
S519 N521 1.610 . S
N520 S519 1.613 . S
N520 C523 1.350 . S
N521 S519 1.610 . S
N521 C522 1.351 . S
C522 C516 1.428 . S
C522 N521 1.351 . S
C522 C523 1.434 . S
C523 C514 1.429 . S
C523 N520 1.350 . S
C523 C522 1.434 . S
C524 C525 1.369 . S
C524 C526 1.419 . S
C524 H528 0.930 . S
C525 C524 1.369 . S
C525 C534 1.429 . S
C526 C524 1.419 . S
C526 C527 1.363 . S
C526 H529 0.929 . S
C527 C526 1.363 . S
C527 C533 1.428 . S
H528 C524 0.930 . S
H529 C526 0.929 . S
S530 N531 1.613 . S
S530 N532 1.610 . S
N531 S530 1.613 . S
N531 C534 1.350 . S
N532 S530 1.610 . S
N532 C533 1.351 . S
C533 C527 1.428 . S
C533 N532 1.351 . S
C533 C534 1.434 . S
C534 C525 1.429 . S
C534 N531 1.350 . S
C534 C533 1.434 . S
C535 C536 1.369 . S
C535 C537 1.419 . S
C535 H539 0.930 . S
C536 C535 1.369 . S
C536 C545 1.429 . S
C537 C535 1.419 . S
C537 C538 1.363 . S
C537 H540 0.929 . S
C538 C537 1.363 . S
C538 C544 1.428 . S
H539 C535 0.930 . S
H540 C537 0.929 . S
S541 N542 1.613 . S
S541 N543 1.610 . S
N542 S541 1.613 . S
N542 C545 1.350 . S
N543 S541 1.610 . S
N543 C544 1.351 . S
C544 C538 1.428 . S
C544 N543 1.351 . S
C544 C545 1.434 . S
C545 C536 1.429 . S
C545 N542 1.350 . S
C545 C544 1.434 . S
C546 C547 1.369 . S
C546 C548 1.419 . S
C546 H550 0.930 . S
C547 C546 1.369 . S
C547 C556 1.429 . S
C548 C546 1.419 . S
C548 C549 1.363 . S
C548 H551 0.929 . S
C549 C548 1.363 . S
C549 C555 1.428 . S
H550 C546 0.930 . S
H551 C548 0.929 . S
S552 N553 1.613 . S
S552 N554 1.610 . S
N553 S552 1.613 . S
N553 C556 1.350 . S
N554 S552 1.610 . S
N554 C555 1.351 . S
C555 C549 1.428 . S
C555 N554 1.351 . S
C555 C556 1.434 . S
C556 C547 1.429 . S
C556 N553 1.350 . S
C556 C555 1.434 . S
C557 C558 1.369 . S
C557 C559 1.419 . S
C557 H561 0.930 . S
C558 C557 1.369 . S
C558 C567 1.429 . S
C559 C557 1.419 . S
C559 C560 1.363 . S
C559 H562 0.929 . S
C560 C559 1.363 . S
C560 C566 1.428 . S
H561 C557 0.930 . S
H562 C559 0.929 . S
S563 N564 1.613 . S
S563 N565 1.610 . S
N564 S563 1.613 . S
N564 C567 1.350 . S
N565 S563 1.610 . S
N565 C566 1.351 . S
C566 C560 1.428 . S
C566 N565 1.351 . S
C566 C567 1.434 . S
C567 C558 1.429 . S
C567 N564 1.350 . S
C567 C566 1.434 . S
C568 C569 1.369 . S
C568 C570 1.419 . S
C568 H572 0.930 . S
C569 C568 1.369 . S
C569 C578 1.429 . S
C570 C568 1.419 . S
C570 C571 1.363 . S
C570 H573 0.929 . S
C571 C570 1.363 . S
C571 C577 1.428 . S
H572 C568 0.930 . S
H573 C570 0.929 . S
S574 N575 1.613 . S
S574 N576 1.610 . S
N575 S574 1.613 . S
N575 C578 1.350 . S
N576 S574 1.610 . S
N576 C577 1.351 . S
C577 C571 1.428 . S
C577 N576 1.351 . S
C577 C578 1.434 . S
C578 C569 1.429 . S
C578 N575 1.350 . S
C578 C577 1.434 . S
C579 C580 1.369 . S
C579 C581 1.419 . S
C579 H583 0.930 . S
C580 C579 1.369 . S
C580 C589 1.429 . S
C581 C579 1.419 . S
C581 C582 1.363 . S
C581 H584 0.929 . S
C582 C581 1.363 . S
C582 C588 1.428 . S
H583 C579 0.930 . S
H584 C581 0.929 . S
S585 N586 1.613 . S
S585 N587 1.610 . S
N586 S585 1.613 . S
N586 C589 1.350 . S
N587 S585 1.610 . S
N587 C588 1.351 . S
C588 C582 1.428 . S
C588 N587 1.351 . S
C588 C589 1.434 . S
C589 C580 1.429 . S
C589 N586 1.350 . S
C589 C588 1.434 . S
C590 C591 1.369 . S
C590 C592 1.419 . S
C590 H594 0.930 . S
C591 C590 1.369 . S
C591 C600 1.429 . S
C592 C590 1.419 . S
C592 C593 1.363 . S
C592 H595 0.929 . S
C593 C592 1.363 . S
C593 C599 1.428 . S
H594 C590 0.930 . S
H595 C592 0.929 . S
S596 N597 1.613 . S
S596 N598 1.610 . S
N597 S596 1.613 . S
N597 C600 1.350 . S
N598 S596 1.610 . S
N598 C599 1.351 . S
C599 C593 1.428 . S
C599 N598 1.351 . S
C599 C600 1.434 . S
C600 C591 1.429 . S
C600 N597 1.350 . S
C600 C599 1.434 . S
C601 C602 1.369 . S
C601 C603 1.419 . S
C601 H605 0.930 . S
C602 C601 1.369 . S
C602 C611 1.429 . S
C603 C601 1.419 . S
C603 C604 1.363 . S
C603 H606 0.929 . S
C604 C603 1.363 . S
C604 C610 1.428 . S
H605 C601 0.930 . S
H606 C603 0.929 . S
S607 N608 1.613 . S
S607 N609 1.610 . S
N608 S607 1.613 . S
N608 C611 1.350 . S
N609 S607 1.610 . S
N609 C610 1.351 . S
C610 C604 1.428 . S
C610 N609 1.351 . S
C610 C611 1.434 . S
C611 C602 1.429 . S
C611 N608 1.350 . S
C611 C610 1.434 . S
C612 C613 1.369 . S
C612 C614 1.419 . S
C612 H616 0.930 . S
C613 C612 1.369 . S
C613 C622 1.429 . S
C614 C612 1.419 . S
C614 C615 1.363 . S
C614 H617 0.929 . S
C615 C614 1.363 . S
C615 C621 1.428 . S
H616 C612 0.930 . S
H617 C614 0.929 . S
S618 N619 1.613 . S
S618 N620 1.610 . S
N619 S618 1.613 . S
N619 C622 1.350 . S
N620 S618 1.610 . S
N620 C621 1.351 . S
C621 C615 1.428 . S
C621 N620 1.351 . S
C621 C622 1.434 . S
C622 C613 1.429 . S
C622 N619 1.350 . S
C622 C621 1.434 . S
C623 C624 1.369 . S
C623 C625 1.419 . S
C623 H627 0.930 . S
C624 C623 1.369 . S
C624 C633 1.429 . S
C625 C623 1.419 . S
C625 C626 1.363 . S
C625 H628 0.929 . S
C626 C625 1.363 . S
C626 C632 1.428 . S
H627 C623 0.930 . S
H628 C625 0.929 . S
S629 N630 1.613 . S
S629 N631 1.610 . S
N630 S629 1.613 . S
N630 C633 1.350 . S
N631 S629 1.610 . S
N631 C632 1.351 . S
C632 C626 1.428 . S
C632 N631 1.351 . S
C632 C633 1.434 . S
C633 C624 1.429 . S
C633 N630 1.350 . S
C633 C632 1.434 . S
C634 C635 1.369 . S
C634 C636 1.419 . S
C634 H638 0.930 . S
C635 C634 1.369 . S
C635 C644 1.429 . S
C636 C634 1.419 . S
C636 C637 1.363 . S
C636 H639 0.929 . S
C637 C636 1.363 . S
C637 C643 1.428 . S
H638 C634 0.930 . S
H639 C636 0.929 . S
S640 N641 1.613 . S
S640 N642 1.610 . S
N641 S640 1.613 . S
N641 C644 1.350 . S
N642 S640 1.610 . S
N642 C643 1.351 . S
C643 C637 1.428 . S
C643 N642 1.351 . S
C643 C644 1.434 . S
C644 C635 1.429 . S
C644 N641 1.350 . S
C644 C643 1.434 . S
C645 C646 1.369 . S
C645 C647 1.419 . S
C645 H649 0.930 . S
C646 C645 1.369 . S
C646 C655 1.429 . S
C647 C645 1.419 . S
C647 C648 1.363 . S
C647 H650 0.929 . S
C648 C647 1.363 . S
C648 C654 1.428 . S
H649 C645 0.930 . S
H650 C647 0.929 . S
S651 N652 1.613 . S
S651 N653 1.610 . S
N652 S651 1.613 . S
N652 C655 1.350 . S
N653 S651 1.610 . S
N653 C654 1.351 . S
C654 C648 1.428 . S
C654 N653 1.351 . S
C654 C655 1.434 . S
C655 C646 1.429 . S
C655 N652 1.350 . S
C655 C654 1.434 . S
C656 C657 1.369 . S
C656 C658 1.419 . S
C656 H660 0.930 . S
C657 C656 1.369 . S
C657 C666 1.429 . S
C658 C656 1.419 . S
C658 C659 1.363 . S
C658 H661 0.929 . S
C659 C658 1.363 . S
C659 C665 1.428 . S
H660 C656 0.930 . S
H661 C658 0.929 . S
S662 N663 1.613 . S
S662 N664 1.610 . S
N663 S662 1.613 . S
N663 C666 1.350 . S
N664 S662 1.610 . S
N664 C665 1.351 . S
C665 C659 1.428 . S
C665 N664 1.351 . S
C665 C666 1.434 . S
C666 C657 1.429 . S
C666 N663 1.350 . S
C666 C665 1.434 . S
C667 C668 1.369 . S
C667 C669 1.419 . S
C667 H671 0.930 . S
C668 C667 1.369 . S
C668 C677 1.429 . S
C669 C667 1.419 . S
C669 C670 1.363 . S
C669 H672 0.929 . S
C670 C669 1.363 . S
C670 C676 1.428 . S
H671 C667 0.930 . S
H672 C669 0.929 . S
S673 N674 1.613 . S
S673 N675 1.610 . S
N674 S673 1.613 . S
N674 C677 1.350 . S
N675 S673 1.610 . S
N675 C676 1.351 . S
C676 C670 1.428 . S
C676 N675 1.351 . S
C676 C677 1.434 . S
C677 C668 1.429 . S
C677 N674 1.350 . S
C677 C676 1.434 . S
C678 C679 1.369 . S
C678 C680 1.419 . S
C678 H682 0.930 . S
C679 C678 1.369 . S
C679 C688 1.429 . S
C680 C678 1.419 . S
C680 C681 1.363 . S
C680 H683 0.929 . S
C681 C680 1.363 . S
C681 C687 1.428 . S
H682 C678 0.930 . S
H683 C680 0.929 . S
S684 N685 1.613 . S
S684 N686 1.610 . S
N685 S684 1.613 . S
N685 C688 1.350 . S
N686 S684 1.610 . S
N686 C687 1.351 . S
C687 C681 1.428 . S
C687 N686 1.351 . S
C687 C688 1.434 . S
C688 C679 1.429 . S
C688 N685 1.350 . S
C688 C687 1.434 . S
C689 C690 1.369 . S
C689 C691 1.419 . S
C689 H693 0.930 . S
C690 C689 1.369 . S
C690 C699 1.429 . S
C691 C689 1.419 . S
C691 C692 1.363 . S
C691 H694 0.929 . S
C692 C691 1.363 . S
C692 C698 1.428 . S
H693 C689 0.930 . S
H694 C691 0.929 . S
S695 N696 1.613 . S
S695 N697 1.610 . S
N696 S695 1.613 . S
N696 C699 1.350 . S
N697 S695 1.610 . S
N697 C698 1.351 . S
C698 C692 1.428 . S
C698 N697 1.351 . S
C698 C699 1.434 . S
C699 C690 1.429 . S
C699 N696 1.350 . S
C699 C698 1.434 . S
C700 C701 1.369 . S
C700 C702 1.419 . S
C700 H704 0.930 . S
C701 C700 1.369 . S
C701 C710 1.429 . S
C702 C700 1.419 . S
C702 C703 1.363 . S
C702 H705 0.929 . S
C703 C702 1.363 . S
C703 C709 1.428 . S
H704 C700 0.930 . S
H705 C702 0.929 . S
S706 N707 1.613 . S
S706 N708 1.610 . S
N707 S706 1.613 . S
N707 C710 1.350 . S
N708 S706 1.610 . S
N708 C709 1.351 . S
C709 C703 1.428 . S
C709 N708 1.351 . S
C709 C710 1.434 . S
C710 C701 1.429 . S
C710 N707 1.350 . S
C710 C709 1.434 . S
C711 C712 1.369 . S
C711 C713 1.419 . S
C711 H715 0.930 . S
C712 C711 1.369 . S
C712 C721 1.429 . S
C713 C711 1.419 . S
C713 C714 1.363 . S
C713 H716 0.929 . S
C714 C713 1.363 . S
C714 C720 1.428 . S
H715 C711 0.930 . S
H716 C713 0.929 . S
S717 N718 1.613 . S
S717 N719 1.610 . S
N718 S717 1.613 . S
N718 C721 1.350 . S
N719 S717 1.610 . S
N719 C720 1.351 . S
C720 C714 1.428 . S
C720 N719 1.351 . S
C720 C721 1.434 . S
C721 C712 1.429 . S
C721 N718 1.350 . S
C721 C720 1.434 . S
C722 C723 1.369 . S
C722 C724 1.419 . S
C722 H726 0.930 . S
C723 C722 1.369 . S
C723 C732 1.429 . S
C724 C722 1.419 . S
C724 C725 1.363 . S
C724 H727 0.929 . S
C725 C724 1.363 . S
C725 C731 1.428 . S
H726 C722 0.930 . S
H727 C724 0.929 . S
S728 N729 1.613 . S
S728 N730 1.610 . S
N729 S728 1.613 . S
N729 C732 1.350 . S
N730 S728 1.610 . S
N730 C731 1.351 . S
C731 C725 1.428 . S
C731 N730 1.351 . S
C731 C732 1.434 . S
C732 C723 1.429 . S
C732 N729 1.350 . S
C732 C731 1.434 . S
C733 C734 1.369 . S
C733 C735 1.419 . S
C733 H737 0.930 . S
C734 C733 1.369 . S
C734 C743 1.429 . S
C735 C733 1.419 . S
C735 C736 1.363 . S
C735 H738 0.929 . S
C736 C735 1.363 . S
C736 C742 1.428 . S
H737 C733 0.930 . S
H738 C735 0.929 . S
S739 N740 1.613 . S
S739 N741 1.610 . S
N740 S739 1.613 . S
N740 C743 1.350 . S
N741 S739 1.610 . S
N741 C742 1.351 . S
C742 C736 1.428 . S
C742 N741 1.351 . S
C742 C743 1.434 . S
C743 C734 1.429 . S
C743 N740 1.350 . S
C743 C742 1.434 . S
C744 C745 1.369 . S
C744 C746 1.419 . S
C744 H748 0.930 . S
C745 C744 1.369 . S
C745 C754 1.429 . S
C746 C744 1.419 . S
C746 C747 1.363 . S
C746 H749 0.929 . S
C747 C746 1.363 . S
C747 C753 1.428 . S
H748 C744 0.930 . S
H749 C746 0.929 . S
S750 N751 1.613 . S
S750 N752 1.610 . S
N751 S750 1.613 . S
N751 C754 1.350 . S
N752 S750 1.610 . S
N752 C753 1.351 . S
C753 C747 1.428 . S
C753 N752 1.351 . S
C753 C754 1.434 . S
C754 C745 1.429 . S
C754 N751 1.350 . S
C754 C753 1.434 . S
C755 C756 1.369 . S
C755 C757 1.419 . S
C755 H759 0.930 . S
C756 C755 1.369 . S
C756 C765 1.429 . S
C757 C755 1.419 . S
C757 C758 1.363 . S
C757 H760 0.929 . S
C758 C757 1.363 . S
C758 C764 1.428 . S
H759 C755 0.930 . S
H760 C757 0.929 . S
S761 N762 1.613 . S
S761 N763 1.610 . S
N762 S761 1.613 . S
N762 C765 1.350 . S
N763 S761 1.610 . S
N763 C764 1.351 . S
C764 C758 1.428 . S
C764 N763 1.351 . S
C764 C765 1.434 . S
C765 C756 1.429 . S
C765 N762 1.350 . S
C765 C764 1.434 . S
C766 C767 1.369 . S
C766 C768 1.419 . S
C766 H770 0.930 . S
C767 C766 1.369 . S
C767 C776 1.429 . S
C768 C766 1.419 . S
C768 C769 1.363 . S
C768 H771 0.929 . S
C769 C768 1.363 . S
C769 C775 1.428 . S
H770 C766 0.930 . S
H771 C768 0.929 . S
S772 N773 1.613 . S
S772 N774 1.610 . S
N773 S772 1.613 . S
N773 C776 1.350 . S
N774 S772 1.610 . S
N774 C775 1.351 . S
C775 C769 1.428 . S
C775 N774 1.351 . S
C775 C776 1.434 . S
C776 C767 1.429 . S
C776 N773 1.350 . S
C776 C775 1.434 . S
C777 C778 1.369 . S
C777 C779 1.419 . S
C777 H781 0.930 . S
C778 C777 1.369 . S
C778 C787 1.429 . S
C779 C777 1.419 . S
C779 C780 1.363 . S
C779 H782 0.929 . S
C780 C779 1.363 . S
C780 C786 1.428 . S
H781 C777 0.930 . S
H782 C779 0.929 . S
S783 N784 1.613 . S
S783 N785 1.610 . S
N784 S783 1.613 . S
N784 C787 1.350 . S
N785 S783 1.610 . S
N785 C786 1.351 . S
C786 C780 1.428 . S
C786 N785 1.351 . S
C786 C787 1.434 . S
C787 C778 1.429 . S
C787 N784 1.350 . S
C787 C786 1.434 . S
C788 C789 1.369 . S
C788 C790 1.419 . S
C788 H792 0.930 . S
C789 C788 1.369 . S
C789 C798 1.429 . S
C790 C788 1.419 . S
C790 C791 1.363 . S
C790 H793 0.929 . S
C791 C790 1.363 . S
C791 C797 1.428 . S
H792 C788 0.930 . S
H793 C790 0.929 . S
S794 N795 1.613 . S
S794 N796 1.610 . S
N795 S794 1.613 . S
N795 C798 1.350 . S
N796 S794 1.610 . S
N796 C797 1.351 . S
C797 C791 1.428 . S
C797 N796 1.351 . S
C797 C798 1.434 . S
C798 C789 1.429 . S
C798 N795 1.350 . S
C798 C797 1.434 . S
C799 C800 1.369 . S
C799 C801 1.419 . S
C799 H803 0.930 . S
C800 C799 1.369 . S
C800 C809 1.429 . S
C801 C799 1.419 . S
C801 C802 1.363 . S
C801 H804 0.929 . S
C802 C801 1.363 . S
C802 C808 1.428 . S
H803 C799 0.930 . S
H804 C801 0.929 . S
S805 N806 1.613 . S
S805 N807 1.610 . S
N806 S805 1.613 . S
N806 C809 1.350 . S
N807 S805 1.610 . S
N807 C808 1.351 . S
C808 C802 1.428 . S
C808 N807 1.351 . S
C808 C809 1.434 . S
C809 C800 1.429 . S
C809 N806 1.350 . S
C809 C808 1.434 . S
C810 C811 1.369 . S
C810 C812 1.419 . S
C810 H814 0.930 . S
C811 C810 1.369 . S
C811 C820 1.429 . S
C812 C810 1.419 . S
C812 C813 1.363 . S
C812 H815 0.929 . S
C813 C812 1.363 . S
C813 C819 1.428 . S
H814 C810 0.930 . S
H815 C812 0.929 . S
S816 N817 1.613 . S
S816 N818 1.610 . S
N817 S816 1.613 . S
N817 C820 1.350 . S
N818 S816 1.610 . S
N818 C819 1.351 . S
C819 C813 1.428 . S
C819 N818 1.351 . S
C819 C820 1.434 . S
C820 C811 1.429 . S
C820 N817 1.350 . S
C820 C819 1.434 . S
C821 C822 1.369 . S
C821 C823 1.419 . S
C821 H825 0.930 . S
C822 C821 1.369 . S
C822 C831 1.429 . S
C823 C821 1.419 . S
C823 C824 1.363 . S
C823 H826 0.929 . S
C824 C823 1.363 . S
C824 C830 1.428 . S
H825 C821 0.930 . S
H826 C823 0.929 . S
S827 N828 1.613 . S
S827 N829 1.610 . S
N828 S827 1.613 . S
N828 C831 1.350 . S
N829 S827 1.610 . S
N829 C830 1.351 . S
C830 C824 1.428 . S
C830 N829 1.351 . S
C830 C831 1.434 . S
C831 C822 1.429 . S
C831 N828 1.350 . S
C831 C830 1.434 . S
C483 C369 1.511 . S
C481 C15 1.517 . S
C494 C395 1.510 . S
C492 C68 1.516 . S
C505 C409 1.512 . S
C503 C107 1.518 . S
C516 C411 1.512 . S
C514 C160 1.517 . S
C525 C185 1.515 . S
C527 C408 1.512 . S
C538 C410 1.512 . S
C536 C252 1.517 . S
C549 C368 1.511 . S
C547 C277 1.516 . S
C560 C394 1.511 . S
C558 C330 1.517 . S
C571 C396 1.512 . S
C569 C323 1.518 . S
C582 C422 1.512 . S
C580 C192 1.517 . S
C593 C380 1.511 . S
C591 C245 1.515 . S
C604 C382 1.512 . S
C602 C284 1.516 . S
C615 C381 1.513 . S
C613 C61 1.515 . S
C626 C383 1.513 . S
C624 C114 1.516 . S
C637 C397 1.511 . S
C635 C153 1.515 . S
C648 C423 1.511 . S
C646 C22 1.516 . S
C659 C425 1.512 . S
C657 C337 1.519 . S
C668 C206 1.517 . S
C670 C451 1.514 . S
C679 C231 1.516 . S
C681 C464 1.513 . S
C690 C298 1.517 . S
C692 C467 1.515 . S
C701 C47 1.515 . S
C703 C465 1.509 . S
C712 C100 1.516 . S
C714 C466 1.509 . S
C723 C139 1.516 . S
C725 C424 1.509 . S
C736 C450 1.513 . S
C734 C8 1.513 . S
C747 C453 1.511 . S
C745 C1 1.514 . S
C756 C54 1.517 . S
C758 C478 1.510 . S
C767 C93 1.517 . S
C769 C436 1.508 . S
C778 C146 1.517 . S
C780 C438 1.508 . S
C791 C437 1.511 . S
C789 C199 1.518 . S
C802 C439 1.512 . S
C800 C238 1.519 . S
C811 C291 1.515 . S
C813 C452 1.514 . S
C824 C479 1.511 . S
C822 C344 1.518 . S
