# Generated by pormake.
# Topology cml, (3,6)-cn, num edge types: 1
# Building blocks:
#     Node 0, Type 0, BuildingBlock: MIDCAF_clean_linker_0, # of connection points: 3
#     Node 1, Type 0, BuildingBlock: MIDCAF_clean_linker_0, # of connection points: 3
#     Node 2, Type 0, BuildingBlock: MIDCAF_clean_linker_0, # of connection points: 3
#     Node 3, Type 0, BuildingBlock: MIDCAF_clean_linker_0, # of connection points: 3
#     Node 4, Type 0, BuildingBlock: MIDCAF_clean_linker_0, # of connection points: 3
#     Node 5, Type 0, BuildingBlock: MIDCAF_clean_linker_0, # of connection points: 3
#     Node 6, Type 0, BuildingBlock: MIDCAF_clean_linker_0, # of connection points: 3
#     Node 7, Type 0, BuildingBlock: MIDCAF_clean_linker_0, # of connection points: 3
#     Node 8, Type 1, BuildingBlock: OJICUG_clean_sbu_0, # of connection points: 6
#     Node 9, Type 1, BuildingBlock: OJICUG_clean_sbu_0, # of connection points: 6
#     Node 10, Type 1, BuildingBlock: OJICUG_clean_sbu_0, # of connection points: 6
#     Node 11, Type 1, BuildingBlock: OJICUG_clean_sbu_0, # of connection points: 6
#     Edge 12, Type (0, 1), BuildingBlock: MIFKUJ_clean_linker_0, # of connection points: 2
#     Edge 13, Type (0, 1), BuildingBlock: MIFKUJ_clean_linker_0, # of connection points: 2
#     Edge 14, Type (0, 1), BuildingBlock: MIFKUJ_clean_linker_0, # of connection points: 2
#     Edge 15, Type (0, 1), BuildingBlock: MIFKUJ_clean_linker_0, # of connection points: 2
#     Edge 16, Type (0, 1), BuildingBlock: MIFKUJ_clean_linker_0, # of connection points: 2
#     Edge 17, Type (0, 1), BuildingBlock: MIFKUJ_clean_linker_0, # of connection points: 2
#     Edge 18, Type (0, 1), BuildingBlock: MIFKUJ_clean_linker_0, # of connection points: 2
#     Edge 19, Type (0, 1), BuildingBlock: MIFKUJ_clean_linker_0, # of connection points: 2
#     Edge 20, Type (0, 1), BuildingBlock: MIFKUJ_clean_linker_0, # of connection points: 2
#     Edge 21, Type (0, 1), BuildingBlock: MIFKUJ_clean_linker_0, # of connection points: 2
#     Edge 22, Type (0, 1), BuildingBlock: MIFKUJ_clean_linker_0, # of connection points: 2
#     Edge 23, Type (0, 1), BuildingBlock: MIFKUJ_clean_linker_0, # of connection points: 2
#     Edge 24, Type (0, 1), BuildingBlock: MIFKUJ_clean_linker_0, # of connection points: 2
#     Edge 25, Type (0, 1), BuildingBlock: MIFKUJ_clean_linker_0, # of connection points: 2
#     Edge 26, Type (0, 1), BuildingBlock: MIFKUJ_clean_linker_0, # of connection points: 2
#     Edge 27, Type (0, 1), BuildingBlock: MIFKUJ_clean_linker_0, # of connection points: 2
#     Edge 28, Type (0, 1), BuildingBlock: MIFKUJ_clean_linker_0, # of connection points: 2
#     Edge 29, Type (0, 1), BuildingBlock: MIFKUJ_clean_linker_0, # of connection points: 2
#     Edge 30, Type (0, 1), BuildingBlock: MIFKUJ_clean_linker_0, # of connection points: 2
#     Edge 31, Type (0, 1), BuildingBlock: MIFKUJ_clean_linker_0, # of connection points: 2
#     Edge 32, Type (0, 1), BuildingBlock: MIFKUJ_clean_linker_0, # of connection points: 2
#     Edge 33, Type (0, 1), BuildingBlock: MIFKUJ_clean_linker_0, # of connection points: 2
#     Edge 34, Type (0, 1), BuildingBlock: MIFKUJ_clean_linker_0, # of connection points: 2
#     Edge 35, Type (0, 1), BuildingBlock: MIFKUJ_clean_linker_0, # of connection points: 2
# Relax obj value: 0.074
# Max RMSD: 0.086
# Mean RMSD: 0.082
data_MOF--net-cml--node1-OJICUG_clean_sbu_0--node2-MIDCAF_clean_linker_0--edge1-MIFKUJ_clean_linker_0
_symmetry_space_group_name_H-M    P1
_symmetry_Int_Tables_number       1
_symmetry_cell_setting            triclinic
loop_
_symmetry_equiv_pos_as_xyz
'x, y, z'
_cell_length_a     58.407594
_cell_length_b     58.839667
_cell_length_c     55.830187
_cell_angle_alpha  90.01975
_cell_angle_beta   90.044661
_cell_angle_gamma 90.03335
loop_
_atom_site_label
_atom_site_type_symbol
_atom_site_fract_x
_atom_site_fract_y
_atom_site_fract_z
_atom_type_partial_charge
C0 C 0.30075 0.41076 0.0939 0.0
C1 C 0.29457 0.38977 0.104 0.0
C2 C 0.27665 0.37729 0.09346 0.0
C3 C 0.26548 0.38548 0.073 0.0
H4 H 0.21223 0.37258 0.02444 0.0
H5 H 0.18514 0.34879 0.0027 0.0
H6 H 0.19482 0.38995 0.93941 0.0
H7 H 0.22128 0.41412 0.96124 0.0
H8 H 0.24954 0.45937 0.96462 0.0
H9 H 0.26872 0.4902 0.94347 0.0
H10 H 0.31609 0.49759 0.00245 0.0
H11 H 0.29671 0.46732 0.02382 0.0
H12 H 0.29524 0.435 0.06616 0.0
H13 H 0.31473 0.42065 0.10126 0.0
H14 H 0.27133 0.36116 0.10095 0.0
H15 H 0.25198 0.3753 0.06513 0.0
N16 N 0.24491 0.40224 0.02883 0.0
N17 N 0.2448 0.4283 0.997 0.0
N18 N 0.26976 0.43351 0.02933 0.0
C19 C 0.23636 0.40915 0.00736 0.0
C20 C 0.26144 0.44064 0.00792 0.0
C21 C 0.26161 0.4144 0.03996 0.0
C22 C 0.21903 0.39525 0.99461 0.0
C23 C 0.20848 0.37666 0.00593 0.0
C24 C 0.19303 0.36292 0.99342 0.0
C25 C 0.18787 0.36737 0.96925 0.0
C26 C 0.19812 0.3862 0.95808 0.0
C27 C 0.21344 0.40001 0.97062 0.0
C28 C 0.27166 0.46068 0.99588 0.0
C29 C 0.26387 0.46774 0.97322 0.0
C30 C 0.27492 0.48536 0.96103 0.0
C31 C 0.294 0.49629 0.9712 0.0
C32 C 0.30126 0.48977 0.9942 0.0
C33 C 0.29021 0.47223 0.0064 0.0
C34 C 0.27206 0.40628 0.06263 0.0
C35 C 0.28963 0.41893 0.07356 0.0
C36 C 0.70014 0.59216 0.59711 0.0
C37 C 0.70668 0.61302 0.60731 0.0
C38 C 0.72456 0.62541 0.59662 0.0
C39 C 0.73521 0.61736 0.57581 0.0
H40 H 0.78942 0.62803 0.52754 0.0
H41 H 0.81795 0.65062 0.50642 0.0
H42 H 0.80572 0.61161 0.44207 0.0
H43 H 0.77779 0.58865 0.46321 0.0
H44 H 0.74465 0.54655 0.46425 0.0
H45 H 0.72192 0.51914 0.44147 0.0
H46 H 0.67307 0.51572 0.49934 0.0
H47 H 0.69546 0.54301 0.52207 0.0
H48 H 0.70477 0.56824 0.5689 0.0
H49 H 0.68619 0.58233 0.60458 0.0
H50 H 0.73012 0.64144 0.60418 0.0
H51 H 0.74858 0.62753 0.5677 0.0
N52 N 0.75519 0.60019 0.53133 0.0
N53 N 0.75215 0.57626 0.49779 0.0
N54 N 0.72719 0.5717 0.53015 0.0
C55 C 0.76271 0.59375 0.50927 0.0
C56 C 0.73439 0.56512 0.50815 0.0
C57 C 0.73746 0.58913 0.54192 0.0
C58 C 0.78116 0.60658 0.49707 0.0
C59 C 0.79294 0.62413 0.50894 0.0
C60 C 0.80922 0.63717 0.4968 0.0
C61 C 0.81402 0.63302 0.47251 0.0
C62 C 0.80268 0.6151 0.46085 0.0
C63 C 0.78651 0.60199 0.47299 0.0
C64 C 0.72182 0.54717 0.49495 0.0
C65 C 0.72914 0.53985 0.4722 0.0
C66 C 0.71619 0.52411 0.45916 0.0
C67 C 0.69562 0.51556 0.46855 0.0
C68 C 0.68866 0.52236 0.49151 0.0
C69 C 0.70162 0.53792 0.50458 0.0
C70 C 0.72808 0.59683 0.56522 0.0
C71 C 0.71071 0.58416 0.57642 0.0
C72 C 0.68346 0.40073 0.07909 0.0
C73 C 0.69106 0.38195 0.09233 0.0
C74 C 0.71241 0.37225 0.08697 0.0
C75 C 0.72555 0.38073 0.06798 0.0
H76 H 0.78245 0.36666 0.02221 0.0
H77 H 0.81002 0.34197 0.00193 0.0
H78 H 0.79929 0.37877 0.93602 0.0
H79 H 0.77195 0.4035 0.95607 0.0
H80 H 0.74523 0.4493 0.95672 0.0
H81 H 0.7281 0.48098 0.93497 0.0
H82 H 0.68639 0.49681 0.9966 0.0
H83 H 0.70362 0.46554 0.01847 0.0
H84 H 0.68999 0.42368 0.0504 0.0
H85 H 0.66718 0.40869 0.08311 0.0
H86 H 0.7186 0.35774 0.097 0.0
H87 H 0.74171 0.37261 0.06384 0.0
N88 N 0.74741 0.39478 0.02321 0.0
N89 N 0.75083 0.42117 0.99187 0.0
N90 N 0.72398 0.4271 0.02228 0.0
C91 C 0.75767 0.40157 0.00254 0.0
C92 C 0.73412 0.43413 0.00173 0.0
C93 C 0.73048 0.40751 0.03316 0.0
C94 C 0.77499 0.38704 0.99077 0.0
C95 C 0.78602 0.36952 0.00341 0.0
C96 C 0.80183 0.35545 0.99187 0.0
C97 C 0.80661 0.35844 0.96742 0.0
C98 C 0.7957 0.37598 0.95483 0.0
C99 C 0.78017 0.39023 0.9664 0.0
C100 C 0.72565 0.4547 0.98929 0.0
C101 C 0.73265 0.45972 0.96577 0.0
C102 C 0.72278 0.4778 0.95324 0.0
C103 C 0.70585 0.49131 0.96403 0.0
C104 C 0.69958 0.48688 0.98787 0.0
C105 C 0.70935 0.46879 0.00035 0.0
C106 C 0.71768 0.39927 0.05435 0.0
C107 C 0.69665 0.40938 0.06043 0.0
C108 C 0.31326 0.5973 0.57853 0.0
C109 C 0.30553 0.61664 0.59081 0.0
C110 C 0.28449 0.62639 0.58429 0.0
C111 C 0.27167 0.61723 0.5654 0.0
H112 H 0.2233 0.63493 0.51397 0.0
H113 H 0.19508 0.65781 0.49287 0.0
H114 H 0.18283 0.60239 0.44371 0.0
H115 H 0.21139 0.57962 0.4644 0.0
H116 H 0.24917 0.54127 0.46002 0.0
H117 H 0.26583 0.50837 0.43991 0.0
H118 H 0.31096 0.49779 0.5002 0.0
H119 H 0.29423 0.53028 0.52045 0.0
H120 H 0.30707 0.57319 0.55077 0.0
H121 H 0.32925 0.58922 0.58345 0.0
H122 H 0.27816 0.64133 0.59351 0.0
H123 H 0.25565 0.62528 0.56056 0.0
N124 N 0.24909 0.60027 0.52226 0.0
N125 N 0.24478 0.57183 0.49311 0.0
N126 N 0.27304 0.56835 0.52261 0.0
C127 C 0.23804 0.59201 0.50264 0.0
C128 C 0.2622 0.55985 0.50306 0.0
C129 C 0.2666 0.58849 0.53237 0.0
C130 C 0.21977 0.60544 0.49084 0.0
C131 C 0.21453 0.62752 0.49875 0.0
C132 C 0.19825 0.64063 0.48672 0.0
C133 C 0.18678 0.63195 0.46654 0.0
C134 C 0.19164 0.60971 0.45895 0.0
C135 C 0.20795 0.59661 0.47094 0.0
C136 C 0.2705 0.53859 0.49178 0.0
C137 C 0.26242 0.53174 0.46915 0.0
C138 C 0.272 0.51295 0.45756 0.0
C139 C 0.28973 0.50053 0.46844 0.0
C140 C 0.29712 0.50682 0.49146 0.0
C141 C 0.28764 0.52561 0.50299 0.0
C142 C 0.27955 0.59797 0.55293 0.0
C143 C 0.30041 0.58802 0.55989 0.0
C144 C 0.80673 0.9069 0.0869 0.0
C145 C 0.80297 0.88479 0.09549 0.0
C146 C 0.7855 0.8716 0.08513 0.0
C147 C 0.77275 0.88003 0.06582 0.0
H148 H 0.71766 0.86632 0.01924 0.0
H149 H 0.69007 0.84268 0.99791 0.0
H150 H 0.69571 0.88646 0.93605 0.0
H151 H 0.72262 0.9104 0.95746 0.0
H152 H 0.75688 0.95012 0.9566 0.0
H153 H 0.77592 0.98106 0.93544 0.0
H154 H 0.81058 0.0004 0.00066 0.0
H155 H 0.79159 0.96957 0.02195 0.0
H156 H 0.7978 0.9323 0.06134 0.0
H157 H 0.81973 0.91766 0.09486 0.0
H158 H 0.78225 0.85448 0.09137 0.0
H159 H 0.7599 0.86919 0.05775 0.0
N160 N 0.74906 0.8975 0.02371 0.0
N161 N 0.74717 0.92403 0.99241 0.0
N162 N 0.77269 0.92973 0.02415 0.0
C163 C 0.73969 0.90444 0.00263 0.0
C164 C 0.76357 0.93683 0.0031 0.0
C165 C 0.76558 0.91012 0.03461 0.0
C166 C 0.72241 0.89029 0.99011 0.0
C167 C 0.71294 0.87097 0.00113 0.0
C168 C 0.69721 0.85734 0.98885 0.0
C169 C 0.69069 0.86264 0.96524 0.0
C170 C 0.70004 0.88206 0.95433 0.0
C171 C 0.71562 0.89574 0.96663 0.0
C172 C 0.77289 0.95719 0.99094 0.0
C173 C 0.76828 0.96115 0.96656 0.0
C174 C 0.77923 0.97881 0.95438 0.0
C175 C 0.79478 0.99302 0.96639 0.0
C176 C 0.79852 0.98981 0.991 0.0
C177 C 0.78776 0.97202 0.00314 0.0
C178 C 0.77721 0.90185 0.05658 0.0
C179 C 0.79403 0.91533 0.06771 0.0
C180 C 0.19259 0.09067 0.58842 0.0
C181 C 0.19544 0.11315 0.59637 0.0
C182 C 0.21148 0.12714 0.5848 0.0
C183 C 0.22368 0.1191 0.56499 0.0
H184 H 0.26393 0.14113 0.50991 0.0
H185 H 0.28805 0.16688 0.48708 0.0
H186 H 0.30323 0.11296 0.43698 0.0
H187 H 0.27857 0.08732 0.4594 0.0
H188 H 0.231 0.05209 0.45515 0.0
H189 H 0.21246 0.01954 0.43674 0.0
H190 H 0.20037 0.9907 0.50688 0.0
H191 H 0.21779 0.02402 0.52526 0.0
H192 H 0.2017 0.06536 0.56278 0.0
H193 H 0.18068 0.07935 0.59729 0.0
H194 H 0.21399 0.14456 0.59049 0.0
H195 H 0.23539 0.13056 0.55604 0.0
N196 N 0.24541 0.10299 0.52161 0.0
N197 N 0.24804 0.07614 0.49068 0.0
N198 N 0.22531 0.06862 0.52433 0.0
C199 C 0.25412 0.09658 0.50008 0.0
C200 C 0.23374 0.06204 0.50277 0.0
C201 C 0.23103 0.08908 0.53389 0.0
C202 C 0.26927 0.11211 0.48651 0.0
C203 C 0.27241 0.13471 0.49405 0.0
C204 C 0.28634 0.14948 0.481 0.0
C205 C 0.29757 0.142 0.46019 0.0
C206 C 0.29452 0.11938 0.45271 0.0
C207 C 0.28049 0.10463 0.46568 0.0
C208 C 0.2256 0.04073 0.49165 0.0
C209 C 0.22466 0.03865 0.46662 0.0
C210 C 0.21412 0.01984 0.45605 0.0
C211 C 0.20465 0.00246 0.47028 0.0
C212 C 0.20689 0.00398 0.49534 0.0
C213 C 0.21703 0.02301 0.5059 0.0
C214 C 0.22009 0.09689 0.55638 0.0
C215 C 0.20476 0.08263 0.56868 0.0
C216 C 0.19632 0.90198 0.09447 0.0
C217 C 0.2016 0.88041 0.10373 0.0
C218 C 0.21813 0.8671 0.092 0.0
C219 C 0.22881 0.87503 0.07119 0.0
H220 H 0.26408 0.85258 0.01017 0.0
H221 H 0.28915 0.82835 0.98617 0.0
H222 H 0.31121 0.88683 0.94563 0.0
H223 H 0.2861 0.91111 0.96939 0.0
H224 H 0.24514 0.949 0.96344 0.0
H225 H 0.22679 0.98077 0.94311 0.0
H226 H 0.18487 0.99289 0.00552 0.0
H227 H 0.20337 0.96148 0.02605 0.0
H228 H 0.20211 0.92647 0.06697 0.0
H229 H 0.1834 0.91254 0.10283 0.0
H230 H 0.22274 0.8505 0.09883 0.0
H231 H 0.24125 0.86422 0.06244 0.0
N232 N 0.24856 0.89133 0.0267 0.0
N233 N 0.25011 0.91843 0.99593 0.0
N234 N 0.22637 0.92443 0.02907 0.0
C235 C 0.25716 0.89834 0.00532 0.0
C236 C 0.2347 0.93159 0.00767 0.0
C237 C 0.23325 0.9044 0.03879 0.0
C238 C 0.27309 0.88376 0.99167 0.0
C239 C 0.27436 0.8603 0.99623 0.0
C240 C 0.28854 0.8464 0.98241 0.0
C241 C 0.30198 0.85576 0.96404 0.0
C242 C 0.30105 0.87924 0.95975 0.0
C243 C 0.28663 0.89308 0.97331 0.0
C244 C 0.22556 0.95246 0.99632 0.0
C245 C 0.23223 0.95861 0.97299 0.0
C246 C 0.22166 0.97676 0.96126 0.0
C247 C 0.20426 0.98921 0.97263 0.0
C248 C 0.19836 0.98376 0.99634 0.0
C249 C 0.20889 0.96561 0.00806 0.0
C250 C 0.22313 0.89643 0.06164 0.0
C251 C 0.20696 0.90991 0.07373 0.0
C252 C 0.79456 0.0913 0.59975 0.0
C253 C 0.79804 0.11451 0.60471 0.0
C254 C 0.78865 0.1307 0.58895 0.0
C255 C 0.77694 0.12384 0.5683 0.0
H256 H 0.7192 0.1381 0.52131 0.0
H257 H 0.69235 0.1616 0.49886 0.0
H258 H 0.70166 0.11879 0.43674 0.0
H259 H 0.72791 0.095 0.45919 0.0
H260 H 0.75769 0.05273 0.46127 0.0
H261 H 0.7773 0.02234 0.44 0.0
H262 H 0.81631 0.00691 0.50368 0.0
H263 H 0.79657 0.03708 0.52517 0.0
H264 H 0.78154 0.06646 0.57528 0.0
H265 H 0.80089 0.07831 0.61178 0.0
H266 H 0.79114 0.14871 0.59196 0.0
H267 H 0.77061 0.1367 0.55611 0.0
N268 N 0.74986 0.10652 0.52755 0.0
N269 N 0.75024 0.08085 0.49542 0.0
N270 N 0.77296 0.07391 0.52914 0.0
C271 C 0.74215 0.10023 0.50552 0.0
C272 C 0.76562 0.06758 0.50706 0.0
C273 C 0.76517 0.09332 0.5395 0.0
C274 C 0.72574 0.11462 0.49212 0.0
C275 C 0.7155 0.13367 0.50288 0.0
C276 C 0.70019 0.14722 0.48997 0.0
C277 C 0.69486 0.14208 0.46599 0.0
C278 C 0.7051 0.12304 0.45527 0.0
C279 C 0.72029 0.10945 0.46817 0.0
C280 C 0.7757 0.04755 0.49492 0.0
C281 C 0.77024 0.04272 0.47089 0.0
C282 C 0.78155 0.02537 0.45862 0.0
C283 C 0.79846 0.01238 0.4701 0.0
C284 C 0.80322 0.01652 0.49439 0.0
C285 C 0.79198 0.03393 0.50667 0.0
C286 C 0.77473 0.10065 0.56277 0.0
C287 C 0.78329 0.08447 0.57891 0.0
Sc288 Sc 0.99841 0.80018 0.30873 0.0
Sc289 Sc -0.0006 0.86005 0.31433 0.0
Sc290 Sc 0.99657 0.82591 0.36582 0.0
O291 O 0.99812 0.82868 0.3296 0.0
C292 C 0.96262 0.78651 0.34951 0.0
C293 C 0.96514 0.83333 0.27958 0.0
C294 C 0.96378 0.86829 0.3568 0.0
C295 C 0.03402 0.83213 0.28132 0.0
C296 C 0.03059 0.78538 0.35213 0.0
C297 C 0.03267 0.8661 0.35917 0.0
O298 O 0.97156 0.7838 0.32895 0.0
O299 O 0.97339 0.85143 0.28861 0.0
O300 O 0.97078 0.85158 0.36915 0.0
O301 O 0.02555 0.81275 0.28609 0.0
O302 O 0.02196 0.7996 0.36668 0.0
O303 O 0.02583 0.87162 0.33835 0.0
O304 O 0.02429 0.78381 0.33036 0.0
O305 O 0.02631 0.85046 0.29021 0.0
O306 O 0.02359 0.85022 0.37133 0.0
O307 O 0.97239 0.81359 0.28504 0.0
O308 O 0.96949 0.80137 0.36436 0.0
O309 O 0.97254 0.87362 0.33674 0.0
Sc310 Sc 0.00124 0.19781 0.81003 0.0
Sc311 Sc 0.00228 0.13812 0.81653 0.0
Sc312 Sc 0.00309 0.17304 0.86746 0.0
O313 O 0.00218 0.16969 0.83129 0.0
C314 C 0.03735 0.21165 0.85094 0.0
C315 C 0.03575 0.16541 0.78165 0.0
C316 C 0.03634 0.13049 0.86003 0.0
C317 C 0.96701 0.16427 0.78264 0.0
C318 C 0.96996 0.214 0.85291 0.0
C319 C 0.9674 0.13281 0.86043 0.0
O320 O 0.02744 0.21489 0.83088 0.0
O321 O 0.02789 0.14719 0.7907 0.0
O322 O 0.02753 0.14622 0.87252 0.0
O323 O 0.97468 0.18405 0.78719 0.0
O324 O 0.97949 0.20089 0.86793 0.0
O325 O 0.97652 0.12598 0.84101 0.0
O326 O 0.97458 0.21385 0.83069 0.0
O327 O 0.97521 0.14638 0.79205 0.0
O328 O 0.97451 0.15016 0.87189 0.0
O329 O 0.02799 0.18499 0.78694 0.0
O330 O 0.03136 0.19622 0.8656 0.0
O331 O 0.0296 0.12593 0.83897 0.0
Sc332 Sc 0.49716 0.30087 0.30759 0.0
Sc333 Sc 0.49676 0.36066 0.31464 0.0
Sc334 Sc 0.49931 0.32548 0.36522 0.0
O335 O 0.49776 0.32897 0.3291 0.0
C336 C 0.46482 0.28558 0.3505 0.0
C337 C 0.46185 0.33374 0.28089 0.0
C338 C 0.46319 0.36566 0.35946 0.0
C339 C 0.53067 0.33433 0.27928 0.0
C340 C 0.53347 0.28682 0.34789 0.0
C341 C 0.53228 0.36801 0.35727 0.0
O342 O 0.47104 0.28444 0.32871 0.0
O343 O 0.46985 0.35171 0.2903 0.0
O344 O 0.47204 0.34927 0.37103 0.0
O345 O 0.52313 0.31457 0.28419 0.0
O346 O 0.5266 0.30143 0.36297 0.0
O347 O 0.52368 0.37358 0.33722 0.0
O348 O 0.52416 0.28398 0.32748 0.0
O349 O 0.52273 0.35234 0.28877 0.0
O350 O 0.52507 0.35123 0.36938 0.0
O351 O 0.47002 0.31412 0.28516 0.0
O352 O 0.47391 0.29914 0.36545 0.0
O353 O 0.47047 0.37198 0.33905 0.0
Sc354 Sc 0.49887 0.69762 0.80633 0.0
Sc355 Sc 0.49952 0.63783 0.81257 0.0
Sc356 Sc 0.50145 0.67243 0.86364 0.0
O357 O 0.49994 0.66933 0.82748 0.0
C358 C 0.53436 0.71242 0.84725 0.0
C359 C 0.5332 0.6654 0.77782 0.0
C360 C 0.53544 0.63085 0.85483 0.0
C361 C 0.46431 0.66423 0.77906 0.0
C362 C 0.46606 0.71166 0.84921 0.0
C363 C 0.46641 0.63134 0.85756 0.0
O364 O 0.52466 0.71533 0.82706 0.0
O365 O 0.52476 0.6472 0.7864 0.0
O366 O 0.52746 0.64695 0.86744 0.0
O367 O 0.47282 0.68379 0.78295 0.0
O368 O 0.47586 0.69853 0.86408 0.0
O369 O 0.4741 0.62531 0.83722 0.0
O370 O 0.47172 0.71276 0.82723 0.0
O371 O 0.47185 0.64631 0.78894 0.0
O372 O 0.47445 0.64813 0.86916 0.0
O373 O 0.52597 0.68509 0.7835 0.0
O374 O 0.52845 0.69698 0.86187 0.0
O375 O 0.52727 0.62558 0.83449 0.0
H376 H 0.18535 0.32095 0.9715 0.0
H377 H 0.16076 0.29574 0.94826 0.0
H378 H 0.13181 0.35355 0.91164 0.0
H379 H 0.15554 0.37903 0.93576 0.0
H380 H 0.09927 0.32453 0.92275 0.0
H381 H 0.17199 0.31913 0.88449 0.0
H382 H 0.21374 0.31352 0.88174 0.0
H383 H 0.20643 0.24543 0.9083 0.0
H384 H 0.16465 0.25073 0.91154 0.0
H385 H 0.04545 0.25484 0.83485 0.0
H386 H 0.07279 0.28236 0.85126 0.0
H387 H 0.09787 0.23166 0.90047 0.0
H388 H 0.07056 0.20412 0.88437 0.0
H389 H 0.13276 0.25895 0.87919 0.0
H390 H 0.05993 0.26644 0.92003 0.0
H391 H 0.01815 0.27231 0.92138 0.0
H392 H 0.02611 0.33753 0.88792 0.0
H393 H 0.06794 0.33186 0.886 0.0
C394 C 0.17353 0.32837 0.95878 0.0
C395 C 0.17248 0.35205 0.95548 0.0
C396 C 0.15969 0.31389 0.94524 0.0
C397 C 0.14477 0.32272 0.92786 0.0
C398 C 0.14334 0.34635 0.92482 0.0
C399 C 0.15706 0.36088 0.93848 0.0
C400 C 0.13048 0.30726 0.91311 0.0
C401 C 0.10666 0.31045 0.91288 0.0
C402 C 0.14007 0.28871 0.90042 0.0
C403 C 0.1652 0.2854 0.89844 0.0
C404 C 0.1793 0.30301 0.88991 0.0
C405 C 0.20297 0.29988 0.88824 0.0
C406 C 0.21273 0.27915 0.89489 0.0
C407 C 0.19884 0.26149 0.90318 0.0
C408 C 0.17516 0.26454 0.90491 0.0
C409 C 0.05706 0.24944 0.84888 0.0
C410 C 0.05573 0.22738 0.85847 0.0
C411 C 0.07258 0.26519 0.85827 0.0
C412 C 0.08714 0.25903 0.87719 0.0
C413 C 0.08673 0.2367 0.88588 0.0
C414 C 0.07104 0.22104 0.87674 0.0
C415 C 0.10171 0.27617 0.88913 0.0
C416 C 0.12551 0.27324 0.88885 0.0
C417 C 0.09214 0.29506 0.90117 0.0
C418 C 0.06703 0.29861 0.90262 0.0
C419 C 0.05275 0.28195 0.91278 0.0
C420 C 0.02907 0.28525 0.91367 0.0
C421 C 0.01947 0.30525 0.90467 0.0
C422 C 0.03356 0.32203 0.89484 0.0
C423 C 0.05726 0.31878 0.89385 0.0
H424 H 0.00113 0.30777 0.90537 0.0
H425 H 0.23106 0.27675 0.89359 0.0
H426 H 0.84554 0.62068 0.43851 0.0
H427 H 0.86966 0.64569 0.41436 0.0
H428 H 0.84323 0.70396 0.45226 0.0
H429 H 0.81827 0.67921 0.47564 0.0
H430 H 0.84368 0.71203 0.40596 0.0
H431 H 0.89721 0.68229 0.46315 0.0
H432 H 0.91825 0.6528 0.48549 0.0
H433 H 0.94616 0.62705 0.41973 0.0
H434 H 0.925 0.65621 0.39695 0.0
H435 H 0.93042 0.79392 0.38388 0.0
H436 H 0.90347 0.7664 0.4005 0.0
H437 H 0.92714 0.71584 0.35036 0.0
H438 H 0.95413 0.74341 0.3334 0.0
H439 H 0.92775 0.70199 0.39905 0.0
H440 H 0.87589 0.73509 0.34263 0.0
H441 H 0.856 0.7664 0.32195 0.0
H442 H 0.82602 0.78768 0.38847 0.0
H443 H 0.84601 0.7567 0.40963 0.0
C444 C 0.84478 0.63883 0.44163 0.0
C445 C 0.82997 0.64794 0.45902 0.0
C446 C 0.85874 0.65308 0.42797 0.0
C447 C 0.85837 0.67668 0.43163 0.0
C448 C 0.84379 0.68579 0.44914 0.0
C449 C 0.82973 0.67158 0.46269 0.0
C450 C 0.87277 0.692 0.4169 0.0
C451 C 0.8621 0.70995 0.40464 0.0
C452 C 0.89671 0.68893 0.41467 0.0
C453 C 0.90928 0.67125 0.42832 0.0
C454 C 0.90764 0.67019 0.45343 0.0
C455 C 0.91963 0.65357 0.46618 0.0
C456 C 0.93347 0.63801 0.45403 0.0
C457 C 0.93539 0.63908 0.42911 0.0
C458 C 0.92341 0.65565 0.41627 0.0
C459 C 0.92967 0.77704 0.37614 0.0
C460 C 0.94443 0.77078 0.35739 0.0
C461 C 0.91421 0.76138 0.3856 0.0
C462 C 0.91334 0.73915 0.3766 0.0
C463 C 0.92759 0.73297 0.35747 0.0
C464 C 0.94287 0.74875 0.34774 0.0
C465 C 0.89867 0.72208 0.38845 0.0
C466 C 0.90929 0.70385 0.40018 0.0
C467 C 0.87475 0.72505 0.39044 0.0
C468 C 0.8626 0.74366 0.37775 0.0
C469 C 0.86521 0.74655 0.35289 0.0
C470 C 0.85389 0.76423 0.34107 0.0
C471 C 0.83979 0.77905 0.3539 0.0
C472 C 0.83695 0.7762 0.37856 0.0
C473 C 0.84825 0.75856 0.39047 0.0
H474 H 0.83104 0.79272 0.34471 0.0
H475 H 0.94275 0.62517 0.46394 0.0
H476 H 0.84972 0.34674 0.98151 0.0
H477 H 0.87725 0.32299 0.95976 0.0
H478 H 0.82764 0.31234 0.90359 0.0
H479 H 0.80009 0.33619 0.92519 0.0
H480 H 0.85132 0.27192 0.91955 0.0
H481 H 0.86675 0.3484 0.89278 0.0
H482 H 0.87531 0.3891 0.89826 0.0
H483 H 0.93759 0.37219 0.93505 0.0
H484 H 0.92922 0.33135 0.93012 0.0
H485 H 0.93001 0.2284 0.83238 0.0
H486 H 0.9018 0.25459 0.84999 0.0
H487 H 0.94554 0.26394 0.91149 0.0
H488 H 0.9733 0.23735 0.89445 0.0
H489 H 0.92422 0.30565 0.89065 0.0
H490 H 0.90835 0.23207 0.92338 0.0
H491 H 0.90273 0.19068 0.91997 0.0
H492 H 0.84382 0.20147 0.87535 0.0
H493 H 0.84937 0.24305 0.87817 0.0
C494 C 0.84467 0.33917 0.96462 0.0
C495 C 0.82288 0.34332 0.95493 0.0
C496 C 0.86039 0.32574 0.9522 0.0
C497 C 0.85444 0.31611 0.93005 0.0
C498 C 0.83249 0.31971 0.92065 0.0
C499 C 0.81688 0.33339 0.9329 0.0
C500 C 0.87133 0.30259 0.9165 0.0
C501 C 0.86706 0.27938 0.91285 0.0
C502 C 0.89212 0.31226 0.90839 0.0
C503 C 0.89723 0.33681 0.91129 0.0
C504 C 0.88216 0.35335 0.90223 0.0
C505 C 0.887 0.37645 0.9052 0.0
C506 C 0.90695 0.38323 0.91705 0.0
C507 C 0.92213 0.36692 0.92591 0.0
C508 C 0.91735 0.34379 0.92301 0.0
C509 C 0.93359 0.23623 0.84955 0.0
C510 C 0.9536 0.23077 0.86223 0.0
C511 C 0.91758 0.25112 0.85953 0.0
C512 C 0.92173 0.2611 0.88196 0.0
C513 C 0.94216 0.25642 0.89412 0.0
C514 C 0.95785 0.24113 0.88448 0.0
C515 C 0.9041 0.27514 0.89365 0.0
C516 C 0.9083 0.29835 0.89706 0.0
C517 C 0.88344 0.26545 0.90191 0.0
C518 C 0.87944 0.24061 0.90073 0.0
C519 C 0.89429 0.22561 0.9127 0.0
C520 C 0.89112 0.20215 0.9109 0.0
C521 C 0.87301 0.19348 0.89737 0.0
C522 C 0.8579 0.20825 0.88576 0.0
C523 C 0.86103 0.23178 0.88746 0.0
H524 H 0.87076 0.1753 0.89595 0.0
H525 H 0.91067 0.40113 0.91932 0.0
H526 H 0.18171 0.63553 0.41794 0.0
H527 H 0.15497 0.65967 0.39592 0.0
H528 H 0.1283 0.68547 0.46265 0.0
H529 H 0.15439 0.66073 0.48481 0.0
H530 H 0.09442 0.67652 0.43185 0.0
H531 H 0.16658 0.71604 0.42935 0.0
H532 H 0.2078 0.7204 0.42097 0.0
H533 H 0.19566 0.70735 0.34635 0.0
H534 H 0.15438 0.70261 0.35435 0.0
H535 H 0.04361 0.77957 0.39867 0.0
H536 H 0.07015 0.75163 0.41478 0.0
H537 H 0.08358 0.72666 0.34356 0.0
H538 H 0.05679 0.75468 0.32703 0.0
H539 H 0.12346 0.73273 0.37294 0.0
H540 H 0.05023 0.6964 0.37575 0.0
H541 H 0.00904 0.69346 0.38488 0.0
H542 H 0.0233 0.70166 0.45984 0.0
H543 H 0.06456 0.70503 0.45113 0.0
C544 C 0.16994 0.64611 0.42794 0.0
C545 C 0.17021 0.64625 0.45315 0.0
C546 C 0.15484 0.66006 0.41532 0.0
C547 C 0.13986 0.67457 0.42765 0.0
C548 C 0.13979 0.67445 0.45278 0.0
C549 C 0.15484 0.66046 0.46542 0.0
C550 C 0.12436 0.69006 0.41443 0.0
C551 C 0.1008 0.68893 0.41912 0.0
C552 C 0.13264 0.70584 0.39734 0.0
C553 C 0.15744 0.70871 0.3925 0.0
C554 C 0.17273 0.71391 0.41119 0.0
C555 C 0.1961 0.71648 0.4065 0.0
C556 C 0.20435 0.71408 0.38315 0.0
C557 C 0.18924 0.70916 0.36443 0.0
C558 C 0.16586 0.70654 0.36903 0.0
C559 C 0.05224 0.76828 0.3863 0.0
C560 C 0.04792 0.7693 0.36152 0.0
C561 C 0.06736 0.75226 0.3956 0.0
C562 C 0.07854 0.73695 0.38037 0.0
C563 C 0.07496 0.73831 0.35557 0.0
C564 C 0.05964 0.75428 0.3462 0.0
C565 C 0.09366 0.71937 0.3907 0.0
C566 C 0.11711 0.72012 0.38547 0.0
C567 C 0.08531 0.70332 0.4074 0.0
C568 C 0.06049 0.70115 0.41275 0.0
C569 C 0.04457 0.69777 0.39416 0.0
C570 C 0.02121 0.69599 0.39927 0.0
C571 C 0.01355 0.69742 0.42292 0.0
C572 C 0.02925 0.70057 0.44152 0.0
C573 C 0.05264 0.70239 0.43651 0.0
H574 H 0.99546 0.69603 0.42684 0.0
H575 H 0.22245 0.71609 0.37956 0.0
H576 H 0.65643 0.87557 0.93455 0.0
H577 H 0.63117 0.85113 0.91109 0.0
H578 H 0.66247 0.79182 0.94257 0.0
H579 H 0.68862 0.81613 0.96518 0.0
H580 H 0.65707 0.78568 0.89621 0.0
H581 H 0.60941 0.81143 0.96062 0.0
H582 H 0.59073 0.83949 0.98695 0.0
H583 H 0.55624 0.86861 0.92635 0.0
H584 H 0.57497 0.84089 0.89959 0.0
H585 H 0.5688 0.70405 0.87887 0.0
H586 H 0.59683 0.73105 0.89456 0.0
H587 H 0.56908 0.78353 0.84914 0.0
H588 H 0.54104 0.75644 0.83302 0.0
H589 H 0.57268 0.7949 0.89912 0.0
H590 H 0.61886 0.76555 0.83546 0.0
H591 H 0.63675 0.73561 0.8109 0.0
H592 H 0.67328 0.71115 0.87248 0.0
H593 H 0.65534 0.74075 0.8975 0.0
C594 C 0.6581 0.85732 0.93634 0.0
C595 C 0.67457 0.84782 0.95178 0.0
C596 C 0.64347 0.84338 0.92309 0.0
C597 C 0.64476 0.81965 0.92526 0.0
C598 C 0.66115 0.8101 0.94064 0.0
C599 C 0.67591 0.82403 0.95378 0.0
C600 C 0.62911 0.80474 0.9114 0.0
C601 C 0.63861 0.78757 0.89704 0.0
C602 C 0.60504 0.80753 0.91203 0.0
C603 C 0.5938 0.82426 0.92807 0.0
C604 C 0.598 0.82394 0.95288 0.0
C605 C 0.58738 0.83976 0.96789 0.0
C606 C 0.57237 0.85587 0.95832 0.0
C607 C 0.56791 0.85615 0.93373 0.0
C608 C 0.57851 0.84038 0.91863 0.0
C609 C 0.56882 0.72126 0.87199 0.0
C610 C 0.55269 0.72817 0.85478 0.0
C611 C 0.5849 0.73662 0.88091 0.0
C612 C 0.585 0.75921 0.87295 0.0
C613 C 0.56924 0.76611 0.85542 0.0
C614 C 0.55335 0.75062 0.84618 0.0
C615 C 0.60067 0.77581 0.8842 0.0
C616 C 0.59116 0.79323 0.89812 0.0
C617 C 0.62469 0.77305 0.88342 0.0
C618 C 0.6356 0.75527 0.8684 0.0
C619 C 0.63056 0.75367 0.84382 0.0
C620 C 0.64074 0.73678 0.8298 0.0
C621 C 0.65611 0.72146 0.84013 0.0
C622 C 0.66136 0.72303 0.8645 0.0
C623 C 0.65121 0.73987 0.8786 0.0
H624 H 0.66398 0.7084 0.82925 0.0
H625 H 0.56415 0.86809 0.96997 0.0
H626 H 0.30164 0.14589 0.41143 0.0
H627 H 0.32736 0.17094 0.38908 0.0
H628 H 0.35278 0.19881 0.45542 0.0
H629 H 0.32756 0.17354 0.47793 0.0
H630 H 0.34348 0.23191 0.42122 0.0
H631 H 0.38316 0.15972 0.42692 0.0
H632 H 0.38714 0.11834 0.42125 0.0
H633 H 0.37852 0.12647 0.34535 0.0
H634 H 0.37418 0.1679 0.35061 0.0
H635 H 0.44953 0.28068 0.39636 0.0
H636 H 0.41825 0.25705 0.41062 0.0
H637 H 0.40571 0.23351 0.33861 0.0
H638 H 0.43745 0.25697 0.32405 0.0
H639 H 0.40473 0.19899 0.37035 0.0
H640 H 0.3699 0.27163 0.36373 0.0
H641 H 0.36667 0.3131 0.369 0.0
H642 H 0.36559 0.30472 0.44537 0.0
H643 H 0.3692 0.26319 0.4406 0.0
C644 C 0.31283 0.15723 0.42128 0.0
C645 C 0.31261 0.15764 0.44648 0.0
C646 C 0.3274 0.1716 0.40847 0.0
C647 C 0.342 0.18662 0.42063 0.0
C648 C 0.34152 0.1874 0.44573 0.0
C649 C 0.32705 0.17299 0.45855 0.0
C650 C 0.35832 0.20111 0.40736 0.0
C651 C 0.35695 0.22476 0.41019 0.0
C652 C 0.37539 0.19173 0.39236 0.0
C653 C 0.37807 0.16685 0.38919 0.0
C654 C 0.38191 0.15265 0.40904 0.0
C655 C 0.38427 0.1292 0.4059 0.0
C656 C 0.38301 0.11977 0.38296 0.0
C657 C 0.37945 0.13379 0.36311 0.0
C658 C 0.37705 0.15726 0.36616 0.0
C659 C 0.44017 0.27054 0.38345 0.0
C660 C 0.44598 0.27082 0.359 0.0
C661 C 0.42218 0.25712 0.39165 0.0
C662 C 0.4094 0.24387 0.37561 0.0
C663 C 0.4153 0.24375 0.35124 0.0
C664 C 0.43343 0.25717 0.34298 0.0
C665 C 0.39025 0.22981 0.38464 0.0
C666 C 0.39104 0.20624 0.38103 0.0
C667 C 0.37256 0.23929 0.3988 0.0
C668 C 0.36997 0.26426 0.4018 0.0
C669 C 0.36911 0.27862 0.38166 0.0
C670 C 0.3672 0.30215 0.38456 0.0
C671 C 0.36596 0.31155 0.4075 0.0
C672 C 0.36655 0.29741 0.4276 0.0
C673 C 0.3685 0.27387 0.42481 0.0
H674 H 0.36452 0.32977 0.4097 0.0
H675 H 0.38485 0.10161 0.38057 0.0
H676 H 0.29066 0.81633 0.94124 0.0
H677 H 0.31582 0.79177 0.91754 0.0
H678 H 0.37234 0.8374 0.93086 0.0
H679 H 0.34704 0.86231 0.95383 0.0
H680 H 0.3744 0.82362 0.88691 0.0
H681 H 0.36338 0.78718 0.9633 0.0
H682 H 0.34134 0.77007 0.99636 0.0
H683 H 0.31393 0.72007 0.94816 0.0
H684 H 0.33555 0.73712 0.91473 0.0
H685 H 0.4558 0.72062 0.89578 0.0
H686 H 0.42564 0.74482 0.91136 0.0
H687 H 0.40339 0.75982 0.83935 0.0
H688 H 0.43419 0.7359 0.82341 0.0
H689 H 0.38147 0.74238 0.90941 0.0
H690 H 0.38069 0.81383 0.83892 0.0
H691 H 0.40672 0.83187 0.80974 0.0
H692 H 0.46461 0.8135 0.85306 0.0
H693 H 0.43891 0.79561 0.8826 0.0
C694 C 0.30847 0.82106 0.93904 0.0
C695 C 0.31701 0.84109 0.94943 0.0
C696 C 0.3228 0.80706 0.92552 0.0
C697 C 0.34605 0.81258 0.92268 0.0
C698 C 0.35446 0.83282 0.93273 0.0
C699 C 0.34005 0.847 0.9459 0.0
C700 C 0.36189 0.797 0.90999 0.0
C701 C 0.37585 0.80582 0.89175 0.0
C702 C 0.36394 0.77381 0.9164 0.0
C703 C 0.35083 0.76362 0.93645 0.0
C704 C 0.35248 0.77267 0.95971 0.0
C705 C 0.34009 0.76296 0.97852 0.0
C706 C 0.32617 0.74405 0.97435 0.0
C707 C 0.32466 0.73477 0.95136 0.0
C708 C 0.33697 0.74445 0.93247 0.0
C709 C 0.44453 0.72901 0.88315 0.0
C710 C 0.44746 0.72636 0.85831 0.0
C711 C 0.42721 0.74281 0.89214 0.0
C712 C 0.4123 0.7542 0.87656 0.0
C713 C 0.41491 0.75141 0.85171 0.0
C714 C 0.43248 0.73773 0.84263 0.0
C715 C 0.39431 0.7691 0.88671 0.0
C716 C 0.3798 0.76011 0.90435 0.0
C717 C 0.3923 0.79228 0.8803 0.0
C718 C 0.4079 0.80315 0.86278 0.0
C719 C 0.39897 0.81369 0.84222 0.0
C720 C 0.41366 0.82388 0.82562 0.0
C721 C 0.43731 0.82375 0.8295 0.0
C722 C 0.4463 0.8135 0.85002 0.0
C723 C 0.43169 0.80332 0.86668 0.0
H724 H 0.44865 0.83163 0.81662 0.0
H725 H 0.31661 0.73654 0.98894 0.0
H726 H 0.69171 0.18849 0.46618 0.0
H727 H 0.66509 0.21224 0.44352 0.0
H728 H 0.63559 0.15241 0.41121 0.0
H729 H 0.66183 0.12845 0.43419 0.0
H730 H 0.64372 0.18736 0.37827 0.0
H731 H 0.60756 0.17703 0.45486 0.0
H732 H 0.60553 0.17749 0.49897 0.0
H733 H 0.61901 0.24924 0.49925 0.0
H734 H 0.62144 0.24915 0.45513 0.0
H735 H 0.54202 0.24274 0.33474 0.0
H736 H 0.57097 0.21733 0.35191 0.0
H737 H 0.59742 0.27282 0.39434 0.0
H738 H 0.56817 0.2979 0.37794 0.0
H739 H 0.59018 0.23818 0.42163 0.0
H740 H 0.62699 0.24915 0.34551 0.0
H741 H 0.62981 0.2492 0.30144 0.0
H742 H 0.61608 0.17751 0.29995 0.0
H743 H 0.61287 0.17709 0.34401 0.0
C744 C 0.67941 0.18035 0.45446 0.0
C745 C 0.67882 0.15656 0.4521 0.0
C746 C 0.66432 0.19395 0.44141 0.0
C747 C 0.64833 0.18403 0.42581 0.0
C748 C 0.64789 0.16036 0.42309 0.0
C749 C 0.66292 0.14672 0.43621 0.0
C750 C 0.63169 0.19841 0.41281 0.0
C751 C 0.63179 0.19831 0.38767 0.0
C752 C 0.61648 0.21292 0.42517 0.0
C753 C 0.61489 0.21304 0.4517 0.0
C754 C 0.61026 0.19287 0.46434 0.0
C755 C 0.60901 0.19308 0.48934 0.0
C756 C 0.6122 0.21337 0.50191 0.0
C757 C 0.61658 0.23353 0.48949 0.0
C758 C 0.61787 0.23341 0.46449 0.0
C759 C 0.55429 0.24954 0.34741 0.0
C760 C 0.55275 0.27219 0.35519 0.0
C761 C 0.57085 0.23504 0.35718 0.0
C762 C 0.58638 0.24317 0.37445 0.0
C763 C 0.58551 0.26611 0.38123 0.0
C764 C 0.56881 0.28043 0.37181 0.0
C765 C 0.60242 0.22761 0.38693 0.0
C766 C 0.60211 0.22734 0.41208 0.0
C767 C 0.61751 0.21292 0.37453 0.0
C768 C 0.61946 0.21313 0.34804 0.0
C769 C 0.62439 0.23343 0.33577 0.0
C770 C 0.62609 0.23352 0.3108 0.0
C771 C 0.62306 0.21338 0.2979 0.0
C772 C 0.61838 0.1931 0.30996 0.0
C773 C 0.61664 0.19292 0.33493 0.0
H774 H 0.62439 0.21349 0.27856 0.0
H775 H 0.61122 0.2135 0.52127 0.0
H776 H 0.30522 0.49493 0.92367 0.0
H777 H 0.33103 0.52031 0.90208 0.0
H778 H 0.33992 0.5607 0.9659 0.0
H779 H 0.31335 0.53591 0.98742 0.0
H780 H 0.33857 0.58721 0.92604 0.0
H781 H 0.37804 0.51975 0.95215 0.0
H782 H 0.3842 0.47843 0.9558 0.0
H783 H 0.38917 0.47269 0.8793 0.0
H784 H 0.38272 0.51396 0.87519 0.0
H785 H 0.44682 0.63689 0.90176 0.0
H786 H 0.41472 0.61584 0.91876 0.0
H787 H 0.40948 0.57609 0.85405 0.0
H788 H 0.44184 0.59676 0.83699 0.0
H789 H 0.40762 0.5497 0.89263 0.0
H790 H 0.37084 0.61829 0.86692 0.0
H791 H 0.36538 0.65975 0.86399 0.0
H792 H 0.35597 0.66379 0.94013 0.0
H793 H 0.36173 0.62239 0.94358 0.0
C794 C 0.31217 0.50954 0.93298 0.0
C795 C 0.3074 0.51326 0.95736 0.0
C796 C 0.32709 0.52391 0.92066 0.0
C797 C 0.33772 0.54212 0.93253 0.0
C798 C 0.33201 0.54665 0.95646 0.0
C799 C 0.317 0.53235 0.96878 0.0
C800 C 0.35599 0.55539 0.92057 0.0
C801 C 0.35377 0.57908 0.91889 0.0
C802 C 0.37562 0.54468 0.91091 0.0
C803 C 0.37966 0.51989 0.91336 0.0
C804 C 0.38028 0.50965 0.9361 0.0
C805 C 0.38385 0.48625 0.93826 0.0
C806 C 0.38701 0.47294 0.91779 0.0
C807 C 0.38668 0.48302 0.89513 0.0
C808 C 0.38308 0.50641 0.89288 0.0
C809 C 0.43885 0.6237 0.89108 0.0
C810 C 0.44697 0.61852 0.86798 0.0
C811 C 0.42039 0.61178 0.90079 0.0
C812 C 0.40951 0.59462 0.88754 0.0
C813 C 0.4176 0.58933 0.86455 0.0
C814 C 0.43612 0.60117 0.85484 0.0
C815 C 0.39025 0.58158 0.89802 0.0
C816 C 0.39234 0.55788 0.89954 0.0
C817 C 0.37058 0.59234 0.90758 0.0
C818 C 0.36692 0.61724 0.90553 0.0
C819 C 0.36778 0.62803 0.88307 0.0
C820 C 0.3646 0.65153 0.88131 0.0
C821 C 0.36038 0.66441 0.90187 0.0
C822 C 0.35926 0.6538 0.92423 0.0
C823 C 0.36246 0.63031 0.92609 0.0
H824 H 0.35794 0.68259 0.90047 0.0
H825 H 0.38977 0.45482 0.91949 0.0
H826 H 0.64964 0.51842 0.46178 0.0
H827 H 0.62483 0.49161 0.44076 0.0
H828 H 0.68357 0.45081 0.42226 0.0
H829 H 0.70863 0.47785 0.44316 0.0
H830 H 0.65344 0.45328 0.38529 0.0
H831 H 0.6507 0.43526 0.46862 0.0
H832 H 0.64627 0.44322 0.51173 0.0
H833 H 0.57717 0.4654 0.49977 0.0
H834 H 0.5813 0.45789 0.45651 0.0
H835 H 0.5597 0.35773 0.39545 0.0
H836 H 0.59084 0.3804 0.41209 0.0
H837 H 0.57936 0.4318 0.3583 0.0
H838 H 0.54847 0.40899 0.34116 0.0
H839 H 0.58942 0.42015 0.43215 0.0
H840 H 0.62907 0.45952 0.3461 0.0
H841 H 0.6354 0.44899 0.30384 0.0
H842 H 0.63445 0.37828 0.32281 0.0
H843 H 0.62845 0.38838 0.36521 0.0
C844 C 0.65727 0.50374 0.45323 0.0
C845 C 0.681 0.5 0.45438 0.0
C846 C 0.6431 0.48848 0.4412 0.0
C847 C 0.65233 0.46902 0.43035 0.0
C848 C 0.67613 0.46569 0.4306 0.0
C849 C 0.69039 0.48111 0.44253 0.0
C850 C 0.63689 0.45179 0.41971 0.0
C851 C 0.63946 0.44596 0.3955 0.0
C852 C 0.61902 0.44186 0.43324 0.0
C853 C 0.61637 0.44617 0.4593 0.0
C854 C 0.6346 0.44197 0.47516 0.0
C855 C 0.63214 0.44638 0.49963 0.0
C856 C 0.61147 0.45484 0.50848 0.0
C857 C 0.59318 0.45886 0.49289 0.0
C858 C 0.59557 0.4545 0.4684 0.0
C859 C 0.56383 0.37381 0.38705 0.0
C860 C 0.55151 0.38158 0.367 0.0
C861 C 0.58167 0.38673 0.39659 0.0
C862 C 0.58755 0.4077 0.38634 0.0
C863 C 0.57539 0.41547 0.36625 0.0
C864 C 0.55764 0.40246 0.35656 0.0
C865 C 0.60556 0.42197 0.3975 0.0
C866 C 0.60345 0.4273 0.42189 0.0
C867 C 0.62412 0.43098 0.38423 0.0
C868 C 0.6281 0.42473 0.35881 0.0
C869 C 0.63032 0.44173 0.34127 0.0
C870 C 0.63383 0.43583 0.31729 0.0
C871 C 0.63525 0.41298 0.31064 0.0
C872 C 0.63326 0.39597 0.32797 0.0
C873 C 0.62978 0.40178 0.35198 0.0
H874 H 0.63794 0.40845 0.29206 0.0
H875 H 0.6096 0.45826 0.52743 0.0
H876 H 0.68951 0.48786 0.91835 0.0
H877 H 0.66424 0.51439 0.89756 0.0
H878 H 0.66808 0.56046 0.95756 0.0
H879 H 0.69348 0.53401 0.97845 0.0
H880 H 0.62464 0.55089 0.9457 0.0
H881 H 0.69243 0.57397 0.90399 0.0
H882 H 0.72756 0.56854 0.88022 0.0
H883 H 0.68804 0.53978 0.82284 0.0
H884 H 0.65268 0.54474 0.84641 0.0
H885 H 0.56 0.63947 0.89552 0.0
H886 H 0.59191 0.61774 0.91175 0.0
H887 H 0.58768 0.5711 0.85229 0.0
H888 H 0.55583 0.59298 0.83558 0.0
H889 H 0.63204 0.58166 0.86334 0.0
H890 H 0.56493 0.55665 0.9052 0.0
H891 H 0.5295 0.56126 0.9287 0.0
H892 H 0.5677 0.59249 0.98563 0.0
H893 H 0.60333 0.58836 0.96231 0.0
C894 C 0.68548 0.50391 0.92685 0.0
C895 C 0.69337 0.50881 0.95009 0.0
C896 C 0.67101 0.51905 0.91495 0.0
C897 C 0.66432 0.53941 0.92601 0.0
C898 C 0.67299 0.54479 0.94877 0.0
C899 C 0.68743 0.52966 0.96068 0.0
C900 C 0.64662 0.55398 0.91489 0.0
C901 C 0.62645 0.55797 0.92786 0.0
C902 C 0.64868 0.56252 0.8913 0.0
C903 C 0.66992 0.55954 0.87707 0.0
C904 C 0.69124 0.56631 0.88639 0.0
C905 C 0.7112 0.56336 0.87293 0.0
C906 C 0.71004 0.55378 0.85006 0.0
C907 C 0.68891 0.54718 0.84057 0.0
C908 C 0.66891 0.55009 0.85396 0.0
C909 C 0.5658 0.62461 0.88581 0.0
C910 C 0.55515 0.61784 0.86434 0.0
C911 C 0.58407 0.61221 0.89515 0.0
C912 C 0.59193 0.59266 0.88338 0.0
C913 C 0.5818 0.58614 0.86165 0.0
C914 C 0.56354 0.5986 0.8522 0.0
C915 C 0.61023 0.57867 0.89427 0.0
C916 C 0.63037 0.57469 0.88124 0.0
C917 C 0.60815 0.56998 0.91779 0.0
C918 C 0.58676 0.5724 0.93191 0.0
C919 C 0.56575 0.56466 0.92265 0.0
C920 C 0.54564 0.56716 0.93595 0.0
C921 C 0.54634 0.57722 0.95861 0.0
C922 C 0.56718 0.58474 0.96805 0.0
C923 C 0.58734 0.5823 0.95481 0.0
H924 H 0.53075 0.57913 0.96888 0.0
H925 H 0.72551 0.5515 0.83967 0.0
H926 H 0.30367 0.45916 0.48541 0.0
H927 H 0.32929 0.43217 0.46561 0.0
H928 H 0.32918 0.47385 0.40207 0.0
H929 H 0.30366 0.50094 0.42176 0.0
H930 H 0.32991 0.42774 0.39141 0.0
H931 H 0.37028 0.48099 0.44203 0.0
H932 H 0.3783 0.50087 0.48001 0.0
H933 H 0.39302 0.43712 0.51412 0.0
H934 H 0.38472 0.41682 0.4764 0.0
H935 H 0.4378 0.40031 0.34007 0.0
H936 H 0.40473 0.41938 0.35778 0.0
H937 H 0.40998 0.3766 0.42026 0.0
H938 H 0.44313 0.35757 0.40292 0.0
H939 H 0.40518 0.42079 0.43209 0.0
H940 H 0.36793 0.36762 0.38031 0.0
H941 H 0.36031 0.34799 0.3421 0.0
H942 H 0.34022 0.41117 0.30993 0.0
H943 H 0.34805 0.43127 0.34785 0.0
C944 C 0.30887 0.46241 0.46711 0.0
C945 C 0.3019 0.48231 0.45525 0.0
C946 C 0.32342 0.44696 0.45581 0.0
C947 C 0.33139 0.45124 0.43254 0.0
C948 C 0.32321 0.47025 0.42005 0.0
C949 C 0.3086 0.4857 0.43132 0.0
C950 C 0.34999 0.4373 0.42217 0.0
C951 C 0.34642 0.4263 0.40018 0.0
C952 C 0.37139 0.43517 0.43387 0.0
C953 C 0.37664 0.44737 0.45648 0.0
C954 C 0.37506 0.4712 0.45768 0.0
C955 C 0.37968 0.48254 0.47915 0.0
C956 C 0.38611 0.47026 0.49949 0.0
C957 C 0.388 0.44661 0.49837 0.0
C958 C 0.38335 0.43517 0.47695 0.0
C959 C 0.43195 0.39493 0.35758 0.0
C960 C 0.44322 0.37745 0.37009 0.0
C961 C 0.41294 0.40575 0.36759 0.0
C962 C 0.40479 0.39923 0.39022 0.0
C963 C 0.41599 0.38185 0.40276 0.0
C964 C 0.43496 0.37101 0.39278 0.0
C965 C 0.38517 0.41119 0.40127 0.0
C966 C 0.3886 0.42196 0.42339 0.0
C967 C 0.36371 0.41306 0.38966 0.0
C968 C 0.35877 0.40099 0.36688 0.0
C969 C 0.36205 0.37736 0.36504 0.0
C970 C 0.35766 0.36614 0.34344 0.0
C971 C 0.34984 0.37833 0.32359 0.0
C972 C 0.34631 0.40176 0.32532 0.0
C973 C 0.35069 0.41307 0.34687 0.0
H974 H 0.34647 0.36961 0.30688 0.0
H975 H 0.38968 0.47907 0.5161 0.0
H976 H 0.81758 0.98634 0.92453 0.0
H977 H 0.84416 0.01238 0.90473 0.0
H978 H 0.83035 0.06336 0.9583 0.0
H979 H 0.80363 0.03731 0.97829 0.0
H980 H 0.83366 0.07963 0.90829 0.0
H981 H 0.8746 0.03485 0.96711 0.0
H982 H 0.88614 0.9989 0.98631 0.0
H983 H 0.91503 0.9757 0.91997 0.0
H984 H 0.90332 0.01139 0.90026 0.0
H985 H 0.93605 0.14649 0.89409 0.0
H986 H 0.90356 0.12471 0.90972 0.0
H987 H 0.92144 0.06849 0.86382 0.0
H988 H 0.95376 0.09004 0.84805 0.0
H989 H 0.91502 0.05542 0.90992 0.0
H990 H 0.87751 0.09999 0.8512 0.0
H991 H 0.86393 0.13376 0.82939 0.0
H992 H 0.82663 0.15561 0.89147 0.0
H993 H 0.84073 0.12244 0.91404 0.0
C994 C 0.81981 0.00327 0.9318 0.0
C995 C 0.80861 0.00982 0.95297 0.0
C996 C 0.83506 0.01806 0.92054 0.0
C997 C 0.83925 0.03967 0.93019 0.0
C998 C 0.82727 0.04672 0.95063 0.0
C999 C 0.81217 0.03182 0.96208 0.0
C1000 C 0.85748 0.0541 0.91998 0.0
C1001 C 0.85153 0.07465 0.90892 0.0
C1002 C 0.8806 0.04705 0.92027 0.0
C1003 C 0.88788 0.02569 0.93216 0.0
C1004 C 0.88324 0.022 0.95657 0.0
C1005 C 0.88984 0.00169 0.96755 0.0
C1006 C 0.90126 0.985 0.95436 0.0
C1007 C 0.90616 0.98863 0.93016 0.0
C1008 C 0.89956 0.0089 0.91908 0.0
C1009 C 0.93305 0.12949 0.88731 0.0
C1010 C 0.94759 0.11995 0.86991 0.0
C1011 C 0.91439 0.11716 0.89613 0.0
C1012 C 0.91008 0.09505 0.88783 0.0
C1013 C 0.92448 0.08555 0.87042 0.0
C1014 C 0.94294 0.09791 0.86142 0.0
C1015 C 0.89136 0.08122 0.89818 0.0
C1016 C 0.89722 0.06067 0.90933 0.0
C1017 C 0.86816 0.08825 0.89768 0.0
C1018 C 0.86054 0.10885 0.88449 0.0
C1019 C 0.86682 0.11222 0.86041 0.0
C1020 C 0.85896 0.13124 0.84787 0.0
C1021 C 0.84448 0.14685 0.85906 0.0
C1022 C 0.83786 0.1435 0.88283 0.0
C1023 C 0.84591 0.12467 0.89556 0.0
H1024 H 0.83835 0.16153 0.84929 0.0
H1025 H 0.90636 0.96928 0.96289 0.0
H1026 H 0.21176 0.98102 0.42701 0.0
H1027 H 0.18599 0.9545 0.40666 0.0
H1028 H 0.14123 0.95465 0.46797 0.0
H1029 H 0.166 0.98201 0.48797 0.0
H1030 H 0.15005 0.90981 0.44531 0.0
H1031 H 0.12721 0.9879 0.42714 0.0
H1032 H 0.13486 0.02657 0.4121 0.0
H1033 H 0.15405 -0.00078 0.34368 0.0
H1034 H 0.14683 0.96034 0.35847 0.0
H1035 H 0.04215 0.87283 0.40643 0.0
H1036 H 0.07479 0.8929 0.42368 0.0
H1037 H 0.10096 0.90608 0.35271 0.0
H1038 H 0.06764 0.88697 0.33534 0.0
H1039 H 0.10583 0.94192 0.37734 0.0
H1040 H 0.12494 0.86478 0.39181 0.0
H1041 H 0.11922 0.82528 0.40526 0.0
H1042 H 0.11039 0.84833 0.47764 0.0
H1043 H 0.11571 0.88803 0.46458 0.0
C1044 C 0.19644 0.97547 0.43621 0.0
C1045 C 0.19093 0.98392 0.45911 0.0
C1046 C 0.18188 0.96014 0.42462 0.0
C1047 C 0.16176 0.95274 0.43585 0.0
C1048 C 0.15681 0.96009 0.45913 0.0
C1049 C 0.17112 0.97568 0.47058 0.0
C1050 C 0.14479 0.93892 0.4227 0.0
C1051 C 0.14026 0.91675 0.4305 0.0
C1052 C 0.13267 0.94786 0.40293 0.0
C1053 C 0.13675 0.97123 0.39399 0.0
C1054 C 0.13325 0.99013 0.40896 0.0
C1055 C 0.13748 0.01209 0.40047 0.0
C1056 C 0.14501 0.01535 0.37697 0.0
C1057 C 0.14826 0.99667 0.36189 0.0
C1058 C 0.1441 0.97467 0.37032 0.0
C1059 C 0.05488 0.87999 0.39452 0.0
C1060 C 0.05238 0.87834 0.36956 0.0
C1061 C 0.07365 0.8913 0.40439 0.0
C1062 C 0.09067 0.90059 0.38953 0.0
C1063 C 0.08812 0.89901 0.36456 0.0
C1064 C 0.06907 0.88812 0.35466 0.0
C1065 C 0.11061 0.91266 0.40009 0.0
C1066 C 0.11575 0.93463 0.39186 0.0
C1067 C 0.1236 0.9033 0.41917 0.0
C1068 C 0.12056 0.87942 0.42717 0.0
C1069 C 0.12163 0.86145 0.41058 0.0
C1070 C 0.11848 0.83902 0.41813 0.0
C1071 C 0.1144 0.8343 0.44228 0.0
C1072 C 0.11353 0.85201 0.45894 0.0
C1073 C 0.11665 0.87449 0.45147 0.0
H1074 H 0.11196 0.81693 0.4481 0.0
H1075 H 0.14827 0.03236 0.37043 0.0
H1076 H 0.18822 0.98662 0.92679 0.0
H1077 H 0.16282 0.01325 0.90638 0.0
H1078 H 0.1644 0.05746 0.96803 0.0
H1079 H 0.18994 0.03087 0.98858 0.0
H1080 H 0.12146 0.04864 0.95411 0.0
H1081 H 0.19069 0.07256 0.9157 0.0
H1082 H 0.22669 0.06767 0.89325 0.0
H1083 H 0.18937 0.0401 0.83365 0.0
H1084 H 0.15315 0.04453 0.85587 0.0
H1085 H 0.05839 0.13805 0.9025 0.0
H1086 H 0.08934 0.11594 0.92015 0.0
H1087 H 0.08844 0.07059 0.85944 0.0
H1088 H 0.05761 0.09288 0.84131 0.0
H1089 H 0.13185 0.081 0.87278 0.0
H1090 H 0.06323 0.0552 0.91148 0.0
H1091 H 0.027 0.05942 0.93369 0.0
H1092 H 0.06319 0.08965 0.99263 0.0
H1093 H 0.09961 0.0859 0.97061 0.0
C1094 C 0.18363 0.00228 0.93579 0.0
C1095 C 0.19106 0.00664 0.95932 0.0
C1096 C 0.16907 0.01747 0.9241 0.0
C1097 C 0.16182 0.03739 0.93564 0.0
C1098 C 0.16977 0.04215 0.95884 0.0
C1099 C 0.1843 0.02694 0.97056 0.0
C1100 C 0.14452 0.05229 0.92426 0.0
C1101 C 0.12392 0.05607 0.93651 0.0
C1102 C 0.14746 0.06134 0.90098 0.0
C1103 C 0.16922 0.0587 0.88755 0.0
C1104 C 0.19017 0.06528 0.89788 0.0
C1105 C 0.21061 0.06262 0.88518 0.0
C1106 C 0.21032 0.05353 0.86206 0.0
C1107 C 0.18957 0.04713 0.85157 0.0
C1108 C 0.16908 0.04973 0.8642 0.0
C1109 C 0.06471 0.12337 0.89283 0.0
C1110 C 0.05533 0.11713 0.87055 0.0
C1111 C 0.08241 0.11074 0.90299 0.0
C1112 C 0.09096 0.09146 0.89126 0.0
C1113 C 0.08203 0.08541 0.8688 0.0
C1114 C 0.06435 0.09812 0.85853 0.0
C1115 C 0.10889 0.07738 0.90271 0.0
C1116 C 0.12952 0.07368 0.89045 0.0
C1117 C 0.10598 0.06829 0.92597 0.0
C1118 C 0.08411 0.07047 0.9393 0.0
C1119 C 0.06344 0.06291 0.9291 0.0
C1120 C 0.04287 0.06519 0.94167 0.0
C1121 C 0.04279 0.07485 0.96453 0.0
C1122 C 0.06328 0.0822 0.9749 0.0
C1123 C 0.08389 0.07998 0.9624 0.0
H1124 H 0.02685 0.0766 0.97423 0.0
H1125 H 0.22617 0.05149 0.85226 0.0
H1126 H 0.81702 0.01748 0.42561 0.0
H1127 H 0.84237 0.9913 0.40451 0.0
H1128 H 0.83663 0.94339 0.4627 0.0
H1129 H 0.81127 0.96962 0.484 0.0
H1130 H 0.88009 0.95025 0.45105 0.0
H1131 H 0.81108 0.93362 0.40792 0.0
H1132 H 0.77645 0.94243 0.38443 0.0
H1133 H 0.81792 0.97159 0.32889 0.0
H1134 H 0.85281 0.96323 0.35221 0.0
H1135 H 0.93785 0.85948 0.39641 0.0
H1136 H 0.90759 0.88281 0.41353 0.0
H1137 H 0.91611 0.93177 0.35675 0.0
H1138 H 0.94635 0.90831 0.33915 0.0
H1139 H 0.87085 0.92411 0.36708 0.0
H1140 H 0.93953 0.94179 0.41057 0.0
H1141 H 0.97429 0.93313 0.43394 0.0
H1142 H 0.93323 0.9023 0.48882 0.0
H1143 H 0.89824 0.9105 0.4656 0.0
C1144 C 0.82077 0.00117 0.4337 0.0
C1145 C 0.81215 0.99559 0.45646 0.0
C1146 C 0.83528 0.98623 0.42161 0.0
C1147 C 0.84125 0.96531 0.43194 0.0
C1148 C 0.83225 0.95947 0.45443 0.0
C1149 C 0.81782 0.97446 0.46658 0.0
C1150 C 0.85808 0.95024 0.42005 0.0
C1151 C 0.87786 0.94421 0.43282 0.0
C1152 C 0.85551 0.94298 0.39602 0.0
C1153 C 0.83455 0.94798 0.38193 0.0
C1154 C 0.81281 0.94207 0.39079 0.0
C1155 C 0.79313 0.94696 0.37748 0.0
C1156 C 0.79498 0.95761 0.35521 0.0
C1157 C 0.81652 0.96336 0.34616 0.0
C1158 C 0.83625 0.95853 0.3594 0.0
C1159 C 0.93333 0.87518 0.38746 0.0
C1160 C 0.94475 0.88214 0.36652 0.0
C1161 C 0.91601 0.8885 0.39731 0.0
C1162 C 0.90988 0.90917 0.38661 0.0
C1163 C 0.92067 0.91589 0.36531 0.0
C1164 C 0.938 0.90249 0.35534 0.0
C1165 C 0.89268 0.92402 0.39818 0.0
C1166 C 0.87295 0.93008 0.38533 0.0
C1167 C 0.89527 0.93138 0.42216 0.0
C1168 C 0.91628 0.92657 0.43624 0.0
C1169 C 0.93793 0.93302 0.42754 0.0
C1170 C 0.95767 0.92821 0.44077 0.0
C1171 C 0.95597 0.91712 0.46283 0.0
C1172 C 0.93452 0.91087 0.47172 0.0
C1173 C 0.91473 0.9156 0.45854 0.0
H1174 H 0.97128 0.91342 0.47304 0.0
H1175 H 0.77972 0.96138 0.34494 0.0
H1176 H 0.30875 0.3459 0.11182 0.0
H1177 H 0.33446 0.33231 0.14341 0.0
H1178 H 0.33641 0.39957 0.17402 0.0
H1179 H 0.31027 0.41315 0.14305 0.0
H1180 H 0.37966 0.38123 0.16326 0.0
H1181 H 0.30946 0.35955 0.20298 0.0
H1182 H 0.2724 0.33971 0.20632 0.0
H1183 H 0.30607 0.27546 0.19697 0.0
H1184 H 0.34331 0.29496 0.19323 0.0
H1185 H 0.43743 0.37213 0.27113 0.0
H1186 H 0.40711 0.37711 0.24179 0.0
H1187 H 0.41143 0.30621 0.22275 0.0
H1188 H 0.44196 0.30088 0.25246 0.0
H1189 H 0.36614 0.32216 0.22511 0.0
H1190 H 0.43597 0.3423 0.18691 0.0
H1191 H 0.47351 0.36098 0.18268 0.0
H1192 H 0.44139 0.42647 0.18714 0.0
H1193 H 0.40363 0.40816 0.19172 0.0
C1194 C 0.31417 0.35767 0.12563 0.0
C1195 C 0.30766 0.38069 0.12475 0.0
C1196 C 0.32893 0.34988 0.1436 0.0
C1197 C 0.3374 0.36499 0.16091 0.0
C1198 C 0.33017 0.3877 0.16068 0.0
C1199 C 0.31533 0.39544 0.14289 0.0
C1200 C 0.35522 0.35777 0.17816 0.0
C1201 C 0.37663 0.36848 0.17694 0.0
C1202 C 0.35151 0.34045 0.1953 0.0
C1203 C 0.32913 0.32873 0.19753 0.0
C1204 C 0.30893 0.34121 0.20139 0.0
C1205 C 0.2879 0.33002 0.20341 0.0
C1206 C 0.28687 0.30634 0.20178 0.0
C1207 C 0.30689 0.2938 0.19819 0.0
C1208 C 0.32796 0.30491 0.19613 0.0
C1209 C 0.43199 0.35748 0.26083 0.0
C1210 C 0.44241 0.33614 0.26397 0.0
C1211 C 0.41459 0.3604 0.24405 0.0
C1212 C 0.40729 0.34211 0.22986 0.0
C1213 C 0.41692 0.32054 0.2335 0.0
C1214 C 0.43441 0.31757 0.25041 0.0
C1215 C 0.39033 0.34613 0.21059 0.0
C1216 C 0.3692 0.33478 0.21131 0.0
C1217 C 0.39433 0.36269 0.19271 0.0
C1218 C 0.41698 0.37384 0.18984 0.0
C1219 C 0.43692 0.36069 0.18717 0.0
C1220 C 0.45825 0.37121 0.18469 0.0
C1221 C 0.45985 0.3949 0.1847 0.0
C1222 C 0.44012 0.40812 0.18715 0.0
C1223 C 0.41874 0.39767 0.18966 0.0
H1224 H 0.47638 0.40302 0.18276 0.0
H1225 H 0.27057 0.29771 0.20337 0.0
H1226 H 0.69267 0.65693 0.61506 0.0
H1227 H 0.66592 0.67033 0.64577 0.0
H1228 H 0.66366 0.60309 0.67631 0.0
H1229 H 0.69092 0.58973 0.64634 0.0
H1230 H 0.62035 0.62187 0.66122 0.0
H1231 H 0.68773 0.64139 0.70733 0.0
H1232 H 0.72453 0.66083 0.71437 0.0
H1233 H 0.69189 0.7256 0.70508 0.0
H1234 H 0.65493 0.70652 0.69763 0.0
H1235 H 0.55576 0.62668 0.76505 0.0
H1236 H 0.58694 0.62257 0.73664 0.0
H1237 H 0.58594 0.69471 0.72309 0.0
H1238 H 0.55465 0.69917 0.75202 0.0
H1239 H 0.62988 0.67821 0.72663 0.0
H1240 H 0.56253 0.66017 0.68287 0.0
H1241 H 0.52532 0.64189 0.67486 0.0
H1242 H 0.55713 0.57616 0.67738 0.0
H1243 H 0.59449 0.59403 0.68577 0.0
C1244 C 0.68704 0.64516 0.62875 0.0
C1245 C 0.69368 0.62217 0.62805 0.0
C1246 C 0.67168 0.65283 0.6462 0.0
C1247 C 0.66273 0.63762 0.6631 0.0
C1248 C 0.67029 0.61502 0.66326 0.0
C1249 C 0.68576 0.60741 0.64605 0.0
C1250 C 0.6438 0.64445 0.6791 0.0
C1251 C 0.62247 0.63403 0.67567 0.0
C1252 C 0.64641 0.66105 0.6972 0.0
C1253 C 0.66863 0.67251 0.70161 0.0
C1254 C 0.68844 0.65977 0.70652 0.0
C1255 C 0.70932 0.67072 0.71065 0.0
C1256 C 0.71057 0.69443 0.71009 0.0
C1257 C 0.69091 0.70724 0.70546 0.0
C1258 C 0.66999 0.69636 0.70129 0.0
C1259 C 0.56205 0.64176 0.75609 0.0
C1260 C 0.55246 0.66326 0.76068 0.0
C1261 C 0.57991 0.63934 0.7398 0.0
C1262 C 0.5885 0.65827 0.72748 0.0
C1263 C 0.57946 0.67988 0.73236 0.0
C1264 C 0.56154 0.68236 0.74882 0.0
C1265 C 0.6066 0.65506 0.70922 0.0
C1266 C 0.62769 0.66622 0.71205 0.0
C1267 C 0.60374 0.63932 0.69027 0.0
C1268 C 0.5813 0.62845 0.68513 0.0
C1269 C 0.56157 0.64181 0.6819 0.0
C1270 C 0.54045 0.63152 0.67726 0.0
C1271 C 0.53885 0.60787 0.67566 0.0
C1272 C 0.55839 0.59447 0.67864 0.0
C1273 C 0.57955 0.60468 0.68331 0.0
H1274 H 0.52248 0.59994 0.67206 0.0
H1275 H 0.72674 0.70288 0.7133 0.0
H1276 H 0.70228 0.37269 0.13889 0.0
H1277 H 0.67622 0.36082 0.17101 0.0
H1278 H 0.62058 0.35758 0.12016 0.0
H1279 H 0.64638 0.37002 0.08835 0.0
H1280 H 0.60762 0.38037 0.15692 0.0
H1281 H 0.64538 0.3091 0.14541 0.0
H1282 H 0.67823 0.28299 0.14206 0.0
H1283 H 0.69804 0.29854 0.21431 0.0
H1284 H 0.66548 0.325 0.21799 0.0
H1285 H 0.54704 0.30193 0.24839 0.0
H1286 H 0.57582 0.30688 0.217 0.0
H1287 H 0.5855 0.37658 0.23875 0.0
H1288 H 0.55652 0.37199 0.26977 0.0
H1289 H 0.62048 0.31831 0.21554 0.0
H1290 H 0.59198 0.40939 0.18993 0.0
H1291 H 0.55714 0.43307 0.19097 0.0
H1292 H 0.51526 0.37314 0.18794 0.0
H1293 H 0.54982 0.34914 0.18652 0.0
C1294 C 0.68455 0.3691 0.13462 0.0
C1295 C 0.67623 0.37241 0.11128 0.0
C1296 C 0.66969 0.36227 0.15291 0.0
C1297 C 0.64642 0.35826 0.14799 0.0
C1298 C 0.63839 0.36073 0.12444 0.0
C1299 C 0.65312 0.36782 0.10629 0.0
C1300 C 0.63001 0.35302 0.16751 0.0
C1301 C 0.61047 0.36675 0.16968 0.0
C1302 C 0.63353 0.33511 0.18404 0.0
C1303 C 0.65311 0.31919 0.18189 0.0
C1304 C 0.65684 0.30709 0.16052 0.0
C1305 C 0.67539 0.2922 0.15857 0.0
C1306 C 0.69025 0.28915 0.17794 0.0
C1307 C 0.68654 0.30094 0.19932 0.0
C1308 C 0.66803 0.31587 0.20135 0.0
C1309 C 0.55539 0.31828 0.24659 0.0
C1310 C 0.54922 0.33666 0.26138 0.0
C1311 C 0.5719 0.32104 0.22871 0.0
C1312 C 0.58253 0.34219 0.22533 0.0
C1313 C 0.57718 0.36024 0.24077 0.0
C1314 C 0.56058 0.35756 0.25849 0.0
C1315 C 0.59834 0.34579 0.20494 0.0
C1316 C 0.61772 0.33186 0.20269 0.0
C1317 C 0.59444 0.36317 0.18792 0.0
C1318 C 0.57351 0.37748 0.18836 0.0
C1319 C 0.57534 0.40128 0.18938 0.0
C1320 C 0.55563 0.41475 0.19005 0.0
C1321 C 0.534 0.40461 0.18959 0.0
C1322 C 0.53202 0.38098 0.18837 0.0
C1323 C 0.55166 0.36743 0.18765 0.0
H1324 H 0.51878 0.41508 0.19016 0.0
H1325 H 0.7046 0.27761 0.1764 0.0
H1326 H 0.35118 0.62575 0.59004 0.0
H1327 H 0.37541 0.63736 0.62357 0.0
H1328 H 0.31608 0.64072 0.66941 0.0
H1329 H 0.29163 0.62933 0.63569 0.0
H1330 H 0.34662 0.67469 0.6797 0.0
H1331 H 0.34795 0.59395 0.66987 0.0
H1332 H 0.3522 0.55802 0.64758 0.0
H1333 H 0.42195 0.57498 0.63112 0.0
H1334 H 0.418 0.6112 0.65301 0.0
H1335 H 0.43512 0.62833 0.77422 0.0
H1336 H 0.40482 0.62334 0.74467 0.0
H1337 H 0.41983 0.68948 0.71518 0.0
H1338 H 0.44989 0.69487 0.7452 0.0
H1339 H 0.40864 0.62002 0.69892 0.0
H1340 H 0.37201 0.71123 0.68822 0.0
H1341 H 0.36533 0.74533 0.71297 0.0
H1342 H 0.36187 0.70385 0.77613 0.0
H1343 H 0.3682 0.66949 0.75173 0.0
C1344 C 0.34329 0.62916 0.60722 0.0
C1345 C 0.3196 0.62632 0.6104 0.0
C1346 C 0.35712 0.63584 0.62633 0.0
C1347 C 0.34759 0.63949 0.64907 0.0
C1348 C 0.32376 0.63793 0.65201 0.0
C1349 C 0.30984 0.63142 0.63277 0.0
C1350 C 0.36276 0.64311 0.67001 0.0
C1351 C 0.36021 0.66279 0.68396 0.0
C1352 C 0.38009 0.62726 0.67589 0.0
C1353 C 0.38261 0.60537 0.66291 0.0
C1354 C 0.36415 0.59008 0.66136 0.0
C1355 C 0.36651 0.56966 0.64881 0.0
C1356 C 0.38732 0.56424 0.6379 0.0
C1357 C 0.40583 0.57921 0.63956 0.0
C1358 C 0.40355 0.59968 0.65206 0.0
C1359 C 0.43189 0.64192 0.76158 0.0
C1360 C 0.44503 0.66196 0.76198 0.0
C1361 C 0.41453 0.63904 0.74469 0.0
C1362 C 0.40997 0.65604 0.72773 0.0
C1363 C 0.42277 0.67626 0.72832 0.0
C1364 C 0.44003 0.67928 0.74542 0.0
C1365 C 0.39287 0.65186 0.70854 0.0
C1366 C 0.39508 0.632 0.69481 0.0
C1367 C 0.37493 0.66728 0.70334 0.0
C1368 C 0.37081 0.68781 0.71814 0.0
C1369 C 0.36973 0.70938 0.70737 0.0
C1370 C 0.36602 0.72876 0.72135 0.0
C1371 C 0.36325 0.72676 0.74611 0.0
C1372 C 0.36411 0.70538 0.75695 0.0
C1373 C 0.36779 0.68595 0.74306 0.0
H1374 H 0.36041 0.74179 0.7569 0.0
H1375 H 0.38911 0.54842 0.62819 0.0
H1376 H 0.7905 0.86008 0.13514 0.0
H1377 H 0.81559 0.84623 0.16727 0.0
H1378 H 0.87409 0.87479 0.13097 0.0
H1379 H 0.84933 0.88814 0.09873 0.0
H1380 H 0.88401 0.83357 0.14874 0.0
H1381 H 0.84846 0.90308 0.17637 0.0
H1382 H 0.81585 0.92786 0.18657 0.0
H1383 H 0.7926 0.87912 0.23836 0.0
H1384 H 0.82494 0.8539 0.22823 0.0
H1385 H 0.94518 0.87245 0.26344 0.0
H1386 H 0.91519 0.87646 0.23347 0.0
H1387 H 0.91187 0.80359 0.22571 0.0
H1388 H 0.94228 0.79933 0.25558 0.0
H1389 H 0.87176 0.86272 0.23114 0.0
H1390 H 0.89994 0.79219 0.16629 0.0
H1391 H 0.93477 0.77099 0.15503 0.0
H1392 H 0.97647 0.82774 0.17608 0.0
H1393 H 0.94187 0.84934 0.18716 0.0
C1394 C 0.80875 0.86314 0.13392 0.0
C1395 C 0.81793 0.87542 0.11457 0.0
C1396 C 0.82303 0.85532 0.15231 0.0
C1397 C 0.84668 0.85965 0.15158 0.0
C1398 C 0.8559 0.87126 0.1319 0.0
C1399 C 0.84169 0.8791 0.11362 0.0
C1400 C 0.8619 0.85315 0.1717 0.0
C1401 C 0.88119 0.83971 0.16683 0.0
C1402 C 0.85836 0.86137 0.19523 0.0
C1403 C 0.83893 0.8765 0.20133 0.0
C1404 C 0.83628 0.89757 0.18979 0.0
C1405 C 0.81787 0.91171 0.19558 0.0
C1406 C 0.80212 0.90503 0.21304 0.0
C1407 C 0.80478 0.88424 0.2248 0.0
C1408 C 0.82315 0.87002 0.21904 0.0
C1409 C 0.93812 0.8572 0.25546 0.0
C1410 C 0.94633 0.83555 0.26184 0.0
C1411 C 0.92084 0.85955 0.23839 0.0
C1412 C 0.91138 0.84035 0.22726 0.0
C1413 C 0.91911 0.81865 0.23391 0.0
C1414 C 0.93649 0.81627 0.251 0.0
C1415 C 0.89403 0.84337 0.20812 0.0
C1416 C 0.87431 0.85613 0.21319 0.0
C1417 C 0.89744 0.83494 0.18465 0.0
C1418 C 0.91834 0.82223 0.17783 0.0
C1419 C 0.91655 0.80013 0.16846 0.0
C1420 C 0.93624 0.78806 0.16211 0.0
C1421 C 0.95782 0.79798 0.16493 0.0
C1422 C 0.95975 0.82003 0.174 0.0
C1423 C 0.94011 0.83219 0.18035 0.0
H1424 H 0.97305 0.7886 0.16002 0.0
H1425 H 0.78788 0.91601 0.21751 0.0
H1426 H 0.20821 0.13994 0.63439 0.0
H1427 H 0.1837 0.15419 0.66675 0.0
H1428 H 0.12544 0.1208 0.63473 0.0
H1429 H 0.1496 0.10704 0.60221 0.0
H1430 H 0.11436 0.1628 0.64995 0.0
H1431 H 0.15389 0.09661 0.68084 0.0
H1432 H 0.18792 0.07396 0.69152 0.0
H1433 H 0.21046 0.12678 0.73912 0.0
H1434 H 0.17668 0.14988 0.72846 0.0
H1435 H 0.05771 0.1268 0.76728 0.0
H1436 H 0.08761 0.12309 0.73727 0.0
H1437 H 0.08717 0.19565 0.72628 0.0
H1438 H 0.05681 0.1996 0.75624 0.0
H1439 H 0.13038 0.13908 0.73358 0.0
H1440 H 0.09713 0.20464 0.66589 0.0
H1441 H 0.06106 0.22372 0.65463 0.0
H1442 H 0.02262 0.16621 0.67966 0.0
H1443 H 0.05846 0.14671 0.69077 0.0
C1444 C 0.19014 0.13584 0.63418 0.0
C1445 C 0.18086 0.12217 0.61592 0.0
C1446 C 0.1762 0.14391 0.65269 0.0
C1447 C 0.15279 0.13843 0.65319 0.0
C1448 C 0.14345 0.12524 0.63468 0.0
C1449 C 0.15733 0.11717 0.61626 0.0
C1450 C 0.13798 0.14553 0.67336 0.0
C1451 C 0.118 0.15786 0.66829 0.0
C1452 C 0.14265 0.13893 0.69723 0.0
C1453 C 0.16294 0.12508 0.70363 0.0
C1454 C 0.16621 0.10347 0.69342 0.0
C1455 C 0.18543 0.09054 0.6995 0.0
C1456 C 0.20138 0.09896 0.71592 0.0
C1457 C 0.19812 0.12031 0.72635 0.0
C1458 C 0.17894 0.13332 0.72031 0.0
C1459 C 0.06393 0.14205 0.7586 0.0
C1460 C 0.05465 0.1635 0.76407 0.0
C1461 C 0.08118 0.13988 0.74153 0.0
C1462 C 0.08952 0.15906 0.72947 0.0
C1463 C 0.08079 0.1806 0.73525 0.0
C1464 C 0.06346 0.18281 0.75238 0.0
C1465 C 0.10658 0.15605 0.71012 0.0
C1466 C 0.12702 0.14452 0.71534 0.0
C1467 C 0.1021 0.16297 0.6863 0.0
C1468 C 0.08045 0.17438 0.67943 0.0
C1469 C 0.08097 0.19607 0.66893 0.0
C1470 C 0.06057 0.20695 0.66258 0.0
C1471 C 0.03956 0.19622 0.66652 0.0
C1472 C 0.0389 0.17454 0.67671 0.0
C1473 C 0.05925 0.16358 0.68306 0.0
H1474 H 0.02378 0.20468 0.66161 0.0
H1475 H 0.21624 0.08892 0.72062 0.0
H1476 H 0.18477 0.83745 0.11063 0.0
H1477 H 0.16039 0.82419 0.14334 0.0
H1478 H 0.16452 0.89027 0.17659 0.0
H1479 H 0.18966 0.90336 0.14449 0.0
H1480 H 0.16519 0.85745 0.20982 0.0
H1481 H 0.11965 0.87609 0.14041 0.0
H1482 H 0.10799 0.87345 0.09803 0.0
H1483 H 0.09373 0.80234 0.10679 0.0
H1484 H 0.10561 0.8045 0.14917 0.0
H1485 H 0.06154 0.86885 0.27311 0.0
H1486 H 0.09351 0.87175 0.24528 0.0
H1487 H 0.08356 0.80192 0.2242 0.0
H1488 H 0.05133 0.7988 0.25206 0.0
H1489 H 0.08778 0.8311 0.18573 0.0
H1490 H 0.12859 0.81491 0.25787 0.0
H1491 H 0.13872 0.81957 0.30047 0.0
H1492 H 0.16058 0.88805 0.28694 0.0
H1493 H 0.15027 0.88393 0.24431 0.0
C1494 C 0.18095 0.849 0.1252 0.0
C1495 C 0.18895 0.87155 0.12482 0.0
C1496 C 0.16684 0.84145 0.14377 0.0
C1497 C 0.16031 0.85637 0.16216 0.0
C1498 C 0.16925 0.8785 0.1625 0.0
C1499 C 0.18343 0.88603 0.14402 0.0
C1500 C 0.14296 0.84956 0.18016 0.0
C1501 C 0.14824 0.85176 0.20458 0.0
C1502 C 0.12098 0.84171 0.1733 0.0
C1503 C 0.11379 0.84039 0.14786 0.0
C1504 C 0.1142 0.85985 0.13324 0.0
C1505 C 0.10753 0.85845 0.10923 0.0
C1506 C 0.1002 0.83772 0.0997 0.0
C1507 C 0.09946 0.81837 0.11418 0.0
C1508 C 0.10616 0.81967 0.1382 0.0
C1509 C 0.06612 0.85404 0.26264 0.0
C1510 C 0.05379 0.83359 0.26479 0.0
C1511 C 0.08453 0.8557 0.24685 0.0
C1512 C 0.09104 0.83698 0.23289 0.0
C1513 C 0.07885 0.81652 0.23494 0.0
C1514 C 0.06047 0.81477 0.25088 0.0
C1515 C 0.10991 0.8393 0.21537 0.0
C1516 C 0.10487 0.83634 0.19102 0.0
C1517 C 0.13201 0.84667 0.22231 0.0
C1518 C 0.13851 0.84914 0.2479 0.0
C1519 C 0.13542 0.83102 0.264 0.0
C1520 C 0.14121 0.83356 0.28816 0.0
C1521 C 0.15025 0.85411 0.29642 0.0
C1522 C 0.15357 0.87214 0.28052 0.0
C1523 C 0.14779 0.8697 0.25634 0.0
H1524 H 0.1547 0.85605 0.31513 0.0
H1525 H 0.09503 0.83667 0.08111 0.0
H1526 H 0.83626 0.09331 0.62231 0.0
H1527 H 0.86043 0.10498 0.65561 0.0
H1528 H 0.81842 0.16426 0.66654 0.0
H1529 H 0.79319 0.15215 0.63382 0.0
H1530 H 0.86862 0.17161 0.66382 0.0
H1531 H 0.81255 0.12739 0.70582 0.0
H1532 H 0.78816 0.09386 0.71292 0.0
H1533 H 0.84791 0.05192 0.72003 0.0
H1534 H 0.87267 0.08514 0.7126 0.0
H1535 H 0.93607 0.19659 0.76804 0.0
H1536 H 0.90375 0.19144 0.74056 0.0
H1537 H 0.92261 0.12111 0.7309 0.0
H1538 H 0.95426 0.12592 0.7588 0.0
H1539 H 0.87888 0.12354 0.73603 0.0
H1540 H 0.93458 0.16422 0.68861 0.0
H1541 H 0.96065 0.19595 0.67907 0.0
H1542 H 0.90401 0.24245 0.67969 0.0
H1543 H 0.87764 0.21101 0.68953 0.0
C1544 C 0.8317 0.10856 0.63204 0.0
C1545 C 0.81253 0.12164 0.6254 0.0
C1546 C 0.84572 0.1153 0.65097 0.0
C1547 C 0.84111 0.13539 0.66354 0.0
C1548 C 0.82222 0.14869 0.65697 0.0
C1549 C 0.80791 0.14178 0.63819 0.0
C1550 C 0.85649 0.14241 0.68325 0.0
C1551 C 0.87058 0.16145 0.67991 0.0
C1552 C 0.85931 0.12877 0.70385 0.0
C1553 C 0.84447 0.10875 0.70849 0.0
C1554 C 0.82049 0.11099 0.7087 0.0
C1555 C 0.8066 0.09204 0.71282 0.0
C1556 C 0.81648 0.07076 0.71688 0.0
C1557 C 0.84028 0.06841 0.71688 0.0
C1558 C 0.85425 0.0873 0.71274 0.0
C1559 C 0.93333 0.18006 0.75999 0.0
C1560 C 0.94774 0.16167 0.7656 0.0
C1561 C 0.91488 0.17715 0.74425 0.0
C1562 C 0.91082 0.15592 0.73348 0.0
C1563 C 0.92527 0.13762 0.73906 0.0
C1564 C 0.94344 0.14042 0.75499 0.0
C1565 C 0.89162 0.15244 0.71638 0.0
C1566 C 0.87675 0.13403 0.7202 0.0
C1567 C 0.88838 0.16644 0.69601 0.0
C1568 C 0.9042 0.18533 0.6901 0.0
C1569 C 0.92772 0.18125 0.6869 0.0
C1570 C 0.94254 0.19916 0.68141 0.0
C1571 C 0.934 0.22121 0.67886 0.0
C1572 C 0.91061 0.22537 0.68173 0.0
C1573 C 0.89572 0.20751 0.68725 0.0
H1574 H 0.9455 0.23506 0.6746 0.0
H1575 H 0.80569 0.05611 0.72006 0.0
loop_
_geom_bond_atom_site_label_1
_geom_bond_atom_site_label_2
_geom_bond_distance
_geom_bond_site_symmetry_2
_ccdc_geom_bond_type
C0 C1 1.384 . S
C0 H13 0.947 . S
C0 C35 1.382 . S
C1 C0 1.384 . S
C1 C2 1.378 . S
C2 C1 1.378 . S
C2 C3 1.378 . S
C2 H14 0.952 . S
C3 C2 1.378 . S
C3 H15 0.950 . S
C3 C34 1.383 . S
H4 C23 0.947 . S
H5 C24 0.946 1_554 S
H6 C26 0.953 . S
H7 C27 0.945 . S
H8 C29 0.952 . S
H9 C30 0.949 . S
H10 C32 0.950 . S
H11 C33 0.948 1_554 S
H12 C35 0.951 . S
H13 C0 0.947 . S
H14 C2 0.952 . S
H15 C3 0.950 . S
N16 C19 1.382 1_554 S
N16 C21 1.363 . S
N17 C19 1.371 . S
N17 C20 1.372 . S
N18 C20 1.361 1_554 S
N18 C21 1.377 . S
C19 N16 1.382 1_556 S
C19 N17 1.371 . S
C19 C22 1.480 . S
C20 N17 1.372 . S
C20 N18 1.361 1_556 S
C20 C28 1.457 . S
C21 N16 1.363 . S
C21 N18 1.377 . S
C21 C34 1.479 . S
C22 C19 1.480 . S
C22 C23 1.383 1_556 S
C22 C27 1.385 . S
C23 H4 0.947 . S
C23 C22 1.383 1_554 S
C23 C24 1.388 1_554 S
C24 H5 0.946 1_556 S
C24 C23 1.388 1_556 S
C24 C25 1.384 . S
C25 C24 1.384 . S
C25 C26 1.377 . S
C26 H6 0.953 . S
C26 C25 1.377 . S
C26 C27 1.369 . S
C27 H7 0.945 . S
C27 C22 1.385 . S
C27 C26 1.369 . S
C28 C20 1.457 . S
C28 C29 1.372 . S
C28 C33 1.364 . S
C29 H8 0.952 . S
C29 C28 1.372 . S
C29 C30 1.389 . S
C30 H9 0.949 . S
C30 C29 1.389 . S
C30 C31 1.387 . S
C31 C30 1.387 . S
C31 C32 1.372 . S
C32 H10 0.950 . S
C32 C31 1.372 . S
C32 C33 1.379 . S
C33 H11 0.948 1_556 S
C33 C28 1.364 . S
C33 C32 1.379 . S
C34 C3 1.383 . S
C34 C21 1.479 . S
C34 C35 1.398 . S
C35 C0 1.382 . S
C35 H12 0.951 . S
C35 C34 1.398 . S
C36 C37 1.384 . S
C36 H49 0.947 . S
C36 C71 1.382 . S
C37 C36 1.384 . S
C37 C38 1.378 . S
C38 C37 1.378 . S
C38 C39 1.378 . S
C38 H50 0.952 . S
C39 C38 1.378 . S
C39 H51 0.950 . S
C39 C70 1.383 . S
H40 C59 0.947 . S
H41 C60 0.946 . S
H42 C62 0.953 . S
H43 C63 0.945 . S
H44 C65 0.952 . S
H45 C66 0.949 . S
H46 C68 0.950 . S
H47 C69 0.948 . S
H48 C71 0.951 . S
H49 C36 0.947 . S
H50 C38 0.952 . S
H51 C39 0.950 . S
N52 C55 1.382 . S
N52 C57 1.363 . S
N53 C55 1.371 . S
N53 C56 1.372 . S
N54 C56 1.361 . S
N54 C57 1.377 . S
C55 N52 1.382 . S
C55 N53 1.371 . S
C55 C58 1.480 . S
C56 N53 1.372 . S
C56 N54 1.361 . S
C56 C64 1.457 . S
C57 N52 1.363 . S
C57 N54 1.377 . S
C57 C70 1.479 . S
C58 C55 1.480 . S
C58 C59 1.383 . S
C58 C63 1.385 . S
C59 H40 0.947 . S
C59 C58 1.383 . S
C59 C60 1.388 . S
C60 H41 0.946 . S
C60 C59 1.388 . S
C60 C61 1.384 . S
C61 C60 1.384 . S
C61 C62 1.377 . S
C62 H42 0.953 . S
C62 C61 1.377 . S
C62 C63 1.369 . S
C63 H43 0.945 . S
C63 C58 1.385 . S
C63 C62 1.369 . S
C64 C56 1.457 . S
C64 C65 1.372 . S
C64 C69 1.364 . S
C65 H44 0.952 . S
C65 C64 1.372 . S
C65 C66 1.389 . S
C66 H45 0.949 . S
C66 C65 1.389 . S
C66 C67 1.387 . S
C67 C66 1.387 . S
C67 C68 1.372 . S
C68 H46 0.950 . S
C68 C67 1.372 . S
C68 C69 1.379 . S
C69 H47 0.948 . S
C69 C64 1.364 . S
C69 C68 1.379 . S
C70 C39 1.383 . S
C70 C57 1.479 . S
C70 C71 1.398 . S
C71 C36 1.382 . S
C71 H48 0.951 . S
C71 C70 1.398 . S
C72 C73 1.384 . S
C72 H85 0.947 . S
C72 C107 1.382 . S
C73 C72 1.384 . S
C73 C74 1.378 . S
C74 C73 1.378 . S
C74 C75 1.378 . S
C74 H86 0.952 . S
C75 C74 1.378 . S
C75 H87 0.950 . S
C75 C106 1.383 . S
H76 C95 0.947 . S
H77 C96 0.946 1_554 S
H78 C98 0.953 . S
H79 C99 0.945 . S
H80 C101 0.952 . S
H81 C102 0.949 . S
H82 C104 0.950 . S
H83 C105 0.948 1_554 S
H84 C107 0.951 . S
H85 C72 0.947 . S
H86 C74 0.952 . S
H87 C75 0.950 . S
N88 C91 1.382 . S
N88 C93 1.363 . S
N89 C91 1.371 1_556 S
N89 C92 1.378 . S
N90 C92 1.349 1_554 S
N90 C93 1.377 . S
C91 N88 1.382 . S
C91 N89 1.371 1_554 S
C91 C94 1.480 1_554 S
C92 N89 1.378 . S
C92 N90 1.349 1_556 S
C92 C100 1.464 . S
C93 N88 1.363 . S
C93 N90 1.377 . S
C93 C106 1.479 . S
C94 C91 1.480 1_556 S
C94 C95 1.383 1_556 S
C94 C99 1.385 . S
C95 H76 0.947 . S
C95 C94 1.383 1_554 S
C95 C96 1.388 1_554 S
C96 H77 0.946 1_556 S
C96 C95 1.388 1_556 S
C96 C97 1.384 . S
C97 C96 1.384 . S
C97 C98 1.377 . S
C98 H78 0.953 . S
C98 C97 1.377 . S
C98 C99 1.369 . S
C99 H79 0.945 . S
C99 C94 1.385 . S
C99 C98 1.369 . S
C100 C92 1.464 . S
C100 C101 1.372 . S
C100 C105 1.364 . S
C101 H80 0.952 . S
C101 C100 1.372 . S
C101 C102 1.389 . S
C102 H81 0.949 . S
C102 C101 1.389 . S
C102 C103 1.387 . S
C103 C102 1.387 . S
C103 C104 1.372 . S
C104 H82 0.950 . S
C104 C103 1.372 . S
C104 C105 1.379 . S
C105 H83 0.948 1_556 S
C105 C100 1.364 . S
C105 C104 1.379 . S
C106 C75 1.383 . S
C106 C93 1.479 . S
C106 C107 1.398 . S
C107 C72 1.382 . S
C107 H84 0.951 . S
C107 C106 1.398 . S
C108 C109 1.384 . S
C108 H121 0.947 . S
C108 C143 1.382 . S
C109 C108 1.384 . S
C109 C110 1.378 . S
C110 C109 1.378 . S
C110 C111 1.378 . S
C110 H122 0.952 . S
C111 C110 1.378 . S
C111 H123 0.950 . S
C111 C142 1.383 . S
H112 C131 0.947 . S
H113 C132 0.946 . S
H114 C134 0.953 . S
H115 C135 0.945 . S
H116 C137 0.952 . S
H117 C138 0.949 . S
H118 C140 0.950 . S
H119 C141 0.948 . S
H120 C143 0.951 . S
H121 C108 0.947 . S
H122 C110 0.952 . S
H123 C111 0.950 . S
N124 C127 1.382 . S
N124 C129 1.363 . S
N125 C127 1.371 . S
N125 C128 1.372 . S
N126 C128 1.361 . S
N126 C129 1.377 . S
C127 N124 1.382 . S
C127 N125 1.371 . S
C127 C130 1.480 . S
C128 N125 1.372 . S
C128 N126 1.361 . S
C128 C136 1.457 . S
C129 N124 1.363 . S
C129 N126 1.377 . S
C129 C142 1.479 . S
C130 C127 1.480 . S
C130 C131 1.383 . S
C130 C135 1.385 . S
C131 H112 0.947 . S
C131 C130 1.383 . S
C131 C132 1.388 . S
C132 H113 0.946 . S
C132 C131 1.388 . S
C132 C133 1.384 . S
C133 C132 1.384 . S
C133 C134 1.377 . S
C134 H114 0.953 . S
C134 C133 1.377 . S
C134 C135 1.369 . S
C135 H115 0.945 . S
C135 C130 1.385 . S
C135 C134 1.369 . S
C136 C128 1.457 . S
C136 C137 1.372 . S
C136 C141 1.364 . S
C137 H116 0.952 . S
C137 C136 1.372 . S
C137 C138 1.389 . S
C138 H117 0.949 . S
C138 C137 1.389 . S
C138 C139 1.387 . S
C139 C138 1.387 . S
C139 C140 1.372 . S
C140 H118 0.950 . S
C140 C139 1.372 . S
C140 C141 1.379 . S
C141 H119 0.948 . S
C141 C136 1.364 . S
C141 C140 1.379 . S
C142 C111 1.383 . S
C142 C129 1.479 . S
C142 C143 1.398 . S
C143 C108 1.382 . S
C143 H120 0.951 . S
C143 C142 1.398 . S
C144 C145 1.384 . S
C144 H157 0.947 . S
C144 C179 1.382 . S
C145 C144 1.384 . S
C145 C146 1.378 . S
C146 C145 1.378 . S
C146 C147 1.378 . S
C146 H158 0.952 . S
C147 C146 1.378 . S
C147 H159 0.950 . S
C147 C178 1.383 . S
H148 C167 0.947 . S
H149 C168 0.946 1_554 S
H150 C170 0.953 . S
H151 C171 0.945 . S
H152 C173 0.952 . S
H153 C174 0.949 . S
H154 C176 0.950 . S
H155 C177 0.948 1_554 S
H156 C179 0.951 . S
H157 C144 0.947 . S
H158 C146 0.952 . S
H159 C147 0.950 . S
N160 C163 1.382 1_554 S
N160 C165 1.363 . S
N161 C163 1.371 . S
N161 C164 1.372 . S
N162 C164 1.361 1_554 S
N162 C165 1.377 . S
C163 N160 1.382 1_556 S
C163 N161 1.371 . S
C163 C166 1.480 . S
C164 N161 1.372 . S
C164 N162 1.361 1_556 S
C164 C172 1.457 . S
C165 N160 1.363 . S
C165 N162 1.377 . S
C165 C178 1.479 . S
C166 C163 1.480 . S
C166 C167 1.383 1_556 S
C166 C171 1.385 . S
C167 H148 0.947 . S
C167 C166 1.383 1_554 S
C167 C168 1.388 1_554 S
C168 H149 0.946 1_556 S
C168 C167 1.388 1_556 S
C168 C169 1.384 . S
C169 C168 1.384 . S
C169 C170 1.377 . S
C170 H150 0.953 . S
C170 C169 1.377 . S
C170 C171 1.369 . S
C171 H151 0.945 . S
C171 C166 1.385 . S
C171 C170 1.369 . S
C172 C164 1.457 . S
C172 C173 1.372 . S
C172 C177 1.364 . S
C173 H152 0.952 . S
C173 C172 1.372 . S
C173 C174 1.389 . S
C174 H153 0.949 . S
C174 C173 1.389 . S
C174 C175 1.387 . S
C175 C174 1.387 . S
C175 C176 1.372 . S
C176 H154 0.950 . S
C176 C175 1.372 . S
C176 C177 1.379 . S
C177 H155 0.948 1_556 S
C177 C172 1.364 . S
C177 C176 1.379 . S
C178 C147 1.383 . S
C178 C165 1.479 . S
C178 C179 1.398 . S
C179 C144 1.382 . S
C179 H156 0.951 . S
C179 C178 1.398 . S
C180 C181 1.384 . S
C180 H193 0.947 . S
C180 C215 1.382 . S
C181 C180 1.384 . S
C181 C182 1.378 . S
C182 C181 1.378 . S
C182 C183 1.378 . S
C182 H194 0.952 . S
C183 C182 1.378 . S
C183 H195 0.950 . S
C183 C214 1.383 . S
H184 C203 0.947 . S
H185 C204 0.946 . S
H186 C206 0.953 . S
H187 C207 0.945 . S
H188 C209 0.952 . S
H189 C210 0.949 . S
H190 C212 0.950 . S
H191 C213 0.948 . S
H192 C215 0.951 . S
H193 C180 0.947 . S
H194 C182 0.952 . S
H195 C183 0.950 . S
N196 C199 1.382 . S
N196 C201 1.363 . S
N197 C199 1.371 . S
N197 C200 1.372 . S
N198 C200 1.361 . S
N198 C201 1.377 . S
C199 N196 1.382 . S
C199 N197 1.371 . S
C199 C202 1.480 . S
C200 N197 1.372 . S
C200 N198 1.361 . S
C200 C208 1.457 . S
C201 N196 1.363 . S
C201 N198 1.377 . S
C201 C214 1.479 . S
C202 C199 1.480 . S
C202 C203 1.383 . S
C202 C207 1.385 . S
C203 H184 0.947 . S
C203 C202 1.383 . S
C203 C204 1.388 . S
C204 H185 0.946 . S
C204 C203 1.388 . S
C204 C205 1.384 . S
C205 C204 1.384 . S
C205 C206 1.377 . S
C206 H186 0.953 . S
C206 C205 1.377 . S
C206 C207 1.369 . S
C207 H187 0.945 . S
C207 C202 1.385 . S
C207 C206 1.369 . S
C208 C200 1.457 . S
C208 C209 1.372 . S
C208 C213 1.364 . S
C209 H188 0.952 . S
C209 C208 1.372 . S
C209 C210 1.389 . S
C210 H189 0.949 . S
C210 C209 1.389 . S
C210 C211 1.387 . S
C211 C210 1.387 . S
C211 C212 1.372 . S
C212 H190 0.950 . S
C212 C211 1.372 . S
C212 C213 1.379 . S
C213 H191 0.948 . S
C213 C208 1.364 . S
C213 C212 1.379 . S
C214 C183 1.383 . S
C214 C201 1.479 . S
C214 C215 1.398 . S
C215 C180 1.382 . S
C215 H192 0.951 . S
C215 C214 1.398 . S
C216 C217 1.384 . S
C216 H229 0.947 . S
C216 C251 1.382 . S
C217 C216 1.384 . S
C217 C218 1.378 . S
C218 C217 1.378 . S
C218 C219 1.378 . S
C218 H230 0.952 . S
C219 C218 1.378 . S
C219 H231 0.950 . S
C219 C250 1.383 . S
H220 C239 0.947 . S
H221 C240 0.946 1_554 S
H222 C242 0.953 . S
H223 C243 0.945 . S
H224 C245 0.952 . S
H225 C246 0.949 . S
H226 C248 0.950 . S
H227 C249 0.948 1_554 S
H228 C251 0.951 . S
H229 C216 0.947 . S
H230 C218 0.952 . S
H231 C219 0.950 . S
N232 C235 1.382 . S
N232 C237 1.363 . S
N233 C235 1.371 1_556 S
N233 C236 1.378 . S
N234 C236 1.349 1_554 S
N234 C237 1.377 . S
C235 N232 1.382 . S
C235 N233 1.371 1_554 S
C235 C238 1.480 1_554 S
C236 N233 1.378 . S
C236 N234 1.349 1_556 S
C236 C244 1.464 . S
C237 N232 1.363 . S
C237 N234 1.377 . S
C237 C250 1.479 . S
C238 C235 1.480 1_556 S
C238 C239 1.383 1_556 S
C238 C243 1.385 . S
C239 H220 0.947 . S
C239 C238 1.383 1_554 S
C239 C240 1.388 1_554 S
C240 H221 0.946 1_556 S
C240 C239 1.388 1_556 S
C240 C241 1.384 . S
C241 C240 1.384 . S
C241 C242 1.377 . S
C242 H222 0.953 . S
C242 C241 1.377 . S
C242 C243 1.369 . S
C243 H223 0.945 . S
C243 C238 1.385 . S
C243 C242 1.369 . S
C244 C236 1.464 . S
C244 C245 1.372 . S
C244 C249 1.364 . S
C245 H224 0.952 . S
C245 C244 1.372 . S
C245 C246 1.389 . S
C246 H225 0.949 . S
C246 C245 1.389 . S
C246 C247 1.387 . S
C247 C246 1.387 . S
C247 C248 1.372 . S
C248 H226 0.950 . S
C248 C247 1.372 . S
C248 C249 1.379 . S
C249 H227 0.948 1_556 S
C249 C244 1.364 . S
C249 C248 1.379 . S
C250 C219 1.383 . S
C250 C237 1.479 . S
C250 C251 1.398 . S
C251 C216 1.382 . S
C251 H228 0.951 . S
C251 C250 1.398 . S
C252 C253 1.384 . S
C252 H265 0.947 . S
C252 C287 1.382 . S
C253 C252 1.384 . S
C253 C254 1.378 . S
C254 C253 1.378 . S
C254 C255 1.378 . S
C254 H266 0.952 . S
C255 C254 1.378 . S
C255 H267 0.950 . S
C255 C286 1.383 . S
H256 C275 0.947 . S
H257 C276 0.946 . S
H258 C278 0.953 . S
H259 C279 0.945 . S
H260 C281 0.952 . S
H261 C282 0.949 . S
H262 C284 0.950 . S
H263 C285 0.948 . S
H264 C287 0.951 . S
H265 C252 0.947 . S
H266 C254 0.952 . S
H267 C255 0.950 . S
N268 C271 1.382 . S
N268 C273 1.363 . S
N269 C271 1.371 . S
N269 C272 1.372 . S
N270 C272 1.361 . S
N270 C273 1.377 . S
C271 N268 1.382 . S
C271 N269 1.371 . S
C271 C274 1.480 . S
C272 N269 1.372 . S
C272 N270 1.361 . S
C272 C280 1.457 . S
C273 N268 1.363 . S
C273 N270 1.377 . S
C273 C286 1.479 . S
C274 C271 1.480 . S
C274 C275 1.383 . S
C274 C279 1.385 . S
C275 H256 0.947 . S
C275 C274 1.383 . S
C275 C276 1.388 . S
C276 H257 0.946 . S
C276 C275 1.388 . S
C276 C277 1.384 . S
C277 C276 1.384 . S
C277 C278 1.377 . S
C278 H258 0.953 . S
C278 C277 1.377 . S
C278 C279 1.369 . S
C279 H259 0.945 . S
C279 C274 1.385 . S
C279 C278 1.369 . S
C280 C272 1.457 . S
C280 C281 1.372 . S
C280 C285 1.364 . S
C281 H260 0.952 . S
C281 C280 1.372 . S
C281 C282 1.389 . S
C282 H261 0.949 . S
C282 C281 1.389 . S
C282 C283 1.387 . S
C283 C282 1.387 . S
C283 C284 1.372 . S
C284 H262 0.950 . S
C284 C283 1.372 . S
C284 C285 1.379 . S
C285 H263 0.948 . S
C285 C280 1.364 . S
C285 C284 1.379 . S
C286 C255 1.383 . S
C286 C273 1.479 . S
C286 C287 1.398 . S
C287 C252 1.382 . S
C287 H264 0.951 . S
C287 C286 1.398 . S
Sc288 O291 2.025 . S
Sc288 O298 2.105 1_455 S
Sc288 O301 2.105 . S
Sc288 O304 2.105 . S
Sc288 O307 2.105 1_455 S
Sc289 O291 2.025 . S
Sc289 O299 2.105 1_455 S
Sc289 O303 2.105 . S
Sc289 O305 2.105 . S
Sc289 O309 2.105 1_455 S
Sc290 O291 2.025 . S
Sc290 O300 2.105 1_455 S
Sc290 O302 2.105 . S
Sc290 O306 2.105 . S
Sc290 O308 2.105 1_455 S
O291 Sc288 2.025 . S
O291 Sc289 2.025 . S
O291 Sc290 2.025 . S
C292 O298 1.268 . S
C292 O308 1.268 . S
C293 O299 1.268 . S
C293 O307 1.268 . S
C294 O300 1.268 . S
C294 O309 1.268 . S
C295 O301 1.268 . S
C295 O305 1.268 . S
C296 O302 1.268 . S
C296 O304 1.268 . S
C297 O303 1.268 . S
C297 O306 1.268 . S
O298 Sc288 2.105 1_655 S
O298 C292 1.268 . S
O299 Sc289 2.105 1_655 S
O299 C293 1.268 . S
O300 Sc290 2.105 1_655 S
O300 C294 1.268 . S
O301 Sc288 2.105 . S
O301 C295 1.268 . S
O302 Sc290 2.105 . S
O302 C296 1.268 . S
O303 Sc289 2.105 . S
O303 C297 1.268 . S
O304 Sc288 2.105 . S
O304 C296 1.268 . S
O305 Sc289 2.105 . S
O305 C295 1.268 . S
O306 Sc290 2.105 . S
O306 C297 1.268 . S
O307 Sc288 2.105 1_655 S
O307 C293 1.268 . S
O308 Sc290 2.105 1_655 S
O308 C292 1.268 . S
O309 Sc289 2.105 1_655 S
O309 C294 1.268 . S
Sc310 O313 2.025 . S
Sc310 O320 2.105 . S
Sc310 O323 2.105 1_455 S
Sc310 O326 2.105 1_455 S
Sc310 O329 2.105 . S
Sc311 O313 2.025 . S
Sc311 O321 2.105 . S
Sc311 O325 2.105 1_455 S
Sc311 O327 2.105 1_455 S
Sc311 O331 2.105 . S
Sc312 O313 2.025 . S
Sc312 O322 2.105 . S
Sc312 O324 2.105 1_455 S
Sc312 O328 2.105 1_455 S
Sc312 O330 2.105 . S
O313 Sc310 2.025 . S
O313 Sc311 2.025 . S
O313 Sc312 2.025 . S
C314 O320 1.268 . S
C314 O330 1.268 . S
C315 O321 1.268 . S
C315 O329 1.268 . S
C316 O322 1.268 . S
C316 O331 1.268 . S
C317 O323 1.268 . S
C317 O327 1.268 . S
C318 O324 1.268 . S
C318 O326 1.268 . S
C319 O325 1.268 . S
C319 O328 1.268 . S
O320 Sc310 2.105 . S
O320 C314 1.268 . S
O321 Sc311 2.105 . S
O321 C315 1.268 . S
O322 Sc312 2.105 . S
O322 C316 1.268 . S
O323 Sc310 2.105 1_655 S
O323 C317 1.268 . S
O324 Sc312 2.105 1_655 S
O324 C318 1.268 . S
O325 Sc311 2.105 1_655 S
O325 C319 1.268 . S
O326 Sc310 2.105 1_655 S
O326 C318 1.268 . S
O327 Sc311 2.105 1_655 S
O327 C317 1.268 . S
O328 Sc312 2.105 1_655 S
O328 C319 1.268 . S
O329 Sc310 2.105 . S
O329 C315 1.268 . S
O330 Sc312 2.105 . S
O330 C314 1.268 . S
O331 Sc311 2.105 . S
O331 C316 1.268 . S
Sc332 O335 2.025 . S
Sc332 O342 2.105 . S
Sc332 O345 2.105 . S
Sc332 O348 2.105 . S
Sc332 O351 2.105 . S
Sc333 O335 2.025 . S
Sc333 O343 2.105 . S
Sc333 O347 2.105 . S
Sc333 O349 2.105 . S
Sc333 O353 2.105 . S
Sc334 O335 2.025 . S
Sc334 O344 2.105 . S
Sc334 O346 2.105 . S
Sc334 O350 2.105 . S
Sc334 O352 2.105 . S
O335 Sc332 2.025 . S
O335 Sc333 2.025 . S
O335 Sc334 2.025 . S
C336 O342 1.268 . S
C336 O352 1.268 . S
C337 O343 1.268 . S
C337 O351 1.268 . S
C338 O344 1.268 . S
C338 O353 1.268 . S
C339 O345 1.268 . S
C339 O349 1.268 . S
C340 O346 1.268 . S
C340 O348 1.268 . S
C341 O347 1.268 . S
C341 O350 1.268 . S
O342 Sc332 2.105 . S
O342 C336 1.268 . S
O343 Sc333 2.105 . S
O343 C337 1.268 . S
O344 Sc334 2.105 . S
O344 C338 1.268 . S
O345 Sc332 2.105 . S
O345 C339 1.268 . S
O346 Sc334 2.105 . S
O346 C340 1.268 . S
O347 Sc333 2.105 . S
O347 C341 1.268 . S
O348 Sc332 2.105 . S
O348 C340 1.268 . S
O349 Sc333 2.105 . S
O349 C339 1.268 . S
O350 Sc334 2.105 . S
O350 C341 1.268 . S
O351 Sc332 2.105 . S
O351 C337 1.268 . S
O352 Sc334 2.105 . S
O352 C336 1.268 . S
O353 Sc333 2.105 . S
O353 C338 1.268 . S
Sc354 O357 2.025 . S
Sc354 O364 2.105 . S
Sc354 O367 2.105 . S
Sc354 O370 2.105 . S
Sc354 O373 2.105 . S
Sc355 O357 2.025 . S
Sc355 O365 2.105 . S
Sc355 O369 2.105 . S
Sc355 O371 2.105 . S
Sc355 O375 2.105 . S
Sc356 O357 2.025 . S
Sc356 O366 2.105 . S
Sc356 O368 2.105 . S
Sc356 O372 2.105 . S
Sc356 O374 2.105 . S
O357 Sc354 2.025 . S
O357 Sc355 2.025 . S
O357 Sc356 2.025 . S
C358 O364 1.268 . S
C358 O374 1.268 . S
C359 O365 1.268 . S
C359 O373 1.268 . S
C360 O366 1.268 . S
C360 O375 1.268 . S
C361 O367 1.268 . S
C361 O371 1.268 . S
C362 O368 1.268 . S
C362 O370 1.268 . S
C363 O369 1.268 . S
C363 O372 1.268 . S
O364 Sc354 2.105 . S
O364 C358 1.268 . S
O365 Sc355 2.105 . S
O365 C359 1.268 . S
O366 Sc356 2.105 . S
O366 C360 1.268 . S
O367 Sc354 2.105 . S
O367 C361 1.268 . S
O368 Sc356 2.105 . S
O368 C362 1.268 . S
O369 Sc355 2.105 . S
O369 C363 1.268 . S
O370 Sc354 2.105 . S
O370 C362 1.268 . S
O371 Sc355 2.105 . S
O371 C361 1.268 . S
O372 Sc356 2.105 . S
O372 C363 1.268 . S
O373 Sc354 2.105 . S
O373 C359 1.268 . S
O374 Sc356 2.105 . S
O374 C358 1.268 . S
O375 Sc355 2.105 . S
O375 C360 1.268 . S
H376 C394 0.951 . S
H377 C396 0.951 . S
H378 C398 0.950 . S
H379 C399 0.950 . S
H380 C401 0.950 . S
H381 C404 0.950 . S
H382 C405 0.950 . S
H383 C407 0.950 . S
H384 C408 0.950 . S
H385 C409 0.951 . S
H386 C411 0.951 . S
H387 C413 0.950 . S
H388 C414 0.950 . S
H389 C416 0.950 . S
H390 C419 0.950 . S
H391 C420 0.950 . S
H392 C422 0.950 . S
H393 C423 0.950 . S
C394 H376 0.951 . S
C394 C395 1.366 . S
C394 C396 1.388 . S
C395 C394 1.366 . S
C395 C399 1.385 . S
C396 H377 0.951 . S
C396 C394 1.388 . S
C396 C397 1.366 . S
C397 C396 1.366 . S
C397 C398 1.414 . S
C397 C400 1.499 . S
C398 H378 0.950 . S
C398 C397 1.414 . S
C398 C399 1.374 . S
C399 H379 0.950 . S
C399 C395 1.385 . S
C399 C398 1.374 . S
C400 C397 1.499 . S
C400 C401 1.373 . S
C400 C402 1.389 . S
C401 H380 0.950 . S
C401 C400 1.373 . S
C401 C417 1.377 . S
C402 C400 1.389 . S
C402 C403 1.524 . S
C402 C416 1.377 . S
C403 C402 1.524 . S
C403 C404 1.397 . S
C403 C408 1.363 . S
C404 H381 0.950 . S
C404 C403 1.397 . S
C404 C405 1.334 . S
C405 H382 0.950 . S
C405 C404 1.334 . S
C405 C406 1.287 . S
C406 C405 1.287 . S
C406 C407 1.524 . S
C406 H425 0.913 . S
C407 H383 0.950 . S
C407 C406 1.524 . S
C407 C408 1.415 . S
C408 H384 0.950 . S
C408 C403 1.363 . S
C408 C407 1.415 . S
C409 H385 0.951 . S
C409 C410 1.366 . S
C409 C411 1.388 . S
C410 C409 1.366 . S
C410 C414 1.385 . S
C411 H386 0.951 . S
C411 C409 1.388 . S
C411 C412 1.366 . S
C412 C411 1.366 . S
C412 C413 1.414 . S
C412 C415 1.499 . S
C413 H387 0.950 . S
C413 C412 1.414 . S
C413 C414 1.374 . S
C414 H388 0.950 . S
C414 C410 1.385 . S
C414 C413 1.374 . S
C415 C412 1.499 . S
C415 C416 1.373 . S
C415 C417 1.389 . S
C416 H389 0.950 . S
C416 C402 1.377 . S
C416 C415 1.373 . S
C417 C401 1.377 . S
C417 C415 1.389 . S
C417 C418 1.524 . S
C418 C417 1.524 . S
C418 C419 1.397 . S
C418 C423 1.363 . S
C419 H390 0.950 . S
C419 C418 1.397 . S
C419 C420 1.334 . S
C420 H391 0.950 . S
C420 C419 1.334 . S
C420 C421 1.287 . S
C421 C420 1.287 . S
C421 C422 1.524 . S
C421 H424 0.999 . S
C422 H392 0.950 . S
C422 C421 1.524 . S
C422 C423 1.415 . S
C423 H393 0.950 . S
C423 C418 1.363 . S
C423 C422 1.415 . S
H424 C421 0.999 . S
H425 C406 0.913 . S
H426 C444 0.951 . S
H427 C446 0.951 . S
H428 C448 0.950 . S
H429 C449 0.950 . S
H430 C451 0.950 . S
H431 C454 0.950 . S
H432 C455 0.950 . S
H433 C457 0.950 . S
H434 C458 0.950 . S
H435 C459 0.951 . S
H436 C461 0.951 . S
H437 C463 0.950 . S
H438 C464 0.950 . S
H439 C466 0.950 . S
H440 C469 0.950 . S
H441 C470 0.950 . S
H442 C472 0.950 . S
H443 C473 0.950 . S
C444 H426 0.951 . S
C444 C445 1.366 . S
C444 C446 1.388 . S
C445 C444 1.366 . S
C445 C449 1.385 . S
C446 H427 0.951 . S
C446 C444 1.388 . S
C446 C447 1.366 . S
C447 C446 1.366 . S
C447 C448 1.414 . S
C447 C450 1.499 . S
C448 H428 0.950 . S
C448 C447 1.414 . S
C448 C449 1.374 . S
C449 H429 0.950 . S
C449 C445 1.385 . S
C449 C448 1.374 . S
C450 C447 1.499 . S
C450 C451 1.373 . S
C450 C452 1.389 . S
C451 H430 0.950 . S
C451 C450 1.373 . S
C451 C467 1.377 . S
C452 C450 1.389 . S
C452 C453 1.524 . S
C452 C466 1.377 . S
C453 C452 1.524 . S
C453 C454 1.397 . S
C453 C458 1.363 . S
C454 H431 0.950 . S
C454 C453 1.397 . S
C454 C455 1.334 . S
C455 H432 0.950 . S
C455 C454 1.334 . S
C455 C456 1.287 . S
C456 C455 1.287 . S
C456 C457 1.524 . S
C456 H475 0.913 . S
C457 H433 0.950 . S
C457 C456 1.524 . S
C457 C458 1.415 . S
C458 H434 0.950 . S
C458 C453 1.363 . S
C458 C457 1.415 . S
C459 H435 0.951 . S
C459 C460 1.366 . S
C459 C461 1.388 . S
C460 C459 1.366 . S
C460 C464 1.385 . S
C461 H436 0.951 . S
C461 C459 1.388 . S
C461 C462 1.366 . S
C462 C461 1.366 . S
C462 C463 1.414 . S
C462 C465 1.499 . S
C463 H437 0.950 . S
C463 C462 1.414 . S
C463 C464 1.374 . S
C464 H438 0.950 . S
C464 C460 1.385 . S
C464 C463 1.374 . S
C465 C462 1.499 . S
C465 C466 1.373 . S
C465 C467 1.389 . S
C466 H439 0.950 . S
C466 C452 1.377 . S
C466 C465 1.373 . S
C467 C451 1.377 . S
C467 C465 1.389 . S
C467 C468 1.524 . S
C468 C467 1.524 . S
C468 C469 1.397 . S
C468 C473 1.363 . S
C469 H440 0.950 . S
C469 C468 1.397 . S
C469 C470 1.334 . S
C470 H441 0.950 . S
C470 C469 1.334 . S
C470 C471 1.287 . S
C471 C470 1.287 . S
C471 C472 1.524 . S
C471 H474 0.999 . S
C472 H442 0.950 . S
C472 C471 1.524 . S
C472 C473 1.415 . S
C473 H443 0.950 . S
C473 C468 1.363 . S
C473 C472 1.415 . S
H474 C471 0.999 . S
H475 C456 0.913 . S
H476 C494 0.951 . S
H477 C496 0.951 . S
H478 C498 0.950 . S
H479 C499 0.950 . S
H480 C501 0.950 . S
H481 C504 0.950 . S
H482 C505 0.950 . S
H483 C507 0.950 . S
H484 C508 0.950 . S
H485 C509 0.951 . S
H486 C511 0.951 . S
H487 C513 0.950 . S
H488 C514 0.950 . S
H489 C516 0.950 . S
H490 C519 0.950 . S
H491 C520 0.950 . S
H492 C522 0.950 . S
H493 C523 0.950 . S
C494 H476 0.951 . S
C494 C495 1.366 . S
C494 C496 1.388 . S
C495 C494 1.366 . S
C495 C499 1.385 . S
C496 H477 0.951 . S
C496 C494 1.388 . S
C496 C497 1.366 . S
C497 C496 1.366 . S
C497 C498 1.414 . S
C497 C500 1.499 . S
C498 H478 0.950 . S
C498 C497 1.414 . S
C498 C499 1.374 . S
C499 H479 0.950 . S
C499 C495 1.385 . S
C499 C498 1.374 . S
C500 C497 1.499 . S
C500 C501 1.373 . S
C500 C502 1.389 . S
C501 H480 0.950 . S
C501 C500 1.373 . S
C501 C517 1.377 . S
C502 C500 1.389 . S
C502 C503 1.524 . S
C502 C516 1.377 . S
C503 C502 1.524 . S
C503 C504 1.397 . S
C503 C508 1.363 . S
C504 H481 0.950 . S
C504 C503 1.397 . S
C504 C505 1.334 . S
C505 H482 0.950 . S
C505 C504 1.334 . S
C505 C506 1.287 . S
C506 C505 1.287 . S
C506 C507 1.524 . S
C506 H525 0.913 . S
C507 H483 0.950 . S
C507 C506 1.524 . S
C507 C508 1.415 . S
C508 H484 0.950 . S
C508 C503 1.363 . S
C508 C507 1.415 . S
C509 H485 0.951 . S
C509 C510 1.366 . S
C509 C511 1.388 . S
C510 C509 1.366 . S
C510 C514 1.385 . S
C511 H486 0.951 . S
C511 C509 1.388 . S
C511 C512 1.366 . S
C512 C511 1.366 . S
C512 C513 1.414 . S
C512 C515 1.499 . S
C513 H487 0.950 . S
C513 C512 1.414 . S
C513 C514 1.374 . S
C514 H488 0.950 . S
C514 C510 1.385 . S
C514 C513 1.374 . S
C515 C512 1.499 . S
C515 C516 1.373 . S
C515 C517 1.389 . S
C516 H489 0.950 . S
C516 C502 1.377 . S
C516 C515 1.373 . S
C517 C501 1.377 . S
C517 C515 1.389 . S
C517 C518 1.524 . S
C518 C517 1.524 . S
C518 C519 1.397 . S
C518 C523 1.363 . S
C519 H490 0.950 . S
C519 C518 1.397 . S
C519 C520 1.334 . S
C520 H491 0.950 . S
C520 C519 1.334 . S
C520 C521 1.287 . S
C521 C520 1.287 . S
C521 C522 1.524 . S
C521 H524 0.999 . S
C522 H492 0.950 . S
C522 C521 1.524 . S
C522 C523 1.415 . S
C523 H493 0.950 . S
C523 C518 1.363 . S
C523 C522 1.415 . S
H524 C521 0.999 . S
H525 C506 0.913 . S
H526 C544 0.951 . S
H527 C546 0.951 . S
H528 C548 0.950 . S
H529 C549 0.950 . S
H530 C551 0.950 . S
H531 C554 0.950 . S
H532 C555 0.950 . S
H533 C557 0.950 . S
H534 C558 0.950 . S
H535 C559 0.951 . S
H536 C561 0.951 . S
H537 C563 0.950 . S
H538 C564 0.950 . S
H539 C566 0.950 . S
H540 C569 0.950 . S
H541 C570 0.950 . S
H542 C572 0.950 . S
H543 C573 0.950 . S
C544 H526 0.951 . S
C544 C545 1.366 . S
C544 C546 1.388 . S
C545 C544 1.366 . S
C545 C549 1.385 . S
C546 H527 0.951 . S
C546 C544 1.388 . S
C546 C547 1.366 . S
C547 C546 1.366 . S
C547 C548 1.414 . S
C547 C550 1.499 . S
C548 H528 0.950 . S
C548 C547 1.414 . S
C548 C549 1.374 . S
C549 H529 0.950 . S
C549 C545 1.385 . S
C549 C548 1.374 . S
C550 C547 1.499 . S
C550 C551 1.373 . S
C550 C552 1.389 . S
C551 H530 0.950 . S
C551 C550 1.373 . S
C551 C567 1.377 . S
C552 C550 1.389 . S
C552 C553 1.524 . S
C552 C566 1.377 . S
C553 C552 1.524 . S
C553 C554 1.397 . S
C553 C558 1.363 . S
C554 H531 0.950 . S
C554 C553 1.397 . S
C554 C555 1.334 . S
C555 H532 0.950 . S
C555 C554 1.334 . S
C555 C556 1.287 . S
C556 C555 1.287 . S
C556 C557 1.524 . S
C556 H575 0.913 . S
C557 H533 0.950 . S
C557 C556 1.524 . S
C557 C558 1.415 . S
C558 H534 0.950 . S
C558 C553 1.363 . S
C558 C557 1.415 . S
C559 H535 0.951 . S
C559 C560 1.366 . S
C559 C561 1.388 . S
C560 C559 1.366 . S
C560 C564 1.385 . S
C561 H536 0.951 . S
C561 C559 1.388 . S
C561 C562 1.366 . S
C562 C561 1.366 . S
C562 C563 1.414 . S
C562 C565 1.499 . S
C563 H537 0.950 . S
C563 C562 1.414 . S
C563 C564 1.374 . S
C564 H538 0.950 . S
C564 C560 1.385 . S
C564 C563 1.374 . S
C565 C562 1.499 . S
C565 C566 1.373 . S
C565 C567 1.389 . S
C566 H539 0.950 . S
C566 C552 1.377 . S
C566 C565 1.373 . S
C567 C551 1.377 . S
C567 C565 1.389 . S
C567 C568 1.524 . S
C568 C567 1.524 . S
C568 C569 1.397 . S
C568 C573 1.363 . S
C569 H540 0.950 . S
C569 C568 1.397 . S
C569 C570 1.334 . S
C570 H541 0.950 . S
C570 C569 1.334 . S
C570 C571 1.287 . S
C571 C570 1.287 . S
C571 C572 1.524 . S
C571 H574 0.999 . S
C572 H542 0.950 . S
C572 C571 1.524 . S
C572 C573 1.415 . S
C573 H543 0.950 . S
C573 C568 1.363 . S
C573 C572 1.415 . S
H574 C571 0.999 . S
H575 C556 0.913 . S
H576 C594 0.951 . S
H577 C596 0.951 . S
H578 C598 0.950 . S
H579 C599 0.950 . S
H580 C601 0.950 . S
H581 C604 0.950 . S
H582 C605 0.952 . S
H583 C607 0.950 . S
H584 C608 0.950 . S
H585 C609 0.951 . S
H586 C611 0.951 . S
H587 C613 0.950 . S
H588 C614 0.950 . S
H589 C616 0.950 . S
H590 C619 0.950 . S
H591 C620 0.950 . S
H592 C622 0.950 . S
H593 C623 0.950 . S
C594 H576 0.951 . S
C594 C595 1.366 . S
C594 C596 1.388 . S
C595 C594 1.366 . S
C595 C599 1.385 . S
C596 H577 0.951 . S
C596 C594 1.388 . S
C596 C597 1.366 . S
C597 C596 1.366 . S
C597 C598 1.414 . S
C597 C600 1.499 . S
C598 H578 0.950 . S
C598 C597 1.414 . S
C598 C599 1.374 . S
C599 H579 0.950 . S
C599 C595 1.385 . S
C599 C598 1.374 . S
C600 C597 1.499 . S
C600 C601 1.373 . S
C600 C602 1.389 . S
C601 H580 0.950 . S
C601 C600 1.373 . S
C601 C617 1.377 . S
C602 C600 1.389 . S
C602 C603 1.524 . S
C602 C616 1.377 . S
C603 C602 1.524 . S
C603 C604 1.397 . S
C603 C608 1.363 . S
C604 H581 0.950 . S
C604 C603 1.397 . S
C604 C605 1.332 1_556 S
C605 H582 0.952 . S
C605 C604 1.332 1_554 S
C605 C606 1.287 . S
C606 C605 1.287 . S
C606 C607 1.524 1_554 S
C606 H625 0.913 . S
C607 H583 0.950 . S
C607 C606 1.524 1_556 S
C607 C608 1.415 . S
C608 H584 0.950 . S
C608 C603 1.363 . S
C608 C607 1.415 . S
C609 H585 0.951 . S
C609 C610 1.366 . S
C609 C611 1.388 . S
C610 C609 1.366 . S
C610 C614 1.385 . S
C611 H586 0.951 . S
C611 C609 1.388 . S
C611 C612 1.366 . S
C612 C611 1.366 . S
C612 C613 1.414 . S
C612 C615 1.499 . S
C613 H587 0.950 . S
C613 C612 1.414 . S
C613 C614 1.374 . S
C614 H588 0.950 . S
C614 C610 1.385 . S
C614 C613 1.374 . S
C615 C612 1.499 . S
C615 C616 1.373 . S
C615 C617 1.389 . S
C616 H589 0.950 . S
C616 C602 1.377 . S
C616 C615 1.373 . S
C617 C601 1.377 . S
C617 C615 1.389 . S
C617 C618 1.524 . S
C618 C617 1.524 . S
C618 C619 1.397 . S
C618 C623 1.363 . S
C619 H590 0.950 . S
C619 C618 1.397 . S
C619 C620 1.334 . S
C620 H591 0.950 . S
C620 C619 1.334 . S
C620 C621 1.287 . S
C621 C620 1.287 . S
C621 C622 1.524 . S
C621 H624 0.999 . S
C622 H592 0.950 . S
C622 C621 1.524 . S
C622 C623 1.415 . S
C623 H593 0.950 . S
C623 C618 1.363 . S
C623 C622 1.415 . S
H624 C621 0.999 . S
H625 C606 0.913 . S
H626 C644 0.951 . S
H627 C646 0.951 . S
H628 C648 0.950 . S
H629 C649 0.950 . S
H630 C651 0.950 . S
H631 C654 0.950 . S
H632 C655 0.950 . S
H633 C657 0.950 . S
H634 C658 0.950 . S
H635 C659 0.951 . S
H636 C661 0.951 . S
H637 C663 0.950 . S
H638 C664 0.950 . S
H639 C666 0.950 . S
H640 C669 0.950 . S
H641 C670 0.950 . S
H642 C672 0.950 . S
H643 C673 0.950 . S
C644 H626 0.951 . S
C644 C645 1.366 . S
C644 C646 1.388 . S
C645 C644 1.366 . S
C645 C649 1.385 . S
C646 H627 0.951 . S
C646 C644 1.388 . S
C646 C647 1.366 . S
C647 C646 1.366 . S
C647 C648 1.414 . S
C647 C650 1.499 . S
C648 H628 0.950 . S
C648 C647 1.414 . S
C648 C649 1.374 . S
C649 H629 0.950 . S
C649 C645 1.385 . S
C649 C648 1.374 . S
C650 C647 1.499 . S
C650 C651 1.373 . S
C650 C652 1.389 . S
C651 H630 0.950 . S
C651 C650 1.373 . S
C651 C667 1.377 . S
C652 C650 1.389 . S
C652 C653 1.524 . S
C652 C666 1.377 . S
C653 C652 1.524 . S
C653 C654 1.397 . S
C653 C658 1.363 . S
C654 H631 0.950 . S
C654 C653 1.397 . S
C654 C655 1.334 . S
C655 H632 0.950 . S
C655 C654 1.334 . S
C655 C656 1.287 . S
C656 C655 1.287 . S
C656 C657 1.524 . S
C656 H675 0.913 . S
C657 H633 0.950 . S
C657 C656 1.524 . S
C657 C658 1.415 . S
C658 H634 0.950 . S
C658 C653 1.363 . S
C658 C657 1.415 . S
C659 H635 0.951 . S
C659 C660 1.366 . S
C659 C661 1.388 . S
C660 C659 1.366 . S
C660 C664 1.385 . S
C661 H636 0.951 . S
C661 C659 1.388 . S
C661 C662 1.366 . S
C662 C661 1.366 . S
C662 C663 1.414 . S
C662 C665 1.499 . S
C663 H637 0.950 . S
C663 C662 1.414 . S
C663 C664 1.374 . S
C664 H638 0.950 . S
C664 C660 1.385 . S
C664 C663 1.374 . S
C665 C662 1.499 . S
C665 C666 1.373 . S
C665 C667 1.389 . S
C666 H639 0.950 . S
C666 C652 1.377 . S
C666 C665 1.373 . S
C667 C651 1.377 . S
C667 C665 1.389 . S
C667 C668 1.524 . S
C668 C667 1.524 . S
C668 C669 1.397 . S
C668 C673 1.363 . S
C669 H640 0.950 . S
C669 C668 1.397 . S
C669 C670 1.334 . S
C670 H641 0.950 . S
C670 C669 1.334 . S
C670 C671 1.287 . S
C671 C670 1.287 . S
C671 C672 1.524 . S
C671 H674 0.999 . S
C672 H642 0.950 . S
C672 C671 1.524 . S
C672 C673 1.415 . S
C673 H643 0.950 . S
C673 C668 1.363 . S
C673 C672 1.415 . S
H674 C671 0.999 . S
H675 C656 0.913 . S
H676 C694 0.951 . S
H677 C696 0.951 . S
H678 C698 0.950 . S
H679 C699 0.950 . S
H680 C701 0.950 . S
H681 C704 0.950 . S
H682 C705 0.950 . S
H683 C707 0.950 . S
H684 C708 0.950 . S
H685 C709 0.951 . S
H686 C711 0.951 . S
H687 C713 0.950 . S
H688 C714 0.950 . S
H689 C716 0.950 . S
H690 C719 0.950 . S
H691 C720 0.950 . S
H692 C722 0.950 . S
H693 C723 0.950 . S
C694 H676 0.951 . S
C694 C695 1.366 . S
C694 C696 1.388 . S
C695 C694 1.366 . S
C695 C699 1.385 . S
C696 H677 0.951 . S
C696 C694 1.388 . S
C696 C697 1.366 . S
C697 C696 1.366 . S
C697 C698 1.414 . S
C697 C700 1.499 . S
C698 H678 0.950 . S
C698 C697 1.414 . S
C698 C699 1.374 . S
C699 H679 0.950 . S
C699 C695 1.385 . S
C699 C698 1.374 . S
C700 C697 1.499 . S
C700 C701 1.373 . S
C700 C702 1.389 . S
C701 H680 0.950 . S
C701 C700 1.373 . S
C701 C717 1.377 . S
C702 C700 1.389 . S
C702 C703 1.524 . S
C702 C716 1.377 . S
C703 C702 1.524 . S
C703 C704 1.397 . S
C703 C708 1.363 . S
C704 H681 0.950 . S
C704 C703 1.397 . S
C704 C705 1.334 . S
C705 H682 0.950 . S
C705 C704 1.334 . S
C705 C706 1.287 . S
C706 C705 1.287 . S
C706 C707 1.524 . S
C706 H725 0.913 . S
C707 H683 0.950 . S
C707 C706 1.524 . S
C707 C708 1.415 . S
C708 H684 0.950 . S
C708 C703 1.363 . S
C708 C707 1.415 . S
C709 H685 0.951 . S
C709 C710 1.366 . S
C709 C711 1.388 . S
C710 C709 1.366 . S
C710 C714 1.385 . S
C711 H686 0.951 . S
C711 C709 1.388 . S
C711 C712 1.366 . S
C712 C711 1.366 . S
C712 C713 1.414 . S
C712 C715 1.499 . S
C713 H687 0.950 . S
C713 C712 1.414 . S
C713 C714 1.374 . S
C714 H688 0.950 . S
C714 C710 1.385 . S
C714 C713 1.374 . S
C715 C712 1.499 . S
C715 C716 1.373 . S
C715 C717 1.389 . S
C716 H689 0.950 . S
C716 C702 1.377 . S
C716 C715 1.373 . S
C717 C701 1.377 . S
C717 C715 1.389 . S
C717 C718 1.524 . S
C718 C717 1.524 . S
C718 C719 1.397 . S
C718 C723 1.363 . S
C719 H690 0.950 . S
C719 C718 1.397 . S
C719 C720 1.334 . S
C720 H691 0.950 . S
C720 C719 1.334 . S
C720 C721 1.287 . S
C721 C720 1.287 . S
C721 C722 1.524 . S
C721 H724 0.999 . S
C722 H692 0.950 . S
C722 C721 1.524 . S
C722 C723 1.415 . S
C723 H693 0.950 . S
C723 C718 1.363 . S
C723 C722 1.415 . S
H724 C721 0.999 . S
H725 C706 0.913 . S
H726 C744 0.951 . S
H727 C746 0.951 . S
H728 C748 0.950 . S
H729 C749 0.950 . S
H730 C751 0.950 . S
H731 C754 0.950 . S
H732 C755 0.950 . S
H733 C757 0.950 . S
H734 C758 0.950 . S
H735 C759 0.951 . S
H736 C761 0.951 . S
H737 C763 0.950 . S
H738 C764 0.950 . S
H739 C766 0.950 . S
H740 C769 0.950 . S
H741 C770 0.950 . S
H742 C772 0.950 . S
H743 C773 0.950 . S
C744 H726 0.951 . S
C744 C745 1.366 . S
C744 C746 1.388 . S
C745 C744 1.366 . S
C745 C749 1.385 . S
C746 H727 0.951 . S
C746 C744 1.388 . S
C746 C747 1.366 . S
C747 C746 1.366 . S
C747 C748 1.414 . S
C747 C750 1.499 . S
C748 H728 0.950 . S
C748 C747 1.414 . S
C748 C749 1.374 . S
C749 H729 0.950 . S
C749 C745 1.385 . S
C749 C748 1.374 . S
C750 C747 1.499 . S
C750 C751 1.373 . S
C750 C752 1.389 . S
C751 H730 0.950 . S
C751 C750 1.373 . S
C751 C767 1.377 . S
C752 C750 1.389 . S
C752 C753 1.524 . S
C752 C766 1.377 . S
C753 C752 1.524 . S
C753 C754 1.397 . S
C753 C758 1.363 . S
C754 H731 0.950 . S
C754 C753 1.397 . S
C754 C755 1.334 . S
C755 H732 0.950 . S
C755 C754 1.334 . S
C755 C756 1.287 . S
C756 C755 1.287 . S
C756 C757 1.524 . S
C756 H775 0.913 . S
C757 H733 0.950 . S
C757 C756 1.524 . S
C757 C758 1.415 . S
C758 H734 0.950 . S
C758 C753 1.363 . S
C758 C757 1.415 . S
C759 H735 0.951 . S
C759 C760 1.366 . S
C759 C761 1.388 . S
C760 C759 1.366 . S
C760 C764 1.385 . S
C761 H736 0.951 . S
C761 C759 1.388 . S
C761 C762 1.366 . S
C762 C761 1.366 . S
C762 C763 1.414 . S
C762 C765 1.499 . S
C763 H737 0.950 . S
C763 C762 1.414 . S
C763 C764 1.374 . S
C764 H738 0.950 . S
C764 C760 1.385 . S
C764 C763 1.374 . S
C765 C762 1.499 . S
C765 C766 1.373 . S
C765 C767 1.389 . S
C766 H739 0.950 . S
C766 C752 1.377 . S
C766 C765 1.373 . S
C767 C751 1.377 . S
C767 C765 1.389 . S
C767 C768 1.524 . S
C768 C767 1.524 . S
C768 C769 1.397 . S
C768 C773 1.363 . S
C769 H740 0.950 . S
C769 C768 1.397 . S
C769 C770 1.334 . S
C770 H741 0.950 . S
C770 C769 1.334 . S
C770 C771 1.287 . S
C771 C770 1.287 . S
C771 C772 1.524 . S
C771 H774 0.999 . S
C772 H742 0.950 . S
C772 C771 1.524 . S
C772 C773 1.415 . S
C773 H743 0.950 . S
C773 C768 1.363 . S
C773 C772 1.415 . S
H774 C771 0.999 . S
H775 C756 0.913 . S
H776 C794 0.951 . S
H777 C796 0.951 . S
H778 C798 0.950 . S
H779 C799 0.950 . S
H780 C801 0.950 . S
H781 C804 0.950 . S
H782 C805 0.950 . S
H783 C807 0.950 . S
H784 C808 0.950 . S
H785 C809 0.951 . S
H786 C811 0.951 . S
H787 C813 0.950 . S
H788 C814 0.950 . S
H789 C816 0.950 . S
H790 C819 0.950 . S
H791 C820 0.950 . S
H792 C822 0.950 . S
H793 C823 0.950 . S
C794 H776 0.951 . S
C794 C795 1.366 . S
C794 C796 1.388 . S
C795 C794 1.366 . S
C795 C799 1.385 . S
C796 H777 0.951 . S
C796 C794 1.388 . S
C796 C797 1.366 . S
C797 C796 1.366 . S
C797 C798 1.414 . S
C797 C800 1.499 . S
C798 H778 0.950 . S
C798 C797 1.414 . S
C798 C799 1.374 . S
C799 H779 0.950 . S
C799 C795 1.385 . S
C799 C798 1.374 . S
C800 C797 1.499 . S
C800 C801 1.373 . S
C800 C802 1.389 . S
C801 H780 0.950 . S
C801 C800 1.373 . S
C801 C817 1.377 . S
C802 C800 1.389 . S
C802 C803 1.524 . S
C802 C816 1.377 . S
C803 C802 1.524 . S
C803 C804 1.397 . S
C803 C808 1.363 . S
C804 H781 0.950 . S
C804 C803 1.397 . S
C804 C805 1.334 . S
C805 H782 0.950 . S
C805 C804 1.334 . S
C805 C806 1.287 . S
C806 C805 1.287 . S
C806 C807 1.524 . S
C806 H825 0.913 . S
C807 H783 0.950 . S
C807 C806 1.524 . S
C807 C808 1.415 . S
C808 H784 0.950 . S
C808 C803 1.363 . S
C808 C807 1.415 . S
C809 H785 0.951 . S
C809 C810 1.366 . S
C809 C811 1.388 . S
C810 C809 1.366 . S
C810 C814 1.385 . S
C811 H786 0.951 . S
C811 C809 1.388 . S
C811 C812 1.366 . S
C812 C811 1.366 . S
C812 C813 1.414 . S
C812 C815 1.499 . S
C813 H787 0.950 . S
C813 C812 1.414 . S
C813 C814 1.374 . S
C814 H788 0.950 . S
C814 C810 1.385 . S
C814 C813 1.374 . S
C815 C812 1.499 . S
C815 C816 1.373 . S
C815 C817 1.389 . S
C816 H789 0.950 . S
C816 C802 1.377 . S
C816 C815 1.373 . S
C817 C801 1.377 . S
C817 C815 1.389 . S
C817 C818 1.524 . S
C818 C817 1.524 . S
C818 C819 1.397 . S
C818 C823 1.363 . S
C819 H790 0.950 . S
C819 C818 1.397 . S
C819 C820 1.334 . S
C820 H791 0.950 . S
C820 C819 1.334 . S
C820 C821 1.287 . S
C821 C820 1.287 . S
C821 C822 1.524 . S
C821 H824 0.999 . S
C822 H792 0.950 . S
C822 C821 1.524 . S
C822 C823 1.415 . S
C823 H793 0.950 . S
C823 C818 1.363 . S
C823 C822 1.415 . S
H824 C821 0.999 . S
H825 C806 0.913 . S
H826 C844 0.951 . S
H827 C846 0.951 . S
H828 C848 0.950 . S
H829 C849 0.950 . S
H830 C851 0.950 . S
H831 C854 0.950 . S
H832 C855 0.950 . S
H833 C857 0.950 . S
H834 C858 0.950 . S
H835 C859 0.951 . S
H836 C861 0.951 . S
H837 C863 0.950 . S
H838 C864 0.950 . S
H839 C866 0.950 . S
H840 C869 0.950 . S
H841 C870 0.950 . S
H842 C872 0.950 . S
H843 C873 0.950 . S
C844 H826 0.951 . S
C844 C845 1.366 . S
C844 C846 1.388 . S
C845 C844 1.366 . S
C845 C849 1.385 . S
C846 H827 0.951 . S
C846 C844 1.388 . S
C846 C847 1.366 . S
C847 C846 1.366 . S
C847 C848 1.414 . S
C847 C850 1.499 . S
C848 H828 0.950 . S
C848 C847 1.414 . S
C848 C849 1.374 . S
C849 H829 0.950 . S
C849 C845 1.385 . S
C849 C848 1.374 . S
C850 C847 1.499 . S
C850 C851 1.373 . S
C850 C852 1.389 . S
C851 H830 0.950 . S
C851 C850 1.373 . S
C851 C867 1.377 . S
C852 C850 1.389 . S
C852 C853 1.524 . S
C852 C866 1.377 . S
C853 C852 1.524 . S
C853 C854 1.397 . S
C853 C858 1.363 . S
C854 H831 0.950 . S
C854 C853 1.397 . S
C854 C855 1.334 . S
C855 H832 0.950 . S
C855 C854 1.334 . S
C855 C856 1.287 . S
C856 C855 1.287 . S
C856 C857 1.524 . S
C856 H875 0.913 . S
C857 H833 0.950 . S
C857 C856 1.524 . S
C857 C858 1.415 . S
C858 H834 0.950 . S
C858 C853 1.363 . S
C858 C857 1.415 . S
C859 H835 0.951 . S
C859 C860 1.366 . S
C859 C861 1.388 . S
C860 C859 1.366 . S
C860 C864 1.385 . S
C861 H836 0.951 . S
C861 C859 1.388 . S
C861 C862 1.366 . S
C862 C861 1.366 . S
C862 C863 1.414 . S
C862 C865 1.499 . S
C863 H837 0.950 . S
C863 C862 1.414 . S
C863 C864 1.374 . S
C864 H838 0.950 . S
C864 C860 1.385 . S
C864 C863 1.374 . S
C865 C862 1.499 . S
C865 C866 1.373 . S
C865 C867 1.389 . S
C866 H839 0.950 . S
C866 C852 1.377 . S
C866 C865 1.373 . S
C867 C851 1.377 . S
C867 C865 1.389 . S
C867 C868 1.524 . S
C868 C867 1.524 . S
C868 C869 1.397 . S
C868 C873 1.363 . S
C869 H840 0.950 . S
C869 C868 1.397 . S
C869 C870 1.334 . S
C870 H841 0.950 . S
C870 C869 1.334 . S
C870 C871 1.287 . S
C871 C870 1.287 . S
C871 C872 1.524 . S
C871 H874 0.999 . S
C872 H842 0.950 . S
C872 C871 1.524 . S
C872 C873 1.415 . S
C873 H843 0.950 . S
C873 C868 1.363 . S
C873 C872 1.415 . S
H874 C871 0.999 . S
H875 C856 0.913 . S
H876 C894 0.951 . S
H877 C896 0.951 . S
H878 C898 0.950 . S
H879 C899 0.950 . S
H880 C901 0.950 . S
H881 C904 0.950 . S
H882 C905 0.950 . S
H883 C907 0.950 . S
H884 C908 0.950 . S
H885 C909 0.951 . S
H886 C911 0.951 . S
H887 C913 0.950 . S
H888 C914 0.950 . S
H889 C916 0.950 . S
H890 C919 0.950 . S
H891 C920 0.950 . S
H892 C922 0.950 . S
H893 C923 0.950 . S
C894 H876 0.951 . S
C894 C895 1.366 . S
C894 C896 1.388 . S
C895 C894 1.366 . S
C895 C899 1.385 . S
C896 H877 0.951 . S
C896 C894 1.388 . S
C896 C897 1.366 . S
C897 C896 1.366 . S
C897 C898 1.414 . S
C897 C900 1.499 . S
C898 H878 0.950 . S
C898 C897 1.414 . S
C898 C899 1.374 . S
C899 H879 0.950 . S
C899 C895 1.385 . S
C899 C898 1.374 . S
C900 C897 1.499 . S
C900 C901 1.373 . S
C900 C902 1.389 . S
C901 H880 0.950 . S
C901 C900 1.373 . S
C901 C917 1.377 . S
C902 C900 1.389 . S
C902 C903 1.524 . S
C902 C916 1.377 . S
C903 C902 1.524 . S
C903 C904 1.397 . S
C903 C908 1.363 . S
C904 H881 0.950 . S
C904 C903 1.397 . S
C904 C905 1.334 . S
C905 H882 0.950 . S
C905 C904 1.334 . S
C905 C906 1.287 . S
C906 C905 1.287 . S
C906 C907 1.524 . S
C906 H925 0.913 . S
C907 H883 0.950 . S
C907 C906 1.524 . S
C907 C908 1.415 . S
C908 H884 0.950 . S
C908 C903 1.363 . S
C908 C907 1.415 . S
C909 H885 0.951 . S
C909 C910 1.366 . S
C909 C911 1.388 . S
C910 C909 1.366 . S
C910 C914 1.385 . S
C911 H886 0.951 . S
C911 C909 1.388 . S
C911 C912 1.366 . S
C912 C911 1.366 . S
C912 C913 1.414 . S
C912 C915 1.499 . S
C913 H887 0.950 . S
C913 C912 1.414 . S
C913 C914 1.374 . S
C914 H888 0.950 . S
C914 C910 1.385 . S
C914 C913 1.374 . S
C915 C912 1.499 . S
C915 C916 1.373 . S
C915 C917 1.389 . S
C916 H889 0.950 . S
C916 C902 1.377 . S
C916 C915 1.373 . S
C917 C901 1.377 . S
C917 C915 1.389 . S
C917 C918 1.524 . S
C918 C917 1.524 . S
C918 C919 1.397 . S
C918 C923 1.363 . S
C919 H890 0.950 . S
C919 C918 1.397 . S
C919 C920 1.334 . S
C920 H891 0.950 . S
C920 C919 1.334 . S
C920 C921 1.287 . S
C921 C920 1.287 . S
C921 C922 1.524 . S
C921 H924 0.999 . S
C922 H892 0.950 . S
C922 C921 1.524 . S
C922 C923 1.415 . S
C923 H893 0.950 . S
C923 C918 1.363 . S
C923 C922 1.415 . S
H924 C921 0.999 . S
H925 C906 0.913 . S
H926 C944 0.951 . S
H927 C946 0.951 . S
H928 C948 0.950 . S
H929 C949 0.950 . S
H930 C951 0.950 . S
H931 C954 0.950 . S
H932 C955 0.950 . S
H933 C957 0.950 . S
H934 C958 0.950 . S
H935 C959 0.951 . S
H936 C961 0.951 . S
H937 C963 0.950 . S
H938 C964 0.950 . S
H939 C966 0.950 . S
H940 C969 0.950 . S
H941 C970 0.950 . S
H942 C972 0.950 . S
H943 C973 0.950 . S
C944 H926 0.951 . S
C944 C945 1.366 . S
C944 C946 1.388 . S
C945 C944 1.366 . S
C945 C949 1.385 . S
C946 H927 0.951 . S
C946 C944 1.388 . S
C946 C947 1.366 . S
C947 C946 1.366 . S
C947 C948 1.414 . S
C947 C950 1.499 . S
C948 H928 0.950 . S
C948 C947 1.414 . S
C948 C949 1.374 . S
C949 H929 0.950 . S
C949 C945 1.385 . S
C949 C948 1.374 . S
C950 C947 1.499 . S
C950 C951 1.373 . S
C950 C952 1.389 . S
C951 H930 0.950 . S
C951 C950 1.373 . S
C951 C967 1.377 . S
C952 C950 1.389 . S
C952 C953 1.524 . S
C952 C966 1.377 . S
C953 C952 1.524 . S
C953 C954 1.397 . S
C953 C958 1.363 . S
C954 H931 0.950 . S
C954 C953 1.397 . S
C954 C955 1.334 . S
C955 H932 0.950 . S
C955 C954 1.334 . S
C955 C956 1.287 . S
C956 C955 1.287 . S
C956 C957 1.524 . S
C956 H975 0.913 . S
C957 H933 0.950 . S
C957 C956 1.524 . S
C957 C958 1.415 . S
C958 H934 0.950 . S
C958 C953 1.363 . S
C958 C957 1.415 . S
C959 H935 0.951 . S
C959 C960 1.366 . S
C959 C961 1.388 . S
C960 C959 1.366 . S
C960 C964 1.385 . S
C961 H936 0.951 . S
C961 C959 1.388 . S
C961 C962 1.366 . S
C962 C961 1.366 . S
C962 C963 1.414 . S
C962 C965 1.499 . S
C963 H937 0.950 . S
C963 C962 1.414 . S
C963 C964 1.374 . S
C964 H938 0.950 . S
C964 C960 1.385 . S
C964 C963 1.374 . S
C965 C962 1.499 . S
C965 C966 1.373 . S
C965 C967 1.389 . S
C966 H939 0.950 . S
C966 C952 1.377 . S
C966 C965 1.373 . S
C967 C951 1.377 . S
C967 C965 1.389 . S
C967 C968 1.524 . S
C968 C967 1.524 . S
C968 C969 1.397 . S
C968 C973 1.363 . S
C969 H940 0.950 . S
C969 C968 1.397 . S
C969 C970 1.334 . S
C970 H941 0.950 . S
C970 C969 1.334 . S
C970 C971 1.287 . S
C971 C970 1.287 . S
C971 C972 1.524 . S
C971 H974 0.999 . S
C972 H942 0.950 . S
C972 C971 1.524 . S
C972 C973 1.415 . S
C973 H943 0.950 . S
C973 C968 1.363 . S
C973 C972 1.415 . S
H974 C971 0.999 . S
H975 C956 0.913 . S
H976 C994 0.951 . S
H977 C996 0.951 1_565 S
H978 C998 0.950 . S
H979 C999 0.950 . S
H980 C1001 0.950 . S
H981 C1004 0.950 . S
H982 C1005 0.950 . S
H983 C1007 0.950 . S
H984 C1008 0.950 . S
H985 C1009 0.951 . S
H986 C1011 0.951 . S
H987 C1013 0.950 . S
H988 C1014 0.950 . S
H989 C1016 0.950 . S
H990 C1019 0.950 . S
H991 C1020 0.950 . S
H992 C1022 0.950 . S
H993 C1023 0.950 . S
C994 H976 0.951 . S
C994 C995 1.366 . S
C994 C996 1.388 1_565 S
C995 C994 1.366 . S
C995 C999 1.385 1_565 S
C996 H977 0.951 1_545 S
C996 C994 1.388 1_545 S
C996 C997 1.366 . S
C997 C996 1.366 . S
C997 C998 1.414 . S
C997 C1000 1.499 . S
C998 H978 0.950 . S
C998 C997 1.414 . S
C998 C999 1.374 . S
C999 H979 0.950 . S
C999 C995 1.385 1_545 S
C999 C998 1.374 . S
C1000 C997 1.499 . S
C1000 C1001 1.373 . S
C1000 C1002 1.389 . S
C1001 H980 0.950 . S
C1001 C1000 1.373 . S
C1001 C1017 1.377 . S
C1002 C1000 1.389 . S
C1002 C1003 1.524 . S
C1002 C1016 1.377 . S
C1003 C1002 1.524 . S
C1003 C1004 1.397 . S
C1003 C1008 1.363 . S
C1004 H981 0.950 . S
C1004 C1003 1.397 . S
C1004 C1005 1.334 1_545 S
C1005 H982 0.950 . S
C1005 C1004 1.334 1_565 S
C1005 C1006 1.287 . S
C1006 C1005 1.287 . S
C1006 C1007 1.524 . S
C1006 H1025 0.913 . S
C1007 H983 0.950 . S
C1007 C1006 1.524 . S
C1007 C1008 1.415 1_565 S
C1008 H984 0.950 . S
C1008 C1003 1.363 . S
C1008 C1007 1.415 1_545 S
C1009 H985 0.951 . S
C1009 C1010 1.366 . S
C1009 C1011 1.388 . S
C1010 C1009 1.366 . S
C1010 C1014 1.385 . S
C1011 H986 0.951 . S
C1011 C1009 1.388 . S
C1011 C1012 1.366 . S
C1012 C1011 1.366 . S
C1012 C1013 1.414 . S
C1012 C1015 1.499 . S
C1013 H987 0.950 . S
C1013 C1012 1.414 . S
C1013 C1014 1.374 . S
C1014 H988 0.950 . S
C1014 C1010 1.385 . S
C1014 C1013 1.374 . S
C1015 C1012 1.499 . S
C1015 C1016 1.373 . S
C1015 C1017 1.389 . S
C1016 H989 0.950 . S
C1016 C1002 1.377 . S
C1016 C1015 1.373 . S
C1017 C1001 1.377 . S
C1017 C1015 1.389 . S
C1017 C1018 1.524 . S
C1018 C1017 1.524 . S
C1018 C1019 1.397 . S
C1018 C1023 1.363 . S
C1019 H990 0.950 . S
C1019 C1018 1.397 . S
C1019 C1020 1.334 . S
C1020 H991 0.950 . S
C1020 C1019 1.334 . S
C1020 C1021 1.287 . S
C1021 C1020 1.287 . S
C1021 C1022 1.524 . S
C1021 H1024 0.999 . S
C1022 H992 0.950 . S
C1022 C1021 1.524 . S
C1022 C1023 1.415 . S
C1023 H993 0.950 . S
C1023 C1018 1.363 . S
C1023 C1022 1.415 . S
H1024 C1021 0.999 . S
H1025 C1006 0.913 . S
H1026 C1044 0.951 . S
H1027 C1046 0.951 . S
H1028 C1048 0.950 . S
H1029 C1049 0.950 . S
H1030 C1051 0.950 . S
H1031 C1054 0.950 . S
H1032 C1055 0.898 1_545 S
H1033 C1057 0.950 . S
H1034 C1058 0.950 . S
H1035 C1059 0.951 . S
H1036 C1061 0.951 . S
H1037 C1063 0.950 . S
H1038 C1064 0.950 . S
H1039 C1066 0.950 . S
H1040 C1069 0.950 . S
H1041 C1070 0.950 . S
H1042 C1072 0.950 . S
H1043 C1073 0.950 . S
C1044 H1026 0.951 . S
C1044 C1045 1.366 1_565 S
C1044 C1046 1.388 . S
C1045 C1044 1.366 1_545 S
C1045 C1049 1.385 . S
C1046 H1027 0.951 . S
C1046 C1044 1.388 . S
C1046 C1047 1.366 . S
C1047 C1046 1.366 . S
C1047 C1048 1.414 . S
C1047 C1050 1.499 . S
C1048 H1028 0.950 . S
C1048 C1047 1.414 . S
C1048 C1049 1.374 1_565 S
C1049 H1029 0.950 . S
C1049 C1045 1.385 . S
C1049 C1048 1.374 1_545 S
C1050 C1047 1.499 . S
C1050 C1051 1.373 . S
C1050 C1052 1.389 . S
C1051 H1030 0.950 . S
C1051 C1050 1.373 . S
C1051 C1067 1.377 . S
C1052 C1050 1.389 . S
C1052 C1053 1.524 . S
C1052 C1066 1.377 . S
C1053 C1052 1.524 . S
C1053 C1054 1.397 . S
C1053 C1058 1.363 . S
C1054 H1031 0.950 . S
C1054 C1053 1.397 . S
C1054 C1055 1.362 . S
C1055 H1032 0.898 1_565 S
C1055 C1054 1.362 . S
C1055 C1056 1.315 . S
C1056 C1055 1.315 . S
C1056 C1057 1.524 . S
C1056 H1075 0.913 . S
C1057 H1033 0.950 . S
C1057 C1056 1.524 . S
C1057 C1058 1.415 . S
C1058 H1034 0.950 . S
C1058 C1053 1.363 . S
C1058 C1057 1.415 . S
C1059 H1035 0.951 . S
C1059 C1060 1.366 . S
C1059 C1061 1.388 . S
C1060 C1059 1.366 . S
C1060 C1064 1.385 . S
C1061 H1036 0.951 . S
C1061 C1059 1.388 . S
C1061 C1062 1.366 . S
C1062 C1061 1.366 . S
C1062 C1063 1.414 . S
C1062 C1065 1.499 . S
C1063 H1037 0.950 . S
C1063 C1062 1.414 . S
C1063 C1064 1.374 . S
C1064 H1038 0.950 . S
C1064 C1060 1.385 . S
C1064 C1063 1.374 . S
C1065 C1062 1.499 . S
C1065 C1066 1.373 . S
C1065 C1067 1.389 . S
C1066 H1039 0.950 . S
C1066 C1052 1.377 . S
C1066 C1065 1.373 . S
C1067 C1051 1.377 . S
C1067 C1065 1.389 . S
C1067 C1068 1.524 . S
C1068 C1067 1.524 . S
C1068 C1069 1.397 . S
C1068 C1073 1.363 . S
C1069 H1040 0.950 . S
C1069 C1068 1.397 . S
C1069 C1070 1.334 . S
C1070 H1041 0.950 . S
C1070 C1069 1.334 . S
C1070 C1071 1.287 . S
C1071 C1070 1.287 . S
C1071 C1072 1.524 . S
C1071 H1074 0.999 . S
C1072 H1042 0.950 . S
C1072 C1071 1.524 . S
C1072 C1073 1.415 . S
C1073 H1043 0.950 . S
C1073 C1068 1.363 . S
C1073 C1072 1.415 . S
H1074 C1071 0.999 . S
H1075 C1056 0.913 . S
H1076 C1094 0.951 . S
H1077 C1096 0.951 1_565 S
H1078 C1098 0.950 . S
H1079 C1099 0.950 . S
H1080 C1101 0.950 . S
H1081 C1104 0.950 . S
H1082 C1105 0.950 . S
H1083 C1107 0.931 1_565 S
H1084 C1108 0.950 . S
H1085 C1109 0.951 . S
H1086 C1111 0.951 . S
H1087 C1113 0.950 . S
H1088 C1114 0.950 . S
H1089 C1116 0.950 . S
H1090 C1119 0.950 . S
H1091 C1120 0.950 . S
H1092 C1122 0.950 . S
H1093 C1123 0.950 . S
C1094 H1076 0.951 . S
C1094 C1095 1.366 . S
C1094 C1096 1.388 1_565 S
C1095 C1094 1.366 . S
C1095 C1099 1.385 1_565 S
C1096 H1077 0.951 1_545 S
C1096 C1094 1.388 1_545 S
C1096 C1097 1.366 . S
C1097 C1096 1.366 . S
C1097 C1098 1.414 . S
C1097 C1100 1.499 . S
C1098 H1078 0.950 . S
C1098 C1097 1.414 . S
C1098 C1099 1.374 . S
C1099 H1079 0.950 . S
C1099 C1095 1.385 1_545 S
C1099 C1098 1.374 . S
C1100 C1097 1.499 . S
C1100 C1101 1.373 . S
C1100 C1102 1.389 . S
C1101 H1080 0.950 . S
C1101 C1100 1.373 . S
C1101 C1117 1.377 . S
C1102 C1100 1.389 . S
C1102 C1103 1.524 . S
C1102 C1116 1.377 . S
C1103 C1102 1.524 . S
C1103 C1104 1.397 . S
C1103 C1108 1.363 . S
C1104 H1081 0.950 . S
C1104 C1103 1.397 . S
C1104 C1105 1.334 . S
C1105 H1082 0.950 . S
C1105 C1104 1.334 . S
C1105 C1106 1.287 . S
C1106 C1105 1.287 . S
C1106 C1107 1.529 . S
C1106 H1125 0.913 1_545 S
C1107 H1083 0.931 1_545 S
C1107 C1106 1.529 . S
C1107 C1108 1.432 . S
C1108 H1084 0.950 . S
C1108 C1103 1.363 . S
C1108 C1107 1.432 . S
C1109 H1085 0.951 . S
C1109 C1110 1.366 . S
C1109 C1111 1.388 . S
C1110 C1109 1.366 . S
C1110 C1114 1.385 . S
C1111 H1086 0.951 . S
C1111 C1109 1.388 . S
C1111 C1112 1.366 . S
C1112 C1111 1.366 . S
C1112 C1113 1.414 . S
C1112 C1115 1.499 . S
C1113 H1087 0.950 . S
C1113 C1112 1.414 . S
C1113 C1114 1.374 . S
C1114 H1088 0.950 . S
C1114 C1110 1.385 . S
C1114 C1113 1.374 . S
C1115 C1112 1.499 . S
C1115 C1116 1.373 . S
C1115 C1117 1.389 . S
C1116 H1089 0.950 . S
C1116 C1102 1.377 . S
C1116 C1115 1.373 . S
C1117 C1101 1.377 . S
C1117 C1115 1.389 . S
C1117 C1118 1.524 . S
C1118 C1117 1.524 . S
C1118 C1119 1.397 . S
C1118 C1123 1.363 . S
C1119 H1090 0.950 . S
C1119 C1118 1.397 . S
C1119 C1120 1.334 . S
C1120 H1091 0.950 . S
C1120 C1119 1.334 . S
C1120 C1121 1.287 . S
C1121 C1120 1.287 . S
C1121 C1122 1.524 . S
C1121 H1124 0.999 . S
C1122 H1092 0.950 . S
C1122 C1121 1.524 . S
C1122 C1123 1.415 . S
C1123 H1093 0.950 . S
C1123 C1118 1.363 . S
C1123 C1122 1.415 . S
H1124 C1121 0.999 . S
H1125 C1106 0.913 1_565 S
H1126 C1144 0.951 . S
H1127 C1146 0.951 1_545 S
H1128 C1148 0.950 . S
H1129 C1149 0.950 . S
H1130 C1151 0.950 . S
H1131 C1154 0.950 . S
H1132 C1155 0.950 . S
H1133 C1157 0.950 . S
H1134 C1158 0.950 . S
H1135 C1159 0.951 . S
H1136 C1161 0.951 . S
H1137 C1163 0.950 . S
H1138 C1164 0.950 . S
H1139 C1166 0.950 . S
H1140 C1169 0.950 . S
H1141 C1170 0.950 . S
H1142 C1172 0.950 . S
H1143 C1173 0.950 . S
C1144 H1126 0.951 . S
C1144 C1145 1.366 . S
C1144 C1146 1.388 1_545 S
C1145 C1144 1.366 . S
C1145 C1149 1.385 1_545 S
C1146 H1127 0.951 1_565 S
C1146 C1144 1.388 1_565 S
C1146 C1147 1.366 . S
C1147 C1146 1.366 . S
C1147 C1148 1.414 . S
C1147 C1150 1.499 . S
C1148 H1128 0.950 . S
C1148 C1147 1.414 . S
C1148 C1149 1.374 . S
C1149 H1129 0.950 . S
C1149 C1145 1.385 1_565 S
C1149 C1148 1.374 . S
C1150 C1147 1.499 . S
C1150 C1151 1.373 . S
C1150 C1152 1.389 . S
C1151 H1130 0.950 . S
C1151 C1150 1.373 . S
C1151 C1167 1.377 . S
C1152 C1150 1.389 . S
C1152 C1153 1.524 . S
C1152 C1166 1.377 . S
C1153 C1152 1.524 . S
C1153 C1154 1.397 . S
C1153 C1158 1.363 . S
C1154 H1131 0.950 . S
C1154 C1153 1.397 . S
C1154 C1155 1.334 . S
C1155 H1132 0.950 . S
C1155 C1154 1.334 . S
C1155 C1156 1.287 1_565 S
C1156 C1155 1.287 1_545 S
C1156 C1157 1.524 . S
C1156 H1175 0.913 . S
C1157 H1133 0.950 . S
C1157 C1156 1.524 . S
C1157 C1158 1.415 1_545 S
C1158 H1134 0.950 . S
C1158 C1153 1.363 . S
C1158 C1157 1.415 1_565 S
C1159 H1135 0.951 . S
C1159 C1160 1.366 . S
C1159 C1161 1.388 . S
C1160 C1159 1.366 . S
C1160 C1164 1.385 . S
C1161 H1136 0.951 . S
C1161 C1159 1.388 . S
C1161 C1162 1.366 . S
C1162 C1161 1.366 . S
C1162 C1163 1.414 . S
C1162 C1165 1.499 . S
C1163 H1137 0.950 . S
C1163 C1162 1.414 . S
C1163 C1164 1.374 . S
C1164 H1138 0.950 . S
C1164 C1160 1.385 . S
C1164 C1163 1.374 . S
C1165 C1162 1.499 . S
C1165 C1166 1.373 . S
C1165 C1167 1.389 . S
C1166 H1139 0.950 . S
C1166 C1152 1.377 . S
C1166 C1165 1.373 . S
C1167 C1151 1.377 . S
C1167 C1165 1.389 . S
C1167 C1168 1.524 . S
C1168 C1167 1.524 . S
C1168 C1169 1.397 . S
C1168 C1173 1.363 . S
C1169 H1140 0.950 . S
C1169 C1168 1.397 . S
C1169 C1170 1.334 . S
C1170 H1141 0.950 . S
C1170 C1169 1.334 . S
C1170 C1171 1.287 . S
C1171 C1170 1.287 . S
C1171 C1172 1.524 . S
C1171 H1174 0.999 . S
C1172 H1142 0.950 . S
C1172 C1171 1.524 . S
C1172 C1173 1.415 . S
C1173 H1143 0.950 . S
C1173 C1168 1.363 . S
C1173 C1172 1.415 . S
H1174 C1171 0.999 . S
H1175 C1156 0.913 . S
H1176 C1194 0.951 . S
H1177 C1196 0.951 . S
H1178 C1198 0.950 . S
H1179 C1199 0.950 . S
H1180 C1201 0.950 . S
H1181 C1204 0.950 . S
H1182 C1205 0.950 . S
H1183 C1207 0.950 . S
H1184 C1208 0.950 . S
H1185 C1209 0.951 . S
H1186 C1211 0.951 . S
H1187 C1213 0.950 . S
H1188 C1214 0.950 . S
H1189 C1216 0.950 . S
H1190 C1219 0.950 . S
H1191 C1220 0.950 . S
H1192 C1222 0.950 . S
H1193 C1223 0.950 . S
C1194 H1176 0.951 . S
C1194 C1195 1.366 . S
C1194 C1196 1.388 . S
C1195 C1194 1.366 . S
C1195 C1199 1.385 . S
C1196 H1177 0.951 . S
C1196 C1194 1.388 . S
C1196 C1197 1.366 . S
C1197 C1196 1.366 . S
C1197 C1198 1.414 . S
C1197 C1200 1.499 . S
C1198 H1178 0.950 . S
C1198 C1197 1.414 . S
C1198 C1199 1.374 . S
C1199 H1179 0.950 . S
C1199 C1195 1.385 . S
C1199 C1198 1.374 . S
C1200 C1197 1.499 . S
C1200 C1201 1.373 . S
C1200 C1202 1.389 . S
C1201 H1180 0.950 . S
C1201 C1200 1.373 . S
C1201 C1217 1.377 . S
C1202 C1200 1.389 . S
C1202 C1203 1.524 . S
C1202 C1216 1.377 . S
C1203 C1202 1.524 . S
C1203 C1204 1.397 . S
C1203 C1208 1.363 . S
C1204 H1181 0.950 . S
C1204 C1203 1.397 . S
C1204 C1205 1.334 . S
C1205 H1182 0.950 . S
C1205 C1204 1.334 . S
C1205 C1206 1.287 . S
C1206 C1205 1.287 . S
C1206 C1207 1.524 . S
C1206 H1225 0.913 . S
C1207 H1183 0.950 . S
C1207 C1206 1.524 . S
C1207 C1208 1.415 . S
C1208 H1184 0.950 . S
C1208 C1203 1.363 . S
C1208 C1207 1.415 . S
C1209 H1185 0.951 . S
C1209 C1210 1.366 . S
C1209 C1211 1.388 . S
C1210 C1209 1.366 . S
C1210 C1214 1.385 . S
C1211 H1186 0.951 . S
C1211 C1209 1.388 . S
C1211 C1212 1.366 . S
C1212 C1211 1.366 . S
C1212 C1213 1.414 . S
C1212 C1215 1.499 . S
C1213 H1187 0.950 . S
C1213 C1212 1.414 . S
C1213 C1214 1.374 . S
C1214 H1188 0.950 . S
C1214 C1210 1.385 . S
C1214 C1213 1.374 . S
C1215 C1212 1.499 . S
C1215 C1216 1.373 . S
C1215 C1217 1.389 . S
C1216 H1189 0.950 . S
C1216 C1202 1.377 . S
C1216 C1215 1.373 . S
C1217 C1201 1.377 . S
C1217 C1215 1.389 . S
C1217 C1218 1.524 . S
C1218 C1217 1.524 . S
C1218 C1219 1.397 . S
C1218 C1223 1.363 . S
C1219 H1190 0.950 . S
C1219 C1218 1.397 . S
C1219 C1220 1.334 . S
C1220 H1191 0.950 . S
C1220 C1219 1.334 . S
C1220 C1221 1.287 . S
C1221 C1220 1.287 . S
C1221 C1222 1.524 . S
C1221 H1224 0.999 . S
C1222 H1192 0.950 . S
C1222 C1221 1.524 . S
C1222 C1223 1.415 . S
C1223 H1193 0.950 . S
C1223 C1218 1.363 . S
C1223 C1222 1.415 . S
H1224 C1221 0.999 . S
H1225 C1206 0.913 . S
H1226 C1244 0.951 . S
H1227 C1246 0.951 . S
H1228 C1248 0.950 . S
H1229 C1249 0.950 . S
H1230 C1251 0.950 . S
H1231 C1254 0.950 . S
H1232 C1255 0.950 . S
H1233 C1257 0.950 . S
H1234 C1258 0.950 . S
H1235 C1259 0.951 . S
H1236 C1261 0.951 . S
H1237 C1263 0.950 . S
H1238 C1264 0.950 . S
H1239 C1266 0.950 . S
H1240 C1269 0.950 . S
H1241 C1270 0.950 . S
H1242 C1272 0.950 . S
H1243 C1273 0.950 . S
C1244 H1226 0.951 . S
C1244 C1245 1.366 . S
C1244 C1246 1.388 . S
C1245 C1244 1.366 . S
C1245 C1249 1.385 . S
C1246 H1227 0.951 . S
C1246 C1244 1.388 . S
C1246 C1247 1.366 . S
C1247 C1246 1.366 . S
C1247 C1248 1.414 . S
C1247 C1250 1.499 . S
C1248 H1228 0.950 . S
C1248 C1247 1.414 . S
C1248 C1249 1.374 . S
C1249 H1229 0.950 . S
C1249 C1245 1.385 . S
C1249 C1248 1.374 . S
C1250 C1247 1.499 . S
C1250 C1251 1.373 . S
C1250 C1252 1.389 . S
C1251 H1230 0.950 . S
C1251 C1250 1.373 . S
C1251 C1267 1.377 . S
C1252 C1250 1.389 . S
C1252 C1253 1.524 . S
C1252 C1266 1.377 . S
C1253 C1252 1.524 . S
C1253 C1254 1.397 . S
C1253 C1258 1.363 . S
C1254 H1231 0.950 . S
C1254 C1253 1.397 . S
C1254 C1255 1.334 . S
C1255 H1232 0.950 . S
C1255 C1254 1.334 . S
C1255 C1256 1.287 . S
C1256 C1255 1.287 . S
C1256 C1257 1.524 . S
C1256 H1275 0.913 . S
C1257 H1233 0.950 . S
C1257 C1256 1.524 . S
C1257 C1258 1.415 . S
C1258 H1234 0.950 . S
C1258 C1253 1.363 . S
C1258 C1257 1.415 . S
C1259 H1235 0.951 . S
C1259 C1260 1.366 . S
C1259 C1261 1.388 . S
C1260 C1259 1.366 . S
C1260 C1264 1.385 . S
C1261 H1236 0.951 . S
C1261 C1259 1.388 . S
C1261 C1262 1.366 . S
C1262 C1261 1.366 . S
C1262 C1263 1.414 . S
C1262 C1265 1.499 . S
C1263 H1237 0.950 . S
C1263 C1262 1.414 . S
C1263 C1264 1.374 . S
C1264 H1238 0.950 . S
C1264 C1260 1.385 . S
C1264 C1263 1.374 . S
C1265 C1262 1.499 . S
C1265 C1266 1.373 . S
C1265 C1267 1.389 . S
C1266 H1239 0.950 . S
C1266 C1252 1.377 . S
C1266 C1265 1.373 . S
C1267 C1251 1.377 . S
C1267 C1265 1.389 . S
C1267 C1268 1.524 . S
C1268 C1267 1.524 . S
C1268 C1269 1.397 . S
C1268 C1273 1.363 . S
C1269 H1240 0.950 . S
C1269 C1268 1.397 . S
C1269 C1270 1.334 . S
C1270 H1241 0.950 . S
C1270 C1269 1.334 . S
C1270 C1271 1.287 . S
C1271 C1270 1.287 . S
C1271 C1272 1.524 . S
C1271 H1274 0.999 . S
C1272 H1242 0.950 . S
C1272 C1271 1.524 . S
C1272 C1273 1.415 . S
C1273 H1243 0.950 . S
C1273 C1268 1.363 . S
C1273 C1272 1.415 . S
H1274 C1271 0.999 . S
H1275 C1256 0.913 . S
H1276 C1294 0.951 . S
H1277 C1296 0.951 . S
H1278 C1298 0.950 . S
H1279 C1299 0.950 . S
H1280 C1301 0.950 . S
H1281 C1304 0.950 . S
H1282 C1305 0.950 . S
H1283 C1307 0.950 . S
H1284 C1308 0.950 . S
H1285 C1309 0.951 . S
H1286 C1311 0.951 . S
H1287 C1313 0.950 . S
H1288 C1314 0.950 . S
H1289 C1316 0.950 . S
H1290 C1319 0.950 . S
H1291 C1320 0.950 . S
H1292 C1322 0.950 . S
H1293 C1323 0.950 . S
C1294 H1276 0.951 . S
C1294 C1295 1.366 . S
C1294 C1296 1.388 . S
C1295 C1294 1.366 . S
C1295 C1299 1.385 . S
C1296 H1277 0.951 . S
C1296 C1294 1.388 . S
C1296 C1297 1.366 . S
C1297 C1296 1.366 . S
C1297 C1298 1.414 . S
C1297 C1300 1.499 . S
C1298 H1278 0.950 . S
C1298 C1297 1.414 . S
C1298 C1299 1.374 . S
C1299 H1279 0.950 . S
C1299 C1295 1.385 . S
C1299 C1298 1.374 . S
C1300 C1297 1.499 . S
C1300 C1301 1.373 . S
C1300 C1302 1.389 . S
C1301 H1280 0.950 . S
C1301 C1300 1.373 . S
C1301 C1317 1.377 . S
C1302 C1300 1.389 . S
C1302 C1303 1.524 . S
C1302 C1316 1.377 . S
C1303 C1302 1.524 . S
C1303 C1304 1.397 . S
C1303 C1308 1.363 . S
C1304 H1281 0.950 . S
C1304 C1303 1.397 . S
C1304 C1305 1.334 . S
C1305 H1282 0.950 . S
C1305 C1304 1.334 . S
C1305 C1306 1.287 . S
C1306 C1305 1.287 . S
C1306 C1307 1.524 . S
C1306 H1325 0.913 . S
C1307 H1283 0.950 . S
C1307 C1306 1.524 . S
C1307 C1308 1.415 . S
C1308 H1284 0.950 . S
C1308 C1303 1.363 . S
C1308 C1307 1.415 . S
C1309 H1285 0.951 . S
C1309 C1310 1.366 . S
C1309 C1311 1.388 . S
C1310 C1309 1.366 . S
C1310 C1314 1.385 . S
C1311 H1286 0.951 . S
C1311 C1309 1.388 . S
C1311 C1312 1.366 . S
C1312 C1311 1.366 . S
C1312 C1313 1.414 . S
C1312 C1315 1.499 . S
C1313 H1287 0.950 . S
C1313 C1312 1.414 . S
C1313 C1314 1.374 . S
C1314 H1288 0.950 . S
C1314 C1310 1.385 . S
C1314 C1313 1.374 . S
C1315 C1312 1.499 . S
C1315 C1316 1.373 . S
C1315 C1317 1.389 . S
C1316 H1289 0.950 . S
C1316 C1302 1.377 . S
C1316 C1315 1.373 . S
C1317 C1301 1.377 . S
C1317 C1315 1.389 . S
C1317 C1318 1.524 . S
C1318 C1317 1.524 . S
C1318 C1319 1.397 . S
C1318 C1323 1.363 . S
C1319 H1290 0.950 . S
C1319 C1318 1.397 . S
C1319 C1320 1.334 . S
C1320 H1291 0.950 . S
C1320 C1319 1.334 . S
C1320 C1321 1.287 . S
C1321 C1320 1.287 . S
C1321 C1322 1.524 . S
C1321 H1324 0.999 . S
C1322 H1292 0.950 . S
C1322 C1321 1.524 . S
C1322 C1323 1.415 . S
C1323 H1293 0.950 . S
C1323 C1318 1.363 . S
C1323 C1322 1.415 . S
H1324 C1321 0.999 . S
H1325 C1306 0.913 . S
H1326 C1344 0.951 . S
H1327 C1346 0.951 . S
H1328 C1348 0.950 . S
H1329 C1349 0.950 . S
H1330 C1351 0.950 . S
H1331 C1354 0.950 . S
H1332 C1355 0.950 . S
H1333 C1357 0.950 . S
H1334 C1358 0.950 . S
H1335 C1359 0.951 . S
H1336 C1361 0.951 . S
H1337 C1363 0.950 . S
H1338 C1364 0.950 . S
H1339 C1366 0.950 . S
H1340 C1369 0.950 . S
H1341 C1370 0.950 . S
H1342 C1372 0.950 . S
H1343 C1373 0.950 . S
C1344 H1326 0.951 . S
C1344 C1345 1.366 . S
C1344 C1346 1.388 . S
C1345 C1344 1.366 . S
C1345 C1349 1.385 . S
C1346 H1327 0.951 . S
C1346 C1344 1.388 . S
C1346 C1347 1.366 . S
C1347 C1346 1.366 . S
C1347 C1348 1.414 . S
C1347 C1350 1.499 . S
C1348 H1328 0.950 . S
C1348 C1347 1.414 . S
C1348 C1349 1.374 . S
C1349 H1329 0.950 . S
C1349 C1345 1.385 . S
C1349 C1348 1.374 . S
C1350 C1347 1.499 . S
C1350 C1351 1.373 . S
C1350 C1352 1.389 . S
C1351 H1330 0.950 . S
C1351 C1350 1.373 . S
C1351 C1367 1.377 . S
C1352 C1350 1.389 . S
C1352 C1353 1.524 . S
C1352 C1366 1.377 . S
C1353 C1352 1.524 . S
C1353 C1354 1.397 . S
C1353 C1358 1.363 . S
C1354 H1331 0.950 . S
C1354 C1353 1.397 . S
C1354 C1355 1.334 . S
C1355 H1332 0.950 . S
C1355 C1354 1.334 . S
C1355 C1356 1.287 . S
C1356 C1355 1.287 . S
C1356 C1357 1.524 . S
C1356 H1375 0.913 . S
C1357 H1333 0.950 . S
C1357 C1356 1.524 . S
C1357 C1358 1.415 . S
C1358 H1334 0.950 . S
C1358 C1353 1.363 . S
C1358 C1357 1.415 . S
C1359 H1335 0.951 . S
C1359 C1360 1.366 . S
C1359 C1361 1.388 . S
C1360 C1359 1.366 . S
C1360 C1364 1.385 . S
C1361 H1336 0.951 . S
C1361 C1359 1.388 . S
C1361 C1362 1.366 . S
C1362 C1361 1.366 . S
C1362 C1363 1.414 . S
C1362 C1365 1.499 . S
C1363 H1337 0.950 . S
C1363 C1362 1.414 . S
C1363 C1364 1.374 . S
C1364 H1338 0.950 . S
C1364 C1360 1.385 . S
C1364 C1363 1.374 . S
C1365 C1362 1.499 . S
C1365 C1366 1.373 . S
C1365 C1367 1.389 . S
C1366 H1339 0.950 . S
C1366 C1352 1.377 . S
C1366 C1365 1.373 . S
C1367 C1351 1.377 . S
C1367 C1365 1.389 . S
C1367 C1368 1.524 . S
C1368 C1367 1.524 . S
C1368 C1369 1.397 . S
C1368 C1373 1.363 . S
C1369 H1340 0.950 . S
C1369 C1368 1.397 . S
C1369 C1370 1.334 . S
C1370 H1341 0.950 . S
C1370 C1369 1.334 . S
C1370 C1371 1.287 . S
C1371 C1370 1.287 . S
C1371 C1372 1.524 . S
C1371 H1374 0.999 . S
C1372 H1342 0.950 . S
C1372 C1371 1.524 . S
C1372 C1373 1.415 . S
C1373 H1343 0.950 . S
C1373 C1368 1.363 . S
C1373 C1372 1.415 . S
H1374 C1371 0.999 . S
H1375 C1356 0.913 . S
H1376 C1394 0.951 . S
H1377 C1396 0.951 . S
H1378 C1398 0.950 . S
H1379 C1399 0.950 . S
H1380 C1401 0.950 . S
H1381 C1404 0.950 . S
H1382 C1405 0.950 . S
H1383 C1407 0.950 . S
H1384 C1408 0.950 . S
H1385 C1409 0.951 . S
H1386 C1411 0.951 . S
H1387 C1413 0.950 . S
H1388 C1414 0.950 . S
H1389 C1416 0.950 . S
H1390 C1419 0.950 . S
H1391 C1420 0.950 . S
H1392 C1422 0.950 . S
H1393 C1423 0.950 . S
C1394 H1376 0.951 . S
C1394 C1395 1.366 . S
C1394 C1396 1.388 . S
C1395 C1394 1.366 . S
C1395 C1399 1.385 . S
C1396 H1377 0.951 . S
C1396 C1394 1.388 . S
C1396 C1397 1.366 . S
C1397 C1396 1.366 . S
C1397 C1398 1.414 . S
C1397 C1400 1.499 . S
C1398 H1378 0.950 . S
C1398 C1397 1.414 . S
C1398 C1399 1.374 . S
C1399 H1379 0.950 . S
C1399 C1395 1.385 . S
C1399 C1398 1.374 . S
C1400 C1397 1.499 . S
C1400 C1401 1.373 . S
C1400 C1402 1.389 . S
C1401 H1380 0.950 . S
C1401 C1400 1.373 . S
C1401 C1417 1.377 . S
C1402 C1400 1.389 . S
C1402 C1403 1.524 . S
C1402 C1416 1.377 . S
C1403 C1402 1.524 . S
C1403 C1404 1.397 . S
C1403 C1408 1.363 . S
C1404 H1381 0.950 . S
C1404 C1403 1.397 . S
C1404 C1405 1.334 . S
C1405 H1382 0.950 . S
C1405 C1404 1.334 . S
C1405 C1406 1.287 . S
C1406 C1405 1.287 . S
C1406 C1407 1.524 . S
C1406 H1425 0.913 . S
C1407 H1383 0.950 . S
C1407 C1406 1.524 . S
C1407 C1408 1.415 . S
C1408 H1384 0.950 . S
C1408 C1403 1.363 . S
C1408 C1407 1.415 . S
C1409 H1385 0.951 . S
C1409 C1410 1.366 . S
C1409 C1411 1.388 . S
C1410 C1409 1.366 . S
C1410 C1414 1.385 . S
C1411 H1386 0.951 . S
C1411 C1409 1.388 . S
C1411 C1412 1.366 . S
C1412 C1411 1.366 . S
C1412 C1413 1.414 . S
C1412 C1415 1.499 . S
C1413 H1387 0.950 . S
C1413 C1412 1.414 . S
C1413 C1414 1.374 . S
C1414 H1388 0.950 . S
C1414 C1410 1.385 . S
C1414 C1413 1.374 . S
C1415 C1412 1.499 . S
C1415 C1416 1.373 . S
C1415 C1417 1.389 . S
C1416 H1389 0.950 . S
C1416 C1402 1.377 . S
C1416 C1415 1.373 . S
C1417 C1401 1.377 . S
C1417 C1415 1.389 . S
C1417 C1418 1.524 . S
C1418 C1417 1.524 . S
C1418 C1419 1.397 . S
C1418 C1423 1.363 . S
C1419 H1390 0.950 . S
C1419 C1418 1.397 . S
C1419 C1420 1.334 . S
C1420 H1391 0.950 . S
C1420 C1419 1.334 . S
C1420 C1421 1.287 . S
C1421 C1420 1.287 . S
C1421 C1422 1.524 . S
C1421 H1424 0.999 . S
C1422 H1392 0.950 . S
C1422 C1421 1.524 . S
C1422 C1423 1.415 . S
C1423 H1393 0.950 . S
C1423 C1418 1.363 . S
C1423 C1422 1.415 . S
H1424 C1421 0.999 . S
H1425 C1406 0.913 . S
H1426 C1444 0.951 . S
H1427 C1446 0.951 . S
H1428 C1448 0.950 . S
H1429 C1449 0.950 . S
H1430 C1451 0.950 . S
H1431 C1454 0.950 . S
H1432 C1455 0.950 . S
H1433 C1457 0.950 . S
H1434 C1458 0.950 . S
H1435 C1459 0.951 . S
H1436 C1461 0.951 . S
H1437 C1463 0.950 . S
H1438 C1464 0.950 . S
H1439 C1466 0.950 . S
H1440 C1469 0.950 . S
H1441 C1470 0.950 . S
H1442 C1472 0.950 . S
H1443 C1473 0.950 . S
C1444 H1426 0.951 . S
C1444 C1445 1.366 . S
C1444 C1446 1.388 . S
C1445 C1444 1.366 . S
C1445 C1449 1.385 . S
C1446 H1427 0.951 . S
C1446 C1444 1.388 . S
C1446 C1447 1.366 . S
C1447 C1446 1.366 . S
C1447 C1448 1.414 . S
C1447 C1450 1.499 . S
C1448 H1428 0.950 . S
C1448 C1447 1.414 . S
C1448 C1449 1.374 . S
C1449 H1429 0.950 . S
C1449 C1445 1.385 . S
C1449 C1448 1.374 . S
C1450 C1447 1.499 . S
C1450 C1451 1.373 . S
C1450 C1452 1.389 . S
C1451 H1430 0.950 . S
C1451 C1450 1.373 . S
C1451 C1467 1.377 . S
C1452 C1450 1.389 . S
C1452 C1453 1.524 . S
C1452 C1466 1.377 . S
C1453 C1452 1.524 . S
C1453 C1454 1.397 . S
C1453 C1458 1.363 . S
C1454 H1431 0.950 . S
C1454 C1453 1.397 . S
C1454 C1455 1.334 . S
C1455 H1432 0.950 . S
C1455 C1454 1.334 . S
C1455 C1456 1.287 . S
C1456 C1455 1.287 . S
C1456 C1457 1.524 . S
C1456 H1475 0.913 . S
C1457 H1433 0.950 . S
C1457 C1456 1.524 . S
C1457 C1458 1.415 . S
C1458 H1434 0.950 . S
C1458 C1453 1.363 . S
C1458 C1457 1.415 . S
C1459 H1435 0.951 . S
C1459 C1460 1.366 . S
C1459 C1461 1.388 . S
C1460 C1459 1.366 . S
C1460 C1464 1.385 . S
C1461 H1436 0.951 . S
C1461 C1459 1.388 . S
C1461 C1462 1.366 . S
C1462 C1461 1.366 . S
C1462 C1463 1.414 . S
C1462 C1465 1.499 . S
C1463 H1437 0.950 . S
C1463 C1462 1.414 . S
C1463 C1464 1.374 . S
C1464 H1438 0.950 . S
C1464 C1460 1.385 . S
C1464 C1463 1.374 . S
C1465 C1462 1.499 . S
C1465 C1466 1.373 . S
C1465 C1467 1.389 . S
C1466 H1439 0.950 . S
C1466 C1452 1.377 . S
C1466 C1465 1.373 . S
C1467 C1451 1.377 . S
C1467 C1465 1.389 . S
C1467 C1468 1.524 . S
C1468 C1467 1.524 . S
C1468 C1469 1.397 . S
C1468 C1473 1.363 . S
C1469 H1440 0.950 . S
C1469 C1468 1.397 . S
C1469 C1470 1.334 . S
C1470 H1441 0.950 . S
C1470 C1469 1.334 . S
C1470 C1471 1.287 . S
C1471 C1470 1.287 . S
C1471 C1472 1.524 . S
C1471 H1474 0.999 . S
C1472 H1442 0.950 . S
C1472 C1471 1.524 . S
C1472 C1473 1.415 . S
C1473 H1443 0.950 . S
C1473 C1468 1.363 . S
C1473 C1472 1.415 . S
H1474 C1471 0.999 . S
H1475 C1456 0.913 . S
H1476 C1494 0.951 . S
H1477 C1496 0.951 . S
H1478 C1498 0.950 . S
H1479 C1499 0.950 . S
H1480 C1501 0.950 . S
H1481 C1504 0.950 . S
H1482 C1505 0.950 . S
H1483 C1507 0.950 . S
H1484 C1508 0.950 . S
H1485 C1509 0.951 . S
H1486 C1511 0.951 . S
H1487 C1513 0.950 . S
H1488 C1514 0.950 . S
H1489 C1516 0.950 . S
H1490 C1519 0.950 . S
H1491 C1520 0.950 . S
H1492 C1522 0.950 . S
H1493 C1523 0.950 . S
C1494 H1476 0.951 . S
C1494 C1495 1.366 . S
C1494 C1496 1.388 . S
C1495 C1494 1.366 . S
C1495 C1499 1.385 . S
C1496 H1477 0.951 . S
C1496 C1494 1.388 . S
C1496 C1497 1.366 . S
C1497 C1496 1.366 . S
C1497 C1498 1.414 . S
C1497 C1500 1.499 . S
C1498 H1478 0.950 . S
C1498 C1497 1.414 . S
C1498 C1499 1.374 . S
C1499 H1479 0.950 . S
C1499 C1495 1.385 . S
C1499 C1498 1.374 . S
C1500 C1497 1.499 . S
C1500 C1501 1.373 . S
C1500 C1502 1.389 . S
C1501 H1480 0.950 . S
C1501 C1500 1.373 . S
C1501 C1517 1.377 . S
C1502 C1500 1.389 . S
C1502 C1503 1.524 . S
C1502 C1516 1.377 . S
C1503 C1502 1.524 . S
C1503 C1504 1.397 . S
C1503 C1508 1.363 . S
C1504 H1481 0.950 . S
C1504 C1503 1.397 . S
C1504 C1505 1.334 . S
C1505 H1482 0.950 . S
C1505 C1504 1.334 . S
C1505 C1506 1.287 . S
C1506 C1505 1.287 . S
C1506 C1507 1.524 . S
C1506 H1525 0.913 . S
C1507 H1483 0.950 . S
C1507 C1506 1.524 . S
C1507 C1508 1.415 . S
C1508 H1484 0.950 . S
C1508 C1503 1.363 . S
C1508 C1507 1.415 . S
C1509 H1485 0.951 . S
C1509 C1510 1.366 . S
C1509 C1511 1.388 . S
C1510 C1509 1.366 . S
C1510 C1514 1.385 . S
C1511 H1486 0.951 . S
C1511 C1509 1.388 . S
C1511 C1512 1.366 . S
C1512 C1511 1.366 . S
C1512 C1513 1.414 . S
C1512 C1515 1.499 . S
C1513 H1487 0.950 . S
C1513 C1512 1.414 . S
C1513 C1514 1.374 . S
C1514 H1488 0.950 . S
C1514 C1510 1.385 . S
C1514 C1513 1.374 . S
C1515 C1512 1.499 . S
C1515 C1516 1.373 . S
C1515 C1517 1.389 . S
C1516 H1489 0.950 . S
C1516 C1502 1.377 . S
C1516 C1515 1.373 . S
C1517 C1501 1.377 . S
C1517 C1515 1.389 . S
C1517 C1518 1.524 . S
C1518 C1517 1.524 . S
C1518 C1519 1.397 . S
C1518 C1523 1.363 . S
C1519 H1490 0.950 . S
C1519 C1518 1.397 . S
C1519 C1520 1.334 . S
C1520 H1491 0.950 . S
C1520 C1519 1.334 . S
C1520 C1521 1.287 . S
C1521 C1520 1.287 . S
C1521 C1522 1.524 . S
C1521 H1524 0.999 . S
C1522 H1492 0.950 . S
C1522 C1521 1.524 . S
C1522 C1523 1.415 . S
C1523 H1493 0.950 . S
C1523 C1518 1.363 . S
C1523 C1522 1.415 . S
H1524 C1521 0.999 . S
H1525 C1506 0.913 . S
H1526 C1544 0.951 . S
H1527 C1546 0.951 . S
H1528 C1548 0.950 . S
H1529 C1549 0.950 . S
H1530 C1551 0.950 . S
H1531 C1554 0.950 . S
H1532 C1555 0.950 . S
H1533 C1557 0.950 . S
H1534 C1558 0.950 . S
H1535 C1559 0.951 . S
H1536 C1561 0.951 . S
H1537 C1563 0.950 . S
H1538 C1564 0.950 . S
H1539 C1566 0.950 . S
H1540 C1569 0.950 . S
H1541 C1570 0.950 . S
H1542 C1572 0.950 . S
H1543 C1573 0.950 . S
C1544 H1526 0.951 . S
C1544 C1545 1.366 . S
C1544 C1546 1.388 . S
C1545 C1544 1.366 . S
C1545 C1549 1.385 . S
C1546 H1527 0.951 . S
C1546 C1544 1.388 . S
C1546 C1547 1.366 . S
C1547 C1546 1.366 . S
C1547 C1548 1.414 . S
C1547 C1550 1.499 . S
C1548 H1528 0.950 . S
C1548 C1547 1.414 . S
C1548 C1549 1.374 . S
C1549 H1529 0.950 . S
C1549 C1545 1.385 . S
C1549 C1548 1.374 . S
C1550 C1547 1.499 . S
C1550 C1551 1.373 . S
C1550 C1552 1.389 . S
C1551 H1530 0.950 . S
C1551 C1550 1.373 . S
C1551 C1567 1.377 . S
C1552 C1550 1.389 . S
C1552 C1553 1.524 . S
C1552 C1566 1.377 . S
C1553 C1552 1.524 . S
C1553 C1554 1.397 . S
C1553 C1558 1.363 . S
C1554 H1531 0.950 . S
C1554 C1553 1.397 . S
C1554 C1555 1.334 . S
C1555 H1532 0.950 . S
C1555 C1554 1.334 . S
C1555 C1556 1.287 . S
C1556 C1555 1.287 . S
C1556 C1557 1.524 . S
C1556 H1575 0.913 . S
C1557 H1533 0.950 . S
C1557 C1556 1.524 . S
C1557 C1558 1.415 . S
C1558 H1534 0.950 . S
C1558 C1553 1.363 . S
C1558 C1557 1.415 . S
C1559 H1535 0.951 . S
C1559 C1560 1.366 . S
C1559 C1561 1.388 . S
C1560 C1559 1.366 . S
C1560 C1564 1.385 . S
C1561 H1536 0.951 . S
C1561 C1559 1.388 . S
C1561 C1562 1.366 . S
C1562 C1561 1.366 . S
C1562 C1563 1.414 . S
C1562 C1565 1.499 . S
C1563 H1537 0.950 . S
C1563 C1562 1.414 . S
C1563 C1564 1.374 . S
C1564 H1538 0.950 . S
C1564 C1560 1.385 . S
C1564 C1563 1.374 . S
C1565 C1562 1.499 . S
C1565 C1566 1.373 . S
C1565 C1567 1.389 . S
C1566 H1539 0.950 . S
C1566 C1552 1.377 . S
C1566 C1565 1.373 . S
C1567 C1551 1.377 . S
C1567 C1565 1.389 . S
C1567 C1568 1.524 . S
C1568 C1567 1.524 . S
C1568 C1569 1.397 . S
C1568 C1573 1.363 . S
C1569 H1540 0.950 . S
C1569 C1568 1.397 . S
C1569 C1570 1.334 . S
C1570 H1541 0.950 . S
C1570 C1569 1.334 . S
C1570 C1571 1.287 . S
C1571 C1570 1.287 . S
C1571 C1572 1.524 . S
C1571 H1574 0.999 . S
C1572 H1542 0.950 . S
C1572 C1571 1.524 . S
C1572 C1573 1.415 . S
C1573 H1543 0.950 . S
C1573 C1568 1.363 . S
C1573 C1572 1.415 . S
H1574 C1571 0.999 . S
H1575 C1556 0.913 . S
C395 C25 1.511 . S
C410 C314 1.504 . S
C460 C292 1.505 . S
C445 C61 1.513 . S
C510 C318 1.505 . S
C495 C97 1.538 . S
C560 C296 1.506 . S
C545 C133 1.535 . S
C610 C358 1.505 . S
C595 C169 1.511 . S
C660 C336 1.505 . S
C645 C205 1.511 . S
C695 C241 1.537 . S
C710 C362 1.505 . S
C760 C340 1.505 . S
C745 C277 1.536 . S
C795 C31 1.511 . S
C810 C363 1.532 . S
C860 C341 1.532 . S
C845 C67 1.511 . S
C895 C103 1.533 . S
C910 C360 1.533 . S
C945 C139 1.534 . S
C960 C338 1.532 . S
C1010 C319 1.532 . S
C995 C175 1.513 . S
C1045 C211 1.511 . S
C1060 C297 1.531 . S
C1110 C316 1.533 . S
C1095 C247 1.532 . S
C1160 C294 1.533 . S
C1145 C283 1.535 . S
C1210 C337 1.486 . S
C1195 C1 1.479 . S
C1260 C359 1.486 . S
C1245 C37 1.479 . S
C1295 C73 1.499 . S
C1310 C339 1.486 . S
C1360 C361 1.485 . S
C1345 C109 1.499 . S
C1410 C293 1.486 . S
C1395 C145 1.481 . S
C1445 C181 1.479 . S
C1460 C315 1.483 . S
C1495 C217 1.499 . S
C1510 C295 1.483 . S
C1545 C253 1.499 . S
C1560 C317 1.488 . S
