# Generated by pormake.
# Topology pyr, (3,6)-cn, num edge types: 1
# Building blocks:
#     Node 0, Type 0, BuildingBlock: QEWDON_clean_linker_0, # of connection points: 3
#     Node 1, Type 0, BuildingBlock: QEWDON_clean_linker_0, # of connection points: 3
#     Node 2, Type 0, BuildingBlock: QEWDON_clean_linker_0, # of connection points: 3
#     Node 3, Type 0, BuildingBlock: QEWDON_clean_linker_0, # of connection points: 3
#     Node 4, Type 0, BuildingBlock: QEWDON_clean_linker_0, # of connection points: 3
#     Node 5, Type 0, BuildingBlock: QEWDON_clean_linker_0, # of connection points: 3
#     Node 6, Type 0, BuildingBlock: QEWDON_clean_linker_0, # of connection points: 3
#     Node 7, Type 0, BuildingBlock: QEWDON_clean_linker_0, # of connection points: 3
#     Node 8, Type 1, BuildingBlock: BETDIP_clean_sbu_0, # of connection points: 6
#     Node 9, Type 1, BuildingBlock: BETDIP_clean_sbu_0, # of connection points: 6
#     Node 10, Type 1, BuildingBlock: BETDIP_clean_sbu_0, # of connection points: 6
#     Node 11, Type 1, BuildingBlock: BETDIP_clean_sbu_0, # of connection points: 6
#     Edge 12, Type (0, 1), BuildingBlock: UVAHIK_clean_linker_0, # of connection points: 2
#     Edge 13, Type (0, 1), BuildingBlock: UVAHIK_clean_linker_0, # of connection points: 2
#     Edge 14, Type (0, 1), BuildingBlock: UVAHIK_clean_linker_0, # of connection points: 2
#     Edge 15, Type (0, 1), BuildingBlock: UVAHIK_clean_linker_0, # of connection points: 2
#     Edge 16, Type (0, 1), BuildingBlock: UVAHIK_clean_linker_0, # of connection points: 2
#     Edge 17, Type (0, 1), BuildingBlock: UVAHIK_clean_linker_0, # of connection points: 2
#     Edge 18, Type (0, 1), BuildingBlock: UVAHIK_clean_linker_0, # of connection points: 2
#     Edge 19, Type (0, 1), BuildingBlock: UVAHIK_clean_linker_0, # of connection points: 2
#     Edge 20, Type (0, 1), BuildingBlock: UVAHIK_clean_linker_0, # of connection points: 2
#     Edge 21, Type (0, 1), BuildingBlock: UVAHIK_clean_linker_0, # of connection points: 2
#     Edge 22, Type (0, 1), BuildingBlock: UVAHIK_clean_linker_0, # of connection points: 2
#     Edge 23, Type (0, 1), BuildingBlock: UVAHIK_clean_linker_0, # of connection points: 2
#     Edge 24, Type (0, 1), BuildingBlock: UVAHIK_clean_linker_0, # of connection points: 2
#     Edge 25, Type (0, 1), BuildingBlock: UVAHIK_clean_linker_0, # of connection points: 2
#     Edge 26, Type (0, 1), BuildingBlock: UVAHIK_clean_linker_0, # of connection points: 2
#     Edge 27, Type (0, 1), BuildingBlock: UVAHIK_clean_linker_0, # of connection points: 2
#     Edge 28, Type (0, 1), BuildingBlock: UVAHIK_clean_linker_0, # of connection points: 2
#     Edge 29, Type (0, 1), BuildingBlock: UVAHIK_clean_linker_0, # of connection points: 2
#     Edge 30, Type (0, 1), BuildingBlock: UVAHIK_clean_linker_0, # of connection points: 2
#     Edge 31, Type (0, 1), BuildingBlock: UVAHIK_clean_linker_0, # of connection points: 2
#     Edge 32, Type (0, 1), BuildingBlock: UVAHIK_clean_linker_0, # of connection points: 2
#     Edge 33, Type (0, 1), BuildingBlock: UVAHIK_clean_linker_0, # of connection points: 2
#     Edge 34, Type (0, 1), BuildingBlock: UVAHIK_clean_linker_0, # of connection points: 2
#     Edge 35, Type (0, 1), BuildingBlock: UVAHIK_clean_linker_0, # of connection points: 2
# Relax obj value: 0.142
# Max RMSD: 0.271
# Mean RMSD: 0.187
data_MOF--net-pyr--node1-BETDIP_clean_sbu_0--node2-QEWDON_clean_linker_0--edge1-UVAHIK_clean_linker_0
_symmetry_space_group_name_H-M    P1
_symmetry_Int_Tables_number       1
_symmetry_cell_setting            triclinic
loop_
_symmetry_equiv_pos_as_xyz
'x, y, z'
_cell_length_a     45.611914
_cell_length_b     51.348989
_cell_length_c     53.49788
_cell_angle_alpha  88.512121
_cell_angle_beta   93.498265
_cell_angle_gamma 112.81289
loop_
_atom_site_label
_atom_site_type_symbol
_atom_site_fract_x
_atom_site_fract_y
_atom_site_fract_z
_atom_type_partial_charge
H0 H 0.38794 0.30677 0.19304 0.0
C1 C 0.37166 0.29907 0.20799 0.0
C2 C 0.36571 0.2722 0.21829 0.0
C3 C 0.35697 0.31623 0.21689 0.0
H4 H 0.34058 0.24208 0.2461 0.0
C5 C 0.34493 0.26266 0.23788 0.0
C6 C 0.32997 0.27952 0.2471 0.0
C7 C 0.33596 0.30626 0.23633 0.0
C8 C 0.36417 0.34476 0.20603 0.0
H9 H 0.32461 0.31948 0.24323 0.0
C10 C 0.33947 0.35356 0.19812 0.0
C11 C 0.34636 0.38015 0.18668 0.0
C12 C 0.39592 0.36304 0.20288 0.0
H13 H 0.41537 0.35685 0.20901 0.0
C14 C 0.40289 0.38957 0.19193 0.0
H15 H 0.31491 0.33932 0.20004 0.0
C16 C 0.37833 0.39808 0.18379 0.0
H17 H 0.38437 0.4188 0.17538 0.0
H18 H 0.42743 0.40356 0.18967 0.0
H19 H 0.21082 0.83299 0.76019 0.0
C20 C 0.22288 0.82109 0.75196 0.0
C21 C 0.25137 0.82102 0.76351 0.0
C22 C 0.20972 0.80571 0.72988 0.0
H23 H 0.28885 0.8056 0.76119 0.0
C24 C 0.2668 0.80564 0.75246 0.0
C25 C 0.25413 0.79032 0.73028 0.0
C26 C 0.22543 0.79035 0.7192 0.0
C27 C 0.17954 0.80564 0.71787 0.0
H28 H 0.21528 0.77846 0.70218 0.0
C29 C 0.17526 0.83112 0.71362 0.0
C30 C 0.14693 0.83118 0.70164 0.0
C31 C 0.15504 0.78007 0.71027 0.0
H32 H 0.15768 0.76015 0.71349 0.0
C33 C 0.12677 0.77994 0.69865 0.0
H34 H 0.19413 0.8509 0.71943 0.0
C35 C 0.1227 0.80527 0.69428 0.0
H36 H 0.10081 0.80459 0.68468 0.0
H37 H 0.10802 0.76014 0.69282 0.0
H38 H 0.66088 0.42974 0.88281 0.0
C39 C 0.653 0.40763 0.88803 0.0
C40 C 0.67096 0.3989 0.90617 0.0
C41 C 0.62335 0.38826 0.87846 0.0
H42 H 0.67326 0.36398 0.92823 0.0
C43 C 0.65973 0.37046 0.91379 0.0
C44 C 0.63042 0.3508 0.9042 0.0
C45 C 0.61253 0.35989 0.88638 0.0
C46 C 0.60117 0.39797 0.86333 0.0
H47 H 0.58956 0.34505 0.87913 0.0
C48 C 0.60904 0.41173 0.84004 0.0
C49 C 0.58613 0.41856 0.82548 0.0
C50 C 0.57093 0.39231 0.87224 0.0
H51 H 0.5645 0.38203 0.89018 0.0
C52 C 0.54867 0.39975 0.85816 0.0
H53 H 0.63218 0.41599 0.83288 0.0
C54 C 0.55607 0.41259 0.83488 0.0
H55 H 0.53824 0.41791 0.82412 0.0
H56 H 0.52546 0.39528 0.86522 0.0
H57 H 0.91745 0.78888 0.35062 0.0
C58 C 0.89946 0.77417 0.36205 0.0
C59 C 0.89803 0.78078 0.38729 0.0
C60 C 0.87651 0.74938 0.35107 0.0
H61 H 0.87151 0.7673 0.42048 0.0
C62 C 0.87338 0.76208 0.4013 0.0
C63 C 0.84969 0.73777 0.39056 0.0
C64 C 0.85178 0.73128 0.36551 0.0
C65 C 0.87342 0.74607 0.32341 0.0
H66 H 0.83291 0.7133 0.35664 0.0
C67 C 0.89117 0.7342 0.31009 0.0
C68 C 0.88689 0.73167 0.28361 0.0
C69 C 0.85147 0.75502 0.3102 0.0
H70 H 0.83762 0.76409 0.32005 0.0
C71 C 0.84706 0.75239 0.28429 0.0
H72 H 0.90817 0.72724 0.32016 0.0
C73 C 0.8645 0.74083 0.27112 0.0
H74 H 0.8601 0.73872 0.251 0.0
H75 H 0.82993 0.75927 0.27435 0.0
H76 H 0.70537 0.80021 0.91454 0.0
C77 C 0.71585 0.81289 0.89843 0.0
C78 C 0.74597 0.81524 0.8914 0.0
C79 C 0.69872 0.8262 0.88425 0.0
H80 H 0.78197 0.83327 0.86452 0.0
C81 C 0.75859 0.83101 0.86994 0.0
C82 C 0.74154 0.84425 0.85553 0.0
C83 C 0.71169 0.84204 0.86299 0.0
C84 C 0.6662 0.82187 0.89052 0.0
H85 H 0.698 0.85172 0.85178 0.0
C86 C 0.66052 0.84241 0.90396 0.0
C87 C 0.62925 0.83844 0.90952 0.0
C88 C 0.64066 0.79723 0.88261 0.0
H89 H 0.64475 0.78126 0.87218 0.0
C90 C 0.60962 0.79322 0.88784 0.0
H91 H 0.68053 0.86116 0.91035 0.0
C92 C 0.60387 0.81366 0.90111 0.0
H93 H 0.57946 0.81014 0.90452 0.0
H94 H 0.58993 0.77427 0.88149 0.0
H95 H 0.84839 0.285 0.45709 0.0
C96 C 0.83712 0.28271 0.43841 0.0
C97 C 0.84517 0.26753 0.42045 0.0
C98 C 0.81421 0.29434 0.43275 0.0
H99 H 0.83703 0.25346 0.38211 0.0
C100 C 0.83172 0.26581 0.39595 0.0
C101 C 0.80982 0.27834 0.38951 0.0
C102 C 0.80088 0.29226 0.40808 0.0
C103 C 0.80273 0.30676 0.45306 0.0
H104 H 0.78302 0.30089 0.40338 0.0
C105 C 0.79336 0.32964 0.44835 0.0
C106 C 0.78104 0.34024 0.46738 0.0
C107 C 0.79993 0.2949 0.47729 0.0
H108 H 0.80591 0.27676 0.48155 0.0
C109 C 0.78845 0.30574 0.49631 0.0
H110 H 0.79573 0.33931 0.42995 0.0
C111 C 0.77894 0.32815 0.49143 0.0
H112 H 0.769 0.3354 0.50636 0.0
H113 H 0.78625 0.29632 0.51479 0.0
H114 H 0.43842 0.76594 0.25877 0.0
C115 C 0.41485 0.75502 0.25001 0.0
C116 C 0.40002 0.77019 0.23546 0.0
C117 C 0.39995 0.7255 0.2522 0.0
H118 H 0.35925 0.76681 0.21118 0.0
C119 C 0.36995 0.75543 0.22348 0.0
C120 C 0.35471 0.72594 0.22553 0.0
C121 C 0.36989 0.71119 0.24012 0.0
C122 C 0.41731 0.70889 0.26395 0.0
H123 H 0.35872 0.68839 0.24169 0.0
C124 C 0.42498 0.70982 0.28993 0.0
C125 C 0.44029 0.69263 0.30064 0.0
C126 C 0.42534 0.69107 0.24875 0.0
H127 H 0.4196 0.69008 0.22875 0.0
C128 C 0.44072 0.67432 0.25915 0.0
H129 H 0.41872 0.72355 0.30166 0.0
C130 C 0.44801 0.67494 0.28486 0.0
H131 H 0.45908 0.66099 0.29243 0.0
H132 H 0.44667 0.66053 0.24729 0.0
H133 H 0.20043 0.43533 0.77148 0.0
C134 C 0.18673 0.41664 0.76053 0.0
C135 C 0.19401 0.41491 0.73551 0.0
C136 C 0.16281 0.39364 0.77176 0.0
H137 H 0.18422 0.38808 0.70326 0.0
C138 C 0.17723 0.38993 0.72192 0.0
C139 C 0.15339 0.36666 0.73264 0.0
C140 C 0.146 0.36902 0.75744 0.0
C141 C 0.15823 0.39311 0.79926 0.0
H142 H 0.12758 0.3513 0.76597 0.0
C143 C 0.15384 0.4152 0.81195 0.0
C144 C 0.14951 0.41323 0.83813 0.0
C145 C 0.15848 0.36952 0.8131 0.0
H146 H 0.16232 0.35253 0.8041 0.0
C147 C 0.15407 0.3675 0.83866 0.0
H148 H 0.15373 0.43358 0.80161 0.0
C149 C 0.1495 0.38898 0.85104 0.0
H150 H 0.14556 0.3864 0.87087 0.0
H151 H 0.15412 0.34908 0.84895 0.0
Tb152 Tb 0.00613 0.05967 0.56582 0.0
Tb153 Tb 0.07019 0.09107 0.54699 0.0
C154 C 0.94882 0.03013 0.57338 0.0
C155 C 0.93111 0.01586 0.59521 0.0
C156 C 0.90553 0.98971 0.5921 0.0
C157 C 0.88832 0.97592 0.6126 0.0
C158 C 0.89631 0.98818 0.63655 0.0
C159 C 0.92205 0.01435 0.63962 0.0
C160 C 0.93942 0.028 0.61917 0.0
C161 C 0.04161 0.10464 0.59277 0.0
C162 C 0.06145 0.04771 0.59243 0.0
C163 C 0.12708 0.12095 0.53845 0.0
C164 C 0.14359 0.1372 0.51671 0.0
C165 C 0.13759 0.16045 0.50694 0.0
C166 C 0.15262 0.17468 0.48571 0.0
C167 C 0.17382 0.16587 0.47371 0.0
C168 C 0.17995 0.14275 0.48373 0.0
C169 C 0.16515 0.12872 0.50504 0.0
C170 C 0.03434 0.04615 0.5201 0.0
C171 C 0.01481 0.10261 0.52048 0.0
O172 O 0.96852 0.01973 0.56527 0.0
O173 O 0.96104 0.05777 0.5739 0.0
O174 O 0.03989 0.10259 0.56926 0.0
O175 O 0.02161 0.08138 0.60188 0.0
O176 O 0.03044 0.03724 0.58726 0.0
O177 O 0.08066 0.07081 0.58122 0.0
O178 O 0.10853 0.13041 0.54978 0.0
O179 O 0.11436 0.09352 0.53565 0.0
O180 O 0.03645 0.04823 0.5436 0.0
O181 O 0.05398 0.0695 0.51082 0.0
O182 O 0.04559 0.11407 0.52652 0.0
O183 O 0.99619 0.07863 0.53075 0.0
H184 H 0.89882 0.98 0.57377 0.0
H185 H 0.86848 0.95585 0.60967 0.0
H186 H 0.92901 0.0241 0.65792 0.0
H187 H 0.95931 0.04804 0.62209 0.0
H188 H 0.12111 0.16756 0.51553 0.0
H189 H 0.14768 0.19264 0.47875 0.0
H190 H 0.19567 0.13502 0.4748 0.0
H191 H 0.17017 0.11085 0.51218 0.0
Tb192 Tb 0.55562 0.0827 0.08272 0.0
Tb193 Tb 0.48733 0.04498 0.0723 0.0
C194 C 0.60723 0.12475 0.08905 0.0
C195 C 0.62165 0.14413 0.11009 0.0
C196 C 0.64881 0.1687 0.10687 0.0
C197 C 0.66372 0.18629 0.12729 0.0
C198 C 0.65174 0.17947 0.15129 0.0
C199 C 0.62386 0.15515 0.15417 0.0
C200 C 0.6089 0.13771 0.13373 0.0
C201 C 0.53433 0.03784 0.11203 0.0
C202 C 0.50035 0.09386 0.10913 0.0
C203 C 0.4354 1.00356 0.06487 0.0
C204 C 0.42126 0.98624 0.04256 0.0
C205 C 0.39317 0.96207 0.04384 0.0
C206 C 0.37904 0.94641 0.02219 0.0
C207 C 0.39278 0.95481 0.99893 0.0
C208 C 0.42127 0.97891 0.99795 0.0
C209 C 0.43542 0.9944 0.01957 0.0
C210 C 0.50884 0.08983 0.04291 0.0
C211 C 0.54248 0.03314 0.04656 0.0
O212 O 0.58149 0.12622 0.07808 0.0
O213 O 0.60431 0.09866 0.09314 0.0
O214 O 0.51935 0.05269 0.10425 0.0
O215 O 0.56339 0.0495 0.10543 0.0
O216 O 0.52963 0.1045 0.10114 0.0
O217 O 0.48083 0.06766 0.1037 0.0
O218 O 0.46111 1.00128 0.07508 0.0
O219 O 0.43844 0.02989 0.06273 0.0
O220 O 0.52364 0.07487 0.05073 0.0
O221 O 0.47982 0.07824 0.04952 0.0
O222 O 0.51326 0.02278 0.05462 0.0
O223 O 0.56221 0.05936 0.05172 0.0
H224 H 0.65877 0.17403 0.08866 0.0
H225 H 0.68481 0.20508 0.12431 0.0
H226 H 0.61417 0.149 0.17238 0.0
H227 H 0.58782 0.11881 0.1365 0.0
H228 H 0.38204 0.95547 0.0615 0.0
H229 H 0.35738 0.92774 0.02368 0.0
H230 H 0.43227 0.98628 0.98036 0.0
H231 H 0.45714 0.01309 0.01828 0.0
Tb232 Tb 0.5366 0.60803 0.58415 0.0
Tb233 Tb 0.5192 0.55191 0.55996 0.0
C234 C 0.53583 0.65334 0.60006 0.0
C235 C 0.51097 0.66146 0.60949 0.0
C236 C 0.47952 0.64991 0.59918 0.0
C237 C 0.45615 0.65775 0.60842 0.0
C238 C 0.46375 0.67705 0.62828 0.0
C239 C 0.49516 0.68829 0.63876 0.0
C240 C 0.51859 0.6806 0.62938 0.0
C241 C 0.56078 0.57434 0.60736 0.0
C242 C 0.47048 0.55717 0.59526 0.0
C243 C 0.51962 0.50622 0.54464 0.0
C244 C 0.54094 0.49817 0.52987 0.0
C245 C 0.57413 0.51277 0.53235 0.0
C246 C 0.59407 0.50438 0.51867 0.0
C247 C 0.58118 0.48114 0.50237 0.0
C248 C 0.54789 0.46696 0.49958 0.0
C249 C 0.52795 0.47544 0.51321 0.0
C250 C 0.49456 0.58532 0.53676 0.0
C251 C 0.5849 0.60335 0.54771 0.0
O252 O 0.53267 0.64671 0.57631 0.0
O253 O 0.544 0.63583 0.61419 0.0
O254 O 0.53331 0.56739 0.59698 0.0
O255 O 0.57543 0.60157 0.60604 0.0
O256 O 0.48664 0.58487 0.5938 0.0
O257 O 0.48101 0.53925 0.58554 0.0
O258 O 0.53096 0.51676 0.56686 0.0
O259 O 0.50444 0.52012 0.5326 0.0
O260 O 0.52212 0.59249 0.54706 0.0
O261 O 0.48029 0.55805 0.53812 0.0
O262 O 0.56767 0.57575 0.54738 0.0
O263 O 0.57597 0.62102 0.55967 0.0
H264 H 0.47298 0.63481 0.58399 0.0
H265 H 0.43206 0.64851 0.6002 0.0
H266 H 0.50171 0.70337 0.65396 0.0
H267 H 0.54268 0.68963 0.63763 0.0
H268 H 0.58471 0.53034 0.54518 0.0
H269 H 0.61961 0.51551 0.5215 0.0
H270 H 0.53725 0.44917 0.48697 0.0
H271 H 0.50239 0.46405 0.51094 0.0
Tb272 Tb 0.01756 0.59904 0.03959 0.0
Tb273 Tb 0.01658 0.55165 0.0742 0.0
C274 C 1.00235 0.63285 0.01217 0.0
C275 C 0.97978 0.64725 0.01162 0.0
C276 C 0.95037 0.63546 0.99793 0.0
C277 C 0.93018 0.65009 0.99514 0.0
C278 C 0.93897 0.67695 1.00584 0.0
C279 C 0.96801 0.68845 0.02011 0.0
C280 C 0.98824 0.67378 0.02293 0.0
C281 C 0.07244 0.60669 0.0636 0.0
C282 C 0.99269 0.59565 0.09505 0.0
C283 C 0.02935 0.51597 0.10087 0.0
C284 C 0.05392 0.50405 0.10251 0.0
C285 C 0.08437 0.51916 0.09382 0.0
C286 C 0.10809 0.50828 0.09721 0.0
C287 C 0.10166 0.48206 0.10918 0.0
C288 C 0.07083 0.4667 0.11718 0.0
C289 C 0.04721 0.47766 0.1139 0.0
C290 C 0.96174 0.54451 0.05022 0.0
C291 C 0.0438 0.55648 0.01965 0.0
O292 O 0.9899 0.6054 1.00929 0.0
O293 O 0.02611 0.64094 0.02908 0.0
O294 O 0.04523 0.5954 0.07209 0.0
O295 O 0.06979 0.61622 0.04123 0.0
O296 O 0.99244 0.60501 0.07167 0.0
O297 O 0.00394 0.57601 0.10109 0.0
O298 O 0.03903 0.54273 0.10658 0.0
O299 O 0.00967 0.50923 0.08105 0.0
O300 O 0.98893 0.55524 0.04167 0.0
O301 O 0.96444 0.53531 0.07266 0.0
O302 O 0.04503 0.54818 0.04329 0.0
O303 O 0.03054 0.57458 0.01309 0.0
H304 H 0.9433 0.61523 0.9887 0.0
H305 H 0.90828 0.6408 0.98367 0.0
H306 H 0.97534 0.709 0.02877 0.0
H307 H 0.01081 0.68355 0.03346 0.0
H308 H 0.08993 0.53955 0.08484 0.0
H309 H 0.1315 0.52043 0.09059 0.0
H310 H 0.06523 0.44661 0.1267 0.0
H311 H 0.02383 0.46577 0.12074 0.0
C312 C 0.28837 0.24087 0.27023 0.0
C313 C 0.30916 0.26939 0.26859 0.0
C314 C 0.27131 0.23061 0.2916 0.0
C315 C 0.24302 0.25114 0.34803 0.0
H316 H 0.24814 0.18245 0.37597 0.0
C317 C 0.17193 0.18963 0.43217 0.0
C318 C 0.18902 0.18021 0.45055 0.0
C319 C 0.18576 0.20175 0.40986 0.0
C320 C 0.24659 0.20169 0.36844 0.0
H321 H 0.32734 0.3097 0.28783 0.0
H322 H 0.29713 0.29179 0.32504 0.0
H323 H 0.27249 0.20112 0.33659 0.0
H324 H 0.23462 0.17735 0.46018 0.0
H325 H 0.25832 0.19785 0.42108 0.0
H326 H 0.21721 0.25168 0.38011 0.0
C327 C 0.29407 0.27744 0.30971 0.0
C328 C 0.26023 0.21222 0.34577 0.0
C329 C 0.31132 0.28769 0.28837 0.0
C330 C 0.22047 0.18375 0.44625 0.0
C331 C 0.23413 0.19558 0.42388 0.0
C332 C 0.22903 0.2404 0.37064 0.0
C333 C 0.27444 0.24866 0.31176 0.0
C334 C 0.25875 0.23713 0.33538 0.0
C335 C 0.21682 0.20445 0.40536 0.0
C336 C 0.23094 0.2157 0.38115 0.0
H337 H 0.2856 0.22634 0.25511 0.0
H338 H 0.25591 0.20843 0.29248 0.0
H339 H 0.2414 0.27031 0.34039 0.0
H340 H 0.14754 0.18692 0.43465 0.0
H341 H 0.17179 0.2082 0.39581 0.0
C342 C 0.24496 0.83591 0.80659 0.0
C343 C 0.26488 0.83646 0.78734 0.0
C344 C 0.25794 0.84885 0.8296 0.0
C345 C 0.3309 0.86951 0.87001 0.0
H346 H 0.29718 0.91733 0.90317 0.0
C347 C 0.39555 0.93546 0.95687 0.0
C348 C 0.37716 0.93911 0.9756 0.0
C349 C 0.38109 0.92221 0.93434 0.0
C350 C 0.30658 0.90366 0.89438 0.0
H351 H 0.31399 0.85226 0.77684 0.0
H352 H 0.33657 0.8743 0.81713 0.0
H353 H 0.27316 0.89623 0.86277 0.0
H354 H 0.32896 0.93123 0.98535 0.0
H355 H 0.30364 0.90714 0.94644 0.0
H356 H 0.36397 0.87643 0.90162 0.0
C357 C 0.31095 0.86355 0.81448 0.0
C358 C 0.29288 0.8917 0.87118 0.0
C359 C 0.29799 0.85087 0.79144 0.0
C360 C 0.34385 0.92855 0.97146 0.0
C361 C 0.32935 0.9151 0.94897 0.0
C362 C 0.3444 0.88122 0.89328 0.0
C363 C 0.29109 0.86239 0.83388 0.0
C364 C 0.30509 0.87471 0.85869 0.0
C365 C 0.34782 0.912 0.93002 0.0
C366 C 0.3326 0.89865 0.90568 0.0
H367 H 0.21939 0.82474 0.80417 0.0
H368 H 0.2421 0.84749 0.8443 0.0
H369 H 0.34045 0.85609 0.86098 0.0
H370 H 0.42122 0.94296 0.95955 0.0
H371 H 0.39613 0.9205 0.9201 0.0
C372 C 0.57071 0.41796 0.78001 0.0
C373 C 0.59221 0.43112 0.80011 0.0
C374 C 0.57197 0.43186 0.75711 0.0
C375 C 0.61905 0.49328 0.71852 0.0
H376 H 0.53514 0.48826 0.69432 0.0
C377 C 0.59694 0.56771 0.64202 0.0
C378 C 0.56954 0.55633 0.62591 0.0
C379 C 0.60291 0.55141 0.66159 0.0
C380 C 0.55875 0.48957 0.70044 0.0
H381 H 0.63314 0.46839 0.81166 0.0
H382 H 0.63528 0.49309 0.77142 0.0
H383 H 0.5406 0.4616 0.73107 0.0
H384 H 0.52776 0.51859 0.61687 0.0
H385 H 0.53863 0.48994 0.65022 0.0
H386 H 0.6371 0.52161 0.68777 0.0
C387 C 0.61758 0.47187 0.77336 0.0
C388 C 0.56189 0.47425 0.72163 0.0
C389 C 0.61642 0.45777 0.79637 0.0
C390 C 0.54908 0.52798 0.62896 0.0
C391 C 0.55515 0.51165 0.64831 0.0
C392 C 0.61589 0.50862 0.69712 0.0
C393 C 0.59458 0.45943 0.75379 0.0
C394 C 0.59201 0.47577 0.73091 0.0
C395 C 0.58164 0.52335 0.66534 0.0
C396 C 0.58562 0.50686 0.68777 0.0
H397 H 0.55201 0.39728 0.78237 0.0
H398 H 0.55441 0.42139 0.74225 0.0
H399 H 0.64259 0.49486 0.72517 0.0
H400 H 0.61314 0.58954 0.64011 0.0
H401 H 0.62343 0.5612 0.67439 0.0
C402 C 0.9166 0.73225 0.24544 0.0
C403 C 0.9048 0.7194 0.26828 0.0
C404 C 0.92864 0.71893 0.22868 0.0
C405 C 0.92526 0.64768 0.21208 0.0
H406 H 0.98988 0.69127 0.16682 0.0
C407 C 0.97727 0.59647 0.13946 0.0
C408 C 0.98162 0.60855 0.11533 0.0
C409 C 0.96861 0.60938 0.15893 0.0
C410 C 0.97161 0.67876 0.17916 0.0
H411 H 0.89809 0.68288 0.29189 0.0
H412 H 0.92009 0.65981 0.26291 0.0
H413 H 0.9763 0.71508 0.20032 0.0
H414 H 0.97989 0.64378 0.09291 0.0
H415 H 0.96505 0.66636 0.12688 0.0
H416 H 0.92104 0.61129 0.19093 0.0
C417 C 0.91926 0.68003 0.25767 0.0
C418 C 0.96373 0.69245 0.19846 0.0
C419 C 0.90705 0.69343 0.27451 0.0
C420 C 0.97672 0.63378 0.11118 0.0
C421 C 0.96844 0.64688 0.13075 0.0
C422 C 0.93341 0.63395 0.19291 0.0
C423 C 0.92962 0.69232 0.23422 0.0
C424 C 0.94004 0.67723 0.21503 0.0
C425 C 0.96444 0.63496 0.15495 0.0
C426 C 0.95639 0.64935 0.17595 0.0
H427 H 0.91556 0.75238 0.24008 0.0
H428 H 0.93595 0.72913 0.21086 0.0
H429 H 0.90661 0.63515 0.2241 0.0
H430 H 0.98081 0.57707 0.14342 0.0
H431 H 0.96593 0.59967 0.17732 0.0
C432 C 0.38385 0.25214 0.18281 0.0
C433 C 0.38133 0.25417 0.20868 0.0
C434 C 0.39844 0.23516 0.17373 0.0
C435 C 0.41964 0.17442 0.19058 0.0
H436 H 0.47534 0.20106 0.13543 0.0
C437 C 0.50922 0.13986 0.12958 0.0
C438 C 0.48927 0.11164 0.12425 0.0
C439 C 0.49781 0.15737 0.14196 0.0
C440 C 0.46013 0.19342 0.15102 0.0
H441 H 0.39264 0.24027 0.24531 0.0
H442 H 0.41796 0.21048 0.22942 0.0
H443 H 0.45232 0.2318 0.15284 0.0
H444 H 0.44198 0.07945 0.12847 0.0
H445 H 0.42209 0.11001 0.14991 0.0
H446 H 0.42755 0.13605 0.18878 0.0
C447 C 0.40829 0.22178 0.21616 0.0
C448 C 0.44663 0.21091 0.16078 0.0
C449 C 0.39376 0.23882 0.22526 0.0
C450 C 0.458 0.10107 0.13229 0.0
C451 C 0.44663 0.11856 0.1447 0.0
C452 C 0.43306 0.15688 0.18075 0.0
C453 C 0.41082 0.21977 0.1903 0.0
C454 C 0.42604 0.20153 0.18054 0.0
C455 C 0.46624 0.14703 0.14933 0.0
C456 C 0.45329 0.16612 0.16074 0.0
H457 H 0.37408 0.26333 0.16952 0.0
H458 H 0.39954 0.23369 0.15367 0.0
H459 H 0.40368 0.1665 0.20568 0.0
H460 H 0.5335 0.14866 0.12377 0.0
H461 H 0.51364 0.1791 0.14558 0.0
C462 C 0.11341 0.8602 0.69874 0.0
C463 C 0.14291 0.85816 0.69606 0.0
C464 C 0.10891 0.88486 0.69181 0.0
C465 C 0.14035 0.94622 0.64996 0.0
H466 H 0.0846 0.97215 0.68478 0.0
C467 C 0.10791 0.03816 0.61161 0.0
C468 C 0.07503 0.03206 0.61001 0.0
C469 C 0.12004 0.02099 0.62589 0.0
C470 C 0.10024 0.96516 0.67487 0.0
H471 H 0.19109 0.88079 0.68453 0.0
H472 H 0.18343 0.92406 0.67295 0.0
H473 H 0.09906 0.93437 0.70297 0.0
H474 H 0.02936 1.00414 0.62329 0.0
H475 H 0.05045 0.97431 0.64804 0.0
H476 H 0.14093 0.97652 0.62159 0.0
C477 C 0.16364 0.90642 0.68012 0.0
C478 C 0.10847 0.94348 0.68524 0.0
C479 C 0.16812 0.88171 0.68702 0.0
C480 C 0.05479 0.00935 0.62399 0.0
C481 C 0.06692 0.99234 0.63836 0.0
C482 C 0.13221 0.96795 0.63963 0.0
C483 C 0.13383 0.90813 0.68208 0.0
C484 C 0.12803 0.93331 0.67263 0.0
C485 C 0.09956 0.99756 0.63902 0.0
C486 C 0.1115 0.97722 0.65169 0.0
H487 H 0.09363 0.84258 0.70595 0.0
H488 H 0.08554 0.8853 0.69333 0.0
H489 H 0.15513 0.93869 0.63956 0.0
H490 H 0.12417 0.05554 0.60111 0.0
H491 H 0.14536 0.02571 0.62627 0.0
C492 C 0.7013 0.42015 0.9458 0.0
C493 C 0.69964 0.41955 0.91952 0.0
C494 C 0.72918 0.43714 0.95902 0.0
C495 C 0.80731 0.49672 0.95417 0.0
H496 H 0.83 0.4597 0.01188 0.0
C497 C 0.93138 0.53914 1.00871 0.0
C498 C 0.93151 0.53558 0.03485 0.0
C499 C 0.90282 0.52795 0.99403 0.0
C500 C 0.82385 0.47054 0.99604 0.0
H501 H 0.72521 0.43724 0.88635 0.0
H502 H 0.77466 0.46689 0.90959 0.0
H503 H 0.78108 0.43488 0.98709 0.0
H504 H 0.90189 0.51888 0.06626 0.0
H505 H 0.85208 0.49952 0.04076 0.0
H506 H 0.8507 0.53232 0.96316 0.0
C507 C 0.75419 0.45431 0.91994 0.0
C508 C 0.79574 0.45629 0.98179 0.0
C509 C 0.72599 0.43735 0.90663 0.0
C510 C 0.9025 0.52171 0.04613 0.0
C511 C 0.87402 0.51051 0.03151 0.0
C512 C 0.83565 0.51103 0.96848 0.0
C513 C 0.7563 0.45381 0.94633 0.0
C514 C 0.78688 0.46925 0.96083 0.0
C515 C 0.87391 0.51291 1.00525 0.0
C516 C 0.84405 0.49815 0.98973 0.0
H517 H 0.68108 0.40702 0.95617 0.0
H518 H 0.72963 0.43683 0.97929 0.0
H519 H 0.80112 0.50734 0.9382 0.0
H520 H 0.95346 0.54963 0.9995 0.0
H521 H 0.90358 0.53002 0.97386 0.0
C522 C 0.807 0.73575 0.41887 0.0
C523 C 0.82114 0.72134 0.4049 0.0
C524 C 0.7809 0.72101 0.43305 0.0
C525 C 0.73836 0.65205 0.46343 0.0
H526 H 0.67304 0.68228 0.46799 0.0
C527 C 0.62299 0.59719 0.51833 0.0
C528 C 0.61338 0.61503 0.5324 0.0
C529 C 0.64826 0.6085 0.50239 0.0
C530 C 0.6912 0.67367 0.46712 0.0
H531 H 0.81826 0.67989 0.39454 0.0
H532 H 0.77206 0.65388 0.41921 0.0
H533 H 0.71589 0.70427 0.43989 0.0
H534 H 0.62362 0.65885 0.54107 0.0
H535 H 0.66747 0.67842 0.51345 0.0
H536 H 0.71332 0.62135 0.49075 0.0
C537 C 0.78167 0.67675 0.41941 0.0
C538 C 0.71584 0.6863 0.45097 0.0
C539 C 0.80795 0.69162 0.4051 0.0
C540 C 0.63018 0.64441 0.53052 0.0
C541 C 0.65525 0.65567 0.51451 0.0
C542 C 0.71352 0.63929 0.47956 0.0
C543 C 0.76783 0.69131 0.4336 0.0
C544 C 0.74012 0.67604 0.44922 0.0
C545 C 0.66435 0.63792 0.49996 0.0
C546 C 0.68995 0.65028 0.48192 0.0
H547 H 0.81608 0.75862 0.41882 0.0
H548 H 0.77128 0.73303 0.44393 0.0
H549 H 0.75674 0.64369 0.46273 0.0
H550 H 0.61059 0.57448 0.51919 0.0
H551 H 0.65454 0.59421 0.49138 0.0
C552 C 0.3217 0.40228 0.15388 0.0
C553 C 0.32036 0.38909 0.17737 0.0
C554 C 0.29771 0.41136 0.14526 0.0
C555 C 0.21462 0.40238 0.15527 0.0
H556 H 0.23914 0.47452 0.1209 0.0
C557 C 0.12118 0.4425 0.11106 0.0
C558 C 0.12726 0.47123 0.11435 0.0
C559 C 0.14477 0.43205 0.11736 0.0
C560 C 0.23188 0.45441 0.13059 0.0
H561 H 0.29275 0.37499 0.21022 0.0
H562 H 0.25097 0.39114 0.19533 0.0
H563 H 0.27984 0.45708 0.13532 0.0
H564 H 0.16289 0.51154 0.1268 0.0
H565 H 0.20396 0.49334 0.13797 0.0
H566 H 0.16676 0.40016 0.15126 0.0
C567 C 0.27032 0.39406 0.18336 0.0
C568 C 0.2552 0.44423 0.1386 0.0
C569 C 0.29427 0.38485 0.19194 0.0
C570 C 0.15762 0.48938 0.12369 0.0
C571 C 0.18116 0.47892 0.13009 0.0
C572 C 0.1913 0.4126 0.14732 0.0
C573 C 0.27184 0.40758 0.15997 0.0
C574 C 0.24688 0.41812 0.1511 0.0
C575 C 0.17496 0.45008 0.1272 0.0
C576 C 0.19966 0.4388 0.13497 0.0
H577 H 0.34122 0.40539 0.14203 0.0
H578 H 0.29934 0.42117 0.12695 0.0
H579 H 0.20732 0.38205 0.16458 0.0
H580 H 0.09814 0.42807 0.10359 0.0
H581 H 0.13937 0.40983 0.11447 0.0
C582 C 0.58519 0.3095 0.92115 0.0
C583 C 0.61721 0.32171 0.91487 0.0
C584 C 0.57346 0.28344 0.93347 0.0
C585 C 0.58964 0.21936 0.9493 0.0
H586 H 0.53595 0.21387 1.00431 0.0
C587 C 0.55307 0.12555 0.01974 0.0
C588 C 0.52164 0.11548 0.02731 0.0
C589 C 0.56504 0.15021 1.00529 0.0
C590 C 0.55059 0.21488 0.98883 0.0
H591 H 0.66163 0.31546 0.91577 0.0
H592 H 0.64123 0.2701 0.93761 0.0
H593 H 0.55569 0.25716 0.97979 0.0
H594 H 0.47793 0.1229 0.02551 0.0
H595 H 0.49854 0.16558 1.0001 0.0
H596 H 0.58452 0.17698 0.95849 0.0
C597 C 0.62516 0.28065 0.93286 0.0
C598 C 0.5619 0.23973 0.97473 0.0
C599 C 0.63693 0.30676 0.92054 0.0
C600 C 0.50231 0.13027 0.02001 0.0
C601 C 0.51421 0.15484 1.00559 0.0
C602 C 0.57827 0.19442 0.96343 0.0
C603 C 0.59342 0.26892 0.93988 0.0
C604 C 0.58144 0.24227 0.95472 0.0
C605 C 0.54578 0.16524 0.99816 0.0
C606 C 0.55847 0.19184 0.9833 0.0
H607 H 0.56941 0.32053 0.91735 0.0
H608 H 0.54876 0.27482 0.93826 0.0
H609 H 0.60443 0.22053 0.93389 0.0
H610 H 0.56845 0.11449 0.02509 0.0
H611 H 0.58954 0.15776 1.00009 0.0
C612 C 0.92987 0.80988 0.42413 0.0
C613 C 0.91932 0.8085 0.39871 0.0
C614 C 0.94428 0.83586 0.43643 0.0
C615 C 0.98499 0.91288 0.42811 0.0
H616 H 0.94825 0.91679 0.49069 0.0
C617 C 0.01818 0.01937 0.47971 0.0
C618 C 0.01974 0.01924 0.50601 0.0
C619 C 0.00607 0.99397 0.46625 0.0
C620 C 0.95928 0.91613 0.47349 0.0
H621 H 0.91766 0.83385 0.36601 0.0
H622 H 0.94381 0.87934 0.38737 0.0
H623 H 0.92958 0.8724 0.46791 0.0
H624 H 0.00969 0.99239 0.53888 0.0
H625 H 0.98958 0.94814 0.51563 0.0
H626 H 0.01527 0.95636 0.43389 0.0
C627 C 0.94051 0.86012 0.39779 0.0
C628 C 0.94842 0.89058 0.46035 0.0
C629 C 0.9257 0.83402 0.3855 0.0
C630 C 0.0086 0.99317 0.5186 0.0
C631 C 0.99688 0.96775 0.50517 0.0
C632 C 0.99622 0.93839 0.44144 0.0
C633 C 0.94902 0.86128 0.4236 0.0
C634 C 0.96111 0.88861 0.43751 0.0
C635 C 0.99555 0.9677 0.47875 0.0
C636 C 0.98351 0.94046 0.46436 0.0
H637 H 0.92595 0.79072 0.43482 0.0
H638 H 0.95117 0.83603 0.45618 0.0
H639 H 0.99541 0.91201 0.41065 0.0
H640 H 0.02642 0.03917 0.46949 0.0
H641 H 0.00485 0.99504 0.446 0.0
C642 C 0.2865 0.76026 0.73349 0.0
C643 C 0.27132 0.77481 0.71857 0.0
C644 C 0.30447 0.74731 0.72269 0.0
C645 C 0.34735 0.74994 0.6656 0.0
H646 H 0.35181 0.68075 0.69285 0.0
C647 C 0.41882 0.6934 0.62114 0.0
C648 C 0.4391 0.68571 0.63785 0.0
C649 C 0.39627 0.70248 0.63014 0.0
C650 C 0.35086 0.70014 0.68513 0.0
H651 H 0.26255 0.78649 0.68043 0.0
H652 H 0.29289 0.76299 0.66148 0.0
H653 H 0.31519 0.69921 0.7097 0.0
H654 H 0.45119 0.68078 0.67701 0.0
H655 H 0.41166 0.69659 0.69278 0.0
H656 H 0.38294 0.75071 0.64096 0.0
C657 C 0.2915 0.76215 0.68163 0.0
C658 C 0.32997 0.71078 0.69481 0.0
C659 C 0.27372 0.7753 0.69247 0.0
C660 C 0.43602 0.6868 0.66372 0.0
C661 C 0.41324 0.69559 0.67273 0.0
C662 C 0.368 0.73915 0.65579 0.0
C663 C 0.30749 0.74834 0.69664 0.0
C664 C 0.32822 0.736 0.68535 0.0
C665 C 0.39333 0.70375 0.65603 0.0
C666 C 0.37021 0.71432 0.66563 0.0
H667 H 0.28473 0.75906 0.75362 0.0
H668 H 0.31669 0.73714 0.73488 0.0
H669 H 0.34709 0.76966 0.65815 0.0
H670 H 0.42083 0.69293 0.6011 0.0
H671 H 0.38108 0.70847 0.61686 0.0
C672 C 0.76706 0.8468 0.815 0.0
C673 C 0.75455 0.8594 0.83221 0.0
C674 C 0.77988 0.86105 0.79317 0.0
C675 C 0.81739 0.93182 0.76695 0.0
H676 H 0.79783 0.8927 0.70325 0.0
C677 C 0.8683 0.9888 0.6753 0.0
C678 C 0.87796 0.97369 0.6583 0.0
C679 C 0.85128 0.97521 0.69594 0.0
C680 C 0.80385 0.90387 0.72092 0.0
H681 H 0.74545 0.89668 0.84008 0.0
H682 H 0.76824 0.92183 0.80185 0.0
H683 H 0.77155 0.86831 0.74036 0.0
H684 H 0.87771 0.93261 0.6497 0.0
H685 H 0.84865 0.90896 0.68596 0.0
H686 H 0.85037 0.9671 0.74781 0.0
C687 C 0.76806 0.9009 0.80533 0.0
C688 C 0.78868 0.88991 0.74215 0.0
C689 C 0.75487 0.88648 0.82707 0.0
C690 C 0.87021 0.9447 0.66233 0.0
C691 C 0.85345 0.93115 0.68308 0.0
C692 C 0.8328 0.94572 0.74577 0.0
C693 C 0.78072 0.88831 0.78819 0.0
C694 C 0.79547 0.90367 0.76541 0.0
C695 C 0.84378 0.94623 0.70017 0.0
C696 C 0.82642 0.93184 0.72251 0.0
H697 H 0.76683 0.82583 0.81838 0.0
H698 H 0.78971 0.85092 0.78042 0.0
H699 H 0.82336 0.94283 0.78471 0.0
H700 H 0.87358 0.0111 0.67247 0.0
H701 H 0.84377 0.98739 0.70845 0.0
C702 C 0.76196 0.26766 0.35957 0.0
C703 C 0.79496 0.27514 0.36368 0.0
C704 C 0.74771 0.2621 0.33535 0.0
C705 C 0.76022 0.23771 0.27475 0.0
H706 H 0.69137 0.25966 0.25008 0.0
C707 C 0.70266 0.207 0.17589 0.0
C708 C 0.66921 0.19651 0.17353 0.0
C709 C 0.71905 0.22062 0.19778 0.0
C710 C 0.71043 0.25321 0.25678 0.0
H711 H 0.83908 0.28419 0.34551 0.0
H712 H 0.81419 0.27438 0.30328 0.0
H713 H 0.71811 0.27631 0.29103 0.0
H714 H 0.62691 0.19352 0.19193 0.0
H715 H 0.65544 0.21641 0.23044 0.0
H716 H 0.75217 0.214 0.24105 0.0
C717 C 0.79929 0.27238 0.31881 0.0
C718 C 0.72575 0.26278 0.2802 0.0
C719 C 0.81353 0.27798 0.34298 0.0
C720 C 0.65264 0.20092 0.19326 0.0
C721 C 0.66905 0.2144 0.21524 0.0
C722 C 0.74486 0.22806 0.25147 0.0
C723 C 0.76615 0.26383 0.31478 0.0
C724 C 0.75072 0.25501 0.28947 0.0
C725 C 0.70242 0.2239 0.21795 0.0
C726 C 0.71967 0.23555 0.24221 0.0
H727 H 0.74695 0.26497 0.37514 0.0
H728 H 0.72207 0.25528 0.33287 0.0
H729 H 0.77896 0.23089 0.28157 0.0
H730 H 0.71624 0.2038 0.16121 0.0
H731 H 0.7448 0.22811 0.19906 0.0
C732 C 0.47531 0.68889 0.33744 0.0
C733 C 0.44718 0.69175 0.32819 0.0
C734 C 0.47994 0.68364 0.3628 0.0
C735 C 0.43371 0.65416 0.41872 0.0
H736 H 0.51846 0.67363 0.44978 0.0
C737 C 0.45896 0.58996 0.50103 0.0
C738 C 0.48555 0.60261 0.51764 0.0
C739 C 0.45271 0.60522 0.48082 0.0
C740 C 0.49448 0.66835 0.44179 0.0
H741 H 0.40272 0.69315 0.33885 0.0
H742 H 0.41136 0.68516 0.38341 0.0
H743 H 0.51169 0.69471 0.40998 0.0
H744 H 0.52552 0.6416 0.52688 0.0
H745 H 0.51375 0.66874 0.49253 0.0
H746 H 0.41643 0.62844 0.45091 0.0
C747 C 0.42946 0.68608 0.37084 0.0
C748 C 0.49064 0.68014 0.41858 0.0
C749 C 0.42469 0.69108 0.34531 0.0
C750 C 0.50481 0.63128 0.51442 0.0
C751 C 0.49825 0.64673 0.49446 0.0
C752 C 0.4375 0.64272 0.44215 0.0
C753 C 0.45679 0.68152 0.37984 0.0
C754 C 0.46032 0.67249 0.40628 0.0
C755 C 0.47262 0.63372 0.47691 0.0
C756 C 0.46804 0.64893 0.45369 0.0
H757 H 0.49345 0.68982 0.32489 0.0
H758 H 0.50114 0.67999 0.36872 0.0
H759 H 0.40995 0.64757 0.40993 0.0
H760 H 0.44371 0.56785 0.50298 0.0
H761 H 0.43305 0.59416 0.46766 0.0
C762 C 0.15936 0.44286 0.87677 0.0
C763 C 0.14432 0.43544 0.85275 0.0
C764 C 0.15054 0.45926 0.89289 0.0
C765 C 0.08292 0.48088 0.90362 0.0
H766 H 0.14163 0.52607 0.95611 0.0
C767 C 0.04846 0.54727 0.97435 0.0
C768 C 0.05694 0.54484 0.99981 0.0
C769 C 0.05989 0.53574 0.95555 0.0
C770 C 0.12487 0.51339 0.94166 0.0
H771 H 0.10947 0.44124 0.82634 0.0
H772 H 0.09485 0.47098 0.85409 0.0
H773 H 0.16119 0.50531 0.92383 0.0
H774 H 0.08457 0.52852 0.02529 0.0
H775 H 0.10507 0.5089 0.99241 0.0
H776 H 0.04678 0.48965 0.92139 0.0
C777 C 0.11286 0.46326 0.86082 0.0
C778 C 0.13605 0.50133 0.92308 0.0
C779 C 0.1216 0.44656 0.84467 0.0
C780 C 0.07752 0.53082 1.00592 0.0
C781 C 0.08939 0.51967 0.98705 0.0
C782 C 0.07185 0.49332 0.92201 0.0
C783 C 0.12662 0.46926 0.88548 0.0
C784 C 0.11519 0.48443 0.90395 0.0
C785 C 0.08055 0.52182 0.96161 0.0
C786 C 0.09259 0.50941 0.94149 0.0
H787 H 0.17724 0.43498 0.88358 0.0
H788 H 0.16164 0.46293 0.91163 0.0
H789 H 0.06584 0.46773 0.88962 0.0
H790 H 0.03257 0.5578 0.96887 0.0
H791 H 0.05278 0.53798 0.93619 0.0
C792 C 0.64038 0.88895 0.92062 0.0
C793 C 0.62297 0.85987 0.92412 0.0
C794 C 0.634 0.90894 0.93415 0.0
C795 C 0.59341 0.9161 0.99039 0.0
H796 H 0.59481 0.98473 0.95746 0.0
C797 C 0.53457 0.98568 0.03007 0.0
C798 C 0.55288 0.01486 0.03147 0.0
C799 C 0.54491 0.96795 0.01701 0.0
C800 C 0.59463 0.96577 0.96693 0.0
H801 H 0.58558 0.82914 0.94509 0.0
H802 H 0.57356 0.86378 0.96772 0.0
H803 H 0.60968 0.95141 0.93476 0.0
H804 H 0.59607 0.04841 0.01972 0.0
H805 H 0.61387 0.01728 0.99643 0.0
H806 H 0.57736 0.93011 0.02225 0.0
C807 C 0.5926 0.87126 0.9549 0.0
C808 C 0.60326 0.9467 0.954 0.0
C809 C 0.59917 0.85132 0.94158 0.0
C810 C 0.58146 0.02601 0.01903 0.0
C811 C 0.59161 0.00825 1.00564 0.0
C812 C 0.58444 0.93496 1.00317 0.0
C813 C 0.60992 0.90035 0.9514 0.0
C814 C 0.60243 0.92146 0.96549 0.0
C815 C 0.5736 0.97901 1.00479 0.0
C816 C 0.58466 0.95983 0.99149 0.0
H817 H 0.65867 0.89635 0.90715 0.0
H818 H 0.64808 0.93114 0.93115 0.0
H819 H 0.59323 0.89726 1.00009 0.0
H820 H 0.51244 0.97637 0.03944 0.0
H821 H 0.53038 0.94552 0.0164 0.0
C822 C 0.88705 0.24871 0.41162 0.0
C823 C 0.86527 0.25138 0.42788 0.0
C824 C 0.90422 0.23189 0.41823 0.0
C825 C 0.90194 0.17342 0.46128 0.0
H826 H 0.99071 0.19626 0.44681 0.0
C827 C 0.96959 0.10369 0.49224 0.0
C828 C 1.0003 0.11777 0.50329 0.0
C829 C 0.95422 0.11873 0.47858 0.0
C830 C 0.96595 0.18962 0.45108 0.0
H831 H 0.84465 0.23839 0.46394 0.0
H832 H 0.87546 0.21039 0.47586 0.0
H833 H 0.96198 0.2259 0.43298 0.0
H834 H 0.03962 0.15843 0.50778 0.0
H835 H 0.01246 0.18483 0.48478 0.0
H836 H 0.90613 0.13808 0.48056 0.0
C837 C 0.87884 0.22071 0.45774 0.0
C838 C 0.94938 0.20646 0.44289 0.0
C839 C 0.86154 0.23726 0.45107 0.0
C840 C 0.01595 0.14697 0.49942 0.0
C841 C 1.00039 0.1621 0.48609 0.0
C842 C 0.91853 0.15678 0.46965 0.0
C843 C 0.90004 0.21745 0.44128 0.0
C844 C 0.91731 0.19878 0.44829 0.0
C845 C 0.96901 0.14827 0.47604 0.0
C846 C 0.95087 0.16481 0.46496 0.0
H847 H 0.89072 0.2595 0.39371 0.0
H848 H 0.92026 0.22975 0.40507 0.0
H849 H 0.87708 0.16652 0.46532 0.0
H850 H 0.95711 0.08111 0.49461 0.0
H851 H 0.9304 0.10725 0.47055 0.0
C852 C 0.31919 0.68509 0.19852 0.0
C853 C 0.32433 0.7106 0.2107 0.0
C854 C 0.29184 0.67194 0.18294 0.0
C855 C 0.23277 0.68819 0.14346 0.0
H856 H 0.18244 0.60762 0.14583 0.0
C857 C 0.13152 0.63232 0.0694 0.0
C858 C 0.10243 0.61508 0.07923 0.0
C859 C 0.15944 0.64228 0.08489 0.0
C860 C 0.19633 0.63014 0.14496 0.0
H861 H 0.30388 0.74153 0.21678 0.0
H862 H 0.25652 0.71882 0.18919 0.0
H863 H 0.22885 0.62851 0.17507 0.0
H864 H 0.07981 0.5943 0.11277 0.0
H865 H 0.12859 0.61107 0.13963 0.0
H866 H 0.20025 0.68992 0.11347 0.0
C867 C 0.27387 0.70921 0.19158 0.0
C868 C 0.22293 0.64205 0.16158 0.0
C869 C 0.30102 0.72221 0.20736 0.0
C870 C 0.10194 0.60722 0.10459 0.0
C871 C 0.12988 0.61686 0.11999 0.0
C872 C 0.20644 0.67625 0.12666 0.0
C873 C 0.26919 0.68413 0.17897 0.0
C874 C 0.24123 0.67125 0.16115 0.0
C875 C 0.15882 0.6349 0.11041 0.0
C876 C 0.1878 0.64714 0.12735 0.0
H877 H 0.33681 0.67576 0.20029 0.0
H878 H 0.28897 0.65274 0.1733 0.0
H879 H 0.24664 0.71071 0.14251 0.0
H880 H 0.13258 0.63868 0.0499 0.0
H881 H 0.18149 0.65597 0.07697 0.0
C882 C 0.25165 0.44832 0.73546 0.0
C883 C 0.22095 0.43766 0.72362 0.0
C884 C 0.27805 0.46529 0.72217 0.0
C885 C 0.30261 0.47705 0.65695 0.0
H886 H 0.37729 0.53815 0.68497 0.0
C887 C 0.42266 0.51665 0.6099 0.0
C888 C 0.44083 0.54588 0.60924 0.0
C889 C 0.39547 0.50568 0.62379 0.0
C890 C 0.3565 0.52128 0.67678 0.0
H891 H 0.19356 0.43828 0.68925 0.0
H892 H 0.23927 0.46815 0.66628 0.0
H893 H 0.33043 0.51664 0.70985 0.0
H894 H 0.44437 0.58653 0.62276 0.0
H895 H 0.39675 0.56731 0.64701 0.0
H896 H 0.32847 0.48153 0.62398 0.0
C897 C 0.24323 0.46286 0.68558 0.0
C898 C 0.32975 0.50878 0.69114 0.0
C899 C 0.21697 0.44591 0.69879 0.0
C900 C 0.43095 0.56391 0.62278 0.0
C901 C 0.40376 0.55287 0.63684 0.0
C902 C 0.32932 0.4894 0.64271 0.0
C903 C 0.27426 0.47198 0.69678 0.0
C904 C 0.30247 0.4864 0.68143 0.0
C905 C 0.38567 0.52359 0.63752 0.0
C906 C 0.35674 0.51152 0.65247 0.0
H907 H 0.25552 0.44212 0.75449 0.0
H908 H 0.30158 0.47182 0.7314 0.0
H909 H 0.28229 0.45962 0.64892 0.0
H910 H 0.42954 0.50207 0.59981 0.0
H911 H 0.38241 0.483 0.62413 0.0
C912 C 0.78019 0.78701 0.89348 0.0
C913 C 0.76415 0.80086 0.90597 0.0
C914 C 0.7987 0.77471 0.90691 0.0
C915 C 0.81266 0.7476 0.969 0.0
H916 H 0.89402 0.7583 0.94286 0.0
C917 C 0.88554 0.68046 0.99941 0.0
C918 C 0.91897 0.69363 1.0004 0.0
C919 C 0.8668 0.69539 0.99122 0.0
C920 C 0.87159 0.75539 0.95065 0.0
H921 H 0.75445 0.81211 0.94245 0.0
H922 H 0.78686 0.79045 0.96604 0.0
H923 H 0.8609 0.7805 0.92185 0.0
H924 H 0.95887 0.73321 0.99456 0.0
H925 H 0.92621 0.75936 0.98083 0.0
H926 H 0.82353 0.72245 0.99787 0.0
C927 C 0.78492 0.78906 0.94579 0.0
C928 C 0.85239 0.76782 0.93838 0.0
C929 C 0.76636 0.80143 0.9323 0.0
C930 C 0.9332 0.72244 0.99419 0.0
C931 C 0.91448 0.73736 0.98602 0.0
C932 C 0.83189 0.73507 0.98128 0.0
C933 C 0.80164 0.7759 0.9332 0.0
C934 C 0.82254 0.76378 0.9472 0.0
C935 C 0.8811 0.72383 0.98383 0.0
C936 C 0.86146 0.73863 0.97209 0.0
H937 H 0.7784 0.78564 0.87323 0.0
H938 H 0.81067 0.76416 0.89668 0.0
H939 H 0.78972 0.74401 0.9762 0.0
H940 H 0.87383 0.65839 1.0044 0.0
H941 H 0.84117 0.68429 0.98965 0.0
C942 C 0.39989 0.81876 0.22919 0.0
C943 C 0.41676 0.80088 0.23023 0.0
C944 C 0.41375 0.8463 0.21998 0.0
C945 C 0.48986 0.90308 0.20321 0.0
H946 H 0.43593 0.92236 0.15355 0.0
C947 C 0.54001 0.99654 0.13426 0.0
C948 C 0.52144 0.01224 0.12768 0.0
C949 C 0.52773 0.97202 0.14877 0.0
C950 C 0.45122 0.91761 0.16765 0.0
H951 H 0.4621 0.79852 0.22366 0.0
H952 H 0.48644 0.84676 0.20777 0.0
H953 H 0.41427 0.87818 0.17663 0.0
H954 H 0.47567 0.01494 0.1313 0.0
H955 H 0.45433 0.97244 0.157 0.0
H956 H 0.52688 0.94251 0.19411 0.0
C957 C 0.46247 0.83945 0.21416 0.0
C958 C 0.43877 0.89222 0.1809 0.0
C959 C 0.44856 0.81181 0.22334 0.0
C960 C 0.49046 1.00314 0.13603 0.0
C961 C 0.4782 0.9787 0.15064 0.0
C962 C 0.5023 0.9286 0.19003 0.0
C963 C 0.44487 0.8567 0.21165 0.0
C964 C 0.45796 0.88454 0.19872 0.0
C965 C 0.49662 0.96272 0.15711 0.0
C966 C 0.48319 0.9361 0.17192 0.0
H967 H 0.37552 0.8111 0.23474 0.0
H968 H 0.39979 0.85926 0.21879 0.0
H969 H 0.50517 0.8979 0.21698 0.0
H970 H 0.56395 1.00303 0.12796 0.0
H971 H 0.54244 0.96006 0.15301 0.0
C972 C 0.13253 0.33927 0.69229 0.0
C973 C 0.13839 0.33937 0.71847 0.0
C974 C 0.12157 0.31401 0.67868 0.0
C975 C 0.08102 0.23648 0.6843 0.0
H976 H 0.12354 0.2349 0.62412 0.0
C977 C 0.05538 0.1314 0.63312 0.0
C978 C 0.05519 0.13161 0.60686 0.0
C979 C 0.06604 0.15672 0.64661 0.0
C980 C 0.11099 0.23494 0.64064 0.0
H981 H 0.13648 0.3123 0.75072 0.0
H982 H 0.11649 0.2683 0.72706 0.0
H983 H 0.13938 0.27875 0.64758 0.0
H984 H 0.06645 0.15859 0.5741 0.0
H985 H 0.08424 0.20279 0.59744 0.0
H986 H 0.05214 0.19295 0.67724 0.0
C987 C 0.12049 0.28791 0.7171 0.0
C988 C 0.12019 0.26017 0.65416 0.0
C989 C 0.13181 0.31322 0.7307 0.0
C990 C 0.06645 0.15774 0.59435 0.0
C991 C 0.0768 0.18313 0.60782 0.0
C992 C 0.07155 0.21133 0.67065 0.0
C993 C 0.11573 0.28802 0.69087 0.0
C994 C 0.10542 0.26125 0.67622 0.0
C995 C 0.07648 0.18303 0.63418 0.0
C996 C 0.0865 0.21007 0.64865 0.0
H997 H 0.13664 0.35881 0.68218 0.0
H998 H 0.11763 0.31482 0.65856 0.0
H999 H 0.06886 0.23663 0.70103 0.0
H1000 H 0.04703 0.11157 0.6433 0.0
H1001 H 0.06609 0.15557 0.66684 0.0
C1002 C 0.77247 0.38336 0.48 0.0
C1003 C 0.76834 0.36256 0.46204 0.0
C1004 C 0.75618 0.40139 0.47698 0.0
C1005 C 0.68183 0.40111 0.44656 0.0
H1006 H 0.71048 0.47461 0.47805 0.0
C1007 C 0.59582 0.44156 0.48925 0.0
C1008 C 0.60248 0.47064 0.48968 0.0
C1009 C 0.61714 0.4316 0.47944 0.0
C1010 C 0.70217 0.45436 0.46871 0.0
H1011 H 0.74566 0.34584 0.42586 0.0
H1012 H 0.71803 0.37796 0.42017 0.0
H1013 H 0.74874 0.45342 0.4714 0.0
H1014 H 0.63604 0.51202 0.47906 0.0
H1015 H 0.67333 0.49456 0.46169 0.0
H1016 H 0.63526 0.40198 0.44396 0.0
C1017 C 0.73326 0.37983 0.43694 0.0
C1018 C 0.72407 0.44205 0.46518 0.0
C1019 C 0.74941 0.36163 0.44006 0.0
C1020 C 0.63047 0.4895 0.47927 0.0
C1021 C 0.65181 0.47951 0.46934 0.0
C1022 C 0.66001 0.41352 0.4499 0.0
C1023 C 0.73556 0.39924 0.45578 0.0
C1024 C 0.71394 0.41479 0.45495 0.0
C1025 C 0.64563 0.45046 0.46969 0.0
C1026 C 0.66967 0.43978 0.46191 0.0
H1027 H 0.78738 0.38499 0.49692 0.0
H1028 H 0.75843 0.41588 0.492 0.0
H1029 H 0.67303 0.38005 0.43874 0.0
H1030 H 0.57475 0.42652 0.49749 0.0
H1031 H 0.61187 0.40916 0.48053 0.0
loop_
_geom_bond_atom_site_label_1
_geom_bond_atom_site_label_2
_geom_bond_distance
_geom_bond_site_symmetry_2
_ccdc_geom_bond_type
H0 C1 0.949 . S
C1 H0 0.949 . S
C1 C2 1.395 . S
C1 C3 1.391 . S
C2 C1 1.395 . S
C2 C5 1.390 . S
C3 C1 1.391 . S
C3 C7 1.387 . S
C3 C8 1.491 . S
H4 C5 0.950 . S
C5 C2 1.390 . S
C5 H4 0.950 . S
C5 C6 1.378 . S
C6 C5 1.378 . S
C6 C7 1.409 . S
C7 C3 1.387 . S
C7 C6 1.409 . S
C7 H9 0.951 . S
C8 C3 1.491 . S
C8 C10 1.382 . S
C8 C12 1.404 . S
H9 C7 0.951 . S
C10 C8 1.382 . S
C10 C11 1.390 . S
C10 H15 0.949 . S
C11 C10 1.390 . S
C11 C16 1.399 . S
C12 C8 1.404 . S
C12 H13 0.950 . S
C12 C14 1.375 . S
H13 C12 0.950 . S
C14 C12 1.375 . S
C14 C16 1.382 . S
C14 H18 0.950 . S
H15 C10 0.949 . S
C16 C11 1.399 . S
C16 C14 1.382 . S
C16 H17 0.952 . S
H17 C16 0.952 . S
H18 C14 0.950 . S
H19 C20 0.949 . S
C20 H19 0.949 . S
C20 C21 1.395 . S
C20 C22 1.391 . S
C21 C20 1.395 . S
C21 C24 1.390 . S
C22 C20 1.391 . S
C22 C26 1.387 . S
C22 C27 1.491 . S
H23 C24 0.950 . S
C24 C21 1.390 . S
C24 H23 0.950 . S
C24 C25 1.378 . S
C25 C24 1.378 . S
C25 C26 1.409 . S
C26 C22 1.387 . S
C26 C25 1.409 . S
C26 H28 0.951 . S
C27 C22 1.491 . S
C27 C29 1.382 . S
C27 C31 1.404 . S
H28 C26 0.951 . S
C29 C27 1.382 . S
C29 C30 1.390 . S
C29 H34 0.949 . S
C30 C29 1.390 . S
C30 C35 1.399 . S
C31 C27 1.404 . S
C31 H32 0.950 . S
C31 C33 1.375 . S
H32 C31 0.950 . S
C33 C31 1.375 . S
C33 C35 1.382 . S
C33 H37 0.950 . S
H34 C29 0.949 . S
C35 C30 1.399 . S
C35 C33 1.382 . S
C35 H36 0.952 . S
H36 C35 0.952 . S
H37 C33 0.950 . S
H38 C39 0.949 . S
C39 H38 0.949 . S
C39 C40 1.395 . S
C39 C41 1.391 . S
C40 C39 1.395 . S
C40 C43 1.390 . S
C41 C39 1.391 . S
C41 C45 1.387 . S
C41 C46 1.491 . S
H42 C43 0.950 . S
C43 C40 1.390 . S
C43 H42 0.950 . S
C43 C44 1.378 . S
C44 C43 1.378 . S
C44 C45 1.409 . S
C45 C41 1.387 . S
C45 C44 1.409 . S
C45 H47 0.951 . S
C46 C41 1.491 . S
C46 C48 1.382 . S
C46 C50 1.404 . S
H47 C45 0.951 . S
C48 C46 1.382 . S
C48 C49 1.390 . S
C48 H53 0.949 . S
C49 C48 1.390 . S
C49 C54 1.399 . S
C50 C46 1.404 . S
C50 H51 0.950 . S
C50 C52 1.375 . S
H51 C50 0.950 . S
C52 C50 1.375 . S
C52 C54 1.382 . S
C52 H56 0.950 . S
H53 C48 0.949 . S
C54 C49 1.399 . S
C54 C52 1.382 . S
C54 H55 0.952 . S
H55 C54 0.952 . S
H56 C52 0.950 . S
H57 C58 0.949 . S
C58 H57 0.949 . S
C58 C59 1.395 . S
C58 C60 1.391 . S
C59 C58 1.395 . S
C59 C62 1.390 . S
C60 C58 1.391 . S
C60 C64 1.387 . S
C60 C65 1.491 . S
H61 C62 0.950 . S
C62 C59 1.390 . S
C62 H61 0.950 . S
C62 C63 1.378 . S
C63 C62 1.378 . S
C63 C64 1.409 . S
C64 C60 1.387 . S
C64 C63 1.409 . S
C64 H66 0.951 . S
C65 C60 1.491 . S
C65 C67 1.382 . S
C65 C69 1.404 . S
H66 C64 0.951 . S
C67 C65 1.382 . S
C67 C68 1.390 . S
C67 H72 0.949 . S
C68 C67 1.390 . S
C68 C73 1.399 . S
C69 C65 1.404 . S
C69 H70 0.950 . S
C69 C71 1.375 . S
H70 C69 0.950 . S
C71 C69 1.375 . S
C71 C73 1.382 . S
C71 H75 0.950 . S
H72 C67 0.949 . S
C73 C68 1.399 . S
C73 C71 1.382 . S
C73 H74 0.952 . S
H74 C73 0.952 . S
H75 C71 0.950 . S
H76 C77 0.949 . S
C77 H76 0.949 . S
C77 C78 1.395 . S
C77 C79 1.391 . S
C78 C77 1.395 . S
C78 C81 1.390 . S
C79 C77 1.391 . S
C79 C83 1.387 . S
C79 C84 1.491 . S
H80 C81 0.950 . S
C81 C78 1.390 . S
C81 H80 0.950 . S
C81 C82 1.378 . S
C82 C81 1.378 . S
C82 C83 1.409 . S
C83 C79 1.387 . S
C83 C82 1.409 . S
C83 H85 0.951 . S
C84 C79 1.491 . S
C84 C86 1.382 . S
C84 C88 1.404 . S
H85 C83 0.951 . S
C86 C84 1.382 . S
C86 C87 1.390 . S
C86 H91 0.949 . S
C87 C86 1.390 . S
C87 C92 1.399 . S
C88 C84 1.404 . S
C88 H89 0.950 . S
C88 C90 1.375 . S
H89 C88 0.950 . S
C90 C88 1.375 . S
C90 C92 1.382 . S
C90 H94 0.950 . S
H91 C86 0.949 . S
C92 C87 1.399 . S
C92 C90 1.382 . S
C92 H93 0.952 . S
H93 C92 0.952 . S
H94 C90 0.950 . S
H95 C96 0.949 . S
C96 H95 0.949 . S
C96 C97 1.395 . S
C96 C98 1.391 . S
C97 C96 1.395 . S
C97 C100 1.390 . S
C98 C96 1.391 . S
C98 C102 1.387 . S
C98 C103 1.491 . S
H99 C100 0.950 . S
C100 C97 1.390 . S
C100 H99 0.950 . S
C100 C101 1.378 . S
C101 C100 1.378 . S
C101 C102 1.409 . S
C102 C98 1.387 . S
C102 C101 1.409 . S
C102 H104 0.951 . S
C103 C98 1.491 . S
C103 C105 1.382 . S
C103 C107 1.404 . S
H104 C102 0.951 . S
C105 C103 1.382 . S
C105 C106 1.390 . S
C105 H110 0.949 . S
C106 C105 1.390 . S
C106 C111 1.399 . S
C107 C103 1.404 . S
C107 H108 0.950 . S
C107 C109 1.375 . S
H108 C107 0.950 . S
C109 C107 1.375 . S
C109 C111 1.382 . S
C109 H113 0.950 . S
H110 C105 0.949 . S
C111 C106 1.399 . S
C111 C109 1.382 . S
C111 H112 0.952 . S
H112 C111 0.952 . S
H113 C109 0.950 . S
H114 C115 0.949 . S
C115 H114 0.949 . S
C115 C116 1.395 . S
C115 C117 1.391 . S
C116 C115 1.395 . S
C116 C119 1.390 . S
C117 C115 1.391 . S
C117 C121 1.387 . S
C117 C122 1.491 . S
H118 C119 0.950 . S
C119 C116 1.390 . S
C119 H118 0.950 . S
C119 C120 1.378 . S
C120 C119 1.378 . S
C120 C121 1.409 . S
C121 C117 1.387 . S
C121 C120 1.409 . S
C121 H123 0.951 . S
C122 C117 1.491 . S
C122 C124 1.382 . S
C122 C126 1.404 . S
H123 C121 0.951 . S
C124 C122 1.382 . S
C124 C125 1.390 . S
C124 H129 0.949 . S
C125 C124 1.390 . S
C125 C130 1.399 . S
C126 C122 1.404 . S
C126 H127 0.950 . S
C126 C128 1.375 . S
H127 C126 0.950 . S
C128 C126 1.375 . S
C128 C130 1.382 . S
C128 H132 0.950 . S
H129 C124 0.949 . S
C130 C125 1.399 . S
C130 C128 1.382 . S
C130 H131 0.952 . S
H131 C130 0.952 . S
H132 C128 0.950 . S
H133 C134 0.949 . S
C134 H133 0.949 . S
C134 C135 1.395 . S
C134 C136 1.391 . S
C135 C134 1.395 . S
C135 C138 1.390 . S
C136 C134 1.391 . S
C136 C140 1.387 . S
C136 C141 1.491 . S
H137 C138 0.950 . S
C138 C135 1.390 . S
C138 H137 0.950 . S
C138 C139 1.378 . S
C139 C138 1.378 . S
C139 C140 1.409 . S
C140 C136 1.387 . S
C140 C139 1.409 . S
C140 H142 0.951 . S
C141 C136 1.491 . S
C141 C143 1.382 . S
C141 C145 1.404 . S
H142 C140 0.951 . S
C143 C141 1.382 . S
C143 C144 1.390 . S
C143 H148 0.949 . S
C144 C143 1.390 . S
C144 C149 1.399 . S
C145 C141 1.404 . S
C145 H146 0.950 . S
C145 C147 1.375 . S
H146 C145 0.950 . S
C147 C145 1.375 . S
C147 C149 1.382 . S
C147 H151 0.950 . S
H148 C143 0.949 . S
C149 C144 1.399 . S
C149 C147 1.382 . S
C149 H150 0.952 . S
H150 C149 0.952 . S
H151 C147 0.950 . S
Tb152 C154 2.809 1_545 S
Tb152 O172 2.484 1_545 S
Tb152 O173 2.440 . S
Tb152 O174 2.658 1_655 S
Tb152 O175 2.409 1_655 S
Tb152 O176 2.378 1_655 S
Tb152 O180 2.325 . S
Tb152 O183 2.341 . S
Tb153 C163 2.809 . S
Tb153 O174 2.325 . S
Tb153 O177 2.341 . S
Tb153 O178 2.484 . S
Tb153 O179 2.440 . S
Tb153 O180 2.658 1_455 S
Tb153 O181 2.409 . S
Tb153 O182 2.378 . S
C154 Tb152 2.809 1_565 S
C154 C155 1.514 . S
C154 O172 1.248 . S
C154 O173 1.266 1_565 S
C155 C154 1.514 . S
C155 C156 1.359 . S
C155 C160 1.348 . S
C156 C155 1.359 . S
C156 C157 1.380 . S
C156 H184 0.929 . S
C157 C156 1.380 . S
C157 C158 1.347 . S
C157 H185 0.931 . S
C158 C157 1.347 . S
C158 C159 1.369 . S
C159 C158 1.369 . S
C159 C160 1.408 . S
C159 H186 0.930 . S
C160 C155 1.348 . S
C160 C159 1.408 . S
C160 H187 0.930 . S
C161 O174 1.281 . S
C161 O175 1.254 . S
C162 O176 1.236 . S
C162 O177 1.266 . S
C163 Tb153 2.809 . S
C163 C164 1.514 . S
C163 O178 1.248 . S
C163 O179 1.266 . S
C164 C163 1.514 . S
C164 C165 1.359 . S
C164 C169 1.348 . S
C165 C164 1.359 . S
C165 C166 1.380 . S
C165 H188 0.929 . S
C166 C165 1.380 . S
C166 C167 1.347 . S
C166 H189 0.931 . S
C167 C166 1.347 . S
C167 C168 1.369 . S
C168 C167 1.369 . S
C168 C169 1.408 . S
C168 H190 0.930 . S
C169 C164 1.348 . S
C169 C168 1.408 . S
C169 H191 0.930 . S
C170 O180 1.281 . S
C170 O181 1.254 1_655 S
C171 O182 1.236 1_655 S
C171 O183 1.266 . S
O172 Tb152 2.484 1_565 S
O172 C154 1.248 . S
O173 Tb152 2.440 . S
O173 C154 1.266 1_545 S
O174 Tb152 2.658 1_455 S
O174 Tb153 2.325 . S
O174 C161 1.281 . S
O175 Tb152 2.409 1_455 S
O175 C161 1.254 . S
O176 Tb152 2.378 1_455 S
O176 C162 1.236 . S
O177 Tb153 2.341 . S
O177 C162 1.266 . S
O178 Tb153 2.484 . S
O178 C163 1.248 . S
O179 Tb153 2.440 . S
O179 C163 1.266 . S
O180 Tb152 2.325 . S
O180 Tb153 2.658 1_655 S
O180 C170 1.281 . S
O181 Tb153 2.409 . S
O181 C170 1.254 1_455 S
O182 Tb153 2.378 . S
O182 C171 1.236 1_455 S
O183 Tb152 2.341 . S
O183 C171 1.266 . S
H184 C156 0.929 . S
H185 C157 0.931 . S
H186 C159 0.930 . S
H187 C160 0.930 . S
H188 C165 0.929 . S
H189 C166 0.931 . S
H190 C168 0.930 . S
H191 C169 0.930 . S
Tb192 C194 2.809 . S
Tb192 O212 2.484 . S
Tb192 O213 2.440 . S
Tb192 O214 2.658 . S
Tb192 O215 2.409 . S
Tb192 O216 2.378 . S
Tb192 O220 2.325 . S
Tb192 O223 2.341 . S
Tb193 C203 2.809 1_545 S
Tb193 O214 2.325 . S
Tb193 O217 2.341 . S
Tb193 O218 2.484 1_545 S
Tb193 O219 2.440 . S
Tb193 O220 2.658 . S
Tb193 O221 2.409 . S
Tb193 O222 2.378 . S
C194 Tb192 2.809 . S
C194 C195 1.514 . S
C194 O212 1.248 . S
C194 O213 1.266 . S
C195 C194 1.514 . S
C195 C196 1.359 . S
C195 C200 1.348 . S
C196 C195 1.359 . S
C196 C197 1.380 . S
C196 H224 0.929 . S
C197 C196 1.380 . S
C197 C198 1.347 . S
C197 H225 0.931 . S
C198 C197 1.347 . S
C198 C199 1.369 . S
C199 C198 1.369 . S
C199 C200 1.408 . S
C199 H226 0.930 . S
C200 C195 1.348 . S
C200 C199 1.408 . S
C200 H227 0.930 . S
C201 O214 1.281 1_565 S
C201 O215 1.254 1_565 S
C202 O216 1.236 . S
C202 O217 1.266 . S
C203 Tb193 2.809 1_565 S
C203 C204 1.537 . S
C203 O218 1.248 . S
C203 O219 1.266 1_565 S
C204 C203 1.537 . S
C204 C205 1.367 . S
C204 C209 1.317 1_554 S
C205 C204 1.367 . S
C205 C206 1.380 1_554 S
C205 H228 0.929 . S
C206 C205 1.380 1_556 S
C206 C207 1.347 . S
C206 H229 0.931 . S
C207 C206 1.347 . S
C207 C208 1.369 . S
C208 C207 1.369 . S
C208 C209 1.408 . S
C208 H230 0.930 . S
C209 C204 1.317 1_556 S
C209 C208 1.408 . S
C209 H231 0.930 . S
C210 O220 1.281 . S
C210 O221 1.254 . S
C211 O222 1.236 . S
C211 O223 1.266 . S
O212 Tb192 2.484 . S
O212 C194 1.248 . S
O213 Tb192 2.440 . S
O213 C194 1.266 . S
O214 Tb192 2.658 . S
O214 Tb193 2.325 . S
O214 C201 1.281 1_545 S
O215 Tb192 2.409 . S
O215 C201 1.254 1_545 S
O216 Tb192 2.378 . S
O216 C202 1.236 . S
O217 Tb193 2.341 . S
O217 C202 1.266 . S
O218 Tb193 2.484 1_565 S
O218 C203 1.248 . S
O219 Tb193 2.440 . S
O219 C203 1.266 1_545 S
O220 Tb192 2.325 . S
O220 Tb193 2.658 . S
O220 C210 1.281 . S
O221 Tb193 2.409 . S
O221 C210 1.254 . S
O222 Tb193 2.378 . S
O222 C211 1.236 . S
O223 Tb192 2.341 . S
O223 C211 1.266 . S
H224 C196 0.929 . S
H225 C197 0.931 . S
H226 C199 0.930 . S
H227 C200 0.930 . S
H228 C205 0.929 . S
H229 C206 0.931 . S
H230 C208 0.930 . S
H231 C209 0.930 . S
Tb232 C234 2.809 . S
Tb232 O252 2.484 . S
Tb232 O253 2.440 . S
Tb232 O254 2.658 . S
Tb232 O255 2.409 . S
Tb232 O256 2.378 . S
Tb232 O260 2.325 . S
Tb232 O263 2.341 . S
Tb233 C243 2.809 . S
Tb233 O254 2.325 . S
Tb233 O257 2.341 . S
Tb233 O258 2.484 . S
Tb233 O259 2.440 . S
Tb233 O260 2.658 . S
Tb233 O261 2.409 . S
Tb233 O262 2.378 . S
C234 Tb232 2.809 . S
C234 C235 1.514 . S
C234 O252 1.248 . S
C234 O253 1.266 . S
C235 C234 1.514 . S
C235 C236 1.359 . S
C235 C240 1.348 . S
C236 C235 1.359 . S
C236 C237 1.380 . S
C236 H264 0.929 . S
C237 C236 1.380 . S
C237 C238 1.347 . S
C237 H265 0.931 . S
C238 C237 1.347 . S
C238 C239 1.369 . S
C239 C238 1.369 . S
C239 C240 1.408 . S
C239 H266 0.930 . S
C240 C235 1.348 . S
C240 C239 1.408 . S
C240 H267 0.930 . S
C241 O254 1.281 . S
C241 O255 1.254 . S
C242 O256 1.236 . S
C242 O257 1.266 . S
C243 Tb233 2.809 . S
C243 C244 1.514 . S
C243 O258 1.248 . S
C243 O259 1.266 . S
C244 C243 1.514 . S
C244 C245 1.359 . S
C244 C249 1.348 . S
C245 C244 1.359 . S
C245 C246 1.380 . S
C245 H268 0.929 . S
C246 C245 1.380 . S
C246 C247 1.347 . S
C246 H269 0.931 . S
C247 C246 1.347 . S
C247 C248 1.369 . S
C248 C247 1.369 . S
C248 C249 1.408 . S
C248 H270 0.930 . S
C249 C244 1.348 . S
C249 C248 1.408 . S
C249 H271 0.930 . S
C250 O260 1.281 . S
C250 O261 1.254 . S
C251 O262 1.236 . S
C251 O263 1.266 . S
O252 Tb232 2.484 . S
O252 C234 1.248 . S
O253 Tb232 2.440 . S
O253 C234 1.266 . S
O254 Tb232 2.658 . S
O254 Tb233 2.325 . S
O254 C241 1.281 . S
O255 Tb232 2.409 . S
O255 C241 1.254 . S
O256 Tb232 2.378 . S
O256 C242 1.236 . S
O257 Tb233 2.341 . S
O257 C242 1.266 . S
O258 Tb233 2.484 . S
O258 C243 1.248 . S
O259 Tb233 2.440 . S
O259 C243 1.266 . S
O260 Tb232 2.325 . S
O260 Tb233 2.658 . S
O260 C250 1.281 . S
O261 Tb233 2.409 . S
O261 C250 1.254 . S
O262 Tb233 2.378 . S
O262 C251 1.236 . S
O263 Tb232 2.341 . S
O263 C251 1.266 . S
H264 C236 0.929 . S
H265 C237 0.931 . S
H266 C239 0.930 . S
H267 C240 0.930 . S
H268 C245 0.929 . S
H269 C246 0.931 . S
H270 C248 0.930 . S
H271 C249 0.930 . S
Tb272 C274 2.809 . S
Tb272 O292 2.484 . S
Tb272 O293 2.440 . S
Tb272 O294 2.658 1_556 S
Tb272 O295 2.409 1_556 S
Tb272 O296 2.378 1_556 S
Tb272 O300 2.325 1_556 S
Tb272 O303 2.341 . S
Tb273 C283 2.809 . S
Tb273 O294 2.325 . S
Tb273 O297 2.341 . S
Tb273 O298 2.484 . S
Tb273 O299 2.440 . S
Tb273 O300 2.658 . S
Tb273 O301 2.409 . S
Tb273 O302 2.378 . S
C274 Tb272 2.809 . S
C274 C275 1.525 . S
C274 O292 1.248 . S
C274 O293 1.266 . S
C275 C274 1.525 . S
C275 C276 1.346 1_455 S
C275 C280 1.350 . S
C276 C275 1.346 1_655 S
C276 C277 1.380 . S
C276 H304 0.929 . S
C277 C276 1.380 . S
C277 C278 1.347 . S
C277 H305 0.931 . S
C278 C277 1.347 . S
C278 C279 1.384 . S
C279 C278 1.384 . S
C279 C280 1.396 1_655 S
C279 H306 0.929 1_655 S
C280 C275 1.350 . S
C280 C279 1.396 1_455 S
C280 H307 0.930 . S
C281 O294 1.281 . S
C281 O295 1.254 . S
C282 O296 1.236 . S
C282 O297 1.266 . S
C283 Tb273 2.809 . S
C283 C284 1.514 . S
C283 O298 1.248 . S
C283 O299 1.266 . S
C284 C283 1.514 . S
C284 C285 1.359 . S
C284 C289 1.348 . S
C285 C284 1.359 . S
C285 C286 1.380 . S
C285 H308 0.929 . S
C286 C285 1.380 . S
C286 C287 1.347 . S
C286 H309 0.931 . S
C287 C286 1.347 . S
C287 C288 1.369 . S
C288 C287 1.369 . S
C288 C289 1.408 . S
C288 H310 0.930 . S
C289 C284 1.348 . S
C289 C288 1.408 . S
C289 H311 0.930 . S
C290 O300 1.281 1_556 S
C290 O301 1.254 1_556 S
C291 O302 1.236 1_556 S
C291 O303 1.266 . S
O292 Tb272 2.484 . S
O292 C274 1.248 . S
O293 Tb272 2.440 . S
O293 C274 1.266 . S
O294 Tb272 2.658 1_554 S
O294 Tb273 2.325 . S
O294 C281 1.281 . S
O295 Tb272 2.409 1_554 S
O295 C281 1.254 . S
O296 Tb272 2.378 1_554 S
O296 C282 1.236 . S
O297 Tb273 2.341 . S
O297 C282 1.266 . S
O298 Tb273 2.484 . S
O298 C283 1.248 . S
O299 Tb273 2.440 . S
O299 C283 1.266 . S
O300 Tb272 2.325 1_554 S
O300 Tb273 2.658 . S
O300 C290 1.281 1_554 S
O301 Tb273 2.409 . S
O301 C290 1.254 1_554 S
O302 Tb273 2.378 . S
O302 C291 1.236 1_554 S
O303 Tb272 2.341 . S
O303 C291 1.266 . S
H304 C276 0.929 . S
H305 C277 0.931 . S
H306 C279 0.929 1_455 S
H307 C280 0.930 . S
H308 C285 0.929 . S
H309 C286 0.931 . S
H310 C288 0.930 . S
H311 C289 0.930 . S
C312 C313 1.349 . S
C312 C314 1.327 . S
C312 H337 0.950 . S
C313 C312 1.349 . S
C313 C329 1.349 . S
C314 C312 1.327 . S
C314 C333 1.429 . S
C314 H338 0.950 . S
C315 C332 1.574 . S
C315 C334 1.368 . S
C315 H339 0.949 . S
H316 C320 0.949 . S
C317 C318 1.349 . S
C317 C319 1.327 . S
C317 H340 0.950 . S
C318 C317 1.349 . S
C318 C330 1.349 . S
C319 C317 1.327 . S
C319 C335 1.429 . S
C319 H341 0.950 . S
C320 H316 0.949 . S
C320 C328 1.574 . S
C320 C336 1.368 . S
H321 C329 0.950 . S
H322 C327 0.950 . S
H323 C328 0.949 . S
H324 C330 0.950 . S
H325 C331 0.950 . S
H326 C332 0.949 . S
C327 H322 0.950 . S
C327 C329 1.327 . S
C327 C333 1.429 . S
C328 C320 1.574 . S
C328 H323 0.949 . S
C328 C334 1.368 . S
C329 C313 1.349 . S
C329 H321 0.950 . S
C329 C327 1.327 . S
C330 C318 1.349 . S
C330 H324 0.950 . S
C330 C331 1.327 . S
C331 H325 0.950 . S
C331 C330 1.327 . S
C331 C335 1.429 . S
C332 C315 1.574 . S
C332 H326 0.949 . S
C332 C336 1.368 . S
C333 C314 1.429 . S
C333 C327 1.429 . S
C333 C334 1.523 . S
C334 C315 1.368 . S
C334 C328 1.368 . S
C334 C333 1.523 . S
C335 C319 1.429 . S
C335 C331 1.429 . S
C335 C336 1.523 . S
C336 C320 1.368 . S
C336 C332 1.368 . S
C336 C335 1.523 . S
H337 C312 0.950 . S
H338 C314 0.950 . S
H339 C315 0.949 . S
H340 C317 0.950 . S
H341 C319 0.950 . S
C342 C343 1.349 . S
C342 C344 1.327 . S
C342 H367 0.950 . S
C343 C342 1.349 . S
C343 C359 1.349 . S
C344 C342 1.327 . S
C344 C363 1.429 . S
C344 H368 0.950 . S
C345 C362 1.574 . S
C345 C364 1.368 . S
C345 H369 0.949 . S
H346 C350 0.949 . S
C347 C348 1.349 . S
C347 C349 1.327 . S
C347 H370 0.950 . S
C348 C347 1.349 . S
C348 C360 1.349 . S
C349 C347 1.327 . S
C349 C365 1.429 . S
C349 H371 0.950 . S
C350 H346 0.949 . S
C350 C358 1.574 . S
C350 C366 1.368 . S
H351 C359 0.950 . S
H352 C357 0.950 . S
H353 C358 0.949 . S
H354 C360 0.950 . S
H355 C361 0.950 . S
H356 C362 0.949 . S
C357 H352 0.950 . S
C357 C359 1.327 . S
C357 C363 1.429 . S
C358 C350 1.574 . S
C358 H353 0.949 . S
C358 C364 1.368 . S
C359 C343 1.349 . S
C359 H351 0.950 . S
C359 C357 1.327 . S
C360 C348 1.349 . S
C360 H354 0.950 . S
C360 C361 1.327 . S
C361 H355 0.950 . S
C361 C360 1.327 . S
C361 C365 1.429 . S
C362 C345 1.574 . S
C362 H356 0.949 . S
C362 C366 1.368 . S
C363 C344 1.429 . S
C363 C357 1.429 . S
C363 C364 1.523 . S
C364 C345 1.368 . S
C364 C358 1.368 . S
C364 C363 1.523 . S
C365 C349 1.429 . S
C365 C361 1.429 . S
C365 C366 1.523 . S
C366 C350 1.368 . S
C366 C362 1.368 . S
C366 C365 1.523 . S
H367 C342 0.950 . S
H368 C344 0.950 . S
H369 C345 0.949 . S
H370 C347 0.950 . S
H371 C349 0.950 . S
C372 C373 1.349 . S
C372 C374 1.327 . S
C372 H397 0.950 . S
C373 C372 1.349 . S
C373 C389 1.349 . S
C374 C372 1.327 . S
C374 C393 1.429 . S
C374 H398 0.950 . S
C375 C392 1.574 . S
C375 C394 1.368 . S
C375 H399 0.949 . S
H376 C380 0.949 . S
C377 C378 1.349 . S
C377 C379 1.327 . S
C377 H400 0.950 . S
C378 C377 1.349 . S
C378 C390 1.349 . S
C379 C377 1.327 . S
C379 C395 1.429 . S
C379 H401 0.950 . S
C380 H376 0.949 . S
C380 C388 1.574 . S
C380 C396 1.368 . S
H381 C389 0.950 . S
H382 C387 0.950 . S
H383 C388 0.949 . S
H384 C390 0.950 . S
H385 C391 0.950 . S
H386 C392 0.949 . S
C387 H382 0.950 . S
C387 C389 1.327 . S
C387 C393 1.429 . S
C388 C380 1.574 . S
C388 H383 0.949 . S
C388 C394 1.368 . S
C389 C373 1.349 . S
C389 H381 0.950 . S
C389 C387 1.327 . S
C390 C378 1.349 . S
C390 H384 0.950 . S
C390 C391 1.327 . S
C391 H385 0.950 . S
C391 C390 1.327 . S
C391 C395 1.429 . S
C392 C375 1.574 . S
C392 H386 0.949 . S
C392 C396 1.368 . S
C393 C374 1.429 . S
C393 C387 1.429 . S
C393 C394 1.523 . S
C394 C375 1.368 . S
C394 C388 1.368 . S
C394 C393 1.523 . S
C395 C379 1.429 . S
C395 C391 1.429 . S
C395 C396 1.523 . S
C396 C380 1.368 . S
C396 C392 1.368 . S
C396 C395 1.523 . S
H397 C372 0.950 . S
H398 C374 0.950 . S
H399 C375 0.949 . S
H400 C377 0.950 . S
H401 C379 0.950 . S
C402 C403 1.349 . S
C402 C404 1.327 . S
C402 H427 0.950 . S
C403 C402 1.349 . S
C403 C419 1.349 . S
C404 C402 1.327 . S
C404 C423 1.429 . S
C404 H428 0.950 . S
C405 C422 1.574 . S
C405 C424 1.368 . S
C405 H429 0.949 . S
H406 C410 0.949 . S
C407 C408 1.349 . S
C407 C409 1.327 . S
C407 H430 0.950 . S
C408 C407 1.349 . S
C408 C420 1.349 . S
C409 C407 1.327 . S
C409 C425 1.429 . S
C409 H431 0.950 . S
C410 H406 0.949 . S
C410 C418 1.574 . S
C410 C426 1.368 . S
H411 C419 0.950 . S
H412 C417 0.950 . S
H413 C418 0.949 . S
H414 C420 0.950 1_455 S
H415 C421 0.950 . S
H416 C422 0.949 . S
C417 H412 0.950 . S
C417 C419 1.327 . S
C417 C423 1.429 . S
C418 C410 1.574 . S
C418 H413 0.949 . S
C418 C424 1.368 . S
C419 C403 1.349 . S
C419 H411 0.950 . S
C419 C417 1.327 . S
C420 C408 1.349 . S
C420 H414 0.950 1_655 S
C420 C421 1.327 . S
C421 H415 0.950 . S
C421 C420 1.327 . S
C421 C425 1.429 . S
C422 C405 1.574 . S
C422 H416 0.949 . S
C422 C426 1.368 . S
C423 C404 1.429 . S
C423 C417 1.429 . S
C423 C424 1.523 . S
C424 C405 1.368 . S
C424 C418 1.368 . S
C424 C423 1.523 . S
C425 C409 1.429 . S
C425 C421 1.429 . S
C425 C426 1.523 . S
C426 C410 1.368 . S
C426 C422 1.368 . S
C426 C425 1.523 . S
H427 C402 0.950 . S
H428 C404 0.950 . S
H429 C405 0.949 . S
H430 C407 0.950 . S
H431 C409 0.950 . S
C432 C433 1.349 . S
C432 C434 1.327 . S
C432 H457 0.950 . S
C433 C432 1.349 . S
C433 C449 1.349 . S
C434 C432 1.327 . S
C434 C453 1.429 . S
C434 H458 0.950 . S
C435 C452 1.574 . S
C435 C454 1.368 . S
C435 H459 0.949 . S
H436 C440 0.949 . S
C437 C438 1.349 . S
C437 C439 1.327 . S
C437 H460 0.950 . S
C438 C437 1.349 . S
C438 C450 1.349 . S
C439 C437 1.327 . S
C439 C455 1.429 . S
C439 H461 0.950 . S
C440 H436 0.949 . S
C440 C448 1.574 . S
C440 C456 1.368 . S
H441 C449 0.950 . S
H442 C447 0.950 . S
H443 C448 0.949 . S
H444 C450 0.950 . S
H445 C451 0.950 . S
H446 C452 0.949 . S
C447 H442 0.950 . S
C447 C449 1.327 . S
C447 C453 1.429 . S
C448 C440 1.574 . S
C448 H443 0.949 . S
C448 C454 1.368 . S
C449 C433 1.349 . S
C449 H441 0.950 . S
C449 C447 1.327 . S
C450 C438 1.349 . S
C450 H444 0.950 . S
C450 C451 1.327 . S
C451 H445 0.950 . S
C451 C450 1.327 . S
C451 C455 1.429 . S
C452 C435 1.574 . S
C452 H446 0.949 . S
C452 C456 1.368 . S
C453 C434 1.429 . S
C453 C447 1.429 . S
C453 C454 1.523 . S
C454 C435 1.368 . S
C454 C448 1.368 . S
C454 C453 1.523 . S
C455 C439 1.429 . S
C455 C451 1.429 . S
C455 C456 1.523 . S
C456 C440 1.368 . S
C456 C452 1.368 . S
C456 C455 1.523 . S
H457 C432 0.950 . S
H458 C434 0.950 . S
H459 C435 0.949 . S
H460 C437 0.950 . S
H461 C439 0.950 . S
C462 C463 1.349 . S
C462 C464 1.327 . S
C462 H487 0.950 . S
C463 C462 1.349 . S
C463 C479 1.349 . S
C464 C462 1.327 . S
C464 C483 1.429 . S
C464 H488 0.950 . S
C465 C482 1.574 . S
C465 C484 1.368 . S
C465 H489 0.949 . S
H466 C470 0.949 . S
C467 C468 1.349 . S
C467 C469 1.327 . S
C467 H490 0.950 . S
C468 C467 1.349 . S
C468 C480 1.349 . S
C469 C467 1.327 . S
C469 C485 1.429 . S
C469 H491 0.950 . S
C470 H466 0.949 . S
C470 C478 1.574 . S
C470 C486 1.368 . S
H471 C479 0.950 . S
H472 C477 0.950 . S
H473 C478 0.949 . S
H474 C480 0.950 . S
H475 C481 0.950 . S
H476 C482 0.949 . S
C477 H472 0.950 . S
C477 C479 1.327 . S
C477 C483 1.429 . S
C478 C470 1.574 . S
C478 H473 0.949 . S
C478 C484 1.368 . S
C479 C463 1.349 . S
C479 H471 0.950 . S
C479 C477 1.327 . S
C480 C468 1.349 . S
C480 H474 0.950 . S
C480 C481 1.327 . S
C481 H475 0.950 . S
C481 C480 1.327 . S
C481 C485 1.429 . S
C482 C465 1.574 . S
C482 H476 0.949 . S
C482 C486 1.368 . S
C483 C464 1.429 . S
C483 C477 1.429 . S
C483 C484 1.523 . S
C484 C465 1.368 . S
C484 C478 1.368 . S
C484 C483 1.523 . S
C485 C469 1.429 . S
C485 C481 1.429 . S
C485 C486 1.523 . S
C486 C470 1.368 . S
C486 C482 1.368 . S
C486 C485 1.523 . S
H487 C462 0.950 . S
H488 C464 0.950 . S
H489 C465 0.949 . S
H490 C467 0.950 . S
H491 C469 0.950 . S
C492 C493 1.349 . S
C492 C494 1.327 . S
C492 H517 0.950 . S
C493 C492 1.349 . S
C493 C509 1.349 . S
C494 C492 1.327 . S
C494 C513 1.429 . S
C494 H518 0.950 . S
C495 C512 1.574 . S
C495 C514 1.368 . S
C495 H519 0.949 . S
H496 C500 0.949 . S
C497 C498 1.349 . S
C497 C499 1.327 . S
C497 H520 0.950 . S
C498 C497 1.349 . S
C498 C510 1.349 . S
C499 C497 1.327 . S
C499 C515 1.429 . S
C499 H521 0.950 . S
C500 H496 0.949 . S
C500 C508 1.574 . S
C500 C516 1.368 . S
H501 C509 0.950 . S
H502 C507 0.950 . S
H503 C508 0.949 . S
H504 C510 0.950 1_554 S
H505 C511 0.950 . S
H506 C512 0.949 . S
C507 H502 0.950 . S
C507 C509 1.327 . S
C507 C513 1.429 . S
C508 C500 1.574 . S
C508 H503 0.949 . S
C508 C514 1.368 . S
C509 C493 1.349 . S
C509 H501 0.950 . S
C509 C507 1.327 . S
C510 C498 1.349 . S
C510 H504 0.950 1_556 S
C510 C511 1.327 . S
C511 H505 0.950 . S
C511 C510 1.327 . S
C511 C515 1.429 . S
C512 C495 1.574 . S
C512 H506 0.949 . S
C512 C516 1.368 . S
C513 C494 1.429 . S
C513 C507 1.429 . S
C513 C514 1.523 . S
C514 C495 1.368 . S
C514 C508 1.368 . S
C514 C513 1.523 . S
C515 C499 1.429 . S
C515 C511 1.429 . S
C515 C516 1.523 . S
C516 C500 1.368 . S
C516 C512 1.368 . S
C516 C515 1.523 . S
H517 C492 0.950 . S
H518 C494 0.950 . S
H519 C495 0.949 . S
H520 C497 0.950 . S
H521 C499 0.950 . S
C522 C523 1.349 . S
C522 C524 1.327 . S
C522 H547 0.950 . S
C523 C522 1.349 . S
C523 C539 1.349 . S
C524 C522 1.327 . S
C524 C543 1.429 . S
C524 H548 0.950 . S
C525 C542 1.574 . S
C525 C544 1.368 . S
C525 H549 0.949 . S
H526 C530 0.949 . S
C527 C528 1.349 . S
C527 C529 1.327 . S
C527 H550 0.950 . S
C528 C527 1.349 . S
C528 C540 1.349 . S
C529 C527 1.327 . S
C529 C545 1.429 . S
C529 H551 0.950 . S
C530 H526 0.949 . S
C530 C538 1.574 . S
C530 C546 1.368 . S
H531 C539 0.950 . S
H532 C537 0.950 . S
H533 C538 0.949 . S
H534 C540 0.950 . S
H535 C541 0.950 . S
H536 C542 0.949 . S
C537 H532 0.950 . S
C537 C539 1.327 . S
C537 C543 1.429 . S
C538 C530 1.574 . S
C538 H533 0.949 . S
C538 C544 1.368 . S
C539 C523 1.349 . S
C539 H531 0.950 . S
C539 C537 1.327 . S
C540 C528 1.349 . S
C540 H534 0.950 . S
C540 C541 1.327 . S
C541 H535 0.950 . S
C541 C540 1.327 . S
C541 C545 1.429 . S
C542 C525 1.574 . S
C542 H536 0.949 . S
C542 C546 1.368 . S
C543 C524 1.429 . S
C543 C537 1.429 . S
C543 C544 1.523 . S
C544 C525 1.368 . S
C544 C538 1.368 . S
C544 C543 1.523 . S
C545 C529 1.429 . S
C545 C541 1.429 . S
C545 C546 1.523 . S
C546 C530 1.368 . S
C546 C542 1.368 . S
C546 C545 1.523 . S
H547 C522 0.950 . S
H548 C524 0.950 . S
H549 C525 0.949 . S
H550 C527 0.950 . S
H551 C529 0.950 . S
C552 C553 1.349 . S
C552 C554 1.327 . S
C552 H577 0.950 . S
C553 C552 1.349 . S
C553 C569 1.349 . S
C554 C552 1.327 . S
C554 C573 1.429 . S
C554 H578 0.950 . S
C555 C572 1.574 . S
C555 C574 1.368 . S
C555 H579 0.949 . S
H556 C560 0.949 . S
C557 C558 1.349 . S
C557 C559 1.327 . S
C557 H580 0.950 . S
C558 C557 1.349 . S
C558 C570 1.349 . S
C559 C557 1.327 . S
C559 C575 1.429 . S
C559 H581 0.950 . S
C560 H556 0.949 . S
C560 C568 1.574 . S
C560 C576 1.368 . S
H561 C569 0.950 . S
H562 C567 0.950 . S
H563 C568 0.949 . S
H564 C570 0.950 . S
H565 C571 0.950 . S
H566 C572 0.949 . S
C567 H562 0.950 . S
C567 C569 1.327 . S
C567 C573 1.429 . S
C568 C560 1.574 . S
C568 H563 0.949 . S
C568 C574 1.368 . S
C569 C553 1.349 . S
C569 H561 0.950 . S
C569 C567 1.327 . S
C570 C558 1.349 . S
C570 H564 0.950 . S
C570 C571 1.327 . S
C571 H565 0.950 . S
C571 C570 1.327 . S
C571 C575 1.429 . S
C572 C555 1.574 . S
C572 H566 0.949 . S
C572 C576 1.368 . S
C573 C554 1.429 . S
C573 C567 1.429 . S
C573 C574 1.523 . S
C574 C555 1.368 . S
C574 C568 1.368 . S
C574 C573 1.523 . S
C575 C559 1.429 . S
C575 C571 1.429 . S
C575 C576 1.523 . S
C576 C560 1.368 . S
C576 C572 1.368 . S
C576 C575 1.523 . S
H577 C552 0.950 . S
H578 C554 0.950 . S
H579 C555 0.949 . S
H580 C557 0.950 . S
H581 C559 0.950 . S
C582 C583 1.349 . S
C582 C584 1.327 . S
C582 H607 0.950 . S
C583 C582 1.349 . S
C583 C599 1.349 . S
C584 C582 1.327 . S
C584 C603 1.429 . S
C584 H608 0.950 . S
C585 C602 1.574 . S
C585 C604 1.368 . S
C585 H609 0.949 . S
H586 C590 0.949 . S
C587 C588 1.349 . S
C587 C589 1.327 1_554 S
C587 H610 0.950 . S
C588 C587 1.349 . S
C588 C600 1.349 . S
C589 C587 1.327 1_556 S
C589 C605 1.429 . S
C589 H611 0.950 . S
C590 H586 0.949 . S
C590 C598 1.574 . S
C590 C606 1.368 . S
H591 C599 0.950 . S
H592 C597 0.950 . S
H593 C598 0.949 . S
H594 C600 0.950 . S
H595 C601 0.950 . S
H596 C602 0.949 . S
C597 H592 0.950 . S
C597 C599 1.327 . S
C597 C603 1.429 . S
C598 C590 1.574 . S
C598 H593 0.949 . S
C598 C604 1.368 . S
C599 C583 1.349 . S
C599 H591 0.950 . S
C599 C597 1.327 . S
C600 C588 1.349 . S
C600 H594 0.950 . S
C600 C601 1.327 . S
C601 H595 0.950 . S
C601 C600 1.327 . S
C601 C605 1.429 1_554 S
C602 C585 1.574 . S
C602 H596 0.949 . S
C602 C606 1.368 . S
C603 C584 1.429 . S
C603 C597 1.429 . S
C603 C604 1.523 . S
C604 C585 1.368 . S
C604 C598 1.368 . S
C604 C603 1.523 . S
C605 C589 1.429 . S
C605 C601 1.429 1_556 S
C605 C606 1.523 . S
C606 C590 1.368 . S
C606 C602 1.368 . S
C606 C605 1.523 . S
H607 C582 0.950 . S
H608 C584 0.950 . S
H609 C585 0.949 . S
H610 C587 0.950 . S
H611 C589 0.950 . S
C612 C613 1.349 . S
C612 C614 1.327 . S
C612 H637 0.950 . S
C613 C612 1.349 . S
C613 C629 1.349 . S
C614 C612 1.327 . S
C614 C633 1.429 . S
C614 H638 0.950 . S
C615 C632 1.574 . S
C615 C634 1.368 . S
C615 H639 0.949 . S
H616 C620 0.949 . S
C617 C618 1.349 . S
C617 C619 1.327 . S
C617 H640 0.950 . S
C618 C617 1.349 . S
C618 C630 1.349 . S
C619 C617 1.327 . S
C619 C635 1.429 . S
C619 H641 0.950 . S
C620 H616 0.949 . S
C620 C628 1.574 . S
C620 C636 1.368 . S
H621 C629 0.950 . S
H622 C627 0.950 . S
H623 C628 0.949 . S
H624 C630 0.950 . S
H625 C631 0.950 . S
H626 C632 0.949 . S
C627 H622 0.950 . S
C627 C629 1.327 . S
C627 C633 1.429 . S
C628 C620 1.574 . S
C628 H623 0.949 . S
C628 C634 1.368 . S
C629 C613 1.349 . S
C629 H621 0.950 . S
C629 C627 1.327 . S
C630 C618 1.349 . S
C630 H624 0.950 . S
C630 C631 1.327 . S
C631 H625 0.950 . S
C631 C630 1.327 . S
C631 C635 1.429 . S
C632 C615 1.574 . S
C632 H626 0.949 . S
C632 C636 1.368 . S
C633 C614 1.429 . S
C633 C627 1.429 . S
C633 C634 1.523 . S
C634 C615 1.368 . S
C634 C628 1.368 . S
C634 C633 1.523 . S
C635 C619 1.429 . S
C635 C631 1.429 . S
C635 C636 1.523 . S
C636 C620 1.368 . S
C636 C632 1.368 . S
C636 C635 1.523 . S
H637 C612 0.950 . S
H638 C614 0.950 . S
H639 C615 0.949 . S
H640 C617 0.950 . S
H641 C619 0.950 . S
C642 C643 1.349 . S
C642 C644 1.327 . S
C642 H667 0.950 . S
C643 C642 1.349 . S
C643 C659 1.349 . S
C644 C642 1.327 . S
C644 C663 1.429 . S
C644 H668 0.950 . S
C645 C662 1.574 . S
C645 C664 1.368 . S
C645 H669 0.949 . S
H646 C650 0.949 . S
C647 C648 1.349 . S
C647 C649 1.327 . S
C647 H670 0.950 . S
C648 C647 1.349 . S
C648 C660 1.349 . S
C649 C647 1.327 . S
C649 C665 1.429 . S
C649 H671 0.950 . S
C650 H646 0.949 . S
C650 C658 1.574 . S
C650 C666 1.368 . S
H651 C659 0.950 . S
H652 C657 0.950 . S
H653 C658 0.949 . S
H654 C660 0.950 . S
H655 C661 0.950 . S
H656 C662 0.949 . S
C657 H652 0.950 . S
C657 C659 1.327 . S
C657 C663 1.429 . S
C658 C650 1.574 . S
C658 H653 0.949 . S
C658 C664 1.368 . S
C659 C643 1.349 . S
C659 H651 0.950 . S
C659 C657 1.327 . S
C660 C648 1.349 . S
C660 H654 0.950 . S
C660 C661 1.327 . S
C661 H655 0.950 . S
C661 C660 1.327 . S
C661 C665 1.429 . S
C662 C645 1.574 . S
C662 H656 0.949 . S
C662 C666 1.368 . S
C663 C644 1.429 . S
C663 C657 1.429 . S
C663 C664 1.523 . S
C664 C645 1.368 . S
C664 C658 1.368 . S
C664 C663 1.523 . S
C665 C649 1.429 . S
C665 C661 1.429 . S
C665 C666 1.523 . S
C666 C650 1.368 . S
C666 C662 1.368 . S
C666 C665 1.523 . S
H667 C642 0.950 . S
H668 C644 0.950 . S
H669 C645 0.949 . S
H670 C647 0.950 . S
H671 C649 0.950 . S
C672 C673 1.349 . S
C672 C674 1.327 . S
C672 H697 0.950 . S
C673 C672 1.349 . S
C673 C689 1.349 . S
C674 C672 1.327 . S
C674 C693 1.429 . S
C674 H698 0.950 . S
C675 C692 1.574 . S
C675 C694 1.368 . S
C675 H699 0.949 . S
H676 C680 0.949 . S
C677 C678 1.349 . S
C677 C679 1.327 . S
C677 H700 0.950 . S
C678 C677 1.349 . S
C678 C690 1.349 . S
C679 C677 1.327 . S
C679 C695 1.429 . S
C679 H701 0.950 . S
C680 H676 0.949 . S
C680 C688 1.574 . S
C680 C696 1.368 . S
H681 C689 0.950 . S
H682 C687 0.950 . S
H683 C688 0.949 . S
H684 C690 0.950 . S
H685 C691 0.950 . S
H686 C692 0.949 . S
C687 H682 0.950 . S
C687 C689 1.327 . S
C687 C693 1.429 . S
C688 C680 1.574 . S
C688 H683 0.949 . S
C688 C694 1.368 . S
C689 C673 1.349 . S
C689 H681 0.950 . S
C689 C687 1.327 . S
C690 C678 1.349 . S
C690 H684 0.950 . S
C690 C691 1.327 . S
C691 H685 0.950 . S
C691 C690 1.327 . S
C691 C695 1.429 . S
C692 C675 1.574 . S
C692 H686 0.949 . S
C692 C696 1.368 . S
C693 C674 1.429 . S
C693 C687 1.429 . S
C693 C694 1.523 . S
C694 C675 1.368 . S
C694 C688 1.368 . S
C694 C693 1.523 . S
C695 C679 1.429 . S
C695 C691 1.429 . S
C695 C696 1.523 . S
C696 C680 1.368 . S
C696 C692 1.368 . S
C696 C695 1.523 . S
H697 C672 0.950 . S
H698 C674 0.950 . S
H699 C675 0.949 . S
H700 C677 0.950 . S
H701 C679 0.950 . S
C702 C703 1.349 . S
C702 C704 1.327 . S
C702 H727 0.950 . S
C703 C702 1.349 . S
C703 C719 1.349 . S
C704 C702 1.327 . S
C704 C723 1.429 . S
C704 H728 0.950 . S
C705 C722 1.574 . S
C705 C724 1.368 . S
C705 H729 0.949 . S
H706 C710 0.949 . S
C707 C708 1.349 . S
C707 C709 1.327 . S
C707 H730 0.950 . S
C708 C707 1.349 . S
C708 C720 1.349 . S
C709 C707 1.327 . S
C709 C725 1.429 . S
C709 H731 0.950 . S
C710 H706 0.949 . S
C710 C718 1.574 . S
C710 C726 1.368 . S
H711 C719 0.950 . S
H712 C717 0.950 . S
H713 C718 0.949 . S
H714 C720 0.950 . S
H715 C721 0.950 . S
H716 C722 0.949 . S
C717 H712 0.950 . S
C717 C719 1.327 . S
C717 C723 1.429 . S
C718 C710 1.574 . S
C718 H713 0.949 . S
C718 C724 1.368 . S
C719 C703 1.349 . S
C719 H711 0.950 . S
C719 C717 1.327 . S
C720 C708 1.349 . S
C720 H714 0.950 . S
C720 C721 1.327 . S
C721 H715 0.950 . S
C721 C720 1.327 . S
C721 C725 1.429 . S
C722 C705 1.574 . S
C722 H716 0.949 . S
C722 C726 1.368 . S
C723 C704 1.429 . S
C723 C717 1.429 . S
C723 C724 1.523 . S
C724 C705 1.368 . S
C724 C718 1.368 . S
C724 C723 1.523 . S
C725 C709 1.429 . S
C725 C721 1.429 . S
C725 C726 1.523 . S
C726 C710 1.368 . S
C726 C722 1.368 . S
C726 C725 1.523 . S
H727 C702 0.950 . S
H728 C704 0.950 . S
H729 C705 0.949 . S
H730 C707 0.950 . S
H731 C709 0.950 . S
C732 C733 1.349 . S
C732 C734 1.327 . S
C732 H757 0.950 . S
C733 C732 1.349 . S
C733 C749 1.349 . S
C734 C732 1.327 . S
C734 C753 1.429 . S
C734 H758 0.950 . S
C735 C752 1.574 . S
C735 C754 1.368 . S
C735 H759 0.949 . S
H736 C740 0.949 . S
C737 C738 1.349 . S
C737 C739 1.327 . S
C737 H760 0.950 . S
C738 C737 1.349 . S
C738 C750 1.349 . S
C739 C737 1.327 . S
C739 C755 1.429 . S
C739 H761 0.950 . S
C740 H736 0.949 . S
C740 C748 1.574 . S
C740 C756 1.368 . S
H741 C749 0.950 . S
H742 C747 0.950 . S
H743 C748 0.949 . S
H744 C750 0.950 . S
H745 C751 0.950 . S
H746 C752 0.949 . S
C747 H742 0.950 . S
C747 C749 1.327 . S
C747 C753 1.429 . S
C748 C740 1.574 . S
C748 H743 0.949 . S
C748 C754 1.368 . S
C749 C733 1.349 . S
C749 H741 0.950 . S
C749 C747 1.327 . S
C750 C738 1.349 . S
C750 H744 0.950 . S
C750 C751 1.327 . S
C751 H745 0.950 . S
C751 C750 1.327 . S
C751 C755 1.429 . S
C752 C735 1.574 . S
C752 H746 0.949 . S
C752 C756 1.368 . S
C753 C734 1.429 . S
C753 C747 1.429 . S
C753 C754 1.523 . S
C754 C735 1.368 . S
C754 C748 1.368 . S
C754 C753 1.523 . S
C755 C739 1.429 . S
C755 C751 1.429 . S
C755 C756 1.523 . S
C756 C740 1.368 . S
C756 C752 1.368 . S
C756 C755 1.523 . S
H757 C732 0.950 . S
H758 C734 0.950 . S
H759 C735 0.949 . S
H760 C737 0.950 . S
H761 C739 0.950 . S
C762 C763 1.349 . S
C762 C764 1.327 . S
C762 H787 0.950 . S
C763 C762 1.349 . S
C763 C779 1.349 . S
C764 C762 1.327 . S
C764 C783 1.429 . S
C764 H788 0.950 . S
C765 C782 1.574 . S
C765 C784 1.368 . S
C765 H789 0.949 . S
H766 C770 0.949 . S
C767 C768 1.349 . S
C767 C769 1.327 . S
C767 H790 0.950 . S
C768 C767 1.349 . S
C768 C780 1.349 . S
C769 C767 1.327 . S
C769 C785 1.429 . S
C769 H791 0.950 . S
C770 H766 0.949 . S
C770 C778 1.574 . S
C770 C786 1.368 . S
H771 C779 0.950 . S
H772 C777 0.950 . S
H773 C778 0.949 . S
H774 C780 0.950 . S
H775 C781 0.950 . S
H776 C782 0.949 . S
C777 H772 0.950 . S
C777 C779 1.327 . S
C777 C783 1.429 . S
C778 C770 1.574 . S
C778 H773 0.949 . S
C778 C784 1.368 . S
C779 C763 1.349 . S
C779 H771 0.950 . S
C779 C777 1.327 . S
C780 C768 1.349 . S
C780 H774 0.950 . S
C780 C781 1.327 . S
C781 H775 0.950 . S
C781 C780 1.327 . S
C781 C785 1.429 . S
C782 C765 1.574 . S
C782 H776 0.949 . S
C782 C786 1.368 . S
C783 C764 1.429 . S
C783 C777 1.429 . S
C783 C784 1.523 . S
C784 C765 1.368 . S
C784 C778 1.368 . S
C784 C783 1.523 . S
C785 C769 1.429 . S
C785 C781 1.429 . S
C785 C786 1.523 . S
C786 C770 1.368 . S
C786 C782 1.368 . S
C786 C785 1.523 . S
H787 C762 0.950 . S
H788 C764 0.950 . S
H789 C765 0.949 . S
H790 C767 0.950 . S
H791 C769 0.950 . S
C792 C793 1.349 . S
C792 C794 1.327 . S
C792 H817 0.950 . S
C793 C792 1.349 . S
C793 C809 1.349 . S
C794 C792 1.327 . S
C794 C813 1.429 . S
C794 H818 0.950 . S
C795 C812 1.574 1_556 S
C795 C814 1.368 . S
C795 H819 0.949 1_556 S
H796 C800 0.949 . S
C797 C798 1.349 . S
C797 C799 1.327 . S
C797 H820 0.950 . S
C798 C797 1.349 . S
C798 C810 1.349 . S
C799 C797 1.327 . S
C799 C815 1.429 . S
C799 H821 0.950 . S
C800 H796 0.949 . S
C800 C808 1.574 . S
C800 C816 1.368 . S
H801 C809 0.950 . S
H802 C807 0.950 . S
H803 C808 0.949 . S
H804 C810 0.950 1_545 S
H805 C811 0.950 1_556 S
H806 C812 0.949 . S
C807 H802 0.950 . S
C807 C809 1.327 . S
C807 C813 1.429 . S
C808 C800 1.574 . S
C808 H803 0.949 . S
C808 C814 1.368 . S
C809 C793 1.349 . S
C809 H801 0.950 . S
C809 C807 1.327 . S
C810 C798 1.349 . S
C810 H804 0.950 1_565 S
C810 C811 1.327 . S
C811 H805 0.950 1_554 S
C811 C810 1.327 . S
C811 C815 1.429 . S
C812 C795 1.574 1_554 S
C812 H806 0.949 . S
C812 C816 1.368 1_554 S
C813 C794 1.429 . S
C813 C807 1.429 . S
C813 C814 1.523 . S
C814 C795 1.368 . S
C814 C808 1.368 . S
C814 C813 1.523 . S
C815 C799 1.429 . S
C815 C811 1.429 . S
C815 C816 1.523 1_554 S
C816 C800 1.368 . S
C816 C812 1.368 1_556 S
C816 C815 1.523 1_556 S
H817 C792 0.950 . S
H818 C794 0.950 . S
H819 C795 0.949 1_554 S
H820 C797 0.950 . S
H821 C799 0.950 . S
C822 C823 1.349 . S
C822 C824 1.327 . S
C822 H847 0.950 . S
C823 C822 1.349 . S
C823 C839 1.349 . S
C824 C822 1.327 . S
C824 C843 1.429 . S
C824 H848 0.950 . S
C825 C842 1.574 . S
C825 C844 1.368 . S
C825 H849 0.949 . S
H826 C830 0.949 . S
C827 C828 1.349 . S
C827 C829 1.327 . S
C827 H850 0.950 . S
C828 C827 1.349 . S
C828 C840 1.349 . S
C829 C827 1.327 . S
C829 C845 1.429 . S
C829 H851 0.950 . S
C830 H826 0.949 . S
C830 C838 1.574 . S
C830 C846 1.368 . S
H831 C839 0.950 . S
H832 C837 0.950 . S
H833 C838 0.949 . S
H834 C840 0.950 1_455 S
H835 C841 0.950 . S
H836 C842 0.949 . S
C837 H832 0.950 . S
C837 C839 1.327 . S
C837 C843 1.429 . S
C838 C830 1.574 . S
C838 H833 0.949 . S
C838 C844 1.368 . S
C839 C823 1.349 . S
C839 H831 0.950 . S
C839 C837 1.327 . S
C840 C828 1.349 . S
C840 H834 0.950 1_655 S
C840 C841 1.327 . S
C841 H835 0.950 . S
C841 C840 1.327 . S
C841 C845 1.429 . S
C842 C825 1.574 . S
C842 H836 0.949 . S
C842 C846 1.368 . S
C843 C824 1.429 . S
C843 C837 1.429 . S
C843 C844 1.523 . S
C844 C825 1.368 . S
C844 C838 1.368 . S
C844 C843 1.523 . S
C845 C829 1.429 . S
C845 C841 1.429 . S
C845 C846 1.523 . S
C846 C830 1.368 . S
C846 C842 1.368 . S
C846 C845 1.523 . S
H847 C822 0.950 . S
H848 C824 0.950 . S
H849 C825 0.949 . S
H850 C827 0.950 . S
H851 C829 0.950 . S
C852 C853 1.349 . S
C852 C854 1.327 . S
C852 H877 0.950 . S
C853 C852 1.349 . S
C853 C869 1.349 . S
C854 C852 1.327 . S
C854 C873 1.429 . S
C854 H878 0.950 . S
C855 C872 1.574 . S
C855 C874 1.368 . S
C855 H879 0.949 . S
H856 C860 0.949 . S
C857 C858 1.349 . S
C857 C859 1.327 . S
C857 H880 0.950 . S
C858 C857 1.349 . S
C858 C870 1.349 . S
C859 C857 1.327 . S
C859 C875 1.429 . S
C859 H881 0.950 . S
C860 H856 0.949 . S
C860 C868 1.574 . S
C860 C876 1.368 . S
H861 C869 0.950 . S
H862 C867 0.950 . S
H863 C868 0.949 . S
H864 C870 0.950 . S
H865 C871 0.950 . S
H866 C872 0.949 . S
C867 H862 0.950 . S
C867 C869 1.327 . S
C867 C873 1.429 . S
C868 C860 1.574 . S
C868 H863 0.949 . S
C868 C874 1.368 . S
C869 C853 1.349 . S
C869 H861 0.950 . S
C869 C867 1.327 . S
C870 C858 1.349 . S
C870 H864 0.950 . S
C870 C871 1.327 . S
C871 H865 0.950 . S
C871 C870 1.327 . S
C871 C875 1.429 . S
C872 C855 1.574 . S
C872 H866 0.949 . S
C872 C876 1.368 . S
C873 C854 1.429 . S
C873 C867 1.429 . S
C873 C874 1.523 . S
C874 C855 1.368 . S
C874 C868 1.368 . S
C874 C873 1.523 . S
C875 C859 1.429 . S
C875 C871 1.429 . S
C875 C876 1.523 . S
C876 C860 1.368 . S
C876 C872 1.368 . S
C876 C875 1.523 . S
H877 C852 0.950 . S
H878 C854 0.950 . S
H879 C855 0.949 . S
H880 C857 0.950 . S
H881 C859 0.950 . S
C882 C883 1.349 . S
C882 C884 1.327 . S
C882 H907 0.950 . S
C883 C882 1.349 . S
C883 C899 1.349 . S
C884 C882 1.327 . S
C884 C903 1.429 . S
C884 H908 0.950 . S
C885 C902 1.574 . S
C885 C904 1.368 . S
C885 H909 0.949 . S
H886 C890 0.949 . S
C887 C888 1.349 . S
C887 C889 1.327 . S
C887 H910 0.950 . S
C888 C887 1.349 . S
C888 C900 1.349 . S
C889 C887 1.327 . S
C889 C905 1.429 . S
C889 H911 0.950 . S
C890 H886 0.949 . S
C890 C898 1.574 . S
C890 C906 1.368 . S
H891 C899 0.950 . S
H892 C897 0.950 . S
H893 C898 0.949 . S
H894 C900 0.950 . S
H895 C901 0.950 . S
H896 C902 0.949 . S
C897 H892 0.950 . S
C897 C899 1.327 . S
C897 C903 1.429 . S
C898 C890 1.574 . S
C898 H893 0.949 . S
C898 C904 1.368 . S
C899 C883 1.349 . S
C899 H891 0.950 . S
C899 C897 1.327 . S
C900 C888 1.349 . S
C900 H894 0.950 . S
C900 C901 1.327 . S
C901 H895 0.950 . S
C901 C900 1.327 . S
C901 C905 1.429 . S
C902 C885 1.574 . S
C902 H896 0.949 . S
C902 C906 1.368 . S
C903 C884 1.429 . S
C903 C897 1.429 . S
C903 C904 1.523 . S
C904 C885 1.368 . S
C904 C898 1.368 . S
C904 C903 1.523 . S
C905 C889 1.429 . S
C905 C901 1.429 . S
C905 C906 1.523 . S
C906 C890 1.368 . S
C906 C902 1.368 . S
C906 C905 1.523 . S
H907 C882 0.950 . S
H908 C884 0.950 . S
H909 C885 0.949 . S
H910 C887 0.950 . S
H911 C889 0.950 . S
C912 C913 1.349 . S
C912 C914 1.327 . S
C912 H937 0.950 . S
C913 C912 1.349 . S
C913 C929 1.349 . S
C914 C912 1.327 . S
C914 C933 1.429 . S
C914 H938 0.950 . S
C915 C932 1.574 . S
C915 C934 1.368 . S
C915 H939 0.949 . S
H916 C920 0.949 . S
C917 C918 1.349 . S
C917 C919 1.327 . S
C917 H940 0.950 1_556 S
C918 C917 1.349 . S
C918 C930 1.349 . S
C919 C917 1.327 . S
C919 C935 1.429 . S
C919 H941 0.950 . S
C920 H916 0.949 . S
C920 C928 1.574 . S
C920 C936 1.368 . S
H921 C929 0.950 . S
H922 C927 0.950 . S
H923 C928 0.949 . S
H924 C930 0.950 . S
H925 C931 0.950 . S
H926 C932 0.949 . S
C927 H922 0.950 . S
C927 C929 1.327 . S
C927 C933 1.429 . S
C928 C920 1.574 . S
C928 H923 0.949 . S
C928 C934 1.368 . S
C929 C913 1.349 . S
C929 H921 0.950 . S
C929 C927 1.327 . S
C930 C918 1.349 . S
C930 H924 0.950 . S
C930 C931 1.327 . S
C931 H925 0.950 . S
C931 C930 1.327 . S
C931 C935 1.429 . S
C932 C915 1.574 . S
C932 H926 0.949 . S
C932 C936 1.368 . S
C933 C914 1.429 . S
C933 C927 1.429 . S
C933 C934 1.523 . S
C934 C915 1.368 . S
C934 C928 1.368 . S
C934 C933 1.523 . S
C935 C919 1.429 . S
C935 C931 1.429 . S
C935 C936 1.523 . S
C936 C920 1.368 . S
C936 C932 1.368 . S
C936 C935 1.523 . S
H937 C912 0.950 . S
H938 C914 0.950 . S
H939 C915 0.949 . S
H940 C917 0.950 1_554 S
H941 C919 0.950 . S
C942 C943 1.349 . S
C942 C944 1.327 . S
C942 H967 0.950 . S
C943 C942 1.349 . S
C943 C959 1.349 . S
C944 C942 1.327 . S
C944 C963 1.429 . S
C944 H968 0.950 . S
C945 C962 1.574 . S
C945 C964 1.368 . S
C945 H969 0.949 . S
H946 C950 0.949 . S
C947 C948 1.349 . S
C947 C949 1.327 . S
C947 H970 0.950 . S
C948 C947 1.349 . S
C948 C960 1.349 . S
C949 C947 1.327 . S
C949 C965 1.429 . S
C949 H971 0.950 . S
C950 H946 0.949 . S
C950 C958 1.574 . S
C950 C966 1.368 . S
H951 C959 0.950 . S
H952 C957 0.950 . S
H953 C958 0.949 . S
H954 C960 0.950 . S
H955 C961 0.950 . S
H956 C962 0.949 . S
C957 H952 0.950 . S
C957 C959 1.327 . S
C957 C963 1.429 . S
C958 C950 1.574 . S
C958 H953 0.949 . S
C958 C964 1.368 . S
C959 C943 1.349 . S
C959 H951 0.950 . S
C959 C957 1.327 . S
C960 C948 1.349 . S
C960 H954 0.950 . S
C960 C961 1.327 . S
C961 H955 0.950 . S
C961 C960 1.327 . S
C961 C965 1.429 . S
C962 C945 1.574 . S
C962 H956 0.949 . S
C962 C966 1.368 . S
C963 C944 1.429 . S
C963 C957 1.429 . S
C963 C964 1.523 . S
C964 C945 1.368 . S
C964 C958 1.368 . S
C964 C963 1.523 . S
C965 C949 1.429 . S
C965 C961 1.429 . S
C965 C966 1.523 . S
C966 C950 1.368 . S
C966 C962 1.368 . S
C966 C965 1.523 . S
H967 C942 0.950 . S
H968 C944 0.950 . S
H969 C945 0.949 . S
H970 C947 0.950 . S
H971 C949 0.950 . S
C972 C973 1.349 . S
C972 C974 1.327 . S
C972 H997 0.950 . S
C973 C972 1.349 . S
C973 C989 1.349 . S
C974 C972 1.327 . S
C974 C993 1.429 . S
C974 H998 0.950 . S
C975 C992 1.574 . S
C975 C994 1.368 . S
C975 H999 0.949 . S
H976 C980 0.949 . S
C977 C978 1.349 . S
C977 C979 1.327 . S
C977 H1000 0.950 . S
C978 C977 1.349 . S
C978 C990 1.349 . S
C979 C977 1.327 . S
C979 C995 1.429 . S
C979 H1001 0.950 . S
C980 H976 0.949 . S
C980 C988 1.574 . S
C980 C996 1.368 . S
H981 C989 0.950 . S
H982 C987 0.950 . S
H983 C988 0.949 . S
H984 C990 0.950 . S
H985 C991 0.950 . S
H986 C992 0.949 . S
C987 H982 0.950 . S
C987 C989 1.327 . S
C987 C993 1.429 . S
C988 C980 1.574 . S
C988 H983 0.949 . S
C988 C994 1.368 . S
C989 C973 1.349 . S
C989 H981 0.950 . S
C989 C987 1.327 . S
C990 C978 1.349 . S
C990 H984 0.950 . S
C990 C991 1.327 . S
C991 H985 0.950 . S
C991 C990 1.327 . S
C991 C995 1.429 . S
C992 C975 1.574 . S
C992 H986 0.949 . S
C992 C996 1.368 . S
C993 C974 1.429 . S
C993 C987 1.429 . S
C993 C994 1.523 . S
C994 C975 1.368 . S
C994 C988 1.368 . S
C994 C993 1.523 . S
C995 C979 1.429 . S
C995 C991 1.429 . S
C995 C996 1.523 . S
C996 C980 1.368 . S
C996 C992 1.368 . S
C996 C995 1.523 . S
H997 C972 0.950 . S
H998 C974 0.950 . S
H999 C975 0.949 . S
H1000 C977 0.950 . S
H1001 C979 0.950 . S
C1002 C1003 1.349 . S
C1002 C1004 1.327 . S
C1002 H1027 0.950 . S
C1003 C1002 1.349 . S
C1003 C1019 1.349 . S
C1004 C1002 1.327 . S
C1004 C1023 1.429 . S
C1004 H1028 0.950 . S
C1005 C1022 1.574 . S
C1005 C1024 1.368 . S
C1005 H1029 0.949 . S
H1006 C1010 0.949 . S
C1007 C1008 1.349 . S
C1007 C1009 1.327 . S
C1007 H1030 0.950 . S
C1008 C1007 1.349 . S
C1008 C1020 1.349 . S
C1009 C1007 1.327 . S
C1009 C1025 1.429 . S
C1009 H1031 0.950 . S
C1010 H1006 0.949 . S
C1010 C1018 1.574 . S
C1010 C1026 1.368 . S
H1011 C1019 0.950 . S
H1012 C1017 0.950 . S
H1013 C1018 0.949 . S
H1014 C1020 0.950 . S
H1015 C1021 0.950 . S
H1016 C1022 0.949 . S
C1017 H1012 0.950 . S
C1017 C1019 1.327 . S
C1017 C1023 1.429 . S
C1018 C1010 1.574 . S
C1018 H1013 0.949 . S
C1018 C1024 1.368 . S
C1019 C1003 1.349 . S
C1019 H1011 0.950 . S
C1019 C1017 1.327 . S
C1020 C1008 1.349 . S
C1020 H1014 0.950 . S
C1020 C1021 1.327 . S
C1021 H1015 0.950 . S
C1021 C1020 1.327 . S
C1021 C1025 1.429 . S
C1022 C1005 1.574 . S
C1022 H1016 0.949 . S
C1022 C1026 1.368 . S
C1023 C1004 1.429 . S
C1023 C1017 1.429 . S
C1023 C1024 1.523 . S
C1024 C1005 1.368 . S
C1024 C1018 1.368 . S
C1024 C1023 1.523 . S
C1025 C1009 1.429 . S
C1025 C1021 1.429 . S
C1025 C1026 1.523 . S
C1026 C1010 1.368 . S
C1026 C1022 1.368 . S
C1026 C1025 1.523 . S
H1027 C1002 0.950 . S
H1028 C1004 0.950 . S
H1029 C1005 0.949 . S
H1030 C1007 0.950 . S
H1031 C1009 0.950 . S
C313 C6 1.442 . S
C318 C167 1.449 . S
C343 C21 1.507 . S
C348 C207 1.548 . S
C378 C241 1.539 . S
C373 C49 1.442 . S
C403 C68 2.374 . S
C408 C282 2.427 1_655 S
C438 C202 2.439 . S
C433 C2 2.388 . S
C468 C162 1.760 1_565 S
C463 C30 1.711 . S
C498 C290 1.266 1_655 S
C493 C40 1.310 . S
C528 C251 1.605 . S
C523 C63 1.681 . S
C553 C11 1.095 . S
C558 C287 1.163 . S
C588 C210 2.265 . S
C583 C44 2.328 . S
C613 C59 1.943 . S
C618 C170 1.916 1_565 S
C643 C25 2.031 . S
C648 C238 2.046 . S
C678 C158 1.731 . S
C673 C82 1.739 . S
C703 C101 1.085 . S
C708 C198 1.106 . S
C733 C125 1.793 . S
C738 C250 1.914 . S
C763 C144 1.970 . S
C768 C291 1.955 . S
C793 C87 1.129 . S
C798 C211 1.191 1_565 S
C828 C171 2.947 . S
C823 C97 2.857 . S
C858 C281 1.313 . S
C853 C120 1.291 . S
C888 C242 1.580 . S
C883 C135 1.603 . S
C913 C78 1.779 . S
C918 C278 1.813 . S
C948 C201 1.423 . S
C943 C116 1.435 . S
C978 C161 2.640 . S
C973 C139 2.734 . S
C1003 C106 1.226 . S
C1008 C247 1.493 . S
