# Generated by pormake.
# Topology pyr, (3,6)-cn, num edge types: 1
# Building blocks:
#     Node 0, Type 0, BuildingBlock: MIDCAF_clean_linker_0, # of connection points: 3
#     Node 1, Type 0, BuildingBlock: MIDCAF_clean_linker_0, # of connection points: 3
#     Node 2, Type 0, BuildingBlock: MIDCAF_clean_linker_0, # of connection points: 3
#     Node 3, Type 0, BuildingBlock: MIDCAF_clean_linker_0, # of connection points: 3
#     Node 4, Type 0, BuildingBlock: MIDCAF_clean_linker_0, # of connection points: 3
#     Node 5, Type 0, BuildingBlock: MIDCAF_clean_linker_0, # of connection points: 3
#     Node 6, Type 0, BuildingBlock: MIDCAF_clean_linker_0, # of connection points: 3
#     Node 7, Type 0, BuildingBlock: MIDCAF_clean_linker_0, # of connection points: 3
#     Node 8, Type 1, BuildingBlock: INOVEN_clean_sbu_0, # of connection points: 6
#     Node 9, Type 1, BuildingBlock: INOVEN_clean_sbu_0, # of connection points: 6
#     Node 10, Type 1, BuildingBlock: INOVEN_clean_sbu_0, # of connection points: 6
#     Node 11, Type 1, BuildingBlock: INOVEN_clean_sbu_0, # of connection points: 6
#     Edge 12, Type (0, 1), BuildingBlock: XUDNAN_clean_linker_2, # of connection points: 2
#     Edge 13, Type (0, 1), BuildingBlock: XUDNAN_clean_linker_2, # of connection points: 2
#     Edge 14, Type (0, 1), BuildingBlock: XUDNAN_clean_linker_2, # of connection points: 2
#     Edge 15, Type (0, 1), BuildingBlock: XUDNAN_clean_linker_2, # of connection points: 2
#     Edge 16, Type (0, 1), BuildingBlock: XUDNAN_clean_linker_2, # of connection points: 2
#     Edge 17, Type (0, 1), BuildingBlock: XUDNAN_clean_linker_2, # of connection points: 2
#     Edge 18, Type (0, 1), BuildingBlock: XUDNAN_clean_linker_2, # of connection points: 2
#     Edge 19, Type (0, 1), BuildingBlock: XUDNAN_clean_linker_2, # of connection points: 2
#     Edge 20, Type (0, 1), BuildingBlock: XUDNAN_clean_linker_2, # of connection points: 2
#     Edge 21, Type (0, 1), BuildingBlock: XUDNAN_clean_linker_2, # of connection points: 2
#     Edge 22, Type (0, 1), BuildingBlock: XUDNAN_clean_linker_2, # of connection points: 2
#     Edge 23, Type (0, 1), BuildingBlock: XUDNAN_clean_linker_2, # of connection points: 2
#     Edge 24, Type (0, 1), BuildingBlock: XUDNAN_clean_linker_2, # of connection points: 2
#     Edge 25, Type (0, 1), BuildingBlock: XUDNAN_clean_linker_2, # of connection points: 2
#     Edge 26, Type (0, 1), BuildingBlock: XUDNAN_clean_linker_2, # of connection points: 2
#     Edge 27, Type (0, 1), BuildingBlock: XUDNAN_clean_linker_2, # of connection points: 2
#     Edge 28, Type (0, 1), BuildingBlock: XUDNAN_clean_linker_2, # of connection points: 2
#     Edge 29, Type (0, 1), BuildingBlock: XUDNAN_clean_linker_2, # of connection points: 2
#     Edge 30, Type (0, 1), BuildingBlock: XUDNAN_clean_linker_2, # of connection points: 2
#     Edge 31, Type (0, 1), BuildingBlock: XUDNAN_clean_linker_2, # of connection points: 2
#     Edge 32, Type (0, 1), BuildingBlock: XUDNAN_clean_linker_2, # of connection points: 2
#     Edge 33, Type (0, 1), BuildingBlock: XUDNAN_clean_linker_2, # of connection points: 2
#     Edge 34, Type (0, 1), BuildingBlock: XUDNAN_clean_linker_2, # of connection points: 2
#     Edge 35, Type (0, 1), BuildingBlock: XUDNAN_clean_linker_2, # of connection points: 2
# Relax obj value: 0.094
# Max RMSD: 0.127
# Mean RMSD: 0.059
data_MOF--net-pyr--node1-INOVEN_clean_sbu_0--node2-MIDCAF_clean_linker_0--edge1-XUDNAN_clean_linker_2
_symmetry_space_group_name_H-M    P1
_symmetry_Int_Tables_number       1
_symmetry_cell_setting            triclinic
loop_
_symmetry_equiv_pos_as_xyz
'x, y, z'
_cell_length_a     46.122913
_cell_length_b     48.667918
_cell_length_c     44.17134
_cell_angle_alpha  90.580102
_cell_angle_beta   88.393429
_cell_angle_gamma 100.43232
loop_
_atom_site_label
_atom_site_type_symbol
_atom_site_fract_x
_atom_site_fract_y
_atom_site_fract_z
_atom_type_partial_charge
C0 C 0.29655 0.28053 0.31843 0.0
C1 C 0.30286 0.25526 0.32911 0.0
C2 C 0.32645 0.24445 0.31581 0.0
C3 C 0.34187 0.25741 0.29061 0.0
H4 H 0.41702 0.26302 0.23066 0.0
H5 H 0.44877 0.23358 0.20713 0.0
H6 H 0.41392 0.24646 0.11972 0.0
H7 H 0.38188 0.27591 0.14325 0.0
H8 H 0.3464 0.33521 0.14475 0.0
H9 H 0.31282 0.35718 0.11525 0.0
H10 H 0.24706 0.34068 0.18768 0.0
H11 H 0.28073 0.32027 0.21734 0.0
H12 H 0.30511 0.31187 0.28416 0.0
H13 H 0.27839 0.28925 0.32823 0.0
H14 H 0.33188 0.22509 0.32387 0.0
H15 H 0.35876 0.24758 0.2798 0.0
N16 N 0.36703 0.28044 0.23364 0.0
N17 N 0.35834 0.30116 0.18776 0.0
N18 N 0.32905 0.30617 0.231 0.0
C19 C 0.37425 0.28573 0.20396 0.0
C20 C 0.33578 0.31163 0.20131 0.0
C21 C 0.34455 0.29071 0.24738 0.0
C22 C 0.39668 0.27162 0.18889 0.0
C23 C 0.41638 0.25995 0.20635 0.0
C24 C 0.43473 0.24319 0.19286 0.0
C25 C 0.43364 0.23755 0.16164 0.0
C26 C 0.41496 0.25023 0.14392 0.0
C27 C 0.39678 0.26725 0.15738 0.0
C28 C 0.31638 0.32611 0.18348 0.0
C29 C 0.32486 0.3366 0.1544 0.0
C30 C 0.30552 0.34902 0.13743 0.0
C31 C 0.27718 0.35088 0.14905 0.0
C32 C 0.2689 0.34038 0.17817 0.0
C33 C 0.28827 0.32843 0.19521 0.0
C34 C 0.33365 0.28121 0.27803 0.0
C35 C 0.31175 0.29336 0.29304 0.0
C36 C 0.14861 0.87398 0.68869 0.0
C37 C 0.15697 0.88041 0.65846 0.0
C38 C 0.17327 0.86336 0.64203 0.0
C39 C 0.18203 0.8407 0.65589 0.0
H40 H 0.22908 0.78055 0.63935 0.0
H41 H 0.26191 0.75542 0.61108 0.0
H42 H 0.26808 0.70473 0.68968 0.0
H43 H 0.23628 0.73091 0.71845 0.0
H44 H 0.22797 0.76348 0.78604 0.0
H45 H 0.2528 0.77644 0.83347 0.0
H46 H 0.23685 0.86081 0.82379 0.0
H47 H 0.21069 0.84739 0.77792 0.0
H48 H 0.15212 0.84765 0.72651 0.0
H49 H 0.13602 0.88697 0.7017 0.0
H50 H 0.17979 0.86798 0.6186 0.0
H51 H 0.19538 0.82847 0.64281 0.0
N52 N 0.19962 0.79418 0.686 0.0
N53 N 0.21886 0.77884 0.73002 0.0
N54 N 0.19282 0.81598 0.73253 0.0
C55 C 0.21465 0.77646 0.69972 0.0
C56 C 0.20801 0.79855 0.74659 0.0
C57 C 0.18827 0.81372 0.70231 0.0
C58 C 0.23034 0.75794 0.68129 0.0
C59 C 0.23704 0.76374 0.65051 0.0
C60 C 0.25585 0.74921 0.6342 0.0
C61 C 0.26804 0.72824 0.64815 0.0
C62 C 0.25977 0.72126 0.67841 0.0
C63 C 0.24132 0.7361 0.69487 0.0
C64 C 0.21764 0.80447 0.77803 0.0
C65 C 0.22914 0.78459 0.79458 0.0
C66 C 0.24362 0.79212 0.82165 0.0
C67 C 0.24745 0.81985 0.8324 0.0
C68 C 0.23415 0.83916 0.81674 0.0
C69 C 0.21918 0.83148 0.79011 0.0
C70 C 0.17514 0.83504 0.68667 0.0
C71 C 0.15787 0.85158 0.70281 0.0
C72 C 0.65116 0.27166 0.87878 0.0
C73 C 0.62294 0.26439 0.89295 0.0
C74 C 0.60467 0.28487 0.89288 0.0
C75 C 0.61459 0.31154 0.88 0.0
H76 H 0.6148 0.36219 0.78469 0.0
H77 H 0.59668 0.38225 0.74021 0.0
H78 H 0.65211 0.46151 0.75878 0.0
H79 H 0.67066 0.44136 0.80353 0.0
H80 H 0.73787 0.43159 0.8422 0.0
H81 H 0.78405 0.45069 0.86783 0.0
H82 H 0.75543 0.39661 0.94387 0.0
H83 H 0.71052 0.37727 0.91833 0.0
H84 H 0.68343 0.30328 0.85712 0.0
H85 H 0.66588 0.25675 0.87684 0.0
H86 H 0.58295 0.28079 0.90357 0.0
H87 H 0.60025 0.32688 0.8811 0.0
N88 N 0.64411 0.36051 0.8342 0.0
N89 N 0.68171 0.40028 0.83845 0.0
N90 N 0.68042 0.36188 0.87064 0.0
C91 C 0.65694 0.38671 0.82445 0.0
C92 C 0.69348 0.38804 0.86178 0.0
C93 C 0.65581 0.34797 0.85729 0.0
C94 C 0.64454 0.39989 0.79797 0.0
C95 C 0.62312 0.38396 0.77964 0.0
C96 C 0.61268 0.39553 0.75391 0.0
C97 C 0.6229 0.42359 0.74559 0.0
C98 C 0.64351 0.43993 0.76445 0.0
C99 C 0.65433 0.42822 0.79008 0.0
C100 C 0.7205 0.40239 0.87781 0.0
C101 C 0.74143 0.42396 0.86449 0.0
C102 C 0.76791 0.43502 0.87927 0.0
C103 C 0.77403 0.42487 0.90779 0.0
C104 C 0.75221 0.40448 0.9216 0.0
C105 C 0.72617 0.39335 0.90687 0.0
C106 C 0.64326 0.31881 0.86734 0.0
C107 C 0.66126 0.29844 0.86681 0.0
C108 C 0.77446 0.66826 0.40312 0.0
C109 C 0.76279 0.64101 0.39328 0.0
C110 C 0.77784 0.62947 0.3695 0.0
C111 C 0.8038 0.64468 0.35609 0.0
H112 H 0.86709 0.64227 0.28719 0.0
H113 H 0.89156 0.62312 0.24439 0.0
H114 H 0.95639 0.69912 0.23966 0.0
H115 H 0.93244 0.71793 0.28297 0.0
H116 H 0.93582 0.76361 0.34344 0.0
H117 H 0.95677 0.80582 0.37225 0.0
H118 H 0.8774 0.79608 0.42811 0.0
H119 H 0.85681 0.75451 0.40011 0.0
H120 H 0.80865 0.70418 0.39842 0.0
H121 H 0.76385 0.67781 0.42157 0.0
H122 H 0.76943 0.60868 0.36102 0.0
H123 H 0.8147 0.635 0.33794 0.0
N124 N 0.85742 0.67831 0.32818 0.0
N125 N 0.89524 0.71805 0.32933 0.0
N126 N 0.85612 0.71289 0.36521 0.0
C127 C 0.88313 0.6931 0.31616 0.0
C128 C 0.88177 0.72813 0.35397 0.0
C129 C 0.84371 0.68806 0.35269 0.0
C130 C 0.89778 0.68173 0.28905 0.0
C131 C 0.88656 0.65501 0.27707 0.0
C132 C 0.90054 0.644 0.25219 0.0
C133 C 0.92626 0.6593 0.2383 0.0
C134 C 0.93706 0.68627 0.24989 0.0
C135 C 0.92315 0.69723 0.27483 0.0
C136 C 0.89465 0.75512 0.3695 0.0
C137 C 0.92278 0.77059 0.36176 0.0
C138 C 0.93478 0.79491 0.37821 0.0
C139 C 0.91902 0.80427 0.40291 0.0
C140 C 0.89057 0.78932 0.40975 0.0
C141 C 0.87865 0.7653 0.39346 0.0
C142 C 0.81562 0.67184 0.36619 0.0
C143 C 0.80044 0.68338 0.38987 0.0
C144 C 0.64606 0.85722 0.87197 0.0
C145 C 0.6262 0.8491 0.89625 0.0
C146 C 0.62676 0.82371 0.91093 0.0
C147 C 0.64737 0.80711 0.90191 0.0
H148 H 0.70387 0.75363 0.93818 0.0
H149 H 0.72697 0.72528 0.97242 0.0
H150 H 0.77744 0.69953 0.89673 0.0
H151 H 0.75372 0.72641 0.86289 0.0
H152 H 0.76074 0.76007 0.79988 0.0
H153 H 0.79806 0.77686 0.76098 0.0
H154 H 0.77756 0.85987 0.77062 0.0
H155 H 0.73935 0.84268 0.80808 0.0
H156 H 0.68145 0.84778 0.84411 0.0
H157 H 0.64593 0.87655 0.86006 0.0
H158 H 0.61176 0.81705 0.92984 0.0
H159 H 0.64758 0.78785 0.91391 0.0
N160 N 0.69616 0.77776 0.88615 0.0
N161 N 0.7332 0.77006 0.85126 0.0
N162 N 0.7062 0.80525 0.84236 0.0
C163 C 0.71773 0.76329 0.87756 0.0
C164 C 0.72763 0.79094 0.83357 0.0
C165 C 0.69008 0.79864 0.86836 0.0
C166 C 0.72721 0.74264 0.89782 0.0
C167 C 0.71933 0.74129 0.92883 0.0
C168 C 0.73278 0.72523 0.9485 0.0
C169 C 0.75432 0.71022 0.9375 0.0
C170 C 0.76071 0.71035 0.90619 0.0
C171 C 0.74726 0.72616 0.88666 0.0
C172 C 0.74725 0.80009 0.80716 0.0
C173 C 0.7639 0.78179 0.79321 0.0
C174 C 0.78546 0.79149 0.77107 0.0
C175 C 0.79124 0.81985 0.76282 0.0
C176 C 0.77358 0.83782 0.77591 0.0
C177 C 0.75167 0.82799 0.7976 0.0
C178 C 0.66752 0.81546 0.8778 0.0
C179 C 0.66635 0.84059 0.86277 0.0
C180 C 0.75526 0.21338 0.29643 0.0
C181 C 0.72653 0.21633 0.28926 0.0
C182 C 0.70737 0.22292 0.31235 0.0
C183 C 0.71639 0.22551 0.34229 0.0
H184 H 0.68821 0.24158 0.42653 0.0
H185 H 0.6609 0.26661 0.46101 0.0
H186 H 0.72738 0.26765 0.52833 0.0
H187 H 0.75558 0.24297 0.49295 0.0
H188 H 0.79864 0.19311 0.47507 0.0
H189 H 0.83978 0.17022 0.48722 0.0
H190 H 0.87005 0.17663 0.39372 0.0
H191 H 0.82925 0.1996 0.38148 0.0
H192 H 0.78624 0.2125 0.33138 0.0
H193 H 0.77036 0.20804 0.27905 0.0
H194 H 0.68514 0.22544 0.30733 0.0
H195 H 0.70079 0.22992 0.35964 0.0
N196 N 0.73601 0.23028 0.40384 0.0
N197 N 0.76733 0.21945 0.44108 0.0
N198 N 0.77744 0.21127 0.38971 0.0
C199 C 0.74293 0.22956 0.43346 0.0
C200 C 0.78466 0.2102 0.41923 0.0
C201 C 0.75314 0.22128 0.38184 0.0
C202 C 0.72441 0.24075 0.45671 0.0
C203 C 0.69696 0.24674 0.44879 0.0
C204 C 0.68098 0.26081 0.46888 0.0
C205 C 0.6919 0.26919 0.49757 0.0
C206 C 0.71849 0.26167 0.5063 0.0
C207 C 0.73459 0.24749 0.48607 0.0
C208 C 0.81056 0.19806 0.42727 0.0
C209 C 0.81421 0.18987 0.45715 0.0
C210 C 0.83762 0.17661 0.46409 0.0
C211 C 0.85797 0.17157 0.44136 0.0
C212 C 0.85479 0.18043 0.41171 0.0
C213 C 0.83129 0.19344 0.40471 0.0
C214 C 0.74468 0.22123 0.34978 0.0
C215 C 0.76422 0.21569 0.32644 0.0
C216 C 0.28414 0.635 0.15828 0.0
C217 C 0.26208 0.64807 0.14605 0.0
C218 C 0.2671 0.67759 0.14644 0.0
C219 C 0.29272 0.69322 0.15921 0.0
H220 H 0.37962 0.75468 0.13279 0.0
H221 H 0.40029 0.80095 0.11245 0.0
H222 H 0.42638 0.82959 0.20195 0.0
H223 H 0.40663 0.78287 0.22228 0.0
H224 H 0.42138 0.72117 0.26516 0.0
H225 H 0.44209 0.69699 0.30588 0.0
H226 H 0.37985 0.62188 0.28696 0.0
H227 H 0.35932 0.64553 0.24691 0.0
H228 H 0.32514 0.63947 0.1812 0.0
H229 H 0.28232 0.61254 0.15755 0.0
H230 H 0.25096 0.68876 0.1376 0.0
H231 H 0.29554 0.7158 0.15944 0.0
N232 N 0.35315 0.72195 0.17788 0.0
N233 N 0.3886 0.72527 0.21592 0.0
N234 N 0.35222 0.68485 0.21159 0.0
C235 C 0.37733 0.73673 0.19159 0.0
C236 C 0.37617 0.69914 0.22608 0.0
C237 C 0.34035 0.69606 0.18775 0.0
C238 C 0.39132 0.76488 0.17929 0.0
C239 C 0.38999 0.77072 0.14818 0.0
C240 C 0.40201 0.79725 0.13641 0.0
C241 C 0.41503 0.81907 0.15549 0.0
C242 C 0.41651 0.81328 0.18659 0.0
C243 C 0.40523 0.78646 0.19825 0.0
C244 C 0.38867 0.68545 0.25217 0.0
C245 C 0.41197 0.69954 0.26979 0.0
C246 C 0.42376 0.68572 0.29338 0.0
C247 C 0.41284 0.65732 0.29979 0.0
C248 C 0.38914 0.64361 0.28266 0.0
C249 C 0.37727 0.65735 0.25949 0.0
C250 C 0.31383 0.67986 0.17257 0.0
C251 C 0.30917 0.65054 0.17171 0.0
C252 C 0.17006 0.28542 0.64446 0.0
C253 C 0.14113 0.27091 0.64971 0.0
C254 C 0.12355 0.28164 0.67193 0.0
C255 C 0.13428 0.30694 0.6873 0.0
H256 H 0.12438 0.36155 0.76596 0.0
H257 H 0.10191 0.38069 0.81022 0.0
H258 H 0.1633 0.45841 0.79977 0.0
H259 H 0.18552 0.43949 0.75537 0.0
H260 H 0.23776 0.44614 0.7042 0.0
H261 H 0.28219 0.47251 0.67955 0.0
H262 H 0.29101 0.40031 0.62489 0.0
H263 H 0.24707 0.37394 0.64959 0.0
H264 H 0.20299 0.32086 0.65422 0.0
H265 H 0.18458 0.27761 0.62812 0.0
H266 H 0.10115 0.27107 0.6766 0.0
H267 H 0.11989 0.31504 0.70354 0.0
N268 N 0.16052 0.36093 0.71851 0.0
N269 N 0.19683 0.40189 0.71718 0.0
N270 N 0.19952 0.36571 0.68249 0.0
C271 C 0.17167 0.38685 0.73007 0.0
C272 C 0.21095 0.39147 0.69338 0.0
C273 C 0.17444 0.35018 0.6946 0.0
C274 C 0.157 0.39876 0.75682 0.0
C275 C 0.13308 0.38276 0.77293 0.0
C276 C 0.12025 0.39376 0.79858 0.0
C277 C 0.13075 0.4212 0.80896 0.0
C278 C 0.15429 0.43736 0.79251 0.0
C279 C 0.16723 0.42632 0.76699 0.0
C280 C 0.23853 0.4078 0.679 0.0
C281 C 0.2492 0.43581 0.68703 0.0
C282 C 0.27467 0.45103 0.67272 0.0
C283 C 0.29037 0.43864 0.65011 0.0
C284 C 0.27987 0.41055 0.6424 0.0
C285 C 0.25438 0.39543 0.65652 0.0
C286 C 0.16289 0.32203 0.68086 0.0
C287 C 0.18069 0.31042 0.65964 0.0
Gd288 Gd 0.05136 0.04061 0.49948 0.0
Gd289 Gd 0.0177 1.02907 0.55866 0.0
C290 C 0.06288 0.08904 0.55004 0.0
C291 C 0.07254 0.05243 0.44568 0.0
C292 C 0.0947 0.07595 0.43412 0.0
C293 C 0.12121 0.0706 0.42113 0.0
C294 C 0.09107 0.10379 0.43858 0.0
C295 C 0.14083 0.12049 0.41864 0.0
C296 C 0.11384 0.12582 0.43075 0.0
C297 C 0.1441 0.09259 0.41365 0.0
C298 C 0.08037 1.01955 0.54299 0.0
C299 C 1.00542 0.98145 0.50757 0.0
C300 C 0.99967 1.01761 0.61367 0.0
C301 C 0.98345 0.99256 0.62885 0.0
C302 C 0.96216 0.99552 0.65127 0.0
C303 C 0.98725 0.96568 0.61964 0.0
C304 C 0.94782 0.94503 0.65454 0.0
C305 C 0.96971 0.94206 0.63261 0.0
C306 C 0.94442 0.97196 0.66397 0.0
C307 C 0.98928 0.05213 0.51584 0.0
O308 O 0.06475 0.08306 0.52081 0.0
O309 O 0.04809 0.07053 0.56934 0.0
O310 O 0.08274 0.03535 0.46354 0.0
O311 O 0.04712 0.05813 0.45527 0.0
O312 O 0.09283 0.03881 0.52436 0.0
O313 O 0.05362 1.01168 0.53702 0.0
O314 O 1.00498 0.98663 0.53705 0.0
O315 O 0.01902 1.00059 0.48829 0.0
O316 O 0.98451 1.0289 0.59426 0.0
O317 O 0.02657 1.01667 0.60393 0.0
O318 O 0.97615 0.03327 0.53464 0.0
O319 O 0.01616 0.05855 0.52166 0.0
H320 H 0.12461 0.04931 0.41774 0.0
H321 H 0.07093 0.10863 0.44874 0.0
H322 H 0.11031 0.14701 0.43437 0.0
H323 H 0.16467 0.08761 0.4048 0.0
H324 H 0.95882 1.01609 0.65849 0.0
H325 H 1.0033 0.96294 0.60201 0.0
H326 H 0.97264 0.92153 0.62486 0.0
H327 H 0.92793 0.9748 0.6811 0.0
Gd328 Gd 0.54633 0.04046 0.03129 0.0
Gd329 Gd 0.48775 0.03781 1.00728 0.0
C330 C 0.50384 0.08046 0.0605 0.0
C331 C 0.59832 0.05329 0.05359 0.0
C332 C 0.61422 0.07598 0.07235 0.0
C333 C 0.62505 0.06922 0.10011 0.0
C334 C 0.61783 0.10418 0.06372 0.0
C335 C 0.64192 0.1184 0.11103 0.0
C336 C 0.63182 0.12525 0.08289 0.0
C337 C 0.63862 0.09023 0.11936 0.0
C338 C 0.50679 0.99503 0.05123 0.0
C339 C 0.53153 0.99934 0.97755 0.0
C340 C 0.43513 1.02166 0.98764 0.0
C341 C 0.41788 0.99519 0.9766 0.0
C342 C 0.42994 0.97843 0.95538 0.0
C343 C 0.38904 0.9863 0.98788 0.0
C344 C 0.38395 0.94468 0.95598 0.0
C345 C 0.37225 0.96125 0.97777 0.0
C346 C 0.41308 0.95351 0.94506 0.0
C347 C 0.52614 0.08373 0.98716 0.0
O348 O 0.53114 0.07669 0.05527 0.0
O349 O 0.48152 0.06485 0.04707 0.0
O350 O 0.57637 0.03694 0.0672 0.0
O351 O 0.59245 0.05937 1.02593 0.0
O352 O 0.53377 0.99448 0.04274 0.0
O353 O 0.5019 1.01973 0.04901 0.0
O354 O 0.50396 1.001 0.98488 0.0
O355 O 0.55344 1.0168 0.98933 0.0
O356 O 0.45733 0.03358 0.97042 0.0
O357 O 0.44126 1.0224 1.01638 0.0
O358 O 0.49838 0.08304 0.99312 0.0
O359 O 0.53214 0.05942 0.9901 0.0
H360 H 0.62259 0.04763 0.10715 0.0
H361 H 0.60954 0.11 0.04246 0.0
H362 H 0.63409 0.14688 0.0761 0.0
H363 H 0.64657 0.08444 0.14081 0.0
H364 H 0.45227 0.98467 0.94651 0.0
H365 H 0.37947 0.99878 1.00452 0.0
H366 H 0.35009 0.95489 0.98704 0.0
H367 H 0.42271 0.94156 0.92795 0.0
Gd368 Gd 0.52589 0.51491 0.50015 0.0
Gd369 Gd 0.5229 0.56464 0.53565 0.0
C370 C 0.55191 0.51424 0.5659 0.0
C371 C 0.53705 0.47514 0.4656 0.0
C372 C 0.55197 0.45192 0.47387 0.0
C373 C 0.53739 0.42981 0.49211 0.0
C374 C 0.58221 0.45373 0.46716 0.0
C375 C 0.58353 0.41355 0.49902 0.0
C376 C 0.59784 0.43483 0.47972 0.0
C377 C 0.55303 0.41079 0.50451 0.0
C378 C 0.47716 0.50981 0.53714 0.0
C379 C 0.49873 0.56411 0.46823 0.0
C380 C 0.5101 0.60103 0.57446 0.0
C381 C 0.48616 0.61715 0.57593 0.0
C382 C 0.48684 0.63927 0.59652 0.0
C383 C 0.46218 0.61014 0.55681 0.0
C384 C 0.43864 0.64624 0.58008 0.0
C385 C 0.43851 0.62432 0.55905 0.0
C386 C 0.46334 0.65384 0.59848 0.0
C387 C 0.57257 0.56997 0.50018 0.0
O388 O 0.55221 0.50389 0.53829 0.0
O389 O 0.54029 0.53702 0.57112 0.0
O390 O 0.511 0.47506 0.47812 0.0
O391 O 0.55362 0.5 0.46562 0.0
O392 O 0.49305 0.49065 0.53317 0.0
O393 O 0.4875 0.53091 0.52109 0.0
O394 O 0.49609 0.57465 0.49574 0.0
O395 O 0.51251 0.54273 0.46432 0.0
O396 O 0.52928 0.60737 0.55219 0.0
O397 O 0.50185 0.57407 0.5779 0.0
O398 O 0.55783 0.5898 0.50547 0.0
O399 O 0.56133 0.54853 0.51528 0.0
H400 H 0.51411 0.42776 0.49781 0.0
H401 H 0.59405 0.47044 0.45312 0.0
H402 H 0.62123 0.437 0.47449 0.0
H403 H 0.54144 0.39448 0.51918 0.0
H404 H 0.50541 0.64513 0.6112 0.0
H405 H 0.46155 0.59337 0.54044 0.0
H406 H 0.41982 0.61752 0.5448 0.0
H407 H 0.46452 0.67097 0.61449 0.0
Gd408 Gd 0.02219 0.5049 0.04491 0.0
Gd409 Gd 0.01811 0.55937 1.01041 0.0
C410 C 0.07763 0.55443 0.04664 0.0
C411 C 0.02878 0.45587 0.06198 0.0
C412 C 0.05525 0.44332 0.06496 0.0
C413 C 0.05603 0.42325 0.0873 0.0
C414 C 0.08049 0.45244 0.04665 0.0
C415 C 0.10698 0.42145 0.07289 0.0
C416 C 0.10603 0.44135 0.05035 0.0
C417 C 0.08178 0.41248 0.09136 0.0
C418 C 1.0039 0.54552 0.079 0.0
C419 C 0.9635 0.50635 1.00547 0.0
C420 C 1.00471 0.60738 0.99956 0.0
C421 C 0.97717 0.61885 1.00189 0.0
C422 C 0.96587 0.6283 0.97557 0.0
C423 C 0.96114 0.61912 1.02946 0.0
C424 C 0.92247 0.63712 1.00388 0.0
C425 C 0.93409 0.62838 1.03045 0.0
C426 C 0.93875 0.63721 0.97651 0.0
C427 C 0.04853 0.52676 0.97486 0.0
O428 O 0.06926 0.527 0.04461 0.0
O429 O 0.06034 0.57166 0.03745 0.0
O430 O 0.02637 0.4761 0.08103 0.0
O431 O 0.02211 0.46137 0.03437 0.0
O432 O 0.02073 0.52899 0.08844 0.0
O433 O 0.99636 0.53915 0.05205 0.0
O434 O 0.97363 0.53293 0.99855 0.0
O435 O 0.97814 0.49214 1.02319 0.0
O436 O 1.00527 0.58818 0.97865 0.0
O437 O 0.01653 0.60174 1.02493 0.0
O438 O 0.04384 0.55114 0.9669 0.0
O439 O 0.03769 0.52232 1.00122 0.0
H440 H 0.03687 0.4162 0.10184 0.0
H441 H 0.08066 0.46848 1.02982 0.0
H442 H 0.12531 0.44889 0.03614 0.0
H443 H 0.08202 0.39711 0.10888 0.0
H444 H 0.97783 0.62836 0.95409 0.0
H445 H 0.96919 0.61182 0.05015 0.0
H446 H 0.92193 0.62809 0.05181 0.0
H447 H 0.93055 0.64429 0.95577 0.0
H448 H 0.27741 0.20104 0.32175 0.0
H449 H 0.27986 0.2714 0.38318 0.0
H450 H 0.24005 0.24358 0.41486 0.0
H451 H 0.20105 0.18179 0.32223 0.0
H452 H 0.20063 0.14472 0.3199 0.0
H453 H 0.23162 0.16881 0.3045 0.0
H454 H 0.26705 0.14725 0.3378 0.0
H455 H 0.23617 0.12285 0.35311 0.0
H456 H 0.2604 0.14501 0.37819 0.0
H457 H 0.19805 0.20848 0.43796 0.0
H458 H 0.15714 0.1697 0.45031 0.0
H459 H 0.18087 0.12421 0.37101 0.0
C460 C 0.27022 0.2103 0.3424 0.0
C461 C 0.28201 0.23811 0.35045 0.0
C462 C 0.27124 0.24997 0.37692 0.0
C463 C 0.24872 0.23433 0.39498 0.0
C464 C 0.23717 0.20706 0.38601 0.0
C465 C 0.24761 0.19519 0.36032 0.0
C466 C 0.23005 0.16644 0.35411 0.0
C467 C 0.21494 0.16541 0.32337 0.0
C468 C 0.24959 0.14407 0.35593 0.0
C469 C 0.20782 0.16401 0.38014 0.0
C470 C 0.21242 0.18747 0.3985 0.0
C471 C 0.19427 0.19002 0.42373 0.0
C472 C 0.17089 0.16797 0.43036 0.0
C473 C 0.16562 0.14383 0.41159 0.0
C474 C 0.18446 0.14206 0.38616 0.0
H475 H 0.24369 0.86136 0.87465 0.0
H476 H 0.29858 0.80152 0.84616 0.0
H477 H 0.33639 0.82286 0.88154 0.0
H478 H 0.30001 0.91764 0.87217 0.0
H479 H 0.28713 0.93606 0.90396 0.0
H480 H 0.26126 0.91217 0.88232 0.0
H481 H 0.2425 0.88462 0.93109 0.0
H482 H 0.2683 0.90859 0.95298 0.0
H483 H 0.26839 0.8716 0.95447 0.0
H484 H 0.37145 0.85473 0.91401 0.0
H485 H 0.40092 0.89496 0.94009 0.0
H486 H 0.32517 0.93657 0.94297 0.0
C487 C 0.2634 0.85234 0.87612 0.0
C488 C 0.26783 0.82954 0.85754 0.0
C489 C 0.29403 0.81845 0.86054 0.0
C490 C 0.31587 0.83058 0.88052 0.0
C491 C 0.31131 0.85384 0.89736 0.0
C492 C 0.28567 0.86456 0.89542 0.0
C493 C 0.28777 0.89187 0.91264 0.0
C494 C 0.28383 0.91584 0.89151 0.0
C495 C 0.26541 0.88898 0.93939 0.0
C496 C 0.31904 0.89539 0.92354 0.0
C497 C 0.33202 0.87293 0.91511 0.0
C498 C 0.3614 0.87229 0.92103 0.0
C499 C 0.37806 0.89539 0.93557 0.0
C500 C 0.36544 0.91904 0.94357 0.0
C501 C 0.33537 0.91866 0.93784 0.0
H502 H 0.60374 0.4741 0.7332 0.0
H503 H 0.62152 0.39796 0.69051 0.0
H504 H 0.60642 0.41369 0.64158 0.0
H505 H 0.53842 0.47801 0.69011 0.0
H506 H 0.54588 0.51552 0.68671 0.0
H507 H 0.55899 0.49918 0.71877 0.0
H508 H 0.61221 0.52445 0.70628 0.0
H509 H 0.59925 0.54087 0.67418 0.0
H510 H 0.62811 0.52061 0.66907 0.0
H511 H 0.59001 0.43679 0.59717 0.0
H512 H 0.57108 0.46484 0.55952 0.0
H513 H 0.56092 0.52716 0.62839 0.0
C514 C 0.60458 0.46085 0.71348 0.0
C515 C 0.61383 0.43454 0.71603 0.0
C516 C 0.6143 0.4179 0.68954 0.0
C517 C 0.60586 0.42676 0.66147 0.0
C518 C 0.59666 0.45245 0.65978 0.0
C519 C 0.59573 0.46931 0.68498 0.0
C520 C 0.58398 0.49564 0.67645 0.0
C521 C 0.5551 0.49717 0.69406 0.0
C522 C 0.60728 0.52196 0.68182 0.0
C523 C 0.57855 0.49085 0.64259 0.0
C524 C 0.58633 0.46578 0.63373 0.0
C525 C 0.5838 0.45642 0.60391 0.0
C526 C 0.57294 0.47278 0.58251 0.0
C527 C 0.56429 0.49859 0.59048 0.0
C528 C 0.56724 0.50769 0.62124 0.0
H529 H 0.90382 0.62334 0.19102 0.0
H530 H 0.98619 0.66607 0.22822 0.0
H531 H 1.01376 0.64558 0.1882 0.0
H532 H 0.92864 0.55974 0.17259 0.0
H533 H 0.90881 0.55346 0.13787 0.0
H534 H 0.89507 0.57316 0.16803 0.0
H535 H 0.89486 0.61407 0.13111 0.0
H536 H 0.90897 0.59463 0.10087 0.0
H537 H 0.92836 0.62896 0.11078 0.0
H538 H 0.03317 0.61793 0.14692 0.0
H539 H 0.04292 0.58403 0.10772 0.0
H540 H 0.94904 0.55863 0.09513 0.0
C541 C 0.92766 0.62851 0.19076 0.0
C542 C 0.94259 0.64687 0.21297 0.0
C543 C 0.97389 0.65283 0.21138 0.0
C544 C 0.9899 0.6411 0.18868 0.0
C545 C 0.97456 0.62328 0.1673 0.0
C546 C 0.94413 0.61695 0.16803 0.0
C547 C 0.93332 0.59617 0.14286 0.0
C548 C 0.9154 0.56902 0.15614 0.0
C549 C 0.9153 0.60924 0.12006 0.0
C550 C 0.96244 0.59129 0.12846 0.0
C551 C 0.98588 0.60742 0.14289 0.0
C552 C 0.01498 0.60554 0.13518 0.0
C553 C 0.02034 0.58628 0.11277 0.0
C554 C 0.99687 0.56918 0.09782 0.0
C555 C 0.96747 0.57208 0.10544 0.0
H556 H 0.41324 0.19477 0.12285 0.0
H557 H 0.49123 0.23315 0.17076 0.0
H558 H 0.51766 0.19652 0.1509 0.0
H559 H 0.42009 0.12425 0.13588 0.0
H560 H 0.4072 0.11187 0.09919 0.0
H561 H 0.39483 0.14162 0.11626 0.0
H562 H 0.41336 0.17141 0.06889 0.0
H563 H 0.42547 0.14166 0.05154 0.0
H564 H 0.45114 0.17401 0.05585 0.0
H565 H 0.53534 0.15548 0.12573 0.0
H566 H 0.54316 0.11358 0.09685 0.0
H567 H 0.45295 0.10182 0.06655 0.0
C568 C 0.43604 0.19574 0.12876 0.0
C569 C 0.4503 0.21689 0.14816 0.0
C570 C 0.47992 0.21707 0.15596 0.0
C571 C 0.49508 0.1964 0.14477 0.0
C572 C 0.48022 0.17565 0.12598 0.0
C573 C 0.45138 0.17521 0.118 0.0
C574 C 0.44021 0.15038 0.09794 0.0
C575 C 0.41404 0.13088 0.11325 0.0
C576 C 0.43208 0.15995 0.0667 0.0
C577 C 0.46728 0.1369 0.09582 0.0
C578 C 0.49016 0.1518 0.11207 0.0
C579 C 0.51755 0.14361 0.11299 0.0
C580 C 0.52175 0.11976 0.09656 0.0
C581 C 0.49861 0.1043 0.07959 0.0
C582 C 0.47099 0.11296 0.07954 0.0
H583 H 0.10293 0.89375 0.64819 0.0
H584 H 0.1969 0.92382 0.63666 0.0
H585 H 0.18712 0.96571 0.61044 0.0
H586 H 0.08425 0.91275 0.57597 0.0
H587 H 0.04989 0.92287 0.58762 0.0
H588 H 0.06413 0.89721 0.60898 0.0
H589 H 0.06194 0.9271 0.65759 0.0
H590 H 0.04785 0.95295 0.63626 0.0
H591 H 0.08065 0.96299 0.65791 0.0
H592 H 0.16759 1.0022 0.58267 0.0
H593 H 0.13944 1.02992 0.55211 0.0
H594 H 0.05799 0.97537 0.5796 0.0
C595 C 0.1213 0.90953 0.64063 0.0
C596 C 0.15063 0.90594 0.6445 0.0
C597 C 0.17431 0.92646 0.63383 0.0
C598 C 0.16896 0.95031 0.61912 0.0
C599 C 0.13981 0.95315 0.61521 0.0
C600 C 0.11632 0.93331 0.6255 0.0
C601 C 0.08721 0.94025 0.61588 0.0
C602 C 0.0704 0.91689 0.59592 0.0
C603 C 0.0683 0.94618 0.64357 0.0
C604 C 0.09811 0.96658 0.59787 0.0
C605 C 0.12848 0.97394 0.5983 0.0
C606 C 0.14378 0.99683 0.58234 0.0
C607 C 0.12765 1.0124 0.56504 0.0
C608 C 0.09665 1.00473 0.56359 0.0
C609 C 0.08169 0.9818 0.58056 0.0
H610 H 0.81061 0.47794 0.91211 0.0
H611 H 0.80504 0.39091 0.93679 0.0
H612 H 0.85113 0.40308 0.96413 0.0
H613 H 0.89131 0.4924 0.90066 0.0
H614 H 0.89592 0.52728 0.91617 0.0
H615 H 0.86209 0.51231 0.89809 0.0
H616 H 0.83245 0.52164 0.94649 0.0
H617 H 0.8662 0.5365 0.96476 0.0
H618 H 0.84119 0.50792 0.9822 0.0
H619 H 0.89639 0.42354 0.99022 0.0
H620 H 0.94093 0.45095 1.0115 0.0
H621 H 0.92143 0.52598 0.97005 0.0
C622 C 0.81922 0.46145 0.92309 0.0
C623 C 0.80345 0.43338 0.92262 0.0
C624 C 0.81584 0.41259 0.93733 0.0
C625 C 0.84228 0.41928 0.95286 0.0
C626 C 0.85677 0.44695 0.95351 0.0
C627 C 0.84603 0.46779 0.93886 0.0
C628 C 0.86672 0.49583 0.9433 0.0
C629 C 0.87979 0.50765 0.91273 0.0
C630 C 0.85068 0.51671 0.96019 0.0
C631 C 0.89049 0.4873 0.9628 0.0
C632 C 0.88395 0.45895 0.96834 0.0
C633 C 0.90184 0.44576 0.98593 0.0
C634 C 0.92724 0.46172 0.99807 0.0
C635 C 0.93515 0.49088 0.99271 0.0
C636 C 0.91626 0.50382 0.97472 0.0
H637 H 0.71224 0.6598 0.41298 0.0
H638 H 0.7511 0.58504 0.40778 0.0
H639 H 0.70671 0.55835 0.43354 0.0
H640 H 0.67859 0.64722 0.48687 0.0
H641 H 0.64607 0.66088 0.47789 0.0
H642 H 0.68057 0.67379 0.45835 0.0
H643 H 0.65595 0.66106 0.40684 0.0
H644 H 0.62137 0.64812 0.42623 0.0
H645 H 0.63712 0.62581 0.40013 0.0
H646 H 0.65778 0.53991 0.46193 0.0
H647 H 0.60898 0.53174 0.48873 0.0
H648 H 0.60236 0.61843 0.47485 0.0
C649 C 0.71156 0.63784 0.41732 0.0
C650 C 0.73541 0.62464 0.40819 0.0
C651 C 0.73314 0.59569 0.41408 0.0
C652 C 0.70801 0.58034 0.42892 0.0
C653 C 0.68503 0.59406 0.43773 0.0
C654 C 0.68658 0.62217 0.43199 0.0
C655 C 0.65897 0.63208 0.44377 0.0
C656 C 0.66651 0.65483 0.46817 0.0
C657 C 0.64237 0.64237 0.41769 0.0
C658 C 0.64173 0.60526 0.45727 0.0
C659 C 0.65708 0.58351 0.45363 0.0
C660 C 0.6456 0.55683 0.46476 0.0
C661 C 0.61786 0.55235 0.47998 0.0
C662 C 0.60178 0.57438 0.48389 0.0
C663 C 0.61401 0.6011 0.47221 0.0
H664 H 0.23622 0.38187 0.16946 0.0
H665 H 0.26895 0.34645 0.08747 0.0
H666 H 0.23065 0.36305 0.05837 0.0
H667 H 0.16095 0.36007 0.15414 0.0
H668 H 0.14959 0.39065 0.17047 0.0
H669 H 0.18171 0.37902 0.18415 0.0
H670 H 0.21333 0.42775 0.17306 0.0
H671 H 0.18125 0.4396 0.1595 0.0
H672 H 0.21395 0.44223 0.13559 0.0
H673 H 0.18695 0.38164 0.03866 0.0
H674 H 0.14091 0.39974 1.03042 0.0
H675 H 0.13511 0.41938 0.1261 0.0
C676 C 0.23546 0.37752 0.14539 0.0
C677 C 0.25577 0.36281 0.13085 0.0
C678 C 0.25409 0.35809 0.09915 0.0
C679 C 0.23225 0.36727 0.08242 0.0
C680 C 0.21216 0.38102 0.09772 0.0
C681 C 0.2136 0.38609 0.1285 0.0
C682 C 0.1884 0.39974 0.13999 0.0
C683 C 0.16902 0.38126 0.16357 0.0
C684 C 0.19993 0.42907 0.15278 0.0
C685 C 0.17226 0.40122 0.11091 0.0
C686 C 0.18649 0.39069 0.08667 0.0
C687 C 0.17566 0.38996 0.05747 0.0
C688 C 0.14958 0.40027 0.05299 0.0
C689 C 0.1345 0.41071 0.07767 0.0
C690 C 0.14607 0.41118 0.10693 0.0
H691 H 0.56572 0.23383 0.9052 0.0
H692 H 0.65817 0.22992 0.91734 0.0
H693 H 0.64379 0.18366 0.94005 0.0
H694 H 0.54141 0.20205 0.97806 0.0
H695 H 0.50683 0.18366 0.96415 0.0
H696 H 0.52425 0.21615 0.94705 0.0
H697 H 0.5231 0.19182 0.8946 0.0
H698 H 0.50583 0.15923 0.91157 0.0
H699 H 0.53969 0.1612 0.88965 0.0
H700 H 0.61942 0.13588 0.96056 0.0
H701 H 0.58678 0.09376 0.98122 0.0
H702 H 0.51039 0.13021 0.96157 0.0
C703 C 0.58315 0.22359 0.91273 0.0
C704 C 0.6134 0.23607 0.90821 0.0
C705 C 0.63492 0.22111 0.91886 0.0
C706 C 0.62696 0.19461 0.93232 0.0
C707 C 0.59719 0.18297 0.93594 0.0
C708 C 0.57558 0.1972 0.92692 0.0
C709 C 0.5451 0.18043 0.93472 0.0
C710 C 0.52841 0.19653 0.95734 0.0
C711 C 0.52739 0.17272 0.90592 0.0
C712 C 0.55299 0.15457 0.94928 0.0
C713 C 0.5832 0.1563 0.94944 0.0
C714 C 0.59573 0.13451 0.96079 0.0
C715 C 0.57701 0.11056 0.97249 0.0
C716 C 0.546 0.10857 0.97337 0.0
C717 C 0.53401 0.13104 0.96151 0.0
H718 H 0.95159 0.85682 0.38701 0.0
H719 H 0.91641 0.80631 0.46462 0.0
H720 H 0.93451 0.84558 0.49867 0.0
H721 H 0.01811 0.89357 0.42388 0.0
H722 H 0.01737 0.92648 0.40583 0.0
H723 H 1.00233 0.89419 0.38706 0.0
H724 H 0.95256 0.91097 0.38212 0.0
H725 H 0.9674 0.94324 0.401 0.0
H726 H 0.93414 0.92164 0.41559 0.0
H727 H 0.95495 0.89024 0.52482 0.0
H728 H 0.97772 0.93731 0.54164 0.0
H729 H 1.00089 0.96071 0.4482 0.0
C730 C 0.94799 0.85396 0.41118 0.0
C731 C 0.93217 0.8283 0.42295 0.0
C732 C 0.92788 0.8257 0.45481 0.0
C733 C 0.93825 0.84793 0.47446 0.0
C734 C 0.95313 0.87297 0.46221 0.0
C735 C 0.9582 0.8762 0.43135 0.0
C736 C 0.97459 0.90571 0.42442 0.0
C737 C 1.0049 0.90493 0.40941 0.0
C738 C 0.95606 0.92131 0.40461 0.0
C739 C 0.97775 0.91844 0.45615 0.0
C740 C 0.96518 0.89903 0.4775 0.0
C741 C 0.96495 0.90558 0.50829 0.0
C742 C 0.97797 0.93256 0.51763 0.0
C743 C 0.99123 0.95306 0.49641 0.0
C744 C 0.99101 0.9457 0.46513 0.0
H745 H 0.3172 0.71305 0.67182 0.0
H746 H 0.2709 0.71411 0.58763 0.0
H747 H 0.31076 0.69547 0.56053 0.0
H748 H 0.39026 0.73205 0.64161 0.0
H749 H 0.40543 0.70887 0.66572 0.0
H750 H 0.37366 0.72297 0.67844 0.0
H751 H 0.3443 0.67291 0.68761 0.0
H752 H 0.37612 0.6587 0.67534 0.0
H753 H 0.34138 0.64764 0.6572 0.0
H754 H 0.35651 0.67777 0.54252 0.0
H755 H 0.40219 0.65853 0.53568 0.0
H756 H 0.41565 0.66541 0.63264 0.0
C757 C 0.31502 0.70895 0.64778 0.0
C758 C 0.29082 0.71517 0.63192 0.0
C759 C 0.2894 0.70998 0.60028 0.0
C760 C 0.31188 0.69929 0.58468 0.0
C761 C 0.3355 0.69369 0.60106 0.0
C762 C 0.337 0.69802 0.63196 0.0
C763 C 0.3643 0.68962 0.64447 0.0
C764 C 0.3846 0.71489 0.65838 0.0
C765 C 0.35602 0.6658 0.66751 0.0
C766 C 0.3779 0.67975 0.61577 0.0
C767 C 0.36118 0.68257 0.59091 0.0
C768 C 0.3696 0.67516 0.56188 0.0
C769 C 0.39552 0.66408 0.55828 0.0
C770 C 0.41253 0.66014 0.58364 0.0
C771 C 0.40355 0.66841 0.61267 0.0
H772 H 0.79591 0.86247 0.72132 0.0
H773 H 0.84547 0.80383 0.75943 0.0
H774 H 0.8897 0.82614 0.73054 0.0
H775 H 0.83479 0.87156 0.6467 0.0
H776 H 0.8339 0.90843 0.64615 0.0
H777 H 0.80481 0.88473 0.66539 0.0
H778 H 0.81437 0.91396 0.71468 0.0
H779 H 0.84353 0.93761 0.69569 0.0
H780 H 0.85087 0.92046 0.72989 0.0
H781 H 0.93005 0.85797 0.70196 0.0
H782 H 0.96315 0.89763 0.67718 0.0
H783 H 0.8879 0.93693 0.66072 0.0
C784 C 0.81591 0.85404 0.72342 0.0
C785 C 0.81693 0.83118 0.7426 0.0
C786 C 0.8437 0.82084 0.7444 0.0
C787 C 0.8691 0.8335 0.72818 0.0
C788 C 0.86749 0.85653 0.71029 0.0
C789 C 0.84155 0.86668 0.7078 0.0
C790 C 0.84628 0.89337 0.68962 0.0
C791 C 0.82891 0.88926 0.66022 0.0
C792 C 0.8383 0.91778 0.70861 0.0
C793 C 0.87912 0.89714 0.68313 0.0
C794 C 0.89089 0.8754 0.6947 0.0
C795 C 0.92103 0.87495 0.69251 0.0
C796 C 0.93964 0.89749 0.67842 0.0
C797 C 0.92802 0.92027 0.66722 0.0
C798 C 0.89734 0.91981 0.66928 0.0
H799 H 0.67606 0.18161 0.27425 0.0
H800 H 0.75321 0.23485 0.23501 0.0
H801 H 0.73672 0.21944 0.18363 0.0
H802 H 0.6781 0.12545 0.22671 0.0
H803 H 0.6387 0.11496 0.22428 0.0
H804 H 0.65412 0.13341 0.25722 0.0
H805 H 0.62216 0.17135 0.24952 0.0
H806 H 0.60647 0.15289 0.21655 0.0
H807 H 0.62398 0.18905 0.21367 0.0
H808 H 0.71364 0.195 0.13696 0.0
H809 H 0.68766 0.16169 0.0995 0.0
H810 H 0.62691 0.12391 0.17034 0.0
C811 C 0.68899 0.1907 0.25479 0.0
C812 C 0.71562 0.20971 0.25841 0.0
C813 C 0.73261 0.22037 0.23254 0.0
C814 C 0.72334 0.21186 0.20337 0.0
C815 C 0.69713 0.19267 0.2006 0.0
C816 C 0.68024 0.18222 0.22569 0.0
C817 C 0.65469 0.15972 0.21706 0.0
C818 C 0.65654 0.13174 0.23221 0.0
C819 C 0.62507 0.16881 0.22465 0.0
C820 C 0.66024 0.15855 0.18327 0.0
C821 C 0.68445 0.17803 0.17403 0.0
C822 C 0.69447 0.17988 0.14389 0.0
C823 C 0.67962 0.16099 0.12281 0.0
C824 C 0.65545 0.14035 0.13221 0.0
C825 C 0.64541 0.13952 0.16267 0.0
H826 H 0.42942 0.67016 0.36014 0.0
H827 H 0.42877 0.6068 0.29018 0.0
H828 H 0.44985 0.57745 0.32545 0.0
H829 H 0.49846 0.66045 0.39455 0.0
H830 H 0.48584 0.66514 0.43292 0.0
H831 H 0.47125 0.68212 0.40222 0.0
H832 H 0.41832 0.65911 0.41895 0.0
H833 H 0.43276 0.64197 0.44962 0.0
H834 H 0.4092 0.62164 0.42255 0.0
H835 H 0.47066 0.55436 0.36725 0.0
H836 H 0.49013 0.5383 0.41358 0.0
H837 H 0.47763 0.61468 0.45982 0.0
C838 C 0.43396 0.65021 0.35224 0.0
C839 C 0.42714 0.64087 0.3221 0.0
C840 C 0.43331 0.61445 0.31299 0.0
C841 C 0.44545 0.59757 0.33293 0.0
C842 C 0.45143 0.60706 0.36237 0.0
C843 C 0.44595 0.6327 0.37221 0.0
C844 C 0.4542 0.6372 0.40551 0.0
C845 C 0.47891 0.66275 0.409 0.0
C846 C 0.427 0.64016 0.42533 0.0
C847 C 0.46512 0.61013 0.41263 0.0
C848 C 0.46331 0.59326 0.38714 0.0
C849 C 0.47217 0.56741 0.38733 0.0
C850 C 0.48332 0.55846 0.41401 0.0
C851 C 0.48564 0.57502 0.4408 0.0
C852 C 0.47613 0.60131 0.43999 0.0
H853 H 0.12002 0.47496 0.82067 0.0
H854 H 0.11232 0.39335 0.86202 0.0
H855 H 0.09156 0.41138 0.90865 0.0
H856 H 0.14107 0.51567 0.88838 0.0
H857 H 0.1202 0.5424 0.87975 0.0
H858 H 0.13458 0.52318 0.84953 0.0
H859 H 0.0821 0.50881 0.82859 0.0
H860 H 0.06758 0.52802 0.8587 0.0
H861 H 0.05266 0.49151 0.85314 0.0
H862 H 0.07144 0.43857 0.95163 0.0
H863 H 0.05238 0.4721 0.98584 0.0
H864 H 0.07311 0.53619 0.91739 0.0
C865 C 0.11418 0.46087 0.83956 0.0
C866 C 0.11786 0.43252 0.83728 0.0
C867 C 0.10944 0.41494 0.86268 0.0
C868 C 0.09777 0.42508 0.8895 0.0
C869 C 0.09446 0.45301 0.89092 0.0
C870 C 0.10233 0.47065 0.86657 0.0
C871 C 0.09606 0.4997 0.87385 0.0
C872 C 0.12468 0.52153 0.87282 0.0
C873 C 0.07324 0.50746 0.85229 0.0
C874 C 0.08344 0.49565 0.90606 0.0
C875 C 0.08282 0.46858 0.91553 0.0
C876 C 0.07194 0.45982 0.94436 0.0
C877 C 0.06125 0.47907 0.96383 0.0
C878 C 0.0614 0.50687 0.95465 0.0
C879 C 0.07279 0.51514 0.92528 0.0
H880 H 0.63995 0.90505 0.90732 0.0
H881 H 0.56674 0.83521 0.90913 0.0
H882 H 0.53307 0.86706 0.92599 0.0
H883 H 0.6184 0.93803 0.97386 0.0
H884 H 0.63093 0.97296 0.95992 0.0
H885 H 0.64834 0.94483 0.94626 0.0
H886 H 0.63744 0.95664 0.89108 0.0
H887 H 0.61975 0.98468 0.90462 0.0
H888 H 0.60006 0.95762 0.88091 0.0
H889 H 0.50778 0.907 0.94363 0.0
H890 H 0.49409 0.95017 0.9651 0.0
H891 H 0.58459 0.99304 0.9522 0.0
C892 C 0.61675 0.89652 0.91088 0.0
C893 C 0.60582 0.86777 0.90667 0.0
C894 C 0.57549 0.85721 0.91229 0.0
C895 C 0.55622 0.87517 0.92163 0.0
C896 C 0.56773 0.90352 0.92536 0.0
C897 C 0.59737 0.91403 0.9204 0.0
C898 C 0.60471 0.94487 0.92776 0.0
C899 C 0.62689 0.95049 0.95348 0.0
C900 C 0.61616 0.96196 0.8994 0.0
C901 C 0.57462 0.95012 0.93794 0.0
C902 C 0.55345 0.92616 0.93604 0.0
C903 C 0.52417 0.92589 0.94507 0.0
C904 C 0.51657 0.95056 0.95708 0.0
C905 C 0.53827 0.97499 0.96027 0.0
C906 C 0.56747 0.97476 0.94995 0.0
H907 H 0.85389 0.12371 0.47434 0.0
H908 H 0.91609 0.18514 0.42376 0.0
H909 H 0.95603 0.15922 0.43448 0.0
H910 H 0.9024 0.11341 0.53293 0.0
H911 H 0.88846 0.07645 0.53612 0.0
H912 H 0.86479 0.09943 0.52354 0.0
H913 H 0.85432 0.06952 0.47483 0.0
H914 H 0.8782 0.04657 0.48716 0.0
H915 H 0.88473 0.06332 0.45076 0.0
H916 H 0.9894 0.12818 0.4529 0.0
H917 H 1.01424 0.0942 0.47816 0.0
H918 H 0.92997 0.05205 0.51531 0.0
C919 C 0.87596 0.13176 0.46566 0.0
C920 C 0.882 0.15641 0.44827 0.0
C921 C 0.91103 0.16615 0.43694 0.0
C922 C 0.9338 0.1516 0.44292 0.0
C923 C 0.92706 0.12728 0.46003 0.0
C924 C 0.89886 0.1174 0.47121 0.0
C925 C 0.8976 0.09103 0.48945 0.0
C926 C 0.88774 0.09535 0.52246 0.0
C927 C 0.87752 0.06614 0.47465 0.0
C928 C 0.92962 0.08788 0.4872 0.0
C929 C 0.94621 0.10897 0.47004 0.0
C930 C 0.97661 0.11135 0.46604 0.0
C931 C 0.99048 0.09191 0.48036 0.0
C932 C 0.97392 0.07034 0.49827 0.0
C933 C 0.94307 0.06807 0.50131 0.0
H934 H 0.22392 0.66095 0.10132 0.0
H935 H 0.2345 0.59554 0.16436 0.0
H936 H 0.19094 0.56566 0.14421 0.0
H937 H 0.14323 0.64855 0.1098 0.0
H938 H 0.13744 0.656 0.07077 0.0
H939 H 0.17069 0.6726 0.08885 0.0
H940 H 0.20196 0.65373 0.04664 0.0
H941 H 0.16881 0.63695 1.02853 0.0
H942 H 0.19609 0.61673 0.03886 0.0
H943 H 0.1477 0.54136 0.11662 0.0
H944 H 0.10361 0.52573 0.08694 0.0
H945 H 0.11512 0.60719 0.0443 0.0
C946 C 0.21711 0.64046 0.11116 0.0
C947 C 0.23396 0.6307 0.13408 0.0
C948 C 0.22348 0.60357 0.14601 0.0
C949 C 0.19828 0.58632 0.13491 0.0
C950 C 0.18278 0.59635 0.11216 0.0
C951 C 0.19133 0.62293 0.10071 0.0
C952 C 0.16954 0.6286 0.07708 0.0
C953 C 0.15432 0.65288 0.08724 0.0
C954 C 0.18503 0.63435 0.04593 0.0
C955 C 0.14769 0.60094 0.077 0.0
C956 C 0.15622 0.58267 0.09726 0.0
C957 C 0.14066 0.55557 0.10086 0.0
C958 C 0.11558 0.54683 0.08363 0.0
C959 C 0.10557 0.56508 0.06306 0.0
C960 C 0.12196 0.59268 0.05984 0.0
H961 H 0.34223 0.42106 0.63254 0.0
H962 H 0.29925 0.49329 0.63091 0.0
H963 H 0.34243 0.51978 0.60304 0.0
H964 H 0.41647 0.45933 0.64252 0.0
H965 H 0.43327 0.43609 0.61853 0.0
H966 H 0.39929 0.42314 0.63901 0.0
H967 H 0.37462 0.40535 0.58879 0.0
H968 H 0.40851 0.41825 0.56817 0.0
H969 H 0.3749 0.4294 0.55796 0.0
H970 H 0.3902 0.538 0.57297 0.0
H971 H 0.43838 0.54622 0.54513 0.0
H972 H 0.45033 0.46252 0.56716 0.0
C973 C 0.34179 0.44243 0.6263 0.0
C974 C 0.31711 0.45499 0.6341 0.0
C975 C 0.31787 0.48318 0.62568 0.0
C976 C 0.3423 0.4984 0.60963 0.0
C977 C 0.36609 0.4853 0.60217 0.0
C978 C 0.36607 0.45797 0.6104 0.0
C979 C 0.39432 0.44866 0.59956 0.0
C980 C 0.41187 0.44138 0.62651 0.0
C981 C 0.38768 0.42396 0.5773 0.0
C982 C 0.41014 0.47488 0.58368 0.0
C983 C 0.39353 0.49583 0.58539 0.0
C984 C 0.40341 0.52175 0.57175 0.0
C985 C 0.43087 0.52632 0.55602 0.0
C986 C 0.4483 0.5052 0.55412 0.0
C987 C 0.43766 0.4792 0.56829 0.0
H988 H 0.7763 0.66179 0.92836 0.0
H989 H 0.77488 0.72921 0.99317 0.0
H990 H 0.81282 0.71242 1.02244 0.0
H991 H 0.79591 0.60874 0.9818 0.0
H992 H 0.82007 0.59704 0.95366 0.0
H993 H 0.78777 0.60986 0.9422 0.0
H994 H 0.82055 0.64595 0.90724 0.0
H995 H 0.85288 0.63348 0.91875 0.0
H996 H 0.8508 0.66995 0.92313 0.0
H997 H 0.85671 0.6933 0.03987 0.0
H998 H 0.90264 0.67399 0.04318 0.0
H999 H 0.87739 0.62131 0.96509 0.0
C1000 C 0.78344 0.67272 0.94907 0.0
C1001 C 0.77243 0.69685 0.95838 0.0
C1002 C 0.7824 0.71036 0.98576 0.0
C1003 C 0.80414 0.70104 1.00251 0.0
C1004 C 0.81565 0.67812 0.99171 0.0
C1005 C 0.80544 0.664 0.9657 0.0
C1006 C 0.82402 0.64249 0.95649 0.0
C1007 C 0.80585 0.61277 0.95868 0.0
C1008 C 0.83788 0.64834 0.92453 0.0
C1009 C 0.8471 0.64761 0.98053 0.0
C1010 C 0.84154 0.66772 1.00113 0.0
C1011 C 0.86099 0.67719 1.02419 0.0
C1012 C 0.88699 0.66613 1.02592 0.0
C1013 C 0.8935 0.64625 1.00436 0.0
C1014 C 0.87295 0.63654 0.98183 0.0
H1015 H 0.45458 0.83609 0.10777 0.0
H1016 H 0.39913 0.86775 0.17551 0.0
H1017 H 0.41443 0.91548 0.15491 0.0
H1018 H 0.51466 0.8953 0.11125 0.0
H1019 H 0.52381 0.89462 0.07134 0.0
H1020 H 0.50735 0.86284 0.09041 0.0
H1021 H 0.46546 0.85492 0.05172 0.0
H1022 H 0.48173 0.88679 0.03266 0.0
H1023 H 0.44395 0.88184 0.04627 0.0
H1024 H 0.43467 0.96016 0.12523 0.0
H1025 H 0.4627 0.99832 0.09363 0.0
H1026 H 0.5084 0.93876 0.0479 0.0
C1027 C 0.44563 0.85309 0.11819 0.0
C1028 C 0.42546 0.84805 0.14327 0.0
C1029 C 0.41461 0.87101 0.15643 0.0
C1030 C 0.42308 0.89822 0.14473 0.0
C1031 C 0.4429 0.9025 0.12 0.0
C1032 C 0.45442 0.88061 0.10718 0.0
C1033 C 0.47659 0.89114 0.08182 0.0
C1034 C 0.50743 0.88565 0.08915 0.0
C1035 C 0.46631 0.87788 0.05131 0.0
C1036 C 0.47574 0.92228 0.08233 0.0
C1037 C 0.45576 0.92835 0.10417 0.0
C1038 C 0.45055 0.95559 0.10828 0.0
C1039 C 0.46649 0.97719 0.09012 0.0
C1040 C 0.48793 0.97169 0.06841 0.0
C1041 C 0.49234 0.94373 0.06446 0.0
H1042 H 0.10725 0.21915 0.66645 0.0
H1043 H 0.14852 0.26595 0.58864 0.0
H1044 H 0.13323 0.22504 0.55592 0.0
H1045 H 0.12672 0.15319 0.64458 0.0
H1046 H 0.09242 0.13216 0.65744 0.0
H1047 H 0.10569 0.16532 0.67532 0.0
H1048 H 0.05668 0.18157 0.66419 0.0
H1049 H 0.04319 0.14839 0.64642 0.0
H1050 H 0.04401 0.18034 0.62587 0.0
H1051 H 0.11518 0.17923 0.53129 0.0
H1052 H 0.09374 0.13145 0.51573 0.0
H1053 H 0.06281 0.11234 0.60829 0.0
C1054 C 0.11277 0.22083 0.64248 0.0
C1055 C 0.1295 0.24593 0.63033 0.0
C1056 C 0.1363 0.24702 0.59877 0.0
C1057 C 0.12756 0.22385 0.57987 0.0
C1058 C 0.11177 0.19939 0.59255 0.0
C1059 C 0.10421 0.19763 0.62306 0.0
C1060 C 0.08728 0.16844 0.63056 0.0
C1061 C 0.10403 0.15392 0.65333 0.0
C1062 C 0.05593 0.16977 0.64246 0.0
C1063 C 0.08672 0.15421 0.59957 0.0
C1064 C 0.10103 0.17262 0.57808 0.0
C1065 C 0.10381 0.16465 0.54791 0.0
C1066 C 0.09151 0.13728 0.53929 0.0
C1067 C 0.07643 0.11779 0.56063 0.0
C1068 C 0.07415 0.12655 0.59131 0.0
H1069 H 0.63278 0.26896 0.5058 0.0
H1070 H 0.71883 0.31542 0.52851 0.0
H1071 H 0.69622 0.35545 0.54416 0.0
H1072 H 0.61327 0.31855 0.46719 0.0
H1073 H 0.57457 0.31306 0.47755 0.0
H1074 H 0.5943 0.28466 0.47958 0.0
H1075 H 0.57901 0.27724 0.53618 0.0
H1076 H 0.5586 0.30546 0.53426 0.0
H1077 H 0.58633 0.30617 0.56235 0.0
H1078 H 0.66821 0.39389 0.54269 0.0
H1079 H 0.63663 0.42662 0.52657 0.0
H1080 H 0.56903 0.35672 0.5017 0.0
C1081 C 0.64665 0.28717 0.51527 0.0
C1082 C 0.67756 0.28905 0.51582 0.0
C1083 C 0.69505 0.31321 0.52829 0.0
C1084 C 0.68235 0.33619 0.53717 0.0
C1085 C 0.65214 0.3346 0.5337 0.0
C1086 C 0.63435 0.31045 0.52357 0.0
C1087 C 0.60391 0.31564 0.51622 0.0
C1088 C 0.5961 0.30752 0.48319 0.0
C1089 C 0.58059 0.30021 0.5386 0.0
C1090 C 0.60821 0.3469 0.52111 0.0
C1091 C 0.63582 0.35729 0.53222 0.0
C1092 C 0.64626 0.38592 0.53483 0.0
C1093 C 0.62834 0.40436 0.52528 0.0
C1094 C 0.60046 0.3941 0.51292 0.0
C1095 C 0.58998 0.36504 0.51172 0.0
loop_
_geom_bond_atom_site_label_1
_geom_bond_atom_site_label_2
_geom_bond_distance
_geom_bond_site_symmetry_2
_ccdc_geom_bond_type
C0 C1 1.384 . S
C0 H13 0.947 . S
C0 C35 1.382 . S
C1 C0 1.384 . S
C1 C2 1.378 . S
C2 C1 1.378 . S
C2 C3 1.378 . S
C2 H14 0.952 . S
C3 C2 1.378 . S
C3 H15 0.950 . S
C3 C34 1.383 . S
H4 C23 0.947 . S
H5 C24 0.946 . S
H6 C26 0.953 . S
H7 C27 0.945 . S
H8 C29 0.952 . S
H9 C30 0.949 . S
H10 C32 0.950 . S
H11 C33 0.948 . S
H12 C35 0.951 . S
H13 C0 0.947 . S
H14 C2 0.952 . S
H15 C3 0.950 . S
N16 C19 1.382 . S
N16 C21 1.363 . S
N17 C19 1.371 . S
N17 C20 1.372 . S
N18 C20 1.361 . S
N18 C21 1.377 . S
C19 N16 1.382 . S
C19 N17 1.371 . S
C19 C22 1.480 . S
C20 N17 1.372 . S
C20 N18 1.361 . S
C20 C28 1.457 . S
C21 N16 1.363 . S
C21 N18 1.377 . S
C21 C34 1.479 . S
C22 C19 1.480 . S
C22 C23 1.383 . S
C22 C27 1.385 . S
C23 H4 0.947 . S
C23 C22 1.383 . S
C23 C24 1.388 . S
C24 H5 0.946 . S
C24 C23 1.388 . S
C24 C25 1.384 . S
C25 C24 1.384 . S
C25 C26 1.377 . S
C26 H6 0.953 . S
C26 C25 1.377 . S
C26 C27 1.369 . S
C27 H7 0.945 . S
C27 C22 1.385 . S
C27 C26 1.369 . S
C28 C20 1.457 . S
C28 C29 1.372 . S
C28 C33 1.364 . S
C29 H8 0.952 . S
C29 C28 1.372 . S
C29 C30 1.389 . S
C30 H9 0.949 . S
C30 C29 1.389 . S
C30 C31 1.387 . S
C31 C30 1.387 . S
C31 C32 1.372 . S
C32 H10 0.950 . S
C32 C31 1.372 . S
C32 C33 1.379 . S
C33 H11 0.948 . S
C33 C28 1.364 . S
C33 C32 1.379 . S
C34 C3 1.383 . S
C34 C21 1.479 . S
C34 C35 1.398 . S
C35 C0 1.382 . S
C35 H12 0.951 . S
C35 C34 1.398 . S
C36 C37 1.384 . S
C36 H49 0.947 . S
C36 C71 1.382 . S
C37 C36 1.384 . S
C37 C38 1.378 . S
C38 C37 1.378 . S
C38 C39 1.378 . S
C38 H50 0.952 . S
C39 C38 1.378 . S
C39 H51 0.950 . S
C39 C70 1.383 . S
H40 C59 0.947 . S
H41 C60 0.946 . S
H42 C62 0.953 . S
H43 C63 0.945 . S
H44 C65 0.952 . S
H45 C66 0.949 . S
H46 C68 0.950 . S
H47 C69 0.948 . S
H48 C71 0.951 . S
H49 C36 0.947 . S
H50 C38 0.952 . S
H51 C39 0.950 . S
N52 C55 1.382 . S
N52 C57 1.363 . S
N53 C55 1.371 . S
N53 C56 1.372 . S
N54 C56 1.361 . S
N54 C57 1.377 . S
C55 N52 1.382 . S
C55 N53 1.371 . S
C55 C58 1.480 . S
C56 N53 1.372 . S
C56 N54 1.361 . S
C56 C64 1.457 . S
C57 N52 1.363 . S
C57 N54 1.377 . S
C57 C70 1.479 . S
C58 C55 1.480 . S
C58 C59 1.383 . S
C58 C63 1.385 . S
C59 H40 0.947 . S
C59 C58 1.383 . S
C59 C60 1.388 . S
C60 H41 0.946 . S
C60 C59 1.388 . S
C60 C61 1.384 . S
C61 C60 1.384 . S
C61 C62 1.377 . S
C62 H42 0.953 . S
C62 C61 1.377 . S
C62 C63 1.369 . S
C63 H43 0.945 . S
C63 C58 1.385 . S
C63 C62 1.369 . S
C64 C56 1.457 . S
C64 C65 1.372 . S
C64 C69 1.364 . S
C65 H44 0.952 . S
C65 C64 1.372 . S
C65 C66 1.389 . S
C66 H45 0.949 . S
C66 C65 1.389 . S
C66 C67 1.387 . S
C67 C66 1.387 . S
C67 C68 1.372 . S
C68 H46 0.950 . S
C68 C67 1.372 . S
C68 C69 1.379 . S
C69 H47 0.948 . S
C69 C64 1.364 . S
C69 C68 1.379 . S
C70 C39 1.383 . S
C70 C57 1.479 . S
C70 C71 1.398 . S
C71 C36 1.382 . S
C71 H48 0.951 . S
C71 C70 1.398 . S
C72 C73 1.384 . S
C72 H85 0.947 . S
C72 C107 1.382 . S
C73 C72 1.384 . S
C73 C74 1.378 . S
C74 C73 1.378 . S
C74 C75 1.378 . S
C74 H86 0.952 . S
C75 C74 1.378 . S
C75 H87 0.950 . S
C75 C106 1.383 . S
H76 C95 0.947 . S
H77 C96 0.946 . S
H78 C98 0.953 . S
H79 C99 0.945 . S
H80 C101 0.952 . S
H81 C102 0.949 . S
H82 C104 0.950 . S
H83 C105 0.948 . S
H84 C107 0.951 . S
H85 C72 0.947 . S
H86 C74 0.952 . S
H87 C75 0.950 . S
N88 C91 1.382 . S
N88 C93 1.363 . S
N89 C91 1.371 . S
N89 C92 1.372 . S
N90 C92 1.361 . S
N90 C93 1.377 . S
C91 N88 1.382 . S
C91 N89 1.371 . S
C91 C94 1.480 . S
C92 N89 1.372 . S
C92 N90 1.361 . S
C92 C100 1.457 . S
C93 N88 1.363 . S
C93 N90 1.377 . S
C93 C106 1.479 . S
C94 C91 1.480 . S
C94 C95 1.383 . S
C94 C99 1.385 . S
C95 H76 0.947 . S
C95 C94 1.383 . S
C95 C96 1.388 . S
C96 H77 0.946 . S
C96 C95 1.388 . S
C96 C97 1.384 . S
C97 C96 1.384 . S
C97 C98 1.377 . S
C98 H78 0.953 . S
C98 C97 1.377 . S
C98 C99 1.369 . S
C99 H79 0.945 . S
C99 C94 1.385 . S
C99 C98 1.369 . S
C100 C92 1.457 . S
C100 C101 1.372 . S
C100 C105 1.364 . S
C101 H80 0.952 . S
C101 C100 1.372 . S
C101 C102 1.389 . S
C102 H81 0.949 . S
C102 C101 1.389 . S
C102 C103 1.387 . S
C103 C102 1.387 . S
C103 C104 1.372 . S
C104 H82 0.950 . S
C104 C103 1.372 . S
C104 C105 1.379 . S
C105 H83 0.948 . S
C105 C100 1.364 . S
C105 C104 1.379 . S
C106 C75 1.383 . S
C106 C93 1.479 . S
C106 C107 1.398 . S
C107 C72 1.382 . S
C107 H84 0.951 . S
C107 C106 1.398 . S
C108 C109 1.384 . S
C108 H121 0.947 . S
C108 C143 1.382 . S
C109 C108 1.384 . S
C109 C110 1.378 . S
C110 C109 1.378 . S
C110 C111 1.378 . S
C110 H122 0.952 . S
C111 C110 1.378 . S
C111 H123 0.950 . S
C111 C142 1.383 . S
H112 C131 0.947 . S
H113 C132 0.946 . S
H114 C134 0.953 . S
H115 C135 0.945 . S
H116 C137 0.952 . S
H117 C138 0.949 . S
H118 C140 0.950 . S
H119 C141 0.948 . S
H120 C143 0.951 . S
H121 C108 0.947 . S
H122 C110 0.952 . S
H123 C111 0.950 . S
N124 C127 1.382 . S
N124 C129 1.363 . S
N125 C127 1.371 . S
N125 C128 1.372 . S
N126 C128 1.361 . S
N126 C129 1.377 . S
C127 N124 1.382 . S
C127 N125 1.371 . S
C127 C130 1.480 . S
C128 N125 1.372 . S
C128 N126 1.361 . S
C128 C136 1.457 . S
C129 N124 1.363 . S
C129 N126 1.377 . S
C129 C142 1.479 . S
C130 C127 1.480 . S
C130 C131 1.383 . S
C130 C135 1.385 . S
C131 H112 0.947 . S
C131 C130 1.383 . S
C131 C132 1.388 . S
C132 H113 0.946 . S
C132 C131 1.388 . S
C132 C133 1.384 . S
C133 C132 1.384 . S
C133 C134 1.377 . S
C134 H114 0.953 . S
C134 C133 1.377 . S
C134 C135 1.369 . S
C135 H115 0.945 . S
C135 C130 1.385 . S
C135 C134 1.369 . S
C136 C128 1.457 . S
C136 C137 1.372 . S
C136 C141 1.364 . S
C137 H116 0.952 . S
C137 C136 1.372 . S
C137 C138 1.389 . S
C138 H117 0.949 . S
C138 C137 1.389 . S
C138 C139 1.387 . S
C139 C138 1.387 . S
C139 C140 1.372 . S
C140 H118 0.950 . S
C140 C139 1.372 . S
C140 C141 1.379 . S
C141 H119 0.948 . S
C141 C136 1.364 . S
C141 C140 1.379 . S
C142 C111 1.383 . S
C142 C129 1.479 . S
C142 C143 1.398 . S
C143 C108 1.382 . S
C143 H120 0.951 . S
C143 C142 1.398 . S
C144 C145 1.384 . S
C144 H157 0.947 . S
C144 C179 1.382 . S
C145 C144 1.384 . S
C145 C146 1.378 . S
C146 C145 1.378 . S
C146 C147 1.378 . S
C146 H158 0.952 . S
C147 C146 1.378 . S
C147 H159 0.950 . S
C147 C178 1.383 . S
H148 C167 0.947 . S
H149 C168 0.946 . S
H150 C170 0.953 . S
H151 C171 0.945 . S
H152 C173 0.952 . S
H153 C174 0.949 . S
H154 C176 0.950 . S
H155 C177 0.948 . S
H156 C179 0.951 . S
H157 C144 0.947 . S
H158 C146 0.952 . S
H159 C147 0.950 . S
N160 C163 1.382 . S
N160 C165 1.363 . S
N161 C163 1.371 . S
N161 C164 1.372 . S
N162 C164 1.361 . S
N162 C165 1.377 . S
C163 N160 1.382 . S
C163 N161 1.371 . S
C163 C166 1.480 . S
C164 N161 1.372 . S
C164 N162 1.361 . S
C164 C172 1.457 . S
C165 N160 1.363 . S
C165 N162 1.377 . S
C165 C178 1.479 . S
C166 C163 1.480 . S
C166 C167 1.383 . S
C166 C171 1.385 . S
C167 H148 0.947 . S
C167 C166 1.383 . S
C167 C168 1.388 . S
C168 H149 0.946 . S
C168 C167 1.388 . S
C168 C169 1.384 . S
C169 C168 1.384 . S
C169 C170 1.377 . S
C170 H150 0.953 . S
C170 C169 1.377 . S
C170 C171 1.369 . S
C171 H151 0.945 . S
C171 C166 1.385 . S
C171 C170 1.369 . S
C172 C164 1.457 . S
C172 C173 1.372 . S
C172 C177 1.364 . S
C173 H152 0.952 . S
C173 C172 1.372 . S
C173 C174 1.389 . S
C174 H153 0.949 . S
C174 C173 1.389 . S
C174 C175 1.387 . S
C175 C174 1.387 . S
C175 C176 1.372 . S
C176 H154 0.950 . S
C176 C175 1.372 . S
C176 C177 1.379 . S
C177 H155 0.948 . S
C177 C172 1.364 . S
C177 C176 1.379 . S
C178 C147 1.383 . S
C178 C165 1.479 . S
C178 C179 1.398 . S
C179 C144 1.382 . S
C179 H156 0.951 . S
C179 C178 1.398 . S
C180 C181 1.384 . S
C180 H193 0.947 . S
C180 C215 1.382 . S
C181 C180 1.384 . S
C181 C182 1.378 . S
C182 C181 1.378 . S
C182 C183 1.378 . S
C182 H194 0.952 . S
C183 C182 1.378 . S
C183 H195 0.950 . S
C183 C214 1.383 . S
H184 C203 0.947 . S
H185 C204 0.946 . S
H186 C206 0.953 . S
H187 C207 0.945 . S
H188 C209 0.952 . S
H189 C210 0.949 . S
H190 C212 0.950 . S
H191 C213 0.948 . S
H192 C215 0.951 . S
H193 C180 0.947 . S
H194 C182 0.952 . S
H195 C183 0.950 . S
N196 C199 1.382 . S
N196 C201 1.363 . S
N197 C199 1.371 . S
N197 C200 1.372 . S
N198 C200 1.361 . S
N198 C201 1.377 . S
C199 N196 1.382 . S
C199 N197 1.371 . S
C199 C202 1.480 . S
C200 N197 1.372 . S
C200 N198 1.361 . S
C200 C208 1.457 . S
C201 N196 1.363 . S
C201 N198 1.377 . S
C201 C214 1.479 . S
C202 C199 1.480 . S
C202 C203 1.383 . S
C202 C207 1.385 . S
C203 H184 0.947 . S
C203 C202 1.383 . S
C203 C204 1.388 . S
C204 H185 0.946 . S
C204 C203 1.388 . S
C204 C205 1.384 . S
C205 C204 1.384 . S
C205 C206 1.377 . S
C206 H186 0.953 . S
C206 C205 1.377 . S
C206 C207 1.369 . S
C207 H187 0.945 . S
C207 C202 1.385 . S
C207 C206 1.369 . S
C208 C200 1.457 . S
C208 C209 1.372 . S
C208 C213 1.364 . S
C209 H188 0.952 . S
C209 C208 1.372 . S
C209 C210 1.389 . S
C210 H189 0.949 . S
C210 C209 1.389 . S
C210 C211 1.387 . S
C211 C210 1.387 . S
C211 C212 1.372 . S
C212 H190 0.950 . S
C212 C211 1.372 . S
C212 C213 1.379 . S
C213 H191 0.948 . S
C213 C208 1.364 . S
C213 C212 1.379 . S
C214 C183 1.383 . S
C214 C201 1.479 . S
C214 C215 1.398 . S
C215 C180 1.382 . S
C215 H192 0.951 . S
C215 C214 1.398 . S
C216 C217 1.384 . S
C216 H229 0.947 . S
C216 C251 1.382 . S
C217 C216 1.384 . S
C217 C218 1.378 . S
C218 C217 1.378 . S
C218 C219 1.378 . S
C218 H230 0.952 . S
C219 C218 1.378 . S
C219 H231 0.950 . S
C219 C250 1.383 . S
H220 C239 0.947 . S
H221 C240 0.946 . S
H222 C242 0.953 . S
H223 C243 0.945 . S
H224 C245 0.952 . S
H225 C246 0.949 . S
H226 C248 0.950 . S
H227 C249 0.948 . S
H228 C251 0.951 . S
H229 C216 0.947 . S
H230 C218 0.952 . S
H231 C219 0.950 . S
N232 C235 1.382 . S
N232 C237 1.363 . S
N233 C235 1.371 . S
N233 C236 1.372 . S
N234 C236 1.361 . S
N234 C237 1.377 . S
C235 N232 1.382 . S
C235 N233 1.371 . S
C235 C238 1.480 . S
C236 N233 1.372 . S
C236 N234 1.361 . S
C236 C244 1.457 . S
C237 N232 1.363 . S
C237 N234 1.377 . S
C237 C250 1.479 . S
C238 C235 1.480 . S
C238 C239 1.383 . S
C238 C243 1.385 . S
C239 H220 0.947 . S
C239 C238 1.383 . S
C239 C240 1.388 . S
C240 H221 0.946 . S
C240 C239 1.388 . S
C240 C241 1.384 . S
C241 C240 1.384 . S
C241 C242 1.377 . S
C242 H222 0.953 . S
C242 C241 1.377 . S
C242 C243 1.369 . S
C243 H223 0.945 . S
C243 C238 1.385 . S
C243 C242 1.369 . S
C244 C236 1.457 . S
C244 C245 1.372 . S
C244 C249 1.364 . S
C245 H224 0.952 . S
C245 C244 1.372 . S
C245 C246 1.389 . S
C246 H225 0.949 . S
C246 C245 1.389 . S
C246 C247 1.387 . S
C247 C246 1.387 . S
C247 C248 1.372 . S
C248 H226 0.950 . S
C248 C247 1.372 . S
C248 C249 1.379 . S
C249 H227 0.948 . S
C249 C244 1.364 . S
C249 C248 1.379 . S
C250 C219 1.383 . S
C250 C237 1.479 . S
C250 C251 1.398 . S
C251 C216 1.382 . S
C251 H228 0.951 . S
C251 C250 1.398 . S
C252 C253 1.384 . S
C252 H265 0.947 . S
C252 C287 1.382 . S
C253 C252 1.384 . S
C253 C254 1.378 . S
C254 C253 1.378 . S
C254 C255 1.378 . S
C254 H266 0.952 . S
C255 C254 1.378 . S
C255 H267 0.950 . S
C255 C286 1.383 . S
H256 C275 0.947 . S
H257 C276 0.946 . S
H258 C278 0.953 . S
H259 C279 0.945 . S
H260 C281 0.952 . S
H261 C282 0.949 . S
H262 C284 0.950 . S
H263 C285 0.948 . S
H264 C287 0.951 . S
H265 C252 0.947 . S
H266 C254 0.952 . S
H267 C255 0.950 . S
N268 C271 1.382 . S
N268 C273 1.363 . S
N269 C271 1.371 . S
N269 C272 1.372 . S
N270 C272 1.361 . S
N270 C273 1.377 . S
C271 N268 1.382 . S
C271 N269 1.371 . S
C271 C274 1.480 . S
C272 N269 1.372 . S
C272 N270 1.361 . S
C272 C280 1.457 . S
C273 N268 1.363 . S
C273 N270 1.377 . S
C273 C286 1.479 . S
C274 C271 1.480 . S
C274 C275 1.383 . S
C274 C279 1.385 . S
C275 H256 0.947 . S
C275 C274 1.383 . S
C275 C276 1.388 . S
C276 H257 0.946 . S
C276 C275 1.388 . S
C276 C277 1.384 . S
C277 C276 1.384 . S
C277 C278 1.377 . S
C278 H258 0.953 . S
C278 C277 1.377 . S
C278 C279 1.369 . S
C279 H259 0.945 . S
C279 C274 1.385 . S
C279 C278 1.369 . S
C280 C272 1.457 . S
C280 C281 1.372 . S
C280 C285 1.364 . S
C281 H260 0.952 . S
C281 C280 1.372 . S
C281 C282 1.389 . S
C282 H261 0.949 . S
C282 C281 1.389 . S
C282 C283 1.387 . S
C283 C282 1.387 . S
C283 C284 1.372 . S
C284 H262 0.950 . S
C284 C283 1.372 . S
C284 C285 1.379 . S
C285 H263 0.948 . S
C285 C280 1.364 . S
C285 C284 1.379 . S
C286 C255 1.383 . S
C286 C273 1.479 . S
C286 C287 1.398 . S
C287 C252 1.382 . S
C287 H264 0.951 . S
C287 C286 1.398 . S
Gd288 C291 2.818 . S
Gd288 O308 2.377 . S
Gd288 O310 2.448 . S
Gd288 O311 2.506 . S
Gd288 O312 2.435 1_545 S
Gd288 O313 2.717 1_545 S
Gd288 O315 2.395 1_445 S
Gd288 O319 2.327 1_455 S
Gd289 C300 2.818 . S
Gd289 O309 2.395 1_665 S
Gd289 O313 2.327 1_655 S
Gd289 O314 2.377 . S
Gd289 O316 2.448 . S
Gd289 O317 2.506 . S
Gd289 O318 2.435 1_565 S
Gd289 O319 2.717 1_565 S
C290 O308 1.240 . S
C290 O309 1.240 . S
C291 Gd288 2.818 . S
C291 C292 1.510 . S
C291 O310 1.249 . S
C291 O311 1.252 . S
C292 C291 1.510 . S
C292 C293 1.404 . S
C292 C294 1.352 . S
C293 C292 1.404 . S
C293 C297 1.389 . S
C293 H320 0.930 . S
C294 C292 1.352 . S
C294 C296 1.374 . S
C294 H321 0.931 . S
C295 C296 1.359 . S
C295 C297 1.364 . S
C296 C294 1.374 . S
C296 C295 1.359 . S
C296 H322 0.931 . S
C297 C293 1.389 . S
C297 C295 1.364 . S
C297 H323 0.931 . S
C298 O312 1.256 . S
C298 O313 1.257 . S
C299 O314 1.240 . S
C299 O315 1.240 . S
C300 Gd289 2.818 . S
C300 C301 1.510 . S
C300 O316 1.249 . S
C300 O317 1.252 . S
C301 C300 1.510 . S
C301 C302 1.404 . S
C301 C303 1.352 . S
C302 C301 1.404 . S
C302 C306 1.389 . S
C302 H324 0.930 . S
C303 C301 1.352 . S
C303 C305 1.374 . S
C303 H325 0.931 . S
C304 C305 1.359 . S
C304 C306 1.364 . S
C305 C303 1.374 . S
C305 C304 1.359 . S
C305 H326 0.931 . S
C306 C302 1.389 . S
C306 C304 1.364 . S
C306 H327 0.931 . S
C307 O318 1.256 . S
C307 O319 1.257 . S
O308 Gd288 2.377 . S
O308 C290 1.240 . S
O309 Gd289 2.395 1_445 S
O309 C290 1.240 . S
O310 Gd288 2.448 . S
O310 C291 1.249 . S
O311 Gd288 2.506 . S
O311 C291 1.252 . S
O312 Gd288 2.435 1_565 S
O312 C298 1.256 . S
O313 Gd288 2.717 1_565 S
O313 Gd289 2.327 1_455 S
O313 C298 1.257 . S
O314 Gd289 2.377 . S
O314 C299 1.240 . S
O315 Gd288 2.395 1_665 S
O315 C299 1.240 . S
O316 Gd289 2.448 . S
O316 C300 1.249 . S
O317 Gd289 2.506 . S
O317 C300 1.252 . S
O318 Gd289 2.435 1_545 S
O318 C307 1.256 . S
O319 Gd288 2.327 1_655 S
O319 Gd289 2.717 1_545 S
O319 C307 1.257 . S
H320 C293 0.930 . S
H321 C294 0.931 . S
H322 C296 0.931 . S
H323 C297 0.931 . S
H324 C302 0.930 . S
H325 C303 0.931 . S
H326 C305 0.931 . S
H327 C306 0.931 . S
Gd328 C331 2.820 1_565 S
Gd328 O348 2.378 1_565 S
Gd328 O350 2.449 1_565 S
Gd328 O351 2.508 1_565 S
Gd328 O352 2.433 . S
Gd328 O353 2.716 . S
Gd328 O355 2.394 1_554 S
Gd328 O359 2.329 1_564 S
Gd329 C340 2.818 1_545 S
Gd329 O349 2.395 1_556 S
Gd329 O353 2.327 1_546 S
Gd329 O354 2.377 1_545 S
Gd329 O356 2.448 1_545 S
Gd329 O357 2.506 1_545 S
Gd329 O358 2.435 . S
Gd329 O359 2.717 . S
C330 O348 1.240 . S
C330 O349 1.240 . S
C331 Gd328 2.820 1_545 S
C331 C332 1.510 . S
C331 O350 1.249 . S
C331 O351 1.252 . S
C332 C331 1.510 . S
C332 C333 1.404 . S
C332 C334 1.352 . S
C333 C332 1.404 . S
C333 C337 1.389 . S
C333 H360 0.930 . S
C334 C332 1.352 . S
C334 C336 1.374 . S
C334 H361 0.931 . S
C335 C336 1.359 . S
C335 C337 1.364 . S
C336 C334 1.374 . S
C336 C335 1.359 . S
C336 H362 0.931 . S
C337 C333 1.389 . S
C337 C335 1.364 . S
C337 H363 0.931 . S
C338 O352 1.256 . S
C338 O353 1.257 . S
C339 O354 1.240 . S
C339 O355 1.240 . S
C340 Gd329 2.818 1_565 S
C340 C341 1.510 . S
C340 O356 1.249 . S
C340 O357 1.252 . S
C341 C340 1.510 . S
C341 C342 1.404 . S
C341 C343 1.352 . S
C342 C341 1.404 . S
C342 C346 1.389 . S
C342 H364 0.930 . S
C343 C341 1.352 . S
C343 C345 1.374 . S
C343 H365 0.931 . S
C344 C345 1.359 . S
C344 C346 1.364 . S
C345 C343 1.374 . S
C345 C344 1.359 . S
C345 H366 0.931 . S
C346 C342 1.389 . S
C346 C344 1.364 . S
C346 H367 0.931 . S
C347 O358 1.256 . S
C347 O359 1.257 . S
O348 Gd328 2.378 1_545 S
O348 C330 1.240 . S
O349 Gd329 2.395 1_554 S
O349 C330 1.240 . S
O350 Gd328 2.449 1_545 S
O350 C331 1.249 . S
O351 Gd328 2.508 1_545 S
O351 C331 1.252 . S
O352 Gd328 2.433 . S
O352 C338 1.256 . S
O353 Gd328 2.716 . S
O353 Gd329 2.327 1_564 S
O353 C338 1.257 . S
O354 Gd329 2.377 1_565 S
O354 C339 1.240 . S
O355 Gd328 2.394 1_556 S
O355 C339 1.240 . S
O356 Gd329 2.448 1_565 S
O356 C340 1.249 . S
O357 Gd329 2.506 1_565 S
O357 C340 1.252 . S
O358 Gd329 2.435 . S
O358 C347 1.256 . S
O359 Gd328 2.329 1_546 S
O359 Gd329 2.717 . S
O359 C347 1.257 . S
H360 C333 0.930 . S
H361 C334 0.931 . S
H362 C336 0.931 . S
H363 C337 0.931 . S
H364 C342 0.930 . S
H365 C343 0.931 . S
H366 C345 0.931 . S
H367 C346 0.931 . S
Gd368 C371 2.818 . S
Gd368 O388 2.377 . S
Gd368 O390 2.448 . S
Gd368 O391 2.506 . S
Gd368 O392 2.435 . S
Gd368 O393 2.717 . S
Gd368 O395 2.395 . S
Gd368 O399 2.327 . S
Gd369 C380 2.818 . S
Gd369 O389 2.395 . S
Gd369 O393 2.327 . S
Gd369 O394 2.377 . S
Gd369 O396 2.448 . S
Gd369 O397 2.506 . S
Gd369 O398 2.435 . S
Gd369 O399 2.717 . S
C370 O388 1.240 . S
C370 O389 1.240 . S
C371 Gd368 2.818 . S
C371 C372 1.510 . S
C371 O390 1.249 . S
C371 O391 1.252 . S
C372 C371 1.510 . S
C372 C373 1.404 . S
C372 C374 1.352 . S
C373 C372 1.404 . S
C373 C377 1.389 . S
C373 H400 0.930 . S
C374 C372 1.352 . S
C374 C376 1.374 . S
C374 H401 0.931 . S
C375 C376 1.359 . S
C375 C377 1.364 . S
C376 C374 1.374 . S
C376 C375 1.359 . S
C376 H402 0.931 . S
C377 C373 1.389 . S
C377 C375 1.364 . S
C377 H403 0.931 . S
C378 O392 1.256 . S
C378 O393 1.257 . S
C379 O394 1.240 . S
C379 O395 1.240 . S
C380 Gd369 2.818 . S
C380 C381 1.510 . S
C380 O396 1.249 . S
C380 O397 1.252 . S
C381 C380 1.510 . S
C381 C382 1.404 . S
C381 C383 1.352 . S
C382 C381 1.404 . S
C382 C386 1.389 . S
C382 H404 0.930 . S
C383 C381 1.352 . S
C383 C385 1.374 . S
C383 H405 0.931 . S
C384 C385 1.359 . S
C384 C386 1.364 . S
C385 C383 1.374 . S
C385 C384 1.359 . S
C385 H406 0.931 . S
C386 C382 1.389 . S
C386 C384 1.364 . S
C386 H407 0.931 . S
C387 O398 1.256 . S
C387 O399 1.257 . S
O388 Gd368 2.377 . S
O388 C370 1.240 . S
O389 Gd369 2.395 . S
O389 C370 1.240 . S
O390 Gd368 2.448 . S
O390 C371 1.249 . S
O391 Gd368 2.506 . S
O391 C371 1.252 . S
O392 Gd368 2.435 . S
O392 C378 1.256 . S
O393 Gd368 2.717 . S
O393 Gd369 2.327 . S
O393 C378 1.257 . S
O394 Gd369 2.377 . S
O394 C379 1.240 . S
O395 Gd368 2.395 . S
O395 C379 1.240 . S
O396 Gd369 2.448 . S
O396 C380 1.249 . S
O397 Gd369 2.506 . S
O397 C380 1.252 . S
O398 Gd369 2.435 . S
O398 C387 1.256 . S
O399 Gd368 2.327 . S
O399 Gd369 2.717 . S
O399 C387 1.257 . S
H400 C373 0.930 . S
H401 C374 0.931 . S
H402 C376 0.931 . S
H403 C377 0.931 . S
H404 C382 0.930 . S
H405 C383 0.931 . S
H406 C385 0.931 . S
H407 C386 0.931 . S
Gd408 C411 2.818 . S
Gd408 O428 2.377 . S
Gd408 O430 2.448 . S
Gd408 O431 2.506 . S
Gd408 O432 2.435 1_455 S
Gd408 O433 2.717 1_455 S
Gd408 O435 2.413 1_455 S
Gd408 O439 2.327 1_554 S
Gd409 C420 2.793 1_455 S
Gd409 O429 2.422 1_556 S
Gd409 O433 2.320 1_456 S
Gd409 O434 2.359 1_455 S
Gd409 O436 2.433 1_455 S
Gd409 O437 2.477 1_455 S
Gd409 O438 2.450 . S
Gd409 O439 2.733 . S
C410 O428 1.240 . S
C410 O429 1.240 . S
C411 Gd408 2.818 . S
C411 C412 1.510 . S
C411 O430 1.249 . S
C411 O431 1.252 . S
C412 C411 1.510 . S
C412 C413 1.404 . S
C412 C414 1.352 . S
C413 C412 1.404 . S
C413 C417 1.389 . S
C413 H440 0.930 . S
C414 C412 1.352 . S
C414 C416 1.374 . S
C414 H441 0.931 . S
C415 C416 1.359 . S
C415 C417 1.364 . S
C416 C414 1.374 . S
C416 C415 1.359 . S
C416 H442 0.931 . S
C417 C413 1.389 . S
C417 C415 1.364 . S
C417 H443 0.931 . S
C418 O432 1.256 . S
C418 O433 1.257 . S
C419 O434 1.240 . S
C419 O435 1.215 1_556 S
C420 Gd409 2.793 1_655 S
C420 C421 1.510 . S
C420 O436 1.249 . S
C420 O437 1.252 . S
C421 C420 1.510 . S
C421 C422 1.404 . S
C421 C423 1.352 . S
C422 C421 1.404 . S
C422 C426 1.389 . S
C422 H444 0.930 . S
C423 C421 1.352 . S
C423 C425 1.374 . S
C423 H445 0.931 . S
C424 C425 1.359 . S
C424 C426 1.364 . S
C425 C423 1.374 . S
C425 C424 1.359 . S
C425 H446 0.931 . S
C426 C422 1.389 . S
C426 C424 1.364 . S
C426 H447 0.931 . S
C427 O438 1.256 . S
C427 O439 1.257 . S
O428 Gd408 2.377 . S
O428 C410 1.240 . S
O429 Gd409 2.422 1_554 S
O429 C410 1.240 . S
O430 Gd408 2.448 . S
O430 C411 1.249 . S
O431 Gd408 2.506 . S
O431 C411 1.252 . S
O432 Gd408 2.435 1_655 S
O432 C418 1.256 . S
O433 Gd408 2.717 1_655 S
O433 Gd409 2.320 1_654 S
O433 C418 1.257 . S
O434 Gd409 2.359 1_655 S
O434 C419 1.240 . S
O435 Gd408 2.413 1_655 S
O435 C419 1.215 1_554 S
O436 Gd409 2.433 1_655 S
O436 C420 1.249 . S
O437 Gd409 2.477 1_655 S
O437 C420 1.252 . S
O438 Gd409 2.450 . S
O438 C427 1.256 . S
O439 Gd408 2.327 1_556 S
O439 Gd409 2.733 . S
O439 C427 1.257 . S
H440 C413 0.930 . S
H441 C414 0.931 . S
H442 C416 0.931 . S
H443 C417 0.931 . S
H444 C422 0.930 . S
H445 C423 0.931 . S
H446 C425 0.931 . S
H447 C426 0.931 . S
H448 C460 0.930 . S
H449 C462 0.930 . S
H450 C463 0.930 . S
H451 C467 0.959 . S
H452 C467 0.959 . S
H453 C467 0.961 . S
H454 C468 0.960 . S
H455 C468 0.961 . S
H456 C468 0.959 . S
H457 C471 0.929 . S
H458 C472 0.931 . S
H459 C474 0.930 . S
C460 H448 0.930 . S
C460 C461 1.399 . S
C460 C465 1.399 . S
C461 C460 1.399 . S
C461 C462 1.376 . S
C462 H449 0.930 . S
C462 C461 1.376 . S
C462 C463 1.388 . S
C463 H450 0.930 . S
C463 C462 1.388 . S
C463 C464 1.390 . S
C464 C463 1.390 . S
C464 C465 1.394 . S
C464 C470 1.465 . S
C465 C460 1.399 . S
C465 C464 1.394 . S
C465 C466 1.516 . S
C466 C465 1.516 . S
C466 C467 1.502 . S
C466 C468 1.561 . S
C466 C469 1.526 . S
C467 H451 0.959 . S
C467 H452 0.959 . S
C467 H453 0.961 . S
C467 C466 1.502 . S
C468 H454 0.960 . S
C468 H455 0.961 . S
C468 H456 0.959 . S
C468 C466 1.561 . S
C469 C466 1.526 . S
C469 C470 1.396 . S
C469 C474 1.390 . S
C470 C464 1.465 . S
C470 C469 1.396 . S
C470 C471 1.399 . S
C471 H457 0.929 . S
C471 C470 1.399 . S
C471 C472 1.385 . S
C472 H458 0.931 . S
C472 C471 1.385 . S
C472 C473 1.389 . S
C473 C472 1.389 . S
C473 C474 1.387 . S
C474 H459 0.930 . S
C474 C469 1.390 . S
C474 C473 1.387 . S
H475 C487 0.930 . S
H476 C489 0.930 . S
H477 C490 0.930 . S
H478 C494 0.959 . S
H479 C494 0.959 . S
H480 C494 0.961 . S
H481 C495 0.960 . S
H482 C495 0.961 . S
H483 C495 0.959 . S
H484 C498 0.929 . S
H485 C499 0.931 . S
H486 C501 0.930 . S
C487 H475 0.930 . S
C487 C488 1.399 . S
C487 C492 1.399 . S
C488 C487 1.399 . S
C488 C489 1.376 . S
C489 H476 0.930 . S
C489 C488 1.376 . S
C489 C490 1.388 . S
C490 H477 0.930 . S
C490 C489 1.388 . S
C490 C491 1.390 . S
C491 C490 1.390 . S
C491 C492 1.394 . S
C491 C497 1.465 . S
C492 C487 1.399 . S
C492 C491 1.394 . S
C492 C493 1.516 . S
C493 C492 1.516 . S
C493 C494 1.502 . S
C493 C495 1.561 . S
C493 C496 1.526 . S
C494 H478 0.959 . S
C494 H479 0.959 . S
C494 H480 0.961 . S
C494 C493 1.502 . S
C495 H481 0.960 . S
C495 H482 0.961 . S
C495 H483 0.959 . S
C495 C493 1.561 . S
C496 C493 1.526 . S
C496 C497 1.396 . S
C496 C501 1.390 . S
C497 C491 1.465 . S
C497 C496 1.396 . S
C497 C498 1.399 . S
C498 H484 0.929 . S
C498 C497 1.399 . S
C498 C499 1.385 . S
C499 H485 0.931 . S
C499 C498 1.385 . S
C499 C500 1.389 . S
C500 C499 1.389 . S
C500 C501 1.387 . S
C501 H486 0.930 . S
C501 C496 1.390 . S
C501 C500 1.387 . S
H502 C514 0.930 . S
H503 C516 0.930 . S
H504 C517 0.930 . S
H505 C521 0.959 . S
H506 C521 0.959 . S
H507 C521 0.961 . S
H508 C522 0.960 . S
H509 C522 0.961 . S
H510 C522 0.959 . S
H511 C525 0.929 . S
H512 C526 0.931 . S
H513 C528 0.930 . S
C514 H502 0.930 . S
C514 C515 1.399 . S
C514 C519 1.399 . S
C515 C514 1.399 . S
C515 C516 1.376 . S
C516 H503 0.930 . S
C516 C515 1.376 . S
C516 C517 1.388 . S
C517 H504 0.930 . S
C517 C516 1.388 . S
C517 C518 1.390 . S
C518 C517 1.390 . S
C518 C519 1.394 . S
C518 C524 1.465 . S
C519 C514 1.399 . S
C519 C518 1.394 . S
C519 C520 1.516 . S
C520 C519 1.516 . S
C520 C521 1.502 . S
C520 C522 1.561 . S
C520 C523 1.526 . S
C521 H505 0.959 . S
C521 H506 0.959 . S
C521 H507 0.961 . S
C521 C520 1.502 . S
C522 H508 0.960 . S
C522 H509 0.961 . S
C522 H510 0.959 . S
C522 C520 1.561 . S
C523 C520 1.526 . S
C523 C524 1.396 . S
C523 C528 1.390 . S
C524 C518 1.465 . S
C524 C523 1.396 . S
C524 C525 1.399 . S
C525 H511 0.929 . S
C525 C524 1.399 . S
C525 C526 1.385 . S
C526 H512 0.931 . S
C526 C525 1.385 . S
C526 C527 1.389 . S
C527 C526 1.389 . S
C527 C528 1.387 . S
C528 H513 0.930 . S
C528 C523 1.390 . S
C528 C527 1.387 . S
H529 C541 0.930 . S
H530 C543 0.930 . S
H531 C544 0.930 . S
H532 C548 0.959 . S
H533 C548 0.959 . S
H534 C548 0.961 . S
H535 C549 0.960 . S
H536 C549 0.961 . S
H537 C549 0.959 . S
H538 C552 0.929 . S
H539 C553 0.931 . S
H540 C555 0.930 . S
C541 H529 0.930 . S
C541 C542 1.399 . S
C541 C546 1.399 . S
C542 C541 1.399 . S
C542 C543 1.376 . S
C543 H530 0.930 . S
C543 C542 1.376 . S
C543 C544 1.388 . S
C544 H531 0.930 . S
C544 C543 1.388 . S
C544 C545 1.390 . S
C545 C544 1.390 . S
C545 C546 1.394 . S
C545 C551 1.465 . S
C546 C541 1.399 . S
C546 C545 1.394 . S
C546 C547 1.516 . S
C547 C546 1.516 . S
C547 C548 1.502 . S
C547 C549 1.561 . S
C547 C550 1.526 . S
C548 H532 0.959 . S
C548 H533 0.959 . S
C548 H534 0.961 . S
C548 C547 1.502 . S
C549 H535 0.960 . S
C549 H536 0.961 . S
C549 H537 0.959 . S
C549 C547 1.561 . S
C550 C547 1.526 . S
C550 C551 1.396 . S
C550 C555 1.390 . S
C551 C545 1.465 . S
C551 C550 1.396 . S
C551 C552 1.399 . S
C552 H538 0.929 . S
C552 C551 1.399 . S
C552 C553 1.385 . S
C553 H539 0.931 . S
C553 C552 1.385 . S
C553 C554 1.389 . S
C554 C553 1.389 . S
C554 C555 1.387 . S
C555 H540 0.930 . S
C555 C550 1.390 . S
C555 C554 1.387 . S
H556 C568 0.930 . S
H557 C570 0.930 . S
H558 C571 0.930 . S
H559 C575 0.959 . S
H560 C575 0.959 . S
H561 C575 0.961 . S
H562 C576 0.960 . S
H563 C576 0.961 . S
H564 C576 0.959 . S
H565 C579 0.929 . S
H566 C580 0.931 . S
H567 C582 0.930 . S
C568 H556 0.930 . S
C568 C569 1.399 . S
C568 C573 1.399 . S
C569 C568 1.399 . S
C569 C570 1.376 . S
C570 H557 0.930 . S
C570 C569 1.376 . S
C570 C571 1.388 . S
C571 H558 0.930 . S
C571 C570 1.388 . S
C571 C572 1.390 . S
C572 C571 1.390 . S
C572 C573 1.394 . S
C572 C578 1.465 . S
C573 C568 1.399 . S
C573 C572 1.394 . S
C573 C574 1.516 . S
C574 C573 1.516 . S
C574 C575 1.502 . S
C574 C576 1.561 . S
C574 C577 1.526 . S
C575 H559 0.959 . S
C575 H560 0.959 . S
C575 H561 0.961 . S
C575 C574 1.502 . S
C576 H562 0.960 . S
C576 H563 0.961 . S
C576 H564 0.959 . S
C576 C574 1.561 . S
C577 C574 1.526 . S
C577 C578 1.396 . S
C577 C582 1.390 . S
C578 C572 1.465 . S
C578 C577 1.396 . S
C578 C579 1.399 . S
C579 H565 0.929 . S
C579 C578 1.399 . S
C579 C580 1.385 . S
C580 H566 0.931 . S
C580 C579 1.385 . S
C580 C581 1.389 . S
C581 C580 1.389 . S
C581 C582 1.387 . S
C582 H567 0.930 . S
C582 C577 1.390 . S
C582 C581 1.387 . S
H583 C595 0.930 . S
H584 C597 0.930 . S
H585 C598 0.930 . S
H586 C602 0.959 . S
H587 C602 0.959 . S
H588 C602 0.961 . S
H589 C603 0.960 . S
H590 C603 0.961 . S
H591 C603 0.959 . S
H592 C606 0.929 . S
H593 C607 0.931 . S
H594 C609 0.930 . S
C595 H583 0.930 . S
C595 C596 1.399 . S
C595 C600 1.399 . S
C596 C595 1.399 . S
C596 C597 1.376 . S
C597 H584 0.930 . S
C597 C596 1.376 . S
C597 C598 1.388 . S
C598 H585 0.930 . S
C598 C597 1.388 . S
C598 C599 1.390 . S
C599 C598 1.390 . S
C599 C600 1.394 . S
C599 C605 1.465 . S
C600 C595 1.399 . S
C600 C599 1.394 . S
C600 C601 1.516 . S
C601 C600 1.516 . S
C601 C602 1.502 . S
C601 C603 1.561 . S
C601 C604 1.526 . S
C602 H586 0.959 . S
C602 H587 0.959 . S
C602 H588 0.961 . S
C602 C601 1.502 . S
C603 H589 0.960 . S
C603 H590 0.961 . S
C603 H591 0.959 . S
C603 C601 1.561 . S
C604 C601 1.526 . S
C604 C605 1.396 . S
C604 C609 1.390 . S
C605 C599 1.465 . S
C605 C604 1.396 . S
C605 C606 1.399 . S
C606 H592 0.929 . S
C606 C605 1.399 . S
C606 C607 1.385 . S
C607 H593 0.931 . S
C607 C606 1.385 . S
C607 C608 1.389 . S
C608 C607 1.389 . S
C608 C609 1.387 . S
C609 H594 0.930 . S
C609 C604 1.390 . S
C609 C608 1.387 . S
H610 C622 0.930 . S
H611 C624 0.930 . S
H612 C625 0.930 . S
H613 C629 0.959 . S
H614 C629 0.959 . S
H615 C629 0.961 . S
H616 C630 0.960 . S
H617 C630 0.961 . S
H618 C630 0.959 . S
H619 C633 0.929 . S
H620 C634 0.931 . S
H621 C636 0.930 . S
C622 H610 0.930 . S
C622 C623 1.399 . S
C622 C627 1.399 . S
C623 C622 1.399 . S
C623 C624 1.376 . S
C624 H611 0.930 . S
C624 C623 1.376 . S
C624 C625 1.388 . S
C625 H612 0.930 . S
C625 C624 1.388 . S
C625 C626 1.390 . S
C626 C625 1.390 . S
C626 C627 1.394 . S
C626 C632 1.465 . S
C627 C622 1.399 . S
C627 C626 1.394 . S
C627 C628 1.516 . S
C628 C627 1.516 . S
C628 C629 1.502 . S
C628 C630 1.561 . S
C628 C631 1.526 . S
C629 H613 0.959 . S
C629 H614 0.959 . S
C629 H615 0.961 . S
C629 C628 1.502 . S
C630 H616 0.960 . S
C630 H617 0.961 . S
C630 H618 0.959 . S
C630 C628 1.561 . S
C631 C628 1.526 . S
C631 C632 1.396 . S
C631 C636 1.390 . S
C632 C626 1.465 . S
C632 C631 1.396 . S
C632 C633 1.399 . S
C633 H619 0.929 . S
C633 C632 1.399 . S
C633 C634 1.385 . S
C634 H620 0.931 . S
C634 C633 1.385 . S
C634 C635 1.389 . S
C635 C634 1.389 . S
C635 C636 1.387 . S
C636 H621 0.930 . S
C636 C631 1.390 . S
C636 C635 1.387 . S
H637 C649 0.930 . S
H638 C651 0.930 . S
H639 C652 0.930 . S
H640 C656 0.959 . S
H641 C656 0.959 . S
H642 C656 0.961 . S
H643 C657 0.960 . S
H644 C657 0.961 . S
H645 C657 0.959 . S
H646 C660 0.929 . S
H647 C661 0.931 . S
H648 C663 0.930 . S
C649 H637 0.930 . S
C649 C650 1.399 . S
C649 C654 1.399 . S
C650 C649 1.399 . S
C650 C651 1.376 . S
C651 H638 0.930 . S
C651 C650 1.376 . S
C651 C652 1.388 . S
C652 H639 0.930 . S
C652 C651 1.388 . S
C652 C653 1.390 . S
C653 C652 1.390 . S
C653 C654 1.394 . S
C653 C659 1.465 . S
C654 C649 1.399 . S
C654 C653 1.394 . S
C654 C655 1.516 . S
C655 C654 1.516 . S
C655 C656 1.502 . S
C655 C657 1.561 . S
C655 C658 1.526 . S
C656 H640 0.959 . S
C656 H641 0.959 . S
C656 H642 0.961 . S
C656 C655 1.502 . S
C657 H643 0.960 . S
C657 H644 0.961 . S
C657 H645 0.959 . S
C657 C655 1.561 . S
C658 C655 1.526 . S
C658 C659 1.396 . S
C658 C663 1.390 . S
C659 C653 1.465 . S
C659 C658 1.396 . S
C659 C660 1.399 . S
C660 H646 0.929 . S
C660 C659 1.399 . S
C660 C661 1.385 . S
C661 H647 0.931 . S
C661 C660 1.385 . S
C661 C662 1.389 . S
C662 C661 1.389 . S
C662 C663 1.387 . S
C663 H648 0.930 . S
C663 C658 1.390 . S
C663 C662 1.387 . S
H664 C676 0.930 . S
H665 C678 0.930 . S
H666 C679 0.930 . S
H667 C683 0.959 . S
H668 C683 0.959 . S
H669 C683 0.961 . S
H670 C684 0.960 . S
H671 C684 0.961 . S
H672 C684 0.959 . S
H673 C687 0.929 . S
H674 C688 0.931 . S
H675 C690 0.930 . S
C676 H664 0.930 . S
C676 C677 1.399 . S
C676 C681 1.399 . S
C677 C676 1.399 . S
C677 C678 1.376 . S
C678 H665 0.930 . S
C678 C677 1.376 . S
C678 C679 1.388 . S
C679 H666 0.930 . S
C679 C678 1.388 . S
C679 C680 1.390 . S
C680 C679 1.390 . S
C680 C681 1.394 . S
C680 C686 1.465 . S
C681 C676 1.399 . S
C681 C680 1.394 . S
C681 C682 1.516 . S
C682 C681 1.516 . S
C682 C683 1.502 . S
C682 C684 1.561 . S
C682 C685 1.526 . S
C683 H667 0.959 . S
C683 H668 0.959 . S
C683 H669 0.961 . S
C683 C682 1.502 . S
C684 H670 0.960 . S
C684 H671 0.961 . S
C684 H672 0.959 . S
C684 C682 1.561 . S
C685 C682 1.526 . S
C685 C686 1.396 . S
C685 C690 1.390 . S
C686 C680 1.465 . S
C686 C685 1.396 . S
C686 C687 1.399 . S
C687 H673 0.929 . S
C687 C686 1.399 . S
C687 C688 1.385 . S
C688 H674 0.931 . S
C688 C687 1.385 . S
C688 C689 1.389 . S
C689 C688 1.389 . S
C689 C690 1.387 . S
C690 H675 0.930 . S
C690 C685 1.390 . S
C690 C689 1.387 . S
H691 C703 0.930 . S
H692 C705 0.930 . S
H693 C706 0.930 . S
H694 C710 0.959 . S
H695 C710 0.959 . S
H696 C710 0.961 . S
H697 C711 0.960 . S
H698 C711 0.961 . S
H699 C711 0.959 . S
H700 C714 0.929 . S
H701 C715 0.931 . S
H702 C717 0.930 . S
C703 H691 0.930 . S
C703 C704 1.399 . S
C703 C708 1.399 . S
C704 C703 1.399 . S
C704 C705 1.376 . S
C705 H692 0.930 . S
C705 C704 1.376 . S
C705 C706 1.388 . S
C706 H693 0.930 . S
C706 C705 1.388 . S
C706 C707 1.390 . S
C707 C706 1.390 . S
C707 C708 1.394 . S
C707 C713 1.465 . S
C708 C703 1.399 . S
C708 C707 1.394 . S
C708 C709 1.516 . S
C709 C708 1.516 . S
C709 C710 1.502 . S
C709 C711 1.561 . S
C709 C712 1.526 . S
C710 H694 0.959 . S
C710 H695 0.959 . S
C710 H696 0.961 . S
C710 C709 1.502 . S
C711 H697 0.960 . S
C711 H698 0.961 . S
C711 H699 0.959 . S
C711 C709 1.561 . S
C712 C709 1.526 . S
C712 C713 1.396 . S
C712 C717 1.390 . S
C713 C707 1.465 . S
C713 C712 1.396 . S
C713 C714 1.399 . S
C714 H700 0.929 . S
C714 C713 1.399 . S
C714 C715 1.385 . S
C715 H701 0.931 . S
C715 C714 1.385 . S
C715 C716 1.389 . S
C716 C715 1.389 . S
C716 C717 1.387 . S
C717 H702 0.930 . S
C717 C712 1.390 . S
C717 C716 1.387 . S
H718 C730 0.930 . S
H719 C732 0.930 . S
H720 C733 0.930 . S
H721 C737 0.959 . S
H722 C737 0.959 . S
H723 C737 0.961 . S
H724 C738 0.960 . S
H725 C738 0.961 . S
H726 C738 0.959 . S
H727 C741 0.929 . S
H728 C742 0.931 . S
H729 C744 0.930 . S
C730 H718 0.930 . S
C730 C731 1.399 . S
C730 C735 1.399 . S
C731 C730 1.399 . S
C731 C732 1.376 . S
C732 H719 0.930 . S
C732 C731 1.376 . S
C732 C733 1.388 . S
C733 H720 0.930 . S
C733 C732 1.388 . S
C733 C734 1.390 . S
C734 C733 1.390 . S
C734 C735 1.394 . S
C734 C740 1.465 . S
C735 C730 1.399 . S
C735 C734 1.394 . S
C735 C736 1.516 . S
C736 C735 1.516 . S
C736 C737 1.502 . S
C736 C738 1.561 . S
C736 C739 1.526 . S
C737 H721 0.959 . S
C737 H722 0.959 . S
C737 H723 0.961 . S
C737 C736 1.502 . S
C738 H724 0.960 . S
C738 H725 0.961 . S
C738 H726 0.959 . S
C738 C736 1.561 . S
C739 C736 1.526 . S
C739 C740 1.396 . S
C739 C744 1.390 . S
C740 C734 1.465 . S
C740 C739 1.396 . S
C740 C741 1.399 . S
C741 H727 0.929 . S
C741 C740 1.399 . S
C741 C742 1.385 . S
C742 H728 0.931 . S
C742 C741 1.385 . S
C742 C743 1.389 . S
C743 C742 1.389 . S
C743 C744 1.387 . S
C744 H729 0.930 . S
C744 C739 1.390 . S
C744 C743 1.387 . S
H745 C757 0.930 . S
H746 C759 0.930 . S
H747 C760 0.930 . S
H748 C764 0.959 . S
H749 C764 0.959 . S
H750 C764 0.961 . S
H751 C765 0.960 . S
H752 C765 0.961 . S
H753 C765 0.959 . S
H754 C768 0.929 . S
H755 C769 0.931 . S
H756 C771 0.930 . S
C757 H745 0.930 . S
C757 C758 1.399 . S
C757 C762 1.399 . S
C758 C757 1.399 . S
C758 C759 1.376 . S
C759 H746 0.930 . S
C759 C758 1.376 . S
C759 C760 1.388 . S
C760 H747 0.930 . S
C760 C759 1.388 . S
C760 C761 1.390 . S
C761 C760 1.390 . S
C761 C762 1.394 . S
C761 C767 1.465 . S
C762 C757 1.399 . S
C762 C761 1.394 . S
C762 C763 1.516 . S
C763 C762 1.516 . S
C763 C764 1.502 . S
C763 C765 1.561 . S
C763 C766 1.526 . S
C764 H748 0.959 . S
C764 H749 0.959 . S
C764 H750 0.961 . S
C764 C763 1.502 . S
C765 H751 0.960 . S
C765 H752 0.961 . S
C765 H753 0.959 . S
C765 C763 1.561 . S
C766 C763 1.526 . S
C766 C767 1.396 . S
C766 C771 1.390 . S
C767 C761 1.465 . S
C767 C766 1.396 . S
C767 C768 1.399 . S
C768 H754 0.929 . S
C768 C767 1.399 . S
C768 C769 1.385 . S
C769 H755 0.931 . S
C769 C768 1.385 . S
C769 C770 1.389 . S
C770 C769 1.389 . S
C770 C771 1.387 . S
C771 H756 0.930 . S
C771 C766 1.390 . S
C771 C770 1.387 . S
H772 C784 0.930 . S
H773 C786 0.930 . S
H774 C787 0.930 . S
H775 C791 0.959 . S
H776 C791 0.959 . S
H777 C791 0.961 . S
H778 C792 0.960 . S
H779 C792 0.961 . S
H780 C792 0.959 . S
H781 C795 0.929 . S
H782 C796 0.931 . S
H783 C798 0.930 . S
C784 H772 0.930 . S
C784 C785 1.399 . S
C784 C789 1.399 . S
C785 C784 1.399 . S
C785 C786 1.376 . S
C786 H773 0.930 . S
C786 C785 1.376 . S
C786 C787 1.388 . S
C787 H774 0.930 . S
C787 C786 1.388 . S
C787 C788 1.390 . S
C788 C787 1.390 . S
C788 C789 1.394 . S
C788 C794 1.465 . S
C789 C784 1.399 . S
C789 C788 1.394 . S
C789 C790 1.516 . S
C790 C789 1.516 . S
C790 C791 1.502 . S
C790 C792 1.561 . S
C790 C793 1.526 . S
C791 H775 0.959 . S
C791 H776 0.959 . S
C791 H777 0.961 . S
C791 C790 1.502 . S
C792 H778 0.960 . S
C792 H779 0.961 . S
C792 H780 0.959 . S
C792 C790 1.561 . S
C793 C790 1.526 . S
C793 C794 1.396 . S
C793 C798 1.390 . S
C794 C788 1.465 . S
C794 C793 1.396 . S
C794 C795 1.399 . S
C795 H781 0.929 . S
C795 C794 1.399 . S
C795 C796 1.385 . S
C796 H782 0.931 . S
C796 C795 1.385 . S
C796 C797 1.389 . S
C797 C796 1.389 . S
C797 C798 1.387 . S
C798 H783 0.930 . S
C798 C793 1.390 . S
C798 C797 1.387 . S
H799 C811 0.930 . S
H800 C813 0.930 . S
H801 C814 0.930 . S
H802 C818 0.959 . S
H803 C818 0.959 . S
H804 C818 0.961 . S
H805 C819 0.960 . S
H806 C819 0.961 . S
H807 C819 0.959 . S
H808 C822 0.929 . S
H809 C823 0.931 . S
H810 C825 0.930 . S
C811 H799 0.930 . S
C811 C812 1.399 . S
C811 C816 1.399 . S
C812 C811 1.399 . S
C812 C813 1.376 . S
C813 H800 0.930 . S
C813 C812 1.376 . S
C813 C814 1.388 . S
C814 H801 0.930 . S
C814 C813 1.388 . S
C814 C815 1.390 . S
C815 C814 1.390 . S
C815 C816 1.394 . S
C815 C821 1.465 . S
C816 C811 1.399 . S
C816 C815 1.394 . S
C816 C817 1.516 . S
C817 C816 1.516 . S
C817 C818 1.502 . S
C817 C819 1.561 . S
C817 C820 1.526 . S
C818 H802 0.959 . S
C818 H803 0.959 . S
C818 H804 0.961 . S
C818 C817 1.502 . S
C819 H805 0.960 . S
C819 H806 0.961 . S
C819 H807 0.959 . S
C819 C817 1.561 . S
C820 C817 1.526 . S
C820 C821 1.396 . S
C820 C825 1.390 . S
C821 C815 1.465 . S
C821 C820 1.396 . S
C821 C822 1.399 . S
C822 H808 0.929 . S
C822 C821 1.399 . S
C822 C823 1.385 . S
C823 H809 0.931 . S
C823 C822 1.385 . S
C823 C824 1.389 . S
C824 C823 1.389 . S
C824 C825 1.387 . S
C825 H810 0.930 . S
C825 C820 1.390 . S
C825 C824 1.387 . S
H826 C838 0.930 . S
H827 C840 0.930 . S
H828 C841 0.930 . S
H829 C845 0.959 . S
H830 C845 0.959 . S
H831 C845 0.961 . S
H832 C846 0.960 . S
H833 C846 0.961 . S
H834 C846 0.959 . S
H835 C849 0.929 . S
H836 C850 0.931 . S
H837 C852 0.930 . S
C838 H826 0.930 . S
C838 C839 1.399 . S
C838 C843 1.399 . S
C839 C838 1.399 . S
C839 C840 1.376 . S
C840 H827 0.930 . S
C840 C839 1.376 . S
C840 C841 1.388 . S
C841 H828 0.930 . S
C841 C840 1.388 . S
C841 C842 1.390 . S
C842 C841 1.390 . S
C842 C843 1.394 . S
C842 C848 1.465 . S
C843 C838 1.399 . S
C843 C842 1.394 . S
C843 C844 1.516 . S
C844 C843 1.516 . S
C844 C845 1.502 . S
C844 C846 1.561 . S
C844 C847 1.526 . S
C845 H829 0.959 . S
C845 H830 0.959 . S
C845 H831 0.961 . S
C845 C844 1.502 . S
C846 H832 0.960 . S
C846 H833 0.961 . S
C846 H834 0.959 . S
C846 C844 1.561 . S
C847 C844 1.526 . S
C847 C848 1.396 . S
C847 C852 1.390 . S
C848 C842 1.465 . S
C848 C847 1.396 . S
C848 C849 1.399 . S
C849 H835 0.929 . S
C849 C848 1.399 . S
C849 C850 1.385 . S
C850 H836 0.931 . S
C850 C849 1.385 . S
C850 C851 1.389 . S
C851 C850 1.389 . S
C851 C852 1.387 . S
C852 H837 0.930 . S
C852 C847 1.390 . S
C852 C851 1.387 . S
H853 C865 0.930 . S
H854 C867 0.930 . S
H855 C868 0.930 . S
H856 C872 0.959 . S
H857 C872 0.959 . S
H858 C872 0.961 . S
H859 C873 0.960 . S
H860 C873 0.961 . S
H861 C873 0.959 . S
H862 C876 0.929 . S
H863 C877 0.931 . S
H864 C879 0.930 . S
C865 H853 0.930 . S
C865 C866 1.399 . S
C865 C870 1.399 . S
C866 C865 1.399 . S
C866 C867 1.376 . S
C867 H854 0.930 . S
C867 C866 1.376 . S
C867 C868 1.388 . S
C868 H855 0.930 . S
C868 C867 1.388 . S
C868 C869 1.390 . S
C869 C868 1.390 . S
C869 C870 1.394 . S
C869 C875 1.465 . S
C870 C865 1.399 . S
C870 C869 1.394 . S
C870 C871 1.516 . S
C871 C870 1.516 . S
C871 C872 1.502 . S
C871 C873 1.561 . S
C871 C874 1.526 . S
C872 H856 0.959 . S
C872 H857 0.959 . S
C872 H858 0.961 . S
C872 C871 1.502 . S
C873 H859 0.960 . S
C873 H860 0.961 . S
C873 H861 0.959 . S
C873 C871 1.561 . S
C874 C871 1.526 . S
C874 C875 1.396 . S
C874 C879 1.390 . S
C875 C869 1.465 . S
C875 C874 1.396 . S
C875 C876 1.399 . S
C876 H862 0.929 . S
C876 C875 1.399 . S
C876 C877 1.385 . S
C877 H863 0.931 . S
C877 C876 1.385 . S
C877 C878 1.389 . S
C878 C877 1.389 . S
C878 C879 1.387 . S
C879 H864 0.930 . S
C879 C874 1.390 . S
C879 C878 1.387 . S
H880 C892 0.930 . S
H881 C894 0.930 . S
H882 C895 0.930 . S
H883 C899 0.959 . S
H884 C899 0.959 . S
H885 C899 0.961 . S
H886 C900 0.960 . S
H887 C900 0.961 . S
H888 C900 0.959 . S
H889 C903 0.929 . S
H890 C904 0.931 . S
H891 C906 0.930 . S
C892 H880 0.930 . S
C892 C893 1.399 . S
C892 C897 1.399 . S
C893 C892 1.399 . S
C893 C894 1.376 . S
C894 H881 0.930 . S
C894 C893 1.376 . S
C894 C895 1.388 . S
C895 H882 0.930 . S
C895 C894 1.388 . S
C895 C896 1.390 . S
C896 C895 1.390 . S
C896 C897 1.394 . S
C896 C902 1.465 . S
C897 C892 1.399 . S
C897 C896 1.394 . S
C897 C898 1.516 . S
C898 C897 1.516 . S
C898 C899 1.502 . S
C898 C900 1.561 . S
C898 C901 1.526 . S
C899 H883 0.959 . S
C899 H884 0.959 . S
C899 H885 0.961 . S
C899 C898 1.502 . S
C900 H886 0.960 . S
C900 H887 0.961 . S
C900 H888 0.959 . S
C900 C898 1.561 . S
C901 C898 1.526 . S
C901 C902 1.396 . S
C901 C906 1.390 . S
C902 C896 1.465 . S
C902 C901 1.396 . S
C902 C903 1.399 . S
C903 H889 0.929 . S
C903 C902 1.399 . S
C903 C904 1.385 . S
C904 H890 0.931 . S
C904 C903 1.385 . S
C904 C905 1.389 . S
C905 C904 1.389 . S
C905 C906 1.387 . S
C906 H891 0.930 . S
C906 C901 1.390 . S
C906 C905 1.387 . S
H907 C919 0.930 . S
H908 C921 0.930 . S
H909 C922 0.930 . S
H910 C926 0.959 . S
H911 C926 0.959 . S
H912 C926 0.961 . S
H913 C927 0.960 . S
H914 C927 0.961 . S
H915 C927 0.959 . S
H916 C930 0.929 . S
H917 C931 0.931 . S
H918 C933 0.930 . S
C919 H907 0.930 . S
C919 C920 1.399 . S
C919 C924 1.399 . S
C920 C919 1.399 . S
C920 C921 1.376 . S
C921 H908 0.930 . S
C921 C920 1.376 . S
C921 C922 1.388 . S
C922 H909 0.930 . S
C922 C921 1.388 . S
C922 C923 1.390 . S
C923 C922 1.390 . S
C923 C924 1.394 . S
C923 C929 1.465 . S
C924 C919 1.399 . S
C924 C923 1.394 . S
C924 C925 1.516 . S
C925 C924 1.516 . S
C925 C926 1.502 . S
C925 C927 1.561 . S
C925 C928 1.526 . S
C926 H910 0.959 . S
C926 H911 0.959 . S
C926 H912 0.961 . S
C926 C925 1.502 . S
C927 H913 0.960 . S
C927 H914 0.961 . S
C927 H915 0.959 . S
C927 C925 1.561 . S
C928 C925 1.526 . S
C928 C929 1.396 . S
C928 C933 1.390 . S
C929 C923 1.465 . S
C929 C928 1.396 . S
C929 C930 1.399 . S
C930 H916 0.929 . S
C930 C929 1.399 . S
C930 C931 1.385 . S
C931 H917 0.931 . S
C931 C930 1.385 . S
C931 C932 1.389 . S
C932 C931 1.389 . S
C932 C933 1.387 . S
C933 H918 0.930 . S
C933 C928 1.390 . S
C933 C932 1.387 . S
H934 C946 0.930 . S
H935 C948 0.930 . S
H936 C949 0.930 . S
H937 C953 0.959 . S
H938 C953 0.959 . S
H939 C953 0.961 . S
H940 C954 0.960 . S
H941 C954 0.961 . S
H942 C954 0.959 . S
H943 C957 0.929 . S
H944 C958 0.931 . S
H945 C960 0.930 . S
C946 H934 0.930 . S
C946 C947 1.399 . S
C946 C951 1.399 . S
C947 C946 1.399 . S
C947 C948 1.376 . S
C948 H935 0.930 . S
C948 C947 1.376 . S
C948 C949 1.388 . S
C949 H936 0.930 . S
C949 C948 1.388 . S
C949 C950 1.390 . S
C950 C949 1.390 . S
C950 C951 1.394 . S
C950 C956 1.465 . S
C951 C946 1.399 . S
C951 C950 1.394 . S
C951 C952 1.516 . S
C952 C951 1.516 . S
C952 C953 1.502 . S
C952 C954 1.561 . S
C952 C955 1.526 . S
C953 H937 0.959 . S
C953 H938 0.959 . S
C953 H939 0.961 . S
C953 C952 1.502 . S
C954 H940 0.960 . S
C954 H941 0.961 . S
C954 H942 0.959 . S
C954 C952 1.561 . S
C955 C952 1.526 . S
C955 C956 1.396 . S
C955 C960 1.390 . S
C956 C950 1.465 . S
C956 C955 1.396 . S
C956 C957 1.399 . S
C957 H943 0.929 . S
C957 C956 1.399 . S
C957 C958 1.385 . S
C958 H944 0.931 . S
C958 C957 1.385 . S
C958 C959 1.389 . S
C959 C958 1.389 . S
C959 C960 1.387 . S
C960 H945 0.930 . S
C960 C955 1.390 . S
C960 C959 1.387 . S
H961 C973 0.930 . S
H962 C975 0.930 . S
H963 C976 0.930 . S
H964 C980 0.959 . S
H965 C980 0.959 . S
H966 C980 0.961 . S
H967 C981 0.960 . S
H968 C981 0.961 . S
H969 C981 0.959 . S
H970 C984 0.929 . S
H971 C985 0.931 . S
H972 C987 0.930 . S
C973 H961 0.930 . S
C973 C974 1.399 . S
C973 C978 1.399 . S
C974 C973 1.399 . S
C974 C975 1.376 . S
C975 H962 0.930 . S
C975 C974 1.376 . S
C975 C976 1.388 . S
C976 H963 0.930 . S
C976 C975 1.388 . S
C976 C977 1.390 . S
C977 C976 1.390 . S
C977 C978 1.394 . S
C977 C983 1.465 . S
C978 C973 1.399 . S
C978 C977 1.394 . S
C978 C979 1.516 . S
C979 C978 1.516 . S
C979 C980 1.502 . S
C979 C981 1.561 . S
C979 C982 1.526 . S
C980 H964 0.959 . S
C980 H965 0.959 . S
C980 H966 0.961 . S
C980 C979 1.502 . S
C981 H967 0.960 . S
C981 H968 0.961 . S
C981 H969 0.959 . S
C981 C979 1.561 . S
C982 C979 1.526 . S
C982 C983 1.396 . S
C982 C987 1.390 . S
C983 C977 1.465 . S
C983 C982 1.396 . S
C983 C984 1.399 . S
C984 H970 0.929 . S
C984 C983 1.399 . S
C984 C985 1.385 . S
C985 H971 0.931 . S
C985 C984 1.385 . S
C985 C986 1.389 . S
C986 C985 1.389 . S
C986 C987 1.387 . S
C987 H972 0.930 . S
C987 C982 1.390 . S
C987 C986 1.387 . S
H988 C1000 0.930 . S
H989 C1002 0.930 . S
H990 C1003 0.930 . S
H991 C1007 0.959 . S
H992 C1007 0.959 . S
H993 C1007 0.961 . S
H994 C1008 0.960 . S
H995 C1008 0.961 . S
H996 C1008 0.959 . S
H997 C1011 0.929 . S
H998 C1012 0.931 . S
H999 C1014 0.930 . S
C1000 H988 0.930 . S
C1000 C1001 1.399 . S
C1000 C1005 1.399 . S
C1001 C1000 1.399 . S
C1001 C1002 1.376 . S
C1002 H989 0.930 . S
C1002 C1001 1.376 . S
C1002 C1003 1.388 . S
C1003 H990 0.930 . S
C1003 C1002 1.388 . S
C1003 C1004 1.390 . S
C1004 C1003 1.390 . S
C1004 C1005 1.394 . S
C1004 C1010 1.465 . S
C1005 C1000 1.399 . S
C1005 C1004 1.394 . S
C1005 C1006 1.516 . S
C1006 C1005 1.516 . S
C1006 C1007 1.502 . S
C1006 C1008 1.561 . S
C1006 C1009 1.526 . S
C1007 H991 0.959 . S
C1007 H992 0.959 . S
C1007 H993 0.961 . S
C1007 C1006 1.502 . S
C1008 H994 0.960 . S
C1008 H995 0.961 . S
C1008 H996 0.959 . S
C1008 C1006 1.561 . S
C1009 C1006 1.526 . S
C1009 C1010 1.396 . S
C1009 C1014 1.390 . S
C1010 C1004 1.465 . S
C1010 C1009 1.396 . S
C1010 C1011 1.399 . S
C1011 H997 0.929 . S
C1011 C1010 1.399 . S
C1011 C1012 1.385 . S
C1012 H998 0.931 . S
C1012 C1011 1.385 . S
C1012 C1013 1.389 . S
C1013 C1012 1.389 . S
C1013 C1014 1.387 . S
C1014 H999 0.930 . S
C1014 C1009 1.390 . S
C1014 C1013 1.387 . S
H1015 C1027 0.930 . S
H1016 C1029 0.930 . S
H1017 C1030 0.930 . S
H1018 C1034 0.959 . S
H1019 C1034 0.959 . S
H1020 C1034 0.961 . S
H1021 C1035 0.960 . S
H1022 C1035 0.961 . S
H1023 C1035 0.959 . S
H1024 C1038 0.929 . S
H1025 C1039 0.931 . S
H1026 C1041 0.930 . S
C1027 H1015 0.930 . S
C1027 C1028 1.399 . S
C1027 C1032 1.399 . S
C1028 C1027 1.399 . S
C1028 C1029 1.376 . S
C1029 H1016 0.930 . S
C1029 C1028 1.376 . S
C1029 C1030 1.388 . S
C1030 H1017 0.930 . S
C1030 C1029 1.388 . S
C1030 C1031 1.390 . S
C1031 C1030 1.390 . S
C1031 C1032 1.394 . S
C1031 C1037 1.465 . S
C1032 C1027 1.399 . S
C1032 C1031 1.394 . S
C1032 C1033 1.516 . S
C1033 C1032 1.516 . S
C1033 C1034 1.502 . S
C1033 C1035 1.561 . S
C1033 C1036 1.526 . S
C1034 H1018 0.959 . S
C1034 H1019 0.959 . S
C1034 H1020 0.961 . S
C1034 C1033 1.502 . S
C1035 H1021 0.960 . S
C1035 H1022 0.961 . S
C1035 H1023 0.959 . S
C1035 C1033 1.561 . S
C1036 C1033 1.526 . S
C1036 C1037 1.396 . S
C1036 C1041 1.390 . S
C1037 C1031 1.465 . S
C1037 C1036 1.396 . S
C1037 C1038 1.399 . S
C1038 H1024 0.929 . S
C1038 C1037 1.399 . S
C1038 C1039 1.385 . S
C1039 H1025 0.931 . S
C1039 C1038 1.385 . S
C1039 C1040 1.389 . S
C1040 C1039 1.389 . S
C1040 C1041 1.387 . S
C1041 H1026 0.930 . S
C1041 C1036 1.390 . S
C1041 C1040 1.387 . S
H1042 C1054 0.930 . S
H1043 C1056 0.930 . S
H1044 C1057 0.930 . S
H1045 C1061 0.959 . S
H1046 C1061 0.959 . S
H1047 C1061 0.961 . S
H1048 C1062 0.960 . S
H1049 C1062 0.961 . S
H1050 C1062 0.959 . S
H1051 C1065 0.929 . S
H1052 C1066 0.931 . S
H1053 C1068 0.930 . S
C1054 H1042 0.930 . S
C1054 C1055 1.399 . S
C1054 C1059 1.399 . S
C1055 C1054 1.399 . S
C1055 C1056 1.376 . S
C1056 H1043 0.930 . S
C1056 C1055 1.376 . S
C1056 C1057 1.388 . S
C1057 H1044 0.930 . S
C1057 C1056 1.388 . S
C1057 C1058 1.390 . S
C1058 C1057 1.390 . S
C1058 C1059 1.394 . S
C1058 C1064 1.465 . S
C1059 C1054 1.399 . S
C1059 C1058 1.394 . S
C1059 C1060 1.516 . S
C1060 C1059 1.516 . S
C1060 C1061 1.502 . S
C1060 C1062 1.561 . S
C1060 C1063 1.526 . S
C1061 H1045 0.959 . S
C1061 H1046 0.959 . S
C1061 H1047 0.961 . S
C1061 C1060 1.502 . S
C1062 H1048 0.960 . S
C1062 H1049 0.961 . S
C1062 H1050 0.959 . S
C1062 C1060 1.561 . S
C1063 C1060 1.526 . S
C1063 C1064 1.396 . S
C1063 C1068 1.390 . S
C1064 C1058 1.465 . S
C1064 C1063 1.396 . S
C1064 C1065 1.399 . S
C1065 H1051 0.929 . S
C1065 C1064 1.399 . S
C1065 C1066 1.385 . S
C1066 H1052 0.931 . S
C1066 C1065 1.385 . S
C1066 C1067 1.389 . S
C1067 C1066 1.389 . S
C1067 C1068 1.387 . S
C1068 H1053 0.930 . S
C1068 C1063 1.390 . S
C1068 C1067 1.387 . S
H1069 C1081 0.930 . S
H1070 C1083 0.930 . S
H1071 C1084 0.930 . S
H1072 C1088 0.959 . S
H1073 C1088 0.959 . S
H1074 C1088 0.961 . S
H1075 C1089 0.960 . S
H1076 C1089 0.961 . S
H1077 C1089 0.959 . S
H1078 C1092 0.929 . S
H1079 C1093 0.931 . S
H1080 C1095 0.930 . S
C1081 H1069 0.930 . S
C1081 C1082 1.399 . S
C1081 C1086 1.399 . S
C1082 C1081 1.399 . S
C1082 C1083 1.376 . S
C1083 H1070 0.930 . S
C1083 C1082 1.376 . S
C1083 C1084 1.388 . S
C1084 H1071 0.930 . S
C1084 C1083 1.388 . S
C1084 C1085 1.390 . S
C1085 C1084 1.390 . S
C1085 C1086 1.394 . S
C1085 C1091 1.465 . S
C1086 C1081 1.399 . S
C1086 C1085 1.394 . S
C1086 C1087 1.516 . S
C1087 C1086 1.516 . S
C1087 C1088 1.502 . S
C1087 C1089 1.561 . S
C1087 C1090 1.526 . S
C1088 H1072 0.959 . S
C1088 H1073 0.959 . S
C1088 H1074 0.961 . S
C1088 C1087 1.502 . S
C1089 H1075 0.960 . S
C1089 H1076 0.961 . S
C1089 H1077 0.959 . S
C1089 C1087 1.561 . S
C1090 C1087 1.526 . S
C1090 C1091 1.396 . S
C1090 C1095 1.390 . S
C1091 C1085 1.465 . S
C1091 C1090 1.396 . S
C1091 C1092 1.399 . S
C1092 H1078 0.929 . S
C1092 C1091 1.399 . S
C1092 C1093 1.385 . S
C1093 H1079 0.931 . S
C1093 C1092 1.385 . S
C1093 C1094 1.389 . S
C1094 C1093 1.389 . S
C1094 C1095 1.387 . S
C1095 H1080 0.930 . S
C1095 C1090 1.390 . S
C1095 C1094 1.387 . S
C461 C1 1.309 . S
C473 C295 1.286 . S
C488 C67 0.972 . S
C500 C344 1.033 . S
C527 C370 2.429 . S
C515 C97 2.436 . S
C542 C133 2.379 . S
C554 C418 2.307 . S
C581 C330 2.504 . S
C569 C25 2.427 . S
C608 C298 0.808 . S
C596 C37 0.919 . S
C635 C419 1.887 . S
C623 C103 1.917 . S
C662 C387 1.548 . S
C650 C109 1.590 . S
C677 C31 1.734 . S
C689 C415 1.758 . S
C716 C347 2.312 . S
C704 C73 2.368 . S
C731 C139 2.332 . S
C743 C299 2.341 . S
C758 C61 0.945 . S
C770 C384 0.881 . S
C797 C304 1.313 . S
C785 C175 1.161 . S
C812 C181 1.004 . S
C824 C335 0.939 . S
C839 C247 2.460 . S
C851 C379 2.449 . S
C866 C277 2.373 . S
C878 C427 2.322 . S
C893 C145 2.346 . S
C905 C339 2.484 . S
C932 C307 0.944 . S
C920 C211 0.848 . S
C959 C410 1.871 . S
C947 C217 1.903 . S
C986 C378 1.606 . S
C974 C283 1.604 . S
C1001 C169 1.606 . S
C1013 C424 1.758 . S
C1040 C338 2.292 . S
C1028 C241 2.379 . S
C1067 C290 2.324 . S
C1055 C253 2.324 . S
C1082 C205 0.948 . S
C1094 C375 0.878 . S
