# Generated by pormake.
# Topology pyr, (3,6)-cn, num edge types: 1
# Building blocks:
#     Node 0, Type 0, BuildingBlock: ESEHIV_clean_linker_0, # of connection points: 3
#     Node 1, Type 0, BuildingBlock: ESEHIV_clean_linker_0, # of connection points: 3
#     Node 2, Type 0, BuildingBlock: ESEHIV_clean_linker_0, # of connection points: 3
#     Node 3, Type 0, BuildingBlock: ESEHIV_clean_linker_0, # of connection points: 3
#     Node 4, Type 0, BuildingBlock: ESEHIV_clean_linker_0, # of connection points: 3
#     Node 5, Type 0, BuildingBlock: ESEHIV_clean_linker_0, # of connection points: 3
#     Node 6, Type 0, BuildingBlock: ESEHIV_clean_linker_0, # of connection points: 3
#     Node 7, Type 0, BuildingBlock: ESEHIV_clean_linker_0, # of connection points: 3
#     Node 8, Type 1, BuildingBlock: BETDAH_clean_sbu_0, # of connection points: 6
#     Node 9, Type 1, BuildingBlock: BETDAH_clean_sbu_0, # of connection points: 6
#     Node 10, Type 1, BuildingBlock: BETDAH_clean_sbu_0, # of connection points: 6
#     Node 11, Type 1, BuildingBlock: BETDAH_clean_sbu_0, # of connection points: 6
#     Edge 12, Type (0, 1), BuildingBlock: AJUNOK_clean_linker_0, # of connection points: 2
#     Edge 13, Type (0, 1), BuildingBlock: AJUNOK_clean_linker_0, # of connection points: 2
#     Edge 14, Type (0, 1), BuildingBlock: AJUNOK_clean_linker_0, # of connection points: 2
#     Edge 15, Type (0, 1), BuildingBlock: AJUNOK_clean_linker_0, # of connection points: 2
#     Edge 16, Type (0, 1), BuildingBlock: AJUNOK_clean_linker_0, # of connection points: 2
#     Edge 17, Type (0, 1), BuildingBlock: AJUNOK_clean_linker_0, # of connection points: 2
#     Edge 18, Type (0, 1), BuildingBlock: AJUNOK_clean_linker_0, # of connection points: 2
#     Edge 19, Type (0, 1), BuildingBlock: AJUNOK_clean_linker_0, # of connection points: 2
#     Edge 20, Type (0, 1), BuildingBlock: AJUNOK_clean_linker_0, # of connection points: 2
#     Edge 21, Type (0, 1), BuildingBlock: AJUNOK_clean_linker_0, # of connection points: 2
#     Edge 22, Type (0, 1), BuildingBlock: AJUNOK_clean_linker_0, # of connection points: 2
#     Edge 23, Type (0, 1), BuildingBlock: AJUNOK_clean_linker_0, # of connection points: 2
#     Edge 24, Type (0, 1), BuildingBlock: AJUNOK_clean_linker_0, # of connection points: 2
#     Edge 25, Type (0, 1), BuildingBlock: AJUNOK_clean_linker_0, # of connection points: 2
#     Edge 26, Type (0, 1), BuildingBlock: AJUNOK_clean_linker_0, # of connection points: 2
#     Edge 27, Type (0, 1), BuildingBlock: AJUNOK_clean_linker_0, # of connection points: 2
#     Edge 28, Type (0, 1), BuildingBlock: AJUNOK_clean_linker_0, # of connection points: 2
#     Edge 29, Type (0, 1), BuildingBlock: AJUNOK_clean_linker_0, # of connection points: 2
#     Edge 30, Type (0, 1), BuildingBlock: AJUNOK_clean_linker_0, # of connection points: 2
#     Edge 31, Type (0, 1), BuildingBlock: AJUNOK_clean_linker_0, # of connection points: 2
#     Edge 32, Type (0, 1), BuildingBlock: AJUNOK_clean_linker_0, # of connection points: 2
#     Edge 33, Type (0, 1), BuildingBlock: AJUNOK_clean_linker_0, # of connection points: 2
#     Edge 34, Type (0, 1), BuildingBlock: AJUNOK_clean_linker_0, # of connection points: 2
#     Edge 35, Type (0, 1), BuildingBlock: AJUNOK_clean_linker_0, # of connection points: 2
# Relax obj value: 0.220
# Max RMSD: 0.161
# Mean RMSD: 0.076
data_MOF--net-pyr--node1-BETDAH_clean_sbu_0--node2-ESEHIV_clean_linker_0--edge1-AJUNOK_clean_linker_0
_symmetry_space_group_name_H-M    P1
_symmetry_Int_Tables_number       1
_symmetry_cell_setting            triclinic
loop_
_symmetry_equiv_pos_as_xyz
'x, y, z'
_cell_length_a     25.925303
_cell_length_b     27.600071
_cell_length_c     24.534453
_cell_angle_alpha  90.952622
_cell_angle_beta   88.631698
_cell_angle_gamma 104.06458
loop_
_atom_site_label
_atom_site_type_symbol
_atom_site_fract_x
_atom_site_fract_y
_atom_site_fract_z
_atom_type_partial_charge
H0 H 0.38125 0.4078 0.29653 0.0
H1 H 0.46074 0.29485 0.33488 0.0
H2 H 0.44673 0.33225 0.16825 0.0
C3 C 0.40852 0.3853 0.28373 0.0
C4 C 0.41435 0.37596 0.2278 0.0
C5 C 0.41961 0.35211 0.3216 0.0
C6 C 0.45305 0.32125 0.3057 0.0
C7 C 0.46412 0.31447 0.25016 0.0
C8 C 0.4445 0.34194 0.2111 0.0
H9 H 0.13397 0.90358 0.7643 0.0
H10 H 0.23864 0.80495 0.77349 0.0
H11 H 0.20606 0.85909 0.61862 0.0
C12 C 0.15689 0.88003 0.74445 0.0
C13 C 0.16525 0.88283 0.6878 0.0
C14 C 0.18436 0.85299 0.7761 0.0
C15 C 0.21478 0.82375 0.74964 0.0
C16 C 0.22176 0.82521 0.6928 0.0
C17 C 0.19676 0.85451 0.66186 0.0
H18 H 0.71958 0.34436 0.98254 0.0
H19 H 0.72581 0.47303 0.88215 0.0
H20 H 0.59734 0.34175 0.86585 0.0
C21 C 0.70319 0.36289 0.95115 0.0
C22 C 0.65426 0.3371 0.92818 0.0
C23 C 0.73069 0.41198 0.93532 0.0
C24 C 0.70743 0.43505 0.89372 0.0
C25 C 0.66027 0.41009 0.86639 0.0
C26 C 0.63398 0.36109 0.8849 0.0
H27 H 0.83815 0.75953 0.47979 0.0
H28 H 0.95815 0.76427 0.35338 0.0
H29 H 0.82722 0.63336 0.37302 0.0
C30 C 0.85463 0.74202 0.44596 0.0
C31 C 0.82812 0.69299 0.43063 0.0
C32 C 0.90108 0.76925 0.41858 0.0
C33 C 0.92168 0.74485 0.37377 0.0
C34 C 0.89668 0.6945 0.35709 0.0
C35 C 0.84868 0.67043 0.38545 0.0
H36 H 0.59224 0.83167 0.84113 0.0
H37 H 0.70748 0.74462 0.86032 0.0
H38 H 0.63664 0.79706 1.00065 0.0
C39 C 0.61189 0.81017 0.86658 0.0
C40 C 0.60843 0.8155 0.92345 0.0
C41 C 0.64867 0.78565 0.84277 0.0
C42 C 0.67612 0.76051 0.87705 0.0
C43 C 0.67169 0.764 0.93384 0.0
C44 C 0.63703 0.79085 0.95689 0.0
H45 H 0.85755 0.37874 0.41237 0.0
H46 H 0.88206 0.23409 0.39063 0.0
H47 H 0.90962 0.30793 0.54768 0.0
C48 C 0.87315 0.3491 0.42884 0.0
C49 C 0.87991 0.3461 0.48516 0.0
C50 C 0.87706 0.30947 0.39455 0.0
C51 C 0.88852 0.26689 0.41647 0.0
C52 C 0.90149 0.26509 0.47171 0.0
C53 C 0.90041 0.30726 0.50489 0.0
H54 H 0.35613 0.77293 0.19733 0.0
H55 H 0.33725 0.65253 0.31174 0.0
H56 H 0.47237 0.77991 0.32142 0.0
C57 C 0.369 0.75716 0.23317 0.0
C58 C 0.41629 0.78396 0.25801 0.0
C59 C 0.33895 0.71021 0.25203 0.0
C60 C 0.35934 0.68843 0.29667 0.0
C61 C 0.40779 0.71262 0.32252 0.0
C62 C 0.43578 0.76056 0.30226 0.0
H63 H 0.10181 0.35973 0.81377 0.0
H64 H 0.22595 0.36436 0.69232 0.0
H65 H 0.23706 0.4874 0.8048 0.0
C66 C 0.13969 0.3786 0.79565 0.0
C67 C 0.1665 0.42716 0.81597 0.0
C68 C 0.16031 0.35554 0.74995 0.0
C69 C 0.20954 0.38152 0.72643 0.0
C70 C 0.23769 0.4293 0.7448 0.0
C71 C 0.21544 0.45134 0.78952 0.0
Ho72 Ho 0.04512 0.09009 0.5251 0.0
Ho73 Ho 1.00028 1.04265 0.63117 0.0
C74 C 0.06547 0.15694 0.64173 0.0
C75 C 0.07674 0.15571 0.45064 0.0
C76 C 0.12458 0.19654 0.44798 0.0
C77 C 0.12798 0.2353 0.41116 0.0
C78 C 0.17607 0.27063 0.4037 0.0
C79 C 0.22115 0.26718 0.43276 0.0
C80 C 0.21612 0.23133 0.47355 0.0
C81 C 0.16785 0.19618 0.48128 0.0
C82 C 0.10874 1.04266 0.57509 0.0
C83 C 0.98314 0.97463 0.51576 0.0
C84 C 0.96577 0.97803 0.70576 0.0
C85 C 0.91712 0.93764 0.70341 0.0
C86 C 0.90762 0.89817 0.74027 0.0
C87 C 0.85821 0.86356 0.74149 0.0
C88 C 0.8178 0.86848 0.70621 0.0
C89 C 0.82879 0.90603 0.6669 0.0
C90 C 0.87834 0.94006 0.66512 0.0
C91 C 0.93534 0.08807 0.57704 0.0
O92 O 0.06323 0.15511 0.58751 0.0
O93 O 0.04924 0.11485 0.66972 0.0
O94 O 0.08474 0.11071 0.44751 0.0
O95 O 0.04286 0.16044 0.4893 0.0
O96 O 0.10586 1.0447 0.5227 0.0
O97 O 0.08107 0.06899 0.59809 0.0
O98 O 0.98501 0.97669 0.57001 0.0
O99 O 0.99762 1.01677 0.48746 0.0
O100 O 0.95768 1.02302 0.70742 0.0
O101 O 1.0035 0.97395 0.67094 0.0
O102 O 0.93746 0.08675 0.62963 0.0
O103 O 0.9647 1.06215 0.55686 0.0
H104 H 0.09448 0.2366 0.38612 0.0
H105 H 0.17944 0.29794 0.37174 0.0
H106 H 0.25055 0.22769 0.49581 0.0
H107 H 0.1652 0.16694 0.51093 0.0
H108 H 0.9373 0.89551 0.76967 0.0
H109 H 0.85014 0.8354 0.77288 0.0
H110 H 0.79799 0.91088 0.63991 0.0
H111 H 0.88537 0.96998 0.63576 0.0
Ho112 Ho 0.58552 0.06686 0.10835 0.0
Ho113 Ho 0.4808 1.05451 1.07843 0.0
C114 C 0.51771 0.13374 0.16931 0.0
C115 C 0.68431 0.09413 0.13502 0.0
C116 C 0.72147 0.1407 0.15046 0.0
C117 C 0.70765 0.18664 0.14685 0.0
C118 C 0.73928 0.22927 0.17147 0.0
C119 C 0.78446 0.22594 0.20036 0.0
C120 C 0.80023 0.18063 0.19956 0.0
C121 C 0.76887 0.13831 0.17482 0.0
C122 C 0.52324 0.97788 0.14989 0.0
C123 C 0.55112 0.99132 1.0143 0.0
C124 C 0.38065 1.02521 1.05727 0.0
C125 C 0.34101 0.97901 1.04454 0.0
C126 C 0.35566 0.93935 1.01698 0.0
C127 C 0.31717 0.90316 0.99021 0.0
C128 C 0.26406 0.90675 0.99101 0.0
C129 C 0.24852 0.94123 1.0266 0.0
C130 C 0.28708 0.97774 1.05277 0.0
C131 C 0.54262 0.14353 1.0361 0.0
O132 O 0.56533 0.13363 0.14992 0.0
O133 O 0.47701 0.09802 0.15478 0.0
O134 O 0.64539 0.07802 0.16994 0.0
O135 O 0.66858 0.09067 0.08475 0.0
O136 O 0.57069 0.98461 0.1293 0.0
O137 O 0.5107 1.01983 0.14874 0.0
O138 O 0.50297 0.98987 1.03356 0.0
O139 O 0.59095 1.02741 1.02998 0.0
O140 O 0.41772 1.04094 1.02018 0.0
O141 O 0.39893 1.02963 0.10651 0.0
O142 O 0.49461 0.13603 1.05548 0.0
O143 O 0.55576 0.10182 1.03789 0.0
H144 H 0.67113 0.18893 0.12765 0.0
H145 H 0.7267 0.26392 0.17089 0.0
H146 H 0.83449 0.17671 0.22193 0.0
H147 H 0.77992 0.10301 0.17774 0.0
H148 H 0.39713 0.93923 1.01165 0.0
H149 H 0.33001 0.87688 0.96296 0.0
H150 H 0.20773 0.94459 1.02761 0.0
H151 H 0.27511 1.00769 1.07482 0.0
Ho152 Ho 0.52839 0.52036 0.56166 0.0
Ho153 Ho 0.54508 0.60524 0.62503 0.0
C154 C 0.58254 0.51713 0.68241 0.0
C155 C 0.54924 0.44479 0.51149 0.0
C156 C 0.601 0.43295 0.5168 0.0
C157 C 0.64391 0.47087 0.53498 0.0
C158 C 0.69264 0.46086 0.54554 0.0
C159 C 0.69976 0.41262 0.53753 0.0
C160 C 0.65683 0.37446 0.51888 0.0
C161 C 0.60748 0.38449 0.50915 0.0
C162 C 0.43606 0.52156 0.61901 0.0
C163 C 0.48813 0.6079 0.5062 0.0
C164 C 0.53674 0.68506 0.67694 0.0
C165 C 0.4949 0.71264 0.67443 0.0
C166 C 0.45131 0.7008 0.71097 0.0
C167 C 0.40723 0.72003 0.70361 0.0
C168 C 0.40621 0.75204 0.66012 0.0
C169 C 0.45059 0.766 0.62498 0.0
C170 C 0.49472 0.74635 0.63202 0.0
C171 C 0.63626 0.60308 0.56637 0.0
O172 O 0.57709 0.49907 0.63179 0.0
O173 O 0.56901 0.55959 0.6924 0.0
O174 O 0.52077 0.44035 0.5564 0.0
O175 O 0.55108 0.48686 0.48723 0.0
O176 O 0.43884 0.50607 0.56903 0.0
O177 O 0.48319 0.5343 0.63671 0.0
O178 O 0.49263 0.62539 0.55728 0.0
O179 O 0.50399 0.56668 0.49525 0.0
O180 O 0.56653 0.68582 0.63325 0.0
O181 O 0.52171 0.64044 0.69749 0.0
O182 O 0.63419 0.61407 0.61775 0.0
O183 O 0.58904 0.59178 0.54922 0.0
H184 H 0.63957 0.50842 0.54159 0.0
H185 H 0.72484 0.49097 0.55964 0.0
H186 H 0.66169 0.33714 0.51066 0.0
H187 H 0.57468 0.35468 0.49567 0.0
H188 H 0.45042 0.67528 0.74426 0.0
H189 H 0.37375 0.7098 0.73193 0.0
H190 H 0.45058 0.79108 0.59148 0.0
H191 H 0.52785 0.75633 0.60328 0.0
Ho192 Ho 0.0337 0.51591 0.12383 0.0
Ho193 Ho 0.03756 0.60622 1.06026 0.0
C194 C 0.13943 0.61082 0.13484 0.0
C195 C 0.06145 0.43983 0.16302 0.0
C196 C 0.11424 0.42859 0.16165 0.0
C197 C 0.15541 0.45659 0.12844 0.0
C198 C 0.20635 0.44782 0.12878 0.0
C199 C 0.21683 0.41039 0.16175 0.0
C200 C 0.17533 0.38203 0.19449 0.0
C201 C 0.12447 0.39111 0.19447 0.0
C202 C 0.97835 0.57787 0.17667 0.0
C203 C 0.934 0.51092 1.04692 0.0
C204 C 1.01393 0.6882 1.03211 0.0
C205 C 0.96266 0.70184 1.02964 0.0
C206 C 0.91676 0.67146 1.05405 0.0
C207 C 0.8671 0.68171 1.04713 0.0
C208 C 0.8627 0.72288 1.0163 0.0
C209 C 0.90895 0.75385 0.99298 0.0
C210 C 0.95853 0.74332 0.99954 0.0
C211 C 0.08381 0.54621 0.99247 0.0
O212 O 0.11639 0.56344 0.14565 0.0
O213 O 0.11667 0.63633 0.10142 0.0
O214 O 0.05754 0.47859 0.1926 0.0
O215 O 0.03932 0.43919 0.11569 0.0
O216 O 0.96472 0.52927 0.17572 0.0
O217 O 1.02199 0.5908 0.14931 0.0
O218 O 0.95375 0.55972 1.04249 0.0
O219 O 0.95972 0.48374 1.07464 0.0
O220 O 1.0201 0.65369 0.99742 0.0
O221 O 0.02974 0.68081 1.08068 0.0
O222 O 0.08188 0.59176 0.9829 0.0
O223 O 0.06518 0.53643 1.04085 0.0
H224 H 0.14829 0.48558 0.10253 0.0
H225 H 0.23757 0.4703 0.10337 0.0
H226 H 0.18259 0.35366 0.22123 0.0
H227 H 0.09338 0.36935 0.22058 0.0
H228 H 0.91919 0.63924 1.07754 0.0
H229 H 0.83205 0.65725 1.06534 0.0
H230 H 0.9065 0.78523 0.96808 0.0
H231 H 0.99343 0.76685 0.98001 0.0
C232 C 0.33308 0.29301 0.33042 0.0
C233 C 0.3734 0.32873 0.35618 0.0
C234 C 0.28454 0.27373 0.35628 0.0
C235 C 0.27401 0.28945 0.40904 0.0
H236 H 0.33839 0.28131 0.28874 0.0
H237 H 0.25462 0.24654 0.33442 0.0
S238 S 0.3666 0.3809 0.49535 0.0
N239 N 0.40047 0.37876 0.43769 0.0
N240 N 0.30803 0.34118 0.48774 0.0
C241 C 0.31422 0.32408 0.4364 0.0
C242 C 0.36422 0.34432 0.40946 0.0
C243 C 0.19449 0.82875 0.87318 0.0
C244 C 0.19392 0.86596 0.8346 0.0
C245 C 0.21438 0.84149 0.92574 0.0
C246 C 0.23343 0.89178 0.94119 0.0
H247 H 0.18178 0.78963 0.86179 0.0
H248 H 0.21678 0.8121 0.95356 0.0
S249 S 0.24414 1.00298 0.85512 0.0
N250 N 0.21662 0.95505 0.81596 0.0
N251 N 0.25228 0.97857 0.91415 0.0
C252 C 0.23177 0.9291 0.90368 0.0
C253 C 0.21231 0.91631 0.85055 0.0
C254 C 0.63318 0.48582 0.8242 0.0
C255 C 0.63911 0.43612 0.81908 0.0
C256 C 0.61523 0.51117 0.78075 0.0
C257 C 0.60302 0.48916 0.72842 0.0
H258 H 0.64206 0.50547 0.86271 0.0
H259 H 0.61119 0.54883 0.78841 0.0
S260 S 0.61473 0.36082 0.69082 0.0
N261 N 0.63231 0.36678 0.75535 0.0
N262 N 0.60041 0.41386 0.67465 0.0
C263 C 0.60968 0.43974 0.72243 0.0
C264 C 0.62704 0.41361 0.76706 0.0
C265 C 0.94421 0.68826 0.26267 0.0
C266 C 0.92035 0.66566 0.31177 0.0
C267 C 0.96345 0.66071 0.21982 0.0
C268 C 0.95974 0.60866 0.22306 0.0
H269 H 0.94717 0.72761 0.2566 0.0
H270 H 0.98043 0.68035 0.18332 0.0
S271 S 0.90789 0.53181 0.34491 0.0
N272 N 0.9005 0.58783 0.36197 0.0
N273 N 0.93359 0.53704 0.28249 0.0
C274 C 0.93739 0.58607 0.27243 0.0
C275 C 0.9187 0.61404 0.31611 0.0
C276 C 0.52876 0.27022 0.20589 0.0
C277 C 0.48013 0.26833 0.23325 0.0
C278 C 0.54245 0.22609 0.18831 0.0
C279 C 0.50751 0.1788 0.19686 0.0
H280 H 0.55593 0.30595 0.19748 0.0
H281 H 0.57956 0.22924 0.16579 0.0
S282 S 0.37577 0.1544 0.26769 0.0
N283 N 0.39762 0.21574 0.26905 0.0
N284 N 0.42297 0.13322 0.2362 0.0
C285 C 0.45935 0.17671 0.22535 0.0
C286 C 0.4457 0.22138 0.24337 0.0
C287 C 0.11584 0.91337 0.61512 0.0
C288 C 0.15175 0.92362 0.65805 0.0
C289 C 0.10303 0.95248 0.58705 0.0
C290 C 0.12498 1.00248 0.60221 0.0
H291 H 0.09746 0.87513 0.60354 0.0
H292 H 0.07513 0.94353 0.55414 0.0
S293 S 0.22757 1.04855 0.705 0.0
N294 N 0.21508 0.98707 0.70834 0.0
N295 N 0.18753 1.06041 0.6584 0.0
C296 C 0.16202 1.01313 0.64364 0.0
C297 C 0.17635 0.97359 0.67091 0.0
C298 C 0.79286 0.4285 1.01825 0.0
C299 C 0.78308 0.4386 0.96324 0.0
C300 C 0.84125 0.45105 1.04463 0.0
C301 C 0.88243 0.48647 1.01844 0.0
H302 H 0.76261 0.40311 1.04198 0.0
H303 H 0.84594 0.44129 0.08649 0.0
S304 S 0.8813 0.52559 0.87449 0.0
N305 N 0.82326 0.48529 0.8831 0.0
N306 N 0.91091 0.52968 0.93378 0.0
C307 C 0.87356 0.4975 0.96401 0.0
C308 C 0.82506 0.47338 0.93638 0.0
C309 C 0.72948 0.6468 0.44108 0.0
C310 C 0.78001 0.66544 0.46419 0.0
C311 C 0.6836 0.6255 0.47366 0.0
C312 C 0.68599 0.62141 0.53096 0.0
H313 H 0.72497 0.65017 0.39764 0.0
H314 H 0.64568 0.61325 0.45384 0.0
S315 S 0.80983 0.65845 0.61075 0.0
N316 N 0.82979 0.67424 0.5477 0.0
N317 N 0.74512 0.63404 0.60798 0.0
C318 C 0.7368 0.63779 0.55393 0.0
C319 C 0.78315 0.65976 0.52098 0.0
C320 C 0.36395 0.43507 0.1921 0.0
C321 C 0.37257 0.38661 0.19254 0.0
C322 C 0.31439 0.44302 0.17817 0.0
C323 C 0.27154 0.40271 0.16485 0.0
H324 H 0.39426 0.46643 0.20703 0.0
H325 H 0.30844 0.48047 0.18189 0.0
S326 S 0.2755 0.26967 0.15233 0.0
N327 N 0.33557 0.29855 0.17242 0.0
N328 N 0.24288 0.31369 0.14618 0.0
C329 C 0.28101 0.3548 0.16057 0.0
C330 C 0.33148 0.34674 0.17419 0.0
C331 C 0.65105 0.24793 0.96318 0.0
C332 C 0.62451 0.286 0.9517 0.0
C333 C 0.62494 0.20197 0.98882 0.0
C334 C 0.57077 0.19145 1.00562 0.0
H335 H 0.69282 0.25373 0.95235 0.0
H336 H 0.64784 0.1749 0.99654 0.0
S337 S 0.48281 0.27855 0.988 0.0
N338 N 0.54023 0.30895 0.96095 0.0
N339 N 0.49212 0.22487 1.00903 0.0
C340 C 0.54396 0.22932 0.99457 0.0
C341 C 0.5703 0.27556 0.9678 0.0
C342 C 0.93159 0.83104 0.49731 0.0
C343 C 0.92719 0.82204 0.44036 0.0
C344 C 0.94956 0.87959 0.52024 0.0
C345 C 0.96447 0.92309 0.48806 0.0
H346 H 0.92049 0.79992 0.52504 0.0
H347 H 0.9513 0.88281 0.56425 0.0
S348 S 0.96207 0.92187 0.33636 0.0
N349 N 0.94064 0.86225 0.35214 0.0
N350 N 0.97446 0.95281 0.39474 0.0
C351 C 0.96136 0.91484 0.43086 0.0
C352 C 0.94302 0.86494 0.40734 0.0
C353 C 0.26257 0.75681 0.66173 0.0
C354 C 0.26663 0.80799 0.66927 0.0
C355 C 0.30834 0.73907 0.65369 0.0
C356 C 0.35914 0.77206 0.65394 0.0
H357 H 0.22427 0.7303 0.66539 0.0
H358 H 0.30427 0.69912 0.65072 0.0
S359 S 0.38966 0.90974 0.66895 0.0
N360 N 0.32412 0.89172 0.67292 0.0
N361 N 0.4105 0.85824 0.65894 0.0
C362 C 0.36325 0.82358 0.65774 0.0
C363 C 0.31672 0.8416 0.66536 0.0
C364 C 0.68579 0.85229 0.7756 0.0
C365 C 0.67287 0.80094 0.78797 0.0
C366 C 0.72963 0.8731 0.74215 0.0
C367 C 0.76219 0.84347 0.72032 0.0
H368 H 0.6669 0.87802 0.79727 0.0
H369 H 0.74176 0.91343 0.73901 0.0
S370 S 0.73387 0.70553 0.723 0.0
N371 N 0.68607 0.71938 0.76134 0.0
N372 N 0.77134 0.75937 0.70138 0.0
C373 C 0.74486 0.79146 0.72475 0.0
C374 C 0.69901 0.76996 0.75744 0.0
C375 C 0.88799 0.29633 0.29504 0.0
C376 C 0.85627 0.30614 0.33897 0.0
C377 C 0.86491 0.27651 0.24604 0.0
C378 C 0.80935 0.26492 0.24018 0.0
H379 H 0.93018 0.30007 0.3002 0.0
H380 H 0.89005 0.26552 0.21465 0.0
S381 S 0.71034 0.291 0.34121 0.0
N382 N 0.76804 0.30957 0.37156 0.0
N383 N 0.72416 0.27101 0.28007 0.0
C384 C 0.77804 0.27988 0.28181 0.0
C385 C 0.80169 0.30064 0.33135 0.0
C386 C 0.46515 0.65704 0.36171 0.0
C387 C 0.42865 0.68732 0.37038 0.0
C388 C 0.48324 0.63161 0.40504 0.0
C389 C 0.46677 0.63522 0.46032 0.0
H390 H 0.47972 0.65252 0.32068 0.0
H391 H 0.51118 0.6092 0.39496 0.0
S392 S 0.36971 0.7079 0.50602 0.0
N393 N 0.37529 0.71743 0.43955 0.0
N394 N 0.40983 0.67166 0.51989 0.0
C395 C 0.43027 0.66549 0.46951 0.0
C396 C 0.41118 0.69071 0.4252 0.0
C397 C 0.14548 0.50648 0.85794 0.0
C398 C 0.14358 0.45497 0.86252 0.0
C399 C 0.12666 0.53438 0.89992 0.0
C400 C 0.10489 0.5133 0.9502 0.0
H401 H 0.16135 0.5258 0.82087 0.0
H402 H 0.12928 0.57349 0.8925 0.0
S403 S 0.09145 0.38032 0.98586 0.0
N404 N 0.11815 0.38431 0.9237 0.0
N405 N 0.08342 0.4365 1.00176 0.0
C406 C 0.10282 0.46186 0.95587 0.0
C407 C 0.12171 0.43303 0.9126 0.0
C408 C 0.62864 0.89743 0.97078 0.0
C409 C 0.59057 0.85881 0.9462 0.0
C410 C 0.61556 0.94068 0.99034 0.0
C411 C 0.56359 0.94725 0.98664 0.0
H412 H 0.66933 0.89444 0.97446 0.0
H413 H 0.64655 0.96863 1.0098 0.0
S414 S 0.4499 0.85831 0.92239 0.0
N415 N 0.49951 0.83049 0.91616 0.0
N416 N 0.47418 0.91204 0.95412 0.0
C417 C 0.52515 0.90929 0.96111 0.0
C418 C 0.53885 0.86511 0.94043 0.0
C419 C 0.89428 0.20756 0.55211 0.0
C420 C 0.90804 0.2174 0.49651 0.0
C421 C 0.90096 0.16455 0.57733 0.0
C422 C 0.91923 0.12803 0.54773 0.0
H423 H 0.8781 0.23296 0.57729 0.0
H424 H 0.89261 0.16044 0.62072 0.0
S425 S 0.95075 0.12809 0.39966 0.0
N426 N 0.93875 0.18323 0.41232 0.0
N427 N 0.94147 0.09886 0.45848 0.0
C428 C 0.9276 0.13402 0.49134 0.0
C429 C 0.92468 0.17953 0.46608 0.0
C430 C 0.27222 0.63253 0.21329 0.0
C431 C 0.28672 0.68467 0.22388 0.0
C432 C 0.22538 0.60914 0.18454 0.0
C433 C 0.19052 0.63652 0.16392 0.0
H434 H 0.29775 0.60944 0.22653 0.0
H435 H 0.21676 0.56911 0.1779 0.0
S436 S 0.20538 0.77281 0.18566 0.0
N437 N 0.25769 0.7617 0.21542 0.0
N438 N 0.17261 0.71867 0.16016 0.0
C439 C 0.20393 0.68837 0.1751 0.0
C440 C 0.2509 0.71202 0.20518 0.0
C441 C 0.32723 0.42769 0.69892 0.0
C442 C 0.29017 0.45533 0.71621 0.0
C443 C 0.3744 0.44952 0.66897 0.0
C444 C 0.38768 0.50042 0.65478 0.0
H445 H 0.31969 0.38838 0.70838 0.0
H446 H 0.40053 0.42604 0.6562 0.0
S447 S 0.30587 0.59043 0.68839 0.0
N448 N 0.27138 0.53757 0.71524 0.0
N449 N 0.35988 0.57807 0.66033 0.0
C450 C 0.35187 0.52888 0.6722 0.0
C451 C 0.30353 0.50666 0.70256 0.0
C452 C 0.72334 0.70313 0.96187 0.0
C453 C 0.7138 0.75108 0.96652 0.0
C454 C 0.77035 0.69347 0.98118 0.0
C455 C 0.80978 0.73168 1.00495 0.0
H456 H 0.69551 0.6736 0.94064 0.0
H457 H 0.77725 0.65663 0.97452 0.0
S458 S 0.80241 0.86261 1.03023 0.0
N459 N 0.74635 0.83638 0.99953 0.0
N460 N 0.83446 0.81809 1.03594 0.0
C461 C 0.79948 0.77903 1.01239 0.0
C462 C 0.75151 0.78876 0.99322 0.0
C463 C 0.49864 0.84801 0.21969 0.0
C464 C 0.44427 0.83585 0.23555 0.0
C465 C 0.52319 0.89359 0.19292 0.0
C466 C 0.4954 0.93055 0.18113 0.0
H467 H 0.52219 0.82125 0.22629 0.0
H468 H 0.5647 0.89967 0.18087 0.0
S469 S 0.35282 0.91931 0.21593 0.0
N470 N 0.36389 0.86665 0.23821 0.0
N471 N 0.40994 0.95128 0.18954 0.0
C472 C 0.44146 0.91952 0.19806 0.0
C473 C 0.41616 0.87281 0.22461 0.0
C474 C 0.1136 0.26075 0.75358 0.0
C475 C 0.13127 0.30546 0.72365 0.0
C476 C 0.09241 0.2134 0.72764 0.0
C477 C 0.08739 0.20786 0.67018 0.0
H478 H 0.11758 0.26202 0.79744 0.0
H479 H 0.08041 0.1807 0.75302 0.0
S480 S 0.12372 0.31367 0.57281 0.0
N481 N 0.13866 0.3405 0.63288 0.0
N482 N 0.10027 0.25368 0.58504 0.0
C483 C 0.10365 0.25271 0.6402 0.0
C484 C 0.12503 0.30053 0.66648 0.0
C485 C 0.84465 0.42037 0.50787 0.0
C486 C 0.84821 0.37197 0.52149 0.0
C487 C 0.79748 0.43549 0.51759 0.0
C488 C 0.75322 0.40327 0.54289 0.0
H489 H 0.87561 0.44393 0.48304 0.0
H490 H 0.79412 0.47042 0.50029 0.0
S491 S 0.74982 0.28165 0.60594 0.0
N492 N 0.80852 0.29778 0.57482 0.0
N493 N 0.72124 0.32789 0.59556 0.0
C494 C 0.75995 0.35913 0.56581 0.0
C495 C 0.80752 0.34326 0.5551 0.0
loop_
_geom_bond_atom_site_label_1
_geom_bond_atom_site_label_2
_geom_bond_distance
_geom_bond_site_symmetry_2
_ccdc_geom_bond_type
H0 C3 0.931 . S
H1 C6 0.928 . S
H2 C8 0.930 . S
C3 H0 0.931 . S
C3 C4 1.413 . S
C3 C5 1.360 . S
C4 C3 1.413 . S
C4 C8 1.429 . S
C5 C3 1.360 . S
C5 C6 1.372 . S
C6 H1 0.928 . S
C6 C5 1.372 . S
C6 C7 1.404 . S
C7 C6 1.404 . S
C7 C8 1.391 . S
C8 H2 0.930 . S
C8 C4 1.429 . S
C8 C7 1.391 . S
H9 C12 0.931 . S
H10 C15 0.928 . S
H11 C17 0.930 . S
C12 H9 0.931 . S
C12 C13 1.413 . S
C12 C14 1.360 . S
C13 C12 1.413 . S
C13 C17 1.429 . S
C14 C12 1.360 . S
C14 C15 1.372 . S
C15 H10 0.928 . S
C15 C14 1.372 . S
C15 C16 1.404 . S
C16 C15 1.404 . S
C16 C17 1.391 . S
C17 H11 0.930 . S
C17 C13 1.429 . S
C17 C16 1.391 . S
H18 C21 0.931 . S
H19 C24 0.928 . S
H20 C26 0.930 . S
C21 H18 0.931 . S
C21 C22 1.413 . S
C21 C23 1.360 . S
C22 C21 1.413 . S
C22 C26 1.429 . S
C23 C21 1.360 . S
C23 C24 1.372 . S
C24 H19 0.928 . S
C24 C23 1.372 . S
C24 C25 1.404 . S
C25 C24 1.404 . S
C25 C26 1.391 . S
C26 H20 0.930 . S
C26 C22 1.429 . S
C26 C25 1.391 . S
H27 C30 0.931 . S
H28 C33 0.928 . S
H29 C35 0.930 . S
C30 H27 0.931 . S
C30 C31 1.413 . S
C30 C32 1.360 . S
C31 C30 1.413 . S
C31 C35 1.429 . S
C32 C30 1.360 . S
C32 C33 1.372 . S
C33 H28 0.928 . S
C33 C32 1.372 . S
C33 C34 1.404 . S
C34 C33 1.404 . S
C34 C35 1.391 . S
C35 H29 0.930 . S
C35 C31 1.429 . S
C35 C34 1.391 . S
H36 C39 0.931 . S
H37 C42 0.928 . S
H38 C44 0.930 . S
C39 H36 0.931 . S
C39 C40 1.413 . S
C39 C41 1.360 . S
C40 C39 1.413 . S
C40 C44 1.429 . S
C41 C39 1.360 . S
C41 C42 1.372 . S
C42 H37 0.928 . S
C42 C41 1.372 . S
C42 C43 1.404 . S
C43 C42 1.404 . S
C43 C44 1.391 . S
C44 H38 0.930 . S
C44 C40 1.429 . S
C44 C43 1.391 . S
H45 C48 0.931 . S
H46 C51 0.928 . S
H47 C53 0.930 . S
C48 H45 0.931 . S
C48 C49 1.413 . S
C48 C50 1.360 . S
C49 C48 1.413 . S
C49 C53 1.429 . S
C50 C48 1.360 . S
C50 C51 1.372 . S
C51 H46 0.928 . S
C51 C50 1.372 . S
C51 C52 1.404 . S
C52 C51 1.404 . S
C52 C53 1.391 . S
C53 H47 0.930 . S
C53 C49 1.429 . S
C53 C52 1.391 . S
H54 C57 0.931 . S
H55 C60 0.928 . S
H56 C62 0.930 . S
C57 H54 0.931 . S
C57 C58 1.413 . S
C57 C59 1.360 . S
C58 C57 1.413 . S
C58 C62 1.429 . S
C59 C57 1.360 . S
C59 C60 1.372 . S
C60 H55 0.928 . S
C60 C59 1.372 . S
C60 C61 1.404 . S
C61 C60 1.404 . S
C61 C62 1.391 . S
C62 H56 0.930 . S
C62 C58 1.429 . S
C62 C61 1.391 . S
H63 C66 0.931 . S
H64 C69 0.928 . S
H65 C71 0.930 . S
C66 H63 0.931 . S
C66 C67 1.413 . S
C66 C68 1.360 . S
C67 C66 1.413 . S
C67 C71 1.429 . S
C68 C66 1.360 . S
C68 C69 1.372 . S
C69 H64 0.928 . S
C69 C68 1.372 . S
C69 C70 1.404 . S
C70 C69 1.404 . S
C70 C71 1.391 . S
C71 H65 0.930 . S
C71 C67 1.429 . S
C71 C70 1.391 . S
Ho72 C75 2.811 . S
Ho72 O92 2.322 . S
Ho72 O94 2.378 . S
Ho72 O95 2.524 . S
Ho72 O96 2.381 1_545 S
Ho72 O97 2.669 1_545 S
Ho72 O99 2.346 1_445 S
Ho72 O103 2.305 1_455 S
Ho73 C84 2.811 . S
Ho73 O93 2.346 1_665 S
Ho73 O97 2.305 1_655 S
Ho73 O98 2.322 . S
Ho73 O100 2.378 . S
Ho73 O101 2.524 . S
Ho73 O102 2.381 1_565 S
Ho73 O103 2.669 1_565 S
C74 O92 1.259 . S
C74 O93 1.268 . S
C75 Ho72 2.811 . S
C75 C76 1.488 . S
C75 O94 1.215 . S
C75 O95 1.289 . S
C76 C75 1.488 . S
C76 C77 1.348 . S
C76 C81 1.413 . S
C77 C76 1.348 . S
C77 C78 1.442 . S
C77 H104 0.930 . S
C78 C77 1.442 . S
C78 C79 1.381 . S
C78 H105 0.931 . S
C79 C78 1.381 . S
C79 C80 1.321 . S
C80 C79 1.321 . S
C80 C81 1.403 . S
C80 H106 0.934 . S
C81 C76 1.413 . S
C81 C80 1.403 . S
C81 H107 0.930 . S
C82 O96 1.275 . S
C82 O97 1.256 . S
C83 O98 1.259 . S
C83 O99 1.268 . S
C84 Ho73 2.811 . S
C84 C85 1.488 . S
C84 O100 1.215 . S
C84 O101 1.289 . S
C85 C84 1.488 . S
C85 C86 1.348 . S
C85 C90 1.413 . S
C86 C85 1.348 . S
C86 C87 1.442 . S
C86 H108 0.930 . S
C87 C86 1.442 . S
C87 C88 1.381 . S
C87 H109 0.931 . S
C88 C87 1.381 . S
C88 C89 1.321 . S
C89 C88 1.321 . S
C89 C90 1.403 . S
C89 H110 0.934 . S
C90 C85 1.413 . S
C90 C89 1.403 . S
C90 H111 0.930 . S
C91 O102 1.275 . S
C91 O103 1.256 . S
O92 Ho72 2.322 . S
O92 C74 1.259 . S
O93 Ho73 2.346 1_445 S
O93 C74 1.268 . S
O94 Ho72 2.378 . S
O94 C75 1.215 . S
O95 Ho72 2.524 . S
O95 C75 1.289 . S
O96 Ho72 2.381 1_565 S
O96 C82 1.275 . S
O97 Ho72 2.669 1_565 S
O97 Ho73 2.305 1_455 S
O97 C82 1.256 . S
O98 Ho73 2.322 . S
O98 C83 1.259 . S
O99 Ho72 2.346 1_665 S
O99 C83 1.268 . S
O100 Ho73 2.378 . S
O100 C84 1.215 . S
O101 Ho73 2.524 . S
O101 C84 1.289 . S
O102 Ho73 2.381 1_545 S
O102 C91 1.275 . S
O103 Ho72 2.305 1_655 S
O103 Ho73 2.669 1_545 S
O103 C91 1.256 . S
H104 C77 0.930 . S
H105 C78 0.931 . S
H106 C80 0.934 . S
H107 C81 0.930 . S
H108 C86 0.930 . S
H109 C87 0.931 . S
H110 C89 0.934 . S
H111 C90 0.930 . S
Ho112 C115 2.811 1_565 S
Ho112 O132 2.322 1_565 S
Ho112 O134 2.378 1_565 S
Ho112 O135 2.524 1_565 S
Ho112 O136 2.381 . S
Ho112 O137 2.669 . S
Ho112 O139 2.346 1_554 S
Ho112 O143 2.305 1_564 S
Ho113 C124 2.811 1_545 S
Ho113 O133 2.346 1_556 S
Ho113 O137 2.305 1_546 S
Ho113 O138 2.322 1_545 S
Ho113 O140 2.378 1_545 S
Ho113 O141 2.524 1_545 S
Ho113 O142 2.381 . S
Ho113 O143 2.669 . S
C114 O132 1.259 . S
C114 O133 1.268 . S
C115 Ho112 2.811 1_545 S
C115 C116 1.488 . S
C115 O134 1.215 . S
C115 O135 1.289 . S
C116 C115 1.488 . S
C116 C117 1.348 . S
C116 C121 1.413 . S
C117 C116 1.348 . S
C117 C118 1.442 . S
C117 H144 0.930 . S
C118 C117 1.442 . S
C118 C119 1.381 . S
C118 H145 0.931 . S
C119 C118 1.381 . S
C119 C120 1.321 . S
C120 C119 1.321 . S
C120 C121 1.403 . S
C120 H146 0.934 . S
C121 C116 1.413 . S
C121 C120 1.403 . S
C121 H147 0.930 . S
C122 O136 1.275 . S
C122 O137 1.256 . S
C123 O138 1.259 . S
C123 O139 1.268 . S
C124 Ho113 2.811 1_565 S
C124 C125 1.488 . S
C124 O140 1.215 . S
C124 O141 1.289 . S
C125 C124 1.488 . S
C125 C126 1.348 . S
C125 C130 1.413 . S
C126 C125 1.348 . S
C126 C127 1.442 . S
C126 H148 0.930 . S
C127 C126 1.442 . S
C127 C128 1.381 . S
C127 H149 0.931 . S
C128 C127 1.381 . S
C128 C129 1.321 . S
C129 C128 1.321 . S
C129 C130 1.403 . S
C129 H150 0.934 . S
C130 C125 1.413 . S
C130 C129 1.403 . S
C130 H151 0.930 . S
C131 O142 1.275 . S
C131 O143 1.256 . S
O132 Ho112 2.322 1_545 S
O132 C114 1.259 . S
O133 Ho113 2.346 1_554 S
O133 C114 1.268 . S
O134 Ho112 2.378 1_545 S
O134 C115 1.215 . S
O135 Ho112 2.524 1_545 S
O135 C115 1.289 . S
O136 Ho112 2.381 . S
O136 C122 1.275 . S
O137 Ho112 2.669 . S
O137 Ho113 2.305 1_564 S
O137 C122 1.256 . S
O138 Ho113 2.322 1_565 S
O138 C123 1.259 . S
O139 Ho112 2.346 1_556 S
O139 C123 1.268 . S
O140 Ho113 2.378 1_565 S
O140 C124 1.215 . S
O141 Ho113 2.524 1_565 S
O141 C124 1.289 . S
O142 Ho113 2.381 . S
O142 C131 1.275 . S
O143 Ho112 2.305 1_546 S
O143 Ho113 2.669 . S
O143 C131 1.256 . S
H144 C117 0.930 . S
H145 C118 0.931 . S
H146 C120 0.934 . S
H147 C121 0.930 . S
H148 C126 0.930 . S
H149 C127 0.931 . S
H150 C129 0.934 . S
H151 C130 0.930 . S
Ho152 C155 2.811 . S
Ho152 O172 2.322 . S
Ho152 O174 2.378 . S
Ho152 O175 2.524 . S
Ho152 O176 2.381 . S
Ho152 O177 2.669 . S
Ho152 O179 2.346 . S
Ho152 O183 2.305 . S
Ho153 C164 2.811 . S
Ho153 O173 2.346 . S
Ho153 O177 2.305 . S
Ho153 O178 2.322 . S
Ho153 O180 2.378 . S
Ho153 O181 2.524 . S
Ho153 O182 2.381 . S
Ho153 O183 2.669 . S
C154 O172 1.259 . S
C154 O173 1.268 . S
C155 Ho152 2.811 . S
C155 C156 1.488 . S
C155 O174 1.215 . S
C155 O175 1.289 . S
C156 C155 1.488 . S
C156 C157 1.348 . S
C156 C161 1.413 . S
C157 C156 1.348 . S
C157 C158 1.442 . S
C157 H184 0.930 . S
C158 C157 1.442 . S
C158 C159 1.381 . S
C158 H185 0.931 . S
C159 C158 1.381 . S
C159 C160 1.321 . S
C160 C159 1.321 . S
C160 C161 1.403 . S
C160 H186 0.934 . S
C161 C156 1.413 . S
C161 C160 1.403 . S
C161 H187 0.930 . S
C162 O176 1.275 . S
C162 O177 1.256 . S
C163 O178 1.259 . S
C163 O179 1.268 . S
C164 Ho153 2.811 . S
C164 C165 1.488 . S
C164 O180 1.215 . S
C164 O181 1.289 . S
C165 C164 1.488 . S
C165 C166 1.348 . S
C165 C170 1.413 . S
C166 C165 1.348 . S
C166 C167 1.442 . S
C166 H188 0.930 . S
C167 C166 1.442 . S
C167 C168 1.381 . S
C167 H189 0.931 . S
C168 C167 1.381 . S
C168 C169 1.321 . S
C169 C168 1.321 . S
C169 C170 1.403 . S
C169 H190 0.934 . S
C170 C165 1.413 . S
C170 C169 1.403 . S
C170 H191 0.930 . S
C171 O182 1.275 . S
C171 O183 1.256 . S
O172 Ho152 2.322 . S
O172 C154 1.259 . S
O173 Ho153 2.346 . S
O173 C154 1.268 . S
O174 Ho152 2.378 . S
O174 C155 1.215 . S
O175 Ho152 2.524 . S
O175 C155 1.289 . S
O176 Ho152 2.381 . S
O176 C162 1.275 . S
O177 Ho152 2.669 . S
O177 Ho153 2.305 . S
O177 C162 1.256 . S
O178 Ho153 2.322 . S
O178 C163 1.259 . S
O179 Ho152 2.346 . S
O179 C163 1.268 . S
O180 Ho153 2.378 . S
O180 C164 1.215 . S
O181 Ho153 2.524 . S
O181 C164 1.289 . S
O182 Ho153 2.381 . S
O182 C171 1.275 . S
O183 Ho152 2.305 . S
O183 Ho153 2.669 . S
O183 C171 1.256 . S
H184 C157 0.930 . S
H185 C158 0.931 . S
H186 C160 0.934 . S
H187 C161 0.930 . S
H188 C166 0.930 . S
H189 C167 0.931 . S
H190 C169 0.934 . S
H191 C170 0.930 . S
Ho192 C195 2.811 . S
Ho192 O212 2.322 . S
Ho192 O214 2.378 . S
Ho192 O215 2.524 . S
Ho192 O216 2.381 1_455 S
Ho192 O217 2.669 1_455 S
Ho192 O219 2.346 1_455 S
Ho192 O223 2.305 1_554 S
Ho193 C204 2.823 . S
Ho193 O213 2.333 1_656 S
Ho193 O217 2.308 1_556 S
Ho193 O218 2.330 . S
Ho193 O220 2.386 . S
Ho193 O221 2.538 . S
Ho193 O222 2.373 1_655 S
Ho193 O223 2.661 1_655 S
C194 O212 1.259 . S
C194 O213 1.268 . S
C195 Ho192 2.811 . S
C195 C196 1.488 . S
C195 O214 1.215 . S
C195 O215 1.289 . S
C196 C195 1.488 . S
C196 C197 1.348 . S
C196 C201 1.413 . S
C197 C196 1.348 . S
C197 C198 1.442 . S
C197 H224 0.930 . S
C198 C197 1.442 . S
C198 C199 1.381 . S
C198 H225 0.931 . S
C199 C198 1.381 . S
C199 C200 1.321 . S
C200 C199 1.321 . S
C200 C201 1.403 . S
C200 H226 0.934 . S
C201 C196 1.413 . S
C201 C200 1.403 . S
C201 H227 0.930 . S
C202 O216 1.275 . S
C202 O217 1.256 . S
C203 O218 1.259 . S
C203 O219 1.267 1_556 S
C204 Ho193 2.823 . S
C204 C205 1.488 . S
C204 O220 1.215 . S
C204 O221 1.289 . S
C205 C204 1.488 . S
C205 C206 1.348 . S
C205 C210 1.413 . S
C206 C205 1.348 . S
C206 C207 1.442 . S
C206 H228 0.930 . S
C207 C206 1.442 . S
C207 C208 1.381 . S
C207 H229 0.931 . S
C208 C207 1.381 . S
C208 C209 1.321 . S
C209 C208 1.321 . S
C209 C210 1.403 . S
C209 H230 0.934 . S
C210 C205 1.413 . S
C210 C209 1.403 . S
C210 H231 0.930 . S
C211 O222 1.275 . S
C211 O223 1.256 . S
O212 Ho192 2.322 . S
O212 C194 1.259 . S
O213 Ho193 2.333 1_454 S
O213 C194 1.268 . S
O214 Ho192 2.378 . S
O214 C195 1.215 . S
O215 Ho192 2.524 . S
O215 C195 1.289 . S
O216 Ho192 2.381 1_655 S
O216 C202 1.275 . S
O217 Ho192 2.669 1_655 S
O217 Ho193 2.308 1_554 S
O217 C202 1.256 . S
O218 Ho193 2.330 . S
O218 C203 1.259 . S
O219 Ho192 2.346 1_655 S
O219 C203 1.267 1_554 S
O220 Ho193 2.386 . S
O220 C204 1.215 . S
O221 Ho193 2.538 . S
O221 C204 1.289 . S
O222 Ho193 2.373 1_455 S
O222 C211 1.275 . S
O223 Ho192 2.305 1_556 S
O223 Ho193 2.661 1_455 S
O223 C211 1.256 . S
H224 C197 0.930 . S
H225 C198 0.931 . S
H226 C200 0.934 . S
H227 C201 0.930 . S
H228 C206 0.930 . S
H229 C207 0.931 . S
H230 C209 0.934 . S
H231 C210 0.930 . S
C232 C233 1.369 . S
C232 C234 1.419 . S
C232 H236 0.930 . S
C233 C232 1.369 . S
C233 C242 1.429 . S
C234 C232 1.419 . S
C234 C235 1.363 . S
C234 H237 0.929 . S
C235 C234 1.363 . S
C235 C241 1.428 . S
H236 C232 0.930 . S
H237 C234 0.929 . S
S238 N239 1.613 . S
S238 N240 1.610 . S
N239 S238 1.613 . S
N239 C242 1.350 . S
N240 S238 1.610 . S
N240 C241 1.351 . S
C241 C235 1.428 . S
C241 N240 1.351 . S
C241 C242 1.434 . S
C242 C233 1.429 . S
C242 N239 1.350 . S
C242 C241 1.434 . S
C243 C244 1.369 . S
C243 C245 1.419 . S
C243 H247 0.930 . S
C244 C243 1.369 . S
C244 C253 1.429 . S
C245 C243 1.419 . S
C245 C246 1.363 . S
C245 H248 0.929 . S
C246 C245 1.363 . S
C246 C252 1.428 . S
H247 C243 0.930 . S
H248 C245 0.929 . S
S249 N250 1.613 . S
S249 N251 1.610 . S
N250 S249 1.613 . S
N250 C253 1.350 . S
N251 S249 1.610 . S
N251 C252 1.351 . S
C252 C246 1.428 . S
C252 N251 1.351 . S
C252 C253 1.434 . S
C253 C244 1.429 . S
C253 N250 1.350 . S
C253 C252 1.434 . S
C254 C255 1.369 . S
C254 C256 1.419 . S
C254 H258 0.930 . S
C255 C254 1.369 . S
C255 C264 1.429 . S
C256 C254 1.419 . S
C256 C257 1.363 . S
C256 H259 0.929 . S
C257 C256 1.363 . S
C257 C263 1.428 . S
H258 C254 0.930 . S
H259 C256 0.929 . S
S260 N261 1.613 . S
S260 N262 1.610 . S
N261 S260 1.613 . S
N261 C264 1.350 . S
N262 S260 1.610 . S
N262 C263 1.351 . S
C263 C257 1.428 . S
C263 N262 1.351 . S
C263 C264 1.434 . S
C264 C255 1.429 . S
C264 N261 1.350 . S
C264 C263 1.434 . S
C265 C266 1.369 . S
C265 C267 1.419 . S
C265 H269 0.930 . S
C266 C265 1.369 . S
C266 C275 1.429 . S
C267 C265 1.419 . S
C267 C268 1.363 . S
C267 H270 0.929 . S
C268 C267 1.363 . S
C268 C274 1.428 . S
H269 C265 0.930 . S
H270 C267 0.929 . S
S271 N272 1.613 . S
S271 N273 1.610 . S
N272 S271 1.613 . S
N272 C275 1.350 . S
N273 S271 1.610 . S
N273 C274 1.351 . S
C274 C268 1.428 . S
C274 N273 1.351 . S
C274 C275 1.434 . S
C275 C266 1.429 . S
C275 N272 1.350 . S
C275 C274 1.434 . S
C276 C277 1.369 . S
C276 C278 1.419 . S
C276 H280 0.930 . S
C277 C276 1.369 . S
C277 C286 1.429 . S
C278 C276 1.419 . S
C278 C279 1.363 . S
C278 H281 0.929 . S
C279 C278 1.363 . S
C279 C285 1.428 . S
H280 C276 0.930 . S
H281 C278 0.929 . S
S282 N283 1.613 . S
S282 N284 1.610 . S
N283 S282 1.613 . S
N283 C286 1.350 . S
N284 S282 1.610 . S
N284 C285 1.351 . S
C285 C279 1.428 . S
C285 N284 1.351 . S
C285 C286 1.434 . S
C286 C277 1.429 . S
C286 N283 1.350 . S
C286 C285 1.434 . S
C287 C288 1.369 . S
C287 C289 1.419 . S
C287 H291 0.930 . S
C288 C287 1.369 . S
C288 C297 1.429 . S
C289 C287 1.419 . S
C289 C290 1.363 . S
C289 H292 0.929 . S
C290 C289 1.363 . S
C290 C296 1.428 . S
H291 C287 0.930 . S
H292 C289 0.929 . S
S293 N294 1.613 . S
S293 N295 1.610 . S
N294 S293 1.613 . S
N294 C297 1.350 . S
N295 S293 1.610 . S
N295 C296 1.351 . S
C296 C290 1.428 . S
C296 N295 1.351 . S
C296 C297 1.434 . S
C297 C288 1.429 . S
C297 N294 1.350 . S
C297 C296 1.434 . S
C298 C299 1.369 . S
C298 C300 1.419 . S
C298 H302 0.930 . S
C299 C298 1.369 . S
C299 C308 1.429 . S
C300 C298 1.419 . S
C300 C301 1.363 . S
C300 H303 0.929 . S
C301 C300 1.363 . S
C301 C307 1.428 . S
H302 C298 0.930 . S
H303 C300 0.929 . S
S304 N305 1.613 . S
S304 N306 1.610 . S
N305 S304 1.613 . S
N305 C308 1.350 . S
N306 S304 1.610 . S
N306 C307 1.351 . S
C307 C301 1.428 . S
C307 N306 1.351 . S
C307 C308 1.434 . S
C308 C299 1.429 . S
C308 N305 1.350 . S
C308 C307 1.434 . S
C309 C310 1.369 . S
C309 C311 1.419 . S
C309 H313 0.930 . S
C310 C309 1.369 . S
C310 C319 1.429 . S
C311 C309 1.419 . S
C311 C312 1.363 . S
C311 H314 0.929 . S
C312 C311 1.363 . S
C312 C318 1.428 . S
H313 C309 0.930 . S
H314 C311 0.929 . S
S315 N316 1.613 . S
S315 N317 1.610 . S
N316 S315 1.613 . S
N316 C319 1.350 . S
N317 S315 1.610 . S
N317 C318 1.351 . S
C318 C312 1.428 . S
C318 N317 1.351 . S
C318 C319 1.434 . S
C319 C310 1.429 . S
C319 N316 1.350 . S
C319 C318 1.434 . S
C320 C321 1.369 . S
C320 C322 1.419 . S
C320 H324 0.930 . S
C321 C320 1.369 . S
C321 C330 1.429 . S
C322 C320 1.419 . S
C322 C323 1.363 . S
C322 H325 0.929 . S
C323 C322 1.363 . S
C323 C329 1.428 . S
H324 C320 0.930 . S
H325 C322 0.929 . S
S326 N327 1.613 . S
S326 N328 1.610 . S
N327 S326 1.613 . S
N327 C330 1.350 . S
N328 S326 1.610 . S
N328 C329 1.351 . S
C329 C323 1.428 . S
C329 N328 1.351 . S
C329 C330 1.434 . S
C330 C321 1.429 . S
C330 N327 1.350 . S
C330 C329 1.434 . S
C331 C332 1.369 . S
C331 C333 1.419 . S
C331 H335 0.930 . S
C332 C331 1.369 . S
C332 C341 1.429 . S
C333 C331 1.419 . S
C333 C334 1.363 . S
C333 H336 0.929 . S
C334 C333 1.363 . S
C334 C340 1.428 . S
H335 C331 0.930 . S
H336 C333 0.929 . S
S337 N338 1.613 . S
S337 N339 1.610 . S
N338 S337 1.613 . S
N338 C341 1.350 . S
N339 S337 1.610 . S
N339 C340 1.351 . S
C340 C334 1.428 . S
C340 N339 1.351 . S
C340 C341 1.434 . S
C341 C332 1.429 . S
C341 N338 1.350 . S
C341 C340 1.434 . S
C342 C343 1.369 . S
C342 C344 1.419 . S
C342 H346 0.930 . S
C343 C342 1.369 . S
C343 C352 1.429 . S
C344 C342 1.419 . S
C344 C345 1.363 . S
C344 H347 0.929 . S
C345 C344 1.363 . S
C345 C351 1.428 . S
H346 C342 0.930 . S
H347 C344 0.929 . S
S348 N349 1.613 . S
S348 N350 1.610 . S
N349 S348 1.613 . S
N349 C352 1.350 . S
N350 S348 1.610 . S
N350 C351 1.351 . S
C351 C345 1.428 . S
C351 N350 1.351 . S
C351 C352 1.434 . S
C352 C343 1.429 . S
C352 N349 1.350 . S
C352 C351 1.434 . S
C353 C354 1.369 . S
C353 C355 1.419 . S
C353 H357 0.930 . S
C354 C353 1.369 . S
C354 C363 1.429 . S
C355 C353 1.419 . S
C355 C356 1.363 . S
C355 H358 0.929 . S
C356 C355 1.363 . S
C356 C362 1.428 . S
H357 C353 0.930 . S
H358 C355 0.929 . S
S359 N360 1.613 . S
S359 N361 1.610 . S
N360 S359 1.613 . S
N360 C363 1.350 . S
N361 S359 1.610 . S
N361 C362 1.351 . S
C362 C356 1.428 . S
C362 N361 1.351 . S
C362 C363 1.434 . S
C363 C354 1.429 . S
C363 N360 1.350 . S
C363 C362 1.434 . S
C364 C365 1.369 . S
C364 C366 1.419 . S
C364 H368 0.930 . S
C365 C364 1.369 . S
C365 C374 1.429 . S
C366 C364 1.419 . S
C366 C367 1.363 . S
C366 H369 0.929 . S
C367 C366 1.363 . S
C367 C373 1.428 . S
H368 C364 0.930 . S
H369 C366 0.929 . S
S370 N371 1.613 . S
S370 N372 1.610 . S
N371 S370 1.613 . S
N371 C374 1.350 . S
N372 S370 1.610 . S
N372 C373 1.351 . S
C373 C367 1.428 . S
C373 N372 1.351 . S
C373 C374 1.434 . S
C374 C365 1.429 . S
C374 N371 1.350 . S
C374 C373 1.434 . S
C375 C376 1.369 . S
C375 C377 1.419 . S
C375 H379 0.930 . S
C376 C375 1.369 . S
C376 C385 1.429 . S
C377 C375 1.419 . S
C377 C378 1.363 . S
C377 H380 0.929 . S
C378 C377 1.363 . S
C378 C384 1.428 . S
H379 C375 0.930 . S
H380 C377 0.929 . S
S381 N382 1.613 . S
S381 N383 1.610 . S
N382 S381 1.613 . S
N382 C385 1.350 . S
N383 S381 1.610 . S
N383 C384 1.351 . S
C384 C378 1.428 . S
C384 N383 1.351 . S
C384 C385 1.434 . S
C385 C376 1.429 . S
C385 N382 1.350 . S
C385 C384 1.434 . S
C386 C387 1.369 . S
C386 C388 1.419 . S
C386 H390 0.930 . S
C387 C386 1.369 . S
C387 C396 1.429 . S
C388 C386 1.419 . S
C388 C389 1.363 . S
C388 H391 0.929 . S
C389 C388 1.363 . S
C389 C395 1.428 . S
H390 C386 0.930 . S
H391 C388 0.929 . S
S392 N393 1.613 . S
S392 N394 1.610 . S
N393 S392 1.613 . S
N393 C396 1.350 . S
N394 S392 1.610 . S
N394 C395 1.351 . S
C395 C389 1.428 . S
C395 N394 1.351 . S
C395 C396 1.434 . S
C396 C387 1.429 . S
C396 N393 1.350 . S
C396 C395 1.434 . S
C397 C398 1.369 . S
C397 C399 1.419 . S
C397 H401 0.930 . S
C398 C397 1.369 . S
C398 C407 1.429 . S
C399 C397 1.419 . S
C399 C400 1.363 . S
C399 H402 0.929 . S
C400 C399 1.363 . S
C400 C406 1.428 . S
H401 C397 0.930 . S
H402 C399 0.929 . S
S403 N404 1.613 . S
S403 N405 1.610 . S
N404 S403 1.613 . S
N404 C407 1.350 . S
N405 S403 1.610 . S
N405 C406 1.351 . S
C406 C400 1.428 . S
C406 N405 1.351 . S
C406 C407 1.434 . S
C407 C398 1.429 . S
C407 N404 1.350 . S
C407 C406 1.434 . S
C408 C409 1.369 . S
C408 C410 1.419 . S
C408 H412 0.930 . S
C409 C408 1.369 . S
C409 C418 1.429 . S
C410 C408 1.419 . S
C410 C411 1.363 . S
C410 H413 0.929 . S
C411 C410 1.363 . S
C411 C417 1.428 . S
H412 C408 0.930 . S
H413 C410 0.929 . S
S414 N415 1.613 . S
S414 N416 1.610 . S
N415 S414 1.613 . S
N415 C418 1.350 . S
N416 S414 1.610 . S
N416 C417 1.351 . S
C417 C411 1.428 . S
C417 N416 1.351 . S
C417 C418 1.434 . S
C418 C409 1.429 . S
C418 N415 1.350 . S
C418 C417 1.434 . S
C419 C420 1.369 . S
C419 C421 1.419 . S
C419 H423 0.930 . S
C420 C419 1.369 . S
C420 C429 1.429 . S
C421 C419 1.419 . S
C421 C422 1.363 . S
C421 H424 0.929 . S
C422 C421 1.363 . S
C422 C428 1.428 . S
H423 C419 0.930 . S
H424 C421 0.929 . S
S425 N426 1.613 1_455 S
S425 N427 1.610 . S
N426 S425 1.613 1_655 S
N426 C429 1.350 . S
N427 S425 1.610 . S
N427 C428 1.351 1_455 S
C428 C422 1.428 . S
C428 N427 1.351 1_655 S
C428 C429 1.434 . S
C429 C420 1.429 . S
C429 N426 1.350 . S
C429 C428 1.434 . S
C430 C431 1.369 . S
C430 C432 1.419 . S
C430 H434 0.930 . S
C431 C430 1.369 . S
C431 C440 1.429 . S
C432 C430 1.419 . S
C432 C433 1.363 . S
C432 H435 0.929 . S
C433 C432 1.363 . S
C433 C439 1.428 . S
H434 C430 0.930 . S
H435 C432 0.929 . S
S436 N437 1.613 . S
S436 N438 1.610 . S
N437 S436 1.613 . S
N437 C440 1.350 . S
N438 S436 1.610 . S
N438 C439 1.351 . S
C439 C433 1.428 . S
C439 N438 1.351 . S
C439 C440 1.434 . S
C440 C431 1.429 . S
C440 N437 1.350 . S
C440 C439 1.434 . S
C441 C442 1.369 . S
C441 C443 1.419 . S
C441 H445 0.930 . S
C442 C441 1.369 . S
C442 C451 1.429 . S
C443 C441 1.419 . S
C443 C444 1.363 . S
C443 H446 0.929 . S
C444 C443 1.363 . S
C444 C450 1.428 . S
H445 C441 0.930 . S
H446 C443 0.929 . S
S447 N448 1.613 . S
S447 N449 1.610 . S
N448 S447 1.613 . S
N448 C451 1.350 . S
N449 S447 1.610 . S
N449 C450 1.351 . S
C450 C444 1.428 . S
C450 N449 1.351 . S
C450 C451 1.434 . S
C451 C442 1.429 . S
C451 N448 1.350 . S
C451 C450 1.434 . S
C452 C453 1.369 . S
C452 C454 1.419 . S
C452 H456 0.930 . S
C453 C452 1.369 . S
C453 C462 1.429 . S
C454 C452 1.419 . S
C454 C455 1.363 . S
C454 H457 0.929 . S
C455 C454 1.363 . S
C455 C461 1.428 . S
H456 C452 0.930 . S
H457 C454 0.929 . S
S458 N459 1.613 . S
S458 N460 1.610 . S
N459 S458 1.613 . S
N459 C462 1.350 . S
N460 S458 1.610 . S
N460 C461 1.351 . S
C461 C455 1.428 . S
C461 N460 1.351 . S
C461 C462 1.434 . S
C462 C453 1.429 . S
C462 N459 1.350 . S
C462 C461 1.434 . S
C463 C464 1.369 . S
C463 C465 1.419 . S
C463 H467 0.930 . S
C464 C463 1.369 . S
C464 C473 1.429 . S
C465 C463 1.419 . S
C465 C466 1.363 . S
C465 H468 0.929 . S
C466 C465 1.363 . S
C466 C472 1.428 . S
H467 C463 0.930 . S
H468 C465 0.929 . S
S469 N470 1.613 . S
S469 N471 1.610 . S
N470 S469 1.613 . S
N470 C473 1.350 . S
N471 S469 1.610 . S
N471 C472 1.351 . S
C472 C466 1.428 . S
C472 N471 1.351 . S
C472 C473 1.434 . S
C473 C464 1.429 . S
C473 N470 1.350 . S
C473 C472 1.434 . S
C474 C475 1.369 . S
C474 C476 1.419 . S
C474 H478 0.930 . S
C475 C474 1.369 . S
C475 C484 1.429 . S
C476 C474 1.419 . S
C476 C477 1.363 . S
C476 H479 0.929 . S
C477 C476 1.363 . S
C477 C483 1.428 . S
H478 C474 0.930 . S
H479 C476 0.929 . S
S480 N481 1.613 . S
S480 N482 1.610 . S
N481 S480 1.613 . S
N481 C484 1.350 . S
N482 S480 1.610 . S
N482 C483 1.351 . S
C483 C477 1.428 . S
C483 N482 1.351 . S
C483 C484 1.434 . S
C484 C475 1.429 . S
C484 N481 1.350 . S
C484 C483 1.434 . S
C485 C486 1.369 . S
C485 C487 1.419 . S
C485 H489 0.930 . S
C486 C485 1.369 . S
C486 C495 1.429 . S
C487 C485 1.419 . S
C487 C488 1.363 . S
C487 H490 0.929 . S
C488 C487 1.363 . S
C488 C494 1.428 . S
H489 C485 0.930 . S
H490 C487 0.929 . S
S491 N492 1.613 . S
S491 N493 1.610 . S
N492 S491 1.613 . S
N492 C495 1.350 . S
N493 S491 1.610 . S
N493 C494 1.351 . S
C494 C488 1.428 . S
C494 N493 1.351 . S
C494 C495 1.434 . S
C495 C486 1.429 . S
C495 N492 1.350 . S
C495 C494 1.434 . S
C233 C5 1.038 . S
C235 C79 1.044 . S
C244 C14 1.011 . S
C246 C128 1.020 . S
C257 C154 2.511 . S
C255 C25 2.573 . S
C266 C34 2.523 . S
C268 C202 2.478 . S
C279 C114 2.023 . S
C277 C7 1.866 . S
C290 C82 0.736 . S
C288 C13 0.723 . S
C301 C203 1.950 . S
C299 C23 2.009 . S
C312 C171 1.793 . S
C310 C31 1.810 . S
C321 C4 1.386 . S
C323 C199 1.445 . S
C334 C131 2.357 . S
C332 C22 2.443 . S
C343 C32 2.381 . S
C345 C83 2.369 . S
C354 C16 1.061 . S
C356 C168 1.102 . S
C367 C88 1.041 . S
C365 C41 1.014 . S
C376 C50 1.029 . S
C378 C119 1.019 . S
C387 C61 2.564 . S
C389 C163 2.508 . S
C398 C67 2.531 . S
C400 C211 2.489 . S
C409 C40 1.892 . S
C411 C123 2.037 . S
C422 C91 0.717 . S
C420 C52 0.709 . S
C433 C194 1.955 . S
C431 C59 2.017 . S
C444 C162 1.793 . S
C442 C70 1.807 . S
C453 C43 1.374 . S
C455 C208 1.444 . S
C466 C122 2.371 . S
C464 C58 2.452 . S
C477 C74 2.354 . S
C475 C68 2.363 . S
C486 C49 1.070 . S
C488 C159 1.106 . S
