# Generated by pormake.
# Topology tsx, (6,3)-cn, num edge types: 1
# Building blocks:
#     Node 0, Type 0, BuildingBlock: JUFBIX_clean_sbu_0, # of connection points: 6
#     Node 1, Type 0, BuildingBlock: JUFBIX_clean_sbu_0, # of connection points: 6
#     Node 2, Type 1, BuildingBlock: PAMTOO_clean_linker_0, # of connection points: 3
#     Node 3, Type 1, BuildingBlock: PAMTOO_clean_linker_0, # of connection points: 3
#     Node 4, Type 1, BuildingBlock: PAMTOO_clean_linker_0, # of connection points: 3
#     Node 5, Type 1, BuildingBlock: PAMTOO_clean_linker_0, # of connection points: 3
#     Edge 6, Type (0, 1), BuildingBlock: UVAHIK_clean_linker_0, # of connection points: 2
#     Edge 7, Type (0, 1), BuildingBlock: UVAHIK_clean_linker_0, # of connection points: 2
#     Edge 8, Type (0, 1), BuildingBlock: UVAHIK_clean_linker_0, # of connection points: 2
#     Edge 9, Type (0, 1), BuildingBlock: UVAHIK_clean_linker_0, # of connection points: 2
#     Edge 10, Type (0, 1), BuildingBlock: UVAHIK_clean_linker_0, # of connection points: 2
#     Edge 11, Type (0, 1), BuildingBlock: UVAHIK_clean_linker_0, # of connection points: 2
#     Edge 12, Type (0, 1), BuildingBlock: UVAHIK_clean_linker_0, # of connection points: 2
#     Edge 13, Type (0, 1), BuildingBlock: UVAHIK_clean_linker_0, # of connection points: 2
#     Edge 14, Type (0, 1), BuildingBlock: UVAHIK_clean_linker_0, # of connection points: 2
#     Edge 15, Type (0, 1), BuildingBlock: UVAHIK_clean_linker_0, # of connection points: 2
#     Edge 16, Type (0, 1), BuildingBlock: UVAHIK_clean_linker_0, # of connection points: 2
#     Edge 17, Type (0, 1), BuildingBlock: UVAHIK_clean_linker_0, # of connection points: 2
# Relax obj value: 0.109
# Max RMSD: 0.123
# Mean RMSD: 0.120
data_MOF--net-tsx--node1-JUFBIX_clean_sbu_0--node2-PAMTOO_clean_linker_0--edge1-UVAHIK_clean_linker_0
_symmetry_space_group_name_H-M    P1
_symmetry_Int_Tables_number       1
_symmetry_cell_setting            triclinic
loop_
_symmetry_equiv_pos_as_xyz
'x, y, z'
_cell_length_a     25.703387
_cell_length_b     30.53861
_cell_length_c     42.705354
_cell_angle_alpha  85.237288
_cell_angle_beta   89.783768
_cell_angle_gamma 97.040711
loop_
_atom_site_label
_atom_site_type_symbol
_atom_site_fract_x
_atom_site_fract_y
_atom_site_fract_z
_atom_type_partial_charge
Co0 Co 0.06649 0.00742 -0.00748 0.0
C1 C 1.01025 0.0331 0.93907 0.0
Co2 Co 1.00126 0.04646 0.00071 0.0
C3 C 0.13645 0.93877 -0.00851 0.0
C4 C 0.15997 0.99591 0.95982 0.0
N5 N 0.12335 0.97924 0.98173 0.0
N6 N 0.17999 0.92977 0.97654 0.0
C7 C 0.19468 0.96582 0.95664 0.0
H8 H 0.11421 0.91628 0.00896 0.0
H9 H 0.16061 0.02755 0.94632 0.0
C10 C 0.05797 0.02168 0.05404 0.0
N11 N 0.94413 0.07392 0.01185 0.0
C12 C 0.92549 0.11106 -0.00048 0.0
C13 C 0.9111 0.05835 0.03596 0.0
N14 N 0.88185 0.11881 0.01495 0.0
C15 C 0.87292 0.08566 0.03788 0.0
C16 C 0.97465 0.95356 0.00386 0.0
O17 O 0.08431 1.00183 0.03568 0.0
O18 O 0.02076 0.04194 0.04327 0.0
O19 O 0.95869 0.99088 0.00635 0.0
O20 O 0.02274 0.95215 -0.00243 0.0
O21 O 0.98284 0.05131 0.95785 0.0
H22 H 0.91465 0.0289 0.05132 0.0
H23 H 0.94315 0.1316 0.97946 0.0
O24 O 0.048 0.01316 0.94957 0.0
O25 O 0.10969 0.06362 0.98767 0.0
O26 O 0.04404 0.10143 -0.00497 0.0
C27 C 0.09258 0.10071 0.98968 0.0
H28 H 0.22712 0.96963 0.94001 0.0
H29 H 0.84148 0.0818 0.05519 0.0
Co30 Co 0.56436 0.50235 0.49247 0.0
C31 C 0.50538 0.52957 0.4404 0.0
Co32 Co 0.50099 0.5425 0.5022 0.0
C33 C 0.63317 0.43308 0.49056 0.0
C34 C 0.65366 0.48851 0.45685 0.0
N35 N 0.61907 0.47294 0.48015 0.0
N36 N 0.67551 0.4235 0.47472 0.0
C37 C 0.68829 0.4584 0.45352 0.0
H38 H 0.61284 0.41164 0.50934 0.0
H39 H 0.65324 0.51959 0.44278 0.0
C40 C 0.56043 0.51615 0.55415 0.0
N41 N 0.4466 0.57191 0.51497 0.0
C42 C 0.42795 0.60867 0.50204 0.0
C43 C 0.41825 0.56059 0.54173 0.0
N44 N 0.38965 0.62086 0.52002 0.0
C45 C 0.38351 0.59068 0.54496 0.0
C46 C 0.47147 0.45035 0.50544 0.0
O47 O 0.58483 0.49569 0.53522 0.0
O48 O 0.52357 0.53739 0.54415 0.0
O49 O 0.45672 0.48794 0.50881 0.0
O50 O 0.51898 0.44818 0.49805 0.0
O51 O 0.47954 0.54792 0.45991 0.0
H52 H 0.42292 0.53237 0.55807 0.0
H53 H 0.44291 0.62666 0.48031 0.0
O54 O 0.54327 0.50906 0.44995 0.0
O55 O 0.60927 0.55742 0.48703 0.0
O56 O 0.54532 0.59651 0.49551 0.0
C57 C 0.59336 0.59489 0.48926 0.0
H58 H 0.71958 0.46147 0.43614 0.0
H59 H 0.35546 0.59018 0.56401 0.0
H60 H 0.10833 0.94905 0.39511 0.0
H61 H 1.0081 0.05231 0.38924 0.0
H62 H 0.02094 0.97404 0.47641 0.0
H63 H 0.90671 1.00296 0.45686 0.0
C64 C 0.9242 0.03345 0.44276 0.0
O65 O 0.97765 0.03997 0.44764 0.0
H66 H 0.916 0.02905 0.41757 0.0
C67 C 0.08046 0.96737 0.40586 0.0
C68 C 0.06633 0.95666 0.43759 0.0
C69 C 0.05932 1.00124 0.38787 0.0
C70 C 0.02547 0.02619 0.40256 0.0
C71 C 1.0113 0.01614 0.43429 0.0
C72 C 0.03192 0.98156 0.45191 0.0
H73 H 0.08051 0.10397 0.60606 0.0
H74 H 0.97596 0.98401 0.59932 0.0
H75 H 0.05998 0.04698 0.51729 0.0
H76 H 0.94829 0.01421 0.5051 0.0
C77 C 0.94083 0.99097 0.52632 0.0
O78 O 0.98822 0.98245 0.53905 0.0
H79 H 0.91819 0.00718 0.54342 0.0
C80 C 0.0623 0.07827 0.59217 0.0
C81 C 0.07503 0.07948 0.56007 0.0
C82 C 0.02719 0.04373 0.60664 0.0
C83 C 1.00434 0.01028 0.5887 0.0
C84 C 0.01554 0.01187 0.55654 0.0
C85 C 0.05172 0.04589 0.54227 0.0
H86 H 0.62245 0.4617 0.89845 0.0
H87 H 0.50784 0.55319 0.88683 0.0
H88 H 0.53111 0.48807 0.9778 0.0
H89 H 0.41046 0.50834 0.95576 0.0
C90 C 0.42692 0.53868 0.94113 0.0
O91 O 0.48032 0.54683 0.94581 0.0
H92 H 0.41884 0.53318 0.91609 0.0
C93 C 0.59243 0.47889 0.90816 0.0
C94 C 0.58033 0.47174 0.94036 0.0
C95 C 0.56592 0.50739 0.88837 0.0
C96 C 0.52848 0.53055 0.90152 0.0
C97 C 0.51544 0.52324 0.93357 0.0
C98 C 0.54078 0.49327 0.95297 0.0
H99 H 0.57956 0.60756 0.10967 0.0
H100 H 0.47117 0.49074 0.09968 0.0
H101 H 0.56196 0.55291 0.0199 0.0
H102 H 0.45122 0.52007 0.00351 0.0
C103 C 0.44141 0.49896 0.02549 0.0
O104 O 0.48737 0.48952 0.03972 0.0
H105 H 0.41915 0.51794 0.041 0.0
C106 C 0.56115 0.58275 0.09513 0.0
C107 C 0.57571 0.58427 0.06327 0.0
C108 C 0.52399 0.54891 0.10858 0.0
C109 C 0.50092 0.5165 0.08986 0.0
C110 C 0.51407 0.51833 0.05794 0.0
C111 C 0.55219 0.55164 0.0447 0.0
C112 C 0.18329 0.14133 0.98237 0.0
C113 C 0.12939 0.14223 0.98759 0.0
C114 C 0.21856 0.18 0.98263 0.0
C115 C 0.22654 0.30268 0.97782 0.0
H116 H 0.35597 0.29463 0.02312 0.0
C117 C 0.35266 0.45555 0.01976 0.0
C118 C 0.40745 0.45719 0.01838 0.0
C119 C 0.32043 0.41745 0.01282 0.0
C120 C 0.3204 0.29739 0.00997 0.0
H121 H 0.07018 0.18476 -0.00358 0.0
H122 H 0.13168 0.25202 -0.00281 0.0
H123 H 0.29645 0.2276 0.01658 0.0
H124 H 0.47152 0.42136 0.00661 0.0
H125 H 0.41522 0.35441 -0.0054 0.0
H126 H 0.25013 0.37262 0.97174 0.0
C127 C 0.14671 0.22154 -0.00746 0.0
C128 C 0.28623 0.25893 0.0062 0.0
C129 C 0.11142 0.18289 -0.00774 0.0
C130 C 0.42943 0.42054 0.00866 0.0
C131 C 0.39718 0.38226 0.00182 0.0
C132 C 0.26066 0.34114 0.98164 0.0
C133 C 0.2008 0.22049 0.9881 0.0
C134 C 0.23858 0.26114 -0.00961 0.0
C135 C 0.34227 0.38018 0.00404 0.0
C136 C 0.3077 0.33902 -0.00191 0.0
H137 H 0.19844 0.11061 0.97855 0.0
H138 H 0.25984 0.17811 0.97866 0.0
H139 H 0.19064 0.30552 0.96503 0.0
H140 H 0.33471 0.48373 0.0265 0.0
H141 H 0.27836 0.41691 0.01497 0.0
C142 C 0.25744 0.89054 0.97055 0.0
C143 C 0.20433 0.88944 0.97899 0.0
C144 C 0.28009 0.85147 0.96938 0.0
C145 C 0.26865 0.73307 -0.00438 0.0
H146 H 0.34722 0.72625 0.91885 0.0
C147 C 0.3522 0.5728 0.96459 0.0
C148 C 0.40105 0.57825 0.94896 0.0
C149 C 0.32693 0.60968 0.97001 0.0
C150 C 0.32617 0.72771 0.94068 0.0
H151 H 0.1341 0.84607 -0.00564 0.0
H152 H 0.17418 0.77745 -0.0073 0.0
H153 H 0.30618 0.79221 0.92631 0.0
H154 H 0.46137 0.62632 0.92631 0.0
H155 H 0.4187 0.69054 0.93674 0.0
H156 H 0.28954 0.66871 0.01023 0.0
C157 C 0.19802 0.80887 0.98687 0.0
C158 C 0.30243 0.76554 0.94487 0.0
C159 C 0.17512 0.84817 0.98787 0.0
C160 C 0.42407 0.62118 0.9388 0.0
C161 C 0.3992 0.65795 0.94447 0.0
C162 C 0.29295 0.69519 -0.00844 0.0
C163 C 0.2504 0.81016 0.97683 0.0
C164 C 0.27382 0.76889 0.97247 0.0
C165 C 0.34995 0.65277 0.95978 0.0
C166 C 0.3225 0.69223 0.96412 0.0
H167 H 0.28152 0.9217 0.96438 0.0
H168 H 0.32087 0.85358 0.96224 0.0
H169 H 0.24695 0.73482 0.01718 0.0
H170 H 0.33324 0.53998 0.9722 0.0
H171 H 0.28877 0.6043 0.98148 0.0
C172 C 0.88541 0.91556 0.01848 0.0
C173 C 0.93675 0.91282 0.00806 0.0
C174 C 0.84882 0.87785 0.02244 0.0
C175 C 0.81431 0.76575 -0.00157 0.0
H176 H 0.72839 0.7518 0.07427 0.0
C177 C 0.6606 0.61191 0.03475 0.0
C178 C 0.61493 0.6207 0.04999 0.0
C179 C 0.70116 0.64618 0.02687 0.0
C180 C 0.75155 0.75542 0.05276 0.0
H181 H 0.98975 0.8682 -0.00676 0.0
H182 H 0.92512 0.80176 0.00017 0.0
H183 H 0.79814 0.81312 0.0668 0.0
H184 H 0.57373 0.67223 0.06655 0.0
H185 H 0.64348 0.73201 0.05217 0.0
H186 H 0.76686 0.70802 0.98432 0.0
C187 C 0.91354 0.83341 0.00519 0.0
C188 C 0.7917 0.79049 0.04857 0.0
C189 C 0.95054 0.87133 0.00143 0.0
C190 C 0.60898 0.66454 0.05531 0.0
C191 C 0.64908 0.69866 0.04724 0.0
C192 C 0.77375 0.73051 0.0026 0.0
C193 C 0.86242 0.83633 0.016 0.0
C194 C 0.82296 0.79656 0.02115 0.0
C195 C 0.69642 0.68973 0.03398 0.0
C196 C 0.74128 0.7255 0.02959 0.0
H197 H 0.87329 0.94694 0.02371 0.0
H198 H 0.80954 0.88129 0.03035 0.0
H199 H 0.83772 0.76975 0.97701 0.0
H200 H 0.66604 0.57828 0.03046 0.0
H201 H 0.7371 0.63822 0.01664 0.0
C202 C 0.87387 0.197 -0.00278 0.0
C203 C 0.85077 0.15474 0.00901 0.0
C204 C 0.84382 0.23233 -0.00641 0.0
C205 C 0.7074 0.25722 0.98518 0.0
H206 H 0.76282 0.37204 0.01153 0.0
C207 C 0.58317 0.40149 0.97451 0.0
C208 C 0.60937 0.44085 0.9598 0.0
C209 C 0.61165 0.36761 0.9863 0.0
C210 C 0.74683 0.34021 0.00398 0.0
H211 H 0.77774 0.11605 0.02506 0.0
H212 H 0.7256 0.17743 0.01889 0.0
H213 H 0.81544 0.31057 0.01794 0.0
H214 H 0.68536 0.47727 0.94773 0.0
H215 H 0.73507 0.41847 0.9681 0.0
H216 H 0.6394 0.28683 0.97052 0.0
C217 C 0.76684 0.18344 0.01252 0.0
C218 C 0.77708 0.30507 0.00753 0.0
C219 C 0.79685 0.14833 0.01632 0.0
C220 C 0.66439 0.44714 0.95908 0.0
C221 C 0.69281 0.41346 0.97086 0.0
C222 C 0.67727 0.29233 0.98153 0.0
C223 C 0.79 0.22594 0.00137 0.0
C224 C 0.75785 0.26327 -0.00207 0.0
C225 C 0.66675 0.37264 0.98353 0.0
C226 C 0.69676 0.33438 -0.00938 0.0
H227 H 0.91536 0.20296 -0.00843 0.0
H228 H 0.86265 0.26462 0.98457 0.0
H229 H 0.69169 0.22555 0.97723 0.0
H230 H 0.54075 0.39574 0.97497 0.0
H231 H 0.59043 0.33681 -0.00362 0.0
C232 C 0.68478 0.63378 0.48176 0.0
C233 C 0.63095 0.63585 0.4863 0.0
C234 C 0.72076 0.67207 0.48134 0.0
C235 C 0.73184 0.79466 0.47299 0.0
H236 H 0.85636 0.7872 0.52319 0.0
C237 C 0.85364 0.948 0.51663 0.0
C238 C 0.90833 0.94917 0.51794 0.0
C239 C 0.82231 0.90999 0.50875 0.0
C240 C 0.82228 0.78975 0.50863 0.0
H241 H 0.57256 0.67998 0.493 0.0
H242 H 0.63531 0.74664 0.49244 0.0
H243 H 0.79682 0.72031 0.51636 0.0
H244 H 0.97352 0.91233 0.50995 0.0
H245 H 0.9187 0.84571 0.49625 0.0
H246 H 0.75684 0.86428 0.46577 0.0
C247 C 0.64971 0.7155 0.48895 0.0
C248 C 0.78812 0.75139 0.50471 0.0
C249 C 0.61375 0.67722 0.48946 0.0
C250 C 0.93137 0.9121 0.5099 0.0
C251 C 0.89997 0.87393 0.50208 0.0
C252 C 0.76602 0.83303 0.47689 0.0
C253 C 0.7037 0.71328 0.48533 0.0
C254 C 0.74208 0.7535 0.48725 0.0
C255 C 0.84504 0.87232 0.5017 0.0
C256 C 0.81119 0.83112 0.49519 0.0
H257 H 0.69933 0.60244 0.47912 0.0
H258 H 0.76202 0.66935 0.47809 0.0
H259 H 0.69718 0.79728 0.45895 0.0
H260 H 0.83503 0.97647 0.52209 0.0
H261 H 0.78015 0.90979 0.50891 0.0
C262 C 0.75409 0.38564 0.4695 0.0
C263 C 0.70095 0.38384 0.47802 0.0
C264 C 0.77782 0.34702 0.46918 0.0
C265 C 0.76786 0.22887 0.49706 0.0
H266 H 0.84921 0.22177 0.42139 0.0
C267 C 0.85014 0.06822 0.46611 0.0
C268 C 0.89965 0.07329 0.4513 0.0
C269 C 0.82558 0.10537 0.47171 0.0
C270 C 0.82737 0.22334 0.44291 0.0
H271 H 0.63172 0.33999 0.49434 0.0
H272 H 0.67352 0.27205 0.49392 0.0
H273 H 0.80731 0.28755 0.42787 0.0
H274 H 0.96202 0.12096 0.43034 0.0
H275 H 0.92034 0.18569 0.44101 0.0
H276 H 0.78844 0.16456 0.51218 0.0
C277 C 0.69666 0.30363 0.4875 0.0
C278 C 0.80319 0.26109 0.44657 0.0
C279 C 0.67275 0.3425 0.48778 0.0
C280 C 0.92418 0.11612 0.44223 0.0
C281 C 0.89995 0.15317 0.44804 0.0
C282 C 0.79246 0.19103 0.49349 0.0
C283 C 0.74911 0.30548 0.47742 0.0
C284 C 0.77351 0.2645 0.47376 0.0
C285 C 0.84997 0.14833 0.46242 0.0
C286 C 0.82289 0.18799 0.46644 0.0
H287 H 0.77729 0.41701 0.46263 0.0
H288 H 0.81864 0.34963 0.46202 0.0
H289 H 0.74538 0.23065 0.51832 0.0
H290 H 0.83001 0.03549 0.47279 0.0
H291 H 0.78684 0.10034 0.48243 0.0
C292 C 0.44576 0.36865 0.50208 0.0
C293 C 0.43276 0.41015 0.50926 0.0
C294 C 0.40798 0.33127 0.50495 0.0
C295 C 0.28338 0.2891 0.54585 0.0
H296 H 0.26341 0.20712 0.48099 0.0
C297 C 0.10377 0.16022 0.55017 0.0
C298 C 0.11215 0.11661 0.54581 0.0
C299 C 0.14261 0.19529 0.54193 0.0
C300 C 0.26885 0.22955 0.49939 0.0
H301 H 0.36993 0.44489 0.52499 0.0
H302 H 0.30463 0.38014 0.52994 0.0
H303 H 0.33403 0.26914 0.47527 0.0
H304 H 0.16602 0.0754 0.52763 0.0
H305 H 0.2349 0.13701 0.51351 0.0
H306 H 0.21887 0.24995 0.57012 0.0
C307 C 0.34396 0.37625 0.52237 0.0
C308 C 0.30929 0.26494 0.49616 0.0
C309 C 0.38142 0.41344 0.51939 0.0
C310 C 0.15876 0.10887 0.53114 0.0
C311 C 0.19805 0.14409 0.52309 0.0
C312 C 0.24326 0.25392 0.54909 0.0
C313 C 0.35675 0.33472 0.51528 0.0
C314 C 0.31642 0.29542 0.5192 0.0
C315 C 0.19103 0.18748 0.52948 0.0
C316 C 0.23492 0.2241 0.52572 0.0
H317 H 0.48495 0.36508 0.4941 0.0
H318 H 0.41902 0.29962 0.49951 0.0
H319 H 0.28859 0.31142 0.56434 0.0
H320 H 0.06777 0.16699 0.56105 0.0
H321 H 0.13537 0.22847 0.54631 0.0
C322 C 0.34399 0.66985 0.48372 0.0
C323 C 0.36043 0.65785 0.51414 0.0
C324 C 0.31184 0.70343 0.47854 0.0
C325 C 0.22219 0.76665 0.52089 0.0
H326 H 0.23019 0.8388 0.44156 0.0
C327 C 0.11554 0.92394 0.48279 0.0
C328 C 0.08807 0.91891 0.45465 0.0
C329 C 0.14616 0.89138 0.49451 0.0
C330 C 0.22772 0.81889 0.46385 0.0
H331 H 0.35845 0.67265 0.56278 0.0
H332 H 0.30425 0.73252 0.55374 0.0
H333 H 0.29299 0.7861 0.45225 0.0
H334 H 0.06638 0.87431 0.41863 0.0
H335 H 0.12027 0.81817 0.43879 0.0
H336 H 0.15723 0.80087 0.5324 0.0
C337 C 0.31428 0.71507 0.53395 0.0
C338 C 0.26335 0.78838 0.46992 0.0
C339 C 0.34563 0.68097 0.53915 0.0
C340 C 0.08797 0.87932 0.44006 0.0
C341 C 0.11872 0.84725 0.45152 0.0
C342 C 0.18703 0.79786 0.51497 0.0
C343 C 0.29626 0.72637 0.50364 0.0
C344 C 0.2605 0.76115 0.49825 0.0
C345 C 0.14955 0.85377 0.4781 0.0
C346 C 0.189 0.82354 0.48615 0.0
H347 H 0.35439 0.65211 0.46415 0.0
H348 H 0.29806 0.71046 0.45496 0.0
H349 H 0.21822 0.74597 0.54282 0.0
H350 H 0.11621 0.95418 0.49444 0.0
H351 H 0.16967 0.89687 0.51514 0.0
C352 C 0.06355 0.06196 0.10205 0.0
C353 C 0.0712 0.02381 0.08735 0.0
C354 C 0.07212 0.06395 0.13407 0.0
C355 C 0.12717 0.00612 0.2044 0.0
H356 H 0.02521 0.06366 0.24801 0.0
C357 C 0.07432 0.97178 0.33598 0.0
C358 C 0.07032 0.00832 0.35351 0.0
C359 C 0.08291 0.97767 0.3036 0.0
C360 C 0.05444 0.04811 0.23609 0.0
H361 H 0.0953 0.95829 0.09404 0.0
H362 H 0.1078 0.96059 0.1507 0.0
H363 H 0.02382 0.06529 0.1911 0.0
H364 H 0.0732 0.07989 0.35057 0.0
H365 H 0.0861 0.08986 0.2935 0.0
H366 H 0.15548 0.98685 0.25005 0.0
C367 C 0.09662 0.98959 0.13735 0.0
C368 C 0.05387 0.04909 0.20342 0.0
C369 C 0.08919 0.98804 0.10498 0.0
C370 C 0.07537 0.05099 0.33778 0.0
C371 C 0.08314 0.05677 0.30521 0.0
C372 C 0.12715 0.00455 0.23719 0.0
C373 C 0.08722 0.02734 0.15237 0.0
C374 C 0.09 0.02788 0.18711 0.0
C375 C 0.08675 0.02009 0.2879 0.0
C376 C 0.0905 0.02526 0.25327 0.0
H377 H 0.05063 0.09036 0.08876 0.0
H378 H 0.06611 0.09408 0.14453 0.0
H379 H 0.1561 0.99006 0.19265 0.0
H380 H 0.06929 0.93831 0.34706 0.0
H381 H 0.08454 0.9488 0.29067 0.0
C382 C 0.9727 0.06812 0.89048 0.0
C383 C 0.99875 0.03438 0.90528 0.0
C384 C 0.96507 0.07027 0.85798 0.0
C385 C 0.95777 0.0042 0.79018 0.0
H386 H 0.02028 0.11101 0.74201 0.0
C387 C 0.0161 0.00474 0.66043 0.0
C388 C 0.01379 0.04314 0.64034 0.0
C389 C 1.00553 0.00472 0.6925 0.0
C390 C 1.00151 0.08125 0.75498 0.0
H391 H 0.03536 0.97556 0.89817 0.0
H392 H 0.021 0.97883 0.84172 0.0
H393 H 0.01472 0.10917 0.7991 0.0
H394 H 0.99676 0.11108 0.6375 0.0
H395 H 0.9768 0.11082 0.69344 0.0
H396 H 0.94456 0.97602 0.74633 0.0
C397 C 1.00688 1.00372 0.8551 0.0
C398 C 0.99846 0.08027 0.78769 0.0
C399 C 0.01542 1.00208 0.88733 0.0
C400 C 0.99946 0.08122 0.65268 0.0
C401 C 0.98819 0.08105 0.6847 0.0
C402 C 0.96009 0.00535 0.75747 0.0
C403 C 0.98229 0.0381 0.84008 0.0
C404 C 0.97786 0.04136 0.80555 0.0
C405 C 0.99168 0.04294 0.70508 0.0
C406 C 0.98338 0.04347 0.73951 0.0
H407 H 0.95958 0.09346 0.90383 0.0
H408 H 0.94603 0.09709 0.8468 0.0
H409 H 0.94127 0.97394 0.80354 0.0
H410 H 0.02753 0.97511 0.65146 0.0
H411 H 1.00971 0.97504 0.70752 0.0
C412 C 0.5691 0.55594 0.60227 0.0
C413 C 0.57497 0.51761 0.58732 0.0
C414 C 0.57715 0.55707 0.63438 0.0
C415 C 0.62827 0.49778 0.70499 0.0
H416 H 0.52568 0.55636 0.74722 0.0
C417 C 0.5828 0.47331 0.83849 0.0
C418 C 0.57584 0.51119 0.85392 0.0
C419 C 0.58975 0.47609 0.80596 0.0
C420 C 0.55506 0.54044 0.73574 0.0
H421 H 0.59595 0.45099 0.59363 0.0
H422 H 0.60807 0.4521 0.65054 0.0
H423 H 0.52488 0.55646 0.69042 0.0
H424 H 0.5724 0.58198 0.84728 0.0
H425 H 0.58333 0.58658 0.79019 0.0
H426 H 0.65685 0.48039 0.75093 0.0
C427 C 0.59832 0.48169 0.63726 0.0
C428 C 0.55476 0.54053 0.70313 0.0
C429 C 0.59124 0.48089 0.60477 0.0
C430 C 0.57681 0.55208 0.83607 0.0
C431 C 0.58331 0.55477 0.80346 0.0
C432 C 0.62817 0.49729 0.73778 0.0
C433 C 0.59004 0.5195 0.65251 0.0
C434 C 0.59144 0.51936 0.68729 0.0
C435 C 0.58932 0.5167 0.7881 0.0
C436 C 0.59155 0.51868 0.7534 0.0
H437 H 0.55752 0.58502 0.58915 0.0
H438 H 0.57213 0.58723 0.6451 0.0
H439 H 0.65734 0.48152 0.69354 0.0
H440 H 0.58127 0.44112 0.85142 0.0
H441 H 0.59348 0.44614 0.79465 0.0
C442 C 0.50668 0.49917 0.38824 0.0
C443 C 0.49223 0.53167 0.40683 0.0
C444 C 0.49726 0.50189 0.35609 0.0
C445 C 0.49175 0.58107 0.28999 0.0
H446 H 0.43393 0.47966 0.2468 0.0
C447 C 0.49607 0.58601 0.15481 0.0
C448 C 0.50908 0.54774 0.14212 0.0
C449 C 0.48365 0.58526 0.18673 0.0
C450 C 0.45053 0.50821 0.25845 0.0
H451 H 0.45588 0.5921 0.40662 0.0
H452 H 0.44085 0.5976 0.34972 0.0
H453 H 0.43012 0.47586 0.30407 0.0
H454 H 0.51917 0.47874 0.15253 0.0
H455 H 0.49935 0.47759 0.20841 0.0
H456 H 0.51525 0.6126 0.24479 0.0
C457 C 0.4588 0.5698 0.36034 0.0
C458 C 0.4479 0.5061 0.2912 0.0
C459 C 0.46727 0.56659 0.39277 0.0
C460 C 0.50879 0.50856 0.16175 0.0
C461 C 0.49707 0.50792 0.19373 0.0
C462 C 0.4951 0.583 0.25725 0.0
C463 C 0.47403 0.53754 0.34178 0.0
C464 C 0.46948 0.54216 0.30724 0.0
C465 C 0.48466 0.54634 0.20668 0.0
C466 C 0.47562 0.54619 0.24111 0.0
H467 H 0.52574 0.47177 0.39852 0.0
H468 H 0.50987 0.47688 0.3422 0.0
H469 H 0.50917 0.60913 0.30191 0.0
H470 H 0.49537 0.6165 0.13999 0.0
H471 H 0.47342 0.61524 0.19574 0.0
loop_
_geom_bond_atom_site_label_1
_geom_bond_atom_site_label_2
_geom_bond_distance
_geom_bond_site_symmetry_2
_ccdc_geom_bond_type
Co0 N5 2.067 . S
Co0 O17 2.021 . S
Co0 O20 2.070 . S
Co0 O24 2.117 1_564 S
Co0 O25 2.020 1_565 S
C1 O21 1.259 1_455 S
C1 O24 1.258 . S
Co2 N11 2.057 . S
Co2 O18 2.114 1_655 S
Co2 O19 2.020 1_545 S
Co2 O21 2.021 1_554 S
Co2 O26 2.062 1_655 S
C3 N5 1.338 . S
C3 N6 1.347 . S
C3 H8 0.931 . S
C4 N5 1.341 1_556 S
C4 C7 1.350 . S
C4 H9 0.930 . S
N5 Co0 2.067 . S
N5 C3 1.338 . S
N5 C4 1.341 1_554 S
N6 C3 1.347 . S
N6 C7 1.373 1_554 S
C7 C4 1.350 . S
C7 N6 1.373 1_556 S
C7 H28 0.931 . S
H8 C3 0.931 . S
H9 C4 0.930 . S
C10 O17 1.259 1_545 S
C10 O18 1.266 . S
N11 Co2 2.057 . S
N11 C12 1.316 1_554 S
N11 C13 1.375 . S
C12 N11 1.316 1_556 S
C12 N14 1.347 1_556 S
C12 H23 0.931 . S
C13 N11 1.375 . S
C13 C15 1.350 . S
C13 H22 0.930 . S
N14 C12 1.347 1_554 S
N14 C15 1.373 . S
C15 C13 1.350 . S
C15 N14 1.373 . S
C15 H29 0.931 . S
C16 O19 1.256 . S
C16 O20 1.243 1_655 S
O17 Co0 2.021 . S
O17 C10 1.259 1_565 S
O18 Co2 2.114 1_455 S
O18 C10 1.266 . S
O19 Co2 2.020 1_565 S
O19 C16 1.256 . S
O20 Co0 2.070 . S
O20 C16 1.243 1_455 S
O21 C1 1.259 1_655 S
O21 Co2 2.021 1_556 S
H22 C13 0.930 . S
H23 C12 0.931 . S
O24 Co0 2.117 1_546 S
O24 C1 1.258 . S
O25 Co0 2.020 1_545 S
O25 C27 1.256 . S
O26 Co2 2.062 1_455 S
O26 C27 1.255 . S
C27 O25 1.256 . S
C27 O26 1.255 . S
H28 C7 0.931 . S
H29 C15 0.931 . S
Co30 N35 2.057 . S
Co30 O47 2.021 . S
Co30 O50 2.062 . S
Co30 O54 2.117 . S
Co30 O55 2.020 . S
C31 O51 1.259 . S
C31 O54 1.258 . S
Co32 N41 2.057 . S
Co32 O48 2.117 . S
Co32 O49 2.020 . S
Co32 O51 2.021 . S
Co32 O56 2.062 . S
C33 N35 1.316 . S
C33 N36 1.347 . S
C33 H38 0.931 . S
C34 N35 1.375 . S
C34 C37 1.350 . S
C34 H39 0.930 . S
N35 Co30 2.057 . S
N35 C33 1.316 . S
N35 C34 1.375 . S
N36 C33 1.347 . S
N36 C37 1.373 . S
C37 C34 1.350 . S
C37 N36 1.373 . S
C37 H58 0.931 . S
H38 C33 0.931 . S
H39 C34 0.930 . S
C40 O47 1.259 . S
C40 O48 1.258 . S
N41 Co32 2.057 . S
N41 C42 1.316 . S
N41 C43 1.375 . S
C42 N41 1.316 . S
C42 N44 1.347 . S
C42 H53 0.931 . S
C43 N41 1.375 . S
C43 C45 1.350 . S
C43 H52 0.930 . S
N44 C42 1.347 . S
N44 C45 1.373 . S
C45 C43 1.350 . S
C45 N44 1.373 . S
C45 H59 0.931 . S
C46 O49 1.256 . S
C46 O50 1.255 . S
O47 Co30 2.021 . S
O47 C40 1.259 . S
O48 Co32 2.117 . S
O48 C40 1.258 . S
O49 Co32 2.020 . S
O49 C46 1.256 . S
O50 Co30 2.062 . S
O50 C46 1.255 . S
O51 C31 1.259 . S
O51 Co32 2.021 . S
H52 C43 0.930 . S
H53 C42 0.931 . S
O54 Co30 2.117 . S
O54 C31 1.258 . S
O55 Co30 2.020 . S
O55 C57 1.256 . S
O56 Co32 2.062 . S
O56 C57 1.255 . S
C57 O55 1.256 . S
C57 O56 1.255 . S
H58 C37 0.931 . S
H59 C45 0.931 . S
H60 C67 0.929 . S
H61 C70 0.930 . S
H62 C72 0.929 . S
H63 C64 0.969 . S
C64 H63 0.969 . S
C64 O65 1.550 . S
C64 H66 0.973 . S
O65 C64 1.550 . S
O65 C71 1.412 . S
H66 C64 0.973 . S
C67 H60 0.929 . S
C67 C68 1.400 . S
C67 C69 1.364 . S
C68 C67 1.400 . S
C68 C72 1.377 . S
C69 C67 1.364 . S
C69 C70 1.374 1_465 S
C70 H61 0.930 . S
C70 C69 1.374 1_645 S
C70 C71 1.383 . S
C71 O65 1.412 . S
C71 C70 1.383 . S
C71 C72 1.394 1_645 S
C72 H62 0.929 . S
C72 C68 1.377 . S
C72 C71 1.394 1_465 S
H73 C80 0.929 . S
H74 C83 0.930 1_565 S
H75 C85 0.929 . S
H76 C77 0.969 . S
C77 H76 0.969 . S
C77 O78 1.550 . S
C77 H79 0.973 . S
O78 C77 1.550 . S
O78 C84 1.412 1_565 S
H79 C77 0.973 . S
C80 H73 0.929 . S
C80 C81 1.400 . S
C80 C82 1.364 . S
C81 C80 1.400 . S
C81 C85 1.377 . S
C82 C80 1.364 . S
C82 C83 1.374 1_455 S
C83 H74 0.930 1_545 S
C83 C82 1.374 1_655 S
C83 C84 1.383 . S
C84 O78 1.412 1_545 S
C84 C83 1.383 . S
C84 C85 1.394 1_655 S
C85 H75 0.929 . S
C85 C81 1.377 . S
C85 C84 1.394 1_455 S
H86 C93 0.929 . S
H87 C96 0.930 . S
H88 C98 0.929 . S
H89 C90 0.969 . S
C90 H89 0.969 . S
C90 O91 1.550 . S
C90 H92 0.973 . S
O91 C90 1.550 . S
O91 C97 1.412 . S
H92 C90 0.973 . S
C93 H86 0.929 . S
C93 C94 1.400 . S
C93 C95 1.364 . S
C94 C93 1.400 . S
C94 C98 1.377 . S
C95 C93 1.364 . S
C95 C96 1.374 . S
C96 H87 0.930 . S
C96 C95 1.374 . S
C96 C97 1.383 . S
C97 O91 1.412 . S
C97 C96 1.383 . S
C97 C98 1.394 . S
C98 H88 0.929 . S
C98 C94 1.377 . S
C98 C97 1.394 . S
H99 C106 0.929 . S
H100 C109 0.930 . S
H101 C111 0.929 . S
H102 C103 0.969 . S
C103 H102 0.969 . S
C103 O104 1.550 . S
C103 H105 0.973 . S
O104 C103 1.550 . S
O104 C110 1.412 . S
H105 C103 0.973 . S
C106 H99 0.929 . S
C106 C107 1.400 . S
C106 C108 1.364 . S
C107 C106 1.400 . S
C107 C111 1.377 . S
C108 C106 1.364 . S
C108 C109 1.374 . S
C109 H100 0.930 . S
C109 C108 1.374 . S
C109 C110 1.383 . S
C110 O104 1.412 . S
C110 C109 1.383 . S
C110 C111 1.394 . S
C111 H101 0.929 . S
C111 C107 1.377 . S
C111 C110 1.394 . S
C112 C113 1.349 . S
C112 C114 1.327 . S
C112 H137 0.950 . S
C113 C112 1.349 . S
C113 C129 1.349 1_554 S
C114 C112 1.327 . S
C114 C133 1.429 . S
C114 H138 0.950 . S
C115 C132 1.574 . S
C115 C134 1.368 1_556 S
C115 H139 0.949 . S
H116 C120 0.949 . S
C117 C118 1.364 . S
C117 C119 1.324 1_554 S
C117 H140 0.938 1_554 S
C118 C117 1.364 . S
C118 C130 1.349 . S
C119 C117 1.324 1_556 S
C119 C135 1.429 1_556 S
C119 H141 0.950 . S
C120 H116 0.949 . S
C120 C128 1.574 . S
C120 C136 1.368 . S
H121 C129 0.950 . S
H122 C127 0.950 . S
H123 C128 0.949 . S
H124 C130 0.950 . S
H125 C131 0.950 . S
H126 C132 0.949 . S
C127 H122 0.950 . S
C127 C129 1.327 . S
C127 C133 1.429 1_556 S
C128 C120 1.574 . S
C128 H123 0.949 . S
C128 C134 1.368 . S
C129 C113 1.349 1_556 S
C129 H121 0.950 . S
C129 C127 1.327 . S
C130 C118 1.349 . S
C130 H124 0.950 . S
C130 C131 1.327 . S
C131 H125 0.950 . S
C131 C130 1.327 . S
C131 C135 1.429 . S
C132 C115 1.574 . S
C132 H126 0.949 . S
C132 C136 1.368 1_556 S
C133 C114 1.429 . S
C133 C127 1.429 1_554 S
C133 C134 1.523 . S
C134 C115 1.368 1_554 S
C134 C128 1.368 . S
C134 C133 1.523 . S
C135 C119 1.429 1_554 S
C135 C131 1.429 . S
C135 C136 1.523 . S
C136 C120 1.368 . S
C136 C132 1.368 1_554 S
C136 C135 1.523 . S
H137 C112 0.950 . S
H138 C114 0.950 . S
H139 C115 0.949 . S
H140 C117 0.938 1_556 S
H141 C119 0.950 . S
C142 C143 1.349 1_556 S
C142 C144 1.327 . S
C142 H167 0.950 . S
C143 C142 1.349 1_554 S
C143 C159 1.349 . S
C144 C142 1.327 . S
C144 C163 1.429 1_556 S
C144 H168 0.950 . S
C145 C162 1.574 . S
C145 C164 1.368 . S
C145 H169 0.949 . S
H146 C150 0.949 . S
C147 C148 1.349 1_554 S
C147 C149 1.327 . S
C147 H170 0.950 . S
C148 C147 1.349 1_556 S
C148 C160 1.349 . S
C149 C147 1.327 . S
C149 C165 1.429 1_554 S
C149 H171 0.950 . S
C150 H146 0.949 . S
C150 C158 1.574 . S
C150 C166 1.368 . S
H151 C159 0.950 . S
H152 C157 0.950 . S
H153 C158 0.949 . S
H154 C160 0.950 . S
H155 C161 0.950 . S
H156 C162 0.949 . S
C157 H152 0.950 . S
C157 C159 1.327 . S
C157 C163 1.429 . S
C158 C150 1.574 . S
C158 H153 0.949 . S
C158 C164 1.368 1_556 S
C159 C143 1.349 . S
C159 H151 0.950 . S
C159 C157 1.327 . S
C160 C148 1.349 . S
C160 H154 0.950 . S
C160 C161 1.327 . S
C161 H155 0.950 . S
C161 C160 1.327 . S
C161 C165 1.429 . S
C162 C145 1.574 . S
C162 H156 0.949 . S
C162 C166 1.368 1_554 S
C163 C144 1.429 1_554 S
C163 C157 1.429 . S
C163 C164 1.523 . S
C164 C145 1.368 . S
C164 C158 1.368 1_554 S
C164 C163 1.523 . S
C165 C149 1.429 1_556 S
C165 C161 1.429 . S
C165 C166 1.523 . S
C166 C150 1.368 . S
C166 C162 1.368 1_556 S
C166 C165 1.523 . S
H167 C142 0.950 . S
H168 C144 0.950 . S
H169 C145 0.949 . S
H170 C147 0.950 . S
H171 C149 0.950 . S
C172 C173 1.349 . S
C172 C174 1.327 . S
C172 H197 0.950 . S
C173 C172 1.349 . S
C173 C189 1.349 1_554 S
C174 C172 1.327 . S
C174 C193 1.429 . S
C174 H198 0.950 . S
C175 C192 1.574 . S
C175 C194 1.368 . S
C175 H199 0.949 1_554 S
H176 C180 0.949 . S
C177 C178 1.349 . S
C177 C179 1.327 . S
C177 H200 0.950 . S
C178 C177 1.349 . S
C178 C190 1.349 . S
C179 C177 1.327 . S
C179 C195 1.429 . S
C179 H201 0.950 . S
C180 H176 0.949 . S
C180 C188 1.574 . S
C180 C196 1.368 . S
H181 C189 0.950 . S
H182 C187 0.972 . S
H183 C188 0.949 . S
H184 C190 0.950 . S
H185 C191 0.950 . S
H186 C192 0.949 1_556 S
C187 H182 0.972 . S
C187 C189 1.328 . S
C187 C193 1.407 1_556 S
C188 C180 1.574 . S
C188 H183 0.949 . S
C188 C194 1.368 . S
C189 C173 1.349 1_556 S
C189 H181 0.950 . S
C189 C187 1.328 . S
C190 C178 1.349 . S
C190 H184 0.950 . S
C190 C191 1.327 . S
C191 H185 0.950 . S
C191 C190 1.327 . S
C191 C195 1.429 . S
C192 C175 1.574 . S
C192 H186 0.949 1_554 S
C192 C196 1.368 . S
C193 C174 1.429 . S
C193 C187 1.407 1_554 S
C193 C194 1.523 . S
C194 C175 1.368 . S
C194 C188 1.368 . S
C194 C193 1.523 . S
C195 C179 1.429 . S
C195 C191 1.429 . S
C195 C196 1.523 . S
C196 C180 1.368 . S
C196 C192 1.368 . S
C196 C195 1.523 . S
H197 C172 0.950 . S
H198 C174 0.950 . S
H199 C175 0.949 1_556 S
H200 C177 0.950 . S
H201 C179 0.950 . S
C202 C203 1.349 1_554 S
C202 C204 1.327 . S
C202 H227 0.950 . S
C203 C202 1.349 1_556 S
C203 C219 1.349 . S
C204 C202 1.327 . S
C204 C223 1.429 1_554 S
C204 H228 0.950 . S
C205 C222 1.574 . S
C205 C224 1.368 . S
C205 H229 0.949 . S
H206 C210 0.947 1_554 S
C207 C208 1.349 . S
C207 C209 1.327 . S
C207 H230 0.950 . S
C208 C207 1.349 . S
C208 C220 1.349 . S
C209 C207 1.327 . S
C209 C225 1.429 . S
C209 H231 0.950 . S
C210 H206 0.947 1_556 S
C210 C218 1.574 1_556 S
C210 C226 1.371 . S
H211 C219 0.950 . S
H212 C217 0.950 . S
H213 C218 0.949 . S
H214 C220 0.950 . S
H215 C221 0.950 1_554 S
H216 C222 0.949 . S
C217 H212 0.950 . S
C217 C219 1.327 . S
C217 C223 1.429 . S
C218 C210 1.574 1_554 S
C218 H213 0.949 . S
C218 C224 1.368 1_554 S
C219 C203 1.349 . S
C219 H211 0.950 . S
C219 C217 1.327 . S
C220 C208 1.349 . S
C220 H214 0.950 . S
C220 C221 1.327 . S
C221 H215 0.950 1_556 S
C221 C220 1.327 . S
C221 C225 1.429 . S
C222 C205 1.574 . S
C222 H216 0.949 . S
C222 C226 1.368 . S
C223 C204 1.429 1_556 S
C223 C217 1.429 . S
C223 C224 1.523 . S
C224 C205 1.368 . S
C224 C218 1.368 1_556 S
C224 C223 1.523 . S
C225 C209 1.429 . S
C225 C221 1.429 . S
C225 C226 1.523 . S
C226 C210 1.371 . S
C226 C222 1.368 . S
C226 C225 1.523 . S
H227 C202 0.950 . S
H228 C204 0.950 . S
H229 C205 0.949 . S
H230 C207 0.950 . S
H231 C209 0.950 . S
C232 C233 1.349 . S
C232 C234 1.327 . S
C232 H257 0.950 . S
C233 C232 1.349 . S
C233 C249 1.349 . S
C234 C232 1.327 . S
C234 C253 1.429 . S
C234 H258 0.950 . S
C235 C252 1.574 . S
C235 C254 1.368 . S
C235 H259 0.949 . S
H236 C240 0.949 . S
C237 C238 1.349 . S
C237 C239 1.327 . S
C237 H260 0.950 . S
C238 C237 1.349 . S
C238 C250 1.349 . S
C239 C237 1.327 . S
C239 C255 1.429 . S
C239 H261 0.950 . S
C240 H236 0.949 . S
C240 C248 1.574 . S
C240 C256 1.368 . S
H241 C249 0.950 . S
H242 C247 0.950 . S
H243 C248 0.949 . S
H244 C250 0.950 . S
H245 C251 0.950 . S
H246 C252 0.949 . S
C247 H242 0.950 . S
C247 C249 1.327 . S
C247 C253 1.429 . S
C248 C240 1.574 . S
C248 H243 0.949 . S
C248 C254 1.368 . S
C249 C233 1.349 . S
C249 H241 0.950 . S
C249 C247 1.327 . S
C250 C238 1.349 . S
C250 H244 0.950 . S
C250 C251 1.327 . S
C251 H245 0.950 . S
C251 C250 1.327 . S
C251 C255 1.429 . S
C252 C235 1.574 . S
C252 H246 0.949 . S
C252 C256 1.368 . S
C253 C234 1.429 . S
C253 C247 1.429 . S
C253 C254 1.523 . S
C254 C235 1.368 . S
C254 C248 1.368 . S
C254 C253 1.523 . S
C255 C239 1.429 . S
C255 C251 1.429 . S
C255 C256 1.523 . S
C256 C240 1.368 . S
C256 C252 1.368 . S
C256 C255 1.523 . S
H257 C232 0.950 . S
H258 C234 0.950 . S
H259 C235 0.949 . S
H260 C237 0.950 . S
H261 C239 0.950 . S
C262 C263 1.349 . S
C262 C264 1.327 . S
C262 H287 0.950 . S
C263 C262 1.349 . S
C263 C279 1.349 . S
C264 C262 1.327 . S
C264 C283 1.429 . S
C264 H288 0.950 . S
C265 C282 1.574 . S
C265 C284 1.368 . S
C265 H289 0.949 . S
H266 C270 0.949 . S
C267 C268 1.349 . S
C267 C269 1.327 . S
C267 H290 0.950 . S
C268 C267 1.349 . S
C268 C280 1.349 . S
C269 C267 1.327 . S
C269 C285 1.429 . S
C269 H291 0.950 . S
C270 H266 0.949 . S
C270 C278 1.574 . S
C270 C286 1.368 . S
H271 C279 0.950 . S
H272 C277 0.950 . S
H273 C278 0.949 . S
H274 C280 0.950 . S
H275 C281 0.950 . S
H276 C282 0.949 . S
C277 H272 0.950 . S
C277 C279 1.327 . S
C277 C283 1.429 . S
C278 C270 1.574 . S
C278 H273 0.949 . S
C278 C284 1.368 . S
C279 C263 1.349 . S
C279 H271 0.950 . S
C279 C277 1.327 . S
C280 C268 1.349 . S
C280 H274 0.950 . S
C280 C281 1.327 . S
C281 H275 0.950 . S
C281 C280 1.327 . S
C281 C285 1.429 . S
C282 C265 1.574 . S
C282 H276 0.949 . S
C282 C286 1.368 . S
C283 C264 1.429 . S
C283 C277 1.429 . S
C283 C284 1.523 . S
C284 C265 1.368 . S
C284 C278 1.368 . S
C284 C283 1.523 . S
C285 C269 1.429 . S
C285 C281 1.429 . S
C285 C286 1.523 . S
C286 C270 1.368 . S
C286 C282 1.368 . S
C286 C285 1.523 . S
H287 C262 0.950 . S
H288 C264 0.950 . S
H289 C265 0.949 . S
H290 C267 0.950 . S
H291 C269 0.950 . S
C292 C293 1.349 . S
C292 C294 1.327 . S
C292 H317 0.950 . S
C293 C292 1.349 . S
C293 C309 1.349 . S
C294 C292 1.327 . S
C294 C313 1.429 . S
C294 H318 0.950 . S
C295 C312 1.574 . S
C295 C314 1.368 . S
C295 H319 0.949 . S
H296 C300 0.949 . S
C297 C298 1.349 . S
C297 C299 1.327 . S
C297 H320 0.950 . S
C298 C297 1.349 . S
C298 C310 1.349 . S
C299 C297 1.327 . S
C299 C315 1.429 . S
C299 H321 0.950 . S
C300 H296 0.949 . S
C300 C308 1.574 . S
C300 C316 1.368 . S
H301 C309 0.950 . S
H302 C307 0.950 . S
H303 C308 0.949 . S
H304 C310 0.950 . S
H305 C311 0.950 . S
H306 C312 0.949 . S
C307 H302 0.950 . S
C307 C309 1.327 . S
C307 C313 1.429 . S
C308 C300 1.574 . S
C308 H303 0.949 . S
C308 C314 1.368 . S
C309 C293 1.349 . S
C309 H301 0.950 . S
C309 C307 1.327 . S
C310 C298 1.349 . S
C310 H304 0.950 . S
C310 C311 1.327 . S
C311 H305 0.950 . S
C311 C310 1.327 . S
C311 C315 1.429 . S
C312 C295 1.574 . S
C312 H306 0.949 . S
C312 C316 1.368 . S
C313 C294 1.429 . S
C313 C307 1.429 . S
C313 C314 1.523 . S
C314 C295 1.368 . S
C314 C308 1.368 . S
C314 C313 1.523 . S
C315 C299 1.429 . S
C315 C311 1.429 . S
C315 C316 1.523 . S
C316 C300 1.368 . S
C316 C312 1.368 . S
C316 C315 1.523 . S
H317 C292 0.950 . S
H318 C294 0.950 . S
H319 C295 0.949 . S
H320 C297 0.950 . S
H321 C299 0.950 . S
C322 C323 1.349 . S
C322 C324 1.327 . S
C322 H347 0.950 . S
C323 C322 1.349 . S
C323 C339 1.349 . S
C324 C322 1.327 . S
C324 C343 1.429 . S
C324 H348 0.950 . S
C325 C342 1.574 . S
C325 C344 1.368 . S
C325 H349 0.949 . S
H326 C330 0.949 . S
C327 C328 1.349 . S
C327 C329 1.327 . S
C327 H350 0.950 . S
C328 C327 1.349 . S
C328 C340 1.349 . S
C329 C327 1.327 . S
C329 C345 1.429 . S
C329 H351 0.950 . S
C330 H326 0.949 . S
C330 C338 1.574 . S
C330 C346 1.368 . S
H331 C339 0.950 . S
H332 C337 0.950 . S
H333 C338 0.949 . S
H334 C340 0.950 . S
H335 C341 0.950 . S
H336 C342 0.949 . S
C337 H332 0.950 . S
C337 C339 1.327 . S
C337 C343 1.429 . S
C338 C330 1.574 . S
C338 H333 0.949 . S
C338 C344 1.368 . S
C339 C323 1.349 . S
C339 H331 0.950 . S
C339 C337 1.327 . S
C340 C328 1.349 . S
C340 H334 0.950 . S
C340 C341 1.327 . S
C341 H335 0.950 . S
C341 C340 1.327 . S
C341 C345 1.429 . S
C342 C325 1.574 . S
C342 H336 0.949 . S
C342 C346 1.368 . S
C343 C324 1.429 . S
C343 C337 1.429 . S
C343 C344 1.523 . S
C344 C325 1.368 . S
C344 C338 1.368 . S
C344 C343 1.523 . S
C345 C329 1.429 . S
C345 C341 1.429 . S
C345 C346 1.523 . S
C346 C330 1.368 . S
C346 C342 1.368 . S
C346 C345 1.523 . S
H347 C322 0.950 . S
H348 C324 0.950 . S
H349 C325 0.949 . S
H350 C327 0.950 . S
H351 C329 0.950 . S
C352 C353 1.349 1_655 S
C352 C354 1.327 . S
C352 H377 0.950 . S
C353 C352 1.349 1_455 S
C353 C369 1.349 1_545 S
C354 C352 1.327 . S
C354 C373 1.429 1_655 S
C354 H378 0.950 . S
C355 C372 1.574 . S
C355 C374 1.368 1_565 S
C355 H379 0.949 . S
H356 C360 0.949 . S
C357 C358 1.349 . S
C357 C359 1.327 . S
C357 H380 0.950 . S
C358 C357 1.349 . S
C358 C370 1.349 1_465 S
C359 C357 1.327 . S
C359 C375 1.429 . S
C359 H381 0.950 . S
C360 H356 0.949 . S
C360 C368 1.574 . S
C360 C376 1.369 1_645 S
H361 C369 0.950 . S
H362 C367 0.950 . S
H363 C368 0.949 . S
H364 C370 0.950 . S
H365 C371 0.950 . S
H366 C372 0.949 . S
C367 H362 0.950 . S
C367 C369 1.327 . S
C367 C373 1.429 1_565 S
C368 C360 1.574 . S
C368 H363 0.949 . S
C368 C374 1.368 1_655 S
C369 C353 1.349 1_565 S
C369 H361 0.950 . S
C369 C367 1.327 . S
C370 C358 1.349 1_645 S
C370 H364 0.950 . S
C370 C371 1.327 . S
C371 H365 0.950 . S
C371 C370 1.327 . S
C371 C375 1.429 1_645 S
C372 C355 1.574 . S
C372 H366 0.949 . S
C372 C376 1.368 . S
C373 C354 1.429 1_455 S
C373 C367 1.429 1_545 S
C373 C374 1.523 . S
C374 C355 1.368 1_545 S
C374 C368 1.368 1_455 S
C374 C373 1.523 . S
C375 C359 1.429 . S
C375 C371 1.429 1_465 S
C375 C376 1.523 . S
C376 C360 1.369 1_465 S
C376 C372 1.368 . S
C376 C375 1.523 . S
H377 C352 0.950 . S
H378 C354 0.950 . S
H379 C355 0.949 . S
H380 C357 0.950 . S
H381 C359 0.950 . S
C382 C383 1.349 . S
C382 C384 1.327 . S
C382 H407 0.950 . S
C383 C382 1.349 . S
C383 C399 1.350 1_445 S
C384 C382 1.327 . S
C384 C403 1.429 . S
C384 H408 0.950 . S
C385 C402 1.574 . S
C385 C404 1.368 1_655 S
C385 H409 0.949 1_545 S
H386 C390 0.949 . S
C387 C388 1.349 1_655 S
C387 C389 1.327 . S
C387 H410 0.950 1_545 S
C388 C387 1.349 1_455 S
C388 C400 1.349 . S
C389 C387 1.327 . S
C389 C405 1.429 1_655 S
C389 H411 0.950 1_545 S
C390 H386 0.949 . S
C390 C398 1.574 . S
C390 C406 1.368 . S
H391 C399 0.949 . S
H392 C397 0.941 1_565 S
H393 C398 0.949 . S
H394 C400 0.950 . S
H395 C401 0.950 . S
H396 C402 0.949 1_565 S
C397 H392 0.941 1_545 S
C397 C399 1.328 1_545 S
C397 C403 1.436 1_655 S
C398 C390 1.574 . S
C398 H393 0.949 . S
C398 C404 1.368 . S
C399 C383 1.350 1_665 S
C399 H391 0.949 . S
C399 C397 1.328 1_565 S
C400 C388 1.349 . S
C400 H394 0.950 . S
C400 C401 1.327 . S
C401 H395 0.950 . S
C401 C400 1.327 . S
C401 C405 1.429 . S
C402 C385 1.574 . S
C402 H396 0.949 1_545 S
C402 C406 1.368 1_655 S
C403 C384 1.429 . S
C403 C397 1.436 1_455 S
C403 C404 1.523 . S
C404 C385 1.368 1_455 S
C404 C398 1.368 . S
C404 C403 1.523 . S
C405 C389 1.429 1_455 S
C405 C401 1.429 . S
C405 C406 1.523 . S
C406 C390 1.368 . S
C406 C402 1.368 1_455 S
C406 C405 1.523 . S
H407 C382 0.950 . S
H408 C384 0.950 . S
H409 C385 0.949 1_565 S
H410 C387 0.950 1_565 S
H411 C389 0.950 1_565 S
C412 C413 1.349 . S
C412 C414 1.327 . S
C412 H437 0.950 . S
C413 C412 1.349 . S
C413 C429 1.349 . S
C414 C412 1.327 . S
C414 C433 1.429 . S
C414 H438 0.950 . S
C415 C432 1.574 . S
C415 C434 1.368 . S
C415 H439 0.949 . S
H416 C420 0.949 . S
C417 C418 1.349 . S
C417 C419 1.327 . S
C417 H440 0.950 . S
C418 C417 1.349 . S
C418 C430 1.349 . S
C419 C417 1.327 . S
C419 C435 1.429 . S
C419 H441 0.950 . S
C420 H416 0.949 . S
C420 C428 1.574 . S
C420 C436 1.368 . S
H421 C429 0.950 . S
H422 C427 0.950 . S
H423 C428 0.949 . S
H424 C430 0.950 . S
H425 C431 0.950 . S
H426 C432 0.949 . S
C427 H422 0.950 . S
C427 C429 1.327 . S
C427 C433 1.429 . S
C428 C420 1.574 . S
C428 H423 0.949 . S
C428 C434 1.368 . S
C429 C413 1.349 . S
C429 H421 0.950 . S
C429 C427 1.327 . S
C430 C418 1.349 . S
C430 H424 0.950 . S
C430 C431 1.327 . S
C431 H425 0.950 . S
C431 C430 1.327 . S
C431 C435 1.429 . S
C432 C415 1.574 . S
C432 H426 0.949 . S
C432 C436 1.368 . S
C433 C414 1.429 . S
C433 C427 1.429 . S
C433 C434 1.523 . S
C434 C415 1.368 . S
C434 C428 1.368 . S
C434 C433 1.523 . S
C435 C419 1.429 . S
C435 C431 1.429 . S
C435 C436 1.523 . S
C436 C420 1.368 . S
C436 C432 1.368 . S
C436 C435 1.523 . S
H437 C412 0.950 . S
H438 C414 0.950 . S
H439 C415 0.949 . S
H440 C417 0.950 . S
H441 C419 0.950 . S
C442 C443 1.349 . S
C442 C444 1.327 . S
C442 H467 0.950 . S
C443 C442 1.349 . S
C443 C459 1.349 . S
C444 C442 1.327 . S
C444 C463 1.429 . S
C444 H468 0.950 . S
C445 C462 1.574 . S
C445 C464 1.368 . S
C445 H469 0.949 . S
H446 C450 0.949 . S
C447 C448 1.349 . S
C447 C449 1.327 . S
C447 H470 0.950 . S
C448 C447 1.349 . S
C448 C460 1.349 . S
C449 C447 1.327 . S
C449 C465 1.429 . S
C449 H471 0.950 . S
C450 H446 0.949 . S
C450 C458 1.574 . S
C450 C466 1.368 . S
H451 C459 0.950 . S
H452 C457 0.950 . S
H453 C458 0.949 . S
H454 C460 0.950 . S
H455 C461 0.950 . S
H456 C462 0.949 . S
C457 H452 0.950 . S
C457 C459 1.327 . S
C457 C463 1.429 . S
C458 C450 1.574 . S
C458 H453 0.949 . S
C458 C464 1.368 . S
C459 C443 1.349 . S
C459 H451 0.950 . S
C459 C457 1.327 . S
C460 C448 1.349 . S
C460 H454 0.950 . S
C460 C461 1.327 . S
C461 H455 0.950 . S
C461 C460 1.327 . S
C461 C465 1.429 . S
C462 C445 1.574 . S
C462 H456 0.949 . S
C462 C466 1.368 . S
C463 C444 1.429 . S
C463 C457 1.429 . S
C463 C464 1.523 . S
C464 C445 1.368 . S
C464 C458 1.368 . S
C464 C463 1.523 . S
C465 C449 1.429 . S
C465 C461 1.429 . S
C465 C466 1.523 . S
C466 C450 1.368 . S
C466 C462 1.368 . S
C466 C465 1.523 . S
H467 C442 0.950 . S
H468 C444 0.950 . S
H469 C445 0.949 . S
H470 C447 0.950 . S
H471 C449 0.950 . S
C118 C103 1.262 . S
C113 C27 1.379 . S
C143 N6 1.317 . S
C148 C90 1.258 . S
C173 C16 1.476 . S
C178 C107 1.457 . S
C203 N14 1.423 1_556 S
C208 C94 1.434 . S
C233 C57 1.379 . S
C238 C77 1.262 . S
C263 N36 1.317 . S
C268 C64 1.258 . S
C298 C81 1.457 . S
C293 C46 1.476 . S
C328 C68 1.434 . S
C323 N44 1.423 . S
C353 C10 1.472 . S
C358 C69 1.471 . S
C383 C1 1.551 . S
C388 C82 1.553 . S
C418 C95 1.471 . S
C413 C40 1.472 . S
C443 C31 1.551 . S
C448 C108 1.553 . S
