# Generated by pormake.
# Topology anh, (6,3)-cn, num edge types: 1
# Building blocks:
#     Node 0, Type 0, BuildingBlock: MIFKUJ_clean_sbu_0, # of connection points: 6
#     Node 1, Type 0, BuildingBlock: MIFKUJ_clean_sbu_0, # of connection points: 6
#     Node 2, Type 0, BuildingBlock: MIFKUJ_clean_sbu_0, # of connection points: 6
#     Node 3, Type 1, BuildingBlock: PAMTOO_clean_linker_0, # of connection points: 3
#     Node 4, Type 1, BuildingBlock: PAMTOO_clean_linker_0, # of connection points: 3
#     Node 5, Type 1, BuildingBlock: PAMTOO_clean_linker_0, # of connection points: 3
#     Node 6, Type 1, BuildingBlock: PAMTOO_clean_linker_0, # of connection points: 3
#     Node 7, Type 1, BuildingBlock: PAMTOO_clean_linker_0, # of connection points: 3
#     Node 8, Type 1, BuildingBlock: PAMTOO_clean_linker_0, # of connection points: 3
#     Edge 9, Type (0, 1), BuildingBlock: UVAHIK_clean_linker_0, # of connection points: 2
#     Edge 10, Type (0, 1), BuildingBlock: UVAHIK_clean_linker_0, # of connection points: 2
#     Edge 11, Type (0, 1), BuildingBlock: UVAHIK_clean_linker_0, # of connection points: 2
#     Edge 12, Type (0, 1), BuildingBlock: UVAHIK_clean_linker_0, # of connection points: 2
#     Edge 13, Type (0, 1), BuildingBlock: UVAHIK_clean_linker_0, # of connection points: 2
#     Edge 14, Type (0, 1), BuildingBlock: UVAHIK_clean_linker_0, # of connection points: 2
#     Edge 15, Type (0, 1), BuildingBlock: UVAHIK_clean_linker_0, # of connection points: 2
#     Edge 16, Type (0, 1), BuildingBlock: UVAHIK_clean_linker_0, # of connection points: 2
#     Edge 17, Type (0, 1), BuildingBlock: UVAHIK_clean_linker_0, # of connection points: 2
#     Edge 18, Type (0, 1), BuildingBlock: UVAHIK_clean_linker_0, # of connection points: 2
#     Edge 19, Type (0, 1), BuildingBlock: UVAHIK_clean_linker_0, # of connection points: 2
#     Edge 20, Type (0, 1), BuildingBlock: UVAHIK_clean_linker_0, # of connection points: 2
#     Edge 21, Type (0, 1), BuildingBlock: UVAHIK_clean_linker_0, # of connection points: 2
#     Edge 22, Type (0, 1), BuildingBlock: UVAHIK_clean_linker_0, # of connection points: 2
#     Edge 23, Type (0, 1), BuildingBlock: UVAHIK_clean_linker_0, # of connection points: 2
#     Edge 24, Type (0, 1), BuildingBlock: UVAHIK_clean_linker_0, # of connection points: 2
#     Edge 25, Type (0, 1), BuildingBlock: UVAHIK_clean_linker_0, # of connection points: 2
#     Edge 26, Type (0, 1), BuildingBlock: UVAHIK_clean_linker_0, # of connection points: 2
# Relax obj value: 0.084
# Max RMSD: 0.146
# Mean RMSD: 0.109
data_MOF--net-anh--node1-MIFKUJ_clean_sbu_0--node2-PAMTOO_clean_linker_0--edge1-UVAHIK_clean_linker_0
_symmetry_space_group_name_H-M    P1
_symmetry_Int_Tables_number       1
_symmetry_cell_setting            triclinic
loop_
_symmetry_equiv_pos_as_xyz
'x, y, z'
_cell_length_a     40.149695
_cell_length_b     40.399379
_cell_length_c     60.820824
_cell_angle_alpha  88.975433
_cell_angle_beta   93.404399
_cell_angle_gamma 120.33001
loop_
_atom_site_label
_atom_site_type_symbol
_atom_site_fract_x
_atom_site_fract_y
_atom_site_fract_z
_atom_type_partial_charge
Zn0 Zn 0.08897 0.55835 0.15833 0.0
Zn1 Zn 0.98906 0.4693 0.16316 0.0
C2 C 0.15805 0.55715 0.16278 0.0
O3 O 0.1621 0.58111 0.17844 0.0
C4 C 0.92847 0.48148 0.14569 0.0
O5 O 0.9248 0.4555 0.13152 0.0
O6 O 0.11517 0.61558 0.15588 0.0
O7 O 0.04112 0.53478 0.13874 0.0
O8 O 0.01506 0.47309 0.13513 0.0
C9 C 0.13933 0.63245 0.14121 0.0
O10 O 0.14575 0.61192 0.12741 0.0
O11 O 0.127 0.54183 0.15051 0.0
C12 C 0.93067 0.40517 0.18384 0.0
O13 O 0.93786 0.43218 0.19825 0.0
O14 O 0.95075 0.41391 0.16709 0.0
O15 O 0.02284 0.4886 0.19156 0.0
O16 O 0.07826 0.54426 0.18998 0.0
O17 O 0.95613 0.4942 0.16037 0.0
C18 C 0.03564 0.50626 0.12748 0.0
C19 C 0.05355 0.51612 0.2008 0.0
Zn20 Zn 0.61145 0.07324 0.49495 0.0
Zn21 Zn 0.60774 0.98359 0.49873 0.0
C22 C 0.68765 0.13264 0.50706 0.0
O23 O 0.6681 0.13419 0.5232 0.0
C24 C 0.53437 0.91983 0.48439 0.0
O25 O 0.55591 0.92051 0.46874 0.0
O26 O 0.59349 0.11171 0.49379 0.0
O27 O 0.58481 0.0375 0.46889 0.0
O28 O 0.6197 0.00929 0.46918 0.0
C29 C 0.60331 0.1363 0.47855 0.0
O30 O 0.62337 0.13482 0.46268 0.0
O31 O 0.66982 0.10637 0.49239 0.0
C32 C 0.62513 0.92928 0.51748 0.0
O33 O 0.60543 0.93257 0.53295 0.0
O34 O 0.63115 0.94956 0.50034 0.0
O35 O 0.62761 0.0156 0.5268 0.0
O36 O 0.60009 0.05132 0.52527 0.0
O37 O 0.54971 0.94581 0.49935 0.0
C38 C 0.59699 0.0185 0.45909 0.0
C39 C 0.61638 0.0358 0.53622 0.0
Zn40 Zn 0.64197 0.53701 0.83129 0.0
Zn41 Zn 0.55016 0.55987 0.82474 0.0
C42 C 0.64531 0.47001 0.83977 0.0
O43 O 0.66917 0.49233 0.85579 0.0
C44 C 0.55164 0.62884 0.81231 0.0
O45 O 0.52579 0.60581 0.79722 0.0
O46 O 0.69872 0.57354 0.82779 0.0
O47 O 0.60546 0.54599 0.81312 0.0
O48 O 0.56032 0.54862 0.79392 0.0
C49 C 0.71621 0.56406 0.81476 0.0
O50 O 0.69601 0.53289 0.80254 0.0
O51 O 0.62956 0.48319 0.82638 0.0
C52 C 0.48141 0.54313 0.84411 0.0
O53 O 0.50702 0.57129 0.85706 0.0
O54 O 0.49318 0.53108 0.82893 0.0
O55 O 0.58058 0.5507 0.8504 0.0
O56 O 0.62785 0.54034 0.86196 0.0
O57 O 0.56695 0.61556 0.82594 0.0
C58 C 0.58932 0.54414 0.79442 0.0
C59 C 0.59965 0.545 0.86607 0.0
H60 H 0.5892 0.04958 0.23625 0.0
H61 H 0.46995 0.97048 0.21751 0.0
H62 H 0.53998 0.06025 0.17354 0.0
H63 H 0.45133 0.03582 0.16685 0.0
C64 C 0.44463 0.01323 0.17936 0.0
O65 O 0.47138 0.00138 0.17893 0.0
H66 H 0.44563 0.02579 0.19572 0.0
C67 C 0.56486 0.03938 0.22425 0.0
C68 C 0.56904 0.05881 0.20435 0.0
C69 C 0.52927 0.00766 0.22919 0.0
C70 C 0.49766 0.99484 0.21383 0.0
C71 C 0.50178 0.01373 0.19372 0.0
C72 C 0.53739 0.04551 0.18896 0.0
H73 H 0.67938 0.61039 0.58235 0.0
H74 H 0.64672 0.49739 0.55934 0.0
H75 H 0.65304 0.58151 0.51312 0.0
H76 H 0.59655 0.49957 0.49454 0.0
C77 C 0.60237 0.48767 0.50995 0.0
O78 O 0.64013 0.51172 0.51765 0.0
H79 H 0.58156 0.48567 0.522 0.0
C80 C 0.67126 0.59011 0.56884 0.0
C81 C 0.66694 0.6009 0.54721 0.0
C82 C 0.66371 0.55284 0.57342 0.0
C83 C 0.65288 0.52635 0.55606 0.0
C84 C 0.6499 0.53714 0.53435 0.0
C85 C 0.65684 0.5742 0.52994 0.0
H86 H 0.05568 0.58644 0.90297 0.0
H87 H 0.13491 0.54768 0.89032 0.0
H88 H 0.08606 0.58243 0.83664 0.0
H89 H 0.10505 0.52127 0.82076 0.0
C90 C 0.11668 0.52043 0.83767 0.0
O91 O 0.13172 0.55594 0.84767 0.0
H92 H 0.09234 0.49774 0.84678 0.0
C93 C 0.07223 0.58119 0.89151 0.0
C94 C 0.06783 0.5865 0.86883 0.0
C95 C 0.09634 0.56723 0.8995 0.0
C96 C 0.11618 0.55848 0.88453 0.0
C97 C 0.11222 0.56395 0.86195 0.0
C98 C 0.08843 0.57813 0.85416 0.0
H99 H 0.03198 0.45371 0.43536 0.0
H100 H 0.14706 0.55087 0.44453 0.0
H101 H 0.08294 0.49329 0.50076 0.0
H102 H 0.13977 0.58173 0.51051 0.0
C103 C 0.15122 0.58564 0.49388 0.0
O104 O 0.1481 0.55147 0.48734 0.0
H105 H 0.13348 0.59343 0.48255 0.0
C106 C 0.05624 0.47354 0.44614 0.0
C107 C 0.05334 0.46961 0.46904 0.0
C108 C 0.08988 0.5025 0.43698 0.0
C109 C 0.12076 0.52843 0.45118 0.0
C110 C 0.11816 0.5255 0.47407 0.0
C111 C 0.0847 0.49567 0.48304 0.0
H112 H 0.64465 0.00515 0.76986 0.0
H113 H 0.63852 0.10716 0.77922 0.0
H114 H 0.62078 0.03136 0.83325 0.0
H115 H 0.57187 0.07127 0.83629 0.0
C116 C 0.58533 0.08899 0.8217 0.0
O117 O 0.62186 0.09401 0.82054 0.0
H118 H 0.56654 0.0737 0.80678 0.0
C119 C 0.64167 0.02453 0.78059 0.0
C120 C 0.63377 0.01476 0.80271 0.0
C121 C 0.6434 0.05772 0.77183 0.0
C122 C 0.6373 0.08143 0.78561 0.0
C123 C 0.62895 0.0717 0.80764 0.0
C124 C 0.62729 0.03854 0.81619 0.0
H125 H 0.61978 0.5398 0.09705 0.0
H126 H 0.51082 0.53358 0.10441 0.0
H127 H 0.57251 0.51997 0.16075 0.0
H128 H 0.47819 0.4734 0.16398 0.0
C129 C 0.47567 0.48766 0.14869 0.0
O130 O 0.51003 0.52183 0.14674 0.0
H131 H 0.46966 0.46798 0.13451 0.0
C132 C 0.59722 0.53661 0.10734 0.0
C133 C 0.60054 0.53079 0.12998 0.0
C134 C 0.56499 0.53751 0.09778 0.0
C135 C 0.53562 0.5323 0.11132 0.0
C136 C 0.53812 0.52563 0.13391 0.0
C137 C 0.57042 0.52453 0.14323 0.0
C138 C 0.18509 0.52089 0.14451 0.0
C139 C 0.18955 0.54891 0.15968 0.0
C140 C 0.2152 0.51337 0.14209 0.0
C141 C 0.32098 0.55733 0.15169 0.0
H142 H 0.30083 0.45288 0.14965 0.0
C143 C 0.44041 0.52242 0.13571 0.0
C144 C 0.44234 0.49495 0.14939 0.0
C145 C 0.40889 0.52819 0.13589 0.0
C146 C 0.30691 0.4822 0.15028 0.0
H147 H 0.22919 0.59101 0.18414 0.0
H148 H 0.28127 0.57797 0.17989 0.0
H149 H 0.24696 0.46461 0.1518 0.0
H150 H 0.41179 0.45054 0.17303 0.0
H151 H 0.35668 0.46073 0.17349 0.0
H152 H 0.38086 0.57503 0.15054 0.0
C153 C 0.25475 0.56198 0.16974 0.0
C154 C 0.27603 0.48891 0.15127 0.0
C155 C 0.22472 0.56928 0.17226 0.0
C156 C 0.41141 0.47245 0.16267 0.0
C157 C 0.37973 0.47804 0.16276 0.0
C158 C 0.35176 0.55065 0.15055 0.0
C159 C 0.25044 0.534 0.15464 0.0
C160 C 0.28278 0.52657 0.15223 0.0
C161 C 0.37822 0.50617 0.14947 0.0
C162 C 0.34516 0.51302 0.15001 0.0
H163 H 0.15836 0.50471 0.13458 0.0
H164 H 0.21111 0.49179 0.13021 0.0
H165 H 0.32713 0.58669 0.15219 0.0
H166 H 0.4633 0.53955 0.12488 0.0
H167 H 0.40832 0.54963 0.12518 0.0
C168 C 0.74715 0.19198 0.52167 0.0
C169 C 0.72847 0.16362 0.50504 0.0
C170 C 0.78416 0.22337 0.51917 0.0
C171 C 0.84992 0.28012 0.47592 0.0
H172 H 0.92463 0.32759 0.52538 0.0
C173 C 0.9812 0.43116 0.46896 0.0
C174 C 0.01727 0.43768 0.47764 0.0
C175 C 0.94713 0.39776 0.47386 0.0
C176 C 0.90424 0.31458 0.51135 0.0
H177 H 0.73488 0.14554 0.473 0.0
H178 H 0.7998 0.20017 0.46872 0.0
H179 H 0.86456 0.26732 0.53041 0.0
H180 H 0.04577 0.41511 0.49914 0.0
H181 H 0.98602 0.35636 0.50776 0.0
H182 H 0.88964 0.32691 0.45677 0.0
C183 C 0.78547 0.19837 0.4836 0.0
C184 C 0.86959 0.28016 0.51427 0.0
C185 C 0.74834 0.16685 0.48612 0.0
C186 C 0.01834 0.41096 0.49234 0.0
C187 C 0.9841 0.37727 0.49721 0.0
C188 C 0.88447 0.31445 0.47301 0.0
C189 C 0.80365 0.22737 0.49996 0.0
C190 C 0.84177 0.26263 0.49663 0.0
C191 C 0.94814 0.36977 0.4875 0.0
C192 C 0.91193 0.33245 0.49073 0.0
H193 H 0.73279 0.1905 0.53648 0.0
H194 H 0.79689 0.24523 0.53201 0.0
H195 H 0.82914 0.26782 0.46199 0.0
H196 H 0.97946 0.4515 0.45779 0.0
H197 H 0.91996 0.39357 0.46659 0.0
C198 C 0.54548 0.68443 0.79874 0.0
C199 C 0.56158 0.66926 0.81407 0.0
C200 C 0.55413 0.72237 0.80078 0.0
C201 C 0.62598 0.81565 0.82606 0.0
H202 H 0.54518 0.84004 0.81282 0.0
C203 C 0.65619 0.96719 0.80505 0.0
C204 C 0.62991 0.97831 0.81092 0.0
C205 C 0.64938 0.93041 0.80962 0.0
C206 C 0.56797 0.8337 0.81695 0.0
H207 H 0.59947 0.68197 0.84355 0.0
H208 H 0.61421 0.74802 0.84721 0.0
H209 H 0.52945 0.77346 0.81208 0.0
H210 H 0.57713 0.96054 0.8274 0.0
H211 H 0.56557 0.89633 0.83582 0.0
H212 H 0.66447 0.87594 0.83099 0.0
C213 C 0.59527 0.73076 0.83347 0.0
C214 C 0.55905 0.79557 0.81618 0.0
C215 C 0.58669 0.69285 0.83141 0.0
C216 C 0.59794 0.95277 0.82273 0.0
C217 C 0.5911 0.9159 0.82732 0.0
C218 C 0.63489 0.85381 0.82688 0.0
C219 C 0.57898 0.7459 0.81823 0.0
C220 C 0.58807 0.78618 0.82036 0.0
C221 C 0.61616 0.90397 0.82022 0.0
C222 C 0.6061 0.86331 0.82198 0.0
H223 H 0.52616 0.66704 0.78514 0.0
H224 H 0.54165 0.73339 0.78853 0.0
H225 H 0.64905 0.80938 0.82926 0.0
H226 H 0.68135 0.98651 0.79618 0.0
H227 H 0.66914 0.92212 0.80379 0.0
C228 C 0.8946 0.51003 0.16462 0.0
C229 C 0.89828 0.49229 0.14596 0.0
C230 C 0.86395 0.51714 0.16547 0.0
C231 C 0.79394 0.52992 0.13004 0.0
H232 H 0.73211 0.50069 0.18119 0.0
C233 C 0.67229 0.56309 0.13415 0.0
C234 C 0.63618 0.53194 0.1391 0.0
C235 C 0.70596 0.56151 0.13845 0.0
C236 C 0.74916 0.50902 0.16683 0.0
H237 H 0.87309 0.46883 0.11341 0.0
H238 H 0.82018 0.4818 0.11474 0.0
H239 H 0.78817 0.49172 0.18106 0.0
H240 H 0.60709 0.47583 0.15382 0.0
H241 H 0.66632 0.47287 0.16134 0.0
H242 H 0.7549 0.54655 0.11557 0.0
C243 C 0.84089 0.49013 0.12874 0.0
C244 C 0.78138 0.50417 0.16681 0.0
C245 C 0.87117 0.48261 0.128 0.0
C246 C 0.63465 0.50026 0.14994 0.0
C247 C 0.66852 0.4986 0.15421 0.0
C248 C 0.7621 0.53507 0.13013 0.0
C249 C 0.83671 0.50716 0.14754 0.0
C250 C 0.80385 0.51421 0.14829 0.0
C251 C 0.70433 0.52865 0.1477 0.0
C252 C 0.73916 0.5245 0.14845 0.0
H253 H 0.91485 0.51761 0.1788 0.0
H254 H 0.86164 0.53058 0.1801 0.0
H255 H 0.81081 0.53818 0.1156 0.0
H256 H 0.67425 0.58804 0.126 0.0
H257 H 0.73318 0.58549 0.13371 0.0
C258 C 0.47261 0.88149 0.50397 0.0
C259 C 0.494 0.8873 0.48534 0.0
C260 C 0.43569 0.84903 0.5053 0.0
C261 C 0.37337 0.75087 0.48117 0.0
H262 H 0.29114 0.7564 0.50803 0.0
C263 C 0.21418 0.62605 0.47531 0.0
C264 C 0.19272 0.61825 0.49407 0.0
C265 C 0.25133 0.65828 0.47478 0.0
C266 C 0.3139 0.75422 0.50071 0.0
H267 H 0.49265 0.86402 0.45322 0.0
H268 H 0.42837 0.80823 0.45533 0.0
H269 H 0.35438 0.81412 0.50591 0.0
H270 H 0.19316 0.63849 0.52687 0.0
H271 H 0.25811 0.69452 0.52611 0.0
H272 H 0.33278 0.69104 0.4758 0.0
C273 C 0.44033 0.82813 0.46918 0.0
C274 C 0.35025 0.78739 0.49949 0.0
C275 C 0.47718 0.8604 0.46789 0.0
C276 C 0.2092 0.64347 0.51229 0.0
C277 C 0.24628 0.67578 0.51175 0.0
C278 C 0.33701 0.71776 0.48232 0.0
C279 C 0.41921 0.82165 0.48801 0.0
C280 C 0.38048 0.78624 0.48962 0.0
C281 C 0.26776 0.68379 0.49294 0.0
C282 C 0.30674 0.71898 0.49205 0.0
H283 H 0.48473 0.90152 0.51776 0.0
H284 H 0.42052 0.84493 0.52015 0.0
H285 H 0.39607 0.74857 0.47385 0.0
H286 H 0.20194 0.60761 0.46086 0.0
H287 H 0.26675 0.6638 0.4599 0.0
C288 C 0.65463 0.41577 0.85208 0.0
C289 C 0.63654 0.43005 0.83754 0.0
C290 C 0.64608 0.37788 0.85014 0.0
C291 C 0.60636 0.29673 0.81075 0.0
H292 H 0.59934 0.23868 0.86349 0.0
C293 C 0.61064 0.15675 0.80883 0.0
C294 C 0.58812 0.12742 0.82329 0.0
C295 C 0.61342 0.19249 0.8102 0.0
C296 C 0.60069 0.25428 0.84858 0.0
H297 H 0.59525 0.41585 0.80956 0.0
H298 H 0.57998 0.34953 0.80637 0.0
H299 H 0.60941 0.30311 0.86676 0.0
H300 H 0.54903 0.11154 0.84964 0.0
H301 H 0.55329 0.17396 0.85186 0.0
H302 H 0.59696 0.24766 0.79255 0.0
C303 C 0.60113 0.36775 0.81909 0.0
C304 C 0.60701 0.29142 0.85047 0.0
C305 C 0.60976 0.4057 0.82099 0.0
C306 C 0.56724 0.13399 0.83862 0.0
C307 C 0.56979 0.16972 0.83991 0.0
C308 C 0.59987 0.25952 0.80885 0.0
C309 C 0.61917 0.35341 0.83367 0.0
C310 C 0.61042 0.31324 0.83159 0.0
C311 C 0.5932 0.19949 0.82583 0.0
C312 C 0.59747 0.23804 0.82776 0.0
H313 H 0.67552 0.43386 0.86494 0.0
H314 H 0.66099 0.36791 0.86139 0.0
H315 H 0.6091 0.31287 0.79588 0.0
H316 H 0.62653 0.15223 0.79663 0.0
H317 H 0.63206 0.21485 0.79928 0.0
C318 C 0.63211 0.87972 0.53908 0.0
C319 C 0.63833 0.90107 0.51973 0.0
C320 C 0.64271 0.85176 0.54105 0.0
C321 C 0.66009 0.78731 0.50796 0.0
H322 H 0.69797 0.76961 0.5645 0.0
C323 C 0.68728 0.65999 0.52406 0.0
C324 C 0.67057 0.63902 0.54304 0.0
C325 C 0.68958 0.69538 0.52019 0.0
C326 C 0.68744 0.77422 0.5486 0.0
H327 H 0.66128 0.91025 0.48736 0.0
H328 H 0.68003 0.86132 0.49087 0.0
H329 H 0.69161 0.82622 0.5596 0.0
H330 H 0.64226 0.63866 0.57247 0.0
H331 H 0.6471 0.7003 0.56597 0.0
H332 H 0.6553 0.73474 0.49715 0.0
C333 C 0.66662 0.8661 0.50445 0.0
C334 C 0.6837 0.80659 0.5458 0.0
C335 C 0.65605 0.89424 0.50249 0.0
C336 C 0.65632 0.65436 0.558 0.0
C337 C 0.65897 0.68973 0.55425 0.0
C338 C 0.66402 0.75494 0.51074 0.0
C339 C 0.65985 0.84438 0.52373 0.0
C340 C 0.66888 0.81293 0.52565 0.0
C341 C 0.67555 0.71063 0.53532 0.0
C342 C 0.67666 0.74752 0.53129 0.0
H343 H 0.61848 0.88416 0.55267 0.0
H344 H 0.63644 0.83516 0.55598 0.0
H345 H 0.64837 0.7912 0.49227 0.0
H346 H 0.69883 0.64922 0.51228 0.0
H347 H 0.70262 0.71097 0.50549 0.0
C348 C 0.7809 0.6114 0.83252 0.0
C349 C 0.7589 0.58365 0.81604 0.0
C350 C 0.82044 0.62475 0.83611 0.0
C351 C 0.9039 0.62337 0.81303 0.0
H352 H 0.93212 0.6172 0.87442 0.0
C353 C 0.0163 0.5815 0.84133 0.0
C354 C 0.04014 0.59866 0.86047 0.0
C355 C 0.98789 0.59027 0.83448 0.0
C356 C 0.92512 0.61987 0.85725 0.0
H357 H 0.76167 0.55043 0.78931 0.0
H358 H 0.83012 0.57316 0.79573 0.0
H359 H 0.87139 0.61486 0.86457 0.0
H360 H 0.05408 0.64012 0.88671 0.0
H361 H 0.00385 0.6549 0.8749 0.0
H362 H 0.95689 0.62636 0.80572 0.0
C363 C 0.81715 0.58492 0.80583 0.0
C364 C 0.89028 0.61862 0.85158 0.0
C365 C 0.77772 0.57161 0.80225 0.0
C366 C 0.03573 0.62585 0.87214 0.0
C367 C 0.00711 0.63444 0.86534 0.0
C368 C 0.93867 0.62443 0.8187 0.0
C369 C 0.83873 0.61069 0.82325 0.0
C370 C 0.87869 0.61915 0.82936 0.0
C371 C 0.98248 0.61627 0.84664 0.0
C372 C 0.94906 0.62154 0.84082 0.0
H373 H 0.7673 0.62146 0.84334 0.0
H374 H 0.8364 0.64508 0.84944 0.0
H375 H 0.89615 0.62456 0.79579 0.0
H376 H 0.01843 0.56001 0.83213 0.0
H377 H 0.96896 0.5753 0.8202 0.0
C378 C 0.19751 0.69293 0.13035 0.0
C379 C 0.16297 0.67469 0.14129 0.0
C380 C 0.22214 0.73252 0.13237 0.0
C381 C 0.24517 0.81296 0.17005 0.0
H382 H 0.31505 0.8719 0.1249 0.0
C383 C 0.3892 0.95032 0.19051 0.0
C384 C 0.40514 0.97907 0.17472 0.0
C385 C 0.35483 0.91616 0.18551 0.0
C386 C 0.29534 0.85624 0.13759 0.0
H387 H 0.12589 0.68375 0.16184 0.0
H388 H 0.16815 0.75309 0.16472 0.0
H389 H 0.26249 0.80728 0.11642 0.0
H390 H 0.39746 0.9955 0.14157 0.0
H391 H 0.33629 0.93639 0.13302 0.0
H392 H 0.27739 0.86221 0.19106 0.0
C393 C 0.17694 0.73673 0.15517 0.0
C394 C 0.2655 0.81884 0.13282 0.0
C395 C 0.15258 0.69702 0.15341 0.0
C396 C 0.38552 0.97372 0.15405 0.0
C397 C 0.35075 0.93973 0.14912 0.0
C398 C 0.27461 0.85056 0.17471 0.0
C399 C 0.2125 0.75488 0.14512 0.0
C400 C 0.24075 0.79631 0.14918 0.0
C401 C 0.33537 0.91018 0.16465 0.0
C402 C 0.30082 0.87228 0.15876 0.0
H403 H 0.20639 0.67646 0.12096 0.0
H404 H 0.2495 0.74524 0.12468 0.0
H405 H 0.22696 0.79652 0.18316 0.0
H406 H 0.40404 0.95381 0.2065 0.0
H407 H 0.34443 0.89391 0.19776 0.0
C408 C 0.60814 0.19681 0.46367 0.0
C409 C 0.59581 0.16853 0.47994 0.0
C410 C 0.60422 0.22904 0.46602 0.0
C411 C 0.59755 0.28767 0.50906 0.0
H412 H 0.56861 0.33301 0.46033 0.0
C413 C 0.58206 0.4202 0.52167 0.0
C414 C 0.59653 0.44855 0.50554 0.0
C415 C 0.57857 0.38449 0.51803 0.0
C416 C 0.57708 0.32089 0.47407 0.0
H417 H 0.56833 0.15126 0.51106 0.0
H418 H 0.56136 0.20734 0.51509 0.0
H419 H 0.56792 0.27296 0.45461 0.0
H420 H 0.61976 0.46258 0.47331 0.0
H421 H 0.61425 0.40034 0.46695 0.0
H422 H 0.6075 0.33577 0.52843 0.0
C423 C 0.57452 0.20483 0.50064 0.0
C424 C 0.57661 0.28646 0.47078 0.0
C425 C 0.57831 0.17257 0.49826 0.0
C426 C 0.60785 0.44081 0.4858 0.0
C427 C 0.60451 0.40515 0.48216 0.0
C428 C 0.59816 0.32211 0.51231 0.0
C429 C 0.58801 0.23375 0.48474 0.0
C430 C 0.58697 0.26953 0.48824 0.0
C431 C 0.59 0.37659 0.49828 0.0
C432 C 0.58808 0.33926 0.49485 0.0
H433 H 0.62172 0.19458 0.44934 0.0
H434 H 0.61516 0.25093 0.45356 0.0
H435 H 0.60637 0.27576 0.52275 0.0
H436 H 0.57365 0.42578 0.53716 0.0
H437 H 0.56692 0.36307 0.53071 0.0
C438 C 0.42754 0.54653 0.86035 0.0
C439 C 0.43978 0.52946 0.84531 0.0
C440 C 0.38894 0.53704 0.85992 0.0
C441 C 0.30278 0.50221 0.8618 0.0
H442 H 0.2532 0.4961 0.80413 0.0
C443 C 0.15259 0.48785 0.8526 0.0
C444 C 0.14839 0.51123 0.83668 0.0
C445 C 0.18442 0.48254 0.85297 0.0
C446 C 0.26666 0.49779 0.82036 0.0
H447 H 0.42074 0.48766 0.81867 0.0
H448 H 0.35304 0.47055 0.81819 0.0
H449 H 0.31622 0.50083 0.80705 0.0
H450 H 0.17387 0.54771 0.80886 0.0
H451 H 0.22997 0.53925 0.80966 0.0
H452 H 0.2544 0.50148 0.87511 0.0
C453 C 0.37351 0.49184 0.83004 0.0
C454 C 0.30257 0.49998 0.82204 0.0
C455 C 0.41224 0.50146 0.83042 0.0
C456 C 0.17628 0.529 0.82103 0.0
C457 C 0.20823 0.52394 0.82146 0.0
C458 C 0.26702 0.50028 0.86011 0.0
C459 C 0.36157 0.51006 0.84452 0.0
C460 C 0.32143 0.50304 0.84279 0.0
C461 C 0.21297 0.50105 0.83762 0.0
C462 C 0.24887 0.49882 0.83936 0.0
H463 H 0.44801 0.56826 0.87201 0.0
H464 H 0.38093 0.55208 0.8711 0.0
H465 H 0.31624 0.50394 0.87804 0.0
H466 H 0.13163 0.47427 0.86502 0.0
H467 H 0.18694 0.4644 0.86549 0.0
C468 C 0.87578 0.35629 0.2048 0.0
C469 C 0.89706 0.36628 0.18586 0.0
C470 C 0.8421 0.32072 0.206 0.0
C471 C 0.76457 0.24554 0.17104 0.0
H472 H 0.74024 0.18729 0.22497 0.0
C473 C 0.62371 0.09914 0.18029 0.0
C474 C 0.60615 0.09385 0.20035 0.0
C475 C 0.66013 0.1312 0.1774 0.0
C476 C 0.7465 0.20339 0.20984 0.0
H477 H 0.90029 0.34651 0.15353 0.0
H478 H 0.8413 0.28425 0.15568 0.0
H479 H 0.80336 0.24479 0.22238 0.0
H480 H 0.61155 0.11877 0.23257 0.0
H481 H 0.67468 0.17472 0.22748 0.0
H482 H 0.70731 0.2045 0.15869 0.0
C483 C 0.85064 0.30411 0.16951 0.0
C484 C 0.78265 0.23622 0.20836 0.0
C485 C 0.88451 0.33962 0.16836 0.0
C486 C 0.62487 0.12174 0.21712 0.0
C487 C 0.66105 0.1537 0.21422 0.0
C488 C 0.72827 0.21268 0.17255 0.0
C489 C 0.82892 0.29451 0.18825 0.0
C490 C 0.79183 0.25795 0.18908 0.0
C491 C 0.67939 0.15846 0.1945 0.0
C492 C 0.71867 0.19168 0.19212 0.0
H493 H 0.8847 0.37621 0.21855 0.0
H494 H 0.8257 0.31423 0.22056 0.0
H495 H 0.77078 0.26198 0.15605 0.0
H496 H 0.60984 0.07794 0.16714 0.0
H497 H 0.67364 0.13411 0.16203 0.0
C498 C 0.04784 0.48045 0.09355 0.0
C499 C 0.05161 0.51169 0.10554 0.0
C500 C 0.06 0.48526 0.07204 0.0
C501 C 0.11695 0.55977 0.03107 0.0
H502 H 0.04564 0.48233 0.98855 0.0
C503 C 0.1054 0.58908 0.93877 0.0
C504 C 0.09969 0.56087 0.92342 0.0
C505 C 0.10586 0.58222 0.96134 0.0
C506 C 0.06621 0.50391 0.00024 0.0
H507 H 0.07209 0.57268 0.10459 0.0
H508 H 0.09258 0.58095 0.06715 0.0
H509 H 0.03513 0.47166 0.02768 0.0
H510 H 0.09079 0.50367 0.91959 0.0
H511 H 0.09125 0.4915 0.95917 0.0
H512 H 0.14695 0.5927 0.0034 0.0
C513 C 0.08093 0.55282 0.07437 0.0
C514 C 0.06027 0.49778 0.02271 0.0
C515 C 0.06895 0.54804 0.09586 0.0
C516 C 0.09542 0.52599 0.93108 0.0
C517 C 0.09544 0.51894 0.95369 0.0
C518 C 0.12269 0.56602 0.00858 0.0
C519 C 0.07602 0.52139 0.06203 0.0
C520 C 0.0851 0.52598 0.0384 0.0
C521 C 0.10024 0.54685 0.96904 0.0
C522 C 0.09694 0.53847 0.99292 0.0
H523 H 0.03484 0.45211 0.10061 0.0
H524 H 0.05634 0.46055 0.06316 0.0
H525 H 0.13711 0.58176 0.04269 0.0
H526 H 0.10906 0.61634 0.9333 0.0
H527 H 0.10926 0.60414 0.97276 0.0
C528 C 0.55703 0.01415 0.42483 0.0
C529 C 0.58515 0.00764 0.4356 0.0
C530 C 0.54618 0.0044 0.40259 0.0
C531 C 0.58415 0.99346 0.35214 0.0
H532 H 0.47785 0.94694 0.32875 0.0
C533 C 0.5512 0.97887 0.25914 0.0
C534 C 0.5253 0.9906 0.25123 0.0
C535 C 0.55332 0.9707 0.28141 0.0
C536 C 0.50769 0.96009 0.335 0.0
H537 H 0.62323 0.98493 0.43152 0.0
H538 H 0.6046 0.96845 0.39256 0.0
H539 H 0.49212 0.95341 0.3686 0.0
H540 H 0.47985 0.00101 0.25986 0.0
H541 H 0.48415 0.98789 0.2989 0.0
H542 H 0.60019 0.00205 0.31884 0.0
C543 C 0.59107 0.98115 0.40139 0.0
C544 C 0.51582 0.96371 0.35781 0.0
C545 C 0.6017 0.99059 0.4237 0.0
C546 C 0.49979 0.99164 0.2656 0.0
C547 C 0.50229 0.98405 0.28797 0.0
C548 C 0.57611 0.99021 0.3294 0.0
C549 C 0.5634 0.98821 0.39059 0.0
C550 C 0.55419 0.98096 0.36657 0.0
C551 C 0.53011 0.97488 0.29629 0.0
C552 C 0.53782 0.97401 0.32049 0.0
H553 H 0.54354 0.02703 0.43353 0.0
H554 H 0.5251 0.01057 0.39462 0.0
H555 H 0.61404 0.00735 0.35841 0.0
H556 H 0.57101 0.97771 0.24826 0.0
H557 H 0.57433 0.96271 0.2871 0.0
C558 C 0.57493 0.51231 0.75751 0.0
C559 C 0.60205 0.53523 0.77429 0.0
C560 C 0.58721 0.50705 0.73751 0.0
C561 C 0.66515 0.5596 0.70165 0.0
H562 H 0.61836 0.46473 0.6677 0.0
C563 C 0.6966 0.56358 0.61098 0.0
C564 C 0.66429 0.54139 0.59662 0.0
C565 C 0.69479 0.55699 0.63362 0.0
C566 C 0.63161 0.49151 0.6769 0.0
H567 H 0.6629 0.57074 0.78351 0.0
H568 H 0.68462 0.56179 0.74846 0.0
H569 H 0.60359 0.46353 0.70624 0.0
H570 H 0.60545 0.4938 0.59434 0.0
H571 H 0.60154 0.48306 0.63389 0.0
H572 H 0.69116 0.58816 0.67232 0.0
C573 C 0.65392 0.54733 0.75089 0.0
C574 C 0.62327 0.49073 0.699 0.0
C575 C 0.64159 0.55213 0.77099 0.0
C576 C 0.63084 0.5111 0.60511 0.0
C577 C 0.62874 0.50492 0.62781 0.0
C578 C 0.67305 0.56048 0.67955 0.0
C579 C 0.62682 0.52529 0.73381 0.0
C580 C 0.63941 0.52489 0.71144 0.0
C581 C 0.66029 0.52862 0.64245 0.0
C582 C 0.65579 0.52657 0.6667 0.0
H583 H 0.54424 0.49911 0.7597 0.0
H584 H 0.56568 0.49031 0.72455 0.0
H585 H 0.67757 0.58646 0.71074 0.0
H586 H 0.72285 0.58689 0.60473 0.0
H587 H 0.72003 0.57512 0.64426 0.0
C588 C 0.64547 0.02969 0.57259 0.0
C589 C 0.62269 0.04168 0.5604 0.0
C590 C 0.65168 0.03557 0.59539 0.0
C591 C 0.64452 0.09125 0.64117 0.0
H592 H 0.64485 0.01102 0.67696 0.0
C593 C 0.62599 0.07712 0.73541 0.0
C594 C 0.64887 0.0656 0.74796 0.0
C595 C 0.62727 0.07918 0.71248 0.0
C596 C 0.64534 0.03391 0.66716 0.0
H597 H 0.5885 0.06922 0.56267 0.0
H598 H 0.59835 0.07839 0.60244 0.0
H599 H 0.63725 0.00366 0.63707 0.0
H600 H 0.69317 0.05014 0.74642 0.0
H601 H 0.6949 0.05317 0.70639 0.0
H602 H 0.6513 0.12077 0.67155 0.0
C603 C 0.61222 0.06526 0.59436 0.0
C604 C 0.64106 0.02975 0.64428 0.0
C605 C 0.60629 0.05971 0.57154 0.0
C606 C 0.67457 0.05828 0.73719 0.0
C607 C 0.67562 0.06005 0.71429 0.0
C608 C 0.6484 0.09521 0.66412 0.0
C609 C 0.63496 0.05324 0.60659 0.0
C610 C 0.6405 0.05831 0.63096 0.0
C611 C 0.65127 0.06955 0.70168 0.0
C612 C 0.64881 0.06654 0.67733 0.0
H613 H 0.65879 0.01599 0.56452 0.0
H614 H 0.6699 0.02651 0.60419 0.0
H615 H 0.64485 0.1141 0.63143 0.0
H616 H 0.60564 0.08263 0.74317 0.0
H617 H 0.60804 0.08639 0.70313 0.0
C618 C 0.55346 0.53591 0.89478 0.0
C619 C 0.59096 0.54626 0.88919 0.0
C620 C 0.54552 0.53661 0.91683 0.0
C621 C 0.58902 0.58374 0.96917 0.0
H622 H 0.51821 0.48948 0.9978 0.0
C623 C 0.59574 0.56895 0.06284 0.0
C624 C 0.56239 0.54346 0.07367 0.0
C625 C 0.59464 0.57166 0.03996 0.0
C626 C 0.53738 0.51631 0.99004 0.0
H627 H 0.64954 0.56577 0.90214 0.0
H628 H 0.63586 0.56811 0.9405 0.0
H629 H 0.52421 0.48948 0.95805 0.0
H630 H 0.50114 0.50218 0.06888 0.0
H631 H 0.49879 0.50812 0.02889 0.0
H632 H 0.60216 0.61094 0.0008 0.0
C633 C 0.61264 0.55913 0.92787 0.0
C634 C 0.5409 0.51616 0.96729 0.0
C635 C 0.62038 0.55761 0.90597 0.0
C636 C 0.52736 0.52218 0.06108 0.0
C637 C 0.52615 0.52522 0.0381 0.0
C638 C 0.585 0.58411 0.99179 0.0
C639 C 0.57518 0.54854 0.93348 0.0
C640 C 0.5675 0.54965 0.95683 0.0
C641 C 0.55998 0.54944 0.0272 0.0
C642 C 0.56003 0.55015 0.00268 0.0
H643 H 0.5302 0.52665 0.88217 0.0
H644 H 0.5164 0.52823 0.92086 0.0
H645 H 0.60945 0.60999 0.96135 0.0
H646 H 0.62307 0.58638 0.07203 0.0
H647 H 0.62145 0.59027 0.03229 0.0
C648 C 0.03966 0.48173 0.2368 0.0
C649 C 0.06044 0.5157 0.22496 0.0
C650 C 0.04629 0.48141 0.2596 0.0
C651 C 0.07883 0.54257 0.30857 0.0
H652 H 0.09608 0.46426 0.33531 0.0
C653 C 0.10962 0.54151 0.40242 0.0
C654 C 0.09218 0.50555 0.41262 0.0
C655 C 0.10949 0.54404 0.37945 0.0
C656 C 0.09083 0.48607 0.32818 0.0
H657 H 0.10427 0.57603 0.22784 0.0
H658 H 0.11515 0.57549 0.26775 0.0
H659 H 0.08713 0.46552 0.29536 0.0
H660 H 0.06254 0.4441 0.40655 0.0
H661 H 0.06059 0.44842 0.36675 0.0
H662 H 0.08093 0.56235 0.34125 0.0
C663 C 0.09398 0.54914 0.25929 0.0
C664 C 0.08587 0.48683 0.30528 0.0
C665 C 0.08783 0.54936 0.23645 0.0
C666 C 0.07555 0.47228 0.39929 0.0
C667 C 0.07501 0.4748 0.37638 0.0
C668 C 0.08321 0.5415 0.3315 0.0
C669 C 0.07335 0.51516 0.27106 0.0
C670 C 0.07965 0.51497 0.29528 0.0
C671 C 0.09164 0.51069 0.36611 0.0
C672 C 0.08904 0.51308 0.34164 0.0
H673 H 0.01843 0.4553 0.22845 0.0
H674 H 0.02979 0.4549 0.26835 0.0
H675 H 0.07372 0.56437 0.30125 0.0
H676 H 0.12251 0.56774 0.41214 0.0
H677 H 0.1232 0.57221 0.37217 0.0
loop_
_geom_bond_atom_site_label_1
_geom_bond_atom_site_label_2
_geom_bond_distance
_geom_bond_site_symmetry_2
_ccdc_geom_bond_type
Zn0 O6 1.969 . S
Zn0 O7 1.965 . S
Zn0 O11 2.024 . S
Zn0 O16 1.969 . S
Zn1 O8 1.969 . S
Zn1 O14 1.969 . S
Zn1 O15 1.965 . S
Zn1 O17 2.024 . S
C2 O3 1.229 . S
C2 O11 1.058 . S
O3 C2 1.229 . S
C4 O5 1.229 . S
C4 O17 1.058 . S
O5 C4 1.229 . S
O6 Zn0 1.969 . S
O6 C9 1.267 . S
O7 Zn0 1.965 . S
O7 C18 1.260 . S
O8 Zn1 1.969 . S
O8 C18 1.258 1_655 S
C9 O6 1.267 . S
C9 O10 1.228 . S
O10 C9 1.228 . S
O11 Zn0 2.024 . S
O11 C2 1.058 . S
C12 O13 1.228 . S
C12 O14 1.267 . S
O13 C12 1.228 . S
O14 Zn1 1.969 . S
O14 C12 1.267 . S
O15 Zn1 1.965 . S
O15 C19 1.260 1_655 S
O16 Zn0 1.969 . S
O16 C19 1.258 . S
O17 Zn1 2.024 . S
O17 C4 1.058 . S
C18 O7 1.260 . S
C18 O8 1.258 1_455 S
C19 O15 1.260 1_455 S
C19 O16 1.258 . S
Zn20 O26 1.969 . S
Zn20 O27 1.965 . S
Zn20 O31 2.024 . S
Zn20 O36 1.969 . S
Zn21 O28 1.969 . S
Zn21 O34 1.969 . S
Zn21 O35 1.965 1_565 S
Zn21 O37 2.024 . S
C22 O23 1.229 . S
C22 O31 1.058 . S
O23 C22 1.229 . S
C24 O25 1.229 . S
C24 O37 1.058 . S
O25 C24 1.229 . S
O26 Zn20 1.969 . S
O26 C29 1.267 . S
O27 Zn20 1.965 . S
O27 C38 1.260 . S
O28 Zn21 1.969 . S
O28 C38 1.258 1_565 S
C29 O26 1.267 . S
C29 O30 1.228 . S
O30 C29 1.228 . S
O31 Zn20 2.024 . S
O31 C22 1.058 . S
C32 O33 1.228 . S
C32 O34 1.267 . S
O33 C32 1.228 . S
O34 Zn21 1.969 . S
O34 C32 1.267 . S
O35 Zn21 1.965 1_545 S
O35 C39 1.260 . S
O36 Zn20 1.969 . S
O36 C39 1.258 . S
O37 Zn21 2.024 . S
O37 C24 1.058 . S
C38 O27 1.260 . S
C38 O28 1.258 1_545 S
C39 O35 1.260 . S
C39 O36 1.258 . S
Zn40 O46 1.969 . S
Zn40 O47 1.965 . S
Zn40 O51 2.024 . S
Zn40 O56 1.969 . S
Zn41 O48 1.969 . S
Zn41 O54 1.969 . S
Zn41 O55 1.965 . S
Zn41 O57 2.024 . S
C42 O43 1.229 . S
C42 O51 1.058 . S
O43 C42 1.229 . S
C44 O45 1.229 . S
C44 O57 1.058 . S
O45 C44 1.229 . S
O46 Zn40 1.969 . S
O46 C49 1.267 . S
O47 Zn40 1.965 . S
O47 C58 1.260 . S
O48 Zn41 1.969 . S
O48 C58 1.258 . S
C49 O46 1.267 . S
C49 O50 1.228 . S
O50 C49 1.228 . S
O51 Zn40 2.024 . S
O51 C42 1.058 . S
C52 O53 1.228 . S
C52 O54 1.267 . S
O53 C52 1.228 . S
O54 Zn41 1.969 . S
O54 C52 1.267 . S
O55 Zn41 1.965 . S
O55 C59 1.260 . S
O56 Zn40 1.969 . S
O56 C59 1.258 . S
O57 Zn41 2.024 . S
O57 C44 1.058 . S
C58 O47 1.260 . S
C58 O48 1.258 . S
C59 O55 1.260 . S
C59 O56 1.258 . S
H60 C67 0.929 . S
H61 C70 0.930 1_565 S
H62 C72 0.929 . S
H63 C64 0.969 . S
C64 H63 0.969 . S
C64 O65 1.550 . S
C64 H66 0.973 . S
O65 C64 1.550 . S
O65 C71 1.412 1_565 S
H66 C64 0.973 . S
C67 H60 0.929 . S
C67 C68 1.400 . S
C67 C69 1.364 . S
C68 C67 1.400 . S
C68 C72 1.377 . S
C69 C67 1.364 . S
C69 C70 1.374 . S
C70 H61 0.930 1_545 S
C70 C69 1.374 . S
C70 C71 1.383 . S
C71 O65 1.412 1_545 S
C71 C70 1.383 . S
C71 C72 1.394 . S
C72 H62 0.929 . S
C72 C68 1.377 . S
C72 C71 1.394 . S
H73 C80 0.929 . S
H74 C83 0.930 . S
H75 C85 0.929 . S
H76 C77 0.969 . S
C77 H76 0.969 . S
C77 O78 1.550 . S
C77 H79 0.973 . S
O78 C77 1.550 . S
O78 C84 1.412 . S
H79 C77 0.973 . S
C80 H73 0.929 . S
C80 C81 1.400 . S
C80 C82 1.364 . S
C81 C80 1.400 . S
C81 C85 1.377 . S
C82 C80 1.364 . S
C82 C83 1.374 . S
C83 H74 0.930 . S
C83 C82 1.374 . S
C83 C84 1.383 . S
C84 O78 1.412 . S
C84 C83 1.383 . S
C84 C85 1.394 . S
C85 H75 0.929 . S
C85 C81 1.377 . S
C85 C84 1.394 . S
H86 C93 0.929 . S
H87 C96 0.930 . S
H88 C98 0.929 . S
H89 C90 0.969 . S
C90 H89 0.969 . S
C90 O91 1.550 . S
C90 H92 0.973 . S
O91 C90 1.550 . S
O91 C97 1.412 . S
H92 C90 0.973 . S
C93 H86 0.929 . S
C93 C94 1.400 . S
C93 C95 1.364 . S
C94 C93 1.400 . S
C94 C98 1.377 . S
C95 C93 1.364 . S
C95 C96 1.374 . S
C96 H87 0.930 . S
C96 C95 1.374 . S
C96 C97 1.383 . S
C97 O91 1.412 . S
C97 C96 1.383 . S
C97 C98 1.394 . S
C98 H88 0.929 . S
C98 C94 1.377 . S
C98 C97 1.394 . S
H99 C106 0.929 . S
H100 C109 0.930 . S
H101 C111 0.929 . S
H102 C103 0.969 . S
C103 H102 0.969 . S
C103 O104 1.550 . S
C103 H105 0.973 . S
O104 C103 1.550 . S
O104 C110 1.412 . S
H105 C103 0.973 . S
C106 H99 0.929 . S
C106 C107 1.400 . S
C106 C108 1.364 . S
C107 C106 1.400 . S
C107 C111 1.377 . S
C108 C106 1.364 . S
C108 C109 1.374 . S
C109 H100 0.930 . S
C109 C108 1.374 . S
C109 C110 1.383 . S
C110 O104 1.412 . S
C110 C109 1.383 . S
C110 C111 1.394 . S
C111 H101 0.929 . S
C111 C107 1.377 . S
C111 C110 1.394 . S
H112 C119 0.929 1_565 S
H113 C122 0.930 . S
H114 C124 0.929 . S
H115 C116 0.969 . S
C116 H115 0.969 . S
C116 O117 1.550 . S
C116 H118 0.973 . S
O117 C116 1.550 . S
O117 C123 1.412 . S
H118 C116 0.973 . S
C119 H112 0.929 1_545 S
C119 C120 1.400 . S
C119 C121 1.364 . S
C120 C119 1.400 . S
C120 C124 1.377 . S
C121 C119 1.364 . S
C121 C122 1.374 . S
C122 H113 0.930 . S
C122 C121 1.374 . S
C122 C123 1.383 . S
C123 O117 1.412 . S
C123 C122 1.383 . S
C123 C124 1.394 . S
C124 H114 0.929 . S
C124 C120 1.377 . S
C124 C123 1.394 . S
H125 C132 0.929 . S
H126 C135 0.930 . S
H127 C137 0.929 . S
H128 C129 0.969 . S
C129 H128 0.969 . S
C129 O130 1.550 . S
C129 H131 0.973 . S
O130 C129 1.550 . S
O130 C136 1.412 . S
H131 C129 0.973 . S
C132 H125 0.929 . S
C132 C133 1.400 . S
C132 C134 1.364 . S
C133 C132 1.400 . S
C133 C137 1.377 . S
C134 C132 1.364 . S
C134 C135 1.374 . S
C135 H126 0.930 . S
C135 C134 1.374 . S
C135 C136 1.383 . S
C136 O130 1.412 . S
C136 C135 1.383 . S
C136 C137 1.394 . S
C137 H127 0.929 . S
C137 C133 1.377 . S
C137 C136 1.394 . S
C138 C139 1.349 . S
C138 C140 1.327 . S
C138 H163 0.950 . S
C139 C138 1.349 . S
C139 C155 1.349 . S
C140 C138 1.327 . S
C140 C159 1.429 . S
C140 H164 0.950 . S
C141 C158 1.574 . S
C141 C160 1.368 . S
C141 H165 0.949 . S
H142 C146 0.949 . S
C143 C144 1.349 . S
C143 C145 1.327 . S
C143 H166 0.950 . S
C144 C143 1.349 . S
C144 C156 1.349 . S
C145 C143 1.327 . S
C145 C161 1.429 . S
C145 H167 0.950 . S
C146 H142 0.949 . S
C146 C154 1.574 . S
C146 C162 1.368 . S
H147 C155 0.950 . S
H148 C153 0.950 . S
H149 C154 0.949 . S
H150 C156 0.950 . S
H151 C157 0.950 . S
H152 C158 0.949 . S
C153 H148 0.950 . S
C153 C155 1.327 . S
C153 C159 1.429 . S
C154 C146 1.574 . S
C154 H149 0.949 . S
C154 C160 1.368 . S
C155 C139 1.349 . S
C155 H147 0.950 . S
C155 C153 1.327 . S
C156 C144 1.349 . S
C156 H150 0.950 . S
C156 C157 1.327 . S
C157 H151 0.950 . S
C157 C156 1.327 . S
C157 C161 1.429 . S
C158 C141 1.574 . S
C158 H152 0.949 . S
C158 C162 1.368 . S
C159 C140 1.429 . S
C159 C153 1.429 . S
C159 C160 1.523 . S
C160 C141 1.368 . S
C160 C154 1.368 . S
C160 C159 1.523 . S
C161 C145 1.429 . S
C161 C157 1.429 . S
C161 C162 1.523 . S
C162 C146 1.368 . S
C162 C158 1.368 . S
C162 C161 1.523 . S
H163 C138 0.950 . S
H164 C140 0.950 . S
H165 C141 0.949 . S
H166 C143 0.950 . S
H167 C145 0.950 . S
C168 C169 1.349 . S
C168 C170 1.327 . S
C168 H193 0.950 . S
C169 C168 1.349 . S
C169 C185 1.349 . S
C170 C168 1.327 . S
C170 C189 1.429 . S
C170 H194 0.950 . S
C171 C188 1.574 . S
C171 C190 1.368 . S
C171 H195 0.949 . S
H172 C176 0.949 . S
C173 C174 1.349 1_655 S
C173 C175 1.327 . S
C173 H196 0.950 . S
C174 C173 1.349 1_455 S
C174 C186 1.349 . S
C175 C173 1.327 . S
C175 C191 1.429 . S
C175 H197 0.950 . S
C176 H172 0.949 . S
C176 C184 1.574 . S
C176 C192 1.368 . S
H177 C185 0.950 . S
H178 C183 0.950 . S
H179 C184 0.949 . S
H180 C186 0.950 . S
H181 C187 0.950 . S
H182 C188 0.949 . S
C183 H178 0.950 . S
C183 C185 1.327 . S
C183 C189 1.429 . S
C184 C176 1.574 . S
C184 H179 0.949 . S
C184 C190 1.368 . S
C185 C169 1.349 . S
C185 H177 0.950 . S
C185 C183 1.327 . S
C186 C174 1.349 . S
C186 H180 0.950 . S
C186 C187 1.327 1_455 S
C187 H181 0.950 . S
C187 C186 1.327 1_655 S
C187 C191 1.429 . S
C188 C171 1.574 . S
C188 H182 0.949 . S
C188 C192 1.368 . S
C189 C170 1.429 . S
C189 C183 1.429 . S
C189 C190 1.523 . S
C190 C171 1.368 . S
C190 C184 1.368 . S
C190 C189 1.523 . S
C191 C175 1.429 . S
C191 C187 1.429 . S
C191 C192 1.523 . S
C192 C176 1.368 . S
C192 C188 1.368 . S
C192 C191 1.523 . S
H193 C168 0.950 . S
H194 C170 0.950 . S
H195 C171 0.949 . S
H196 C173 0.950 . S
H197 C175 0.950 . S
C198 C199 1.349 . S
C198 C200 1.327 . S
C198 H223 0.950 . S
C199 C198 1.349 . S
C199 C215 1.349 . S
C200 C198 1.327 . S
C200 C219 1.429 . S
C200 H224 0.950 . S
C201 C218 1.574 . S
C201 C220 1.368 . S
C201 H225 0.949 . S
H202 C206 0.949 . S
C203 C204 1.349 . S
C203 C205 1.327 . S
C203 H226 0.950 . S
C204 C203 1.349 . S
C204 C216 1.349 . S
C205 C203 1.327 . S
C205 C221 1.429 . S
C205 H227 0.950 . S
C206 H202 0.949 . S
C206 C214 1.574 . S
C206 C222 1.368 . S
H207 C215 0.950 . S
H208 C213 0.950 . S
H209 C214 0.949 . S
H210 C216 0.950 . S
H211 C217 0.950 . S
H212 C218 0.949 . S
C213 H208 0.950 . S
C213 C215 1.327 . S
C213 C219 1.429 . S
C214 C206 1.574 . S
C214 H209 0.949 . S
C214 C220 1.368 . S
C215 C199 1.349 . S
C215 H207 0.950 . S
C215 C213 1.327 . S
C216 C204 1.349 . S
C216 H210 0.950 . S
C216 C217 1.327 . S
C217 H211 0.950 . S
C217 C216 1.327 . S
C217 C221 1.429 . S
C218 C201 1.574 . S
C218 H212 0.949 . S
C218 C222 1.368 . S
C219 C200 1.429 . S
C219 C213 1.429 . S
C219 C220 1.523 . S
C220 C201 1.368 . S
C220 C214 1.368 . S
C220 C219 1.523 . S
C221 C205 1.429 . S
C221 C217 1.429 . S
C221 C222 1.523 . S
C222 C206 1.368 . S
C222 C218 1.368 . S
C222 C221 1.523 . S
H223 C198 0.950 . S
H224 C200 0.950 . S
H225 C201 0.949 . S
H226 C203 0.950 . S
H227 C205 0.950 . S
C228 C229 1.349 . S
C228 C230 1.327 . S
C228 H253 0.950 . S
C229 C228 1.349 . S
C229 C245 1.349 . S
C230 C228 1.327 . S
C230 C249 1.429 . S
C230 H254 0.950 . S
C231 C248 1.574 . S
C231 C250 1.368 . S
C231 H255 0.949 . S
H232 C236 0.949 . S
C233 C234 1.349 . S
C233 C235 1.327 . S
C233 H256 0.950 . S
C234 C233 1.349 . S
C234 C246 1.349 . S
C235 C233 1.327 . S
C235 C251 1.429 . S
C235 H257 0.950 . S
C236 H232 0.949 . S
C236 C244 1.574 . S
C236 C252 1.368 . S
H237 C245 0.950 . S
H238 C243 0.950 . S
H239 C244 0.949 . S
H240 C246 0.950 . S
H241 C247 0.950 . S
H242 C248 0.949 . S
C243 H238 0.950 . S
C243 C245 1.327 . S
C243 C249 1.429 . S
C244 C236 1.574 . S
C244 H239 0.949 . S
C244 C250 1.368 . S
C245 C229 1.349 . S
C245 H237 0.950 . S
C245 C243 1.327 . S
C246 C234 1.349 . S
C246 H240 0.950 . S
C246 C247 1.327 . S
C247 H241 0.950 . S
C247 C246 1.327 . S
C247 C251 1.429 . S
C248 C231 1.574 . S
C248 H242 0.949 . S
C248 C252 1.368 . S
C249 C230 1.429 . S
C249 C243 1.429 . S
C249 C250 1.523 . S
C250 C231 1.368 . S
C250 C244 1.368 . S
C250 C249 1.523 . S
C251 C235 1.429 . S
C251 C247 1.429 . S
C251 C252 1.523 . S
C252 C236 1.368 . S
C252 C248 1.368 . S
C252 C251 1.523 . S
H253 C228 0.950 . S
H254 C230 0.950 . S
H255 C231 0.949 . S
H256 C233 0.950 . S
H257 C235 0.950 . S
C258 C259 1.349 . S
C258 C260 1.327 . S
C258 H283 0.950 . S
C259 C258 1.349 . S
C259 C275 1.349 . S
C260 C258 1.327 . S
C260 C279 1.429 . S
C260 H284 0.950 . S
C261 C278 1.574 . S
C261 C280 1.368 . S
C261 H285 0.949 . S
H262 C266 0.949 . S
C263 C264 1.349 . S
C263 C265 1.327 . S
C263 H286 0.950 . S
C264 C263 1.349 . S
C264 C276 1.349 . S
C265 C263 1.327 . S
C265 C281 1.429 . S
C265 H287 0.950 . S
C266 H262 0.949 . S
C266 C274 1.574 . S
C266 C282 1.368 . S
H267 C275 0.950 . S
H268 C273 0.950 . S
H269 C274 0.949 . S
H270 C276 0.950 . S
H271 C277 0.950 . S
H272 C278 0.949 . S
C273 H268 0.950 . S
C273 C275 1.327 . S
C273 C279 1.429 . S
C274 C266 1.574 . S
C274 H269 0.949 . S
C274 C280 1.368 . S
C275 C259 1.349 . S
C275 H267 0.950 . S
C275 C273 1.327 . S
C276 C264 1.349 . S
C276 H270 0.950 . S
C276 C277 1.327 . S
C277 H271 0.950 . S
C277 C276 1.327 . S
C277 C281 1.429 . S
C278 C261 1.574 . S
C278 H272 0.949 . S
C278 C282 1.368 . S
C279 C260 1.429 . S
C279 C273 1.429 . S
C279 C280 1.523 . S
C280 C261 1.368 . S
C280 C274 1.368 . S
C280 C279 1.523 . S
C281 C265 1.429 . S
C281 C277 1.429 . S
C281 C282 1.523 . S
C282 C266 1.368 . S
C282 C278 1.368 . S
C282 C281 1.523 . S
H283 C258 0.950 . S
H284 C260 0.950 . S
H285 C261 0.949 . S
H286 C263 0.950 . S
H287 C265 0.950 . S
C288 C289 1.349 . S
C288 C290 1.327 . S
C288 H313 0.950 . S
C289 C288 1.349 . S
C289 C305 1.349 . S
C290 C288 1.327 . S
C290 C309 1.429 . S
C290 H314 0.950 . S
C291 C308 1.574 . S
C291 C310 1.368 . S
C291 H315 0.949 . S
H292 C296 0.949 . S
C293 C294 1.349 . S
C293 C295 1.327 . S
C293 H316 0.950 . S
C294 C293 1.349 . S
C294 C306 1.349 . S
C295 C293 1.327 . S
C295 C311 1.429 . S
C295 H317 0.950 . S
C296 H292 0.949 . S
C296 C304 1.574 . S
C296 C312 1.368 . S
H297 C305 0.950 . S
H298 C303 0.950 . S
H299 C304 0.949 . S
H300 C306 0.950 . S
H301 C307 0.950 . S
H302 C308 0.949 . S
C303 H298 0.950 . S
C303 C305 1.327 . S
C303 C309 1.429 . S
C304 C296 1.574 . S
C304 H299 0.949 . S
C304 C310 1.368 . S
C305 C289 1.349 . S
C305 H297 0.950 . S
C305 C303 1.327 . S
C306 C294 1.349 . S
C306 H300 0.950 . S
C306 C307 1.327 . S
C307 H301 0.950 . S
C307 C306 1.327 . S
C307 C311 1.429 . S
C308 C291 1.574 . S
C308 H302 0.949 . S
C308 C312 1.368 . S
C309 C290 1.429 . S
C309 C303 1.429 . S
C309 C310 1.523 . S
C310 C291 1.368 . S
C310 C304 1.368 . S
C310 C309 1.523 . S
C311 C295 1.429 . S
C311 C307 1.429 . S
C311 C312 1.523 . S
C312 C296 1.368 . S
C312 C308 1.368 . S
C312 C311 1.523 . S
H313 C288 0.950 . S
H314 C290 0.950 . S
H315 C291 0.949 . S
H316 C293 0.950 . S
H317 C295 0.950 . S
C318 C319 1.349 . S
C318 C320 1.327 . S
C318 H343 0.950 . S
C319 C318 1.349 . S
C319 C335 1.349 . S
C320 C318 1.327 . S
C320 C339 1.429 . S
C320 H344 0.950 . S
C321 C338 1.574 . S
C321 C340 1.368 . S
C321 H345 0.949 . S
H322 C326 0.949 . S
C323 C324 1.349 . S
C323 C325 1.327 . S
C323 H346 0.950 . S
C324 C323 1.349 . S
C324 C336 1.349 . S
C325 C323 1.327 . S
C325 C341 1.429 . S
C325 H347 0.950 . S
C326 H322 0.949 . S
C326 C334 1.574 . S
C326 C342 1.368 . S
H327 C335 0.950 . S
H328 C333 0.950 . S
H329 C334 0.949 . S
H330 C336 0.950 . S
H331 C337 0.950 . S
H332 C338 0.949 . S
C333 H328 0.950 . S
C333 C335 1.327 . S
C333 C339 1.429 . S
C334 C326 1.574 . S
C334 H329 0.949 . S
C334 C340 1.368 . S
C335 C319 1.349 . S
C335 H327 0.950 . S
C335 C333 1.327 . S
C336 C324 1.349 . S
C336 H330 0.950 . S
C336 C337 1.327 . S
C337 H331 0.950 . S
C337 C336 1.327 . S
C337 C341 1.429 . S
C338 C321 1.574 . S
C338 H332 0.949 . S
C338 C342 1.368 . S
C339 C320 1.429 . S
C339 C333 1.429 . S
C339 C340 1.523 . S
C340 C321 1.368 . S
C340 C334 1.368 . S
C340 C339 1.523 . S
C341 C325 1.429 . S
C341 C337 1.429 . S
C341 C342 1.523 . S
C342 C326 1.368 . S
C342 C338 1.368 . S
C342 C341 1.523 . S
H343 C318 0.950 . S
H344 C320 0.950 . S
H345 C321 0.949 . S
H346 C323 0.950 . S
H347 C325 0.950 . S
C348 C349 1.349 . S
C348 C350 1.327 . S
C348 H373 0.950 . S
C349 C348 1.349 . S
C349 C365 1.349 . S
C350 C348 1.327 . S
C350 C369 1.429 . S
C350 H374 0.950 . S
C351 C368 1.574 . S
C351 C370 1.368 . S
C351 H375 0.949 . S
H352 C356 0.949 . S
C353 C354 1.349 1_655 S
C353 C355 1.327 . S
C353 H376 0.959 . S
C354 C353 1.349 1_455 S
C354 C366 1.349 . S
C355 C353 1.327 . S
C355 C371 1.429 . S
C355 H377 0.950 . S
C356 H352 0.949 . S
C356 C364 1.574 . S
C356 C372 1.368 . S
H357 C365 0.950 . S
H358 C363 0.950 . S
H359 C364 0.949 . S
H360 C366 0.950 . S
H361 C367 0.950 . S
H362 C368 0.949 . S
C363 H358 0.950 . S
C363 C365 1.327 . S
C363 C369 1.429 . S
C364 C356 1.574 . S
C364 H359 0.949 . S
C364 C370 1.368 . S
C365 C349 1.349 . S
C365 H357 0.950 . S
C365 C363 1.327 . S
C366 C354 1.349 . S
C366 H360 0.950 . S
C366 C367 1.327 1_455 S
C367 H361 0.950 . S
C367 C366 1.327 1_655 S
C367 C371 1.429 . S
C368 C351 1.574 . S
C368 H362 0.949 . S
C368 C372 1.368 . S
C369 C350 1.429 . S
C369 C363 1.429 . S
C369 C370 1.523 . S
C370 C351 1.368 . S
C370 C364 1.368 . S
C370 C369 1.523 . S
C371 C355 1.429 . S
C371 C367 1.429 . S
C371 C372 1.523 . S
C372 C356 1.368 . S
C372 C368 1.368 . S
C372 C371 1.523 . S
H373 C348 0.950 . S
H374 C350 0.950 . S
H375 C351 0.949 . S
H376 C353 0.959 . S
H377 C355 0.950 . S
C378 C379 1.349 . S
C378 C380 1.327 . S
C378 H403 0.950 . S
C379 C378 1.349 . S
C379 C395 1.349 . S
C380 C378 1.327 . S
C380 C399 1.429 . S
C380 H404 0.950 . S
C381 C398 1.574 . S
C381 C400 1.368 . S
C381 H405 0.949 . S
H382 C386 0.949 . S
C383 C384 1.349 . S
C383 C385 1.327 . S
C383 H406 0.950 . S
C384 C383 1.349 . S
C384 C396 1.349 . S
C385 C383 1.327 . S
C385 C401 1.429 . S
C385 H407 0.950 . S
C386 H382 0.949 . S
C386 C394 1.574 . S
C386 C402 1.368 . S
H387 C395 0.950 . S
H388 C393 0.950 . S
H389 C394 0.949 . S
H390 C396 0.950 . S
H391 C397 0.950 . S
H392 C398 0.949 . S
C393 H388 0.950 . S
C393 C395 1.327 . S
C393 C399 1.429 . S
C394 C386 1.574 . S
C394 H389 0.949 . S
C394 C400 1.368 . S
C395 C379 1.349 . S
C395 H387 0.950 . S
C395 C393 1.327 . S
C396 C384 1.349 . S
C396 H390 0.950 . S
C396 C397 1.327 . S
C397 H391 0.950 . S
C397 C396 1.327 . S
C397 C401 1.429 . S
C398 C381 1.574 . S
C398 H392 0.949 . S
C398 C402 1.368 . S
C399 C380 1.429 . S
C399 C393 1.429 . S
C399 C400 1.523 . S
C400 C381 1.368 . S
C400 C394 1.368 . S
C400 C399 1.523 . S
C401 C385 1.429 . S
C401 C397 1.429 . S
C401 C402 1.523 . S
C402 C386 1.368 . S
C402 C398 1.368 . S
C402 C401 1.523 . S
H403 C378 0.950 . S
H404 C380 0.950 . S
H405 C381 0.949 . S
H406 C383 0.950 . S
H407 C385 0.950 . S
C408 C409 1.349 . S
C408 C410 1.327 . S
C408 H433 0.950 . S
C409 C408 1.349 . S
C409 C425 1.349 . S
C410 C408 1.327 . S
C410 C429 1.429 . S
C410 H434 0.950 . S
C411 C428 1.574 . S
C411 C430 1.368 . S
C411 H435 0.949 . S
H412 C416 0.949 . S
C413 C414 1.349 . S
C413 C415 1.327 . S
C413 H436 0.950 . S
C414 C413 1.349 . S
C414 C426 1.349 . S
C415 C413 1.327 . S
C415 C431 1.429 . S
C415 H437 0.950 . S
C416 H412 0.949 . S
C416 C424 1.574 . S
C416 C432 1.368 . S
H417 C425 0.950 . S
H418 C423 0.950 . S
H419 C424 0.949 . S
H420 C426 0.950 . S
H421 C427 0.950 . S
H422 C428 0.949 . S
C423 H418 0.950 . S
C423 C425 1.327 . S
C423 C429 1.429 . S
C424 C416 1.574 . S
C424 H419 0.949 . S
C424 C430 1.368 . S
C425 C409 1.349 . S
C425 H417 0.950 . S
C425 C423 1.327 . S
C426 C414 1.349 . S
C426 H420 0.950 . S
C426 C427 1.327 . S
C427 H421 0.950 . S
C427 C426 1.327 . S
C427 C431 1.429 . S
C428 C411 1.574 . S
C428 H422 0.949 . S
C428 C432 1.368 . S
C429 C410 1.429 . S
C429 C423 1.429 . S
C429 C430 1.523 . S
C430 C411 1.368 . S
C430 C424 1.368 . S
C430 C429 1.523 . S
C431 C415 1.429 . S
C431 C427 1.429 . S
C431 C432 1.523 . S
C432 C416 1.368 . S
C432 C428 1.368 . S
C432 C431 1.523 . S
H433 C408 0.950 . S
H434 C410 0.950 . S
H435 C411 0.949 . S
H436 C413 0.950 . S
H437 C415 0.950 . S
C438 C439 1.349 . S
C438 C440 1.327 . S
C438 H463 0.950 . S
C439 C438 1.349 . S
C439 C455 1.349 . S
C440 C438 1.327 . S
C440 C459 1.429 . S
C440 H464 0.950 . S
C441 C458 1.574 . S
C441 C460 1.368 . S
C441 H465 0.949 . S
H442 C446 0.949 . S
C443 C444 1.349 . S
C443 C445 1.327 . S
C443 H466 0.950 . S
C444 C443 1.349 . S
C444 C456 1.349 . S
C445 C443 1.327 . S
C445 C461 1.429 . S
C445 H467 0.950 . S
C446 H442 0.949 . S
C446 C454 1.574 . S
C446 C462 1.368 . S
H447 C455 0.950 . S
H448 C453 0.950 . S
H449 C454 0.949 . S
H450 C456 0.950 . S
H451 C457 0.950 . S
H452 C458 0.949 . S
C453 H448 0.950 . S
C453 C455 1.327 . S
C453 C459 1.429 . S
C454 C446 1.574 . S
C454 H449 0.949 . S
C454 C460 1.368 . S
C455 C439 1.349 . S
C455 H447 0.950 . S
C455 C453 1.327 . S
C456 C444 1.349 . S
C456 H450 0.950 . S
C456 C457 1.327 . S
C457 H451 0.950 . S
C457 C456 1.327 . S
C457 C461 1.429 . S
C458 C441 1.574 . S
C458 H452 0.949 . S
C458 C462 1.368 . S
C459 C440 1.429 . S
C459 C453 1.429 . S
C459 C460 1.523 . S
C460 C441 1.368 . S
C460 C454 1.368 . S
C460 C459 1.523 . S
C461 C445 1.429 . S
C461 C457 1.429 . S
C461 C462 1.523 . S
C462 C446 1.368 . S
C462 C458 1.368 . S
C462 C461 1.523 . S
H463 C438 0.950 . S
H464 C440 0.950 . S
H465 C441 0.949 . S
H466 C443 0.950 . S
H467 C445 0.950 . S
C468 C469 1.349 . S
C468 C470 1.327 . S
C468 H493 0.950 . S
C469 C468 1.349 . S
C469 C485 1.349 . S
C470 C468 1.327 . S
C470 C489 1.429 . S
C470 H494 0.950 . S
C471 C488 1.574 . S
C471 C490 1.368 . S
C471 H495 0.949 . S
H472 C476 0.949 . S
C473 C474 1.349 . S
C473 C475 1.327 . S
C473 H496 0.950 . S
C474 C473 1.349 . S
C474 C486 1.349 . S
C475 C473 1.327 . S
C475 C491 1.429 . S
C475 H497 0.950 . S
C476 H472 0.949 . S
C476 C484 1.574 . S
C476 C492 1.368 . S
H477 C485 0.950 . S
H478 C483 0.950 . S
H479 C484 0.949 . S
H480 C486 0.950 . S
H481 C487 0.950 . S
H482 C488 0.949 . S
C483 H478 0.950 . S
C483 C485 1.327 . S
C483 C489 1.429 . S
C484 C476 1.574 . S
C484 H479 0.949 . S
C484 C490 1.368 . S
C485 C469 1.349 . S
C485 H477 0.950 . S
C485 C483 1.327 . S
C486 C474 1.349 . S
C486 H480 0.950 . S
C486 C487 1.327 . S
C487 H481 0.950 . S
C487 C486 1.327 . S
C487 C491 1.429 . S
C488 C471 1.574 . S
C488 H482 0.949 . S
C488 C492 1.368 . S
C489 C470 1.429 . S
C489 C483 1.429 . S
C489 C490 1.523 . S
C490 C471 1.368 . S
C490 C484 1.368 . S
C490 C489 1.523 . S
C491 C475 1.429 . S
C491 C487 1.429 . S
C491 C492 1.523 . S
C492 C476 1.368 . S
C492 C488 1.368 . S
C492 C491 1.523 . S
H493 C468 0.950 . S
H494 C470 0.950 . S
H495 C471 0.949 . S
H496 C473 0.950 . S
H497 C475 0.950 . S
C498 C499 1.349 1_655 S
C498 C500 1.327 . S
C498 H523 0.950 . S
C499 C498 1.349 1_455 S
C499 C515 1.349 . S
C500 C498 1.327 . S
C500 C519 1.429 1_655 S
C500 H524 0.950 . S
C501 C518 1.574 . S
C501 C520 1.368 . S
C501 H525 0.949 . S
H502 C506 0.975 . S
C503 C504 1.349 . S
C503 C505 1.327 . S
C503 H526 0.950 . S
C504 C503 1.349 . S
C504 C516 1.349 . S
C505 C503 1.327 . S
C505 C521 1.429 . S
C505 H527 0.950 . S
C506 H502 0.975 . S
C506 C514 1.538 1_556 S
C506 C522 1.377 . S
H507 C515 0.950 . S
H508 C513 0.950 . S
H509 C514 0.949 1_655 S
H510 C516 0.950 . S
H511 C517 0.950 . S
H512 C518 0.949 . S
C513 H508 0.950 . S
C513 C515 1.327 . S
C513 C519 1.429 . S
C514 C506 1.538 1_554 S
C514 H509 0.949 1_455 S
C514 C520 1.368 . S
C515 C499 1.349 . S
C515 H507 0.950 . S
C515 C513 1.327 . S
C516 C504 1.349 . S
C516 H510 0.950 . S
C516 C517 1.327 . S
C517 H511 0.950 . S
C517 C516 1.327 . S
C517 C521 1.429 . S
C518 C501 1.574 . S
C518 H512 0.949 . S
C518 C522 1.368 1_554 S
C519 C500 1.429 1_455 S
C519 C513 1.429 . S
C519 C520 1.523 . S
C520 C501 1.368 . S
C520 C514 1.368 . S
C520 C519 1.523 . S
C521 C505 1.429 . S
C521 C517 1.429 . S
C521 C522 1.523 . S
C522 C506 1.377 . S
C522 C518 1.368 1_556 S
C522 C521 1.523 . S
H523 C498 0.950 . S
H524 C500 0.950 . S
H525 C501 0.949 . S
H526 C503 0.950 . S
H527 C505 0.950 . S
C528 C529 1.349 . S
C528 C530 1.327 . S
C528 H553 0.950 1_545 S
C529 C528 1.349 . S
C529 C545 1.349 . S
C530 C528 1.327 . S
C530 C549 1.429 . S
C530 H554 0.950 1_545 S
C531 C548 1.574 . S
C531 C550 1.368 . S
C531 H555 0.949 . S
H532 C536 0.949 1_565 S
C533 C534 1.349 . S
C533 C535 1.327 . S
C533 H556 0.950 . S
C534 C533 1.349 . S
C534 C546 1.349 . S
C535 C533 1.327 . S
C535 C551 1.429 . S
C535 H557 0.950 . S
C536 H532 0.949 1_545 S
C536 C544 1.574 . S
C536 C552 1.368 . S
H537 C545 0.950 . S
H538 C543 0.950 . S
H539 C544 0.949 1_565 S
H540 C546 0.950 1_565 S
H541 C547 0.950 1_565 S
H542 C548 0.949 . S
C543 H538 0.950 . S
C543 C545 1.327 . S
C543 C549 1.429 . S
C544 C536 1.574 . S
C544 H539 0.949 1_545 S
C544 C550 1.368 . S
C545 C529 1.349 . S
C545 H537 0.950 . S
C545 C543 1.327 . S
C546 C534 1.349 . S
C546 H540 0.950 1_545 S
C546 C547 1.327 . S
C547 H541 0.950 1_545 S
C547 C546 1.327 . S
C547 C551 1.429 . S
C548 C531 1.574 . S
C548 H542 0.949 . S
C548 C552 1.368 . S
C549 C530 1.429 . S
C549 C543 1.429 . S
C549 C550 1.523 . S
C550 C531 1.368 . S
C550 C544 1.368 . S
C550 C549 1.523 . S
C551 C535 1.429 . S
C551 C547 1.429 . S
C551 C552 1.523 . S
C552 C536 1.368 . S
C552 C548 1.368 . S
C552 C551 1.523 . S
H553 C528 0.950 1_565 S
H554 C530 0.950 1_565 S
H555 C531 0.949 . S
H556 C533 0.950 . S
H557 C535 0.950 . S
C558 C559 1.349 . S
C558 C560 1.327 . S
C558 H583 0.950 . S
C559 C558 1.349 . S
C559 C575 1.349 . S
C560 C558 1.327 . S
C560 C579 1.429 . S
C560 H584 0.950 . S
C561 C578 1.574 . S
C561 C580 1.368 . S
C561 H585 0.949 . S
H562 C566 0.949 . S
C563 C564 1.349 . S
C563 C565 1.327 . S
C563 H586 0.950 . S
C564 C563 1.349 . S
C564 C576 1.349 . S
C565 C563 1.327 . S
C565 C581 1.429 . S
C565 H587 0.950 . S
C566 H562 0.949 . S
C566 C574 1.574 . S
C566 C582 1.368 . S
H567 C575 0.950 . S
H568 C573 0.950 . S
H569 C574 0.949 . S
H570 C576 0.950 . S
H571 C577 0.950 . S
H572 C578 0.949 . S
C573 H568 0.950 . S
C573 C575 1.327 . S
C573 C579 1.429 . S
C574 C566 1.574 . S
C574 H569 0.949 . S
C574 C580 1.368 . S
C575 C559 1.349 . S
C575 H567 0.950 . S
C575 C573 1.327 . S
C576 C564 1.349 . S
C576 H570 0.950 . S
C576 C577 1.327 . S
C577 H571 0.950 . S
C577 C576 1.327 . S
C577 C581 1.429 . S
C578 C561 1.574 . S
C578 H572 0.949 . S
C578 C582 1.368 . S
C579 C560 1.429 . S
C579 C573 1.429 . S
C579 C580 1.523 . S
C580 C561 1.368 . S
C580 C574 1.368 . S
C580 C579 1.523 . S
C581 C565 1.429 . S
C581 C577 1.429 . S
C581 C582 1.523 . S
C582 C566 1.368 . S
C582 C578 1.368 . S
C582 C581 1.523 . S
H583 C558 0.950 . S
H584 C560 0.950 . S
H585 C561 0.949 . S
H586 C563 0.950 . S
H587 C565 0.950 . S
C588 C589 1.349 1_565 S
C588 C590 1.330 . S
C588 H613 0.950 . S
C589 C588 1.349 1_545 S
C589 C605 1.349 . S
C590 C588 1.330 . S
C590 C609 1.404 1_565 S
C590 H614 0.972 . S
C591 C608 1.574 . S
C591 C610 1.368 . S
C591 H615 0.949 . S
H592 C596 0.949 1_565 S
C593 C594 1.349 . S
C593 C595 1.327 . S
C593 H616 0.950 . S
C594 C593 1.349 . S
C594 C606 1.349 . S
C595 C593 1.327 . S
C595 C611 1.429 . S
C595 H617 0.950 . S
C596 H592 0.949 1_545 S
C596 C604 1.574 . S
C596 C612 1.368 . S
H597 C605 0.950 . S
H598 C603 0.950 . S
H599 C604 0.949 1_565 S
H600 C606 0.950 1_565 S
H601 C607 0.950 1_565 S
H602 C608 0.949 . S
C603 H598 0.950 . S
C603 C605 1.327 . S
C603 C609 1.429 . S
C604 C596 1.574 . S
C604 H599 0.949 1_545 S
C604 C610 1.368 . S
C605 C589 1.349 . S
C605 H597 0.950 . S
C605 C603 1.327 . S
C606 C594 1.349 . S
C606 H600 0.950 1_545 S
C606 C607 1.327 . S
C607 H601 0.950 1_545 S
C607 C606 1.327 . S
C607 C611 1.429 . S
C608 C591 1.574 . S
C608 H602 0.949 . S
C608 C612 1.368 . S
C609 C590 1.404 1_545 S
C609 C603 1.429 . S
C609 C610 1.523 . S
C610 C591 1.368 . S
C610 C604 1.368 . S
C610 C609 1.523 . S
C611 C595 1.429 . S
C611 C607 1.429 . S
C611 C612 1.523 . S
C612 C596 1.368 . S
C612 C608 1.368 . S
C612 C611 1.523 . S
H613 C588 0.950 . S
H614 C590 0.972 . S
H615 C591 0.949 . S
H616 C593 0.950 . S
H617 C595 0.950 . S
C618 C619 1.349 . S
C618 C620 1.327 . S
C618 H643 0.950 . S
C619 C618 1.349 . S
C619 C635 1.349 . S
C620 C618 1.327 . S
C620 C639 1.429 . S
C620 H644 0.950 . S
C621 C638 1.574 . S
C621 C640 1.368 . S
C621 H645 0.949 . S
H622 C626 0.945 1_554 S
C623 C624 1.349 . S
C623 C625 1.327 . S
C623 H646 0.950 . S
C624 C623 1.349 . S
C624 C636 1.349 . S
C625 C623 1.327 . S
C625 C641 1.429 . S
C625 H647 0.950 . S
C626 H622 0.945 1_556 S
C626 C634 1.574 . S
C626 C642 1.368 1_556 S
H627 C635 0.950 . S
H628 C633 0.950 . S
H629 C634 0.949 . S
H630 C636 0.950 . S
H631 C637 0.950 . S
H632 C638 0.949 1_554 S
C633 H628 0.950 . S
C633 C635 1.327 . S
C633 C639 1.429 . S
C634 C626 1.574 . S
C634 H629 0.949 . S
C634 C640 1.368 . S
C635 C619 1.349 . S
C635 H627 0.950 . S
C635 C633 1.327 . S
C636 C624 1.349 . S
C636 H630 0.950 . S
C636 C637 1.327 . S
C637 H631 0.950 . S
C637 C636 1.327 . S
C637 C641 1.429 . S
C638 C621 1.574 . S
C638 H632 0.949 1_556 S
C638 C642 1.368 1_556 S
C639 C620 1.429 . S
C639 C633 1.429 . S
C639 C640 1.523 . S
C640 C621 1.368 . S
C640 C634 1.368 . S
C640 C639 1.523 . S
C641 C625 1.429 . S
C641 C637 1.429 . S
C641 C642 1.523 . S
C642 C626 1.368 1_554 S
C642 C638 1.368 1_554 S
C642 C641 1.523 . S
H643 C618 0.950 . S
H644 C620 0.950 . S
H645 C621 0.949 . S
H646 C623 0.950 . S
H647 C625 0.950 . S
C648 C649 1.349 . S
C648 C650 1.327 . S
C648 H673 0.950 . S
C649 C648 1.349 . S
C649 C665 1.349 . S
C650 C648 1.327 . S
C650 C669 1.429 . S
C650 H674 0.950 . S
C651 C668 1.574 . S
C651 C670 1.368 . S
C651 H675 0.949 . S
H652 C656 0.949 . S
C653 C654 1.349 . S
C653 C655 1.327 . S
C653 H676 0.950 . S
C654 C653 1.349 . S
C654 C666 1.349 . S
C655 C653 1.327 . S
C655 C671 1.429 . S
C655 H677 0.950 . S
C656 H652 0.949 . S
C656 C664 1.574 . S
C656 C672 1.368 . S
H657 C665 0.950 . S
H658 C663 0.950 . S
H659 C664 0.949 . S
H660 C666 0.950 . S
H661 C667 0.950 . S
H662 C668 0.949 . S
C663 H658 0.950 . S
C663 C665 1.327 . S
C663 C669 1.429 . S
C664 C656 1.574 . S
C664 H659 0.949 . S
C664 C670 1.368 . S
C665 C649 1.349 . S
C665 H657 0.950 . S
C665 C663 1.327 . S
C666 C654 1.349 . S
C666 H660 0.950 . S
C666 C667 1.327 . S
C667 H661 0.950 . S
C667 C666 1.327 . S
C667 C671 1.429 . S
C668 C651 1.574 . S
C668 H662 0.949 . S
C668 C672 1.368 . S
C669 C650 1.429 . S
C669 C663 1.429 . S
C669 C670 1.523 . S
C670 C651 1.368 . S
C670 C664 1.368 . S
C670 C669 1.523 . S
C671 C655 1.429 . S
C671 C667 1.429 . S
C671 C672 1.523 . S
C672 C656 1.368 . S
C672 C668 1.368 . S
C672 C671 1.523 . S
H673 C648 0.950 . S
H674 C650 0.950 . S
H675 C651 0.949 . S
H676 C653 0.950 . S
H677 C655 0.950 . S
C139 C2 1.375 . S
C144 C129 1.355 . S
C169 C22 1.232 . S
C174 C107 1.323 . S
C199 C44 1.263 . S
C204 C120 1.343 1_565 S
C229 C4 1.416 . S
C234 C133 1.491 . S
C264 C103 1.547 . S
C259 C24 1.601 . S
C294 C116 1.489 . S
C289 C42 1.532 . S
C319 C32 1.197 . S
C324 C81 1.218 . S
C349 C49 1.079 . S
C354 C94 1.097 . S
C379 C9 1.259 . S
C384 C64 1.190 . S
C414 C77 1.161 . S
C409 C29 1.222 . S
C444 C90 1.243 . S
C439 C52 1.303 . S
C469 C12 1.161 . S
C474 C68 1.193 . S
C504 C95 1.513 . S
C499 C18 1.517 . S
C529 C38 1.522 . S
C534 C69 1.556 . S
C559 C58 1.511 . S
C564 C82 1.517 . S
C594 C121 1.595 . S
C589 C39 1.574 . S
C624 C134 1.538 . S
C619 C59 1.517 . S
C649 C19 1.536 . S
C654 C108 1.577 . S
