# Generated by pormake.
# Topology pyr, (3,6)-cn, num edge types: 1
# Building blocks:
#     Node 0, Type 0, BuildingBlock: KAKCAD_clean_linker_0, # of connection points: 3
#     Node 1, Type 0, BuildingBlock: KAKCAD_clean_linker_0, # of connection points: 3
#     Node 2, Type 0, BuildingBlock: KAKCAD_clean_linker_0, # of connection points: 3
#     Node 3, Type 0, BuildingBlock: KAKCAD_clean_linker_0, # of connection points: 3
#     Node 4, Type 0, BuildingBlock: KAKCAD_clean_linker_0, # of connection points: 3
#     Node 5, Type 0, BuildingBlock: KAKCAD_clean_linker_0, # of connection points: 3
#     Node 6, Type 0, BuildingBlock: KAKCAD_clean_linker_0, # of connection points: 3
#     Node 7, Type 0, BuildingBlock: KAKCAD_clean_linker_0, # of connection points: 3
#     Node 8, Type 1, BuildingBlock: FUNLAD_clean_sbu_0, # of connection points: 6
#     Node 9, Type 1, BuildingBlock: FUNLAD_clean_sbu_0, # of connection points: 6
#     Node 10, Type 1, BuildingBlock: FUNLAD_clean_sbu_0, # of connection points: 6
#     Node 11, Type 1, BuildingBlock: FUNLAD_clean_sbu_0, # of connection points: 6
#     Edge 12, Type (0, 1), BuildingBlock: MIFKUJ_clean_linker_0, # of connection points: 2
#     Edge 13, Type (0, 1), BuildingBlock: MIFKUJ_clean_linker_0, # of connection points: 2
#     Edge 14, Type (0, 1), BuildingBlock: MIFKUJ_clean_linker_0, # of connection points: 2
#     Edge 15, Type (0, 1), BuildingBlock: MIFKUJ_clean_linker_0, # of connection points: 2
#     Edge 16, Type (0, 1), BuildingBlock: MIFKUJ_clean_linker_0, # of connection points: 2
#     Edge 17, Type (0, 1), BuildingBlock: MIFKUJ_clean_linker_0, # of connection points: 2
#     Edge 18, Type (0, 1), BuildingBlock: MIFKUJ_clean_linker_0, # of connection points: 2
#     Edge 19, Type (0, 1), BuildingBlock: MIFKUJ_clean_linker_0, # of connection points: 2
#     Edge 20, Type (0, 1), BuildingBlock: MIFKUJ_clean_linker_0, # of connection points: 2
#     Edge 21, Type (0, 1), BuildingBlock: MIFKUJ_clean_linker_0, # of connection points: 2
#     Edge 22, Type (0, 1), BuildingBlock: MIFKUJ_clean_linker_0, # of connection points: 2
#     Edge 23, Type (0, 1), BuildingBlock: MIFKUJ_clean_linker_0, # of connection points: 2
#     Edge 24, Type (0, 1), BuildingBlock: MIFKUJ_clean_linker_0, # of connection points: 2
#     Edge 25, Type (0, 1), BuildingBlock: MIFKUJ_clean_linker_0, # of connection points: 2
#     Edge 26, Type (0, 1), BuildingBlock: MIFKUJ_clean_linker_0, # of connection points: 2
#     Edge 27, Type (0, 1), BuildingBlock: MIFKUJ_clean_linker_0, # of connection points: 2
#     Edge 28, Type (0, 1), BuildingBlock: MIFKUJ_clean_linker_0, # of connection points: 2
#     Edge 29, Type (0, 1), BuildingBlock: MIFKUJ_clean_linker_0, # of connection points: 2
#     Edge 30, Type (0, 1), BuildingBlock: MIFKUJ_clean_linker_0, # of connection points: 2
#     Edge 31, Type (0, 1), BuildingBlock: MIFKUJ_clean_linker_0, # of connection points: 2
#     Edge 32, Type (0, 1), BuildingBlock: MIFKUJ_clean_linker_0, # of connection points: 2
#     Edge 33, Type (0, 1), BuildingBlock: MIFKUJ_clean_linker_0, # of connection points: 2
#     Edge 34, Type (0, 1), BuildingBlock: MIFKUJ_clean_linker_0, # of connection points: 2
#     Edge 35, Type (0, 1), BuildingBlock: MIFKUJ_clean_linker_0, # of connection points: 2
# Relax obj value: 0.038
# Max RMSD: 0.054
# Mean RMSD: 0.025
data_MOF--net-pry--node1-FUNLAD_clean_sbu_0--node2-KAKCAD_clean_linker_0--edge1-MIFKUJ_clean_linker_0
_symmetry_space_group_name_H-M    P1
_symmetry_Int_Tables_number       1
_symmetry_cell_setting            triclinic
loop_
_symmetry_equiv_pos_as_xyz
'x, y, z'
_cell_length_a     55.185366
_cell_length_b     57.501986
_cell_length_c     57.936807
_cell_angle_alpha  90.462138
_cell_angle_beta   89.930947
_cell_angle_gamma 86.716792
loop_
_atom_site_label
_atom_site_type_symbol
_atom_site_fract_x
_atom_site_fract_y
_atom_site_fract_z
_atom_type_partial_charge
C0 C 0.10333 0.13831 0.24266 0.0
C1 C 0.11864 0.13173 0.2612 0.0
C2 C 0.11264 0.14861 0.22287 0.0
C3 C 0.13756 0.15228 0.22095 0.0
C4 C 0.15284 0.14569 0.2395 0.0
C5 C 0.14349 0.13571 0.2594 0.0
C6 C 0.14772 0.16251 0.19957 0.0
C7 C 0.13612 0.18227 0.18913 0.0
C8 C 0.14603 0.19219 0.16929 0.0
C9 C 0.16723 0.18156 0.15943 0.0
C10 C 0.17887 0.16166 0.16929 0.0
C11 C 0.16921 0.15249 0.18955 0.0
C12 C 0.20099 0.1504 0.15819 0.0
C13 C 0.20112 0.14501 0.13446 0.0
C14 C 0.22217 0.14523 0.17107 0.0
C15 C 0.24315 0.13526 0.16036 0.0
C16 C 0.24323 0.12979 0.13665 0.0
C17 C 0.13475 0.21393 0.15896 0.0
C18 C 0.10978 0.21614 0.15401 0.0
C19 C 0.14919 0.23249 0.15338 0.0
C20 C 0.13898 0.2527 0.14305 0.0
C21 C 0.11412 0.25477 0.13766 0.0
C22 C 0.09962 0.23624 0.14327 0.0
C23 C 0.22192 0.13462 0.12387 0.0
H24 H 0.08408 0.13566 0.24352 0.0
H25 H 0.10038 0.15333 0.20887 0.0
H26 H 0.17209 0.14841 0.23869 0.0
H27 H 0.15584 0.13073 0.27325 0.0
H28 H 0.11986 0.19042 0.1969 0.0
H29 H 0.17805 0.13706 0.19712 0.0
H30 H 0.17478 0.18887 0.14398 0.0
H31 H 0.18504 0.14867 0.12412 0.0
H32 H 0.22264 0.14928 0.18935 0.0
H33 H 0.25926 0.13162 0.17068 0.0
H34 H 0.0982 0.20212 0.158 0.0
H35 H 0.16845 0.2314 0.1571 0.0
H36 H 0.22146 0.13072 0.10556 0.0
H37 H 0.08038 0.23736 0.13949 0.0
H38 H 0.15068 0.26656 0.13884 0.0
C39 C 0.36418 0.88738 0.75809 0.0
C40 C 0.38897 0.89156 0.75993 0.0
C41 C 0.355 0.8774 0.738 0.0
C42 C 0.37046 0.87097 0.71941 0.0
C43 C 0.39534 0.8747 0.72144 0.0
C44 C 0.40445 0.88506 0.74138 0.0
C45 C 0.36056 0.86124 0.69765 0.0
C46 C 0.33994 0.87219 0.68725 0.0
C47 C 0.33116 0.86401 0.66613 0.0
C48 C 0.34295 0.84441 0.65556 0.0
C49 C 0.36294 0.83235 0.6661 0.0
C50 C 0.3718 0.84123 0.68708 0.0
C51 C 0.37396 0.81031 0.65537 0.0
C52 C 0.35946 0.79528 0.64283 0.0
C53 C 0.3989 0.80396 0.65748 0.0
C54 C 0.40892 0.78328 0.64744 0.0
C55 C 0.39442 0.76844 0.63461 0.0
C56 C 0.30942 0.87569 0.6551 0.0
C57 C 0.28771 0.87964 0.6676 0.0
C58 C 0.31001 0.88228 0.6318 0.0
C59 C 0.2893 0.89253 0.62119 0.0
C60 C 0.26743 0.896 0.63353 0.0
C61 C 0.26686 0.88948 0.65686 0.0
C62 C 0.36954 0.77494 0.6324 0.0
H63 H 0.35177 0.8923 0.77202 0.0
H64 H 0.33577 0.87465 0.737 0.0
H65 H 0.40768 0.8701 0.70736 0.0
H66 H 0.42366 0.88789 0.74234 0.0
H67 H 0.33114 0.88757 0.69522 0.0
H68 H 0.38701 0.83228 0.69565 0.0
H69 H 0.33622 0.83845 0.63912 0.0
H70 H 0.34011 0.79903 0.64112 0.0
H71 H 0.41085 0.81504 0.66672 0.0
H72 H 0.42806 0.77891 0.64997 0.0
H73 H 0.28671 0.87461 0.68554 0.0
H74 H 0.32654 0.87951 0.62179 0.0
H75 H 0.35766 0.76446 0.62238 0.0
H76 H 0.25028 0.89208 0.66682 0.0
H77 H 0.29024 0.89729 0.60317 0.0
C78 C 0.69333 0.46405 0.95443 0.0
C79 C 0.71061 0.44559 0.95832 0.0
C80 C 0.66928 0.45953 0.94931 0.0
C81 C 0.66207 0.43651 0.94839 0.0
C82 C 0.67927 0.41812 0.95275 0.0
C83 C 0.70333 0.4226 0.95755 0.0
C84 C 0.63702 0.43141 0.94175 0.0
C85 C 0.62674 0.44099 0.92155 0.0
C86 C 0.60433 0.4339 0.91341 0.0
C87 C 0.5919 0.41766 0.9262 0.0
C88 C 0.60203 0.40774 0.94631 0.0
C89 C 0.62447 0.41502 0.95415 0.0
C90 C 0.59075 0.38763 0.95709 0.0
C91 C 0.56535 0.38678 0.95851 0.0
C92 C 0.60536 0.36796 0.96364 0.0
C93 C 0.59486 0.34757 0.97028 0.0
C94 C 0.56952 0.34631 0.97041 0.0
C95 C 0.59525 0.44129 0.89032 0.0
C96 C 0.5974 0.46421 0.88258 0.0
C97 C 0.58538 0.42495 0.87534 0.0
C98 C 0.57794 0.43129 0.85319 0.0
C99 C 0.58039 0.45405 0.84534 0.0
C100 C 0.59011 0.47051 0.86025 0.0
C101 C 0.55484 0.36627 0.96499 0.0
H102 H 0.69856 0.48192 0.95482 0.0
H103 H 0.65634 0.474 0.94599 0.0
H104 H 0.67425 0.40019 0.95187 0.0
H105 H 0.71628 0.40809 0.96064 0.0
H106 H 0.63701 0.45271 0.91135 0.0
H107 H 0.63253 0.40748 0.96963 0.0
H108 H 0.57486 0.41178 0.91976 0.0
H109 H 0.5536 0.40175 0.9539 0.0
H110 H 0.62494 0.36779 0.96236 0.0
H111 H 0.60666 0.33236 0.97402 0.0
H112 H 0.60477 0.47724 0.89374 0.0
H113 H 0.58406 0.40699 0.88044 0.0
H114 H 0.53524 0.36582 0.96518 0.0
H115 H 0.59206 0.48823 0.85465 0.0
H116 H 0.57098 0.41811 0.84193 0.0
C117 C 0.90812 0.56728 0.34826 0.0
C118 C 0.93294 0.56473 0.34298 0.0
C119 C 0.90045 0.57081 0.37099 0.0
C120 C 0.91746 0.57197 0.38893 0.0
C121 C 0.94231 0.56841 0.38378 0.0
C122 C 0.94999 0.56465 0.36096 0.0
C123 C 0.90911 0.57971 0.41222 0.0
C124 C 0.88771 0.57156 0.42149 0.0
C125 C 0.87619 0.58282 0.44048 0.0
C126 C 0.88709 0.60172 0.45094 0.0
C127 C 0.90891 0.60959 0.44228 0.0
C128 C 0.91999 0.59829 0.42314 0.0
C129 C 0.91798 0.63191 0.45043 0.0
C130 C 0.90224 0.65195 0.45095 0.0
C131 C 0.9427 0.63392 0.45517 0.0
C132 C 0.95167 0.65574 0.45968 0.0
C133 C 0.93613 0.67602 0.45912 0.0
C134 C 0.85131 0.57697 0.4473 0.0
C135 C 0.83411 0.57232 0.43023 0.0
C136 C 0.84405 0.57746 0.47057 0.0
C137 C 0.81999 0.57387 0.47657 0.0
C138 C 0.80273 0.56971 0.4594 0.0
C139 C 0.81019 0.56861 0.43621 0.0
C140 C 0.91122 0.67377 0.45511 0.0
H141 H 0.89462 0.56716 0.33469 0.0
H142 H 0.8812 0.57383 0.37431 0.0
H143 H 0.95578 0.5692 0.39731 0.0
H144 H 0.96925 0.56272 0.35725 0.0
H145 H 0.87937 0.55713 0.4131 0.0
H146 H 0.93586 0.60541 0.41546 0.0
H147 H 0.87793 0.61122 0.46497 0.0
H148 H 0.88317 0.65093 0.44691 0.0
H149 H 0.95516 0.61865 0.45488 0.0
H150 H 0.97086 0.65674 0.46315 0.0
H151 H 0.83889 0.57223 0.41209 0.0
H152 H 0.85689 0.58087 0.48414 0.0
H153 H 0.89873 0.68893 0.45404 0.0
H154 H 0.79748 0.56505 0.42258 0.0
H155 H 0.81479 0.57496 0.49459 0.0
C156 C 0.88498 0.86443 0.75531 0.0
C157 C 0.88969 0.88831 0.75474 0.0
C158 C 0.87627 0.85427 0.77544 0.0
C159 C 0.87153 0.86775 0.79544 0.0
C160 C 0.8761 0.89153 0.79497 0.0
C161 C 0.88526 0.9016 0.77505 0.0
C162 C 0.86165 0.85724 0.81674 0.0
C163 C 0.87282 0.83683 0.8262 0.0
C164 C 0.86427 0.82761 0.84696 0.0
C165 C 0.84395 0.83886 0.85788 0.0
C166 C 0.83185 0.85882 0.84837 0.0
C167 C 0.84112 0.86793 0.82782 0.0
C168 C 0.8095 0.86989 0.85981 0.0
C169 C 0.7934 0.8563 0.872 0.0
C170 C 0.80393 0.89408 0.85869 0.0
C171 C 0.78295 0.90425 0.86923 0.0
C172 C 0.76701 0.89066 0.88166 0.0
C173 C 0.87637 0.80627 0.85749 0.0
C174 C 0.88324 0.78658 0.84391 0.0
C175 C 0.88032 0.80513 0.88145 0.0
C176 C 0.89035 0.78477 0.89164 0.0
C177 C 0.89666 0.76481 0.8782 0.0
C178 C 0.89317 0.76611 0.85413 0.0
C179 C 0.77275 0.86651 0.88296 0.0
H180 H 0.8876 0.85353 0.74011 0.0
H181 H 0.87273 0.83593 0.7752 0.0
H182 H 0.87291 0.90233 0.8102 0.0
H183 H 0.88914 0.91982 0.77578 0.0
H184 H 0.88869 0.82859 0.81783 0.0
H185 H 0.83206 0.88307 0.81996 0.0
H186 H 0.8375 0.83187 0.8739 0.0
H187 H 0.79651 0.83758 0.873 0.0
H188 H 0.81586 0.90536 0.84983 0.0
H189 H 0.7792 0.92281 0.86735 0.0
H190 H 0.88026 0.78674 0.82544 0.0
H191 H 0.8757 0.82008 0.89242 0.0
H192 H 0.76144 0.8553 0.89262 0.0
H193 H 0.89752 0.75111 0.84317 0.0
H194 H 0.89325 0.78476 0.91011 0.0
C195 C 0.62414 0.11409 0.27753 0.0
C196 C 0.61958 0.1271 0.25731 0.0
C197 C 0.63326 0.1245 0.29741 0.0
C198 C 0.63771 0.14832 0.29786 0.0
C199 C 0.6328 0.16151 0.27793 0.0
C200 C 0.62407 0.15102 0.25787 0.0
C201 C 0.64798 0.15914 0.31891 0.0
C202 C 0.66836 0.14831 0.32986 0.0
C203 C 0.67842 0.15819 0.3497 0.0
C204 C 0.66739 0.17889 0.3589 0.0
C205 C 0.64683 0.18994 0.34846 0.0
C206 C 0.63748 0.18012 0.32819 0.0
C207 C 0.63518 0.21155 0.35913 0.0
C208 C 0.63186 0.21312 0.38318 0.0
C209 C 0.62798 0.23095 0.34563 0.0
C210 C 0.61831 0.2516 0.35602 0.0
C211 C 0.61545 0.25332 0.38017 0.0
C212 C 0.70054 0.14708 0.36081 0.0
C213 C 0.7032 0.12279 0.36363 0.0
C214 C 0.71913 0.16077 0.36888 0.0
C215 C 0.73972 0.15051 0.37964 0.0
C216 C 0.74231 0.12624 0.3827 0.0
C217 C 0.72379 0.1125 0.37446 0.0
C218 C 0.62209 0.23365 0.39353 0.0
H219 H 0.62043 0.09583 0.27819 0.0
H220 H 0.63659 0.11392 0.3126 0.0
H221 H 0.63629 0.17985 0.27766 0.0
H222 H 0.6213 0.16167 0.24269 0.0
H223 H 0.67683 0.13247 0.32247 0.0
H224 H 0.62155 0.18835 0.32008 0.0
H225 H 0.67483 0.18646 0.37435 0.0
H226 H 0.63676 0.19837 0.39408 0.0
H227 H 0.63046 0.2304 0.32708 0.0
H228 H 0.61367 0.2664 0.34513 0.0
H229 H 0.68912 0.11173 0.35788 0.0
H230 H 0.71792 0.17948 0.36663 0.0
H231 H 0.61965 0.23401 0.41208 0.0
H232 H 0.72496 0.09381 0.37676 0.0
H233 H 0.75378 0.16163 0.38531 0.0
C234 C 0.30315 0.57459 0.0821 0.0
C235 C 0.29655 0.57805 0.05892 0.0
C236 C 0.32706 0.57677 0.08917 0.0
C237 C 0.34494 0.58246 0.07322 0.0
C238 C 0.3384 0.58586 0.04999 0.0
C239 C 0.31443 0.58355 0.04288 0.0
C240 C 0.37008 0.58561 0.08114 0.0
C241 C 0.38106 0.57014 0.09714 0.0
C242 C 0.40364 0.57443 0.10686 0.0
C243 C 0.41579 0.59386 0.0996 0.0
C244 C 0.40491 0.6099 0.08402 0.0
C245 C 0.38214 0.6054 0.07461 0.0
C246 C 0.41586 0.63258 0.07985 0.0
C247 C 0.42763 0.64394 0.0979 0.0
C248 C 0.41344 0.64377 0.05841 0.0
C249 C 0.42185 0.66603 0.05536 0.0
C250 C 0.4332 0.6775 0.0736 0.0
C251 C 0.41267 0.56116 0.12726 0.0
C252 C 0.39669 0.55726 0.14553 0.0
C253 C 0.43754 0.55519 0.13006 0.0
C254 C 0.4464 0.54683 0.15121 0.0
C255 C 0.43056 0.54439 0.16997 0.0
C256 C 0.40552 0.54903 0.16663 0.0
C257 C 0.43643 0.66591 0.09472 0.0
H258 H 0.28984 0.57004 0.0948 0.0
H259 H 0.33145 0.57439 0.10724 0.0
H260 H 0.35184 0.59022 0.03734 0.0
H261 H 0.30981 0.58642 0.02493 0.0
H262 H 0.37164 0.5551 0.10264 0.0
H263 H 0.37296 0.61807 0.06342 0.0
H264 H 0.43314 0.59726 0.10726 0.0
H265 H 0.42947 0.63624 0.11484 0.0
H266 H 0.40473 0.63548 0.04403 0.0
H267 H 0.41883 0.67445 0.03889 0.0
H268 H 0.37749 0.56206 0.14407 0.0
H269 H 0.45024 0.55782 0.11618 0.0
H270 H 0.44552 0.67392 0.10903 0.0
H271 H 0.39281 0.54776 0.18076 0.0
H272 H 0.46574 0.54303 0.15311 0.0
C273 C 0.10354 0.34362 0.55659 0.0
C274 C 0.0787 0.34008 0.55911 0.0
C275 C 0.1122 0.36573 0.55954 0.0
C276 C 0.0962 0.38493 0.56488 0.0
C277 C 0.07116 0.38165 0.56603 0.0
C278 C 0.06249 0.35942 0.56319 0.0
C279 C 0.10603 0.40748 0.5718 0.0
C280 C 0.12697 0.4152 0.56117 0.0
C281 C 0.13926 0.43374 0.57064 0.0
C282 C 0.12967 0.44543 0.59028 0.0
C283 C 0.10854 0.4382 0.6009 0.0
C284 C 0.09669 0.41942 0.5914 0.0
C285 C 0.10092 0.4476 0.62383 0.0
C286 C 0.11818 0.44938 0.64145 0.0
C287 C 0.07627 0.45246 0.62897 0.0
C288 C 0.06894 0.45812 0.65153 0.0
C289 C 0.08613 0.45884 0.6694 0.0
C290 C 0.16384 0.43863 0.56225 0.0
C291 C 0.18103 0.42008 0.55806 0.0
C292 C 0.17098 0.4616 0.56032 0.0
C293 C 0.19502 0.4659 0.55493 0.0
C294 C 0.21235 0.4473 0.5516 0.0
C295 C 0.20501 0.42437 0.55282 0.0
C296 C 0.11087 0.45488 0.66398 0.0
H297 H 0.11644 0.32913 0.55298 0.0
H298 H 0.13162 0.36747 0.55881 0.0
H299 H 0.05833 0.39614 0.56986 0.0
H300 H 0.04324 0.35726 0.56524 0.0
H301 H 0.13439 0.4061 0.54607 0.0
H302 H 0.08137 0.41284 0.60051 0.0
H303 H 0.13945 0.45926 0.59814 0.0
H304 H 0.13728 0.4453 0.63811 0.0
H305 H 0.06262 0.45134 0.61565 0.0
H306 H 0.04978 0.46148 0.65505 0.0
H307 H 0.1762 0.40217 0.55974 0.0
H308 H 0.15809 0.47622 0.56339 0.0
H309 H 0.12458 0.45489 0.67733 0.0
H310 H 0.21793 0.4097 0.55005 0.0
H311 H 0.20023 0.48376 0.55419 0.0
C312 C 0.02602 0.0249 0.46711 0.0
N313 N 0.01195 0.05685 0.53146 0.0
C314 C 0.03407 0.06589 0.52938 0.0
C315 C 0.03765 0.0884 0.53717 0.0
C316 C 0.01822 0.10184 0.54702 0.0
C317 C 0.99575 0.09188 0.54959 0.0
C318 C 0.99302 0.06915 0.54174 0.0
Zn319 Zn 0.00693 0.02544 0.51633 0.0
C320 C 0.95973 0.02584 0.49073 0.0
N321 N 0.99694 0.96062 0.48297 0.0
C322 C 0.01467 0.9495 0.47001 0.0
C323 C 0.97585 0.95048 0.48762 0.0
C324 C 0.97242 0.92785 0.48014 0.0
C325 C 0.99067 0.91553 0.4673 0.0
C326 C 0.01182 0.9269 0.4618 0.0
Zn327 Zn 1.00215 0.99198 0.49811 0.0
O328 O 0.02373 0.03725 0.48539 0.0
C329 C 0.04926 0.9914 0.52364 0.0
O330 O 0.01852 1.00437 0.46717 0.0
H331 H 0.96194 0.95966 0.49788 0.0
H332 H 0.04878 0.05592 0.52092 0.0
H333 H 0.0313 0.95792 0.46653 0.0
O334 O 0.04143 0.01204 0.52872 0.0
O335 O 0.03656 0.97893 0.51071 0.0
H336 H 0.9756 0.06158 0.54323 0.0
O337 O 0.98603 0.98008 0.5293 0.0
O338 O 0.99003 0.01334 0.54719 0.0
O339 O 0.96768 1.00521 0.48576 0.0
O340 O 0.97243 0.03837 0.5036 0.0
C341 C 0.98322 0.99256 0.54744 0.0
H342 H 0.05517 0.09558 0.53456 0.0
H343 H 0.98038 0.10168 0.55722 0.0
H344 H 0.95599 0.91986 0.48527 0.0
H345 H 0.02623 0.91833 0.45163 0.0
C346 C 0.54852 0.99195 0.99076 0.0
N347 N 0.51363 0.05885 0.98662 0.0
C348 C 0.53625 0.06672 0.98914 0.0
C349 C 0.54057 0.08977 0.98418 0.0
C350 C 0.52134 0.10504 0.97696 0.0
C351 C 0.49847 0.09612 0.97328 0.0
C352 C 0.49502 0.07279 0.97818 0.0
Zn353 Zn 0.50731 0.02703 0.99974 0.0
C354 C 0.48223 0.99645 0.96719 0.0
N355 N 0.49468 0.96155 0.02964 0.0
C356 C 0.51225 0.94939 0.04176 0.0
C357 C 0.47332 0.95211 0.0243 0.0
C358 C 0.46948 0.92916 0.03009 0.0
C359 C 0.4876 0.91601 0.04188 0.0
C360 C 0.50895 0.92644 0.0483 0.0
Zn361 Zn 0.501 0.99331 0.01636 0.0
O362 O 0.54146 0.01296 0.9867 0.0
C363 C 0.52598 0.02418 0.04882 0.0
O364 O 0.53516 0.97957 1.00299 0.0
H365 H 0.45953 0.96214 0.01483 0.0
H366 H 0.55077 0.05542 0.99602 0.0
H367 H 0.52914 0.95721 0.04567 0.0
O368 O 0.52393 0.03709 0.03115 0.0
O369 O 0.51815 1.00379 0.04785 0.0
H370 H 0.47717 0.06616 0.97632 0.0
O371 O 0.4667 1.00721 0.02939 0.0
O372 O 0.47329 0.04069 0.01336 0.0
O373 O 0.48418 0.98347 0.98483 0.0
O374 O 0.49037 0.01671 0.96821 0.0
C375 C 0.45988 0.02832 0.02551 0.0
H376 H 0.55863 0.09575 0.98677 0.0
H377 H 0.48308 0.10727 0.96787 0.0
H378 H 0.45272 0.9216 0.02507 0.0
H379 H 0.52329 0.91665 0.05735 0.0
C380 C 0.52392 0.46787 0.49066 0.0
N381 N 0.52226 0.49561 0.55807 0.0
C382 C 0.51664 0.47475 0.56692 0.0
C383 C 0.52234 0.46931 0.58982 0.0
C384 C 0.53392 0.48551 0.60365 0.0
C385 C 0.53976 0.50674 0.5939 0.0
C386 C 0.53376 0.51144 0.57101 0.0
Zn387 Zn 0.51259 0.50476 0.52534 0.0
C388 C 0.55315 0.52698 0.50134 0.0
N389 N 0.49263 0.5268 0.45781 0.0
C390 C 0.4808 0.51083 0.44537 0.0
C391 C 0.49865 0.54726 0.44832 0.0
C392 C 0.49308 0.55206 0.42523 0.0
C393 C 0.48123 0.53563 0.4119 0.0
C394 C 0.47497 0.51486 0.42235 0.0
Zn395 Zn 0.50237 0.51786 0.49058 0.0
O396 O 0.52565 0.47144 0.51227 0.0
C397 C 0.46178 0.49572 0.51474 0.0
O398 O 0.51476 0.48407 0.47803 0.0
H399 H 0.50809 0.55969 0.45855 0.0
H400 H 0.5075 0.46244 0.55629 0.0
H401 H 0.4763 0.49461 0.45318 0.0
O402 O 0.47768 0.49221 0.53035 0.0
O403 O 0.46735 0.5061 0.49639 0.0
H404 H 0.53796 0.52797 0.56368 0.0
O405 O 0.49007 0.55137 0.50346 0.0
O406 O 0.49948 0.53838 0.53796 0.0
O407 O 0.53757 0.52976 0.48532 0.0
O408 O 0.54726 0.51721 0.51993 0.0
C409 C 0.49103 0.55478 0.52516 0.0
H410 H 0.51772 0.45264 0.59661 0.0
H411 H 0.54832 0.5199 0.60401 0.0
H412 H 0.49807 0.56838 0.4179 0.0
H413 H 0.46627 0.50148 0.41268 0.0
C414 C 0.98863 0.55121 0.98755 0.0
N415 N 0.99132 0.52632 0.0557 0.0
C416 C 0.99662 0.54784 0.06349 0.0
C417 C 0.99264 0.55401 0.08663 0.0
C418 C 0.98345 0.53774 0.10177 0.0
C419 C 0.97749 0.51597 0.09309 0.0
C420 C 0.98148 0.51064 0.06988 0.0
Zn421 Zn 1.00032 0.51563 0.02311 0.0
C422 C 0.95963 0.49246 1.00017 0.0
N423 N 0.01997 0.49059 0.95614 0.0
C424 C 0.03178 0.50574 0.94288 0.0
C425 C 0.01424 0.46942 0.9478 0.0
C426 C 0.02026 0.4629 0.92511 0.0
C427 C 0.03224 0.47836 0.91097 0.0
C428 C 0.03803 0.5 0.92019 0.0
Zn429 Zn 0.01043 0.50127 0.98862 0.0
O430 O 0.98663 0.54818 0.00918 0.0
C431 C 0.05099 0.52478 0.0116 0.0
O432 O 0.9982 0.53474 0.97519 0.0
H433 H 0.00485 0.45766 0.95868 0.0
H434 H 0.00454 0.55998 0.05191 0.0
H435 H 0.0361 0.52252 0.94981 0.0
O436 O 0.03492 0.52885 0.02704 0.0
O437 O 0.04574 0.51322 0.9937 0.0
H438 H 0.97729 0.49369 0.0633 0.0
O439 O 0.02235 0.46801 1.0024 0.0
O440 O 0.01439 0.48286 0.0367 0.0
O441 O 0.97513 0.48947 0.98402 0.0
O442 O 0.96561 0.50251 0.01875 0.0
C443 C 0.02223 0.46574 0.02422 0.0
H444 H 0.9975 0.57096 0.09278 0.0
H445 H 0.97003 0.50311 0.10422 0.0
H446 H 0.01564 0.44596 0.91875 0.0
H447 H 0.04683 0.51266 0.90983 0.0
H448 H 0.1282 0.14153 0.30661 0.0
H449 H 0.11268 0.12306 0.34104 0.0
H450 H 0.07182 0.07785 0.29809 0.0
H451 H 0.08676 0.09685 0.26361 0.0
H452 H 0.04509 0.09025 0.33273 0.0
H453 H 0.12719 0.05967 0.32669 0.0
H454 H 0.17162 0.06091 0.32302 0.0
H455 H 0.17435 0.09873 0.38709 0.0
H456 H 0.12988 0.09798 0.39099 0.0
H457 H 0.02392 0.00844 0.42252 0.0
H458 H 0.03969 0.02598 0.3875 0.0
H459 H 0.06799 0.08111 0.42847 0.0
H460 H 0.05201 0.0639 0.46348 0.0
H461 H 0.10113 0.06244 0.3948 0.0
H462 H 0.01785 0.0923 0.3998 0.0
H463 H 0.97364 0.08891 0.40307 0.0
H464 H 0.9738 0.04938 0.33987 0.0
H465 H 0.01811 0.05223 0.33642 0.0
C466 C 0.11598 0.12759 0.30448 0.0
C467 C 0.10885 0.12062 0.28228 0.0
C468 C 0.10715 0.11693 0.32424 0.0
C469 C 0.09137 0.09861 0.32236 0.0
C470 C 0.08396 0.09186 0.30018 0.0
C471 C 0.09252 0.10276 0.28041 0.0
C472 C 0.0825 0.08665 0.34345 0.0
C473 C 0.05747 0.08389 0.34607 0.0
C474 C 0.09842 0.07852 0.36126 0.0
C475 C 0.12517 0.07896 0.35901 0.0
C476 C 0.13724 0.06839 0.33991 0.0
C477 C 0.16244 0.06898 0.3378 0.0
C478 C 0.17579 0.07994 0.35478 0.0
C479 C 0.16398 0.09027 0.37393 0.0
C480 C 0.13878 0.08976 0.37611 0.0
C481 C 0.0336 0.02424 0.42411 0.0
C482 C 0.03663 0.03477 0.44586 0.0
C483 C 0.04253 0.0343 0.40404 0.0
C484 C 0.05493 0.05497 0.40528 0.0
C485 C 0.05849 0.06519 0.42703 0.0
C486 C 0.04927 0.05534 0.44705 0.0
C487 C 0.06387 0.06617 0.38394 0.0
C488 C 0.08887 0.06877 0.38133 0.0
C489 C 0.04799 0.07385 0.36602 0.0
C490 C 0.02134 0.07226 0.36798 0.0
C491 C 0.00849 0.08271 0.38671 0.0
C492 C 0.98341 0.08092 0.38857 0.0
C493 C 0.97093 0.06888 0.37172 0.0
C494 C 0.9835 0.05867 0.35293 0.0
C495 C 0.0086 0.06038 0.351 0.0
H496 H 0.95151 0.06752 0.3732 0.0
H497 H 0.1953 0.08038 0.35312 0.0
H498 H 0.4188 0.92794 0.76229 0.0
H499 H 0.4339 0.94713 0.7968 0.0
H500 H 0.39645 0.89973 0.83973 0.0
H501 H 0.38057 0.88112 0.80519 0.0
H502 H 0.3909 0.94009 0.85801 0.0
H503 H 0.46088 0.89583 0.82944 0.0
H504 H 0.49176 0.88224 0.80083 0.0
H505 H 0.51485 0.95193 0.79423 0.0
H506 H 0.48388 0.96599 0.8226 0.0
H507 H 0.45682 0.95734 0.96188 0.0
H508 H 0.44045 0.94136 0.92634 0.0
H509 H 0.46684 0.99863 0.88791 0.0
H510 H 0.48323 0.01491 0.92356 0.0
H511 H 0.47806 0.95487 0.86718 0.0
H512 H 0.40795 0.99778 0.89833 0.0
H513 H 0.37799 0.00922 0.92854 0.0
H514 H 0.35632 0.93879 0.93201 0.0
H515 H 0.38641 0.92685 0.90203 0.0
C516 C 0.41391 0.92154 0.7791 0.0
C517 C 0.39858 0.90293 0.781 0.0
C518 C 0.42264 0.93248 0.79888 0.0
C519 C 0.41675 0.92471 0.82106 0.0
C520 C 0.40132 0.90616 0.82293 0.0
C521 C 0.39226 0.89548 0.80315 0.0
C522 C 0.42634 0.93605 0.84229 0.0
C523 C 0.41003 0.943 0.86005 0.0
C524 C 0.45124 0.9404 0.84501 0.0
C525 C 0.46989 0.932 0.82796 0.0
C526 C 0.47242 0.90828 0.82176 0.0
C527 C 0.48996 0.90049 0.80561 0.0
C528 C 0.50521 0.91622 0.79567 0.0
C529 C 0.503 0.93977 0.80192 0.0
C530 C 0.48547 0.94766 0.81804 0.0
C531 C 0.45905 0.96667 0.94591 0.0
C532 C 0.47132 0.98748 0.94562 0.0
C533 C 0.44961 0.95751 0.92559 0.0
C534 C 0.45228 0.96883 0.90443 0.0
C535 C 0.46453 0.9896 0.90403 0.0
C536 C 0.47378 0.99894 0.92444 0.0
C537 C 0.44264 0.95868 0.88276 0.0
C538 C 0.45894 0.95197 0.86498 0.0
C539 C 0.41783 0.9542 0.88018 0.0
C540 C 0.39958 0.96139 0.89807 0.0
C541 C 0.39692 0.98469 0.90565 0.0
C542 C 0.37989 0.99127 0.92272 0.0
C543 C 0.3653 0.97473 0.93223 0.0
C544 C 0.36766 0.95158 0.92464 0.0
C545 C 0.38467 0.9449 0.9076 0.0
H546 H 0.35213 0.97986 0.94544 0.0
H547 H 0.51878 0.91015 0.78317 0.0
H548 H 0.60662 0.4778 0.81431 0.0
H549 H 0.59766 0.48413 0.77344 0.0
H550 H 0.53056 0.4499 0.78109 0.0
H551 H 0.53956 0.44335 0.82193 0.0
H552 H 0.55502 0.43313 0.74475 0.0
H553 H 0.53126 0.50924 0.77392 0.0
H554 H 0.5361 0.54585 0.79543 0.0
H555 H 0.59651 0.56091 0.75236 0.0
H556 H 0.59224 0.52422 0.73078 0.0
H557 H 0.505 0.46542 0.63533 0.0
H558 H 0.51271 0.46012 0.67656 0.0
H559 H 0.58208 0.49025 0.66913 0.0
H560 H 0.57469 0.49531 0.62784 0.0
H561 H 0.55588 0.50933 0.7053 0.0
H562 H 0.57964 0.43282 0.67649 0.0
H563 H 0.57441 0.39631 0.65494 0.0
H564 H 0.51327 0.38222 0.69746 0.0
H565 H 0.51793 0.41884 0.71908 0.0
C566 C 0.58974 0.47203 0.80736 0.0
C567 C 0.57379 0.46006 0.82126 0.0
C568 C 0.58465 0.47562 0.78401 0.0
C569 C 0.56337 0.46758 0.77425 0.0
C570 C 0.54713 0.45616 0.78826 0.0
C571 C 0.55228 0.45244 0.81155 0.0
C572 C 0.55862 0.47003 0.74919 0.0
C573 C 0.55483 0.44986 0.73619 0.0
C574 C 0.55898 0.49176 0.73794 0.0
C575 C 0.56156 0.51387 0.75087 0.0
C576 C 0.5457 0.52027 0.76915 0.0
C577 C 0.54832 0.54105 0.78134 0.0
C578 C 0.56664 0.55567 0.77531 0.0
C579 C 0.58234 0.54956 0.75703 0.0
C580 C 0.57982 0.52878 0.7448 0.0
C581 C 0.52209 0.47053 0.64239 0.0
C582 C 0.53922 0.48081 0.62832 0.0
C583 C 0.52641 0.46759 0.66596 0.0
C584 C 0.54799 0.47476 0.67585 0.0
C585 C 0.56526 0.48472 0.66182 0.0
C586 C 0.56098 0.48764 0.63827 0.0
C587 C 0.55228 0.47245 0.70095 0.0
C588 C 0.55601 0.49264 0.71392 0.0
C589 C 0.55179 0.45075 0.71219 0.0
C590 C 0.54899 0.42869 0.69925 0.0
C591 C 0.56496 0.42204 0.68112 0.0
C592 C 0.56212 0.4013 0.66892 0.0
C593 C 0.54348 0.38698 0.67478 0.0
C594 C 0.52767 0.39334 0.69292 0.0
C595 C 0.53042 0.41408 0.70516 0.0
H596 H 0.54131 0.37094 0.66532 0.0
H597 H 0.56864 0.57176 0.78476 0.0
H598 H 0.91827 0.59405 0.30869 0.0
H599 H 0.92942 0.59165 0.26792 0.0
H600 H 0.97618 0.53051 0.28137 0.0
H601 H 0.96547 0.53328 0.32251 0.0
H602 H 0.99702 0.55802 0.2515 0.0
H603 H 0.91909 0.52619 0.25853 0.0
H604 H 0.87615 0.52549 0.27021 0.0
H605 H 0.8585 0.58547 0.2285 0.0
H606 H 0.90142 0.58673 0.21683 0.0
H607 H 0.99919 0.51054 0.13747 0.0
H608 H 0.99318 0.51804 0.17876 0.0
H609 H 0.95565 0.58401 0.16358 0.0
H610 H 0.96168 0.57659 0.12209 0.0
H611 H 0.93066 0.5554 0.19394 0.0
H612 H 0.00965 0.58505 0.18548 0.0
H613 H 0.05259 0.58367 0.17348 0.0
H614 H 0.06813 0.52496 0.21747 0.0
H615 H 0.02518 0.52577 0.22948 0.0
C616 C 0.93093 0.5801 0.30292 0.0
C617 C 0.94078 0.56363 0.31859 0.0
C618 C 0.93727 0.57874 0.27966 0.0
C619 C 0.95321 0.56061 0.27153 0.0
C620 C 0.96374 0.54458 0.28729 0.0
C621 C 0.95762 0.54613 0.31071 0.0
C622 C 0.95832 0.55813 0.2465 0.0
C623 C 0.98253 0.55717 0.23893 0.0
C624 C 0.93937 0.55745 0.23008 0.0
C625 C 0.91352 0.55669 0.23699 0.0
C626 C 0.90608 0.53933 0.25199 0.0
C627 C 0.88175 0.53882 0.25858 0.0
C628 C 0.86462 0.55546 0.25015 0.0
C629 C 0.8718 0.57261 0.23505 0.0
C630 C 0.89612 0.57322 0.22843 0.0
C631 C 0.98972 0.52667 0.14296 0.0
C632 C 0.98076 0.54296 0.12668 0.0
C633 C 0.98646 0.53099 0.1665 0.0
C634 C 0.97411 0.55161 0.17413 0.0
C635 C 0.96532 0.56803 0.15794 0.0
C636 C 0.96883 0.56383 0.13434 0.0
C637 C 0.96929 0.55534 0.199 0.0
C638 C 0.94512 0.55642 0.20653 0.0
C639 C 0.98827 0.55582 0.21534 0.0
C640 C 0.01414 0.55534 0.20822 0.0
C641 C 0.02217 0.57171 0.19245 0.0
C642 C 0.04652 0.57106 0.18567 0.0
C643 C 0.06306 0.5542 0.19467 0.0
C644 C 0.05529 0.538 0.2105 0.0
C645 C 0.03095 0.53856 0.21732 0.0
H646 H 0.08191 0.55373 0.18941 0.0
H647 H 0.84579 0.55503 0.25527 0.0
H648 H 0.24719 0.09139 0.10836 0.0
H649 H 0.28382 0.07418 0.08932 0.0
H650 H 0.326 0.12741 0.11947 0.0
H651 H 0.28951 0.14443 0.13893 0.0
H652 H 0.33288 0.11837 0.06917 0.0
H653 H 0.33282 0.07864 0.14256 0.0
H654 H 0.31448 0.05547 0.17291 0.0
H655 H 0.30511 1.00001 0.12423 0.0
H656 H 0.32308 0.02302 0.09349 0.0
H657 H 0.45087 0.07308 0.04018 0.0
H658 H 0.41442 0.09011 0.05907 0.0
H659 H 0.3805 0.02457 0.05211 0.0
H660 H 0.41786 1.00705 0.03486 0.0
H661 H 0.36818 0.0402 0.09038 0.0
H662 H 0.36684 0.07744 0.0168 0.0
H663 H 0.38287 0.0996 0.98445 0.0
H664 H 0.39155 0.15819 0.0295 0.0
H665 H 0.37581 0.13628 0.06219 0.0
C666 C 0.26428 0.09942 0.11091 0.0
C667 C 0.26549 0.11924 0.12519 0.0
C668 C 0.28519 0.08955 0.10008 0.0
C669 C 0.30765 0.0995 0.10298 0.0
C670 C 0.30886 0.11945 0.11698 0.0
C671 C 0.28805 0.12907 0.12819 0.0
C672 C 0.32989 0.08901 0.0915 0.0
C673 C 0.34082 0.10139 0.07392 0.0
C674 C 0.33973 0.06653 0.09718 0.0
C675 C 0.32906 0.05265 0.11568 0.0
C676 C 0.32665 0.06159 0.13828 0.0
C677 C 0.31636 0.04847 0.15557 0.0
C678 C 0.30857 0.0263 0.15049 0.0
C679 C 0.31112 0.01719 0.12813 0.0
C680 C 0.32137 0.03026 0.11078 0.0
C681 C 0.43557 0.06235 0.0426 0.0
C682 C 0.43715 0.03877 0.0359 0.0
C683 C 0.41457 0.07216 0.05326 0.0
C684 C 0.39417 0.05894 0.0566 0.0
C685 C 0.3958 0.03531 0.0498 0.0
C686 C 0.41714 0.02528 0.03982 0.0
C687 C 0.37148 0.06948 0.06773 0.0
C688 C 0.36036 0.05713 0.08535 0.0
C689 C 0.36113 0.09181 0.06167 0.0
C690 C 0.37034 0.10513 0.04199 0.0
C691 C 0.37228 0.09501 0.01983 0.0
C692 C 0.3813 0.10753 1.00144 0.0
C693 C 0.38828 0.13027 1.00493 0.0
C694 C 0.38615 0.14057 0.02682 0.0
C695 C 0.37715 0.12812 0.04529 0.0
H696 H 0.39529 0.13993 0.99068 0.0
H697 H 0.30062 0.01617 0.1639 0.0
H698 H 0.26248 0.9356 0.6077 0.0
H699 H 0.22571 0.95198 0.58856 0.0
H700 H 0.18568 0.89511 0.61364 0.0
H701 H 0.22225 0.87891 0.63319 0.0
H702 H 0.18038 0.90646 0.56371 0.0
H703 H 0.17541 0.94202 0.63989 0.0
H704 H 0.1913 0.96449 0.6724 0.0
H705 H 0.19887 0.0231 0.62803 0.0
H706 H 0.18335 1.00084 0.59516 0.0
H707 H 0.06078 0.94631 0.53519 0.0
H708 H 0.09781 0.93038 0.55357 0.0
H709 H 0.12748 0.99824 0.5518 0.0
H710 H 0.08956 0.01451 0.535 0.0
H711 H 0.1395 0.98128 0.58946 0.0
H712 H 0.14543 0.94856 0.51345 0.0
H713 H 0.13207 0.92738 0.47897 0.0
H714 H 0.12625 0.86552 0.51914 0.0
H715 H 0.13929 0.8864 0.55393 0.0
C716 C 0.24582 0.92662 0.60911 0.0
C717 C 0.24519 0.90603 0.62198 0.0
C718 C 0.22486 0.936 0.59823 0.0
C719 C 0.20298 0.92476 0.5997 0.0
C720 C 0.20238 0.90404 0.61229 0.0
C721 C 0.22321 0.8949 0.62354 0.0
C722 C 0.18069 0.93469 0.58823 0.0
C723 C 0.17122 0.92269 0.56943 0.0
C724 C 0.16931 0.95625 0.59523 0.0
C725 C 0.17847 0.96968 0.61502 0.0
C726 C 0.18067 0.95962 0.63702 0.0
C727 C 0.18956 0.97234 0.65552 0.0
C728 C 0.19615 0.99519 0.65227 0.0
C729 C 0.19379 1.00539 0.63052 0.0
C730 C 0.18493 0.99274 0.61195 0.0
C731 C 0.07529 0.95778 0.53861 0.0
C732 C 0.07236 0.98162 0.53353 0.0
C733 C 0.0966 0.94862 0.549 0.0
C734 C 0.11595 0.96288 0.55368 0.0
C735 C 0.113 0.98674 0.54843 0.0
C736 C 0.09135 0.99605 0.53871 0.0
C737 C 0.13886 0.95311 0.56465 0.0
C738 C 0.14855 0.96511 0.58346 0.0
C739 C 0.1508 0.93179 0.55726 0.0
C740 C 0.14314 0.91911 0.53633 0.0
C741 C 0.14117 0.93048 0.51495 0.0
C742 C 0.13367 0.91852 0.49535 0.0
C743 C 0.12826 0.89514 0.49688 0.0
C744 C 0.13042 0.88364 0.51799 0.0
C745 C 0.1379 0.89552 0.53765 0.0
H746 H 0.12243 0.88592 0.48169 0.0
H747 H 0.20304 1.005 0.66662 0.0
H748 H 0.72847 0.47627 0.98923 0.0
H749 H 0.77108 0.48329 0.99677 0.0
H750 H 0.79312 0.43264 0.94432 0.0
H751 H 0.75057 0.42507 0.93731 0.0
H752 H 0.82123 0.42675 0.97962 0.0
H753 H 0.7936 0.49286 0.93543 0.0
H754 H 0.76702 0.52715 0.92519 0.0
H755 H 0.78379 0.56011 0.98953 0.0
H756 H 0.81023 0.52586 1.00029 0.0
H757 H 0.94204 0.46518 0.96582 0.0
H758 H 0.89976 0.45593 0.95945 0.0
H759 H 0.87814 0.49527 0.02048 0.0
H760 H 0.92027 0.50442 0.02714 0.0
H761 H 0.85044 0.50676 0.98051 0.0
H762 H 0.87916 0.43908 0.02341 0.0
H763 H 0.90676 0.40482 0.03127 0.0
H764 H 0.88899 0.37499 0.96569 0.0
H765 H 0.86154 0.40925 0.95729 0.0
C766 C 0.74246 0.46675 0.97928 0.0
C767 C 0.73631 0.45017 0.96269 0.0
C768 C 0.76677 0.47079 0.98353 0.0
C769 C 0.78533 0.45873 0.97087 0.0
C770 C 0.77915 0.44212 0.95432 0.0
C771 C 0.75487 0.43783 0.95032 0.0
C772 C 0.8112 0.46323 0.97503 0.0
C773 C 0.82764 0.44424 0.9795 0.0
C774 C 0.81958 0.48606 0.97519 0.0
C775 C 0.80371 0.50669 0.96876 0.0
C776 C 0.79147 0.50735 0.94747 0.0
C777 C 0.77645 0.52678 0.94156 0.0
C778 C 0.77366 0.54577 0.95673 0.0
C779 C 0.78594 0.54537 0.97781 0.0
C780 C 0.80096 0.52596 0.98382 0.0
C781 C 0.92831 0.47169 0.97799 0.0
C782 C 0.93448 0.48554 0.99697 0.0
C783 C 0.90421 0.46636 0.97434 0.0
C784 C 0.88592 0.47492 0.98953 0.0
C785 C 0.89204 0.48854 0.00859 0.0
C786 C 0.91613 0.49365 0.0124 0.0
C787 C 0.86024 0.47033 0.98515 0.0
C788 C 0.84391 0.48931 0.98061 0.0
C789 C 0.85207 0.4475 0.98455 0.0
C790 C 0.86848 0.42684 0.98963 0.0
C791 C 0.8813 0.42531 0.01058 0.0
C792 C 0.89688 0.40587 0.01515 0.0
C793 C 0.89968 0.38777 0.99896 0.0
C794 C 0.88684 0.38904 0.9782 0.0
C795 C 0.87124 0.40846 0.97353 0.0
H796 H 0.91175 0.37273 1.00253 0.0
H797 H 0.76203 0.5608 0.95212 0.0
H798 H 0.7626 0.58742 0.43655 0.0
H799 H 0.72016 0.58172 0.44524 0.0
H800 H 0.74164 0.54138 0.50506 0.0
H801 H 0.78436 0.54607 0.49581 0.0
H802 H 0.70828 0.52037 0.4813 0.0
H803 H 0.71665 0.59766 0.51003 0.0
H804 H 0.72767 0.63858 0.50869 0.0
H805 H 0.67721 0.65181 0.45334 0.0
H806 H 0.66612 0.61087 0.45413 0.0
H807 H 0.59136 0.51917 0.53054 0.0
H808 H 0.63344 0.52853 0.52448 0.0
H809 H 0.61406 0.56012 0.45931 0.0
H810 H 0.57171 0.55076 0.46516 0.0
H811 H 0.64604 0.58602 0.48675 0.0
H812 H 0.63878 0.50802 0.45782 0.0
H813 H 0.62739 0.46726 0.4602 0.0
H814 H 0.67592 0.45572 0.51736 0.0
H815 H 0.68732 0.49654 0.51556 0.0
C816 C 0.75835 0.57716 0.45146 0.0
C817 C 0.77689 0.56707 0.46542 0.0
C818 C 0.73404 0.57419 0.45658 0.0
C819 C 0.72772 0.56139 0.47597 0.0
C820 C 0.74614 0.55142 0.49006 0.0
C821 C 0.77052 0.55426 0.48486 0.0
C822 C 0.70189 0.5577 0.48098 0.0
C823 C 0.69476 0.53476 0.48287 0.0
C824 C 0.68415 0.57646 0.48248 0.0
C825 C 0.69072 0.60113 0.48201 0.0
C826 C 0.70804 0.60925 0.49745 0.0
C827 C 0.71427 0.63246 0.49681 0.0
C828 C 0.70319 0.64777 0.4809 0.0
C829 C 0.6858 0.63992 0.46564 0.0
C830 C 0.67951 0.61672 0.46619 0.0
C831 C 0.59595 0.52825 0.51497 0.0
C832 C 0.57823 0.53407 0.49823 0.0
C833 C 0.62001 0.53354 0.51154 0.0
C834 C 0.6268 0.54478 0.49137 0.0
C835 C 0.60908 0.55139 0.47498 0.0
C836 C 0.58497 0.54596 0.47831 0.0
C837 C 0.65261 0.54877 0.48706 0.0
C838 C 0.65967 0.57171 0.48526 0.0
C839 C 0.67033 0.53004 0.48576 0.0
C840 C 0.66372 0.5054 0.4867 0.0
C841 C 0.64688 0.49684 0.47102 0.0
C842 C 0.64044 0.47372 0.47224 0.0
C843 C 0.65088 0.45893 0.48896 0.0
C844 C 0.66783 0.46721 0.50444 0.0
C845 C 0.6743 0.49033 0.50332 0.0
H846 H 0.64587 0.44103 0.48988 0.0
H847 H 0.70804 0.66574 0.48044 0.0
H848 H 0.12058 0.30042 0.14872 0.0
H849 H 0.10403 0.33543 0.12903 0.0
H850 H 0.06762 0.29252 0.08027 0.0
H851 H 0.08393 0.2574 0.10006 0.0
H852 H 0.09424 0.32948 0.05996 0.0
H853 H 0.03454 0.31843 0.11933 0.0
H854 H 0.02109 0.3128 0.1594 0.0
H855 H 0.04974 0.37783 0.17941 0.0
H856 H 0.06368 0.38369 0.1395 0.0
H857 H 0.02463 0.42157 1.0057 0.0
H858 H 0.03876 0.38527 0.02441 0.0
H859 H 0.05589 0.42389 0.0859 0.0
H860 H 0.04028 0.45988 0.06775 0.0
H861 H 0.03851 0.38769 0.09951 0.0
H862 H 0.10018 0.39944 0.04326 0.0
H863 H 0.11702 0.40612 1.00458 0.0
H864 H 0.08966 0.34197 0.98022 0.0
H865 H 0.07238 0.33505 0.01869 0.0
C866 C 0.10905 0.29843 0.1338 0.0
C867 C 0.10354 0.2761 0.126 0.0
C868 C 0.09953 0.31846 0.12261 0.0
C869 C 0.08453 0.31663 0.10317 0.0
C870 C 0.07914 0.29437 0.09521 0.0
C871 C 0.08834 0.27433 0.10664 0.0
C872 C 0.07451 0.33798 0.09121 0.0
C873 C 0.08178 0.3421 0.06845 0.0
C874 C 0.0589 0.3548 0.10252 0.0
C875 C 0.05035 0.35139 0.12647 0.0
C876 C 0.03814 0.33144 0.13231 0.0
C877 C 0.0304 0.32823 0.15499 0.0
C878 C 0.03461 0.34492 0.17195 0.0
C879 C 0.04651 0.3649 0.16626 0.0
C880 C 0.05432 0.36819 0.14361 0.0
C881 C 0.03144 0.42228 0.02321 0.0
C882 C 0.03138 0.44364 0.0352 0.0
C883 C 0.03973 0.40148 0.03389 0.0
C884 C 0.04898 0.40162 0.05656 0.0
C885 C 0.04889 0.42305 0.06848 0.0
C886 C 0.04001 0.44372 0.05803 0.0
C887 C 0.05836 0.37957 0.06808 0.0
C888 C 0.05096 0.37522 0.09084 0.0
C889 C 0.07435 0.36279 0.05692 0.0
C890 C 0.08477 0.36686 0.03379 0.0
C891 C 0.09761 0.38684 0.02961 0.0
C892 C 0.10726 0.39065 0.00773 0.0
C893 C 0.10435 0.37451 0.98994 0.0
C894 C 0.09186 0.35448 0.99401 0.0
C895 C 0.08216 0.35059 0.01585 0.0
H896 H 0.11183 0.3775 0.97301 0.0
H897 H 0.0286 0.3424 0.1895 0.0
H898 H 0.58125 0.31393 1.0034 0.0
H899 H 0.5691 0.27372 1.00453 0.0
H900 H 0.52213 0.28683 0.94604 0.0
H901 H 0.53417 0.32711 0.94484 0.0
H902 H 0.50242 0.25721 0.97739 0.0
H903 H 0.57714 0.2638 0.93662 0.0
H904 H 0.61886 0.27589 0.93095 0.0
H905 H 0.64309 0.23473 0.9889 0.0
H906 H 0.60139 0.2227 0.99516 0.0
H907 H 0.50204 0.13595 0.94492 0.0
H908 H 0.50675 0.17806 0.94352 0.0
H909 H 0.55298 0.17338 1.00346 0.0
H910 H 0.54792 0.13168 1.00541 0.0
H911 H 0.57183 0.19901 0.96828 0.0
H912 H 0.49606 0.19339 0.00929 0.0
H913 H 0.45427 0.18107 0.01393 0.0
H914 H 0.43202 0.21991 0.95384 0.0
H915 H 0.4738 0.23217 0.94863 0.0
C916 C 0.56804 0.30833 0.99103 0.0
C917 C 0.55886 0.32354 0.97388 0.0
C918 C 0.56111 0.2854 0.99169 0.0
C919 C 0.5451 0.27724 0.97507 0.0
C920 C 0.53456 0.29281 0.95896 0.0
C921 C 0.54141 0.31582 0.95835 0.0
C922 C 0.54117 0.25206 0.97327 0.0
C923 C 0.51753 0.24448 0.97513 0.0
C924 C 0.56093 0.2355 0.97033 0.0
C925 C 0.58609 0.24252 0.96649 0.0
C926 C 0.59132 0.25746 0.94826 0.0
C927 C 0.61497 0.26429 0.94493 0.0
C928 C 0.6336 0.25612 0.95959 0.0
C929 C 0.62863 0.24106 0.97758 0.0
C930 C 0.60499 0.23423 0.98102 0.0
C931 C 0.51309 0.14392 0.95787 0.0
C932 C 0.52474 0.13039 0.97517 0.0
C933 C 0.51578 0.16794 0.95702 0.0
C934 C 0.53015 0.17875 0.97344 0.0
C935 C 0.54194 0.16529 0.99055 0.0
C936 C 0.53915 0.14141 0.99151 0.0
C937 C 0.53317 0.20411 0.97295 0.0
C938 C 0.55669 0.21174 0.97049 0.0
C939 C 0.51328 0.22063 0.97516 0.0
C940 C 0.48811 0.21348 0.97842 0.0
C941 C 0.4823 0.19915 0.99695 0.0
C942 C 0.45861 0.1922 0.99971 0.0
C943 C 0.44052 0.19964 0.98415 0.0
C944 C 0.44607 0.21412 0.96585 0.0
C945 C 0.46975 0.22109 0.963 0.0
H946 H 0.42219 0.19423 0.9863 0.0
H947 H 0.6519 0.26142 0.95698 0.0
H948 H 0.91486 0.71528 0.47973 0.0
H949 H 0.92849 0.75491 0.47813 0.0
H950 H 0.99347 0.72991 0.4424 0.0
H951 H 0.97945 0.69035 0.44255 0.0
H952 H 0.99125 0.76731 0.48797 0.0
H953 H 0.96838 0.7503 0.40742 0.0
H954 H 0.93987 0.7353 0.37892 0.0
H955 H 0.88326 0.78304 0.40457 0.0
H956 H 0.91139 0.79804 0.43348 0.0
H957 H 0.02649 0.88027 0.46499 0.0
H958 H 0.02151 0.8388 0.4596 0.0
H959 H 0.94412 0.85228 0.45278 0.0
H960 H 0.94917 0.8939 0.45583 0.0
H961 H 0.95609 0.81856 0.42654 0.0
H962 H 0.97395 0.83587 0.50586 0.0
H963 H 0.99772 0.85117 0.53805 0.0
H964 H 0.05809 0.80408 0.51996 0.0
H965 H 0.03474 0.7887 0.48748 0.0
C966 C 0.932 0.71812 0.4714 0.0
C967 C 0.94589 0.69956 0.46103 0.0
C968 C 0.93982 0.74075 0.4707 0.0
C969 C 0.96183 0.74516 0.46001 0.0
C970 C 0.9764 0.72668 0.45071 0.0
C971 C 0.96841 0.70407 0.45101 0.0
C972 C 0.96887 0.76934 0.45764 0.0
C973 C 0.98404 0.7785 0.47432 0.0
C974 C 0.95868 0.7839 0.44027 0.0
C975 C 0.94189 0.77508 0.42275 0.0
C976 C 0.94979 0.75742 0.40713 0.0
C977 C 0.93372 0.74895 0.39087 0.0
C978 C 0.90975 0.75816 0.38998 0.0
C979 C 0.90182 0.7759 0.4053 0.0
C980 C 0.91782 0.78439 0.42161 0.0
C981 C 0.00847 0.87457 0.46163 0.0
C982 C 0.98817 0.89056 0.46127 0.0
C983 C 0.00561 0.85072 0.45893 0.0
C984 C 0.98235 0.8423 0.45656 0.0
C985 C 0.96225 0.85827 0.45487 0.0
C986 C 0.96515 0.88213 0.45696 0.0
C987 C 0.97865 0.81692 0.45697 0.0
C988 C 0.96384 0.80746 0.44001 0.0
C989 C 0.98871 0.80223 0.4745 0.0
C990 C 1.00271 0.81133 0.4941 0.0
C991 C 0.99235 0.82889 0.50867 0.0
C992 C 0.00573 0.83756 0.52697 0.0
C993 C 0.02943 0.82865 0.531 0.0
C994 C 0.03975 0.81099 0.51679 0.0
C995 C 0.02645 0.80228 0.49844 0.0
H996 H 0.03977 0.83539 0.54518 0.0
H997 H 0.89733 0.75159 0.37738 0.0
H998 H 0.44077 0.75905 0.61721 0.0
H999 H 0.45755 0.72322 0.59931 0.0
H1000 H 0.38857 0.6924 0.60691 0.0
H1001 H 0.3724 0.72714 0.62692 0.0
H1002 H 0.4195 0.66093 0.61456 0.0
H1003 H 0.41171 0.71559 0.55317 0.0
H1004 H 0.41731 0.75229 0.53261 0.0
H1005 H 0.49456 0.73816 0.53312 0.0
H1006 H 0.48943 0.7015 0.55394 0.0
H1007 H 0.46561 0.59133 0.5043 0.0
H1008 H 0.44921 0.6276 0.52227 0.0
H1009 H 0.48026 0.60594 0.5875 0.0
H1010 H 0.49602 0.56947 0.56984 0.0
H1011 H 0.46671 0.66348 0.54182 0.0
H1012 H 0.44594 0.62435 0.63166 0.0
H1013 H 0.43322 0.5873 0.64769 0.0
H1014 H 0.40085 0.57031 0.58277 0.0
H1015 H 0.41328 0.60719 0.56646 0.0
C1016 C 0.42919 0.74456 0.61555 0.0
C1017 C 0.405 0.74639 0.62353 0.0
C1018 C 0.43877 0.72409 0.60483 0.0
C1019 C 0.42426 0.70507 0.60113 0.0
C1020 C 0.40025 0.70673 0.60933 0.0
C1021 C 0.39084 0.72694 0.62053 0.0
C1022 C 0.43401 0.68338 0.58898 0.0
C1023 C 0.42984 0.66162 0.59867 0.0
C1024 C 0.44702 0.68391 0.56785 0.0
C1025 C 0.45019 0.70592 0.55532 0.0
C1026 C 0.4299 0.72039 0.54904 0.0
C1027 C 0.43299 0.74117 0.53732 0.0
C1028 C 0.45628 0.74758 0.53162 0.0
C1029 C 0.47653 0.73319 0.53757 0.0
C1030 C 0.47354 0.7124 0.54932 0.0
C1031 C 0.46896 0.5943 0.52247 0.0
C1032 C 0.48198 0.57736 0.53564 0.0
C1033 C 0.45963 0.61511 0.53273 0.0
C1034 C 0.46314 0.61949 0.55638 0.0
C1035 C 0.47677 0.60286 0.56937 0.0
C1036 C 0.4859 0.582 0.55919 0.0
C1037 C 0.45236 0.64123 0.56757 0.0
C1038 C 0.4564 0.66292 0.55773 0.0
C1039 C 0.43827 0.64064 0.588 0.0
C1040 C 0.43078 0.61841 0.59779 0.0
C1041 C 0.43609 0.61269 0.62084 0.0
C1042 C 0.42896 0.59169 0.62997 0.0
C1043 C 0.41634 0.57637 0.61624 0.0
C1044 C 0.41077 0.58205 0.59338 0.0
C1045 C 0.4179 0.60298 0.58417 0.0
H1046 H 0.41081 0.56014 0.62334 0.0
H1047 H 0.45863 0.76368 0.52254 0.0
H1048 H 0.91922 0.86819 0.72043 0.0
H1049 H 0.93381 0.88593 0.6855 0.0
H1050 H 0.89816 0.9517 0.70559 0.0
H1051 H 0.88156 0.9336 0.73949 0.0
H1052 H 0.89298 0.94827 0.66278 0.0
H1053 H 0.9632 0.93725 0.71039 0.0
H1054 H 0.99347 0.91586 0.73468 0.0
H1055 H 0.01357 0.8707 0.67759 0.0
H1056 H 0.98319 0.89164 0.65303 0.0
H1057 H 0.96456 0.01562 0.58592 0.0
H1058 H 0.94819 0.9985 0.62099 0.0
H1059 H 0.96298 0.92969 0.59249 0.0
H1060 H 0.97881 0.94659 0.55729 0.0
H1061 H 0.97933 0.9359 0.63958 0.0
H1062 H 0.90769 0.94926 0.59246 0.0
H1063 H 0.87869 0.97342 0.56924 0.0
H1064 H 0.86319 0.01808 0.6278 0.0
H1065 H 0.89238 0.99436 0.65129 0.0
C1066 C 0.91402 0.88634 0.71738 0.0
C1067 C 0.89914 0.89931 0.73322 0.0
C1068 C 0.92285 0.89665 0.69742 0.0
C1069 C 0.91771 0.92044 0.69293 0.0
C1070 C 0.90266 0.93338 0.70854 0.0
C1071 C 0.89341 0.92298 0.72826 0.0
C1072 C 0.9277 0.93176 0.67193 0.0
C1073 C 0.91197 0.94577 0.65803 0.0
C1074 C 0.95245 0.9285 0.66523 0.0
C1075 C 0.97075 0.91587 0.67994 0.0
C1076 C 0.97395 0.92265 0.70306 0.0
C1077 C 0.99115 0.91063 0.71687 0.0
C1078 C 0.00539 0.8919 0.7077 0.0
C1079 C 1.0025 0.88519 0.68468 0.0
C1080 C 0.98531 0.89714 0.6708 0.0
C1081 C 0.96425 0.99685 0.58709 0.0
C1082 C 0.97295 0.9825 0.56872 0.0
C1083 C 0.95486 0.98709 0.60714 0.0
C1084 C 0.95433 0.96279 0.60939 0.0
C1085 C 0.96321 0.94846 0.59118 0.0
C1086 C 0.97217 0.95819 0.57101 0.0
C1087 C 0.9446 0.95221 0.6307 0.0
C1088 C 0.96039 0.93837 0.64457 0.0
C1089 C 0.92008 0.95602 0.63761 0.0
C1090 C 0.90241 0.97018 0.62356 0.0
C1091 C 0.89826 0.96435 0.60033 0.0
C1092 C 0.88175 0.97794 0.58713 0.0
C1093 C 0.86916 0.99731 0.59702 0.0
C1094 C 0.87298 1.00309 0.62016 0.0
C1095 C 0.88949 0.98957 0.63342 0.0
H1096 H 0.85639 1.00781 0.58678 0.0
H1097 H 0.01869 0.88261 0.71842 0.0
H1098 H 0.58896 0.14628 0.22394 0.0
H1099 H 0.57439 0.12796 0.18901 0.0
H1100 H 0.61279 0.06335 0.20741 0.0
H1101 H 0.62915 0.08206 0.24141 0.0
H1102 H 0.61705 0.06759 0.16413 0.0
H1103 H 0.54832 0.0746 0.21414 0.0
H1104 H 0.51797 0.09412 0.24011 0.0
H1105 H 0.4935 0.13929 0.18518 0.0
H1106 H 0.52394 0.12023 0.15895 0.0
H1107 H 0.54479 0.99991 0.08614 0.0
H1108 H 0.56143 0.01609 0.12183 0.0
H1109 H 0.54641 0.08562 0.09634 0.0
H1110 H 0.53044 0.06971 0.06056 0.0
H1111 H 0.52975 0.0766 0.14377 0.0
H1112 H 0.60069 0.06798 0.09437 0.0
H1113 H 0.62979 0.04553 0.06931 0.0
H1114 H 0.64839 0.99939 0.12526 0.0
H1115 H 0.61909 0.02137 0.15057 0.0
C1116 C 0.59472 0.12828 0.22049 0.0
C1117 C 0.61026 0.11577 0.23586 0.0
C1118 C 0.58596 0.11764 0.20056 0.0
C1119 C 0.59194 0.094 0.19565 0.0
C1120 C 0.60767 0.08153 0.21075 0.0
C1121 C 0.61679 0.09226 0.23049 0.0
C1122 C 0.58193 0.08238 0.17475 0.0
C1123 C 0.59788 0.06933 0.15997 0.0
C1124 C 0.55692 0.08462 0.16894 0.0
C1125 C 0.53857 0.09612 0.18465 0.0
C1126 C 0.53658 0.0888 0.20764 0.0
C1127 C 0.51935 0.09977 0.2224 0.0
C1128 C 0.50386 0.11797 0.21431 0.0
C1129 C 0.50553 0.12521 0.19143 0.0
C1130 C 0.52276 0.11431 0.1766 0.0
C1131 C 0.54512 0.01863 0.08813 0.0
C1132 C 0.53635 0.0335 0.07046 0.0
C1133 C 0.55465 0.02785 0.1085 0.0
C1134 C 0.55515 0.05208 0.11173 0.0
C1135 C 0.54618 0.0669 0.09423 0.0
C1136 C 0.53715 0.05773 0.07373 0.0
C1137 C 0.56489 0.06214 0.13334 0.0
C1138 C 0.54887 0.07485 0.14817 0.0
C1139 C 0.58968 0.0592 0.1394 0.0
C1140 C 0.60749 0.04615 0.12428 0.0
C1141 C 0.61082 0.05292 0.10127 0.0
C1142 C 0.62738 0.0403 0.08703 0.0
C1143 C 0.64087 0.021 0.09566 0.0
C1144 C 0.63789 0.01432 0.11858 0.0
C1145 C 0.62132 0.02686 0.13289 0.0
H1146 H 0.65368 0.01124 0.0846 0.0
H1147 H 0.49052 0.12644 0.22576 0.0
H1148 H 0.41139 0.51728 0.20336 0.0
H1149 H 0.42252 0.51587 0.24417 0.0
H1150 H 0.48227 0.55902 0.23089 0.0
H1151 H 0.47085 0.56123 0.19021 0.0
H1152 H 0.49247 0.52137 0.2632 0.0
H1153 H 0.43433 0.58553 0.24895 0.0
H1154 H 0.39601 0.60346 0.23377 0.0
H1155 H 0.35543 0.55944 0.27702 0.0
H1156 H 0.39355 0.54096 0.29217 0.0
H1157 H 0.51043 0.55467 0.37962 0.0
H1158 H 0.50364 0.5572 0.338 0.0
H1159 H 0.4347 0.52637 0.34615 0.0
H1160 H 0.44075 0.52494 0.38779 0.0
H1161 H 0.43061 0.55932 0.31562 0.0
H1162 H 0.48709 0.49402 0.3291 0.0
H1163 H 0.52463 0.47419 0.34395 0.0
H1164 H 0.56739 0.5179 0.30241 0.0
H1165 H 0.53007 0.53821 0.28754 0.0
C1166 C 0.42703 0.52631 0.20906 0.0
C1167 C 0.44002 0.53962 0.19355 0.0
C1168 C 0.43341 0.52539 0.23234 0.0
C1169 C 0.45299 0.53761 0.24048 0.0
C1170 C 0.46709 0.5495 0.22485 0.0
C1171 C 0.46059 0.55062 0.20158 0.0
C1172 C 0.45739 0.5396 0.26553 0.0
C1173 C 0.47913 0.52991 0.27469 0.0
C1174 C 0.43974 0.55043 0.28042 0.0
C1175 C 0.4168 0.56171 0.27152 0.0
C1176 C 0.41724 0.57954 0.25508 0.0
C1177 C 0.39555 0.58982 0.2465 0.0
C1178 C 0.37329 0.58256 0.25438 0.0
C1179 C 0.37268 0.56503 0.27091 0.0
C1180 C 0.39433 0.55466 0.2795 0.0
C1181 C 0.4936 0.54889 0.37261 0.0
C1182 C 0.47624 0.53936 0.387 0.0
C1183 C 0.48988 0.55008 0.34878 0.0
C1184 C 0.46891 0.54148 0.33891 0.0
C1185 C 0.45111 0.53292 0.35335 0.0
C1186 C 0.4547 0.53193 0.37715 0.0
C1187 C 0.46563 0.54079 0.31353 0.0
C1188 C 0.44406 0.55083 0.30422 0.0
C1189 C 0.48335 0.53004 0.29857 0.0
C1190 C 0.5058 0.51779 0.3074 0.0
C1191 C 0.5045 0.49951 0.32327 0.0
C1192 C 0.52574 0.48817 0.33166 0.0
C1193 C 0.54838 0.49483 0.32418 0.0
C1194 C 0.54983 0.51279 0.30822 0.0
C1195 C 0.52865 0.52421 0.29979 0.0
H1196 H 0.5648 0.48602 0.3307 0.0
H1197 H 0.35652 0.59054 0.24772 0.0
H1198 H 0.04713 0.44082 0.6907 0.0
H1199 H 0.03653 0.44301 0.73163 0.0
H1200 H 0.09743 0.48498 0.74462 0.0
H1201 H 0.10779 0.48353 0.70357 0.0
H1202 H 0.09519 0.44638 0.77394 0.0
H1203 H 0.04282 0.51019 0.74607 0.0
H1204 H 0.01119 0.52848 0.72103 0.0
H1205 H 0.95989 0.48107 0.74577 0.0
H1206 H 0.99134 0.46227 0.77073 0.0
H1207 H 0.07331 0.4875 0.88708 0.0
H1208 H 0.08106 0.48186 0.84598 0.0
H1209 H 0.0128 0.44956 0.83842 0.0
H1210 H 1.00429 0.4563 0.87945 0.0
H1211 H 0.01741 0.48031 0.80586 0.0
H1212 H 0.06793 0.4175 0.83508 0.0
H1213 H 0.09899 0.39797 0.8599 0.0
H1214 H 0.15302 0.441 0.83247 0.0
H1215 H 0.12221 0.46104 0.80771 0.0
C1216 C 0.05796 0.451 0.70212 0.0
C1217 C 0.07835 0.46198 0.69383 0.0
C1218 C 0.05195 0.45208 0.72554 0.0
C1219 C 0.06625 0.46411 0.74108 0.0
C1220 C 0.08629 0.47548 0.73285 0.0
C1221 C 0.0922 0.47458 0.70943 0.0
C1222 C 0.06084 0.46415 0.76606 0.0
C1223 C 0.07831 0.45402 0.78102 0.0
C1224 C 0.03844 0.47333 0.77503 0.0
C1225 C 0.01951 0.48466 0.76007 0.0
C1226 C 0.02486 0.50352 0.74601 0.0
C1227 C 0.00695 0.51402 0.73187 0.0
C1228 C 0.98356 0.5059 0.73176 0.0
C1229 C 0.97802 0.48731 0.74584 0.0
C1230 C 0.99588 0.47674 0.76001 0.0
C1231 C 0.0599 0.47922 0.87669 0.0
C1232 C 0.03809 0.47251 0.88653 0.0
C1233 C 0.06451 0.47573 0.85323 0.0
C1234 C 0.04763 0.46507 0.83914 0.0
C1235 C 0.0261 0.45778 0.84899 0.0
C1236 C 0.02138 0.46144 0.87248 0.0
C1237 C 0.05193 0.4628 0.81395 0.0
C1238 C 0.03424 0.47248 0.79888 0.0
C1239 C 0.07405 0.45295 0.80484 0.0
C1240 C 0.09269 0.4409 0.81966 0.0
C1241 C 0.08639 0.42293 0.83446 0.0
C1242 C 0.10396 0.41174 0.8485 0.0
C1243 C 0.12795 0.41827 0.84779 0.0
C1244 C 0.13443 0.43597 0.833 0.0
C1245 C 0.11692 0.44723 0.81894 0.0
H1246 H 0.14153 0.40959 0.85867 0.0
H1247 H 0.96971 0.51405 0.7208 0.0
H1248 H 0.72309 0.87112 0.8894 0.0
H1249 H 0.68741 0.88814 0.90901 0.0
H1250 H 0.72266 0.95263 0.91792 0.0
H1251 H 0.75946 0.93497 0.90041 0.0
H1252 H 0.69902 0.94689 0.9542 0.0
H1253 H 0.6761 0.94243 0.87495 0.0
H1254 H 0.67027 0.92415 0.83685 0.0
H1255 H 0.62154 0.87718 0.86684 0.0
H1256 H 0.62733 0.89499 0.90518 0.0
H1257 H 0.58652 0.01501 0.97327 0.0
H1258 H 0.62402 0.99806 0.95566 0.0
H1259 H 0.59999 0.92909 0.96717 0.0
H1260 H 0.56271 0.94585 0.98525 0.0
H1261 H 0.6174 0.93822 0.92054 0.0
H1262 H 0.64128 0.94547 1.00045 0.0
H1263 H 0.64622 0.96721 0.03685 0.0
H1264 H 0.69263 0.01353 1.00264 0.0
H1265 H 0.68765 0.99227 0.96593 0.0
C1266 C 0.72364 0.88878 0.89586 0.0
C1267 C 0.74456 0.9015 0.89312 0.0
C1268 C 0.70283 0.89873 0.90676 0.0
C1269 C 0.70187 0.92198 0.91457 0.0
C1270 C 0.72269 0.93472 0.91199 0.0
C1271 C 0.74375 0.92461 0.90157 0.0
C1272 C 0.67932 0.93287 0.92561 0.0
C1273 C 0.68127 0.94522 0.94656 0.0
C1274 C 0.65589 0.93065 0.91601 0.0
C1275 C 0.65234 0.91991 0.89297 0.0
C1276 C 0.66428 0.9281 0.87344 0.0
C1277 C 0.66096 0.91784 0.8518 0.0
C1278 C 0.64559 0.89948 0.84944 0.0
C1279 C 0.63346 0.89139 0.8687 0.0
C1280 C 0.63674 0.90157 0.89038 0.0
C1281 C 0.58926 0.99623 0.97216 0.0
C1282 C 0.57161 0.98178 0.98071 0.0
C1283 C 0.61072 0.98658 0.96212 0.0
C1284 C 0.61481 0.96231 0.96011 0.0
C1285 C 0.5972 0.94786 0.96854 0.0
C1286 C 0.57595 0.95747 0.97895 0.0
C1287 C 0.63729 0.95199 0.94892 0.0
C1288 C 0.63525 0.93983 0.928 0.0
C1289 C 0.66062 0.95483 0.95825 0.0
C1290 C 0.66389 0.96742 0.98039 0.0
C1291 C 0.65238 0.96041 1.00064 0.0
C1292 C 0.65521 0.97262 0.02134 0.0
C1293 C 0.66967 0.99178 0.02204 0.0
C1294 C 0.6814 0.9987 1.00206 0.0
C1295 C 0.6786 0.98657 0.98131 0.0
H1296 H 0.67182 1.00122 0.03808 0.0
H1297 H 0.64305 0.89156 0.83267 0.0
H1298 H 0.7664 0.14267 0.42039 0.0
H1299 H 0.80267 0.12538 0.43913 0.0
H1300 H 0.804 0.06776 0.39096 0.0
H1301 H 0.76786 0.08509 0.37189 0.0
H1302 H 0.81227 0.05294 0.43492 0.0
H1303 H 0.84303 0.11101 0.38506 0.0
H1304 H 0.84547 0.15046 0.36915 0.0
H1305 H 0.86368 0.17665 0.43616 0.0
H1306 H 0.86102 0.13739 0.45254 0.0
H1307 H 0.93182 1.00646 0.45745 0.0
H1308 H 0.89458 0.02315 0.43999 0.0
H1309 H 0.89731 0.08353 0.48441 0.0
H1310 H 0.93502 0.06722 0.50147 0.0
H1311 H 0.88654 0.09704 0.44271 0.0
H1312 H 0.85618 0.03976 0.49297 0.0
H1313 H 0.85343 1.00069 0.50968 0.0
H1314 H 0.83391 0.97349 0.44345 0.0
H1315 H 0.83687 0.01235 0.42626 0.0
C1316 C 0.77451 0.12643 0.41358 0.0
C1317 C 0.7642 0.11539 0.39447 0.0
C1318 C 0.79524 0.11652 0.42439 0.0
C1319 C 0.80627 0.09537 0.41632 0.0
C1320 C 0.79582 0.08408 0.39753 0.0
C1321 C 0.77508 0.094 0.38668 0.0
C1322 C 0.82872 0.08509 0.42743 0.0
C1323 C 0.82862 0.06247 0.43637 0.0
C1324 C 0.84988 0.09772 0.42991 0.0
C1325 C 0.85159 0.1213 0.42006 0.0
C1326 C 0.84737 0.12521 0.39644 0.0
C1327 C 0.84883 0.14753 0.38733 0.0
C1328 C 0.85467 0.16606 0.40165 0.0
C1329 C 0.85913 0.16229 0.42509 0.0
C1330 C 0.85767 0.14 0.43429 0.0
C1331 C 0.92443 0.02323 0.46363 0.0
C1332 C 0.93641 0.03546 0.48094 0.0
C1333 C 0.90302 0.03273 0.45367 0.0
C1334 C 0.89283 0.05451 0.46105 0.0
C1335 C 0.90473 0.06671 0.47839 0.0
C1336 C 0.92628 0.05731 0.48821 0.0
C1337 C 0.87016 0.06484 0.45027 0.0
C1338 C 0.8702 0.08749 0.44135 0.0
C1339 C 0.8489 0.05229 0.44797 0.0
C1340 C 0.84696 0.02893 0.45829 0.0
C1341 C 0.85147 0.02541 0.48193 0.0
C1342 C 0.84985 1.00331 0.4915 0.0
C1343 C 0.84356 0.98461 0.47762 0.0
C1344 C 0.83881 0.98799 0.45416 0.0
C1345 C 0.84043 0.01006 0.44451 0.0
H1346 H 0.84232 0.96751 0.48506 0.0
H1347 H 0.85578 0.18332 0.39456 0.0
H1348 H 0.25555 0.59549 0.08074 0.0
H1349 H 0.21346 0.58901 0.07074 0.0
H1350 H 0.23771 0.54903 0.01088 0.0
H1351 H 0.27998 0.55549 0.0208 0.0
H1352 H 0.19733 0.57752 1.0017 0.0
H1353 H 0.22299 0.52154 0.05925 0.0
H1354 H 0.24041 0.50878 0.09654 0.0
H1355 H 0.18427 0.54916 0.1326 0.0
H1356 H 0.16671 0.56245 0.0955 0.0
H1357 H 0.09067 0.51566 0.98398 0.0
H1358 H 0.13196 0.5275 0.99035 0.0
H1359 H 0.10847 0.5643 0.05237 0.0
H1360 H 0.06724 0.55214 0.0464 0.0
H1361 H 0.14851 0.53809 0.06004 0.0
H1362 H 0.12202 0.59339 1.00261 0.0
H1363 H 0.10451 0.60622 0.96538 0.0
H1364 H 0.16167 0.56741 0.92916 0.0
H1365 H 0.17935 0.55407 0.96618 0.0
C1366 C 0.25191 0.58534 0.06544 0.0
C1367 C 0.27104 0.57574 0.0517 0.0
C1368 C 0.22788 0.5817 0.05972 0.0
C1369 C 0.22252 0.56822 0.04029 0.0
C1370 C 0.2415 0.55945 0.02597 0.0
C1371 C 0.2656 0.56317 0.03164 0.0
C1372 C 0.1972 0.56241 0.03558 0.0
C1373 C 0.1867 0.56867 0.01432 0.0
C1374 C 0.18325 0.55127 0.05227 0.0
C1375 C 0.19368 0.54316 0.0746 0.0
C1376 C 0.21447 0.52784 0.07513 0.0
C1377 C 0.22435 0.52049 0.09623 0.0
C1378 C 0.21349 0.5282 0.11693 0.0
C1379 C 0.19268 0.54323 0.11656 0.0
C1380 C 0.18275 0.55066 0.0955 0.0
C1381 C 0.09425 0.52641 0.9989 0.0
C1382 C 0.0757 0.53292 0.01473 0.0
C1383 C 0.11784 0.53326 1.00244 0.0
C1384 C 0.12324 0.54697 0.02172 0.0
C1385 C 0.10468 0.55373 0.03738 0.0
C1386 C 0.08113 0.54678 0.03392 0.0
C1387 C 0.14847 0.55333 0.02619 0.0
C1388 C 0.15903 0.54706 0.04741 0.0
C1389 C 0.1624 0.56446 0.00946 0.0
C1390 C 0.15188 0.57256 0.98717 0.0
C1391 C 0.13076 0.58744 0.9867 0.0
C1392 C 0.12082 0.59483 0.96564 0.0
C1393 C 0.13194 0.58759 0.94492 0.0
C1394 C 0.15306 0.57299 0.94522 0.0
C1395 C 0.16306 0.56553 0.96624 0.0
H1396 H 0.12421 0.59333 0.92862 0.0
H1397 H 0.22117 0.52249 0.13325 0.0
H1398 H 0.23146 0.47881 0.52256 0.0
H1399 H 0.27445 0.48563 0.51653 0.0
H1400 H 0.29449 0.43241 0.56614 0.0
H1401 H 0.25163 0.42575 0.57249 0.0
H1402 H 0.31939 0.47215 0.57236 0.0
H1403 H 0.30057 0.42007 0.51055 0.0
H1404 H 0.2773 0.40685 0.47709 0.0
H1405 H 0.29413 0.46814 0.43983 0.0
H1406 H 0.31723 0.4819 0.47322 0.0
H1407 H 0.44539 0.46528 0.54647 0.0
H1408 H 0.40346 0.45496 0.55262 0.0
H1409 H 0.37973 0.50087 0.49749 0.0
H1410 H 0.42158 0.51045 0.49064 0.0
H1411 H 0.35679 0.46304 0.49466 0.0
H1412 H 0.37512 0.51568 0.55663 0.0
H1413 H 0.39836 0.52896 0.59008 0.0
H1414 H 0.3819 0.46762 0.62734 0.0
H1415 H 0.35905 0.45364 0.59391 0.0
C1416 C 0.24505 0.46867 0.53225 0.0
C1417 C 0.23825 0.45164 0.54786 0.0
C1418 C 0.26956 0.47247 0.5287 0.0
C1419 C 0.2876 0.45935 0.54075 0.0
C1420 C 0.28083 0.44264 0.55663 0.0
C1421 C 0.25638 0.43874 0.56008 0.0
C1422 C 0.31358 0.463 0.53677 0.0
C1423 C 0.3277 0.4699 0.55545 0.0
C1424 C 0.32419 0.46042 0.51462 0.0
C1425 C 0.31043 0.45212 0.49447 0.0
C1426 C 0.29915 0.43082 0.49529 0.0
C1427 C 0.28602 0.42321 0.47633 0.0
C1428 C 0.28418 0.43667 0.45637 0.0
C1429 C 0.29554 0.45775 0.45531 0.0
C1430 C 0.30867 0.46545 0.47425 0.0
C1431 C 0.43121 0.47306 0.53561 0.0
C1432 C 0.43672 0.48874 0.51815 0.0
C1433 C 0.40726 0.46725 0.53921 0.0
C1434 C 0.38837 0.47747 0.52579 0.0
C1435 C 0.39397 0.49278 0.50808 0.0
C1436 C 0.41791 0.49828 0.50422 0.0
C1437 C 0.3627 0.47252 0.53021 0.0
C1438 C 0.34858 0.46531 0.51161 0.0
C1439 C 0.35207 0.47494 0.55245 0.0
C1440 C 0.36557 0.4835 0.57266 0.0
C1441 C 0.37659 0.50494 0.57189 0.0
C1442 C 0.38968 0.51261 0.59085 0.0
C1443 C 0.39161 0.49917 0.61082 0.0
C1444 C 0.38042 0.47801 0.61186 0.0
C1445 C 0.36742 0.47019 0.5929 0.0
H1446 H 0.40174 0.50517 0.62547 0.0
H1447 H 0.27401 0.43075 0.4417 0.0
H1448 H 0.93199 0.73282 0.86201 0.0
H1449 H 0.94758 0.69683 0.88034 0.0
H1450 H 0.89959 0.71075 0.93818 0.0
H1451 H 0.88357 0.74649 0.91984 0.0
H1452 H 0.94487 0.69682 0.95258 0.0
H1453 H 0.88728 0.66989 0.89749 0.0
H1454 H 0.86928 0.66573 0.85885 0.0
H1455 H 0.93625 0.63321 0.83365 0.0
H1456 H 0.95476 0.63747 0.87209 0.0
H1457 H 0.95819 0.58596 1.00603 0.0
H1458 H 0.94272 0.62192 0.98758 0.0
H1459 H 0.98399 0.60325 0.92621 0.0
H1460 H 0.99864 0.56683 0.94424 0.0
H1461 H 0.94238 0.61999 0.91341 0.0
H1462 H 1.00054 0.64672 0.96746 0.0
H1463 H 0.01964 0.65118 1.00558 0.0
H1464 H 0.95362 0.68452 0.03205 0.0
H1465 H 0.93402 0.67998 0.99415 0.0
C1466 C 0.92451 0.72816 0.87851 0.0
C1467 C 0.90644 0.74275 0.88935 0.0
C1468 C 0.93353 0.70754 0.88903 0.0
C1469 C 0.92469 0.7009 0.91063 0.0
C1470 C 0.90682 0.71548 0.92158 0.0
C1471 C 0.89773 0.73604 0.91106 0.0
C1472 C 0.93404 0.67885 0.92188 0.0
C1473 C 0.94406 0.67998 0.94412 0.0
C1474 C 0.93362 0.65688 0.91069 0.0
C1475 C 0.92248 0.65421 0.88761 0.0
C1476 C 0.89823 0.66202 0.88366 0.0
C1477 C 0.88792 0.65961 0.86181 0.0
C1478 C 0.90163 0.64927 0.84379 0.0
C1479 C 0.92566 0.64125 0.84761 0.0
C1480 C 0.93606 0.64364 0.86943 0.0
C1481 C 0.96404 0.58955 0.98863 0.0
C1482 C 0.97974 0.57349 0.97667 0.0
C1483 C 0.95527 0.61024 0.97809 0.0
C1484 C 0.96243 0.6157 0.95552 0.0
C1485 C 0.97811 0.59961 0.94359 0.0
C1486 C 0.98657 0.57876 0.95398 0.0
C1487 C 0.95333 0.63788 0.94418 0.0
C1488 C 0.94331 0.63679 0.92191 0.0
C1489 C 0.95397 0.65994 0.95526 0.0
C1490 C 0.96575 0.66281 0.97803 0.0
C1491 C 0.99005 0.65487 0.98145 0.0
C1492 C 1.00097 0.65743 1.00301 0.0
C1493 C 0.98783 0.66808 0.02124 0.0
C1494 C 0.96376 0.67625 0.01792 0.0
C1495 C 0.95275 0.67371 0.9964 0.0
H1496 H 0.99632 0.67004 0.03792 0.0
H1497 H 0.89362 0.64742 0.82688 0.0
H1498 H 0.45212 0.6978 0.0352 0.0
H1499 H 0.46311 0.73802 0.03095 0.0
H1500 H 0.4441 0.75199 0.1022 0.0
H1501 H 0.43121 0.7125 0.10606 0.0
H1502 H 0.42763 0.78607 0.07848 0.0
H1503 H 0.50494 0.74471 0.0821 0.0
H1504 H 0.53689 0.71471 0.07169 0.0
H1505 H 0.53923 0.74156 1.00283 0.0
H1506 H 0.50705 0.77155 0.01274 0.0
H1507 H 0.48844 0.89362 0.08322 0.0
H1508 H 0.48143 0.85231 0.08993 0.0
H1509 H 0.4739 0.84133 0.01661 0.0
H1510 H 0.48023 0.88261 0.00993 0.0
H1511 H 0.50557 0.80629 0.04317 0.0
H1512 H 0.42554 0.84663 0.04131 0.0
H1513 H 0.3951 0.87712 0.05408 0.0
H1514 H 0.40057 0.85199 0.12358 0.0
H1515 H 0.43136 0.82156 0.11126 0.0
C1516 C 0.45 0.70947 0.04991 0.0
C1517 C 0.44086 0.70175 0.07102 0.0
C1518 C 0.45667 0.73241 0.04755 0.0
C1519 C 0.45488 0.74796 0.06639 0.0
C1520 C 0.44579 0.74031 0.08745 0.0
C1521 C 0.43871 0.71755 0.0897 0.0
C1522 C 0.46166 0.77244 0.06399 0.0
C1523 C 0.44487 0.79038 0.0711 0.0
C1524 C 0.48403 0.77823 0.05414 0.0
C1525 C 0.50342 0.76024 0.04811 0.0
C1526 C 0.51214 0.74411 0.06469 0.0
C1527 C 0.53031 0.72713 0.05889 0.0
C1528 C 0.54004 0.7262 0.0366 0.0
C1529 C 0.53165 0.74229 0.02008 0.0
C1530 C 0.51346 0.7593 0.02579 0.0
C1531 C 0.48541 0.88227 0.06862 0.0
C1532 C 0.48468 0.8911 0.04611 0.0
C1533 C 0.48143 0.85881 0.07243 0.0
C1534 C 0.47718 0.84394 0.05372 0.0
C1535 C 0.47723 0.85261 0.0312 0.0
C1536 C 0.48069 0.8761 0.02743 0.0
C1537 C 0.47154 0.81952 0.0576 0.0
C1538 C 0.48849 0.80174 0.05073 0.0
C1539 C 0.44956 0.81384 0.06805 0.0
C1540 C 0.43096 0.83202 0.07542 0.0
C1541 C 0.42043 0.84776 0.05936 0.0
C1542 C 0.40308 0.86499 0.0665 0.0
C1543 C 0.39596 0.86654 0.08964 0.0
C1544 C 0.40614 0.8508 0.10567 0.0
C1545 C 0.42353 0.83355 0.09861 0.0
H1546 H 0.38252 0.87988 0.09515 0.0
H1547 H 0.55411 0.71303 0.03214 0.0
H1548 H 0.10024 0.30177 0.57954 0.0
H1549 H 0.08712 0.26203 0.57889 0.0
H1550 H 0.02436 0.28421 0.53871 0.0
H1551 H 0.03761 0.32424 0.53898 0.0
H1552 H 0.01397 0.25369 0.57476 0.0
H1553 H 0.07007 0.25744 0.51174 0.0
H1554 H 0.10862 0.2663 0.4931 0.0
H1555 H 0.14765 0.21887 0.53845 0.0
H1556 H 0.10935 0.20997 0.55759 0.0
H1557 H 0.98757 0.13913 0.53648 0.0
H1558 H 0.99507 0.18037 0.54124 0.0
H1559 H 0.06301 0.16178 0.57506 0.0
H1560 H 0.05569 0.12048 0.57009 0.0
H1561 H 0.06942 0.19125 0.54132 0.0
H1562 H 0.01382 0.18738 0.60464 0.0
H1563 H 0.97557 0.17866 0.62391 0.0
H1564 H 0.93585 0.22594 0.57892 0.0
H1565 H 0.97384 0.23471 0.55916 0.0
C1566 C 0.08378 0.2982 0.57032 0.0
C1567 C 0.07017 0.31609 0.55897 0.0
C1568 C 0.07623 0.27551 0.57011 0.0
C1569 C 0.05495 0.27019 0.55853 0.0
C1570 C 0.04087 0.28804 0.54773 0.0
C1571 C 0.04845 0.31084 0.54789 0.0
C1572 C 0.04794 0.24578 0.5573 0.0
C1573 C 0.02587 0.24002 0.56716 0.0
C1574 C 0.06379 0.22801 0.54783 0.0
C1575 C 0.08685 0.2332 0.53623 0.0
C1576 C 0.08689 0.24903 0.51785 0.0
C1577 C 0.1087 0.25404 0.50718 0.0
C1578 C 0.13058 0.2432 0.51462 0.0
C1579 C 0.13069 0.22727 0.53272 0.0
C1580 C 0.10894 0.22222 0.54347 0.0
C1581 C 1.00382 0.14386 0.54542 0.0
C1582 C 0.02111 0.12663 0.55286 0.0
C1583 C 0.00809 0.16743 0.54813 0.0
C1584 C 0.02957 0.17415 0.55856 0.0
C1585 C 0.04636 0.15696 0.56686 0.0
C1586 C 0.04218 0.13341 0.56402 0.0
C1587 C 0.03554 0.19894 0.55911 0.0
C1588 C 0.05744 0.20483 0.54897 0.0
C1589 C 0.01953 0.21675 0.56839 0.0
C1590 C 0.99666 0.21152 0.58026 0.0
C1591 C 0.99691 0.19577 0.59872 0.0
C1592 C 0.97528 0.19084 0.60976 0.0
C1593 C 0.95329 0.20169 0.60261 0.0
C1594 C 0.95289 0.21753 0.58443 0.0
C1595 C 0.97447 0.2225 0.57331 0.0
H1596 H 0.93656 0.19785 0.61118 0.0
H1597 H 0.14744 0.2471 0.50633 0.0
H1598 H 0.57949 0.28477 0.36491 0.0
H1599 H 0.56416 0.32096 0.38366 0.0
H1600 H 0.61399 0.30836 0.44002 0.0
H1601 H 0.62977 0.27246 0.42125 0.0
H1602 H 0.56869 0.32193 0.45559 0.0
H1603 H 0.62496 0.34848 0.39938 0.0
H1604 H 0.64218 0.35226 0.36038 0.0
H1605 H 0.57459 0.38417 0.33667 0.0
H1606 H 0.55685 0.38028 0.37546 0.0
H1607 H 0.55485 0.43382 0.5091 0.0
H1608 H 0.5705 0.39758 0.49063 0.0
H1609 H 0.52809 0.41439 0.42986 0.0
H1610 H 0.51327 0.45104 0.44785 0.0
H1611 H 0.5698 0.39828 0.41653 0.0
H1612 H 0.5128 0.37162 0.47158 0.0
H1613 H 0.49442 0.3675 0.51005 0.0
H1614 H 0.56127 0.33537 0.53529 0.0
H1615 H 0.58016 0.33957 0.49703 0.0
C1616 C 0.58743 0.28978 0.38116 0.0
C1617 C 0.60593 0.27553 0.39149 0.0
C1618 C 0.57855 0.31049 0.39192 0.0
C1619 C 0.58799 0.31752 0.41323 0.0
C1620 C 0.60632 0.3033 0.42365 0.0
C1621 C 0.61526 0.28266 0.41289 0.0
C1622 C 0.57877 0.33962 0.42473 0.0
C1623 C 0.56919 0.33867 0.44716 0.0
C1624 C 0.57883 0.36144 0.41357 0.0
C1625 C 0.58951 0.36387 0.39027 0.0
C1626 C 0.61371 0.35613 0.3858 0.0
C1627 C 0.62357 0.35833 0.36374 0.0
C1628 C 0.60947 0.36839 0.34604 0.0
C1629 C 0.58548 0.37634 0.35039 0.0
C1630 C 0.57552 0.37416 0.37241 0.0
C1631 C 0.54877 0.42973 0.49184 0.0
C1632 C 0.53274 0.44532 0.48 0.0
C1633 C 0.55766 0.4089 0.4813 0.0
C1634 C 0.55025 0.40289 0.45888 0.0
C1635 C 0.53417 0.41849 0.44711 0.0
C1636 C 0.52562 0.43946 0.45748 0.0
C1637 C 0.55952 0.38068 0.44745 0.0
C1638 C 0.56918 0.38158 0.42501 0.0
C1639 C 0.5593 0.35878 0.45852 0.0
C1640 C 0.54795 0.35611 0.4815 0.0
C1641 C 0.52363 0.36382 0.48538 0.0
C1642 C 0.51311 0.36145 0.50714 0.0
C1643 C 0.52669 0.35124 0.52511 0.0
C1644 C 0.55079 0.34331 0.52135 0.0
C1645 C 0.5614 0.34566 0.49963 0.0
H1646 H 0.51852 0.34942 0.54195 0.0
H1647 H 0.61714 0.37008 0.32898 0.0
loop_
_geom_bond_atom_site_label_1
_geom_bond_atom_site_label_2
_geom_bond_distance
_geom_bond_site_symmetry_2
_ccdc_geom_bond_type
C0 C1 1.386 . S
C0 C2 1.397 . S
C0 H24 0.931 . S
C1 C0 1.386 . S
C1 C5 1.397 . S
C2 C0 1.397 . S
C2 C3 1.384 . S
C2 H25 0.930 . S
C3 C2 1.384 . S
C3 C4 1.377 . S
C3 C6 1.481 . S
C4 C3 1.377 . S
C4 C5 1.389 . S
C4 H26 0.929 . S
C5 C1 1.397 . S
C5 C4 1.389 . S
C5 H27 0.931 . S
C6 C3 1.481 . S
C6 C7 1.387 . S
C6 C11 1.390 . S
C7 C6 1.387 . S
C7 C8 1.401 . S
C7 H28 0.930 . S
C8 C7 1.401 . S
C8 C9 1.376 . S
C8 C17 1.511 . S
C9 C8 1.376 . S
C9 C10 1.392 . S
C9 H30 0.931 . S
C10 C9 1.392 . S
C10 C11 1.361 . S
C10 C12 1.500 . S
C11 C6 1.390 . S
C11 C10 1.361 . S
C11 H29 0.931 . S
C12 C10 1.500 . S
C12 C13 1.371 . S
C12 C14 1.365 . S
C13 C12 1.371 . S
C13 C23 1.386 . S
C13 H31 0.931 . S
C14 C12 1.365 . S
C14 C15 1.409 . S
C14 H32 0.929 . S
C15 C14 1.409 . S
C15 C16 1.380 . S
C15 H33 0.930 . S
C16 C15 1.380 . S
C16 C23 1.357 . S
C17 C8 1.511 . S
C17 C18 1.341 . S
C17 C19 1.371 . S
C18 C17 1.341 . S
C18 C22 1.394 . S
C18 H34 0.930 . S
C19 C17 1.371 . S
C19 C20 1.392 . S
C19 H35 0.931 . S
C20 C19 1.392 . S
C20 C21 1.331 . S
C20 H38 0.932 . S
C21 C20 1.331 . S
C21 C22 1.336 . S
C22 C18 1.394 . S
C22 C21 1.336 . S
C22 H37 0.929 . S
C23 C13 1.386 . S
C23 C16 1.357 . S
C23 H36 0.928 . S
H24 C0 0.931 . S
H25 C2 0.930 . S
H26 C4 0.929 . S
H27 C5 0.931 . S
H28 C7 0.930 . S
H29 C11 0.931 . S
H30 C9 0.931 . S
H31 C13 0.931 . S
H32 C14 0.929 . S
H33 C15 0.930 . S
H34 C18 0.930 . S
H35 C19 0.931 . S
H36 C23 0.928 . S
H37 C22 0.929 . S
H38 C20 0.932 . S
C39 C40 1.386 . S
C39 C41 1.397 . S
C39 H63 0.931 . S
C40 C39 1.386 . S
C40 C44 1.397 . S
C41 C39 1.397 . S
C41 C42 1.384 . S
C41 H64 0.930 . S
C42 C41 1.384 . S
C42 C43 1.377 . S
C42 C45 1.481 . S
C43 C42 1.377 . S
C43 C44 1.389 . S
C43 H65 0.929 . S
C44 C40 1.397 . S
C44 C43 1.389 . S
C44 H66 0.931 . S
C45 C42 1.481 . S
C45 C46 1.387 . S
C45 C50 1.390 . S
C46 C45 1.387 . S
C46 C47 1.401 . S
C46 H67 0.930 . S
C47 C46 1.401 . S
C47 C48 1.376 . S
C47 C56 1.511 . S
C48 C47 1.376 . S
C48 C49 1.392 . S
C48 H69 0.931 . S
C49 C48 1.392 . S
C49 C50 1.361 . S
C49 C51 1.500 . S
C50 C45 1.390 . S
C50 C49 1.361 . S
C50 H68 0.931 . S
C51 C49 1.500 . S
C51 C52 1.371 . S
C51 C53 1.365 . S
C52 C51 1.371 . S
C52 C62 1.386 . S
C52 H70 0.931 . S
C53 C51 1.365 . S
C53 C54 1.409 . S
C53 H71 0.929 . S
C54 C53 1.409 . S
C54 C55 1.380 . S
C54 H72 0.930 . S
C55 C54 1.380 . S
C55 C62 1.357 . S
C56 C47 1.511 . S
C56 C57 1.341 . S
C56 C58 1.371 . S
C57 C56 1.341 . S
C57 C61 1.394 . S
C57 H73 0.930 . S
C58 C56 1.371 . S
C58 C59 1.392 . S
C58 H74 0.931 . S
C59 C58 1.392 . S
C59 C60 1.331 . S
C59 H77 0.932 . S
C60 C59 1.331 . S
C60 C61 1.336 . S
C61 C57 1.394 . S
C61 C60 1.336 . S
C61 H76 0.929 . S
C62 C52 1.386 . S
C62 C55 1.357 . S
C62 H75 0.928 . S
H63 C39 0.931 . S
H64 C41 0.930 . S
H65 C43 0.929 . S
H66 C44 0.931 . S
H67 C46 0.930 . S
H68 C50 0.931 . S
H69 C48 0.931 . S
H70 C52 0.931 . S
H71 C53 0.929 . S
H72 C54 0.930 . S
H73 C57 0.930 . S
H74 C58 0.931 . S
H75 C62 0.928 . S
H76 C61 0.929 . S
H77 C59 0.932 . S
C78 C79 1.386 . S
C78 C80 1.397 . S
C78 H102 0.931 . S
C79 C78 1.386 . S
C79 C83 1.397 . S
C80 C78 1.397 . S
C80 C81 1.384 . S
C80 H103 0.930 . S
C81 C80 1.384 . S
C81 C82 1.377 . S
C81 C84 1.481 . S
C82 C81 1.377 . S
C82 C83 1.389 . S
C82 H104 0.929 . S
C83 C79 1.397 . S
C83 C82 1.389 . S
C83 H105 0.931 . S
C84 C81 1.481 . S
C84 C85 1.387 . S
C84 C89 1.390 . S
C85 C84 1.387 . S
C85 C86 1.401 . S
C85 H106 0.930 . S
C86 C85 1.401 . S
C86 C87 1.376 . S
C86 C95 1.511 . S
C87 C86 1.376 . S
C87 C88 1.392 . S
C87 H108 0.931 . S
C88 C87 1.392 . S
C88 C89 1.361 . S
C88 C90 1.500 . S
C89 C84 1.390 . S
C89 C88 1.361 . S
C89 H107 0.931 . S
C90 C88 1.500 . S
C90 C91 1.371 . S
C90 C92 1.365 . S
C91 C90 1.371 . S
C91 C101 1.386 . S
C91 H109 0.931 . S
C92 C90 1.365 . S
C92 C93 1.409 . S
C92 H110 0.929 . S
C93 C92 1.409 . S
C93 C94 1.380 . S
C93 H111 0.930 . S
C94 C93 1.380 . S
C94 C101 1.357 . S
C95 C86 1.511 . S
C95 C96 1.341 . S
C95 C97 1.371 . S
C96 C95 1.341 . S
C96 C100 1.394 . S
C96 H112 0.930 . S
C97 C95 1.371 . S
C97 C98 1.392 . S
C97 H113 0.931 . S
C98 C97 1.392 . S
C98 C99 1.331 . S
C98 H116 0.932 . S
C99 C98 1.331 . S
C99 C100 1.336 . S
C100 C96 1.394 . S
C100 C99 1.336 . S
C100 H115 0.929 . S
C101 C91 1.386 . S
C101 C94 1.357 . S
C101 H114 0.928 . S
H102 C78 0.931 . S
H103 C80 0.930 . S
H104 C82 0.929 . S
H105 C83 0.931 . S
H106 C85 0.930 . S
H107 C89 0.931 . S
H108 C87 0.931 . S
H109 C91 0.931 . S
H110 C92 0.929 . S
H111 C93 0.930 . S
H112 C96 0.930 . S
H113 C97 0.931 . S
H114 C101 0.928 . S
H115 C100 0.929 . S
H116 C98 0.932 . S
C117 C118 1.386 . S
C117 C119 1.397 . S
C117 H141 0.931 . S
C118 C117 1.386 . S
C118 C122 1.397 . S
C119 C117 1.397 . S
C119 C120 1.384 . S
C119 H142 0.930 . S
C120 C119 1.384 . S
C120 C121 1.377 . S
C120 C123 1.481 . S
C121 C120 1.377 . S
C121 C122 1.389 . S
C121 H143 0.929 . S
C122 C118 1.397 . S
C122 C121 1.389 . S
C122 H144 0.931 . S
C123 C120 1.481 . S
C123 C124 1.387 . S
C123 C128 1.390 . S
C124 C123 1.387 . S
C124 C125 1.401 . S
C124 H145 0.930 . S
C125 C124 1.401 . S
C125 C126 1.376 . S
C125 C134 1.511 . S
C126 C125 1.376 . S
C126 C127 1.392 . S
C126 H147 0.931 . S
C127 C126 1.392 . S
C127 C128 1.361 . S
C127 C129 1.500 . S
C128 C123 1.390 . S
C128 C127 1.361 . S
C128 H146 0.931 . S
C129 C127 1.500 . S
C129 C130 1.371 . S
C129 C131 1.365 . S
C130 C129 1.371 . S
C130 C140 1.386 . S
C130 H148 0.931 . S
C131 C129 1.365 . S
C131 C132 1.409 . S
C131 H149 0.929 . S
C132 C131 1.409 . S
C132 C133 1.380 . S
C132 H150 0.930 . S
C133 C132 1.380 . S
C133 C140 1.357 . S
C134 C125 1.511 . S
C134 C135 1.341 . S
C134 C136 1.371 . S
C135 C134 1.341 . S
C135 C139 1.394 . S
C135 H151 0.930 . S
C136 C134 1.371 . S
C136 C137 1.392 . S
C136 H152 0.931 . S
C137 C136 1.392 . S
C137 C138 1.331 . S
C137 H155 0.932 . S
C138 C137 1.331 . S
C138 C139 1.336 . S
C139 C135 1.394 . S
C139 C138 1.336 . S
C139 H154 0.929 . S
C140 C130 1.386 . S
C140 C133 1.357 . S
C140 H153 0.928 . S
H141 C117 0.931 . S
H142 C119 0.930 . S
H143 C121 0.929 . S
H144 C122 0.931 . S
H145 C124 0.930 . S
H146 C128 0.931 . S
H147 C126 0.931 . S
H148 C130 0.931 . S
H149 C131 0.929 . S
H150 C132 0.930 . S
H151 C135 0.930 . S
H152 C136 0.931 . S
H153 C140 0.928 . S
H154 C139 0.929 . S
H155 C137 0.932 . S
C156 C157 1.386 . S
C156 C158 1.397 . S
C156 H180 0.931 . S
C157 C156 1.386 . S
C157 C161 1.397 . S
C158 C156 1.397 . S
C158 C159 1.384 . S
C158 H181 0.930 . S
C159 C158 1.384 . S
C159 C160 1.377 . S
C159 C162 1.481 . S
C160 C159 1.377 . S
C160 C161 1.389 . S
C160 H182 0.929 . S
C161 C157 1.397 . S
C161 C160 1.389 . S
C161 H183 0.931 . S
C162 C159 1.481 . S
C162 C163 1.387 . S
C162 C167 1.390 . S
C163 C162 1.387 . S
C163 C164 1.401 . S
C163 H184 0.930 . S
C164 C163 1.401 . S
C164 C165 1.376 . S
C164 C173 1.511 . S
C165 C164 1.376 . S
C165 C166 1.392 . S
C165 H186 0.931 . S
C166 C165 1.392 . S
C166 C167 1.361 . S
C166 C168 1.500 . S
C167 C162 1.390 . S
C167 C166 1.361 . S
C167 H185 0.931 . S
C168 C166 1.500 . S
C168 C169 1.371 . S
C168 C170 1.365 . S
C169 C168 1.371 . S
C169 C179 1.386 . S
C169 H187 0.931 . S
C170 C168 1.365 . S
C170 C171 1.409 . S
C170 H188 0.929 . S
C171 C170 1.409 . S
C171 C172 1.380 . S
C171 H189 0.930 . S
C172 C171 1.380 . S
C172 C179 1.357 . S
C173 C164 1.511 . S
C173 C174 1.341 . S
C173 C175 1.371 . S
C174 C173 1.341 . S
C174 C178 1.394 . S
C174 H190 0.930 . S
C175 C173 1.371 . S
C175 C176 1.392 . S
C175 H191 0.931 . S
C176 C175 1.392 . S
C176 C177 1.331 . S
C176 H194 0.932 . S
C177 C176 1.331 . S
C177 C178 1.336 . S
C178 C174 1.394 . S
C178 C177 1.336 . S
C178 H193 0.929 . S
C179 C169 1.386 . S
C179 C172 1.357 . S
C179 H192 0.928 . S
H180 C156 0.931 . S
H181 C158 0.930 . S
H182 C160 0.929 . S
H183 C161 0.931 . S
H184 C163 0.930 . S
H185 C167 0.931 . S
H186 C165 0.931 . S
H187 C169 0.931 . S
H188 C170 0.929 . S
H189 C171 0.930 . S
H190 C174 0.930 . S
H191 C175 0.931 . S
H192 C179 0.928 . S
H193 C178 0.929 . S
H194 C176 0.932 . S
C195 C196 1.386 . S
C195 C197 1.397 . S
C195 H219 0.931 . S
C196 C195 1.386 . S
C196 C200 1.397 . S
C197 C195 1.397 . S
C197 C198 1.384 . S
C197 H220 0.930 . S
C198 C197 1.384 . S
C198 C199 1.377 . S
C198 C201 1.481 . S
C199 C198 1.377 . S
C199 C200 1.389 . S
C199 H221 0.929 . S
C200 C196 1.397 . S
C200 C199 1.389 . S
C200 H222 0.931 . S
C201 C198 1.481 . S
C201 C202 1.387 . S
C201 C206 1.390 . S
C202 C201 1.387 . S
C202 C203 1.401 . S
C202 H223 0.930 . S
C203 C202 1.401 . S
C203 C204 1.376 . S
C203 C212 1.511 . S
C204 C203 1.376 . S
C204 C205 1.392 . S
C204 H225 0.931 . S
C205 C204 1.392 . S
C205 C206 1.361 . S
C205 C207 1.500 . S
C206 C201 1.390 . S
C206 C205 1.361 . S
C206 H224 0.931 . S
C207 C205 1.500 . S
C207 C208 1.371 . S
C207 C209 1.365 . S
C208 C207 1.371 . S
C208 C218 1.386 . S
C208 H226 0.931 . S
C209 C207 1.365 . S
C209 C210 1.409 . S
C209 H227 0.929 . S
C210 C209 1.409 . S
C210 C211 1.380 . S
C210 H228 0.930 . S
C211 C210 1.380 . S
C211 C218 1.357 . S
C212 C203 1.511 . S
C212 C213 1.341 . S
C212 C214 1.371 . S
C213 C212 1.341 . S
C213 C217 1.394 . S
C213 H229 0.930 . S
C214 C212 1.371 . S
C214 C215 1.392 . S
C214 H230 0.931 . S
C215 C214 1.392 . S
C215 C216 1.331 . S
C215 H233 0.932 . S
C216 C215 1.331 . S
C216 C217 1.336 . S
C217 C213 1.394 . S
C217 C216 1.336 . S
C217 H232 0.929 . S
C218 C208 1.386 . S
C218 C211 1.357 . S
C218 H231 0.928 . S
H219 C195 0.931 . S
H220 C197 0.930 . S
H221 C199 0.929 . S
H222 C200 0.931 . S
H223 C202 0.930 . S
H224 C206 0.931 . S
H225 C204 0.931 . S
H226 C208 0.931 . S
H227 C209 0.929 . S
H228 C210 0.930 . S
H229 C213 0.930 . S
H230 C214 0.931 . S
H231 C218 0.928 . S
H232 C217 0.929 . S
H233 C215 0.932 . S
C234 C235 1.386 . S
C234 C236 1.397 . S
C234 H258 0.931 . S
C235 C234 1.386 . S
C235 C239 1.397 . S
C236 C234 1.397 . S
C236 C237 1.384 . S
C236 H259 0.930 . S
C237 C236 1.384 . S
C237 C238 1.377 . S
C237 C240 1.481 . S
C238 C237 1.377 . S
C238 C239 1.389 . S
C238 H260 0.929 . S
C239 C235 1.397 . S
C239 C238 1.389 . S
C239 H261 0.931 . S
C240 C237 1.481 . S
C240 C241 1.387 . S
C240 C245 1.390 . S
C241 C240 1.387 . S
C241 C242 1.401 . S
C241 H262 0.930 . S
C242 C241 1.401 . S
C242 C243 1.376 . S
C242 C251 1.511 . S
C243 C242 1.376 . S
C243 C244 1.392 . S
C243 H264 0.931 . S
C244 C243 1.392 . S
C244 C245 1.361 . S
C244 C246 1.500 . S
C245 C240 1.390 . S
C245 C244 1.361 . S
C245 H263 0.931 . S
C246 C244 1.500 . S
C246 C247 1.371 . S
C246 C248 1.365 . S
C247 C246 1.371 . S
C247 C257 1.386 . S
C247 H265 0.931 . S
C248 C246 1.365 . S
C248 C249 1.409 . S
C248 H266 0.929 . S
C249 C248 1.409 . S
C249 C250 1.380 . S
C249 H267 0.930 . S
C250 C249 1.380 . S
C250 C257 1.357 . S
C251 C242 1.511 . S
C251 C252 1.341 . S
C251 C253 1.371 . S
C252 C251 1.341 . S
C252 C256 1.394 . S
C252 H268 0.930 . S
C253 C251 1.371 . S
C253 C254 1.392 . S
C253 H269 0.931 . S
C254 C253 1.392 . S
C254 C255 1.331 . S
C254 H272 0.932 . S
C255 C254 1.331 . S
C255 C256 1.336 . S
C256 C252 1.394 . S
C256 C255 1.336 . S
C256 H271 0.929 . S
C257 C247 1.386 . S
C257 C250 1.357 . S
C257 H270 0.928 . S
H258 C234 0.931 . S
H259 C236 0.930 . S
H260 C238 0.929 . S
H261 C239 0.931 . S
H262 C241 0.930 . S
H263 C245 0.931 . S
H264 C243 0.931 . S
H265 C247 0.931 . S
H266 C248 0.929 . S
H267 C249 0.930 . S
H268 C252 0.930 . S
H269 C253 0.931 . S
H270 C257 0.928 . S
H271 C256 0.929 . S
H272 C254 0.932 . S
C273 C274 1.386 . S
C273 C275 1.397 . S
C273 H297 0.931 . S
C274 C273 1.386 . S
C274 C278 1.397 . S
C275 C273 1.397 . S
C275 C276 1.384 . S
C275 H298 0.930 . S
C276 C275 1.384 . S
C276 C277 1.377 . S
C276 C279 1.481 . S
C277 C276 1.377 . S
C277 C278 1.389 . S
C277 H299 0.929 . S
C278 C274 1.397 . S
C278 C277 1.389 . S
C278 H300 0.931 . S
C279 C276 1.481 . S
C279 C280 1.387 . S
C279 C284 1.390 . S
C280 C279 1.387 . S
C280 C281 1.401 . S
C280 H301 0.930 . S
C281 C280 1.401 . S
C281 C282 1.376 . S
C281 C290 1.511 . S
C282 C281 1.376 . S
C282 C283 1.392 . S
C282 H303 0.931 . S
C283 C282 1.392 . S
C283 C284 1.361 . S
C283 C285 1.500 . S
C284 C279 1.390 . S
C284 C283 1.361 . S
C284 H302 0.931 . S
C285 C283 1.500 . S
C285 C286 1.371 . S
C285 C287 1.365 . S
C286 C285 1.371 . S
C286 C296 1.386 . S
C286 H304 0.931 . S
C287 C285 1.365 . S
C287 C288 1.409 . S
C287 H305 0.929 . S
C288 C287 1.409 . S
C288 C289 1.380 . S
C288 H306 0.930 . S
C289 C288 1.380 . S
C289 C296 1.357 . S
C290 C281 1.511 . S
C290 C291 1.341 . S
C290 C292 1.371 . S
C291 C290 1.341 . S
C291 C295 1.394 . S
C291 H307 0.930 . S
C292 C290 1.371 . S
C292 C293 1.392 . S
C292 H308 0.931 . S
C293 C292 1.392 . S
C293 C294 1.331 . S
C293 H311 0.932 . S
C294 C293 1.331 . S
C294 C295 1.336 . S
C295 C291 1.394 . S
C295 C294 1.336 . S
C295 H310 0.929 . S
C296 C286 1.386 . S
C296 C289 1.357 . S
C296 H309 0.928 . S
H297 C273 0.931 . S
H298 C275 0.930 . S
H299 C277 0.929 . S
H300 C278 0.931 . S
H301 C280 0.930 . S
H302 C284 0.931 . S
H303 C282 0.931 . S
H304 C286 0.931 . S
H305 C287 0.929 . S
H306 C288 0.930 . S
H307 C291 0.930 . S
H308 C292 0.931 . S
H309 C296 0.928 . S
H310 C295 0.929 . S
H311 C293 0.932 . S
C312 O328 1.251 . S
C312 O330 1.254 1_545 S
N313 C314 1.333 . S
N313 C318 1.307 . S
N313 Zn319 2.020 . S
C314 N313 1.333 . S
C314 C315 1.379 . S
C314 H332 0.952 . S
C315 C314 1.379 . S
C315 C316 1.390 . S
C315 H342 0.949 . S
C316 C315 1.390 . S
C316 C317 1.357 . S
C317 C316 1.357 . S
C317 C318 1.370 . S
C317 H343 0.950 . S
C318 N313 1.307 . S
C318 C317 1.370 . S
C318 H336 0.948 1_455 S
Zn319 N313 2.020 . S
Zn319 O328 2.039 . S
Zn319 O334 2.034 . S
Zn319 O338 2.025 1_455 S
Zn319 O340 2.024 1_455 S
C320 O339 1.246 1_545 S
C320 O340 1.249 . S
N321 C322 1.307 . S
N321 C323 1.333 . S
N321 Zn327 2.020 . S
C322 N321 1.307 . S
C322 C326 1.370 . S
C322 H333 0.948 1_655 S
C323 N321 1.333 . S
C323 C324 1.379 . S
C323 H331 0.952 . S
C324 C323 1.379 . S
C324 C325 1.390 . S
C324 H344 0.949 . S
C325 C324 1.390 . S
C325 C326 1.357 . S
C326 C322 1.370 . S
C326 C325 1.357 . S
C326 H345 0.954 . S
Zn327 N321 2.020 . S
Zn327 O330 2.025 1_655 S
Zn327 O335 2.024 1_655 S
Zn327 O337 2.039 . S
Zn327 O339 2.034 . S
O328 C312 1.251 . S
O328 Zn319 2.039 . S
C329 O334 1.246 1_565 S
C329 O335 1.249 . S
O330 C312 1.254 1_565 S
O330 Zn327 2.025 1_455 S
H331 C323 0.952 . S
H332 C314 0.952 . S
H333 C322 0.948 1_455 S
O334 Zn319 2.034 . S
O334 C329 1.246 1_545 S
O335 Zn327 2.024 1_455 S
O335 C329 1.249 . S
H336 C318 0.948 1_655 S
O337 Zn327 2.039 . S
O337 C341 1.251 . S
O338 Zn319 2.025 1_655 S
O338 C341 1.254 1_545 S
O339 C320 1.246 1_565 S
O339 Zn327 2.034 . S
O340 Zn319 2.024 1_655 S
O340 C320 1.249 . S
C341 O337 1.251 . S
C341 O338 1.254 1_565 S
H342 C315 0.949 . S
H343 C317 0.950 . S
H344 C324 0.949 . S
H345 C326 0.954 . S
C346 O362 1.251 1_565 S
C346 O364 1.254 . S
N347 C348 1.333 . S
N347 C352 1.307 . S
N347 Zn353 2.020 . S
C348 N347 1.333 . S
C348 C349 1.379 . S
C348 H366 0.952 . S
C349 C348 1.379 . S
C349 C350 1.390 . S
C349 H376 0.949 . S
C350 C349 1.390 . S
C350 C351 1.357 . S
C351 C350 1.357 . S
C351 C352 1.370 . S
C351 H377 0.950 . S
C352 N347 1.307 . S
C352 C351 1.370 . S
C352 H370 0.948 . S
Zn353 N347 2.020 . S
Zn353 O362 2.039 . S
Zn353 O368 2.034 1_556 S
Zn353 O372 2.025 1_556 S
Zn353 O374 2.024 . S
C354 O373 1.246 . S
C354 O374 1.249 1_565 S
N355 C356 1.307 . S
N355 C357 1.333 . S
N355 Zn361 2.020 . S
C356 N355 1.307 . S
C356 C360 1.370 . S
C356 H367 0.948 . S
C357 N355 1.333 . S
C357 C358 1.379 . S
C357 H365 0.952 . S
C358 C357 1.379 . S
C358 C359 1.390 . S
C358 H378 0.949 . S
C359 C358 1.390 . S
C359 C360 1.357 . S
C360 C356 1.370 . S
C360 C359 1.357 . S
C360 H379 0.950 . S
Zn361 N355 2.020 . S
Zn361 O364 2.025 1_554 S
Zn361 O369 2.024 . S
Zn361 O371 2.039 . S
Zn361 O373 2.034 1_554 S
O362 C346 1.251 1_545 S
O362 Zn353 2.039 . S
C363 O368 1.246 . S
C363 O369 1.249 1_545 S
O364 C346 1.254 . S
O364 Zn361 2.025 1_556 S
H365 C357 0.952 . S
H366 C348 0.952 . S
H367 C356 0.948 . S
O368 Zn353 2.034 1_554 S
O368 C363 1.246 . S
O369 Zn361 2.024 . S
O369 C363 1.249 1_565 S
H370 C352 0.948 . S
O371 Zn361 2.039 . S
O371 C375 1.251 1_565 S
O372 Zn353 2.025 1_554 S
O372 C375 1.254 . S
O373 C354 1.246 . S
O373 Zn361 2.034 1_556 S
O374 Zn353 2.024 . S
O374 C354 1.249 1_545 S
C375 O371 1.251 1_545 S
C375 O372 1.254 . S
H376 C349 0.949 . S
H377 C351 0.950 . S
H378 C358 0.949 . S
H379 C360 0.950 . S
C380 O396 1.251 . S
C380 O398 1.254 . S
N381 C382 1.333 . S
N381 C386 1.307 . S
N381 Zn387 2.020 . S
C382 N381 1.333 . S
C382 C383 1.379 . S
C382 H400 0.952 . S
C383 C382 1.379 . S
C383 C384 1.390 . S
C383 H410 0.949 . S
C384 C383 1.390 . S
C384 C385 1.357 . S
C385 C384 1.357 . S
C385 C386 1.370 . S
C385 H411 0.950 . S
C386 N381 1.307 . S
C386 C385 1.370 . S
C386 H404 0.948 . S
Zn387 N381 2.020 . S
Zn387 O396 2.039 . S
Zn387 O402 2.034 . S
Zn387 O406 2.025 . S
Zn387 O408 2.024 . S
C388 O407 1.246 . S
C388 O408 1.249 . S
N389 C390 1.307 . S
N389 C391 1.333 . S
N389 Zn395 2.020 . S
C390 N389 1.307 . S
C390 C394 1.370 . S
C390 H401 0.948 . S
C391 N389 1.333 . S
C391 C392 1.379 . S
C391 H399 0.952 . S
C392 C391 1.379 . S
C392 C393 1.390 . S
C392 H412 0.949 . S
C393 C392 1.390 . S
C393 C394 1.357 . S
C394 C390 1.370 . S
C394 C393 1.357 . S
C394 H413 0.950 . S
Zn395 N389 2.020 . S
Zn395 O398 2.025 . S
Zn395 O403 2.024 . S
Zn395 O405 2.039 . S
Zn395 O407 2.034 . S
O396 C380 1.251 . S
O396 Zn387 2.039 . S
C397 O402 1.246 . S
C397 O403 1.249 . S
O398 C380 1.254 . S
O398 Zn395 2.025 . S
H399 C391 0.952 . S
H400 C382 0.952 . S
H401 C390 0.948 . S
O402 Zn387 2.034 . S
O402 C397 1.246 . S
O403 Zn395 2.024 . S
O403 C397 1.249 . S
H404 C386 0.948 . S
O405 Zn395 2.039 . S
O405 C409 1.251 . S
O406 Zn387 2.025 . S
O406 C409 1.254 . S
O407 C388 1.246 . S
O407 Zn395 2.034 . S
O408 Zn387 2.024 . S
O408 C388 1.249 . S
C409 O405 1.251 . S
C409 O406 1.254 . S
H410 C383 0.949 . S
H411 C385 0.950 . S
H412 C392 0.949 . S
H413 C394 0.950 . S
C414 O430 1.251 1_556 S
C414 O432 1.254 . S
N415 C416 1.333 . S
N415 C420 1.307 . S
N415 Zn421 2.020 . S
C416 N415 1.333 . S
C416 C417 1.379 . S
C416 H434 0.952 . S
C417 C416 1.379 . S
C417 C418 1.390 . S
C417 H444 0.949 . S
C418 C417 1.390 . S
C418 C419 1.357 . S
C419 C418 1.357 . S
C419 C420 1.370 . S
C419 H445 0.950 . S
C420 N415 1.307 . S
C420 C419 1.370 . S
C420 H438 0.948 . S
Zn421 N415 2.020 . S
Zn421 O430 2.039 . S
Zn421 O436 2.034 1_655 S
Zn421 O440 2.025 1_655 S
Zn421 O442 2.024 . S
C422 O441 1.246 . S
C422 O442 1.249 1_556 S
N423 C424 1.307 . S
N423 C425 1.333 . S
N423 Zn429 2.020 . S
C424 N423 1.307 . S
C424 C428 1.370 . S
C424 H435 0.948 . S
C425 N423 1.333 . S
C425 C426 1.379 . S
C425 H433 0.952 . S
C426 C425 1.379 . S
C426 C427 1.390 . S
C426 H446 0.949 . S
C427 C426 1.390 . S
C427 C428 1.357 . S
C428 C424 1.370 . S
C428 C427 1.357 . S
C428 H447 0.950 . S
Zn429 N423 2.020 . S
Zn429 O432 2.025 1_455 S
Zn429 O437 2.024 . S
Zn429 O439 2.039 . S
Zn429 O441 2.034 1_455 S
O430 C414 1.251 1_554 S
O430 Zn421 2.039 . S
C431 O436 1.246 . S
C431 O437 1.249 1_554 S
O432 C414 1.254 . S
O432 Zn429 2.025 1_655 S
H433 C425 0.952 . S
H434 C416 0.952 . S
H435 C424 0.948 . S
O436 Zn421 2.034 1_455 S
O436 C431 1.246 . S
O437 Zn429 2.024 . S
O437 C431 1.249 1_556 S
H438 C420 0.948 . S
O439 Zn429 2.039 . S
O439 C443 1.251 1_556 S
O440 Zn421 2.025 1_455 S
O440 C443 1.254 . S
O441 C422 1.246 . S
O441 Zn429 2.034 1_655 S
O442 Zn421 2.024 . S
O442 C422 1.249 1_554 S
C443 O439 1.251 1_554 S
C443 O440 1.254 . S
H444 C417 0.949 . S
H445 C419 0.950 . S
H446 C426 0.949 . S
H447 C428 0.950 . S
H448 C466 0.951 . S
H449 C468 0.951 . S
H450 C470 0.950 . S
H451 C471 0.950 . S
H452 C473 0.950 . S
H453 C476 0.950 . S
H454 C477 0.950 . S
H455 C479 0.950 . S
H456 C480 0.950 . S
H457 C481 0.951 1_565 S
H458 C483 0.951 . S
H459 C485 0.950 . S
H460 C486 0.950 . S
H461 C488 0.950 . S
H462 C491 0.950 . S
H463 C492 0.950 . S
H464 C494 0.950 . S
H465 C495 0.950 . S
C466 H448 0.951 . S
C466 C467 1.366 . S
C466 C468 1.388 . S
C467 C466 1.366 . S
C467 C471 1.385 . S
C468 H449 0.951 . S
C468 C466 1.388 . S
C468 C469 1.366 . S
C469 C468 1.366 . S
C469 C470 1.414 . S
C469 C472 1.499 . S
C470 H450 0.950 . S
C470 C469 1.414 . S
C470 C471 1.374 . S
C471 H451 0.950 . S
C471 C467 1.385 . S
C471 C470 1.374 . S
C472 C469 1.499 . S
C472 C473 1.373 . S
C472 C474 1.389 . S
C473 H452 0.950 . S
C473 C472 1.373 . S
C473 C489 1.377 . S
C474 C472 1.389 . S
C474 C475 1.524 . S
C474 C488 1.377 . S
C475 C474 1.524 . S
C475 C476 1.397 . S
C475 C480 1.363 . S
C476 H453 0.950 . S
C476 C475 1.397 . S
C476 C477 1.334 . S
C477 H454 0.950 . S
C477 C476 1.334 . S
C477 C478 1.287 . S
C478 C477 1.287 . S
C478 C479 1.524 . S
C478 H497 0.913 . S
C479 H455 0.950 . S
C479 C478 1.524 . S
C479 C480 1.415 . S
C480 H456 0.950 . S
C480 C475 1.363 . S
C480 C479 1.415 . S
C481 H457 0.951 1_545 S
C481 C482 1.366 . S
C481 C483 1.388 . S
C482 C481 1.366 . S
C482 C486 1.385 . S
C483 H458 0.951 . S
C483 C481 1.388 . S
C483 C484 1.366 . S
C484 C483 1.366 . S
C484 C485 1.414 . S
C484 C487 1.499 . S
C485 H459 0.950 . S
C485 C484 1.414 . S
C485 C486 1.374 . S
C486 H460 0.950 . S
C486 C482 1.385 . S
C486 C485 1.374 . S
C487 C484 1.499 . S
C487 C488 1.373 . S
C487 C489 1.389 . S
C488 H461 0.950 . S
C488 C474 1.377 . S
C488 C487 1.373 . S
C489 C473 1.377 . S
C489 C487 1.389 . S
C489 C490 1.542 . S
C490 C489 1.542 . S
C490 C491 1.388 1_455 S
C490 C495 1.354 1_455 S
C491 H462 0.950 . S
C491 C490 1.388 1_655 S
C491 C492 1.334 . S
C492 H463 0.950 . S
C492 C491 1.334 . S
C492 C493 1.287 . S
C493 C492 1.287 . S
C493 C494 1.524 . S
C493 H496 0.999 . S
C494 H464 0.950 . S
C494 C493 1.524 . S
C494 C495 1.415 . S
C495 H465 0.950 . S
C495 C490 1.354 1_655 S
C495 C494 1.415 . S
H496 C493 0.999 . S
H497 C478 0.913 . S
H498 C516 0.951 . S
H499 C518 0.951 . S
H500 C520 0.950 . S
H501 C521 0.950 . S
H502 C523 0.950 . S
H503 C526 0.950 . S
H504 C527 0.950 . S
H505 C529 0.950 1_545 S
H506 C530 0.950 . S
H507 C531 0.951 . S
H508 C533 0.951 . S
H509 C535 0.950 1_545 S
H510 C536 0.950 1_545 S
H511 C538 0.950 . S
H512 C541 0.950 . S
H513 C542 0.950 . S
H514 C544 0.950 . S
H515 C545 0.950 . S
C516 H498 0.951 . S
C516 C517 1.366 . S
C516 C518 1.388 . S
C517 C516 1.366 . S
C517 C521 1.385 . S
C518 H499 0.951 . S
C518 C516 1.388 . S
C518 C519 1.366 . S
C519 C518 1.366 . S
C519 C520 1.414 . S
C519 C522 1.499 . S
C520 H500 0.950 . S
C520 C519 1.414 . S
C520 C521 1.374 . S
C521 H501 0.950 . S
C521 C517 1.385 . S
C521 C520 1.374 . S
C522 C519 1.499 . S
C522 C523 1.373 . S
C522 C524 1.389 . S
C523 H502 0.950 . S
C523 C522 1.373 . S
C523 C539 1.377 . S
C524 C522 1.389 . S
C524 C525 1.524 . S
C524 C538 1.377 . S
C525 C524 1.524 . S
C525 C526 1.397 . S
C525 C530 1.363 . S
C526 H503 0.950 . S
C526 C525 1.397 . S
C526 C527 1.334 . S
C527 H504 0.950 . S
C527 C526 1.334 . S
C527 C528 1.287 . S
C528 C527 1.287 . S
C528 C529 1.524 . S
C528 H547 0.913 . S
C529 H505 0.950 1_565 S
C529 C528 1.524 . S
C529 C530 1.415 . S
C530 H506 0.950 . S
C530 C525 1.363 . S
C530 C529 1.415 . S
C531 H507 0.951 . S
C531 C532 1.366 . S
C531 C533 1.388 . S
C532 C531 1.366 . S
C532 C536 1.385 . S
C533 H508 0.951 . S
C533 C531 1.388 . S
C533 C534 1.366 . S
C534 C533 1.366 . S
C534 C535 1.414 . S
C534 C537 1.499 . S
C535 H509 0.950 1_565 S
C535 C534 1.414 . S
C535 C536 1.374 . S
C536 H510 0.950 1_565 S
C536 C532 1.385 . S
C536 C535 1.374 . S
C537 C534 1.499 . S
C537 C538 1.373 . S
C537 C539 1.389 . S
C538 H511 0.950 . S
C538 C524 1.377 . S
C538 C537 1.373 . S
C539 C523 1.377 . S
C539 C537 1.389 . S
C539 C540 1.524 . S
C540 C539 1.524 . S
C540 C541 1.397 . S
C540 C545 1.363 . S
C541 H512 0.950 . S
C541 C540 1.397 . S
C541 C542 1.334 . S
C542 H513 0.950 . S
C542 C541 1.334 . S
C542 C543 1.287 . S
C543 C542 1.287 . S
C543 C544 1.524 . S
C543 H546 0.999 . S
C544 H514 0.950 . S
C544 C543 1.524 . S
C544 C545 1.415 . S
C545 H515 0.950 . S
C545 C540 1.363 . S
C545 C544 1.415 . S
H546 C543 0.999 . S
H547 C528 0.913 . S
H548 C566 0.951 . S
H549 C568 0.951 . S
H550 C570 0.950 . S
H551 C571 0.950 . S
H552 C573 0.950 . S
H553 C576 0.950 . S
H554 C577 0.950 . S
H555 C579 0.950 . S
H556 C580 0.950 . S
H557 C581 0.951 . S
H558 C583 0.951 . S
H559 C585 0.950 . S
H560 C586 0.950 . S
H561 C588 0.950 . S
H562 C591 0.950 . S
H563 C592 0.950 . S
H564 C594 0.950 . S
H565 C595 0.950 . S
C566 H548 0.951 . S
C566 C567 1.366 . S
C566 C568 1.388 . S
C567 C566 1.366 . S
C567 C571 1.385 . S
C568 H549 0.951 . S
C568 C566 1.388 . S
C568 C569 1.366 . S
C569 C568 1.366 . S
C569 C570 1.414 . S
C569 C572 1.499 . S
C570 H550 0.950 . S
C570 C569 1.414 . S
C570 C571 1.374 . S
C571 H551 0.950 . S
C571 C567 1.385 . S
C571 C570 1.374 . S
C572 C569 1.499 . S
C572 C573 1.373 . S
C572 C574 1.389 . S
C573 H552 0.950 . S
C573 C572 1.373 . S
C573 C589 1.377 . S
C574 C572 1.389 . S
C574 C575 1.524 . S
C574 C588 1.377 . S
C575 C574 1.524 . S
C575 C576 1.397 . S
C575 C580 1.363 . S
C576 H553 0.950 . S
C576 C575 1.397 . S
C576 C577 1.334 . S
C577 H554 0.950 . S
C577 C576 1.334 . S
C577 C578 1.287 . S
C578 C577 1.287 . S
C578 C579 1.524 . S
C578 H597 0.913 . S
C579 H555 0.950 . S
C579 C578 1.524 . S
C579 C580 1.415 . S
C580 H556 0.950 . S
C580 C575 1.363 . S
C580 C579 1.415 . S
C581 H557 0.951 . S
C581 C582 1.366 . S
C581 C583 1.388 . S
C582 C581 1.366 . S
C582 C586 1.385 . S
C583 H558 0.951 . S
C583 C581 1.388 . S
C583 C584 1.366 . S
C584 C583 1.366 . S
C584 C585 1.414 . S
C584 C587 1.499 . S
C585 H559 0.950 . S
C585 C584 1.414 . S
C585 C586 1.374 . S
C586 H560 0.950 . S
C586 C582 1.385 . S
C586 C585 1.374 . S
C587 C584 1.499 . S
C587 C588 1.373 . S
C587 C589 1.389 . S
C588 H561 0.950 . S
C588 C574 1.377 . S
C588 C587 1.373 . S
C589 C573 1.377 . S
C589 C587 1.389 . S
C589 C590 1.524 . S
C590 C589 1.524 . S
C590 C591 1.397 . S
C590 C595 1.363 . S
C591 H562 0.950 . S
C591 C590 1.397 . S
C591 C592 1.334 . S
C592 H563 0.950 . S
C592 C591 1.334 . S
C592 C593 1.287 . S
C593 C592 1.287 . S
C593 C594 1.524 . S
C593 H596 0.999 . S
C594 H564 0.950 . S
C594 C593 1.524 . S
C594 C595 1.415 . S
C595 H565 0.950 . S
C595 C590 1.363 . S
C595 C594 1.415 . S
H596 C593 0.999 . S
H597 C578 0.913 . S
H598 C616 0.951 . S
H599 C618 0.951 . S
H600 C620 0.950 . S
H601 C621 0.950 . S
H602 C623 0.950 . S
H603 C626 0.950 . S
H604 C627 0.950 . S
H605 C629 0.950 . S
H606 C630 0.950 . S
H607 C631 0.951 . S
H608 C633 0.951 . S
H609 C635 0.950 . S
H610 C636 0.950 . S
H611 C638 0.950 . S
H612 C641 0.950 . S
H613 C642 0.950 . S
H614 C644 0.950 . S
H615 C645 0.950 1_655 S
C616 H598 0.951 . S
C616 C617 1.366 . S
C616 C618 1.388 . S
C617 C616 1.366 . S
C617 C621 1.385 . S
C618 H599 0.951 . S
C618 C616 1.388 . S
C618 C619 1.366 . S
C619 C618 1.366 . S
C619 C620 1.414 . S
C619 C622 1.499 . S
C620 H600 0.950 . S
C620 C619 1.414 . S
C620 C621 1.374 . S
C621 H601 0.950 . S
C621 C617 1.385 . S
C621 C620 1.374 . S
C622 C619 1.499 . S
C622 C623 1.373 . S
C622 C624 1.389 . S
C623 H602 0.950 . S
C623 C622 1.373 . S
C623 C639 1.377 . S
C624 C622 1.389 . S
C624 C625 1.524 . S
C624 C638 1.377 . S
C625 C624 1.524 . S
C625 C626 1.397 . S
C625 C630 1.363 . S
C626 H603 0.950 . S
C626 C625 1.397 . S
C626 C627 1.334 . S
C627 H604 0.950 . S
C627 C626 1.334 . S
C627 C628 1.287 . S
C628 C627 1.287 . S
C628 C629 1.524 . S
C628 H647 0.913 . S
C629 H605 0.950 . S
C629 C628 1.524 . S
C629 C630 1.415 . S
C630 H606 0.950 . S
C630 C625 1.363 . S
C630 C629 1.415 . S
C631 H607 0.951 . S
C631 C632 1.366 . S
C631 C633 1.388 . S
C632 C631 1.366 . S
C632 C636 1.385 . S
C633 H608 0.951 . S
C633 C631 1.388 . S
C633 C634 1.366 . S
C634 C633 1.366 . S
C634 C635 1.414 . S
C634 C637 1.499 . S
C635 H609 0.950 . S
C635 C634 1.414 . S
C635 C636 1.374 . S
C636 H610 0.950 . S
C636 C632 1.385 . S
C636 C635 1.374 . S
C637 C634 1.499 . S
C637 C638 1.373 . S
C637 C639 1.389 . S
C638 H611 0.950 . S
C638 C624 1.377 . S
C638 C637 1.373 . S
C639 C623 1.377 . S
C639 C637 1.389 . S
C639 C640 1.524 . S
C640 C639 1.524 . S
C640 C641 1.397 . S
C640 C645 1.363 1_655 S
C641 H612 0.950 . S
C641 C640 1.397 . S
C641 C642 1.334 1_655 S
C642 H613 0.950 . S
C642 C641 1.334 1_455 S
C642 C643 1.287 . S
C643 C642 1.287 . S
C643 C644 1.524 . S
C643 H646 0.999 . S
C644 H614 0.950 . S
C644 C643 1.524 . S
C644 C645 1.415 . S
C645 H615 0.950 1_455 S
C645 C640 1.363 1_455 S
C645 C644 1.415 . S
H646 C643 0.999 . S
H647 C628 0.913 . S
H648 C666 0.951 . S
H649 C668 0.951 . S
H650 C670 0.950 . S
H651 C671 0.950 . S
H652 C673 0.950 . S
H653 C676 0.950 . S
H654 C677 0.950 . S
H655 C679 0.950 . S
H656 C680 0.950 . S
H657 C681 0.951 . S
H658 C683 0.951 . S
H659 C685 0.950 . S
H660 C686 0.950 1_565 S
H661 C688 0.950 . S
H662 C691 0.950 1_556 S
H663 C692 0.950 . S
H664 C694 0.950 . S
H665 C695 0.950 . S
C666 H648 0.951 . S
C666 C667 1.366 . S
C666 C668 1.388 . S
C667 C666 1.366 . S
C667 C671 1.385 . S
C668 H649 0.951 . S
C668 C666 1.388 . S
C668 C669 1.366 . S
C669 C668 1.366 . S
C669 C670 1.414 . S
C669 C672 1.499 . S
C670 H650 0.950 . S
C670 C669 1.414 . S
C670 C671 1.374 . S
C671 H651 0.950 . S
C671 C667 1.385 . S
C671 C670 1.374 . S
C672 C669 1.499 . S
C672 C673 1.373 . S
C672 C674 1.389 . S
C673 H652 0.950 . S
C673 C672 1.373 . S
C673 C689 1.377 . S
C674 C672 1.389 . S
C674 C675 1.524 . S
C674 C688 1.377 . S
C675 C674 1.524 . S
C675 C676 1.397 . S
C675 C680 1.363 1_545 S
C676 H653 0.950 . S
C676 C675 1.397 . S
C676 C677 1.334 . S
C677 H654 0.950 . S
C677 C676 1.334 . S
C677 C678 1.287 1_545 S
C678 C677 1.287 1_565 S
C678 C679 1.524 . S
C678 H697 0.913 . S
C679 H655 0.950 . S
C679 C678 1.524 . S
C679 C680 1.415 . S
C680 H656 0.950 . S
C680 C675 1.363 1_565 S
C680 C679 1.415 . S
C681 H657 0.951 . S
C681 C682 1.366 . S
C681 C683 1.388 . S
C682 C681 1.366 . S
C682 C686 1.385 . S
C683 H658 0.951 . S
C683 C681 1.388 . S
C683 C684 1.366 . S
C684 C683 1.366 . S
C684 C685 1.414 . S
C684 C687 1.499 . S
C685 H659 0.950 . S
C685 C684 1.414 . S
C685 C686 1.374 . S
C686 H660 0.950 1_545 S
C686 C682 1.385 . S
C686 C685 1.374 . S
C687 C684 1.499 . S
C687 C688 1.373 . S
C687 C689 1.389 . S
C688 H661 0.950 . S
C688 C674 1.377 . S
C688 C687 1.373 . S
C689 C673 1.377 . S
C689 C687 1.389 . S
C689 C690 1.524 . S
C690 C689 1.524 . S
C690 C691 1.397 . S
C690 C695 1.363 . S
C691 H662 0.950 1_554 S
C691 C690 1.397 . S
C691 C692 1.334 1_554 S
C692 H663 0.950 . S
C692 C691 1.334 1_556 S
C692 C693 1.287 . S
C693 C692 1.287 . S
C693 C694 1.524 1_556 S
C693 H696 0.999 . S
C694 H664 0.950 . S
C694 C693 1.524 1_554 S
C694 C695 1.415 . S
C695 H665 0.950 . S
C695 C690 1.363 . S
C695 C694 1.415 . S
H696 C693 0.999 . S
H697 C678 0.913 . S
H698 C716 0.951 . S
H699 C718 0.951 . S
H700 C720 0.950 . S
H701 C721 0.950 . S
H702 C723 0.950 . S
H703 C726 0.950 . S
H704 C727 0.950 . S
H705 C729 0.950 . S
H706 C730 0.950 . S
H707 C731 0.951 . S
H708 C733 0.951 . S
H709 C735 0.950 . S
H710 C736 0.950 1_545 S
H711 C738 0.950 . S
H712 C741 0.950 . S
H713 C742 0.950 . S
H714 C744 0.950 . S
H715 C745 0.950 . S
C716 H698 0.951 . S
C716 C717 1.366 . S
C716 C718 1.388 . S
C717 C716 1.366 . S
C717 C721 1.385 . S
C718 H699 0.951 . S
C718 C716 1.388 . S
C718 C719 1.366 . S
C719 C718 1.366 . S
C719 C720 1.414 . S
C719 C722 1.499 . S
C720 H700 0.950 . S
C720 C719 1.414 . S
C720 C721 1.374 . S
C721 H701 0.950 . S
C721 C717 1.385 . S
C721 C720 1.374 . S
C722 C719 1.499 . S
C722 C723 1.373 . S
C722 C724 1.389 . S
C723 H702 0.950 . S
C723 C722 1.373 . S
C723 C739 1.377 . S
C724 C722 1.389 . S
C724 C725 1.524 . S
C724 C738 1.377 . S
C725 C724 1.524 . S
C725 C726 1.397 . S
C725 C730 1.363 1_565 S
C726 H703 0.950 . S
C726 C725 1.397 . S
C726 C727 1.334 . S
C727 H704 0.950 . S
C727 C726 1.334 . S
C727 C728 1.287 1_565 S
C728 C727 1.287 1_545 S
C728 C729 1.524 . S
C728 H747 0.913 . S
C729 H705 0.950 . S
C729 C728 1.524 . S
C729 C730 1.415 . S
C730 H706 0.950 . S
C730 C725 1.363 1_545 S
C730 C729 1.415 . S
C731 H707 0.951 . S
C731 C732 1.366 . S
C731 C733 1.388 . S
C732 C731 1.366 . S
C732 C736 1.385 . S
C733 H708 0.951 . S
C733 C731 1.388 . S
C733 C734 1.366 . S
C734 C733 1.366 . S
C734 C735 1.414 . S
C734 C737 1.499 . S
C735 H709 0.950 . S
C735 C734 1.414 . S
C735 C736 1.374 . S
C736 H710 0.950 1_565 S
C736 C732 1.385 . S
C736 C735 1.374 . S
C737 C734 1.499 . S
C737 C738 1.373 . S
C737 C739 1.389 . S
C738 H711 0.950 . S
C738 C724 1.377 . S
C738 C737 1.373 . S
C739 C723 1.377 . S
C739 C737 1.389 . S
C739 C740 1.524 . S
C740 C739 1.524 . S
C740 C741 1.397 . S
C740 C745 1.363 . S
C741 H712 0.950 . S
C741 C740 1.397 . S
C741 C742 1.334 . S
C742 H713 0.950 . S
C742 C741 1.334 . S
C742 C743 1.287 . S
C743 C742 1.287 . S
C743 C744 1.524 . S
C743 H746 0.999 . S
C744 H714 0.950 . S
C744 C743 1.524 . S
C744 C745 1.415 . S
C745 H715 0.950 . S
C745 C740 1.363 . S
C745 C744 1.415 . S
H746 C743 0.999 . S
H747 C728 0.913 . S
H748 C766 0.951 . S
H749 C768 0.951 . S
H750 C770 0.950 . S
H751 C771 0.950 . S
H752 C773 0.950 . S
H753 C776 0.950 . S
H754 C777 0.950 . S
H755 C779 0.950 . S
H756 C780 0.950 . S
H757 C781 0.951 . S
H758 C783 0.951 . S
H759 C785 0.950 . S
H760 C786 0.950 1_554 S
H761 C788 0.950 . S
H762 C791 0.950 1_554 S
H763 C792 0.950 . S
H764 C794 0.950 . S
H765 C795 0.950 . S
C766 H748 0.951 . S
C766 C767 1.366 . S
C766 C768 1.388 . S
C767 C766 1.366 . S
C767 C771 1.385 . S
C768 H749 0.951 . S
C768 C766 1.388 . S
C768 C769 1.366 . S
C769 C768 1.366 . S
C769 C770 1.414 . S
C769 C772 1.499 . S
C770 H750 0.950 . S
C770 C769 1.414 . S
C770 C771 1.374 . S
C771 H751 0.950 . S
C771 C767 1.385 . S
C771 C770 1.374 . S
C772 C769 1.499 . S
C772 C773 1.373 . S
C772 C774 1.389 . S
C773 H752 0.950 . S
C773 C772 1.373 . S
C773 C789 1.377 . S
C774 C772 1.389 . S
C774 C775 1.524 . S
C774 C788 1.377 . S
C775 C774 1.524 . S
C775 C776 1.397 . S
C775 C780 1.363 . S
C776 H753 0.950 . S
C776 C775 1.397 . S
C776 C777 1.334 . S
C777 H754 0.950 . S
C777 C776 1.334 . S
C777 C778 1.287 . S
C778 C777 1.287 . S
C778 C779 1.524 . S
C778 H797 0.913 . S
C779 H755 0.950 . S
C779 C778 1.524 . S
C779 C780 1.415 . S
C780 H756 0.950 . S
C780 C775 1.363 . S
C780 C779 1.415 . S
C781 H757 0.951 . S
C781 C782 1.366 . S
C781 C783 1.388 . S
C782 C781 1.366 . S
C782 C786 1.385 . S
C783 H758 0.951 . S
C783 C781 1.388 . S
C783 C784 1.366 . S
C784 C783 1.366 . S
C784 C785 1.414 . S
C784 C787 1.499 . S
C785 H759 0.950 . S
C785 C784 1.414 . S
C785 C786 1.374 . S
C786 H760 0.950 1_556 S
C786 C782 1.385 . S
C786 C785 1.374 . S
C787 C784 1.499 . S
C787 C788 1.373 . S
C787 C789 1.389 . S
C788 H761 0.950 . S
C788 C774 1.377 . S
C788 C787 1.373 . S
C789 C773 1.377 . S
C789 C787 1.389 . S
C789 C790 1.524 . S
C790 C789 1.524 . S
C790 C791 1.397 . S
C790 C795 1.363 . S
C791 H762 0.950 1_556 S
C791 C790 1.397 . S
C791 C792 1.334 1_556 S
C792 H763 0.950 . S
C792 C791 1.334 1_554 S
C792 C793 1.287 1_554 S
C793 C792 1.287 1_556 S
C793 C794 1.524 . S
C793 H796 1.014 . S
C794 H764 0.950 . S
C794 C793 1.524 . S
C794 C795 1.415 . S
C795 H765 0.950 . S
C795 C790 1.363 . S
C795 C794 1.415 . S
H796 C793 1.014 . S
H797 C778 0.913 . S
H798 C816 0.951 . S
H799 C818 0.951 . S
H800 C820 0.950 . S
H801 C821 0.950 . S
H802 C823 0.950 . S
H803 C826 0.950 . S
H804 C827 0.950 . S
H805 C829 0.950 . S
H806 C830 0.950 . S
H807 C831 0.951 . S
H808 C833 0.951 . S
H809 C835 0.950 . S
H810 C836 0.950 . S
H811 C838 0.950 . S
H812 C841 0.950 . S
H813 C842 0.950 . S
H814 C844 0.950 . S
H815 C845 0.950 . S
C816 H798 0.951 . S
C816 C817 1.366 . S
C816 C818 1.388 . S
C817 C816 1.366 . S
C817 C821 1.385 . S
C818 H799 0.951 . S
C818 C816 1.388 . S
C818 C819 1.366 . S
C819 C818 1.366 . S
C819 C820 1.414 . S
C819 C822 1.499 . S
C820 H800 0.950 . S
C820 C819 1.414 . S
C820 C821 1.374 . S
C821 H801 0.950 . S
C821 C817 1.385 . S
C821 C820 1.374 . S
C822 C819 1.499 . S
C822 C823 1.373 . S
C822 C824 1.389 . S
C823 H802 0.950 . S
C823 C822 1.373 . S
C823 C839 1.377 . S
C824 C822 1.389 . S
C824 C825 1.524 . S
C824 C838 1.377 . S
C825 C824 1.524 . S
C825 C826 1.397 . S
C825 C830 1.363 . S
C826 H803 0.950 . S
C826 C825 1.397 . S
C826 C827 1.334 . S
C827 H804 0.950 . S
C827 C826 1.334 . S
C827 C828 1.287 . S
C828 C827 1.287 . S
C828 C829 1.524 . S
C828 H847 0.913 . S
C829 H805 0.950 . S
C829 C828 1.524 . S
C829 C830 1.415 . S
C830 H806 0.950 . S
C830 C825 1.363 . S
C830 C829 1.415 . S
C831 H807 0.951 . S
C831 C832 1.366 . S
C831 C833 1.388 . S
C832 C831 1.366 . S
C832 C836 1.385 . S
C833 H808 0.951 . S
C833 C831 1.388 . S
C833 C834 1.366 . S
C834 C833 1.366 . S
C834 C835 1.414 . S
C834 C837 1.499 . S
C835 H809 0.950 . S
C835 C834 1.414 . S
C835 C836 1.374 . S
C836 H810 0.950 . S
C836 C832 1.385 . S
C836 C835 1.374 . S
C837 C834 1.499 . S
C837 C838 1.373 . S
C837 C839 1.389 . S
C838 H811 0.950 . S
C838 C824 1.377 . S
C838 C837 1.373 . S
C839 C823 1.377 . S
C839 C837 1.389 . S
C839 C840 1.524 . S
C840 C839 1.524 . S
C840 C841 1.397 . S
C840 C845 1.363 . S
C841 H812 0.950 . S
C841 C840 1.397 . S
C841 C842 1.334 . S
C842 H813 0.950 . S
C842 C841 1.334 . S
C842 C843 1.287 . S
C843 C842 1.287 . S
C843 C844 1.524 . S
C843 H846 0.999 . S
C844 H814 0.950 . S
C844 C843 1.524 . S
C844 C845 1.415 . S
C845 H815 0.950 . S
C845 C840 1.363 . S
C845 C844 1.415 . S
H846 C843 0.999 . S
H847 C828 0.913 . S
H848 C866 0.951 . S
H849 C868 0.951 . S
H850 C870 0.950 . S
H851 C871 0.950 . S
H852 C873 0.950 . S
H853 C876 0.950 . S
H854 C877 0.950 . S
H855 C879 0.950 . S
H856 C880 0.950 . S
H857 C881 0.951 1_655 S
H858 C883 0.951 . S
H859 C885 0.950 . S
H860 C886 0.950 . S
H861 C888 0.950 . S
H862 C891 0.934 1_554 S
H863 C892 0.950 . S
H864 C894 0.950 . S
H865 C895 0.950 1_554 S
C866 H848 0.951 . S
C866 C867 1.366 . S
C866 C868 1.388 . S
C867 C866 1.366 . S
C867 C871 1.385 . S
C868 H849 0.951 . S
C868 C866 1.388 . S
C868 C869 1.366 . S
C869 C868 1.366 . S
C869 C870 1.414 . S
C869 C872 1.499 . S
C870 H850 0.950 . S
C870 C869 1.414 . S
C870 C871 1.374 . S
C871 H851 0.950 . S
C871 C867 1.385 . S
C871 C870 1.374 . S
C872 C869 1.499 . S
C872 C873 1.373 . S
C872 C874 1.389 . S
C873 H852 0.950 . S
C873 C872 1.373 . S
C873 C889 1.377 . S
C874 C872 1.389 . S
C874 C875 1.524 . S
C874 C888 1.377 . S
C875 C874 1.524 . S
C875 C876 1.397 . S
C875 C880 1.363 . S
C876 H853 0.950 . S
C876 C875 1.397 . S
C876 C877 1.334 . S
C877 H854 0.950 . S
C877 C876 1.334 . S
C877 C878 1.287 . S
C878 C877 1.287 . S
C878 C879 1.524 . S
C878 H897 0.913 . S
C879 H855 0.950 . S
C879 C878 1.524 . S
C879 C880 1.415 . S
C880 H856 0.950 . S
C880 C875 1.363 . S
C880 C879 1.415 . S
C881 H857 0.951 1_455 S
C881 C882 1.366 . S
C881 C883 1.388 . S
C882 C881 1.366 . S
C882 C886 1.385 . S
C883 H858 0.951 . S
C883 C881 1.388 . S
C883 C884 1.366 . S
C884 C883 1.366 . S
C884 C885 1.414 . S
C884 C887 1.499 . S
C885 H859 0.950 . S
C885 C884 1.414 . S
C885 C886 1.374 . S
C886 H860 0.950 . S
C886 C882 1.385 . S
C886 C885 1.374 . S
C887 C884 1.499 . S
C887 C888 1.373 . S
C887 C889 1.389 . S
C888 H861 0.950 . S
C888 C874 1.377 . S
C888 C887 1.373 . S
C889 C873 1.377 . S
C889 C887 1.389 . S
C889 C890 1.524 . S
C890 C889 1.524 . S
C890 C891 1.397 1_554 S
C890 C895 1.363 1_554 S
C891 H862 0.934 1_556 S
C891 C890 1.397 1_556 S
C891 C892 1.334 . S
C892 H863 0.950 . S
C892 C891 1.334 . S
C892 C893 1.287 . S
C893 C892 1.287 . S
C893 C894 1.524 . S
C893 H896 0.999 . S
C894 H864 0.950 . S
C894 C893 1.524 . S
C894 C895 1.415 . S
C895 H865 0.950 1_556 S
C895 C890 1.363 1_556 S
C895 C894 1.415 . S
H896 C893 0.999 . S
H897 C878 0.913 . S
H898 C916 0.951 . S
H899 C918 0.951 . S
H900 C920 0.950 . S
H901 C921 0.950 . S
H902 C923 0.950 . S
H903 C926 0.950 . S
H904 C927 0.950 . S
H905 C929 0.950 . S
H906 C930 0.950 . S
H907 C931 0.951 . S
H908 C933 0.951 . S
H909 C935 0.950 . S
H910 C936 0.950 . S
H911 C938 0.950 . S
H912 C941 0.964 . S
H913 C942 0.950 . S
H914 C944 0.950 . S
H915 C945 0.950 . S
C916 H898 0.951 . S
C916 C917 1.366 . S
C916 C918 1.388 . S
C917 C916 1.366 . S
C917 C921 1.385 . S
C918 H899 0.951 . S
C918 C916 1.388 . S
C918 C919 1.366 . S
C919 C918 1.366 . S
C919 C920 1.414 . S
C919 C922 1.499 . S
C920 H900 0.950 . S
C920 C919 1.414 . S
C920 C921 1.374 . S
C921 H901 0.950 . S
C921 C917 1.385 . S
C921 C920 1.374 . S
C922 C919 1.499 . S
C922 C923 1.373 . S
C922 C924 1.389 . S
C923 H902 0.950 . S
C923 C922 1.373 . S
C923 C939 1.377 . S
C924 C922 1.389 . S
C924 C925 1.524 . S
C924 C938 1.377 . S
C925 C924 1.524 . S
C925 C926 1.397 . S
C925 C930 1.363 . S
C926 H903 0.950 . S
C926 C925 1.397 . S
C926 C927 1.334 . S
C927 H904 0.950 . S
C927 C926 1.334 . S
C927 C928 1.287 . S
C928 C927 1.287 . S
C928 C929 1.524 . S
C928 H947 0.913 . S
C929 H905 0.950 . S
C929 C928 1.524 . S
C929 C930 1.415 . S
C930 H906 0.950 . S
C930 C925 1.363 . S
C930 C929 1.415 . S
C931 H907 0.951 . S
C931 C932 1.366 . S
C931 C933 1.388 . S
C932 C931 1.366 . S
C932 C936 1.385 . S
C933 H908 0.951 . S
C933 C931 1.388 . S
C933 C934 1.366 . S
C934 C933 1.366 . S
C934 C935 1.414 . S
C934 C937 1.499 . S
C935 H909 0.950 . S
C935 C934 1.414 . S
C935 C936 1.374 . S
C936 H910 0.950 . S
C936 C932 1.385 . S
C936 C935 1.374 . S
C937 C934 1.499 . S
C937 C938 1.373 . S
C937 C939 1.389 . S
C938 H911 0.950 . S
C938 C924 1.377 . S
C938 C937 1.373 . S
C939 C923 1.377 . S
C939 C937 1.389 . S
C939 C940 1.524 . S
C940 C939 1.524 . S
C940 C941 1.397 . S
C940 C945 1.363 . S
C941 H912 0.964 . S
C941 C940 1.397 . S
C941 C942 1.334 1_556 S
C942 H913 0.950 . S
C942 C941 1.334 1_554 S
C942 C943 1.300 . S
C943 C942 1.300 . S
C943 C944 1.487 1_554 S
C943 H946 1.022 . S
C944 H914 0.950 . S
C944 C943 1.487 1_556 S
C944 C945 1.415 . S
C945 H915 0.950 . S
C945 C940 1.363 . S
C945 C944 1.415 . S
H946 C943 1.022 . S
H947 C928 0.913 . S
H948 C966 0.951 . S
H949 C968 0.951 . S
H950 C970 0.950 . S
H951 C971 0.950 . S
H952 C973 0.950 . S
H953 C976 0.950 . S
H954 C977 0.950 . S
H955 C979 0.950 . S
H956 C980 0.950 . S
H957 C981 0.951 . S
H958 C983 0.951 . S
H959 C985 0.950 . S
H960 C986 0.950 . S
H961 C988 0.950 . S
H962 C991 0.950 . S
H963 C992 0.950 . S
H964 C994 0.950 . S
H965 C995 0.950 . S
C966 H948 0.951 . S
C966 C967 1.366 . S
C966 C968 1.388 . S
C967 C966 1.366 . S
C967 C971 1.385 . S
C968 H949 0.951 . S
C968 C966 1.388 . S
C968 C969 1.366 . S
C969 C968 1.366 . S
C969 C970 1.414 . S
C969 C972 1.499 . S
C970 H950 0.950 . S
C970 C969 1.414 . S
C970 C971 1.374 . S
C971 H951 0.950 . S
C971 C967 1.385 . S
C971 C970 1.374 . S
C972 C969 1.499 . S
C972 C973 1.373 . S
C972 C974 1.389 . S
C973 H952 0.950 . S
C973 C972 1.373 . S
C973 C989 1.377 . S
C974 C972 1.389 . S
C974 C975 1.524 . S
C974 C988 1.377 . S
C975 C974 1.524 . S
C975 C976 1.397 . S
C975 C980 1.363 . S
C976 H953 0.950 . S
C976 C975 1.397 . S
C976 C977 1.334 . S
C977 H954 0.950 . S
C977 C976 1.334 . S
C977 C978 1.287 . S
C978 C977 1.287 . S
C978 C979 1.524 . S
C978 H997 0.913 . S
C979 H955 0.950 . S
C979 C978 1.524 . S
C979 C980 1.415 . S
C980 H956 0.950 . S
C980 C975 1.363 . S
C980 C979 1.415 . S
C981 H957 0.951 . S
C981 C982 1.366 . S
C981 C983 1.388 . S
C982 C981 1.366 . S
C982 C986 1.385 . S
C983 H958 0.951 . S
C983 C981 1.388 . S
C983 C984 1.366 . S
C984 C983 1.366 . S
C984 C985 1.414 . S
C984 C987 1.499 . S
C985 H959 0.950 . S
C985 C984 1.414 . S
C985 C986 1.374 . S
C986 H960 0.950 . S
C986 C982 1.385 . S
C986 C985 1.374 . S
C987 C984 1.499 . S
C987 C988 1.373 . S
C987 C989 1.389 . S
C988 H961 0.950 . S
C988 C974 1.377 . S
C988 C987 1.373 . S
C989 C973 1.377 . S
C989 C987 1.389 . S
C989 C990 1.524 . S
C990 C989 1.524 . S
C990 C991 1.397 . S
C990 C995 1.363 1_655 S
C991 H962 0.950 . S
C991 C990 1.397 . S
C991 C992 1.334 1_655 S
C992 H963 0.950 . S
C992 C991 1.334 1_455 S
C992 C993 1.287 . S
C993 C992 1.287 . S
C993 C994 1.524 . S
C993 H996 0.999 . S
C994 H964 0.950 . S
C994 C993 1.524 . S
C994 C995 1.415 . S
C995 H965 0.950 . S
C995 C990 1.363 1_455 S
C995 C994 1.415 . S
H996 C993 0.999 . S
H997 C978 0.913 . S
H998 C1016 0.951 . S
H999 C1018 0.951 . S
H1000 C1020 0.950 . S
H1001 C1021 0.950 . S
H1002 C1023 0.950 . S
H1003 C1026 0.950 . S
H1004 C1027 0.950 . S
H1005 C1029 0.950 . S
H1006 C1030 0.950 . S
H1007 C1031 0.951 . S
H1008 C1033 0.951 . S
H1009 C1035 0.950 . S
H1010 C1036 0.950 . S
H1011 C1038 0.950 . S
H1012 C1041 0.950 . S
H1013 C1042 0.950 . S
H1014 C1044 0.950 . S
H1015 C1045 0.950 . S
C1016 H998 0.951 . S
C1016 C1017 1.366 . S
C1016 C1018 1.388 . S
C1017 C1016 1.366 . S
C1017 C1021 1.385 . S
C1018 H999 0.951 . S
C1018 C1016 1.388 . S
C1018 C1019 1.366 . S
C1019 C1018 1.366 . S
C1019 C1020 1.414 . S
C1019 C1022 1.499 . S
C1020 H1000 0.950 . S
C1020 C1019 1.414 . S
C1020 C1021 1.374 . S
C1021 H1001 0.950 . S
C1021 C1017 1.385 . S
C1021 C1020 1.374 . S
C1022 C1019 1.499 . S
C1022 C1023 1.373 . S
C1022 C1024 1.389 . S
C1023 H1002 0.950 . S
C1023 C1022 1.373 . S
C1023 C1039 1.377 . S
C1024 C1022 1.389 . S
C1024 C1025 1.524 . S
C1024 C1038 1.377 . S
C1025 C1024 1.524 . S
C1025 C1026 1.397 . S
C1025 C1030 1.363 . S
C1026 H1003 0.950 . S
C1026 C1025 1.397 . S
C1026 C1027 1.334 . S
C1027 H1004 0.950 . S
C1027 C1026 1.334 . S
C1027 C1028 1.287 . S
C1028 C1027 1.287 . S
C1028 C1029 1.524 . S
C1028 H1047 0.913 . S
C1029 H1005 0.950 . S
C1029 C1028 1.524 . S
C1029 C1030 1.415 . S
C1030 H1006 0.950 . S
C1030 C1025 1.363 . S
C1030 C1029 1.415 . S
C1031 H1007 0.951 . S
C1031 C1032 1.366 . S
C1031 C1033 1.388 . S
C1032 C1031 1.366 . S
C1032 C1036 1.385 . S
C1033 H1008 0.951 . S
C1033 C1031 1.388 . S
C1033 C1034 1.366 . S
C1034 C1033 1.366 . S
C1034 C1035 1.414 . S
C1034 C1037 1.499 . S
C1035 H1009 0.950 . S
C1035 C1034 1.414 . S
C1035 C1036 1.374 . S
C1036 H1010 0.950 . S
C1036 C1032 1.385 . S
C1036 C1035 1.374 . S
C1037 C1034 1.499 . S
C1037 C1038 1.373 . S
C1037 C1039 1.389 . S
C1038 H1011 0.950 . S
C1038 C1024 1.377 . S
C1038 C1037 1.373 . S
C1039 C1023 1.377 . S
C1039 C1037 1.389 . S
C1039 C1040 1.524 . S
C1040 C1039 1.524 . S
C1040 C1041 1.397 . S
C1040 C1045 1.363 . S
C1041 H1012 0.950 . S
C1041 C1040 1.397 . S
C1041 C1042 1.334 . S
C1042 H1013 0.950 . S
C1042 C1041 1.334 . S
C1042 C1043 1.287 . S
C1043 C1042 1.287 . S
C1043 C1044 1.524 . S
C1043 H1046 0.999 . S
C1044 H1014 0.950 . S
C1044 C1043 1.524 . S
C1044 C1045 1.415 . S
C1045 H1015 0.950 . S
C1045 C1040 1.363 . S
C1045 C1044 1.415 . S
H1046 C1043 0.999 . S
H1047 C1028 0.913 . S
H1048 C1066 0.951 . S
H1049 C1068 0.951 . S
H1050 C1070 0.950 . S
H1051 C1071 0.950 . S
H1052 C1073 0.950 . S
H1053 C1076 0.950 . S
H1054 C1077 0.950 . S
H1055 C1079 0.950 . S
H1056 C1080 0.950 . S
H1057 C1081 0.951 1_545 S
H1058 C1083 0.923 1_545 S
H1059 C1085 0.950 . S
H1060 C1086 0.950 . S
H1061 C1088 0.950 . S
H1062 C1091 0.950 . S
H1063 C1092 0.950 . S
H1064 C1094 0.950 . S
H1065 C1095 0.950 . S
C1066 H1048 0.951 . S
C1066 C1067 1.366 . S
C1066 C1068 1.388 . S
C1067 C1066 1.366 . S
C1067 C1071 1.385 . S
C1068 H1049 0.951 . S
C1068 C1066 1.388 . S
C1068 C1069 1.366 . S
C1069 C1068 1.366 . S
C1069 C1070 1.414 . S
C1069 C1072 1.499 . S
C1070 H1050 0.950 . S
C1070 C1069 1.414 . S
C1070 C1071 1.374 . S
C1071 H1051 0.950 . S
C1071 C1067 1.385 . S
C1071 C1070 1.374 . S
C1072 C1069 1.499 . S
C1072 C1073 1.373 . S
C1072 C1074 1.389 . S
C1073 H1052 0.950 . S
C1073 C1072 1.373 . S
C1073 C1089 1.377 . S
C1074 C1072 1.389 . S
C1074 C1075 1.524 . S
C1074 C1088 1.377 . S
C1075 C1074 1.524 . S
C1075 C1076 1.397 . S
C1075 C1080 1.363 . S
C1076 H1053 0.950 . S
C1076 C1075 1.397 . S
C1076 C1077 1.334 1_655 S
C1077 H1054 0.950 . S
C1077 C1076 1.334 1_455 S
C1077 C1078 1.287 . S
C1078 C1077 1.287 . S
C1078 C1079 1.524 . S
C1078 H1097 0.913 . S
C1079 H1055 0.950 . S
C1079 C1078 1.524 . S
C1079 C1080 1.415 1_455 S
C1080 H1056 0.950 . S
C1080 C1075 1.363 . S
C1080 C1079 1.415 1_655 S
C1081 H1057 0.951 1_565 S
C1081 C1082 1.366 . S
C1081 C1083 1.388 . S
C1082 C1081 1.366 . S
C1082 C1086 1.385 . S
C1083 H1058 0.923 1_565 S
C1083 C1081 1.388 . S
C1083 C1084 1.366 . S
C1084 C1083 1.366 . S
C1084 C1085 1.414 . S
C1084 C1087 1.499 . S
C1085 H1059 0.950 . S
C1085 C1084 1.414 . S
C1085 C1086 1.374 . S
C1086 H1060 0.950 . S
C1086 C1082 1.385 . S
C1086 C1085 1.374 . S
C1087 C1084 1.499 . S
C1087 C1088 1.373 . S
C1087 C1089 1.389 . S
C1088 H1061 0.950 . S
C1088 C1074 1.377 . S
C1088 C1087 1.373 . S
C1089 C1073 1.377 . S
C1089 C1087 1.389 . S
C1089 C1090 1.524 . S
C1090 C1089 1.524 . S
C1090 C1091 1.397 . S
C1090 C1095 1.363 1_565 S
C1091 H1062 0.950 . S
C1091 C1090 1.397 . S
C1091 C1092 1.334 . S
C1092 H1063 0.950 . S
C1092 C1091 1.334 . S
C1092 C1093 1.287 1_565 S
C1093 C1092 1.287 1_545 S
C1093 C1094 1.524 . S
C1093 H1096 0.999 . S
C1094 H1064 0.950 . S
C1094 C1093 1.524 . S
C1094 C1095 1.415 . S
C1095 H1065 0.950 . S
C1095 C1090 1.363 1_545 S
C1095 C1094 1.415 . S
H1096 C1093 0.999 . S
H1097 C1078 0.913 . S
H1098 C1116 0.951 . S
H1099 C1118 0.951 . S
H1100 C1120 0.950 . S
H1101 C1121 0.950 . S
H1102 C1123 0.950 . S
H1103 C1126 0.950 . S
H1104 C1127 0.950 . S
H1105 C1129 0.950 . S
H1106 C1130 0.950 . S
H1107 C1131 0.951 1_565 S
H1108 C1133 0.951 . S
H1109 C1135 0.950 . S
H1110 C1136 0.950 . S
H1111 C1138 0.950 . S
H1112 C1141 0.950 . S
H1113 C1142 0.950 . S
H1114 C1144 0.950 . S
H1115 C1145 0.950 . S
C1116 H1098 0.951 . S
C1116 C1117 1.366 . S
C1116 C1118 1.388 . S
C1117 C1116 1.366 . S
C1117 C1121 1.385 . S
C1118 H1099 0.951 . S
C1118 C1116 1.388 . S
C1118 C1119 1.366 . S
C1119 C1118 1.366 . S
C1119 C1120 1.414 . S
C1119 C1122 1.499 . S
C1120 H1100 0.950 . S
C1120 C1119 1.414 . S
C1120 C1121 1.374 . S
C1121 H1101 0.950 . S
C1121 C1117 1.385 . S
C1121 C1120 1.374 . S
C1122 C1119 1.499 . S
C1122 C1123 1.373 . S
C1122 C1124 1.389 . S
C1123 H1102 0.950 . S
C1123 C1122 1.373 . S
C1123 C1139 1.377 . S
C1124 C1122 1.389 . S
C1124 C1125 1.524 . S
C1124 C1138 1.377 . S
C1125 C1124 1.524 . S
C1125 C1126 1.397 . S
C1125 C1130 1.363 . S
C1126 H1103 0.950 . S
C1126 C1125 1.397 . S
C1126 C1127 1.334 . S
C1127 H1104 0.950 . S
C1127 C1126 1.334 . S
C1127 C1128 1.287 . S
C1128 C1127 1.287 . S
C1128 C1129 1.524 . S
C1128 H1147 0.913 . S
C1129 H1105 0.950 . S
C1129 C1128 1.524 . S
C1129 C1130 1.415 . S
C1130 H1106 0.950 . S
C1130 C1125 1.363 . S
C1130 C1129 1.415 . S
C1131 H1107 0.951 1_545 S
C1131 C1132 1.366 . S
C1131 C1133 1.388 . S
C1132 C1131 1.366 . S
C1132 C1136 1.385 . S
C1133 H1108 0.951 . S
C1133 C1131 1.388 . S
C1133 C1134 1.366 . S
C1134 C1133 1.366 . S
C1134 C1135 1.414 . S
C1134 C1137 1.499 . S
C1135 H1109 0.950 . S
C1135 C1134 1.414 . S
C1135 C1136 1.374 . S
C1136 H1110 0.950 . S
C1136 C1132 1.385 . S
C1136 C1135 1.374 . S
C1137 C1134 1.499 . S
C1137 C1138 1.373 . S
C1137 C1139 1.389 . S
C1138 H1111 0.950 . S
C1138 C1124 1.377 . S
C1138 C1137 1.373 . S
C1139 C1123 1.377 . S
C1139 C1137 1.389 . S
C1139 C1140 1.524 . S
C1140 C1139 1.524 . S
C1140 C1141 1.397 . S
C1140 C1145 1.363 . S
C1141 H1112 0.950 . S
C1141 C1140 1.397 . S
C1141 C1142 1.334 . S
C1142 H1113 0.950 . S
C1142 C1141 1.334 . S
C1142 C1143 1.287 . S
C1143 C1142 1.287 . S
C1143 C1144 1.524 . S
C1143 H1146 0.999 . S
C1144 H1114 0.950 . S
C1144 C1143 1.524 . S
C1144 C1145 1.415 . S
C1145 H1115 0.950 . S
C1145 C1140 1.363 . S
C1145 C1144 1.415 . S
H1146 C1143 0.999 . S
H1147 C1128 0.913 . S
H1148 C1166 0.951 . S
H1149 C1168 0.951 . S
H1150 C1170 0.950 . S
H1151 C1171 0.950 . S
H1152 C1173 0.950 . S
H1153 C1176 0.950 . S
H1154 C1177 0.950 . S
H1155 C1179 0.950 . S
H1156 C1180 0.950 . S
H1157 C1181 0.951 . S
H1158 C1183 0.951 . S
H1159 C1185 0.950 . S
H1160 C1186 0.950 . S
H1161 C1188 0.950 . S
H1162 C1191 0.950 . S
H1163 C1192 0.950 . S
H1164 C1194 0.950 . S
H1165 C1195 0.950 . S
C1166 H1148 0.951 . S
C1166 C1167 1.366 . S
C1166 C1168 1.388 . S
C1167 C1166 1.366 . S
C1167 C1171 1.385 . S
C1168 H1149 0.951 . S
C1168 C1166 1.388 . S
C1168 C1169 1.366 . S
C1169 C1168 1.366 . S
C1169 C1170 1.414 . S
C1169 C1172 1.499 . S
C1170 H1150 0.950 . S
C1170 C1169 1.414 . S
C1170 C1171 1.374 . S
C1171 H1151 0.950 . S
C1171 C1167 1.385 . S
C1171 C1170 1.374 . S
C1172 C1169 1.499 . S
C1172 C1173 1.373 . S
C1172 C1174 1.389 . S
C1173 H1152 0.950 . S
C1173 C1172 1.373 . S
C1173 C1189 1.377 . S
C1174 C1172 1.389 . S
C1174 C1175 1.524 . S
C1174 C1188 1.377 . S
C1175 C1174 1.524 . S
C1175 C1176 1.397 . S
C1175 C1180 1.363 . S
C1176 H1153 0.950 . S
C1176 C1175 1.397 . S
C1176 C1177 1.334 . S
C1177 H1154 0.950 . S
C1177 C1176 1.334 . S
C1177 C1178 1.287 . S
C1178 C1177 1.287 . S
C1178 C1179 1.524 . S
C1178 H1197 0.913 . S
C1179 H1155 0.950 . S
C1179 C1178 1.524 . S
C1179 C1180 1.415 . S
C1180 H1156 0.950 . S
C1180 C1175 1.363 . S
C1180 C1179 1.415 . S
C1181 H1157 0.951 . S
C1181 C1182 1.366 . S
C1181 C1183 1.388 . S
C1182 C1181 1.366 . S
C1182 C1186 1.385 . S
C1183 H1158 0.951 . S
C1183 C1181 1.388 . S
C1183 C1184 1.366 . S
C1184 C1183 1.366 . S
C1184 C1185 1.414 . S
C1184 C1187 1.499 . S
C1185 H1159 0.950 . S
C1185 C1184 1.414 . S
C1185 C1186 1.374 . S
C1186 H1160 0.950 . S
C1186 C1182 1.385 . S
C1186 C1185 1.374 . S
C1187 C1184 1.499 . S
C1187 C1188 1.373 . S
C1187 C1189 1.389 . S
C1188 H1161 0.950 . S
C1188 C1174 1.377 . S
C1188 C1187 1.373 . S
C1189 C1173 1.377 . S
C1189 C1187 1.389 . S
C1189 C1190 1.524 . S
C1190 C1189 1.524 . S
C1190 C1191 1.397 . S
C1190 C1195 1.363 . S
C1191 H1162 0.950 . S
C1191 C1190 1.397 . S
C1191 C1192 1.334 . S
C1192 H1163 0.950 . S
C1192 C1191 1.334 . S
C1192 C1193 1.287 . S
C1193 C1192 1.287 . S
C1193 C1194 1.524 . S
C1193 H1196 0.999 . S
C1194 H1164 0.950 . S
C1194 C1193 1.524 . S
C1194 C1195 1.415 . S
C1195 H1165 0.950 . S
C1195 C1190 1.363 . S
C1195 C1194 1.415 . S
H1196 C1193 0.999 . S
H1197 C1178 0.913 . S
H1198 C1216 0.951 . S
H1199 C1218 0.951 . S
H1200 C1220 0.950 . S
H1201 C1221 0.950 . S
H1202 C1223 0.950 . S
H1203 C1226 0.950 . S
H1204 C1227 0.950 . S
H1205 C1229 0.950 . S
H1206 C1230 0.950 . S
H1207 C1231 0.951 . S
H1208 C1233 0.951 . S
H1209 C1235 0.950 . S
H1210 C1236 0.950 . S
H1211 C1238 0.950 . S
H1212 C1241 0.950 . S
H1213 C1242 0.950 . S
H1214 C1244 0.950 . S
H1215 C1245 0.950 . S
C1216 H1198 0.951 . S
C1216 C1217 1.366 . S
C1216 C1218 1.388 . S
C1217 C1216 1.366 . S
C1217 C1221 1.385 . S
C1218 H1199 0.951 . S
C1218 C1216 1.388 . S
C1218 C1219 1.366 . S
C1219 C1218 1.366 . S
C1219 C1220 1.414 . S
C1219 C1222 1.499 . S
C1220 H1200 0.950 . S
C1220 C1219 1.414 . S
C1220 C1221 1.374 . S
C1221 H1201 0.950 . S
C1221 C1217 1.385 . S
C1221 C1220 1.374 . S
C1222 C1219 1.499 . S
C1222 C1223 1.373 . S
C1222 C1224 1.389 . S
C1223 H1202 0.950 . S
C1223 C1222 1.373 . S
C1223 C1239 1.377 . S
C1224 C1222 1.389 . S
C1224 C1225 1.524 . S
C1224 C1238 1.377 . S
C1225 C1224 1.524 . S
C1225 C1226 1.397 . S
C1225 C1230 1.363 . S
C1226 H1203 0.950 . S
C1226 C1225 1.397 . S
C1226 C1227 1.334 . S
C1227 H1204 0.950 . S
C1227 C1226 1.334 . S
C1227 C1228 1.287 . S
C1228 C1227 1.287 . S
C1228 C1229 1.524 1_455 S
C1228 H1247 0.913 . S
C1229 H1205 0.950 . S
C1229 C1228 1.524 1_655 S
C1229 C1230 1.415 1_655 S
C1230 H1206 0.950 . S
C1230 C1225 1.363 . S
C1230 C1229 1.415 1_455 S
C1231 H1207 0.951 . S
C1231 C1232 1.366 . S
C1231 C1233 1.388 . S
C1232 C1231 1.366 . S
C1232 C1236 1.385 . S
C1233 H1208 0.951 . S
C1233 C1231 1.388 . S
C1233 C1234 1.366 . S
C1234 C1233 1.366 . S
C1234 C1235 1.414 . S
C1234 C1237 1.499 . S
C1235 H1209 0.950 . S
C1235 C1234 1.414 . S
C1235 C1236 1.374 . S
C1236 H1210 0.950 . S
C1236 C1232 1.385 . S
C1236 C1235 1.374 . S
C1237 C1234 1.499 . S
C1237 C1238 1.373 . S
C1237 C1239 1.389 . S
C1238 H1211 0.950 . S
C1238 C1224 1.377 . S
C1238 C1237 1.373 . S
C1239 C1223 1.377 . S
C1239 C1237 1.389 . S
C1239 C1240 1.524 . S
C1240 C1239 1.524 . S
C1240 C1241 1.397 . S
C1240 C1245 1.363 . S
C1241 H1212 0.950 . S
C1241 C1240 1.397 . S
C1241 C1242 1.334 . S
C1242 H1213 0.950 . S
C1242 C1241 1.334 . S
C1242 C1243 1.287 . S
C1243 C1242 1.287 . S
C1243 C1244 1.524 . S
C1243 H1246 0.999 . S
C1244 H1214 0.950 . S
C1244 C1243 1.524 . S
C1244 C1245 1.415 . S
C1245 H1215 0.950 . S
C1245 C1240 1.363 . S
C1245 C1244 1.415 . S
H1246 C1243 0.999 . S
H1247 C1228 0.913 . S
H1248 C1266 0.951 . S
H1249 C1268 0.951 . S
H1250 C1270 0.950 . S
H1251 C1271 0.950 . S
H1252 C1273 0.950 . S
H1253 C1276 0.950 . S
H1254 C1277 0.950 . S
H1255 C1279 0.950 . S
H1256 C1280 0.950 . S
H1257 C1281 0.951 1_545 S
H1258 C1283 0.952 1_545 S
H1259 C1285 0.950 . S
H1260 C1286 0.950 . S
H1261 C1288 0.950 . S
H1262 C1291 0.950 . S
H1263 C1292 0.950 . S
H1264 C1294 0.950 . S
H1265 C1295 0.950 . S
C1266 H1248 0.951 . S
C1266 C1267 1.366 . S
C1266 C1268 1.388 . S
C1267 C1266 1.366 . S
C1267 C1271 1.385 . S
C1268 H1249 0.951 . S
C1268 C1266 1.388 . S
C1268 C1269 1.366 . S
C1269 C1268 1.366 . S
C1269 C1270 1.414 . S
C1269 C1272 1.499 . S
C1270 H1250 0.950 . S
C1270 C1269 1.414 . S
C1270 C1271 1.374 . S
C1271 H1251 0.950 . S
C1271 C1267 1.385 . S
C1271 C1270 1.374 . S
C1272 C1269 1.499 . S
C1272 C1273 1.373 . S
C1272 C1274 1.389 . S
C1273 H1252 0.950 . S
C1273 C1272 1.373 . S
C1273 C1289 1.377 . S
C1274 C1272 1.389 . S
C1274 C1275 1.524 . S
C1274 C1288 1.377 . S
C1275 C1274 1.524 . S
C1275 C1276 1.397 . S
C1275 C1280 1.363 . S
C1276 H1253 0.950 . S
C1276 C1275 1.397 . S
C1276 C1277 1.334 . S
C1277 H1254 0.950 . S
C1277 C1276 1.334 . S
C1277 C1278 1.287 . S
C1278 C1277 1.287 . S
C1278 C1279 1.524 . S
C1278 H1297 0.913 . S
C1279 H1255 0.950 . S
C1279 C1278 1.524 . S
C1279 C1280 1.415 . S
C1280 H1256 0.950 . S
C1280 C1275 1.363 . S
C1280 C1279 1.415 . S
C1281 H1257 0.951 1_565 S
C1281 C1282 1.366 . S
C1281 C1283 1.388 . S
C1282 C1281 1.366 . S
C1282 C1286 1.385 . S
C1283 H1258 0.952 1_565 S
C1283 C1281 1.388 . S
C1283 C1284 1.366 . S
C1284 C1283 1.366 . S
C1284 C1285 1.414 . S
C1284 C1287 1.499 . S
C1285 H1259 0.950 . S
C1285 C1284 1.414 . S
C1285 C1286 1.374 . S
C1286 H1260 0.950 . S
C1286 C1282 1.385 . S
C1286 C1285 1.374 . S
C1287 C1284 1.499 . S
C1287 C1288 1.373 . S
C1287 C1289 1.389 . S
C1288 H1261 0.950 . S
C1288 C1274 1.377 . S
C1288 C1287 1.373 . S
C1289 C1273 1.377 . S
C1289 C1287 1.389 . S
C1289 C1290 1.524 . S
C1290 C1289 1.524 . S
C1290 C1291 1.397 1_556 S
C1290 C1295 1.363 1_565 S
C1291 H1262 0.950 . S
C1291 C1290 1.397 1_554 S
C1291 C1292 1.334 . S
C1292 H1263 0.950 . S
C1292 C1291 1.334 . S
C1292 C1293 1.287 1_565 S
C1293 C1292 1.287 1_545 S
C1293 C1294 1.524 . S
C1293 H1296 0.999 . S
C1294 H1264 0.950 . S
C1294 C1293 1.524 . S
C1294 C1295 1.415 1_554 S
C1295 H1265 0.950 . S
C1295 C1290 1.363 1_545 S
C1295 C1294 1.415 1_556 S
H1296 C1293 0.999 . S
H1297 C1278 0.913 . S
H1298 C1316 0.951 . S
H1299 C1318 0.951 . S
H1300 C1320 0.950 . S
H1301 C1321 0.950 . S
H1302 C1323 0.950 . S
H1303 C1326 0.950 . S
H1304 C1327 0.950 . S
H1305 C1329 0.950 . S
H1306 C1330 0.950 . S
H1307 C1331 0.951 . S
H1308 C1333 0.951 . S
H1309 C1335 0.950 . S
H1310 C1336 0.950 . S
H1311 C1338 0.950 . S
H1312 C1341 0.950 . S
H1313 C1342 0.950 . S
H1314 C1344 0.950 . S
H1315 C1345 0.950 . S
C1316 H1298 0.951 . S
C1316 C1317 1.366 . S
C1316 C1318 1.388 . S
C1317 C1316 1.366 . S
C1317 C1321 1.385 . S
C1318 H1299 0.951 . S
C1318 C1316 1.388 . S
C1318 C1319 1.366 . S
C1319 C1318 1.366 . S
C1319 C1320 1.414 . S
C1319 C1322 1.499 . S
C1320 H1300 0.950 . S
C1320 C1319 1.414 . S
C1320 C1321 1.374 . S
C1321 H1301 0.950 . S
C1321 C1317 1.385 . S
C1321 C1320 1.374 . S
C1322 C1319 1.499 . S
C1322 C1323 1.373 . S
C1322 C1324 1.389 . S
C1323 H1302 0.950 . S
C1323 C1322 1.373 . S
C1323 C1339 1.377 . S
C1324 C1322 1.389 . S
C1324 C1325 1.524 . S
C1324 C1338 1.377 . S
C1325 C1324 1.524 . S
C1325 C1326 1.397 . S
C1325 C1330 1.363 . S
C1326 H1303 0.950 . S
C1326 C1325 1.397 . S
C1326 C1327 1.334 . S
C1327 H1304 0.950 . S
C1327 C1326 1.334 . S
C1327 C1328 1.287 . S
C1328 C1327 1.287 . S
C1328 C1329 1.524 . S
C1328 H1347 0.913 . S
C1329 H1305 0.950 . S
C1329 C1328 1.524 . S
C1329 C1330 1.415 . S
C1330 H1306 0.950 . S
C1330 C1325 1.363 . S
C1330 C1329 1.415 . S
C1331 H1307 0.951 . S
C1331 C1332 1.366 . S
C1331 C1333 1.388 . S
C1332 C1331 1.366 . S
C1332 C1336 1.385 . S
C1333 H1308 0.951 . S
C1333 C1331 1.388 . S
C1333 C1334 1.366 . S
C1334 C1333 1.366 . S
C1334 C1335 1.414 . S
C1334 C1337 1.499 . S
C1335 H1309 0.950 . S
C1335 C1334 1.414 . S
C1335 C1336 1.374 . S
C1336 H1310 0.950 . S
C1336 C1332 1.385 . S
C1336 C1335 1.374 . S
C1337 C1334 1.499 . S
C1337 C1338 1.373 . S
C1337 C1339 1.389 . S
C1338 H1311 0.950 . S
C1338 C1324 1.377 . S
C1338 C1337 1.373 . S
C1339 C1323 1.377 . S
C1339 C1337 1.389 . S
C1339 C1340 1.524 . S
C1340 C1339 1.524 . S
C1340 C1341 1.397 1_545 S
C1340 C1345 1.363 . S
C1341 H1312 0.950 . S
C1341 C1340 1.397 1_565 S
C1341 C1342 1.334 . S
C1342 H1313 0.950 . S
C1342 C1341 1.334 . S
C1342 C1343 1.287 . S
C1343 C1342 1.287 . S
C1343 C1344 1.524 . S
C1343 H1346 0.999 . S
C1344 H1314 0.950 . S
C1344 C1343 1.524 . S
C1344 C1345 1.415 1_565 S
C1345 H1315 0.950 . S
C1345 C1340 1.363 . S
C1345 C1344 1.415 1_545 S
H1346 C1343 0.999 . S
H1347 C1328 0.913 . S
H1348 C1366 0.951 . S
H1349 C1368 0.951 . S
H1350 C1370 0.950 . S
H1351 C1371 0.950 . S
H1352 C1373 0.950 . S
H1353 C1376 0.950 . S
H1354 C1377 0.950 . S
H1355 C1379 0.950 . S
H1356 C1380 0.950 . S
H1357 C1381 0.951 1_556 S
H1358 C1383 0.951 . S
H1359 C1385 0.950 . S
H1360 C1386 0.950 . S
H1361 C1388 0.950 . S
H1362 C1391 0.950 . S
H1363 C1392 0.950 . S
H1364 C1394 0.950 . S
H1365 C1395 0.950 . S
C1366 H1348 0.951 . S
C1366 C1367 1.366 . S
C1366 C1368 1.388 . S
C1367 C1366 1.366 . S
C1367 C1371 1.385 . S
C1368 H1349 0.951 . S
C1368 C1366 1.388 . S
C1368 C1369 1.366 . S
C1369 C1368 1.366 . S
C1369 C1370 1.414 . S
C1369 C1372 1.499 . S
C1370 H1350 0.950 . S
C1370 C1369 1.414 . S
C1370 C1371 1.374 . S
C1371 H1351 0.950 . S
C1371 C1367 1.385 . S
C1371 C1370 1.374 . S
C1372 C1369 1.499 . S
C1372 C1373 1.373 . S
C1372 C1374 1.389 . S
C1373 H1352 0.950 . S
C1373 C1372 1.373 . S
C1373 C1389 1.377 . S
C1374 C1372 1.389 . S
C1374 C1375 1.524 . S
C1374 C1388 1.377 . S
C1375 C1374 1.524 . S
C1375 C1376 1.397 . S
C1375 C1380 1.363 . S
C1376 H1353 0.950 . S
C1376 C1375 1.397 . S
C1376 C1377 1.334 . S
C1377 H1354 0.950 . S
C1377 C1376 1.334 . S
C1377 C1378 1.287 . S
C1378 C1377 1.287 . S
C1378 C1379 1.524 . S
C1378 H1397 0.913 . S
C1379 H1355 0.950 . S
C1379 C1378 1.524 . S
C1379 C1380 1.415 . S
C1380 H1356 0.950 . S
C1380 C1375 1.363 . S
C1380 C1379 1.415 . S
C1381 H1357 0.951 1_554 S
C1381 C1382 1.366 . S
C1381 C1383 1.388 . S
C1382 C1381 1.366 . S
C1382 C1386 1.385 . S
C1383 H1358 0.951 . S
C1383 C1381 1.388 . S
C1383 C1384 1.366 . S
C1384 C1383 1.366 . S
C1384 C1385 1.414 . S
C1384 C1387 1.499 . S
C1385 H1359 0.950 . S
C1385 C1384 1.414 . S
C1385 C1386 1.374 . S
C1386 H1360 0.950 . S
C1386 C1382 1.385 . S
C1386 C1385 1.374 . S
C1387 C1384 1.499 . S
C1387 C1388 1.373 . S
C1387 C1389 1.389 . S
C1388 H1361 0.950 . S
C1388 C1374 1.377 . S
C1388 C1387 1.373 . S
C1389 C1373 1.377 . S
C1389 C1387 1.389 . S
C1389 C1390 1.524 1_554 S
C1390 C1389 1.524 1_556 S
C1390 C1391 1.397 . S
C1390 C1395 1.363 . S
C1391 H1362 0.950 . S
C1391 C1390 1.397 . S
C1391 C1392 1.334 . S
C1392 H1363 0.950 . S
C1392 C1391 1.334 . S
C1392 C1393 1.287 . S
C1393 C1392 1.287 . S
C1393 C1394 1.524 . S
C1393 H1396 0.999 . S
C1394 H1364 0.950 . S
C1394 C1393 1.524 . S
C1394 C1395 1.415 . S
C1395 H1365 0.950 . S
C1395 C1390 1.363 . S
C1395 C1394 1.415 . S
H1396 C1393 0.999 . S
H1397 C1378 0.913 . S
H1398 C1416 0.951 . S
H1399 C1418 0.951 . S
H1400 C1420 0.950 . S
H1401 C1421 0.950 . S
H1402 C1423 0.950 . S
H1403 C1426 0.950 . S
H1404 C1427 0.950 . S
H1405 C1429 0.950 . S
H1406 C1430 0.950 . S
H1407 C1431 0.951 . S
H1408 C1433 0.951 . S
H1409 C1435 0.950 . S
H1410 C1436 0.950 . S
H1411 C1438 0.950 . S
H1412 C1441 0.950 . S
H1413 C1442 0.950 . S
H1414 C1444 0.950 . S
H1415 C1445 0.950 . S
C1416 H1398 0.951 . S
C1416 C1417 1.366 . S
C1416 C1418 1.388 . S
C1417 C1416 1.366 . S
C1417 C1421 1.385 . S
C1418 H1399 0.951 . S
C1418 C1416 1.388 . S
C1418 C1419 1.366 . S
C1419 C1418 1.366 . S
C1419 C1420 1.414 . S
C1419 C1422 1.499 . S
C1420 H1400 0.950 . S
C1420 C1419 1.414 . S
C1420 C1421 1.374 . S
C1421 H1401 0.950 . S
C1421 C1417 1.385 . S
C1421 C1420 1.374 . S
C1422 C1419 1.499 . S
C1422 C1423 1.373 . S
C1422 C1424 1.389 . S
C1423 H1402 0.950 . S
C1423 C1422 1.373 . S
C1423 C1439 1.377 . S
C1424 C1422 1.389 . S
C1424 C1425 1.524 . S
C1424 C1438 1.377 . S
C1425 C1424 1.524 . S
C1425 C1426 1.397 . S
C1425 C1430 1.363 . S
C1426 H1403 0.950 . S
C1426 C1425 1.397 . S
C1426 C1427 1.334 . S
C1427 H1404 0.950 . S
C1427 C1426 1.334 . S
C1427 C1428 1.287 . S
C1428 C1427 1.287 . S
C1428 C1429 1.524 . S
C1428 H1447 0.913 . S
C1429 H1405 0.950 . S
C1429 C1428 1.524 . S
C1429 C1430 1.415 . S
C1430 H1406 0.950 . S
C1430 C1425 1.363 . S
C1430 C1429 1.415 . S
C1431 H1407 0.951 . S
C1431 C1432 1.366 . S
C1431 C1433 1.388 . S
C1432 C1431 1.366 . S
C1432 C1436 1.385 . S
C1433 H1408 0.951 . S
C1433 C1431 1.388 . S
C1433 C1434 1.366 . S
C1434 C1433 1.366 . S
C1434 C1435 1.414 . S
C1434 C1437 1.499 . S
C1435 H1409 0.950 . S
C1435 C1434 1.414 . S
C1435 C1436 1.374 . S
C1436 H1410 0.950 . S
C1436 C1432 1.385 . S
C1436 C1435 1.374 . S
C1437 C1434 1.499 . S
C1437 C1438 1.373 . S
C1437 C1439 1.389 . S
C1438 H1411 0.950 . S
C1438 C1424 1.377 . S
C1438 C1437 1.373 . S
C1439 C1423 1.377 . S
C1439 C1437 1.389 . S
C1439 C1440 1.524 . S
C1440 C1439 1.524 . S
C1440 C1441 1.397 . S
C1440 C1445 1.363 . S
C1441 H1412 0.950 . S
C1441 C1440 1.397 . S
C1441 C1442 1.334 . S
C1442 H1413 0.950 . S
C1442 C1441 1.334 . S
C1442 C1443 1.287 . S
C1443 C1442 1.287 . S
C1443 C1444 1.524 . S
C1443 H1446 0.999 . S
C1444 H1414 0.950 . S
C1444 C1443 1.524 . S
C1444 C1445 1.415 . S
C1445 H1415 0.950 . S
C1445 C1440 1.363 . S
C1445 C1444 1.415 . S
H1446 C1443 0.999 . S
H1447 C1428 0.913 . S
H1448 C1466 0.951 . S
H1449 C1468 0.951 . S
H1450 C1470 0.950 . S
H1451 C1471 0.950 . S
H1452 C1473 0.950 . S
H1453 C1476 0.950 . S
H1454 C1477 0.950 . S
H1455 C1479 0.950 . S
H1456 C1480 0.950 . S
H1457 C1481 0.951 . S
H1458 C1483 0.951 . S
H1459 C1485 0.950 1_455 S
H1460 C1486 0.950 1_455 S
H1461 C1488 0.950 . S
H1462 C1491 0.950 . S
H1463 C1492 0.950 . S
H1464 C1494 0.950 . S
H1465 C1495 0.950 . S
C1466 H1448 0.951 . S
C1466 C1467 1.366 . S
C1466 C1468 1.388 . S
C1467 C1466 1.366 . S
C1467 C1471 1.385 . S
C1468 H1449 0.951 . S
C1468 C1466 1.388 . S
C1468 C1469 1.366 . S
C1469 C1468 1.366 . S
C1469 C1470 1.414 . S
C1469 C1472 1.499 . S
C1470 H1450 0.950 . S
C1470 C1469 1.414 . S
C1470 C1471 1.374 . S
C1471 H1451 0.950 . S
C1471 C1467 1.385 . S
C1471 C1470 1.374 . S
C1472 C1469 1.499 . S
C1472 C1473 1.373 . S
C1472 C1474 1.389 . S
C1473 H1452 0.950 . S
C1473 C1472 1.373 . S
C1473 C1489 1.377 . S
C1474 C1472 1.389 . S
C1474 C1475 1.524 . S
C1474 C1488 1.377 . S
C1475 C1474 1.524 . S
C1475 C1476 1.397 . S
C1475 C1480 1.363 1_655 S
C1476 H1453 0.950 . S
C1476 C1475 1.397 . S
C1476 C1477 1.334 . S
C1477 H1454 0.950 . S
C1477 C1476 1.334 . S
C1477 C1478 1.287 . S
C1478 C1477 1.287 . S
C1478 C1479 1.524 1_655 S
C1478 H1497 0.913 1_655 S
C1479 H1455 0.950 . S
C1479 C1478 1.524 1_455 S
C1479 C1480 1.415 . S
C1480 H1456 0.950 . S
C1480 C1475 1.363 1_455 S
C1480 C1479 1.415 . S
C1481 H1457 0.951 . S
C1481 C1482 1.366 . S
C1481 C1483 1.388 . S
C1482 C1481 1.366 . S
C1482 C1486 1.385 . S
C1483 H1458 0.951 . S
C1483 C1481 1.388 . S
C1483 C1484 1.366 . S
C1484 C1483 1.366 . S
C1484 C1485 1.414 . S
C1484 C1487 1.499 . S
C1485 H1459 0.950 1_655 S
C1485 C1484 1.414 . S
C1485 C1486 1.374 . S
C1486 H1460 0.950 1_655 S
C1486 C1482 1.385 . S
C1486 C1485 1.374 . S
C1487 C1484 1.499 . S
C1487 C1488 1.373 . S
C1487 C1489 1.389 . S
C1488 H1461 0.950 . S
C1488 C1474 1.377 . S
C1488 C1487 1.373 . S
C1489 C1473 1.377 . S
C1489 C1487 1.389 . S
C1489 C1490 1.524 . S
C1490 C1489 1.524 . S
C1490 C1491 1.397 1_556 S
C1490 C1495 1.363 . S
C1491 H1462 0.950 . S
C1491 C1490 1.397 1_554 S
C1491 C1492 1.334 . S
C1492 H1463 0.950 . S
C1492 C1491 1.334 . S
C1492 C1493 1.287 . S
C1493 C1492 1.287 . S
C1493 C1494 1.524 . S
C1493 H1496 0.999 . S
C1494 H1464 0.950 . S
C1494 C1493 1.524 . S
C1494 C1495 1.415 1_554 S
C1495 H1465 0.950 . S
C1495 C1490 1.363 . S
C1495 C1494 1.415 1_556 S
H1496 C1493 0.999 . S
H1497 C1478 0.913 1_455 S
H1498 C1516 0.951 . S
H1499 C1518 0.951 . S
H1500 C1520 0.950 . S
H1501 C1521 0.950 . S
H1502 C1523 0.950 . S
H1503 C1526 0.950 . S
H1504 C1527 0.950 . S
H1505 C1529 0.950 1_556 S
H1506 C1530 0.972 . S
H1507 C1531 0.951 . S
H1508 C1533 0.951 . S
H1509 C1535 0.950 . S
H1510 C1536 0.950 . S
H1511 C1538 0.950 . S
H1512 C1541 0.950 . S
H1513 C1542 0.950 . S
H1514 C1544 0.950 . S
H1515 C1545 0.950 . S
C1516 H1498 0.951 . S
C1516 C1517 1.366 . S
C1516 C1518 1.388 . S
C1517 C1516 1.366 . S
C1517 C1521 1.385 . S
C1518 H1499 0.951 . S
C1518 C1516 1.388 . S
C1518 C1519 1.366 . S
C1519 C1518 1.366 . S
C1519 C1520 1.414 . S
C1519 C1522 1.499 . S
C1520 H1500 0.950 . S
C1520 C1519 1.414 . S
C1520 C1521 1.374 . S
C1521 H1501 0.950 . S
C1521 C1517 1.385 . S
C1521 C1520 1.374 . S
C1522 C1519 1.499 . S
C1522 C1523 1.373 . S
C1522 C1524 1.389 . S
C1523 H1502 0.950 . S
C1523 C1522 1.373 . S
C1523 C1539 1.377 . S
C1524 C1522 1.389 . S
C1524 C1525 1.524 . S
C1524 C1538 1.377 . S
C1525 C1524 1.524 . S
C1525 C1526 1.397 . S
C1525 C1530 1.363 . S
C1526 H1503 0.950 . S
C1526 C1525 1.397 . S
C1526 C1527 1.334 . S
C1527 H1504 0.950 . S
C1527 C1526 1.334 . S
C1527 C1528 1.287 . S
C1528 C1527 1.287 . S
C1528 C1529 1.524 . S
C1528 H1547 0.913 . S
C1529 H1505 0.950 1_554 S
C1529 C1528 1.524 . S
C1529 C1530 1.415 . S
C1530 H1506 0.972 . S
C1530 C1525 1.363 . S
C1530 C1529 1.415 . S
C1531 H1507 0.951 . S
C1531 C1532 1.366 . S
C1531 C1533 1.388 . S
C1532 C1531 1.366 . S
C1532 C1536 1.385 . S
C1533 H1508 0.951 . S
C1533 C1531 1.388 . S
C1533 C1534 1.366 . S
C1534 C1533 1.366 . S
C1534 C1535 1.414 . S
C1534 C1537 1.499 . S
C1535 H1509 0.950 . S
C1535 C1534 1.414 . S
C1535 C1536 1.374 . S
C1536 H1510 0.950 . S
C1536 C1532 1.385 . S
C1536 C1535 1.374 . S
C1537 C1534 1.499 . S
C1537 C1538 1.373 . S
C1537 C1539 1.389 . S
C1538 H1511 0.950 . S
C1538 C1524 1.377 . S
C1538 C1537 1.373 . S
C1539 C1523 1.377 . S
C1539 C1537 1.389 . S
C1539 C1540 1.524 . S
C1540 C1539 1.524 . S
C1540 C1541 1.397 . S
C1540 C1545 1.363 . S
C1541 H1512 0.950 . S
C1541 C1540 1.397 . S
C1541 C1542 1.334 . S
C1542 H1513 0.950 . S
C1542 C1541 1.334 . S
C1542 C1543 1.287 . S
C1543 C1542 1.287 . S
C1543 C1544 1.524 . S
C1543 H1546 0.999 . S
C1544 H1514 0.950 . S
C1544 C1543 1.524 . S
C1544 C1545 1.415 . S
C1545 H1515 0.950 . S
C1545 C1540 1.363 . S
C1545 C1544 1.415 . S
H1546 C1543 0.999 . S
H1547 C1528 0.913 . S
H1548 C1566 0.951 . S
H1549 C1568 0.951 . S
H1550 C1570 0.950 . S
H1551 C1571 0.950 . S
H1552 C1573 0.950 . S
H1553 C1576 0.950 . S
H1554 C1577 0.950 . S
H1555 C1579 0.950 . S
H1556 C1580 0.950 . S
H1557 C1581 0.951 . S
H1558 C1583 0.951 . S
H1559 C1585 0.950 . S
H1560 C1586 0.950 . S
H1561 C1588 0.950 . S
H1562 C1591 0.950 . S
H1563 C1592 0.950 . S
H1564 C1594 0.950 . S
H1565 C1595 0.947 1_455 S
C1566 H1548 0.951 . S
C1566 C1567 1.366 . S
C1566 C1568 1.388 . S
C1567 C1566 1.366 . S
C1567 C1571 1.385 . S
C1568 H1549 0.951 . S
C1568 C1566 1.388 . S
C1568 C1569 1.366 . S
C1569 C1568 1.366 . S
C1569 C1570 1.414 . S
C1569 C1572 1.499 . S
C1570 H1550 0.950 . S
C1570 C1569 1.414 . S
C1570 C1571 1.374 . S
C1571 H1551 0.950 . S
C1571 C1567 1.385 . S
C1571 C1570 1.374 . S
C1572 C1569 1.499 . S
C1572 C1573 1.373 . S
C1572 C1574 1.389 . S
C1573 H1552 0.950 . S
C1573 C1572 1.373 . S
C1573 C1589 1.377 . S
C1574 C1572 1.389 . S
C1574 C1575 1.524 . S
C1574 C1588 1.377 . S
C1575 C1574 1.524 . S
C1575 C1576 1.397 . S
C1575 C1580 1.363 . S
C1576 H1553 0.950 . S
C1576 C1575 1.397 . S
C1576 C1577 1.334 . S
C1577 H1554 0.950 . S
C1577 C1576 1.334 . S
C1577 C1578 1.287 . S
C1578 C1577 1.287 . S
C1578 C1579 1.524 . S
C1578 H1597 0.913 . S
C1579 H1555 0.950 . S
C1579 C1578 1.524 . S
C1579 C1580 1.415 . S
C1580 H1556 0.950 . S
C1580 C1575 1.363 . S
C1580 C1579 1.415 . S
C1581 H1557 0.951 . S
C1581 C1582 1.366 . S
C1581 C1583 1.388 . S
C1582 C1581 1.366 . S
C1582 C1586 1.385 . S
C1583 H1558 0.951 . S
C1583 C1581 1.388 . S
C1583 C1584 1.366 . S
C1584 C1583 1.366 . S
C1584 C1585 1.414 . S
C1584 C1587 1.499 . S
C1585 H1559 0.950 . S
C1585 C1584 1.414 . S
C1585 C1586 1.374 . S
C1586 H1560 0.950 . S
C1586 C1582 1.385 . S
C1586 C1585 1.374 . S
C1587 C1584 1.499 . S
C1587 C1588 1.373 . S
C1587 C1589 1.389 . S
C1588 H1561 0.950 . S
C1588 C1574 1.377 . S
C1588 C1587 1.373 . S
C1589 C1573 1.377 . S
C1589 C1587 1.389 . S
C1589 C1590 1.524 . S
C1590 C1589 1.524 . S
C1590 C1591 1.397 . S
C1590 C1595 1.363 1_455 S
C1591 H1562 0.950 . S
C1591 C1590 1.397 . S
C1591 C1592 1.334 1_455 S
C1592 H1563 0.950 . S
C1592 C1591 1.334 1_655 S
C1592 C1593 1.287 . S
C1593 C1592 1.287 . S
C1593 C1594 1.524 . S
C1593 H1596 0.999 . S
C1594 H1564 0.950 . S
C1594 C1593 1.524 . S
C1594 C1595 1.415 . S
C1595 H1565 0.947 1_655 S
C1595 C1590 1.363 1_655 S
C1595 C1594 1.415 . S
H1596 C1593 0.999 . S
H1597 C1578 0.913 . S
H1598 C1616 0.951 . S
H1599 C1618 0.951 . S
H1600 C1620 0.950 . S
H1601 C1621 0.950 . S
H1602 C1623 0.950 . S
H1603 C1626 0.950 . S
H1604 C1627 0.950 . S
H1605 C1629 0.950 . S
H1606 C1630 0.950 . S
H1607 C1631 0.951 . S
H1608 C1633 0.951 . S
H1609 C1635 0.950 . S
H1610 C1636 0.950 . S
H1611 C1638 0.950 . S
H1612 C1641 0.950 . S
H1613 C1642 0.950 . S
H1614 C1644 0.950 . S
H1615 C1645 0.950 . S
C1616 H1598 0.951 . S
C1616 C1617 1.366 . S
C1616 C1618 1.388 . S
C1617 C1616 1.366 . S
C1617 C1621 1.385 . S
C1618 H1599 0.951 . S
C1618 C1616 1.388 . S
C1618 C1619 1.366 . S
C1619 C1618 1.366 . S
C1619 C1620 1.414 . S
C1619 C1622 1.499 . S
C1620 H1600 0.950 . S
C1620 C1619 1.414 . S
C1620 C1621 1.374 . S
C1621 H1601 0.950 . S
C1621 C1617 1.385 . S
C1621 C1620 1.374 . S
C1622 C1619 1.499 . S
C1622 C1623 1.373 . S
C1622 C1624 1.389 . S
C1623 H1602 0.950 . S
C1623 C1622 1.373 . S
C1623 C1639 1.377 . S
C1624 C1622 1.389 . S
C1624 C1625 1.524 . S
C1624 C1638 1.377 . S
C1625 C1624 1.524 . S
C1625 C1626 1.397 . S
C1625 C1630 1.363 . S
C1626 H1603 0.950 . S
C1626 C1625 1.397 . S
C1626 C1627 1.334 . S
C1627 H1604 0.950 . S
C1627 C1626 1.334 . S
C1627 C1628 1.287 . S
C1628 C1627 1.287 . S
C1628 C1629 1.524 . S
C1628 H1647 0.913 . S
C1629 H1605 0.950 . S
C1629 C1628 1.524 . S
C1629 C1630 1.415 . S
C1630 H1606 0.950 . S
C1630 C1625 1.363 . S
C1630 C1629 1.415 . S
C1631 H1607 0.951 . S
C1631 C1632 1.366 . S
C1631 C1633 1.388 . S
C1632 C1631 1.366 . S
C1632 C1636 1.385 . S
C1633 H1608 0.951 . S
C1633 C1631 1.388 . S
C1633 C1634 1.366 . S
C1634 C1633 1.366 . S
C1634 C1635 1.414 . S
C1634 C1637 1.499 . S
C1635 H1609 0.950 . S
C1635 C1634 1.414 . S
C1635 C1636 1.374 . S
C1636 H1610 0.950 . S
C1636 C1632 1.385 . S
C1636 C1635 1.374 . S
C1637 C1634 1.499 . S
C1637 C1638 1.373 . S
C1637 C1639 1.389 . S
C1638 H1611 0.950 . S
C1638 C1624 1.377 . S
C1638 C1637 1.373 . S
C1639 C1623 1.377 . S
C1639 C1637 1.389 . S
C1639 C1640 1.524 . S
C1640 C1639 1.524 . S
C1640 C1641 1.397 . S
C1640 C1645 1.363 . S
C1641 H1612 0.950 . S
C1641 C1640 1.397 . S
C1641 C1642 1.334 . S
C1642 H1613 0.950 . S
C1642 C1641 1.334 . S
C1642 C1643 1.287 . S
C1643 C1642 1.287 . S
C1643 C1644 1.524 . S
C1643 H1646 0.999 . S
C1644 H1614 0.950 . S
C1644 C1643 1.524 . S
C1644 C1645 1.415 . S
C1645 H1615 0.950 . S
C1645 C1640 1.363 . S
C1645 C1644 1.415 . S
H1646 C1643 0.999 . S
H1647 C1628 0.913 . S
C467 C1 2.338 . S
C482 C312 2.349 . S
C517 C40 2.274 . S
C532 C354 2.291 . S
C582 C384 0.974 . S
C567 C99 0.972 . S
C617 C118 1.028 . S
C632 C418 1.033 . S
C682 C375 1.894 . S
C667 C16 1.879 . S
C732 C329 1.875 . S
C717 C60 1.860 . S
C782 C422 1.375 . S
C767 C79 1.362 . S
C832 C388 1.389 . S
C817 C138 1.367 . S
C867 C21 2.219 . S
C882 C443 2.228 . S
C932 C350 1.129 . S
C917 C94 1.121 . S
C967 C133 1.095 . S
C982 C325 1.106 . S
C1017 C55 2.180 . S
C1032 C409 2.192 . S
C1082 C341 2.354 . S
C1067 C157 2.338 . S
C1117 C196 2.279 . S
C1132 C363 2.290 . S
C1167 C255 0.966 . S
C1182 C393 0.972 . S
C1217 C289 1.025 . S
C1232 C427 1.029 . S
C1267 C172 1.880 . S
C1282 C346 1.892 . S
C1332 C320 1.877 . S
C1317 C216 1.872 . S
C1382 C431 1.376 . S
C1367 C235 1.360 . S
C1432 C397 1.389 . S
C1417 C294 1.366 . S
C1467 C177 2.210 . S
C1482 C414 2.228 . S
C1532 C359 1.130 . S
C1517 C250 1.124 . S
C1582 C316 1.110 . S
C1567 C274 1.097 . S
C1617 C211 2.172 . S
C1632 C380 2.187 . S
