# Generated by pormake.
# Topology ptr, (4,4)-cn, num edge types: 1
# Building blocks:
#     Node 0, Type 0, BuildingBlock: CEKHIL_clean_sbu_0, # of connection points: 4
#     Node 1, Type 0, BuildingBlock: CEKHIL_clean_sbu_0, # of connection points: 4
#     Node 2, Type 0, BuildingBlock: CEKHIL_clean_sbu_0, # of connection points: 4
#     Node 3, Type 0, BuildingBlock: CEKHIL_clean_sbu_0, # of connection points: 4
#     Node 4, Type 0, BuildingBlock: CEKHIL_clean_sbu_0, # of connection points: 4
#     Node 5, Type 0, BuildingBlock: CEKHIL_clean_sbu_0, # of connection points: 4
#     Node 6, Type 0, BuildingBlock: CEKHIL_clean_sbu_0, # of connection points: 4
#     Node 7, Type 0, BuildingBlock: CEKHIL_clean_sbu_0, # of connection points: 4
#     Node 8, Type 0, BuildingBlock: CEKHIL_clean_sbu_0, # of connection points: 4
#     Node 9, Type 0, BuildingBlock: CEKHIL_clean_sbu_0, # of connection points: 4
#     Node 10, Type 0, BuildingBlock: CEKHIL_clean_sbu_0, # of connection points: 4
#     Node 11, Type 0, BuildingBlock: CEKHIL_clean_sbu_0, # of connection points: 4
#     Node 12, Type 0, BuildingBlock: CEKHIL_clean_sbu_0, # of connection points: 4
#     Node 13, Type 0, BuildingBlock: CEKHIL_clean_sbu_0, # of connection points: 4
#     Node 14, Type 0, BuildingBlock: CEKHIL_clean_sbu_0, # of connection points: 4
#     Node 15, Type 0, BuildingBlock: CEKHIL_clean_sbu_0, # of connection points: 4
#     Node 16, Type 0, BuildingBlock: CEKHIL_clean_sbu_0, # of connection points: 4
#     Node 17, Type 0, BuildingBlock: CEKHIL_clean_sbu_0, # of connection points: 4
#     Node 18, Type 1, BuildingBlock: NAHDIM_clean_linker_0, # of connection points: 4
#     Node 19, Type 1, BuildingBlock: NAHDIM_clean_linker_0, # of connection points: 4
#     Node 20, Type 1, BuildingBlock: NAHDIM_clean_linker_0, # of connection points: 4
#     Node 21, Type 1, BuildingBlock: NAHDIM_clean_linker_0, # of connection points: 4
#     Node 22, Type 1, BuildingBlock: NAHDIM_clean_linker_0, # of connection points: 4
#     Node 23, Type 1, BuildingBlock: NAHDIM_clean_linker_0, # of connection points: 4
#     Node 24, Type 1, BuildingBlock: NAHDIM_clean_linker_0, # of connection points: 4
#     Node 25, Type 1, BuildingBlock: NAHDIM_clean_linker_0, # of connection points: 4
#     Node 26, Type 1, BuildingBlock: NAHDIM_clean_linker_0, # of connection points: 4
#     Node 27, Type 1, BuildingBlock: NAHDIM_clean_linker_0, # of connection points: 4
#     Node 28, Type 1, BuildingBlock: NAHDIM_clean_linker_0, # of connection points: 4
#     Node 29, Type 1, BuildingBlock: NAHDIM_clean_linker_0, # of connection points: 4
#     Node 30, Type 1, BuildingBlock: NAHDIM_clean_linker_0, # of connection points: 4
#     Node 31, Type 1, BuildingBlock: NAHDIM_clean_linker_0, # of connection points: 4
#     Node 32, Type 1, BuildingBlock: NAHDIM_clean_linker_0, # of connection points: 4
#     Node 33, Type 1, BuildingBlock: NAHDIM_clean_linker_0, # of connection points: 4
#     Node 34, Type 1, BuildingBlock: NAHDIM_clean_linker_0, # of connection points: 4
#     Node 35, Type 1, BuildingBlock: NAHDIM_clean_linker_0, # of connection points: 4
#     Edge 36, Type (0, 1), BuildingBlock: MIFKUJ_clean_linker_0, # of connection points: 2
#     Edge 37, Type (0, 1), BuildingBlock: MIFKUJ_clean_linker_0, # of connection points: 2
#     Edge 38, Type (0, 1), BuildingBlock: MIFKUJ_clean_linker_0, # of connection points: 2
#     Edge 39, Type (0, 1), BuildingBlock: MIFKUJ_clean_linker_0, # of connection points: 2
#     Edge 40, Type (0, 1), BuildingBlock: MIFKUJ_clean_linker_0, # of connection points: 2
#     Edge 41, Type (0, 1), BuildingBlock: MIFKUJ_clean_linker_0, # of connection points: 2
#     Edge 42, Type (0, 1), BuildingBlock: MIFKUJ_clean_linker_0, # of connection points: 2
#     Edge 43, Type (0, 1), BuildingBlock: MIFKUJ_clean_linker_0, # of connection points: 2
#     Edge 44, Type (0, 1), BuildingBlock: MIFKUJ_clean_linker_0, # of connection points: 2
#     Edge 45, Type (0, 1), BuildingBlock: MIFKUJ_clean_linker_0, # of connection points: 2
#     Edge 46, Type (0, 1), BuildingBlock: MIFKUJ_clean_linker_0, # of connection points: 2
#     Edge 47, Type (0, 1), BuildingBlock: MIFKUJ_clean_linker_0, # of connection points: 2
#     Edge 48, Type (0, 1), BuildingBlock: MIFKUJ_clean_linker_0, # of connection points: 2
#     Edge 49, Type (0, 1), BuildingBlock: MIFKUJ_clean_linker_0, # of connection points: 2
#     Edge 50, Type (0, 1), BuildingBlock: MIFKUJ_clean_linker_0, # of connection points: 2
#     Edge 51, Type (0, 1), BuildingBlock: MIFKUJ_clean_linker_0, # of connection points: 2
#     Edge 52, Type (0, 1), BuildingBlock: MIFKUJ_clean_linker_0, # of connection points: 2
#     Edge 53, Type (0, 1), BuildingBlock: MIFKUJ_clean_linker_0, # of connection points: 2
#     Edge 54, Type (0, 1), BuildingBlock: MIFKUJ_clean_linker_0, # of connection points: 2
#     Edge 55, Type (0, 1), BuildingBlock: MIFKUJ_clean_linker_0, # of connection points: 2
#     Edge 56, Type (0, 1), BuildingBlock: MIFKUJ_clean_linker_0, # of connection points: 2
#     Edge 57, Type (0, 1), BuildingBlock: MIFKUJ_clean_linker_0, # of connection points: 2
#     Edge 58, Type (0, 1), BuildingBlock: MIFKUJ_clean_linker_0, # of connection points: 2
#     Edge 59, Type (0, 1), BuildingBlock: MIFKUJ_clean_linker_0, # of connection points: 2
#     Edge 60, Type (0, 1), BuildingBlock: MIFKUJ_clean_linker_0, # of connection points: 2
#     Edge 61, Type (0, 1), BuildingBlock: MIFKUJ_clean_linker_0, # of connection points: 2
#     Edge 62, Type (0, 1), BuildingBlock: MIFKUJ_clean_linker_0, # of connection points: 2
#     Edge 63, Type (0, 1), BuildingBlock: MIFKUJ_clean_linker_0, # of connection points: 2
#     Edge 64, Type (0, 1), BuildingBlock: MIFKUJ_clean_linker_0, # of connection points: 2
#     Edge 65, Type (0, 1), BuildingBlock: MIFKUJ_clean_linker_0, # of connection points: 2
#     Edge 66, Type (0, 1), BuildingBlock: MIFKUJ_clean_linker_0, # of connection points: 2
#     Edge 67, Type (0, 1), BuildingBlock: MIFKUJ_clean_linker_0, # of connection points: 2
#     Edge 68, Type (0, 1), BuildingBlock: MIFKUJ_clean_linker_0, # of connection points: 2
#     Edge 69, Type (0, 1), BuildingBlock: MIFKUJ_clean_linker_0, # of connection points: 2
#     Edge 70, Type (0, 1), BuildingBlock: MIFKUJ_clean_linker_0, # of connection points: 2
#     Edge 71, Type (0, 1), BuildingBlock: MIFKUJ_clean_linker_0, # of connection points: 2
#     Edge 72, Type (0, 1), BuildingBlock: MIFKUJ_clean_linker_0, # of connection points: 2
#     Edge 73, Type (0, 1), BuildingBlock: MIFKUJ_clean_linker_0, # of connection points: 2
#     Edge 74, Type (0, 1), BuildingBlock: MIFKUJ_clean_linker_0, # of connection points: 2
#     Edge 75, Type (0, 1), BuildingBlock: MIFKUJ_clean_linker_0, # of connection points: 2
#     Edge 76, Type (0, 1), BuildingBlock: MIFKUJ_clean_linker_0, # of connection points: 2
#     Edge 77, Type (0, 1), BuildingBlock: MIFKUJ_clean_linker_0, # of connection points: 2
#     Edge 78, Type (0, 1), BuildingBlock: MIFKUJ_clean_linker_0, # of connection points: 2
#     Edge 79, Type (0, 1), BuildingBlock: MIFKUJ_clean_linker_0, # of connection points: 2
#     Edge 80, Type (0, 1), BuildingBlock: MIFKUJ_clean_linker_0, # of connection points: 2
#     Edge 81, Type (0, 1), BuildingBlock: MIFKUJ_clean_linker_0, # of connection points: 2
#     Edge 82, Type (0, 1), BuildingBlock: MIFKUJ_clean_linker_0, # of connection points: 2
#     Edge 83, Type (0, 1), BuildingBlock: MIFKUJ_clean_linker_0, # of connection points: 2
#     Edge 84, Type (0, 1), BuildingBlock: MIFKUJ_clean_linker_0, # of connection points: 2
#     Edge 85, Type (0, 1), BuildingBlock: MIFKUJ_clean_linker_0, # of connection points: 2
#     Edge 86, Type (0, 1), BuildingBlock: MIFKUJ_clean_linker_0, # of connection points: 2
#     Edge 87, Type (0, 1), BuildingBlock: MIFKUJ_clean_linker_0, # of connection points: 2
#     Edge 88, Type (0, 1), BuildingBlock: MIFKUJ_clean_linker_0, # of connection points: 2
#     Edge 89, Type (0, 1), BuildingBlock: MIFKUJ_clean_linker_0, # of connection points: 2
#     Edge 90, Type (0, 1), BuildingBlock: MIFKUJ_clean_linker_0, # of connection points: 2
#     Edge 91, Type (0, 1), BuildingBlock: MIFKUJ_clean_linker_0, # of connection points: 2
#     Edge 92, Type (0, 1), BuildingBlock: MIFKUJ_clean_linker_0, # of connection points: 2
#     Edge 93, Type (0, 1), BuildingBlock: MIFKUJ_clean_linker_0, # of connection points: 2
#     Edge 94, Type (0, 1), BuildingBlock: MIFKUJ_clean_linker_0, # of connection points: 2
#     Edge 95, Type (0, 1), BuildingBlock: MIFKUJ_clean_linker_0, # of connection points: 2
#     Edge 96, Type (0, 1), BuildingBlock: MIFKUJ_clean_linker_0, # of connection points: 2
#     Edge 97, Type (0, 1), BuildingBlock: MIFKUJ_clean_linker_0, # of connection points: 2
#     Edge 98, Type (0, 1), BuildingBlock: MIFKUJ_clean_linker_0, # of connection points: 2
#     Edge 99, Type (0, 1), BuildingBlock: MIFKUJ_clean_linker_0, # of connection points: 2
#     Edge 100, Type (0, 1), BuildingBlock: MIFKUJ_clean_linker_0, # of connection points: 2
#     Edge 101, Type (0, 1), BuildingBlock: MIFKUJ_clean_linker_0, # of connection points: 2
#     Edge 102, Type (0, 1), BuildingBlock: MIFKUJ_clean_linker_0, # of connection points: 2
#     Edge 103, Type (0, 1), BuildingBlock: MIFKUJ_clean_linker_0, # of connection points: 2
#     Edge 104, Type (0, 1), BuildingBlock: MIFKUJ_clean_linker_0, # of connection points: 2
#     Edge 105, Type (0, 1), BuildingBlock: MIFKUJ_clean_linker_0, # of connection points: 2
#     Edge 106, Type (0, 1), BuildingBlock: MIFKUJ_clean_linker_0, # of connection points: 2
#     Edge 107, Type (0, 1), BuildingBlock: MIFKUJ_clean_linker_0, # of connection points: 2
# Relax obj value: 0.030
# Max RMSD: 0.166
# Mean RMSD: 0.058
data_MOF--net-ptr--node1-CEKHIL_clean_sbu_0--node2-NAHDIM_clean_linker_0--edge1-MIFKUJ_clean_linker_0
_symmetry_space_group_name_H-M    P1
_symmetry_Int_Tables_number       1
_symmetry_cell_setting            triclinic
loop_
_symmetry_equiv_pos_as_xyz
'x, y, z'
_cell_length_a     115.43574
_cell_length_b     113.63972
_cell_length_c     97.985258
_cell_angle_alpha  91.63139
_cell_angle_beta   89.836264
_cell_angle_gamma 121.06868
loop_
_atom_site_label
_atom_site_type_symbol
_atom_site_fract_x
_atom_site_fract_y
_atom_site_fract_z
_atom_type_partial_charge
Co0 Co 0.00209 0.33508 0.00978 0.0
O1 O 0.00491 0.32435 0.02258 0.0
O2 O 0.02082 0.345 0.01616 0.0
C3 C 0.99066 0.31791 0.99423 0.0
O4 O 0.0027 0.34872 0.99615 0.0
Co5 Co 0.97266 0.32772 0.00374 0.0
O6 O 0.98136 0.34062 0.98875 0.0
C7 C 0.98628 0.34345 0.02892 0.0
C8 C 0.01743 0.33427 0.02338 0.0
C9 C 0.99405 0.34916 0.98818 0.0
O10 O 0.99714 0.34387 0.02505 0.0
O11 O 0.97508 0.33685 0.02224 0.0
O12 O 0.00379 0.3246 0.99472 0.0
O13 O 0.98488 0.3208 0.004 0.0
Co14 Co 0.66122 0.65908 0.01573 0.0
O15 O 0.67446 0.67077 0.0029 0.0
O16 O 0.66985 0.64981 0.00764 0.0
C17 C 0.66794 0.67576 0.03209 0.0
O18 O 0.64891 0.64443 0.02898 0.0
Co19 Co 0.63935 0.66493 0.02626 0.0
O20 O 0.63574 0.65081 0.03978 0.0
C21 C 0.63679 0.65292 0.99853 0.0
C22 C 0.67714 0.66108 0.0011 0.0
C23 C 0.64027 0.64275 0.03821 0.0
O24 O 0.64669 0.65111 0.00106 0.0
O25 O 0.63315 0.65932 0.00678 0.0
O26 O 0.67414 0.66898 0.0306 0.0
O27 O 0.6585 0.67283 0.02322 0.0
Co28 Co 0.33922 0.00513 0.0071 0.0
O29 O 0.33 0.00855 0.99285 0.0
O30 O 0.34895 0.02452 0.00314 0.0
C31 C 0.32074 0.99204 0.01957 0.0
O32 O 0.35131 0.00546 0.0225 0.0
Co33 Co 0.33279 0.9756 0.01198 0.0
O34 O 0.34259 0.98385 0.0295 0.0
C35 C 0.35025 0.99083 0.98906 0.0
C36 C 0.33944 0.02139 0.99414 0.0
C37 C 0.3508 0.99675 0.031 0.0
O38 O 0.34984 0.00151 0.993 0.0
O39 O 0.34359 0.97924 0.99483 0.0
O40 O 0.327 0.00536 0.02066 0.0
O41 O 0.32504 0.98709 0.01014 0.0
Co42 Co 0.00158 0.66964 0.01329 0.0
O43 O 0.9999 0.68032 0.99948 0.0
O44 O 0.98308 0.6604 0.00641 0.0
C45 C 0.01325 0.68742 0.02824 0.0
O46 O 0.99957 0.65604 0.02764 0.0
Co47 Co 0.02986 0.67537 0.0217 0.0
O48 O 0.01998 0.66409 0.03751 0.0
C49 C 0.01738 0.6602 0.99583 0.0
C50 C 0.98721 0.67087 0.99857 0.0
C51 C 0.00723 0.65579 0.03703 0.0
O52 O 0.00642 0.65989 0.99902 0.0
O53 O 0.02827 0.66671 0.00304 0.0
O54 O 1.00014 0.68109 0.02752 0.0
O55 O 0.01891 0.68356 0.01921 0.0
Co56 Co 0.34334 0.34945 0.00565 0.0
O57 O 0.33298 0.33857 0.02065 0.0
O58 O 0.33542 0.35856 0.01551 0.0
C59 C 0.33458 0.33173 0.99028 0.0
O60 O 0.35276 0.36328 0.99063 0.0
Co61 Co 0.36384 0.34393 0.99082 0.0
O62 O 0.36291 0.35547 0.9766 0.0
C63 C 0.37079 0.35803 0.01801 0.0
C64 C 0.32995 0.34791 0.02322 0.0
C65 C 0.35885 0.36375 0.97944 0.0
O66 O 0.36008 0.35883 0.01762 0.0
O67 O 0.37359 0.35171 0.00877 0.0
O68 O 0.32822 0.33812 0.99321 0.0
O69 O 0.3455 0.33564 0.99731 0.0
Co70 Co 0.6646 0.00134 0.01092 0.0
O71 O 0.67425 0.99864 0.02516 0.0
O72 O 0.65472 0.98228 0.01621 0.0
C73 C 0.68268 0.01324 0.99755 0.0
O74 O 0.65204 0.00044 0.99574 0.0
Co75 Co 0.67182 0.0309 0.00456 0.0
O76 O 0.66066 0.02176 0.98792 0.0
C77 C 0.65585 0.01765 0.02892 0.0
C78 C 0.66463 0.98585 0.02484 0.0
C79 C 0.65226 0.00885 0.98704 0.0
O80 O 0.65493 0.0063 0.02497 0.0
O81 O 0.66297 0.02893 0.02273 0.0
O82 O 0.67607 0.99989 0.99718 0.0
O83 O 0.6789 0.0189 0.00674 0.0
Co84 Co 0.6717 0.68045 0.33907 0.0
O85 O 0.67121 0.66876 0.35317 0.0
O86 O 0.68889 0.68919 0.34871 0.0
C87 C 0.66223 0.66369 0.32274 0.0
O88 O 0.67632 0.6951 0.32502 0.0
Co89 Co 0.64549 0.67592 0.32526 0.0
O90 O 0.65806 0.68911 0.31189 0.0
C91 C 0.65297 0.68814 0.35322 0.0
C92 C 0.68371 0.67814 0.35583 0.0
C93 C 0.67064 0.69685 0.31461 0.0
O94 O 0.66462 0.68927 0.35211 0.0
O95 O 0.64361 0.68212 0.3441 0.0
O96 O 0.67507 0.66962 0.32555 0.0
O97 O 0.65545 0.6673 0.33047 0.0
Co98 Co 0.32297 0.98716 0.35494 0.0
O99 O 0.33466 0.99667 0.33996 0.0
O100 O 0.32941 0.97604 0.34663 0.0
C101 C 0.33217 0.00528 0.36984 0.0
O102 O 0.31201 0.97427 0.37006 0.0
Co103 Co 0.30343 0.99539 0.36768 0.0
O104 O 0.30177 0.9831 0.38254 0.0
C105 C 0.297 0.98089 0.34071 0.0
C106 C 0.33609 0.98609 0.3384 0.0
C107 C 0.30523 0.97421 0.38053 0.0
O108 O 0.30672 0.9786 0.34228 0.0
O109 O 0.29477 0.98831 0.34914 0.0
O110 O 0.33788 0.99808 0.36788 0.0
O111 O 0.32184 0.002 0.36209 0.0
Co112 Co 0.01857 0.34019 0.34269 0.0
O113 O 0.00992 0.3437 0.32786 0.0
O114 O 0.02958 0.35905 0.33744 0.0
C115 C 0.99996 0.32901 0.3556 0.0
O116 O 0.03047 0.34086 0.35835 0.0
Co117 Co 0.01029 0.31074 0.35078 0.0
O118 O 0.0227 0.31991 0.36666 0.0
C119 C 0.02564 0.32218 0.32557 0.0
C120 C 0.02018 0.35623 0.32843 0.0
C121 C 0.03088 0.33287 0.36713 0.0
O122 O 0.02794 0.33419 0.3292 0.0
O123 O 0.01781 0.31135 0.33215 0.0
O124 O 0.00702 0.34237 0.35587 0.0
O125 O 0.00376 0.32296 0.3469 0.0
Co126 Co 0.66297 0.9851 0.34695 0.0
O127 O 0.66009 0.99387 0.33179 0.0
O128 O 0.64489 0.97361 0.33968 0.0
C129 C 0.67277 0.00404 0.36087 0.0
O130 O 0.66148 0.97282 0.36244 0.0
Co131 Co 0.69105 0.99382 0.3592 0.0
O132 O 0.68073 0.9825 0.37482 0.0
C133 C 0.6819 0.97758 0.33306 0.0
C134 C 0.64786 0.98327 0.33111 0.0
C135 C 0.66832 0.97332 0.37301 0.0
O136 O 0.67011 0.9761 0.33423 0.0
O137 O 0.69169 0.98486 0.34147 0.0
O138 O 0.65967 0.99654 0.35976 0.0
O139 O 0.67944 0.00033 0.3531 0.0
Co140 Co 0.01593 0.68638 0.33974 0.0
O141 O 0.00486 0.67525 0.3544 0.0
O142 O 0.00387 0.69251 0.34572 0.0
C143 C 0.01279 0.66854 0.32617 0.0
O144 O 0.0251 0.69988 0.3244 0.0
Co145 Co 0.04168 0.68664 0.3302 0.0
O146 O 0.0409 0.69674 0.31449 0.0
C147 C 0.04245 0.7017 0.3557 0.0
C148 C 0.99922 0.68261 0.3543 0.0
C149 C 0.0338 0.70236 0.31496 0.0
O150 O 0.03036 0.69914 0.35345 0.0
O151 O 0.04831 0.69704 0.34808 0.0
O152 O 0.00388 0.67227 0.32636 0.0
O153 O 0.02279 0.67509 0.33469 0.0
Co154 Co 0.32141 0.33462 0.34199 0.0
O155 O 0.33314 0.33545 0.35634 0.0
O156 O 0.31318 0.31719 0.35101 0.0
C157 C 0.33783 0.34413 0.3263 0.0
O158 O 0.30684 0.32974 0.32741 0.0
Co159 Co 0.32565 0.36106 0.32901 0.0
O160 O 0.314 0.34806 0.31424 0.0
C161 C 0.31321 0.35336 0.35623 0.0
C162 C 0.32417 0.3227 0.35847 0.0
C163 C 0.30599 0.33539 0.31654 0.0
O164 O 0.31278 0.34182 0.35507 0.0
O165 O 0.31868 0.3627 0.34733 0.0
O166 O 0.33189 0.33109 0.32862 0.0
O167 O 0.33436 0.35111 0.33412 0.0
Co168 Co 0.34077 0.01734 0.6699 0.0
O169 O 0.34274 0.00766 0.68472 0.0
O170 O 0.35829 0.0286 0.67853 0.0
C171 C 0.33201 0.9995 0.65474 0.0
O172 O 0.34298 0.03038 0.6549 0.0
Co173 Co 0.31286 0.00878 0.65692 0.0
O174 O 0.32378 0.02178 0.64256 0.0
C175 C 0.32041 0.02247 0.68423 0.0
C176 C 0.35477 0.01839 0.68653 0.0
C177 C 0.33627 0.03063 0.64456 0.0
O178 O 0.3327 0.02543 0.6826 0.0
O179 O 0.31083 0.01489 0.67573 0.0
O180 O 0.34501 0.00673 0.65686 0.0
O181 O 0.32483 0.00255 0.66249 0.0
Co182 Co 0.99136 0.32283 0.6752 0.0
O183 O 0.00375 0.33421 0.66143 0.0
O184 O 0.00219 0.31529 0.66913 0.0
C185 C 0.99534 0.34 0.69009 0.0
O186 O 0.98048 0.30882 0.68966 0.0
Co187 Co 0.96653 0.32508 0.68354 0.0
O188 O 0.96514 0.31327 0.69865 0.0
C189 C 0.96566 0.31049 0.65777 0.0
C190 C 0.00817 0.32576 0.66124 0.0
C191 C 0.97136 0.30671 0.69849 0.0
O192 O 0.97714 0.31177 0.66065 0.0
O193 O 0.96021 0.31576 0.66515 0.0
O194 O 0.00353 0.33537 0.68951 0.0
O195 O 0.98587 0.3351 0.68087 0.0
Co196 Co 0.67583 0.66914 0.67456 0.0
O197 O 0.66439 0.67015 0.66102 0.0
O198 O 0.68446 0.68754 0.6676 0.0
C199 C 0.65922 0.65786 0.68979 0.0
O200 O 0.69018 0.67226 0.68868 0.0
Co201 Co 0.67107 0.6411 0.68365 0.0
O202 O 0.68478 0.65225 0.69801 0.0
C203 C 0.68297 0.65153 0.65678 0.0
C204 C 0.67362 0.68303 0.66008 0.0
C205 C 0.6922 0.66528 0.69749 0.0
O206 O 0.68455 0.66334 0.66004 0.0
O207 O 0.67667 0.64103 0.66425 0.0
O208 O 0.66524 0.67114 0.68909 0.0
O209 O 0.66272 0.65185 0.68074 0.0
Co210 Co 0.33768 0.32841 0.68052 0.0
O211 O 0.33743 0.33998 0.66672 0.0
O212 O 0.31991 0.31978 0.67201 0.0
C213 C 0.34816 0.34545 0.69654 0.0
O214 O 0.33381 0.31386 0.6945 0.0
Co215 Co 0.36446 0.33283 0.69223 0.0
O216 O 0.35286 0.3195 0.70601 0.0
C217 C 0.35518 0.32004 0.66471 0.0
C218 C 0.32477 0.33072 0.66476 0.0
C219 C 0.34012 0.31194 0.70419 0.0
O220 O 0.3438 0.31935 0.66662 0.0
O221 O 0.36506 0.32597 0.67328 0.0
O222 O 0.33515 0.33927 0.69464 0.0
O223 O 0.3545 0.3418 0.68818 0.0
Co224 Co 0.68299 0.01994 0.66677 0.0
O225 O 0.67164 0.01075 0.68204 0.0
O226 O 0.67521 0.03032 0.6739 0.0
C227 C 0.67466 0.00093 0.65309 0.0
O228 O 0.6933 0.03228 0.65101 0.0
Co229 Co 0.70378 0.01296 0.65541 0.0
O230 O 0.70609 0.02529 0.64044 0.0
C231 C 0.70958 0.02898 0.6814 0.0
C232 C 0.6691 0.02063 0.68263 0.0
C233 C 0.70122 0.03309 0.64134 0.0
O234 O 0.69915 0.0301 0.67951 0.0
O235 O 0.71251 0.02176 0.67348 0.0
O236 O 0.66846 0.00774 0.65408 0.0
O237 O 0.68516 0.00528 0.66094 0.0
Co238 Co 0.98252 0.66712 0.67535 0.0
O239 O 0.99225 0.66532 0.69031 0.0
O240 O 0.97188 0.64915 0.68291 0.0
C241 C 0.99998 0.67636 0.66087 0.0
O242 O 0.96957 0.66466 0.65996 0.0
Co243 Co 0.99021 0.69544 0.66418 0.0
O244 O 0.97649 0.68465 0.64973 0.0
C245 C 0.97669 0.68707 0.6907 0.0
C246 C 0.98198 0.6529 0.69131 0.0
C247 C 0.96848 0.67173 0.65056 0.0
O248 O 0.97423 0.67478 0.68831 0.0
O249 O 0.98397 0.69705 0.6829 0.0
O250 O 0.99299 0.66315 0.66236 0.0
O251 O 0.99696 0.68356 0.66891 0.0
C252 C 0.19184 0.28069 0.066 0.0
C253 C 0.19874 0.29125 0.07775 0.0
C254 C 0.18827 0.28693 0.09998 0.0
C255 C 0.19216 0.30033 0.10436 0.0
C256 C 0.18447 0.30267 0.11397 0.0
C257 C 0.17257 0.29135 0.11913 0.0
C258 C 0.16892 0.2778 0.11507 0.0
C259 C 0.17701 0.27576 0.10571 0.0
C260 C 0.18886 0.31724 0.11831 0.0
C261 C 0.15623 0.26549 0.12022 0.0
C262 C 0.08904 0.30659 0.08917 0.0
C263 C 0.09571 0.30063 0.09703 0.0
C264 C 0.11804 0.30622 0.1052 0.0
C265 C 0.1135 0.29362 0.11151 0.0
C266 C 0.12246 0.29128 0.11894 0.0
C267 C 0.13617 0.30191 0.12054 0.0
C268 C 0.14074 0.31466 0.11434 0.0
C269 C 0.13163 0.31656 0.10661 0.0
C270 C 0.11725 0.27736 0.12498 0.0
C271 C 0.15524 0.32627 0.11582 0.0
C272 C 0.11443 0.30089 0.20822 0.0
C273 C 0.11059 0.28854 0.20091 0.0
C274 C 0.12023 0.28667 0.19402 0.0
C275 C 0.13393 0.29747 0.19415 0.0
C276 C 0.13786 0.30981 0.20165 0.0
C277 C 0.12806 0.31129 0.20869 0.0
C278 C 0.11571 0.2732 0.18643 0.0
C279 C 0.15237 0.32153 0.202 0.0
C280 C 0.20218 0.25943 0.20727 0.0
C281 C 0.2032 0.27305 0.21119 0.0
C282 C 0.18365 0.27545 0.20751 0.0
C283 C 0.16994 0.26658 0.2045 0.0
C284 C 0.16257 0.27103 0.19713 0.0
C285 C 0.16901 0.28486 0.1931 0.0
C286 C 0.18278 0.29406 0.19666 0.0
C287 C 0.19001 0.28921 0.20372 0.0
C288 C 0.14791 0.26089 0.1936 0.0
C289 C 0.18983 0.30901 0.19308 0.0
C290 C 0.16337 0.29379 0.12776 0.0
C291 C 0.15459 0.29687 0.12111 0.0
C292 C 0.14575 0.29954 0.12842 0.0
C293 C 0.14572 0.29931 0.14284 0.0
C294 C 0.13734 0.30246 0.15056 0.0
C295 C 0.13692 0.3016 0.1647 0.0
C296 C 0.14487 0.29754 0.17168 0.0
C297 C 0.144 0.29599 0.18598 0.0
C298 C 0.15223 0.29221 0.19264 0.0
C299 C 0.16122 0.28967 0.18538 0.0
C300 C 0.16208 0.29098 0.17102 0.0
C301 C 0.17085 0.28834 0.16331 0.0
C302 C 0.1715 0.28952 0.14918 0.0
C303 C 0.16315 0.29304 0.14216 0.0
C304 C 0.15427 0.29579 0.14971 0.0
C305 C 0.15381 0.29486 0.16416 0.0
C306 C 0.08644 0.29786 0.20046 0.0
C307 C 0.09141 0.29547 0.21401 0.0
O308 O 0.19505 0.28454 0.09002 0.0
O309 O 0.19039 0.27051 0.21432 0.0
O310 O 0.10542 0.30327 0.21487 0.0
O311 O 0.10971 0.30875 0.09766 0.0
H312 H 0.19506 0.29858 0.07711 0.0
H313 H 0.18069 0.27542 0.06703 0.0
H314 H 0.19482 0.27282 0.0661 0.0
H315 H 0.19462 0.28584 0.05604 0.0
H316 H 0.20113 0.30894 0.10016 0.0
H317 H 0.17422 0.26546 0.10232 0.0
H318 H 0.18181 0.32002 0.11382 0.0
H319 H 0.19926 0.32471 0.11493 0.0
H320 H 0.18844 0.31816 0.12959 0.0
H321 H 0.15451 0.25566 0.11558 0.0
H322 H 0.14734 0.26643 0.11791 0.0
H323 H 0.15693 0.2651 0.13147 0.0
H324 H 0.09197 0.28963 0.09433 0.0
H325 H 0.08401 0.29929 0.08016 0.0
H326 H 0.09723 0.31497 0.08299 0.0
H327 H 0.07813 0.31034 0.10399 0.0
H328 H 0.10302 0.28547 0.11057 0.0
H329 H 0.13507 0.32624 0.10172 0.0
H330 H 0.12428 0.27363 0.12284 0.0
H331 H 0.10705 0.26958 0.12092 0.0
H332 H 0.11658 0.27821 0.13622 0.0
H333 H 0.1567 0.33611 0.1122 0.0
H334 H 0.16179 0.32366 0.10974 0.0
H335 H 0.15865 0.32772 0.12665 0.0
H336 H 0.08794 0.28439 0.21471 0.0
H337 H 0.10014 0.28031 0.20043 0.0
H338 H 0.13095 0.32074 0.2144 0.0
H339 H 0.11614 0.27479 0.17527 0.0
H340 H 0.1052 0.26518 0.18898 0.0
H341 H 0.12257 0.26938 0.18882 0.0
H342 H 0.15369 0.3307 0.20778 0.0
H343 H 0.15599 0.32448 0.19143 0.0
H344 H 0.15884 0.31817 0.20683 0.0
H345 H 0.20725 0.2797 0.20216 0.0
H346 H 0.21228 0.26118 0.20451 0.0
H347 H 0.19528 0.25457 0.1983 0.0
H348 H 0.19813 0.25225 0.21586 0.0
H349 H 0.16511 0.25603 0.20766 0.0
H350 H 0.20054 0.29619 0.20646 0.0
H351 H 0.14594 0.26128 0.18258 0.0
H352 H 0.14141 0.2637 0.19949 0.0
H353 H 0.1449 0.25019 0.19597 0.0
H354 H 0.20001 0.31514 0.19796 0.0
H355 H 0.18365 0.3135 0.19629 0.0
H356 H 0.191 0.30989 0.18185 0.0
H357 H 0.15457 0.29707 0.11004 0.0
H358 H 0.13093 0.30554 0.14574 0.0
H359 H 0.13019 0.30405 0.17008 0.0
H360 H 0.15141 0.29092 0.2036 0.0
H361 H 0.17732 0.28533 0.16812 0.0
H362 H 0.17849 0.28745 0.14379 0.0
H363 H 0.07522 0.2917 0.19982 0.0
H364 H 0.09045 0.29466 0.19173 0.0
H365 H 0.08988 0.30891 0.19953 0.0
C366 C 0.71596 0.90213 0.07792 0.0
C367 C 0.70508 0.90033 0.08804 0.0
C368 C 0.71111 0.89616 0.11024 0.0
C369 C 0.69914 0.88476 0.11468 0.0
C370 C 0.69951 0.87573 0.1239 0.0
C371 C 0.71216 0.87813 0.12862 0.0
C372 C 0.72426 0.88983 0.12434 0.0
C373 C 0.72355 0.89886 0.11537 0.0
C374 C 0.6864 0.86351 0.12842 0.0
C375 C 0.73793 0.89259 0.12895 0.0
C376 C 0.70757 0.78487 0.09249 0.0
C377 C 0.71278 0.79889 0.09846 0.0
C378 C 0.70642 0.81062 0.11547 0.0
C379 C 0.7191 0.82285 0.11624 0.0
C380 C 0.72087 0.83433 0.12383 0.0
C381 C 0.70969 0.83364 0.13058 0.0
C382 C 0.69689 0.82137 0.12973 0.0
C383 C 0.69549 0.80994 0.12235 0.0
C384 C 0.73468 0.84723 0.12461 0.0
C385 C 0.68466 0.82036 0.13651 0.0
C386 C 0.71422 0.8194 0.21993 0.0
C387 C 0.72678 0.82926 0.21464 0.0
C388 C 0.72801 0.84011 0.20698 0.0
C389 C 0.71644 0.84102 0.20445 0.0
C390 C 0.70383 0.83119 0.20989 0.0
C391 C 0.70292 0.82056 0.21762 0.0
C392 C 0.74163 0.85052 0.20146 0.0
C393 C 0.69128 0.83184 0.20737 0.0
C394 C 0.73366 0.9462 0.20964 0.0
C395 C 0.72407 0.93201 0.21529 0.0
C396 C 0.72814 0.91293 0.21323 0.0
C397 C 0.73868 0.91062 0.21045 0.0
C398 C 0.7361 0.898 0.2048 0.0
C399 C 0.72258 0.88736 0.20217 0.0
C400 C 0.71181 0.88933 0.2058 0.0
C401 C 0.7147 0.90214 0.21128 0.0
C402 C 0.74782 0.89618 0.20125 0.0
C403 C 0.69727 0.87802 0.20357 0.0
C404 C 0.7127 0.86792 0.13731 0.0
C405 C 0.71121 0.8561 0.13083 0.0
C406 C 0.71133 0.84586 0.13826 0.0
C407 C 0.71295 0.84734 0.15262 0.0
C408 C 0.71301 0.83718 0.16042 0.0
C409 C 0.71434 0.83862 0.17457 0.0
C410 C 0.71597 0.85043 0.18145 0.0
C411 C 0.71738 0.85201 0.19583 0.0
C412 C 0.71937 0.86406 0.2023 0.0
C413 C 0.7198 0.87456 0.1948 0.0
C414 C 0.718 0.87298 0.18044 0.0
C415 C 0.71801 0.88318 0.17261 0.0
C416 C 0.7161 0.88148 0.15852 0.0
C417 C 0.71446 0.86968 0.15165 0.0
C418 C 0.71453 0.85931 0.15933 0.0
C419 C 0.71617 0.86091 0.17375 0.0
C420 C 0.71715 0.79313 0.23862 0.0
C421 C 0.72203 0.8049 0.22941 0.0
O422 O 0.71087 0.90464 0.10097 0.0
O423 O 0.73135 0.92566 0.21778 0.0
O424 O 0.71251 0.80866 0.22726 0.0
O425 O 0.70429 0.7993 0.10824 0.0
H426 H 0.69707 0.88922 0.08791 0.0
H427 H 0.72038 0.89592 0.08102 0.0
H428 H 0.72419 0.91309 0.07767 0.0
H429 H 0.71152 0.89859 0.06749 0.0
H430 H 0.68951 0.88294 0.11091 0.0
H431 H 0.73273 0.90779 0.11192 0.0
H432 H 0.6854 0.85395 0.12392 0.0
H433 H 0.67747 0.86405 0.12522 0.0
H434 H 0.6864 0.86281 0.13971 0.0
H435 H 0.74637 0.90161 0.12396 0.0
H436 H 0.73879 0.88344 0.12663 0.0
H437 H 0.73906 0.8945 0.14017 0.0
H438 H 0.71617 0.80718 0.09091 0.0
H439 H 0.72199 0.78008 0.09852 0.0
H440 H 0.70532 0.78553 0.08146 0.0
H441 H 0.69665 0.7786 0.09545 0.0
H442 H 0.72767 0.82345 0.11103 0.0
H443 H 0.68576 0.80045 0.12169 0.0
H444 H 0.7344 0.85555 0.11924 0.0
H445 H 0.7426 0.84569 0.11991 0.0
H446 H 0.73757 0.85072 0.13543 0.0
H447 H 0.6752 0.81057 0.13375 0.0
H448 H 0.68351 0.82907 0.13356 0.0
H449 H 0.68605 0.82103 0.14776 0.0
H450 H 0.72676 0.80403 0.21979 0.0
H451 H 0.73564 0.82855 0.21647 0.0
H452 H 0.69329 0.81294 0.22178 0.0
H453 H 0.74121 0.84993 0.19013 0.0
H454 H 0.7498 0.84885 0.20497 0.0
H455 H 0.74422 0.86106 0.2047 0.0
H456 H 0.68219 0.82327 0.21211 0.0
H457 H 0.68939 0.83148 0.19622 0.0
H458 H 0.69281 0.84173 0.21158 0.0
H459 H 0.71612 0.92616 0.2073 0.0
H460 H 0.72808 0.95149 0.20736 0.0
H461 H 0.7382 0.94512 0.20004 0.0
H462 H 0.74195 0.95265 0.2171 0.0
H463 H 0.74901 0.91895 0.21226 0.0
H464 H 0.70648 0.9037 0.21399 0.0
H465 H 0.74755 0.89379 0.19014 0.0
H466 H 0.74693 0.88736 0.20677 0.0
H467 H 0.75775 0.90548 0.20389 0.0
H468 H 0.69008 0.88066 0.20824 0.0
H469 H 0.69555 0.86835 0.20795 0.0
H470 H 0.69504 0.87606 0.19245 0.0
H471 H 0.70989 0.85482 0.11981 0.0
H472 H 0.71194 0.82794 0.15568 0.0
H473 H 0.71417 0.83039 0.18004 0.0
H474 H 0.7206 0.86528 0.21332 0.0
H475 H 0.71938 0.89257 0.17729 0.0
H476 H 0.71604 0.88959 0.15305 0.0
H477 H 0.71685 0.78474 0.23198 0.0
H478 H 0.70582 0.78811 0.23918 0.0
H479 H 0.72988 0.80162 0.25579 0.0
C480 C 0.193 0.89013 0.0842 0.0
C481 C 0.19871 0.90396 0.09199 0.0
C482 C 0.18927 0.8958 0.11426 0.0
C483 C 0.17983 0.89997 0.11575 0.0
C484 C 0.16843 0.89267 0.12394 0.0
C485 C 0.16636 0.88082 0.13056 0.0
C486 C 0.1761 0.87683 0.12933 0.0
C487 C 0.1876 0.88458 0.12139 0.0
C488 C 0.15844 0.89743 0.12527 0.0
C489 C 0.17414 0.86411 0.13597 0.0
C490 C 0.0863 0.82944 0.07136 0.0
C491 C 0.09086 0.8236 0.0826 0.0
C492 C 0.09778 0.83328 0.10567 0.0
C493 C 0.10653 0.8285 0.10847 0.0
C494 C 0.1165 0.83487 0.11875 0.0
C495 C 0.11784 0.84636 0.12623 0.0
C496 C 0.10868 0.85087 0.12373 0.0
C497 C 0.09857 0.84405 0.11365 0.0
C498 C 0.12585 0.82955 0.12137 0.0
C499 C 0.1099 0.86323 0.1313 0.0
C500 C 0.08719 0.82431 0.21073 0.0
C501 C 0.09684 0.82053 0.20825 0.0
C502 C 0.10955 0.82995 0.20296 0.0
C503 C 0.11265 0.84342 0.20018 0.0
C504 C 0.1032 0.84745 0.20336 0.0
C505 C 0.09061 0.83784 0.20872 0.0
C506 C 0.11955 0.82545 0.20007 0.0
C507 C 0.10627 0.86179 0.2007 0.0
C508 C 0.20912 0.92942 0.21483 0.0
C509 C 0.20179 0.92293 0.22809 0.0
C510 C 0.18379 0.89995 0.21983 0.0
C511 C 0.18029 0.88624 0.21819 0.0
C512 C 0.16885 0.87672 0.21049 0.0
C513 C 0.16057 0.881 0.20446 0.0
C514 C 0.16372 0.89473 0.2065 0.0
C515 C 0.17536 0.9041 0.21405 0.0
C516 C 0.16578 0.86216 0.20852 0.0
C517 C 0.15494 0.89957 0.20047 0.0
C518 C 0.15349 0.87197 0.13776 0.0
C519 C 0.14204 0.86339 0.12973 0.0
C520 C 0.12958 0.85449 0.13562 0.0
C521 C 0.1285 0.85387 0.14999 0.0
C522 C 0.11626 0.84465 0.15626 0.0
C523 C 0.11524 0.84432 0.17042 0.0
C524 C 0.12643 0.85319 0.17885 0.0
C525 C 0.12546 0.85303 0.19326 0.0
C526 C 0.13673 0.86213 0.20132 0.0
C527 C 0.14906 0.87138 0.19537 0.0
C528 C 0.15029 0.87153 0.181 0.0
C529 C 0.16261 0.88056 0.17469 0.0
C530 C 0.16368 0.88077 0.16054 0.0
C531 C 0.1525 0.8719 0.15215 0.0
C532 C 0.13997 0.86273 0.15828 0.0
C533 C 0.1389 0.86247 0.17272 0.0
C534 C 0.05392 0.79856 0.20392 0.0
C535 C 0.06693 0.8014 0.21106 0.0
O536 O 0.19992 0.90226 0.10578 0.0
O537 O 0.19537 0.90872 0.22692 0.0
O538 O 0.07451 0.81519 0.21502 0.0
O539 O 0.08867 0.82793 0.09519 0.0
H540 H 0.19169 0.90781 0.09052 0.0
H541 H 0.18279 0.88263 0.08802 0.0
H542 H 0.19971 0.88592 0.08559 0.0
H543 H 0.192 0.89134 0.07313 0.0
H544 H 0.18137 0.90893 0.11051 0.0
H545 H 0.19505 0.88154 0.1202 0.0
H546 H 0.14912 0.89026 0.11933 0.0
H547 H 0.16256 0.90794 0.1214 0.0
H548 H 0.15556 0.89734 0.13611 0.0
H549 H 0.18203 0.86175 0.13299 0.0
H550 H 0.16406 0.85512 0.13312 0.0
H551 H 0.17447 0.86555 0.14723 0.0
H552 H 0.10188 0.82781 0.08111 0.0
H553 H 0.08804 0.82619 0.06113 0.0
H554 H 0.09219 0.84085 0.07215 0.0
H555 H 0.07538 0.82588 0.07231 0.0
H556 H 0.10565 0.81986 0.10255 0.0
H557 H 0.09164 0.84753 0.11148 0.0
H558 H 0.12703 0.82887 0.13251 0.0
H559 H 0.136 0.83683 0.11729 0.0
H560 H 0.12211 0.81928 0.1164 0.0
H561 H 0.1027 0.86608 0.12733 0.0
H562 H 0.12034 0.87219 0.13048 0.0
H563 H 0.10787 0.86103 0.14229 0.0
H564 H 0.07234 0.79875 0.20328 0.0
H565 H 0.09447 0.81023 0.2104 0.0
H566 H 0.08318 0.84073 0.21092 0.0
H567 H 0.12135 0.82566 0.18892 0.0
H568 H 0.11596 0.81491 0.2036 0.0
H569 H 0.12939 0.83271 0.20517 0.0
H570 H 0.09797 0.86341 0.20401 0.0
H571 H 0.10793 0.86374 0.18962 0.0
H572 H 0.11573 0.86943 0.20617 0.0
H573 H 0.19423 0.92599 0.23027 0.0
H574 H 0.21443 0.94081 0.21584 0.0
H575 H 0.20178 0.92605 0.2062 0.0
H576 H 0.21662 0.92636 0.21238 0.0
H577 H 0.18678 0.8831 0.22275 0.0
H578 H 0.17779 0.91462 0.21524 0.0
H579 H 0.16534 0.85956 0.19745 0.0
H580 H 0.15571 0.85494 0.2128 0.0
H581 H 0.17346 0.86056 0.21353 0.0
H582 H 0.15774 0.90998 0.20443 0.0
H583 H 0.14414 0.89228 0.20275 0.0
H584 H 0.15597 0.89989 0.1892 0.0
H585 H 0.14282 0.86368 0.11869 0.0
H586 H 0.10733 0.8376 0.15028 0.0
H587 H 0.10554 0.83705 0.17467 0.0
H588 H 0.13587 0.86205 0.21235 0.0
H589 H 0.17159 0.88759 0.18061 0.0
H590 H 0.17338 0.888 0.15625 0.0
H591 H 0.04813 0.80179 0.2105 0.0
H592 H 0.04743 0.78744 0.20117 0.0
H593 H 0.05647 0.80442 0.19438 0.0
C594 C 0.3307 0.12915 0.92028 0.0
C595 C 0.31647 0.11694 0.92296 0.0
C596 C 0.30426 0.11805 0.90352 0.0
C597 C 0.29086 0.11463 0.90511 0.0
C598 C 0.28558 0.1212 0.89757 0.0
C599 C 0.29402 0.13152 0.88838 0.0
C600 C 0.3076 0.13489 0.88673 0.0
C601 C 0.31242 0.12782 0.89406 0.0
C602 C 0.27102 0.11716 0.89946 0.0
C603 C 0.31712 0.14608 0.87739 0.0
C604 C 0.26461 0.20344 0.90048 0.0
C605 C 0.27391 0.20431 0.91211 0.0
C606 C 0.28422 0.19174 0.90197 0.0
C607 C 0.29609 0.19352 0.89627 0.0
C608 C 0.29648 0.18246 0.89009 0.0
C609 C 0.28462 0.16928 0.88958 0.0
C610 C 0.27269 0.16726 0.89583 0.0
C611 C 0.2726 0.17851 0.90201 0.0
C612 C 0.30944 0.18495 0.88369 0.0
C613 C 0.25994 0.15327 0.89557 0.0
C614 C 0.2714 0.18277 0.80378 0.0
C615 C 0.28439 0.18547 0.8071 0.0
C616 C 0.28615 0.17555 0.81341 0.0
C617 C 0.27468 0.16267 0.81643 0.0
C618 C 0.26163 0.1597 0.8125 0.0
C619 C 0.26019 0.16977 0.80608 0.0
C620 C 0.30025 0.17893 0.81708 0.0
C621 C 0.24922 0.14603 0.81542 0.0
C622 C 0.27998 0.07389 0.80734 0.0
C623 C 0.27952 0.07997 0.79373 0.0
C624 C 0.28506 0.10328 0.80103 0.0
C625 C 0.29561 0.11696 0.80218 0.0
C626 C 0.29399 0.12688 0.80931 0.0
C627 C 0.28138 0.12302 0.81525 0.0
C628 C 0.27048 0.10929 0.81372 0.0
C629 C 0.27244 0.09952 0.80672 0.0
C630 C 0.30584 0.14143 0.81072 0.0
C631 C 0.25683 0.10491 0.81971 0.0
C632 C 0.28888 0.13917 0.88091 0.0
C633 C 0.28798 0.14946 0.88814 0.0
C634 C 0.28447 0.15795 0.88155 0.0
C635 C 0.28181 0.15625 0.86733 0.0
C636 C 0.27856 0.16485 0.86036 0.0
C637 C 0.2766 0.16356 0.84628 0.0
C638 C 0.27775 0.15357 0.83861 0.0
C639 C 0.27635 0.15258 0.82421 0.0
C640 C 0.2773 0.14235 0.81693 0.0
C641 C 0.27984 0.13319 0.82363 0.0
C642 C 0.28155 0.13422 0.838 0.0
C643 C 0.28442 0.12537 0.84503 0.0
C644 C 0.28652 0.12675 0.85912 0.0
C645 C 0.28598 0.13714 0.8667 0.0
C646 C 0.28266 0.14588 0.85987 0.0
C647 C 0.28053 0.14447 0.8455 0.0
C648 C 0.26593 0.20892 0.81023 0.0
C649 C 0.27593 0.20617 0.80259 0.0
O650 O 0.3092 0.1116 0.91081 0.0
O651 O 0.28761 0.09417 0.79446 0.0
O652 O 0.2694 0.19245 0.79832 0.0
O653 O 0.2845 0.20314 0.90702 0.0
H654 H 0.31106 0.12055 0.9297 0.0
H655 H 0.3301 0.13792 0.91647 0.0
H656 H 0.33594 0.12617 0.91264 0.0
H657 H 0.33686 0.13279 0.92986 0.0
H658 H 0.28457 0.10685 0.9123 0.0
H659 H 0.32267 0.13009 0.8926 0.0
H660 H 0.27065 0.12566 0.9049 0.0
H661 H 0.26533 0.10773 0.90548 0.0
H662 H 0.26591 0.1154 0.88939 0.0
H663 H 0.32783 0.14916 0.87924 0.0
H664 H 0.31621 0.1553 0.87874 0.0
H665 H 0.31447 0.14234 0.86661 0.0
H666 H 0.26798 0.19595 0.91935 0.0
H667 H 0.25643 0.20487 0.90461 0.0
H668 H 0.25981 0.19325 0.89511 0.0
H669 H 0.27041 0.21146 0.89291 0.0
H670 H 0.30503 0.20373 0.89642 0.0
H671 H 0.26339 0.17691 0.90661 0.0
H672 H 0.30798 0.1832 0.87246 0.0
H673 H 0.31213 0.17757 0.88759 0.0
H674 H 0.31802 0.19557 0.88581 0.0
H675 H 0.25167 0.15322 0.90144 0.0
H676 H 0.26205 0.14562 0.89987 0.0
H677 H 0.25645 0.14996 0.88484 0.0
H678 H 0.28418 0.20865 0.81007 0.0
H679 H 0.29315 0.19532 0.80476 0.0
H680 H 0.25022 0.16771 0.80324 0.0
H681 H 0.30145 0.17948 0.82836 0.0
H682 H 0.30816 0.18888 0.81295 0.0
H683 H 0.30191 0.17067 0.81311 0.0
H684 H 0.23977 0.14534 0.8118 0.0
H685 H 0.24852 0.14437 0.82658 0.0
H686 H 0.25005 0.13762 0.81039 0.0
H687 H 0.26891 0.07692 0.79126 0.0
H688 H 0.27365 0.06249 0.80668 0.0
H689 H 0.27599 0.0776 0.81566 0.0
H690 H 0.29054 0.07695 0.81003 0.0
H691 H 0.30526 0.11978 0.79769 0.0
H692 H 0.2641 0.08901 0.80585 0.0
H693 H 0.30794 0.14465 0.82168 0.0
H694 H 0.30332 0.14848 0.8057 0.0
H695 H 0.31516 0.14262 0.80606 0.0
H696 H 0.24901 0.09427 0.81643 0.0
H697 H 0.25346 0.11203 0.81666 0.0
H698 H 0.25763 0.10544 0.83103 0.0
H699 H 0.29044 0.15116 0.89897 0.0
H700 H 0.27763 0.1728 0.86568 0.0
H701 H 0.27426 0.17056 0.84147 0.0
H702 H 0.27631 0.14169 0.80588 0.0
H703 H 0.2852 0.11732 0.83973 0.0
H704 H 0.28873 0.11968 0.86397 0.0
H705 H 0.27088 0.21996 0.8134 0.0
H706 H 0.26247 0.20271 0.81954 0.0
H707 H 0.25691 0.20607 0.80377 0.0
C708 C 0.82123 0.1 0.94668 0.0
C709 C 0.81091 0.09716 0.93534 0.0
C710 C 0.821 0.10034 0.91298 0.0
C711 C 0.81769 0.10952 0.90749 0.0
C712 C 0.82577 0.11866 0.89747 0.0
C713 C 0.83727 0.11847 0.89277 0.0
C714 C 0.84006 0.10856 0.8976 0.0
C715 C 0.83177 0.0995 0.90761 0.0
C716 C 0.8223 0.12885 0.89224 0.0
C717 C 0.8521 0.10792 0.8926 0.0
C718 C 0.92754 0.21918 0.91996 0.0
C719 C 0.92026 0.2056 0.91262 0.0
C720 C 0.89716 0.18792 0.90607 0.0
C721 C 0.90049 0.17904 0.89925 0.0
C722 C 0.89065 0.16743 0.89178 0.0
C723 C 0.87733 0.16495 0.8907 0.0
C724 C 0.874 0.17397 0.89746 0.0
C725 C 0.88393 0.18522 0.90523 0.0
C726 C 0.89447 0.15775 0.88518 0.0
C727 C 0.85994 0.17171 0.89656 0.0
C728 C 0.89468 0.18214 0.80226 0.0
C729 C 0.89744 0.17259 0.80792 0.0
C730 C 0.88745 0.16135 0.81501 0.0
C731 C 0.87452 0.15971 0.81665 0.0
C732 C 0.87161 0.16909 0.81065 0.0
C733 C 0.88172 0.18012 0.80343 0.0
C734 C 0.8908 0.15134 0.82098 0.0
C735 C 0.85792 0.16765 0.81216 0.0
C736 C 0.78319 0.05504 0.80955 0.0
C737 C 0.78922 0.0696 0.80437 0.0
C738 C 0.81301 0.08787 0.80742 0.0
C739 C 0.82579 0.08975 0.80985 0.0
C740 C 0.83632 0.10217 0.81552 0.0
C741 C 0.834 0.113 0.81867 0.0
C742 C 0.82132 0.11144 0.8155 0.0
C743 C 0.81095 0.09889 0.80984 0.0
C744 C 0.84979 0.10358 0.81856 0.0
C745 C 0.81865 0.12294 0.81843 0.0
C746 C 0.84709 0.12952 0.88394 0.0
C747 C 0.85736 0.14148 0.89044 0.0
C748 C 0.86675 0.15264 0.88297 0.0
C749 C 0.86597 0.15189 0.86854 0.0
C750 C 0.87505 0.16303 0.86068 0.0
C751 C 0.87447 0.16202 0.84649 0.0
C752 C 0.86471 0.14985 0.8396 0.0
C753 C 0.86427 0.14859 0.82517 0.0
C754 C 0.85416 0.13651 0.81864 0.0
C755 C 0.84449 0.12554 0.82616 0.0
C756 C 0.84496 0.12649 0.8406 0.0
C757 C 0.83553 0.11553 0.84848 0.0
C758 C 0.83617 0.1165 0.86268 0.0
C759 C 0.84626 0.12846 0.86954 0.0
C760 C 0.85579 0.13967 0.86181 0.0
C761 C 0.85514 0.13868 0.84732 0.0
C762 C 0.92386 0.20566 0.81021 0.0
C763 C 0.91808 0.19925 0.79602 0.0
O764 O 0.81413 0.09239 0.92362 0.0
O765 O 0.80302 0.07529 0.80278 0.0
O766 O 0.90415 0.19346 0.79574 0.0
O767 O 0.90632 0.1991 0.91362 0.0
H768 H 0.81165 0.10718 0.93369 0.0
H769 H 0.83136 0.10853 0.94374 0.0
H770 H 0.82203 0.09082 0.94838 0.0
H771 H 0.81834 0.10308 0.95637 0.0
H772 H 0.80893 0.10969 0.91119 0.0
H773 H 0.83405 0.09216 0.91173 0.0
H774 H 0.83037 0.13943 0.89539 0.0
H775 H 0.81249 0.12703 0.89619 0.0
H776 H 0.82181 0.12827 0.88091 0.0
H777 H 0.85233 0.099 0.89662 0.0
H778 H 0.86155 0.11751 0.89583 0.0
H779 H 0.85193 0.10724 0.88127 0.0
H780 H 0.9243 0.19876 0.91463 0.0
H781 H 0.93359 0.21799 0.92822 0.0
H782 H 0.92012 0.21949 0.92725 0.0
H783 H 0.93664 0.2332 0.90425 0.0
H784 H 0.91067 0.18093 0.89992 0.0
H785 H 0.88146 0.19212 0.91056 0.0
H786 H 0.88683 0.14693 0.88744 0.0
H787 H 0.90456 0.15996 0.88871 0.0
H788 H 0.89473 0.15874 0.87394 0.0
H789 H 0.85956 0.18076 0.90053 0.0
H790 H 0.85296 0.1627 0.90263 0.0
H791 H 0.85619 0.16945 0.88581 0.0
H792 H 0.92058 0.19123 0.79343 0.0
H793 H 0.90735 0.17386 0.80692 0.0
H794 H 0.87964 0.18746 0.79893 0.0
H795 H 0.89135 0.15257 0.83228 0.0
H796 H 0.90063 0.15297 0.81731 0.0
H797 H 0.88273 0.14061 0.81833 0.0
H798 H 0.85746 0.17615 0.80739 0.0
H799 H 0.85547 0.16746 0.82315 0.0
H800 H 0.85005 0.15776 0.80733 0.0
H801 H 0.78711 0.07545 0.81229 0.0
H802 H 0.77213 0.05024 0.81107 0.0
H803 H 0.78798 0.05539 0.81949 0.0
H804 H 0.78498 0.04854 0.80217 0.0
H805 H 0.82735 0.08127 0.80768 0.0
H806 H 0.80127 0.09774 0.80739 0.0
H807 H 0.8518 0.10504 0.82974 0.0
H808 H 0.85801 0.11281 0.81362 0.0
H809 H 0.85017 0.09442 0.81495 0.0
H810 H 0.80855 0.12043 0.81463 0.0
H811 H 0.82653 0.13248 0.81362 0.0
H812 H 0.81926 0.12508 0.82962 0.0
H813 H 0.85799 0.14215 0.90151 0.0
H814 H 0.88277 0.17265 0.86542 0.0
H815 H 0.88179 0.17091 0.84099 0.0
H816 H 0.85386 0.13561 0.80758 0.0
H817 H 0.82756 0.10604 0.84377 0.0
H818 H 0.8287 0.10774 0.86823 0.0
H819 H 0.93504 0.2105 0.81038 0.0
H820 H 0.91968 0.19769 0.81806 0.0
H821 H 0.9213 0.21359 0.81299 0.0
C822 C 0.80996 0.70505 0.93893 0.0
C823 C 0.80188 0.70926 0.92995 0.0
C824 C 0.81174 0.70809 0.90818 0.0
C825 C 0.82328 0.72136 0.90855 0.0
C826 C 0.83443 0.7245 0.90032 0.0
C827 C 0.83411 0.71411 0.89174 0.0
C828 C 0.82234 0.70082 0.8911 0.0
C829 C 0.81119 0.6981 0.89914 0.0
C830 C 0.84667 0.73886 0.90105 0.0
C831 C 0.8217 0.68936 0.88233 0.0
C832 C 0.90045 0.71846 0.94579 0.0
C833 C 0.90019 0.70874 0.93449 0.0
C834 C 0.89615 0.71618 0.91303 0.0
C835 C 0.88507 0.70412 0.90748 0.0
C836 C 0.87615 0.70473 0.89821 0.0
C837 C 0.87836 0.71768 0.89453 0.0
C838 C 0.88977 0.72987 0.89985 0.0
C839 C 0.89867 0.72894 0.90889 0.0
C840 C 0.86426 0.69153 0.89253 0.0
C841 C 0.89237 0.74385 0.89626 0.0
C842 C 0.91027 0.72944 0.81154 0.0
C843 C 0.89836 0.71648 0.81193 0.0
C844 C 0.88635 0.71514 0.81695 0.0
C845 C 0.88624 0.72702 0.82148 0.0
C846 C 0.89798 0.74015 0.82022 0.0
C847 C 0.90985 0.74118 0.81517 0.0
C848 C 0.87389 0.70102 0.81781 0.0
C849 C 0.89812 0.75303 0.82472 0.0
C850 C 0.79829 0.72867 0.80736 0.0
C851 C 0.804 0.72679 0.79385 0.0
C852 C 0.81961 0.7199 0.80264 0.0
C853 C 0.82073 0.70847 0.805 0.0
C854 C 0.83142 0.70961 0.81286 0.0
C855 C 0.84136 0.72262 0.81839 0.0
C856 C 0.84054 0.73434 0.81573 0.0
C857 C 0.82966 0.73288 0.80789 0.0
C858 C 0.83199 0.69689 0.81544 0.0
C859 C 0.85106 0.74837 0.82135 0.0
C860 C 0.84645 0.71679 0.88437 0.0
C861 C 0.85661 0.71664 0.89194 0.0
C862 C 0.8683 0.71842 0.88575 0.0
C863 C 0.86997 0.72041 0.87154 0.0
C864 C 0.88148 0.72199 0.86493 0.0
C865 C 0.88298 0.72382 0.85093 0.0
C866 C 0.87296 0.72403 0.84296 0.0
C867 C 0.87428 0.72561 0.82867 0.0
C868 C 0.864 0.72546 0.821 0.0
C869 C 0.85236 0.72379 0.82724 0.0
C870 C 0.85097 0.72246 0.84157 0.0
C871 C 0.83948 0.72097 0.84821 0.0
C872 C 0.83808 0.71935 0.86227 0.0
C873 C 0.84801 0.71895 0.87018 0.0
C874 C 0.85978 0.72068 0.86374 0.0
C875 C 0.86127 0.72248 0.84942 0.0
C876 C 0.93906 0.72933 0.8201 0.0
C877 C 0.92679 0.72208 0.81042 0.0
O878 O 0.80112 0.70444 0.91661 0.0
O879 O 0.80866 0.71783 0.79536 0.0
O880 O 0.9223 0.731 0.80773 0.0
O881 O 0.90452 0.71573 0.9224 0.0
H882 H 0.80691 0.72065 0.93019 0.0
H883 H 0.82049 0.7097 0.93527 0.0
H884 H 0.80518 0.69369 0.93866 0.0
H885 H 0.81045 0.7087 0.94967 0.0
H886 H 0.82368 0.72929 0.91526 0.0
H887 H 0.8022 0.68793 0.89887 0.0
H888 H 0.855 0.73874 0.90657 0.0
H889 H 0.84456 0.74625 0.90648 0.0
H890 H 0.85025 0.74254 0.89062 0.0
H891 H 0.81237 0.6793 0.88408 0.0
H892 H 0.83062 0.6884 0.88444 0.0
H893 H 0.82193 0.69174 0.8714 0.0
H894 H 0.88959 0.69995 0.93337 0.0
H895 H 0.89699 0.71303 0.95557 0.0
H896 H 0.89357 0.72215 0.943 0.0
H897 H 0.91084 0.7275 0.94727 0.0
H898 H 0.88341 0.69425 0.91038 0.0
H899 H 0.90737 0.73818 0.91315 0.0
H900 H 0.86373 0.6919 0.88124 0.0
H901 H 0.85475 0.69028 0.8967 0.0
H902 H 0.86483 0.68239 0.89514 0.0
H903 H 0.90134 0.75232 0.90176 0.0
H904 H 0.88339 0.74462 0.89877 0.0
H905 H 0.89402 0.74525 0.88511 0.0
H906 H 0.91901 0.71291 0.81584 0.0
H907 H 0.89843 0.7074 0.80841 0.0
H908 H 0.91902 0.75116 0.81452 0.0
H909 H 0.871 0.69874 0.82866 0.0
H910 H 0.87546 0.69286 0.81334 0.0
H911 H 0.86532 0.70072 0.81237 0.0
H912 H 0.90774 0.7625 0.82216 0.0
H913 H 0.89673 0.75302 0.83594 0.0
H914 H 0.88957 0.75324 0.81982 0.0
H915 H 0.81242 0.73691 0.79055 0.0
H916 H 0.79433 0.73564 0.80607 0.0
H917 H 0.80628 0.73328 0.81542 0.0
H918 H 0.78998 0.7186 0.81087 0.0
H919 H 0.813 0.69852 0.80083 0.0
H920 H 0.82907 0.74189 0.80599 0.0
H921 H 0.83196 0.69542 0.8266 0.0
H922 H 0.84154 0.69817 0.81137 0.0
H923 H 0.82334 0.68749 0.8106 0.0
H924 H 0.84936 0.75659 0.81787 0.0
H925 H 0.86129 0.7508 0.81817 0.0
H926 H 0.85091 0.74838 0.83268 0.0
H927 H 0.85531 0.71491 0.90283 0.0
H928 H 0.88946 0.72179 0.87051 0.0
H929 H 0.89207 0.72498 0.84643 0.0
H930 H 0.86498 0.72641 0.81001 0.0
H931 H 0.83143 0.72102 0.84263 0.0
H932 H 0.82905 0.71829 0.86684 0.0
H933 H 0.94727 0.73893 0.81566 0.0
H934 H 0.94298 0.72244 0.82222 0.0
H935 H 0.93607 0.73205 0.82993 0.0
C936 C 0.87107 0.60989 0.43088 0.0
C937 C 0.87334 0.62362 0.42588 0.0
C938 C 0.86207 0.63084 0.44269 0.0
C939 C 0.86425 0.64116 0.45224 0.0
C940 C 0.85344 0.64109 0.4589 0.0
C941 C 0.84006 0.63004 0.45633 0.0
C942 C 0.83774 0.61952 0.44665 0.0
C943 C 0.84873 0.62014 0.43977 0.0
C944 C 0.85637 0.65284 0.46869 0.0
C945 C 0.82365 0.60757 0.44359 0.0
C946 C 0.77305 0.63421 0.40772 0.0
C947 C 0.76627 0.63575 0.42057 0.0
C948 C 0.78362 0.64101 0.4382 0.0
C949 C 0.78127 0.62759 0.43896 0.0
C950 C 0.78953 0.62487 0.44713 0.0
C951 C 0.80045 0.63577 0.4546 0.0
C952 C 0.80284 0.64926 0.4539 0.0
C953 C 0.79431 0.65166 0.44578 0.0
C954 C 0.78662 0.61034 0.44776 0.0
C955 C 0.81444 0.66113 0.46168 0.0
C956 C 0.77129 0.62756 0.54106 0.0
C957 C 0.76758 0.61509 0.53406 0.0
C958 C 0.7773 0.61322 0.52732 0.0
C959 C 0.79095 0.6241 0.52735 0.0
C960 C 0.79475 0.63659 0.53452 0.0
C961 C 0.78487 0.63809 0.54137 0.0
C962 C 0.77295 0.59967 0.52001 0.0
C963 C 0.80921 0.64842 0.53479 0.0
C964 C 0.87006 0.60123 0.53313 0.0
C965 C 0.86896 0.61165 0.5425 0.0
C966 C 0.84681 0.60929 0.54103 0.0
C967 C 0.83373 0.59868 0.53757 0.0
C968 C 0.82459 0.60141 0.53102 0.0
C969 C 0.82861 0.61514 0.52818 0.0
C970 C 0.84155 0.62599 0.5325 0.0
C971 C 0.85053 0.62295 0.53885 0.0
C972 C 0.81081 0.58961 0.52672 0.0
C973 C 0.84601 0.6408 0.53011 0.0
C974 C 0.82854 0.62954 0.46372 0.0
C975 C 0.82015 0.63284 0.45661 0.0
C976 C 0.8094 0.633 0.46304 0.0
C977 C 0.80715 0.63025 0.47709 0.0
C978 C 0.79679 0.63087 0.48401 0.0
C979 C 0.79486 0.62846 0.49791 0.0
C980 C 0.80302 0.62501 0.50538 0.0
C981 C 0.80121 0.62262 0.51955 0.0
C982 C 0.80953 0.61921 0.52664 0.0
C983 C 0.81968 0.61812 0.51998 0.0
C984 C 0.8216 0.62043 0.50581 0.0
C985 C 0.83162 0.61927 0.49875 0.0
C986 C 0.8338 0.62208 0.48494 0.0
C987 C 0.82605 0.62614 0.47764 0.0
C988 C 0.8155 0.62679 0.48441 0.0
C989 C 0.81334 0.62401 0.49853 0.0
C990 C 0.74293 0.62362 0.53329 0.0
C991 C 0.74823 0.62196 0.54699 0.0
O992 O 0.8731 0.63159 0.43673 0.0
O993 O 0.85562 0.60608 0.54643 0.0
O994 O 0.76224 0.62998 0.54757 0.0
O995 O 0.77599 0.64417 0.43028 0.0
H996 H 0.86518 0.6214 0.41838 0.0
H997 H 0.86082 0.6036 0.43515 0.0
H998 H 0.87852 0.6116 0.43901 0.0
H999 H 0.87203 0.6039 0.42225 0.0
H1000 H 0.87454 0.64943 0.45437 0.0
H1001 H 0.84676 0.61214 0.43228 0.0
H1002 H 0.84903 0.65624 0.46714 0.0
H1003 H 0.86677 0.66178 0.4675 0.0
H1004 H 0.85538 0.64938 0.47933 0.0
H1005 H 0.82375 0.59918 0.43759 0.0
H1006 H 0.81799 0.61119 0.43762 0.0
H1007 H 0.8181 0.60334 0.4532 0.0
H1008 H 0.75945 0.62546 0.42482 0.0
H1009 H 0.76529 0.62756 0.39989 0.0
H1010 H 0.77903 0.62939 0.41015 0.0
H1011 H 0.77996 0.64443 0.40337 0.0
H1012 H 0.77304 0.61916 0.43323 0.0
H1013 H 0.79606 0.66197 0.44517 0.0
H1014 H 0.79528 0.60981 0.44351 0.0
H1015 H 0.77731 0.60287 0.44195 0.0
H1016 H 0.78548 0.60721 0.45855 0.0
H1017 H 0.81529 0.6711 0.4596 0.0
H1018 H 0.82409 0.66178 0.45891 0.0
H1019 H 0.81304 0.65937 0.4728 0.0
H1020 H 0.74498 0.61098 0.54818 0.0
H1021 H 0.75715 0.60676 0.53373 0.0
H1022 H 0.78767 0.64764 0.54684 0.0
H1023 H 0.77408 0.60118 0.50884 0.0
H1024 H 0.76227 0.59177 0.52208 0.0
H1025 H 0.77956 0.59575 0.52316 0.0
H1026 H 0.81039 0.65769 0.54023 0.0
H1027 H 0.81289 0.65112 0.52419 0.0
H1028 H 0.81573 0.6453 0.53993 0.0
H1029 H 0.87233 0.62084 0.53619 0.0
H1030 H 0.88081 0.60494 0.5308 0.0
H1031 H 0.8646 0.59991 0.52335 0.0
H1032 H 0.86536 0.59102 0.53784 0.0
H1033 H 0.83087 0.58819 0.53954 0.0
H1034 H 0.86045 0.63124 0.54206 0.0
H1035 H 0.80949 0.58958 0.51549 0.0
H1036 H 0.80286 0.59094 0.53161 0.0
H1037 H 0.80927 0.5795 0.52953 0.0
H1038 H 0.85561 0.64807 0.53561 0.0
H1039 H 0.83806 0.64294 0.53344 0.0
H1040 H 0.84754 0.64274 0.51902 0.0
H1041 H 0.82199 0.63528 0.4459 0.0
H1042 H 0.79015 0.63342 0.47879 0.0
H1043 H 0.78686 0.62932 0.50272 0.0
H1044 H 0.8082 0.61757 0.53753 0.0
H1045 H 0.83797 0.61627 0.50384 0.0
H1046 H 0.84169 0.62107 0.48008 0.0
H1047 H 0.7317 0.61731 0.53287 0.0
H1048 H 0.74686 0.62013 0.52472 0.0
H1049 H 0.74618 0.63456 0.53184 0.0
C1050 C 0.38485 0.26175 0.44264 0.0
C1051 C 0.37584 0.25123 0.43146 0.0
C1052 C 0.36855 0.22938 0.44278 0.0
C1053 C 0.35765 0.21841 0.44917 0.0
C1054 C 0.35916 0.20851 0.45583 0.0
C1055 C 0.37198 0.2097 0.4562 0.0
C1056 C 0.38298 0.22052 0.44938 0.0
C1057 C 0.38114 0.23021 0.44264 0.0
C1058 C 0.34711 0.19695 0.46274 0.0
C1059 C 0.39674 0.22201 0.44953 0.0
C1060 C 0.37453 0.11474 0.43009 0.0
C1061 C 0.37973 0.12854 0.43671 0.0
C1062 C 0.37162 0.14401 0.44319 0.0
C1063 C 0.38386 0.15449 0.44905 0.0
C1064 C 0.3846 0.16587 0.45593 0.0
C1065 C 0.37274 0.16656 0.45739 0.0
C1066 C 0.36039 0.15599 0.45152 0.0
C1067 C 0.36006 0.14496 0.44433 0.0
C1068 C 0.39808 0.17715 0.46161 0.0
C1069 C 0.34751 0.15626 0.45294 0.0
C1070 C 0.3756 0.15201 0.5479 0.0
C1071 C 0.3872 0.15976 0.54009 0.0
C1072 C 0.38854 0.17049 0.53214 0.0
C1073 C 0.37778 0.17308 0.53154 0.0
C1074 C 0.36607 0.16521 0.53941 0.0
C1075 C 0.36529 0.15499 0.54771 0.0
C1076 C 0.40147 0.17905 0.52446 0.0
C1077 C 0.35432 0.16754 0.53908 0.0
C1078 C 0.389 0.27328 0.53504 0.0
C1079 C 0.38052 0.26121 0.54427 0.0
C1080 C 0.38585 0.24303 0.54181 0.0
C1081 C 0.39718 0.24208 0.53879 0.0
C1082 C 0.3958 0.23017 0.53249 0.0
C1083 C 0.38272 0.21886 0.52939 0.0
C1084 C 0.37118 0.2195 0.53306 0.0
C1085 C 0.37287 0.23158 0.53928 0.0
C1086 C 0.40829 0.22976 0.52885 0.0
C1087 C 0.35709 0.20748 0.53025 0.0
C1088 C 0.37393 0.20003 0.46437 0.0
C1089 C 0.37296 0.18849 0.45774 0.0
C1090 C 0.37329 0.1783 0.46512 0.0
C1091 C 0.37429 0.17947 0.47955 0.0
C1092 C 0.37348 0.1689 0.48739 0.0
C1093 C 0.3747 0.17026 0.50156 0.0
C1094 C 0.37706 0.18236 0.50844 0.0
C1095 C 0.37872 0.18403 0.52282 0.0
C1096 C 0.38082 0.19614 0.52928 0.0
C1097 C 0.38108 0.20657 0.52183 0.0
C1098 C 0.37949 0.2051 0.50746 0.0
C1099 C 0.37968 0.2154 0.49966 0.0
C1100 C 0.37786 0.21376 0.48556 0.0
C1101 C 0.37596 0.20185 0.47869 0.0
C1102 C 0.37599 0.19146 0.48631 0.0
C1103 C 0.37757 0.193 0.50074 0.0
C1104 C 0.37525 0.12274 0.5638 0.0
C1105 C 0.37972 0.13372 0.55367 0.0
O1106 O 0.36641 0.23892 0.43714 0.0
O1107 O 0.38781 0.255 0.54741 0.0
O1108 O 0.37406 0.14178 0.55592 0.0
O1109 O 0.37052 0.13291 0.43632 0.0
H1110 H 0.38225 0.24943 0.42422 0.0
H1111 H 0.39082 0.25818 0.4481 0.0
H1112 H 0.37862 0.2634 0.45024 0.0
H1113 H 0.39208 0.27173 0.43805 0.0
H1114 H 0.34795 0.21776 0.44911 0.0
H1115 H 0.38963 0.23845 0.4375 0.0
H1116 H 0.34596 0.18693 0.45962 0.0
H1117 H 0.33757 0.19665 0.4603 0.0
H1118 H 0.34875 0.19825 0.47398 0.0
H1119 H 0.40434 0.23108 0.44388 0.0
H1120 H 0.39603 0.21263 0.44487 0.0
H1121 H 0.40035 0.22303 0.46023 0.0
H1122 H 0.39012 0.13651 0.43361 0.0
H1123 H 0.38138 0.11658 0.42117 0.0
H1124 H 0.36556 0.11261 0.42364 0.0
H1125 H 0.37301 0.10238 0.44631 0.0
H1126 H 0.39293 0.15396 0.44816 0.0
H1127 H 0.35067 0.13684 0.43974 0.0
H1128 H 0.39975 0.18741 0.45922 0.0
H1129 H 0.40663 0.17633 0.45751 0.0
H1130 H 0.39817 0.17652 0.47289 0.0
H1131 H 0.33847 0.14642 0.44941 0.0
H1132 H 0.3482 0.16464 0.44678 0.0
H1133 H 0.34608 0.15839 0.46375 0.0
H1134 H 0.37902 0.13027 0.54277 0.0
H1135 H 0.39533 0.15766 0.54039 0.0
H1136 H 0.35644 0.149 0.55388 0.0
H1137 H 0.39974 0.17587 0.51348 0.0
H1138 H 0.40978 0.17774 0.52828 0.0
H1139 H 0.40477 0.19011 0.52528 0.0
H1140 H 0.34516 0.15908 0.54385 0.0
H1141 H 0.35178 0.16851 0.52841 0.0
H1142 H 0.35718 0.17728 0.54475 0.0
H1143 H 0.37107 0.25398 0.53851 0.0
H1144 H 0.38337 0.27843 0.5324 0.0
H1145 H 0.39127 0.2695 0.52542 0.0
H1146 H 0.39872 0.28091 0.54015 0.0
H1147 H 0.40715 0.25088 0.54106 0.0
H1148 H 0.36404 0.232 0.54224 0.0
H1149 H 0.40844 0.22803 0.51766 0.0
H1150 H 0.40807 0.22102 0.53391 0.0
H1151 H 0.41775 0.23941 0.53196 0.0
H1152 H 0.34918 0.20926 0.53454 0.0
H1153 H 0.35596 0.19805 0.53467 0.0
H1154 H 0.35537 0.20556 0.51906 0.0
H1155 H 0.37178 0.18736 0.44671 0.0
H1156 H 0.3718 0.15941 0.48267 0.0
H1157 H 0.37386 0.16173 0.50705 0.0
H1158 H 0.38204 0.19736 0.5403 0.0
H1159 H 0.38118 0.22483 0.50437 0.0
H1160 H 0.37806 0.22202 0.48011 0.0
H1161 H 0.39308 0.12784 0.57422 0.0
H1162 H 0.36912 0.11282 0.55771 0.0
H1163 H 0.36628 0.12207 0.56908 0.0
C1164 C 0.8657 0.22813 0.40311 0.0
C1165 C 0.87071 0.24031 0.41334 0.0
C1166 C 0.85829 0.22782 0.43339 0.0
C1167 C 0.8476 0.23035 0.43347 0.0
C1168 C 0.8358 0.22203 0.44084 0.0
C1169 C 0.83461 0.21084 0.44806 0.0
C1170 C 0.84536 0.20824 0.44786 0.0
C1171 C 0.85719 0.21699 0.44078 0.0
C1172 C 0.82467 0.22528 0.44103 0.0
C1173 C 0.84439 0.1962 0.45508 0.0
C1174 C 0.7526 0.1486 0.3965 0.0
C1175 C 0.7557 0.14199 0.40823 0.0
C1176 C 0.76493 0.15553 0.42937 0.0
C1177 C 0.77478 0.15227 0.43252 0.0
C1178 C 0.78573 0.16093 0.44126 0.0
C1179 C 0.78682 0.17308 0.44689 0.0
C1180 C 0.77665 0.17613 0.44404 0.0
C1181 C 0.7657 0.16717 0.43546 0.0
C1182 C 0.79619 0.15718 0.44438 0.0
C1183 C 0.7775 0.18901 0.44982 0.0
C1184 C 0.7625 0.15369 0.53302 0.0
C1185 C 0.77305 0.15127 0.53021 0.0
C1186 C 0.785 0.16134 0.52416 0.0
C1187 C 0.78648 0.17412 0.52102 0.0
C1188 C 0.77621 0.17687 0.5246 0.0
C1189 C 0.76436 0.16662 0.53066 0.0
C1190 C 0.79594 0.15823 0.52081 0.0
C1191 C 0.77759 0.19049 0.52164 0.0
C1192 C 0.87658 0.26748 0.53694 0.0
C1193 C 0.87252 0.25634 0.54753 0.0
C1194 C 0.8574 0.23433 0.5353 0.0
C1195 C 0.85613 0.22198 0.53064 0.0
C1196 C 0.84426 0.21171 0.52405 0.0
C1197 C 0.83345 0.21397 0.52189 0.0
C1198 C 0.83453 0.22632 0.52681 0.0
C1199 C 0.84646 0.23636 0.53352 0.0
C1200 C 0.84338 0.19856 0.51913 0.0
C1201 C 0.82319 0.22905 0.52465 0.0
C1202 C 0.82218 0.20189 0.45587 0.0
C1203 C 0.81063 0.19206 0.44861 0.0
C1204 C 0.79881 0.18284 0.45536 0.0
C1205 C 0.79856 0.18314 0.4698 0.0
C1206 C 0.78706 0.17364 0.47694 0.0
C1207 C 0.78694 0.174 0.49115 0.0
C1208 C 0.79833 0.18388 0.49877 0.0
C1209 C 0.79837 0.18424 0.51323 0.0
C1210 C 0.80989 0.19416 0.52048 0.0
C1211 C 0.82144 0.20384 0.51367 0.0
C1212 C 0.82155 0.2037 0.49923 0.0
C1213 C 0.83293 0.21341 0.49206 0.0
C1214 C 0.83311 0.21294 0.47787 0.0
C1215 C 0.82191 0.20275 0.47028 0.0
C1216 C 0.81014 0.19318 0.47727 0.0
C1217 C 0.80999 0.19361 0.49177 0.0
C1218 C 0.73152 0.12677 0.52493 0.0
C1219 C 0.74363 0.13002 0.53408 0.0
O1220 O 0.86987 0.23574 0.42649 0.0
O1221 O 0.86939 0.24397 0.5412 0.0
O1222 O 0.75046 0.14383 0.53802 0.0
O1223 O 0.75456 0.14763 0.42053 0.0
H1224 H 0.86436 0.24497 0.41225 0.0
H1225 H 0.85503 0.22022 0.40523 0.0
H1226 H 0.872 0.22336 0.4039 0.0
H1227 H 0.86609 0.23147 0.3925 0.0
H1228 H 0.84854 0.23897 0.4281 0.0
H1229 H 0.86554 0.21519 0.44069 0.0
H1230 H 0.81568 0.217 0.4354 0.0
H1231 H 0.82777 0.23521 0.43623 0.0
H1232 H 0.82159 0.2257 0.4517 0.0
H1233 H 0.85251 0.19422 0.45196 0.0
H1234 H 0.83442 0.18674 0.45295 0.0
H1235 H 0.84529 0.19833 0.46627 0.0
H1236 H 0.76626 0.14437 0.40673 0.0
H1237 H 0.75341 0.14419 0.38652 0.0
H1238 H 0.75999 0.15984 0.39672 0.0
H1239 H 0.74226 0.14693 0.39741 0.0
H1240 H 0.7739 0.14296 0.42821 0.0
H1241 H 0.75792 0.16946 0.43309 0.0
H1242 H 0.80599 0.16479 0.43985 0.0
H1243 H 0.79324 0.14677 0.44026 0.0
H1244 H 0.7978 0.15755 0.45559 0.0
H1245 H 0.76918 0.1903 0.44597 0.0
H1246 H 0.78733 0.19817 0.44715 0.0
H1247 H 0.77701 0.18866 0.46112 0.0
H1248 H 0.75004 0.12747 0.52764 0.0
H1249 H 0.77197 0.14154 0.53271 0.0
H1250 H 0.75628 0.16848 0.53315 0.0
H1251 H 0.79726 0.15829 0.50958 0.0
H1252 H 0.79356 0.14809 0.52454 0.0
H1253 H 0.80571 0.16634 0.52544 0.0
H1254 H 0.76895 0.19124 0.52556 0.0
H1255 H 0.77822 0.19192 0.51044 0.0
H1256 H 0.7871 0.199 0.52632 0.0
H1257 H 0.86356 0.25515 0.55307 0.0
H1258 H 0.88001 0.27759 0.54214 0.0
H1259 H 0.86783 0.26499 0.53023 0.0
H1260 H 0.8848 0.26834 0.53035 0.0
H1261 H 0.86456 0.22046 0.53209 0.0
H1262 H 0.84718 0.2458 0.53708 0.0
H1263 H 0.84342 0.19816 0.5078 0.0
H1264 H 0.83375 0.18954 0.52245 0.0
H1265 H 0.85196 0.19772 0.52297 0.0
H1266 H 0.82565 0.23925 0.52892 0.0
H1267 H 0.81388 0.22098 0.52956 0.0
H1268 H 0.82095 0.22854 0.51356 0.0
H1269 H 0.81085 0.19155 0.43754 0.0
H1270 H 0.77803 0.16577 0.47162 0.0
H1271 H 0.77781 0.1664 0.49607 0.0
H1272 H 0.80989 0.1943 0.53156 0.0
H1273 H 0.84188 0.22145 0.49733 0.0
H1274 H 0.84217 0.22066 0.47293 0.0
H1275 H 0.72512 0.13032 0.52981 0.0
H1276 H 0.72528 0.11555 0.52257 0.0
H1277 H 0.73521 0.13216 0.51516 0.0
C1278 C 0.03514 0.46211 0.23269 0.0
C1279 C 0.02678 0.46189 0.245 0.0
C1280 C 0.01135 0.46819 0.2346 0.0
C1281 C 0.99802 0.46307 0.23027 0.0
C1282 C 0.99432 0.47135 0.22342 0.0
C1283 C 0.00428 0.4851 0.22071 0.0
C1284 C 0.01775 0.49048 0.22531 0.0
C1285 C 0.02114 0.48202 0.2323 0.0
C1286 C 0.9798 0.46533 0.21891 0.0
C1287 C 0.0286 0.50512 0.22263 0.0
C1288 C 0.98692 0.56264 0.2634 0.0
C1289 C 0.98394 0.54934 0.25693 0.0
C1290 C 0.98923 0.54069 0.23632 0.0
C1291 C 1.00009 0.54485 0.22751 0.0
C1292 C 0.00191 0.5352 0.22011 0.0
C1293 C 0.99214 0.521 0.22098 0.0
C1294 C 0.98091 0.51674 0.22966 0.0
C1295 C 0.97968 0.52663 0.2374 0.0
C1296 C 0.01437 0.54025 0.21147 0.0
C1297 C 0.97014 0.50176 0.23069 0.0
C1298 C 0.97632 0.53027 0.13371 0.0
C1299 C 0.98961 0.53647 0.13878 0.0
C1300 C 0.99407 0.52869 0.14543 0.0
C1301 C 0.98494 0.51448 0.14722 0.0
C1302 C 0.97166 0.50815 0.1417 0.0
C1303 C 0.96759 0.51613 0.13482 0.0
C1304 C 0.00848 0.53571 0.15065 0.0
C1305 C 0.96168 0.49303 0.14331 0.0
C1306 C 0.02814 0.45002 0.13919 0.0
C1307 C 0.01445 0.44668 0.13339 0.0
C1308 C 0.01084 0.46601 0.1339 0.0
C1309 C 0.01921 0.48028 0.13485 0.0
C1310 C 0.01485 0.48843 0.1414 0.0
C1311 C 0.00163 0.48211 0.14673 0.0
C1312 C 0.99281 0.46772 0.14501 0.0
C1313 C 0.99756 0.45979 0.13867 0.0
C1314 C 0.02449 0.50375 0.14296 0.0
C1315 C 0.97849 0.4607 0.15012 0.0
C1316 C 0.00064 0.49368 0.21272 0.0
C1317 C 0.99789 0.5028 0.21981 0.0
C1318 C 0.99379 0.51069 0.21292 0.0
C1319 C 0.99199 0.50917 0.19855 0.0
C1320 C 0.98697 0.51617 0.19136 0.0
C1321 C 0.98582 0.5151 0.17719 0.0
C1322 C 0.98975 0.50704 0.16963 0.0
C1323 C 0.98918 0.50634 0.15517 0.0
C1324 C 0.99295 0.49803 0.14802 0.0
C1325 C 0.99738 0.49042 0.1549 0.0
C1326 C 0.99813 0.4911 0.16934 0.0
C1327 C 0.00271 0.48371 0.17659 0.0
C1328 C 0.00342 0.48444 0.19078 0.0
C1329 C 0.9998 0.49276 0.19829 0.0
C1330 C 0.99535 0.50044 0.1912 0.0
C1331 C 0.99436 0.49948 0.17671 0.0
C1332 C 0.9592 0.54571 0.13979 0.0
C1333 C 0.97268 0.54948 0.13324 0.0
O1334 O 0.01424 0.45939 0.24075 0.0
O1335 O 0.0158 0.45854 0.12816 0.0
O1336 O 0.97176 0.5377 0.12756 0.0
O1337 O 0.98825 0.55049 0.24355 0.0
H1338 H 0.03231 0.47196 0.25067 0.0
H1339 H 0.03719 0.47058 0.22586 0.0
H1340 H 0.02966 0.45226 0.22665 0.0
H1341 H 0.04503 0.46373 0.23618 0.0
H1342 H 0.9905 0.45245 0.23217 0.0
H1343 H 0.03147 0.48627 0.23576 0.0
H1344 H 0.97607 0.47217 0.22239 0.0
H1345 H 0.97305 0.45492 0.22293 0.0
H1346 H 0.97914 0.46459 0.20759 0.0
H1347 H 0.03873 0.5076 0.22632 0.0
H1348 H 0.02602 0.51228 0.22779 0.0
H1349 H 0.02911 0.50693 0.21151 0.0
H1350 H 0.97346 0.54058 0.25845 0.0
H1351 H 0.00118 0.56645 0.27875 0.0
H1352 H 0.97673 0.56125 0.26568 0.0
H1353 H 0.98912 0.56984 0.25479 0.0
H1354 H 0.00739 0.55574 0.22676 0.0
H1355 H 0.9711 0.52335 0.24402 0.0
H1356 H 0.01158 0.5399 0.20058 0.0
H1357 H 0.01875 0.53361 0.21251 0.0
H1358 H 0.02226 0.55101 0.21429 0.0
H1359 H 0.96107 0.50033 0.23614 0.0
H1360 H 0.97431 0.4964 0.23634 0.0
H1361 H 0.967 0.49679 0.22036 0.0
H1362 H 0.98057 0.55404 0.14147 0.0
H1363 H 0.99651 0.54736 0.13745 0.0
H1364 H 0.95741 0.51143 0.13066 0.0
H1365 H 0.00859 0.53652 0.16197 0.0
H1366 H 0.01479 0.54621 0.14668 0.0
H1367 H 0.01312 0.52956 0.1477 0.0
H1368 H 0.95147 0.48987 0.13925 0.0
H1369 H 0.96084 0.49047 0.15426 0.0
H1370 H 0.96537 0.48693 0.13781 0.0
H1371 H 0.00713 0.4429 0.14193 0.0
H1372 H 0.02733 0.44076 0.14371 0.0
H1373 H 0.03154 0.45817 0.14734 0.0
H1374 H 0.03587 0.45373 0.13106 0.0
H1375 H 0.02937 0.48497 0.13088 0.0
H1376 H 0.9909 0.44876 0.13741 0.0
H1377 H 0.02577 0.50694 0.15394 0.0
H1378 H 0.02023 0.50923 0.1377 0.0
H1379 H 0.03459 0.50701 0.13866 0.0
H1380 H 0.9724 0.44982 0.14638 0.0
H1381 H 0.97346 0.46627 0.14683 0.0
H1382 H 0.97864 0.4609 0.16145 0.0
H1383 H 0.99904 0.50383 0.23084 0.0
H1384 H 0.98389 0.5226 0.19663 0.0
H1385 H 0.98194 0.52077 0.17222 0.0
H1386 H 0.99256 0.49759 0.13694 0.0
H1387 H 0.00579 0.47726 0.17139 0.0
H1388 H 0.00701 0.47851 0.19578 0.0
H1389 H 0.95086 0.54098 0.13207 0.0
H1390 H 0.95974 0.55501 0.14447 0.0
H1391 H 0.95687 0.53823 0.14794 0.0
C1392 C 0.47373 0.4311 0.2754 0.0
C1393 C 0.46429 0.42903 0.26344 0.0
C1394 C 0.47715 0.43389 0.24256 0.0
C1395 C 0.47562 0.44435 0.23726 0.0
C1396 C 0.4852 0.45386 0.22835 0.0
C1397 C 0.49649 0.45279 0.22463 0.0
C1398 C 0.49772 0.44187 0.22949 0.0
C1399 C 0.48791 0.43244 0.2383 0.0
C1400 C 0.48341 0.46516 0.22306 0.0
C1401 C 0.50958 0.44038 0.22564 0.0
C1402 C 0.56837 0.5253 0.27012 0.0
C1403 C 0.57599 0.53287 0.25735 0.0
C1404 C 0.55804 0.5208 0.23983 0.0
C1405 C 0.55859 0.50873 0.23882 0.0
C1406 C 0.54903 0.49733 0.2309 0.0
C1407 C 0.53863 0.49796 0.224 0.0
C1408 C 0.53804 0.51008 0.22499 0.0
C1409 C 0.54788 0.5214 0.23277 0.0
C1410 C 0.55 0.48459 0.22997 0.0
C1411 C 0.52694 0.51102 0.21797 0.0
C1412 C 0.56229 0.5141 0.1369 0.0
C1413 C 0.56206 0.50174 0.13871 0.0
C1414 C 0.55133 0.4908 0.14547 0.0
C1415 C 0.54043 0.49209 0.1502 0.0
C1416 C 0.54031 0.50425 0.14779 0.0
C1417 C 0.55134 0.51515 0.14134 0.0
C1418 C 0.55178 0.47797 0.14779 0.0
C1419 C 0.52867 0.50586 0.15228 0.0
C1420 C 0.4498 0.38724 0.14507 0.0
C1421 C 0.45507 0.40114 0.13855 0.0
C1422 C 0.47864 0.42002 0.14049 0.0
C1423 C 0.49143 0.42229 0.14364 0.0
C1424 C 0.50166 0.43503 0.14904 0.0
C1425 C 0.49903 0.44581 0.15108 0.0
C1426 C 0.4864 0.44387 0.14699 0.0
C1427 C 0.4763 0.43097 0.14172 0.0
C1428 C 0.51508 0.4368 0.1531 0.0
C1429 C 0.48342 0.45529 0.14868 0.0
C1430 C 0.50735 0.46351 0.21628 0.0
C1431 C 0.51753 0.47529 0.2231 0.0
C1432 C 0.52819 0.4858 0.21599 0.0
C1433 C 0.52875 0.48462 0.20164 0.0
C1434 C 0.53946 0.49488 0.1942 0.0
C1435 C 0.53979 0.49372 0.18005 0.0
C1436 C 0.52943 0.48225 0.17278 0.0
C1437 C 0.52957 0.48108 0.15837 0.0
C1438 C 0.51939 0.46926 0.15152 0.0
C1439 C 0.50899 0.45854 0.15872 0.0
C1440 C 0.50846 0.45972 0.17309 0.0
C1441 C 0.49797 0.44924 0.18061 0.0
C1442 C 0.49753 0.45048 0.19473 0.0
C1443 C 0.50764 0.46217 0.20192 0.0
C1444 C 0.51836 0.47281 0.19457 0.0
C1445 C 0.51873 0.47161 0.18013 0.0
C1446 C 0.59467 0.5285 0.13642 0.0
C1447 C 0.58428 0.52635 0.12535 0.0
O1448 O 0.46842 0.42508 0.25179 0.0
O1449 O 0.46884 0.40713 0.13643 0.0
O1450 O 0.57285 0.5253 0.13119 0.0
O1451 O 0.56694 0.53203 0.24753 0.0
H1452 H 0.46494 0.43904 0.26208 0.0
H1453 H 0.48418 0.43949 0.27318 0.0
H1454 H 0.47392 0.42158 0.27712 0.0
H1455 H 0.4704 0.43403 0.28489 0.0
H1456 H 0.46693 0.4451 0.24006 0.0
H1457 H 0.48886 0.42417 0.24228 0.0
H1458 H 0.49177 0.47527 0.22701 0.0
H1459 H 0.47363 0.46405 0.22617 0.0
H1460 H 0.48392 0.4652 0.21174 0.0
H1461 H 0.50903 0.43128 0.23022 0.0
H1462 H 0.51915 0.44974 0.22906 0.0
H1463 H 0.50995 0.43942 0.21436 0.0
H1464 H 0.5818 0.52827 0.25319 0.0
H1465 H 0.57559 0.52603 0.27806 0.0
H1466 H 0.56125 0.51425 0.26763 0.0
H1467 H 0.56251 0.5298 0.27437 0.0
H1468 H 0.56641 0.50806 0.24414 0.0
H1469 H 0.54753 0.53075 0.2336 0.0
H1470 H 0.54123 0.47609 0.23516 0.0
H1471 H 0.55944 0.4862 0.23479 0.0
H1472 H 0.54961 0.48129 0.21912 0.0
H1473 H 0.52724 0.52073 0.22073 0.0
H1474 H 0.5169 0.5022 0.2207 0.0
H1475 H 0.52795 0.51048 0.20674 0.0
H1476 H 0.58148 0.51676 0.11936 0.0
H1477 H 0.57029 0.50058 0.13513 0.0
H1478 H 0.55151 0.52465 0.13979 0.0
H1479 H 0.55009 0.47532 0.15873 0.0
H1480 H 0.56156 0.4791 0.14472 0.0
H1481 H 0.54354 0.46925 0.14177 0.0
H1482 H 0.52903 0.51486 0.14766 0.0
H1483 H 0.52903 0.50729 0.16355 0.0
H1484 H 0.51887 0.49647 0.14948 0.0
H1485 H 0.45302 0.40746 0.14593 0.0
H1486 H 0.43877 0.38222 0.14693 0.0
H1487 H 0.45505 0.38873 0.15502 0.0
H1488 H 0.45166 0.38034 0.13837 0.0
H1489 H 0.49321 0.41384 0.14238 0.0
H1490 H 0.46659 0.42944 0.13868 0.0
H1491 H 0.51675 0.43896 0.16427 0.0
H1492 H 0.52339 0.44573 0.1479 0.0
H1493 H 0.51566 0.42754 0.15048 0.0
H1494 H 0.47366 0.45262 0.14378 0.0
H1495 H 0.49167 0.46483 0.14421 0.0
H1496 H 0.483 0.45749 0.15972 0.0
H1497 H 0.51719 0.47627 0.23412 0.0
H1498 H 0.5477 0.50395 0.19922 0.0
H1499 H 0.5483 0.50196 0.1749 0.0
H1500 H 0.51966 0.46831 0.1405 0.0
H1501 H 0.48992 0.43997 0.17566 0.0
H1502 H 0.48918 0.44214 0.19996 0.0
H1503 H 0.59698 0.53735 0.14338 0.0
H1504 H 0.60418 0.53036 0.13164 0.0
H1505 H 0.59076 0.51927 0.1427 0.0
C1506 C 0.46003 0.0091 0.27571 0.0
C1507 C 0.4507 0.00643 0.26341 0.0
C1508 C 0.46021 0.99785 0.24599 0.0
C1509 C 0.47189 0.01063 0.24352 0.0
C1510 C 0.48197 0.01155 0.2348 0.0
C1511 C 0.48041 0.99948 0.22844 0.0
C1512 C 0.46861 0.98664 0.23071 0.0
C1513 C 0.45863 0.98602 0.23942 0.0
C1514 C 0.49437 0.02544 0.23246 0.0
C1515 C 0.46662 0.97359 0.22403 0.0
C1516 C 0.56907 0.00121 0.26611 0.0
C1517 C 0.56022 0.00562 0.25989 0.0
C1518 C 0.54467 1.00002 0.24066 0.0
C1519 C 0.53585 0.98906 0.23196 0.0
C1520 C 0.52522 0.9891 0.22505 0.0
C1521 C 0.52379 0.00074 0.2264 0.0
C1522 C 0.53286 0.01199 0.23502 0.0
C1523 C 0.54307 0.01144 0.24219 0.0
C1524 C 0.51552 0.97667 0.21636 0.0
C1525 C 0.53181 0.02466 0.23668 0.0
C1526 C 0.54743 0.00946 0.14038 0.0
C1527 C 0.53517 0.99719 0.14277 0.0
C1528 C 0.52445 0.99742 0.14928 0.0
C1529 C 0.52599 0.01015 0.15353 0.0
C1530 C 0.53807 0.02254 0.15068 0.0
C1531 C 0.54863 0.02202 0.14411 0.0
C1532 C 0.51164 0.984 0.15204 0.0
C1533 C 0.53996 0.03627 0.15501 0.0
C1534 C 0.4412 0.01969 0.14905 0.0
C1535 C 0.44882 0.02205 0.1356 0.0
C1536 C 0.46324 0.01259 0.14107 0.0
C1537 C 0.46388 0.00066 0.14014 0.0
C1538 C 0.47378 0.99958 0.14734 0.0
C1539 C 0.48351 0.0109 0.15545 0.0
C1540 C 0.48315 0.02317 0.15618 0.0
C1541 C 0.47294 0.02384 0.14913 0.0
C1542 C 0.47379 0.98631 0.14629 0.0
C1543 C 0.49359 0.0356 0.1644 0.0
C1544 C 0.49135 0.00033 0.21974 0.0
C1545 C 0.50171 0.99947 0.22611 0.0
C1546 C 0.51289 0.00122 0.21881 0.0
C1547 C 0.51375 0.00383 0.20469 0.0
C1548 C 0.52499 0.006 0.19708 0.0
C1549 C 0.52556 0.00814 0.18314 0.0
C1550 C 0.51505 0.00848 0.17629 0.0
C1551 C 0.51542 0.0103 0.16206 0.0
C1552 C 0.50513 0.01122 0.15563 0.0
C1553 C 0.49416 0.00995 0.16301 0.0
C1554 C 0.49333 0.00753 0.17719 0.0
C1555 C 0.48221 0.00564 0.18487 0.0
C1556 C 0.48154 0.00331 0.19881 0.0
C1557 C 0.49191 0.00265 0.20559 0.0
C1558 C 0.50315 0.00441 0.19805 0.0
C1559 C 0.50387 0.00686 0.18384 0.0
C1560 C 0.56202 0.99248 0.14402 0.0
C1561 C 0.55959 0.99848 0.13124 0.0
O1562 O 0.45035 0.99643 0.25467 0.0
O1563 O 0.45315 0.01274 0.13405 0.0
O1564 O 0.55836 0.00969 0.13477 0.0
O1565 O 0.55455 0.99924 0.24735 0.0
H1566 H 0.45447 0.01613 0.25786 0.0
H1567 H 0.47055 0.013 0.27236 0.0
H1568 H 0.45656 0.99949 0.2813 0.0
H1569 H 0.46014 0.01696 0.28282 0.0
H1570 H 0.47333 0.01995 0.24838 0.0
H1571 H 0.44959 0.97622 0.24131 0.0
H1572 H 0.50351 0.02553 0.2361 0.0
H1573 H 0.4939 0.03393 0.23783 0.0
H1574 H 0.49556 0.02743 0.22137 0.0
H1575 H 0.45678 0.96443 0.22668 0.0
H1576 H 0.47491 0.97199 0.22724 0.0
H1577 H 0.4671 0.97452 0.21276 0.0
H1578 H 0.56469 0.01697 0.26007 0.0
H1579 H 0.55853 0.99092 0.28358 0.0
H1580 H 0.57945 0.01073 0.26668 0.0
H1581 H 0.57169 0.99608 0.25765 0.0
H1582 H 0.53713 0.98028 0.23084 0.0
H1583 H 0.54989 0.02008 0.24876 0.0
H1584 H 0.5177 0.97903 0.20541 0.0
H1585 H 0.50492 0.97393 0.21815 0.0
H1586 H 0.51641 0.96761 0.21845 0.0
H1587 H 0.54093 0.03336 0.24177 0.0
H1588 H 0.5229 0.02222 0.24301 0.0
H1589 H 0.53034 0.02799 0.22661 0.0
H1590 H 0.55013 0.99033 0.1261 0.0
H1591 H 0.53389 0.98734 0.13988 0.0
H1592 H 0.55805 0.03144 0.14214 0.0
H1593 H 0.5107 0.98236 0.1632 0.0
H1594 H 0.51147 0.97507 0.14689 0.0
H1595 H 0.50268 0.98435 0.14855 0.0
H1596 H 0.54974 0.045 0.15156 0.0
H1597 H 0.53958 0.03695 0.16632 0.0
H1598 H 0.53158 0.03724 0.1508 0.0
H1599 H 0.45767 0.03272 0.13558 0.0
H1600 H 0.4377 0.0271 0.1504 0.0
H1601 H 0.44792 0.02121 0.15786 0.0
H1602 H 0.4323 0.00906 0.14918 0.0
H1603 H 0.45642 0.99205 0.13388 0.0
H1604 H 0.4727 0.03322 0.14992 0.0
H1605 H 0.47454 0.98294 0.15661 0.0
H1606 H 0.48275 0.98798 0.14046 0.0
H1607 H 0.46456 0.97793 0.14103 0.0
H1608 H 0.49294 0.04485 0.16257 0.0
H1609 H 0.50392 0.03791 0.16186 0.0
H1610 H 0.49207 0.03343 0.17544 0.0
H1611 H 0.50118 0.99768 0.23698 0.0
H1612 H 0.53345 0.00597 0.20178 0.0
H1613 H 0.53441 0.00958 0.17781 0.0
H1614 H 0.50554 0.01268 0.14471 0.0
H1615 H 0.47388 0.00593 0.18018 0.0
H1616 H 0.47276 0.00197 0.20419 0.0
H1617 H 0.57082 0.00052 0.15007 0.0
H1618 H 0.56389 0.98409 0.14106 0.0
H1619 H 0.55304 0.98811 0.15068 0.0
C1620 C 0.53877 0.98332 0.74447 0.0
C1621 C 0.54959 0.99577 0.75279 0.0
C1622 C 0.54077 0.99502 0.77526 0.0
C1623 C 0.54456 0.00846 0.77923 0.0
C1624 C 0.53645 0.01099 0.7881 0.0
C1625 C 0.52421 0.9998 0.79286 0.0
C1626 C 0.52043 0.98618 0.78886 0.0
C1627 C 0.52893 0.98396 0.78029 0.0
C1628 C 0.54089 0.02562 0.79226 0.0
C1629 C 0.5073 0.97399 0.79341 0.0
C1630 C 0.47353 0.02592 0.74717 0.0
C1631 C 0.46211 0.01716 0.75699 0.0
C1632 C 0.47323 0.01872 0.77852 0.0
C1633 C 0.46909 0.00493 0.78055 0.0
C1634 C 0.47687 0.00149 0.78862 0.0
C1635 C 0.48902 0.01207 0.7948 0.0
C1636 C 0.49298 0.02598 0.79315 0.0
C1637 C 0.4849 0.02912 0.78515 0.0
C1638 C 0.47219 0.98654 0.79042 0.0
C1639 C 0.50586 0.03751 0.7996 0.0
C1640 C 0.46677 0.0088 0.88322 0.0
C1641 C 0.46201 0.9963 0.87596 0.0
C1642 C 0.47093 0.9937 0.86856 0.0
C1643 C 0.48485 0.00393 0.86827 0.0
C1644 C 0.4897 0.0164 0.8759 0.0
C1645 C 0.48059 0.01858 0.88346 0.0
C1646 C 0.46548 0.98007 0.86099 0.0
C1647 C 0.50446 0.02751 0.87589 0.0
C1648 C 0.55474 0.96854 0.87078 0.0
C1649 C 0.55543 0.97992 0.88011 0.0
C1650 C 0.53505 0.98116 0.87854 0.0
C1651 C 0.52155 0.9719 0.87496 0.0
C1652 C 0.51365 0.97636 0.86864 0.0
C1653 C 0.51936 0.99051 0.86618 0.0
C1654 C 0.53282 1.00003 0.87046 0.0
C1655 C 0.54055 0.99524 0.87657 0.0
C1656 C 0.49929 0.96594 0.86434 0.0
C1657 C 0.53907 0.01523 0.86842 0.0
C1658 C 0.51512 0.00236 0.80156 0.0
C1659 C 0.50682 0.00619 0.79511 0.0
C1660 C 0.49781 0.00854 0.80253 0.0
C1661 C 0.49702 0.00709 0.81684 0.0
C1662 C 0.48812 0.00943 0.82463 0.0
C1663 C 0.48734 0.00788 0.8387 0.0
C1664 C 0.49526 0.00368 0.8455 0.0
C1665 C 0.49428 0.00172 0.85976 0.0
C1666 C 0.50231 0.99754 0.86618 0.0
C1667 C 0.51137 0.99525 0.85876 0.0
C1668 C 0.51253 0.99721 0.84451 0.0
C1669 C 0.52157 0.99506 0.83673 0.0
C1670 C 0.5226 0.99695 0.82271 0.0
C1671 C 0.51444 0.0008 0.81587 0.0
C1672 C 0.50531 0.00313 0.82352 0.0
C1673 C 0.50439 0.00137 0.83786 0.0
C1674 C 0.45084 0.02447 0.87838 0.0
C1675 C 0.44685 0.01077 0.88481 0.0
O1676 O 0.54843 0.99259 0.76647 0.0
O1677 O 0.54245 0.97625 0.88401 0.0
O1678 O 0.45828 0.01154 0.89031 0.0
O1679 O 0.46616 0.02225 0.77026 0.0
H1680 H 0.54791 0.00449 0.75135 0.0
H1681 H 0.52855 0.9806 0.74797 0.0
H1682 H 0.53996 0.97431 0.74573 0.0
H1683 H 0.53952 0.9857 0.73347 0.0
H1684 H 0.55385 0.01694 0.77536 0.0
H1685 H 0.52617 0.97361 0.77712 0.0
H1686 H 0.53393 0.02845 0.78761 0.0
H1687 H 0.55135 0.03302 0.78897 0.0
H1688 H 0.54038 0.02662 0.80352 0.0
H1689 H 0.5052 0.96424 0.78826 0.0
H1690 H 0.49876 0.97557 0.79126 0.0
H1691 H 0.50771 0.97296 0.8046 0.0
H1692 H 0.45999 0.00645 0.7559 0.0
H1693 H 0.47037 0.02206 0.73647 0.0
H1694 H 0.4826 0.02534 0.74966 0.0
H1695 H 0.47633 0.03685 0.748 0.0
H1696 H 0.45974 0.99685 0.77588 0.0
H1697 H 0.4879 0.03973 0.78366 0.0
H1698 H 0.47184 0.98441 0.80145 0.0
H1699 H 0.47953 0.9842 0.78562 0.0
H1700 H 0.46204 0.97954 0.78576 0.0
H1701 H 0.50765 0.0478 0.79714 0.0
H1702 H 0.5146 0.03675 0.79605 0.0
H1703 H 0.50541 0.03657 0.81087 0.0
H1704 H 0.44223 0.00255 0.87667 0.0
H1705 H 0.45136 0.98852 0.87622 0.0
H1706 H 0.48415 0.02811 0.8893 0.0
H1707 H 0.46599 0.98165 0.84983 0.0
H1708 H 0.45482 0.97261 0.86362 0.0
H1709 H 0.47176 0.97555 0.86333 0.0
H1710 H 0.50646 0.03696 0.88163 0.0
H1711 H 0.50792 0.0302 0.86523 0.0
H1712 H 0.51057 0.02366 0.88058 0.0
H1713 H 0.56012 0.98942 0.87408 0.0
H1714 H 0.56507 0.97124 0.86765 0.0
H1715 H 0.54873 0.96728 0.86144 0.0
H1716 H 0.54986 0.95859 0.87602 0.0
H1717 H 0.51734 0.96108 0.87676 0.0
H1718 H 0.55085 0.0025 0.87989 0.0
H1719 H 0.49794 0.96658 0.85322 0.0
H1720 H 0.49222 0.96828 0.86976 0.0
H1721 H 0.4965 0.95526 0.86656 0.0
H1722 H 0.5492 0.0214 0.87341 0.0
H1723 H 0.53236 0.01874 0.8726 0.0
H1724 H 0.54015 0.01724 0.85734 0.0
H1725 H 0.5073 0.00723 0.78411 0.0
H1726 H 0.48166 0.01252 0.81993 0.0
H1727 H 0.48035 0.0099 0.84415 0.0
H1728 H 0.50145 0.99598 0.8771 0.0
H1729 H 0.52799 0.9919 0.84139 0.0
H1730 H 0.5298 0.99522 0.81728 0.0
H1731 H 0.45547 0.033 0.88619 0.0
H1732 H 0.44184 0.02404 0.87378 0.0
H1733 H 0.45829 0.02666 0.87018 0.0
C1734 C 0.9851 0.53685 0.74936 0.0
C1735 C 0.98302 0.54447 0.76139 0.0
C1736 C 0.99378 0.53892 0.77966 0.0
C1737 C 0.98254 0.52618 0.78305 0.0
C1738 C 0.98405 0.51711 0.79123 0.0
C1739 C 0.99708 0.52071 0.79591 0.0
C1740 C 0.0084 0.53361 0.7927 0.0
C1741 C 0.00655 0.54264 0.78479 0.0
C1742 C 0.9717 0.50358 0.79474 0.0
C1743 C 0.02248 0.53773 0.79739 0.0
C1744 C 0.01053 0.43395 0.76334 0.0
C1745 C 0.01405 0.44681 0.7711 0.0
C1746 C 0.00364 0.45999 0.77816 0.0
C1747 C 0.01514 0.47079 0.78484 0.0
C1748 C 0.01433 0.48088 0.79262 0.0
C1749 C 0.00164 0.47986 0.79419 0.0
C1750 C 0.99004 0.46899 0.78748 0.0
C1751 C 0.99126 0.45932 0.77937 0.0
C1752 C 0.02706 0.49262 0.79914 0.0
C1753 C 0.97634 0.46754 0.78886 0.0
C1754 C 0.00972 0.46215 0.88143 0.0
C1755 C 0.02078 0.47308 0.87495 0.0
C1756 C 0.01939 0.48314 0.86841 0.0
C1757 C 0.00665 0.48213 0.8681 0.0
C1758 C 0.99556 0.47126 0.87478 0.0
C1759 C 0.99729 0.46149 0.88145 0.0
C1760 C 0.03154 0.49478 0.86168 0.0
C1761 C 0.98182 0.46984 0.87468 0.0
C1762 C 0.9862 0.5609 0.87976 0.0
C1763 C 0.99322 0.55925 0.89223 0.0
C1764 C 0.00354 0.54654 0.88268 0.0
C1765 C 0.01572 0.54769 0.87879 0.0
C1766 C 0.01598 0.53664 0.87234 0.0
C1767 C 0.00368 0.52413 0.86972 0.0
C1768 C 0.99135 0.52269 0.87408 0.0
C1769 C 0.99138 0.53389 0.88052 0.0
C1770 C 0.02932 0.53846 0.86792 0.0
C1771 C 0.97807 0.50943 0.87152 0.0
C1772 C 0.99886 0.51069 0.80367 0.0
C1773 C 0.99946 0.50035 0.79623 0.0
C1774 C 0.00057 0.49021 0.8028 0.0
C1775 C 0.00108 0.49031 0.81722 0.0
C1776 C 0.00169 0.47998 0.82419 0.0
C1777 C 0.00276 0.4805 0.83836 0.0
C1778 C 0.00326 0.49135 0.84613 0.0
C1779 C 0.00485 0.49225 0.86051 0.0
C1780 C 0.00501 0.50304 0.86792 0.0
C1781 C 0.00359 0.513 0.86134 0.0
C1782 C 0.00212 0.51234 0.84697 0.0
C1783 C 0.00069 0.52221 0.84004 0.0
C1784 C 0.99943 0.5216 0.82589 0.0
C1785 C 0.99975 0.5112 0.81809 0.0
C1786 C 0.00096 0.50102 0.82487 0.0
C1787 C 0.00209 0.50156 0.83934 0.0
C1788 C 0.02064 0.44284 0.87281 0.0
C1789 C 0.02084 0.44919 0.88689 0.0
O1790 O 0.9928 0.54783 0.77143 0.0
O1791 O 0.00402 0.55792 0.88821 0.0
O1792 O 0.01049 0.45202 0.88769 0.0
O1793 O 0.00406 0.4501 0.77046 0.0
H1794 H 0.97278 0.5378 0.76561 0.0
H1795 H 0.98404 0.52711 0.75276 0.0
H1796 H 0.99535 0.5433 0.74504 0.0
H1797 H 0.9774 0.53425 0.74121 0.0
H1798 H 0.97252 0.5232 0.77946 0.0
H1799 H 0.01516 0.55252 0.78221 0.0
H1800 H 0.97213 0.49506 0.78944 0.0
H1801 H 0.96214 0.50298 0.79168 0.0
H1802 H 0.97151 0.502 0.80589 0.0
H1803 H 0.0303 0.54778 0.79337 0.0
H1804 H 0.02481 0.52977 0.79404 0.0
H1805 H 0.02306 0.53845 0.80872 0.0
H1806 H 0.0244 0.45564 0.76915 0.0
H1807 H 0.01822 0.43724 0.75499 0.0
H1808 H 0.00189 0.43171 0.75631 0.0
H1809 H 0.00881 0.4205 0.77852 0.0
H1810 H 0.02484 0.47154 0.78388 0.0
H1811 H 0.98246 0.45099 0.77412 0.0
H1812 H 0.02701 0.49107 0.81027 0.0
H1813 H 0.02758 0.50254 0.79772 0.0
H1814 H 0.03632 0.49335 0.79485 0.0
H1815 H 0.96806 0.4574 0.78486 0.0
H1816 H 0.97619 0.47569 0.78305 0.0
H1817 H 0.97433 0.46885 0.79972 0.0
H1818 H 0.03075 0.45884 0.88864 0.0
H1819 H 0.03052 0.47388 0.8749 0.0
H1820 H 0.98883 0.45309 0.88653 0.0
H1821 H 0.03016 0.49347 0.85043 0.0
H1822 H 0.04108 0.49517 0.8644 0.0
H1823 H 0.03256 0.50477 0.86468 0.0
H1824 H 0.97401 0.46028 0.87951 0.0
H1825 H 0.97858 0.46985 0.86402 0.0
H1826 H 0.98242 0.47878 0.88027 0.0
H1827 H 0.9857 0.54992 0.89763 0.0
H1828 H 0.97813 0.56289 0.8831 0.0
H1829 H 0.98141 0.55139 0.87323 0.0
H1830 H 0.99354 0.5695 0.87345 0.0
H1831 H 0.02506 0.55741 0.88059 0.0
H1832 H 0.98182 0.53268 0.88355 0.0
H1833 H 0.02943 0.53755 0.85661 0.0
H1834 H 0.03057 0.53019 0.8721 0.0
H1835 H 0.03805 0.54858 0.87133 0.0
H1836 H 0.96945 0.50958 0.87641 0.0
H1837 H 0.97865 0.50068 0.87545 0.0
H1838 H 0.97604 0.50759 0.86036 0.0
H1839 H 0.99903 0.50017 0.78516 0.0
H1840 H 0.00141 0.47142 0.81875 0.0
H1841 H 0.00328 0.47231 0.84314 0.0
H1842 H 0.00625 0.50371 0.87894 0.0
H1843 H 0.00054 0.53057 0.84547 0.0
H1844 H 0.99836 0.52947 0.82112 0.0
H1845 H 0.02881 0.44043 0.8722 0.0
H1846 H 0.0223 0.45011 0.86466 0.0
H1847 H 0.01074 0.43324 0.87087 0.0
C1848 C 0.53188 0.55528 0.74976 0.0
C1849 C 0.5357 0.56847 0.75809 0.0
C1850 C 0.52448 0.5586 0.77926 0.0
C1851 C 0.51465 0.56227 0.78045 0.0
C1852 C 0.50285 0.55426 0.78793 0.0
C1853 C 0.5008 0.54222 0.79412 0.0
C1854 C 0.51077 0.53854 0.79291 0.0
C1855 C 0.52264 0.54697 0.78572 0.0
C1856 C 0.49258 0.55866 0.78919 0.0
C1857 C 0.50883 0.52561 0.79904 0.0
C1858 C 0.41579 0.48698 0.73994 0.0
C1859 C 0.42158 0.48172 0.75055 0.0
C1860 C 0.4304 0.49266 0.77285 0.0
C1861 C 0.43968 0.48841 0.77506 0.0
C1862 C 0.45045 0.4956 0.78442 0.0
C1863 C 0.45207 0.50741 0.79152 0.0
C1864 C 0.44255 0.51154 0.78946 0.0
C1865 C 0.43165 0.50388 0.78036 0.0
C1866 C 0.46021 0.49071 0.78656 0.0
C1867 C 0.44409 0.52426 0.79654 0.0
C1868 C 0.42462 0.49088 0.87902 0.0
C1869 C 0.43237 0.4853 0.87446 0.0
C1870 C 0.44476 0.49351 0.86795 0.0
C1871 C 0.44934 0.50751 0.86578 0.0
C1872 C 0.44168 0.51321 0.8707 0.0
C1873 C 0.4295 0.50483 0.87746 0.0
C1874 C 0.45293 0.48722 0.86334 0.0
C1875 C 0.44624 0.5281 0.86868 0.0
C1876 C 0.54662 0.59265 0.87486 0.0
C1877 C 0.53983 0.58734 0.88862 0.0
C1878 C 0.52139 0.56395 0.88213 0.0
C1879 C 0.51787 0.55019 0.88119 0.0
C1880 C 0.50615 0.54028 0.87407 0.0
C1881 C 0.49763 0.54423 0.86799 0.0
C1882 C 0.5008 0.55801 0.86941 0.0
C1883 C 0.51272 0.56776 0.87632 0.0
C1884 C 0.50307 0.52568 0.87275 0.0
C1885 C 0.49175 0.56252 0.86334 0.0
C1886 C 0.48815 0.53338 0.80166 0.0
C1887 C 0.47642 0.52463 0.79405 0.0
C1888 C 0.46416 0.51591 0.80042 0.0
C1889 C 0.46357 0.51572 0.81485 0.0
C1890 C 0.45151 0.50688 0.82162 0.0
C1891 C 0.45096 0.50705 0.83582 0.0
C1892 C 0.46251 0.5159 0.84381 0.0
C1893 C 0.46205 0.5162 0.85826 0.0
C1894 C 0.4737 0.52531 0.86585 0.0
C1895 C 0.48585 0.5342 0.85941 0.0
C1896 C 0.48655 0.5339 0.845 0.0
C1897 C 0.49866 0.54262 0.83823 0.0
C1898 C 0.49919 0.54253 0.82405 0.0
C1899 C 0.48768 0.53358 0.81608 0.0
C1900 C 0.47537 0.52466 0.82269 0.0
C1901 C 0.47482 0.52477 0.83718 0.0
C1902 C 0.38971 0.46975 0.87729 0.0
C1903 C 0.40262 0.46987 0.88102 0.0
O1904 O 0.5358 0.5661 0.77188 0.0
O1905 O 0.53325 0.57311 0.8886 0.0
O1906 O 0.41249 0.48313 0.8851 0.0
O1907 O 0.42027 0.48625 0.76343 0.0
H1908 H 0.52809 0.57143 0.75594 0.0
H1909 H 0.52169 0.54685 0.75267 0.0
H1910 H 0.53931 0.55205 0.75169 0.0
H1911 H 0.53158 0.55687 0.73867 0.0
H1912 H 0.51628 0.57146 0.77566 0.0
H1913 H 0.53037 0.5443 0.78474 0.0
H1914 H 0.48326 0.55122 0.7834 0.0
H1915 H 0.4964 0.56906 0.78519 0.0
H1916 H 0.48978 0.55863 0.80005 0.0
H1917 H 0.51665 0.52329 0.79564 0.0
H1918 H 0.49869 0.51671 0.79622 0.0
H1919 H 0.50939 0.5268 0.81034 0.0
H1920 H 0.43248 0.48618 0.7481 0.0
H1921 H 0.41683 0.48359 0.72949 0.0
H1922 H 0.4214 0.4984 0.74045 0.0
H1923 H 0.40492 0.48311 0.74185 0.0
H1924 H 0.43849 0.47948 0.76946 0.0
H1925 H 0.42434 0.50698 0.77862 0.0
H1926 H 0.47004 0.49799 0.78188 0.0
H1927 H 0.45644 0.48031 0.78189 0.0
H1928 H 0.46207 0.49049 0.79763 0.0
H1929 H 0.43682 0.52699 0.79253 0.0
H1930 H 0.45453 0.53312 0.79529 0.0
H1931 H 0.44237 0.52253 0.80763 0.0
H1932 H 0.40575 0.46651 0.87164 0.0
H1933 H 0.42881 0.47457 0.87612 0.0
H1934 H 0.42352 0.50906 0.88122 0.0
H1935 H 0.45291 0.48659 0.85202 0.0
H1936 H 0.44882 0.47673 0.86724 0.0
H1937 H 0.4636 0.49381 0.86686 0.0
H1938 H 0.43852 0.5306 0.87196 0.0
H1939 H 0.44853 0.5306 0.85776 0.0
H1940 H 0.45568 0.53476 0.87467 0.0
H1941 H 0.53245 0.59069 0.89054 0.0
H1942 H 0.55206 0.60406 0.87494 0.0
H1943 H 0.53893 0.58866 0.8665 0.0
H1944 H 0.55394 0.58928 0.87266 0.0
H1945 H 0.52455 0.54731 0.88576 0.0
H1946 H 0.51514 0.5783 0.87699 0.0
H1947 H 0.50236 0.52259 0.86179 0.0
H1948 H 0.49312 0.51866 0.87737 0.0
H1949 H 0.51089 0.52433 0.87781 0.0
H1950 H 0.49455 0.57302 0.86698 0.0
H1951 H 0.48103 0.55524 0.86594 0.0
H1952 H 0.4925 0.56247 0.85205 0.0
H1953 H 0.47681 0.52466 0.78298 0.0
H1954 H 0.44233 0.49979 0.816 0.0
H1955 H 0.44134 0.50014 0.84044 0.0
H1956 H 0.47325 0.52566 0.8769 0.0
H1957 H 0.50788 0.54969 0.84379 0.0
H1958 H 0.50875 0.54958 0.81942 0.0
H1959 H 0.38604 0.47313 0.8862 0.0
H1960 H 0.38165 0.45926 0.87385 0.0
H1961 H 0.39176 0.47686 0.86884 0.0
C1962 C 0.62872 0.77284 0.60911 0.0
C1963 C 0.63107 0.76637 0.59625 0.0
C1964 C 0.63559 0.78371 0.57918 0.0
C1965 C 0.62209 0.78026 0.57733 0.0
C1966 C 0.61886 0.78804 0.56899 0.0
C1967 C 0.62933 0.79966 0.56253 0.0
C1968 C 0.64293 0.8032 0.56439 0.0
C1969 C 0.64584 0.79507 0.57257 0.0
C1970 C 0.60423 0.78386 0.56716 0.0
C1971 C 0.65437 0.81562 0.5578 0.0
C1972 C 0.59153 0.85787 0.59645 0.0
C1973 C 0.60665 0.8641 0.59378 0.0
C1974 C 0.61164 0.85422 0.57409 0.0
C1975 C 0.62436 0.85888 0.56847 0.0
C1976 C 0.62742 0.84967 0.56195 0.0
C1977 C 0.61733 0.83555 0.56073 0.0
C1978 C 0.6044 0.83084 0.56634 0.0
C1979 C 0.60172 0.84025 0.57304 0.0
C1980 C 0.64134 0.85502 0.55622 0.0
C1981 C 0.59333 0.81592 0.56504 0.0
C1982 C 0.60533 0.84454 0.47213 0.0
C1983 C 0.61851 0.8502 0.47732 0.0
C1984 C 0.62223 0.84211 0.48451 0.0
C1985 C 0.61243 0.82817 0.48683 0.0
C1986 C 0.59922 0.82238 0.48124 0.0
C1987 C 0.59593 0.83062 0.47374 0.0
C1988 C 0.63659 0.8485 0.48974 0.0
C1989 C 0.5885 0.80756 0.48339 0.0
C1990 C 0.61679 0.73888 0.47977 0.0
C1991 C 0.61805 0.74671 0.46683 0.0
C1992 C 0.6253 0.77019 0.47532 0.0
C1993 C 0.63629 0.78366 0.47653 0.0
C1994 C 0.63508 0.79406 0.4832 0.0
C1995 C 0.6225 0.79088 0.48874 0.0
C1996 C 0.61126 0.77733 0.48739 0.0
C1997 C 0.61278 0.76709 0.48078 0.0
C1998 C 0.64728 0.80841 0.48451 0.0
C1999 C 0.59766 0.77363 0.49307 0.0
C2000 C 0.62602 0.80813 0.55393 0.0
C2001 C 0.6237 0.81781 0.56049 0.0
C2002 C 0.62008 0.82579 0.55308 0.0
C2003 C 0.61884 0.82423 0.53869 0.0
C2004 C 0.61503 0.83195 0.53094 0.0
C2005 C 0.61397 0.83045 0.51678 0.0
C2006 C 0.6167 0.82118 0.50979 0.0
C2007 C 0.61587 0.81975 0.49537 0.0
C2008 C 0.6181 0.81 0.48882 0.0
C2009 C 0.62115 0.80162 0.49628 0.0
C2010 C 0.62242 0.80319 0.51066 0.0
C2011 C 0.62576 0.79511 0.51844 0.0
C2012 C 0.6269 0.79667 0.5326 0.0
C2013 C 0.62483 0.80642 0.53953 0.0
C2014 C 0.62134 0.81459 0.53189 0.0
C2015 C 0.6202 0.81302 0.51744 0.0
C2016 C 0.59087 0.86466 0.47221 0.0
C2017 C 0.60422 0.8652 0.46977 0.0
O2018 O 0.63921 0.77651 0.58724 0.0
O2019 O 0.62733 0.76061 0.46894 0.0
O2020 O 0.60143 0.85225 0.46545 0.0
O2021 O 0.60888 0.86341 0.57996 0.0
H2022 H 0.62118 0.75904 0.59125 0.0
H2023 H 0.62349 0.77838 0.60644 0.0
H2024 H 0.63851 0.78026 0.61422 0.0
H2025 H 0.62227 0.76475 0.61638 0.0
H2026 H 0.61396 0.77154 0.58232 0.0
H2027 H 0.65622 0.79769 0.57402 0.0
H2028 H 0.60253 0.79161 0.5724 0.0
H2029 H 0.59719 0.77366 0.57144 0.0
H2030 H 0.60175 0.78355 0.55616 0.0
H2031 H 0.66444 0.81764 0.56116 0.0
H2032 H 0.65371 0.82485 0.56028 0.0
H2033 H 0.65353 0.81403 0.54654 0.0
H2034 H 0.61009 0.85809 0.59956 0.0
H2035 H 0.58992 0.85971 0.60731 0.0
H2036 H 0.58597 0.8466 0.59446 0.0
H2037 H 0.58717 0.86241 0.58979 0.0
H2038 H 0.6319 0.86975 0.56928 0.0
H2039 H 0.59179 0.83676 0.57712 0.0
H2040 H 0.64066 0.85402 0.54491 0.0
H2041 H 0.64559 0.84882 0.55982 0.0
H2042 H 0.64842 0.86599 0.55919 0.0
H2043 H 0.58357 0.81407 0.56915 0.0
H2044 H 0.59638 0.80959 0.57069 0.0
H2045 H 0.5918 0.81238 0.55416 0.0
H2046 H 0.60986 0.8683 0.47971 0.0
H2047 H 0.6259 0.86091 0.47566 0.0
H2048 H 0.58583 0.82633 0.46948 0.0
H2049 H 0.63685 0.85021 0.50096 0.0
H2050 H 0.64346 0.85854 0.48506 0.0
H2051 H 0.64048 0.84151 0.48761 0.0
H2052 H 0.57836 0.80509 0.47972 0.0
H2053 H 0.58788 0.80524 0.4944 0.0
H2054 H 0.59126 0.80075 0.4778 0.0
H2055 H 0.60799 0.74513 0.4641 0.0
H2056 H 0.60948 0.72772 0.47801 0.0
H2057 H 0.61306 0.74258 0.48834 0.0
H2058 H 0.62675 0.7404 0.4828 0.0
H2059 H 0.6459 0.78598 0.4723 0.0
H2060 H 0.60414 0.75675 0.48004 0.0
H2061 H 0.64947 0.81162 0.49546 0.0
H2062 H 0.6451 0.81571 0.47949 0.0
H2063 H 0.65641 0.80917 0.47983 0.0
H2064 H 0.58968 0.76286 0.4904 0.0
H2065 H 0.5945 0.78064 0.48914 0.0
H2066 H 0.59844 0.77497 0.50437 0.0
H2067 H 0.62457 0.81904 0.57153 0.0
H2068 H 0.61282 0.83927 0.53573 0.0
H2069 H 0.61097 0.83666 0.51139 0.0
H2070 H 0.61726 0.8088 0.47777 0.0
H2071 H 0.62754 0.78749 0.51367 0.0
H2072 H 0.62946 0.79014 0.53804 0.0
H2073 H 0.5847 0.86159 0.46264 0.0
H2074 H 0.59279 0.87486 0.47591 0.0
H2075 H 0.585 0.85703 0.48008 0.0
C2076 C 0.13595 0.76708 0.61515 0.0
C2077 C 0.1274 0.7642 0.6022 0.0
C2078 C 0.14176 0.76918 0.58236 0.0
C2079 C 0.13984 0.77899 0.57605 0.0
C2080 C 0.14951 0.78835 0.56711 0.0
C2081 C 0.16124 0.78778 0.56432 0.0
C2082 C 0.16291 0.77751 0.57021 0.0
C2083 C 0.15305 0.76824 0.57909 0.0
C2084 C 0.14727 0.79897 0.56073 0.0
C2085 C 0.17522 0.77651 0.56731 0.0
C2086 C 0.2355 0.85867 0.60726 0.0
C2087 C 0.24257 0.86659 0.59444 0.0
C2088 C 0.22375 0.85524 0.57772 0.0
C2089 C 0.22426 0.84324 0.5755 0.0
C2090 C 0.21421 0.8321 0.56769 0.0
C2091 C 0.20333 0.83287 0.56215 0.0
C2092 C 0.20279 0.84494 0.56432 0.0
C2093 C 0.21313 0.85604 0.57194 0.0
C2094 C 0.21514 0.8194 0.5655 0.0
C2095 C 0.19121 0.84602 0.55876 0.0
C2096 C 0.22046 0.84788 0.47229 0.0
C2097 C 0.22464 0.84043 0.47993 0.0
C2098 C 0.2153 0.82921 0.48753 0.0
C2099 C 0.20164 0.82584 0.48802 0.0
C2100 C 0.19742 0.83329 0.48018 0.0
C2101 C 0.20686 0.84401 0.47217 0.0
C2102 C 0.2201 0.82106 0.49505 0.0
C2103 C 0.183 0.83007 0.48038 0.0
C2104 C 0.11506 0.71738 0.47996 0.0
C2105 C 0.11996 0.73243 0.47728 0.0
C2106 C 0.14299 0.75228 0.48007 0.0
C2107 C 0.15629 0.75557 0.48231 0.0
C2108 C 0.16606 0.76845 0.48786 0.0
C2109 C 0.16246 0.77839 0.49092 0.0
C2110 C 0.14922 0.77542 0.48788 0.0
C2111 C 0.13956 0.76233 0.48256 0.0
C2112 C 0.18012 0.7713 0.49083 0.0
C2113 C 0.14519 0.78595 0.49057 0.0
C2114 C 0.17195 0.79823 0.55563 0.0
C2115 C 0.18215 0.8103 0.56204 0.0
C2116 C 0.19231 0.82084 0.55449 0.0
C2117 C 0.19215 0.81951 0.54009 0.0
C2118 C 0.20184 0.83016 0.53213 0.0
C2119 C 0.20153 0.82876 0.51796 0.0
C2120 C 0.19187 0.81643 0.51122 0.0
C2121 C 0.19179 0.81469 0.49684 0.0
C2122 C 0.18207 0.80223 0.49053 0.0
C2123 C 0.17228 0.79147 0.49817 0.0
C2124 C 0.17212 0.79308 0.51253 0.0
C2125 C 0.16235 0.78247 0.52051 0.0
C2126 C 0.16219 0.78418 0.53461 0.0
C2127 C 0.17195 0.79644 0.5413 0.0
C2128 C 0.18202 0.80718 0.53349 0.0
C2129 C 0.182 0.80557 0.51906 0.0
C2130 C 0.249 0.87996 0.45923 0.0
C2131 C 0.24228 0.86852 0.46889 0.0
O2132 O 0.13287 0.76043 0.59154 0.0
O2133 O 0.13384 0.73933 0.4755 0.0
O2134 O 0.22923 0.85867 0.46478 0.0
O2135 O 0.23314 0.8662 0.58541 0.0
H2136 H 0.12758 0.77385 0.60002 0.0
H2137 H 0.1464 0.77579 0.61352 0.0
H2138 H 0.1365 0.75793 0.61779 0.0
H2139 H 0.13158 0.76991 0.62386 0.0
H2140 H 0.13077 0.7793 0.57803 0.0
H2141 H 0.1543 0.76046 0.58383 0.0
H2142 H 0.15559 0.80943 0.56386 0.0
H2143 H 0.13748 0.79789 0.56372 0.0
H2144 H 0.14747 0.79803 0.54943 0.0
H2145 H 0.17476 0.76762 0.57227 0.0
H2146 H 0.18443 0.78608 0.57103 0.0
H2147 H 0.17622 0.77553 0.55612 0.0
H2148 H 0.24803 0.86197 0.58945 0.0
H2149 H 0.243 0.859 0.61458 0.0
H2150 H 0.22812 0.84773 0.60455 0.0
H2151 H 0.23 0.8632 0.61235 0.0
H2152 H 0.23241 0.84241 0.57981 0.0
H2153 H 0.21283 0.86534 0.57368 0.0
H2154 H 0.20675 0.81072 0.5709 0.0
H2155 H 0.22487 0.8209 0.56933 0.0
H2156 H 0.21402 0.81646 0.55446 0.0
H2157 H 0.19191 0.85583 0.56199 0.0
H2158 H 0.18145 0.83732 0.56228 0.0
H2159 H 0.19111 0.84533 0.54744 0.0
H2160 H 0.243 0.87172 0.47988 0.0
H2161 H 0.23513 0.8432 0.47978 0.0
H2162 H 0.20375 0.84975 0.46609 0.0
H2163 H 0.22164 0.82427 0.50602 0.0
H2164 H 0.22984 0.82277 0.49103 0.0
H2165 H 0.21246 0.80989 0.49431 0.0
H2166 H 0.18181 0.83798 0.47525 0.0
H2167 H 0.17947 0.82928 0.49106 0.0
H2168 H 0.17635 0.82 0.47507 0.0
H2169 H 0.11746 0.73665 0.48648 0.0
H2170 H 0.10404 0.71156 0.48199 0.0
H2171 H 0.12043 0.71675 0.48905 0.0
H2172 H 0.11712 0.7125 0.47104 0.0
H2173 H 0.15887 0.7478 0.48012 0.0
H2174 H 0.12939 0.76001 0.48037 0.0
H2175 H 0.18258 0.77395 0.50186 0.0
H2176 H 0.18761 0.78028 0.48502 0.0
H2177 H 0.18122 0.76238 0.48809 0.0
H2178 H 0.13512 0.78272 0.48605 0.0
H2179 H 0.15283 0.79597 0.48635 0.0
H2180 H 0.14481 0.78755 0.50175 0.0
H2181 H 0.18223 0.81148 0.57307 0.0
H2182 H 0.20968 0.83977 0.53676 0.0
H2183 H 0.20909 0.83742 0.51239 0.0
H2184 H 0.18213 0.80089 0.47953 0.0
H2185 H 0.15466 0.77274 0.51597 0.0
H2186 H 0.15438 0.77571 0.54021 0.0
H2187 H 0.26517 0.87838 0.4519 0.0
H2188 H 0.25046 0.88929 0.46512 0.0
H2189 H 0.24079 0.87909 0.45236 0.0
C2190 C 0.12938 0.34126 0.59461 0.0
C2191 C 0.13196 0.3559 0.59647 0.0
C2192 C 0.14649 0.36644 0.57727 0.0
C2193 C 0.1575 0.3798 0.57926 0.0
C2194 C 0.16961 0.38417 0.57221 0.0
C2195 C 0.17068 0.37485 0.56314 0.0
C2196 C 0.15947 0.3613 0.56115 0.0
C2197 C 0.14739 0.3574 0.56799 0.0
C2198 C 0.18124 0.39872 0.57447 0.0
C2199 C 0.16026 0.35086 0.55193 0.0
C2200 C 0.23854 0.38076 0.61663 0.0
C2201 C 0.2388 0.37193 0.60469 0.0
C2202 C 0.23447 0.38006 0.58382 0.0
C2203 C 0.22378 0.36799 0.57779 0.0
C2204 C 0.21466 0.36852 0.56875 0.0
C2205 C 0.21627 0.38139 0.56574 0.0
C2206 C 0.22733 0.39362 0.57149 0.0
C2207 C 0.23643 0.39279 0.58032 0.0
C2208 C 0.20319 0.3553 0.56256 0.0
C2209 C 0.22931 0.4075 0.56857 0.0
C2210 C 0.24667 0.39503 0.47953 0.0
C2211 C 0.23598 0.38178 0.48234 0.0
C2212 C 0.22429 0.37987 0.48882 0.0
C2213 C 0.22332 0.39146 0.49258 0.0
C2214 C 0.23389 0.40477 0.48932 0.0
C2215 C 0.24539 0.40636 0.48268 0.0
C2216 C 0.21299 0.36549 0.49173 0.0
C2217 C 0.23313 0.41733 0.49303 0.0
C2218 C 0.13388 0.39091 0.48082 0.0
C2219 C 0.13951 0.38917 0.46721 0.0
C2220 C 0.15554 0.38257 0.4754 0.0
C2221 C 0.15703 0.3713 0.47738 0.0
C2222 C 0.16802 0.37265 0.48485 0.0
C2223 C 0.17786 0.38569 0.49038 0.0
C2224 C 0.17668 0.39726 0.48807 0.0
C2225 C 0.16551 0.3956 0.48062 0.0
C2226 C 0.16898 0.3601 0.48707 0.0
C2227 C 0.1871 0.41134 0.49369 0.0
C2228 C 0.18357 0.37906 0.55601 0.0
C2229 C 0.19403 0.37937 0.56346 0.0
C2230 C 0.20598 0.38196 0.55718 0.0
C2231 C 0.2076 0.38429 0.54301 0.0
C2232 C 0.21933 0.38659 0.53628 0.0
C2233 C 0.22068 0.38856 0.52227 0.0
C2234 C 0.21028 0.38816 0.51442 0.0
C2235 C 0.21135 0.38966 0.5001 0.0
C2236 C 0.20077 0.3891 0.49261 0.0
C2237 C 0.18906 0.38706 0.49903 0.0
C2238 C 0.18785 0.38562 0.51334 0.0
C2239 C 0.17623 0.3836 0.52012 0.0
C2240 C 0.17494 0.38176 0.53414 0.0
C2241 C 0.18513 0.38168 0.54189 0.0
C2242 C 0.1971 0.38412 0.53534 0.0
C2243 C 0.19845 0.38606 0.52104 0.0
C2244 C 0.27821 0.40041 0.48389 0.0
C2245 C 0.26503 0.39045 0.47625 0.0
O2246 O 0.13484 0.36235 0.58405 0.0
O2247 O 0.14429 0.38029 0.46853 0.0
O2248 O 0.25819 0.39722 0.4735 0.0
O2249 O 0.243 0.37966 0.59303 0.0
H2250 H 0.14075 0.3619 0.60357 0.0
H2251 H 0.13876 0.3416 0.59135 0.0
H2252 H 0.12128 0.33532 0.58682 0.0
H2253 H 0.1263 0.33579 0.60439 0.0
H2254 H 0.15657 0.38676 0.58635 0.0
H2255 H 0.13867 0.34717 0.56632 0.0
H2256 H 0.18954 0.39862 0.58005 0.0
H2257 H 0.17825 0.40515 0.58048 0.0
H2258 H 0.18527 0.40355 0.56451 0.0
H2259 H 0.15163 0.34027 0.55342 0.0
H2260 H 0.16983 0.35104 0.55379 0.0
H2261 H 0.1601 0.35342 0.54111 0.0
H2262 H 0.22834 0.36295 0.60325 0.0
H2263 H 0.2352 0.37474 0.62607 0.0
H2264 H 0.23133 0.38417 0.61431 0.0
H2265 H 0.24873 0.39002 0.61846 0.0
H2266 H 0.22258 0.35817 0.58017 0.0
H2267 H 0.24484 0.40205 0.58492 0.0
H2268 H 0.19346 0.35343 0.56676 0.0
H2269 H 0.20419 0.34632 0.56473 0.0
H2270 H 0.20276 0.35612 0.55133 0.0
H2271 H 0.23815 0.41599 0.57421 0.0
H2272 H 0.22011 0.40773 0.57142 0.0
H2273 H 0.23083 0.40934 0.55746 0.0
H2274 H 0.25904 0.38166 0.48301 0.0
H2275 H 0.23666 0.37292 0.47933 0.0
H2276 H 0.2536 0.41652 0.48022 0.0
H2277 H 0.21195 0.36417 0.50293 0.0
H2278 H 0.21481 0.35752 0.48718 0.0
H2279 H 0.20325 0.36378 0.48766 0.0
H2280 H 0.24242 0.42701 0.49021 0.0
H2281 H 0.23157 0.41773 0.50418 0.0
H2282 H 0.22432 0.41668 0.48773 0.0
H2283 H 0.14787 0.39935 0.46394 0.0
H2284 H 0.12982 0.39783 0.47967 0.0
H2285 H 0.14193 0.39553 0.48881 0.0
H2286 H 0.12565 0.3808 0.48432 0.0
H2287 H 0.14935 0.36131 0.47324 0.0
H2288 H 0.16464 0.40449 0.47903 0.0
H2289 H 0.16899 0.35842 0.49818 0.0
H2290 H 0.17866 0.36173 0.48294 0.0
H2291 H 0.16049 0.35068 0.4821 0.0
H2292 H 0.18515 0.41944 0.49041 0.0
H2293 H 0.19734 0.41398 0.49031 0.0
H2294 H 0.18712 0.41128 0.50502 0.0
H2295 H 0.19272 0.3772 0.57426 0.0
H2296 H 0.22758 0.38684 0.54176 0.0
H2297 H 0.22993 0.39027 0.51766 0.0
H2298 H 0.20157 0.39006 0.48161 0.0
H2299 H 0.16797 0.38336 0.51467 0.0
H2300 H 0.16577 0.38025 0.5388 0.0
H2301 H 0.28384 0.39521 0.48635 0.0
H2302 H 0.27593 0.40403 0.49361 0.0
H2303 H 0.28472 0.40949 0.47765 0.0
H2304 H 0.96983 0.35343 0.03543 0.0
H2305 H 0.97329 0.37006 0.05371 0.0
H2306 H 0.00787 0.36889 0.06844 0.0
H2307 H 0.00479 0.35269 0.04986 0.0
H2308 H 0.97372 0.37169 0.08014 0.0
H2309 H 0.03226 0.40005 0.0796 0.0
H2310 H 0.05047 0.40423 0.06361 0.0
H2311 H 0.02463 0.39898 0.02964 0.0
H2312 H 0.00634 0.39495 0.04543 0.0
H2313 H 0.00085 0.41896 0.13674 0.0
H2314 H 0.99474 0.40062 0.1195 0.0
H2315 H 0.01144 0.43074 0.08813 0.0
H2316 H 0.01814 0.44911 0.10541 0.0
H2317 H 0.01927 0.41376 0.08405 0.0
H2318 H 0.97623 0.40864 0.09272 0.0
H2319 H 0.95717 0.40582 0.10663 0.0
H2320 H 0.95044 0.36733 0.1206 0.0
H2321 H 0.96959 0.37001 0.10692 0.0
C2322 C 0.97807 0.35658 0.04267 0.0
C2323 C 0.98715 0.35189 0.0411 0.0
C2324 C 0.98003 0.36609 0.05312 0.0
C2325 C 0.99101 0.37097 0.06228 0.0
C2326 C 0.99954 0.36557 0.06128 0.0
C2327 C 0.99773 0.35626 0.05069 0.0
C2328 C 0.99398 0.38225 0.07235 0.0
C2329 C 0.98368 0.38088 0.08102 0.0
C2330 C 0.00689 0.39442 0.07328 0.0
C2331 C 0.0179 0.39706 0.0637 0.0
C2332 C 0.03049 0.39985 0.06872 0.0
C2333 C 0.04082 0.40218 0.05969 0.0
C2334 C 0.03869 0.40183 0.04562 0.0
C2335 C 0.02625 0.39921 0.04054 0.0
C2336 C 0.0159 0.39689 0.04952 0.0
C2337 C 0.00305 0.42162 0.12613 0.0
C2338 C 0.00967 0.43544 0.1224 0.0
C2339 C 0.99951 0.41114 0.11628 0.0
C2340 C 0.0024 0.41425 0.10245 0.0
C2341 C 0.00904 0.42806 0.09871 0.0
C2342 C 0.01275 0.43855 0.10859 0.0
C2343 C 0.99904 0.40319 0.09196 0.0
C2344 C 0.00929 0.40458 0.08321 0.0
C2345 C 0.98597 0.39127 0.09068 0.0
C2346 C 0.97443 0.38959 0.09889 0.0
C2347 C 0.97075 0.39962 0.09884 0.0
C2348 C 0.95992 0.39804 0.10667 0.0
C2349 C 0.95262 0.38642 0.11452 0.0
C2350 C 0.95611 0.37633 0.11453 0.0
C2351 C 0.96695 0.37787 0.10673 0.0
H2352 H 0.94423 0.38521 0.12057 0.0
H2353 H 0.04669 0.40362 0.03864 0.0
H2354 H 0.64852 0.62408 0.03958 0.0
H2355 H 0.63933 0.60393 0.05383 0.0
H2356 H 0.61115 0.61412 0.07129 0.0
H2357 H 0.62018 0.63422 0.05709 0.0
H2358 H 0.63755 0.60157 0.08201 0.0
H2359 H 0.58125 0.58404 0.07571 0.0
H2360 H 0.56614 0.58557 0.05905 0.0
H2361 H 0.5923 0.58839 0.02644 0.0
H2362 H 0.60746 0.58668 0.04288 0.0
H2363 H 0.59444 0.55381 0.13157 0.0
H2364 H 0.6046 0.57311 0.11613 0.0
H2365 H 0.59696 0.54508 0.08205 0.0
H2366 H 0.5872 0.52574 0.0975 0.0
H2367 H 0.58889 0.56546 0.07837 0.0
H2368 H 0.62684 0.56153 0.09178 0.0
H2369 H 0.64202 0.56 0.10832 0.0
H2370 H 0.65287 0.59952 0.1258 0.0
H2371 H 0.63756 0.60119 0.10949 0.0
C2372 C 0.64038 0.62206 0.04645 0.0
C2373 C 0.63505 0.63075 0.04711 0.0
C2374 C 0.63518 0.61057 0.05463 0.0
C2375 C 0.62449 0.60748 0.0635 0.0
C2376 C 0.6193 0.61624 0.06437 0.0
C2377 C 0.62452 0.62775 0.05627 0.0
C2378 C 0.61859 0.59499 0.07173 0.0
C2379 C 0.62692 0.59367 0.08119 0.0
C2380 C 0.60474 0.58464 0.07059 0.0
C2381 C 0.59554 0.58534 0.06055 0.0
C2382 C 0.58373 0.58491 0.06498 0.0
C2383 C 0.57517 0.58582 0.05557 0.0
C2384 C 0.57827 0.58711 0.0417 0.0
C2385 C 0.58992 0.58743 0.03719 0.0
C2386 C 0.59851 0.5865 0.04655 0.0
C2387 C 0.59508 0.55178 0.12082 0.0
C2388 C 0.59029 0.53829 0.11579 0.0
C2389 C 0.60082 0.56279 0.11202 0.0
C2390 C 0.6016 0.56048 0.09801 0.0
C2391 C 0.59647 0.54703 0.09287 0.0
C2392 C 0.59095 0.53602 0.1017 0.0
C2393 C 0.60781 0.57217 0.08874 0.0
C2394 C 0.59953 0.57335 0.07913 0.0
C2395 C 0.6217 0.58237 0.08972 0.0
C2396 C 0.63095 0.58142 0.0995 0.0
C2397 C 0.63236 0.56984 0.09924 0.0
C2398 C 0.64101 0.56896 0.10855 0.0
C2399 C 0.64838 0.57964 0.11813 0.0
C2400 C 0.64714 0.59124 0.11839 0.0
C2401 C 0.63848 0.59216 0.1091 0.0
H2402 H 0.65508 0.57894 0.12533 0.0
H2403 H 0.57164 0.58785 0.03443 0.0
H2404 H 0.37584 0.02027 0.033 0.0
H2405 H 0.39312 0.02644 0.05083 0.0
H2406 H 0.36541 0.9902 0.07259 0.0
H2407 H 0.34821 0.98392 0.05484 0.0
H2408 H 0.38029 0.0135 0.08981 0.0
H2409 H 0.38732 0.98865 0.05289 0.0
H2410 H 0.39128 0.98472 0.02889 0.0
H2411 H 0.42823 0.02397 0.02936 0.0
H2412 H 0.42437 0.02821 0.05332 0.0
H2413 H 0.4332 0.99928 0.11833 0.0
H2414 H 0.41742 0.99682 0.1003 0.0
H2415 H 0.42688 0.0383 0.10885 0.0
H2416 H 0.44302 0.041 0.12669 0.0
H2417 H 0.42168 0.01332 0.0763 0.0
H2418 H 0.39478 0.03525 0.10805 0.0
H2419 H 0.39029 0.03813 0.13218 0.0
H2420 H 0.39225 0.00267 0.14231 0.0
H2421 H 0.39653 0.99946 0.11822 0.0
C2422 C 0.37337 0.01375 0.0417 0.0
C2423 C 0.3607 0.00156 0.04247 0.0
C2424 C 0.38326 0.01725 0.05184 0.0
C2425 C 0.38056 0.00871 0.06296 0.0
C2426 C 0.3677 0.99693 0.06409 0.0
C2427 C 0.3579 0.99333 0.0539 0.0
C2428 C 0.39131 0.01148 0.07304 0.0
C2429 C 0.3894 0.01359 0.08684 0.0
C2430 C 0.4031 0.0114 0.06919 0.0
C2431 C 0.40548 0.00881 0.05484 0.0
C2432 C 0.39623 0.99649 0.04784 0.0
C2433 C 0.39847 0.9942 0.03425 0.0
C2434 C 0.40998 0.00411 0.02759 0.0
C2435 C 0.4193 0.01631 0.03452 0.0
C2436 C 0.4171 0.01866 0.04811 0.0
C2437 C 0.43216 0.00799 0.11621 0.0
C2438 C 0.43959 0.02047 0.12377 0.0
C2439 C 0.42312 0.00655 0.1059 0.0
C2440 C 0.42103 0.01739 0.10324 0.0
C2441 C 0.42839 0.02983 0.11074 0.0
C2442 C 0.4376 0.03137 0.12089 0.0
C2443 C 0.4107 0.01545 0.09303 0.0
C2444 C 0.41268 0.01345 0.07923 0.0
C2445 C 0.39892 0.01553 0.09689 0.0
C2446 C 0.39615 0.01723 0.11137 0.0
C2447 C 0.39421 0.02805 0.11543 0.0
C2448 C 0.3917 0.02974 0.1291 0.0
C2449 C 0.39104 0.02063 0.13878 0.0
C2450 C 0.39282 0.00976 0.13481 0.0
C2451 C 0.39531 0.00802 0.12115 0.0
H2452 H 0.3891 0.02196 0.14936 0.0
H2453 H 0.41169 0.00232 0.01707 0.0
H2454 H 0.36023 0.01029 0.96952 0.0
H2455 H 0.37552 0.01289 0.951 0.0
H2456 H 0.37635 0.97752 0.96454 0.0
H2457 H 0.36065 0.97454 0.98272 0.0
H2458 H 0.39994 0.0187 0.95086 0.0
H2459 H 0.38237 0.96146 0.93868 0.0
H2460 H 0.36136 0.93872 0.93857 0.0
H2461 H 0.33783 0.95775 0.93343 0.0
H2462 H 0.35869 0.98057 0.93333 0.0
H2463 H 0.45068 0.01673 0.91269 0.0
H2464 H 0.43361 0.01252 0.92976 0.0
H2465 H 0.40252 0.99473 0.89841 0.0
H2466 H 0.41952 0.99833 0.8814 0.0
H2467 H 0.39321 0.98035 0.91984 0.0
H2468 H 0.41596 0.02833 0.9115 0.0
H2469 H 0.43546 0.05187 0.9094 0.0
H2470 H 0.44575 0.05282 0.95166 0.0
H2471 H 0.42641 0.0292 0.95397 0.0
C2472 C 0.36358 0.003 0.96849 0.0
C2473 C 0.35917 0.99217 0.97756 0.0
C2474 C 0.37236 0.00452 0.95791 0.0
C2475 C 0.37701 0.99533 0.95625 0.0
C2476 C 0.37268 0.98456 0.96537 0.0
C2477 C 0.36373 0.9829 0.97581 0.0
C2478 C 0.38673 0.99729 0.94526 0.0
C2479 C 0.39843 0.0103 0.94407 0.0
C2480 C 0.3847 0.98643 0.93619 0.0
C2481 C 0.37209 0.97273 0.93614 0.0
C2482 C 0.37271 0.96078 0.93747 0.0
C2483 C 0.36083 0.94788 0.93746 0.0
C2484 C 0.34827 0.9468 0.93604 0.0
C2485 C 0.34756 0.95861 0.93458 0.0
C2486 C 0.35941 0.97153 0.93458 0.0
C2487 C 0.44018 0.01169 0.90947 0.0
C2488 C 0.43639 0.00759 0.89572 0.0
C2489 C 0.43044 0.00943 0.91922 0.0
C2490 C 0.41677 0.00345 0.91537 0.0
C2491 C 0.41297 0.9993 0.90166 0.0
C2492 C 0.42268 0.00136 0.89195 0.0
C2493 C 0.40646 0.00171 0.92555 0.0
C2494 C 0.39468 0.98874 0.92662 0.0
C2495 C 0.40819 0.01272 0.9342 0.0
C2496 C 0.41981 0.02695 0.93287 0.0
C2497 C 0.42243 0.03352 0.92032 0.0
C2498 C 0.43345 0.04689 0.9191 0.0
C2499 C 0.44186 0.05383 0.93038 0.0
C2500 C 0.43924 0.04743 0.94292 0.0
C2501 C 0.42825 0.03405 0.9442 0.0
H2502 H 0.45038 0.06417 0.92941 0.0
H2503 H 0.33909 0.9368 0.93603 0.0
H2504 H 0.97843 0.35615 0.97391 0.0
H2505 H 0.9853 0.37338 0.95673 0.0
H2506 H 0.02684 0.38438 0.96184 0.0
H2507 H 0.02002 0.36709 0.97948 0.0
H2508 H 0.02434 0.40706 0.9597 0.0
H2509 H 0.00883 0.36493 0.93431 0.0
H2510 H 0.99309 0.34048 0.92821 0.0
H2511 H 0.96228 0.34935 0.918 0.0
H2512 H 0.97777 0.37382 0.92423 0.0
H2513 H 0.04068 0.44719 0.89989 0.0
H2514 H 0.03824 0.43052 0.91667 0.0
H2515 H 0.99488 0.41198 0.91499 0.0
H2516 H 0.99726 0.42828 0.89786 0.0
H2517 H 0.001 0.39284 0.91452 0.0
H2518 H 0.01538 0.43415 0.94218 0.0
H2519 H 0.03064 0.45856 0.94885 0.0
H2520 H 0.06317 0.45121 0.95502 0.0
H2521 H 0.04813 0.42678 0.94822 0.0
C2522 C 0.98905 0.36216 0.97143 0.0
C2523 C 0.99866 0.36009 0.978 0.0
C2524 C 0.99295 0.37202 0.96154 0.0
C2525 C 0.00653 0.37996 0.95777 0.0
C2526 C 0.01628 0.37826 0.96453 0.0
C2527 C 0.01237 0.36838 0.97458 0.0
C2528 C 0.0103 0.38996 0.94674 0.0
C2529 C 0.01946 0.40394 0.94971 0.0
C2530 C 0.00374 0.38591 0.9338 0.0
C2531 C 0.99446 0.37122 0.9298 0.0
C2532 C 0.99868 0.36166 0.93082 0.0
C2533 C 0.9898 0.34779 0.92734 0.0
C2534 C 0.97669 0.34336 0.92273 0.0
C2535 C 0.97244 0.35279 0.92156 0.0
C2536 C 0.98128 0.36667 0.92505 0.0
C2537 C 0.03065 0.43964 0.90324 0.0
C2538 C 0.01919 0.43931 0.89786 0.0
C2539 C 0.02926 0.43013 0.91284 0.0
C2540 C 0.01639 0.42014 0.91732 0.0
C2541 C 0.00493 0.41965 0.91178 0.0
C2542 C 0.0063 0.42905 0.90208 0.0
C2543 C 0.01477 0.41001 0.92758 0.0
C2544 C 0.00602 0.39598 0.92444 0.0
C2545 C 0.02167 0.41404 0.94036 0.0
C2546 C 0.03068 0.42868 0.94456 0.0
C2547 C 0.02581 0.43777 0.94487 0.0
C2548 C 0.03442 0.4516 0.94869 0.0
C2549 C 0.04787 0.45644 0.95232 0.0
C2550 C 0.05275 0.44745 0.95218 0.0
C2551 C 0.04419 0.43361 0.94836 0.0
H2552 H 0.05452 0.46716 0.95526 0.0
H2553 H 0.96983 0.33262 0.92006 0.0
H2554 H 0.62038 0.66008 0.98599 0.0
H2555 H 0.60509 0.64844 0.96661 0.0
H2556 H 0.61904 0.61983 0.96321 0.0
H2557 H 0.63473 0.63173 0.98245 0.0
H2558 H 0.61479 0.62645 0.93836 0.0
H2559 H 0.58951 0.61091 0.97945 0.0
H2560 H 0.58146 0.61339 0.00207 0.0
H2561 H 0.56374 0.63472 0.98438 0.0
H2562 H 0.57185 0.63253 0.96167 0.0
H2563 H 0.55694 0.57878 0.89751 0.0
H2564 H 0.57426 0.58923 0.91564 0.0
H2565 H 0.56438 0.6207 0.92264 0.0
H2566 H 0.54691 0.61013 0.90477 0.0
H2567 H 0.56648 0.61063 0.94619 0.0
H2568 H 0.59278 0.62672 0.90505 0.0
H2569 H 0.60082 0.62383 0.88256 0.0
H2570 H 0.61632 0.6006 0.90056 0.0
H2571 H 0.60821 0.6032 0.92313 0.0
C2572 C 0.6203 0.65139 0.98106 0.0
C2573 C 0.62865 0.64672 0.98587 0.0
C2574 C 0.61152 0.64471 0.97001 0.0
C2575 C 0.61068 0.63305 0.96369 0.0
C2576 C 0.61946 0.62875 0.96801 0.0
C2577 C 0.62841 0.63556 0.979 0.0
C2578 C 0.60021 0.6251 0.95298 0.0
C2579 C 0.6042 0.62281 0.94012 0.0
C2580 C 0.5864 0.62043 0.95525 0.0
C2581 C 0.58137 0.62163 0.96887 0.0
C2582 C 0.58396 0.6162 0.9804 0.0
C2583 C 0.57938 0.61754 0.99323 0.0
C2584 C 0.57211 0.62423 0.99467 0.0
C2585 C 0.56938 0.62955 0.98326 0.0
C2586 C 0.57395 0.62824 0.9704 0.0
C2587 C 0.55839 0.58784 0.90304 0.0
C2588 C 0.55036 0.59346 0.89997 0.0
C2589 C 0.56836 0.59387 0.91329 0.0
C2590 C 0.57064 0.60578 0.92047 0.0
C2591 C 0.56273 0.61147 0.9173 0.0
C2592 C 0.55275 0.60542 0.90711 0.0
C2593 C 0.58108 0.61227 0.93145 0.0
C2594 C 0.57706 0.61422 0.94443 0.0
C2595 C 0.59482 0.61651 0.92929 0.0
C2596 C 0.59977 0.61503 0.91574 0.0
C2597 C 0.59782 0.62091 0.90419 0.0
C2598 C 0.6024 0.61934 0.89143 0.0
C2599 C 0.60905 0.612 0.89013 0.0
C2600 C 0.61116 0.60626 0.90158 0.0
C2601 C 0.60658 0.60779 0.91436 0.0
H2602 H 0.61258 0.61079 0.88025 0.0
H2603 H 0.56858 0.62527 0.00462 0.0
H2604 H 0.0387 0.65966 0.98394 0.0
H2605 H 0.03792 0.64552 0.96425 0.0
H2606 H 0.99482 0.62814 0.96055 0.0
H2607 H 0.99552 0.6424 0.97989 0.0
H2608 H 0.02563 0.61869 0.96132 0.0
H2609 H 0.984 0.61902 0.92847 0.0
H2610 H 0.97605 0.63487 0.92345 0.0
H2611 H 0.01565 0.66946 0.93264 0.0
H2612 H 0.02388 0.65384 0.93757 0.0
H2613 H 0.98656 0.55958 0.91909 0.0
H2614 H 0.99437 0.57938 0.93485 0.0
H2615 H 0.01913 0.60643 0.90332 0.0
H2616 H 0.01167 0.58658 0.88755 0.0
H2617 H 0.00199 0.61441 0.91757 0.0
H2618 H 0.0355 0.60301 0.92623 0.0
H2619 H 0.04417 0.58774 0.93102 0.0
H2620 H 0.02302 0.57706 0.969 0.0
H2621 H 0.01404 0.59212 0.96434 0.0
C2622 C 0.02907 0.65293 0.97885 0.0
C2623 C 0.01718 0.6522 0.98351 0.0
C2624 C 0.02865 0.64485 0.96761 0.0
C2625 C 0.01634 0.63589 0.96081 0.0
C2626 C 0.00448 0.63519 0.96541 0.0
C2627 C 0.0049 0.64333 0.97656 0.0
C2628 C 0.01568 0.62668 0.94941 0.0
C2629 C 0.02057 0.61786 0.95171 0.0
C2630 C 0.00929 0.62574 0.93676 0.0
C2631 C 0.00453 0.63524 0.93346 0.0
C2632 C 0.99104 0.63001 0.92933 0.0
C2633 C 0.98647 0.63895 0.92653 0.0
C2634 C 0.99533 0.65316 0.92775 0.0
C2635 C 0.00879 0.65846 0.93173 0.0
C2636 C 0.0134 0.64956 0.93455 0.0
C2637 C 0.99371 0.56973 0.91551 0.0
C2638 C 0.99834 0.57154 0.90201 0.0
C2639 C 0.99817 0.58101 0.92453 0.0
C2640 C 0.00728 0.59433 0.9202 0.0
C2641 C 0.01203 0.59622 0.90679 0.0
C2642 C 0.00774 0.58489 0.89781 0.0
C2643 C 0.01153 0.60622 0.92974 0.0
C2644 C 0.00726 0.61546 0.92709 0.0
C2645 C 0.01863 0.60768 0.94199 0.0
C2646 C 0.02402 0.59862 0.94488 0.0
C2647 C 0.0326 0.59732 0.93555 0.0
C2648 C 0.03759 0.58872 0.93825 0.0
C2649 C 0.03413 0.58141 0.95029 0.0
C2650 C 0.02569 0.58272 0.95967 0.0
C2651 C 0.02066 0.5913 0.95702 0.0
H2652 H 0.038 0.57476 0.95237 0.0
H2653 H 0.99177 0.66006 0.9256 0.0
H2654 H 0.36249 0.36312 0.95205 0.0
H2655 H 0.37 0.3819 0.93634 0.0
H2656 H 0.37083 0.40836 0.96929 0.0
H2657 H 0.36273 0.38933 0.985 0.0
H2658 H 0.36198 0.41343 0.94701 0.0
H2659 H 0.40025 0.4095 0.95771 0.0
H2660 H 0.41286 0.39756 0.96026 0.0
H2661 H 0.40778 0.38693 0.9174 0.0
H2662 H 0.39497 0.39865 0.91462 0.0
H2663 H 0.40131 0.47376 0.90882 0.0
H2664 H 0.39459 0.45675 0.9266 0.0
H2665 H 0.38981 0.4263 0.89617 0.0
H2666 H 0.39681 0.44335 0.87845 0.0
H2667 H 0.40192 0.42472 0.91869 0.0
H2668 H 0.36265 0.42798 0.90856 0.0
H2669 H 0.35033 0.44025 0.9063 0.0
H2670 H 0.35797 0.45279 0.94868 0.0
H2671 H 0.37049 0.44074 0.95114 0.0
C2672 C 0.36417 0.37291 0.95594 0.0
C2673 C 0.36216 0.3748 0.96979 0.0
C2674 C 0.36855 0.38367 0.94696 0.0
C2675 C 0.37138 0.39669 0.9517 0.0
C2676 C 0.36883 0.39845 0.96542 0.0
C2677 C 0.36419 0.38757 0.97438 0.0
C2678 C 0.37724 0.40845 0.94236 0.0
C2679 C 0.37084 0.41603 0.94098 0.0
C2680 C 0.38874 0.41179 0.93436 0.0
C2681 C 0.39657 0.40487 0.93598 0.0
C2682 C 0.40176 0.40455 0.94884 0.0
C2683 C 0.40895 0.39783 0.95033 0.0
C2684 C 0.4111 0.39147 0.93901 0.0
C2685 C 0.4061 0.39186 0.92616 0.0
C2686 C 0.39889 0.39855 0.92462 0.0
C2687 C 0.39906 0.4635 0.906 0.0
C2688 C 0.3998 0.45992 0.89229 0.0
C2689 C 0.3951 0.45376 0.91613 0.0
C2690 C 0.39155 0.4402 0.9127 0.0
C2691 C 0.39253 0.4367 0.89906 0.0
C2692 C 0.39654 0.44644 0.88896 0.0
C2693 C 0.38652 0.42952 0.92318 0.0
C2694 C 0.39311 0.42216 0.9248 0.0
C2695 C 0.37527 0.42646 0.93144 0.0
C2696 C 0.36762 0.43357 0.92999 0.0
C2697 C 0.36177 0.43343 0.91737 0.0
C2698 C 0.35475 0.44034 0.91606 0.0
C2699 C 0.3534 0.44733 0.92733 0.0
C2700 C 0.35904 0.44739 0.93995 0.0
C2701 C 0.36609 0.44051 0.94131 0.0
H2702 H 0.34796 0.45267 0.9263 0.0
H2703 H 0.41666 0.38627 0.94018 0.0
H2704 H 0.65309 0.02179 0.96378 0.0
H2705 H 0.63518 0.01486 0.94683 0.0
H2706 H 0.60982 0.97753 0.96819 0.0
H2707 H 0.62792 0.98433 0.98524 0.0
H2708 H 0.60727 0.97312 0.94036 0.0
H2709 H 0.60484 0.00389 0.97264 0.0
H2710 H 0.61361 0.02493 0.98714 0.0
H2711 H 0.6258 0.04947 0.95149 0.0
H2712 H 0.61729 0.02859 0.93677 0.0
H2713 H 0.54972 0.96329 0.90216 0.0
H2714 H 0.56465 0.96646 0.92149 0.0
H2715 H 0.59581 0.0047 0.90516 0.0
H2716 H 0.58096 0.00159 0.8859 0.0
H2717 H 0.59298 0.00682 0.9327 0.0
H2718 H 0.59685 0.97573 0.90073 0.0
H2719 H 0.58788 0.9545 0.88648 0.0
H2720 H 0.57226 0.93022 0.92212 0.0
H2721 H 0.58098 0.95133 0.93657 0.0
C2722 C 0.64376 0.01204 0.96487 0.0
C2723 C 0.64188 0.0037 0.97599 0.0
C2724 C 0.6335 0.00811 0.95516 0.0
C2725 C 0.62104 0.99584 0.95642 0.0
C2726 C 0.61933 0.9871 0.96709 0.0
C2727 C 0.62968 0.991 0.97681 0.0
C2728 C 0.60976 0.99258 0.94684 0.0
C2729 C 0.60396 0.98036 0.93886 0.0
C2730 C 0.6055 0.00207 0.9448 0.0
C2731 C 0.6105 0.01467 0.95361 0.0
C2732 C 0.60947 0.01378 0.96789 0.0
C2733 C 0.61438 0.02568 0.97616 0.0
C2734 C 0.62028 0.03853 0.97025 0.0
C2735 C 0.62124 0.03951 0.95606 0.0
C2736 C 0.61635 0.02764 0.94775 0.0
C2737 C 0.55972 0.97242 0.9028 0.0
C2738 C 0.56416 0.98224 0.89258 0.0
C2739 C 0.56825 0.97419 0.91378 0.0
C2740 C 0.58137 0.98577 0.9147 0.0
C2741 C 0.58571 0.9957 0.90466 0.0
C2742 C 0.57723 0.99392 0.89367 0.0
C2743 C 0.59076 0.98756 0.92597 0.0
C2744 C 0.59617 0.9995 0.93431 0.0
C2745 C 0.59457 0.97777 0.92837 0.0
C2746 C 0.58943 0.9651 0.91971 0.0
C2747 C 0.59141 0.96586 0.90552 0.0
C2748 C 0.58639 0.95386 0.89741 0.0
C2749 C 0.57947 0.94102 0.90339 0.0
C2750 C 0.5776 0.94017 0.9175 0.0
C2751 C 0.58259 0.95215 0.92566 0.0
H2752 H 0.57559 0.93173 0.89709 0.0
H2753 H 0.62408 0.04773 0.97666 0.0
H2754 H 0.6551 0.03938 0.04084 0.0
H2755 H 0.64123 0.0389 0.05993 0.0
H2756 H 0.62454 0.99528 0.06302 0.0
H2757 H 0.63851 0.99565 0.04413 0.0
H2758 H 0.61446 0.02578 0.06162 0.0
H2759 H 0.61655 0.98596 0.09565 0.0
H2760 H 0.63252 0.97849 0.1014 0.0
H2761 H 0.666 0.01835 0.09207 0.0
H2762 H 0.65025 0.02612 0.08644 0.0
H2763 H 0.55835 0.98931 0.10477 0.0
H2764 H 0.57694 0.99576 0.0889 0.0
H2765 H 0.60536 0.02385 0.1194 0.0
H2766 H 0.58672 0.01776 0.13526 0.0
H2767 H 0.61231 0.00494 0.10611 0.0
H2768 H 0.60047 0.03825 0.09578 0.0
H2769 H 0.58498 0.04638 0.09032 0.0
H2770 H 0.57262 0.02164 0.05326 0.0
H2771 H 0.5879 0.0132 0.0586 0.0
C2772 C 0.64857 0.02969 0.04564 0.0
C2773 C 0.64793 0.01755 0.04091 0.0
C2774 C 0.64063 0.02944 0.05654 0.0
C2775 C 0.63194 0.01709 0.06297 0.0
C2776 C 0.63135 0.00498 0.05837 0.0
C2777 C 0.63931 0.00521 0.0475 0.0
C2778 C 0.62299 0.0167 0.07407 0.0
C2779 C 0.61408 0.02131 0.07138 0.0
C2780 C 0.62261 0.01105 0.08688 0.0
C2781 C 0.6322 0.00658 0.09053 0.0
C2782 C 0.62732 0.99316 0.0949 0.0
C2783 C 0.63634 0.98886 0.09812 0.0
C2784 C 0.65027 0.99793 0.09707 0.0
C2785 C 0.65521 0.01132 0.09284 0.0
C2786 C 0.64624 0.01567 0.08962 0.0
C2787 C 0.56854 0.99691 0.10809 0.0
C2788 C 0.5711 0.00288 0.12133 0.0
C2789 C 0.57913 0.00058 0.09902 0.0
C2790 C 0.59248 0.01022 0.10304 0.0
C2791 C 0.59511 0.01632 0.11618 0.0
C2792 C 0.58448 0.01282 0.12521 0.0
C2793 C 0.60363 0.01369 0.09346 0.0
C2794 C 0.61288 0.00958 0.09641 0.0
C2795 C 0.60442 0.01993 0.08095 0.0
C2796 C 0.59526 0.02501 0.07765 0.0
C2797 C 0.59437 0.03445 0.08652 0.0
C2798 C 0.58564 0.03913 0.08344 0.0
C2799 C 0.5778 0.03451 0.07146 0.0
C2800 C 0.57869 0.02521 0.06253 0.0
C2801 C 0.5874 0.02048 0.06558 0.0
H2802 H 0.57104 0.03814 0.06909 0.0
H2803 H 0.65723 0.99458 0.09954 0.0
H2804 H 0.98647 0.62918 0.03334 0.0
H2805 H 0.97936 0.61045 0.0492 0.0
H2806 H 0.00756 0.63924 0.07954 0.0
H2807 H 0.01515 0.65776 0.06346 0.0
H2808 H 0.01059 0.61872 0.07802 0.0
H2809 H 0.97108 0.62282 0.08117 0.0
H2810 H 0.95141 0.62339 0.0723 0.0
H2811 H 0.93467 0.58249 0.05526 0.0
H2812 H 0.95433 0.58173 0.06388 0.0
H2813 H 0.98911 0.57739 0.13595 0.0
H2814 H 0.99379 0.59477 0.11916 0.0
H2815 H 0.96831 0.56287 0.08963 0.0
H2816 H 0.96338 0.54542 0.10655 0.0
H2817 H 0.9635 0.58371 0.08968 0.0
H2818 H 0.00286 0.57962 0.0875 0.0
H2819 H 0.02244 0.57917 0.09683 0.0
H2820 H 0.03941 0.62056 0.11258 0.0
H2821 H 0.01983 0.62119 0.1035 0.0
C2822 C 0.99096 0.63151 0.04348 0.0
C2823 C 0.00138 0.64489 0.04718 0.0
C2824 C 0.98687 0.6208 0.05257 0.0
C2825 C 0.99286 0.62339 0.06565 0.0
C2826 C 0.00284 0.63692 0.0695 0.0
C2827 C 0.00714 0.64752 0.06033 0.0
C2828 C 0.98954 0.61199 0.07503 0.0
C2829 C 1.00028 0.61121 0.08071 0.0
C2830 C 0.97608 0.60184 0.07821 0.0
C2831 C 0.96424 0.60228 0.07306 0.0
C2832 C 0.96325 0.61399 0.07544 0.0
C2833 C 0.9521 0.61434 0.07048 0.0
C2834 C 0.94181 0.603 0.06319 0.0
C2835 C 0.94265 0.59127 0.06089 0.0
C2836 C 0.95379 0.59087 0.06582 0.0
C2837 C 0.98465 0.57409 0.12582 0.0
C2838 C 0.97617 0.56004 0.12244 0.0
C2839 C 0.98732 0.58402 0.11623 0.0
C2840 C 0.98159 0.58012 0.10305 0.0
C2841 C 0.97292 0.5661 0.09971 0.0
C2842 C 0.97021 0.55615 0.10933 0.0
C2843 C 0.98457 0.59073 0.09286 0.0
C2844 C 0.97379 0.59127 0.08697 0.0
C2845 C 0.99799 0.60074 0.08953 0.0
C2846 C 0.00982 0.60041 0.09491 0.0
C2847 C 0.01072 0.58859 0.09303 0.0
C2848 C 0.02183 0.58831 0.09826 0.0
C2849 C 0.03215 0.59982 0.10532 0.0
C2850 C 0.0314 0.61165 0.10712 0.0
C2851 C 0.02031 0.61198 0.10192 0.0
H2852 H 0.04074 0.59958 0.10936 0.0
H2853 H 0.93319 0.60329 0.05935 0.0
H2854 H 0.39538 0.36035 0.02163 0.0
H2855 H 0.4103 0.36953 0.0416 0.0
H2856 H 0.38267 0.37927 0.06128 0.0
H2857 H 0.36767 0.37022 0.04121 0.0
H2858 H 0.40921 0.39974 0.06549 0.0
H2859 H 0.38236 0.3508 0.06957 0.0
H2860 H 0.37242 0.3266 0.06187 0.0
H2861 H 0.41217 0.3327 0.05742 0.0
H2862 H 0.42235 0.35701 0.06491 0.0
H2863 H 0.43365 0.40458 0.13371 0.0
H2864 H 0.4202 0.3992 0.11267 0.0
H2865 H 0.44619 0.3875 0.09245 0.0
H2866 H 0.45949 0.39264 0.11354 0.0
H2867 H 0.42028 0.36838 0.08858 0.0
H2868 H 0.44719 0.41736 0.08501 0.0
H2869 H 0.457 0.44151 0.09286 0.0
H2870 H 0.41719 0.43536 0.09662 0.0
H2871 H 0.40712 0.41112 0.08898 0.0
C2872 C 0.39246 0.36449 0.03015 0.0
C2873 C 0.38023 0.36441 0.02984 0.0
C2874 C 0.40101 0.36973 0.04158 0.0
C2875 C 0.39749 0.37488 0.05299 0.0
C2876 C 0.38555 0.37529 0.05258 0.0
C2877 C 0.37697 0.37008 0.04111 0.0
C2878 C 0.40604 0.37933 0.06553 0.0
C2879 C 0.41152 0.39286 0.07065 0.0
C2880 C 0.40921 0.37039 0.07211 0.0
C2881 C 0.40311 0.35576 0.06768 0.0
C2882 C 0.38898 0.34701 0.06685 0.0
C2883 C 0.38331 0.33327 0.06254 0.0
C2884 C 0.39166 0.32812 0.05913 0.0
C2885 C 0.40571 0.3367 0.06005 0.0
C2886 C 0.41144 0.35046 0.06434 0.0
C2887 C 0.43661 0.40109 0.12469 0.0
C2888 C 0.44773 0.39924 0.12517 0.0
C2889 C 0.42895 0.39804 0.11268 0.0
C2890 C 0.43229 0.39309 0.10095 0.0
C2891 C 0.44348 0.39137 0.10137 0.0
C2892 C 0.45111 0.39438 0.11338 0.0
C2893 C 0.42363 0.38887 0.08849 0.0
C2894 C 0.41805 0.37532 0.08341 0.0
C2895 C 0.42037 0.39779 0.082 0.0
C2896 C 0.4264 0.41238 0.08655 0.0
C2897 C 0.44052 0.42113 0.08762 0.0
C2898 C 0.44613 0.43484 0.09201 0.0
C2899 C 0.43772 0.43996 0.09527 0.0
C2900 C 0.42368 0.43138 0.09411 0.0
C2901 C 0.41802 0.41766 0.08973 0.0
H2902 H 0.44208 0.45057 0.09867 0.0
H2903 H 0.38725 0.31748 0.05579 0.0
H2904 H 0.67078 0.70495 0.37345 0.0
H2905 H 0.66606 0.71554 0.3931 0.0
H2906 H 0.62419 0.69558 0.3804 0.0
H2907 H 0.62882 0.68522 0.36068 0.0
H2908 H 0.63352 0.72165 0.38688 0.0
H2909 H 0.63475 0.68426 0.40741 0.0
H2910 H 0.64489 0.6705 0.41318 0.0
H2911 H 0.67782 0.70561 0.43394 0.0
H2912 H 0.66796 0.71964 0.42814 0.0
H2913 H 0.60253 0.72867 0.44614 0.0
H2914 H 0.60969 0.71943 0.42726 0.0
H2915 H 0.65085 0.74264 0.44241 0.0
H2916 H 0.64367 0.75178 0.46146 0.0
H2917 H 0.64361 0.71654 0.43479 0.0
H2918 H 0.64149 0.75355 0.41515 0.0
H2919 H 0.63102 0.76703 0.40948 0.0
H2920 H 0.59941 0.73228 0.387 0.0
H2921 H 0.60959 0.71853 0.39271 0.0
C2922 C 0.66056 0.70277 0.37487 0.0
C2923 C 0.6502 0.69425 0.36544 0.0
C2924 C 0.65787 0.7088 0.38613 0.0
C2925 C 0.64475 0.70629 0.38826 0.0
C2926 C 0.6344 0.69771 0.37893 0.0
C2927 C 0.63708 0.69176 0.36766 0.0
C2928 C 0.64173 0.71277 0.40001 0.0
C2929 C 0.6356 0.72041 0.39736 0.0
C2930 C 0.64479 0.71147 0.41367 0.0
C2931 C 0.6507 0.70304 0.41721 0.0
C2932 C 0.64421 0.68908 0.41311 0.0
C2933 C 0.6499 0.68122 0.41641 0.0
C2934 C 0.66201 0.68718 0.42389 0.0
C2935 C 0.66845 0.70101 0.42813 0.0
C2936 C 0.66281 0.70892 0.42485 0.0
C2937 C 0.61312 0.73187 0.44538 0.0
C2938 C 0.6226 0.74119 0.45507 0.0
C2939 C 0.6172 0.7266 0.4346 0.0
C2940 C 0.63084 0.73055 0.4333 0.0
C2941 C 0.64029 0.73955 0.44317 0.0
C2942 C 0.6362 0.74483 0.45398 0.0
C2943 C 0.63519 0.72521 0.42164 0.0
C2944 C 0.6416 0.71784 0.4243 0.0
C2945 C 0.63235 0.7267 0.40797 0.0
C2946 C 0.62625 0.73498 0.40446 0.0
C2947 C 0.63225 0.74875 0.40908 0.0
C2948 C 0.62638 0.75645 0.40585 0.0
C2949 C 0.61454 0.75051 0.39791 0.0
C2950 C 0.60857 0.73687 0.39316 0.0
C2951 C 0.6144 0.72912 0.39638 0.0
H2952 H 0.61 0.75648 0.39542 0.0
H2953 H 0.6664 0.68108 0.42643 0.0
H2954 H 0.29902 0.97438 0.40747 0.0
H2955 H 0.29039 0.95523 0.42313 0.0
H2956 H 0.29183 0.92935 0.39099 0.0
H2957 H 0.30082 0.9485 0.37538 0.0
H2958 H 0.26478 0.92087 0.40856 0.0
H2959 H 0.31284 0.93502 0.40939 0.0
H2960 H 0.33699 0.95252 0.4128 0.0
H2961 H 0.32907 0.96105 0.45361 0.0
H2962 H 0.30482 0.94372 0.45036 0.0
H2963 H 0.24052 0.85249 0.44167 0.0
H2964 H 0.25201 0.8766 0.42522 0.0
H2965 H 0.28058 0.90659 0.46476 0.0
H2966 H 0.26996 0.88317 0.48213 0.0
H2967 H 0.29243 0.9154 0.44359 0.0
H2968 H 0.24645 0.90401 0.44497 0.0
H2969 H 0.22158 0.88934 0.44351 0.0
H2970 H 0.22414 0.87888 0.4016 0.0
H2971 H 0.24904 0.8934 0.40288 0.0
C2972 C 0.29759 0.96464 0.40378 0.0
C2973 C 0.3006 0.96293 0.3902 0.0
C2974 C 0.29269 0.95375 0.41272 0.0
C2975 C 0.29052 0.94095 0.40816 0.0
C2976 C 0.29351 0.9392 0.39466 0.0
C2977 C 0.29868 0.95015 0.38579 0.0
C2978 C 0.28464 0.92922 0.41735 0.0
C2979 C 0.2708 0.91951 0.41613 0.0
C2980 C 0.29243 0.92792 0.42759 0.0
C2981 C 0.30701 0.93821 0.42957 0.0
C2982 C 0.31622 0.94073 0.41904 0.0
C2983 C 0.32993 0.95059 0.42095 0.0
C2984 C 0.33455 0.95792 0.43339 0.0
C2985 C 0.32547 0.95537 0.44397 0.0
C2986 C 0.31175 0.94553 0.4421 0.0
C2987 C 0.24822 0.86244 0.44578 0.0
C2988 C 0.25223 0.86576 0.46438 0.0
C2989 C 0.25488 0.87766 0.43587 0.0
C2990 C 0.26673 0.89444 0.44341 0.0
C2991 C 0.27313 0.8965 0.46072 0.0
C2992 C 0.26709 0.88188 0.47144 0.0
C2993 C 0.2724 0.90669 0.4348 0.0
C2994 C 0.28625 0.91662 0.43613 0.0
C2995 C 0.26451 0.90843 0.42492 0.0
C2996 C 0.24959 0.89957 0.42411 0.0
C2997 C 0.2417 0.89849 0.43548 0.0
C2998 C 0.2276 0.89023 0.43468 0.0
C2999 C 0.22128 0.88312 0.42249 0.0
C3000 C 0.22905 0.88434 0.41105 0.0
C3001 C 0.24314 0.89259 0.41181 0.0
H3002 H 0.21037 0.87672 0.42189 0.0
H3003 H 0.34517 0.96556 0.43486 0.0
H3004 H 0.0377 0.31935 0.38516 0.0
H3005 H 0.0559 0.32936 0.40223 0.0
H3006 H 0.06648 0.37007 0.39076 0.0
H3007 H 0.04848 0.36015 0.37342 0.0
H3008 H 0.08851 0.36863 0.39329 0.0
H3009 H 0.04943 0.35574 0.42069 0.0
H3010 H 0.02657 0.33999 0.42933 0.0
H3011 H 0.03975 0.31363 0.44438 0.0
H3012 H 0.06265 0.32912 0.43567 0.0
H3013 H 0.13308 0.40346 0.44979 0.0
H3014 H 0.11447 0.39443 0.43308 0.0
H3015 H 0.10207 0.35304 0.44392 0.0
H3016 H 0.12033 0.36205 0.46096 0.0
H3017 H 0.08086 0.35545 0.44177 0.0
H3018 H 0.11969 0.36791 0.41379 0.0
H3019 H 0.14252 0.38349 0.40498 0.0
H3020 H 0.12978 0.41056 0.39095 0.0
H3021 H 0.10691 0.39522 0.39983 0.0
C3022 C 0.04383 0.33044 0.3863 0.0
C3023 C 0.04158 0.33893 0.37791 0.0
C3024 C 0.05422 0.33615 0.39612 0.0
C3025 C 0.06247 0.35048 0.39791 0.0
C3026 C 0.06024 0.35899 0.38957 0.0
C3027 C 0.04991 0.35328 0.37968 0.0
C3028 C 0.07363 0.35658 0.40823 0.0
C3029 C 0.0868 0.36591 0.40394 0.0
C3030 C 0.07147 0.3528 0.42207 0.0
C3031 C 0.05773 0.34353 0.42742 0.0
C3032 C 0.04743 0.34653 0.42577 0.0
C3033 C 0.03447 0.33766 0.43069 0.0
C3034 C 0.0317 0.3258 0.43737 0.0
C3035 C 0.0419 0.32281 0.43919 0.0
C3036 C 0.05488 0.33164 0.43428 0.0
C3037 C 0.12646 0.39243 0.44847 0.0
C3038 C 0.12842 0.38346 0.45639 0.0
C3039 C 0.11584 0.38728 0.43892 0.0
C3040 C 0.10702 0.37303 0.43703 0.0
C3041 C 0.1088 0.36406 0.44511 0.0
C3042 C 0.11932 0.36922 0.45476 0.0
C3043 C 0.09576 0.36743 0.42682 0.0
C3044 C 0.08257 0.35821 0.43113 0.0
C3045 C 0.0979 0.37129 0.413 0.0
C3046 C 0.11163 0.38048 0.40759 0.0
C3047 C 0.12178 0.37723 0.40891 0.0
C3048 C 0.13473 0.38601 0.40389 0.0
C3049 C 0.13761 0.39803 0.39744 0.0
C3050 C 0.12754 0.40126 0.39596 0.0
C3051 C 0.11459 0.39252 0.40097 0.0
H3052 H 0.14764 0.40481 0.39357 0.0
H3053 H 0.02166 0.31894 0.44116 0.0
H3054 H 0.04819 0.34222 0.31279 0.0
H3055 H 0.06021 0.33909 0.29372 0.0
H3056 H 0.03046 0.29569 0.29175 0.0
H3057 H 0.01869 0.29865 0.31096 0.0
H3058 H 0.05452 0.29921 0.29087 0.0
H3059 H 0.03196 0.31902 0.26787 0.0
H3060 H 0.02598 0.33661 0.26403 0.0
H3061 H 0.06782 0.36682 0.25809 0.0
H3062 H 0.07407 0.34944 0.26208 0.0
H3063 H 0.06797 0.27867 0.22734 0.0
H3064 H 0.05757 0.28456 0.24599 0.0
H3065 H 0.09039 0.32677 0.24557 0.0
H3066 H 0.10065 0.32097 0.22659 0.0
H3067 H 0.06664 0.32536 0.24826 0.0
H3068 H 0.08889 0.30497 0.2702 0.0
H3069 H 0.09458 0.28714 0.27385 0.0
H3070 H 0.0529 0.25775 0.28169 0.0
H3071 H 0.04692 0.27535 0.2779 0.0
C3072 C 0.04416 0.33203 0.30822 0.0
C3073 C 0.03252 0.32067 0.31345 0.0
C3074 C 0.05102 0.33026 0.29729 0.0
C3075 C 0.04621 0.31715 0.29124 0.0
C3076 C 0.03443 0.30588 0.29629 0.0
C3077 C 0.02769 0.30761 0.30728 0.0
C3078 C 0.0536 0.31493 0.27998 0.0
C3079 C 0.05702 0.30483 0.28149 0.0
C3080 C 0.05726 0.32254 0.26791 0.0
C3081 C 0.05349 0.33297 0.26542 0.0
C3082 C 0.03989 0.32944 0.26585 0.0
C3083 C 0.03645 0.33936 0.26363 0.0
C3084 C 0.04651 0.35283 0.26086 0.0
C3085 C 0.06004 0.35639 0.26026 0.0
C3086 C 0.06353 0.34651 0.26248 0.0
C3087 C 0.07302 0.28917 0.23132 0.0
C3088 C 0.08533 0.29926 0.22581 0.0
C3089 C 0.06709 0.29253 0.24197 0.0
C3090 C 0.07337 0.30605 0.24739 0.0
C3091 C 0.08545 0.31625 0.24164 0.0
C3092 C 0.09135 0.31291 0.23089 0.0
C3093 C 0.06727 0.30945 0.25907 0.0
C3094 C 0.06416 0.31979 0.25767 0.0
C3095 C 0.06385 0.30203 0.27125 0.0
C3096 C 0.06744 0.29146 0.27367 0.0
C3097 C 0.08092 0.29468 0.27262 0.0
C3098 C 0.0842 0.28462 0.27473 0.0
C3099 C 0.0741 0.27132 0.27798 0.0
C3100 C 0.06071 0.26805 0.27917 0.0
C3101 C 0.05737 0.27808 0.27706 0.0
H3102 H 0.07666 0.26354 0.27959 0.0
H3103 H 0.04383 0.3605 0.25915 0.0
H3104 H 0.69648 0.71861 0.3192 0.0
H3105 H 0.70894 0.73912 0.30556 0.0
H3106 H 0.67567 0.72264 0.2767 0.0
H3107 H 0.66319 0.70212 0.29014 0.0
H3108 H 0.69982 0.73493 0.26381 0.0
H3109 H 0.67876 0.74537 0.30111 0.0
H3110 H 0.67399 0.74735 0.32535 0.0
H3111 H 0.71621 0.77596 0.33324 0.0
H3112 H 0.72124 0.77399 0.30907 0.0
H3113 H 0.71443 0.81617 0.25505 0.0
H3114 H 0.70322 0.79073 0.2694 0.0
H3115 H 0.73639 0.78018 0.24778 0.0
H3116 H 0.74832 0.80522 0.23261 0.0
H3117 H 0.71201 0.77978 0.28585 0.0
H3118 H 0.7245 0.74881 0.24817 0.0
H3119 H 0.72635 0.74571 0.22337 0.0
H3120 H 0.69685 0.75704 0.21547 0.0
H3121 H 0.69482 0.76014 0.24023 0.0
C3122 C 0.69187 0.71927 0.30987 0.0
C3123 C 0.67877 0.70876 0.30585 0.0
C3124 C 0.699 0.73102 0.30211 0.0
C3125 C 0.69317 0.73245 0.2902 0.0
C3126 C 0.68035 0.72174 0.28586 0.0
C3127 C 0.67321 0.71004 0.29362 0.0
C3128 C 0.70001 0.74538 0.28258 0.0
C3129 C 0.70261 0.74477 0.26866 0.0
C3130 C 0.70341 0.75817 0.28882 0.0
C3131 C 0.70039 0.75941 0.30333 0.0
C3132 C 0.68703 0.752 0.30804 0.0
C3133 C 0.68428 0.75313 0.32176 0.0
C3134 C 0.69479 0.76174 0.33084 0.0
C3135 C 0.70808 0.76927 0.3262 0.0
C3136 C 0.71088 0.76815 0.3125 0.0
C3137 C 0.7188 0.80975 0.25409 0.0
C3138 C 0.73095 0.81209 0.24038 0.0
C3139 C 0.7115 0.7936 0.26246 0.0
C3140 C 0.71788 0.78221 0.25942 0.0
C3141 C 0.73236 0.78688 0.24874 0.0
C3142 C 0.74038 0.80283 0.23988 0.0
C3143 C 0.71182 0.76936 0.26705 0.0
C3144 C 0.70938 0.77 0.28101 0.0
C3145 C 0.70837 0.75657 0.26081 0.0
C3146 C 0.70971 0.75495 0.24597 0.0
C3147 C 0.71845 0.75067 0.24111 0.0
C3148 C 0.71953 0.74891 0.22708 0.0
C3149 C 0.71178 0.75125 0.21784 0.0
C3150 C 0.7029 0.75529 0.22262 0.0
C3151 C 0.7018 0.75708 0.23665 0.0
H3152 H 0.71262 0.74988 0.20698 0.0
H3153 H 0.69265 0.76261 0.34145 0.0
H3154 H 0.29415 0.9601 0.3234 0.0
H3155 H 0.27834 0.94935 0.3041 0.0
H3156 H 0.26355 0.97691 0.31139 0.0
H3157 H 0.27898 0.98741 0.33086 0.0
H3158 H 0.24321 0.95193 0.30732 0.0
H3159 H 0.28549 0.98071 0.28465 0.0
H3160 H 0.30937 0.98924 0.27921 0.0
H3161 H 0.29881 0.94889 0.26456 0.0
H3162 H 0.27488 0.94008 0.27008 0.0
H3163 H 0.20813 0.94439 0.24599 0.0
H3164 H 0.22469 0.95339 0.26476 0.0
H3165 H 0.23512 0.92272 0.25515 0.0
H3166 H 0.21874 0.91388 0.23612 0.0
H3167 H 0.25738 0.94741 0.26057 0.0
H3168 H 0.21489 0.91897 0.28224 0.0
H3169 H 0.19102 0.9106 0.28754 0.0
H3170 H 0.20207 0.95051 0.30407 0.0
H3171 H 0.22598 0.95917 0.29869 0.0
C3172 C 0.28757 0.96391 0.32086 0.0
C3173 C 0.28782 0.9746 0.32871 0.0
C3174 C 0.27857 0.95778 0.30978 0.0
C3175 C 0.26983 0.9624 0.30621 0.0
C3176 C 0.27016 0.97314 0.31397 0.0
C3177 C 0.27901 0.97915 0.32511 0.0
C3178 C 0.26006 0.9559 0.29462 0.0
C3179 C 0.24635 0.95109 0.29707 0.0
C3180 C 0.26406 0.9544 0.28132 0.0
C3181 C 0.27842 0.95971 0.27791 0.0
C3182 C 0.28828 0.97364 0.28036 0.0
C3183 C 0.30181 0.97852 0.27724 0.0
C3184 C 0.30561 0.9696 0.27158 0.0
C3185 C 0.29586 0.95578 0.26897 0.0
C3186 C 0.28231 0.95084 0.27208 0.0
C3187 C 0.21388 0.9395 0.24797 0.0
C3188 C 0.21186 0.92818 0.23987 0.0
C3189 C 0.22333 0.94464 0.25868 0.0
C3190 C 0.23094 0.93853 0.26154 0.0
C3191 C 0.22926 0.92749 0.25321 0.0
C3192 C 0.21984 0.92239 0.24243 0.0
C3193 C 0.24062 0.94373 0.27325 0.0
C3194 C 0.25426 0.94821 0.27084 0.0
C3195 C 0.23658 0.94497 0.2866 0.0
C3196 C 0.22222 0.93974 0.28997 0.0
C3197 C 0.21222 0.92599 0.28692 0.0
C3198 C 0.19868 0.92119 0.28995 0.0
C3199 C 0.19503 0.93002 0.29611 0.0
C3200 C 0.20491 0.94367 0.29929 0.0
C3201 C 0.21846 0.94853 0.29627 0.0
H3202 H 0.18454 0.92629 0.29845 0.0
H3203 H 0.31609 0.9734 0.26918 0.0
H3204 H 0.66707 0.96671 0.30929 0.0
H3205 H 0.67257 0.95686 0.28954 0.0
H3206 H 0.70797 0.96287 0.31088 0.0
H3207 H 0.70276 0.97296 0.33041 0.0
H3208 H 0.71436 0.97218 0.28627 0.0
H3209 H 0.6789 0.93051 0.30554 0.0
H3210 H 0.65599 0.91487 0.31414 0.0
H3211 H 0.63887 0.91406 0.27503 0.0
H3212 H 0.66167 0.92985 0.26624 0.0
H3213 H 0.73403 0.93667 0.24172 0.0
H3214 H 0.725 0.94191 0.26205 0.0
H3215 H 0.69136 0.93708 0.23821 0.0
H3216 H 0.70018 0.93142 0.21788 0.0
H3217 H 0.68337 0.92692 0.26354 0.0
H3218 H 0.71876 0.96855 0.24438 0.0
H3219 H 0.74166 0.98405 0.23568 0.0
H3220 H 0.75885 0.98499 0.27479 0.0
H3221 H 0.73606 0.96932 0.28366 0.0
C3222 C 0.67595 0.96581 0.30981 0.0
C3223 C 0.68452 0.97071 0.3214 0.0
C3224 C 0.67906 0.96013 0.29853 0.0
C3225 C 0.69066 0.95906 0.29875 0.0
C3226 C 0.69901 0.96365 0.31044 0.0
C3227 C 0.696 0.96942 0.32161 0.0
C3228 C 0.69459 0.95385 0.28661 0.0
C3229 C 0.70763 0.96219 0.28144 0.0
C3230 C 0.68569 0.941 0.28003 0.0
C3231 C 0.67198 0.93147 0.28528 0.0
C3232 C 0.67024 0.92708 0.29881 0.0
C3233 C 0.65728 0.91818 0.30371 0.0
C3234 C 0.64598 0.91351 0.29515 0.0
C3235 C 0.64763 0.9177 0.28165 0.0
C3236 C 0.66057 0.92662 0.2767 0.0
C3237 C 0.72454 0.93638 0.24089 0.0
C3238 C 0.7177 0.93346 0.22825 0.0
C3239 C 0.71944 0.93948 0.25248 0.0
C3240 C 0.7076 0.94006 0.2516 0.0
C3241 C 0.70049 0.93666 0.23913 0.0
C3242 C 0.70553 0.93345 0.22754 0.0
C3243 C 0.70319 0.94515 0.26343 0.0
C3244 C 0.69008 0.93687 0.26845 0.0
C3245 C 0.71201 0.95808 0.26991 0.0
C3246 C 0.72571 0.96767 0.26465 0.0
C3247 C 0.72743 0.972 0.2511 0.0
C3248 C 0.74039 0.98082 0.24614 0.0
C3249 C 0.7517 0.98548 0.25467 0.0
C3250 C 0.75008 0.98136 0.26819 0.0
C3251 C 0.73714 0.97252 0.27319 0.0
H3252 H 0.76173 0.99231 0.25081 0.0
H3253 H 0.63595 0.90662 0.29896 0.0
H3254 H 0.02179 0.71778 0.31264 0.0
H3255 H 0.02703 0.73568 0.29624 0.0
H3256 H 0.05665 0.72827 0.27757 0.0
H3257 H 0.05163 0.71055 0.29389 0.0
H3258 H 0.06671 0.75527 0.28186 0.0
H3259 H 0.02607 0.71674 0.26243 0.0
H3260 H 0.00222 0.69789 0.26227 0.0
H3261 H 0.98961 0.7269 0.2705 0.0
H3262 H 0.01342 0.74592 0.2709 0.0
H3263 H 0.07531 0.78332 0.21614 0.0
H3264 H 0.06959 0.76806 0.23538 0.0
H3265 H 0.046 0.78408 0.2529 0.0
H3266 H 0.05203 0.7997 0.23387 0.0
H3267 H 0.03239 0.75439 0.25079 0.0
H3268 H 0.07333 0.79316 0.26816 0.0
H3269 H 0.09725 0.81175 0.2676 0.0
H3270 H 0.10936 0.78197 0.26269 0.0
H3271 H 0.08548 0.76319 0.26298 0.0
C3272 C 0.02936 0.7199 0.305 0.0
C3273 C 0.03628 0.7127 0.30462 0.0
C3274 C 0.03233 0.73013 0.29562 0.0
C3275 C 0.04222 0.7333 0.28566 0.0
C3276 C 0.04904 0.72605 0.2852 0.0
C3277 C 0.04609 0.71585 0.29453 0.0
C3278 C 0.04568 0.74427 0.27577 0.0
C3279 C 0.05921 0.75501 0.275 0.0
C3280 C 0.03584 0.74414 0.26707 0.0
C3281 C 0.02153 0.73273 0.26687 0.0
C3282 C 0.01822 0.71908 0.26434 0.0
C3283 C 0.00471 0.70837 0.26418 0.0
C3284 C 0.99441 0.71119 0.26642 0.0
C3285 C 0.9976 0.72473 0.2688 0.0
C3286 C 0.0111 0.73548 0.26898 0.0
C3287 C 0.06897 0.78365 0.22413 0.0
C3288 C 0.06391 0.79252 0.22336 0.0
C3289 C 0.06573 0.77495 0.23511 0.0
C3290 C 0.05732 0.77492 0.2455 0.0
C3291 C 0.05243 0.78391 0.24492 0.0
C3292 C 0.05585 0.79279 0.23404 0.0
C3293 C 0.05342 0.76519 0.25675 0.0
C3294 C 0.03983 0.75471 0.25777 0.0
C3295 C 0.0632 0.7655 0.26564 0.0
C3296 C 0.07759 0.77676 0.26546 0.0
C3297 C 0.08108 0.79057 0.26682 0.0
C3298 C 0.09463 0.80115 0.26658 0.0
C3299 C 0.10482 0.79805 0.26507 0.0
C3300 C 0.10146 0.78436 0.26383 0.0
C3301 C 0.08792 0.77374 0.26405 0.0
H3302 H 0.11531 0.80625 0.2649 0.0
H3303 H 0.98395 0.70288 0.26629 0.0
H3304 H 0.28007 0.31462 0.32133 0.0
H3305 H 0.26131 0.30327 0.30473 0.0
H3306 H 0.28858 0.32627 0.27247 0.0
H3307 H 0.30705 0.33808 0.28911 0.0
H3308 H 0.26742 0.32757 0.26991 0.0
H3309 H 0.27463 0.28988 0.27792 0.0
H3310 H 0.27639 0.27325 0.29208 0.0
H3311 H 0.23573 0.25734 0.30574 0.0
H3312 H 0.23378 0.27399 0.29178 0.0
H3313 H 0.23025 0.29187 0.21056 0.0
H3314 H 0.24648 0.30164 0.22958 0.0
H3315 H 0.21431 0.27893 0.25792 0.0
H3316 H 0.19807 0.26881 0.2388 0.0
H3317 H 0.23592 0.27728 0.26412 0.0
H3318 H 0.22834 0.31392 0.25457 0.0
H3319 H 0.2266 0.33031 0.24002 0.0
H3320 H 0.26827 0.34816 0.22901 0.0
H3321 H 0.27021 0.33175 0.24335 0.0
C3322 C 0.28204 0.31709 0.31066 0.0
C3323 C 0.29498 0.32725 0.30649 0.0
C3324 C 0.27133 0.31058 0.30116 0.0
C3325 C 0.2735 0.31383 0.28727 0.0
C3326 C 0.28658 0.32363 0.2831 0.0
C3327 C 0.29716 0.33035 0.29261 0.0
C3328 C 0.26217 0.30767 0.27707 0.0
C3329 C 0.26066 0.31655 0.26856 0.0
C3330 C 0.25295 0.29332 0.27559 0.0
C3331 C 0.25411 0.28327 0.28391 0.0
C3332 C 0.2661 0.28289 0.28401 0.0
C3333 C 0.26712 0.27345 0.29199 0.0
C3334 C 0.25619 0.26427 0.29983 0.0
C3335 C 0.24419 0.26447 0.29968 0.0
C3336 C 0.24312 0.2739 0.29173 0.0
C3337 C 0.22662 0.28914 0.22087 0.0
C3338 C 0.21284 0.27989 0.22322 0.0
C3339 C 0.23589 0.29471 0.23174 0.0
C3340 C 0.23158 0.29123 0.24522 0.0
C3341 C 0.21785 0.28186 0.24761 0.0
C3342 C 0.20856 0.27619 0.23671 0.0
C3343 C 0.24153 0.29719 0.25673 0.0
C3344 C 0.24269 0.28829 0.26553 0.0
C3345 C 0.25049 0.31154 0.25847 0.0
C3346 C 0.24939 0.32154 0.24997 0.0
C3347 C 0.23711 0.32129 0.24899 0.0
C3348 C 0.23609 0.33059 0.24078 0.0
C3349 C 0.24731 0.34026 0.23358 0.0
C3350 C 0.25958 0.34067 0.2346 0.0
C3351 C 0.26066 0.33138 0.24278 0.0
H3352 H 0.2465 0.34744 0.22722 0.0
H3353 H 0.25701 0.25698 0.30601 0.0
H3354 H 0.30435 0.33866 0.37968 0.0
H3355 H 0.29522 0.34392 0.39996 0.0
H3356 H 0.29914 0.37938 0.38055 0.0
H3357 H 0.30851 0.37441 0.36043 0.0
H3358 H 0.30859 0.3859 0.40577 0.0
H3359 H 0.26806 0.34911 0.38404 0.0
H3360 H 0.25341 0.32582 0.37395 0.0
H3361 H 0.25396 0.3082 0.41196 0.0
H3362 H 0.26877 0.33139 0.42222 0.0
H3363 H 0.27125 0.40234 0.45101 0.0
H3364 H 0.27814 0.39485 0.43053 0.0
H3365 H 0.27378 0.36007 0.45178 0.0
H3366 H 0.26645 0.36732 0.47219 0.0
H3367 H 0.2646 0.35264 0.42613 0.0
H3368 H 0.3048 0.38918 0.44796 0.0
H3369 H 0.31954 0.41237 0.45821 0.0
H3370 H 0.31988 0.43034 0.42014 0.0
H3371 H 0.30497 0.40725 0.4097 0.0
C3372 C 0.3032 0.34754 0.37969 0.0
C3373 C 0.30719 0.35611 0.3684 0.0
C3374 C 0.29793 0.3505 0.39129 0.0
C3375 C 0.29638 0.36199 0.39174 0.0
C3376 C 0.30027 0.37048 0.38045 0.0
C3377 C 0.30561 0.3676 0.36893 0.0
C3378 C 0.29108 0.36547 0.40407 0.0
C3379 C 0.29888 0.37868 0.4101 0.0
C3380 C 0.2786 0.35592 0.40999 0.0
C3381 C 0.26963 0.34198 0.40385 0.0
C3382 C 0.26514 0.34026 0.39021 0.0
C3383 C 0.25679 0.32708 0.38447 0.0
C3384 C 0.25279 0.31554 0.3923 0.0
C3385 C 0.25709 0.31715 0.4059 0.0
C3386 C 0.26545 0.33031 0.41169 0.0
C3387 C 0.2715 0.39295 0.45122 0.0
C3388 C 0.26808 0.38527 0.46313 0.0
C3389 C 0.27556 0.38874 0.43956 0.0
C3390 C 0.27664 0.37698 0.43967 0.0
C3391 C 0.27299 0.36915 0.45145 0.0
C3392 C 0.26881 0.37329 0.46308 0.0
C3393 C 0.28203 0.37313 0.42767 0.0
C3394 C 0.27429 0.35985 0.42176 0.0
C3395 C 0.2946 0.3826 0.42187 0.0
C3396 C 0.30367 0.39649 0.42809 0.0
C3397 C 0.30795 0.39808 0.4418 0.0
C3398 C 0.31634 0.41121 0.44764 0.0
C3399 C 0.32062 0.42282 0.43984 0.0
C3400 C 0.31655 0.42133 0.42617 0.0
C3401 C 0.30813 0.40823 0.42028 0.0
H3402 H 0.32712 0.43298 0.44438 0.0
H3403 H 0.24633 0.30534 0.38783 0.0
H3404 H 0.67301 0.97516 0.40051 0.0
H3405 H 0.6624 0.95669 0.41681 0.0
H3406 H 0.63895 0.92795 0.38401 0.0
H3407 H 0.64888 0.94659 0.3679 0.0
H3408 H 0.62375 0.92218 0.40421 0.0
H3409 H 0.66908 0.93102 0.39972 0.0
H3410 H 0.694 0.94524 0.40011 0.0
H3411 H 0.69356 0.95584 0.44245 0.0
H3412 H 0.66863 0.9418 0.44227 0.0
H3413 H 0.60295 0.86216 0.4416 0.0
H3414 H 0.61461 0.88009 0.42488 0.0
H3415 H 0.63458 0.91027 0.45761 0.0
H3416 H 0.62325 0.89229 0.47433 0.0
H3417 H 0.6517 0.91479 0.43724 0.0
H3418 H 0.60594 0.90564 0.4411 0.0
H3419 H 0.58108 0.89081 0.4403 0.0
H3420 H 0.58259 0.88 0.39826 0.0
H3421 H 0.60748 0.89462 0.39886 0.0
C3422 C 0.66555 0.9649 0.39683 0.0
C3423 C 0.66178 0.96228 0.38296 0.0
C3424 C 0.65957 0.9543 0.40612 0.0
C3425 C 0.65009 0.94078 0.40163 0.0
C3426 C 0.64624 0.93824 0.38777 0.0
C3427 C 0.65193 0.9489 0.37855 0.0
C3428 C 0.64404 0.9293 0.41135 0.0
C3429 C 0.62993 0.92047 0.41127 0.0
C3430 C 0.65199 0.92713 0.42079 0.0
C3431 C 0.66699 0.93545 0.42095 0.0
C3432 C 0.6743 0.93644 0.40909 0.0
C3433 C 0.68842 0.94446 0.40928 0.0
C3434 C 0.69536 0.95146 0.42128 0.0
C3435 C 0.68818 0.95042 0.43315 0.0
C3436 C 0.67406 0.94242 0.43302 0.0
C3437 C 0.61005 0.87257 0.4452 0.0
C3438 C 0.61238 0.8758 0.45927 0.0
C3439 C 0.6166 0.88283 0.43565 0.0
C3440 C 0.62535 0.89657 0.43999 0.0
C3441 C 0.62791 0.89975 0.45401 0.0
C3442 C 0.62145 0.88948 0.46355 0.0
C3443 C 0.63149 0.90773 0.43001 0.0
C3444 C 0.6456 0.9165 0.43009 0.0
C3445 C 0.62355 0.90976 0.42046 0.0
C3446 C 0.60858 0.90113 0.42006 0.0
C3447 C 0.60098 0.90004 0.43171 0.0
C3448 C 0.58688 0.89168 0.43129 0.0
C3449 C 0.58026 0.88444 0.41925 0.0
C3450 C 0.58773 0.8856 0.40758 0.0
C3451 C 0.60183 0.89393 0.40795 0.0
H3452 H 0.56935 0.87797 0.41894 0.0
H3453 H 0.70629 0.95768 0.4214 0.0
H3454 H 0.06939 0.7198 0.35807 0.0
H3455 H 0.0826 0.72927 0.37917 0.0
H3456 H 0.04585 0.71072 0.40241 0.0
H3457 H 0.03249 0.70154 0.38114 0.0
H3458 H 0.06635 0.73579 0.41429 0.0
H3459 H 0.06101 0.69302 0.3969 0.0
H3460 H 0.062 0.67781 0.37908 0.0
H3461 H 0.10472 0.70578 0.37524 0.0
H3462 H 0.10393 0.72125 0.39291 0.0
H3463 H 0.09422 0.7274 0.47575 0.0
H3464 H 0.0811 0.72568 0.45545 0.0
H3465 H 0.1162 0.73786 0.43055 0.0
H3466 H 0.12906 0.73877 0.45065 0.0
H3467 H 0.09614 0.71664 0.41959 0.0
H3468 H 0.10197 0.75905 0.43796 0.0
H3469 H 0.10099 0.77435 0.45568 0.0
H3470 H 0.05792 0.74765 0.45786 0.0
H3471 H 0.05866 0.73208 0.44029 0.0
C3472 C 0.06411 0.71805 0.36765 0.0
C3473 C 0.04995 0.70978 0.36803 0.0
C3474 C 0.07166 0.72346 0.37969 0.0
C3475 C 0.06522 0.7204 0.39236 0.0
C3476 C 0.05102 0.71314 0.39273 0.0
C3477 C 0.0434 0.7079 0.3806 0.0
C3478 C 0.07333 0.72319 0.40504 0.0
C3479 C 0.0728 0.73155 0.41555 0.0
C3480 C 0.08186 0.71778 0.40657 0.0
C3481 C 0.08239 0.70834 0.39615 0.0
C3482 C 0.0706 0.69595 0.39221 0.0
C3483 C 0.07112 0.68728 0.38213 0.0
C3484 C 0.08341 0.69084 0.37601 0.0
C3485 C 0.0952 0.70304 0.37998 0.0
C3486 C 0.09473 0.71176 0.39004 0.0
C3487 C 0.09916 0.72991 0.46595 0.0
C3488 C 0.11269 0.73334 0.46485 0.0
C3489 C 0.09169 0.72902 0.45436 0.0
C3490 C 0.09769 0.73183 0.44145 0.0
C3491 C 0.11134 0.73567 0.44039 0.0
C3492 C 0.11872 0.73628 0.45193 0.0
C3493 C 0.08948 0.72954 0.42889 0.0
C3494 C 0.08985 0.72108 0.41839 0.0
C3495 C 0.08087 0.73491 0.42742 0.0
C3496 C 0.08039 0.74434 0.43788 0.0
C3497 C 0.0923 0.75639 0.44228 0.0
C3498 C 0.09179 0.76512 0.45229 0.0
C3499 C 0.0794 0.76196 0.45791 0.0
C3500 C 0.0675 0.75008 0.4535 0.0
C3501 C 0.06796 0.74131 0.44351 0.0
H3502 H 0.07903 0.76873 0.46567 0.0
H3503 H 0.08379 0.68412 0.3682 0.0
H3504 H 0.29549 0.01352 0.69487 0.0
H3505 H 0.28963 0.02361 0.71392 0.0
H3506 H 0.33171 0.05475 0.71986 0.0
H3507 H 0.33775 0.04442 0.70095 0.0
H3508 H 0.31973 0.04601 0.74382 0.0
H3509 H 0.3096 0.0616 0.70308 0.0
H3510 H 0.29937 0.05907 0.68031 0.0
H3511 H 0.25972 0.03418 0.69686 0.0
H3512 H 0.26972 0.03641 0.7197 0.0
H3513 H 0.30576 0.08946 0.7856 0.0
H3514 H 0.31351 0.08012 0.76737 0.0
H3515 H 0.27227 0.0478 0.75899 0.0
H3516 H 0.26444 0.0574 0.77692 0.0
H3517 H 0.2849 0.05835 0.73598 0.0
H3518 H 0.29515 0.04238 0.77666 0.0
H3519 H 0.30545 0.04503 0.79942 0.0
H3520 H 0.34497 0.07092 0.78297 0.0
H3521 H 0.33489 0.06856 0.76015 0.0
C3522 C 0.30353 0.02251 0.70022 0.0
C3523 C 0.31708 0.02827 0.69629 0.0
C3524 C 0.30015 0.02829 0.7111 0.0
C3525 C 0.31019 0.04013 0.71811 0.0
C3526 C 0.32379 0.04567 0.71452 0.0
C3527 C 0.32722 0.03976 0.70371 0.0
C3528 C 0.30639 0.04678 0.72902 0.0
C3529 C 0.31226 0.04891 0.74206 0.0
C3530 C 0.29647 0.05034 0.72679 0.0
C3531 C 0.29042 0.04909 0.71308 0.0
C3532 C 0.2987 0.05552 0.70185 0.0
C3533 C 0.29294 0.05414 0.68893 0.0
C3534 C 0.2789 0.04645 0.68714 0.0
C3535 C 0.27059 0.04013 0.69827 0.0
C3536 C 0.2763 0.04146 0.7112 0.0
C3537 C 0.29834 0.08045 0.77976 0.0
C3538 C 0.28445 0.07434 0.78243 0.0
C3539 C 0.30279 0.07503 0.76945 0.0
C3540 C 0.29348 0.0632 0.76187 0.0
C3541 C 0.27963 0.05698 0.76466 0.0
C3542 C 0.27517 0.06246 0.77488 0.0
C3543 C 0.29809 0.05741 0.75084 0.0
C3544 C 0.29239 0.05549 0.73774 0.0
C3545 C 0.30817 0.05408 0.75303 0.0
C3546 C 0.31425 0.0554 0.76673 0.0
C3547 C 0.30603 0.04871 0.77792 0.0
C3548 C 0.31183 0.05015 0.79083 0.0
C3549 C 0.32585 0.05816 0.79265 0.0
C3550 C 0.33411 0.06472 0.78155 0.0
C3551 C 0.32836 0.06333 0.76863 0.0
H3552 H 0.33033 0.05927 0.80265 0.0
H3553 H 0.27446 0.04539 0.67713 0.0
H3554 H 0.98498 0.29382 0.70581 0.0
H3555 H 0.97828 0.27612 0.72287 0.0
H3556 H 0.94213 0.27737 0.73087 0.0
H3557 H 0.9489 0.29519 0.71428 0.0
H3558 H 0.95321 0.27699 0.75391 0.0
H3559 H 0.94266 0.25133 0.71047 0.0
H3560 H 0.94838 0.24579 0.68784 0.0
H3561 H 0.97726 0.23794 0.7065 0.0
H3562 H 0.97181 0.24359 0.72922 0.0
H3563 H 0.90918 0.21591 0.78628 0.0
H3564 H 0.92021 0.23424 0.77001 0.0
H3565 H 0.95324 0.22686 0.76673 0.0
H3566 H 0.94186 0.20797 0.78259 0.0
H3567 H 0.94705 0.23129 0.74244 0.0
H3568 H 0.95595 0.25446 0.78602 0.0
H3569 H 0.95038 0.25991 0.80874 0.0
H3570 H 0.92522 0.27277 0.79017 0.0
H3571 H 0.93049 0.26722 0.76734 0.0
C3572 C 0.97561 0.2903 0.71122 0.0
C3573 C 0.96749 0.29594 0.70868 0.0
C3574 C 0.97176 0.28016 0.72093 0.0
C3575 C 0.95963 0.27531 0.72808 0.0
C3576 C 0.95157 0.28096 0.72554 0.0
C3577 C 0.95545 0.29116 0.716 0.0
C3578 C 0.95516 0.26442 0.73829 0.0
C3579 C 0.95177 0.26696 0.75136 0.0
C3580 C 0.95375 0.2515 0.73516 0.0
C3581 C 0.95693 0.24802 0.72151 0.0
C3582 C 0.95029 0.24851 0.70973 0.0
C3583 C 0.95347 0.24533 0.69689 0.0
C3584 C 0.9632 0.24155 0.69573 0.0
C3585 C 0.96974 0.24089 0.70741 0.0
C3586 C 0.9666 0.24407 0.72027 0.0
C3587 C 0.91868 0.21802 0.78193 0.0
C3588 C 0.92452 0.21028 0.78548 0.0
C3589 C 0.92507 0.22863 0.77276 0.0
C3590 C 0.93767 0.23208 0.76729 0.0
C3591 C 0.94352 0.22438 0.7708 0.0
C3592 C 0.93703 0.21361 0.77984 0.0
C3593 C 0.94465 0.24372 0.7579 0.0
C3594 C 0.9486 0.24135 0.74504 0.0
C3595 C 0.94663 0.25685 0.76123 0.0
C3596 C 0.94356 0.26034 0.77496 0.0
C3597 C 0.94917 0.25838 0.78678 0.0
C3598 C 0.94607 0.2615 0.79968 0.0
C3599 C 0.93744 0.26666 0.8009 0.0
C3600 C 0.93191 0.26876 0.78922 0.0
C3601 C 0.93497 0.26565 0.77629 0.0
H3602 H 0.93504 0.26906 0.8109 0.0
H3603 H 0.96566 0.23911 0.68578 0.0
H3604 H 0.70875 0.69314 0.70223 0.0
H3605 H 0.72778 0.70488 0.7184 0.0
H3606 H 0.72104 0.66571 0.73076 0.0
H3607 H 0.7019 0.65392 0.71493 0.0
H3608 H 0.72525 0.68181 0.75237 0.0
H3609 H 0.74701 0.68706 0.70871 0.0
H3610 H 0.75204 0.69436 0.68488 0.0
H3611 H 0.7668 0.73617 0.69798 0.0
H3612 H 0.7617 0.72909 0.72188 0.0
H3613 H 0.78544 0.69961 0.78686 0.0
H3614 H 0.76695 0.69061 0.77019 0.0
H3615 H 0.77815 0.73196 0.76053 0.0
H3616 H 0.79713 0.74105 0.77686 0.0
H3617 H 0.77147 0.7166 0.7379 0.0
H3618 H 0.75112 0.71188 0.78154 0.0
H3619 H 0.74622 0.7049 0.80546 0.0
H3620 H 0.72861 0.66256 0.7926 0.0
H3621 H 0.73357 0.66931 0.76861 0.0
C3622 C 0.71132 0.68702 0.70838 0.0
C3623 C 0.70377 0.67257 0.70725 0.0
C3624 C 0.72225 0.69376 0.71759 0.0
C3625 C 0.72595 0.68618 0.72571 0.0
C3626 C 0.71838 0.67178 0.72463 0.0
C3627 C 0.70743 0.66505 0.71553 0.0
C3628 C 0.73758 0.69312 0.73547 0.0
C3629 C 0.73538 0.68932 0.74916 0.0
C3630 C 0.75072 0.70327 0.73142 0.0
C3631 C 0.75385 0.70752 0.71706 0.0
C3632 C 0.75124 0.69779 0.7065 0.0
C3633 C 0.75412 0.70189 0.69298 0.0
C3634 C 0.7597 0.71571 0.68991 0.0
C3635 C 0.76246 0.72547 0.70037 0.0
C3636 C 0.75959 0.72142 0.7139 0.0
C3637 C 0.78414 0.70681 0.78102 0.0
C3638 C 0.79294 0.72107 0.78297 0.0
C3639 C 0.77344 0.70164 0.7716 0.0
C3640 C 0.77101 0.7106 0.76423 0.0
C3641 C 0.77982 0.72484 0.76607 0.0
C3642 C 0.79065 0.73003 0.77539 0.0
C3643 C 0.75919 0.70505 0.75473 0.0
C3644 C 0.76133 0.70915 0.74112 0.0
C3645 C 0.74595 0.69522 0.75886 0.0
C3646 C 0.74281 0.69111 0.77328 0.0
C3647 C 0.74627 0.70109 0.78382 0.0
C3648 C 0.74347 0.69717 0.79739 0.0
C3649 C 0.73713 0.6833 0.80055 0.0
C3650 C 0.73353 0.67331 0.79014 0.0
C3651 C 0.73632 0.67717 0.77655 0.0
H3652 H 0.73498 0.68029 0.81107 0.0
H3653 H 0.76191 0.71887 0.67944 0.0
H3654 H 0.67547 0.62788 0.6422 0.0
H3655 H 0.68708 0.62457 0.62302 0.0
H3656 H 0.71651 0.66805 0.62383 0.0
H3657 H 0.70462 0.67152 0.6429 0.0
H3658 H 0.71053 0.65796 0.59797 0.0
H3659 H 0.7235 0.64547 0.63894 0.0
H3660 H 0.7197 0.63351 0.66059 0.0
H3661 H 0.6981 0.59449 0.639 0.0
H3662 H 0.70162 0.60622 0.61724 0.0
H3663 H 0.75706 0.64797 0.55805 0.0
H3664 H 0.74673 0.65449 0.57634 0.0
H3665 H 0.71497 0.61204 0.57944 0.0
H3666 H 0.72547 0.60547 0.56144 0.0
H3667 H 0.724 0.62341 0.60404 0.0
H3668 H 0.71034 0.63612 0.56313 0.0
H3669 H 0.71424 0.64823 0.54157 0.0
H3670 H 0.73757 0.68708 0.56313 0.0
H3671 H 0.73396 0.67518 0.58481 0.0
C3672 C 0.68435 0.63678 0.63825 0.0
C3673 C 0.68924 0.64994 0.64419 0.0
C3674 C 0.69101 0.63486 0.6273 0.0
C3675 C 0.70288 0.646 0.62223 0.0
C3676 C 0.70742 0.65928 0.62766 0.0
C3677 C 0.70063 0.66125 0.63854 0.0
C3678 C 0.71075 0.64358 0.61166 0.0
C3679 C 0.71366 0.65056 0.59937 0.0
C3680 C 0.71472 0.63382 0.61342 0.0
C3681 C 0.71274 0.62673 0.62647 0.0
C3682 C 0.71788 0.63434 0.63882 0.0
C3683 C 0.71578 0.6276 0.65111 0.0
C3684 C 0.70864 0.61325 0.65117 0.0
C3685 C 0.70363 0.60561 0.63894 0.0
C3686 C 0.70568 0.6123 0.62662 0.0
C3687 C 0.74797 0.64003 0.56277 0.0
C3688 C 0.74224 0.62615 0.55856 0.0
C3689 C 0.742 0.64377 0.57311 0.0
C3690 C 0.73003 0.63376 0.57923 0.0
C3691 C 0.72425 0.61994 0.57494 0.0
C3692 C 0.73025 0.61619 0.56468 0.0
C3693 C 0.72352 0.63755 0.59021 0.0
C3694 C 0.72093 0.63086 0.60265 0.0
C3695 C 0.71991 0.6476 0.58857 0.0
C3696 C 0.722 0.65476 0.57556 0.0
C3697 C 0.71638 0.64724 0.56326 0.0
C3698 C 0.71853 0.65407 0.55102 0.0
C3699 C 0.72618 0.66842 0.55097 0.0
C3700 C 0.73167 0.67597 0.56318 0.0
C3701 C 0.72956 0.66919 0.57544 0.0
H3702 H 0.72783 0.67368 0.54149 0.0
H3703 H 0.70702 0.60805 0.6607 0.0
H3704 H 0.32703 0.03278 0.61959 0.0
H3705 H 0.33796 0.05199 0.60414 0.0
H3706 H 0.37181 0.07341 0.63212 0.0
H3707 H 0.36111 0.0542 0.64759 0.0
H3708 H 0.3467 0.08095 0.61286 0.0
H3709 H 0.39226 0.08075 0.61758 0.0
H3710 H 0.40211 0.06592 0.61732 0.0
H3711 H 0.37819 0.04395 0.58174 0.0
H3712 H 0.36807 0.05854 0.58198 0.0
H3713 H 0.38875 0.1511 0.58111 0.0
H3714 H 0.37693 0.12738 0.59812 0.0
H3715 H 0.3857 0.10011 0.56279 0.0
H3716 H 0.39794 0.12324 0.54498 0.0
H3717 H 0.38754 0.09318 0.58571 0.0
H3718 H 0.34825 0.09638 0.57555 0.0
H3719 H 0.33517 0.1079 0.57342 0.0
H3720 H 0.34227 0.12001 0.61593 0.0
H3721 H 0.35547 0.10863 0.61825 0.0
C3722 C 0.33685 0.04152 0.62244 0.0
C3723 C 0.34318 0.04194 0.63486 0.0
C3724 C 0.34308 0.05246 0.61358 0.0
C3725 C 0.35573 0.064 0.61694 0.0
C3726 C 0.36216 0.06445 0.62923 0.0
C3727 C 0.35598 0.05348 0.63808 0.0
C3728 C 0.36183 0.07591 0.60795 0.0
C3729 C 0.35572 0.08377 0.60701 0.0
C3730 C 0.37327 0.07925 0.60002 0.0
C3731 C 0.37938 0.0706 0.59987 0.0
C3732 C 0.38908 0.0727 0.60976 0.0
C3733 C 0.3947 0.06435 0.60962 0.0
C3734 C 0.39076 0.05398 0.59953 0.0
C3735 C 0.3812 0.05195 0.58957 0.0
C3736 C 0.3755 0.06023 0.58973 0.0
C3737 C 0.38854 0.14179 0.57795 0.0
C3738 C 0.39233 0.13878 0.56015 0.0
C3739 C 0.38052 0.1267 0.58811 0.0
C3740 C 0.379 0.11077 0.58194 0.0
C3741 C 0.38635 0.10963 0.56596 0.0
C3742 C 0.39461 0.12419 0.55506 0.0
C3743 C 0.37258 0.09861 0.59068 0.0
C3744 C 0.37857 0.09057 0.59154 0.0
C3745 C 0.36083 0.09496 0.59835 0.0
C3746 C 0.35306 0.10193 0.59698 0.0
C3747 C 0.34709 0.1016 0.5844 0.0
C3748 C 0.33964 0.10807 0.58317 0.0
C3749 C 0.33795 0.11475 0.59451 0.0
C3750 C 0.34364 0.11489 0.60713 0.0
C3751 C 0.35109 0.10842 0.60841 0.0
H3752 H 0.33219 0.11977 0.59354 0.0
H3753 H 0.39513 0.04754 0.59942 0.0
H3754 H 0.93846 0.29551 0.65432 0.0
H3755 H 0.92563 0.28374 0.63357 0.0
H3756 H 0.96273 0.29574 0.61234 0.0
H3757 H 0.97576 0.30746 0.63336 0.0
H3758 H 0.94467 0.30216 0.59895 0.0
H3759 H 0.94399 0.26368 0.61671 0.0
H3760 H 0.94176 0.24731 0.63398 0.0
H3761 H 0.90011 0.23491 0.63958 0.0
H3762 H 0.90213 0.25137 0.6225 0.0
H3763 H 0.89887 0.26305 0.54289 0.0
H3764 H 0.91721 0.27034 0.55969 0.0
H3765 H 0.88982 0.26515 0.59215 0.0
H3766 H 0.87157 0.25829 0.57544 0.0
H3767 H 0.90667 0.25367 0.59685 0.0
H3768 H 0.90937 0.29563 0.58255 0.0
H3769 H 0.91172 0.31233 0.5656 0.0
H3770 H 0.95007 0.31811 0.55354 0.0
H3771 H 0.94784 0.30125 0.57029 0.0
C3772 C 0.94391 0.29554 0.64529 0.0
C3773 C 0.9581 0.30245 0.64542 0.0
C3774 C 0.93656 0.28873 0.63346 0.0
C3775 C 0.94324 0.28881 0.62146 0.0
C3776 C 0.95742 0.29552 0.62155 0.0
C3777 C 0.96482 0.30216 0.63353 0.0
C3778 C 0.93518 0.28267 0.60876 0.0
C3779 C 0.93661 0.29145 0.59827 0.0
C3780 C 0.92456 0.26876 0.60802 0.0
C3781 C 0.92324 0.25884 0.61836 0.0
C3782 C 0.93438 0.25756 0.6217 0.0
C3783 C 0.93315 0.24824 0.63145 0.0
C3784 C 0.92081 0.24009 0.63788 0.0
C3785 C 0.90967 0.24123 0.63458 0.0
C3786 C 0.91084 0.25054 0.62485 0.0
C3787 C 0.8968 0.26361 0.55359 0.0
C3788 C 0.88385 0.26045 0.55782 0.0
C3789 C 0.90725 0.26768 0.56316 0.0
C3790 C 0.90485 0.26834 0.57712 0.0
C3791 C 0.89185 0.2647 0.58141 0.0
C3792 C 0.88146 0.26086 0.57185 0.0
C3793 C 0.91593 0.27328 0.58733 0.0
C3794 C 0.91499 0.26426 0.59734 0.0
C3795 C 0.92703 0.28695 0.58761 0.0
C3796 C 0.92834 0.29703 0.57751 0.0
C3797 C 0.91823 0.30034 0.57617 0.0
C3798 C 0.91956 0.30986 0.56663 0.0
C3799 C 0.93101 0.31623 0.55846 0.0
C3800 C 0.94118 0.31313 0.55985 0.0
C3801 C 0.93989 0.30359 0.56936 0.0
H3802 H 0.93203 0.32362 0.55109 0.0
H3803 H 0.91987 0.23288 0.64542 0.0
H3804 H 0.37721 0.31833 0.65764 0.0
H3805 H 0.3804 0.30797 0.63699 0.0
H3806 H 0.34073 0.29692 0.62239 0.0
H3807 H 0.33731 0.30715 0.64321 0.0
H3808 H 0.34544 0.27597 0.61837 0.0
H3809 H 0.36853 0.32393 0.60921 0.0
H3810 H 0.38437 0.34867 0.61382 0.0
H3811 H 0.4176 0.34181 0.61513 0.0
H3812 H 0.40193 0.31699 0.61071 0.0
H3813 H 0.35692 0.26043 0.55024 0.0
H3814 H 0.35171 0.26991 0.57049 0.0
H3815 H 0.3912 0.28318 0.58745 0.0
H3816 H 0.39652 0.27394 0.5671 0.0
H3817 H 0.38562 0.30315 0.58962 0.0
H3818 H 0.36241 0.25507 0.59951 0.0
H3819 H 0.34655 0.23033 0.59491 0.0
H3820 H 0.31354 0.23742 0.59212 0.0
H3821 H 0.32923 0.26225 0.59653 0.0
C3822 C 0.36913 0.31373 0.65007 0.0
C3823 C 0.35701 0.31365 0.6521 0.0
C3824 C 0.371 0.30784 0.63823 0.0
C3825 C 0.36088 0.30184 0.62806 0.0
C3826 C 0.34869 0.30154 0.63009 0.0
C3827 C 0.34678 0.30742 0.64199 0.0
C3828 C 0.36311 0.29588 0.61536 0.0
C3829 C 0.3541 0.28196 0.61195 0.0
C3830 C 0.37456 0.30364 0.60714 0.0
C3831 C 0.38403 0.31858 0.60974 0.0
C3832 C 0.3792 0.32768 0.61058 0.0
C3833 C 0.38815 0.34172 0.61314 0.0
C3834 C 0.40198 0.34681 0.6148 0.0
C3835 C 0.40689 0.33786 0.61386 0.0
C3836 C 0.39798 0.3238 0.61131 0.0
C3837 C 0.3644 0.26521 0.55838 0.0
C3838 C 0.37701 0.2662 0.55723 0.0
C3839 C 0.36142 0.27061 0.56994 0.0
C3840 C 0.371 0.27709 0.58057 0.0
C3841 C 0.38363 0.27816 0.5794 0.0
C3842 C 0.38663 0.2728 0.56783 0.0
C3843 C 0.36805 0.28318 0.59272 0.0
C3844 C 0.37692 0.29716 0.596 0.0
C3845 C 0.35648 0.27547 0.6008 0.0
C3846 C 0.34702 0.26054 0.59821 0.0
C3847 C 0.35178 0.25137 0.59781 0.0
C3848 C 0.34282 0.23733 0.59526 0.0
C3849 C 0.32905 0.23231 0.59319 0.0
C3850 C 0.32421 0.24133 0.59371 0.0
C3851 C 0.33313 0.25538 0.59624 0.0
H3852 H 0.32213 0.22144 0.59121 0.0
H3853 H 0.40889 0.35768 0.61678 0.0
H3854 H 0.72305 0.04351 0.6246 0.0
H3855 H 0.72989 0.06142 0.6079 0.0
H3856 H 0.6953 0.06478 0.61793 0.0
H3857 H 0.68843 0.04693 0.63485 0.0
H3858 H 0.69936 0.06316 0.58936 0.0
H3859 H 0.72362 0.08909 0.62914 0.0
H3860 H 0.73832 0.09509 0.6495 0.0
H3861 H 0.77123 0.10099 0.62421 0.0
H3862 H 0.75664 0.09479 0.60369 0.0
H3863 H 0.72338 0.12494 0.55259 0.0
H3864 H 0.71597 0.10953 0.57183 0.0
H3865 H 0.74777 0.10106 0.56399 0.0
H3866 H 0.75497 0.11608 0.5444 0.0
H3867 H 0.74421 0.10628 0.59252 0.0
H3868 H 0.71913 0.07852 0.55302 0.0
H3869 H 0.70432 0.07261 0.53275 0.0
H3870 H 0.67277 0.07038 0.5579 0.0
H3871 H 0.68749 0.07653 0.57832 0.0
C3872 C 0.71687 0.04802 0.62326 0.0
C3873 C 0.70519 0.0438 0.63106 0.0
C3874 C 0.72083 0.0583 0.61376 0.0
C3875 C 0.71315 0.06447 0.61177 0.0
C3876 C 0.70138 0.06016 0.61936 0.0
C3877 C 0.6975 0.05 0.62904 0.0
C3878 C 0.71742 0.0753 0.6016 0.0
C3879 C 0.70905 0.0727 0.59017 0.0
C3880 C 0.73016 0.08764 0.60258 0.0
C3881 C 0.73898 0.09133 0.61488 0.0
C3882 C 0.73395 0.09152 0.62793 0.0
C3883 C 0.74227 0.09499 0.6395 0.0
C3884 C 0.75569 0.09838 0.63816 0.0
C3885 C 0.76082 0.09834 0.62523 0.0
C3886 C 0.75253 0.09485 0.61363 0.0
C3887 C 0.72871 0.11969 0.55483 0.0
C3888 C 0.73943 0.12129 0.54661 0.0
C3889 C 0.72452 0.11098 0.5659 0.0
C3890 C 0.73122 0.10404 0.56918 0.0
C3891 C 0.74242 0.10626 0.56154 0.0
C3892 C 0.74647 0.11477 0.55032 0.0
C3893 C 0.72622 0.09404 0.58024 0.0
C3894 C 0.73446 0.0968 0.59181 0.0
C3895 C 0.71335 0.08187 0.57941 0.0
C3896 C 0.70447 0.07817 0.56717 0.0
C3897 C 0.70909 0.07693 0.55421 0.0
C3898 C 0.7007 0.0735 0.5427 0.0
C3899 C 0.68763 0.07117 0.54403 0.0
C3900 C 0.68291 0.07223 0.55688 0.0
C3901 C 0.69127 0.07568 0.56843 0.0
H3902 H 0.68114 0.0685 0.5351 0.0
H3903 H 0.76212 0.10108 0.64713 0.0
H3904 H 0.95572 0.64477 0.64197 0.0
H3905 H 0.93781 0.6332 0.62451 0.0
H3906 H 0.93811 0.67085 0.6189 0.0
H3907 H 0.95624 0.68259 0.63608 0.0
H3908 H 0.9112 0.6455 0.62165 0.0
H3909 H 0.9527 0.66461 0.59653 0.0
H3910 H 0.97541 0.6687 0.59148 0.0
H3911 H 0.95874 0.62535 0.58483 0.0
H3912 H 0.93594 0.62098 0.59007 0.0
H3913 H 0.87962 0.63601 0.55667 0.0
H3914 H 0.89501 0.64438 0.57643 0.0
H3915 H 0.89425 0.60607 0.57671 0.0
H3916 H 0.87853 0.59741 0.5573 0.0
H3917 H 0.92083 0.63013 0.57739 0.0
H3918 H 0.87902 0.61109 0.60075 0.0
H3919 H 0.85633 0.60689 0.60601 0.0
H3920 H 0.87334 0.64976 0.61617 0.0
H3921 H 0.89613 0.65425 0.61075 0.0
C3922 C 0.95194 0.65056 0.63705 0.0
C3923 C 0.95741 0.66459 0.64034 0.0
C3924 C 0.94173 0.64395 0.62709 0.0
C3925 C 0.93669 0.6512 0.62046 0.0
C3926 C 0.94189 0.66511 0.62395 0.0
C3927 C 0.95228 0.6718 0.63369 0.0
C3928 C 0.92624 0.64439 0.60959 0.0
C3929 C 0.9133 0.64224 0.61192 0.0
C3930 C 0.92897 0.63986 0.59707 0.0
C3931 C 0.94264 0.64245 0.59388 0.0
C3932 C 0.9539 0.65593 0.59414 0.0
C3933 C 0.96678 0.65831 0.59121 0.0
C3934 C 0.96852 0.64728 0.58789 0.0
C3935 C 0.95737 0.63387 0.58744 0.0
C3936 C 0.94447 0.63144 0.59039 0.0
C3937 C 0.88268 0.62934 0.56096 0.0
C3938 C 0.87813 0.61622 0.55506 0.0
C3939 C 0.89144 0.63412 0.57226 0.0
C3940 C 0.89584 0.62587 0.57793 0.0
C3941 C 0.89106 0.61263 0.57237 0.0
C3942 C 0.88209 0.60773 0.5612 0.0
C3943 C 0.90577 0.63133 0.58937 0.0
C3944 C 0.91865 0.63326 0.58715 0.0
C3945 C 0.90297 0.63565 0.602 0.0
C3946 C 0.88928 0.63303 0.60519 0.0
C3947 C 0.87791 0.61965 0.60396 0.0
C3948 C 0.86503 0.61721 0.607 0.0
C3949 C 0.86339 0.62806 0.61138 0.0
C3950 C 0.87463 0.64137 0.61275 0.0
C3951 C 0.88753 0.64387 0.6097 0.0
H3952 H 0.85341 0.62615 0.61375 0.0
H3953 H 0.9785 0.64914 0.58562 0.0
H3954 H 0.95784 0.66852 0.70816 0.0
H3955 H 0.94835 0.6735 0.72835 0.0
H3956 H 0.9728 0.71689 0.72118 0.0
H3957 H 0.98235 0.71209 0.70108 0.0
H3958 H 0.97386 0.71113 0.74783 0.0
H3959 H 0.94 0.70004 0.71326 0.0
H3960 H 0.92358 0.68572 0.6951 0.0
H3961 H 0.90144 0.65371 0.72348 0.0
H3962 H 0.91786 0.66778 0.74178 0.0
H3963 H 0.94325 0.73832 0.79011 0.0
H3964 H 0.95069 0.73124 0.76968 0.0
H3965 H 0.92618 0.68883 0.78069 0.0
H3966 H 0.91877 0.69587 0.8012 0.0
H3967 H 0.92469 0.69286 0.75268 0.0
H3968 H 0.95829 0.70443 0.78745 0.0
H3969 H 0.97462 0.71902 0.80556 0.0
H3970 H 0.99729 0.7503 0.77666 0.0
H3971 H 0.98096 0.73598 0.7584 0.0
C3972 C 0.9612 0.67913 0.71087 0.0
C3973 C 0.97085 0.6899 0.70296 0.0
C3974 C 0.95572 0.68194 0.72238 0.0
C3975 C 0.95982 0.69556 0.7262 0.0
C3976 C 0.96951 0.70631 0.7184 0.0
C3977 C 0.97492 0.70352 0.70688 0.0
C3978 C 0.95417 0.69872 0.7384 0.0
C3979 C 0.96313 0.70725 0.74882 0.0
C3980 C 0.94013 0.69338 0.73982 0.0
C3981 C 0.93025 0.68489 0.72885 0.0
C3982 C 0.93171 0.68989 0.7156 0.0
C3983 C 0.92238 0.68183 0.70529 0.0
C3984 C 0.9115 0.66879 0.70812 0.0
C3985 C 0.90989 0.6638 0.72129 0.0
C3986 C 0.9192 0.67181 0.73164 0.0
C3987 C 0.93938 0.72748 0.7881 0.0
C3988 C 0.93048 0.71764 0.79724 0.0
C3989 C 0.94364 0.72346 0.77647 0.0
C3990 C 0.93907 0.70953 0.77377 0.0
C3991 C 0.92982 0.69963 0.78261 0.0
C3992 C 0.92562 0.70366 0.79431 0.0
C3993 C 0.94441 0.7054 0.762 0.0
C3994 C 0.93541 0.69668 0.75169 0.0
C3995 C 0.95843 0.71058 0.76066 0.0
C3996 C 0.96832 0.71919 0.77159 0.0
C3997 C 0.96669 0.71447 0.78498 0.0
C3998 C 0.97596 0.72268 0.79527 0.0
C3999 C 0.98696 0.73559 0.79227 0.0
C4000 C 0.98875 0.74031 0.77897 0.0
C4001 C 0.97949 0.73214 0.76864 0.0
H4002 H 0.99413 0.74194 0.80025 0.0
H4003 H 0.90428 0.66257 0.70013 0.0
H4004 H 0.31275 0.29317 0.70413 0.0
H4005 H 0.30043 0.27368 0.71909 0.0
H4006 H 0.33771 0.28478 0.73997 0.0
H4007 H 0.3501 0.30411 0.72507 0.0
H4008 H 0.32316 0.25764 0.73431 0.0
H4009 H 0.31504 0.29204 0.75407 0.0
H4010 H 0.30739 0.30868 0.75408 0.0
H4011 H 0.26718 0.2763 0.74299 0.0
H4012 H 0.27465 0.25948 0.74274 0.0
H4013 H 0.3024 0.22586 0.79815 0.0
H4014 H 0.31172 0.24186 0.77944 0.0
H4015 H 0.27197 0.22344 0.76107 0.0
H4016 H 0.2626 0.20718 0.77969 0.0
H4017 H 0.28564 0.25235 0.76346 0.0
H4018 H 0.29355 0.21758 0.74603 0.0
H4019 H 0.30141 0.20113 0.74659 0.0
H4020 H 0.3422 0.23436 0.75369 0.0
H4021 H 0.33456 0.25101 0.75339 0.0
C4022 C 0.31833 0.29148 0.71192 0.0
C4023 C 0.33243 0.30025 0.71338 0.0
C4024 C 0.31126 0.28035 0.72049 0.0
C4025 C 0.31814 0.27781 0.7307 0.0
C4026 C 0.33219 0.28651 0.73214 0.0
C4027 C 0.33925 0.29762 0.72362 0.0
C4028 C 0.31082 0.26611 0.73995 0.0
C4029 C 0.31502 0.25654 0.74076 0.0
C4030 C 0.29994 0.26445 0.74808 0.0
C4031 C 0.29544 0.27454 0.74822 0.0
C4032 C 0.3046 0.28849 0.75151 0.0
C4033 C 0.30029 0.29795 0.75159 0.0
C4034 C 0.28682 0.29356 0.74849 0.0
C4035 C 0.27762 0.27969 0.74536 0.0
C4036 C 0.28188 0.27019 0.74525 0.0
C4037 C 0.29567 0.22512 0.79006 0.0
C4038 C 0.28175 0.21535 0.79045 0.0
C4039 C 0.301 0.23425 0.77937 0.0
C4040 C 0.29253 0.23383 0.76888 0.0
C4041 C 0.27866 0.22395 0.7691 0.0
C4042 C 0.27334 0.21469 0.77972 0.0
C4043 C 0.29817 0.24407 0.75799 0.0
C4044 C 0.29366 0.25335 0.75688 0.0
C4045 C 0.3088 0.24551 0.74962 0.0
C4046 C 0.31346 0.23554 0.74981 0.0
C4047 C 0.30418 0.22137 0.74784 0.0
C4048 C 0.3086 0.21201 0.74808 0.0
C4049 C 0.32229 0.21669 0.75021 0.0
C4050 C 0.3316 0.23075 0.75206 0.0
C4051 C 0.32723 0.24016 0.75184 0.0
H4052 H 0.32569 0.20943 0.75039 0.0
H4053 H 0.2835 0.3009 0.74856 0.0
H4054 H 0.70478 0.04073 0.70398 0.0
H4055 H 0.71896 0.05037 0.72462 0.0
H4056 H 0.74878 0.04289 0.70653 0.0
H4057 H 0.7347 0.03313 0.68608 0.0
H4058 H 0.74241 0.03274 0.73129 0.0
H4059 H 0.75418 0.0755 0.71073 0.0
H4060 H 0.74954 0.09234 0.70073 0.0
H4061 H 0.73118 0.09477 0.73805 0.0
H4062 H 0.73555 0.07778 0.74822 0.0
H4063 H 0.79558 0.06492 0.77844 0.0
H4064 H 0.78278 0.06101 0.75728 0.0
H4065 H 0.75433 0.06817 0.77901 0.0
H4066 H 0.76734 0.07245 0.80022 0.0
H4067 H 0.75911 0.07873 0.7532 0.0
H4068 H 0.7473 0.03621 0.77373 0.0
H4069 H 0.75187 0.0194 0.78395 0.0
H4070 H 0.76979 0.01627 0.7466 0.0
H4071 H 0.76553 0.03325 0.73623 0.0
C4072 C 0.71443 0.0413 0.70434 0.0
C4073 C 0.71854 0.03603 0.69342 0.0
C4074 C 0.72254 0.04685 0.71613 0.0
C4075 C 0.73493 0.04735 0.7171 0.0
C4076 C 0.73922 0.04253 0.70603 0.0
C4077 C 0.73114 0.03694 0.69433 0.0
C4078 C 0.7431 0.05199 0.72993 0.0
C4079 C 0.7462 0.04288 0.73596 0.0
C4080 C 0.74767 0.06503 0.73628 0.0
C4081 C 0.74506 0.07526 0.73019 0.0
C4082 C 0.74905 0.07953 0.71677 0.0
C4083 C 0.74649 0.08912 0.71107 0.0
C4084 C 0.74003 0.09459 0.71873 0.0
C4085 C 0.73616 0.09051 0.73212 0.0
C4086 C 0.73869 0.08091 0.73786 0.0
C4087 C 0.78681 0.06602 0.77864 0.0
C4088 C 0.78253 0.06914 0.79095 0.0
C4089 C 0.77945 0.0637 0.76657 0.0
C4090 C 0.76751 0.06413 0.76662 0.0
C4091 C 0.76353 0.06782 0.77875 0.0
C4092 C 0.77094 0.07023 0.79084 0.0
C4093 C 0.75865 0.05959 0.7543 0.0
C4094 C 0.75532 0.06863 0.74846 0.0
C4095 C 0.75379 0.04644 0.7481 0.0
C4096 C 0.7562 0.03609 0.75425 0.0
C4097 C 0.7523 0.032 0.76773 0.0
C4098 C 0.75483 0.02244 0.77354 0.0
C4099 C 0.76114 0.01679 0.76594 0.0
C4100 C 0.76491 0.02067 0.75249 0.0
C4101 C 0.76244 0.03025 0.74663 0.0
H4102 H 0.76309 0.00939 0.77046 0.0
H4103 H 0.73806 0.10201 0.71431 0.0
H4104 H 0.01495 0.31064 0.03167 0.0
H4105 H 0.02975 0.30772 0.04696 0.0
H4106 H 0.05654 0.35171 0.05033 0.0
H4107 H 0.0418 0.3547 0.03443 0.0
H4108 H 0.07074 0.33869 0.04945 0.0
H4109 H 0.03428 0.33478 0.07573 0.0
H4110 H 0.01051 0.32668 0.08123 0.0
H4111 H 0.00179 0.28513 0.08201 0.0
H4112 H 0.02547 0.29294 0.07632 0.0
H4113 H 0.10719 0.32943 0.11185 0.0
H4114 H 0.09417 0.33852 0.0931 0.0
H4115 H 0.05512 0.29036 0.08595 0.0
H4116 H 0.06703 0.27997 0.10435 0.0
H4117 H 0.04845 0.30918 0.08895 0.0
H4118 H 0.08383 0.31316 0.05847 0.0
H4119 H 0.10755 0.3212 0.05264 0.0
H4120 H 0.11826 0.36301 0.06064 0.0
H4121 H 0.09461 0.35516 0.0666 0.0
C4122 C 0.02401 0.31973 0.0356 0.0
C4123 C 0.02713 0.33291 0.03201 0.0
C4124 C 0.03246 0.31804 0.04439 0.0
C4125 C 0.04407 0.3295 0.0501 0.0
C4126 C 0.04756 0.34272 0.04613 0.0
C4127 C 0.03914 0.34442 0.03709 0.0
C4128 C 0.05215 0.32741 0.06049 0.0
C4129 C 0.06594 0.33248 0.05825 0.0
C4130 C 0.04589 0.3192 0.07193 0.0
C4131 C 0.03165 0.31445 0.07553 0.0
C4132 C 0.02728 0.32391 0.07701 0.0
C4133 C 0.01383 0.31937 0.08016 0.0
C4134 C 0.00465 0.3054 0.08195 0.0
C4135 C 0.00892 0.29594 0.08063 0.0
C4136 C 0.02236 0.30043 0.07745 0.0
C4137 C 0.09735 0.3223 0.10739 0.0
C4138 C 0.08956 0.30327 0.1081 0.0
C4139 C 0.08953 0.32772 0.09515 0.0
C4140 C 0.0738 0.31532 0.08669 0.0
C4141 C 0.06483 0.29733 0.09072 0.0
C4142 C 0.07178 0.29087 0.10274 0.0
C4143 C 0.06689 0.32004 0.07765 0.0
C4144 C 0.0533 0.3155 0.08023 0.0
C4145 C 0.07337 0.32884 0.06668 0.0
C4146 C 0.08755 0.33357 0.06317 0.0
C4147 C 0.09128 0.32406 0.05906 0.0
C4148 C 0.1047 0.32858 0.05571 0.0
C4149 C 0.11442 0.3426 0.05632 0.0
C4150 C 0.11073 0.35214 0.06021 0.0
C4151 C 0.09733 0.34767 0.06357 0.0
H4152 H 0.1248 0.34609 0.05374 0.0
H4153 H 0.99423 0.3019 0.08439 0.0
H4154 H 0.6584 0.69313 0.03513 0.0
H4155 H 0.66819 0.7143 0.04909 0.0
H4156 H 0.69793 0.70605 0.06527 0.0
H4157 H 0.68837 0.68497 0.05103 0.0
H4158 H 0.6719 0.72098 0.07501 0.0
H4159 H 0.72803 0.73632 0.06923 0.0
H4160 H 0.74228 0.73273 0.05284 0.0
H4161 H 0.7145 0.72604 0.02029 0.0
H4162 H 0.70021 0.72979 0.03644 0.0
H4163 H 0.70971 0.78241 0.12465 0.0
H4164 H 0.6976 0.75614 0.11011 0.0
H4165 H 0.72427 0.77839 0.06822 0.0
H4166 H 0.73717 0.80519 0.08177 0.0
H4167 H 0.72073 0.75531 0.07024 0.0
H4168 H 0.68198 0.76062 0.07507 0.0
H4169 H 0.6661 0.76552 0.08724 0.0
H4170 H 0.65698 0.73335 0.115 0.0
H4171 H 0.67288 0.72834 0.103 0.0
C4172 C 0.66693 0.69574 0.04177 0.0
C4173 C 0.67271 0.68747 0.0419 0.0
C4174 C 0.6725 0.70783 0.04976 0.0
C4175 C 0.68392 0.71187 0.05806 0.0
C4176 C 0.68927 0.70326 0.05875 0.0
C4177 C 0.68375 0.69118 0.05068 0.0
C4178 C 0.6905 0.72536 0.06551 0.0
C4179 C 0.6826 0.72846 0.07403 0.0
C4180 C 0.70436 0.7353 0.0639 0.0
C4181 C 0.71297 0.73316 0.05409 0.0
C4182 C 0.72499 0.73411 0.05857 0.0
C4183 C 0.73307 0.73205 0.04932 0.0
C4184 C 0.72927 0.7291 0.03554 0.0
C4185 C 0.71741 0.72827 0.03097 0.0
C4186 C 0.7093 0.73034 0.04017 0.0
C4187 C 0.7127 0.78156 0.11437 0.0
C4188 C 0.72289 0.79688 0.10382 0.0
C4189 C 0.70469 0.76537 0.10497 0.0
C4190 C 0.70879 0.76445 0.08726 0.0
C4191 C 0.72174 0.77938 0.07865 0.0
C4192 C 0.73033 0.79604 0.0872 0.0
C4193 C 0.70213 0.75099 0.07981 0.0
C4194 C 0.71004 0.74785 0.0713 0.0
C4195 C 0.68816 0.74123 0.08096 0.0
C4196 C 0.67881 0.74433 0.08835 0.0
C4197 C 0.67666 0.75468 0.08384 0.0
C4198 C 0.66763 0.75745 0.09068 0.0
C4199 C 0.66059 0.74981 0.10194 0.0
C4200 C 0.66249 0.73931 0.10632 0.0
C4201 C 0.6715 0.7365 0.09951 0.0
H4202 H 0.65363 0.75197 0.10723 0.0
H4203 H 0.73554 0.7275 0.0284 0.0
H4204 H 0.31292 0.9998 0.04266 0.0
H4205 H 0.29357 0.98548 0.05698 0.0
H4206 H 0.28312 0.95024 0.03056 0.0
H4207 H 0.30278 0.96445 0.0165 0.0
H4208 H 0.26819 0.97282 0.05213 0.0
H4209 H 0.26684 0.92088 0.04766 0.0
H4210 H 0.2829 0.91275 0.04557 0.0
H4211 H 0.31423 0.95054 0.06427 0.0
H4212 H 0.29832 0.95881 0.06667 0.0
H4213 H 0.20348 0.91872 0.06907 0.0
H4214 H 0.22507 0.93418 0.05838 0.0
H4215 H 0.24617 0.92797 0.09107 0.0
H4216 H 0.22455 0.91187 0.10134 0.0
H4217 H 0.25717 0.92745 0.06891 0.0
H4218 H 0.24525 0.95869 0.088 0.0
H4219 H 0.23082 0.9684 0.09285 0.0
H4220 H 0.22901 0.97485 0.05014 0.0
H4221 H 0.24328 0.965 0.045 0.0
C4222 C 0.30656 0.98897 0.03998 0.0
C4223 C 0.30935 0.98322 0.02848 0.0
C4224 C 0.29548 0.9808 0.04815 0.0
C4225 C 0.28691 0.96674 0.04494 0.0
C4226 C 0.28971 0.96099 0.03343 0.0
C4227 C 0.30092 0.96913 0.02536 0.0
C4228 C 0.27478 0.95824 0.05331 0.0
C4229 C 0.26582 0.96292 0.05584 0.0
C4230 C 0.2718 0.94548 0.05847 0.0
C4231 C 0.2814 0.94051 0.05722 0.0
C4232 C 0.27714 0.92743 0.05138 0.0
C4233 C 0.28622 0.9228 0.05013 0.0
C4234 C 0.29958 0.93114 0.05474 0.0
C4235 C 0.30388 0.94411 0.06066 0.0
C4236 C 0.29484 0.94877 0.06195 0.0
C4237 C 0.21275 0.92078 0.07403 0.0
C4238 C 0.2123 0.91433 0.08621 0.0
C4239 C 0.22509 0.92967 0.06796 0.0
C4240 C 0.23731 0.93252 0.07406 0.0
C4241 C 0.2369 0.92603 0.0862 0.0
C4242 C 0.22452 0.91692 0.09214 0.0
C4243 C 0.25046 0.94192 0.06753 0.0
C4244 C 0.25959 0.9374 0.0653 0.0
C4245 C 0.25383 0.95505 0.06307 0.0
C4246 C 0.24525 0.961 0.06611 0.0
C4247 C 0.2417 0.96209 0.07963 0.0
C4248 C 0.23355 0.96763 0.08243 0.0
C4249 C 0.22898 0.97221 0.07181 0.0
C4250 C 0.23255 0.97128 0.05836 0.0
C4251 C 0.24068 0.96574 0.0555 0.0
H4252 H 0.22267 0.9765 0.074 0.0
H4253 H 0.3066 0.92754 0.05376 0.0
H4254 H 0.35013 0.04866 0.00073 0.0
H4255 H 0.34667 0.06515 0.98838 0.0
H4256 H 0.324 0.03416 0.95706 0.0
H4257 H 0.32708 0.01756 0.96951 0.0
H4258 H 0.34477 0.06256 0.948 0.0
H4259 H 0.306 0.03758 0.97737 0.0
H4260 H 0.29533 0.02899 0.99961 0.0
H4261 H 0.31437 0.07038 0.01596 0.0
H4262 H 0.32533 0.0792 0.99386 0.0
H4263 H 0.3143 0.0928 0.91249 0.0
H4264 H 0.31808 0.07654 0.92451 0.0
H4265 H 0.32663 0.101 0.96176 0.0
H4266 H 0.32191 0.11678 0.94997 0.0
H4267 H 0.31369 0.07609 0.96819 0.0
H4268 H 0.35207 0.10185 0.9399 0.0
H4269 H 0.36412 0.11156 0.9185 0.0
H4270 H 0.3482 0.07088 0.90115 0.0
H4271 H 0.3359 0.06093 0.92239 0.0
C4272 C 0.34457 0.04544 0.99112 0.0
C4273 C 0.33883 0.03184 0.98608 0.0
C4274 C 0.34257 0.05484 0.98412 0.0
C4275 C 0.33504 0.05082 0.97186 0.0
C4276 C 0.32984 0.03743 0.96651 0.0
C4277 C 0.33158 0.02797 0.97364 0.0
C4278 C 0.33197 0.06031 0.96493 0.0
C4279 C 0.3379 0.06547 0.95231 0.0
C4280 C 0.32327 0.06432 0.97078 0.0
C4281 C 0.31661 0.05903 0.98402 0.0
C4282 C 0.30802 0.04484 0.98575 0.0
C4283 C 0.30189 0.03993 0.99832 0.0
C4284 C 0.3042 0.04913 0.0092 0.0
C4285 C 0.31261 0.06326 0.00752 0.0
C4286 C 0.31877 0.06822 0.99498 0.0
C4287 C 0.3167 0.09458 0.92331 0.0
C4288 C 0.31764 0.10602 0.93034 0.0
C4289 C 0.31906 0.08536 0.93014 0.0
C4290 C 0.32296 0.08767 0.94401 0.0
C4291 C 0.32366 0.09895 0.95108 0.0
C4292 C 0.32097 0.10798 0.94434 0.0
C4293 C 0.3265 0.07849 0.95112 0.0
C4294 C 0.32064 0.07333 0.96381 0.0
C4295 C 0.33549 0.0747 0.94544 0.0
C4296 C 0.34297 0.08065 0.93269 0.0
C4297 C 0.35108 0.09498 0.93149 0.0
C4298 C 0.35796 0.10053 0.91939 0.0
C4299 C 0.3569 0.09185 0.90846 0.0
C4300 C 0.349 0.0776 0.90962 0.0
C4301 C 0.34208 0.07199 0.92169 0.0
H4302 H 0.36223 0.09616 0.8991 0.0
H4303 H 0.29945 0.04532 0.01892 0.0
H4304 H 0.9649 0.30851 0.98493 0.0
H4305 H 0.95266 0.29121 0.96667 0.0
H4306 H 0.98687 0.28585 0.96166 0.0
H4307 H 0.99932 0.30364 0.97923 0.0
H4308 H 0.97813 0.28582 0.93824 0.0
H4309 H 0.95616 0.26257 0.97924 0.0
H4310 H 0.94389 0.25909 0.00082 0.0
H4311 H 0.9112 0.25842 0.97928 0.0
H4312 H 0.92336 0.26206 0.95759 0.0
H4313 H 0.94836 0.215 0.90241 0.0
H4314 H 0.96133 0.23929 0.92013 0.0
H4315 H 0.92091 0.24453 0.91751 0.0
H4316 H 0.90682 0.22041 0.89956 0.0
H4317 H 0.93173 0.24621 0.94464 0.0
H4318 H 0.95375 0.26669 0.9031 0.0
H4319 H 0.96631 0.26884 0.88201 0.0
H4320 H 0.99962 0.27313 0.90564 0.0
H4321 H 0.98719 0.27081 0.92688 0.0
C4322 C 0.96976 0.30362 0.97988 0.0
C4323 C 0.98302 0.30737 0.98346 0.0
C4324 C 0.96274 0.29368 0.96951 0.0
C4325 C 0.96874 0.28703 0.96288 0.0
C4326 C 0.98201 0.29083 0.96654 0.0
C4327 C 0.98911 0.30098 0.97662 0.0
C4328 C 0.96138 0.27619 0.95206 0.0
C4329 C 0.96806 0.27707 0.93977 0.0
C4330 C 0.94806 0.26494 0.95381 0.0
C4331 C 0.94074 0.26275 0.96683 0.0
C4332 C 0.9464 0.26178 0.97913 0.0
C4333 C 0.93946 0.25976 0.99137 0.0
C4334 C 0.92679 0.25858 0.99143 0.0
C4335 C 0.92102 0.25937 0.97923 0.0
C4336 C 0.92793 0.2614 0.96696 0.0
C4337 C 0.94357 0.22089 0.90456 0.0
C4338 C 0.92527 0.21377 0.9011 0.0
C4339 C 0.9513 0.23564 0.91609 0.0
C4340 C 0.94228 0.24408 0.92128 0.0
C4341 C 0.92575 0.23889 0.91449 0.0
C4342 C 0.91714 0.22427 0.90287 0.0
C4343 C 0.94871 0.25572 0.9312 0.0
C4344 C 0.9418 0.255 0.9432 0.0
C4345 C 0.96193 0.26694 0.92935 0.0
C4346 C 0.96948 0.26846 0.91659 0.0
C4347 C 0.96372 0.26799 0.9038 0.0
C4348 C 0.97082 0.26926 0.89182 0.0
C4349 C 0.98374 0.27109 0.89249 0.0
C4350 C 0.98961 0.2717 0.90514 0.0
C4351 C 0.98254 0.27043 0.91716 0.0
H4352 H 0.98922 0.27206 0.8832 0.0
H4353 H 0.92143 0.25702 0.00092 0.0
H4354 H 0.70246 0.68152 0.0065 0.0
H4355 H 0.72274 0.68788 0.99336 0.0
H4356 H 0.6992 0.6538 0.96503 0.0
H4357 H 0.67891 0.64689 0.97886 0.0
H4358 H 0.72354 0.65721 0.96886 0.0
H4359 H 0.70767 0.68771 0.95816 0.0
H4360 H 0.69986 0.70373 0.96401 0.0
H4361 H 0.73779 0.7312 0.98425 0.0
H4362 H 0.74578 0.71528 0.97865 0.0
H4363 H 0.77754 0.68601 0.92152 0.0
H4364 H 0.75535 0.6768 0.93184 0.0
H4365 H 0.77261 0.70957 0.96255 0.0
H4366 H 0.79465 0.71931 0.95174 0.0
H4367 H 0.74972 0.70577 0.95497 0.0
H4368 H 0.76503 0.67507 0.96774 0.0
H4369 H 0.77311 0.65907 0.96307 0.0
H4370 H 0.73683 0.63222 0.93998 0.0
H4371 H 0.72861 0.64816 0.94438 0.0
C4372 C 0.70168 0.67531 0.99754 0.0
C4373 C 0.68922 0.66382 0.99354 0.0
C4374 C 0.71323 0.67899 0.98999 0.0
C4375 C 0.71242 0.67161 0.97794 0.0
C4376 C 0.70003 0.65974 0.97422 0.0
C4377 C 0.68847 0.6558 0.98206 0.0
C4378 C 0.72448 0.67664 0.96914 0.0
C4379 C 0.72915 0.66776 0.96562 0.0
C4380 C 0.73192 0.69047 0.96507 0.0
C4381 C 0.7273 0.70028 0.96801 0.0
C4382 C 0.71434 0.69717 0.96386 0.0
C4383 C 0.70988 0.70622 0.96715 0.0
C4384 C 0.71832 0.71847 0.9745 0.0
C4385 C 0.73127 0.72172 0.97854 0.0
C4386 C 0.73578 0.7127 0.97528 0.0
C4387 C 0.77658 0.6914 0.93033 0.0
C4388 C 0.78784 0.70355 0.9357 0.0
C4389 C 0.76389 0.686 0.93633 0.0
C4390 C 0.76231 0.69235 0.94811 0.0
C4391 C 0.77353 0.70449 0.95345 0.0
C4392 C 0.78613 0.71004 0.94729 0.0
C4393 C 0.74904 0.68646 0.955 0.0
C4394 C 0.74408 0.69517 0.9581 0.0
C4395 C 0.74141 0.67252 0.95875 0.0
C4396 C 0.74627 0.66286 0.95628 0.0
C4397 C 0.75881 0.66578 0.96161 0.0
C4398 C 0.76341 0.65673 0.95902 0.0
C4399 C 0.7555 0.64465 0.95121 0.0
C4400 C 0.74295 0.64159 0.94602 0.0
C4401 C 0.73831 0.65062 0.94856 0.0
H4402 H 0.75909 0.63766 0.9492 0.0
H4403 H 0.71483 0.72544 0.97708 0.0
H4404 H 0.95947 0.65507 0.99666 0.0
H4405 H 0.94446 0.65996 0.98347 0.0
H4406 H 0.9792 0.69555 0.96709 0.0
H4407 H 0.99415 0.69083 0.98022 0.0
H4408 H 0.9617 0.70194 0.97764 0.0
H4409 H 0.95973 0.66731 0.94705 0.0
H4410 H 0.95605 0.64454 0.94033 0.0
H4411 H 0.91462 0.62542 0.95267 0.0
H4412 H 0.91811 0.64807 0.95965 0.0
H4413 H 0.92782 0.72082 0.93158 0.0
H4414 H 0.9424 0.71285 0.94018 0.0
H4415 H 0.90752 0.67701 0.95605 0.0
H4416 H 0.89287 0.68477 0.94713 0.0
H4417 H 0.92504 0.6704 0.94524 0.0
H4418 H 0.92741 0.70512 0.9765 0.0
H4419 H 0.93122 0.72797 0.98311 0.0
H4420 H 0.97224 0.74697 0.9695 0.0
H4421 H 0.96861 0.72424 0.96261 0.0
C4422 C 0.96388 0.66381 0.99009 0.0
C4423 C 0.97798 0.67262 0.98956 0.0
C4424 C 0.95531 0.66658 0.98253 0.0
C4425 C 0.96072 0.67814 0.9743 0.0
C4426 C 0.9748 0.68662 0.97342 0.0
C4427 C 0.98333 0.68388 0.98093 0.0
C4428 C 0.95184 0.68205 0.96735 0.0
C4429 C 0.95381 0.69511 0.9704 0.0
C4430 C 0.94135 0.67301 0.95817 0.0
C4431 C 0.93923 0.65938 0.95401 0.0
C4432 C 0.94987 0.65824 0.94845 0.0
C4433 C 0.94781 0.64535 0.94457 0.0
C4434 C 0.93512 0.63353 0.94611 0.0
C4435 C 0.92445 0.63458 0.9515 0.0
C4436 C 0.92646 0.64744 0.95541 0.0
C4437 C 0.92325 0.7111 0.93664 0.0
C4438 C 0.90918 0.7033 0.9385 0.0
C4439 C 0.93159 0.70661 0.94164 0.0
C4440 C 0.92606 0.6944 0.94888 0.0
C4441 C 0.912 0.68643 0.95045 0.0
C4442 C 0.90365 0.69087 0.94537 0.0
C4443 C 0.93498 0.69031 0.95547 0.0
C4444 C 0.93297 0.67723 0.95243 0.0
C4445 C 0.94547 0.69932 0.96468 0.0
C4446 C 0.9477 0.71299 0.96891 0.0
C4447 C 0.93721 0.71418 0.97482 0.0
C4448 C 0.93935 0.72711 0.97863 0.0
C4449 C 0.95196 0.73891 0.9767 0.0
C4450 C 0.96247 0.73781 0.97097 0.0
C4451 C 0.96039 0.72491 0.96712 0.0
H4452 H 0.95359 0.74891 0.97965 0.0
H4453 H 0.93354 0.62357 0.94309 0.0
H4454 H 0.34601 0.31683 0.98243 0.0
H4455 H 0.33589 0.29592 0.96794 0.0
H4456 H 0.3003 0.29861 0.96214 0.0
H4457 H 0.31044 0.31964 0.97646 0.0
H4458 H 0.31365 0.27189 0.97225 0.0
H4459 H 0.28626 0.28443 0.93078 0.0
H4460 H 0.28915 0.30456 0.91877 0.0
H4461 H 0.33208 0.32549 0.92572 0.0
H4462 H 0.32947 0.30542 0.93759 0.0
H4463 H 0.26635 0.21013 0.93688 0.0
H4464 H 0.27639 0.23237 0.94926 0.0
H4465 H 0.30456 0.25158 0.91655 0.0
H4466 H 0.29437 0.22948 0.90404 0.0
H4467 H 0.29554 0.26758 0.92532 0.0
H4468 H 0.31398 0.2427 0.9458 0.0
H4469 H 0.31302 0.22306 0.95702 0.0
H4470 H 0.29172 0.22789 0.99064 0.0
H4471 H 0.29239 0.24745 0.97952 0.0
C4472 C 0.33609 0.31306 0.97794 0.0
C4473 C 0.329 0.31985 0.98058 0.0
C4474 C 0.33031 0.30109 0.96971 0.0
C4475 C 0.31736 0.29573 0.96395 0.0
C4476 C 0.31037 0.30266 0.96635 0.0
C4477 C 0.31617 0.31466 0.97455 0.0
C4478 C 0.31097 0.28259 0.95589 0.0
C4479 C 0.30968 0.27096 0.96198 0.0
C4480 C 0.30593 0.2814 0.94246 0.0
C4481 C 0.30764 0.29347 0.9352 0.0
C4482 C 0.29632 0.29331 0.9297 0.0
C4483 C 0.29791 0.30471 0.92292 0.0
C4484 C 0.31079 0.31631 0.92153 0.0
C4485 C 0.32211 0.31652 0.92686 0.0
C4486 C 0.32057 0.30514 0.93363 0.0
C4487 C 0.27468 0.21912 0.93236 0.0
C4488 C 0.2798 0.21804 0.91966 0.0
C4489 C 0.28041 0.23179 0.93943 0.0
C4490 C 0.29137 0.24358 0.93392 0.0
C4491 C 0.29615 0.24261 0.92101 0.0
C4492 C 0.2904 0.22998 0.91393 0.0
C4493 C 0.29814 0.25688 0.94172 0.0
C4494 C 0.29946 0.26853 0.9356 0.0
C4495 C 0.30348 0.25816 0.95503 0.0
C4496 C 0.30312 0.24644 0.96176 0.0
C4497 C 0.309 0.23951 0.95553 0.0
C4498 C 0.30852 0.2284 0.96188 0.0
C4499 C 0.30228 0.22421 0.97451 0.0
C4500 C 0.29653 0.23114 0.98084 0.0
C4501 C 0.29697 0.24224 0.97453 0.0
H4502 H 0.30192 0.21561 0.97941 0.0
H4503 H 0.312 0.32513 0.91629 0.0
H4504 H 0.69147 0.00392 0.97633 0.0
H4505 H 0.71239 0.01705 0.96353 0.0
H4506 H 0.72152 0.05389 0.98645 0.0
H4507 H 0.7006 0.04087 0.99923 0.0
H4508 H 0.72313 0.04104 0.94749 0.0
H4509 H 0.75518 0.06958 0.99544 0.0
H4510 H 0.75488 0.06645 0.02029 0.0
H4511 H 0.73255 0.02262 0.01371 0.0
H4512 H 0.7329 0.0255 0.98884 0.0
H4513 H 0.78873 0.10001 0.93534 0.0
H4514 H 0.76592 0.08392 0.9434 0.0
H4515 H 0.77806 0.05494 0.95272 0.0
H4516 H 0.80078 0.07078 0.94426 0.0
H4517 H 0.76574 0.06184 0.97481 0.0
H4518 H 0.75813 0.04646 0.92792 0.0
H4519 H 0.75841 0.04907 0.90301 0.0
H4520 H 0.73208 0.06518 0.90706 0.0
H4521 H 0.73182 0.06286 0.93204 0.0
C4522 C 0.69785 0.01485 0.97852 0.0
C4523 C 0.69448 0.02136 0.98885 0.0
C4524 C 0.70975 0.02233 0.97117 0.0
C4525 C 0.71852 0.03638 0.97416 0.0
C4526 C 0.71491 0.04301 0.98409 0.0
C4527 C 0.70296 0.03558 0.99135 0.0
C4528 C 0.73187 0.04391 0.9676 0.0
C4529 C 0.73246 0.0456 0.95344 0.0
C4530 C 0.744 0.04963 0.97537 0.0
C4531 C 0.74396 0.04777 0.99029 0.0
C4532 C 0.75027 0.05928 0.9993 0.0
C4533 C 0.75008 0.05755 0.01339 0.0
C4534 C 0.74366 0.04434 0.01858 0.0
C4535 C 0.73747 0.03284 0.00969 0.0
C4536 C 0.73765 0.03452 0.99559 0.0
C4537 C 0.78651 0.09017 0.93902 0.0
C4538 C 0.79664 0.08681 0.93953 0.0
C4539 C 0.77349 0.08098 0.94356 0.0
C4540 C 0.7704 0.06832 0.94872 0.0
C4541 C 0.78033 0.06473 0.94885 0.0
C4542 C 0.7933 0.07381 0.94409 0.0
C4543 C 0.75702 0.05921 0.95473 0.0
C4544 C 0.75642 0.05725 0.96883 0.0
C4545 C 0.74493 0.0532 0.94688 0.0
C4546 C 0.74507 0.05462 0.93187 0.0
C4547 C 0.75251 0.05069 0.92352 0.0
C4548 C 0.75264 0.05209 0.90938 0.0
C4549 C 0.7453 0.05732 0.90346 0.0
C4550 C 0.73778 0.06114 0.91167 0.0
C4551 C 0.73763 0.05978 0.92581 0.0
H4552 H 0.74541 0.05839 0.89251 0.0
H4553 H 0.74351 0.04302 0.02949 0.0
H4554 H 0.65126 0.95771 0.0217 0.0
H4555 H 0.65591 0.9421 0.03413 0.0
H4556 H 0.68494 0.97615 0.05977 0.0
H4557 H 0.68057 0.99172 0.04727 0.0
H4558 H 0.69583 0.96263 0.04923 0.0
H4559 H 0.65418 0.95033 0.07191 0.0
H4560 H 0.62988 0.94229 0.07324 0.0
H4561 H 0.62004 0.90407 0.05322 0.0
H4562 H 0.6443 0.91196 0.0516 0.0
H4563 H 0.71287 0.92727 0.09486 0.0
H4564 H 0.70373 0.94073 0.08589 0.0
H4565 H 0.67483 0.90564 0.06127 0.0
H4566 H 0.68361 0.89197 0.07064 0.0
H4567 H 0.66328 0.91909 0.07117 0.0
H4568 H 0.70461 0.93137 0.04799 0.0
H4569 H 0.72885 0.93922 0.04632 0.0
H4570 H 0.73921 0.97745 0.06666 0.0
H4571 H 0.71501 0.96975 0.06863 0.0
C4572 C 0.65843 0.96178 0.03016 0.0
C4573 C 0.66564 0.97594 0.03345 0.0
C4574 C 0.66107 0.95286 0.03727 0.0
C4575 C 0.6708 0.95796 0.04788 0.0
C4576 C 0.67747 0.97199 0.05157 0.0
C4577 C 0.67494 0.98088 0.04442 0.0
C4578 C 0.67497 0.94906 0.05444 0.0
C4579 C 0.68872 0.95322 0.05421 0.0
C4580 C 0.66565 0.93655 0.06054 0.0
C4581 C 0.65107 0.9318 0.06151 0.0
C4582 C 0.64684 0.94026 0.06769 0.0
C4583 C 0.63307 0.93572 0.06852 0.0
C4584 C 0.62343 0.92269 0.06329 0.0
C4585 C 0.62753 0.91417 0.05725 0.0
C4586 C 0.64128 0.91866 0.05638 0.0
C4587 C 0.70437 0.92234 0.08777 0.0
C4588 C 0.69879 0.90848 0.08362 0.0
C4589 C 0.69924 0.93008 0.08255 0.0
C4590 C 0.6887 0.92425 0.07276 0.0
C4591 C 0.68293 0.91035 0.06883 0.0
C4592 C 0.68795 0.90255 0.07417 0.0
C4593 C 0.68417 0.93281 0.06614 0.0
C4594 C 0.67037 0.92855 0.06625 0.0
C4595 C 0.69343 0.94523 0.05984 0.0
C4596 C 0.70799 0.94993 0.05857 0.0
C4597 C 0.71205 0.94141 0.05218 0.0
C4598 C 0.72578 0.94584 0.05118 0.0
C4599 C 0.73556 0.95881 0.0564 0.0
C4600 C 0.73162 0.9674 0.06262 0.0
C4601 C 0.7179 0.96301 0.06368 0.0
H4602 H 0.74619 0.96222 0.05561 0.0
H4603 H 0.61277 0.91919 0.06394 0.0
H4604 H 0.04075 0.70362 0.03059 0.0
H4605 H 0.05364 0.7251 0.04401 0.0
H4606 H 0.01655 0.71971 0.06046 0.0
H4607 H 0.00359 0.69831 0.04696 0.0
H4608 H 0.03168 0.7445 0.04987 0.0
H4609 H 0.03893 0.71713 0.08075 0.0
H4610 H 0.04532 0.70051 0.08762 0.0
H4611 H 0.08581 0.72735 0.07392 0.0
H4612 H 0.07961 0.74405 0.06677 0.0
H4613 H 0.06485 0.80522 0.09053 0.0
H4614 H 0.05153 0.78043 0.08544 0.0
H4615 H 0.08606 0.78244 0.06598 0.0
H4616 H 0.09945 0.80719 0.07121 0.0
H4617 H 0.07129 0.7586 0.08033 0.0
H4618 H 0.06345 0.7844 0.0472 0.0
H4619 H 0.05733 0.80107 0.03976 0.0
H4620 H 0.01796 0.77686 0.05715 0.0
H4621 H 0.02395 0.76016 0.06491 0.0
C4622 C 0.03536 0.7069 0.03724 0.0
C4623 C 0.02116 0.69935 0.03765 0.0
C4624 C 0.04274 0.71914 0.04496 0.0
C4625 C 0.03605 0.72398 0.05327 0.0
C4626 C 0.02191 0.71616 0.0541 0.0
C4627 C 0.01452 0.70393 0.0464 0.0
C4628 C 0.04369 0.73779 0.06007 0.0
C4629 C 0.04015 0.74748 0.05677 0.0
C4630 C 0.05497 0.74178 0.06877 0.0
C4631 C 0.05877 0.7318 0.07312 0.0
C4632 C 0.04917 0.71945 0.0791 0.0
C4633 C 0.05276 0.71002 0.08306 0.0
C4634 C 0.06596 0.71286 0.08118 0.0
C4635 C 0.07559 0.72515 0.07536 0.0
C4636 C 0.07205 0.73461 0.07137 0.0
C4637 C 0.06967 0.80029 0.08546 0.0
C4638 C 0.08319 0.80808 0.08132 0.0
C4639 C 0.06206 0.78616 0.08252 0.0
C4640 C 0.06779 0.77964 0.07522 0.0
C4641 C 0.08147 0.78727 0.07166 0.0
C4642 C 0.08908 0.80139 0.07461 0.0
C4643 C 0.05923 0.76523 0.07011 0.0
C4644 C 0.06266 0.7555 0.07362 0.0
C4645 C 0.04786 0.76116 0.06154 0.0
C4646 C 0.0442 0.77112 0.05677 0.0
C4647 C 0.05353 0.78269 0.04954 0.0
C4648 C 0.05008 0.79214 0.04525 0.0
C4649 C 0.03728 0.79004 0.04802 0.0
C4650 C 0.02788 0.77848 0.05504 0.0
C4651 C 0.0313 0.76902 0.05939 0.0
H4652 H 0.03462 0.79736 0.04469 0.0
H4653 H 0.06872 0.70554 0.08426 0.0
H4654 H 0.31987 0.32859 0.04263 0.0
H4655 H 0.29943 0.32114 0.05588 0.0
H4656 H 0.29543 0.35375 0.03962 0.0
H4657 H 0.31606 0.36141 0.02638 0.0
H4658 H 0.28691 0.34805 0.06704 0.0
H4659 H 0.27956 0.32388 0.02374 0.0
H4660 H 0.28378 0.31058 0.00621 0.0
H4661 H 0.2729 0.27838 0.03446 0.0
H4662 H 0.26884 0.29162 0.05225 0.0
H4663 H 0.21522 0.31729 0.06862 0.0
H4664 H 0.23929 0.32871 0.06332 0.0
H4665 H 0.24046 0.29371 0.07741 0.0
H4666 H 0.21631 0.28219 0.08263 0.0
H4667 H 0.25106 0.30081 0.05253 0.0
H4668 H 0.25646 0.32424 0.09538 0.0
H4669 H 0.25218 0.33762 0.11275 0.0
H4670 H 0.26631 0.37108 0.08544 0.0
H4671 H 0.27049 0.35782 0.06781 0.0
C4672 C 0.31484 0.33439 0.04211 0.0
C4673 C 0.31945 0.34546 0.03331 0.0
C4674 C 0.30315 0.33011 0.04968 0.0
C4675 C 0.29578 0.33673 0.04851 0.0
C4676 C 0.30096 0.34848 0.04062 0.0
C4677 C 0.31273 0.35284 0.03306 0.0
C4678 C 0.28198 0.33037 0.05417 0.0
C4679 C 0.27902 0.33778 0.06382 0.0
C4680 C 0.27177 0.31686 0.0501 0.0
C4681 C 0.27404 0.30881 0.03937 0.0
C4682 C 0.27817 0.31401 0.02625 0.0
C4683 C 0.28052 0.30648 0.01626 0.0
C4684 C 0.27864 0.29366 0.01923 0.0
C4685 C 0.27437 0.28833 0.03219 0.0
C4686 C 0.27204 0.29584 0.04222 0.0
C4687 C 0.22069 0.31216 0.07085 0.0
C4688 C 0.21394 0.29892 0.07617 0.0
C4689 C 0.23444 0.31871 0.06785 0.0
C4690 C 0.24171 0.31212 0.07009 0.0
C4691 C 0.23506 0.29901 0.07567 0.0
C4692 C 0.2213 0.29246 0.0787 0.0
C4693 C 0.25591 0.31843 0.06551 0.0
C4694 C 0.25894 0.31103 0.05593 0.0
C4695 C 0.26612 0.33193 0.06964 0.0
C4696 C 0.26368 0.33998 0.08023 0.0
C4697 C 0.25856 0.3344 0.09303 0.0
C4698 C 0.25617 0.34198 0.10293 0.0
C4699 C 0.25895 0.35518 0.10019 0.0
C4700 C 0.26415 0.36085 0.08755 0.0
C4701 C 0.26655 0.35331 0.0776 0.0
H4702 H 0.25709 0.36103 0.10787 0.0
H4703 H 0.28047 0.28784 0.01149 0.0
H4704 H 0.70836 0.69692 0.36725 0.0
H4705 H 0.72268 0.69217 0.3817 0.0
H4706 H 0.69217 0.64898 0.38009 0.0
H4707 H 0.67764 0.65377 0.36632 0.0
H4708 H 0.70282 0.6551 0.40404 0.0
H4709 H 0.72123 0.66468 0.35833 0.0
H4710 H 0.73075 0.67889 0.33808 0.0
H4711 H 0.76333 0.71044 0.36267 0.0
H4712 H 0.75391 0.69646 0.38309 0.0
H4713 H 0.7397 0.6219 0.41264 0.0
H4714 H 0.7261 0.63123 0.40465 0.0
H4715 H 0.76002 0.67243 0.41151 0.0
H4716 H 0.77381 0.66311 0.41907 0.0
H4717 H 0.74894 0.67011 0.38753 0.0
H4718 H 0.7316 0.65808 0.43276 0.0
H4719 H 0.72194 0.64284 0.45228 0.0
H4720 H 0.68707 0.61478 0.42793 0.0
H4721 H 0.69659 0.62976 0.40822 0.0
C4722 C 0.70466 0.68645 0.37016 0.0
C4723 C 0.69192 0.67571 0.36559 0.0
C4724 C 0.71288 0.68373 0.37834 0.0
C4725 C 0.70866 0.67016 0.38175 0.0
C4726 C 0.6957 0.65953 0.37761 0.0
C4727 C 0.6874 0.66228 0.36969 0.0
C4728 C 0.71782 0.66678 0.38904 0.0
C4729 C 0.71289 0.65833 0.40038 0.0
C4730 C 0.7311 0.67126 0.38452 0.0
C4731 C 0.73679 0.6796 0.37224 0.0
C4732 C 0.73038 0.67468 0.35942 0.0
C4733 C 0.73576 0.68269 0.34792 0.0
C4734 C 0.74761 0.69558 0.3491 0.0
C4735 C 0.75413 0.70047 0.36178 0.0
C4736 C 0.74878 0.69251 0.37331 0.0
C4737 C 0.74417 0.63295 0.41266 0.0
C4738 C 0.7577 0.64176 0.41683 0.0
C4739 C 0.73638 0.63828 0.40814 0.0
C4740 C 0.74193 0.65255 0.40778 0.0
C4741 C 0.75547 0.66139 0.41186 0.0
C4742 C 0.76331 0.65606 0.41627 0.0
C4743 C 0.73382 0.65817 0.40232 0.0
C4744 C 0.73896 0.66705 0.39134 0.0
C4745 C 0.72069 0.65396 0.40708 0.0
C4746 C 0.71486 0.64502 0.41899 0.0
C4747 C 0.72191 0.64863 0.43155 0.0
C4748 C 0.71645 0.64004 0.44265 0.0
C4749 C 0.70391 0.62784 0.44134 0.0
C4750 C 0.69678 0.62423 0.42894 0.0
C4751 C 0.70219 0.63278 0.4178 0.0
H4752 H 0.69971 0.6212 0.44994 0.0
H4753 H 0.75176 0.70176 0.34019 0.0
H4754 H 0.35756 0.02039 0.38105 0.0
H4755 H 0.36636 0.04084 0.39612 0.0
H4756 H 0.32675 0.0361 0.39698 0.0
H4757 H 0.31818 0.01616 0.38137 0.0
H4758 H 0.34375 0.06106 0.39308 0.0
H4759 H 0.34205 0.02917 0.42507 0.0
H4760 H 0.34652 0.01182 0.43406 0.0
H4761 H 0.38926 0.04083 0.43335 0.0
H4762 H 0.38505 0.0583 0.42417 0.0
H4763 H 0.35299 0.11099 0.45254 0.0
H4764 H 0.34449 0.08631 0.4359 0.0
H4765 H 0.39252 0.09902 0.42897 0.0
H4766 H 0.4024 0.12416 0.44524 0.0
H4767 H 0.37194 0.07012 0.43464 0.0
H4768 H 0.37262 0.09974 0.39856 0.0
H4769 H 0.36783 0.11697 0.38973 0.0
H4770 H 0.32594 0.0913 0.39983 0.0
H4771 H 0.33053 0.07394 0.4087 0.0
C4772 C 0.35073 0.02366 0.38459 0.0
C4773 C 0.33721 0.01673 0.38003 0.0
C4774 C 0.35574 0.03531 0.39327 0.0
C4775 C 0.3472 0.04 0.39783 0.0
C4776 C 0.33358 0.03277 0.39357 0.0
C4777 C 0.32867 0.02134 0.38468 0.0
C4778 C 0.35255 0.05283 0.40641 0.0
C4779 C 0.3497 0.06284 0.40229 0.0
C4780 C 0.36066 0.05547 0.41826 0.0
C4781 C 0.36323 0.045 0.4238 0.0
C4782 C 0.3524 0.03182 0.42673 0.0
C4783 C 0.35489 0.02197 0.43187 0.0
C4784 C 0.36817 0.02521 0.43424 0.0
C4785 C 0.37898 0.03833 0.43149 0.0
C4786 C 0.37655 0.04821 0.42633 0.0
C4787 C 0.36027 0.10851 0.44862 0.0
C4788 C 0.37877 0.12142 0.44855 0.0
C4789 C 0.35514 0.09356 0.43773 0.0
C4790 C 0.36758 0.09051 0.42992 0.0
C4791 C 0.38546 0.10157 0.43339 0.0
C4792 C 0.39168 0.11684 0.44408 0.0
C4793 C 0.36288 0.07797 0.42134 0.0
C4794 C 0.36592 0.06814 0.42544 0.0
C4795 C 0.35475 0.07532 0.40963 0.0
C4796 C 0.35194 0.08568 0.40441 0.0
C4797 C 0.3624 0.09782 0.39891 0.0
C4798 C 0.35973 0.10758 0.39388 0.0
C4799 C 0.3466 0.10525 0.39426 0.0
C4800 C 0.33611 0.09311 0.39959 0.0
C4801 C 0.33874 0.0833 0.40459 0.0
H4802 H 0.34455 0.11283 0.3904 0.0
H4803 H 0.37007 0.01757 0.43822 0.0
H4804 H 0.99122 0.33861 0.37679 0.0
H4805 H 0.971 0.32532 0.39059 0.0
H4806 H 0.96149 0.28849 0.36734 0.0
H4807 H 0.98181 0.30156 0.35397 0.0
H4808 H 0.94574 0.31225 0.38456 0.0
H4809 H 0.94515 0.2604 0.3851 0.0
H4810 H 0.96159 0.25278 0.38673 0.0
H4811 H 0.99049 0.29142 0.40604 0.0
H4812 H 0.97417 0.2992 0.40472 0.0
H4813 H 0.87948 0.25726 0.39175 0.0
H4814 H 0.9026 0.27387 0.38527 0.0
H4815 H 0.91769 0.26526 0.42158 0.0
H4816 H 0.89469 0.24791 0.42754 0.0
H4817 H 0.93274 0.26683 0.4028 0.0
H4818 H 0.91758 0.29662 0.41706 0.0
H4819 H 0.90247 0.30592 0.41868 0.0
H4820 H 0.90744 0.31443 0.37595 0.0
H4821 H 0.92244 0.30501 0.37403 0.0
C4822 C 0.98487 0.32765 0.37476 0.0
C4823 C 0.98811 0.32111 0.36434 0.0
C4824 C 0.97331 0.32007 0.38262 0.0
C4825 C 0.96479 0.30585 0.38015 0.0
C4826 C 0.96805 0.29937 0.36971 0.0
C4827 C 0.97965 0.30688 0.36199 0.0
C4828 C 0.95213 0.29779 0.38796 0.0
C4829 C 0.94293 0.30237 0.38865 0.0
C4830 C 0.94862 0.28511 0.39375 0.0
C4831 C 0.95845 0.28042 0.39472 0.0
C4832 C 0.95498 0.26725 0.38977 0.0
C4833 C 0.96429 0.2629 0.39062 0.0
C4834 C 0.97709 0.27162 0.39646 0.0
C4835 C 0.98059 0.28469 0.40149 0.0
C4836 C 0.97132 0.28908 0.40067 0.0
C4837 C 0.88775 0.25895 0.39836 0.0
C4838 C 0.88517 0.25129 0.41018 0.0
C4839 C 0.90097 0.26857 0.39474 0.0
C4840 C 0.91197 0.2711 0.40307 0.0
C4841 C 0.90942 0.26357 0.41498 0.0
C4842 C 0.8962 0.25368 0.41843 0.0
C4843 C 0.9261 0.28104 0.39894 0.0
C4844 C 0.93558 0.2768 0.39892 0.0
C4845 C 0.93006 0.29428 0.3943 0.0
C4846 C 0.92108 0.30003 0.39539 0.0
C4847 C 0.91539 0.3004 0.40799 0.0
C4848 C 0.90685 0.3057 0.40896 0.0
C4849 C 0.90398 0.31075 0.39742 0.0
C4850 C 0.90967 0.31052 0.38488 0.0
C4851 C 0.91821 0.30522 0.38385 0.0
H4852 H 0.89736 0.31484 0.39819 0.0
H4853 H 0.98428 0.26825 0.3971 0.0
H4854 H 0.03724 0.38403 0.33092 0.0
H4855 H 0.03758 0.40166 0.31684 0.0
H4856 H 0.00513 0.37014 0.29178 0.0
H4857 H 0.00462 0.35244 0.3059 0.0
H4858 H 0.02639 0.39086 0.27672 0.0
H4859 H 0.99748 0.38658 0.3138 0.0
H4860 H 0.99112 0.38586 0.33793 0.0
H4861 H 0.02419 0.42723 0.3448 0.0
H4862 H 0.03087 0.42813 0.32072 0.0
H4863 H 0.00959 0.43391 0.24176 0.0
H4864 H 0.00786 0.41579 0.25611 0.0
H4865 H 0.03837 0.4465 0.28348 0.0
H4866 H 0.04007 0.46467 0.26919 0.0
H4867 H 0.01755 0.42582 0.29738 0.0
H4868 H 0.04669 0.43003 0.26045 0.0
H4869 H 0.05315 0.4308 0.23634 0.0
H4870 H 0.01987 0.38958 0.22925 0.0
H4871 H 0.01307 0.38865 0.25328 0.0
C4872 C 0.03022 0.38085 0.32238 0.0
C4873 C 0.02087 0.36686 0.31954 0.0
C4874 C 0.03039 0.39093 0.31438 0.0
C4875 C 0.02131 0.38719 0.30334 0.0
C4876 C 0.0122 0.37322 0.30027 0.0
C4877 C 0.0119 0.36314 0.30837 0.0
C4878 C 0.02124 0.39788 0.29509 0.0
C4879 C 0.02427 0.39839 0.28118 0.0
C4880 C 0.01875 0.40786 0.30101 0.0
C4881 C 0.01476 0.40737 0.31549 0.0
C4882 C 0.00347 0.39548 0.32048 0.0
C4883 C 0.9998 0.39505 0.33414 0.0
C4884 C 0.00727 0.40647 0.3429 0.0
C4885 C 0.01842 0.41837 0.338 0.0
C4886 C 0.02215 0.41886 0.32435 0.0
C4887 C 0.01579 0.43678 0.25094 0.0
C4888 C 0.02486 0.45071 0.25445 0.0
C4889 C 0.01485 0.42643 0.25908 0.0
C4890 C 0.02307 0.4298 0.2708 0.0
C4891 C 0.03192 0.44368 0.27449 0.0
C4892 C 0.03288 0.45404 0.26634 0.0
C4893 C 0.02274 0.41884 0.27899 0.0
C4894 C 0.01964 0.41828 0.2929 0.0
C4895 C 0.02519 0.40882 0.27307 0.0
C4896 C 0.02929 0.40933 0.25863 0.0
C4897 C 0.04068 0.42117 0.25372 0.0
C4898 C 0.04441 0.42163 0.24008 0.0
C4899 C 0.03691 0.41026 0.23126 0.0
C4900 C 0.02566 0.39839 0.23609 0.0
C4901 C 0.02187 0.39789 0.24972 0.0
H4902 H 0.03982 0.41063 0.2207 0.0
H4903 H 0.0044 0.40612 0.35348 0.0
H4904 H 0.66915 0.64503 0.3147 0.0
H4905 H 0.65558 0.62417 0.3006 0.0
H4906 H 0.62655 0.63652 0.29311 0.0
H4907 H 0.63969 0.6569 0.30793 0.0
H4908 H 0.61383 0.61203 0.3004 0.0
H4909 H 0.64889 0.63524 0.26757 0.0
H4910 H 0.67232 0.64785 0.25927 0.0
H4911 H 0.67702 0.61385 0.26867 0.0
H4912 H 0.65367 0.60111 0.27717 0.0
H4913 H 0.57264 0.55533 0.2565 0.0
H4914 H 0.5885 0.57895 0.26428 0.0
H4915 H 0.61725 0.56742 0.27591 0.0
H4916 H 0.60164 0.54386 0.26751 0.0
H4917 H 0.63003 0.59204 0.265 0.0
H4918 H 0.59563 0.56981 0.29923 0.0
H4919 H 0.5722 0.5572 0.30756 0.0
H4920 H 0.56647 0.58985 0.2953 0.0
H4921 H 0.58981 0.60257 0.28674 0.0
C4922 C 0.66 0.64338 0.30981 0.0
C4923 C 0.6554 0.65249 0.31241 0.0
C4924 C 0.65227 0.63149 0.30167 0.0
C4925 C 0.64005 0.62876 0.29565 0.0
C4926 C 0.63588 0.63832 0.29769 0.0
C4927 C 0.64341 0.64999 0.30611 0.0
C4928 C 0.63092 0.61539 0.2884 0.0
C4929 C 0.61736 0.60784 0.29244 0.0
C4930 C 0.63554 0.60965 0.27831 0.0
C4931 C 0.64955 0.61726 0.2731 0.0
C4932 C 0.65494 0.63049 0.26794 0.0
C4933 C 0.66821 0.63765 0.26319 0.0
C4934 C 0.67616 0.63166 0.26347 0.0
C4935 C 0.67085 0.61848 0.26846 0.0
C4936 C 0.6576 0.61128 0.27323 0.0
C4937 C 0.58245 0.55787 0.26043 0.0
C4938 C 0.58601 0.54777 0.26118 0.0
C4939 C 0.59146 0.57136 0.265 0.0
C4940 C 0.604 0.57492 0.27084 0.0
C4941 C 0.60766 0.56493 0.27139 0.0
C4942 C 0.59874 0.55148 0.26663 0.0
C4943 C 0.61303 0.58885 0.27698 0.0
C4944 C 0.62655 0.59641 0.27281 0.0
C4945 C 0.6084 0.59467 0.28695 0.0
C4946 C 0.59441 0.58707 0.29224 0.0
C4947 C 0.58934 0.57426 0.29825 0.0
C4948 C 0.57608 0.5671 0.30301 0.0
C4949 C 0.56784 0.5727 0.30193 0.0
C4950 C 0.57285 0.58551 0.29612 0.0
C4951 C 0.5861 0.5927 0.29132 0.0
H4952 H 0.55758 0.56714 0.30562 0.0
H4953 H 0.68643 0.63723 0.25979 0.0
H4954 H 0.33957 0.96466 0.33129 0.0
H4955 H 0.35648 0.96503 0.31588 0.0
H4956 H 0.37102 0.0075 0.3076 0.0
H4957 H 0.35392 0.00708 0.32263 0.0
H4958 H 0.37098 0.99427 0.28494 0.0
H4959 H 0.3865 0.99767 0.33165 0.0
H4960 H 0.38471 0.98983 0.3552 0.0
H4961 H 0.38152 0.95242 0.34003 0.0
H4962 H 0.38313 0.95999 0.31638 0.0
H4963 H 0.43935 0.02221 0.2675 0.0
H4964 H 0.41755 0.0157 0.2776 0.0
H4965 H 0.40874 0.97413 0.28128 0.0
H4966 H 0.43073 0.9807 0.27136 0.0
H4967 H 0.40386 0.9834 0.3045 0.0
H4968 H 0.39166 0.98177 0.25777 0.0
H4969 H 0.39404 0.99012 0.23439 0.0
H4970 H 0.39137 0.02449 0.24946 0.0
H4971 H 0.38917 0.01645 0.27297 0.0
C4972 C 0.34628 0.97403 0.32607 0.0
C4973 C 0.34549 0.98588 0.32826 0.0
C4974 C 0.35597 0.97425 0.31731 0.0
C4975 C 0.36519 0.98637 0.31077 0.0
C4976 C 0.36405 0.99804 0.31254 0.0
C4977 C 0.35429 0.99779 0.32118 0.0
C4978 C 0.37644 0.98722 0.30259 0.0
C4979 C 0.37821 0.99197 0.28923 0.0
C4980 C 0.38567 0.98383 0.30804 0.0
C4981 C 0.38477 0.97932 0.32225 0.0
C4982 C 0.38532 0.98773 0.33334 0.0
C4983 C 0.38435 0.98335 0.34671 0.0
C4984 C 0.38296 0.97062 0.34911 0.0
C4985 C 0.38257 0.96227 0.33815 0.0
C4986 C 0.38352 0.9666 0.32477 0.0
C4987 C 0.43264 0.01162 0.27022 0.0
C4988 C 0.43661 0.00189 0.26836 0.0
C4989 C 0.42018 0.0079 0.27596 0.0
C4990 C 0.41139 0.99436 0.27997 0.0
C4991 C 0.4153 0.9846 0.27813 0.0
C4992 C 0.42781 0.98833 0.2724 0.0
C4993 C 0.39858 0.99075 0.28694 0.0
C4994 C 0.39651 0.98549 0.30009 0.0
C4995 C 0.38912 0.99371 0.2813 0.0
C4996 C 0.39033 0.99854 0.26716 0.0
C4997 C 0.39167 0.99115 0.25612 0.0
C4998 C 0.39297 0.99583 0.24284 0.0
C4999 C 0.39288 0.00784 0.24044 0.0
C5000 C 0.39144 0.01519 0.25133 0.0
C5001 C 0.39015 0.01056 0.26463 0.0
H5002 H 0.39389 0.01145 0.23015 0.0
H5003 H 0.38221 0.96724 0.35946 0.0
H5004 H 0.62123 0.96315 0.3289 0.0
H5005 H 0.60345 0.9636 0.31589 0.0
H5006 H 0.63297 0.0027 0.29973 0.0
H5007 H 0.65086 0.00231 0.3127 0.0
H5008 H 0.59633 0.98267 0.31973 0.0
H5009 H 0.62106 0.00554 0.26821 0.0
H5010 H 0.63784 0.00558 0.25253 0.0
H5011 H 0.62876 0.9664 0.26691 0.0
H5012 H 0.6118 0.96604 0.28253 0.0
H5013 H 0.56414 0.01967 0.28756 0.0
H5014 H 0.58385 0.0132 0.2971 0.0
H5015 H 0.56138 0.96862 0.27028 0.0
H5016 H 0.54082 0.97371 0.26006 0.0
H5017 H 0.59445 0.98904 0.27004 0.0
H5018 H 0.55822 0.96876 0.30215 0.0
H5019 H 0.54135 0.96857 0.31779 0.0
H5020 H 0.57311 0.00136 0.34208 0.0
H5021 H 0.59017 0.00189 0.32646 0.0
C5022 C 0.62399 0.97175 0.32241 0.0
C5023 C 0.63745 0.98273 0.32189 0.0
C5024 C 0.6138 0.972 0.315 0.0
C5025 C 0.61687 0.98317 0.30683 0.0
C5026 C 0.63039 0.9939 0.30585 0.0
C5027 C 0.6406 0.99368 0.31331 0.0
C5028 C 0.6058 0.98414 0.30035 0.0
C5029 C 0.59593 0.984 0.30885 0.0
C5030 C 0.60522 0.98584 0.28614 0.0
C5031 C 0.61524 0.98583 0.27663 0.0
C5032 C 0.6226 0.9969 0.26798 0.0
C5033 C 0.63215 0.99699 0.25911 0.0
C5034 C 0.63439 0.98602 0.25875 0.0
C5035 C 0.62705 0.97492 0.26723 0.0
C5036 C 0.61748 0.97478 0.27611 0.0
C5037 C 0.56328 0.00996 0.28481 0.0
C5038 C 0.55185 0.99852 0.2708 0.0
C5039 C 0.57592 0.00622 0.29004 0.0
C5040 C 0.57536 0.99083 0.28387 0.0
C5041 C 0.56174 0.97808 0.27308 0.0
C5042 C 0.54853 0.98079 0.26727 0.0
C5043 C 0.58527 0.98775 0.2895 0.0
C5044 C 0.59489 0.98759 0.28088 0.0
C5045 C 0.58567 0.98578 0.3036 0.0
C5046 C 0.57546 0.98545 0.31306 0.0
C5047 C 0.5616 0.97602 0.31076 0.0
C5048 C 0.552 0.97583 0.31963 0.0
C5049 C 0.55616 0.98497 0.3309 0.0
C5050 C 0.56991 0.9943 0.33334 0.0
C5051 C 0.57955 0.99454 0.32448 0.0
H5052 H 0.54871 0.98481 0.33776 0.0
H5053 H 0.64179 0.98611 0.25189 0.0
H5054 H 0.99153 0.65123 0.30927 0.0
H5055 H 0.98788 0.63033 0.29727 0.0
H5056 H 0.02675 0.63868 0.31171 0.0
H5057 H 0.03041 0.65944 0.3238 0.0
H5058 H 0.00161 0.62443 0.27748 0.0
H5059 H 0.02321 0.6086 0.32133 0.0
H5060 H 0.02705 0.61248 0.34623 0.0
H5061 H 0.99343 0.61862 0.34968 0.0
H5062 H 0.98929 0.61461 0.32483 0.0
H5063 H 0.01511 0.56754 0.25259 0.0
H5064 H 0.01697 0.59241 0.26364 0.0
H5065 H 0.97947 0.56549 0.29615 0.0
H5066 H 0.97639 0.53987 0.28591 0.0
H5067 H 0.00151 0.58927 0.3065 0.0
H5068 H 0.9758 0.58433 0.26569 0.0
H5069 H 0.97052 0.58013 0.241 0.0
H5070 H 0.00982 0.61442 0.23213 0.0
H5071 H 0.01533 0.61875 0.25678 0.0
C5072 C 0.99936 0.64869 0.30973 0.0
C5073 C 0.01118 0.65688 0.31759 0.0
C5074 C 0.99728 0.63678 0.30285 0.0
C5075 C 0.00696 0.63287 0.30378 0.0
C5076 C 0.01907 0.64142 0.31104 0.0
C5077 C 0.02115 0.65329 0.31792 0.0
C5078 C 0.00407 0.61944 0.29791 0.0
C5079 C 0.00163 0.61676 0.28382 0.0
C5080 C 0.00386 0.60933 0.30621 0.0
C5081 C 0.00602 0.61141 0.32121 0.0
C5082 C 0.0166 0.6107 0.32742 0.0
C5083 C 0.01884 0.61294 0.34152 0.0
C5084 C 0.01051 0.61582 0.34953 0.0
C5085 C 0.99989 0.61642 0.34346 0.0
C5086 C 0.9976 0.61418 0.32937 0.0
C5087 C 0.00881 0.56721 0.26094 0.0
C5088 C 0.99376 0.55083 0.2664 0.0
C5089 C 0.00941 0.58252 0.26739 0.0
C5090 C 0.99776 0.58153 0.28029 0.0
C5091 C 0.98577 0.56553 0.28795 0.0
C5092 C 0.98429 0.54963 0.2822 0.0
C5093 C 0.99929 0.59437 0.28606 0.0
C5094 C 0.00149 0.59693 0.30016 0.0
C5095 C 0.99921 0.60432 0.2778 0.0
C5096 C 0.99603 0.60173 0.26302 0.0
C5097 C 0.98333 0.59091 0.25845 0.0
C5098 C 0.98029 0.58853 0.24448 0.0
C5099 C 0.98985 0.59697 0.235 0.0
C5100 C 0.00244 0.60786 0.23948 0.0
C5101 C 0.00553 0.61029 0.25345 0.0
H5102 H 0.98748 0.5951 0.22418 0.0
H5103 H 0.01228 0.61758 0.36044 0.0
H5104 H 0.35114 0.33316 0.31315 0.0
H5105 H 0.37126 0.34522 0.299 0.0
H5106 H 0.36953 0.38218 0.30295 0.0
H5107 H 0.34949 0.37024 0.31721 0.0
H5108 H 0.37631 0.37712 0.27625 0.0
H5109 H 0.38936 0.37912 0.32361 0.0
H5110 H 0.38936 0.36904 0.34556 0.0
H5111 H 0.40542 0.34627 0.32603 0.0
H5112 H 0.40531 0.35607 0.3039 0.0
H5113 H 0.44309 0.43278 0.26894 0.0
H5114 H 0.42024 0.41573 0.27594 0.0
H5115 H 0.43018 0.38402 0.27258 0.0
H5116 H 0.45313 0.4011 0.26552 0.0
H5117 H 0.41859 0.38365 0.29676 0.0
H5118 H 0.40858 0.38404 0.24996 0.0
H5119 H 0.40862 0.39403 0.22795 0.0
H5120 H 0.38698 0.4119 0.2458 0.0
H5121 H 0.38698 0.40219 0.268 0.0
C5122 C 0.35492 0.34379 0.31082 0.0
C5123 C 0.34884 0.35081 0.31637 0.0
C5124 C 0.36641 0.35066 0.30276 0.0
C5125 C 0.37191 0.3646 0.30004 0.0
C5126 C 0.36541 0.37141 0.30494 0.0
C5127 C 0.35402 0.3646 0.31313 0.0
C5128 C 0.38503 0.37242 0.29307 0.0
C5129 C 0.38558 0.37862 0.28072 0.0
C5130 C 0.39703 0.37403 0.29878 0.0
C5131 C 0.39716 0.36818 0.31208 0.0
C5132 C 0.39277 0.37186 0.32397 0.0
C5133 C 0.39281 0.36622 0.33645 0.0
C5134 C 0.39734 0.35698 0.33718 0.0
C5135 C 0.40188 0.3534 0.32544 0.0
C5136 C 0.40183 0.359 0.31293 0.0
C5137 C 0.44034 0.42214 0.2695 0.0
C5138 C 0.44986 0.41824 0.26664 0.0
C5139 C 0.42727 0.4124 0.27345 0.0
C5140 C 0.42347 0.39859 0.27465 0.0
C5141 C 0.4329 0.39462 0.27165 0.0
C5142 C 0.44597 0.40435 0.26761 0.0
C5143 C 0.40996 0.38857 0.27998 0.0
C5144 C 0.40932 0.38198 0.29209 0.0
C5145 C 0.3979 0.38658 0.27401 0.0
C5146 C 0.39788 0.39247 0.26069 0.0
C5147 C 0.40393 0.3902 0.24923 0.0
C5148 C 0.40393 0.39579 0.23671 0.0
C5149 C 0.39783 0.40362 0.23548 0.0
C5150 C 0.39171 0.40584 0.24677 0.0
C5151 C 0.39169 0.40029 0.25933 0.0
H5152 H 0.39784 0.40793 0.22578 0.0
H5153 H 0.39738 0.35263 0.34685 0.0
H5154 H 0.34664 0.33201 0.37444 0.0
H5155 H 0.35322 0.31852 0.38763 0.0
H5156 H 0.31516 0.28172 0.3774 0.0
H5157 H 0.3086 0.29521 0.3638 0.0
H5158 H 0.34453 0.3032 0.40892 0.0
H5159 H 0.32065 0.25495 0.37319 0.0
H5160 H 0.3135 0.24842 0.34908 0.0
H5161 H 0.34267 0.28935 0.33722 0.0
H5162 H 0.3501 0.29606 0.36123 0.0
H5163 H 0.3538 0.2528 0.43954 0.0
H5164 H 0.34303 0.2635 0.4278 0.0
H5165 H 0.371 0.27373 0.39464 0.0
H5166 H 0.38172 0.26292 0.4063 0.0
H5167 H 0.34566 0.26466 0.38514 0.0
H5168 H 0.37633 0.29752 0.41856 0.0
H5169 H 0.38631 0.30594 0.44157 0.0
H5170 H 0.34831 0.29921 0.45618 0.0
H5171 H 0.33804 0.29053 0.43328 0.0
C5172 C 0.33957 0.32107 0.3751 0.0
C5173 C 0.32713 0.31466 0.36797 0.0
C5174 C 0.34335 0.31336 0.3827 0.0
C5175 C 0.33479 0.29907 0.38336 0.0
C5176 C 0.32203 0.29271 0.37684 0.0
C5177 C 0.31826 0.30044 0.36915 0.0
C5178 C 0.33963 0.2909 0.3903 0.0
C5179 C 0.34464 0.29468 0.40376 0.0
C5180 C 0.34008 0.27998 0.38349 0.0
C5181 C 0.3358 0.27603 0.36901 0.0
C5182 C 0.32555 0.26254 0.36542 0.0
C5183 C 0.32145 0.25881 0.35178 0.0
C5184 C 0.32759 0.26848 0.34163 0.0
C5185 C 0.33788 0.28188 0.3451 0.0
C5186 C 0.34203 0.28566 0.35872 0.0
C5187 C 0.35751 0.25715 0.42965 0.0
C5188 C 0.3685 0.25688 0.42374 0.0
C5189 C 0.3514 0.26332 0.42299 0.0
C5190 C 0.35625 0.26947 0.41038 0.0
C5191 C 0.36704 0.26898 0.40433 0.0
C5192 C 0.37317 0.26282 0.41099 0.0
C5193 C 0.35047 0.27693 0.40375 0.0
C5194 C 0.34532 0.27302 0.39037 0.0
C5195 C 0.35024 0.28799 0.41048 0.0
C5196 C 0.35638 0.29323 0.42425 0.0
C5197 C 0.37007 0.29772 0.42671 0.0
C5198 C 0.37578 0.30256 0.43973 0.0
C5199 C 0.36793 0.30307 0.45034 0.0
C5200 C 0.35436 0.29878 0.44795 0.0
C5201 C 0.3486 0.2939 0.43496 0.0
H5202 H 0.37237 0.30683 0.46041 0.0
H5203 H 0.32439 0.26557 0.33108 0.0
H5204 H 0.66163 0.01607 0.37644 0.0
H5205 H 0.67376 0.03814 0.38922 0.0
H5206 H 0.71183 0.0423 0.37795 0.0
H5207 H 0.69985 0.02029 0.36542 0.0
H5208 H 0.71296 0.05124 0.40381 0.0
H5209 H 0.69799 0.05749 0.35983 0.0
H5210 H 0.68095 0.05314 0.34213 0.0
H5211 H 0.66083 0.06604 0.37037 0.0
H5212 H 0.67767 0.0703 0.38828 0.0
H5213 H 0.76095 0.12202 0.39988 0.0
H5214 H 0.74499 0.09736 0.3966 0.0
H5215 H 0.71269 0.1026 0.41158 0.0
H5216 H 0.72869 0.12738 0.41481 0.0
H5217 H 0.70592 0.08812 0.38771 0.0
H5218 H 0.72395 0.08587 0.43047 0.0
H5219 H 0.74171 0.09077 0.44747 0.0
H5220 H 0.75674 0.07084 0.42127 0.0
H5221 H 0.73919 0.06599 0.40401 0.0
C5222 C 0.67258 0.02161 0.37687 0.0
C5223 C 0.67979 0.01652 0.36982 0.0
C5224 C 0.67949 0.03423 0.38413 0.0
C5225 C 0.69371 0.04195 0.38439 0.0
C5226 C 0.70087 0.03653 0.3779 0.0
C5227 C 0.69399 0.02397 0.37067 0.0
C5228 C 0.70127 0.05609 0.39053 0.0
C5229 C 0.71145 0.05932 0.40029 0.0
C5230 C 0.69907 0.06656 0.38619 0.0
C5231 C 0.68897 0.06404 0.37543 0.0
C5232 C 0.68987 0.05929 0.36229 0.0
C5233 C 0.68026 0.05686 0.35222 0.0
C5234 C 0.66979 0.05927 0.35514 0.0
C5235 C 0.66892 0.06415 0.36813 0.0
C5236 C 0.6785 0.06657 0.37824 0.0
C5237 C 0.7505 0.11787 0.40271 0.0
C5238 C 0.74608 0.12658 0.40771 0.0
C5239 C 0.74139 0.10378 0.40088 0.0
C5240 C 0.72767 0.09811 0.40399 0.0
C5241 C 0.72325 0.10675 0.40919 0.0
C5242 C 0.73238 0.12087 0.41107 0.0
C5243 C 0.71785 0.08336 0.40077 0.0
C5244 C 0.70726 0.08001 0.3915 0.0
C5245 C 0.71975 0.07282 0.40551 0.0
C5246 C 0.73029 0.07564 0.4159 0.0
C5247 C 0.7311 0.08261 0.42829 0.0
C5248 C 0.74112 0.08537 0.43798 0.0
C5249 C 0.75036 0.08114 0.43544 0.0
C5250 C 0.74958 0.07411 0.42322 0.0
C5251 C 0.73958 0.07134 0.41348 0.0
H5252 H 0.75812 0.08328 0.44296 0.0
H5253 H 0.66236 0.05739 0.34733 0.0
H5254 H 0.97804 0.68587 0.3484 0.0
H5255 H 0.95713 0.67739 0.36115 0.0
H5256 H 0.97307 0.66344 0.39252 0.0
H5257 H 0.99357 0.67104 0.37922 0.0
H5258 H 0.94946 0.64473 0.38817 0.0
H5259 H 0.96837 0.69304 0.39588 0.0
H5260 H 0.97848 0.71731 0.38989 0.0
H5261 H 0.94298 0.70706 0.36636 0.0
H5262 H 0.93273 0.6827 0.37207 0.0
H5263 H 0.89879 0.63366 0.43692 0.0
H5264 H 0.92056 0.64515 0.42528 0.0
H5265 H 0.90037 0.64357 0.38773 0.0
H5266 H 0.87848 0.63164 0.39919 0.0
H5267 H 0.92581 0.6704 0.39585 0.0
H5268 H 0.90775 0.62143 0.3888 0.0
H5269 H 0.89809 0.59781 0.39676 0.0
H5270 H 0.93341 0.6108 0.42175 0.0
H5271 H 0.94318 0.63456 0.41411 0.0
C5272 C 0.97712 0.68116 0.35812 0.0
C5273 C 0.9874 0.67913 0.36286 0.0
C5274 C 0.96518 0.67637 0.36547 0.0
C5275 C 0.96349 0.66992 0.37798 0.0
C5276 C 0.97402 0.66832 0.3829 0.0
C5277 C 0.98578 0.67272 0.37534 0.0
C5278 C 0.95049 0.66405 0.3855 0.0
C5279 C 0.94449 0.65052 0.39002 0.0
C5280 C 0.9437 0.67137 0.38776 0.0
C5281 C 0.94984 0.68602 0.38431 0.0
C5282 C 0.96276 0.69595 0.38935 0.0
C5283 C 0.96851 0.70973 0.38602 0.0
C5284 C 0.96139 0.71372 0.37772 0.0
C5285 C 0.94849 0.70395 0.37277 0.0
C5286 C 0.9427 0.69016 0.37607 0.0
C5287 C 0.89899 0.63571 0.42618 0.0
C5288 C 0.8869 0.63153 0.41891 0.0
C5289 C 0.91142 0.64233 0.41957 0.0
C5290 C 0.91202 0.64513 0.40565 0.0
C5291 C 0.90008 0.64149 0.39849 0.0
C5292 C 0.8876 0.63464 0.40503 0.0
C5293 C 0.92508 0.65132 0.39847 0.0
C5294 C 0.93098 0.6648 0.39401 0.0
C5295 C 0.93194 0.6441 0.39651 0.0
C5296 C 0.92612 0.6298 0.401 0.0
C5297 C 0.9134 0.61927 0.39609 0.0
C5298 C 0.90791 0.60586 0.40052 0.0
C5299 C 0.91512 0.60281 0.40978 0.0
C5300 C 0.92783 0.61318 0.4146 0.0
C5301 C 0.93335 0.62662 0.41021 0.0
H5302 H 0.91086 0.59242 0.4132 0.0
H5303 H 0.96586 0.72439 0.37515 0.0
H5304 H 0.35654 0.99675 0.69469 0.0
H5305 H 0.37371 0.99729 0.70958 0.0
H5306 H 0.39134 0.04101 0.71659 0.0
H5307 H 0.37473 0.04058 0.70076 0.0
H5308 H 0.41033 0.03723 0.7129 0.0
H5309 H 0.37218 0.01452 0.74187 0.0
H5310 H 0.34889 0.99734 0.74832 0.0
H5311 H 0.35692 0.96489 0.74036 0.0
H5312 H 0.38021 0.98184 0.73369 0.0
H5313 H 0.45652 0.03781 0.76138 0.0
H5314 H 0.43704 0.03874 0.75286 0.0
H5315 H 0.4202 0.99797 0.73486 0.0
H5316 H 0.43954 0.99698 0.74342 0.0
H5317 H 0.4007 0.00197 0.74701 0.0
H5318 H 0.4385 0.02585 0.71598 0.0
H5319 H 0.46189 0.04371 0.71057 0.0
H5320 H 0.45409 0.07514 0.72437 0.0
H5321 H 0.4307 0.05745 0.73003 0.0
C5322 C 0.364 0.00644 0.69955 0.0
C5323 C 0.36433 0.01862 0.69663 0.0
C5324 C 0.37377 0.00674 0.70818 0.0
C5325 C 0.38373 0.01915 0.71454 0.0
C5326 C 0.3838 0.03129 0.71186 0.0
C5327 C 0.37429 0.03105 0.70286 0.0
C5328 C 0.39461 0.01961 0.72314 0.0
C5329 C 0.40812 0.02968 0.72058 0.0
C5330 C 0.3919 0.00969 0.73309 0.0
C5331 C 0.37792 0.99946 0.7372 0.0
C5332 C 0.36896 0.00371 0.74142 0.0
C5333 C 0.35576 0.99401 0.74513 0.0
C5334 C 0.35142 0.98003 0.74473 0.0
C5335 C 0.36029 0.97572 0.74066 0.0
C5336 C 0.3735 0.98537 0.73694 0.0
C5337 C 0.44852 0.02897 0.75582 0.0
C5338 C 0.44948 0.01728 0.75315 0.0
C5339 C 0.43745 0.02953 0.75092 0.0
C5340 C 0.42722 0.01845 0.74316 0.0
C5341 C 0.42794 0.0066 0.74088 0.0
C5342 C 0.439 0.00605 0.74575 0.0
C5343 C 0.4162 0.01944 0.73659 0.0
C5344 C 0.40274 0.00964 0.73951 0.0
C5345 C 0.41892 0.02972 0.72716 0.0
C5346 C 0.43291 0.04033 0.72355 0.0
C5347 C 0.44181 0.03657 0.71793 0.0
C5348 C 0.45506 0.04666 0.71482 0.0
C5349 C 0.45948 0.06055 0.71716 0.0
C5350 C 0.45065 0.06438 0.72258 0.0
C5351 C 0.4374 0.05433 0.72574 0.0
H5352 H 0.46975 0.06834 0.71474 0.0
H5353 H 0.34119 0.97254 0.74759 0.0
H5354 H 0.0176 0.35788 0.7052 0.0
H5355 H 0.0194 0.37429 0.72295 0.0
H5356 H 0.97683 0.35955 0.718 0.0
H5357 H 0.97525 0.34379 0.69963 0.0
H5358 H 0.98883 0.38514 0.72031 0.0
H5359 H 0.99116 0.35197 0.74661 0.0
H5360 H 0.99901 0.33652 0.75355 0.0
H5361 H 0.03891 0.37123 0.76119 0.0
H5362 H 0.03136 0.38689 0.75411 0.0
H5363 H 0.9864 0.42589 0.78401 0.0
H5364 H 0.98152 0.40347 0.76539 0.0
H5365 H 0.03115 0.42123 0.76233 0.0
H5366 H 0.03743 0.44418 0.78073 0.0
H5367 H 0.01355 0.39235 0.76401 0.0
H5368 H 0.01041 0.42318 0.73051 0.0
H5369 H 0.00167 0.43797 0.72369 0.0
H5370 H 0.96112 0.40553 0.73168 0.0
H5371 H 0.96967 0.39058 0.73852 0.0
C5372 C 0.00863 0.35814 0.70795 0.0
C5373 C 0.99629 0.34958 0.70107 0.0
C5374 C 0.00963 0.36743 0.71818 0.0
C5375 C 0.99818 0.368 0.72207 0.0
C5376 C 0.98581 0.35933 0.71523 0.0
C5377 C 0.9849 0.3503 0.70474 0.0
C5378 C 0.99926 0.37805 0.73281 0.0
C5379 C 0.99398 0.38644 0.72998 0.0
C5380 C 0.00612 0.37997 0.74542 0.0
C5381 C 0.01071 0.3706 0.74972 0.0
C5382 C 0.00164 0.35631 0.74967 0.0
C5383 C 0.00603 0.34751 0.75365 0.0
C5384 C 0.01946 0.35288 0.75778 0.0
C5385 C 0.02852 0.36707 0.75798 0.0
C5386 C 0.02418 0.37592 0.754 0.0
C5387 C 0.99463 0.42472 0.78041 0.0
C5388 C 0.01268 0.4388 0.78234 0.0
C5389 C 0.99176 0.41122 0.76832 0.0
C5390 C 0.00581 0.41047 0.76115 0.0
C5391 C 0.02308 0.42239 0.76646 0.0
C5392 C 0.02705 0.43629 0.77844 0.0
C5393 C 0.00319 0.39929 0.75136 0.0
C5394 C 0.00824 0.39078 0.75439 0.0
C5395 C 0.99581 0.39696 0.73914 0.0
C5396 C 0.99067 0.4059 0.73519 0.0
C5397 C 0.99964 0.41925 0.73084 0.0
C5398 C 0.99472 0.42764 0.72695 0.0
C5399 C 0.98085 0.42271 0.72731 0.0
C5400 C 0.97186 0.40936 0.73146 0.0
C5401 C 0.97673 0.40092 0.73533 0.0
H5402 H 0.97707 0.42923 0.72432 0.0
H5403 H 0.02284 0.34606 0.76085 0.0
H5404 H 0.64291 0.63009 0.69039 0.0
H5405 H 0.62333 0.61688 0.70471 0.0
H5406 H 0.63123 0.65426 0.72574 0.0
H5407 H 0.65066 0.66764 0.711 0.0
H5408 H 0.61878 0.61201 0.73013 0.0
H5409 H 0.60136 0.65129 0.73496 0.0
H5410 H 0.60313 0.67072 0.72249 0.0
H5411 H 0.60799 0.65357 0.68482 0.0
H5412 H 0.60607 0.63397 0.69704 0.0
H5413 H 0.56085 0.58016 0.77131 0.0
H5414 H 0.58282 0.59763 0.7628 0.0
H5415 H 0.56366 0.59945 0.72581 0.0
H5416 H 0.54156 0.58271 0.73471 0.0
H5417 H 0.5828 0.62356 0.73157 0.0
H5418 H 0.5795 0.57946 0.7292 0.0
H5419 H 0.57623 0.55798 0.73842 0.0
H5420 H 0.61038 0.58126 0.76544 0.0
H5421 H 0.61374 0.60288 0.75648 0.0
C5422 C 0.64055 0.63551 0.69812 0.0
C5423 C 0.64824 0.64991 0.69948 0.0
C5424 C 0.62936 0.62793 0.70635 0.0
C5425 C 0.62566 0.63457 0.7162 0.0
C5426 C 0.63372 0.64892 0.71803 0.0
C5427 C 0.64485 0.65655 0.70965 0.0
C5428 C 0.61303 0.62638 0.72403 0.0
C5429 C 0.61096 0.6146 0.73052 0.0
C5430 C 0.6027 0.62961 0.72441 0.0
C5431 C 0.60375 0.64128 0.71695 0.0
C5432 C 0.60278 0.65166 0.72401 0.0
C5433 C 0.60381 0.6627 0.71699 0.0
C5434 C 0.60573 0.6634 0.70288 0.0
C5435 C 0.60656 0.65304 0.69575 0.0
C5436 C 0.60551 0.64198 0.70272 0.0
C5437 C 0.56126 0.58447 0.76149 0.0
C5438 C 0.54941 0.58006 0.75368 0.0
C5439 C 0.57388 0.59439 0.75656 0.0
C5440 C 0.57498 0.5997 0.74352 0.0
C5441 C 0.56313 0.59557 0.7359 0.0
C5442 C 0.5505 0.58594 0.74096 0.0
C5443 C 0.58843 0.60902 0.73744 0.0
C5444 C 0.59069 0.62106 0.73135 0.0
C5445 C 0.59873 0.60574 0.73696 0.0
C5446 C 0.59678 0.59277 0.74228 0.0
C5447 C 0.58626 0.57999 0.73716 0.0
C5448 C 0.5844 0.56779 0.74233 0.0
C5449 C 0.59307 0.56826 0.75253 0.0
C5450 C 0.60366 0.58092 0.75755 0.0
C5451 C 0.60555 0.59314 0.75243 0.0
H5452 H 0.59161 0.55881 0.75653 0.0
H5453 H 0.60654 0.67196 0.69746 0.0
H5454 H 0.64999 0.67737 0.64821 0.0
H5455 H 0.64559 0.6926 0.63522 0.0
H5456 H 0.68764 0.72453 0.63912 0.0
H5457 H 0.69201 0.70939 0.65273 0.0
H5458 H 0.67264 0.73508 0.64373 0.0
H5459 H 0.67306 0.70593 0.60798 0.0
H5460 H 0.66708 0.68395 0.5963 0.0
H5461 H 0.62526 0.67219 0.59526 0.0
H5462 H 0.63096 0.69401 0.60709 0.0
H5463 H 0.65824 0.77554 0.60029 0.0
H5464 H 0.6682 0.76247 0.60851 0.0
H5465 H 0.62837 0.72628 0.61059 0.0
H5466 H 0.61846 0.73917 0.60202 0.0
H5467 H 0.64577 0.71967 0.60059 0.0
H5468 H 0.64525 0.74741 0.63902 0.0
H5469 H 0.65114 0.76929 0.65087 0.0
H5470 H 0.6934 0.78367 0.64659 0.0
H5471 H 0.68775 0.76193 0.63457 0.0
C5472 C 0.65836 0.68759 0.64621 0.0
C5473 C 0.67138 0.69215 0.65144 0.0
C5474 C 0.65583 0.69628 0.63868 0.0
C5475 C 0.66633 0.70965 0.6359 0.0
C5476 C 0.67939 0.71424 0.64105 0.0
C5477 C 0.68189 0.70557 0.64879 0.0
C5478 C 0.66339 0.71894 0.6282 0.0
C5479 C 0.66703 0.73182 0.63414 0.0
C5480 C 0.65589 0.71467 0.61576 0.0
C5481 C 0.65244 0.70159 0.60848 0.0
C5482 C 0.66258 0.69863 0.60532 0.0
C5483 C 0.65924 0.6862 0.59867 0.0
C5484 C 0.6458 0.67668 0.59505 0.0
C5485 C 0.63567 0.67958 0.59805 0.0
C5486 C 0.63895 0.69199 0.60471 0.0
C5487 C 0.65166 0.76473 0.60225 0.0
C5488 C 0.63758 0.75829 0.60024 0.0
C5489 C 0.65734 0.7573 0.60706 0.0
C5490 C 0.64903 0.7434 0.61026 0.0
C5491 C 0.63501 0.73696 0.60811 0.0
C5492 C 0.62935 0.74432 0.60322 0.0
C5493 C 0.65472 0.73558 0.61631 0.0
C5494 C 0.6516 0.723 0.61005 0.0
C5495 C 0.6627 0.74013 0.62843 0.0
C5496 C 0.66608 0.75312 0.63578 0.0
C5497 C 0.6558 0.75528 0.64054 0.0
C5498 C 0.65909 0.76765 0.64729 0.0
C5499 C 0.67264 0.77788 0.64945 0.0
C5500 C 0.68292 0.77575 0.6449 0.0
C5501 C 0.67967 0.7634 0.63812 0.0
H5502 H 0.67517 0.78745 0.65467 0.0
H5503 H 0.64323 0.66706 0.58992 0.0
H5504 H 0.3102 0.99244 0.63872 0.0
H5505 H 0.29676 0.97107 0.62538 0.0
H5506 H 0.32497 0.95848 0.63596 0.0
H5507 H 0.33892 0.98037 0.64867 0.0
H5508 H 0.31491 0.9488 0.61125 0.0
H5509 H 0.29578 0.94908 0.65498 0.0
H5510 H 0.28728 0.95835 0.67283 0.0
H5511 H 0.25665 0.95448 0.64514 0.0
H5512 H 0.26508 0.94535 0.62707 0.0
H5513 H 0.2683 0.87664 0.60393 0.0
H5514 H 0.28484 0.90001 0.61207 0.0
H5515 H 0.25679 0.91304 0.60236 0.0
H5516 H 0.24002 0.88959 0.59491 0.0
H5517 H 0.2672 0.9226 0.62622 0.0
H5518 H 0.28607 0.92132 0.58258 0.0
H5519 H 0.29469 0.91177 0.56514 0.0
H5520 H 0.32571 0.91695 0.59306 0.0
H5521 H 0.31717 0.92638 0.61072 0.0
C5522 C 0.31369 0.98525 0.63791 0.0
C5523 C 0.32548 0.98792 0.64479 0.0
C5524 C 0.30597 0.97301 0.63037 0.0
C5525 C 0.3096 0.96296 0.63007 0.0
C5526 C 0.3219 0.96603 0.63616 0.0
C5527 C 0.32987 0.97851 0.6434 0.0
C5528 C 0.30001 0.94892 0.62443 0.0
C5529 C 0.3045 0.94301 0.61459 0.0
C5530 C 0.28638 0.9414 0.62869 0.0
C5531 C 0.28113 0.94663 0.63965 0.0
C5532 C 0.28726 0.95025 0.65269 0.0
C5533 C 0.28246 0.95549 0.66284 0.0
C5534 C 0.27145 0.95703 0.66011 0.0
C5535 C 0.26518 0.95329 0.64724 0.0
C5536 C 0.26996 0.94807 0.63704 0.0
C5537 C 0.26576 0.88456 0.60339 0.0
C5538 C 0.25299 0.88134 0.59846 0.0
C5539 C 0.27523 0.89792 0.60797 0.0
C5540 C 0.27219 0.90838 0.60754 0.0
C5541 C 0.25942 0.90517 0.60267 0.0
C5542 C 0.24987 0.89177 0.59831 0.0
C5543 C 0.282 0.9225 0.61284 0.0
C5544 C 0.27756 0.9284 0.62275 0.0
C5545 C 0.29566 0.92993 0.60868 0.0
C5546 C 0.30092 0.92446 0.598 0.0
C5547 C 0.29469 0.92036 0.58502 0.0
C5548 C 0.29957 0.91498 0.57509 0.0
C5549 C 0.31073 0.91373 0.578 0.0
C5550 C 0.31707 0.91792 0.59082 0.0
C5551 C 0.31222 0.9233 0.60079 0.0
H5552 H 0.31448 0.90955 0.57031 0.0
H5553 H 0.26775 0.9611 0.66798 0.0
H5554 H 0.01862 0.34221 0.63931 0.0
H5555 H 0.03959 0.3483 0.62728 0.0
H5556 H 0.04607 0.32239 0.65357 0.0
H5557 H 0.02494 0.31593 0.66538 0.0
H5558 H 0.06882 0.35376 0.64964 0.0
H5559 H 0.03799 0.30923 0.62675 0.0
H5560 H 0.01717 0.29335 0.61368 0.0
H5561 H 0.02907 0.32261 0.58199 0.0
H5562 H 0.04988 0.33876 0.59498 0.0
H5563 H 0.12439 0.35165 0.62306 0.0
H5564 H 0.10346 0.34781 0.63325 0.0
H5565 H 0.09091 0.3551 0.59451 0.0
H5566 H 0.11135 0.3579 0.58407 0.0
H5567 H 0.07079 0.33485 0.60402 0.0
H5568 H 0.10162 0.37866 0.62389 0.0
H5569 H 0.12204 0.39677 0.63604 0.0
H5570 H 0.11035 0.37274 0.67204 0.0
H5571 H 0.08994 0.3544 0.66005 0.0
C5572 C 0.02444 0.33769 0.64241 0.0
C5573 C 0.02015 0.32857 0.65324 0.0
C5574 C 0.03639 0.34119 0.63556 0.0
C5575 C 0.04433 0.33582 0.63961 0.0
C5576 C 0.04003 0.32663 0.65034 0.0
C5577 C 0.02794 0.3229 0.657 0.0
C5578 C 0.05732 0.34003 0.6329 0.0
C5579 C 0.06935 0.34957 0.63973 0.0
C5580 C 0.05785 0.335 0.61973 0.0
C5581 C 0.0454 0.32526 0.61191 0.0
C5582 C 0.0361 0.31233 0.61706 0.0
C5583 C 0.02431 0.30327 0.60965 0.0
C5584 C 0.02177 0.30699 0.59703 0.0
C5585 C 0.03104 0.31976 0.59177 0.0
C5586 C 0.04283 0.32886 0.59915 0.0
C5587 C 0.11722 0.35259 0.61677 0.0
C5588 C 0.11966 0.35528 0.60282 0.0
C5589 C 0.10528 0.3505 0.62262 0.0
C5590 C 0.09564 0.35144 0.61476 0.0
C5591 C 0.09817 0.35436 0.60085 0.0
C5592 C 0.10996 0.3561 0.5949 0.0
C5593 C 0.0826 0.34851 0.62085 0.0
C5594 C 0.07046 0.33922 0.61389 0.0
C5595 C 0.08199 0.35411 0.63377 0.0
C5596 C 0.09429 0.36509 0.64103 0.0
C5597 C 0.10345 0.37719 0.63437 0.0
C5598 C 0.11502 0.3875 0.64123 0.0
C5599 C 0.11751 0.38589 0.65479 0.0
C5600 C 0.10842 0.37397 0.66153 0.0
C5601 C 0.09683 0.36361 0.65471 0.0
H5602 H 0.12647 0.39389 0.66008 0.0
H5603 H 0.01265 0.29996 0.59132 0.0
H5604 H 0.33291 0.352 0.64765 0.0
H5605 H 0.31868 0.35798 0.6348 0.0
H5606 H 0.283 0.32146 0.6484 0.0
H5607 H 0.29723 0.31529 0.66121 0.0
H5608 H 0.28068 0.32686 0.62148 0.0
H5609 H 0.29355 0.35149 0.66495 0.0
H5610 H 0.3097 0.36659 0.68297 0.0
H5611 H 0.32883 0.39944 0.65486 0.0
H5612 H 0.31291 0.38446 0.63661 0.0
H5613 H 0.23212 0.34697 0.6146 0.0
H5614 H 0.24722 0.33924 0.62214 0.0
H5615 H 0.28176 0.37776 0.61042 0.0
H5616 H 0.26664 0.38563 0.60313 0.0
H5617 H 0.28537 0.37152 0.63517 0.0
H5618 H 0.27177 0.34755 0.59196 0.0
H5619 H 0.25572 0.33257 0.57383 0.0
H5620 H 0.23812 0.29876 0.60093 0.0
H5621 H 0.25394 0.31359 0.61931 0.0
C5622 C 0.32204 0.34512 0.64777 0.0
C5623 C 0.31618 0.33324 0.65557 0.0
C5624 C 0.31393 0.34858 0.64044 0.0
C5625 C 0.29978 0.3403 0.64085 0.0
C5626 C 0.2939 0.32802 0.648 0.0
C5627 C 0.30204 0.32452 0.65532 0.0
C5628 C 0.29118 0.34494 0.63459 0.0
C5629 C 0.28159 0.33655 0.62454 0.0
C5630 C 0.29262 0.35775 0.63838 0.0
C5631 C 0.30212 0.36681 0.64938 0.0
C5632 C 0.30126 0.3619 0.66259 0.0
C5633 C 0.31036 0.37045 0.67285 0.0
C5634 C 0.3203 0.38395 0.67005 0.0
C5635 C 0.32114 0.38896 0.657 0.0
C5636 C 0.31207 0.38046 0.6467 0.0
C5637 C 0.24293 0.35368 0.61341 0.0
C5638 C 0.24819 0.36678 0.60801 0.0
C5639 C 0.25155 0.34925 0.61769 0.0
C5640 C 0.26563 0.35783 0.61665 0.0
C5641 C 0.27093 0.37092 0.61123 0.0
C5642 C 0.2623 0.37538 0.60698 0.0
C5643 C 0.2748 0.35345 0.62201 0.0
C5644 C 0.2845 0.36187 0.63197 0.0
C5645 C 0.27346 0.3407 0.61809 0.0
C5646 C 0.26397 0.33172 0.60705 0.0
C5647 C 0.26441 0.33695 0.59409 0.0
C5648 C 0.25536 0.32848 0.58376 0.0
C5649 C 0.24588 0.31473 0.58624 0.0
C5650 C 0.24546 0.30941 0.59904 0.0
C5651 C 0.25448 0.31784 0.60941 0.0
H5652 H 0.23889 0.30819 0.57823 0.0
H5653 H 0.32734 0.39055 0.67801 0.0
H5654 H 0.65586 0.99174 0.63243 0.0
H5655 H 0.6454 0.96947 0.62014 0.0
H5656 H 0.67013 0.95864 0.64332 0.0
H5657 H 0.68105 0.98111 0.65508 0.0
H5658 H 0.66783 0.949 0.61889 0.0
H5659 H 0.63615 0.94784 0.65157 0.0
H5660 H 0.62209 0.95577 0.66276 0.0
H5661 H 0.60057 0.94964 0.62503 0.0
H5662 H 0.61462 0.94184 0.61358 0.0
H5663 H 0.62571 0.87587 0.61448 0.0
H5664 H 0.63816 0.89994 0.62261 0.0
H5665 H 0.61775 0.90989 0.59236 0.0
H5666 H 0.60539 0.88587 0.58407 0.0
H5667 H 0.61773 0.92018 0.61891 0.0
H5668 H 0.64924 0.91921 0.58723 0.0
H5669 H 0.6631 0.9103 0.57761 0.0
H5670 H 0.68477 0.91931 0.61572 0.0
H5671 H 0.67089 0.92807 0.62563 0.0
C5672 C 0.65916 0.98465 0.63476 0.0
C5673 C 0.66918 0.98809 0.64477 0.0
C5674 C 0.65312 0.9719 0.62781 0.0
C5675 C 0.65673 0.96221 0.63103 0.0
C5676 C 0.66713 0.96589 0.64066 0.0
C5677 C 0.67335 0.97873 0.64741 0.0
C5678 C 0.64938 0.94808 0.62481 0.0
C5679 C 0.65688 0.94268 0.61902 0.0
C5680 C 0.63506 0.93982 0.62479 0.0
C5681 C 0.62653 0.9444 0.63169 0.0
C5682 C 0.62847 0.94826 0.64564 0.0
C5683 C 0.6205 0.95272 0.65203 0.0
C5684 C 0.61047 0.95324 0.6446 0.0
C5685 C 0.60836 0.94925 0.63077 0.0
C5686 C 0.61631 0.9448 0.62433 0.0
C5687 C 0.62393 0.8832 0.60954 0.0
C5688 C 0.61454 0.87899 0.59868 0.0
C5689 C 0.63106 0.89693 0.61416 0.0
C5690 C 0.62889 0.90667 0.60804 0.0
C5691 C 0.61953 0.90251 0.59722 0.0
C5692 C 0.6125 0.88882 0.59251 0.0
C5693 C 0.63621 0.92116 0.61313 0.0
C5694 C 0.62868 0.92658 0.61872 0.0
C5695 C 0.65049 0.92932 0.61321 0.0
C5696 C 0.65894 0.92419 0.60721 0.0
C5697 C 0.65689 0.9192 0.59359 0.0
C5698 C 0.66476 0.91419 0.58808 0.0
C5699 C 0.67479 0.91421 0.59606 0.0
C5700 C 0.67699 0.91928 0.60955 0.0
C5701 C 0.66913 0.92428 0.61512 0.0
H5702 H 0.68087 0.91033 0.59177 0.0
H5703 H 0.60432 0.9567 0.64956 0.0
H5704 H 0.01155 0.70206 0.65089 0.0
H5705 H 0.03177 0.71373 0.63686 0.0
H5706 H 0.03464 0.67735 0.63578 0.0
H5707 H 0.01417 0.66547 0.64958 0.0
H5708 H 0.05864 0.70253 0.64504 0.0
H5709 H 0.02735 0.68456 0.60779 0.0
H5710 H 0.00689 0.6793 0.59478 0.0
H5711 H 0.02198 0.72242 0.59141 0.0
H5712 H 0.04244 0.72796 0.60462 0.0
H5713 H 0.11735 0.73651 0.60464 0.0
H5714 H 0.09441 0.71869 0.6109 0.0
H5715 H 0.08216 0.74872 0.61158 0.0
H5716 H 0.10503 0.76652 0.60533 0.0
H5717 H 0.06232 0.72362 0.60035 0.0
H5718 H 0.09134 0.74139 0.6403 0.0
H5719 H 0.11149 0.74725 0.65421 0.0
H5720 H 0.10022 0.70483 0.65324 0.0
H5721 H 0.08011 0.69876 0.63911 0.0
C5722 C 0.01637 0.69648 0.64749 0.0
C5723 C 0.01134 0.68289 0.65133 0.0
C5724 C 0.02788 0.70314 0.63945 0.0
C5725 C 0.03464 0.69637 0.63528 0.0
C5726 C 0.0295 0.6827 0.63887 0.0
C5727 C 0.01782 0.67594 0.6467 0.0
C5728 C 0.04766 0.70404 0.62814 0.0
C5729 C 0.05944 0.70686 0.63511 0.0
C5730 C 0.04864 0.70993 0.61535 0.0
C5731 C 0.03639 0.70668 0.60731 0.0
C5732 C 0.02626 0.69293 0.60439 0.0
C5733 C 0.01467 0.6899 0.59695 0.0
C5734 C 0.01313 0.70052 0.59229 0.0
C5735 C 0.02319 0.7142 0.59503 0.0
C5736 C 0.03479 0.7173 0.60249 0.0
C5737 C 0.10968 0.73922 0.60592 0.0
C5738 C 0.11295 0.75288 0.60451 0.0
C5739 C 0.09661 0.72907 0.6095 0.0
C5740 C 0.08662 0.73242 0.61178 0.0
C5741 C 0.08971 0.74591 0.60981 0.0
C5742 C 0.10278 0.75607 0.60629 0.0
C5743 C 0.07331 0.72222 0.61734 0.0
C5744 C 0.06149 0.71902 0.61013 0.0
C5745 C 0.07227 0.71603 0.62998 0.0
C5746 C 0.08433 0.71965 0.6385 0.0
C5747 C 0.09323 0.73334 0.64294 0.0
C5748 C 0.10463 0.73669 0.65088 0.0
C5749 C 0.10716 0.72643 0.65457 0.0
C5750 C 0.09827 0.71278 0.65035 0.0
C5751 C 0.08687 0.70937 0.64237 0.0
H5752 H 0.11598 0.72904 0.66074 0.0
H5753 H 0.00415 0.69815 0.58654 0.0
H5754 H 0.0028 0.6571 0.70796 0.0
H5755 H 0.00377 0.64033 0.72229 0.0
H5756 H 0.96268 0.61004 0.71064 0.0
H5757 H 0.96161 0.62676 0.69632 0.0
H5758 H 0.96803 0.60986 0.73831 0.0
H5759 H 0.9881 0.60987 0.69476 0.0
H5760 H 0.00428 0.6208 0.67612 0.0
H5761 H 0.03747 0.63412 0.70431 0.0
H5762 H 0.02147 0.62342 0.72316 0.0
H5763 H 0.96237 0.54657 0.75089 0.0
H5764 H 0.96313 0.56654 0.7413 0.0
H5765 H 0.00586 0.59113 0.7506 0.0
H5766 H 0.00523 0.57096 0.75973 0.0
H5767 H 0.00132 0.59619 0.72616 0.0
H5768 H 0.98181 0.59467 0.76941 0.0
H5769 H 0.96603 0.58418 0.78844 0.0
H5770 H 0.93253 0.57453 0.7619 0.0
H5771 H 0.94809 0.5848 0.74266 0.0
C5772 C 0.99391 0.64692 0.70857 0.0
C5773 C 0.98215 0.64321 0.70094 0.0
C5774 C 0.99451 0.63735 0.71672 0.0
C5775 C 0.98335 0.62391 0.71739 0.0
C5776 C 0.97141 0.62036 0.71024 0.0
C5777 C 0.97083 0.62991 0.70203 0.0
C5778 C 0.98429 0.61334 0.725 0.0
C5779 C 0.97523 0.60678 0.73562 0.0
C5780 C 0.99398 0.60966 0.72174 0.0
C5781 C 0.00359 0.61598 0.71039 0.0
C5782 C 0.99885 0.61522 0.697 0.0
C5783 C 0.00799 0.62136 0.6864 0.0
C5784 C 0.0219 0.62818 0.68904 0.0
C5785 C 0.0267 0.62885 0.70229 0.0
C5786 C 0.0176 0.62274 0.71293 0.0
C5787 C 0.97188 0.55629 0.75107 0.0
C5788 C 0.98364 0.55728 0.75642 0.0
C5789 C 0.97231 0.56772 0.74563 0.0
C5790 C 0.98449 0.58045 0.74553 0.0
C5791 C 0.99631 0.58145 0.75071 0.0
C5792 C 0.99593 0.56995 0.75602 0.0
C5793 C 0.9849 0.59248 0.73942 0.0
C5794 C 0.99421 0.59934 0.72904 0.0
C5795 C 0.97552 0.59652 0.743 0.0
C5796 C 0.96612 0.59042 0.75457 0.0
C5797 C 0.97107 0.59023 0.76761 0.0
C5798 C 0.96217 0.58434 0.77844 0.0
C5799 C 0.94829 0.57867 0.77638 0.0
C5800 C 0.94329 0.57892 0.76349 0.0
C5801 C 0.95215 0.5848 0.75262 0.0
H5802 H 0.94141 0.57411 0.78477 0.0
H5803 H 0.02896 0.63293 0.68082 0.0
H5804 H 0.3754 0.36297 0.69913 0.0
H5805 H 0.3872 0.38427 0.71287 0.0
H5806 H 0.34923 0.37594 0.72979 0.0
H5807 H 0.3373 0.35478 0.7157 0.0
H5808 H 0.36238 0.40081 0.72116 0.0
H5809 H 0.37426 0.37515 0.74941 0.0
H5810 H 0.38274 0.35985 0.75484 0.0
H5811 H 0.42175 0.3891 0.73932 0.0
H5812 H 0.41346 0.4045 0.73361 0.0
H5813 H 0.39655 0.46286 0.76055 0.0
H5814 H 0.38361 0.43794 0.75607 0.0
H5815 H 0.41694 0.44088 0.73319 0.0
H5816 H 0.42995 0.46572 0.73781 0.0
H5817 H 0.40459 0.41762 0.74826 0.0
H5818 H 0.39145 0.44133 0.71722 0.0
H5819 H 0.383 0.45662 0.71158 0.0
H5820 H 0.34606 0.43053 0.73253 0.0
H5821 H 0.35439 0.41519 0.73848 0.0
C5822 C 0.36958 0.36555 0.70595 0.0
C5823 C 0.35542 0.35725 0.70629 0.0
C5824 C 0.37636 0.37771 0.71388 0.0
C5825 C 0.36913 0.38169 0.72248 0.0
C5826 C 0.35502 0.3731 0.72324 0.0
C5827 C 0.34822 0.36099 0.71521 0.0
C5828 C 0.37616 0.39539 0.72964 0.0
C5829 C 0.37142 0.40434 0.72736 0.0
C5830 C 0.38813 0.40015 0.73751 0.0
C5831 C 0.3932 0.39095 0.74101 0.0
C5832 C 0.38463 0.37829 0.74707 0.0
C5833 C 0.3894 0.3696 0.75021 0.0
C5834 C 0.40277 0.37349 0.7474 0.0
C5835 C 0.4114 0.38609 0.74148 0.0
C5836 C 0.40667 0.39482 0.73832 0.0
C5837 C 0.40121 0.45812 0.75485 0.0
C5838 C 0.41428 0.46619 0.7496 0.0
C5839 C 0.3938 0.44391 0.75224 0.0
C5840 C 0.39927 0.43758 0.74419 0.0
C5841 C 0.41254 0.44554 0.73947 0.0
C5842 C 0.41995 0.45972 0.74208 0.0
C5843 C 0.39085 0.42296 0.73961 0.0
C5844 C 0.39537 0.41391 0.7423 0.0
C5845 C 0.37865 0.41806 0.73212 0.0
C5846 C 0.3736 0.42721 0.72843 0.0
C5847 C 0.38156 0.43891 0.72071 0.0
C5848 C 0.3768 0.44758 0.71744 0.0
C5849 C 0.36402 0.44457 0.72173 0.0
C5850 C 0.35596 0.43286 0.72925 0.0
C5851 C 0.3607 0.42418 0.73257 0.0
H5852 H 0.36034 0.45129 0.71919 0.0
H5853 H 0.40645 0.36674 0.74984 0.0
H5854 H 0.6594 0.00562 0.70553 0.0
H5855 H 0.64081 0.00295 0.71975 0.0
H5856 H 0.6367 0.03136 0.69485 0.0
H5857 H 0.65571 0.03452 0.68098 0.0
H5858 H 0.63238 0.03524 0.72021 0.0
H5859 H 0.61619 0.99532 0.69022 0.0
H5860 H 0.61624 0.97528 0.6799 0.0
H5861 H 0.61049 0.95772 0.71938 0.0
H5862 H 0.61056 0.97773 0.72995 0.0
H5863 H 0.56393 0.01402 0.73306 0.0
H5864 H 0.58551 0.01941 0.72313 0.0
H5865 H 0.58797 0.9917 0.75055 0.0
H5866 H 0.56612 0.98596 0.76021 0.0
H5867 H 0.5938 0.98766 0.72543 0.0
H5868 H 0.60822 0.02753 0.75491 0.0
H5869 H 0.60755 0.04754 0.76431 0.0
H5870 H 0.61589 0.06516 0.72469 0.0
H5871 H 0.61644 0.04518 0.71502 0.0
C5872 C 0.65464 0.01143 0.70321 0.0
C5873 C 0.65892 0.0202 0.69209 0.0
C5874 C 0.64396 0.00984 0.71129 0.0
C5875 C 0.6371 0.01668 0.70817 0.0
C5876 C 0.64178 0.02592 0.69743 0.0
C5877 C 0.65263 0.02771 0.6895 0.0
C5878 C 0.62472 0.01378 0.71567 0.0
C5879 C 0.6239 0.02484 0.72125 0.0
C5880 C 0.61372 0.0002 0.71725 0.0
C5881 C 0.61351 0.98808 0.71089 0.0
C5882 C 0.61501 0.98721 0.69671 0.0
C5883 C 0.61501 0.97586 0.69081 0.0
C5884 C 0.61341 0.96525 0.69898 0.0
C5885 C 0.61175 0.96595 0.71306 0.0
C5886 C 0.61175 0.97729 0.71901 0.0
C5887 C 0.5692 0.00926 0.73711 0.0
C5888 C 0.56352 0.99986 0.74765 0.0
C5889 C 0.58154 0.01236 0.73146 0.0
C5890 C 0.58853 0.00618 0.73628 0.0
C5891 C 0.58283 0.9967 0.74675 0.0
C5892 C 0.57041 0.99351 0.75234 0.0
C5893 C 0.60143 0.00912 0.72993 0.0
C5894 C 0.60233 0.99805 0.72452 0.0
C5895 C 0.61242 0.0227 0.72838 0.0
C5896 C 0.61229 0.03482 0.73423 0.0
C5897 C 0.60984 0.03564 0.74819 0.0
C5898 C 0.60949 0.04698 0.75357 0.0
C5899 C 0.61166 0.0576 0.7451 0.0
C5900 C 0.61422 0.05693 0.73124 0.0
C5901 C 0.61457 0.04561 0.72581 0.0
H5902 H 0.61136 0.06636 0.74928 0.0
H5903 H 0.61343 0.95648 0.69441 0.0
loop_
_geom_bond_atom_site_label_1
_geom_bond_atom_site_label_2
_geom_bond_distance
_geom_bond_site_symmetry_2
_ccdc_geom_bond_type
Co0 O1 2.216 . S
Co0 O2 2.091 . S
Co0 O4 2.004 1_554 S
Co0 O10 2.021 . S
Co0 O12 2.137 1_554 S
Co0 O13 2.244 1_455 S
O1 Co0 2.216 . S
O1 C8 1.247 . S
O2 Co0 2.091 . S
O2 C8 1.261 . S
C3 O12 1.247 1_655 S
C3 O13 1.272 1_556 S
O4 Co0 2.004 1_556 S
O4 C9 1.259 . S
Co5 O6 2.061 1_554 S
Co5 O11 2.052 . S
Co5 O13 2.135 . S
O6 Co5 2.061 1_556 S
O6 C9 1.235 1_655 S
C7 O10 1.238 1_655 S
C7 O11 1.241 . S
C8 O1 1.247 . S
C8 O2 1.261 . S
C9 O4 1.259 . S
C9 O6 1.235 1_455 S
O10 Co0 2.021 . S
O10 C7 1.238 1_455 S
O11 Co5 2.052 . S
O11 C7 1.241 . S
O12 Co0 2.137 1_556 S
O12 C3 1.247 1_455 S
O13 Co0 2.244 1_655 S
O13 C3 1.272 1_554 S
O13 Co5 2.135 . S
Co14 O15 2.192 1_554 S
Co14 O16 2.091 . S
Co14 O18 2.004 . S
Co14 O24 2.021 . S
Co14 O26 2.137 . S
Co14 O27 2.244 . S
O15 Co14 2.192 1_556 S
O15 C22 1.242 1_556 S
O16 Co14 2.091 . S
O16 C22 1.287 . S
C17 O26 1.247 . S
C17 O27 1.272 . S
O18 Co14 2.004 . S
O18 C23 1.259 . S
Co19 O20 2.061 . S
Co19 O25 2.052 . S
Co19 O27 2.135 . S
O20 Co19 2.061 . S
O20 C23 1.235 . S
C21 O24 1.238 1_556 S
C21 O25 1.241 1_556 S
C22 O15 1.242 1_554 S
C22 O16 1.287 . S
C23 O18 1.259 . S
C23 O20 1.235 . S
O24 Co14 2.021 . S
O24 C21 1.238 1_554 S
O25 Co19 2.052 . S
O25 C21 1.241 1_554 S
O26 Co14 2.137 . S
O26 C17 1.247 . S
O27 Co14 2.244 . S
O27 C17 1.272 . S
O27 Co19 2.135 . S
Co28 O29 2.216 1_554 S
Co28 O30 2.091 . S
Co28 O32 2.004 . S
Co28 O38 2.021 1_554 S
Co28 O40 2.137 . S
Co28 O41 2.244 1_545 S
O29 Co28 2.216 1_556 S
O29 C36 1.247 . S
O30 Co28 2.091 . S
O30 C36 1.261 1_554 S
C31 O40 1.247 1_565 S
C31 O41 1.272 . S
O32 Co28 2.004 . S
O32 C37 1.259 . S
Co33 O34 2.061 . S
Co33 O39 2.052 1_554 S
Co33 O41 2.135 . S
O34 Co33 2.061 . S
O34 C37 1.235 1_565 S
C35 O38 1.257 . S
C35 O39 1.225 1_545 S
C36 O29 1.247 . S
C36 O30 1.261 1_556 S
C37 O32 1.259 . S
C37 O34 1.235 1_545 S
O38 Co28 2.021 1_556 S
O38 C35 1.257 . S
O39 Co33 2.052 1_556 S
O39 C35 1.225 1_565 S
O40 Co28 2.137 . S
O40 C31 1.247 1_545 S
O41 Co28 2.244 1_565 S
O41 C31 1.272 . S
O41 Co33 2.135 . S
Co42 O43 2.216 1_554 S
Co42 O44 2.091 . S
Co42 O46 2.004 . S
Co42 O52 2.021 1_554 S
Co42 O54 2.137 1_655 S
Co42 O55 2.244 1_655 S
O43 Co42 2.216 1_556 S
O43 C50 1.247 . S
O44 Co42 2.091 . S
O44 C50 1.261 1_554 S
C45 O54 1.247 . S
C45 O55 1.272 . S
O46 Co42 2.004 . S
O46 C51 1.259 . S
Co47 O48 2.061 . S
Co47 O53 2.052 1_554 S
Co47 O55 2.135 . S
O48 Co47 2.061 . S
O48 C51 1.235 1_455 S
C49 O52 1.238 1_455 S
C49 O53 1.241 . S
C50 O43 1.247 . S
C50 O44 1.261 1_556 S
C51 O46 1.259 . S
C51 O48 1.235 1_655 S
O52 Co42 2.021 1_556 S
O52 C49 1.238 1_655 S
O53 Co47 2.052 1_556 S
O53 C49 1.241 . S
O54 Co42 2.137 1_455 S
O54 C45 1.247 . S
O55 Co42 2.244 1_455 S
O55 C45 1.272 . S
O55 Co47 2.135 . S
Co56 O57 2.216 . S
Co56 O58 2.091 . S
Co56 O60 2.004 1_554 S
Co56 O66 2.021 . S
Co56 O68 2.137 1_554 S
Co56 O69 2.244 1_554 S
O57 Co56 2.216 . S
O57 C64 1.247 . S
O58 Co56 2.091 . S
O58 C64 1.261 . S
C59 O68 1.247 . S
C59 O69 1.272 . S
O60 Co56 2.004 1_556 S
O60 C65 1.259 . S
Co61 O62 2.061 . S
Co61 O67 2.052 1_556 S
Co61 O69 2.135 . S
O62 Co61 2.061 . S
O62 C65 1.235 . S
C63 O66 1.238 . S
C63 O67 1.241 . S
C64 O57 1.247 . S
C64 O58 1.261 . S
C65 O60 1.259 . S
C65 O62 1.235 . S
O66 Co56 2.021 . S
O66 C63 1.238 . S
O67 Co61 2.052 1_554 S
O67 C63 1.241 . S
O68 Co56 2.137 1_556 S
O68 C59 1.247 . S
O69 Co56 2.244 1_556 S
O69 C59 1.272 . S
O69 Co61 2.135 . S
Co70 O71 2.216 . S
Co70 O72 2.091 . S
Co70 O74 2.004 1_554 S
Co70 O80 2.021 . S
Co70 O82 2.137 1_564 S
Co70 O83 2.244 1_565 S
O71 Co70 2.216 . S
O71 C78 1.247 . S
O72 Co70 2.091 . S
O72 C78 1.261 . S
C73 O82 1.260 . S
C73 O83 1.227 1_556 S
O74 Co70 2.004 1_556 S
O74 C79 1.259 . S
Co75 O76 2.061 1_554 S
Co75 O81 2.052 . S
Co75 O83 2.135 . S
O76 Co75 2.061 1_556 S
O76 C79 1.235 1_545 S
C77 O80 1.238 1_545 S
C77 O81 1.241 . S
C78 O71 1.247 . S
C78 O72 1.261 . S
C79 O74 1.259 . S
C79 O76 1.235 1_565 S
O80 Co70 2.021 . S
O80 C77 1.238 1_565 S
O81 Co75 2.052 . S
O81 C77 1.241 . S
O82 Co70 2.137 1_546 S
O82 C73 1.260 . S
O83 Co70 2.244 1_545 S
O83 C73 1.227 1_554 S
O83 Co75 2.135 . S
Co84 O85 2.216 . S
Co84 O86 2.091 . S
Co84 O88 2.004 . S
Co84 O94 2.021 . S
Co84 O96 2.137 . S
Co84 O97 2.244 . S
O85 Co84 2.216 . S
O85 C92 1.247 . S
O86 Co84 2.091 . S
O86 C92 1.261 . S
C87 O96 1.247 . S
C87 O97 1.272 . S
O88 Co84 2.004 . S
O88 C93 1.259 . S
Co89 O90 2.061 . S
Co89 O95 2.052 . S
Co89 O97 2.135 . S
O90 Co89 2.061 . S
O90 C93 1.235 . S
C91 O94 1.238 . S
C91 O95 1.241 . S
C92 O85 1.247 . S
C92 O86 1.261 . S
C93 O88 1.259 . S
C93 O90 1.235 . S
O94 Co84 2.021 . S
O94 C91 1.238 . S
O95 Co89 2.052 . S
O95 C91 1.241 . S
O96 Co84 2.137 . S
O96 C87 1.247 . S
O97 Co84 2.244 . S
O97 C87 1.272 . S
O97 Co89 2.135 . S
Co98 O99 2.216 . S
Co98 O100 2.091 . S
Co98 O102 2.004 . S
Co98 O108 2.021 . S
Co98 O110 2.141 . S
Co98 O111 2.244 . S
O99 Co98 2.216 . S
O99 C106 1.247 . S
O100 Co98 2.091 . S
O100 C106 1.261 . S
C101 O110 1.242 1_545 S
C101 O111 1.272 1_545 S
O102 Co98 2.004 . S
O102 C107 1.259 . S
Co103 O104 2.061 . S
Co103 O109 2.052 . S
Co103 O111 2.135 . S
O104 Co103 2.061 . S
O104 C107 1.235 . S
C105 O108 1.238 . S
C105 O109 1.241 . S
C106 O99 1.247 . S
C106 O100 1.261 . S
C107 O102 1.259 . S
C107 O104 1.235 . S
O108 Co98 2.021 . S
O108 C105 1.238 . S
O109 Co103 2.052 . S
O109 C105 1.241 . S
O110 Co98 2.141 . S
O110 C101 1.242 1_565 S
O111 Co98 2.244 . S
O111 C101 1.272 1_565 S
O111 Co103 2.135 . S
Co112 O113 2.216 . S
Co112 O114 2.091 . S
Co112 O116 2.004 . S
Co112 O122 2.021 . S
Co112 O124 2.137 . S
Co112 O125 2.244 . S
O113 Co112 2.216 . S
O113 C120 1.247 . S
O114 Co112 2.091 . S
O114 C120 1.261 . S
C115 O124 1.247 . S
C115 O125 1.272 . S
O116 Co112 2.004 . S
O116 C121 1.259 . S
Co117 O118 2.061 . S
Co117 O123 2.052 . S
Co117 O125 2.135 . S
O118 Co117 2.061 . S
O118 C121 1.235 . S
C119 O122 1.238 . S
C119 O123 1.241 . S
C120 O113 1.247 . S
C120 O114 1.261 . S
C121 O116 1.259 . S
C121 O118 1.235 . S
O122 Co112 2.021 . S
O122 C119 1.238 . S
O123 Co117 2.052 . S
O123 C119 1.241 . S
O124 Co112 2.137 . S
O124 C115 1.247 . S
O125 Co112 2.244 . S
O125 C115 1.272 . S
O125 Co117 2.135 . S
Co126 O127 2.216 . S
Co126 O128 2.091 . S
Co126 O130 2.004 . S
Co126 O136 2.021 . S
Co126 O138 2.087 1_565 S
Co126 O139 2.244 . S
O127 Co126 2.216 . S
O127 C134 1.247 . S
O128 Co126 2.091 . S
O128 C134 1.261 . S
C129 O138 1.234 . S
C129 O139 1.272 1_545 S
O130 Co126 2.004 . S
O130 C135 1.259 . S
Co131 O132 2.061 . S
Co131 O137 2.052 . S
Co131 O139 2.135 . S
O132 Co131 2.061 . S
O132 C135 1.235 . S
C133 O136 1.238 . S
C133 O137 1.241 . S
C134 O127 1.247 . S
C134 O128 1.261 . S
C135 O130 1.259 . S
C135 O132 1.235 . S
O136 Co126 2.021 . S
O136 C133 1.238 . S
O137 Co131 2.052 . S
O137 C133 1.241 . S
O138 Co126 2.087 1_545 S
O138 C129 1.234 . S
O139 Co126 2.244 . S
O139 C129 1.272 1_565 S
O139 Co131 2.135 . S
Co140 O141 2.216 1_455 S
Co140 O142 2.091 1_455 S
Co140 O144 2.004 . S
Co140 O150 2.021 . S
Co140 O152 2.137 . S
Co140 O153 2.244 . S
O141 Co140 2.216 1_655 S
O141 C148 1.247 . S
O142 Co140 2.091 1_655 S
O142 C148 1.261 . S
C143 O152 1.247 . S
C143 O153 1.272 . S
O144 Co140 2.004 . S
O144 C149 1.259 . S
Co145 O146 2.061 . S
Co145 O151 2.052 . S
Co145 O153 2.135 . S
O146 Co145 2.061 . S
O146 C149 1.235 . S
C147 O150 1.238 . S
C147 O151 1.241 . S
C148 O141 1.247 . S
C148 O142 1.261 . S
C149 O144 1.259 . S
C149 O146 1.235 . S
O150 Co140 2.021 . S
O150 C147 1.238 . S
O151 Co145 2.052 . S
O151 C147 1.241 . S
O152 Co140 2.137 . S
O152 C143 1.247 . S
O153 Co140 2.244 . S
O153 C143 1.272 . S
O153 Co145 2.135 . S
Co154 O155 2.216 . S
Co154 O156 2.091 . S
Co154 O158 2.004 . S
Co154 O164 2.021 . S
Co154 O166 2.137 . S
Co154 O167 2.244 . S
O155 Co154 2.216 . S
O155 C162 1.247 . S
O156 Co154 2.091 . S
O156 C162 1.261 . S
C157 O166 1.247 . S
C157 O167 1.272 . S
O158 Co154 2.004 . S
O158 C163 1.259 . S
Co159 O160 2.061 . S
Co159 O165 2.052 . S
Co159 O167 2.135 . S
O160 Co159 2.061 . S
O160 C163 1.235 . S
C161 O164 1.238 . S
C161 O165 1.241 . S
C162 O155 1.247 . S
C162 O156 1.261 . S
C163 O158 1.259 . S
C163 O160 1.235 . S
O164 Co154 2.021 . S
O164 C161 1.238 . S
O165 Co159 2.052 . S
O165 C161 1.241 . S
O166 Co154 2.137 . S
O166 C157 1.247 . S
O167 Co154 2.244 . S
O167 C157 1.272 . S
O167 Co159 2.135 . S
Co168 O169 2.216 . S
Co168 O170 2.091 . S
Co168 O172 2.004 . S
Co168 O178 2.021 . S
Co168 O180 2.137 . S
Co168 O181 2.244 . S
O169 Co168 2.216 . S
O169 C176 1.247 . S
O170 Co168 2.091 . S
O170 C176 1.261 . S
C171 O180 1.264 1_565 S
C171 O181 1.217 1_565 S
O172 Co168 2.004 . S
O172 C177 1.259 . S
Co173 O174 2.061 . S
Co173 O179 2.052 . S
Co173 O181 2.135 . S
O174 Co173 2.061 . S
O174 C177 1.235 . S
C175 O178 1.238 . S
C175 O179 1.241 . S
C176 O169 1.247 . S
C176 O170 1.261 . S
C177 O172 1.259 . S
C177 O174 1.235 . S
O178 Co168 2.021 . S
O178 C175 1.238 . S
O179 Co173 2.052 . S
O179 C175 1.241 . S
O180 Co168 2.137 . S
O180 C171 1.264 1_545 S
O181 Co168 2.244 . S
O181 C171 1.217 1_545 S
O181 Co173 2.135 . S
Co182 O183 2.216 1_655 S
Co182 O184 2.091 1_655 S
Co182 O186 2.004 . S
Co182 O192 2.021 . S
Co182 O194 2.134 1_655 S
Co182 O195 2.244 . S
O183 Co182 2.216 1_455 S
O183 C190 1.247 . S
O184 Co182 2.091 1_455 S
O184 C190 1.261 . S
C185 O194 1.195 1_655 S
C185 O195 1.272 . S
O186 Co182 2.004 . S
O186 C191 1.259 . S
Co187 O188 2.061 . S
Co187 O193 2.052 . S
Co187 O195 2.135 . S
O188 Co187 2.061 . S
O188 C191 1.235 . S
C189 O192 1.238 . S
C189 O193 1.241 . S
C190 O183 1.247 . S
C190 O184 1.261 . S
C191 O186 1.259 . S
C191 O188 1.235 . S
O192 Co182 2.021 . S
O192 C189 1.238 . S
O193 Co187 2.052 . S
O193 C189 1.241 . S
O194 Co182 2.134 1_455 S
O194 C185 1.195 1_455 S
O195 Co182 2.244 . S
O195 C185 1.272 . S
O195 Co187 2.135 . S
Co196 O197 2.216 . S
Co196 O198 2.091 . S
Co196 O200 2.004 . S
Co196 O206 2.021 . S
Co196 O208 2.137 . S
Co196 O209 2.244 . S
O197 Co196 2.216 . S
O197 C204 1.247 . S
O198 Co196 2.091 . S
O198 C204 1.261 . S
C199 O208 1.247 . S
C199 O209 1.272 . S
O200 Co196 2.004 . S
O200 C205 1.259 . S
Co201 O202 2.061 . S
Co201 O207 2.052 . S
Co201 O209 2.135 . S
O202 Co201 2.061 . S
O202 C205 1.235 . S
C203 O206 1.238 . S
C203 O207 1.241 . S
C204 O197 1.247 . S
C204 O198 1.261 . S
C205 O200 1.259 . S
C205 O202 1.235 . S
O206 Co196 2.021 . S
O206 C203 1.238 . S
O207 Co201 2.052 . S
O207 C203 1.241 . S
O208 Co196 2.137 . S
O208 C199 1.247 . S
O209 Co196 2.244 . S
O209 C199 1.272 . S
O209 Co201 2.135 . S
Co210 O211 2.216 . S
Co210 O212 2.091 . S
Co210 O214 2.004 . S
Co210 O220 2.021 . S
Co210 O222 2.137 . S
Co210 O223 2.244 . S
O211 Co210 2.216 . S
O211 C218 1.247 . S
O212 Co210 2.091 . S
O212 C218 1.261 . S
C213 O222 1.247 . S
C213 O223 1.272 . S
O214 Co210 2.004 . S
O214 C219 1.259 . S
Co215 O216 2.061 . S
Co215 O221 2.052 . S
Co215 O223 2.135 . S
O216 Co215 2.061 . S
O216 C219 1.235 . S
C217 O220 1.238 . S
C217 O221 1.241 . S
C218 O211 1.247 . S
C218 O212 1.261 . S
C219 O214 1.259 . S
C219 O216 1.235 . S
O220 Co210 2.021 . S
O220 C217 1.238 . S
O221 Co215 2.052 . S
O221 C217 1.241 . S
O222 Co210 2.137 . S
O222 C213 1.247 . S
O223 Co210 2.244 . S
O223 C213 1.272 . S
O223 Co215 2.135 . S
Co224 O225 2.216 . S
Co224 O226 2.091 . S
Co224 O228 2.004 . S
Co224 O234 2.021 . S
Co224 O236 2.137 . S
Co224 O237 2.244 . S
O225 Co224 2.216 . S
O225 C232 1.247 . S
O226 Co224 2.091 . S
O226 C232 1.261 . S
C227 O236 1.243 . S
C227 O237 1.271 . S
O228 Co224 2.004 . S
O228 C233 1.259 . S
Co229 O230 2.061 . S
Co229 O235 2.052 . S
Co229 O237 2.135 . S
O230 Co229 2.061 . S
O230 C233 1.235 . S
C231 O234 1.238 . S
C231 O235 1.241 . S
C232 O225 1.247 . S
C232 O226 1.261 . S
C233 O228 1.259 . S
C233 O230 1.235 . S
O234 Co224 2.021 . S
O234 C231 1.238 . S
O235 Co229 2.052 . S
O235 C231 1.241 . S
O236 Co224 2.137 . S
O236 C227 1.243 . S
O237 Co224 2.244 . S
O237 C227 1.271 . S
O237 Co229 2.135 . S
Co238 O239 2.216 . S
Co238 O240 2.091 . S
Co238 O242 2.004 . S
Co238 O248 2.021 . S
Co238 O250 2.137 . S
Co238 O251 2.244 . S
O239 Co238 2.216 . S
O239 C246 1.247 . S
O240 Co238 2.091 . S
O240 C246 1.261 . S
C241 O250 1.231 . S
C241 O251 1.348 . S
O242 Co238 2.004 . S
O242 C247 1.259 . S
Co243 O244 2.061 . S
Co243 O249 2.052 . S
Co243 O251 2.135 . S
O244 Co243 2.061 . S
O244 C247 1.235 . S
C245 O248 1.238 . S
C245 O249 1.241 . S
C246 O239 1.247 . S
C246 O240 1.261 . S
C247 O242 1.259 . S
C247 O244 1.235 . S
O248 Co238 2.021 . S
O248 C245 1.238 . S
O249 Co243 2.052 . S
O249 C245 1.241 . S
O250 Co238 2.137 . S
O250 C241 1.231 . S
O251 Co238 2.244 . S
O251 C241 1.348 . S
O251 Co243 2.135 . S
C252 C253 1.560 . S
C252 H313 0.959 . S
C252 H314 0.959 . S
C252 H315 0.960 . S
C253 C252 1.560 . S
C253 O308 1.426 . S
C253 H312 0.980 . S
C254 C255 1.407 . S
C254 C259 1.418 . S
C254 O308 1.334 . S
C255 C254 1.407 . S
C255 C256 1.360 . S
C255 H316 0.929 . S
C256 C255 1.360 . S
C256 C257 1.401 . S
C256 C260 1.527 . S
C257 C256 1.401 . S
C257 C258 1.405 . S
C257 C290 1.587 . S
C258 C257 1.405 . S
C258 C259 1.332 . S
C258 C261 1.496 . S
C259 C254 1.418 . S
C259 C258 1.332 . S
C259 H317 0.929 . S
C260 C256 1.527 . S
C260 H318 0.959 . S
C260 H319 0.961 . S
C260 H320 0.961 . S
C261 C258 1.496 . S
C261 H321 0.960 . S
C261 H322 0.960 . S
C261 H323 0.961 . S
C262 C263 1.517 . S
C262 H325 0.961 . S
C262 H326 0.960 . S
C262 H327 0.959 . S
C263 C262 1.517 . S
C263 O311 1.468 . S
C263 H324 0.980 . S
C264 C265 1.349 . S
C264 C269 1.367 . S
C264 O311 1.408 . S
C265 C264 1.349 . S
C265 C266 1.407 . S
C265 H328 0.930 . S
C266 C265 1.407 . S
C266 C267 1.449 . S
C266 C270 1.535 . S
C267 C266 1.449 . S
C267 C268 1.384 . S
C267 C292 1.553 . S
C268 C267 1.384 . S
C268 C269 1.364 . S
C268 C271 1.450 . S
C269 C264 1.367 . S
C269 C268 1.364 . S
C269 H329 0.931 . S
C270 C266 1.535 . S
C270 H330 0.959 . S
C270 H331 0.961 . S
C270 H332 0.959 . S
C271 C268 1.450 . S
C271 H333 0.960 . S
C271 H334 0.960 . S
C271 H335 0.960 . S
C272 C273 1.309 . S
C272 C277 1.304 . S
C272 O310 1.435 . S
C273 C272 1.309 . S
C273 C274 1.476 . S
C273 H337 0.930 . S
C274 C273 1.476 . S
C274 C275 1.400 . S
C274 C278 1.567 . S
C275 C274 1.400 . S
C275 C276 1.373 . S
C275 C297 1.432 . S
C276 C275 1.373 . S
C276 C277 1.339 . S
C276 C279 1.530 . S
C277 C272 1.304 . S
C277 C276 1.339 . S
C277 H338 0.930 . S
C278 C274 1.567 . S
C278 H339 0.961 . S
C278 H340 0.960 . S
C278 H341 0.958 . S
C279 C276 1.530 . S
C279 H342 0.961 . S
C279 H343 0.960 . S
C279 H344 0.960 . S
C280 C281 1.530 . S
C280 H346 0.961 . S
C280 H347 0.961 . S
C280 H348 0.959 . S
C281 C280 1.530 . S
C281 O309 1.412 . S
C281 H345 0.980 . S
C282 C283 1.288 . S
C282 C287 1.377 . S
C282 O309 1.393 . S
C283 C282 1.288 . S
C283 C284 1.369 . S
C283 H349 0.932 . S
C284 C283 1.369 . S
C284 C285 1.398 . S
C284 C288 1.527 . S
C285 C284 1.398 . S
C285 C286 1.380 . S
C285 C299 1.497 . S
C286 C285 1.380 . S
C286 C287 1.383 . S
C286 C289 1.603 . S
C287 C282 1.377 . S
C287 C286 1.383 . S
C287 H350 0.929 . S
C288 C284 1.527 . S
C288 H351 0.961 . S
C288 H352 0.959 . S
C288 H353 0.959 . S
C289 C286 1.603 . S
C289 H354 0.960 . S
C289 H355 0.962 . S
C289 H356 0.961 . S
C290 C257 1.587 . S
C290 C291 1.360 . S
C290 C303 1.412 . S
C291 C290 1.360 . S
C291 C292 1.365 . S
C291 H357 0.929 . S
C292 C267 1.553 . S
C292 C291 1.365 . S
C292 C293 1.404 . S
C293 C292 1.404 . S
C293 C294 1.395 . S
C293 C304 1.451 . S
C294 C293 1.395 . S
C294 C295 1.322 . S
C294 H358 0.930 . S
C295 C294 1.322 . S
C295 C296 1.459 . S
C295 H359 0.929 . S
C296 C295 1.459 . S
C296 C297 1.445 . S
C296 C305 1.395 . S
C297 C275 1.432 . S
C297 C296 1.445 . S
C297 C298 1.370 . S
C298 C297 1.370 . S
C298 C299 1.438 . S
C298 H360 0.930 . S
C299 C285 1.497 . S
C299 C298 1.438 . S
C299 C300 1.360 . S
C300 C299 1.360 . S
C300 C301 1.401 . S
C300 C305 1.446 . S
C301 C300 1.401 . S
C301 C302 1.347 . S
C301 H361 0.929 . S
C302 C301 1.347 . S
C302 C303 1.455 . S
C302 H362 0.930 . S
C303 C290 1.412 . S
C303 C302 1.455 . S
C303 C304 1.331 . S
C304 C293 1.451 . S
C304 C303 1.331 . S
C304 C305 1.497 . S
C305 C296 1.395 . S
C305 C300 1.446 . S
C305 C304 1.497 . S
C306 C307 1.582 . S
C306 H363 0.962 . S
C306 H364 0.959 . S
C306 H365 0.958 . S
C307 C306 1.582 . S
C307 O310 1.458 . S
C307 H336 0.980 . S
O308 C253 1.426 . S
O308 C254 1.334 . S
O309 C281 1.412 . S
O309 C282 1.393 . S
O310 C272 1.435 . S
O310 C307 1.458 . S
O311 C263 1.468 . S
O311 C264 1.408 . S
H312 C253 0.980 . S
H313 C252 0.959 . S
H314 C252 0.959 . S
H315 C252 0.960 . S
H316 C255 0.929 . S
H317 C259 0.929 . S
H318 C260 0.959 . S
H319 C260 0.961 . S
H320 C260 0.961 . S
H321 C261 0.960 . S
H322 C261 0.960 . S
H323 C261 0.961 . S
H324 C263 0.980 . S
H325 C262 0.961 . S
H326 C262 0.960 . S
H327 C262 0.959 . S
H328 C265 0.930 . S
H329 C269 0.931 . S
H330 C270 0.959 . S
H331 C270 0.961 . S
H332 C270 0.959 . S
H333 C271 0.960 . S
H334 C271 0.960 . S
H335 C271 0.960 . S
H336 C307 0.980 . S
H337 C273 0.930 . S
H338 C277 0.930 . S
H339 C278 0.961 . S
H340 C278 0.960 . S
H341 C278 0.958 . S
H342 C279 0.961 . S
H343 C279 0.960 . S
H344 C279 0.960 . S
H345 C281 0.980 . S
H346 C280 0.961 . S
H347 C280 0.961 . S
H348 C280 0.959 . S
H349 C283 0.932 . S
H350 C287 0.929 . S
H351 C288 0.961 . S
H352 C288 0.959 . S
H353 C288 0.959 . S
H354 C289 0.960 . S
H355 C289 0.962 . S
H356 C289 0.961 . S
H357 C291 0.929 . S
H358 C294 0.930 . S
H359 C295 0.929 . S
H360 C298 0.930 . S
H361 C301 0.929 . S
H362 C302 0.930 . S
H363 C306 0.962 . S
H364 C306 0.959 . S
H365 C306 0.958 . S
C366 C367 1.560 . S
C366 H427 0.959 . S
C366 H428 0.959 . S
C366 H429 0.960 . S
C367 C366 1.560 . S
C367 O422 1.426 . S
C367 H426 0.980 . S
C368 C369 1.407 . S
C368 C373 1.418 . S
C368 O422 1.334 . S
C369 C368 1.407 . S
C369 C370 1.360 . S
C369 H430 0.929 . S
C370 C369 1.360 . S
C370 C371 1.401 . S
C370 C374 1.527 . S
C371 C370 1.401 . S
C371 C372 1.405 . S
C371 C404 1.587 . S
C372 C371 1.405 . S
C372 C373 1.332 . S
C372 C375 1.496 . S
C373 C368 1.418 . S
C373 C372 1.332 . S
C373 H431 0.929 . S
C374 C370 1.527 . S
C374 H432 0.959 . S
C374 H433 0.961 . S
C374 H434 0.961 . S
C375 C372 1.496 . S
C375 H435 0.960 . S
C375 H436 0.960 . S
C375 H437 0.961 . S
C376 C377 1.517 . S
C376 H439 0.961 . S
C376 H440 0.960 . S
C376 H441 0.959 . S
C377 C376 1.517 . S
C377 O425 1.468 . S
C377 H438 0.980 . S
C378 C379 1.349 . S
C378 C383 1.367 . S
C378 O425 1.408 . S
C379 C378 1.349 . S
C379 C380 1.407 . S
C379 H442 0.930 . S
C380 C379 1.407 . S
C380 C381 1.449 . S
C380 C384 1.535 . S
C381 C380 1.449 . S
C381 C382 1.384 . S
C381 C406 1.553 . S
C382 C381 1.384 . S
C382 C383 1.364 . S
C382 C385 1.450 . S
C383 C378 1.367 . S
C383 C382 1.364 . S
C383 H443 0.931 . S
C384 C380 1.535 . S
C384 H444 0.959 . S
C384 H445 0.961 . S
C384 H446 0.959 . S
C385 C382 1.450 . S
C385 H447 0.960 . S
C385 H448 0.960 . S
C385 H449 0.960 . S
C386 C387 1.309 . S
C386 C391 1.304 . S
C386 O424 1.435 . S
C387 C386 1.309 . S
C387 C388 1.476 . S
C387 H451 0.930 . S
C388 C387 1.476 . S
C388 C389 1.400 . S
C388 C392 1.567 . S
C389 C388 1.400 . S
C389 C390 1.373 . S
C389 C411 1.432 . S
C390 C389 1.373 . S
C390 C391 1.339 . S
C390 C393 1.530 . S
C391 C386 1.304 . S
C391 C390 1.339 . S
C391 H452 0.930 . S
C392 C388 1.567 . S
C392 H453 0.961 . S
C392 H454 0.960 . S
C392 H455 0.958 . S
C393 C390 1.530 . S
C393 H456 0.961 . S
C393 H457 0.960 . S
C393 H458 0.960 . S
C394 C395 1.530 . S
C394 H460 0.961 . S
C394 H461 0.961 . S
C394 H462 0.959 . S
C395 C394 1.530 . S
C395 O423 1.412 . S
C395 H459 0.980 . S
C396 C397 1.288 . S
C396 C401 1.377 . S
C396 O423 1.393 . S
C397 C396 1.288 . S
C397 C398 1.369 . S
C397 H463 0.932 . S
C398 C397 1.369 . S
C398 C399 1.398 . S
C398 C402 1.527 . S
C399 C398 1.398 . S
C399 C400 1.380 . S
C399 C413 1.497 . S
C400 C399 1.380 . S
C400 C401 1.383 . S
C400 C403 1.603 . S
C401 C396 1.377 . S
C401 C400 1.383 . S
C401 H464 0.929 . S
C402 C398 1.527 . S
C402 H465 0.961 . S
C402 H466 0.959 . S
C402 H467 0.959 . S
C403 C400 1.603 . S
C403 H468 0.960 . S
C403 H469 0.962 . S
C403 H470 0.961 . S
C404 C371 1.587 . S
C404 C405 1.360 . S
C404 C417 1.412 . S
C405 C404 1.360 . S
C405 C406 1.365 . S
C405 H471 0.929 . S
C406 C381 1.553 . S
C406 C405 1.365 . S
C406 C407 1.404 . S
C407 C406 1.404 . S
C407 C408 1.395 . S
C407 C418 1.451 . S
C408 C407 1.395 . S
C408 C409 1.322 . S
C408 H472 0.930 . S
C409 C408 1.322 . S
C409 C410 1.459 . S
C409 H473 0.929 . S
C410 C409 1.459 . S
C410 C411 1.445 . S
C410 C419 1.395 . S
C411 C389 1.432 . S
C411 C410 1.445 . S
C411 C412 1.370 . S
C412 C411 1.370 . S
C412 C413 1.438 . S
C412 H474 0.930 . S
C413 C399 1.497 . S
C413 C412 1.438 . S
C413 C414 1.360 . S
C414 C413 1.360 . S
C414 C415 1.401 . S
C414 C419 1.446 . S
C415 C414 1.401 . S
C415 C416 1.347 . S
C415 H475 0.929 . S
C416 C415 1.347 . S
C416 C417 1.455 . S
C416 H476 0.930 . S
C417 C404 1.412 . S
C417 C416 1.455 . S
C417 C418 1.331 . S
C418 C407 1.451 . S
C418 C417 1.331 . S
C418 C419 1.497 . S
C419 C410 1.395 . S
C419 C414 1.446 . S
C419 C418 1.497 . S
C420 C421 1.582 . S
C420 H477 0.962 . S
C420 H478 0.959 . S
C420 H479 0.958 . S
C421 C420 1.582 . S
C421 O424 1.458 . S
C421 H450 0.980 . S
O422 C367 1.426 . S
O422 C368 1.334 . S
O423 C395 1.412 . S
O423 C396 1.393 . S
O424 C386 1.435 . S
O424 C421 1.458 . S
O425 C377 1.468 . S
O425 C378 1.408 . S
H426 C367 0.980 . S
H427 C366 0.959 . S
H428 C366 0.959 . S
H429 C366 0.960 . S
H430 C369 0.929 . S
H431 C373 0.929 . S
H432 C374 0.959 . S
H433 C374 0.961 . S
H434 C374 0.961 . S
H435 C375 0.960 . S
H436 C375 0.960 . S
H437 C375 0.961 . S
H438 C377 0.980 . S
H439 C376 0.961 . S
H440 C376 0.960 . S
H441 C376 0.959 . S
H442 C379 0.930 . S
H443 C383 0.931 . S
H444 C384 0.959 . S
H445 C384 0.961 . S
H446 C384 0.959 . S
H447 C385 0.960 . S
H448 C385 0.960 . S
H449 C385 0.960 . S
H450 C421 0.980 . S
H451 C387 0.930 . S
H452 C391 0.930 . S
H453 C392 0.961 . S
H454 C392 0.960 . S
H455 C392 0.958 . S
H456 C393 0.961 . S
H457 C393 0.960 . S
H458 C393 0.960 . S
H459 C395 0.980 . S
H460 C394 0.961 . S
H461 C394 0.961 . S
H462 C394 0.959 . S
H463 C397 0.932 . S
H464 C401 0.929 . S
H465 C402 0.961 . S
H466 C402 0.959 . S
H467 C402 0.959 . S
H468 C403 0.960 . S
H469 C403 0.962 . S
H470 C403 0.961 . S
H471 C405 0.929 . S
H472 C408 0.930 . S
H473 C409 0.929 . S
H474 C412 0.930 . S
H475 C415 0.929 . S
H476 C416 0.930 . S
H477 C420 0.962 . S
H478 C420 0.959 . S
H479 C420 0.958 . S
C480 C481 1.560 . S
C480 H541 0.959 . S
C480 H542 0.959 . S
C480 H543 0.960 . S
C481 C480 1.560 . S
C481 O536 1.426 . S
C481 H540 0.980 . S
C482 C483 1.407 . S
C482 C487 1.418 . S
C482 O536 1.334 . S
C483 C482 1.407 . S
C483 C484 1.360 . S
C483 H544 0.929 . S
C484 C483 1.360 . S
C484 C485 1.401 . S
C484 C488 1.527 . S
C485 C484 1.401 . S
C485 C486 1.405 . S
C485 C518 1.587 . S
C486 C485 1.405 . S
C486 C487 1.332 . S
C486 C489 1.496 . S
C487 C482 1.418 . S
C487 C486 1.332 . S
C487 H545 0.929 . S
C488 C484 1.527 . S
C488 H546 0.959 . S
C488 H547 0.961 . S
C488 H548 0.961 . S
C489 C486 1.496 . S
C489 H549 0.960 . S
C489 H550 0.960 . S
C489 H551 0.961 . S
C490 C491 1.517 . S
C490 H553 0.961 . S
C490 H554 0.960 . S
C490 H555 0.959 . S
C491 C490 1.517 . S
C491 O539 1.468 . S
C491 H552 0.980 . S
C492 C493 1.349 . S
C492 C497 1.367 . S
C492 O539 1.408 . S
C493 C492 1.349 . S
C493 C494 1.407 . S
C493 H556 0.930 . S
C494 C493 1.407 . S
C494 C495 1.449 . S
C494 C498 1.535 . S
C495 C494 1.449 . S
C495 C496 1.384 . S
C495 C520 1.553 . S
C496 C495 1.384 . S
C496 C497 1.364 . S
C496 C499 1.450 . S
C497 C492 1.367 . S
C497 C496 1.364 . S
C497 H557 0.931 . S
C498 C494 1.535 . S
C498 H558 0.959 . S
C498 H559 0.961 . S
C498 H560 0.959 . S
C499 C496 1.450 . S
C499 H561 0.960 . S
C499 H562 0.960 . S
C499 H563 0.960 . S
C500 C501 1.309 . S
C500 C505 1.304 . S
C500 O538 1.435 . S
C501 C500 1.309 . S
C501 C502 1.476 . S
C501 H565 0.930 . S
C502 C501 1.476 . S
C502 C503 1.400 . S
C502 C506 1.567 . S
C503 C502 1.400 . S
C503 C504 1.373 . S
C503 C525 1.432 . S
C504 C503 1.373 . S
C504 C505 1.339 . S
C504 C507 1.530 . S
C505 C500 1.304 . S
C505 C504 1.339 . S
C505 H566 0.930 . S
C506 C502 1.567 . S
C506 H567 0.961 . S
C506 H568 0.960 . S
C506 H569 0.958 . S
C507 C504 1.530 . S
C507 H570 0.961 . S
C507 H571 0.960 . S
C507 H572 0.960 . S
C508 C509 1.530 . S
C508 H574 0.961 . S
C508 H575 0.961 . S
C508 H576 0.959 . S
C509 C508 1.530 . S
C509 O537 1.412 . S
C509 H573 0.980 . S
C510 C511 1.288 . S
C510 C515 1.377 . S
C510 O537 1.393 . S
C511 C510 1.288 . S
C511 C512 1.369 . S
C511 H577 0.932 . S
C512 C511 1.369 . S
C512 C513 1.398 . S
C512 C516 1.527 . S
C513 C512 1.398 . S
C513 C514 1.380 . S
C513 C527 1.497 . S
C514 C513 1.380 . S
C514 C515 1.383 . S
C514 C517 1.603 . S
C515 C510 1.377 . S
C515 C514 1.383 . S
C515 H578 0.929 . S
C516 C512 1.527 . S
C516 H579 0.961 . S
C516 H580 0.959 . S
C516 H581 0.959 . S
C517 C514 1.603 . S
C517 H582 0.960 . S
C517 H583 0.962 . S
C517 H584 0.961 . S
C518 C485 1.587 . S
C518 C519 1.360 . S
C518 C531 1.412 . S
C519 C518 1.360 . S
C519 C520 1.365 . S
C519 H585 0.929 . S
C520 C495 1.553 . S
C520 C519 1.365 . S
C520 C521 1.404 . S
C521 C520 1.404 . S
C521 C522 1.395 . S
C521 C532 1.451 . S
C522 C521 1.395 . S
C522 C523 1.322 . S
C522 H586 0.930 . S
C523 C522 1.322 . S
C523 C524 1.459 . S
C523 H587 0.929 . S
C524 C523 1.459 . S
C524 C525 1.445 . S
C524 C533 1.395 . S
C525 C503 1.432 . S
C525 C524 1.445 . S
C525 C526 1.370 . S
C526 C525 1.370 . S
C526 C527 1.438 . S
C526 H588 0.930 . S
C527 C513 1.497 . S
C527 C526 1.438 . S
C527 C528 1.360 . S
C528 C527 1.360 . S
C528 C529 1.401 . S
C528 C533 1.446 . S
C529 C528 1.401 . S
C529 C530 1.347 . S
C529 H589 0.929 . S
C530 C529 1.347 . S
C530 C531 1.455 . S
C530 H590 0.930 . S
C531 C518 1.412 . S
C531 C530 1.455 . S
C531 C532 1.331 . S
C532 C521 1.451 . S
C532 C531 1.331 . S
C532 C533 1.497 . S
C533 C524 1.395 . S
C533 C528 1.446 . S
C533 C532 1.497 . S
C534 C535 1.582 . S
C534 H591 0.962 . S
C534 H592 0.959 . S
C534 H593 0.958 . S
C535 C534 1.582 . S
C535 O538 1.458 . S
C535 H564 0.980 . S
O536 C481 1.426 . S
O536 C482 1.334 . S
O537 C509 1.412 . S
O537 C510 1.393 . S
O538 C500 1.435 . S
O538 C535 1.458 . S
O539 C491 1.468 . S
O539 C492 1.408 . S
H540 C481 0.980 . S
H541 C480 0.959 . S
H542 C480 0.959 . S
H543 C480 0.960 . S
H544 C483 0.929 . S
H545 C487 0.929 . S
H546 C488 0.959 . S
H547 C488 0.961 . S
H548 C488 0.961 . S
H549 C489 0.960 . S
H550 C489 0.960 . S
H551 C489 0.961 . S
H552 C491 0.980 . S
H553 C490 0.961 . S
H554 C490 0.960 . S
H555 C490 0.959 . S
H556 C493 0.930 . S
H557 C497 0.931 . S
H558 C498 0.959 . S
H559 C498 0.961 . S
H560 C498 0.959 . S
H561 C499 0.960 . S
H562 C499 0.960 . S
H563 C499 0.960 . S
H564 C535 0.980 . S
H565 C501 0.930 . S
H566 C505 0.930 . S
H567 C506 0.961 . S
H568 C506 0.960 . S
H569 C506 0.958 . S
H570 C507 0.961 . S
H571 C507 0.960 . S
H572 C507 0.960 . S
H573 C509 0.980 . S
H574 C508 0.961 . S
H575 C508 0.961 . S
H576 C508 0.959 . S
H577 C511 0.932 . S
H578 C515 0.929 . S
H579 C516 0.961 . S
H580 C516 0.959 . S
H581 C516 0.959 . S
H582 C517 0.960 . S
H583 C517 0.962 . S
H584 C517 0.961 . S
H585 C519 0.929 . S
H586 C522 0.930 . S
H587 C523 0.929 . S
H588 C526 0.930 . S
H589 C529 0.929 . S
H590 C530 0.930 . S
H591 C534 0.962 . S
H592 C534 0.959 . S
H593 C534 0.958 . S
C594 C595 1.560 . S
C594 H655 0.959 . S
C594 H656 0.959 . S
C594 H657 0.960 . S
C595 C594 1.560 . S
C595 O650 1.426 . S
C595 H654 0.980 . S
C596 C597 1.407 . S
C596 C601 1.418 . S
C596 O650 1.334 . S
C597 C596 1.407 . S
C597 C598 1.360 . S
C597 H658 0.929 . S
C598 C597 1.360 . S
C598 C599 1.401 . S
C598 C602 1.527 . S
C599 C598 1.401 . S
C599 C600 1.405 . S
C599 C632 1.587 . S
C600 C599 1.405 . S
C600 C601 1.332 . S
C600 C603 1.496 . S
C601 C596 1.418 . S
C601 C600 1.332 . S
C601 H659 0.929 . S
C602 C598 1.527 . S
C602 H660 0.959 . S
C602 H661 0.961 . S
C602 H662 0.961 . S
C603 C600 1.496 . S
C603 H663 0.960 . S
C603 H664 0.960 . S
C603 H665 0.961 . S
C604 C605 1.517 . S
C604 H667 0.961 . S
C604 H668 0.960 . S
C604 H669 0.959 . S
C605 C604 1.517 . S
C605 O653 1.468 . S
C605 H666 0.980 . S
C606 C607 1.349 . S
C606 C611 1.367 . S
C606 O653 1.408 . S
C607 C606 1.349 . S
C607 C608 1.407 . S
C607 H670 0.930 . S
C608 C607 1.407 . S
C608 C609 1.449 . S
C608 C612 1.535 . S
C609 C608 1.449 . S
C609 C610 1.384 . S
C609 C634 1.553 . S
C610 C609 1.384 . S
C610 C611 1.364 . S
C610 C613 1.450 . S
C611 C606 1.367 . S
C611 C610 1.364 . S
C611 H671 0.931 . S
C612 C608 1.535 . S
C612 H672 0.959 . S
C612 H673 0.961 . S
C612 H674 0.959 . S
C613 C610 1.450 . S
C613 H675 0.960 . S
C613 H676 0.960 . S
C613 H677 0.960 . S
C614 C615 1.309 . S
C614 C619 1.304 . S
C614 O652 1.435 . S
C615 C614 1.309 . S
C615 C616 1.476 . S
C615 H679 0.930 . S
C616 C615 1.476 . S
C616 C617 1.400 . S
C616 C620 1.567 . S
C617 C616 1.400 . S
C617 C618 1.373 . S
C617 C639 1.432 . S
C618 C617 1.373 . S
C618 C619 1.339 . S
C618 C621 1.530 . S
C619 C614 1.304 . S
C619 C618 1.339 . S
C619 H680 0.930 . S
C620 C616 1.567 . S
C620 H681 0.961 . S
C620 H682 0.960 . S
C620 H683 0.958 . S
C621 C618 1.530 . S
C621 H684 0.961 . S
C621 H685 0.960 . S
C621 H686 0.960 . S
C622 C623 1.530 . S
C622 H688 0.961 . S
C622 H689 0.961 . S
C622 H690 0.959 . S
C623 C622 1.530 . S
C623 O651 1.412 . S
C623 H687 0.980 . S
C624 C625 1.288 . S
C624 C629 1.377 . S
C624 O651 1.393 . S
C625 C624 1.288 . S
C625 C626 1.369 . S
C625 H691 0.932 . S
C626 C625 1.369 . S
C626 C627 1.398 . S
C626 C630 1.527 . S
C627 C626 1.398 . S
C627 C628 1.380 . S
C627 C641 1.497 . S
C628 C627 1.380 . S
C628 C629 1.383 . S
C628 C631 1.603 . S
C629 C624 1.377 . S
C629 C628 1.383 . S
C629 H692 0.929 . S
C630 C626 1.527 . S
C630 H693 0.961 . S
C630 H694 0.959 . S
C630 H695 0.959 . S
C631 C628 1.603 . S
C631 H696 0.960 . S
C631 H697 0.962 . S
C631 H698 0.961 . S
C632 C599 1.587 . S
C632 C633 1.360 . S
C632 C645 1.412 . S
C633 C632 1.360 . S
C633 C634 1.365 . S
C633 H699 0.929 . S
C634 C609 1.553 . S
C634 C633 1.365 . S
C634 C635 1.404 . S
C635 C634 1.404 . S
C635 C636 1.395 . S
C635 C646 1.451 . S
C636 C635 1.395 . S
C636 C637 1.322 . S
C636 H700 0.930 . S
C637 C636 1.322 . S
C637 C638 1.459 . S
C637 H701 0.929 . S
C638 C637 1.459 . S
C638 C639 1.445 . S
C638 C647 1.395 . S
C639 C617 1.432 . S
C639 C638 1.445 . S
C639 C640 1.370 . S
C640 C639 1.370 . S
C640 C641 1.438 . S
C640 H702 0.930 . S
C641 C627 1.497 . S
C641 C640 1.438 . S
C641 C642 1.360 . S
C642 C641 1.360 . S
C642 C643 1.401 . S
C642 C647 1.446 . S
C643 C642 1.401 . S
C643 C644 1.347 . S
C643 H703 0.929 . S
C644 C643 1.347 . S
C644 C645 1.455 . S
C644 H704 0.930 . S
C645 C632 1.412 . S
C645 C644 1.455 . S
C645 C646 1.331 . S
C646 C635 1.451 . S
C646 C645 1.331 . S
C646 C647 1.497 . S
C647 C638 1.395 . S
C647 C642 1.446 . S
C647 C646 1.497 . S
C648 C649 1.582 . S
C648 H705 0.962 . S
C648 H706 0.959 . S
C648 H707 0.958 . S
C649 C648 1.582 . S
C649 O652 1.458 . S
C649 H678 0.980 . S
O650 C595 1.426 . S
O650 C596 1.334 . S
O651 C623 1.412 . S
O651 C624 1.393 . S
O652 C614 1.435 . S
O652 C649 1.458 . S
O653 C605 1.468 . S
O653 C606 1.408 . S
H654 C595 0.980 . S
H655 C594 0.959 . S
H656 C594 0.959 . S
H657 C594 0.960 . S
H658 C597 0.929 . S
H659 C601 0.929 . S
H660 C602 0.959 . S
H661 C602 0.961 . S
H662 C602 0.961 . S
H663 C603 0.960 . S
H664 C603 0.960 . S
H665 C603 0.961 . S
H666 C605 0.980 . S
H667 C604 0.961 . S
H668 C604 0.960 . S
H669 C604 0.959 . S
H670 C607 0.930 . S
H671 C611 0.931 . S
H672 C612 0.959 . S
H673 C612 0.961 . S
H674 C612 0.959 . S
H675 C613 0.960 . S
H676 C613 0.960 . S
H677 C613 0.960 . S
H678 C649 0.980 . S
H679 C615 0.930 . S
H680 C619 0.930 . S
H681 C620 0.961 . S
H682 C620 0.960 . S
H683 C620 0.958 . S
H684 C621 0.961 . S
H685 C621 0.960 . S
H686 C621 0.960 . S
H687 C623 0.980 . S
H688 C622 0.961 . S
H689 C622 0.961 . S
H690 C622 0.959 . S
H691 C625 0.932 . S
H692 C629 0.929 . S
H693 C630 0.961 . S
H694 C630 0.959 . S
H695 C630 0.959 . S
H696 C631 0.960 . S
H697 C631 0.962 . S
H698 C631 0.961 . S
H699 C633 0.929 . S
H700 C636 0.930 . S
H701 C637 0.929 . S
H702 C640 0.930 . S
H703 C643 0.929 . S
H704 C644 0.930 . S
H705 C648 0.962 . S
H706 C648 0.959 . S
H707 C648 0.958 . S
C708 C709 1.560 . S
C708 H769 0.959 . S
C708 H770 0.959 . S
C708 H771 0.960 . S
C709 C708 1.560 . S
C709 O764 1.426 . S
C709 H768 0.980 . S
C710 C711 1.407 . S
C710 C715 1.418 . S
C710 O764 1.334 . S
C711 C710 1.407 . S
C711 C712 1.360 . S
C711 H772 0.929 . S
C712 C711 1.360 . S
C712 C713 1.401 . S
C712 C716 1.527 . S
C713 C712 1.401 . S
C713 C714 1.405 . S
C713 C746 1.587 . S
C714 C713 1.405 . S
C714 C715 1.332 . S
C714 C717 1.496 . S
C715 C710 1.418 . S
C715 C714 1.332 . S
C715 H773 0.929 . S
C716 C712 1.527 . S
C716 H774 0.959 . S
C716 H775 0.961 . S
C716 H776 0.961 . S
C717 C714 1.496 . S
C717 H777 0.960 . S
C717 H778 0.960 . S
C717 H779 0.961 . S
C718 C719 1.517 . S
C718 H781 0.961 . S
C718 H782 0.960 . S
C718 H783 0.959 . S
C719 C718 1.517 . S
C719 O767 1.468 . S
C719 H780 0.980 . S
C720 C721 1.349 . S
C720 C725 1.367 . S
C720 O767 1.408 . S
C721 C720 1.349 . S
C721 C722 1.407 . S
C721 H784 0.930 . S
C722 C721 1.407 . S
C722 C723 1.449 . S
C722 C726 1.535 . S
C723 C722 1.449 . S
C723 C724 1.384 . S
C723 C748 1.553 . S
C724 C723 1.384 . S
C724 C725 1.364 . S
C724 C727 1.450 . S
C725 C720 1.367 . S
C725 C724 1.364 . S
C725 H785 0.931 . S
C726 C722 1.535 . S
C726 H786 0.959 . S
C726 H787 0.961 . S
C726 H788 0.959 . S
C727 C724 1.450 . S
C727 H789 0.960 . S
C727 H790 0.960 . S
C727 H791 0.960 . S
C728 C729 1.309 . S
C728 C733 1.304 . S
C728 O766 1.435 . S
C729 C728 1.309 . S
C729 C730 1.476 . S
C729 H793 0.930 . S
C730 C729 1.476 . S
C730 C731 1.400 . S
C730 C734 1.567 . S
C731 C730 1.400 . S
C731 C732 1.373 . S
C731 C753 1.432 . S
C732 C731 1.373 . S
C732 C733 1.339 . S
C732 C735 1.530 . S
C733 C728 1.304 . S
C733 C732 1.339 . S
C733 H794 0.930 . S
C734 C730 1.567 . S
C734 H795 0.961 . S
C734 H796 0.960 . S
C734 H797 0.958 . S
C735 C732 1.530 . S
C735 H798 0.961 . S
C735 H799 0.960 . S
C735 H800 0.960 . S
C736 C737 1.530 . S
C736 H802 0.961 . S
C736 H803 0.961 . S
C736 H804 0.959 . S
C737 C736 1.530 . S
C737 O765 1.412 . S
C737 H801 0.980 . S
C738 C739 1.288 . S
C738 C743 1.377 . S
C738 O765 1.393 . S
C739 C738 1.288 . S
C739 C740 1.369 . S
C739 H805 0.932 . S
C740 C739 1.369 . S
C740 C741 1.398 . S
C740 C744 1.527 . S
C741 C740 1.398 . S
C741 C742 1.380 . S
C741 C755 1.497 . S
C742 C741 1.380 . S
C742 C743 1.383 . S
C742 C745 1.603 . S
C743 C738 1.377 . S
C743 C742 1.383 . S
C743 H806 0.929 . S
C744 C740 1.527 . S
C744 H807 0.961 . S
C744 H808 0.959 . S
C744 H809 0.959 . S
C745 C742 1.603 . S
C745 H810 0.960 . S
C745 H811 0.962 . S
C745 H812 0.961 . S
C746 C713 1.587 . S
C746 C747 1.360 . S
C746 C759 1.412 . S
C747 C746 1.360 . S
C747 C748 1.365 . S
C747 H813 0.929 . S
C748 C723 1.553 . S
C748 C747 1.365 . S
C748 C749 1.404 . S
C749 C748 1.404 . S
C749 C750 1.395 . S
C749 C760 1.451 . S
C750 C749 1.395 . S
C750 C751 1.322 . S
C750 H814 0.930 . S
C751 C750 1.322 . S
C751 C752 1.459 . S
C751 H815 0.929 . S
C752 C751 1.459 . S
C752 C753 1.445 . S
C752 C761 1.395 . S
C753 C731 1.432 . S
C753 C752 1.445 . S
C753 C754 1.370 . S
C754 C753 1.370 . S
C754 C755 1.438 . S
C754 H816 0.930 . S
C755 C741 1.497 . S
C755 C754 1.438 . S
C755 C756 1.360 . S
C756 C755 1.360 . S
C756 C757 1.401 . S
C756 C761 1.446 . S
C757 C756 1.401 . S
C757 C758 1.347 . S
C757 H817 0.929 . S
C758 C757 1.347 . S
C758 C759 1.455 . S
C758 H818 0.930 . S
C759 C746 1.412 . S
C759 C758 1.455 . S
C759 C760 1.331 . S
C760 C749 1.451 . S
C760 C759 1.331 . S
C760 C761 1.497 . S
C761 C752 1.395 . S
C761 C756 1.446 . S
C761 C760 1.497 . S
C762 C763 1.582 . S
C762 H819 0.962 . S
C762 H820 0.959 . S
C762 H821 0.958 . S
C763 C762 1.582 . S
C763 O766 1.458 . S
C763 H792 0.980 . S
O764 C709 1.426 . S
O764 C710 1.334 . S
O765 C737 1.412 . S
O765 C738 1.393 . S
O766 C728 1.435 . S
O766 C763 1.458 . S
O767 C719 1.468 . S
O767 C720 1.408 . S
H768 C709 0.980 . S
H769 C708 0.959 . S
H770 C708 0.959 . S
H771 C708 0.960 . S
H772 C711 0.929 . S
H773 C715 0.929 . S
H774 C716 0.959 . S
H775 C716 0.961 . S
H776 C716 0.961 . S
H777 C717 0.960 . S
H778 C717 0.960 . S
H779 C717 0.961 . S
H780 C719 0.980 . S
H781 C718 0.961 . S
H782 C718 0.960 . S
H783 C718 0.959 . S
H784 C721 0.930 . S
H785 C725 0.931 . S
H786 C726 0.959 . S
H787 C726 0.961 . S
H788 C726 0.959 . S
H789 C727 0.960 . S
H790 C727 0.960 . S
H791 C727 0.960 . S
H792 C763 0.980 . S
H793 C729 0.930 . S
H794 C733 0.930 . S
H795 C734 0.961 . S
H796 C734 0.960 . S
H797 C734 0.958 . S
H798 C735 0.961 . S
H799 C735 0.960 . S
H800 C735 0.960 . S
H801 C737 0.980 . S
H802 C736 0.961 . S
H803 C736 0.961 . S
H804 C736 0.959 . S
H805 C739 0.932 . S
H806 C743 0.929 . S
H807 C744 0.961 . S
H808 C744 0.959 . S
H809 C744 0.959 . S
H810 C745 0.960 . S
H811 C745 0.962 . S
H812 C745 0.961 . S
H813 C747 0.929 . S
H814 C750 0.930 . S
H815 C751 0.929 . S
H816 C754 0.930 . S
H817 C757 0.929 . S
H818 C758 0.930 . S
H819 C762 0.962 . S
H820 C762 0.959 . S
H821 C762 0.958 . S
C822 C823 1.560 . S
C822 H883 0.959 . S
C822 H884 0.959 . S
C822 H885 0.960 . S
C823 C822 1.560 . S
C823 O878 1.426 . S
C823 H882 0.980 . S
C824 C825 1.407 . S
C824 C829 1.418 . S
C824 O878 1.334 . S
C825 C824 1.407 . S
C825 C826 1.360 . S
C825 H886 0.929 . S
C826 C825 1.360 . S
C826 C827 1.401 . S
C826 C830 1.527 . S
C827 C826 1.401 . S
C827 C828 1.405 . S
C827 C860 1.587 . S
C828 C827 1.405 . S
C828 C829 1.332 . S
C828 C831 1.496 . S
C829 C824 1.418 . S
C829 C828 1.332 . S
C829 H887 0.929 . S
C830 C826 1.527 . S
C830 H888 0.959 . S
C830 H889 0.961 . S
C830 H890 0.961 . S
C831 C828 1.496 . S
C831 H891 0.960 . S
C831 H892 0.960 . S
C831 H893 0.961 . S
C832 C833 1.517 . S
C832 H895 0.961 . S
C832 H896 0.960 . S
C832 H897 0.959 . S
C833 C832 1.517 . S
C833 O881 1.468 . S
C833 H894 0.980 . S
C834 C835 1.349 . S
C834 C839 1.367 . S
C834 O881 1.408 . S
C835 C834 1.349 . S
C835 C836 1.407 . S
C835 H898 0.930 . S
C836 C835 1.407 . S
C836 C837 1.449 . S
C836 C840 1.535 . S
C837 C836 1.449 . S
C837 C838 1.384 . S
C837 C862 1.553 . S
C838 C837 1.384 . S
C838 C839 1.364 . S
C838 C841 1.450 . S
C839 C834 1.367 . S
C839 C838 1.364 . S
C839 H899 0.931 . S
C840 C836 1.535 . S
C840 H900 0.959 . S
C840 H901 0.961 . S
C840 H902 0.959 . S
C841 C838 1.450 . S
C841 H903 0.960 . S
C841 H904 0.960 . S
C841 H905 0.960 . S
C842 C843 1.309 . S
C842 C847 1.304 . S
C842 O880 1.435 . S
C843 C842 1.309 . S
C843 C844 1.476 . S
C843 H907 0.930 . S
C844 C843 1.476 . S
C844 C845 1.400 . S
C844 C848 1.567 . S
C845 C844 1.400 . S
C845 C846 1.373 . S
C845 C867 1.432 . S
C846 C845 1.373 . S
C846 C847 1.339 . S
C846 C849 1.530 . S
C847 C842 1.304 . S
C847 C846 1.339 . S
C847 H908 0.930 . S
C848 C844 1.567 . S
C848 H909 0.961 . S
C848 H910 0.960 . S
C848 H911 0.958 . S
C849 C846 1.530 . S
C849 H912 0.961 . S
C849 H913 0.960 . S
C849 H914 0.960 . S
C850 C851 1.530 . S
C850 H916 0.961 . S
C850 H917 0.961 . S
C850 H918 0.959 . S
C851 C850 1.530 . S
C851 O879 1.412 . S
C851 H915 0.980 . S
C852 C853 1.288 . S
C852 C857 1.377 . S
C852 O879 1.393 . S
C853 C852 1.288 . S
C853 C854 1.369 . S
C853 H919 0.932 . S
C854 C853 1.369 . S
C854 C855 1.398 . S
C854 C858 1.527 . S
C855 C854 1.398 . S
C855 C856 1.380 . S
C855 C869 1.497 . S
C856 C855 1.380 . S
C856 C857 1.383 . S
C856 C859 1.603 . S
C857 C852 1.377 . S
C857 C856 1.383 . S
C857 H920 0.929 . S
C858 C854 1.527 . S
C858 H921 0.961 . S
C858 H922 0.959 . S
C858 H923 0.959 . S
C859 C856 1.603 . S
C859 H924 0.960 . S
C859 H925 0.962 . S
C859 H926 0.961 . S
C860 C827 1.587 . S
C860 C861 1.360 . S
C860 C873 1.412 . S
C861 C860 1.360 . S
C861 C862 1.365 . S
C861 H927 0.929 . S
C862 C837 1.553 . S
C862 C861 1.365 . S
C862 C863 1.404 . S
C863 C862 1.404 . S
C863 C864 1.395 . S
C863 C874 1.451 . S
C864 C863 1.395 . S
C864 C865 1.322 . S
C864 H928 0.930 . S
C865 C864 1.322 . S
C865 C866 1.459 . S
C865 H929 0.929 . S
C866 C865 1.459 . S
C866 C867 1.445 . S
C866 C875 1.395 . S
C867 C845 1.432 . S
C867 C866 1.445 . S
C867 C868 1.370 . S
C868 C867 1.370 . S
C868 C869 1.438 . S
C868 H930 0.930 . S
C869 C855 1.497 . S
C869 C868 1.438 . S
C869 C870 1.360 . S
C870 C869 1.360 . S
C870 C871 1.401 . S
C870 C875 1.446 . S
C871 C870 1.401 . S
C871 C872 1.347 . S
C871 H931 0.929 . S
C872 C871 1.347 . S
C872 C873 1.455 . S
C872 H932 0.930 . S
C873 C860 1.412 . S
C873 C872 1.455 . S
C873 C874 1.331 . S
C874 C863 1.451 . S
C874 C873 1.331 . S
C874 C875 1.497 . S
C875 C866 1.395 . S
C875 C870 1.446 . S
C875 C874 1.497 . S
C876 C877 1.582 . S
C876 H933 0.962 . S
C876 H934 0.959 . S
C876 H935 0.958 . S
C877 C876 1.582 . S
C877 O880 1.458 . S
C877 H906 0.980 . S
O878 C823 1.426 . S
O878 C824 1.334 . S
O879 C851 1.412 . S
O879 C852 1.393 . S
O880 C842 1.435 . S
O880 C877 1.458 . S
O881 C833 1.468 . S
O881 C834 1.408 . S
H882 C823 0.980 . S
H883 C822 0.959 . S
H884 C822 0.959 . S
H885 C822 0.960 . S
H886 C825 0.929 . S
H887 C829 0.929 . S
H888 C830 0.959 . S
H889 C830 0.961 . S
H890 C830 0.961 . S
H891 C831 0.960 . S
H892 C831 0.960 . S
H893 C831 0.961 . S
H894 C833 0.980 . S
H895 C832 0.961 . S
H896 C832 0.960 . S
H897 C832 0.959 . S
H898 C835 0.930 . S
H899 C839 0.931 . S
H900 C840 0.959 . S
H901 C840 0.961 . S
H902 C840 0.959 . S
H903 C841 0.960 . S
H904 C841 0.960 . S
H905 C841 0.960 . S
H906 C877 0.980 . S
H907 C843 0.930 . S
H908 C847 0.930 . S
H909 C848 0.961 . S
H910 C848 0.960 . S
H911 C848 0.958 . S
H912 C849 0.961 . S
H913 C849 0.960 . S
H914 C849 0.960 . S
H915 C851 0.980 . S
H916 C850 0.961 . S
H917 C850 0.961 . S
H918 C850 0.959 . S
H919 C853 0.932 . S
H920 C857 0.929 . S
H921 C858 0.961 . S
H922 C858 0.959 . S
H923 C858 0.959 . S
H924 C859 0.960 . S
H925 C859 0.962 . S
H926 C859 0.961 . S
H927 C861 0.929 . S
H928 C864 0.930 . S
H929 C865 0.929 . S
H930 C868 0.930 . S
H931 C871 0.929 . S
H932 C872 0.930 . S
H933 C876 0.962 . S
H934 C876 0.959 . S
H935 C876 0.958 . S
C936 C937 1.560 . S
C936 H997 0.959 . S
C936 H998 0.959 . S
C936 H999 0.960 . S
C937 C936 1.560 . S
C937 O992 1.426 . S
C937 H996 0.980 . S
C938 C939 1.407 . S
C938 C943 1.418 . S
C938 O992 1.334 . S
C939 C938 1.407 . S
C939 C940 1.360 . S
C939 H1000 0.929 . S
C940 C939 1.360 . S
C940 C941 1.401 . S
C940 C944 1.527 . S
C941 C940 1.401 . S
C941 C942 1.405 . S
C941 C974 1.587 . S
C942 C941 1.405 . S
C942 C943 1.332 . S
C942 C945 1.496 . S
C943 C938 1.418 . S
C943 C942 1.332 . S
C943 H1001 0.929 . S
C944 C940 1.527 . S
C944 H1002 0.959 . S
C944 H1003 0.961 . S
C944 H1004 0.961 . S
C945 C942 1.496 . S
C945 H1005 0.960 . S
C945 H1006 0.960 . S
C945 H1007 0.961 . S
C946 C947 1.517 . S
C946 H1009 0.961 . S
C946 H1010 0.960 . S
C946 H1011 0.959 . S
C947 C946 1.517 . S
C947 O995 1.468 . S
C947 H1008 0.980 . S
C948 C949 1.349 . S
C948 C953 1.367 . S
C948 O995 1.408 . S
C949 C948 1.349 . S
C949 C950 1.407 . S
C949 H1012 0.930 . S
C950 C949 1.407 . S
C950 C951 1.449 . S
C950 C954 1.535 . S
C951 C950 1.449 . S
C951 C952 1.384 . S
C951 C976 1.553 . S
C952 C951 1.384 . S
C952 C953 1.364 . S
C952 C955 1.450 . S
C953 C948 1.367 . S
C953 C952 1.364 . S
C953 H1013 0.931 . S
C954 C950 1.535 . S
C954 H1014 0.959 . S
C954 H1015 0.961 . S
C954 H1016 0.959 . S
C955 C952 1.450 . S
C955 H1017 0.960 . S
C955 H1018 0.960 . S
C955 H1019 0.960 . S
C956 C957 1.309 . S
C956 C961 1.304 . S
C956 O994 1.435 . S
C957 C956 1.309 . S
C957 C958 1.476 . S
C957 H1021 0.930 . S
C958 C957 1.476 . S
C958 C959 1.400 . S
C958 C962 1.567 . S
C959 C958 1.400 . S
C959 C960 1.373 . S
C959 C981 1.432 . S
C960 C959 1.373 . S
C960 C961 1.339 . S
C960 C963 1.530 . S
C961 C956 1.304 . S
C961 C960 1.339 . S
C961 H1022 0.930 . S
C962 C958 1.567 . S
C962 H1023 0.961 . S
C962 H1024 0.960 . S
C962 H1025 0.958 . S
C963 C960 1.530 . S
C963 H1026 0.961 . S
C963 H1027 0.960 . S
C963 H1028 0.960 . S
C964 C965 1.530 . S
C964 H1030 0.961 . S
C964 H1031 0.961 . S
C964 H1032 0.959 . S
C965 C964 1.530 . S
C965 O993 1.412 . S
C965 H1029 0.980 . S
C966 C967 1.288 . S
C966 C971 1.377 . S
C966 O993 1.393 . S
C967 C966 1.288 . S
C967 C968 1.369 . S
C967 H1033 0.932 . S
C968 C967 1.369 . S
C968 C969 1.398 . S
C968 C972 1.527 . S
C969 C968 1.398 . S
C969 C970 1.380 . S
C969 C983 1.497 . S
C970 C969 1.380 . S
C970 C971 1.383 . S
C970 C973 1.603 . S
C971 C966 1.377 . S
C971 C970 1.383 . S
C971 H1034 0.929 . S
C972 C968 1.527 . S
C972 H1035 0.961 . S
C972 H1036 0.959 . S
C972 H1037 0.959 . S
C973 C970 1.603 . S
C973 H1038 0.960 . S
C973 H1039 0.962 . S
C973 H1040 0.961 . S
C974 C941 1.587 . S
C974 C975 1.360 . S
C974 C987 1.412 . S
C975 C974 1.360 . S
C975 C976 1.365 . S
C975 H1041 0.929 . S
C976 C951 1.553 . S
C976 C975 1.365 . S
C976 C977 1.404 . S
C977 C976 1.404 . S
C977 C978 1.395 . S
C977 C988 1.451 . S
C978 C977 1.395 . S
C978 C979 1.322 . S
C978 H1042 0.930 . S
C979 C978 1.322 . S
C979 C980 1.459 . S
C979 H1043 0.929 . S
C980 C979 1.459 . S
C980 C981 1.445 . S
C980 C989 1.395 . S
C981 C959 1.432 . S
C981 C980 1.445 . S
C981 C982 1.370 . S
C982 C981 1.370 . S
C982 C983 1.438 . S
C982 H1044 0.930 . S
C983 C969 1.497 . S
C983 C982 1.438 . S
C983 C984 1.360 . S
C984 C983 1.360 . S
C984 C985 1.401 . S
C984 C989 1.446 . S
C985 C984 1.401 . S
C985 C986 1.347 . S
C985 H1045 0.929 . S
C986 C985 1.347 . S
C986 C987 1.455 . S
C986 H1046 0.930 . S
C987 C974 1.412 . S
C987 C986 1.455 . S
C987 C988 1.331 . S
C988 C977 1.451 . S
C988 C987 1.331 . S
C988 C989 1.497 . S
C989 C980 1.395 . S
C989 C984 1.446 . S
C989 C988 1.497 . S
C990 C991 1.582 . S
C990 H1047 0.962 . S
C990 H1048 0.959 . S
C990 H1049 0.958 . S
C991 C990 1.582 . S
C991 O994 1.458 . S
C991 H1020 0.980 . S
O992 C937 1.426 . S
O992 C938 1.334 . S
O993 C965 1.412 . S
O993 C966 1.393 . S
O994 C956 1.435 . S
O994 C991 1.458 . S
O995 C947 1.468 . S
O995 C948 1.408 . S
H996 C937 0.980 . S
H997 C936 0.959 . S
H998 C936 0.959 . S
H999 C936 0.960 . S
H1000 C939 0.929 . S
H1001 C943 0.929 . S
H1002 C944 0.959 . S
H1003 C944 0.961 . S
H1004 C944 0.961 . S
H1005 C945 0.960 . S
H1006 C945 0.960 . S
H1007 C945 0.961 . S
H1008 C947 0.980 . S
H1009 C946 0.961 . S
H1010 C946 0.960 . S
H1011 C946 0.959 . S
H1012 C949 0.930 . S
H1013 C953 0.931 . S
H1014 C954 0.959 . S
H1015 C954 0.961 . S
H1016 C954 0.959 . S
H1017 C955 0.960 . S
H1018 C955 0.960 . S
H1019 C955 0.960 . S
H1020 C991 0.980 . S
H1021 C957 0.930 . S
H1022 C961 0.930 . S
H1023 C962 0.961 . S
H1024 C962 0.960 . S
H1025 C962 0.958 . S
H1026 C963 0.961 . S
H1027 C963 0.960 . S
H1028 C963 0.960 . S
H1029 C965 0.980 . S
H1030 C964 0.961 . S
H1031 C964 0.961 . S
H1032 C964 0.959 . S
H1033 C967 0.932 . S
H1034 C971 0.929 . S
H1035 C972 0.961 . S
H1036 C972 0.959 . S
H1037 C972 0.959 . S
H1038 C973 0.960 . S
H1039 C973 0.962 . S
H1040 C973 0.961 . S
H1041 C975 0.929 . S
H1042 C978 0.930 . S
H1043 C979 0.929 . S
H1044 C982 0.930 . S
H1045 C985 0.929 . S
H1046 C986 0.930 . S
H1047 C990 0.962 . S
H1048 C990 0.959 . S
H1049 C990 0.958 . S
C1050 C1051 1.560 . S
C1050 H1111 0.959 . S
C1050 H1112 0.959 . S
C1050 H1113 0.960 . S
C1051 C1050 1.560 . S
C1051 O1106 1.426 . S
C1051 H1110 0.980 . S
C1052 C1053 1.407 . S
C1052 C1057 1.418 . S
C1052 O1106 1.334 . S
C1053 C1052 1.407 . S
C1053 C1054 1.360 . S
C1053 H1114 0.929 . S
C1054 C1053 1.360 . S
C1054 C1055 1.401 . S
C1054 C1058 1.527 . S
C1055 C1054 1.401 . S
C1055 C1056 1.405 . S
C1055 C1088 1.587 . S
C1056 C1055 1.405 . S
C1056 C1057 1.332 . S
C1056 C1059 1.496 . S
C1057 C1052 1.418 . S
C1057 C1056 1.332 . S
C1057 H1115 0.929 . S
C1058 C1054 1.527 . S
C1058 H1116 0.959 . S
C1058 H1117 0.961 . S
C1058 H1118 0.961 . S
C1059 C1056 1.496 . S
C1059 H1119 0.960 . S
C1059 H1120 0.960 . S
C1059 H1121 0.961 . S
C1060 C1061 1.517 . S
C1060 H1123 0.961 . S
C1060 H1124 0.960 . S
C1060 H1125 0.959 . S
C1061 C1060 1.517 . S
C1061 O1109 1.468 . S
C1061 H1122 0.980 . S
C1062 C1063 1.349 . S
C1062 C1067 1.367 . S
C1062 O1109 1.408 . S
C1063 C1062 1.349 . S
C1063 C1064 1.407 . S
C1063 H1126 0.930 . S
C1064 C1063 1.407 . S
C1064 C1065 1.449 . S
C1064 C1068 1.535 . S
C1065 C1064 1.449 . S
C1065 C1066 1.384 . S
C1065 C1090 1.553 . S
C1066 C1065 1.384 . S
C1066 C1067 1.364 . S
C1066 C1069 1.450 . S
C1067 C1062 1.367 . S
C1067 C1066 1.364 . S
C1067 H1127 0.931 . S
C1068 C1064 1.535 . S
C1068 H1128 0.959 . S
C1068 H1129 0.961 . S
C1068 H1130 0.959 . S
C1069 C1066 1.450 . S
C1069 H1131 0.960 . S
C1069 H1132 0.960 . S
C1069 H1133 0.960 . S
C1070 C1071 1.309 . S
C1070 C1075 1.304 . S
C1070 O1108 1.435 . S
C1071 C1070 1.309 . S
C1071 C1072 1.476 . S
C1071 H1135 0.930 . S
C1072 C1071 1.476 . S
C1072 C1073 1.400 . S
C1072 C1076 1.567 . S
C1073 C1072 1.400 . S
C1073 C1074 1.373 . S
C1073 C1095 1.432 . S
C1074 C1073 1.373 . S
C1074 C1075 1.339 . S
C1074 C1077 1.530 . S
C1075 C1070 1.304 . S
C1075 C1074 1.339 . S
C1075 H1136 0.930 . S
C1076 C1072 1.567 . S
C1076 H1137 0.961 . S
C1076 H1138 0.960 . S
C1076 H1139 0.958 . S
C1077 C1074 1.530 . S
C1077 H1140 0.961 . S
C1077 H1141 0.960 . S
C1077 H1142 0.960 . S
C1078 C1079 1.530 . S
C1078 H1144 0.961 . S
C1078 H1145 0.961 . S
C1078 H1146 0.959 . S
C1079 C1078 1.530 . S
C1079 O1107 1.412 . S
C1079 H1143 0.980 . S
C1080 C1081 1.288 . S
C1080 C1085 1.377 . S
C1080 O1107 1.393 . S
C1081 C1080 1.288 . S
C1081 C1082 1.369 . S
C1081 H1147 0.932 . S
C1082 C1081 1.369 . S
C1082 C1083 1.398 . S
C1082 C1086 1.527 . S
C1083 C1082 1.398 . S
C1083 C1084 1.380 . S
C1083 C1097 1.497 . S
C1084 C1083 1.380 . S
C1084 C1085 1.383 . S
C1084 C1087 1.603 . S
C1085 C1080 1.377 . S
C1085 C1084 1.383 . S
C1085 H1148 0.929 . S
C1086 C1082 1.527 . S
C1086 H1149 0.961 . S
C1086 H1150 0.959 . S
C1086 H1151 0.959 . S
C1087 C1084 1.603 . S
C1087 H1152 0.960 . S
C1087 H1153 0.962 . S
C1087 H1154 0.961 . S
C1088 C1055 1.587 . S
C1088 C1089 1.360 . S
C1088 C1101 1.412 . S
C1089 C1088 1.360 . S
C1089 C1090 1.365 . S
C1089 H1155 0.929 . S
C1090 C1065 1.553 . S
C1090 C1089 1.365 . S
C1090 C1091 1.404 . S
C1091 C1090 1.404 . S
C1091 C1092 1.395 . S
C1091 C1102 1.451 . S
C1092 C1091 1.395 . S
C1092 C1093 1.322 . S
C1092 H1156 0.930 . S
C1093 C1092 1.322 . S
C1093 C1094 1.459 . S
C1093 H1157 0.929 . S
C1094 C1093 1.459 . S
C1094 C1095 1.445 . S
C1094 C1103 1.395 . S
C1095 C1073 1.432 . S
C1095 C1094 1.445 . S
C1095 C1096 1.370 . S
C1096 C1095 1.370 . S
C1096 C1097 1.438 . S
C1096 H1158 0.930 . S
C1097 C1083 1.497 . S
C1097 C1096 1.438 . S
C1097 C1098 1.360 . S
C1098 C1097 1.360 . S
C1098 C1099 1.401 . S
C1098 C1103 1.446 . S
C1099 C1098 1.401 . S
C1099 C1100 1.347 . S
C1099 H1159 0.929 . S
C1100 C1099 1.347 . S
C1100 C1101 1.455 . S
C1100 H1160 0.930 . S
C1101 C1088 1.412 . S
C1101 C1100 1.455 . S
C1101 C1102 1.331 . S
C1102 C1091 1.451 . S
C1102 C1101 1.331 . S
C1102 C1103 1.497 . S
C1103 C1094 1.395 . S
C1103 C1098 1.446 . S
C1103 C1102 1.497 . S
C1104 C1105 1.582 . S
C1104 H1161 0.962 . S
C1104 H1162 0.959 . S
C1104 H1163 0.958 . S
C1105 C1104 1.582 . S
C1105 O1108 1.458 . S
C1105 H1134 0.980 . S
O1106 C1051 1.426 . S
O1106 C1052 1.334 . S
O1107 C1079 1.412 . S
O1107 C1080 1.393 . S
O1108 C1070 1.435 . S
O1108 C1105 1.458 . S
O1109 C1061 1.468 . S
O1109 C1062 1.408 . S
H1110 C1051 0.980 . S
H1111 C1050 0.959 . S
H1112 C1050 0.959 . S
H1113 C1050 0.960 . S
H1114 C1053 0.929 . S
H1115 C1057 0.929 . S
H1116 C1058 0.959 . S
H1117 C1058 0.961 . S
H1118 C1058 0.961 . S
H1119 C1059 0.960 . S
H1120 C1059 0.960 . S
H1121 C1059 0.961 . S
H1122 C1061 0.980 . S
H1123 C1060 0.961 . S
H1124 C1060 0.960 . S
H1125 C1060 0.959 . S
H1126 C1063 0.930 . S
H1127 C1067 0.931 . S
H1128 C1068 0.959 . S
H1129 C1068 0.961 . S
H1130 C1068 0.959 . S
H1131 C1069 0.960 . S
H1132 C1069 0.960 . S
H1133 C1069 0.960 . S
H1134 C1105 0.980 . S
H1135 C1071 0.930 . S
H1136 C1075 0.930 . S
H1137 C1076 0.961 . S
H1138 C1076 0.960 . S
H1139 C1076 0.958 . S
H1140 C1077 0.961 . S
H1141 C1077 0.960 . S
H1142 C1077 0.960 . S
H1143 C1079 0.980 . S
H1144 C1078 0.961 . S
H1145 C1078 0.961 . S
H1146 C1078 0.959 . S
H1147 C1081 0.932 . S
H1148 C1085 0.929 . S
H1149 C1086 0.961 . S
H1150 C1086 0.959 . S
H1151 C1086 0.959 . S
H1152 C1087 0.960 . S
H1153 C1087 0.962 . S
H1154 C1087 0.961 . S
H1155 C1089 0.929 . S
H1156 C1092 0.930 . S
H1157 C1093 0.929 . S
H1158 C1096 0.930 . S
H1159 C1099 0.929 . S
H1160 C1100 0.930 . S
H1161 C1104 0.962 . S
H1162 C1104 0.959 . S
H1163 C1104 0.958 . S
C1164 C1165 1.560 . S
C1164 H1225 0.959 . S
C1164 H1226 0.959 . S
C1164 H1227 0.960 . S
C1165 C1164 1.560 . S
C1165 O1220 1.426 . S
C1165 H1224 0.980 . S
C1166 C1167 1.407 . S
C1166 C1171 1.418 . S
C1166 O1220 1.334 . S
C1167 C1166 1.407 . S
C1167 C1168 1.360 . S
C1167 H1228 0.929 . S
C1168 C1167 1.360 . S
C1168 C1169 1.401 . S
C1168 C1172 1.527 . S
C1169 C1168 1.401 . S
C1169 C1170 1.405 . S
C1169 C1202 1.587 . S
C1170 C1169 1.405 . S
C1170 C1171 1.332 . S
C1170 C1173 1.496 . S
C1171 C1166 1.418 . S
C1171 C1170 1.332 . S
C1171 H1229 0.929 . S
C1172 C1168 1.527 . S
C1172 H1230 0.959 . S
C1172 H1231 0.961 . S
C1172 H1232 0.961 . S
C1173 C1170 1.496 . S
C1173 H1233 0.960 . S
C1173 H1234 0.960 . S
C1173 H1235 0.961 . S
C1174 C1175 1.517 . S
C1174 H1237 0.961 . S
C1174 H1238 0.960 . S
C1174 H1239 0.959 . S
C1175 C1174 1.517 . S
C1175 O1223 1.468 . S
C1175 H1236 0.980 . S
C1176 C1177 1.349 . S
C1176 C1181 1.367 . S
C1176 O1223 1.408 . S
C1177 C1176 1.349 . S
C1177 C1178 1.407 . S
C1177 H1240 0.930 . S
C1178 C1177 1.407 . S
C1178 C1179 1.449 . S
C1178 C1182 1.535 . S
C1179 C1178 1.449 . S
C1179 C1180 1.384 . S
C1179 C1204 1.553 . S
C1180 C1179 1.384 . S
C1180 C1181 1.364 . S
C1180 C1183 1.450 . S
C1181 C1176 1.367 . S
C1181 C1180 1.364 . S
C1181 H1241 0.931 . S
C1182 C1178 1.535 . S
C1182 H1242 0.959 . S
C1182 H1243 0.961 . S
C1182 H1244 0.959 . S
C1183 C1180 1.450 . S
C1183 H1245 0.960 . S
C1183 H1246 0.960 . S
C1183 H1247 0.960 . S
C1184 C1185 1.309 . S
C1184 C1189 1.304 . S
C1184 O1222 1.435 . S
C1185 C1184 1.309 . S
C1185 C1186 1.476 . S
C1185 H1249 0.930 . S
C1186 C1185 1.476 . S
C1186 C1187 1.400 . S
C1186 C1190 1.567 . S
C1187 C1186 1.400 . S
C1187 C1188 1.373 . S
C1187 C1209 1.432 . S
C1188 C1187 1.373 . S
C1188 C1189 1.339 . S
C1188 C1191 1.530 . S
C1189 C1184 1.304 . S
C1189 C1188 1.339 . S
C1189 H1250 0.930 . S
C1190 C1186 1.567 . S
C1190 H1251 0.961 . S
C1190 H1252 0.960 . S
C1190 H1253 0.958 . S
C1191 C1188 1.530 . S
C1191 H1254 0.961 . S
C1191 H1255 0.960 . S
C1191 H1256 0.960 . S
C1192 C1193 1.530 . S
C1192 H1258 0.961 . S
C1192 H1259 0.961 . S
C1192 H1260 0.959 . S
C1193 C1192 1.530 . S
C1193 O1221 1.412 . S
C1193 H1257 0.980 . S
C1194 C1195 1.288 . S
C1194 C1199 1.377 . S
C1194 O1221 1.393 . S
C1195 C1194 1.288 . S
C1195 C1196 1.369 . S
C1195 H1261 0.932 . S
C1196 C1195 1.369 . S
C1196 C1197 1.398 . S
C1196 C1200 1.527 . S
C1197 C1196 1.398 . S
C1197 C1198 1.380 . S
C1197 C1211 1.497 . S
C1198 C1197 1.380 . S
C1198 C1199 1.383 . S
C1198 C1201 1.603 . S
C1199 C1194 1.377 . S
C1199 C1198 1.383 . S
C1199 H1262 0.929 . S
C1200 C1196 1.527 . S
C1200 H1263 0.961 . S
C1200 H1264 0.959 . S
C1200 H1265 0.959 . S
C1201 C1198 1.603 . S
C1201 H1266 0.960 . S
C1201 H1267 0.962 . S
C1201 H1268 0.961 . S
C1202 C1169 1.587 . S
C1202 C1203 1.360 . S
C1202 C1215 1.412 . S
C1203 C1202 1.360 . S
C1203 C1204 1.365 . S
C1203 H1269 0.929 . S
C1204 C1179 1.553 . S
C1204 C1203 1.365 . S
C1204 C1205 1.404 . S
C1205 C1204 1.404 . S
C1205 C1206 1.395 . S
C1205 C1216 1.451 . S
C1206 C1205 1.395 . S
C1206 C1207 1.322 . S
C1206 H1270 0.930 . S
C1207 C1206 1.322 . S
C1207 C1208 1.459 . S
C1207 H1271 0.929 . S
C1208 C1207 1.459 . S
C1208 C1209 1.445 . S
C1208 C1217 1.395 . S
C1209 C1187 1.432 . S
C1209 C1208 1.445 . S
C1209 C1210 1.370 . S
C1210 C1209 1.370 . S
C1210 C1211 1.438 . S
C1210 H1272 0.930 . S
C1211 C1197 1.497 . S
C1211 C1210 1.438 . S
C1211 C1212 1.360 . S
C1212 C1211 1.360 . S
C1212 C1213 1.401 . S
C1212 C1217 1.446 . S
C1213 C1212 1.401 . S
C1213 C1214 1.347 . S
C1213 H1273 0.929 . S
C1214 C1213 1.347 . S
C1214 C1215 1.455 . S
C1214 H1274 0.930 . S
C1215 C1202 1.412 . S
C1215 C1214 1.455 . S
C1215 C1216 1.331 . S
C1216 C1205 1.451 . S
C1216 C1215 1.331 . S
C1216 C1217 1.497 . S
C1217 C1208 1.395 . S
C1217 C1212 1.446 . S
C1217 C1216 1.497 . S
C1218 C1219 1.582 . S
C1218 H1275 0.962 . S
C1218 H1276 0.959 . S
C1218 H1277 0.958 . S
C1219 C1218 1.582 . S
C1219 O1222 1.458 . S
C1219 H1248 0.980 . S
O1220 C1165 1.426 . S
O1220 C1166 1.334 . S
O1221 C1193 1.412 . S
O1221 C1194 1.393 . S
O1222 C1184 1.435 . S
O1222 C1219 1.458 . S
O1223 C1175 1.468 . S
O1223 C1176 1.408 . S
H1224 C1165 0.980 . S
H1225 C1164 0.959 . S
H1226 C1164 0.959 . S
H1227 C1164 0.960 . S
H1228 C1167 0.929 . S
H1229 C1171 0.929 . S
H1230 C1172 0.959 . S
H1231 C1172 0.961 . S
H1232 C1172 0.961 . S
H1233 C1173 0.960 . S
H1234 C1173 0.960 . S
H1235 C1173 0.961 . S
H1236 C1175 0.980 . S
H1237 C1174 0.961 . S
H1238 C1174 0.960 . S
H1239 C1174 0.959 . S
H1240 C1177 0.930 . S
H1241 C1181 0.931 . S
H1242 C1182 0.959 . S
H1243 C1182 0.961 . S
H1244 C1182 0.959 . S
H1245 C1183 0.960 . S
H1246 C1183 0.960 . S
H1247 C1183 0.960 . S
H1248 C1219 0.980 . S
H1249 C1185 0.930 . S
H1250 C1189 0.930 . S
H1251 C1190 0.961 . S
H1252 C1190 0.960 . S
H1253 C1190 0.958 . S
H1254 C1191 0.961 . S
H1255 C1191 0.960 . S
H1256 C1191 0.960 . S
H1257 C1193 0.980 . S
H1258 C1192 0.961 . S
H1259 C1192 0.961 . S
H1260 C1192 0.959 . S
H1261 C1195 0.932 . S
H1262 C1199 0.929 . S
H1263 C1200 0.961 . S
H1264 C1200 0.959 . S
H1265 C1200 0.959 . S
H1266 C1201 0.960 . S
H1267 C1201 0.962 . S
H1268 C1201 0.961 . S
H1269 C1203 0.929 . S
H1270 C1206 0.930 . S
H1271 C1207 0.929 . S
H1272 C1210 0.930 . S
H1273 C1213 0.929 . S
H1274 C1214 0.930 . S
H1275 C1218 0.962 . S
H1276 C1218 0.959 . S
H1277 C1218 0.958 . S
C1278 C1279 1.560 . S
C1278 H1339 0.959 . S
C1278 H1340 0.959 . S
C1278 H1341 0.960 . S
C1279 C1278 1.560 . S
C1279 O1334 1.426 . S
C1279 H1338 0.980 . S
C1280 C1281 1.407 1_455 S
C1280 C1285 1.418 . S
C1280 O1334 1.334 . S
C1281 C1280 1.407 1_655 S
C1281 C1282 1.360 . S
C1281 H1342 0.929 . S
C1282 C1281 1.360 . S
C1282 C1283 1.401 1_655 S
C1282 C1286 1.527 . S
C1283 C1282 1.401 1_455 S
C1283 C1284 1.405 . S
C1283 C1316 1.587 1_455 S
C1284 C1283 1.405 . S
C1284 C1285 1.332 . S
C1284 C1287 1.496 . S
C1285 C1280 1.418 . S
C1285 C1284 1.332 . S
C1285 H1343 0.929 . S
C1286 C1282 1.527 . S
C1286 H1344 0.959 . S
C1286 H1345 0.961 . S
C1286 H1346 0.961 . S
C1287 C1284 1.496 . S
C1287 H1347 0.960 . S
C1287 H1348 0.960 . S
C1287 H1349 0.961 . S
C1288 C1289 1.517 . S
C1288 H1351 0.961 . S
C1288 H1352 0.960 . S
C1288 H1353 0.959 . S
C1289 C1288 1.517 . S
C1289 O1337 1.468 . S
C1289 H1350 0.980 1_655 S
C1290 C1291 1.349 . S
C1290 C1295 1.367 . S
C1290 O1337 1.408 . S
C1291 C1290 1.349 . S
C1291 C1292 1.379 1_655 S
C1291 H1354 0.930 1_655 S
C1292 C1291 1.379 1_455 S
C1292 C1293 1.426 1_455 S
C1292 C1296 1.583 . S
C1293 C1292 1.426 1_655 S
C1293 C1294 1.384 . S
C1293 C1318 1.553 . S
C1294 C1293 1.384 . S
C1294 C1295 1.364 . S
C1294 C1297 1.450 . S
C1295 C1290 1.367 . S
C1295 C1294 1.364 . S
C1295 H1355 0.931 . S
C1296 C1292 1.583 . S
C1296 H1356 0.959 . S
C1296 H1357 0.961 . S
C1296 H1358 0.959 . S
C1297 C1294 1.450 . S
C1297 H1359 0.960 . S
C1297 H1360 0.960 . S
C1297 H1361 0.960 . S
C1298 C1299 1.309 . S
C1298 C1303 1.304 . S
C1298 O1336 1.435 . S
C1299 C1298 1.309 . S
C1299 C1300 1.482 1_655 S
C1299 H1363 0.930 1_655 S
C1300 C1299 1.482 1_455 S
C1300 C1301 1.404 1_455 S
C1300 C1304 1.557 . S
C1301 C1300 1.404 1_655 S
C1301 C1302 1.373 . S
C1301 C1323 1.432 . S
C1302 C1301 1.373 . S
C1302 C1303 1.339 . S
C1302 C1305 1.530 . S
C1303 C1298 1.304 . S
C1303 C1302 1.339 . S
C1303 H1364 0.930 . S
C1304 C1300 1.557 . S
C1304 H1365 0.961 . S
C1304 H1366 0.960 . S
C1304 H1367 0.958 . S
C1305 C1302 1.530 . S
C1305 H1368 0.961 . S
C1305 H1369 0.960 . S
C1305 H1370 0.960 . S
C1306 C1307 1.559 . S
C1306 H1372 0.961 . S
C1306 H1373 0.961 . S
C1306 H1374 0.959 . S
C1307 C1306 1.559 . S
C1307 O1335 1.417 . S
C1307 H1371 0.973 1_455 S
C1308 C1309 1.288 . S
C1308 C1313 1.377 1_455 S
C1308 O1335 1.393 . S
C1309 C1308 1.288 . S
C1309 C1310 1.369 . S
C1309 H1375 0.932 . S
C1310 C1309 1.369 . S
C1310 C1311 1.398 1_455 S
C1310 C1314 1.527 . S
C1311 C1310 1.398 1_655 S
C1311 C1312 1.380 . S
C1311 C1325 1.497 . S
C1312 C1311 1.380 . S
C1312 C1313 1.383 . S
C1312 C1315 1.603 . S
C1313 C1308 1.377 1_655 S
C1313 C1312 1.383 . S
C1313 H1376 0.929 . S
C1314 C1310 1.527 . S
C1314 H1377 0.961 . S
C1314 H1378 0.959 . S
C1314 H1379 0.959 . S
C1315 C1312 1.603 . S
C1315 H1380 0.960 . S
C1315 H1381 0.962 . S
C1315 H1382 0.961 . S
C1316 C1283 1.587 1_655 S
C1316 C1317 1.360 . S
C1316 C1329 1.412 . S
C1317 C1316 1.360 . S
C1317 C1318 1.365 . S
C1317 H1383 0.929 . S
C1318 C1293 1.553 . S
C1318 C1317 1.365 . S
C1318 C1319 1.404 . S
C1319 C1318 1.404 . S
C1319 C1320 1.395 . S
C1319 C1330 1.451 . S
C1320 C1319 1.395 . S
C1320 C1321 1.322 . S
C1320 H1384 0.930 . S
C1321 C1320 1.322 . S
C1321 C1322 1.459 . S
C1321 H1385 0.929 . S
C1322 C1321 1.459 . S
C1322 C1323 1.445 . S
C1322 C1331 1.395 . S
C1323 C1301 1.432 . S
C1323 C1322 1.445 . S
C1323 C1324 1.370 . S
C1324 C1323 1.370 . S
C1324 C1325 1.438 . S
C1324 H1386 0.930 . S
C1325 C1311 1.497 . S
C1325 C1324 1.438 . S
C1325 C1326 1.360 . S
C1326 C1325 1.360 . S
C1326 C1327 1.401 . S
C1326 C1331 1.446 . S
C1327 C1326 1.401 . S
C1327 C1328 1.347 . S
C1327 H1387 0.986 . S
C1328 C1327 1.347 . S
C1328 C1329 1.455 . S
C1328 H1388 0.984 . S
C1329 C1316 1.412 . S
C1329 C1328 1.455 . S
C1329 C1330 1.331 . S
C1330 C1319 1.451 . S
C1330 C1329 1.331 . S
C1330 C1331 1.497 . S
C1331 C1322 1.395 . S
C1331 C1326 1.446 . S
C1331 C1330 1.497 . S
C1332 C1333 1.582 . S
C1332 H1389 0.962 . S
C1332 H1390 0.959 . S
C1332 H1391 0.958 . S
C1333 C1332 1.582 . S
C1333 O1336 1.458 . S
C1333 H1362 0.980 . S
O1334 C1279 1.426 . S
O1334 C1280 1.334 . S
O1335 C1307 1.417 . S
O1335 C1308 1.393 . S
O1336 C1298 1.435 . S
O1336 C1333 1.458 . S
O1337 C1289 1.468 . S
O1337 C1290 1.408 . S
H1338 C1279 0.980 . S
H1339 C1278 0.959 . S
H1340 C1278 0.959 . S
H1341 C1278 0.960 . S
H1342 C1281 0.929 . S
H1343 C1285 0.929 . S
H1344 C1286 0.959 . S
H1345 C1286 0.961 . S
H1346 C1286 0.961 . S
H1347 C1287 0.960 . S
H1348 C1287 0.960 . S
H1349 C1287 0.961 . S
H1350 C1289 0.980 1_455 S
H1351 C1288 0.961 . S
H1352 C1288 0.960 . S
H1353 C1288 0.959 . S
H1354 C1291 0.930 1_455 S
H1355 C1295 0.931 . S
H1356 C1296 0.959 . S
H1357 C1296 0.961 . S
H1358 C1296 0.959 . S
H1359 C1297 0.960 . S
H1360 C1297 0.960 . S
H1361 C1297 0.960 . S
H1362 C1333 0.980 . S
H1363 C1299 0.930 1_455 S
H1364 C1303 0.930 . S
H1365 C1304 0.961 . S
H1366 C1304 0.960 . S
H1367 C1304 0.958 . S
H1368 C1305 0.961 . S
H1369 C1305 0.960 . S
H1370 C1305 0.960 . S
H1371 C1307 0.973 1_655 S
H1372 C1306 0.961 . S
H1373 C1306 0.961 . S
H1374 C1306 0.959 . S
H1375 C1309 0.932 . S
H1376 C1313 0.929 . S
H1377 C1314 0.961 . S
H1378 C1314 0.959 . S
H1379 C1314 0.959 . S
H1380 C1315 0.960 . S
H1381 C1315 0.962 . S
H1382 C1315 0.961 . S
H1383 C1317 0.929 . S
H1384 C1320 0.930 . S
H1385 C1321 0.929 . S
H1386 C1324 0.930 . S
H1387 C1327 0.986 . S
H1388 C1328 0.984 . S
H1389 C1332 0.962 . S
H1390 C1332 0.959 . S
H1391 C1332 0.958 . S
C1392 C1393 1.560 . S
C1392 H1453 0.959 . S
C1392 H1454 0.959 . S
C1392 H1455 0.960 . S
C1393 C1392 1.560 . S
C1393 O1448 1.426 . S
C1393 H1452 0.980 . S
C1394 C1395 1.407 . S
C1394 C1399 1.418 . S
C1394 O1448 1.334 . S
C1395 C1394 1.407 . S
C1395 C1396 1.360 . S
C1395 H1456 0.929 . S
C1396 C1395 1.360 . S
C1396 C1397 1.401 . S
C1396 C1400 1.527 . S
C1397 C1396 1.401 . S
C1397 C1398 1.405 . S
C1397 C1430 1.587 . S
C1398 C1397 1.405 . S
C1398 C1399 1.332 . S
C1398 C1401 1.496 . S
C1399 C1394 1.418 . S
C1399 C1398 1.332 . S
C1399 H1457 0.929 . S
C1400 C1396 1.527 . S
C1400 H1458 0.959 . S
C1400 H1459 0.961 . S
C1400 H1460 0.961 . S
C1401 C1398 1.496 . S
C1401 H1461 0.960 . S
C1401 H1462 0.960 . S
C1401 H1463 0.961 . S
C1402 C1403 1.517 . S
C1402 H1465 0.961 . S
C1402 H1466 0.960 . S
C1402 H1467 0.959 . S
C1403 C1402 1.517 . S
C1403 O1451 1.468 . S
C1403 H1464 0.980 . S
C1404 C1405 1.349 . S
C1404 C1409 1.367 . S
C1404 O1451 1.408 . S
C1405 C1404 1.349 . S
C1405 C1406 1.407 . S
C1405 H1468 0.930 . S
C1406 C1405 1.407 . S
C1406 C1407 1.449 . S
C1406 C1410 1.535 . S
C1407 C1406 1.449 . S
C1407 C1408 1.384 . S
C1407 C1432 1.553 . S
C1408 C1407 1.384 . S
C1408 C1409 1.364 . S
C1408 C1411 1.450 . S
C1409 C1404 1.367 . S
C1409 C1408 1.364 . S
C1409 H1469 0.931 . S
C1410 C1406 1.535 . S
C1410 H1470 0.959 . S
C1410 H1471 0.961 . S
C1410 H1472 0.959 . S
C1411 C1408 1.450 . S
C1411 H1473 0.960 . S
C1411 H1474 0.960 . S
C1411 H1475 0.960 . S
C1412 C1413 1.309 . S
C1412 C1417 1.304 . S
C1412 O1450 1.435 . S
C1413 C1412 1.309 . S
C1413 C1414 1.476 . S
C1413 H1477 0.930 . S
C1414 C1413 1.476 . S
C1414 C1415 1.400 . S
C1414 C1418 1.567 . S
C1415 C1414 1.400 . S
C1415 C1416 1.373 . S
C1415 C1437 1.432 . S
C1416 C1415 1.373 . S
C1416 C1417 1.339 . S
C1416 C1419 1.530 . S
C1417 C1412 1.304 . S
C1417 C1416 1.339 . S
C1417 H1478 0.930 . S
C1418 C1414 1.567 . S
C1418 H1479 0.961 . S
C1418 H1480 0.960 . S
C1418 H1481 0.958 . S
C1419 C1416 1.530 . S
C1419 H1482 0.961 . S
C1419 H1483 0.960 . S
C1419 H1484 0.960 . S
C1420 C1421 1.530 . S
C1420 H1486 0.961 . S
C1420 H1487 0.961 . S
C1420 H1488 0.959 . S
C1421 C1420 1.530 . S
C1421 O1449 1.412 . S
C1421 H1485 0.980 . S
C1422 C1423 1.288 . S
C1422 C1427 1.377 . S
C1422 O1449 1.393 . S
C1423 C1422 1.288 . S
C1423 C1424 1.369 . S
C1423 H1489 0.932 . S
C1424 C1423 1.369 . S
C1424 C1425 1.398 . S
C1424 C1428 1.527 . S
C1425 C1424 1.398 . S
C1425 C1426 1.380 . S
C1425 C1439 1.497 . S
C1426 C1425 1.380 . S
C1426 C1427 1.383 . S
C1426 C1429 1.603 . S
C1427 C1422 1.377 . S
C1427 C1426 1.383 . S
C1427 H1490 0.929 . S
C1428 C1424 1.527 . S
C1428 H1491 0.961 . S
C1428 H1492 0.959 . S
C1428 H1493 0.959 . S
C1429 C1426 1.603 . S
C1429 H1494 0.960 . S
C1429 H1495 0.962 . S
C1429 H1496 0.961 . S
C1430 C1397 1.587 . S
C1430 C1431 1.360 . S
C1430 C1443 1.412 . S
C1431 C1430 1.360 . S
C1431 C1432 1.365 . S
C1431 H1497 0.929 . S
C1432 C1407 1.553 . S
C1432 C1431 1.365 . S
C1432 C1433 1.404 . S
C1433 C1432 1.404 . S
C1433 C1434 1.395 . S
C1433 C1444 1.451 . S
C1434 C1433 1.395 . S
C1434 C1435 1.322 . S
C1434 H1498 0.930 . S
C1435 C1434 1.322 . S
C1435 C1436 1.459 . S
C1435 H1499 0.929 . S
C1436 C1435 1.459 . S
C1436 C1437 1.445 . S
C1436 C1445 1.395 . S
C1437 C1415 1.432 . S
C1437 C1436 1.445 . S
C1437 C1438 1.370 . S
C1438 C1437 1.370 . S
C1438 C1439 1.438 . S
C1438 H1500 0.930 . S
C1439 C1425 1.497 . S
C1439 C1438 1.438 . S
C1439 C1440 1.360 . S
C1440 C1439 1.360 . S
C1440 C1441 1.401 . S
C1440 C1445 1.446 . S
C1441 C1440 1.401 . S
C1441 C1442 1.347 . S
C1441 H1501 0.929 . S
C1442 C1441 1.347 . S
C1442 C1443 1.455 . S
C1442 H1502 0.930 . S
C1443 C1430 1.412 . S
C1443 C1442 1.455 . S
C1443 C1444 1.331 . S
C1444 C1433 1.451 . S
C1444 C1443 1.331 . S
C1444 C1445 1.497 . S
C1445 C1436 1.395 . S
C1445 C1440 1.446 . S
C1445 C1444 1.497 . S
C1446 C1447 1.582 . S
C1446 H1503 0.962 . S
C1446 H1504 0.959 . S
C1446 H1505 0.958 . S
C1447 C1446 1.582 . S
C1447 O1450 1.458 . S
C1447 H1476 0.980 . S
O1448 C1393 1.426 . S
O1448 C1394 1.334 . S
O1449 C1421 1.412 . S
O1449 C1422 1.393 . S
O1450 C1412 1.435 . S
O1450 C1447 1.458 . S
O1451 C1403 1.468 . S
O1451 C1404 1.408 . S
H1452 C1393 0.980 . S
H1453 C1392 0.959 . S
H1454 C1392 0.959 . S
H1455 C1392 0.960 . S
H1456 C1395 0.929 . S
H1457 C1399 0.929 . S
H1458 C1400 0.959 . S
H1459 C1400 0.961 . S
H1460 C1400 0.961 . S
H1461 C1401 0.960 . S
H1462 C1401 0.960 . S
H1463 C1401 0.961 . S
H1464 C1403 0.980 . S
H1465 C1402 0.961 . S
H1466 C1402 0.960 . S
H1467 C1402 0.959 . S
H1468 C1405 0.930 . S
H1469 C1409 0.931 . S
H1470 C1410 0.959 . S
H1471 C1410 0.961 . S
H1472 C1410 0.959 . S
H1473 C1411 0.960 . S
H1474 C1411 0.960 . S
H1475 C1411 0.960 . S
H1476 C1447 0.980 . S
H1477 C1413 0.930 . S
H1478 C1417 0.930 . S
H1479 C1418 0.961 . S
H1480 C1418 0.960 . S
H1481 C1418 0.958 . S
H1482 C1419 0.961 . S
H1483 C1419 0.960 . S
H1484 C1419 0.960 . S
H1485 C1421 0.980 . S
H1486 C1420 0.961 . S
H1487 C1420 0.961 . S
H1488 C1420 0.959 . S
H1489 C1423 0.932 . S
H1490 C1427 0.929 . S
H1491 C1428 0.961 . S
H1492 C1428 0.959 . S
H1493 C1428 0.959 . S
H1494 C1429 0.960 . S
H1495 C1429 0.962 . S
H1496 C1429 0.961 . S
H1497 C1431 0.929 . S
H1498 C1434 0.930 . S
H1499 C1435 0.929 . S
H1500 C1438 0.930 . S
H1501 C1441 0.929 . S
H1502 C1442 0.930 . S
H1503 C1446 0.962 . S
H1504 C1446 0.959 . S
H1505 C1446 0.958 . S
C1506 C1507 1.560 . S
C1506 H1567 0.959 . S
C1506 H1568 0.959 . S
C1506 H1569 0.960 . S
C1507 C1506 1.560 . S
C1507 O1562 1.426 . S
C1507 H1566 0.980 . S
C1508 C1509 1.407 1_565 S
C1508 C1513 1.418 . S
C1508 O1562 1.334 . S
C1509 C1508 1.407 1_545 S
C1509 C1510 1.360 . S
C1509 H1570 0.929 . S
C1510 C1509 1.360 . S
C1510 C1511 1.401 1_545 S
C1510 C1514 1.527 . S
C1511 C1510 1.401 1_565 S
C1511 C1512 1.405 . S
C1511 C1544 1.587 1_565 S
C1512 C1511 1.405 . S
C1512 C1513 1.332 . S
C1512 C1515 1.496 . S
C1513 C1508 1.418 . S
C1513 C1512 1.332 . S
C1513 H1571 0.929 . S
C1514 C1510 1.527 . S
C1514 H1572 0.959 . S
C1514 H1573 0.961 . S
C1514 H1574 0.961 . S
C1515 C1512 1.496 . S
C1515 H1575 0.960 . S
C1515 H1576 0.960 . S
C1515 H1577 0.961 . S
C1516 C1517 1.517 . S
C1516 H1579 0.961 1_545 S
C1516 H1580 0.960 . S
C1516 H1581 0.959 . S
C1517 C1516 1.517 . S
C1517 O1565 1.468 . S
C1517 H1578 0.980 1_545 S
C1518 C1519 1.359 . S
C1518 C1523 1.367 . S
C1518 O1565 1.408 . S
C1519 C1518 1.359 . S
C1519 C1520 1.413 1_545 S
C1519 H1582 0.914 1_545 S
C1520 C1519 1.413 1_565 S
C1520 C1521 1.449 1_565 S
C1520 C1524 1.535 . S
C1521 C1520 1.449 1_545 S
C1521 C1522 1.384 . S
C1521 C1546 1.553 . S
C1522 C1521 1.384 . S
C1522 C1523 1.364 . S
C1522 C1525 1.450 . S
C1523 C1518 1.367 . S
C1523 C1522 1.364 . S
C1523 H1583 0.931 . S
C1524 C1520 1.535 . S
C1524 H1584 0.959 . S
C1524 H1585 0.961 . S
C1524 H1586 0.959 . S
C1525 C1522 1.450 . S
C1525 H1587 0.960 . S
C1525 H1588 0.960 . S
C1525 H1589 0.960 . S
C1526 C1527 1.309 . S
C1526 C1531 1.304 . S
C1526 O1564 1.435 . S
C1527 C1526 1.309 . S
C1527 C1528 1.493 1_545 S
C1527 H1591 0.930 1_545 S
C1528 C1527 1.493 1_565 S
C1528 C1529 1.347 1_565 S
C1528 C1532 1.603 . S
C1529 C1528 1.347 1_545 S
C1529 C1530 1.373 . S
C1529 C1551 1.432 . S
C1530 C1529 1.373 . S
C1530 C1531 1.339 . S
C1530 C1533 1.530 . S
C1531 C1526 1.304 . S
C1531 C1530 1.339 . S
C1531 H1592 0.930 . S
C1532 C1528 1.603 . S
C1532 H1593 0.961 . S
C1532 H1594 0.960 . S
C1532 H1595 0.958 . S
C1533 C1530 1.530 . S
C1533 H1596 0.961 . S
C1533 H1597 0.960 . S
C1533 H1598 0.960 . S
C1534 C1535 1.530 1_565 S
C1534 H1600 0.961 . S
C1534 H1601 0.961 . S
C1534 H1602 0.959 . S
C1535 C1534 1.530 1_545 S
C1535 O1563 1.412 1_545 S
C1535 H1599 0.980 . S
C1536 C1537 1.288 . S
C1536 C1541 1.377 1_565 S
C1536 O1563 1.393 . S
C1537 C1536 1.288 . S
C1537 C1538 1.369 . S
C1537 H1603 0.932 . S
C1538 C1537 1.369 . S
C1538 C1539 1.398 1_565 S
C1538 C1542 1.527 . S
C1539 C1538 1.398 1_545 S
C1539 C1540 1.380 . S
C1539 C1553 1.497 . S
C1540 C1539 1.380 . S
C1540 C1541 1.383 . S
C1540 C1543 1.603 . S
C1541 C1536 1.377 1_545 S
C1541 C1540 1.383 . S
C1541 H1604 0.929 . S
C1542 C1538 1.527 . S
C1542 H1605 0.961 . S
C1542 H1606 0.959 . S
C1542 H1607 0.959 . S
C1543 C1540 1.603 . S
C1543 H1608 0.960 . S
C1543 H1609 0.962 . S
C1543 H1610 0.961 . S
C1544 C1511 1.587 1_545 S
C1544 C1545 1.360 . S
C1544 C1557 1.412 . S
C1545 C1544 1.360 . S
C1545 C1546 1.365 . S
C1545 H1611 0.929 . S
C1546 C1521 1.553 . S
C1546 C1545 1.365 . S
C1546 C1547 1.404 . S
C1547 C1546 1.404 . S
C1547 C1548 1.395 . S
C1547 C1558 1.451 . S
C1548 C1547 1.395 . S
C1548 C1549 1.322 . S
C1548 H1612 0.930 . S
C1549 C1548 1.322 . S
C1549 C1550 1.459 . S
C1549 H1613 0.929 . S
C1550 C1549 1.459 . S
C1550 C1551 1.445 . S
C1550 C1559 1.395 . S
C1551 C1529 1.432 . S
C1551 C1550 1.445 . S
C1551 C1552 1.370 . S
C1552 C1551 1.370 . S
C1552 C1553 1.438 . S
C1552 H1614 0.930 . S
C1553 C1539 1.497 . S
C1553 C1552 1.438 . S
C1553 C1554 1.360 . S
C1554 C1553 1.360 . S
C1554 C1555 1.401 . S
C1554 C1559 1.446 . S
C1555 C1554 1.401 . S
C1555 C1556 1.347 . S
C1555 H1615 0.929 . S
C1556 C1555 1.347 . S
C1556 C1557 1.455 . S
C1556 H1616 0.930 . S
C1557 C1544 1.412 . S
C1557 C1556 1.455 . S
C1557 C1558 1.331 . S
C1558 C1547 1.451 . S
C1558 C1557 1.331 . S
C1558 C1559 1.497 . S
C1559 C1550 1.395 . S
C1559 C1554 1.446 . S
C1559 C1558 1.497 . S
C1560 C1561 1.582 . S
C1560 H1617 0.962 . S
C1560 H1618 0.959 . S
C1560 H1619 0.958 . S
C1561 C1560 1.582 . S
C1561 O1564 1.458 . S
C1561 H1590 0.980 . S
O1562 C1507 1.426 . S
O1562 C1508 1.334 . S
O1563 C1535 1.412 1_565 S
O1563 C1536 1.393 . S
O1564 C1526 1.435 . S
O1564 C1561 1.458 . S
O1565 C1517 1.468 . S
O1565 C1518 1.408 . S
H1566 C1507 0.980 . S
H1567 C1506 0.959 . S
H1568 C1506 0.959 . S
H1569 C1506 0.960 . S
H1570 C1509 0.929 . S
H1571 C1513 0.929 . S
H1572 C1514 0.959 . S
H1573 C1514 0.961 . S
H1574 C1514 0.961 . S
H1575 C1515 0.960 . S
H1576 C1515 0.960 . S
H1577 C1515 0.961 . S
H1578 C1517 0.980 1_565 S
H1579 C1516 0.961 1_565 S
H1580 C1516 0.960 . S
H1581 C1516 0.959 . S
H1582 C1519 0.914 1_565 S
H1583 C1523 0.931 . S
H1584 C1524 0.959 . S
H1585 C1524 0.961 . S
H1586 C1524 0.959 . S
H1587 C1525 0.960 . S
H1588 C1525 0.960 . S
H1589 C1525 0.960 . S
H1590 C1561 0.980 . S
H1591 C1527 0.930 1_565 S
H1592 C1531 0.930 . S
H1593 C1532 0.961 . S
H1594 C1532 0.960 . S
H1595 C1532 0.958 . S
H1596 C1533 0.961 . S
H1597 C1533 0.960 . S
H1598 C1533 0.960 . S
H1599 C1535 0.980 . S
H1600 C1534 0.961 . S
H1601 C1534 0.961 . S
H1602 C1534 0.959 . S
H1603 C1537 0.932 . S
H1604 C1541 0.929 . S
H1605 C1542 0.961 . S
H1606 C1542 0.959 . S
H1607 C1542 0.959 . S
H1608 C1543 0.960 . S
H1609 C1543 0.962 . S
H1610 C1543 0.961 . S
H1611 C1545 0.929 . S
H1612 C1548 0.930 . S
H1613 C1549 0.929 . S
H1614 C1552 0.930 . S
H1615 C1555 0.929 . S
H1616 C1556 0.930 . S
H1617 C1560 0.962 . S
H1618 C1560 0.959 . S
H1619 C1560 0.958 . S
C1620 C1621 1.560 . S
C1620 H1681 0.959 . S
C1620 H1682 0.959 . S
C1620 H1683 0.960 . S
C1621 C1620 1.560 . S
C1621 O1676 1.426 . S
C1621 H1680 0.980 1_565 S
C1622 C1623 1.407 1_565 S
C1622 C1627 1.418 . S
C1622 O1676 1.334 . S
C1623 C1622 1.407 1_545 S
C1623 C1624 1.360 . S
C1623 H1684 0.929 . S
C1624 C1623 1.360 . S
C1624 C1625 1.401 . S
C1624 C1628 1.527 . S
C1625 C1624 1.401 . S
C1625 C1626 1.405 1_545 S
C1625 C1658 1.587 . S
C1626 C1625 1.405 1_565 S
C1626 C1627 1.332 . S
C1626 C1629 1.496 . S
C1627 C1622 1.418 . S
C1627 C1626 1.332 . S
C1627 H1685 0.929 . S
C1628 C1624 1.527 . S
C1628 H1686 0.959 . S
C1628 H1687 0.961 . S
C1628 H1688 0.961 . S
C1629 C1626 1.496 . S
C1629 H1689 0.960 . S
C1629 H1690 0.960 . S
C1629 H1691 0.961 . S
C1630 C1631 1.517 . S
C1630 H1693 0.961 . S
C1630 H1694 0.960 . S
C1630 H1695 0.959 . S
C1631 C1630 1.517 . S
C1631 O1679 1.468 . S
C1631 H1692 0.980 . S
C1632 C1633 1.349 . S
C1632 C1637 1.367 . S
C1632 O1679 1.408 . S
C1633 C1632 1.349 . S
C1633 C1634 1.407 . S
C1633 H1696 0.933 . S
C1634 C1633 1.407 . S
C1634 C1635 1.449 . S
C1634 C1638 1.535 1_545 S
C1635 C1634 1.449 . S
C1635 C1636 1.384 . S
C1635 C1660 1.553 . S
C1636 C1635 1.384 . S
C1636 C1637 1.364 . S
C1636 C1639 1.450 . S
C1637 C1632 1.367 . S
C1637 C1636 1.364 . S
C1637 H1697 0.931 . S
C1638 C1634 1.535 1_565 S
C1638 H1698 0.959 . S
C1638 H1699 0.961 . S
C1638 H1700 0.959 . S
C1639 C1636 1.450 . S
C1639 H1701 0.960 . S
C1639 H1702 0.960 . S
C1639 H1703 0.960 . S
C1640 C1641 1.309 1_545 S
C1640 C1645 1.304 . S
C1640 O1678 1.435 . S
C1641 C1640 1.309 1_565 S
C1641 C1642 1.476 . S
C1641 H1705 0.930 . S
C1642 C1641 1.476 . S
C1642 C1643 1.400 1_565 S
C1642 C1646 1.567 . S
C1643 C1642 1.400 1_545 S
C1643 C1644 1.373 . S
C1643 C1665 1.432 . S
C1644 C1643 1.373 . S
C1644 C1645 1.339 . S
C1644 C1647 1.530 . S
C1645 C1640 1.304 . S
C1645 C1644 1.339 . S
C1645 H1706 0.930 . S
C1646 C1642 1.567 . S
C1646 H1707 0.961 . S
C1646 H1708 0.960 . S
C1646 H1709 0.958 . S
C1647 C1644 1.530 . S
C1647 H1710 0.961 . S
C1647 H1711 0.960 . S
C1647 H1712 0.960 . S
C1648 C1649 1.530 . S
C1648 H1714 0.961 . S
C1648 H1715 0.961 . S
C1648 H1716 0.959 . S
C1649 C1648 1.530 . S
C1649 O1677 1.412 . S
C1649 H1713 1.015 . S
C1650 C1651 1.288 . S
C1650 C1655 1.377 1_565 S
C1650 O1677 1.393 . S
C1651 C1650 1.288 . S
C1651 C1652 1.369 . S
C1651 H1717 0.932 . S
C1652 C1651 1.369 . S
C1652 C1653 1.398 . S
C1652 C1656 1.527 . S
C1653 C1652 1.398 . S
C1653 C1654 1.380 1_565 S
C1653 C1667 1.497 1_565 S
C1654 C1653 1.380 1_545 S
C1654 C1655 1.383 . S
C1654 C1657 1.603 . S
C1655 C1650 1.377 1_545 S
C1655 C1654 1.383 . S
C1655 H1718 0.929 . S
C1656 C1652 1.527 . S
C1656 H1719 0.961 . S
C1656 H1720 0.959 . S
C1656 H1721 0.959 . S
C1657 C1654 1.603 . S
C1657 H1722 0.960 . S
C1657 H1723 0.962 . S
C1657 H1724 0.961 . S
C1658 C1625 1.587 . S
C1658 C1659 1.360 . S
C1658 C1671 1.412 . S
C1659 C1658 1.360 . S
C1659 C1660 1.365 . S
C1659 H1725 0.929 . S
C1660 C1635 1.553 . S
C1660 C1659 1.365 . S
C1660 C1661 1.404 . S
C1661 C1660 1.404 . S
C1661 C1662 1.395 . S
C1661 C1672 1.451 . S
C1662 C1661 1.395 . S
C1662 C1663 1.322 . S
C1662 H1726 0.930 . S
C1663 C1662 1.322 . S
C1663 C1664 1.459 . S
C1663 H1727 0.929 . S
C1664 C1663 1.459 . S
C1664 C1665 1.445 . S
C1664 C1673 1.395 . S
C1665 C1643 1.432 . S
C1665 C1664 1.445 . S
C1665 C1666 1.370 . S
C1666 C1665 1.370 . S
C1666 C1667 1.438 . S
C1666 H1728 0.930 . S
C1667 C1653 1.497 1_545 S
C1667 C1666 1.438 . S
C1667 C1668 1.360 . S
C1668 C1667 1.360 . S
C1668 C1669 1.401 . S
C1668 C1673 1.446 . S
C1669 C1668 1.401 . S
C1669 C1670 1.347 . S
C1669 H1729 0.952 . S
C1670 C1669 1.347 . S
C1670 C1671 1.455 . S
C1670 H1730 0.930 . S
C1671 C1658 1.412 . S
C1671 C1670 1.455 . S
C1671 C1672 1.331 . S
C1672 C1661 1.451 . S
C1672 C1671 1.331 . S
C1672 C1673 1.497 . S
C1673 C1664 1.395 . S
C1673 C1668 1.446 . S
C1673 C1672 1.497 . S
C1674 C1675 1.582 . S
C1674 H1731 0.962 . S
C1674 H1732 0.959 . S
C1674 H1733 0.958 . S
C1675 C1674 1.582 . S
C1675 O1678 1.458 . S
C1675 H1704 0.980 1_545 S
O1676 C1621 1.426 . S
O1676 C1622 1.334 . S
O1677 C1649 1.412 . S
O1677 C1650 1.393 . S
O1678 C1640 1.435 . S
O1678 C1675 1.458 . S
O1679 C1631 1.468 . S
O1679 C1632 1.408 . S
H1680 C1621 0.980 1_545 S
H1681 C1620 0.959 . S
H1682 C1620 0.959 . S
H1683 C1620 0.960 . S
H1684 C1623 0.929 . S
H1685 C1627 0.929 . S
H1686 C1628 0.959 . S
H1687 C1628 0.961 . S
H1688 C1628 0.961 . S
H1689 C1629 0.960 . S
H1690 C1629 0.960 . S
H1691 C1629 0.961 . S
H1692 C1631 0.980 . S
H1693 C1630 0.961 . S
H1694 C1630 0.960 . S
H1695 C1630 0.959 . S
H1696 C1633 0.933 . S
H1697 C1637 0.931 . S
H1698 C1638 0.959 . S
H1699 C1638 0.961 . S
H1700 C1638 0.959 . S
H1701 C1639 0.960 . S
H1702 C1639 0.960 . S
H1703 C1639 0.960 . S
H1704 C1675 0.980 1_565 S
H1705 C1641 0.930 . S
H1706 C1645 0.930 . S
H1707 C1646 0.961 . S
H1708 C1646 0.960 . S
H1709 C1646 0.958 . S
H1710 C1647 0.961 . S
H1711 C1647 0.960 . S
H1712 C1647 0.960 . S
H1713 C1649 1.015 . S
H1714 C1648 0.961 . S
H1715 C1648 0.961 . S
H1716 C1648 0.959 . S
H1717 C1651 0.932 . S
H1718 C1655 0.929 . S
H1719 C1656 0.961 . S
H1720 C1656 0.959 . S
H1721 C1656 0.959 . S
H1722 C1657 0.960 . S
H1723 C1657 0.962 . S
H1724 C1657 0.961 . S
H1725 C1659 0.929 . S
H1726 C1662 0.930 . S
H1727 C1663 0.929 . S
H1728 C1666 0.930 . S
H1729 C1669 0.952 . S
H1730 C1670 0.930 . S
H1731 C1674 0.962 . S
H1732 C1674 0.959 . S
H1733 C1674 0.958 . S
C1734 C1735 1.595 . S
C1734 H1795 0.959 . S
C1734 H1796 0.959 . S
C1734 H1797 0.960 . S
C1735 C1734 1.595 . S
C1735 O1790 1.497 . S
C1735 H1794 0.965 1_455 S
C1736 C1737 1.407 1_455 S
C1736 C1741 1.418 . S
C1736 O1790 1.334 . S
C1737 C1736 1.407 1_655 S
C1737 C1738 1.360 . S
C1737 H1798 0.929 . S
C1738 C1737 1.360 . S
C1738 C1739 1.401 . S
C1738 C1742 1.527 . S
C1739 C1738 1.401 . S
C1739 C1740 1.405 1_655 S
C1739 C1772 1.587 . S
C1740 C1739 1.405 1_455 S
C1740 C1741 1.332 . S
C1740 C1743 1.496 . S
C1741 C1736 1.418 . S
C1741 C1740 1.332 . S
C1741 H1799 0.929 . S
C1742 C1738 1.527 . S
C1742 H1800 0.959 . S
C1742 H1801 0.961 . S
C1742 H1802 0.961 . S
C1743 C1740 1.496 . S
C1743 H1803 0.960 . S
C1743 H1804 0.960 . S
C1743 H1805 0.961 . S
C1744 C1745 1.517 . S
C1744 H1807 0.961 . S
C1744 H1808 0.960 . S
C1744 H1809 0.959 . S
C1745 C1744 1.517 . S
C1745 O1793 1.468 . S
C1745 H1806 0.980 . S
C1746 C1747 1.349 . S
C1746 C1751 1.367 . S
C1746 O1793 1.408 . S
C1747 C1746 1.349 . S
C1747 C1748 1.407 . S
C1747 H1810 0.893 1_655 S
C1748 C1747 1.407 . S
C1748 C1749 1.449 . S
C1748 C1752 1.535 1_655 S
C1749 C1748 1.449 . S
C1749 C1750 1.384 . S
C1749 C1774 1.553 . S
C1750 C1749 1.384 . S
C1750 C1751 1.364 . S
C1750 C1753 1.450 . S
C1751 C1746 1.367 . S
C1751 C1750 1.364 . S
C1751 H1811 0.931 . S
C1752 C1748 1.535 1_455 S
C1752 H1812 0.959 . S
C1752 H1813 0.961 . S
C1752 H1814 0.959 . S
C1753 C1750 1.450 . S
C1753 H1815 0.960 . S
C1753 H1816 0.960 . S
C1753 H1817 0.960 . S
C1754 C1755 1.309 1_655 S
C1754 C1759 1.304 . S
C1754 O1792 1.435 . S
C1755 C1754 1.309 1_455 S
C1755 C1756 1.476 . S
C1755 H1819 0.930 . S
C1756 C1755 1.476 . S
C1756 C1757 1.400 1_455 S
C1756 C1760 1.567 . S
C1757 C1756 1.400 1_655 S
C1757 C1758 1.373 . S
C1757 C1779 1.432 . S
C1758 C1757 1.373 . S
C1758 C1759 1.339 . S
C1758 C1761 1.530 . S
C1759 C1754 1.304 . S
C1759 C1758 1.339 . S
C1759 H1820 0.930 . S
C1760 C1756 1.567 . S
C1760 H1821 0.961 . S
C1760 H1822 0.960 . S
C1760 H1823 0.958 . S
C1761 C1758 1.530 . S
C1761 H1824 0.961 . S
C1761 H1825 0.960 . S
C1761 H1826 0.960 . S
C1762 C1763 1.530 . S
C1762 H1828 0.961 . S
C1762 H1829 0.961 . S
C1762 H1830 0.959 . S
C1763 C1762 1.530 . S
C1763 O1791 1.412 . S
C1763 H1827 0.961 1_455 S
C1764 C1765 1.288 . S
C1764 C1769 1.377 1_455 S
C1764 O1791 1.393 . S
C1765 C1764 1.288 . S
C1765 C1766 1.369 . S
C1765 H1831 0.932 . S
C1766 C1765 1.369 . S
C1766 C1767 1.398 . S
C1766 C1770 1.527 . S
C1767 C1766 1.398 . S
C1767 C1768 1.380 1_455 S
C1767 C1781 1.497 1_455 S
C1768 C1767 1.380 1_655 S
C1768 C1769 1.383 . S
C1768 C1771 1.603 . S
C1769 C1764 1.377 1_655 S
C1769 C1768 1.383 . S
C1769 H1832 0.929 . S
C1770 C1766 1.527 . S
C1770 H1833 0.961 . S
C1770 H1834 0.959 . S
C1770 H1835 0.959 . S
C1771 C1768 1.603 . S
C1771 H1836 0.960 . S
C1771 H1837 0.962 . S
C1771 H1838 0.961 . S
C1772 C1739 1.587 . S
C1772 C1773 1.360 . S
C1772 C1785 1.412 . S
C1773 C1772 1.360 . S
C1773 C1774 1.365 . S
C1773 H1839 0.929 . S
C1774 C1749 1.553 . S
C1774 C1773 1.365 . S
C1774 C1775 1.404 . S
C1775 C1774 1.404 . S
C1775 C1776 1.395 . S
C1775 C1786 1.451 . S
C1776 C1775 1.395 . S
C1776 C1777 1.322 . S
C1776 H1840 0.930 . S
C1777 C1776 1.322 . S
C1777 C1778 1.459 . S
C1777 H1841 0.929 . S
C1778 C1777 1.459 . S
C1778 C1779 1.445 . S
C1778 C1787 1.395 . S
C1779 C1757 1.432 . S
C1779 C1778 1.445 . S
C1779 C1780 1.370 . S
C1780 C1779 1.370 . S
C1780 C1781 1.438 . S
C1780 H1842 0.930 . S
C1781 C1767 1.497 1_655 S
C1781 C1780 1.438 . S
C1781 C1782 1.360 . S
C1782 C1781 1.360 . S
C1782 C1783 1.401 . S
C1782 C1787 1.446 . S
C1783 C1782 1.401 . S
C1783 C1784 1.347 . S
C1783 H1843 0.929 . S
C1784 C1783 1.347 . S
C1784 C1785 1.455 . S
C1784 H1844 0.930 . S
C1785 C1772 1.412 . S
C1785 C1784 1.455 . S
C1785 C1786 1.331 . S
C1786 C1775 1.451 . S
C1786 C1785 1.331 . S
C1786 C1787 1.497 . S
C1787 C1778 1.395 . S
C1787 C1782 1.446 . S
C1787 C1786 1.497 . S
C1788 C1789 1.582 1_655 S
C1788 H1845 0.919 1_655 S
C1788 H1846 0.959 . S
C1788 H1847 0.958 . S
C1789 C1788 1.582 1_455 S
C1789 O1792 1.458 1_455 S
C1789 H1818 0.980 . S
O1790 C1735 1.497 . S
O1790 C1736 1.334 . S
O1791 C1763 1.412 . S
O1791 C1764 1.393 . S
O1792 C1754 1.435 . S
O1792 C1789 1.458 1_655 S
O1793 C1745 1.468 . S
O1793 C1746 1.408 . S
H1794 C1735 0.965 1_655 S
H1795 C1734 0.959 . S
H1796 C1734 0.959 . S
H1797 C1734 0.960 . S
H1798 C1737 0.929 . S
H1799 C1741 0.929 . S
H1800 C1742 0.959 . S
H1801 C1742 0.961 . S
H1802 C1742 0.961 . S
H1803 C1743 0.960 . S
H1804 C1743 0.960 . S
H1805 C1743 0.961 . S
H1806 C1745 0.980 . S
H1807 C1744 0.961 . S
H1808 C1744 0.960 . S
H1809 C1744 0.959 . S
H1810 C1747 0.893 1_455 S
H1811 C1751 0.931 . S
H1812 C1752 0.959 . S
H1813 C1752 0.961 . S
H1814 C1752 0.959 . S
H1815 C1753 0.960 . S
H1816 C1753 0.960 . S
H1817 C1753 0.960 . S
H1818 C1789 0.980 . S
H1819 C1755 0.930 . S
H1820 C1759 0.930 . S
H1821 C1760 0.961 . S
H1822 C1760 0.960 . S
H1823 C1760 0.958 . S
H1824 C1761 0.961 . S
H1825 C1761 0.960 . S
H1826 C1761 0.960 . S
H1827 C1763 0.961 1_655 S
H1828 C1762 0.961 . S
H1829 C1762 0.961 . S
H1830 C1762 0.959 . S
H1831 C1765 0.932 . S
H1832 C1769 0.929 . S
H1833 C1770 0.961 . S
H1834 C1770 0.959 . S
H1835 C1770 0.959 . S
H1836 C1771 0.960 . S
H1837 C1771 0.962 . S
H1838 C1771 0.961 . S
H1839 C1773 0.929 . S
H1840 C1776 0.930 . S
H1841 C1777 0.929 . S
H1842 C1780 0.930 . S
H1843 C1783 0.929 . S
H1844 C1784 0.930 . S
H1845 C1788 0.919 1_455 S
H1846 C1788 0.959 . S
H1847 C1788 0.958 . S
C1848 C1849 1.560 . S
C1848 H1909 0.959 . S
C1848 H1910 0.959 . S
C1848 H1911 0.960 . S
C1849 C1848 1.560 . S
C1849 O1904 1.426 . S
C1849 H1908 0.980 . S
C1850 C1851 1.407 . S
C1850 C1855 1.418 . S
C1850 O1904 1.334 . S
C1851 C1850 1.407 . S
C1851 C1852 1.360 . S
C1851 H1912 0.929 . S
C1852 C1851 1.360 . S
C1852 C1853 1.401 . S
C1852 C1856 1.527 . S
C1853 C1852 1.401 . S
C1853 C1854 1.405 . S
C1853 C1886 1.587 . S
C1854 C1853 1.405 . S
C1854 C1855 1.332 . S
C1854 C1857 1.496 . S
C1855 C1850 1.418 . S
C1855 C1854 1.332 . S
C1855 H1913 0.929 . S
C1856 C1852 1.527 . S
C1856 H1914 0.959 . S
C1856 H1915 0.961 . S
C1856 H1916 0.961 . S
C1857 C1854 1.496 . S
C1857 H1917 0.960 . S
C1857 H1918 0.960 . S
C1857 H1919 0.961 . S
C1858 C1859 1.517 . S
C1858 H1921 0.961 . S
C1858 H1922 0.960 . S
C1858 H1923 0.959 . S
C1859 C1858 1.517 . S
C1859 O1907 1.468 . S
C1859 H1920 0.980 . S
C1860 C1861 1.349 . S
C1860 C1865 1.367 . S
C1860 O1907 1.408 . S
C1861 C1860 1.349 . S
C1861 C1862 1.407 . S
C1861 H1924 0.930 . S
C1862 C1861 1.407 . S
C1862 C1863 1.449 . S
C1862 C1866 1.535 . S
C1863 C1862 1.449 . S
C1863 C1864 1.384 . S
C1863 C1888 1.553 . S
C1864 C1863 1.384 . S
C1864 C1865 1.364 . S
C1864 C1867 1.450 . S
C1865 C1860 1.367 . S
C1865 C1864 1.364 . S
C1865 H1925 0.931 . S
C1866 C1862 1.535 . S
C1866 H1926 0.959 . S
C1866 H1927 0.961 . S
C1866 H1928 0.959 . S
C1867 C1864 1.450 . S
C1867 H1929 0.960 . S
C1867 H1930 0.960 . S
C1867 H1931 0.960 . S
C1868 C1869 1.309 . S
C1868 C1873 1.304 . S
C1868 O1906 1.435 . S
C1869 C1868 1.309 . S
C1869 C1870 1.476 . S
C1869 H1933 0.930 . S
C1870 C1869 1.476 . S
C1870 C1871 1.400 . S
C1870 C1874 1.567 . S
C1871 C1870 1.400 . S
C1871 C1872 1.373 . S
C1871 C1893 1.432 . S
C1872 C1871 1.373 . S
C1872 C1873 1.339 . S
C1872 C1875 1.530 . S
C1873 C1868 1.304 . S
C1873 C1872 1.339 . S
C1873 H1934 0.930 . S
C1874 C1870 1.567 . S
C1874 H1935 0.961 . S
C1874 H1936 0.960 . S
C1874 H1937 0.958 . S
C1875 C1872 1.530 . S
C1875 H1938 0.961 . S
C1875 H1939 0.960 . S
C1875 H1940 0.960 . S
C1876 C1877 1.530 . S
C1876 H1942 0.961 . S
C1876 H1943 0.961 . S
C1876 H1944 0.959 . S
C1877 C1876 1.530 . S
C1877 O1905 1.412 . S
C1877 H1941 0.980 . S
C1878 C1879 1.288 . S
C1878 C1883 1.377 . S
C1878 O1905 1.393 . S
C1879 C1878 1.288 . S
C1879 C1880 1.369 . S
C1879 H1945 0.932 . S
C1880 C1879 1.369 . S
C1880 C1881 1.398 . S
C1880 C1884 1.527 . S
C1881 C1880 1.398 . S
C1881 C1882 1.380 . S
C1881 C1895 1.497 . S
C1882 C1881 1.380 . S
C1882 C1883 1.383 . S
C1882 C1885 1.603 . S
C1883 C1878 1.377 . S
C1883 C1882 1.383 . S
C1883 H1946 0.929 . S
C1884 C1880 1.527 . S
C1884 H1947 0.961 . S
C1884 H1948 0.959 . S
C1884 H1949 0.959 . S
C1885 C1882 1.603 . S
C1885 H1950 0.960 . S
C1885 H1951 0.962 . S
C1885 H1952 0.961 . S
C1886 C1853 1.587 . S
C1886 C1887 1.360 . S
C1886 C1899 1.412 . S
C1887 C1886 1.360 . S
C1887 C1888 1.365 . S
C1887 H1953 0.929 . S
C1888 C1863 1.553 . S
C1888 C1887 1.365 . S
C1888 C1889 1.404 . S
C1889 C1888 1.404 . S
C1889 C1890 1.395 . S
C1889 C1900 1.451 . S
C1890 C1889 1.395 . S
C1890 C1891 1.322 . S
C1890 H1954 0.930 . S
C1891 C1890 1.322 . S
C1891 C1892 1.459 . S
C1891 H1955 0.929 . S
C1892 C1891 1.459 . S
C1892 C1893 1.445 . S
C1892 C1901 1.395 . S
C1893 C1871 1.432 . S
C1893 C1892 1.445 . S
C1893 C1894 1.370 . S
C1894 C1893 1.370 . S
C1894 C1895 1.438 . S
C1894 H1956 0.930 . S
C1895 C1881 1.497 . S
C1895 C1894 1.438 . S
C1895 C1896 1.360 . S
C1896 C1895 1.360 . S
C1896 C1897 1.401 . S
C1896 C1901 1.446 . S
C1897 C1896 1.401 . S
C1897 C1898 1.347 . S
C1897 H1957 0.929 . S
C1898 C1897 1.347 . S
C1898 C1899 1.455 . S
C1898 H1958 0.930 . S
C1899 C1886 1.412 . S
C1899 C1898 1.455 . S
C1899 C1900 1.331 . S
C1900 C1889 1.451 . S
C1900 C1899 1.331 . S
C1900 C1901 1.497 . S
C1901 C1892 1.395 . S
C1901 C1896 1.446 . S
C1901 C1900 1.497 . S
C1902 C1903 1.582 . S
C1902 H1959 0.962 . S
C1902 H1960 0.959 . S
C1902 H1961 0.958 . S
C1903 C1902 1.582 . S
C1903 O1906 1.458 . S
C1903 H1932 0.980 . S
O1904 C1849 1.426 . S
O1904 C1850 1.334 . S
O1905 C1877 1.412 . S
O1905 C1878 1.393 . S
O1906 C1868 1.435 . S
O1906 C1903 1.458 . S
O1907 C1859 1.468 . S
O1907 C1860 1.408 . S
H1908 C1849 0.980 . S
H1909 C1848 0.959 . S
H1910 C1848 0.959 . S
H1911 C1848 0.960 . S
H1912 C1851 0.929 . S
H1913 C1855 0.929 . S
H1914 C1856 0.959 . S
H1915 C1856 0.961 . S
H1916 C1856 0.961 . S
H1917 C1857 0.960 . S
H1918 C1857 0.960 . S
H1919 C1857 0.961 . S
H1920 C1859 0.980 . S
H1921 C1858 0.961 . S
H1922 C1858 0.960 . S
H1923 C1858 0.959 . S
H1924 C1861 0.930 . S
H1925 C1865 0.931 . S
H1926 C1866 0.959 . S
H1927 C1866 0.961 . S
H1928 C1866 0.959 . S
H1929 C1867 0.960 . S
H1930 C1867 0.960 . S
H1931 C1867 0.960 . S
H1932 C1903 0.980 . S
H1933 C1869 0.930 . S
H1934 C1873 0.930 . S
H1935 C1874 0.961 . S
H1936 C1874 0.960 . S
H1937 C1874 0.958 . S
H1938 C1875 0.961 . S
H1939 C1875 0.960 . S
H1940 C1875 0.960 . S
H1941 C1877 0.980 . S
H1942 C1876 0.961 . S
H1943 C1876 0.961 . S
H1944 C1876 0.959 . S
H1945 C1879 0.932 . S
H1946 C1883 0.929 . S
H1947 C1884 0.961 . S
H1948 C1884 0.959 . S
H1949 C1884 0.959 . S
H1950 C1885 0.960 . S
H1951 C1885 0.962 . S
H1952 C1885 0.961 . S
H1953 C1887 0.929 . S
H1954 C1890 0.930 . S
H1955 C1891 0.929 . S
H1956 C1894 0.930 . S
H1957 C1897 0.929 . S
H1958 C1898 0.930 . S
H1959 C1902 0.962 . S
H1960 C1902 0.959 . S
H1961 C1902 0.958 . S
C1962 C1963 1.560 . S
C1962 H2023 0.959 . S
C1962 H2024 0.959 . S
C1962 H2025 0.960 . S
C1963 C1962 1.560 . S
C1963 O2018 1.426 . S
C1963 H2022 0.980 . S
C1964 C1965 1.407 . S
C1964 C1969 1.418 . S
C1964 O2018 1.334 . S
C1965 C1964 1.407 . S
C1965 C1966 1.360 . S
C1965 H2026 0.929 . S
C1966 C1965 1.360 . S
C1966 C1967 1.401 . S
C1966 C1970 1.527 . S
C1967 C1966 1.401 . S
C1967 C1968 1.405 . S
C1967 C2000 1.587 . S
C1968 C1967 1.405 . S
C1968 C1969 1.332 . S
C1968 C1971 1.496 . S
C1969 C1964 1.418 . S
C1969 C1968 1.332 . S
C1969 H2027 0.929 . S
C1970 C1966 1.527 . S
C1970 H2028 0.959 . S
C1970 H2029 0.961 . S
C1970 H2030 0.961 . S
C1971 C1968 1.496 . S
C1971 H2031 0.960 . S
C1971 H2032 0.960 . S
C1971 H2033 0.961 . S
C1972 C1973 1.517 . S
C1972 H2035 0.961 . S
C1972 H2036 0.960 . S
C1972 H2037 0.959 . S
C1973 C1972 1.517 . S
C1973 O2021 1.468 . S
C1973 H2034 0.980 . S
C1974 C1975 1.349 . S
C1974 C1979 1.367 . S
C1974 O2021 1.408 . S
C1975 C1974 1.349 . S
C1975 C1976 1.407 . S
C1975 H2038 0.930 . S
C1976 C1975 1.407 . S
C1976 C1977 1.449 . S
C1976 C1980 1.535 . S
C1977 C1976 1.449 . S
C1977 C1978 1.384 . S
C1977 C2002 1.553 . S
C1978 C1977 1.384 . S
C1978 C1979 1.364 . S
C1978 C1981 1.450 . S
C1979 C1974 1.367 . S
C1979 C1978 1.364 . S
C1979 H2039 0.931 . S
C1980 C1976 1.535 . S
C1980 H2040 0.959 . S
C1980 H2041 0.961 . S
C1980 H2042 0.959 . S
C1981 C1978 1.450 . S
C1981 H2043 0.960 . S
C1981 H2044 0.960 . S
C1981 H2045 0.960 . S
C1982 C1983 1.309 . S
C1982 C1987 1.304 . S
C1982 O2020 1.435 . S
C1983 C1982 1.309 . S
C1983 C1984 1.476 . S
C1983 H2047 0.930 . S
C1984 C1983 1.476 . S
C1984 C1985 1.400 . S
C1984 C1988 1.567 . S
C1985 C1984 1.400 . S
C1985 C1986 1.373 . S
C1985 C2007 1.432 . S
C1986 C1985 1.373 . S
C1986 C1987 1.339 . S
C1986 C1989 1.530 . S
C1987 C1982 1.304 . S
C1987 C1986 1.339 . S
C1987 H2048 0.930 . S
C1988 C1984 1.567 . S
C1988 H2049 0.961 . S
C1988 H2050 0.960 . S
C1988 H2051 0.958 . S
C1989 C1986 1.530 . S
C1989 H2052 0.961 . S
C1989 H2053 0.960 . S
C1989 H2054 0.960 . S
C1990 C1991 1.530 . S
C1990 H2056 0.961 . S
C1990 H2057 0.961 . S
C1990 H2058 0.959 . S
C1991 C1990 1.530 . S
C1991 O2019 1.412 . S
C1991 H2055 0.980 . S
C1992 C1993 1.288 . S
C1992 C1997 1.377 . S
C1992 O2019 1.393 . S
C1993 C1992 1.288 . S
C1993 C1994 1.369 . S
C1993 H2059 0.932 . S
C1994 C1993 1.369 . S
C1994 C1995 1.398 . S
C1994 C1998 1.527 . S
C1995 C1994 1.398 . S
C1995 C1996 1.380 . S
C1995 C2009 1.497 . S
C1996 C1995 1.380 . S
C1996 C1997 1.383 . S
C1996 C1999 1.603 . S
C1997 C1992 1.377 . S
C1997 C1996 1.383 . S
C1997 H2060 0.929 . S
C1998 C1994 1.527 . S
C1998 H2061 0.961 . S
C1998 H2062 0.959 . S
C1998 H2063 0.959 . S
C1999 C1996 1.603 . S
C1999 H2064 0.960 . S
C1999 H2065 0.962 . S
C1999 H2066 0.961 . S
C2000 C1967 1.587 . S
C2000 C2001 1.360 . S
C2000 C2013 1.412 . S
C2001 C2000 1.360 . S
C2001 C2002 1.365 . S
C2001 H2067 0.929 . S
C2002 C1977 1.553 . S
C2002 C2001 1.365 . S
C2002 C2003 1.404 . S
C2003 C2002 1.404 . S
C2003 C2004 1.395 . S
C2003 C2014 1.451 . S
C2004 C2003 1.395 . S
C2004 C2005 1.322 . S
C2004 H2068 0.930 . S
C2005 C2004 1.322 . S
C2005 C2006 1.459 . S
C2005 H2069 0.929 . S
C2006 C2005 1.459 . S
C2006 C2007 1.445 . S
C2006 C2015 1.395 . S
C2007 C1985 1.432 . S
C2007 C2006 1.445 . S
C2007 C2008 1.370 . S
C2008 C2007 1.370 . S
C2008 C2009 1.438 . S
C2008 H2070 0.930 . S
C2009 C1995 1.497 . S
C2009 C2008 1.438 . S
C2009 C2010 1.360 . S
C2010 C2009 1.360 . S
C2010 C2011 1.401 . S
C2010 C2015 1.446 . S
C2011 C2010 1.401 . S
C2011 C2012 1.347 . S
C2011 H2071 0.929 . S
C2012 C2011 1.347 . S
C2012 C2013 1.455 . S
C2012 H2072 0.930 . S
C2013 C2000 1.412 . S
C2013 C2012 1.455 . S
C2013 C2014 1.331 . S
C2014 C2003 1.451 . S
C2014 C2013 1.331 . S
C2014 C2015 1.497 . S
C2015 C2006 1.395 . S
C2015 C2010 1.446 . S
C2015 C2014 1.497 . S
C2016 C2017 1.582 . S
C2016 H2073 0.962 . S
C2016 H2074 0.959 . S
C2016 H2075 0.958 . S
C2017 C2016 1.582 . S
C2017 O2020 1.458 . S
C2017 H2046 0.980 . S
O2018 C1963 1.426 . S
O2018 C1964 1.334 . S
O2019 C1991 1.412 . S
O2019 C1992 1.393 . S
O2020 C1982 1.435 . S
O2020 C2017 1.458 . S
O2021 C1973 1.468 . S
O2021 C1974 1.408 . S
H2022 C1963 0.980 . S
H2023 C1962 0.959 . S
H2024 C1962 0.959 . S
H2025 C1962 0.960 . S
H2026 C1965 0.929 . S
H2027 C1969 0.929 . S
H2028 C1970 0.959 . S
H2029 C1970 0.961 . S
H2030 C1970 0.961 . S
H2031 C1971 0.960 . S
H2032 C1971 0.960 . S
H2033 C1971 0.961 . S
H2034 C1973 0.980 . S
H2035 C1972 0.961 . S
H2036 C1972 0.960 . S
H2037 C1972 0.959 . S
H2038 C1975 0.930 . S
H2039 C1979 0.931 . S
H2040 C1980 0.959 . S
H2041 C1980 0.961 . S
H2042 C1980 0.959 . S
H2043 C1981 0.960 . S
H2044 C1981 0.960 . S
H2045 C1981 0.960 . S
H2046 C2017 0.980 . S
H2047 C1983 0.930 . S
H2048 C1987 0.930 . S
H2049 C1988 0.961 . S
H2050 C1988 0.960 . S
H2051 C1988 0.958 . S
H2052 C1989 0.961 . S
H2053 C1989 0.960 . S
H2054 C1989 0.960 . S
H2055 C1991 0.980 . S
H2056 C1990 0.961 . S
H2057 C1990 0.961 . S
H2058 C1990 0.959 . S
H2059 C1993 0.932 . S
H2060 C1997 0.929 . S
H2061 C1998 0.961 . S
H2062 C1998 0.959 . S
H2063 C1998 0.959 . S
H2064 C1999 0.960 . S
H2065 C1999 0.962 . S
H2066 C1999 0.961 . S
H2067 C2001 0.929 . S
H2068 C2004 0.930 . S
H2069 C2005 0.929 . S
H2070 C2008 0.930 . S
H2071 C2011 0.929 . S
H2072 C2012 0.930 . S
H2073 C2016 0.962 . S
H2074 C2016 0.959 . S
H2075 C2016 0.958 . S
C2076 C2077 1.560 . S
C2076 H2137 0.959 . S
C2076 H2138 0.959 . S
C2076 H2139 0.960 . S
C2077 C2076 1.560 . S
C2077 O2132 1.426 . S
C2077 H2136 0.980 . S
C2078 C2079 1.407 . S
C2078 C2083 1.418 . S
C2078 O2132 1.334 . S
C2079 C2078 1.407 . S
C2079 C2080 1.360 . S
C2079 H2140 0.929 . S
C2080 C2079 1.360 . S
C2080 C2081 1.401 . S
C2080 C2084 1.527 . S
C2081 C2080 1.401 . S
C2081 C2082 1.405 . S
C2081 C2114 1.587 . S
C2082 C2081 1.405 . S
C2082 C2083 1.332 . S
C2082 C2085 1.496 . S
C2083 C2078 1.418 . S
C2083 C2082 1.332 . S
C2083 H2141 0.929 . S
C2084 C2080 1.527 . S
C2084 H2142 0.959 . S
C2084 H2143 0.961 . S
C2084 H2144 0.961 . S
C2085 C2082 1.496 . S
C2085 H2145 0.960 . S
C2085 H2146 0.960 . S
C2085 H2147 0.961 . S
C2086 C2087 1.517 . S
C2086 H2149 0.961 . S
C2086 H2150 0.960 . S
C2086 H2151 0.959 . S
C2087 C2086 1.517 . S
C2087 O2135 1.468 . S
C2087 H2148 0.980 . S
C2088 C2089 1.349 . S
C2088 C2093 1.367 . S
C2088 O2135 1.408 . S
C2089 C2088 1.349 . S
C2089 C2090 1.407 . S
C2089 H2152 0.930 . S
C2090 C2089 1.407 . S
C2090 C2091 1.449 . S
C2090 C2094 1.535 . S
C2091 C2090 1.449 . S
C2091 C2092 1.384 . S
C2091 C2116 1.553 . S
C2092 C2091 1.384 . S
C2092 C2093 1.364 . S
C2092 C2095 1.450 . S
C2093 C2088 1.367 . S
C2093 C2092 1.364 . S
C2093 H2153 0.931 . S
C2094 C2090 1.535 . S
C2094 H2154 0.959 . S
C2094 H2155 0.961 . S
C2094 H2156 0.959 . S
C2095 C2092 1.450 . S
C2095 H2157 0.960 . S
C2095 H2158 0.960 . S
C2095 H2159 0.960 . S
C2096 C2097 1.309 . S
C2096 C2101 1.304 . S
C2096 O2134 1.435 . S
C2097 C2096 1.309 . S
C2097 C2098 1.476 . S
C2097 H2161 0.930 . S
C2098 C2097 1.476 . S
C2098 C2099 1.400 . S
C2098 C2102 1.567 . S
C2099 C2098 1.400 . S
C2099 C2100 1.373 . S
C2099 C2121 1.432 . S
C2100 C2099 1.373 . S
C2100 C2101 1.339 . S
C2100 C2103 1.530 . S
C2101 C2096 1.304 . S
C2101 C2100 1.339 . S
C2101 H2162 0.930 . S
C2102 C2098 1.567 . S
C2102 H2163 0.961 . S
C2102 H2164 0.960 . S
C2102 H2165 0.958 . S
C2103 C2100 1.530 . S
C2103 H2166 0.961 . S
C2103 H2167 0.960 . S
C2103 H2168 0.960 . S
C2104 C2105 1.530 . S
C2104 H2170 0.961 . S
C2104 H2171 0.961 . S
C2104 H2172 0.959 . S
C2105 C2104 1.530 . S
C2105 O2133 1.412 . S
C2105 H2169 0.980 . S
C2106 C2107 1.288 . S
C2106 C2111 1.377 . S
C2106 O2133 1.393 . S
C2107 C2106 1.288 . S
C2107 C2108 1.369 . S
C2107 H2173 0.932 . S
C2108 C2107 1.369 . S
C2108 C2109 1.398 . S
C2108 C2112 1.527 . S
C2109 C2108 1.398 . S
C2109 C2110 1.380 . S
C2109 C2123 1.497 . S
C2110 C2109 1.380 . S
C2110 C2111 1.383 . S
C2110 C2113 1.603 . S
C2111 C2106 1.377 . S
C2111 C2110 1.383 . S
C2111 H2174 0.929 . S
C2112 C2108 1.527 . S
C2112 H2175 0.961 . S
C2112 H2176 0.959 . S
C2112 H2177 0.959 . S
C2113 C2110 1.603 . S
C2113 H2178 0.960 . S
C2113 H2179 0.962 . S
C2113 H2180 0.961 . S
C2114 C2081 1.587 . S
C2114 C2115 1.360 . S
C2114 C2127 1.412 . S
C2115 C2114 1.360 . S
C2115 C2116 1.365 . S
C2115 H2181 0.929 . S
C2116 C2091 1.553 . S
C2116 C2115 1.365 . S
C2116 C2117 1.404 . S
C2117 C2116 1.404 . S
C2117 C2118 1.395 . S
C2117 C2128 1.451 . S
C2118 C2117 1.395 . S
C2118 C2119 1.322 . S
C2118 H2182 0.930 . S
C2119 C2118 1.322 . S
C2119 C2120 1.459 . S
C2119 H2183 0.929 . S
C2120 C2119 1.459 . S
C2120 C2121 1.445 . S
C2120 C2129 1.395 . S
C2121 C2099 1.432 . S
C2121 C2120 1.445 . S
C2121 C2122 1.370 . S
C2122 C2121 1.370 . S
C2122 C2123 1.438 . S
C2122 H2184 0.930 . S
C2123 C2109 1.497 . S
C2123 C2122 1.438 . S
C2123 C2124 1.360 . S
C2124 C2123 1.360 . S
C2124 C2125 1.401 . S
C2124 C2129 1.446 . S
C2125 C2124 1.401 . S
C2125 C2126 1.347 . S
C2125 H2185 0.929 . S
C2126 C2125 1.347 . S
C2126 C2127 1.455 . S
C2126 H2186 0.930 . S
C2127 C2114 1.412 . S
C2127 C2126 1.455 . S
C2127 C2128 1.331 . S
C2128 C2117 1.451 . S
C2128 C2127 1.331 . S
C2128 C2129 1.497 . S
C2129 C2120 1.395 . S
C2129 C2124 1.446 . S
C2129 C2128 1.497 . S
C2130 C2131 1.582 . S
C2130 H2187 0.962 . S
C2130 H2188 0.959 . S
C2130 H2189 0.958 . S
C2131 C2130 1.582 . S
C2131 O2134 1.458 . S
C2131 H2160 0.980 . S
O2132 C2077 1.426 . S
O2132 C2078 1.334 . S
O2133 C2105 1.412 . S
O2133 C2106 1.393 . S
O2134 C2096 1.435 . S
O2134 C2131 1.458 . S
O2135 C2087 1.468 . S
O2135 C2088 1.408 . S
H2136 C2077 0.980 . S
H2137 C2076 0.959 . S
H2138 C2076 0.959 . S
H2139 C2076 0.960 . S
H2140 C2079 0.929 . S
H2141 C2083 0.929 . S
H2142 C2084 0.959 . S
H2143 C2084 0.961 . S
H2144 C2084 0.961 . S
H2145 C2085 0.960 . S
H2146 C2085 0.960 . S
H2147 C2085 0.961 . S
H2148 C2087 0.980 . S
H2149 C2086 0.961 . S
H2150 C2086 0.960 . S
H2151 C2086 0.959 . S
H2152 C2089 0.930 . S
H2153 C2093 0.931 . S
H2154 C2094 0.959 . S
H2155 C2094 0.961 . S
H2156 C2094 0.959 . S
H2157 C2095 0.960 . S
H2158 C2095 0.960 . S
H2159 C2095 0.960 . S
H2160 C2131 0.980 . S
H2161 C2097 0.930 . S
H2162 C2101 0.930 . S
H2163 C2102 0.961 . S
H2164 C2102 0.960 . S
H2165 C2102 0.958 . S
H2166 C2103 0.961 . S
H2167 C2103 0.960 . S
H2168 C2103 0.960 . S
H2169 C2105 0.980 . S
H2170 C2104 0.961 . S
H2171 C2104 0.961 . S
H2172 C2104 0.959 . S
H2173 C2107 0.932 . S
H2174 C2111 0.929 . S
H2175 C2112 0.961 . S
H2176 C2112 0.959 . S
H2177 C2112 0.959 . S
H2178 C2113 0.960 . S
H2179 C2113 0.962 . S
H2180 C2113 0.961 . S
H2181 C2115 0.929 . S
H2182 C2118 0.930 . S
H2183 C2119 0.929 . S
H2184 C2122 0.930 . S
H2185 C2125 0.929 . S
H2186 C2126 0.930 . S
H2187 C2130 0.962 . S
H2188 C2130 0.959 . S
H2189 C2130 0.958 . S
C2190 C2191 1.560 . S
C2190 H2251 0.959 . S
C2190 H2252 0.959 . S
C2190 H2253 0.960 . S
C2191 C2190 1.560 . S
C2191 O2246 1.426 . S
C2191 H2250 0.980 . S
C2192 C2193 1.407 . S
C2192 C2197 1.418 . S
C2192 O2246 1.334 . S
C2193 C2192 1.407 . S
C2193 C2194 1.360 . S
C2193 H2254 0.929 . S
C2194 C2193 1.360 . S
C2194 C2195 1.401 . S
C2194 C2198 1.527 . S
C2195 C2194 1.401 . S
C2195 C2196 1.405 . S
C2195 C2228 1.587 . S
C2196 C2195 1.405 . S
C2196 C2197 1.332 . S
C2196 C2199 1.496 . S
C2197 C2192 1.418 . S
C2197 C2196 1.332 . S
C2197 H2255 0.929 . S
C2198 C2194 1.527 . S
C2198 H2256 0.959 . S
C2198 H2257 0.961 . S
C2198 H2258 0.961 . S
C2199 C2196 1.496 . S
C2199 H2259 0.960 . S
C2199 H2260 0.960 . S
C2199 H2261 0.961 . S
C2200 C2201 1.517 . S
C2200 H2263 0.961 . S
C2200 H2264 0.960 . S
C2200 H2265 0.959 . S
C2201 C2200 1.517 . S
C2201 O2249 1.468 . S
C2201 H2262 0.980 . S
C2202 C2203 1.349 . S
C2202 C2207 1.367 . S
C2202 O2249 1.408 . S
C2203 C2202 1.349 . S
C2203 C2204 1.407 . S
C2203 H2266 0.930 . S
C2204 C2203 1.407 . S
C2204 C2205 1.449 . S
C2204 C2208 1.535 . S
C2205 C2204 1.449 . S
C2205 C2206 1.384 . S
C2205 C2230 1.553 . S
C2206 C2205 1.384 . S
C2206 C2207 1.364 . S
C2206 C2209 1.450 . S
C2207 C2202 1.367 . S
C2207 C2206 1.364 . S
C2207 H2267 0.931 . S
C2208 C2204 1.535 . S
C2208 H2268 0.959 . S
C2208 H2269 0.961 . S
C2208 H2270 0.959 . S
C2209 C2206 1.450 . S
C2209 H2271 0.960 . S
C2209 H2272 0.960 . S
C2209 H2273 0.960 . S
C2210 C2211 1.309 . S
C2210 C2215 1.304 . S
C2210 O2248 1.435 . S
C2211 C2210 1.309 . S
C2211 C2212 1.476 . S
C2211 H2275 0.930 . S
C2212 C2211 1.476 . S
C2212 C2213 1.400 . S
C2212 C2216 1.567 . S
C2213 C2212 1.400 . S
C2213 C2214 1.373 . S
C2213 C2235 1.432 . S
C2214 C2213 1.373 . S
C2214 C2215 1.339 . S
C2214 C2217 1.530 . S
C2215 C2210 1.304 . S
C2215 C2214 1.339 . S
C2215 H2276 0.930 . S
C2216 C2212 1.567 . S
C2216 H2277 0.961 . S
C2216 H2278 0.960 . S
C2216 H2279 0.958 . S
C2217 C2214 1.530 . S
C2217 H2280 0.961 . S
C2217 H2281 0.960 . S
C2217 H2282 0.960 . S
C2218 C2219 1.530 . S
C2218 H2284 0.961 . S
C2218 H2285 0.961 . S
C2218 H2286 0.959 . S
C2219 C2218 1.530 . S
C2219 O2247 1.412 . S
C2219 H2283 0.980 . S
C2220 C2221 1.288 . S
C2220 C2225 1.377 . S
C2220 O2247 1.393 . S
C2221 C2220 1.288 . S
C2221 C2222 1.369 . S
C2221 H2287 0.932 . S
C2222 C2221 1.369 . S
C2222 C2223 1.398 . S
C2222 C2226 1.527 . S
C2223 C2222 1.398 . S
C2223 C2224 1.380 . S
C2223 C2237 1.497 . S
C2224 C2223 1.380 . S
C2224 C2225 1.383 . S
C2224 C2227 1.603 . S
C2225 C2220 1.377 . S
C2225 C2224 1.383 . S
C2225 H2288 0.929 . S
C2226 C2222 1.527 . S
C2226 H2289 0.961 . S
C2226 H2290 0.959 . S
C2226 H2291 0.959 . S
C2227 C2224 1.603 . S
C2227 H2292 0.960 . S
C2227 H2293 0.962 . S
C2227 H2294 0.961 . S
C2228 C2195 1.587 . S
C2228 C2229 1.360 . S
C2228 C2241 1.412 . S
C2229 C2228 1.360 . S
C2229 C2230 1.365 . S
C2229 H2295 0.929 . S
C2230 C2205 1.553 . S
C2230 C2229 1.365 . S
C2230 C2231 1.404 . S
C2231 C2230 1.404 . S
C2231 C2232 1.395 . S
C2231 C2242 1.451 . S
C2232 C2231 1.395 . S
C2232 C2233 1.322 . S
C2232 H2296 0.930 . S
C2233 C2232 1.322 . S
C2233 C2234 1.459 . S
C2233 H2297 0.929 . S
C2234 C2233 1.459 . S
C2234 C2235 1.445 . S
C2234 C2243 1.395 . S
C2235 C2213 1.432 . S
C2235 C2234 1.445 . S
C2235 C2236 1.370 . S
C2236 C2235 1.370 . S
C2236 C2237 1.438 . S
C2236 H2298 0.930 . S
C2237 C2223 1.497 . S
C2237 C2236 1.438 . S
C2237 C2238 1.360 . S
C2238 C2237 1.360 . S
C2238 C2239 1.401 . S
C2238 C2243 1.446 . S
C2239 C2238 1.401 . S
C2239 C2240 1.347 . S
C2239 H2299 0.929 . S
C2240 C2239 1.347 . S
C2240 C2241 1.455 . S
C2240 H2300 0.930 . S
C2241 C2228 1.412 . S
C2241 C2240 1.455 . S
C2241 C2242 1.331 . S
C2242 C2231 1.451 . S
C2242 C2241 1.331 . S
C2242 C2243 1.497 . S
C2243 C2234 1.395 . S
C2243 C2238 1.446 . S
C2243 C2242 1.497 . S
C2244 C2245 1.582 . S
C2244 H2301 0.962 . S
C2244 H2302 0.959 . S
C2244 H2303 0.958 . S
C2245 C2244 1.582 . S
C2245 O2248 1.458 . S
C2245 H2274 0.980 . S
O2246 C2191 1.426 . S
O2246 C2192 1.334 . S
O2247 C2219 1.412 . S
O2247 C2220 1.393 . S
O2248 C2210 1.435 . S
O2248 C2245 1.458 . S
O2249 C2201 1.468 . S
O2249 C2202 1.408 . S
H2250 C2191 0.980 . S
H2251 C2190 0.959 . S
H2252 C2190 0.959 . S
H2253 C2190 0.960 . S
H2254 C2193 0.929 . S
H2255 C2197 0.929 . S
H2256 C2198 0.959 . S
H2257 C2198 0.961 . S
H2258 C2198 0.961 . S
H2259 C2199 0.960 . S
H2260 C2199 0.960 . S
H2261 C2199 0.961 . S
H2262 C2201 0.980 . S
H2263 C2200 0.961 . S
H2264 C2200 0.960 . S
H2265 C2200 0.959 . S
H2266 C2203 0.930 . S
H2267 C2207 0.931 . S
H2268 C2208 0.959 . S
H2269 C2208 0.961 . S
H2270 C2208 0.959 . S
H2271 C2209 0.960 . S
H2272 C2209 0.960 . S
H2273 C2209 0.960 . S
H2274 C2245 0.980 . S
H2275 C2211 0.930 . S
H2276 C2215 0.930 . S
H2277 C2216 0.961 . S
H2278 C2216 0.960 . S
H2279 C2216 0.958 . S
H2280 C2217 0.961 . S
H2281 C2217 0.960 . S
H2282 C2217 0.960 . S
H2283 C2219 0.980 . S
H2284 C2218 0.961 . S
H2285 C2218 0.961 . S
H2286 C2218 0.959 . S
H2287 C2221 0.932 . S
H2288 C2225 0.929 . S
H2289 C2226 0.961 . S
H2290 C2226 0.959 . S
H2291 C2226 0.959 . S
H2292 C2227 0.960 . S
H2293 C2227 0.962 . S
H2294 C2227 0.961 . S
H2295 C2229 0.929 . S
H2296 C2232 0.930 . S
H2297 C2233 0.929 . S
H2298 C2236 0.930 . S
H2299 C2239 0.929 . S
H2300 C2240 0.930 . S
H2301 C2244 0.962 . S
H2302 C2244 0.959 . S
H2303 C2244 0.958 . S
H2304 C2322 0.951 . S
H2305 C2324 0.951 . S
H2306 C2326 0.950 . S
H2307 C2327 0.950 . S
H2308 C2329 0.950 . S
H2309 C2332 0.950 . S
H2310 C2333 0.950 . S
H2311 C2335 0.950 . S
H2312 C2336 0.950 . S
H2313 C2337 0.951 . S
H2314 C2339 0.951 . S
H2315 C2341 0.946 1_455 S
H2316 C2342 0.951 . S
H2317 C2344 0.950 . S
H2318 C2347 0.950 . S
H2319 C2348 0.950 . S
H2320 C2350 0.950 . S
H2321 C2351 0.950 . S
C2322 H2304 0.951 . S
C2322 C2323 1.382 1_455 S
C2322 C2324 1.388 . S
C2323 C2322 1.382 1_655 S
C2323 C2327 1.389 . S
C2324 H2305 0.951 . S
C2324 C2322 1.388 . S
C2324 C2325 1.362 1_455 S
C2325 C2324 1.362 1_655 S
C2325 C2326 1.389 . S
C2325 C2328 1.537 . S
C2326 H2306 0.950 . S
C2326 C2325 1.389 . S
C2326 C2327 1.374 . S
C2327 H2307 0.950 . S
C2327 C2323 1.389 . S
C2327 C2326 1.374 . S
C2328 C2325 1.537 . S
C2328 C2329 1.373 . S
C2328 C2330 1.389 1_655 S
C2329 H2308 0.950 . S
C2329 C2328 1.373 . S
C2329 C2345 1.377 . S
C2330 C2328 1.389 1_455 S
C2330 C2331 1.524 . S
C2330 C2344 1.377 . S
C2331 C2330 1.524 . S
C2331 C2332 1.397 . S
C2331 C2336 1.363 . S
C2332 H2309 0.950 . S
C2332 C2331 1.397 . S
C2332 C2333 1.334 . S
C2333 H2310 0.950 . S
C2333 C2332 1.334 . S
C2333 C2334 1.287 . S
C2334 C2333 1.287 . S
C2334 C2335 1.524 . S
C2334 H2353 0.913 . S
C2335 H2311 0.950 . S
C2335 C2334 1.524 . S
C2335 C2336 1.415 . S
C2336 H2312 0.950 . S
C2336 C2331 1.363 . S
C2336 C2335 1.415 . S
C2337 H2313 0.951 . S
C2337 C2338 1.366 . S
C2337 C2339 1.388 . S
C2338 C2337 1.366 . S
C2338 C2342 1.385 . S
C2339 H2314 0.951 . S
C2339 C2337 1.388 . S
C2339 C2340 1.366 . S
C2340 C2339 1.366 . S
C2340 C2341 1.414 . S
C2340 C2343 1.499 . S
C2341 H2315 0.946 1_655 S
C2341 C2340 1.414 . S
C2341 C2342 1.374 . S
C2342 H2316 0.951 . S
C2342 C2338 1.385 . S
C2342 C2341 1.374 . S
C2343 C2340 1.499 . S
C2343 C2344 1.373 1_655 S
C2343 C2345 1.389 . S
C2344 H2317 0.950 . S
C2344 C2330 1.377 . S
C2344 C2343 1.373 1_455 S
C2345 C2329 1.377 . S
C2345 C2343 1.389 . S
C2345 C2346 1.524 . S
C2346 C2345 1.524 . S
C2346 C2347 1.397 . S
C2346 C2351 1.363 . S
C2347 H2318 0.950 . S
C2347 C2346 1.397 . S
C2347 C2348 1.334 . S
C2348 H2319 0.950 . S
C2348 C2347 1.334 . S
C2348 C2349 1.287 . S
C2349 C2348 1.287 . S
C2349 C2350 1.524 . S
C2349 H2352 0.999 . S
C2350 H2320 0.950 . S
C2350 C2349 1.524 . S
C2350 C2351 1.415 . S
C2351 H2321 0.950 . S
C2351 C2346 1.363 . S
C2351 C2350 1.415 . S
H2352 C2349 0.999 . S
H2353 C2334 0.913 . S
H2354 C2372 0.951 . S
H2355 C2374 0.951 . S
H2356 C2376 0.950 . S
H2357 C2377 0.950 . S
H2358 C2379 0.950 . S
H2359 C2382 0.950 . S
H2360 C2383 0.950 . S
H2361 C2385 0.950 . S
H2362 C2386 0.950 . S
H2363 C2387 0.951 . S
H2364 C2389 0.951 . S
H2365 C2391 0.950 . S
H2366 C2392 0.950 . S
H2367 C2394 0.950 . S
H2368 C2397 0.950 . S
H2369 C2398 0.950 . S
H2370 C2400 0.950 . S
H2371 C2401 0.950 . S
C2372 H2354 0.951 . S
C2372 C2373 1.366 . S
C2372 C2374 1.388 . S
C2373 C2372 1.366 . S
C2373 C2377 1.385 . S
C2374 H2355 0.951 . S
C2374 C2372 1.388 . S
C2374 C2375 1.366 . S
C2375 C2374 1.366 . S
C2375 C2376 1.414 . S
C2375 C2378 1.499 . S
C2376 H2356 0.950 . S
C2376 C2375 1.414 . S
C2376 C2377 1.374 . S
C2377 H2357 0.950 . S
C2377 C2373 1.385 . S
C2377 C2376 1.374 . S
C2378 C2375 1.499 . S
C2378 C2379 1.373 . S
C2378 C2380 1.389 . S
C2379 H2358 0.950 . S
C2379 C2378 1.373 . S
C2379 C2395 1.377 . S
C2380 C2378 1.389 . S
C2380 C2381 1.524 . S
C2380 C2394 1.377 . S
C2381 C2380 1.524 . S
C2381 C2382 1.397 . S
C2381 C2386 1.363 . S
C2382 H2359 0.950 . S
C2382 C2381 1.397 . S
C2382 C2383 1.334 . S
C2383 H2360 0.950 . S
C2383 C2382 1.334 . S
C2383 C2384 1.287 . S
C2384 C2383 1.287 . S
C2384 C2385 1.524 . S
C2384 H2403 0.913 . S
C2385 H2361 0.950 . S
C2385 C2384 1.524 . S
C2385 C2386 1.415 . S
C2386 H2362 0.950 . S
C2386 C2381 1.363 . S
C2386 C2385 1.415 . S
C2387 H2363 0.951 . S
C2387 C2388 1.366 . S
C2387 C2389 1.388 . S
C2388 C2387 1.366 . S
C2388 C2392 1.385 . S
C2389 H2364 0.951 . S
C2389 C2387 1.388 . S
C2389 C2390 1.366 . S
C2390 C2389 1.366 . S
C2390 C2391 1.414 . S
C2390 C2393 1.499 . S
C2391 H2365 0.950 . S
C2391 C2390 1.414 . S
C2391 C2392 1.374 . S
C2392 H2366 0.950 . S
C2392 C2388 1.385 . S
C2392 C2391 1.374 . S
C2393 C2390 1.499 . S
C2393 C2394 1.373 . S
C2393 C2395 1.389 . S
C2394 H2367 0.950 . S
C2394 C2380 1.377 . S
C2394 C2393 1.373 . S
C2395 C2379 1.377 . S
C2395 C2393 1.389 . S
C2395 C2396 1.524 . S
C2396 C2395 1.524 . S
C2396 C2397 1.397 . S
C2396 C2401 1.363 . S
C2397 H2368 0.950 . S
C2397 C2396 1.397 . S
C2397 C2398 1.334 . S
C2398 H2369 0.950 . S
C2398 C2397 1.334 . S
C2398 C2399 1.287 . S
C2399 C2398 1.287 . S
C2399 C2400 1.524 . S
C2399 H2402 0.999 . S
C2400 H2370 0.950 . S
C2400 C2399 1.524 . S
C2400 C2401 1.415 . S
C2401 H2371 0.950 . S
C2401 C2396 1.363 . S
C2401 C2400 1.415 . S
H2402 C2399 0.999 . S
H2403 C2384 0.913 . S
H2404 C2422 0.951 . S
H2405 C2424 0.951 . S
H2406 C2426 0.902 1_565 S
H2407 C2427 0.950 1_565 S
H2408 C2429 0.950 . S
H2409 C2432 0.950 1_565 S
H2410 C2433 0.994 . S
H2411 C2435 0.950 . S
H2412 C2436 0.950 . S
H2413 C2437 0.951 . S
H2414 C2439 0.951 . S
H2415 C2441 0.950 . S
H2416 C2442 0.950 . S
H2417 C2444 0.950 . S
H2418 C2447 0.950 . S
H2419 C2448 0.950 . S
H2420 C2450 0.973 . S
H2421 C2451 0.950 . S
C2422 H2404 0.951 . S
C2422 C2423 1.366 . S
C2422 C2424 1.388 . S
C2423 C2422 1.366 . S
C2423 C2427 1.385 . S
C2424 H2405 0.951 . S
C2424 C2422 1.388 . S
C2424 C2425 1.366 . S
C2425 C2424 1.366 . S
C2425 C2426 1.431 . S
C2425 C2428 1.499 . S
C2426 H2406 0.902 1_545 S
C2426 C2425 1.431 . S
C2426 C2427 1.411 . S
C2427 H2407 0.950 1_545 S
C2427 C2423 1.385 . S
C2427 C2426 1.411 . S
C2428 C2425 1.499 . S
C2428 C2429 1.373 . S
C2428 C2430 1.389 . S
C2429 H2408 0.950 . S
C2429 C2428 1.373 . S
C2429 C2445 1.377 . S
C2430 C2428 1.389 . S
C2430 C2431 1.524 . S
C2430 C2444 1.377 . S
C2431 C2430 1.524 . S
C2431 C2432 1.396 . S
C2431 C2436 1.363 . S
C2432 H2409 0.950 1_545 S
C2432 C2431 1.396 . S
C2432 C2433 1.319 1_545 S
C2433 H2410 0.994 . S
C2433 C2432 1.319 1_565 S
C2433 C2434 1.267 1_565 S
C2434 C2433 1.267 1_545 S
C2434 C2435 1.524 . S
C2434 H2453 0.913 . S
C2435 H2411 0.950 . S
C2435 C2434 1.524 . S
C2435 C2436 1.415 . S
C2436 H2412 0.950 . S
C2436 C2431 1.363 . S
C2436 C2435 1.415 . S
C2437 H2413 0.951 . S
C2437 C2438 1.366 1_565 S
C2437 C2439 1.388 . S
C2438 C2437 1.366 1_545 S
C2438 C2442 1.385 . S
C2439 H2414 0.951 . S
C2439 C2437 1.388 . S
C2439 C2440 1.366 1_565 S
C2440 C2439 1.366 1_545 S
C2440 C2441 1.414 . S
C2440 C2443 1.499 . S
C2441 H2415 0.950 . S
C2441 C2440 1.414 . S
C2441 C2442 1.374 . S
C2442 H2416 0.950 . S
C2442 C2438 1.385 . S
C2442 C2441 1.374 . S
C2443 C2440 1.499 . S
C2443 C2444 1.373 . S
C2443 C2445 1.389 . S
C2444 H2417 0.950 . S
C2444 C2430 1.377 . S
C2444 C2443 1.373 . S
C2445 C2429 1.377 . S
C2445 C2443 1.389 . S
C2445 C2446 1.524 . S
C2446 C2445 1.524 . S
C2446 C2447 1.397 . S
C2446 C2451 1.363 1_545 S
C2447 H2418 0.950 . S
C2447 C2446 1.397 . S
C2447 C2448 1.334 . S
C2448 H2419 0.950 . S
C2448 C2447 1.334 . S
C2448 C2449 1.287 . S
C2449 C2448 1.287 . S
C2449 C2450 1.489 1_545 S
C2449 H2452 0.999 . S
C2450 H2420 0.973 . S
C2450 C2449 1.489 1_565 S
C2450 C2451 1.430 . S
C2451 H2421 0.950 . S
C2451 C2446 1.363 1_565 S
C2451 C2450 1.430 . S
H2452 C2449 0.999 . S
H2453 C2434 0.913 . S
H2454 C2472 0.951 . S
H2455 C2474 0.951 . S
H2456 C2476 0.950 . S
H2457 C2477 0.950 . S
H2458 C2479 0.950 . S
H2459 C2482 0.950 . S
H2460 C2483 0.950 . S
H2461 C2485 0.950 . S
H2462 C2486 0.950 . S
H2463 C2487 0.979 1_545 S
H2464 C2489 0.951 1_545 S
H2465 C2491 0.950 . S
H2466 C2492 0.950 . S
H2467 C2494 0.950 . S
H2468 C2497 0.950 . S
H2469 C2498 0.950 . S
H2470 C2500 0.950 . S
H2471 C2501 0.950 . S
C2472 H2454 0.951 . S
C2472 C2473 1.362 1_565 S
C2472 C2474 1.388 . S
C2473 C2472 1.362 1_545 S
C2473 C2477 1.360 . S
C2474 H2455 0.951 . S
C2474 C2472 1.388 . S
C2474 C2475 1.366 . S
C2475 C2474 1.366 . S
C2475 C2476 1.414 1_565 S
C2475 C2478 1.499 . S
C2476 H2456 0.950 . S
C2476 C2475 1.414 1_545 S
C2476 C2477 1.374 . S
C2477 H2457 0.950 . S
C2477 C2473 1.360 . S
C2477 C2476 1.374 . S
C2478 C2475 1.499 . S
C2478 C2479 1.373 1_565 S
C2478 C2480 1.389 . S
C2479 H2458 0.950 . S
C2479 C2478 1.373 1_545 S
C2479 C2495 1.377 . S
C2480 C2478 1.389 . S
C2480 C2481 1.524 . S
C2480 C2494 1.377 . S
C2481 C2480 1.524 . S
C2481 C2482 1.397 . S
C2481 C2486 1.363 . S
C2482 H2459 0.950 . S
C2482 C2481 1.397 . S
C2482 C2483 1.334 . S
C2483 H2460 0.950 . S
C2483 C2482 1.334 . S
C2483 C2484 1.287 . S
C2484 C2483 1.287 . S
C2484 C2485 1.524 . S
C2484 H2503 0.913 . S
C2485 H2461 0.950 . S
C2485 C2484 1.524 . S
C2485 C2486 1.415 . S
C2486 H2462 0.950 . S
C2486 C2481 1.363 . S
C2486 C2485 1.415 . S
C2487 H2463 0.979 1_565 S
C2487 C2488 1.366 . S
C2487 C2489 1.389 . S
C2488 C2487 1.366 . S
C2488 C2492 1.385 . S
C2489 H2464 0.951 1_565 S
C2489 C2487 1.389 . S
C2489 C2490 1.364 . S
C2490 C2489 1.364 . S
C2490 C2491 1.414 . S
C2490 C2493 1.499 . S
C2491 H2465 0.950 . S
C2491 C2490 1.414 . S
C2491 C2492 1.374 . S
C2492 H2466 0.950 . S
C2492 C2488 1.385 . S
C2492 C2491 1.374 . S
C2493 C2490 1.499 . S
C2493 C2494 1.373 . S
C2493 C2495 1.389 1_565 S
C2494 H2467 0.950 . S
C2494 C2480 1.377 . S
C2494 C2493 1.373 . S
C2495 C2479 1.377 . S
C2495 C2493 1.389 1_545 S
C2495 C2496 1.524 . S
C2496 C2495 1.524 . S
C2496 C2497 1.397 . S
C2496 C2501 1.363 . S
C2497 H2468 0.950 . S
C2497 C2496 1.397 . S
C2497 C2498 1.334 . S
C2498 H2469 0.950 . S
C2498 C2497 1.334 . S
C2498 C2499 1.287 . S
C2499 C2498 1.287 . S
C2499 C2500 1.524 . S
C2499 H2502 0.999 . S
C2500 H2470 0.950 . S
C2500 C2499 1.524 . S
C2500 C2501 1.415 . S
C2501 H2471 0.950 . S
C2501 C2496 1.363 . S
C2501 C2500 1.415 . S
H2502 C2499 0.999 . S
H2503 C2484 0.913 . S
H2504 C2522 0.951 . S
H2505 C2524 0.951 . S
H2506 C2526 0.950 . S
H2507 C2527 0.950 . S
H2508 C2529 0.950 . S
H2509 C2532 0.950 . S
H2510 C2533 0.950 . S
H2511 C2535 0.950 . S
H2512 C2536 0.950 . S
H2513 C2537 0.951 . S
H2514 C2539 0.951 . S
H2515 C2541 0.950 . S
H2516 C2542 0.950 . S
H2517 C2544 0.950 . S
H2518 C2547 0.950 . S
H2519 C2548 0.950 . S
H2520 C2550 0.950 . S
H2521 C2551 0.950 . S
C2522 H2504 0.951 . S
C2522 C2523 1.366 1_655 S
C2522 C2524 1.388 . S
C2523 C2522 1.366 1_455 S
C2523 C2527 1.385 . S
C2524 H2505 0.951 . S
C2524 C2522 1.388 . S
C2524 C2525 1.366 1_655 S
C2525 C2524 1.366 1_455 S
C2525 C2526 1.414 . S
C2525 C2528 1.499 . S
C2526 H2506 0.950 . S
C2526 C2525 1.414 . S
C2526 C2527 1.374 . S
C2527 H2507 0.950 . S
C2527 C2523 1.385 . S
C2527 C2526 1.374 . S
C2528 C2525 1.499 . S
C2528 C2529 1.373 . S
C2528 C2530 1.389 1_455 S
C2529 H2508 0.950 . S
C2529 C2528 1.373 . S
C2529 C2545 1.377 . S
C2530 C2528 1.389 1_655 S
C2530 C2531 1.524 . S
C2530 C2544 1.377 . S
C2531 C2530 1.524 . S
C2531 C2532 1.397 . S
C2531 C2536 1.363 . S
C2532 H2509 0.950 . S
C2532 C2531 1.397 . S
C2532 C2533 1.334 . S
C2533 H2510 0.950 . S
C2533 C2532 1.334 . S
C2533 C2534 1.287 . S
C2534 C2533 1.287 . S
C2534 C2535 1.524 . S
C2534 H2553 0.913 . S
C2535 H2511 0.950 . S
C2535 C2534 1.524 . S
C2535 C2536 1.415 . S
C2536 H2512 0.950 . S
C2536 C2531 1.363 . S
C2536 C2535 1.415 . S
C2537 H2513 0.951 . S
C2537 C2538 1.366 . S
C2537 C2539 1.388 . S
C2538 C2537 1.366 . S
C2538 C2542 1.385 1_455 S
C2539 H2514 0.951 . S
C2539 C2537 1.388 . S
C2539 C2540 1.366 . S
C2540 C2539 1.366 . S
C2540 C2541 1.414 1_455 S
C2540 C2543 1.499 . S
C2541 H2515 0.950 . S
C2541 C2540 1.414 1_655 S
C2541 C2542 1.374 . S
C2542 H2516 0.950 . S
C2542 C2538 1.385 1_655 S
C2542 C2541 1.374 . S
C2543 C2540 1.499 . S
C2543 C2544 1.373 1_455 S
C2543 C2545 1.389 . S
C2544 H2517 0.950 . S
C2544 C2530 1.377 . S
C2544 C2543 1.373 1_655 S
C2545 C2529 1.377 . S
C2545 C2543 1.389 . S
C2545 C2546 1.524 . S
C2546 C2545 1.524 . S
C2546 C2547 1.397 . S
C2546 C2551 1.363 . S
C2547 H2518 0.950 . S
C2547 C2546 1.397 . S
C2547 C2548 1.334 . S
C2548 H2519 0.950 . S
C2548 C2547 1.334 . S
C2548 C2549 1.287 . S
C2549 C2548 1.287 . S
C2549 C2550 1.524 . S
C2549 H2552 0.999 . S
C2550 H2520 0.950 . S
C2550 C2549 1.524 . S
C2550 C2551 1.415 . S
C2551 H2521 0.950 . S
C2551 C2546 1.363 . S
C2551 C2550 1.415 . S
H2552 C2549 0.999 . S
H2553 C2534 0.913 . S
H2554 C2572 0.951 . S
H2555 C2574 0.951 . S
H2556 C2576 0.950 . S
H2557 C2577 0.950 . S
H2558 C2579 0.950 . S
H2559 C2582 0.950 . S
H2560 C2583 0.950 . S
H2561 C2585 0.950 . S
H2562 C2586 0.950 . S
H2563 C2587 0.951 . S
H2564 C2589 0.951 . S
H2565 C2591 0.950 . S
H2566 C2592 0.950 . S
H2567 C2594 0.950 . S
H2568 C2597 0.950 . S
H2569 C2598 0.950 . S
H2570 C2600 0.950 . S
H2571 C2601 0.950 . S
C2572 H2554 0.951 . S
C2572 C2573 1.366 . S
C2572 C2574 1.388 . S
C2573 C2572 1.366 . S
C2573 C2577 1.385 . S
C2574 H2555 0.951 . S
C2574 C2572 1.388 . S
C2574 C2575 1.366 . S
C2575 C2574 1.366 . S
C2575 C2576 1.414 . S
C2575 C2578 1.499 . S
C2576 H2556 0.950 . S
C2576 C2575 1.414 . S
C2576 C2577 1.374 . S
C2577 H2557 0.950 . S
C2577 C2573 1.385 . S
C2577 C2576 1.374 . S
C2578 C2575 1.499 . S
C2578 C2579 1.373 . S
C2578 C2580 1.389 . S
C2579 H2558 0.950 . S
C2579 C2578 1.373 . S
C2579 C2595 1.377 . S
C2580 C2578 1.389 . S
C2580 C2581 1.524 . S
C2580 C2594 1.377 . S
C2581 C2580 1.524 . S
C2581 C2582 1.397 . S
C2581 C2586 1.363 . S
C2582 H2559 0.950 . S
C2582 C2581 1.397 . S
C2582 C2583 1.334 . S
C2583 H2560 0.950 . S
C2583 C2582 1.334 . S
C2583 C2584 1.287 . S
C2584 C2583 1.287 . S
C2584 C2585 1.524 . S
C2584 H2603 0.913 . S
C2585 H2561 0.950 . S
C2585 C2584 1.524 . S
C2585 C2586 1.415 . S
C2586 H2562 0.950 . S
C2586 C2581 1.363 . S
C2586 C2585 1.415 . S
C2587 H2563 0.951 . S
C2587 C2588 1.366 . S
C2587 C2589 1.388 . S
C2588 C2587 1.366 . S
C2588 C2592 1.385 . S
C2589 H2564 0.951 . S
C2589 C2587 1.388 . S
C2589 C2590 1.366 . S
C2590 C2589 1.366 . S
C2590 C2591 1.414 . S
C2590 C2593 1.499 . S
C2591 H2565 0.950 . S
C2591 C2590 1.414 . S
C2591 C2592 1.374 . S
C2592 H2566 0.950 . S
C2592 C2588 1.385 . S
C2592 C2591 1.374 . S
C2593 C2590 1.499 . S
C2593 C2594 1.373 . S
C2593 C2595 1.389 . S
C2594 H2567 0.950 . S
C2594 C2580 1.377 . S
C2594 C2593 1.373 . S
C2595 C2579 1.377 . S
C2595 C2593 1.389 . S
C2595 C2596 1.524 . S
C2596 C2595 1.524 . S
C2596 C2597 1.397 . S
C2596 C2601 1.363 . S
C2597 H2568 0.950 . S
C2597 C2596 1.397 . S
C2597 C2598 1.334 . S
C2598 H2569 0.950 . S
C2598 C2597 1.334 . S
C2598 C2599 1.287 . S
C2599 C2598 1.287 . S
C2599 C2600 1.524 . S
C2599 H2602 0.999 . S
C2600 H2570 0.950 . S
C2600 C2599 1.524 . S
C2600 C2601 1.415 . S
C2601 H2571 0.950 . S
C2601 C2596 1.363 . S
C2601 C2600 1.415 . S
H2602 C2599 0.999 . S
H2603 C2584 0.913 . S
H2604 C2622 0.951 . S
H2605 C2624 0.951 . S
H2606 C2626 0.950 . S
H2607 C2627 0.950 . S
H2608 C2629 0.950 . S
H2609 C2632 0.950 . S
H2610 C2633 0.950 . S
H2611 C2635 0.950 . S
H2612 C2636 0.950 1_455 S
H2613 C2637 0.951 . S
H2614 C2639 0.951 . S
H2615 C2641 0.950 . S
H2616 C2642 0.950 . S
H2617 C2644 0.979 . S
H2618 C2647 0.950 . S
H2619 C2648 0.950 . S
H2620 C2650 0.950 . S
H2621 C2651 1.022 . S
C2622 H2604 0.951 . S
C2622 C2623 1.366 . S
C2622 C2624 1.388 . S
C2623 C2622 1.366 . S
C2623 C2627 1.385 1_455 S
C2624 H2605 0.951 . S
C2624 C2622 1.388 . S
C2624 C2625 1.366 . S
C2625 C2624 1.366 . S
C2625 C2626 1.414 1_455 S
C2625 C2628 1.499 . S
C2626 H2606 0.950 . S
C2626 C2625 1.414 1_655 S
C2626 C2627 1.374 . S
C2627 H2607 0.950 . S
C2627 C2623 1.385 1_655 S
C2627 C2626 1.374 . S
C2628 C2625 1.499 . S
C2628 C2629 1.373 . S
C2628 C2630 1.389 1_455 S
C2629 H2608 0.950 . S
C2629 C2628 1.373 . S
C2629 C2645 1.377 . S
C2630 C2628 1.389 1_655 S
C2630 C2631 1.524 . S
C2630 C2644 1.412 . S
C2631 C2630 1.524 . S
C2631 C2632 1.397 . S
C2631 C2636 1.363 . S
C2632 H2609 0.950 . S
C2632 C2631 1.397 . S
C2632 C2633 1.334 . S
C2633 H2610 0.950 . S
C2633 C2632 1.334 . S
C2633 C2634 1.287 . S
C2634 C2633 1.287 . S
C2634 C2635 1.524 . S
C2634 H2653 0.913 . S
C2635 H2611 0.950 . S
C2635 C2634 1.524 . S
C2635 C2636 1.415 . S
C2636 H2612 0.950 1_655 S
C2636 C2631 1.363 . S
C2636 C2635 1.415 . S
C2637 H2613 0.951 . S
C2637 C2638 1.348 1_655 S
C2637 C2639 1.388 . S
C2638 C2637 1.348 1_455 S
C2638 C2642 1.383 . S
C2639 H2614 0.951 . S
C2639 C2637 1.388 . S
C2639 C2640 1.366 1_655 S
C2640 C2639 1.366 1_455 S
C2640 C2641 1.414 . S
C2640 C2643 1.499 . S
C2641 H2615 0.950 . S
C2641 C2640 1.414 . S
C2641 C2642 1.374 . S
C2642 H2616 0.950 . S
C2642 C2638 1.383 . S
C2642 C2641 1.374 . S
C2643 C2640 1.499 . S
C2643 C2644 1.316 1_455 S
C2643 C2645 1.389 . S
C2644 H2617 0.979 . S
C2644 C2630 1.412 . S
C2644 C2643 1.316 1_655 S
C2645 C2629 1.377 . S
C2645 C2643 1.389 . S
C2645 C2646 1.524 . S
C2646 C2645 1.524 . S
C2646 C2647 1.397 . S
C2646 C2651 1.363 . S
C2647 H2618 0.950 . S
C2647 C2646 1.397 . S
C2647 C2648 1.334 . S
C2648 H2619 0.950 . S
C2648 C2647 1.334 . S
C2648 C2649 1.287 . S
C2649 C2648 1.287 . S
C2649 C2650 1.524 . S
C2649 H2652 0.999 . S
C2650 H2620 0.950 . S
C2650 C2649 1.524 . S
C2650 C2651 1.415 . S
C2651 H2621 1.022 . S
C2651 C2646 1.363 . S
C2651 C2650 1.415 . S
H2652 C2649 0.999 . S
H2653 C2634 0.913 . S
H2654 C2672 0.951 . S
H2655 C2674 0.951 . S
H2656 C2676 0.950 . S
H2657 C2677 0.950 . S
H2658 C2679 0.950 . S
H2659 C2682 0.950 . S
H2660 C2683 0.950 . S
H2661 C2685 0.950 . S
H2662 C2686 0.950 . S
H2663 C2687 0.951 . S
H2664 C2689 0.951 . S
H2665 C2691 0.950 . S
H2666 C2692 0.950 . S
H2667 C2694 0.950 . S
H2668 C2697 0.950 . S
H2669 C2698 0.950 . S
H2670 C2700 0.950 . S
H2671 C2701 0.950 . S
C2672 H2654 0.951 . S
C2672 C2673 1.366 . S
C2672 C2674 1.388 . S
C2673 C2672 1.366 . S
C2673 C2677 1.385 . S
C2674 H2655 0.951 . S
C2674 C2672 1.388 . S
C2674 C2675 1.366 . S
C2675 C2674 1.366 . S
C2675 C2676 1.414 . S
C2675 C2678 1.499 . S
C2676 H2656 0.950 . S
C2676 C2675 1.414 . S
C2676 C2677 1.374 . S
C2677 H2657 0.950 . S
C2677 C2673 1.385 . S
C2677 C2676 1.374 . S
C2678 C2675 1.499 . S
C2678 C2679 1.373 . S
C2678 C2680 1.389 . S
C2679 H2658 0.950 . S
C2679 C2678 1.373 . S
C2679 C2695 1.377 . S
C2680 C2678 1.389 . S
C2680 C2681 1.524 . S
C2680 C2694 1.377 . S
C2681 C2680 1.524 . S
C2681 C2682 1.397 . S
C2681 C2686 1.363 . S
C2682 H2659 0.950 . S
C2682 C2681 1.397 . S
C2682 C2683 1.334 . S
C2683 H2660 0.950 . S
C2683 C2682 1.334 . S
C2683 C2684 1.287 . S
C2684 C2683 1.287 . S
C2684 C2685 1.524 . S
C2684 H2703 0.913 . S
C2685 H2661 0.950 . S
C2685 C2684 1.524 . S
C2685 C2686 1.415 . S
C2686 H2662 0.950 . S
C2686 C2681 1.363 . S
C2686 C2685 1.415 . S
C2687 H2663 0.951 . S
C2687 C2688 1.366 . S
C2687 C2689 1.388 . S
C2688 C2687 1.366 . S
C2688 C2692 1.385 . S
C2689 H2664 0.951 . S
C2689 C2687 1.388 . S
C2689 C2690 1.366 . S
C2690 C2689 1.366 . S
C2690 C2691 1.414 . S
C2690 C2693 1.499 . S
C2691 H2665 0.950 . S
C2691 C2690 1.414 . S
C2691 C2692 1.374 . S
C2692 H2666 0.950 . S
C2692 C2688 1.385 . S
C2692 C2691 1.374 . S
C2693 C2690 1.499 . S
C2693 C2694 1.373 . S
C2693 C2695 1.389 . S
C2694 H2667 0.950 . S
C2694 C2680 1.377 . S
C2694 C2693 1.373 . S
C2695 C2679 1.377 . S
C2695 C2693 1.389 . S
C2695 C2696 1.524 . S
C2696 C2695 1.524 . S
C2696 C2697 1.397 . S
C2696 C2701 1.363 . S
C2697 H2668 0.950 . S
C2697 C2696 1.397 . S
C2697 C2698 1.334 . S
C2698 H2669 0.950 . S
C2698 C2697 1.334 . S
C2698 C2699 1.287 . S
C2699 C2698 1.287 . S
C2699 C2700 1.524 . S
C2699 H2702 0.999 . S
C2700 H2670 0.950 . S
C2700 C2699 1.524 . S
C2700 C2701 1.415 . S
C2701 H2671 0.950 . S
C2701 C2696 1.363 . S
C2701 C2700 1.415 . S
H2702 C2699 0.999 . S
H2703 C2684 0.913 . S
H2704 C2722 0.951 . S
H2705 C2724 0.951 . S
H2706 C2726 0.950 . S
H2707 C2727 0.950 . S
H2708 C2729 0.950 . S
H2709 C2732 0.950 . S
H2710 C2733 0.950 . S
H2711 C2735 0.950 . S
H2712 C2736 0.950 . S
H2713 C2737 0.951 . S
H2714 C2739 0.951 . S
H2715 C2741 0.950 . S
H2716 C2742 0.950 . S
H2717 C2744 0.950 . S
H2718 C2747 0.950 . S
H2719 C2748 0.950 . S
H2720 C2750 0.950 . S
H2721 C2751 0.950 . S
C2722 H2704 0.951 . S
C2722 C2723 1.366 1_545 S
C2722 C2724 1.388 . S
C2723 C2722 1.366 1_565 S
C2723 C2727 1.385 . S
C2724 H2705 0.951 . S
C2724 C2722 1.388 . S
C2724 C2725 1.366 1_545 S
C2725 C2724 1.366 1_565 S
C2725 C2726 1.414 . S
C2725 C2728 1.499 . S
C2726 H2706 0.950 . S
C2726 C2725 1.414 . S
C2726 C2727 1.374 . S
C2727 H2707 0.950 . S
C2727 C2723 1.385 . S
C2727 C2726 1.374 . S
C2728 C2725 1.499 . S
C2728 C2729 1.373 . S
C2728 C2730 1.389 1_565 S
C2729 H2708 0.950 . S
C2729 C2728 1.373 . S
C2729 C2745 1.377 . S
C2730 C2728 1.389 1_545 S
C2730 C2731 1.524 . S
C2730 C2744 1.377 . S
C2731 C2730 1.524 . S
C2731 C2732 1.397 . S
C2731 C2736 1.363 . S
C2732 H2709 0.950 . S
C2732 C2731 1.397 . S
C2732 C2733 1.334 . S
C2733 H2710 0.950 . S
C2733 C2732 1.334 . S
C2733 C2734 1.287 . S
C2734 C2733 1.287 . S
C2734 C2735 1.524 . S
C2734 H2753 0.913 . S
C2735 H2711 0.950 . S
C2735 C2734 1.524 . S
C2735 C2736 1.415 . S
C2736 H2712 0.950 . S
C2736 C2731 1.363 . S
C2736 C2735 1.415 . S
C2737 H2713 0.951 . S
C2737 C2738 1.366 . S
C2737 C2739 1.388 . S
C2738 C2737 1.366 . S
C2738 C2742 1.385 1_565 S
C2739 H2714 0.951 . S
C2739 C2737 1.388 . S
C2739 C2740 1.366 . S
C2740 C2739 1.366 . S
C2740 C2741 1.414 1_565 S
C2740 C2743 1.499 . S
C2741 H2715 0.950 . S
C2741 C2740 1.414 1_545 S
C2741 C2742 1.374 . S
C2742 H2716 0.950 . S
C2742 C2738 1.385 1_545 S
C2742 C2741 1.374 . S
C2743 C2740 1.499 . S
C2743 C2744 1.373 1_565 S
C2743 C2745 1.389 . S
C2744 H2717 0.950 . S
C2744 C2730 1.377 . S
C2744 C2743 1.373 1_545 S
C2745 C2729 1.377 . S
C2745 C2743 1.389 . S
C2745 C2746 1.524 . S
C2746 C2745 1.524 . S
C2746 C2747 1.397 . S
C2746 C2751 1.363 . S
C2747 H2718 0.950 . S
C2747 C2746 1.397 . S
C2747 C2748 1.334 . S
C2748 H2719 0.950 . S
C2748 C2747 1.334 . S
C2748 C2749 1.287 . S
C2749 C2748 1.287 . S
C2749 C2750 1.524 . S
C2749 H2752 0.999 . S
C2750 H2720 0.950 . S
C2750 C2749 1.524 . S
C2750 C2751 1.415 . S
C2751 H2721 0.950 . S
C2751 C2746 1.363 . S
C2751 C2750 1.415 . S
H2752 C2749 0.999 . S
H2753 C2734 0.913 . S
H2754 C2772 0.951 . S
H2755 C2774 0.951 . S
H2756 C2776 0.944 . S
H2757 C2777 0.951 . S
H2758 C2779 0.950 . S
H2759 C2782 0.950 . S
H2760 C2783 0.950 . S
H2761 C2785 0.950 . S
H2762 C2786 0.950 1_545 S
H2763 C2787 0.951 . S
H2764 C2789 0.951 . S
H2765 C2791 0.950 . S
H2766 C2792 0.950 . S
H2767 C2794 0.989 . S
H2768 C2797 0.950 . S
H2769 C2798 0.950 . S
H2770 C2800 0.950 . S
H2771 C2801 0.950 . S
C2772 H2754 0.951 . S
C2772 C2773 1.366 . S
C2772 C2774 1.388 . S
C2773 C2772 1.366 . S
C2773 C2777 1.385 1_545 S
C2774 H2755 0.951 . S
C2774 C2772 1.388 . S
C2774 C2775 1.366 . S
C2775 C2774 1.366 . S
C2775 C2776 1.399 1_545 S
C2775 C2778 1.499 . S
C2776 H2756 0.944 . S
C2776 C2775 1.399 1_565 S
C2776 C2777 1.405 . S
C2777 H2757 0.951 . S
C2777 C2773 1.385 1_565 S
C2777 C2776 1.405 . S
C2778 C2775 1.499 . S
C2778 C2779 1.373 . S
C2778 C2780 1.389 1_545 S
C2779 H2758 0.950 . S
C2779 C2778 1.373 . S
C2779 C2795 1.377 . S
C2780 C2778 1.389 1_565 S
C2780 C2781 1.524 . S
C2780 C2794 1.411 . S
C2781 C2780 1.524 . S
C2781 C2782 1.397 . S
C2781 C2786 1.363 . S
C2782 H2759 0.950 . S
C2782 C2781 1.397 . S
C2782 C2783 1.334 . S
C2783 H2760 0.950 . S
C2783 C2782 1.334 . S
C2783 C2784 1.287 . S
C2784 C2783 1.287 . S
C2784 C2785 1.524 . S
C2784 H2803 0.913 . S
C2785 H2761 0.950 . S
C2785 C2784 1.524 . S
C2785 C2786 1.415 . S
C2786 H2762 0.950 1_565 S
C2786 C2781 1.363 . S
C2786 C2785 1.415 . S
C2787 H2763 0.951 . S
C2787 C2788 1.349 1_565 S
C2787 C2789 1.388 . S
C2788 C2787 1.349 1_545 S
C2788 C2792 1.379 . S
C2789 H2764 0.951 . S
C2789 C2787 1.388 . S
C2789 C2790 1.366 1_565 S
C2790 C2789 1.366 1_545 S
C2790 C2791 1.414 . S
C2790 C2793 1.499 . S
C2791 H2765 0.950 . S
C2791 C2790 1.414 . S
C2791 C2792 1.374 . S
C2792 H2766 0.950 . S
C2792 C2788 1.379 . S
C2792 C2791 1.374 . S
C2793 C2790 1.499 . S
C2793 C2794 1.307 1_545 S
C2793 C2795 1.389 . S
C2794 H2767 0.989 . S
C2794 C2780 1.411 . S
C2794 C2793 1.307 1_565 S
C2795 C2779 1.377 . S
C2795 C2793 1.389 . S
C2795 C2796 1.524 . S
C2796 C2795 1.524 . S
C2796 C2797 1.397 . S
C2796 C2801 1.363 . S
C2797 H2768 0.950 . S
C2797 C2796 1.397 . S
C2797 C2798 1.334 . S
C2798 H2769 0.950 . S
C2798 C2797 1.334 . S
C2798 C2799 1.287 . S
C2799 C2798 1.287 . S
C2799 C2800 1.524 . S
C2799 H2802 0.999 . S
C2800 H2770 0.950 . S
C2800 C2799 1.524 . S
C2800 C2801 1.415 . S
C2801 H2771 0.950 . S
C2801 C2796 1.363 . S
C2801 C2800 1.415 . S
H2802 C2799 0.999 . S
H2803 C2784 0.913 . S
H2804 C2822 0.951 . S
H2805 C2824 0.951 . S
H2806 C2826 0.950 . S
H2807 C2827 0.950 . S
H2808 C2829 0.950 . S
H2809 C2832 0.950 . S
H2810 C2833 0.950 . S
H2811 C2835 0.950 . S
H2812 C2836 0.950 . S
H2813 C2837 0.961 . S
H2814 C2839 0.988 . S
H2815 C2841 0.950 . S
H2816 C2842 0.950 . S
H2817 C2844 0.950 . S
H2818 C2847 0.950 . S
H2819 C2848 0.950 . S
H2820 C2850 0.950 . S
H2821 C2851 0.950 . S
C2822 H2804 0.951 . S
C2822 C2823 1.366 . S
C2822 C2824 1.388 . S
C2823 C2822 1.366 . S
C2823 C2827 1.385 . S
C2824 H2805 0.951 . S
C2824 C2822 1.388 . S
C2824 C2825 1.366 . S
C2825 C2824 1.366 . S
C2825 C2826 1.414 . S
C2825 C2828 1.499 . S
C2826 H2806 0.950 . S
C2826 C2825 1.414 . S
C2826 C2827 1.374 . S
C2827 H2807 0.950 . S
C2827 C2823 1.385 . S
C2827 C2826 1.374 . S
C2828 C2825 1.499 . S
C2828 C2829 1.373 1_655 S
C2828 C2830 1.389 . S
C2829 H2808 0.950 . S
C2829 C2828 1.373 1_455 S
C2829 C2845 1.377 . S
C2830 C2828 1.389 . S
C2830 C2831 1.524 . S
C2830 C2844 1.377 . S
C2831 C2830 1.524 . S
C2831 C2832 1.397 . S
C2831 C2836 1.363 . S
C2832 H2809 0.950 . S
C2832 C2831 1.397 . S
C2832 C2833 1.334 . S
C2833 H2810 0.950 . S
C2833 C2832 1.334 . S
C2833 C2834 1.287 . S
C2834 C2833 1.287 . S
C2834 C2835 1.524 . S
C2834 H2853 0.913 . S
C2835 H2811 0.950 . S
C2835 C2834 1.524 . S
C2835 C2836 1.415 . S
C2836 H2812 0.950 . S
C2836 C2831 1.363 . S
C2836 C2835 1.415 . S
C2837 H2813 0.961 . S
C2837 C2838 1.327 . S
C2837 C2839 1.388 . S
C2838 C2837 1.327 . S
C2838 C2842 1.385 . S
C2839 H2814 0.988 . S
C2839 C2837 1.388 . S
C2839 C2840 1.363 . S
C2840 C2839 1.363 . S
C2840 C2841 1.414 . S
C2840 C2843 1.499 . S
C2841 H2815 0.950 . S
C2841 C2840 1.414 . S
C2841 C2842 1.374 . S
C2842 H2816 0.950 . S
C2842 C2838 1.385 . S
C2842 C2841 1.374 . S
C2843 C2840 1.499 . S
C2843 C2844 1.373 . S
C2843 C2845 1.389 1_655 S
C2844 H2817 0.950 . S
C2844 C2830 1.377 . S
C2844 C2843 1.373 . S
C2845 C2829 1.377 . S
C2845 C2843 1.389 1_455 S
C2845 C2846 1.524 . S
C2846 C2845 1.524 . S
C2846 C2847 1.397 . S
C2846 C2851 1.363 . S
C2847 H2818 0.950 . S
C2847 C2846 1.397 . S
C2847 C2848 1.334 . S
C2848 H2819 0.950 . S
C2848 C2847 1.334 . S
C2848 C2849 1.287 . S
C2849 C2848 1.287 . S
C2849 C2850 1.524 . S
C2849 H2852 0.999 . S
C2850 H2820 0.950 . S
C2850 C2849 1.524 . S
C2850 C2851 1.415 . S
C2851 H2821 0.950 . S
C2851 C2846 1.363 . S
C2851 C2850 1.415 . S
H2852 C2849 0.999 . S
H2853 C2834 0.913 . S
H2854 C2872 0.951 . S
H2855 C2874 0.951 . S
H2856 C2876 0.950 . S
H2857 C2877 0.950 . S
H2858 C2879 0.950 . S
H2859 C2882 0.950 . S
H2860 C2883 0.950 . S
H2861 C2885 0.950 . S
H2862 C2886 0.950 . S
H2863 C2887 0.951 . S
H2864 C2889 0.951 . S
H2865 C2891 0.950 . S
H2866 C2892 0.950 . S
H2867 C2894 0.950 . S
H2868 C2897 0.950 . S
H2869 C2898 0.950 . S
H2870 C2900 0.950 . S
H2871 C2901 0.950 . S
C2872 H2854 0.951 . S
C2872 C2873 1.366 . S
C2872 C2874 1.388 . S
C2873 C2872 1.366 . S
C2873 C2877 1.385 . S
C2874 H2855 0.951 . S
C2874 C2872 1.388 . S
C2874 C2875 1.366 . S
C2875 C2874 1.366 . S
C2875 C2876 1.414 . S
C2875 C2878 1.499 . S
C2876 H2856 0.950 . S
C2876 C2875 1.414 . S
C2876 C2877 1.374 . S
C2877 H2857 0.950 . S
C2877 C2873 1.385 . S
C2877 C2876 1.374 . S
C2878 C2875 1.499 . S
C2878 C2879 1.373 . S
C2878 C2880 1.389 . S
C2879 H2858 0.950 . S
C2879 C2878 1.373 . S
C2879 C2895 1.377 . S
C2880 C2878 1.389 . S
C2880 C2881 1.524 . S
C2880 C2894 1.377 . S
C2881 C2880 1.524 . S
C2881 C2882 1.397 . S
C2881 C2886 1.363 . S
C2882 H2859 0.950 . S
C2882 C2881 1.397 . S
C2882 C2883 1.334 . S
C2883 H2860 0.950 . S
C2883 C2882 1.334 . S
C2883 C2884 1.287 . S
C2884 C2883 1.287 . S
C2884 C2885 1.524 . S
C2884 H2903 0.913 . S
C2885 H2861 0.950 . S
C2885 C2884 1.524 . S
C2885 C2886 1.415 . S
C2886 H2862 0.950 . S
C2886 C2881 1.363 . S
C2886 C2885 1.415 . S
C2887 H2863 0.951 . S
C2887 C2888 1.366 . S
C2887 C2889 1.388 . S
C2888 C2887 1.366 . S
C2888 C2892 1.385 . S
C2889 H2864 0.951 . S
C2889 C2887 1.388 . S
C2889 C2890 1.366 . S
C2890 C2889 1.366 . S
C2890 C2891 1.414 . S
C2890 C2893 1.499 . S
C2891 H2865 0.950 . S
C2891 C2890 1.414 . S
C2891 C2892 1.374 . S
C2892 H2866 0.950 . S
C2892 C2888 1.385 . S
C2892 C2891 1.374 . S
C2893 C2890 1.499 . S
C2893 C2894 1.373 . S
C2893 C2895 1.389 . S
C2894 H2867 0.950 . S
C2894 C2880 1.377 . S
C2894 C2893 1.373 . S
C2895 C2879 1.377 . S
C2895 C2893 1.389 . S
C2895 C2896 1.524 . S
C2896 C2895 1.524 . S
C2896 C2897 1.397 . S
C2896 C2901 1.363 . S
C2897 H2868 0.950 . S
C2897 C2896 1.397 . S
C2897 C2898 1.334 . S
C2898 H2869 0.950 . S
C2898 C2897 1.334 . S
C2898 C2899 1.287 . S
C2899 C2898 1.287 . S
C2899 C2900 1.524 . S
C2899 H2902 0.999 . S
C2900 H2870 0.950 . S
C2900 C2899 1.524 . S
C2900 C2901 1.415 . S
C2901 H2871 0.950 . S
C2901 C2896 1.363 . S
C2901 C2900 1.415 . S
H2902 C2899 0.999 . S
H2903 C2884 0.913 . S
H2904 C2922 0.951 . S
H2905 C2924 0.951 . S
H2906 C2926 0.950 . S
H2907 C2927 0.950 . S
H2908 C2929 0.950 . S
H2909 C2932 0.950 . S
H2910 C2933 0.950 . S
H2911 C2935 0.950 . S
H2912 C2936 0.950 . S
H2913 C2937 0.951 . S
H2914 C2939 0.951 . S
H2915 C2941 0.950 . S
H2916 C2942 0.950 . S
H2917 C2944 0.950 . S
H2918 C2947 0.950 . S
H2919 C2948 0.950 . S
H2920 C2950 0.950 . S
H2921 C2951 0.950 . S
C2922 H2904 0.951 . S
C2922 C2923 1.366 . S
C2922 C2924 1.388 . S
C2923 C2922 1.366 . S
C2923 C2927 1.385 . S
C2924 H2905 0.951 . S
C2924 C2922 1.388 . S
C2924 C2925 1.366 . S
C2925 C2924 1.366 . S
C2925 C2926 1.414 . S
C2925 C2928 1.499 . S
C2926 H2906 0.950 . S
C2926 C2925 1.414 . S
C2926 C2927 1.374 . S
C2927 H2907 0.950 . S
C2927 C2923 1.385 . S
C2927 C2926 1.374 . S
C2928 C2925 1.499 . S
C2928 C2929 1.373 . S
C2928 C2930 1.389 . S
C2929 H2908 0.950 . S
C2929 C2928 1.373 . S
C2929 C2945 1.377 . S
C2930 C2928 1.389 . S
C2930 C2931 1.524 . S
C2930 C2944 1.377 . S
C2931 C2930 1.524 . S
C2931 C2932 1.397 . S
C2931 C2936 1.363 . S
C2932 H2909 0.950 . S
C2932 C2931 1.397 . S
C2932 C2933 1.334 . S
C2933 H2910 0.950 . S
C2933 C2932 1.334 . S
C2933 C2934 1.287 . S
C2934 C2933 1.287 . S
C2934 C2935 1.524 . S
C2934 H2953 0.913 . S
C2935 H2911 0.950 . S
C2935 C2934 1.524 . S
C2935 C2936 1.415 . S
C2936 H2912 0.950 . S
C2936 C2931 1.363 . S
C2936 C2935 1.415 . S
C2937 H2913 0.951 . S
C2937 C2938 1.366 . S
C2937 C2939 1.388 . S
C2938 C2937 1.366 . S
C2938 C2942 1.385 . S
C2939 H2914 0.951 . S
C2939 C2937 1.388 . S
C2939 C2940 1.366 . S
C2940 C2939 1.366 . S
C2940 C2941 1.414 . S
C2940 C2943 1.499 . S
C2941 H2915 0.950 . S
C2941 C2940 1.414 . S
C2941 C2942 1.374 . S
C2942 H2916 0.950 . S
C2942 C2938 1.385 . S
C2942 C2941 1.374 . S
C2943 C2940 1.499 . S
C2943 C2944 1.373 . S
C2943 C2945 1.389 . S
C2944 H2917 0.950 . S
C2944 C2930 1.377 . S
C2944 C2943 1.373 . S
C2945 C2929 1.377 . S
C2945 C2943 1.389 . S
C2945 C2946 1.524 . S
C2946 C2945 1.524 . S
C2946 C2947 1.397 . S
C2946 C2951 1.363 . S
C2947 H2918 0.950 . S
C2947 C2946 1.397 . S
C2947 C2948 1.334 . S
C2948 H2919 0.950 . S
C2948 C2947 1.334 . S
C2948 C2949 1.287 . S
C2949 C2948 1.287 . S
C2949 C2950 1.524 . S
C2949 H2952 0.999 . S
C2950 H2920 0.950 . S
C2950 C2949 1.524 . S
C2950 C2951 1.415 . S
C2951 H2921 0.950 . S
C2951 C2946 1.363 . S
C2951 C2950 1.415 . S
H2952 C2949 0.999 . S
H2953 C2934 0.913 . S
H2954 C2972 0.951 . S
H2955 C2974 0.951 . S
H2956 C2976 0.950 . S
H2957 C2977 0.950 . S
H2958 C2979 0.950 . S
H2959 C2982 0.950 . S
H2960 C2983 0.950 . S
H2961 C2985 0.950 . S
H2962 C2986 0.950 . S
H2963 C2987 0.951 . S
H2964 C2989 0.951 . S
H2965 C2991 0.950 . S
H2966 C2992 0.950 . S
H2967 C2994 0.950 . S
H2968 C2997 0.950 . S
H2969 C2998 0.950 . S
H2970 C3000 0.950 . S
H2971 C3001 0.950 . S
C2972 H2954 0.951 . S
C2972 C2973 1.366 . S
C2972 C2974 1.388 . S
C2973 C2972 1.366 . S
C2973 C2977 1.385 . S
C2974 H2955 0.951 . S
C2974 C2972 1.388 . S
C2974 C2975 1.366 . S
C2975 C2974 1.366 . S
C2975 C2976 1.414 . S
C2975 C2978 1.499 . S
C2976 H2956 0.950 . S
C2976 C2975 1.414 . S
C2976 C2977 1.374 . S
C2977 H2957 0.950 . S
C2977 C2973 1.385 . S
C2977 C2976 1.374 . S
C2978 C2975 1.499 . S
C2978 C2979 1.373 . S
C2978 C2980 1.389 . S
C2979 H2958 0.950 . S
C2979 C2978 1.373 . S
C2979 C2995 1.377 . S
C2980 C2978 1.389 . S
C2980 C2981 1.524 . S
C2980 C2994 1.377 . S
C2981 C2980 1.524 . S
C2981 C2982 1.397 . S
C2981 C2986 1.363 . S
C2982 H2959 0.950 . S
C2982 C2981 1.397 . S
C2982 C2983 1.334 . S
C2983 H2960 0.950 . S
C2983 C2982 1.334 . S
C2983 C2984 1.287 . S
C2984 C2983 1.287 . S
C2984 C2985 1.524 . S
C2984 H3003 0.913 . S
C2985 H2961 0.950 . S
C2985 C2984 1.524 . S
C2985 C2986 1.415 . S
C2986 H2962 0.950 . S
C2986 C2981 1.363 . S
C2986 C2985 1.415 . S
C2987 H2963 0.951 . S
C2987 C2988 1.366 . S
C2987 C2989 1.388 . S
C2988 C2987 1.366 . S
C2988 C2992 1.385 . S
C2989 H2964 0.951 . S
C2989 C2987 1.388 . S
C2989 C2990 1.366 . S
C2990 C2989 1.366 . S
C2990 C2991 1.414 . S
C2990 C2993 1.499 . S
C2991 H2965 0.950 . S
C2991 C2990 1.414 . S
C2991 C2992 1.374 . S
C2992 H2966 0.950 . S
C2992 C2988 1.385 . S
C2992 C2991 1.374 . S
C2993 C2990 1.499 . S
C2993 C2994 1.373 . S
C2993 C2995 1.389 . S
C2994 H2967 0.950 . S
C2994 C2980 1.377 . S
C2994 C2993 1.373 . S
C2995 C2979 1.377 . S
C2995 C2993 1.389 . S
C2995 C2996 1.524 . S
C2996 C2995 1.524 . S
C2996 C2997 1.397 . S
C2996 C3001 1.363 . S
C2997 H2968 0.950 . S
C2997 C2996 1.397 . S
C2997 C2998 1.334 . S
C2998 H2969 0.950 . S
C2998 C2997 1.334 . S
C2998 C2999 1.287 . S
C2999 C2998 1.287 . S
C2999 C3000 1.524 . S
C2999 H3002 0.999 . S
C3000 H2970 0.950 . S
C3000 C2999 1.524 . S
C3000 C3001 1.415 . S
C3001 H2971 0.950 . S
C3001 C2996 1.363 . S
C3001 C3000 1.415 . S
H3002 C2999 0.999 . S
H3003 C2984 0.913 . S
H3004 C3022 0.951 . S
H3005 C3024 0.951 . S
H3006 C3026 0.950 . S
H3007 C3027 0.950 . S
H3008 C3029 0.950 . S
H3009 C3032 0.950 . S
H3010 C3033 0.950 . S
H3011 C3035 0.950 . S
H3012 C3036 0.950 . S
H3013 C3037 0.951 . S
H3014 C3039 0.951 . S
H3015 C3041 0.950 . S
H3016 C3042 0.950 . S
H3017 C3044 0.950 . S
H3018 C3047 0.950 . S
H3019 C3048 0.950 . S
H3020 C3050 0.950 . S
H3021 C3051 0.950 . S
C3022 H3004 0.951 . S
C3022 C3023 1.366 . S
C3022 C3024 1.388 . S
C3023 C3022 1.366 . S
C3023 C3027 1.385 . S
C3024 H3005 0.951 . S
C3024 C3022 1.388 . S
C3024 C3025 1.366 . S
C3025 C3024 1.366 . S
C3025 C3026 1.414 . S
C3025 C3028 1.499 . S
C3026 H3006 0.950 . S
C3026 C3025 1.414 . S
C3026 C3027 1.374 . S
C3027 H3007 0.950 . S
C3027 C3023 1.385 . S
C3027 C3026 1.374 . S
C3028 C3025 1.499 . S
C3028 C3029 1.373 . S
C3028 C3030 1.389 . S
C3029 H3008 0.950 . S
C3029 C3028 1.373 . S
C3029 C3045 1.377 . S
C3030 C3028 1.389 . S
C3030 C3031 1.524 . S
C3030 C3044 1.377 . S
C3031 C3030 1.524 . S
C3031 C3032 1.397 . S
C3031 C3036 1.363 . S
C3032 H3009 0.950 . S
C3032 C3031 1.397 . S
C3032 C3033 1.334 . S
C3033 H3010 0.950 . S
C3033 C3032 1.334 . S
C3033 C3034 1.287 . S
C3034 C3033 1.287 . S
C3034 C3035 1.524 . S
C3034 H3053 0.913 . S
C3035 H3011 0.950 . S
C3035 C3034 1.524 . S
C3035 C3036 1.415 . S
C3036 H3012 0.950 . S
C3036 C3031 1.363 . S
C3036 C3035 1.415 . S
C3037 H3013 0.951 . S
C3037 C3038 1.366 . S
C3037 C3039 1.388 . S
C3038 C3037 1.366 . S
C3038 C3042 1.385 . S
C3039 H3014 0.951 . S
C3039 C3037 1.388 . S
C3039 C3040 1.366 . S
C3040 C3039 1.366 . S
C3040 C3041 1.414 . S
C3040 C3043 1.499 . S
C3041 H3015 0.950 . S
C3041 C3040 1.414 . S
C3041 C3042 1.374 . S
C3042 H3016 0.950 . S
C3042 C3038 1.385 . S
C3042 C3041 1.374 . S
C3043 C3040 1.499 . S
C3043 C3044 1.373 . S
C3043 C3045 1.389 . S
C3044 H3017 0.950 . S
C3044 C3030 1.377 . S
C3044 C3043 1.373 . S
C3045 C3029 1.377 . S
C3045 C3043 1.389 . S
C3045 C3046 1.524 . S
C3046 C3045 1.524 . S
C3046 C3047 1.397 . S
C3046 C3051 1.363 . S
C3047 H3018 0.950 . S
C3047 C3046 1.397 . S
C3047 C3048 1.334 . S
C3048 H3019 0.950 . S
C3048 C3047 1.334 . S
C3048 C3049 1.287 . S
C3049 C3048 1.287 . S
C3049 C3050 1.524 . S
C3049 H3052 0.999 . S
C3050 H3020 0.950 . S
C3050 C3049 1.524 . S
C3050 C3051 1.415 . S
C3051 H3021 0.950 . S
C3051 C3046 1.363 . S
C3051 C3050 1.415 . S
H3052 C3049 0.999 . S
H3053 C3034 0.913 . S
H3054 C3072 0.951 . S
H3055 C3074 0.951 . S
H3056 C3076 0.950 . S
H3057 C3077 0.950 . S
H3058 C3079 0.950 . S
H3059 C3082 0.950 . S
H3060 C3083 0.950 . S
H3061 C3085 0.950 . S
H3062 C3086 0.950 . S
H3063 C3087 0.951 . S
H3064 C3089 0.951 . S
H3065 C3091 0.950 . S
H3066 C3092 0.950 . S
H3067 C3094 0.950 . S
H3068 C3097 0.950 . S
H3069 C3098 0.950 . S
H3070 C3100 0.950 . S
H3071 C3101 0.950 . S
C3072 H3054 0.951 . S
C3072 C3073 1.366 . S
C3072 C3074 1.388 . S
C3073 C3072 1.366 . S
C3073 C3077 1.385 . S
C3074 H3055 0.951 . S
C3074 C3072 1.388 . S
C3074 C3075 1.366 . S
C3075 C3074 1.366 . S
C3075 C3076 1.414 . S
C3075 C3078 1.499 . S
C3076 H3056 0.950 . S
C3076 C3075 1.414 . S
C3076 C3077 1.374 . S
C3077 H3057 0.950 . S
C3077 C3073 1.385 . S
C3077 C3076 1.374 . S
C3078 C3075 1.499 . S
C3078 C3079 1.373 . S
C3078 C3080 1.389 . S
C3079 H3058 0.950 . S
C3079 C3078 1.373 . S
C3079 C3095 1.377 . S
C3080 C3078 1.389 . S
C3080 C3081 1.524 . S
C3080 C3094 1.377 . S
C3081 C3080 1.524 . S
C3081 C3082 1.397 . S
C3081 C3086 1.363 . S
C3082 H3059 0.950 . S
C3082 C3081 1.397 . S
C3082 C3083 1.334 . S
C3083 H3060 0.950 . S
C3083 C3082 1.334 . S
C3083 C3084 1.287 . S
C3084 C3083 1.287 . S
C3084 C3085 1.524 . S
C3084 H3103 0.913 . S
C3085 H3061 0.950 . S
C3085 C3084 1.524 . S
C3085 C3086 1.415 . S
C3086 H3062 0.950 . S
C3086 C3081 1.363 . S
C3086 C3085 1.415 . S
C3087 H3063 0.951 . S
C3087 C3088 1.366 . S
C3087 C3089 1.388 . S
C3088 C3087 1.366 . S
C3088 C3092 1.385 . S
C3089 H3064 0.951 . S
C3089 C3087 1.388 . S
C3089 C3090 1.366 . S
C3090 C3089 1.366 . S
C3090 C3091 1.414 . S
C3090 C3093 1.499 . S
C3091 H3065 0.950 . S
C3091 C3090 1.414 . S
C3091 C3092 1.374 . S
C3092 H3066 0.950 . S
C3092 C3088 1.385 . S
C3092 C3091 1.374 . S
C3093 C3090 1.499 . S
C3093 C3094 1.373 . S
C3093 C3095 1.389 . S
C3094 H3067 0.950 . S
C3094 C3080 1.377 . S
C3094 C3093 1.373 . S
C3095 C3079 1.377 . S
C3095 C3093 1.389 . S
C3095 C3096 1.524 . S
C3096 C3095 1.524 . S
C3096 C3097 1.397 . S
C3096 C3101 1.363 . S
C3097 H3068 0.950 . S
C3097 C3096 1.397 . S
C3097 C3098 1.334 . S
C3098 H3069 0.950 . S
C3098 C3097 1.334 . S
C3098 C3099 1.287 . S
C3099 C3098 1.287 . S
C3099 C3100 1.524 . S
C3099 H3102 0.999 . S
C3100 H3070 0.950 . S
C3100 C3099 1.524 . S
C3100 C3101 1.415 . S
C3101 H3071 0.950 . S
C3101 C3096 1.363 . S
C3101 C3100 1.415 . S
H3102 C3099 0.999 . S
H3103 C3084 0.913 . S
H3104 C3122 0.951 . S
H3105 C3124 0.951 . S
H3106 C3126 0.950 . S
H3107 C3127 0.950 . S
H3108 C3129 0.950 . S
H3109 C3132 0.950 . S
H3110 C3133 0.950 . S
H3111 C3135 0.950 . S
H3112 C3136 0.950 . S
H3113 C3137 0.951 . S
H3114 C3139 0.951 . S
H3115 C3141 0.950 . S
H3116 C3142 0.950 . S
H3117 C3144 0.950 . S
H3118 C3147 0.950 . S
H3119 C3148 0.950 . S
H3120 C3150 0.950 . S
H3121 C3151 0.950 . S
C3122 H3104 0.951 . S
C3122 C3123 1.366 . S
C3122 C3124 1.388 . S
C3123 C3122 1.366 . S
C3123 C3127 1.385 . S
C3124 H3105 0.951 . S
C3124 C3122 1.388 . S
C3124 C3125 1.366 . S
C3125 C3124 1.366 . S
C3125 C3126 1.414 . S
C3125 C3128 1.499 . S
C3126 H3106 0.950 . S
C3126 C3125 1.414 . S
C3126 C3127 1.374 . S
C3127 H3107 0.950 . S
C3127 C3123 1.385 . S
C3127 C3126 1.374 . S
C3128 C3125 1.499 . S
C3128 C3129 1.373 . S
C3128 C3130 1.389 . S
C3129 H3108 0.950 . S
C3129 C3128 1.373 . S
C3129 C3145 1.377 . S
C3130 C3128 1.389 . S
C3130 C3131 1.524 . S
C3130 C3144 1.377 . S
C3131 C3130 1.524 . S
C3131 C3132 1.397 . S
C3131 C3136 1.363 . S
C3132 H3109 0.950 . S
C3132 C3131 1.397 . S
C3132 C3133 1.334 . S
C3133 H3110 0.950 . S
C3133 C3132 1.334 . S
C3133 C3134 1.287 . S
C3134 C3133 1.287 . S
C3134 C3135 1.524 . S
C3134 H3153 0.913 . S
C3135 H3111 0.950 . S
C3135 C3134 1.524 . S
C3135 C3136 1.415 . S
C3136 H3112 0.950 . S
C3136 C3131 1.363 . S
C3136 C3135 1.415 . S
C3137 H3113 0.951 . S
C3137 C3138 1.366 . S
C3137 C3139 1.388 . S
C3138 C3137 1.366 . S
C3138 C3142 1.385 . S
C3139 H3114 0.951 . S
C3139 C3137 1.388 . S
C3139 C3140 1.366 . S
C3140 C3139 1.366 . S
C3140 C3141 1.414 . S
C3140 C3143 1.499 . S
C3141 H3115 0.950 . S
C3141 C3140 1.414 . S
C3141 C3142 1.374 . S
C3142 H3116 0.950 . S
C3142 C3138 1.385 . S
C3142 C3141 1.374 . S
C3143 C3140 1.499 . S
C3143 C3144 1.373 . S
C3143 C3145 1.389 . S
C3144 H3117 0.950 . S
C3144 C3130 1.377 . S
C3144 C3143 1.373 . S
C3145 C3129 1.377 . S
C3145 C3143 1.389 . S
C3145 C3146 1.524 . S
C3146 C3145 1.524 . S
C3146 C3147 1.397 . S
C3146 C3151 1.363 . S
C3147 H3118 0.950 . S
C3147 C3146 1.397 . S
C3147 C3148 1.334 . S
C3148 H3119 0.950 . S
C3148 C3147 1.334 . S
C3148 C3149 1.287 . S
C3149 C3148 1.287 . S
C3149 C3150 1.524 . S
C3149 H3152 0.999 . S
C3150 H3120 0.950 . S
C3150 C3149 1.524 . S
C3150 C3151 1.415 . S
C3151 H3121 0.950 . S
C3151 C3146 1.363 . S
C3151 C3150 1.415 . S
H3152 C3149 0.999 . S
H3153 C3134 0.913 . S
H3154 C3172 0.951 . S
H3155 C3174 0.951 . S
H3156 C3176 0.950 . S
H3157 C3177 0.950 . S
H3158 C3179 0.950 . S
H3159 C3182 0.950 . S
H3160 C3183 0.950 . S
H3161 C3185 0.950 . S
H3162 C3186 0.950 . S
H3163 C3187 0.951 . S
H3164 C3189 0.951 . S
H3165 C3191 0.950 . S
H3166 C3192 0.950 . S
H3167 C3194 0.950 . S
H3168 C3197 0.950 . S
H3169 C3198 0.950 . S
H3170 C3200 0.950 . S
H3171 C3201 0.950 . S
C3172 H3154 0.951 . S
C3172 C3173 1.366 . S
C3172 C3174 1.388 . S
C3173 C3172 1.366 . S
C3173 C3177 1.385 . S
C3174 H3155 0.951 . S
C3174 C3172 1.388 . S
C3174 C3175 1.366 . S
C3175 C3174 1.366 . S
C3175 C3176 1.414 . S
C3175 C3178 1.499 . S
C3176 H3156 0.950 . S
C3176 C3175 1.414 . S
C3176 C3177 1.374 . S
C3177 H3157 0.950 . S
C3177 C3173 1.385 . S
C3177 C3176 1.374 . S
C3178 C3175 1.499 . S
C3178 C3179 1.373 . S
C3178 C3180 1.389 . S
C3179 H3158 0.950 . S
C3179 C3178 1.373 . S
C3179 C3195 1.377 . S
C3180 C3178 1.389 . S
C3180 C3181 1.524 . S
C3180 C3194 1.377 . S
C3181 C3180 1.524 . S
C3181 C3182 1.397 . S
C3181 C3186 1.363 . S
C3182 H3159 0.950 . S
C3182 C3181 1.397 . S
C3182 C3183 1.334 . S
C3183 H3160 0.950 . S
C3183 C3182 1.334 . S
C3183 C3184 1.287 . S
C3184 C3183 1.287 . S
C3184 C3185 1.524 . S
C3184 H3203 0.913 . S
C3185 H3161 0.950 . S
C3185 C3184 1.524 . S
C3185 C3186 1.415 . S
C3186 H3162 0.950 . S
C3186 C3181 1.363 . S
C3186 C3185 1.415 . S
C3187 H3163 0.951 . S
C3187 C3188 1.366 . S
C3187 C3189 1.388 . S
C3188 C3187 1.366 . S
C3188 C3192 1.385 . S
C3189 H3164 0.951 . S
C3189 C3187 1.388 . S
C3189 C3190 1.366 . S
C3190 C3189 1.366 . S
C3190 C3191 1.414 . S
C3190 C3193 1.499 . S
C3191 H3165 0.950 . S
C3191 C3190 1.414 . S
C3191 C3192 1.374 . S
C3192 H3166 0.950 . S
C3192 C3188 1.385 . S
C3192 C3191 1.374 . S
C3193 C3190 1.499 . S
C3193 C3194 1.373 . S
C3193 C3195 1.389 . S
C3194 H3167 0.950 . S
C3194 C3180 1.377 . S
C3194 C3193 1.373 . S
C3195 C3179 1.377 . S
C3195 C3193 1.389 . S
C3195 C3196 1.524 . S
C3196 C3195 1.524 . S
C3196 C3197 1.397 . S
C3196 C3201 1.363 . S
C3197 H3168 0.950 . S
C3197 C3196 1.397 . S
C3197 C3198 1.334 . S
C3198 H3169 0.950 . S
C3198 C3197 1.334 . S
C3198 C3199 1.287 . S
C3199 C3198 1.287 . S
C3199 C3200 1.524 . S
C3199 H3202 0.999 . S
C3200 H3170 0.950 . S
C3200 C3199 1.524 . S
C3200 C3201 1.415 . S
C3201 H3171 0.950 . S
C3201 C3196 1.363 . S
C3201 C3200 1.415 . S
H3202 C3199 0.999 . S
H3203 C3184 0.913 . S
H3204 C3222 0.951 . S
H3205 C3224 0.951 . S
H3206 C3226 0.950 . S
H3207 C3227 0.950 . S
H3208 C3229 0.950 . S
H3209 C3232 0.950 . S
H3210 C3233 0.950 . S
H3211 C3235 0.950 . S
H3212 C3236 0.950 . S
H3213 C3237 0.951 . S
H3214 C3239 0.951 . S
H3215 C3241 0.950 . S
H3216 C3242 0.950 . S
H3217 C3244 0.950 . S
H3218 C3247 0.950 . S
H3219 C3248 0.950 . S
H3220 C3250 0.950 . S
H3221 C3251 0.950 . S
C3222 H3204 0.951 . S
C3222 C3223 1.366 . S
C3222 C3224 1.388 . S
C3223 C3222 1.366 . S
C3223 C3227 1.385 . S
C3224 H3205 0.951 . S
C3224 C3222 1.388 . S
C3224 C3225 1.366 . S
C3225 C3224 1.366 . S
C3225 C3226 1.414 . S
C3225 C3228 1.499 . S
C3226 H3206 0.950 . S
C3226 C3225 1.414 . S
C3226 C3227 1.374 . S
C3227 H3207 0.950 . S
C3227 C3223 1.385 . S
C3227 C3226 1.374 . S
C3228 C3225 1.499 . S
C3228 C3229 1.373 . S
C3228 C3230 1.389 . S
C3229 H3208 0.950 . S
C3229 C3228 1.373 . S
C3229 C3245 1.377 . S
C3230 C3228 1.389 . S
C3230 C3231 1.524 . S
C3230 C3244 1.377 . S
C3231 C3230 1.524 . S
C3231 C3232 1.397 . S
C3231 C3236 1.363 . S
C3232 H3209 0.950 . S
C3232 C3231 1.397 . S
C3232 C3233 1.334 . S
C3233 H3210 0.950 . S
C3233 C3232 1.334 . S
C3233 C3234 1.287 . S
C3234 C3233 1.287 . S
C3234 C3235 1.524 . S
C3234 H3253 0.913 . S
C3235 H3211 0.950 . S
C3235 C3234 1.524 . S
C3235 C3236 1.415 . S
C3236 H3212 0.950 . S
C3236 C3231 1.363 . S
C3236 C3235 1.415 . S
C3237 H3213 0.951 . S
C3237 C3238 1.366 . S
C3237 C3239 1.388 . S
C3238 C3237 1.366 . S
C3238 C3242 1.385 . S
C3239 H3214 0.951 . S
C3239 C3237 1.388 . S
C3239 C3240 1.366 . S
C3240 C3239 1.366 . S
C3240 C3241 1.414 . S
C3240 C3243 1.499 . S
C3241 H3215 0.950 . S
C3241 C3240 1.414 . S
C3241 C3242 1.374 . S
C3242 H3216 0.950 . S
C3242 C3238 1.385 . S
C3242 C3241 1.374 . S
C3243 C3240 1.499 . S
C3243 C3244 1.373 . S
C3243 C3245 1.389 . S
C3244 H3217 0.950 . S
C3244 C3230 1.377 . S
C3244 C3243 1.373 . S
C3245 C3229 1.377 . S
C3245 C3243 1.389 . S
C3245 C3246 1.524 . S
C3246 C3245 1.524 . S
C3246 C3247 1.397 . S
C3246 C3251 1.363 . S
C3247 H3218 0.950 . S
C3247 C3246 1.397 . S
C3247 C3248 1.334 . S
C3248 H3219 0.950 . S
C3248 C3247 1.334 . S
C3248 C3249 1.287 . S
C3249 C3248 1.287 . S
C3249 C3250 1.524 . S
C3249 H3252 0.999 . S
C3250 H3220 0.950 . S
C3250 C3249 1.524 . S
C3250 C3251 1.415 . S
C3251 H3221 0.950 . S
C3251 C3246 1.363 . S
C3251 C3250 1.415 . S
H3252 C3249 0.999 . S
H3253 C3234 0.913 . S
H3254 C3272 0.951 . S
H3255 C3274 0.951 . S
H3256 C3276 0.950 . S
H3257 C3277 0.950 . S
H3258 C3279 0.950 . S
H3259 C3282 0.950 . S
H3260 C3283 0.950 . S
H3261 C3285 0.950 . S
H3262 C3286 0.950 . S
H3263 C3287 0.951 . S
H3264 C3289 0.951 . S
H3265 C3291 0.950 . S
H3266 C3292 0.950 . S
H3267 C3294 0.950 . S
H3268 C3297 0.950 . S
H3269 C3298 0.950 . S
H3270 C3300 0.950 . S
H3271 C3301 0.950 . S
C3272 H3254 0.951 . S
C3272 C3273 1.366 . S
C3272 C3274 1.388 . S
C3273 C3272 1.366 . S
C3273 C3277 1.385 . S
C3274 H3255 0.951 . S
C3274 C3272 1.388 . S
C3274 C3275 1.366 . S
C3275 C3274 1.366 . S
C3275 C3276 1.414 . S
C3275 C3278 1.499 . S
C3276 H3256 0.950 . S
C3276 C3275 1.414 . S
C3276 C3277 1.374 . S
C3277 H3257 0.950 . S
C3277 C3273 1.385 . S
C3277 C3276 1.374 . S
C3278 C3275 1.499 . S
C3278 C3279 1.373 . S
C3278 C3280 1.389 . S
C3279 H3258 0.950 . S
C3279 C3278 1.373 . S
C3279 C3295 1.377 . S
C3280 C3278 1.389 . S
C3280 C3281 1.524 . S
C3280 C3294 1.377 . S
C3281 C3280 1.524 . S
C3281 C3282 1.397 . S
C3281 C3286 1.363 . S
C3282 H3259 0.950 . S
C3282 C3281 1.397 . S
C3282 C3283 1.334 . S
C3283 H3260 0.950 . S
C3283 C3282 1.334 . S
C3283 C3284 1.287 . S
C3284 C3283 1.287 . S
C3284 C3285 1.524 . S
C3284 H3303 0.913 . S
C3285 H3261 0.950 . S
C3285 C3284 1.524 . S
C3285 C3286 1.415 . S
C3286 H3262 0.950 . S
C3286 C3281 1.363 . S
C3286 C3285 1.415 . S
C3287 H3263 0.951 . S
C3287 C3288 1.366 . S
C3287 C3289 1.388 . S
C3288 C3287 1.366 . S
C3288 C3292 1.385 . S
C3289 H3264 0.951 . S
C3289 C3287 1.388 . S
C3289 C3290 1.366 . S
C3290 C3289 1.366 . S
C3290 C3291 1.414 . S
C3290 C3293 1.499 . S
C3291 H3265 0.950 . S
C3291 C3290 1.414 . S
C3291 C3292 1.374 . S
C3292 H3266 0.950 . S
C3292 C3288 1.385 . S
C3292 C3291 1.374 . S
C3293 C3290 1.499 . S
C3293 C3294 1.373 . S
C3293 C3295 1.389 . S
C3294 H3267 0.950 . S
C3294 C3280 1.377 . S
C3294 C3293 1.373 . S
C3295 C3279 1.377 . S
C3295 C3293 1.389 . S
C3295 C3296 1.524 . S
C3296 C3295 1.524 . S
C3296 C3297 1.397 . S
C3296 C3301 1.363 . S
C3297 H3268 0.950 . S
C3297 C3296 1.397 . S
C3297 C3298 1.334 . S
C3298 H3269 0.950 . S
C3298 C3297 1.334 . S
C3298 C3299 1.287 . S
C3299 C3298 1.287 . S
C3299 C3300 1.524 . S
C3299 H3302 0.999 . S
C3300 H3270 0.950 . S
C3300 C3299 1.524 . S
C3300 C3301 1.415 . S
C3301 H3271 0.950 . S
C3301 C3296 1.363 . S
C3301 C3300 1.415 . S
H3302 C3299 0.999 . S
H3303 C3284 0.913 . S
H3304 C3322 0.951 . S
H3305 C3324 0.951 . S
H3306 C3326 0.950 . S
H3307 C3327 0.950 . S
H3308 C3329 0.950 . S
H3309 C3332 0.950 . S
H3310 C3333 0.950 . S
H3311 C3335 0.950 . S
H3312 C3336 0.950 . S
H3313 C3337 0.951 . S
H3314 C3339 0.951 . S
H3315 C3341 0.950 . S
H3316 C3342 0.950 . S
H3317 C3344 0.950 . S
H3318 C3347 0.950 . S
H3319 C3348 0.950 . S
H3320 C3350 0.950 . S
H3321 C3351 0.950 . S
C3322 H3304 0.951 . S
C3322 C3323 1.366 . S
C3322 C3324 1.388 . S
C3323 C3322 1.366 . S
C3323 C3327 1.385 . S
C3324 H3305 0.951 . S
C3324 C3322 1.388 . S
C3324 C3325 1.366 . S
C3325 C3324 1.366 . S
C3325 C3326 1.414 . S
C3325 C3328 1.499 . S
C3326 H3306 0.950 . S
C3326 C3325 1.414 . S
C3326 C3327 1.374 . S
C3327 H3307 0.950 . S
C3327 C3323 1.385 . S
C3327 C3326 1.374 . S
C3328 C3325 1.499 . S
C3328 C3329 1.373 . S
C3328 C3330 1.389 . S
C3329 H3308 0.950 . S
C3329 C3328 1.373 . S
C3329 C3345 1.377 . S
C3330 C3328 1.389 . S
C3330 C3331 1.524 . S
C3330 C3344 1.377 . S
C3331 C3330 1.524 . S
C3331 C3332 1.397 . S
C3331 C3336 1.363 . S
C3332 H3309 0.950 . S
C3332 C3331 1.397 . S
C3332 C3333 1.334 . S
C3333 H3310 0.950 . S
C3333 C3332 1.334 . S
C3333 C3334 1.287 . S
C3334 C3333 1.287 . S
C3334 C3335 1.524 . S
C3334 H3353 0.913 . S
C3335 H3311 0.950 . S
C3335 C3334 1.524 . S
C3335 C3336 1.415 . S
C3336 H3312 0.950 . S
C3336 C3331 1.363 . S
C3336 C3335 1.415 . S
C3337 H3313 0.951 . S
C3337 C3338 1.366 . S
C3337 C3339 1.388 . S
C3338 C3337 1.366 . S
C3338 C3342 1.385 . S
C3339 H3314 0.951 . S
C3339 C3337 1.388 . S
C3339 C3340 1.366 . S
C3340 C3339 1.366 . S
C3340 C3341 1.414 . S
C3340 C3343 1.499 . S
C3341 H3315 0.950 . S
C3341 C3340 1.414 . S
C3341 C3342 1.374 . S
C3342 H3316 0.950 . S
C3342 C3338 1.385 . S
C3342 C3341 1.374 . S
C3343 C3340 1.499 . S
C3343 C3344 1.373 . S
C3343 C3345 1.389 . S
C3344 H3317 0.950 . S
C3344 C3330 1.377 . S
C3344 C3343 1.373 . S
C3345 C3329 1.377 . S
C3345 C3343 1.389 . S
C3345 C3346 1.524 . S
C3346 C3345 1.524 . S
C3346 C3347 1.397 . S
C3346 C3351 1.363 . S
C3347 H3318 0.950 . S
C3347 C3346 1.397 . S
C3347 C3348 1.334 . S
C3348 H3319 0.950 . S
C3348 C3347 1.334 . S
C3348 C3349 1.287 . S
C3349 C3348 1.287 . S
C3349 C3350 1.524 . S
C3349 H3352 0.999 . S
C3350 H3320 0.950 . S
C3350 C3349 1.524 . S
C3350 C3351 1.415 . S
C3351 H3321 0.950 . S
C3351 C3346 1.363 . S
C3351 C3350 1.415 . S
H3352 C3349 0.999 . S
H3353 C3334 0.913 . S
H3354 C3372 0.951 . S
H3355 C3374 0.951 . S
H3356 C3376 0.950 . S
H3357 C3377 0.950 . S
H3358 C3379 0.950 . S
H3359 C3382 0.950 . S
H3360 C3383 0.950 . S
H3361 C3385 0.950 . S
H3362 C3386 0.950 . S
H3363 C3387 0.951 . S
H3364 C3389 0.951 . S
H3365 C3391 0.950 . S
H3366 C3392 0.950 . S
H3367 C3394 0.950 . S
H3368 C3397 0.950 . S
H3369 C3398 0.950 . S
H3370 C3400 0.950 . S
H3371 C3401 0.950 . S
C3372 H3354 0.951 . S
C3372 C3373 1.366 . S
C3372 C3374 1.388 . S
C3373 C3372 1.366 . S
C3373 C3377 1.385 . S
C3374 H3355 0.951 . S
C3374 C3372 1.388 . S
C3374 C3375 1.366 . S
C3375 C3374 1.366 . S
C3375 C3376 1.414 . S
C3375 C3378 1.499 . S
C3376 H3356 0.950 . S
C3376 C3375 1.414 . S
C3376 C3377 1.374 . S
C3377 H3357 0.950 . S
C3377 C3373 1.385 . S
C3377 C3376 1.374 . S
C3378 C3375 1.499 . S
C3378 C3379 1.373 . S
C3378 C3380 1.389 . S
C3379 H3358 0.950 . S
C3379 C3378 1.373 . S
C3379 C3395 1.377 . S
C3380 C3378 1.389 . S
C3380 C3381 1.524 . S
C3380 C3394 1.377 . S
C3381 C3380 1.524 . S
C3381 C3382 1.397 . S
C3381 C3386 1.363 . S
C3382 H3359 0.950 . S
C3382 C3381 1.397 . S
C3382 C3383 1.334 . S
C3383 H3360 0.950 . S
C3383 C3382 1.334 . S
C3383 C3384 1.287 . S
C3384 C3383 1.287 . S
C3384 C3385 1.524 . S
C3384 H3403 0.913 . S
C3385 H3361 0.950 . S
C3385 C3384 1.524 . S
C3385 C3386 1.415 . S
C3386 H3362 0.950 . S
C3386 C3381 1.363 . S
C3386 C3385 1.415 . S
C3387 H3363 0.951 . S
C3387 C3388 1.366 . S
C3387 C3389 1.388 . S
C3388 C3387 1.366 . S
C3388 C3392 1.385 . S
C3389 H3364 0.951 . S
C3389 C3387 1.388 . S
C3389 C3390 1.366 . S
C3390 C3389 1.366 . S
C3390 C3391 1.414 . S
C3390 C3393 1.499 . S
C3391 H3365 0.950 . S
C3391 C3390 1.414 . S
C3391 C3392 1.374 . S
C3392 H3366 0.950 . S
C3392 C3388 1.385 . S
C3392 C3391 1.374 . S
C3393 C3390 1.499 . S
C3393 C3394 1.373 . S
C3393 C3395 1.389 . S
C3394 H3367 0.950 . S
C3394 C3380 1.377 . S
C3394 C3393 1.373 . S
C3395 C3379 1.377 . S
C3395 C3393 1.389 . S
C3395 C3396 1.524 . S
C3396 C3395 1.524 . S
C3396 C3397 1.397 . S
C3396 C3401 1.363 . S
C3397 H3368 0.950 . S
C3397 C3396 1.397 . S
C3397 C3398 1.334 . S
C3398 H3369 0.950 . S
C3398 C3397 1.334 . S
C3398 C3399 1.287 . S
C3399 C3398 1.287 . S
C3399 C3400 1.524 . S
C3399 H3402 0.999 . S
C3400 H3370 0.950 . S
C3400 C3399 1.524 . S
C3400 C3401 1.415 . S
C3401 H3371 0.950 . S
C3401 C3396 1.363 . S
C3401 C3400 1.415 . S
H3402 C3399 0.999 . S
H3403 C3384 0.913 . S
H3404 C3422 0.951 . S
H3405 C3424 0.951 . S
H3406 C3426 0.950 . S
H3407 C3427 0.950 . S
H3408 C3429 0.950 . S
H3409 C3432 0.950 . S
H3410 C3433 0.950 . S
H3411 C3435 0.950 . S
H3412 C3436 0.950 . S
H3413 C3437 0.951 . S
H3414 C3439 0.951 . S
H3415 C3441 0.950 . S
H3416 C3442 0.950 . S
H3417 C3444 0.950 . S
H3418 C3447 0.950 . S
H3419 C3448 0.950 . S
H3420 C3450 0.950 . S
H3421 C3451 0.950 . S
C3422 H3404 0.951 . S
C3422 C3423 1.366 . S
C3422 C3424 1.388 . S
C3423 C3422 1.366 . S
C3423 C3427 1.385 . S
C3424 H3405 0.951 . S
C3424 C3422 1.388 . S
C3424 C3425 1.366 . S
C3425 C3424 1.366 . S
C3425 C3426 1.414 . S
C3425 C3428 1.499 . S
C3426 H3406 0.950 . S
C3426 C3425 1.414 . S
C3426 C3427 1.374 . S
C3427 H3407 0.950 . S
C3427 C3423 1.385 . S
C3427 C3426 1.374 . S
C3428 C3425 1.499 . S
C3428 C3429 1.373 . S
C3428 C3430 1.389 . S
C3429 H3408 0.950 . S
C3429 C3428 1.373 . S
C3429 C3445 1.377 . S
C3430 C3428 1.389 . S
C3430 C3431 1.524 . S
C3430 C3444 1.377 . S
C3431 C3430 1.524 . S
C3431 C3432 1.397 . S
C3431 C3436 1.363 . S
C3432 H3409 0.950 . S
C3432 C3431 1.397 . S
C3432 C3433 1.334 . S
C3433 H3410 0.950 . S
C3433 C3432 1.334 . S
C3433 C3434 1.287 . S
C3434 C3433 1.287 . S
C3434 C3435 1.524 . S
C3434 H3453 0.913 . S
C3435 H3411 0.950 . S
C3435 C3434 1.524 . S
C3435 C3436 1.415 . S
C3436 H3412 0.950 . S
C3436 C3431 1.363 . S
C3436 C3435 1.415 . S
C3437 H3413 0.951 . S
C3437 C3438 1.366 . S
C3437 C3439 1.388 . S
C3438 C3437 1.366 . S
C3438 C3442 1.385 . S
C3439 H3414 0.951 . S
C3439 C3437 1.388 . S
C3439 C3440 1.366 . S
C3440 C3439 1.366 . S
C3440 C3441 1.414 . S
C3440 C3443 1.499 . S
C3441 H3415 0.950 . S
C3441 C3440 1.414 . S
C3441 C3442 1.374 . S
C3442 H3416 0.950 . S
C3442 C3438 1.385 . S
C3442 C3441 1.374 . S
C3443 C3440 1.499 . S
C3443 C3444 1.373 . S
C3443 C3445 1.389 . S
C3444 H3417 0.950 . S
C3444 C3430 1.377 . S
C3444 C3443 1.373 . S
C3445 C3429 1.377 . S
C3445 C3443 1.389 . S
C3445 C3446 1.524 . S
C3446 C3445 1.524 . S
C3446 C3447 1.397 . S
C3446 C3451 1.363 . S
C3447 H3418 0.950 . S
C3447 C3446 1.397 . S
C3447 C3448 1.334 . S
C3448 H3419 0.950 . S
C3448 C3447 1.334 . S
C3448 C3449 1.287 . S
C3449 C3448 1.287 . S
C3449 C3450 1.524 . S
C3449 H3452 0.999 . S
C3450 H3420 0.950 . S
C3450 C3449 1.524 . S
C3450 C3451 1.415 . S
C3451 H3421 0.950 . S
C3451 C3446 1.363 . S
C3451 C3450 1.415 . S
H3452 C3449 0.999 . S
H3453 C3434 0.913 . S
H3454 C3472 0.951 . S
H3455 C3474 0.951 . S
H3456 C3476 0.950 . S
H3457 C3477 0.950 . S
H3458 C3479 0.950 . S
H3459 C3482 0.950 . S
H3460 C3483 0.950 . S
H3461 C3485 0.950 . S
H3462 C3486 0.950 . S
H3463 C3487 0.951 . S
H3464 C3489 0.951 . S
H3465 C3491 0.950 . S
H3466 C3492 0.950 . S
H3467 C3494 0.950 . S
H3468 C3497 0.950 . S
H3469 C3498 0.950 . S
H3470 C3500 0.950 . S
H3471 C3501 0.950 . S
C3472 H3454 0.951 . S
C3472 C3473 1.366 . S
C3472 C3474 1.388 . S
C3473 C3472 1.366 . S
C3473 C3477 1.385 . S
C3474 H3455 0.951 . S
C3474 C3472 1.388 . S
C3474 C3475 1.366 . S
C3475 C3474 1.366 . S
C3475 C3476 1.414 . S
C3475 C3478 1.499 . S
C3476 H3456 0.950 . S
C3476 C3475 1.414 . S
C3476 C3477 1.374 . S
C3477 H3457 0.950 . S
C3477 C3473 1.385 . S
C3477 C3476 1.374 . S
C3478 C3475 1.499 . S
C3478 C3479 1.373 . S
C3478 C3480 1.389 . S
C3479 H3458 0.950 . S
C3479 C3478 1.373 . S
C3479 C3495 1.377 . S
C3480 C3478 1.389 . S
C3480 C3481 1.524 . S
C3480 C3494 1.377 . S
C3481 C3480 1.524 . S
C3481 C3482 1.397 . S
C3481 C3486 1.363 . S
C3482 H3459 0.950 . S
C3482 C3481 1.397 . S
C3482 C3483 1.334 . S
C3483 H3460 0.950 . S
C3483 C3482 1.334 . S
C3483 C3484 1.287 . S
C3484 C3483 1.287 . S
C3484 C3485 1.524 . S
C3484 H3503 0.913 . S
C3485 H3461 0.950 . S
C3485 C3484 1.524 . S
C3485 C3486 1.415 . S
C3486 H3462 0.950 . S
C3486 C3481 1.363 . S
C3486 C3485 1.415 . S
C3487 H3463 0.951 . S
C3487 C3488 1.366 . S
C3487 C3489 1.388 . S
C3488 C3487 1.366 . S
C3488 C3492 1.385 . S
C3489 H3464 0.951 . S
C3489 C3487 1.388 . S
C3489 C3490 1.366 . S
C3490 C3489 1.366 . S
C3490 C3491 1.414 . S
C3490 C3493 1.499 . S
C3491 H3465 0.950 . S
C3491 C3490 1.414 . S
C3491 C3492 1.374 . S
C3492 H3466 0.950 . S
C3492 C3488 1.385 . S
C3492 C3491 1.374 . S
C3493 C3490 1.499 . S
C3493 C3494 1.373 . S
C3493 C3495 1.389 . S
C3494 H3467 0.950 . S
C3494 C3480 1.377 . S
C3494 C3493 1.373 . S
C3495 C3479 1.377 . S
C3495 C3493 1.389 . S
C3495 C3496 1.524 . S
C3496 C3495 1.524 . S
C3496 C3497 1.397 . S
C3496 C3501 1.363 . S
C3497 H3468 0.950 . S
C3497 C3496 1.397 . S
C3497 C3498 1.334 . S
C3498 H3469 0.950 . S
C3498 C3497 1.334 . S
C3498 C3499 1.287 . S
C3499 C3498 1.287 . S
C3499 C3500 1.524 . S
C3499 H3502 0.999 . S
C3500 H3470 0.950 . S
C3500 C3499 1.524 . S
C3500 C3501 1.415 . S
C3501 H3471 0.950 . S
C3501 C3496 1.363 . S
C3501 C3500 1.415 . S
H3502 C3499 0.999 . S
H3503 C3484 0.913 . S
H3504 C3522 0.951 . S
H3505 C3524 0.951 . S
H3506 C3526 0.950 . S
H3507 C3527 0.950 . S
H3508 C3529 0.950 . S
H3509 C3532 0.950 . S
H3510 C3533 0.950 . S
H3511 C3535 0.950 . S
H3512 C3536 0.950 . S
H3513 C3537 0.951 . S
H3514 C3539 0.951 . S
H3515 C3541 0.950 . S
H3516 C3542 0.950 . S
H3517 C3544 0.950 . S
H3518 C3547 0.950 . S
H3519 C3548 0.950 . S
H3520 C3550 0.950 . S
H3521 C3551 0.950 . S
C3522 H3504 0.951 . S
C3522 C3523 1.366 . S
C3522 C3524 1.388 . S
C3523 C3522 1.366 . S
C3523 C3527 1.385 . S
C3524 H3505 0.951 . S
C3524 C3522 1.388 . S
C3524 C3525 1.366 . S
C3525 C3524 1.366 . S
C3525 C3526 1.414 . S
C3525 C3528 1.499 . S
C3526 H3506 0.950 . S
C3526 C3525 1.414 . S
C3526 C3527 1.374 . S
C3527 H3507 0.950 . S
C3527 C3523 1.385 . S
C3527 C3526 1.374 . S
C3528 C3525 1.499 . S
C3528 C3529 1.373 . S
C3528 C3530 1.389 . S
C3529 H3508 0.950 . S
C3529 C3528 1.373 . S
C3529 C3545 1.377 . S
C3530 C3528 1.389 . S
C3530 C3531 1.524 . S
C3530 C3544 1.377 . S
C3531 C3530 1.524 . S
C3531 C3532 1.397 . S
C3531 C3536 1.363 . S
C3532 H3509 0.950 . S
C3532 C3531 1.397 . S
C3532 C3533 1.334 . S
C3533 H3510 0.950 . S
C3533 C3532 1.334 . S
C3533 C3534 1.287 . S
C3534 C3533 1.287 . S
C3534 C3535 1.524 . S
C3534 H3553 0.913 . S
C3535 H3511 0.950 . S
C3535 C3534 1.524 . S
C3535 C3536 1.415 . S
C3536 H3512 0.950 . S
C3536 C3531 1.363 . S
C3536 C3535 1.415 . S
C3537 H3513 0.951 . S
C3537 C3538 1.366 . S
C3537 C3539 1.388 . S
C3538 C3537 1.366 . S
C3538 C3542 1.385 . S
C3539 H3514 0.951 . S
C3539 C3537 1.388 . S
C3539 C3540 1.366 . S
C3540 C3539 1.366 . S
C3540 C3541 1.414 . S
C3540 C3543 1.499 . S
C3541 H3515 0.950 . S
C3541 C3540 1.414 . S
C3541 C3542 1.374 . S
C3542 H3516 0.950 . S
C3542 C3538 1.385 . S
C3542 C3541 1.374 . S
C3543 C3540 1.499 . S
C3543 C3544 1.373 . S
C3543 C3545 1.389 . S
C3544 H3517 0.950 . S
C3544 C3530 1.377 . S
C3544 C3543 1.373 . S
C3545 C3529 1.377 . S
C3545 C3543 1.389 . S
C3545 C3546 1.524 . S
C3546 C3545 1.524 . S
C3546 C3547 1.397 . S
C3546 C3551 1.363 . S
C3547 H3518 0.950 . S
C3547 C3546 1.397 . S
C3547 C3548 1.334 . S
C3548 H3519 0.950 . S
C3548 C3547 1.334 . S
C3548 C3549 1.287 . S
C3549 C3548 1.287 . S
C3549 C3550 1.524 . S
C3549 H3552 0.999 . S
C3550 H3520 0.950 . S
C3550 C3549 1.524 . S
C3550 C3551 1.415 . S
C3551 H3521 0.950 . S
C3551 C3546 1.363 . S
C3551 C3550 1.415 . S
H3552 C3549 0.999 . S
H3553 C3534 0.913 . S
H3554 C3572 0.951 . S
H3555 C3574 0.951 . S
H3556 C3576 0.950 . S
H3557 C3577 0.950 . S
H3558 C3579 0.950 . S
H3559 C3582 0.950 . S
H3560 C3583 0.950 . S
H3561 C3585 0.950 . S
H3562 C3586 0.950 . S
H3563 C3587 0.951 . S
H3564 C3589 0.951 . S
H3565 C3591 0.950 . S
H3566 C3592 0.950 . S
H3567 C3594 0.950 . S
H3568 C3597 0.950 . S
H3569 C3598 0.950 . S
H3570 C3600 0.950 . S
H3571 C3601 0.950 . S
C3572 H3554 0.951 . S
C3572 C3573 1.366 . S
C3572 C3574 1.388 . S
C3573 C3572 1.366 . S
C3573 C3577 1.385 . S
C3574 H3555 0.951 . S
C3574 C3572 1.388 . S
C3574 C3575 1.366 . S
C3575 C3574 1.366 . S
C3575 C3576 1.414 . S
C3575 C3578 1.499 . S
C3576 H3556 0.950 . S
C3576 C3575 1.414 . S
C3576 C3577 1.374 . S
C3577 H3557 0.950 . S
C3577 C3573 1.385 . S
C3577 C3576 1.374 . S
C3578 C3575 1.499 . S
C3578 C3579 1.373 . S
C3578 C3580 1.389 . S
C3579 H3558 0.950 . S
C3579 C3578 1.373 . S
C3579 C3595 1.377 . S
C3580 C3578 1.389 . S
C3580 C3581 1.524 . S
C3580 C3594 1.377 . S
C3581 C3580 1.524 . S
C3581 C3582 1.397 . S
C3581 C3586 1.363 . S
C3582 H3559 0.950 . S
C3582 C3581 1.397 . S
C3582 C3583 1.334 . S
C3583 H3560 0.950 . S
C3583 C3582 1.334 . S
C3583 C3584 1.287 . S
C3584 C3583 1.287 . S
C3584 C3585 1.524 . S
C3584 H3603 0.913 . S
C3585 H3561 0.950 . S
C3585 C3584 1.524 . S
C3585 C3586 1.415 . S
C3586 H3562 0.950 . S
C3586 C3581 1.363 . S
C3586 C3585 1.415 . S
C3587 H3563 0.951 . S
C3587 C3588 1.366 . S
C3587 C3589 1.388 . S
C3588 C3587 1.366 . S
C3588 C3592 1.385 . S
C3589 H3564 0.951 . S
C3589 C3587 1.388 . S
C3589 C3590 1.366 . S
C3590 C3589 1.366 . S
C3590 C3591 1.414 . S
C3590 C3593 1.499 . S
C3591 H3565 0.950 . S
C3591 C3590 1.414 . S
C3591 C3592 1.374 . S
C3592 H3566 0.950 . S
C3592 C3588 1.385 . S
C3592 C3591 1.374 . S
C3593 C3590 1.499 . S
C3593 C3594 1.373 . S
C3593 C3595 1.389 . S
C3594 H3567 0.950 . S
C3594 C3580 1.377 . S
C3594 C3593 1.373 . S
C3595 C3579 1.377 . S
C3595 C3593 1.389 . S
C3595 C3596 1.524 . S
C3596 C3595 1.524 . S
C3596 C3597 1.397 . S
C3596 C3601 1.363 . S
C3597 H3568 0.950 . S
C3597 C3596 1.397 . S
C3597 C3598 1.334 . S
C3598 H3569 0.950 . S
C3598 C3597 1.334 . S
C3598 C3599 1.287 . S
C3599 C3598 1.287 . S
C3599 C3600 1.524 . S
C3599 H3602 0.999 . S
C3600 H3570 0.950 . S
C3600 C3599 1.524 . S
C3600 C3601 1.415 . S
C3601 H3571 0.950 . S
C3601 C3596 1.363 . S
C3601 C3600 1.415 . S
H3602 C3599 0.999 . S
H3603 C3584 0.913 . S
H3604 C3622 0.951 . S
H3605 C3624 0.951 . S
H3606 C3626 0.950 . S
H3607 C3627 0.950 . S
H3608 C3629 0.950 . S
H3609 C3632 0.950 . S
H3610 C3633 0.950 . S
H3611 C3635 0.950 . S
H3612 C3636 0.950 . S
H3613 C3637 0.951 . S
H3614 C3639 0.951 . S
H3615 C3641 0.950 . S
H3616 C3642 0.950 . S
H3617 C3644 0.950 . S
H3618 C3647 0.950 . S
H3619 C3648 0.950 . S
H3620 C3650 0.950 . S
H3621 C3651 0.950 . S
C3622 H3604 0.951 . S
C3622 C3623 1.366 . S
C3622 C3624 1.388 . S
C3623 C3622 1.366 . S
C3623 C3627 1.385 . S
C3624 H3605 0.951 . S
C3624 C3622 1.388 . S
C3624 C3625 1.366 . S
C3625 C3624 1.366 . S
C3625 C3626 1.414 . S
C3625 C3628 1.499 . S
C3626 H3606 0.950 . S
C3626 C3625 1.414 . S
C3626 C3627 1.374 . S
C3627 H3607 0.950 . S
C3627 C3623 1.385 . S
C3627 C3626 1.374 . S
C3628 C3625 1.499 . S
C3628 C3629 1.373 . S
C3628 C3630 1.389 . S
C3629 H3608 0.950 . S
C3629 C3628 1.373 . S
C3629 C3645 1.377 . S
C3630 C3628 1.389 . S
C3630 C3631 1.524 . S
C3630 C3644 1.377 . S
C3631 C3630 1.524 . S
C3631 C3632 1.397 . S
C3631 C3636 1.363 . S
C3632 H3609 0.950 . S
C3632 C3631 1.397 . S
C3632 C3633 1.334 . S
C3633 H3610 0.950 . S
C3633 C3632 1.334 . S
C3633 C3634 1.287 . S
C3634 C3633 1.287 . S
C3634 C3635 1.524 . S
C3634 H3653 0.913 . S
C3635 H3611 0.950 . S
C3635 C3634 1.524 . S
C3635 C3636 1.415 . S
C3636 H3612 0.950 . S
C3636 C3631 1.363 . S
C3636 C3635 1.415 . S
C3637 H3613 0.951 . S
C3637 C3638 1.366 . S
C3637 C3639 1.388 . S
C3638 C3637 1.366 . S
C3638 C3642 1.385 . S
C3639 H3614 0.951 . S
C3639 C3637 1.388 . S
C3639 C3640 1.366 . S
C3640 C3639 1.366 . S
C3640 C3641 1.414 . S
C3640 C3643 1.499 . S
C3641 H3615 0.950 . S
C3641 C3640 1.414 . S
C3641 C3642 1.374 . S
C3642 H3616 0.950 . S
C3642 C3638 1.385 . S
C3642 C3641 1.374 . S
C3643 C3640 1.499 . S
C3643 C3644 1.373 . S
C3643 C3645 1.389 . S
C3644 H3617 0.950 . S
C3644 C3630 1.377 . S
C3644 C3643 1.373 . S
C3645 C3629 1.377 . S
C3645 C3643 1.389 . S
C3645 C3646 1.524 . S
C3646 C3645 1.524 . S
C3646 C3647 1.397 . S
C3646 C3651 1.363 . S
C3647 H3618 0.950 . S
C3647 C3646 1.397 . S
C3647 C3648 1.334 . S
C3648 H3619 0.950 . S
C3648 C3647 1.334 . S
C3648 C3649 1.287 . S
C3649 C3648 1.287 . S
C3649 C3650 1.524 . S
C3649 H3652 0.999 . S
C3650 H3620 0.950 . S
C3650 C3649 1.524 . S
C3650 C3651 1.415 . S
C3651 H3621 0.950 . S
C3651 C3646 1.363 . S
C3651 C3650 1.415 . S
H3652 C3649 0.999 . S
H3653 C3634 0.913 . S
H3654 C3672 0.951 . S
H3655 C3674 0.951 . S
H3656 C3676 0.950 . S
H3657 C3677 0.950 . S
H3658 C3679 0.950 . S
H3659 C3682 0.950 . S
H3660 C3683 0.950 . S
H3661 C3685 0.950 . S
H3662 C3686 0.950 . S
H3663 C3687 0.951 . S
H3664 C3689 0.951 . S
H3665 C3691 0.950 . S
H3666 C3692 0.950 . S
H3667 C3694 0.950 . S
H3668 C3697 0.950 . S
H3669 C3698 0.950 . S
H3670 C3700 0.950 . S
H3671 C3701 0.950 . S
C3672 H3654 0.951 . S
C3672 C3673 1.366 . S
C3672 C3674 1.388 . S
C3673 C3672 1.366 . S
C3673 C3677 1.385 . S
C3674 H3655 0.951 . S
C3674 C3672 1.388 . S
C3674 C3675 1.366 . S
C3675 C3674 1.366 . S
C3675 C3676 1.414 . S
C3675 C3678 1.499 . S
C3676 H3656 0.950 . S
C3676 C3675 1.414 . S
C3676 C3677 1.374 . S
C3677 H3657 0.950 . S
C3677 C3673 1.385 . S
C3677 C3676 1.374 . S
C3678 C3675 1.499 . S
C3678 C3679 1.373 . S
C3678 C3680 1.389 . S
C3679 H3658 0.950 . S
C3679 C3678 1.373 . S
C3679 C3695 1.377 . S
C3680 C3678 1.389 . S
C3680 C3681 1.524 . S
C3680 C3694 1.377 . S
C3681 C3680 1.524 . S
C3681 C3682 1.397 . S
C3681 C3686 1.363 . S
C3682 H3659 0.950 . S
C3682 C3681 1.397 . S
C3682 C3683 1.334 . S
C3683 H3660 0.950 . S
C3683 C3682 1.334 . S
C3683 C3684 1.287 . S
C3684 C3683 1.287 . S
C3684 C3685 1.524 . S
C3684 H3703 0.913 . S
C3685 H3661 0.950 . S
C3685 C3684 1.524 . S
C3685 C3686 1.415 . S
C3686 H3662 0.950 . S
C3686 C3681 1.363 . S
C3686 C3685 1.415 . S
C3687 H3663 0.951 . S
C3687 C3688 1.366 . S
C3687 C3689 1.388 . S
C3688 C3687 1.366 . S
C3688 C3692 1.385 . S
C3689 H3664 0.951 . S
C3689 C3687 1.388 . S
C3689 C3690 1.366 . S
C3690 C3689 1.366 . S
C3690 C3691 1.414 . S
C3690 C3693 1.499 . S
C3691 H3665 0.950 . S
C3691 C3690 1.414 . S
C3691 C3692 1.374 . S
C3692 H3666 0.950 . S
C3692 C3688 1.385 . S
C3692 C3691 1.374 . S
C3693 C3690 1.499 . S
C3693 C3694 1.373 . S
C3693 C3695 1.389 . S
C3694 H3667 0.950 . S
C3694 C3680 1.377 . S
C3694 C3693 1.373 . S
C3695 C3679 1.377 . S
C3695 C3693 1.389 . S
C3695 C3696 1.524 . S
C3696 C3695 1.524 . S
C3696 C3697 1.397 . S
C3696 C3701 1.363 . S
C3697 H3668 0.950 . S
C3697 C3696 1.397 . S
C3697 C3698 1.334 . S
C3698 H3669 0.950 . S
C3698 C3697 1.334 . S
C3698 C3699 1.287 . S
C3699 C3698 1.287 . S
C3699 C3700 1.524 . S
C3699 H3702 0.999 . S
C3700 H3670 0.950 . S
C3700 C3699 1.524 . S
C3700 C3701 1.415 . S
C3701 H3671 0.950 . S
C3701 C3696 1.363 . S
C3701 C3700 1.415 . S
H3702 C3699 0.999 . S
H3703 C3684 0.913 . S
H3704 C3722 0.951 . S
H3705 C3724 0.951 . S
H3706 C3726 0.950 . S
H3707 C3727 0.950 . S
H3708 C3729 0.950 . S
H3709 C3732 0.950 . S
H3710 C3733 0.950 . S
H3711 C3735 0.950 . S
H3712 C3736 0.950 . S
H3713 C3737 0.951 . S
H3714 C3739 0.951 . S
H3715 C3741 0.950 . S
H3716 C3742 0.950 . S
H3717 C3744 0.950 . S
H3718 C3747 0.950 . S
H3719 C3748 0.950 . S
H3720 C3750 0.950 . S
H3721 C3751 0.950 . S
C3722 H3704 0.951 . S
C3722 C3723 1.366 . S
C3722 C3724 1.388 . S
C3723 C3722 1.366 . S
C3723 C3727 1.385 . S
C3724 H3705 0.951 . S
C3724 C3722 1.388 . S
C3724 C3725 1.366 . S
C3725 C3724 1.366 . S
C3725 C3726 1.414 . S
C3725 C3728 1.499 . S
C3726 H3706 0.950 . S
C3726 C3725 1.414 . S
C3726 C3727 1.374 . S
C3727 H3707 0.950 . S
C3727 C3723 1.385 . S
C3727 C3726 1.374 . S
C3728 C3725 1.499 . S
C3728 C3729 1.373 . S
C3728 C3730 1.389 . S
C3729 H3708 0.950 . S
C3729 C3728 1.373 . S
C3729 C3745 1.377 . S
C3730 C3728 1.389 . S
C3730 C3731 1.524 . S
C3730 C3744 1.377 . S
C3731 C3730 1.524 . S
C3731 C3732 1.397 . S
C3731 C3736 1.363 . S
C3732 H3709 0.950 . S
C3732 C3731 1.397 . S
C3732 C3733 1.334 . S
C3733 H3710 0.950 . S
C3733 C3732 1.334 . S
C3733 C3734 1.287 . S
C3734 C3733 1.287 . S
C3734 C3735 1.524 . S
C3734 H3753 0.913 . S
C3735 H3711 0.950 . S
C3735 C3734 1.524 . S
C3735 C3736 1.415 . S
C3736 H3712 0.950 . S
C3736 C3731 1.363 . S
C3736 C3735 1.415 . S
C3737 H3713 0.951 . S
C3737 C3738 1.366 . S
C3737 C3739 1.388 . S
C3738 C3737 1.366 . S
C3738 C3742 1.385 . S
C3739 H3714 0.951 . S
C3739 C3737 1.388 . S
C3739 C3740 1.366 . S
C3740 C3739 1.366 . S
C3740 C3741 1.414 . S
C3740 C3743 1.499 . S
C3741 H3715 0.950 . S
C3741 C3740 1.414 . S
C3741 C3742 1.374 . S
C3742 H3716 0.950 . S
C3742 C3738 1.385 . S
C3742 C3741 1.374 . S
C3743 C3740 1.499 . S
C3743 C3744 1.373 . S
C3743 C3745 1.389 . S
C3744 H3717 0.950 . S
C3744 C3730 1.377 . S
C3744 C3743 1.373 . S
C3745 C3729 1.377 . S
C3745 C3743 1.389 . S
C3745 C3746 1.524 . S
C3746 C3745 1.524 . S
C3746 C3747 1.397 . S
C3746 C3751 1.363 . S
C3747 H3718 0.950 . S
C3747 C3746 1.397 . S
C3747 C3748 1.334 . S
C3748 H3719 0.950 . S
C3748 C3747 1.334 . S
C3748 C3749 1.287 . S
C3749 C3748 1.287 . S
C3749 C3750 1.524 . S
C3749 H3752 0.999 . S
C3750 H3720 0.950 . S
C3750 C3749 1.524 . S
C3750 C3751 1.415 . S
C3751 H3721 0.950 . S
C3751 C3746 1.363 . S
C3751 C3750 1.415 . S
H3752 C3749 0.999 . S
H3753 C3734 0.913 . S
H3754 C3772 0.951 . S
H3755 C3774 0.951 . S
H3756 C3776 0.950 . S
H3757 C3777 0.950 . S
H3758 C3779 0.950 . S
H3759 C3782 0.950 . S
H3760 C3783 0.950 . S
H3761 C3785 0.950 . S
H3762 C3786 0.950 . S
H3763 C3787 0.951 . S
H3764 C3789 0.951 . S
H3765 C3791 0.950 . S
H3766 C3792 0.950 . S
H3767 C3794 0.950 . S
H3768 C3797 0.950 . S
H3769 C3798 0.950 . S
H3770 C3800 0.950 . S
H3771 C3801 0.950 . S
C3772 H3754 0.951 . S
C3772 C3773 1.366 . S
C3772 C3774 1.388 . S
C3773 C3772 1.366 . S
C3773 C3777 1.385 . S
C3774 H3755 0.951 . S
C3774 C3772 1.388 . S
C3774 C3775 1.366 . S
C3775 C3774 1.366 . S
C3775 C3776 1.414 . S
C3775 C3778 1.499 . S
C3776 H3756 0.950 . S
C3776 C3775 1.414 . S
C3776 C3777 1.374 . S
C3777 H3757 0.950 . S
C3777 C3773 1.385 . S
C3777 C3776 1.374 . S
C3778 C3775 1.499 . S
C3778 C3779 1.373 . S
C3778 C3780 1.389 . S
C3779 H3758 0.950 . S
C3779 C3778 1.373 . S
C3779 C3795 1.377 . S
C3780 C3778 1.389 . S
C3780 C3781 1.524 . S
C3780 C3794 1.377 . S
C3781 C3780 1.524 . S
C3781 C3782 1.397 . S
C3781 C3786 1.363 . S
C3782 H3759 0.950 . S
C3782 C3781 1.397 . S
C3782 C3783 1.334 . S
C3783 H3760 0.950 . S
C3783 C3782 1.334 . S
C3783 C3784 1.287 . S
C3784 C3783 1.287 . S
C3784 C3785 1.524 . S
C3784 H3803 0.913 . S
C3785 H3761 0.950 . S
C3785 C3784 1.524 . S
C3785 C3786 1.415 . S
C3786 H3762 0.950 . S
C3786 C3781 1.363 . S
C3786 C3785 1.415 . S
C3787 H3763 0.951 . S
C3787 C3788 1.366 . S
C3787 C3789 1.388 . S
C3788 C3787 1.366 . S
C3788 C3792 1.385 . S
C3789 H3764 0.951 . S
C3789 C3787 1.388 . S
C3789 C3790 1.366 . S
C3790 C3789 1.366 . S
C3790 C3791 1.414 . S
C3790 C3793 1.499 . S
C3791 H3765 0.950 . S
C3791 C3790 1.414 . S
C3791 C3792 1.374 . S
C3792 H3766 0.950 . S
C3792 C3788 1.385 . S
C3792 C3791 1.374 . S
C3793 C3790 1.499 . S
C3793 C3794 1.373 . S
C3793 C3795 1.389 . S
C3794 H3767 0.950 . S
C3794 C3780 1.377 . S
C3794 C3793 1.373 . S
C3795 C3779 1.377 . S
C3795 C3793 1.389 . S
C3795 C3796 1.524 . S
C3796 C3795 1.524 . S
C3796 C3797 1.397 . S
C3796 C3801 1.363 . S
C3797 H3768 0.950 . S
C3797 C3796 1.397 . S
C3797 C3798 1.334 . S
C3798 H3769 0.950 . S
C3798 C3797 1.334 . S
C3798 C3799 1.287 . S
C3799 C3798 1.287 . S
C3799 C3800 1.524 . S
C3799 H3802 0.999 . S
C3800 H3770 0.950 . S
C3800 C3799 1.524 . S
C3800 C3801 1.415 . S
C3801 H3771 0.950 . S
C3801 C3796 1.363 . S
C3801 C3800 1.415 . S
H3802 C3799 0.999 . S
H3803 C3784 0.913 . S
H3804 C3822 0.951 . S
H3805 C3824 0.951 . S
H3806 C3826 0.950 . S
H3807 C3827 0.950 . S
H3808 C3829 0.950 . S
H3809 C3832 0.950 . S
H3810 C3833 0.950 . S
H3811 C3835 0.950 . S
H3812 C3836 0.950 . S
H3813 C3837 0.951 . S
H3814 C3839 0.951 . S
H3815 C3841 0.950 . S
H3816 C3842 0.950 . S
H3817 C3844 0.950 . S
H3818 C3847 0.950 . S
H3819 C3848 0.950 . S
H3820 C3850 0.950 . S
H3821 C3851 0.950 . S
C3822 H3804 0.951 . S
C3822 C3823 1.366 . S
C3822 C3824 1.388 . S
C3823 C3822 1.366 . S
C3823 C3827 1.385 . S
C3824 H3805 0.951 . S
C3824 C3822 1.388 . S
C3824 C3825 1.366 . S
C3825 C3824 1.366 . S
C3825 C3826 1.414 . S
C3825 C3828 1.499 . S
C3826 H3806 0.950 . S
C3826 C3825 1.414 . S
C3826 C3827 1.374 . S
C3827 H3807 0.950 . S
C3827 C3823 1.385 . S
C3827 C3826 1.374 . S
C3828 C3825 1.499 . S
C3828 C3829 1.373 . S
C3828 C3830 1.389 . S
C3829 H3808 0.950 . S
C3829 C3828 1.373 . S
C3829 C3845 1.377 . S
C3830 C3828 1.389 . S
C3830 C3831 1.524 . S
C3830 C3844 1.377 . S
C3831 C3830 1.524 . S
C3831 C3832 1.397 . S
C3831 C3836 1.363 . S
C3832 H3809 0.950 . S
C3832 C3831 1.397 . S
C3832 C3833 1.334 . S
C3833 H3810 0.950 . S
C3833 C3832 1.334 . S
C3833 C3834 1.287 . S
C3834 C3833 1.287 . S
C3834 C3835 1.524 . S
C3834 H3853 0.913 . S
C3835 H3811 0.950 . S
C3835 C3834 1.524 . S
C3835 C3836 1.415 . S
C3836 H3812 0.950 . S
C3836 C3831 1.363 . S
C3836 C3835 1.415 . S
C3837 H3813 0.951 . S
C3837 C3838 1.366 . S
C3837 C3839 1.388 . S
C3838 C3837 1.366 . S
C3838 C3842 1.385 . S
C3839 H3814 0.951 . S
C3839 C3837 1.388 . S
C3839 C3840 1.366 . S
C3840 C3839 1.366 . S
C3840 C3841 1.414 . S
C3840 C3843 1.499 . S
C3841 H3815 0.950 . S
C3841 C3840 1.414 . S
C3841 C3842 1.374 . S
C3842 H3816 0.950 . S
C3842 C3838 1.385 . S
C3842 C3841 1.374 . S
C3843 C3840 1.499 . S
C3843 C3844 1.373 . S
C3843 C3845 1.389 . S
C3844 H3817 0.950 . S
C3844 C3830 1.377 . S
C3844 C3843 1.373 . S
C3845 C3829 1.377 . S
C3845 C3843 1.389 . S
C3845 C3846 1.524 . S
C3846 C3845 1.524 . S
C3846 C3847 1.397 . S
C3846 C3851 1.363 . S
C3847 H3818 0.950 . S
C3847 C3846 1.397 . S
C3847 C3848 1.334 . S
C3848 H3819 0.950 . S
C3848 C3847 1.334 . S
C3848 C3849 1.287 . S
C3849 C3848 1.287 . S
C3849 C3850 1.524 . S
C3849 H3852 0.999 . S
C3850 H3820 0.950 . S
C3850 C3849 1.524 . S
C3850 C3851 1.415 . S
C3851 H3821 0.950 . S
C3851 C3846 1.363 . S
C3851 C3850 1.415 . S
H3852 C3849 0.999 . S
H3853 C3834 0.913 . S
H3854 C3872 0.951 . S
H3855 C3874 0.951 . S
H3856 C3876 0.950 . S
H3857 C3877 0.950 . S
H3858 C3879 0.950 . S
H3859 C3882 0.950 . S
H3860 C3883 0.950 . S
H3861 C3885 0.950 . S
H3862 C3886 0.950 . S
H3863 C3887 0.951 . S
H3864 C3889 0.951 . S
H3865 C3891 0.950 . S
H3866 C3892 0.950 . S
H3867 C3894 0.950 . S
H3868 C3897 0.950 . S
H3869 C3898 0.950 . S
H3870 C3900 0.950 . S
H3871 C3901 0.950 . S
C3872 H3854 0.951 . S
C3872 C3873 1.366 . S
C3872 C3874 1.388 . S
C3873 C3872 1.366 . S
C3873 C3877 1.385 . S
C3874 H3855 0.951 . S
C3874 C3872 1.388 . S
C3874 C3875 1.366 . S
C3875 C3874 1.366 . S
C3875 C3876 1.414 . S
C3875 C3878 1.499 . S
C3876 H3856 0.950 . S
C3876 C3875 1.414 . S
C3876 C3877 1.374 . S
C3877 H3857 0.950 . S
C3877 C3873 1.385 . S
C3877 C3876 1.374 . S
C3878 C3875 1.499 . S
C3878 C3879 1.373 . S
C3878 C3880 1.389 . S
C3879 H3858 0.950 . S
C3879 C3878 1.373 . S
C3879 C3895 1.377 . S
C3880 C3878 1.389 . S
C3880 C3881 1.524 . S
C3880 C3894 1.377 . S
C3881 C3880 1.524 . S
C3881 C3882 1.397 . S
C3881 C3886 1.363 . S
C3882 H3859 0.950 . S
C3882 C3881 1.397 . S
C3882 C3883 1.334 . S
C3883 H3860 0.950 . S
C3883 C3882 1.334 . S
C3883 C3884 1.287 . S
C3884 C3883 1.287 . S
C3884 C3885 1.524 . S
C3884 H3903 0.913 . S
C3885 H3861 0.950 . S
C3885 C3884 1.524 . S
C3885 C3886 1.415 . S
C3886 H3862 0.950 . S
C3886 C3881 1.363 . S
C3886 C3885 1.415 . S
C3887 H3863 0.951 . S
C3887 C3888 1.366 . S
C3887 C3889 1.388 . S
C3888 C3887 1.366 . S
C3888 C3892 1.385 . S
C3889 H3864 0.951 . S
C3889 C3887 1.388 . S
C3889 C3890 1.366 . S
C3890 C3889 1.366 . S
C3890 C3891 1.414 . S
C3890 C3893 1.499 . S
C3891 H3865 0.950 . S
C3891 C3890 1.414 . S
C3891 C3892 1.374 . S
C3892 H3866 0.950 . S
C3892 C3888 1.385 . S
C3892 C3891 1.374 . S
C3893 C3890 1.499 . S
C3893 C3894 1.373 . S
C3893 C3895 1.389 . S
C3894 H3867 0.950 . S
C3894 C3880 1.377 . S
C3894 C3893 1.373 . S
C3895 C3879 1.377 . S
C3895 C3893 1.389 . S
C3895 C3896 1.524 . S
C3896 C3895 1.524 . S
C3896 C3897 1.397 . S
C3896 C3901 1.363 . S
C3897 H3868 0.950 . S
C3897 C3896 1.397 . S
C3897 C3898 1.334 . S
C3898 H3869 0.950 . S
C3898 C3897 1.334 . S
C3898 C3899 1.287 . S
C3899 C3898 1.287 . S
C3899 C3900 1.524 . S
C3899 H3902 0.999 . S
C3900 H3870 0.950 . S
C3900 C3899 1.524 . S
C3900 C3901 1.415 . S
C3901 H3871 0.950 . S
C3901 C3896 1.363 . S
C3901 C3900 1.415 . S
H3902 C3899 0.999 . S
H3903 C3884 0.913 . S
H3904 C3922 0.951 . S
H3905 C3924 0.951 . S
H3906 C3926 0.950 . S
H3907 C3927 0.950 . S
H3908 C3929 0.950 . S
H3909 C3932 0.950 . S
H3910 C3933 0.950 . S
H3911 C3935 0.950 . S
H3912 C3936 0.950 . S
H3913 C3937 0.951 . S
H3914 C3939 0.951 . S
H3915 C3941 0.950 . S
H3916 C3942 0.950 . S
H3917 C3944 0.950 . S
H3918 C3947 0.950 . S
H3919 C3948 0.950 . S
H3920 C3950 0.950 . S
H3921 C3951 0.950 . S
C3922 H3904 0.951 . S
C3922 C3923 1.366 . S
C3922 C3924 1.388 . S
C3923 C3922 1.366 . S
C3923 C3927 1.385 . S
C3924 H3905 0.951 . S
C3924 C3922 1.388 . S
C3924 C3925 1.366 . S
C3925 C3924 1.366 . S
C3925 C3926 1.414 . S
C3925 C3928 1.499 . S
C3926 H3906 0.950 . S
C3926 C3925 1.414 . S
C3926 C3927 1.374 . S
C3927 H3907 0.950 . S
C3927 C3923 1.385 . S
C3927 C3926 1.374 . S
C3928 C3925 1.499 . S
C3928 C3929 1.373 . S
C3928 C3930 1.389 . S
C3929 H3908 0.950 . S
C3929 C3928 1.373 . S
C3929 C3945 1.377 . S
C3930 C3928 1.389 . S
C3930 C3931 1.524 . S
C3930 C3944 1.377 . S
C3931 C3930 1.524 . S
C3931 C3932 1.397 . S
C3931 C3936 1.363 . S
C3932 H3909 0.950 . S
C3932 C3931 1.397 . S
C3932 C3933 1.334 . S
C3933 H3910 0.950 . S
C3933 C3932 1.334 . S
C3933 C3934 1.287 . S
C3934 C3933 1.287 . S
C3934 C3935 1.524 . S
C3934 H3953 0.913 . S
C3935 H3911 0.950 . S
C3935 C3934 1.524 . S
C3935 C3936 1.415 . S
C3936 H3912 0.950 . S
C3936 C3931 1.363 . S
C3936 C3935 1.415 . S
C3937 H3913 0.951 . S
C3937 C3938 1.366 . S
C3937 C3939 1.388 . S
C3938 C3937 1.366 . S
C3938 C3942 1.385 . S
C3939 H3914 0.951 . S
C3939 C3937 1.388 . S
C3939 C3940 1.366 . S
C3940 C3939 1.366 . S
C3940 C3941 1.414 . S
C3940 C3943 1.499 . S
C3941 H3915 0.950 . S
C3941 C3940 1.414 . S
C3941 C3942 1.374 . S
C3942 H3916 0.950 . S
C3942 C3938 1.385 . S
C3942 C3941 1.374 . S
C3943 C3940 1.499 . S
C3943 C3944 1.373 . S
C3943 C3945 1.389 . S
C3944 H3917 0.950 . S
C3944 C3930 1.377 . S
C3944 C3943 1.373 . S
C3945 C3929 1.377 . S
C3945 C3943 1.389 . S
C3945 C3946 1.524 . S
C3946 C3945 1.524 . S
C3946 C3947 1.397 . S
C3946 C3951 1.363 . S
C3947 H3918 0.950 . S
C3947 C3946 1.397 . S
C3947 C3948 1.334 . S
C3948 H3919 0.950 . S
C3948 C3947 1.334 . S
C3948 C3949 1.287 . S
C3949 C3948 1.287 . S
C3949 C3950 1.524 . S
C3949 H3952 0.999 . S
C3950 H3920 0.950 . S
C3950 C3949 1.524 . S
C3950 C3951 1.415 . S
C3951 H3921 0.950 . S
C3951 C3946 1.363 . S
C3951 C3950 1.415 . S
H3952 C3949 0.999 . S
H3953 C3934 0.913 . S
H3954 C3972 0.951 . S
H3955 C3974 0.951 . S
H3956 C3976 0.950 . S
H3957 C3977 0.950 . S
H3958 C3979 0.950 . S
H3959 C3982 0.950 . S
H3960 C3983 0.950 . S
H3961 C3985 0.950 . S
H3962 C3986 0.950 . S
H3963 C3987 0.951 . S
H3964 C3989 0.951 . S
H3965 C3991 0.950 . S
H3966 C3992 0.950 . S
H3967 C3994 0.950 . S
H3968 C3997 0.950 . S
H3969 C3998 0.950 . S
H3970 C4000 0.950 . S
H3971 C4001 0.950 . S
C3972 H3954 0.951 . S
C3972 C3973 1.366 . S
C3972 C3974 1.388 . S
C3973 C3972 1.366 . S
C3973 C3977 1.385 . S
C3974 H3955 0.951 . S
C3974 C3972 1.388 . S
C3974 C3975 1.366 . S
C3975 C3974 1.366 . S
C3975 C3976 1.414 . S
C3975 C3978 1.499 . S
C3976 H3956 0.950 . S
C3976 C3975 1.414 . S
C3976 C3977 1.374 . S
C3977 H3957 0.950 . S
C3977 C3973 1.385 . S
C3977 C3976 1.374 . S
C3978 C3975 1.499 . S
C3978 C3979 1.373 . S
C3978 C3980 1.389 . S
C3979 H3958 0.950 . S
C3979 C3978 1.373 . S
C3979 C3995 1.377 . S
C3980 C3978 1.389 . S
C3980 C3981 1.524 . S
C3980 C3994 1.377 . S
C3981 C3980 1.524 . S
C3981 C3982 1.397 . S
C3981 C3986 1.363 . S
C3982 H3959 0.950 . S
C3982 C3981 1.397 . S
C3982 C3983 1.334 . S
C3983 H3960 0.950 . S
C3983 C3982 1.334 . S
C3983 C3984 1.287 . S
C3984 C3983 1.287 . S
C3984 C3985 1.524 . S
C3984 H4003 0.913 . S
C3985 H3961 0.950 . S
C3985 C3984 1.524 . S
C3985 C3986 1.415 . S
C3986 H3962 0.950 . S
C3986 C3981 1.363 . S
C3986 C3985 1.415 . S
C3987 H3963 0.951 . S
C3987 C3988 1.366 . S
C3987 C3989 1.388 . S
C3988 C3987 1.366 . S
C3988 C3992 1.385 . S
C3989 H3964 0.951 . S
C3989 C3987 1.388 . S
C3989 C3990 1.366 . S
C3990 C3989 1.366 . S
C3990 C3991 1.414 . S
C3990 C3993 1.499 . S
C3991 H3965 0.950 . S
C3991 C3990 1.414 . S
C3991 C3992 1.374 . S
C3992 H3966 0.950 . S
C3992 C3988 1.385 . S
C3992 C3991 1.374 . S
C3993 C3990 1.499 . S
C3993 C3994 1.373 . S
C3993 C3995 1.389 . S
C3994 H3967 0.950 . S
C3994 C3980 1.377 . S
C3994 C3993 1.373 . S
C3995 C3979 1.377 . S
C3995 C3993 1.389 . S
C3995 C3996 1.524 . S
C3996 C3995 1.524 . S
C3996 C3997 1.397 . S
C3996 C4001 1.363 . S
C3997 H3968 0.950 . S
C3997 C3996 1.397 . S
C3997 C3998 1.334 . S
C3998 H3969 0.950 . S
C3998 C3997 1.334 . S
C3998 C3999 1.287 . S
C3999 C3998 1.287 . S
C3999 C4000 1.524 . S
C3999 H4002 0.999 . S
C4000 H3970 0.950 . S
C4000 C3999 1.524 . S
C4000 C4001 1.415 . S
C4001 H3971 0.950 . S
C4001 C3996 1.363 . S
C4001 C4000 1.415 . S
H4002 C3999 0.999 . S
H4003 C3984 0.913 . S
H4004 C4022 0.951 . S
H4005 C4024 0.951 . S
H4006 C4026 0.950 . S
H4007 C4027 0.950 . S
H4008 C4029 0.950 . S
H4009 C4032 0.950 . S
H4010 C4033 0.950 . S
H4011 C4035 0.950 . S
H4012 C4036 0.950 . S
H4013 C4037 0.951 . S
H4014 C4039 0.951 . S
H4015 C4041 0.950 . S
H4016 C4042 0.950 . S
H4017 C4044 0.950 . S
H4018 C4047 0.950 . S
H4019 C4048 0.950 . S
H4020 C4050 0.950 . S
H4021 C4051 0.950 . S
C4022 H4004 0.951 . S
C4022 C4023 1.366 . S
C4022 C4024 1.388 . S
C4023 C4022 1.366 . S
C4023 C4027 1.385 . S
C4024 H4005 0.951 . S
C4024 C4022 1.388 . S
C4024 C4025 1.366 . S
C4025 C4024 1.366 . S
C4025 C4026 1.414 . S
C4025 C4028 1.499 . S
C4026 H4006 0.950 . S
C4026 C4025 1.414 . S
C4026 C4027 1.374 . S
C4027 H4007 0.950 . S
C4027 C4023 1.385 . S
C4027 C4026 1.374 . S
C4028 C4025 1.499 . S
C4028 C4029 1.373 . S
C4028 C4030 1.389 . S
C4029 H4008 0.950 . S
C4029 C4028 1.373 . S
C4029 C4045 1.377 . S
C4030 C4028 1.389 . S
C4030 C4031 1.524 . S
C4030 C4044 1.377 . S
C4031 C4030 1.524 . S
C4031 C4032 1.397 . S
C4031 C4036 1.363 . S
C4032 H4009 0.950 . S
C4032 C4031 1.397 . S
C4032 C4033 1.334 . S
C4033 H4010 0.950 . S
C4033 C4032 1.334 . S
C4033 C4034 1.287 . S
C4034 C4033 1.287 . S
C4034 C4035 1.524 . S
C4034 H4053 0.913 . S
C4035 H4011 0.950 . S
C4035 C4034 1.524 . S
C4035 C4036 1.415 . S
C4036 H4012 0.950 . S
C4036 C4031 1.363 . S
C4036 C4035 1.415 . S
C4037 H4013 0.951 . S
C4037 C4038 1.366 . S
C4037 C4039 1.388 . S
C4038 C4037 1.366 . S
C4038 C4042 1.385 . S
C4039 H4014 0.951 . S
C4039 C4037 1.388 . S
C4039 C4040 1.366 . S
C4040 C4039 1.366 . S
C4040 C4041 1.414 . S
C4040 C4043 1.499 . S
C4041 H4015 0.950 . S
C4041 C4040 1.414 . S
C4041 C4042 1.374 . S
C4042 H4016 0.950 . S
C4042 C4038 1.385 . S
C4042 C4041 1.374 . S
C4043 C4040 1.499 . S
C4043 C4044 1.373 . S
C4043 C4045 1.389 . S
C4044 H4017 0.950 . S
C4044 C4030 1.377 . S
C4044 C4043 1.373 . S
C4045 C4029 1.377 . S
C4045 C4043 1.389 . S
C4045 C4046 1.524 . S
C4046 C4045 1.524 . S
C4046 C4047 1.397 . S
C4046 C4051 1.363 . S
C4047 H4018 0.950 . S
C4047 C4046 1.397 . S
C4047 C4048 1.334 . S
C4048 H4019 0.950 . S
C4048 C4047 1.334 . S
C4048 C4049 1.287 . S
C4049 C4048 1.287 . S
C4049 C4050 1.524 . S
C4049 H4052 0.999 . S
C4050 H4020 0.950 . S
C4050 C4049 1.524 . S
C4050 C4051 1.415 . S
C4051 H4021 0.950 . S
C4051 C4046 1.363 . S
C4051 C4050 1.415 . S
H4052 C4049 0.999 . S
H4053 C4034 0.913 . S
H4054 C4072 0.951 . S
H4055 C4074 0.951 . S
H4056 C4076 0.950 . S
H4057 C4077 0.950 . S
H4058 C4079 0.950 . S
H4059 C4082 0.950 . S
H4060 C4083 0.950 . S
H4061 C4085 0.950 . S
H4062 C4086 0.950 . S
H4063 C4087 0.951 . S
H4064 C4089 0.951 . S
H4065 C4091 0.950 . S
H4066 C4092 0.950 . S
H4067 C4094 0.950 . S
H4068 C4097 0.950 . S
H4069 C4098 0.950 . S
H4070 C4100 0.950 . S
H4071 C4101 0.950 . S
C4072 H4054 0.951 . S
C4072 C4073 1.366 . S
C4072 C4074 1.388 . S
C4073 C4072 1.366 . S
C4073 C4077 1.385 . S
C4074 H4055 0.951 . S
C4074 C4072 1.388 . S
C4074 C4075 1.366 . S
C4075 C4074 1.366 . S
C4075 C4076 1.414 . S
C4075 C4078 1.499 . S
C4076 H4056 0.950 . S
C4076 C4075 1.414 . S
C4076 C4077 1.374 . S
C4077 H4057 0.950 . S
C4077 C4073 1.385 . S
C4077 C4076 1.374 . S
C4078 C4075 1.499 . S
C4078 C4079 1.373 . S
C4078 C4080 1.389 . S
C4079 H4058 0.950 . S
C4079 C4078 1.373 . S
C4079 C4095 1.377 . S
C4080 C4078 1.389 . S
C4080 C4081 1.524 . S
C4080 C4094 1.377 . S
C4081 C4080 1.524 . S
C4081 C4082 1.397 . S
C4081 C4086 1.363 . S
C4082 H4059 0.950 . S
C4082 C4081 1.397 . S
C4082 C4083 1.334 . S
C4083 H4060 0.950 . S
C4083 C4082 1.334 . S
C4083 C4084 1.287 . S
C4084 C4083 1.287 . S
C4084 C4085 1.524 . S
C4084 H4103 0.913 . S
C4085 H4061 0.950 . S
C4085 C4084 1.524 . S
C4085 C4086 1.415 . S
C4086 H4062 0.950 . S
C4086 C4081 1.363 . S
C4086 C4085 1.415 . S
C4087 H4063 0.951 . S
C4087 C4088 1.366 . S
C4087 C4089 1.388 . S
C4088 C4087 1.366 . S
C4088 C4092 1.385 . S
C4089 H4064 0.951 . S
C4089 C4087 1.388 . S
C4089 C4090 1.366 . S
C4090 C4089 1.366 . S
C4090 C4091 1.414 . S
C4090 C4093 1.499 . S
C4091 H4065 0.950 . S
C4091 C4090 1.414 . S
C4091 C4092 1.374 . S
C4092 H4066 0.950 . S
C4092 C4088 1.385 . S
C4092 C4091 1.374 . S
C4093 C4090 1.499 . S
C4093 C4094 1.373 . S
C4093 C4095 1.389 . S
C4094 H4067 0.950 . S
C4094 C4080 1.377 . S
C4094 C4093 1.373 . S
C4095 C4079 1.377 . S
C4095 C4093 1.389 . S
C4095 C4096 1.524 . S
C4096 C4095 1.524 . S
C4096 C4097 1.397 . S
C4096 C4101 1.363 . S
C4097 H4068 0.950 . S
C4097 C4096 1.397 . S
C4097 C4098 1.334 . S
C4098 H4069 0.950 . S
C4098 C4097 1.334 . S
C4098 C4099 1.287 . S
C4099 C4098 1.287 . S
C4099 C4100 1.524 . S
C4099 H4102 0.999 . S
C4100 H4070 0.950 . S
C4100 C4099 1.524 . S
C4100 C4101 1.415 . S
C4101 H4071 0.950 . S
C4101 C4096 1.363 . S
C4101 C4100 1.415 . S
H4102 C4099 0.999 . S
H4103 C4084 0.913 . S
H4104 C4122 0.951 . S
H4105 C4124 0.951 . S
H4106 C4126 0.950 . S
H4107 C4127 0.950 . S
H4108 C4129 0.950 . S
H4109 C4132 0.950 . S
H4110 C4133 0.950 . S
H4111 C4135 0.950 1_655 S
H4112 C4136 0.950 . S
H4113 C4137 0.951 . S
H4114 C4139 0.951 . S
H4115 C4141 0.950 . S
H4116 C4142 0.950 . S
H4117 C4144 0.950 . S
H4118 C4147 0.950 . S
H4119 C4148 0.950 . S
H4120 C4150 0.950 . S
H4121 C4151 0.950 . S
C4122 H4104 0.951 . S
C4122 C4123 1.366 . S
C4122 C4124 1.388 . S
C4123 C4122 1.366 . S
C4123 C4127 1.385 . S
C4124 H4105 0.951 . S
C4124 C4122 1.388 . S
C4124 C4125 1.366 . S
C4125 C4124 1.366 . S
C4125 C4126 1.414 . S
C4125 C4128 1.499 . S
C4126 H4106 0.950 . S
C4126 C4125 1.414 . S
C4126 C4127 1.374 . S
C4127 H4107 0.950 . S
C4127 C4123 1.385 . S
C4127 C4126 1.374 . S
C4128 C4125 1.499 . S
C4128 C4129 1.373 . S
C4128 C4130 1.389 . S
C4129 H4108 0.950 . S
C4129 C4128 1.373 . S
C4129 C4145 1.377 . S
C4130 C4128 1.389 . S
C4130 C4131 1.524 . S
C4130 C4144 1.377 . S
C4131 C4130 1.524 . S
C4131 C4132 1.397 . S
C4131 C4136 1.363 . S
C4132 H4109 0.950 . S
C4132 C4131 1.397 . S
C4132 C4133 1.334 . S
C4133 H4110 0.950 . S
C4133 C4132 1.334 . S
C4133 C4134 1.287 . S
C4134 C4133 1.287 . S
C4134 C4135 1.524 . S
C4134 H4153 0.913 1_455 S
C4135 H4111 0.950 1_455 S
C4135 C4134 1.524 . S
C4135 C4136 1.415 . S
C4136 H4112 0.950 . S
C4136 C4131 1.363 . S
C4136 C4135 1.415 . S
C4137 H4113 0.951 . S
C4137 C4138 1.366 . S
C4137 C4139 1.388 . S
C4138 C4137 1.366 . S
C4138 C4142 1.385 . S
C4139 H4114 0.951 . S
C4139 C4137 1.388 . S
C4139 C4140 1.366 . S
C4140 C4139 1.366 . S
C4140 C4141 1.414 . S
C4140 C4143 1.499 . S
C4141 H4115 0.950 . S
C4141 C4140 1.414 . S
C4141 C4142 1.374 . S
C4142 H4116 0.950 . S
C4142 C4138 1.385 . S
C4142 C4141 1.374 . S
C4143 C4140 1.499 . S
C4143 C4144 1.373 . S
C4143 C4145 1.389 . S
C4144 H4117 0.950 . S
C4144 C4130 1.377 . S
C4144 C4143 1.373 . S
C4145 C4129 1.377 . S
C4145 C4143 1.389 . S
C4145 C4146 1.524 . S
C4146 C4145 1.524 . S
C4146 C4147 1.397 . S
C4146 C4151 1.363 . S
C4147 H4118 0.950 . S
C4147 C4146 1.397 . S
C4147 C4148 1.334 . S
C4148 H4119 0.950 . S
C4148 C4147 1.334 . S
C4148 C4149 1.287 . S
C4149 C4148 1.287 . S
C4149 C4150 1.524 . S
C4149 H4152 0.999 . S
C4150 H4120 0.950 . S
C4150 C4149 1.524 . S
C4150 C4151 1.415 . S
C4151 H4121 0.950 . S
C4151 C4146 1.363 . S
C4151 C4150 1.415 . S
H4152 C4149 0.999 . S
H4153 C4134 0.913 1_655 S
H4154 C4172 0.951 . S
H4155 C4174 0.951 . S
H4156 C4176 0.950 . S
H4157 C4177 0.950 . S
H4158 C4179 0.950 . S
H4159 C4182 0.950 . S
H4160 C4183 0.950 . S
H4161 C4185 0.950 . S
H4162 C4186 0.950 . S
H4163 C4187 0.951 . S
H4164 C4189 0.951 . S
H4165 C4191 0.950 . S
H4166 C4192 0.950 . S
H4167 C4194 0.950 . S
H4168 C4197 0.950 . S
H4169 C4198 0.950 . S
H4170 C4200 0.950 . S
H4171 C4201 0.950 . S
C4172 H4154 0.951 . S
C4172 C4173 1.366 . S
C4172 C4174 1.388 . S
C4173 C4172 1.366 . S
C4173 C4177 1.385 . S
C4174 H4155 0.951 . S
C4174 C4172 1.388 . S
C4174 C4175 1.366 . S
C4175 C4174 1.366 . S
C4175 C4176 1.414 . S
C4175 C4178 1.499 . S
C4176 H4156 0.950 . S
C4176 C4175 1.414 . S
C4176 C4177 1.374 . S
C4177 H4157 0.950 . S
C4177 C4173 1.385 . S
C4177 C4176 1.374 . S
C4178 C4175 1.499 . S
C4178 C4179 1.373 . S
C4178 C4180 1.389 . S
C4179 H4158 0.950 . S
C4179 C4178 1.373 . S
C4179 C4195 1.377 . S
C4180 C4178 1.389 . S
C4180 C4181 1.524 . S
C4180 C4194 1.377 . S
C4181 C4180 1.524 . S
C4181 C4182 1.397 . S
C4181 C4186 1.363 . S
C4182 H4159 0.950 . S
C4182 C4181 1.397 . S
C4182 C4183 1.334 . S
C4183 H4160 0.950 . S
C4183 C4182 1.334 . S
C4183 C4184 1.287 . S
C4184 C4183 1.287 . S
C4184 C4185 1.524 . S
C4184 H4203 0.913 . S
C4185 H4161 0.950 . S
C4185 C4184 1.524 . S
C4185 C4186 1.415 . S
C4186 H4162 0.950 . S
C4186 C4181 1.363 . S
C4186 C4185 1.415 . S
C4187 H4163 0.951 . S
C4187 C4188 1.366 . S
C4187 C4189 1.388 . S
C4188 C4187 1.366 . S
C4188 C4192 1.385 . S
C4189 H4164 0.951 . S
C4189 C4187 1.388 . S
C4189 C4190 1.366 . S
C4190 C4189 1.366 . S
C4190 C4191 1.414 . S
C4190 C4193 1.499 . S
C4191 H4165 0.950 . S
C4191 C4190 1.414 . S
C4191 C4192 1.374 . S
C4192 H4166 0.950 . S
C4192 C4188 1.385 . S
C4192 C4191 1.374 . S
C4193 C4190 1.499 . S
C4193 C4194 1.373 . S
C4193 C4195 1.389 . S
C4194 H4167 0.950 . S
C4194 C4180 1.377 . S
C4194 C4193 1.373 . S
C4195 C4179 1.377 . S
C4195 C4193 1.389 . S
C4195 C4196 1.524 . S
C4196 C4195 1.524 . S
C4196 C4197 1.397 . S
C4196 C4201 1.363 . S
C4197 H4168 0.950 . S
C4197 C4196 1.397 . S
C4197 C4198 1.334 . S
C4198 H4169 0.950 . S
C4198 C4197 1.334 . S
C4198 C4199 1.287 . S
C4199 C4198 1.287 . S
C4199 C4200 1.524 . S
C4199 H4202 0.999 . S
C4200 H4170 0.950 . S
C4200 C4199 1.524 . S
C4200 C4201 1.415 . S
C4201 H4171 0.950 . S
C4201 C4196 1.363 . S
C4201 C4200 1.415 . S
H4202 C4199 0.999 . S
H4203 C4184 0.913 . S
H4204 C4222 0.951 . S
H4205 C4224 0.951 . S
H4206 C4226 0.950 . S
H4207 C4227 0.950 . S
H4208 C4229 0.950 . S
H4209 C4232 0.950 . S
H4210 C4233 0.950 . S
H4211 C4235 0.950 . S
H4212 C4236 0.950 . S
H4213 C4237 0.951 . S
H4214 C4239 0.951 . S
H4215 C4241 0.950 . S
H4216 C4242 0.950 . S
H4217 C4244 0.950 . S
H4218 C4247 0.950 . S
H4219 C4248 0.950 . S
H4220 C4250 0.950 . S
H4221 C4251 0.950 . S
C4222 H4204 0.951 . S
C4222 C4223 1.366 . S
C4222 C4224 1.388 . S
C4223 C4222 1.366 . S
C4223 C4227 1.385 . S
C4224 H4205 0.951 . S
C4224 C4222 1.388 . S
C4224 C4225 1.366 . S
C4225 C4224 1.366 . S
C4225 C4226 1.414 . S
C4225 C4228 1.499 . S
C4226 H4206 0.950 . S
C4226 C4225 1.414 . S
C4226 C4227 1.374 . S
C4227 H4207 0.950 . S
C4227 C4223 1.385 . S
C4227 C4226 1.374 . S
C4228 C4225 1.499 . S
C4228 C4229 1.373 . S
C4228 C4230 1.389 . S
C4229 H4208 0.950 . S
C4229 C4228 1.373 . S
C4229 C4245 1.377 . S
C4230 C4228 1.389 . S
C4230 C4231 1.524 . S
C4230 C4244 1.377 . S
C4231 C4230 1.524 . S
C4231 C4232 1.397 . S
C4231 C4236 1.363 . S
C4232 H4209 0.950 . S
C4232 C4231 1.397 . S
C4232 C4233 1.334 . S
C4233 H4210 0.950 . S
C4233 C4232 1.334 . S
C4233 C4234 1.287 . S
C4234 C4233 1.287 . S
C4234 C4235 1.524 . S
C4234 H4253 0.913 . S
C4235 H4211 0.950 . S
C4235 C4234 1.524 . S
C4235 C4236 1.415 . S
C4236 H4212 0.950 . S
C4236 C4231 1.363 . S
C4236 C4235 1.415 . S
C4237 H4213 0.951 . S
C4237 C4238 1.366 . S
C4237 C4239 1.388 . S
C4238 C4237 1.366 . S
C4238 C4242 1.385 . S
C4239 H4214 0.951 . S
C4239 C4237 1.388 . S
C4239 C4240 1.366 . S
C4240 C4239 1.366 . S
C4240 C4241 1.414 . S
C4240 C4243 1.499 . S
C4241 H4215 0.950 . S
C4241 C4240 1.414 . S
C4241 C4242 1.374 . S
C4242 H4216 0.950 . S
C4242 C4238 1.385 . S
C4242 C4241 1.374 . S
C4243 C4240 1.499 . S
C4243 C4244 1.373 . S
C4243 C4245 1.389 . S
C4244 H4217 0.950 . S
C4244 C4230 1.377 . S
C4244 C4243 1.373 . S
C4245 C4229 1.377 . S
C4245 C4243 1.389 . S
C4245 C4246 1.524 . S
C4246 C4245 1.524 . S
C4246 C4247 1.397 . S
C4246 C4251 1.363 . S
C4247 H4218 0.950 . S
C4247 C4246 1.397 . S
C4247 C4248 1.334 . S
C4248 H4219 0.950 . S
C4248 C4247 1.334 . S
C4248 C4249 1.287 . S
C4249 C4248 1.287 . S
C4249 C4250 1.524 . S
C4249 H4252 0.999 . S
C4250 H4220 0.950 . S
C4250 C4249 1.524 . S
C4250 C4251 1.415 . S
C4251 H4221 0.950 . S
C4251 C4246 1.363 . S
C4251 C4250 1.415 . S
H4252 C4249 0.999 . S
H4253 C4234 0.913 . S
H4254 C4272 0.992 . S
H4255 C4274 0.951 . S
H4256 C4276 0.950 . S
H4257 C4277 0.950 . S
H4258 C4279 0.950 . S
H4259 C4282 0.950 . S
H4260 C4283 0.950 . S
H4261 C4285 0.950 . S
H4262 C4286 0.950 . S
H4263 C4287 0.951 . S
H4264 C4289 0.951 . S
H4265 C4291 0.950 . S
H4266 C4292 0.950 . S
H4267 C4294 0.950 . S
H4268 C4297 0.950 . S
H4269 C4298 0.950 . S
H4270 C4300 0.950 . S
H4271 C4301 0.950 . S
C4272 H4254 0.992 . S
C4272 C4273 1.366 . S
C4272 C4274 1.388 . S
C4273 C4272 1.366 . S
C4273 C4277 1.385 . S
C4274 H4255 0.951 . S
C4274 C4272 1.388 . S
C4274 C4275 1.366 . S
C4275 C4274 1.366 . S
C4275 C4276 1.414 . S
C4275 C4278 1.499 . S
C4276 H4256 0.950 . S
C4276 C4275 1.414 . S
C4276 C4277 1.374 . S
C4277 H4257 0.950 . S
C4277 C4273 1.385 . S
C4277 C4276 1.374 . S
C4278 C4275 1.499 . S
C4278 C4279 1.373 . S
C4278 C4280 1.389 . S
C4279 H4258 0.950 . S
C4279 C4278 1.373 . S
C4279 C4295 1.377 . S
C4280 C4278 1.389 . S
C4280 C4281 1.524 . S
C4280 C4294 1.377 . S
C4281 C4280 1.524 . S
C4281 C4282 1.397 . S
C4281 C4286 1.363 . S
C4282 H4259 0.950 . S
C4282 C4281 1.397 . S
C4282 C4283 1.334 1_556 S
C4283 H4260 0.950 . S
C4283 C4282 1.334 1_554 S
C4283 C4284 1.287 . S
C4284 C4283 1.287 . S
C4284 C4285 1.524 . S
C4284 H4303 0.913 . S
C4285 H4261 0.950 . S
C4285 C4284 1.524 . S
C4285 C4286 1.415 1_554 S
C4286 H4262 0.950 . S
C4286 C4281 1.363 . S
C4286 C4285 1.415 1_556 S
C4287 H4263 0.951 . S
C4287 C4288 1.366 . S
C4287 C4289 1.388 . S
C4288 C4287 1.366 . S
C4288 C4292 1.385 . S
C4289 H4264 0.951 . S
C4289 C4287 1.388 . S
C4289 C4290 1.366 . S
C4290 C4289 1.366 . S
C4290 C4291 1.414 . S
C4290 C4293 1.499 . S
C4291 H4265 0.950 . S
C4291 C4290 1.414 . S
C4291 C4292 1.374 . S
C4292 H4266 0.950 . S
C4292 C4288 1.385 . S
C4292 C4291 1.374 . S
C4293 C4290 1.499 . S
C4293 C4294 1.373 . S
C4293 C4295 1.389 . S
C4294 H4267 0.950 . S
C4294 C4280 1.377 . S
C4294 C4293 1.373 . S
C4295 C4279 1.377 . S
C4295 C4293 1.389 . S
C4295 C4296 1.524 . S
C4296 C4295 1.524 . S
C4296 C4297 1.397 . S
C4296 C4301 1.363 . S
C4297 H4268 0.950 . S
C4297 C4296 1.397 . S
C4297 C4298 1.334 . S
C4298 H4269 0.950 . S
C4298 C4297 1.334 . S
C4298 C4299 1.287 . S
C4299 C4298 1.287 . S
C4299 C4300 1.524 . S
C4299 H4302 0.999 . S
C4300 H4270 0.950 . S
C4300 C4299 1.524 . S
C4300 C4301 1.415 . S
C4301 H4271 0.950 . S
C4301 C4296 1.363 . S
C4301 C4300 1.415 . S
H4302 C4299 0.999 . S
H4303 C4284 0.913 . S
H4304 C4322 0.951 . S
H4305 C4324 0.951 . S
H4306 C4326 0.950 . S
H4307 C4327 0.950 . S
H4308 C4329 0.950 . S
H4309 C4332 0.950 . S
H4310 C4333 1.018 . S
H4311 C4335 0.950 . S
H4312 C4336 0.950 . S
H4313 C4337 0.951 . S
H4314 C4339 0.951 . S
H4315 C4341 0.950 . S
H4316 C4342 0.950 . S
H4317 C4344 0.950 . S
H4318 C4347 0.950 . S
H4319 C4348 0.950 . S
H4320 C4350 0.950 . S
H4321 C4351 0.950 . S
C4322 H4304 0.951 . S
C4322 C4323 1.366 . S
C4322 C4324 1.388 . S
C4323 C4322 1.366 . S
C4323 C4327 1.385 . S
C4324 H4305 0.951 . S
C4324 C4322 1.388 . S
C4324 C4325 1.366 . S
C4325 C4324 1.366 . S
C4325 C4326 1.414 . S
C4325 C4328 1.499 . S
C4326 H4306 0.950 . S
C4326 C4325 1.414 . S
C4326 C4327 1.374 . S
C4327 H4307 0.950 . S
C4327 C4323 1.385 . S
C4327 C4326 1.374 . S
C4328 C4325 1.499 . S
C4328 C4329 1.373 . S
C4328 C4330 1.389 . S
C4329 H4308 0.950 . S
C4329 C4328 1.373 . S
C4329 C4345 1.377 . S
C4330 C4328 1.389 . S
C4330 C4331 1.524 . S
C4330 C4344 1.377 . S
C4331 C4330 1.524 . S
C4331 C4332 1.397 . S
C4331 C4336 1.363 . S
C4332 H4309 0.950 . S
C4332 C4331 1.397 . S
C4332 C4333 1.271 1_556 S
C4333 H4310 1.018 . S
C4333 C4332 1.271 1_554 S
C4333 C4334 1.283 1_554 S
C4334 C4333 1.283 1_556 S
C4334 C4335 1.529 . S
C4334 H4353 0.908 1_556 S
C4335 H4311 0.950 . S
C4335 C4334 1.529 . S
C4335 C4336 1.415 . S
C4336 H4312 0.950 . S
C4336 C4331 1.363 . S
C4336 C4335 1.415 . S
C4337 H4313 0.951 . S
C4337 C4338 1.366 . S
C4337 C4339 1.388 . S
C4338 C4337 1.366 . S
C4338 C4342 1.385 . S
C4339 H4314 0.951 . S
C4339 C4337 1.388 . S
C4339 C4340 1.366 . S
C4340 C4339 1.366 . S
C4340 C4341 1.414 . S
C4340 C4343 1.499 . S
C4341 H4315 0.950 . S
C4341 C4340 1.414 . S
C4341 C4342 1.374 . S
C4342 H4316 0.950 . S
C4342 C4338 1.385 . S
C4342 C4341 1.374 . S
C4343 C4340 1.499 . S
C4343 C4344 1.373 . S
C4343 C4345 1.389 . S
C4344 H4317 0.950 . S
C4344 C4330 1.377 . S
C4344 C4343 1.373 . S
C4345 C4329 1.377 . S
C4345 C4343 1.389 . S
C4345 C4346 1.524 . S
C4346 C4345 1.524 . S
C4346 C4347 1.397 . S
C4346 C4351 1.363 . S
C4347 H4318 0.950 . S
C4347 C4346 1.397 . S
C4347 C4348 1.334 . S
C4348 H4319 0.950 . S
C4348 C4347 1.334 . S
C4348 C4349 1.287 . S
C4349 C4348 1.287 . S
C4349 C4350 1.524 . S
C4349 H4352 0.999 . S
C4350 H4320 0.950 . S
C4350 C4349 1.524 . S
C4350 C4351 1.415 . S
C4351 H4321 0.950 . S
C4351 C4346 1.363 . S
C4351 C4350 1.415 . S
H4352 C4349 0.999 . S
H4353 C4334 0.908 1_554 S
H4354 C4372 0.951 1_554 S
H4355 C4374 0.951 . S
H4356 C4376 0.950 . S
H4357 C4377 0.950 . S
H4358 C4379 0.950 . S
H4359 C4382 0.950 . S
H4360 C4383 0.950 . S
H4361 C4385 0.950 1_554 S
H4362 C4386 0.950 . S
H4363 C4387 0.951 . S
H4364 C4389 0.951 . S
H4365 C4391 0.950 . S
H4366 C4392 0.950 . S
H4367 C4394 0.950 . S
H4368 C4397 0.950 . S
H4369 C4398 0.950 . S
H4370 C4400 0.950 . S
H4371 C4401 0.950 . S
C4372 H4354 0.951 1_556 S
C4372 C4373 1.366 . S
C4372 C4374 1.388 . S
C4373 C4372 1.366 . S
C4373 C4377 1.385 . S
C4374 H4355 0.951 . S
C4374 C4372 1.388 . S
C4374 C4375 1.366 . S
C4375 C4374 1.366 . S
C4375 C4376 1.414 . S
C4375 C4378 1.499 . S
C4376 H4356 0.950 . S
C4376 C4375 1.414 . S
C4376 C4377 1.374 . S
C4377 H4357 0.950 . S
C4377 C4373 1.385 . S
C4377 C4376 1.374 . S
C4378 C4375 1.499 . S
C4378 C4379 1.373 . S
C4378 C4380 1.389 . S
C4379 H4358 0.950 . S
C4379 C4378 1.373 . S
C4379 C4395 1.377 . S
C4380 C4378 1.389 . S
C4380 C4381 1.524 . S
C4380 C4394 1.377 . S
C4381 C4380 1.524 . S
C4381 C4382 1.397 . S
C4381 C4386 1.363 . S
C4382 H4359 0.950 . S
C4382 C4381 1.397 . S
C4382 C4383 1.334 . S
C4383 H4360 0.950 . S
C4383 C4382 1.334 . S
C4383 C4384 1.287 . S
C4384 C4383 1.287 . S
C4384 C4385 1.524 . S
C4384 H4403 0.913 . S
C4385 H4361 0.950 1_556 S
C4385 C4384 1.524 . S
C4385 C4386 1.415 . S
C4386 H4362 0.950 . S
C4386 C4381 1.363 . S
C4386 C4385 1.415 . S
C4387 H4363 0.951 . S
C4387 C4388 1.366 . S
C4387 C4389 1.388 . S
C4388 C4387 1.366 . S
C4388 C4392 1.385 . S
C4389 H4364 0.951 . S
C4389 C4387 1.388 . S
C4389 C4390 1.366 . S
C4390 C4389 1.366 . S
C4390 C4391 1.414 . S
C4390 C4393 1.499 . S
C4391 H4365 0.950 . S
C4391 C4390 1.414 . S
C4391 C4392 1.374 . S
C4392 H4366 0.950 . S
C4392 C4388 1.385 . S
C4392 C4391 1.374 . S
C4393 C4390 1.499 . S
C4393 C4394 1.373 . S
C4393 C4395 1.389 . S
C4394 H4367 0.950 . S
C4394 C4380 1.377 . S
C4394 C4393 1.373 . S
C4395 C4379 1.377 . S
C4395 C4393 1.389 . S
C4395 C4396 1.524 . S
C4396 C4395 1.524 . S
C4396 C4397 1.397 . S
C4396 C4401 1.363 . S
C4397 H4368 0.950 . S
C4397 C4396 1.397 . S
C4397 C4398 1.334 . S
C4398 H4369 0.950 . S
C4398 C4397 1.334 . S
C4398 C4399 1.287 . S
C4399 C4398 1.287 . S
C4399 C4400 1.524 . S
C4399 H4402 0.999 . S
C4400 H4370 0.950 . S
C4400 C4399 1.524 . S
C4400 C4401 1.415 . S
C4401 H4371 0.950 . S
C4401 C4396 1.363 . S
C4401 C4400 1.415 . S
H4402 C4399 0.999 . S
H4403 C4384 0.913 . S
H4404 C4422 0.951 . S
H4405 C4424 0.951 . S
H4406 C4426 0.950 . S
H4407 C4427 0.950 . S
H4408 C4429 0.950 . S
H4409 C4432 0.950 . S
H4410 C4433 0.950 . S
H4411 C4435 0.950 . S
H4412 C4436 0.950 . S
H4413 C4437 0.951 . S
H4414 C4439 0.951 . S
H4415 C4441 0.950 . S
H4416 C4442 0.950 . S
H4417 C4444 0.950 . S
H4418 C4447 0.950 . S
H4419 C4448 0.950 . S
H4420 C4450 0.950 . S
H4421 C4451 0.950 . S
C4422 H4404 0.951 . S
C4422 C4423 1.366 . S
C4422 C4424 1.388 . S
C4423 C4422 1.366 . S
C4423 C4427 1.385 . S
C4424 H4405 0.951 . S
C4424 C4422 1.388 . S
C4424 C4425 1.366 . S
C4425 C4424 1.366 . S
C4425 C4426 1.414 . S
C4425 C4428 1.499 . S
C4426 H4406 0.950 . S
C4426 C4425 1.414 . S
C4426 C4427 1.374 . S
C4427 H4407 0.950 . S
C4427 C4423 1.385 . S
C4427 C4426 1.374 . S
C4428 C4425 1.499 . S
C4428 C4429 1.373 . S
C4428 C4430 1.389 . S
C4429 H4408 0.950 . S
C4429 C4428 1.373 . S
C4429 C4445 1.377 . S
C4430 C4428 1.389 . S
C4430 C4431 1.524 . S
C4430 C4444 1.377 . S
C4431 C4430 1.524 . S
C4431 C4432 1.397 . S
C4431 C4436 1.363 . S
C4432 H4409 0.950 . S
C4432 C4431 1.397 . S
C4432 C4433 1.334 . S
C4433 H4410 0.950 . S
C4433 C4432 1.334 . S
C4433 C4434 1.287 . S
C4434 C4433 1.287 . S
C4434 C4435 1.524 . S
C4434 H4453 0.913 . S
C4435 H4411 0.950 . S
C4435 C4434 1.524 . S
C4435 C4436 1.415 . S
C4436 H4412 0.950 . S
C4436 C4431 1.363 . S
C4436 C4435 1.415 . S
C4437 H4413 0.951 . S
C4437 C4438 1.366 . S
C4437 C4439 1.388 . S
C4438 C4437 1.366 . S
C4438 C4442 1.385 . S
C4439 H4414 0.951 . S
C4439 C4437 1.388 . S
C4439 C4440 1.366 . S
C4440 C4439 1.366 . S
C4440 C4441 1.414 . S
C4440 C4443 1.499 . S
C4441 H4415 0.950 . S
C4441 C4440 1.414 . S
C4441 C4442 1.374 . S
C4442 H4416 0.950 . S
C4442 C4438 1.385 . S
C4442 C4441 1.374 . S
C4443 C4440 1.499 . S
C4443 C4444 1.373 . S
C4443 C4445 1.389 . S
C4444 H4417 0.950 . S
C4444 C4430 1.377 . S
C4444 C4443 1.373 . S
C4445 C4429 1.377 . S
C4445 C4443 1.389 . S
C4445 C4446 1.524 . S
C4446 C4445 1.524 . S
C4446 C4447 1.397 . S
C4446 C4451 1.363 . S
C4447 H4418 0.950 . S
C4447 C4446 1.397 . S
C4447 C4448 1.334 . S
C4448 H4419 0.950 . S
C4448 C4447 1.334 . S
C4448 C4449 1.287 . S
C4449 C4448 1.287 . S
C4449 C4450 1.524 . S
C4449 H4452 0.999 . S
C4450 H4420 0.950 . S
C4450 C4449 1.524 . S
C4450 C4451 1.415 . S
C4451 H4421 0.950 . S
C4451 C4446 1.363 . S
C4451 C4450 1.415 . S
H4452 C4449 0.999 . S
H4453 C4434 0.913 . S
H4454 C4472 0.951 . S
H4455 C4474 0.951 . S
H4456 C4476 0.950 . S
H4457 C4477 0.950 . S
H4458 C4479 0.950 . S
H4459 C4482 0.950 . S
H4460 C4483 0.950 . S
H4461 C4485 0.950 . S
H4462 C4486 0.950 . S
H4463 C4487 0.951 . S
H4464 C4489 0.951 . S
H4465 C4491 0.950 . S
H4466 C4492 0.950 . S
H4467 C4494 0.950 . S
H4468 C4497 0.950 . S
H4469 C4498 0.950 . S
H4470 C4500 0.950 . S
H4471 C4501 0.950 . S
C4472 H4454 0.951 . S
C4472 C4473 1.366 . S
C4472 C4474 1.388 . S
C4473 C4472 1.366 . S
C4473 C4477 1.385 . S
C4474 H4455 0.951 . S
C4474 C4472 1.388 . S
C4474 C4475 1.366 . S
C4475 C4474 1.366 . S
C4475 C4476 1.414 . S
C4475 C4478 1.499 . S
C4476 H4456 0.950 . S
C4476 C4475 1.414 . S
C4476 C4477 1.374 . S
C4477 H4457 0.950 . S
C4477 C4473 1.385 . S
C4477 C4476 1.374 . S
C4478 C4475 1.499 . S
C4478 C4479 1.373 . S
C4478 C4480 1.389 . S
C4479 H4458 0.950 . S
C4479 C4478 1.373 . S
C4479 C4495 1.377 . S
C4480 C4478 1.389 . S
C4480 C4481 1.524 . S
C4480 C4494 1.377 . S
C4481 C4480 1.524 . S
C4481 C4482 1.397 . S
C4481 C4486 1.363 . S
C4482 H4459 0.950 . S
C4482 C4481 1.397 . S
C4482 C4483 1.334 . S
C4483 H4460 0.950 . S
C4483 C4482 1.334 . S
C4483 C4484 1.287 . S
C4484 C4483 1.287 . S
C4484 C4485 1.524 . S
C4484 H4503 0.913 . S
C4485 H4461 0.950 . S
C4485 C4484 1.524 . S
C4485 C4486 1.415 . S
C4486 H4462 0.950 . S
C4486 C4481 1.363 . S
C4486 C4485 1.415 . S
C4487 H4463 0.951 . S
C4487 C4488 1.366 . S
C4487 C4489 1.388 . S
C4488 C4487 1.366 . S
C4488 C4492 1.385 . S
C4489 H4464 0.951 . S
C4489 C4487 1.388 . S
C4489 C4490 1.366 . S
C4490 C4489 1.366 . S
C4490 C4491 1.414 . S
C4490 C4493 1.499 . S
C4491 H4465 0.950 . S
C4491 C4490 1.414 . S
C4491 C4492 1.374 . S
C4492 H4466 0.950 . S
C4492 C4488 1.385 . S
C4492 C4491 1.374 . S
C4493 C4490 1.499 . S
C4493 C4494 1.373 . S
C4493 C4495 1.389 . S
C4494 H4467 0.950 . S
C4494 C4480 1.377 . S
C4494 C4493 1.373 . S
C4495 C4479 1.377 . S
C4495 C4493 1.389 . S
C4495 C4496 1.524 . S
C4496 C4495 1.524 . S
C4496 C4497 1.397 . S
C4496 C4501 1.363 . S
C4497 H4468 0.950 . S
C4497 C4496 1.397 . S
C4497 C4498 1.334 . S
C4498 H4469 0.950 . S
C4498 C4497 1.334 . S
C4498 C4499 1.287 . S
C4499 C4498 1.287 . S
C4499 C4500 1.524 . S
C4499 H4502 0.999 . S
C4500 H4470 0.950 . S
C4500 C4499 1.524 . S
C4500 C4501 1.415 . S
C4501 H4471 0.950 . S
C4501 C4496 1.363 . S
C4501 C4500 1.415 . S
H4502 C4499 0.999 . S
H4503 C4484 0.913 . S
H4504 C4522 0.912 1_554 S
H4505 C4524 0.951 . S
H4506 C4526 0.950 . S
H4507 C4527 0.950 . S
H4508 C4529 0.950 . S
H4509 C4532 0.950 . S
H4510 C4533 0.950 . S
H4511 C4535 0.950 . S
H4512 C4536 0.950 . S
H4513 C4537 0.951 . S
H4514 C4539 0.951 . S
H4515 C4541 0.950 . S
H4516 C4542 0.950 . S
H4517 C4544 0.950 . S
H4518 C4547 0.950 . S
H4519 C4548 0.950 . S
H4520 C4550 0.950 . S
H4521 C4551 0.950 . S
C4522 H4504 0.912 1_556 S
C4522 C4523 1.366 . S
C4522 C4524 1.388 . S
C4523 C4522 1.366 . S
C4523 C4527 1.385 . S
C4524 H4505 0.951 . S
C4524 C4522 1.388 . S
C4524 C4525 1.366 . S
C4525 C4524 1.366 . S
C4525 C4526 1.414 . S
C4525 C4528 1.499 . S
C4526 H4506 0.950 . S
C4526 C4525 1.414 . S
C4526 C4527 1.374 . S
C4527 H4507 0.950 . S
C4527 C4523 1.385 . S
C4527 C4526 1.374 . S
C4528 C4525 1.499 . S
C4528 C4529 1.373 . S
C4528 C4530 1.389 . S
C4529 H4508 0.950 . S
C4529 C4528 1.373 . S
C4529 C4545 1.377 . S
C4530 C4528 1.389 . S
C4530 C4531 1.524 . S
C4530 C4544 1.377 . S
C4531 C4530 1.524 . S
C4531 C4532 1.397 . S
C4531 C4536 1.363 . S
C4532 H4509 0.950 . S
C4532 C4531 1.397 . S
C4532 C4533 1.334 1_556 S
C4533 H4510 0.950 . S
C4533 C4532 1.334 1_554 S
C4533 C4534 1.287 . S
C4534 C4533 1.287 . S
C4534 C4535 1.524 . S
C4534 H4553 0.913 . S
C4535 H4511 0.950 . S
C4535 C4534 1.524 . S
C4535 C4536 1.415 1_554 S
C4536 H4512 0.950 . S
C4536 C4531 1.363 . S
C4536 C4535 1.415 1_556 S
C4537 H4513 0.951 . S
C4537 C4538 1.366 . S
C4537 C4539 1.388 . S
C4538 C4537 1.366 . S
C4538 C4542 1.385 . S
C4539 H4514 0.951 . S
C4539 C4537 1.388 . S
C4539 C4540 1.366 . S
C4540 C4539 1.366 . S
C4540 C4541 1.414 . S
C4540 C4543 1.499 . S
C4541 H4515 0.950 . S
C4541 C4540 1.414 . S
C4541 C4542 1.374 . S
C4542 H4516 0.950 . S
C4542 C4538 1.385 . S
C4542 C4541 1.374 . S
C4543 C4540 1.499 . S
C4543 C4544 1.373 . S
C4543 C4545 1.389 . S
C4544 H4517 0.950 . S
C4544 C4530 1.377 . S
C4544 C4543 1.373 . S
C4545 C4529 1.377 . S
C4545 C4543 1.389 . S
C4545 C4546 1.524 . S
C4546 C4545 1.524 . S
C4546 C4547 1.397 . S
C4546 C4551 1.363 . S
C4547 H4518 0.950 . S
C4547 C4546 1.397 . S
C4547 C4548 1.334 . S
C4548 H4519 0.950 . S
C4548 C4547 1.334 . S
C4548 C4549 1.287 . S
C4549 C4548 1.287 . S
C4549 C4550 1.524 . S
C4549 H4552 0.999 . S
C4550 H4520 0.950 . S
C4550 C4549 1.524 . S
C4550 C4551 1.415 . S
C4551 H4521 0.950 . S
C4551 C4546 1.363 . S
C4551 C4550 1.415 . S
H4552 C4549 0.999 . S
H4553 C4534 0.913 . S
H4554 C4572 0.951 . S
H4555 C4574 0.951 . S
H4556 C4576 0.950 . S
H4557 C4577 0.950 . S
H4558 C4579 0.950 . S
H4559 C4582 0.950 . S
H4560 C4583 0.950 . S
H4561 C4585 0.950 . S
H4562 C4586 0.950 . S
H4563 C4587 0.951 . S
H4564 C4589 0.951 . S
H4565 C4591 0.950 . S
H4566 C4592 0.950 . S
H4567 C4594 0.950 . S
H4568 C4597 0.950 . S
H4569 C4598 0.950 . S
H4570 C4600 0.950 . S
H4571 C4601 0.950 . S
C4572 H4554 0.951 . S
C4572 C4573 1.366 . S
C4572 C4574 1.388 . S
C4573 C4572 1.366 . S
C4573 C4577 1.385 . S
C4574 H4555 0.951 . S
C4574 C4572 1.388 . S
C4574 C4575 1.366 . S
C4575 C4574 1.366 . S
C4575 C4576 1.414 . S
C4575 C4578 1.499 . S
C4576 H4556 0.950 . S
C4576 C4575 1.414 . S
C4576 C4577 1.374 . S
C4577 H4557 0.950 . S
C4577 C4573 1.385 . S
C4577 C4576 1.374 . S
C4578 C4575 1.499 . S
C4578 C4579 1.373 . S
C4578 C4580 1.389 . S
C4579 H4558 0.950 . S
C4579 C4578 1.373 . S
C4579 C4595 1.377 . S
C4580 C4578 1.389 . S
C4580 C4581 1.524 . S
C4580 C4594 1.377 . S
C4581 C4580 1.524 . S
C4581 C4582 1.397 . S
C4581 C4586 1.363 . S
C4582 H4559 0.950 . S
C4582 C4581 1.397 . S
C4582 C4583 1.334 . S
C4583 H4560 0.950 . S
C4583 C4582 1.334 . S
C4583 C4584 1.287 . S
C4584 C4583 1.287 . S
C4584 C4585 1.524 . S
C4584 H4603 0.913 . S
C4585 H4561 0.950 . S
C4585 C4584 1.524 . S
C4585 C4586 1.415 . S
C4586 H4562 0.950 . S
C4586 C4581 1.363 . S
C4586 C4585 1.415 . S
C4587 H4563 0.951 . S
C4587 C4588 1.366 . S
C4587 C4589 1.388 . S
C4588 C4587 1.366 . S
C4588 C4592 1.385 . S
C4589 H4564 0.951 . S
C4589 C4587 1.388 . S
C4589 C4590 1.366 . S
C4590 C4589 1.366 . S
C4590 C4591 1.414 . S
C4590 C4593 1.499 . S
C4591 H4565 0.950 . S
C4591 C4590 1.414 . S
C4591 C4592 1.374 . S
C4592 H4566 0.950 . S
C4592 C4588 1.385 . S
C4592 C4591 1.374 . S
C4593 C4590 1.499 . S
C4593 C4594 1.373 . S
C4593 C4595 1.389 . S
C4594 H4567 0.950 . S
C4594 C4580 1.377 . S
C4594 C4593 1.373 . S
C4595 C4579 1.377 . S
C4595 C4593 1.389 . S
C4595 C4596 1.524 . S
C4596 C4595 1.524 . S
C4596 C4597 1.397 . S
C4596 C4601 1.363 . S
C4597 H4568 0.950 . S
C4597 C4596 1.397 . S
C4597 C4598 1.334 . S
C4598 H4569 0.950 . S
C4598 C4597 1.334 . S
C4598 C4599 1.287 . S
C4599 C4598 1.287 . S
C4599 C4600 1.524 . S
C4599 H4602 0.999 . S
C4600 H4570 0.950 . S
C4600 C4599 1.524 . S
C4600 C4601 1.415 . S
C4601 H4571 0.950 . S
C4601 C4596 1.363 . S
C4601 C4600 1.415 . S
H4602 C4599 0.999 . S
H4603 C4584 0.913 . S
H4604 C4622 0.951 . S
H4605 C4624 0.951 . S
H4606 C4626 0.950 . S
H4607 C4627 0.950 . S
H4608 C4629 0.950 . S
H4609 C4632 0.950 . S
H4610 C4633 0.950 . S
H4611 C4635 0.950 . S
H4612 C4636 0.950 . S
H4613 C4637 0.951 . S
H4614 C4639 0.951 . S
H4615 C4641 0.950 . S
H4616 C4642 0.950 . S
H4617 C4644 0.950 . S
H4618 C4647 0.950 . S
H4619 C4648 0.950 . S
H4620 C4650 0.950 . S
H4621 C4651 0.950 . S
C4622 H4604 0.951 . S
C4622 C4623 1.366 . S
C4622 C4624 1.388 . S
C4623 C4622 1.366 . S
C4623 C4627 1.385 . S
C4624 H4605 0.951 . S
C4624 C4622 1.388 . S
C4624 C4625 1.366 . S
C4625 C4624 1.366 . S
C4625 C4626 1.414 . S
C4625 C4628 1.499 . S
C4626 H4606 0.950 . S
C4626 C4625 1.414 . S
C4626 C4627 1.374 . S
C4627 H4607 0.950 . S
C4627 C4623 1.385 . S
C4627 C4626 1.374 . S
C4628 C4625 1.499 . S
C4628 C4629 1.373 . S
C4628 C4630 1.389 . S
C4629 H4608 0.950 . S
C4629 C4628 1.373 . S
C4629 C4645 1.377 . S
C4630 C4628 1.389 . S
C4630 C4631 1.524 . S
C4630 C4644 1.377 . S
C4631 C4630 1.524 . S
C4631 C4632 1.397 . S
C4631 C4636 1.363 . S
C4632 H4609 0.950 . S
C4632 C4631 1.397 . S
C4632 C4633 1.334 . S
C4633 H4610 0.950 . S
C4633 C4632 1.334 . S
C4633 C4634 1.287 . S
C4634 C4633 1.287 . S
C4634 C4635 1.524 . S
C4634 H4653 0.913 . S
C4635 H4611 0.950 . S
C4635 C4634 1.524 . S
C4635 C4636 1.415 . S
C4636 H4612 0.950 . S
C4636 C4631 1.363 . S
C4636 C4635 1.415 . S
C4637 H4613 0.951 . S
C4637 C4638 1.366 . S
C4637 C4639 1.388 . S
C4638 C4637 1.366 . S
C4638 C4642 1.385 . S
C4639 H4614 0.951 . S
C4639 C4637 1.388 . S
C4639 C4640 1.366 . S
C4640 C4639 1.366 . S
C4640 C4641 1.414 . S
C4640 C4643 1.499 . S
C4641 H4615 0.950 . S
C4641 C4640 1.414 . S
C4641 C4642 1.374 . S
C4642 H4616 0.950 . S
C4642 C4638 1.385 . S
C4642 C4641 1.374 . S
C4643 C4640 1.499 . S
C4643 C4644 1.373 . S
C4643 C4645 1.389 . S
C4644 H4617 0.950 . S
C4644 C4630 1.377 . S
C4644 C4643 1.373 . S
C4645 C4629 1.377 . S
C4645 C4643 1.389 . S
C4645 C4646 1.524 . S
C4646 C4645 1.524 . S
C4646 C4647 1.397 . S
C4646 C4651 1.363 . S
C4647 H4618 0.950 . S
C4647 C4646 1.397 . S
C4647 C4648 1.334 . S
C4648 H4619 0.950 . S
C4648 C4647 1.334 . S
C4648 C4649 1.287 . S
C4649 C4648 1.287 . S
C4649 C4650 1.524 . S
C4649 H4652 0.999 . S
C4650 H4620 0.950 . S
C4650 C4649 1.524 . S
C4650 C4651 1.415 . S
C4651 H4621 0.950 . S
C4651 C4646 1.363 . S
C4651 C4650 1.415 . S
H4652 C4649 0.999 . S
H4653 C4634 0.913 . S
H4654 C4672 0.951 . S
H4655 C4674 0.951 . S
H4656 C4676 0.950 . S
H4657 C4677 0.950 . S
H4658 C4679 0.950 . S
H4659 C4682 0.950 . S
H4660 C4683 0.950 . S
H4661 C4685 0.950 . S
H4662 C4686 0.950 . S
H4663 C4687 0.951 . S
H4664 C4689 0.951 . S
H4665 C4691 0.950 . S
H4666 C4692 0.950 . S
H4667 C4694 0.950 . S
H4668 C4697 0.950 . S
H4669 C4698 0.950 . S
H4670 C4700 0.950 . S
H4671 C4701 0.950 . S
C4672 H4654 0.951 . S
C4672 C4673 1.366 . S
C4672 C4674 1.388 . S
C4673 C4672 1.366 . S
C4673 C4677 1.385 . S
C4674 H4655 0.951 . S
C4674 C4672 1.388 . S
C4674 C4675 1.366 . S
C4675 C4674 1.366 . S
C4675 C4676 1.414 . S
C4675 C4678 1.499 . S
C4676 H4656 0.950 . S
C4676 C4675 1.414 . S
C4676 C4677 1.374 . S
C4677 H4657 0.950 . S
C4677 C4673 1.385 . S
C4677 C4676 1.374 . S
C4678 C4675 1.499 . S
C4678 C4679 1.373 . S
C4678 C4680 1.389 . S
C4679 H4658 0.950 . S
C4679 C4678 1.373 . S
C4679 C4695 1.377 . S
C4680 C4678 1.389 . S
C4680 C4681 1.524 . S
C4680 C4694 1.377 . S
C4681 C4680 1.524 . S
C4681 C4682 1.397 . S
C4681 C4686 1.363 . S
C4682 H4659 0.950 . S
C4682 C4681 1.397 . S
C4682 C4683 1.334 . S
C4683 H4660 0.950 . S
C4683 C4682 1.334 . S
C4683 C4684 1.287 . S
C4684 C4683 1.287 . S
C4684 C4685 1.524 . S
C4684 H4703 0.913 . S
C4685 H4661 0.950 . S
C4685 C4684 1.524 . S
C4685 C4686 1.415 . S
C4686 H4662 0.950 . S
C4686 C4681 1.363 . S
C4686 C4685 1.415 . S
C4687 H4663 0.951 . S
C4687 C4688 1.366 . S
C4687 C4689 1.388 . S
C4688 C4687 1.366 . S
C4688 C4692 1.385 . S
C4689 H4664 0.951 . S
C4689 C4687 1.388 . S
C4689 C4690 1.366 . S
C4690 C4689 1.366 . S
C4690 C4691 1.414 . S
C4690 C4693 1.499 . S
C4691 H4665 0.950 . S
C4691 C4690 1.414 . S
C4691 C4692 1.374 . S
C4692 H4666 0.950 . S
C4692 C4688 1.385 . S
C4692 C4691 1.374 . S
C4693 C4690 1.499 . S
C4693 C4694 1.373 . S
C4693 C4695 1.389 . S
C4694 H4667 0.950 . S
C4694 C4680 1.377 . S
C4694 C4693 1.373 . S
C4695 C4679 1.377 . S
C4695 C4693 1.389 . S
C4695 C4696 1.524 . S
C4696 C4695 1.524 . S
C4696 C4697 1.397 . S
C4696 C4701 1.363 . S
C4697 H4668 0.950 . S
C4697 C4696 1.397 . S
C4697 C4698 1.334 . S
C4698 H4669 0.950 . S
C4698 C4697 1.334 . S
C4698 C4699 1.287 . S
C4699 C4698 1.287 . S
C4699 C4700 1.524 . S
C4699 H4702 0.999 . S
C4700 H4670 0.950 . S
C4700 C4699 1.524 . S
C4700 C4701 1.415 . S
C4701 H4671 0.950 . S
C4701 C4696 1.363 . S
C4701 C4700 1.415 . S
H4702 C4699 0.999 . S
H4703 C4684 0.913 . S
H4704 C4722 0.951 . S
H4705 C4724 0.951 . S
H4706 C4726 0.950 . S
H4707 C4727 0.950 . S
H4708 C4729 0.950 . S
H4709 C4732 0.950 . S
H4710 C4733 0.950 . S
H4711 C4735 0.950 . S
H4712 C4736 0.950 . S
H4713 C4737 0.951 . S
H4714 C4739 0.951 . S
H4715 C4741 0.950 . S
H4716 C4742 0.950 . S
H4717 C4744 0.950 . S
H4718 C4747 0.950 . S
H4719 C4748 0.950 . S
H4720 C4750 0.950 . S
H4721 C4751 0.950 . S
C4722 H4704 0.951 . S
C4722 C4723 1.366 . S
C4722 C4724 1.388 . S
C4723 C4722 1.366 . S
C4723 C4727 1.385 . S
C4724 H4705 0.951 . S
C4724 C4722 1.388 . S
C4724 C4725 1.366 . S
C4725 C4724 1.366 . S
C4725 C4726 1.414 . S
C4725 C4728 1.499 . S
C4726 H4706 0.950 . S
C4726 C4725 1.414 . S
C4726 C4727 1.374 . S
C4727 H4707 0.950 . S
C4727 C4723 1.385 . S
C4727 C4726 1.374 . S
C4728 C4725 1.499 . S
C4728 C4729 1.373 . S
C4728 C4730 1.389 . S
C4729 H4708 0.950 . S
C4729 C4728 1.373 . S
C4729 C4745 1.377 . S
C4730 C4728 1.389 . S
C4730 C4731 1.524 . S
C4730 C4744 1.377 . S
C4731 C4730 1.524 . S
C4731 C4732 1.397 . S
C4731 C4736 1.363 . S
C4732 H4709 0.950 . S
C4732 C4731 1.397 . S
C4732 C4733 1.334 . S
C4733 H4710 0.950 . S
C4733 C4732 1.334 . S
C4733 C4734 1.287 . S
C4734 C4733 1.287 . S
C4734 C4735 1.524 . S
C4734 H4753 0.913 . S
C4735 H4711 0.950 . S
C4735 C4734 1.524 . S
C4735 C4736 1.415 . S
C4736 H4712 0.950 . S
C4736 C4731 1.363 . S
C4736 C4735 1.415 . S
C4737 H4713 0.951 . S
C4737 C4738 1.366 . S
C4737 C4739 1.388 . S
C4738 C4737 1.366 . S
C4738 C4742 1.385 . S
C4739 H4714 0.951 . S
C4739 C4737 1.388 . S
C4739 C4740 1.366 . S
C4740 C4739 1.366 . S
C4740 C4741 1.414 . S
C4740 C4743 1.499 . S
C4741 H4715 0.950 . S
C4741 C4740 1.414 . S
C4741 C4742 1.374 . S
C4742 H4716 0.950 . S
C4742 C4738 1.385 . S
C4742 C4741 1.374 . S
C4743 C4740 1.499 . S
C4743 C4744 1.373 . S
C4743 C4745 1.389 . S
C4744 H4717 0.950 . S
C4744 C4730 1.377 . S
C4744 C4743 1.373 . S
C4745 C4729 1.377 . S
C4745 C4743 1.389 . S
C4745 C4746 1.524 . S
C4746 C4745 1.524 . S
C4746 C4747 1.397 . S
C4746 C4751 1.363 . S
C4747 H4718 0.950 . S
C4747 C4746 1.397 . S
C4747 C4748 1.334 . S
C4748 H4719 0.950 . S
C4748 C4747 1.334 . S
C4748 C4749 1.287 . S
C4749 C4748 1.287 . S
C4749 C4750 1.524 . S
C4749 H4752 0.999 . S
C4750 H4720 0.950 . S
C4750 C4749 1.524 . S
C4750 C4751 1.415 . S
C4751 H4721 0.950 . S
C4751 C4746 1.363 . S
C4751 C4750 1.415 . S
H4752 C4749 0.999 . S
H4753 C4734 0.913 . S
H4754 C4772 0.951 . S
H4755 C4774 0.951 . S
H4756 C4776 0.950 . S
H4757 C4777 0.950 . S
H4758 C4779 0.950 . S
H4759 C4782 0.950 . S
H4760 C4783 0.950 . S
H4761 C4785 0.950 . S
H4762 C4786 0.950 . S
H4763 C4787 0.951 . S
H4764 C4789 0.951 . S
H4765 C4791 0.950 . S
H4766 C4792 0.950 . S
H4767 C4794 0.950 . S
H4768 C4797 0.950 . S
H4769 C4798 0.950 . S
H4770 C4800 0.950 . S
H4771 C4801 0.950 . S
C4772 H4754 0.951 . S
C4772 C4773 1.366 . S
C4772 C4774 1.388 . S
C4773 C4772 1.366 . S
C4773 C4777 1.385 . S
C4774 H4755 0.951 . S
C4774 C4772 1.388 . S
C4774 C4775 1.366 . S
C4775 C4774 1.366 . S
C4775 C4776 1.414 . S
C4775 C4778 1.499 . S
C4776 H4756 0.950 . S
C4776 C4775 1.414 . S
C4776 C4777 1.374 . S
C4777 H4757 0.950 . S
C4777 C4773 1.385 . S
C4777 C4776 1.374 . S
C4778 C4775 1.499 . S
C4778 C4779 1.373 . S
C4778 C4780 1.389 . S
C4779 H4758 0.950 . S
C4779 C4778 1.373 . S
C4779 C4795 1.377 . S
C4780 C4778 1.389 . S
C4780 C4781 1.524 . S
C4780 C4794 1.377 . S
C4781 C4780 1.524 . S
C4781 C4782 1.397 . S
C4781 C4786 1.363 . S
C4782 H4759 0.950 . S
C4782 C4781 1.397 . S
C4782 C4783 1.334 . S
C4783 H4760 0.950 . S
C4783 C4782 1.334 . S
C4783 C4784 1.287 . S
C4784 C4783 1.287 . S
C4784 C4785 1.524 . S
C4784 H4803 0.913 . S
C4785 H4761 0.950 . S
C4785 C4784 1.524 . S
C4785 C4786 1.415 . S
C4786 H4762 0.950 . S
C4786 C4781 1.363 . S
C4786 C4785 1.415 . S
C4787 H4763 0.951 . S
C4787 C4788 1.366 . S
C4787 C4789 1.388 . S
C4788 C4787 1.366 . S
C4788 C4792 1.385 . S
C4789 H4764 0.951 . S
C4789 C4787 1.388 . S
C4789 C4790 1.366 . S
C4790 C4789 1.366 . S
C4790 C4791 1.414 . S
C4790 C4793 1.499 . S
C4791 H4765 0.950 . S
C4791 C4790 1.414 . S
C4791 C4792 1.374 . S
C4792 H4766 0.950 . S
C4792 C4788 1.385 . S
C4792 C4791 1.374 . S
C4793 C4790 1.499 . S
C4793 C4794 1.373 . S
C4793 C4795 1.389 . S
C4794 H4767 0.950 . S
C4794 C4780 1.377 . S
C4794 C4793 1.373 . S
C4795 C4779 1.377 . S
C4795 C4793 1.389 . S
C4795 C4796 1.524 . S
C4796 C4795 1.524 . S
C4796 C4797 1.397 . S
C4796 C4801 1.363 . S
C4797 H4768 0.950 . S
C4797 C4796 1.397 . S
C4797 C4798 1.334 . S
C4798 H4769 0.950 . S
C4798 C4797 1.334 . S
C4798 C4799 1.287 . S
C4799 C4798 1.287 . S
C4799 C4800 1.524 . S
C4799 H4802 0.999 . S
C4800 H4770 0.950 . S
C4800 C4799 1.524 . S
C4800 C4801 1.415 . S
C4801 H4771 0.950 . S
C4801 C4796 1.363 . S
C4801 C4800 1.415 . S
H4802 C4799 0.999 . S
H4803 C4784 0.913 . S
H4804 C4822 0.951 . S
H4805 C4824 0.951 . S
H4806 C4826 0.950 . S
H4807 C4827 0.950 . S
H4808 C4829 0.950 . S
H4809 C4832 0.950 . S
H4810 C4833 0.950 . S
H4811 C4835 0.950 . S
H4812 C4836 0.950 . S
H4813 C4837 0.951 . S
H4814 C4839 0.951 . S
H4815 C4841 0.950 . S
H4816 C4842 0.950 . S
H4817 C4844 0.950 . S
H4818 C4847 0.950 . S
H4819 C4848 0.950 . S
H4820 C4850 0.950 . S
H4821 C4851 0.950 . S
C4822 H4804 0.951 . S
C4822 C4823 1.366 . S
C4822 C4824 1.388 . S
C4823 C4822 1.366 . S
C4823 C4827 1.385 . S
C4824 H4805 0.951 . S
C4824 C4822 1.388 . S
C4824 C4825 1.366 . S
C4825 C4824 1.366 . S
C4825 C4826 1.414 . S
C4825 C4828 1.499 . S
C4826 H4806 0.950 . S
C4826 C4825 1.414 . S
C4826 C4827 1.374 . S
C4827 H4807 0.950 . S
C4827 C4823 1.385 . S
C4827 C4826 1.374 . S
C4828 C4825 1.499 . S
C4828 C4829 1.373 . S
C4828 C4830 1.389 . S
C4829 H4808 0.950 . S
C4829 C4828 1.373 . S
C4829 C4845 1.377 . S
C4830 C4828 1.389 . S
C4830 C4831 1.524 . S
C4830 C4844 1.377 . S
C4831 C4830 1.524 . S
C4831 C4832 1.397 . S
C4831 C4836 1.363 . S
C4832 H4809 0.950 . S
C4832 C4831 1.397 . S
C4832 C4833 1.334 . S
C4833 H4810 0.950 . S
C4833 C4832 1.334 . S
C4833 C4834 1.287 . S
C4834 C4833 1.287 . S
C4834 C4835 1.524 . S
C4834 H4853 0.913 . S
C4835 H4811 0.950 . S
C4835 C4834 1.524 . S
C4835 C4836 1.415 . S
C4836 H4812 0.950 . S
C4836 C4831 1.363 . S
C4836 C4835 1.415 . S
C4837 H4813 0.951 . S
C4837 C4838 1.366 . S
C4837 C4839 1.388 . S
C4838 C4837 1.366 . S
C4838 C4842 1.385 . S
C4839 H4814 0.951 . S
C4839 C4837 1.388 . S
C4839 C4840 1.366 . S
C4840 C4839 1.366 . S
C4840 C4841 1.414 . S
C4840 C4843 1.499 . S
C4841 H4815 0.950 . S
C4841 C4840 1.414 . S
C4841 C4842 1.374 . S
C4842 H4816 0.950 . S
C4842 C4838 1.385 . S
C4842 C4841 1.374 . S
C4843 C4840 1.499 . S
C4843 C4844 1.373 . S
C4843 C4845 1.389 . S
C4844 H4817 0.950 . S
C4844 C4830 1.377 . S
C4844 C4843 1.373 . S
C4845 C4829 1.377 . S
C4845 C4843 1.389 . S
C4845 C4846 1.524 . S
C4846 C4845 1.524 . S
C4846 C4847 1.397 . S
C4846 C4851 1.363 . S
C4847 H4818 0.950 . S
C4847 C4846 1.397 . S
C4847 C4848 1.334 . S
C4848 H4819 0.950 . S
C4848 C4847 1.334 . S
C4848 C4849 1.287 . S
C4849 C4848 1.287 . S
C4849 C4850 1.524 . S
C4849 H4852 0.999 . S
C4850 H4820 0.950 . S
C4850 C4849 1.524 . S
C4850 C4851 1.415 . S
C4851 H4821 0.950 . S
C4851 C4846 1.363 . S
C4851 C4850 1.415 . S
H4852 C4849 0.999 . S
H4853 C4834 0.913 . S
H4854 C4872 0.951 . S
H4855 C4874 0.951 . S
H4856 C4876 0.950 . S
H4857 C4877 0.950 . S
H4858 C4879 0.950 . S
H4859 C4882 0.950 . S
H4860 C4883 0.950 . S
H4861 C4885 0.950 . S
H4862 C4886 0.958 . S
H4863 C4887 0.951 . S
H4864 C4889 0.951 . S
H4865 C4891 0.950 . S
H4866 C4892 0.950 . S
H4867 C4894 0.950 . S
H4868 C4897 0.950 . S
H4869 C4898 0.950 . S
H4870 C4900 0.950 . S
H4871 C4901 0.950 . S
C4872 H4854 0.951 . S
C4872 C4873 1.366 . S
C4872 C4874 1.388 . S
C4873 C4872 1.366 . S
C4873 C4877 1.385 . S
C4874 H4855 0.951 . S
C4874 C4872 1.388 . S
C4874 C4875 1.366 . S
C4875 C4874 1.366 . S
C4875 C4876 1.414 . S
C4875 C4878 1.499 . S
C4876 H4856 0.950 . S
C4876 C4875 1.414 . S
C4876 C4877 1.374 . S
C4877 H4857 0.950 . S
C4877 C4873 1.385 . S
C4877 C4876 1.374 . S
C4878 C4875 1.499 . S
C4878 C4879 1.373 . S
C4878 C4880 1.389 . S
C4879 H4858 0.950 . S
C4879 C4878 1.373 . S
C4879 C4895 1.377 . S
C4880 C4878 1.389 . S
C4880 C4881 1.524 1_455 S
C4880 C4894 1.377 . S
C4881 C4880 1.524 1_655 S
C4881 C4882 1.397 . S
C4881 C4886 1.371 1_655 S
C4882 H4859 0.950 . S
C4882 C4881 1.397 . S
C4882 C4883 1.334 . S
C4883 H4860 0.950 . S
C4883 C4882 1.334 . S
C4883 C4884 1.287 . S
C4884 C4883 1.287 . S
C4884 C4885 1.524 . S
C4884 H4903 0.913 . S
C4885 H4861 0.950 . S
C4885 C4884 1.524 . S
C4885 C4886 1.400 1_655 S
C4886 H4862 0.958 . S
C4886 C4881 1.371 1_455 S
C4886 C4885 1.400 1_455 S
C4887 H4863 0.951 . S
C4887 C4888 1.366 . S
C4887 C4889 1.388 . S
C4888 C4887 1.366 . S
C4888 C4892 1.385 . S
C4889 H4864 0.951 . S
C4889 C4887 1.388 . S
C4889 C4890 1.366 . S
C4890 C4889 1.366 . S
C4890 C4891 1.414 . S
C4890 C4893 1.499 . S
C4891 H4865 0.950 . S
C4891 C4890 1.414 . S
C4891 C4892 1.374 . S
C4892 H4866 0.950 . S
C4892 C4888 1.385 . S
C4892 C4891 1.374 . S
C4893 C4890 1.499 . S
C4893 C4894 1.373 . S
C4893 C4895 1.389 . S
C4894 H4867 0.950 . S
C4894 C4880 1.377 . S
C4894 C4893 1.373 . S
C4895 C4879 1.377 . S
C4895 C4893 1.389 . S
C4895 C4896 1.524 . S
C4896 C4895 1.524 . S
C4896 C4897 1.397 . S
C4896 C4901 1.363 . S
C4897 H4868 0.950 . S
C4897 C4896 1.397 . S
C4897 C4898 1.334 . S
C4898 H4869 0.950 . S
C4898 C4897 1.334 . S
C4898 C4899 1.287 . S
C4899 C4898 1.287 . S
C4899 C4900 1.524 . S
C4899 H4902 0.999 . S
C4900 H4870 0.950 . S
C4900 C4899 1.524 . S
C4900 C4901 1.415 . S
C4901 H4871 0.950 . S
C4901 C4896 1.363 . S
C4901 C4900 1.415 . S
H4902 C4899 0.999 . S
H4903 C4884 0.913 . S
H4904 C4922 0.951 . S
H4905 C4924 0.951 . S
H4906 C4926 0.950 . S
H4907 C4927 0.950 . S
H4908 C4929 0.950 . S
H4909 C4932 0.950 . S
H4910 C4933 0.950 . S
H4911 C4935 0.950 . S
H4912 C4936 0.950 . S
H4913 C4937 0.951 . S
H4914 C4939 0.951 . S
H4915 C4941 0.950 . S
H4916 C4942 0.950 . S
H4917 C4944 0.950 . S
H4918 C4947 0.950 . S
H4919 C4948 0.950 . S
H4920 C4950 0.950 . S
H4921 C4951 0.950 . S
C4922 H4904 0.951 . S
C4922 C4923 1.366 . S
C4922 C4924 1.388 . S
C4923 C4922 1.366 . S
C4923 C4927 1.385 . S
C4924 H4905 0.951 . S
C4924 C4922 1.388 . S
C4924 C4925 1.366 . S
C4925 C4924 1.366 . S
C4925 C4926 1.414 . S
C4925 C4928 1.499 . S
C4926 H4906 0.950 . S
C4926 C4925 1.414 . S
C4926 C4927 1.374 . S
C4927 H4907 0.950 . S
C4927 C4923 1.385 . S
C4927 C4926 1.374 . S
C4928 C4925 1.499 . S
C4928 C4929 1.373 . S
C4928 C4930 1.389 . S
C4929 H4908 0.950 . S
C4929 C4928 1.373 . S
C4929 C4945 1.377 . S
C4930 C4928 1.389 . S
C4930 C4931 1.524 . S
C4930 C4944 1.377 . S
C4931 C4930 1.524 . S
C4931 C4932 1.397 . S
C4931 C4936 1.363 . S
C4932 H4909 0.950 . S
C4932 C4931 1.397 . S
C4932 C4933 1.334 . S
C4933 H4910 0.950 . S
C4933 C4932 1.334 . S
C4933 C4934 1.287 . S
C4934 C4933 1.287 . S
C4934 C4935 1.524 . S
C4934 H4953 0.913 . S
C4935 H4911 0.950 . S
C4935 C4934 1.524 . S
C4935 C4936 1.415 . S
C4936 H4912 0.950 . S
C4936 C4931 1.363 . S
C4936 C4935 1.415 . S
C4937 H4913 0.951 . S
C4937 C4938 1.366 . S
C4937 C4939 1.388 . S
C4938 C4937 1.366 . S
C4938 C4942 1.385 . S
C4939 H4914 0.951 . S
C4939 C4937 1.388 . S
C4939 C4940 1.366 . S
C4940 C4939 1.366 . S
C4940 C4941 1.414 . S
C4940 C4943 1.499 . S
C4941 H4915 0.950 . S
C4941 C4940 1.414 . S
C4941 C4942 1.374 . S
C4942 H4916 0.950 . S
C4942 C4938 1.385 . S
C4942 C4941 1.374 . S
C4943 C4940 1.499 . S
C4943 C4944 1.373 . S
C4943 C4945 1.389 . S
C4944 H4917 0.950 . S
C4944 C4930 1.377 . S
C4944 C4943 1.373 . S
C4945 C4929 1.377 . S
C4945 C4943 1.389 . S
C4945 C4946 1.524 . S
C4946 C4945 1.524 . S
C4946 C4947 1.397 . S
C4946 C4951 1.363 . S
C4947 H4918 0.950 . S
C4947 C4946 1.397 . S
C4947 C4948 1.334 . S
C4948 H4919 0.950 . S
C4948 C4947 1.334 . S
C4948 C4949 1.287 . S
C4949 C4948 1.287 . S
C4949 C4950 1.524 . S
C4949 H4952 0.999 . S
C4950 H4920 0.950 . S
C4950 C4949 1.524 . S
C4950 C4951 1.415 . S
C4951 H4921 0.950 . S
C4951 C4946 1.363 . S
C4951 C4950 1.415 . S
H4952 C4949 0.999 . S
H4953 C4934 0.913 . S
H4954 C4972 0.951 . S
H4955 C4974 0.951 . S
H4956 C4976 0.950 . S
H4957 C4977 0.950 . S
H4958 C4979 0.912 1_545 S
H4959 C4982 0.950 . S
H4960 C4983 0.950 . S
H4961 C4985 0.950 . S
H4962 C4986 0.950 . S
H4963 C4987 0.951 . S
H4964 C4989 0.951 . S
H4965 C4991 0.950 . S
H4966 C4992 0.950 . S
H4967 C4994 0.950 . S
H4968 C4997 0.950 1_565 S
H4969 C4998 0.950 . S
H4970 C5000 0.950 . S
H4971 C5001 0.950 . S
C4972 H4954 0.951 . S
C4972 C4973 1.366 . S
C4972 C4974 1.388 . S
C4973 C4972 1.366 . S
C4973 C4977 1.385 1_565 S
C4974 H4955 0.951 . S
C4974 C4972 1.388 . S
C4974 C4975 1.366 . S
C4975 C4974 1.366 . S
C4975 C4976 1.414 1_565 S
C4975 C4978 1.499 . S
C4976 H4956 0.950 . S
C4976 C4975 1.414 1_545 S
C4976 C4977 1.374 . S
C4977 H4957 0.950 . S
C4977 C4973 1.385 1_545 S
C4977 C4976 1.374 . S
C4978 C4975 1.499 . S
C4978 C4979 1.396 . S
C4978 C4980 1.389 . S
C4979 H4958 0.912 1_565 S
C4979 C4978 1.396 . S
C4979 C4995 1.378 . S
C4980 C4978 1.389 . S
C4980 C4981 1.524 . S
C4980 C4994 1.377 . S
C4981 C4980 1.524 . S
C4981 C4982 1.397 . S
C4981 C4986 1.363 . S
C4982 H4959 0.950 . S
C4982 C4981 1.397 . S
C4982 C4983 1.334 . S
C4983 H4960 0.950 . S
C4983 C4982 1.334 . S
C4983 C4984 1.287 . S
C4984 C4983 1.287 . S
C4984 C4985 1.524 . S
C4984 H5003 0.913 . S
C4985 H4961 0.950 . S
C4985 C4984 1.524 . S
C4985 C4986 1.415 . S
C4986 H4962 0.950 . S
C4986 C4981 1.363 . S
C4986 C4985 1.415 . S
C4987 H4963 0.951 . S
C4987 C4988 1.366 1_545 S
C4987 C4989 1.388 . S
C4988 C4987 1.366 1_565 S
C4988 C4992 1.385 . S
C4989 H4964 0.951 . S
C4989 C4987 1.388 . S
C4989 C4990 1.366 1_545 S
C4990 C4989 1.366 1_565 S
C4990 C4991 1.414 . S
C4990 C4993 1.499 . S
C4991 H4965 0.950 . S
C4991 C4990 1.414 . S
C4991 C4992 1.374 . S
C4992 H4966 0.950 . S
C4992 C4988 1.385 . S
C4992 C4991 1.374 . S
C4993 C4990 1.499 . S
C4993 C4994 1.373 . S
C4993 C4995 1.424 . S
C4994 H4967 0.950 . S
C4994 C4980 1.377 . S
C4994 C4993 1.373 . S
C4995 C4979 1.378 . S
C4995 C4993 1.424 . S
C4995 C4996 1.503 1_565 S
C4996 C4995 1.503 1_545 S
C4996 C4997 1.397 . S
C4996 C5001 1.363 . S
C4997 H4968 0.950 1_545 S
C4997 C4996 1.397 . S
C4997 C4998 1.334 . S
C4998 H4969 0.950 . S
C4998 C4997 1.334 . S
C4998 C4999 1.287 . S
C4999 C4998 1.287 . S
C4999 C5000 1.524 . S
C4999 H5002 0.999 . S
C5000 H4970 0.950 . S
C5000 C4999 1.524 . S
C5000 C5001 1.415 . S
C5001 H4971 0.950 . S
C5001 C4996 1.363 . S
C5001 C5000 1.415 . S
H5002 C4999 0.999 . S
H5003 C4984 0.913 . S
H5004 C5022 0.951 . S
H5005 C5024 0.951 . S
H5006 C5026 0.898 1_545 S
H5007 C5027 0.950 1_545 S
H5008 C5029 0.950 . S
H5009 C5032 0.950 . S
H5010 C5033 0.950 . S
H5011 C5035 0.950 . S
H5012 C5036 0.950 . S
H5013 C5037 0.951 . S
H5014 C5039 0.951 . S
H5015 C5041 0.950 . S
H5016 C5042 0.950 . S
H5017 C5044 0.950 . S
H5018 C5047 0.950 . S
H5019 C5048 0.950 . S
H5020 C5050 0.950 . S
H5021 C5051 0.924 1_545 S
C5022 H5004 0.951 . S
C5022 C5023 1.366 . S
C5022 C5024 1.388 . S
C5023 C5022 1.366 . S
C5023 C5027 1.385 . S
C5024 H5005 0.951 . S
C5024 C5022 1.388 . S
C5024 C5025 1.366 . S
C5025 C5024 1.366 . S
C5025 C5026 1.437 . S
C5025 C5028 1.499 . S
C5026 H5006 0.898 1_565 S
C5026 C5025 1.437 . S
C5026 C5027 1.405 . S
C5027 H5007 0.950 1_565 S
C5027 C5023 1.385 . S
C5027 C5026 1.405 . S
C5028 C5025 1.499 . S
C5028 C5029 1.373 . S
C5028 C5030 1.389 . S
C5029 H5008 0.950 . S
C5029 C5028 1.373 . S
C5029 C5045 1.377 . S
C5030 C5028 1.389 . S
C5030 C5031 1.530 1_565 S
C5030 C5044 1.377 . S
C5031 C5030 1.530 1_545 S
C5031 C5032 1.407 . S
C5031 C5036 1.349 1_545 S
C5032 H5009 0.950 . S
C5032 C5031 1.407 . S
C5032 C5033 1.334 . S
C5033 H5010 0.950 . S
C5033 C5032 1.334 . S
C5033 C5034 1.287 . S
C5034 C5033 1.287 . S
C5034 C5035 1.524 1_545 S
C5034 H5053 0.913 . S
C5035 H5011 0.950 . S
C5035 C5034 1.524 1_565 S
C5035 C5036 1.415 . S
C5036 H5012 0.950 . S
C5036 C5031 1.349 1_565 S
C5036 C5035 1.415 . S
C5037 H5013 0.951 . S
C5037 C5038 1.366 1_545 S
C5037 C5039 1.388 . S
C5038 C5037 1.366 1_565 S
C5038 C5042 1.385 . S
C5039 H5014 0.951 . S
C5039 C5037 1.388 . S
C5039 C5040 1.366 1_545 S
C5040 C5039 1.366 1_565 S
C5040 C5041 1.414 . S
C5040 C5043 1.499 . S
C5041 H5015 0.950 . S
C5041 C5040 1.414 . S
C5041 C5042 1.374 . S
C5042 H5016 0.950 . S
C5042 C5038 1.385 . S
C5042 C5041 1.374 . S
C5043 C5040 1.499 . S
C5043 C5044 1.373 . S
C5043 C5045 1.389 . S
C5044 H5017 0.950 . S
C5044 C5030 1.377 . S
C5044 C5043 1.373 . S
C5045 C5029 1.377 . S
C5045 C5043 1.389 . S
C5045 C5046 1.524 . S
C5046 C5045 1.524 . S
C5046 C5047 1.397 . S
C5046 C5051 1.363 . S
C5047 H5018 0.950 . S
C5047 C5046 1.397 . S
C5047 C5048 1.334 . S
C5048 H5019 0.950 . S
C5048 C5047 1.334 . S
C5048 C5049 1.287 . S
C5049 C5048 1.287 . S
C5049 C5050 1.524 . S
C5049 H5052 0.999 . S
C5050 H5020 0.950 . S
C5050 C5049 1.524 . S
C5050 C5051 1.415 . S
C5051 H5021 0.924 1_565 S
C5051 C5046 1.363 . S
C5051 C5050 1.415 . S
H5052 C5049 0.999 . S
H5053 C5034 0.913 . S
H5054 C5072 0.940 1_655 S
H5055 C5074 0.951 1_655 S
H5056 C5076 0.950 . S
H5057 C5077 0.950 . S
H5058 C5079 0.989 . S
H5059 C5082 0.950 . S
H5060 C5083 0.950 . S
H5061 C5085 0.950 . S
H5062 C5086 0.950 . S
H5063 C5087 0.951 . S
H5064 C5089 0.951 . S
H5065 C5091 0.950 . S
H5066 C5092 0.950 . S
H5067 C5094 0.950 . S
H5068 C5097 0.950 . S
H5069 C5098 0.950 . S
H5070 C5100 0.950 . S
H5071 C5101 0.909 1_455 S
C5072 H5054 0.940 1_455 S
C5072 C5073 1.366 . S
C5072 C5074 1.388 . S
C5073 C5072 1.366 . S
C5073 C5077 1.385 . S
C5074 H5055 0.951 1_455 S
C5074 C5072 1.388 . S
C5074 C5075 1.366 . S
C5075 C5074 1.366 . S
C5075 C5076 1.414 . S
C5075 C5078 1.499 . S
C5076 H5056 0.950 . S
C5076 C5075 1.414 . S
C5076 C5077 1.374 . S
C5077 H5057 0.950 . S
C5077 C5073 1.385 . S
C5077 C5076 1.374 . S
C5078 C5075 1.499 . S
C5078 C5079 1.373 . S
C5078 C5080 1.389 . S
C5079 H5058 0.989 . S
C5079 C5078 1.373 . S
C5079 C5095 1.371 . S
C5080 C5078 1.389 . S
C5080 C5081 1.524 . S
C5080 C5094 1.377 . S
C5081 C5080 1.524 . S
C5081 C5082 1.397 . S
C5081 C5086 1.363 . S
C5082 H5059 0.950 . S
C5082 C5081 1.397 . S
C5082 C5083 1.334 . S
C5083 H5060 0.950 . S
C5083 C5082 1.334 . S
C5083 C5084 1.287 . S
C5084 C5083 1.287 . S
C5084 C5085 1.524 . S
C5084 H5103 0.913 . S
C5085 H5061 0.950 . S
C5085 C5084 1.524 . S
C5085 C5086 1.415 . S
C5086 H5062 0.950 . S
C5086 C5081 1.363 . S
C5086 C5085 1.415 . S
C5087 H5063 0.951 . S
C5087 C5088 1.366 . S
C5087 C5089 1.388 . S
C5088 C5087 1.366 . S
C5088 C5092 1.384 1_455 S
C5089 H5064 0.951 . S
C5089 C5087 1.388 . S
C5089 C5090 1.366 . S
C5090 C5089 1.366 . S
C5090 C5091 1.414 1_455 S
C5090 C5093 1.499 . S
C5091 H5065 0.950 . S
C5091 C5090 1.414 1_655 S
C5091 C5092 1.374 . S
C5092 H5066 0.950 . S
C5092 C5088 1.384 1_655 S
C5092 C5091 1.374 . S
C5093 C5090 1.499 . S
C5093 C5094 1.373 . S
C5093 C5095 1.401 . S
C5094 H5067 0.950 . S
C5094 C5080 1.377 . S
C5094 C5093 1.373 . S
C5095 C5079 1.371 . S
C5095 C5093 1.401 . S
C5095 C5096 1.516 1_455 S
C5096 C5095 1.516 1_655 S
C5096 C5097 1.397 . S
C5096 C5101 1.363 . S
C5097 H5068 0.950 . S
C5097 C5096 1.397 . S
C5097 C5098 1.334 . S
C5098 H5069 0.950 . S
C5098 C5097 1.334 . S
C5098 C5099 1.287 . S
C5099 C5098 1.287 . S
C5099 C5100 1.524 . S
C5099 H5102 0.999 . S
C5100 H5070 0.950 . S
C5100 C5099 1.524 . S
C5100 C5101 1.466 . S
C5101 H5071 0.909 1_655 S
C5101 C5096 1.363 . S
C5101 C5100 1.466 . S
H5102 C5099 0.999 . S
H5103 C5084 0.913 . S
H5104 C5122 0.951 . S
H5105 C5124 0.951 . S
H5106 C5126 0.950 . S
H5107 C5127 0.950 . S
H5108 C5129 0.950 . S
H5109 C5132 0.950 . S
H5110 C5133 0.950 . S
H5111 C5135 0.950 . S
H5112 C5136 0.950 . S
H5113 C5137 0.951 . S
H5114 C5139 0.951 . S
H5115 C5141 0.950 . S
H5116 C5142 0.950 . S
H5117 C5144 0.950 . S
H5118 C5147 0.950 . S
H5119 C5148 0.950 . S
H5120 C5150 0.950 . S
H5121 C5151 0.950 . S
C5122 H5104 0.951 . S
C5122 C5123 1.366 . S
C5122 C5124 1.388 . S
C5123 C5122 1.366 . S
C5123 C5127 1.385 . S
C5124 H5105 0.951 . S
C5124 C5122 1.388 . S
C5124 C5125 1.366 . S
C5125 C5124 1.366 . S
C5125 C5126 1.414 . S
C5125 C5128 1.499 . S
C5126 H5106 0.950 . S
C5126 C5125 1.414 . S
C5126 C5127 1.374 . S
C5127 H5107 0.950 . S
C5127 C5123 1.385 . S
C5127 C5126 1.374 . S
C5128 C5125 1.499 . S
C5128 C5129 1.373 . S
C5128 C5130 1.389 . S
C5129 H5108 0.950 . S
C5129 C5128 1.373 . S
C5129 C5145 1.377 . S
C5130 C5128 1.389 . S
C5130 C5131 1.524 . S
C5130 C5144 1.377 . S
C5131 C5130 1.524 . S
C5131 C5132 1.397 . S
C5131 C5136 1.363 . S
C5132 H5109 0.950 . S
C5132 C5131 1.397 . S
C5132 C5133 1.334 . S
C5133 H5110 0.950 . S
C5133 C5132 1.334 . S
C5133 C5134 1.287 . S
C5134 C5133 1.287 . S
C5134 C5135 1.524 . S
C5134 H5153 0.913 . S
C5135 H5111 0.950 . S
C5135 C5134 1.524 . S
C5135 C5136 1.415 . S
C5136 H5112 0.950 . S
C5136 C5131 1.363 . S
C5136 C5135 1.415 . S
C5137 H5113 0.951 . S
C5137 C5138 1.366 . S
C5137 C5139 1.388 . S
C5138 C5137 1.366 . S
C5138 C5142 1.385 . S
C5139 H5114 0.951 . S
C5139 C5137 1.388 . S
C5139 C5140 1.366 . S
C5140 C5139 1.366 . S
C5140 C5141 1.414 . S
C5140 C5143 1.499 . S
C5141 H5115 0.950 . S
C5141 C5140 1.414 . S
C5141 C5142 1.374 . S
C5142 H5116 0.950 . S
C5142 C5138 1.385 . S
C5142 C5141 1.374 . S
C5143 C5140 1.499 . S
C5143 C5144 1.373 . S
C5143 C5145 1.389 . S
C5144 H5117 0.950 . S
C5144 C5130 1.377 . S
C5144 C5143 1.373 . S
C5145 C5129 1.377 . S
C5145 C5143 1.389 . S
C5145 C5146 1.524 . S
C5146 C5145 1.524 . S
C5146 C5147 1.397 . S
C5146 C5151 1.363 . S
C5147 H5118 0.950 . S
C5147 C5146 1.397 . S
C5147 C5148 1.334 . S
C5148 H5119 0.950 . S
C5148 C5147 1.334 . S
C5148 C5149 1.287 . S
C5149 C5148 1.287 . S
C5149 C5150 1.524 . S
C5149 H5152 0.999 . S
C5150 H5120 0.950 . S
C5150 C5149 1.524 . S
C5150 C5151 1.415 . S
C5151 H5121 0.950 . S
C5151 C5146 1.363 . S
C5151 C5150 1.415 . S
H5152 C5149 0.999 . S
H5153 C5134 0.913 . S
H5154 C5172 0.951 . S
H5155 C5174 0.951 . S
H5156 C5176 0.950 . S
H5157 C5177 0.950 . S
H5158 C5179 0.950 . S
H5159 C5182 0.950 . S
H5160 C5183 0.950 . S
H5161 C5185 0.950 . S
H5162 C5186 0.950 . S
H5163 C5187 0.951 . S
H5164 C5189 0.951 . S
H5165 C5191 0.950 . S
H5166 C5192 0.950 . S
H5167 C5194 0.950 . S
H5168 C5197 0.950 . S
H5169 C5198 0.950 . S
H5170 C5200 0.950 . S
H5171 C5201 0.950 . S
C5172 H5154 0.951 . S
C5172 C5173 1.366 . S
C5172 C5174 1.388 . S
C5173 C5172 1.366 . S
C5173 C5177 1.385 . S
C5174 H5155 0.951 . S
C5174 C5172 1.388 . S
C5174 C5175 1.366 . S
C5175 C5174 1.366 . S
C5175 C5176 1.414 . S
C5175 C5178 1.499 . S
C5176 H5156 0.950 . S
C5176 C5175 1.414 . S
C5176 C5177 1.374 . S
C5177 H5157 0.950 . S
C5177 C5173 1.385 . S
C5177 C5176 1.374 . S
C5178 C5175 1.499 . S
C5178 C5179 1.373 . S
C5178 C5180 1.389 . S
C5179 H5158 0.950 . S
C5179 C5178 1.373 . S
C5179 C5195 1.377 . S
C5180 C5178 1.389 . S
C5180 C5181 1.524 . S
C5180 C5194 1.377 . S
C5181 C5180 1.524 . S
C5181 C5182 1.397 . S
C5181 C5186 1.363 . S
C5182 H5159 0.950 . S
C5182 C5181 1.397 . S
C5182 C5183 1.334 . S
C5183 H5160 0.950 . S
C5183 C5182 1.334 . S
C5183 C5184 1.287 . S
C5184 C5183 1.287 . S
C5184 C5185 1.524 . S
C5184 H5203 0.913 . S
C5185 H5161 0.950 . S
C5185 C5184 1.524 . S
C5185 C5186 1.415 . S
C5186 H5162 0.950 . S
C5186 C5181 1.363 . S
C5186 C5185 1.415 . S
C5187 H5163 0.951 . S
C5187 C5188 1.366 . S
C5187 C5189 1.388 . S
C5188 C5187 1.366 . S
C5188 C5192 1.385 . S
C5189 H5164 0.951 . S
C5189 C5187 1.388 . S
C5189 C5190 1.366 . S
C5190 C5189 1.366 . S
C5190 C5191 1.414 . S
C5190 C5193 1.499 . S
C5191 H5165 0.950 . S
C5191 C5190 1.414 . S
C5191 C5192 1.374 . S
C5192 H5166 0.950 . S
C5192 C5188 1.385 . S
C5192 C5191 1.374 . S
C5193 C5190 1.499 . S
C5193 C5194 1.373 . S
C5193 C5195 1.389 . S
C5194 H5167 0.950 . S
C5194 C5180 1.377 . S
C5194 C5193 1.373 . S
C5195 C5179 1.377 . S
C5195 C5193 1.389 . S
C5195 C5196 1.524 . S
C5196 C5195 1.524 . S
C5196 C5197 1.397 . S
C5196 C5201 1.363 . S
C5197 H5168 0.950 . S
C5197 C5196 1.397 . S
C5197 C5198 1.334 . S
C5198 H5169 0.950 . S
C5198 C5197 1.334 . S
C5198 C5199 1.287 . S
C5199 C5198 1.287 . S
C5199 C5200 1.524 . S
C5199 H5202 0.999 . S
C5200 H5170 0.950 . S
C5200 C5199 1.524 . S
C5200 C5201 1.415 . S
C5201 H5171 0.950 . S
C5201 C5196 1.363 . S
C5201 C5200 1.415 . S
H5202 C5199 0.999 . S
H5203 C5184 0.913 . S
H5204 C5222 0.951 . S
H5205 C5224 0.951 . S
H5206 C5226 0.950 . S
H5207 C5227 0.950 . S
H5208 C5229 0.950 . S
H5209 C5232 0.950 . S
H5210 C5233 0.950 . S
H5211 C5235 0.950 . S
H5212 C5236 0.950 . S
H5213 C5237 0.951 . S
H5214 C5239 0.951 . S
H5215 C5241 0.950 . S
H5216 C5242 0.950 . S
H5217 C5244 0.950 . S
H5218 C5247 0.950 . S
H5219 C5248 0.950 . S
H5220 C5250 0.950 . S
H5221 C5251 0.950 . S
C5222 H5204 0.951 . S
C5222 C5223 1.366 . S
C5222 C5224 1.388 . S
C5223 C5222 1.366 . S
C5223 C5227 1.385 . S
C5224 H5205 0.951 . S
C5224 C5222 1.388 . S
C5224 C5225 1.366 . S
C5225 C5224 1.366 . S
C5225 C5226 1.414 . S
C5225 C5228 1.499 . S
C5226 H5206 0.950 . S
C5226 C5225 1.414 . S
C5226 C5227 1.374 . S
C5227 H5207 0.950 . S
C5227 C5223 1.385 . S
C5227 C5226 1.374 . S
C5228 C5225 1.499 . S
C5228 C5229 1.373 . S
C5228 C5230 1.389 . S
C5229 H5208 0.950 . S
C5229 C5228 1.373 . S
C5229 C5245 1.377 . S
C5230 C5228 1.389 . S
C5230 C5231 1.524 . S
C5230 C5244 1.377 . S
C5231 C5230 1.524 . S
C5231 C5232 1.397 . S
C5231 C5236 1.363 . S
C5232 H5209 0.950 . S
C5232 C5231 1.397 . S
C5232 C5233 1.334 . S
C5233 H5210 0.950 . S
C5233 C5232 1.334 . S
C5233 C5234 1.287 . S
C5234 C5233 1.287 . S
C5234 C5235 1.524 . S
C5234 H5253 0.913 . S
C5235 H5211 0.950 . S
C5235 C5234 1.524 . S
C5235 C5236 1.415 . S
C5236 H5212 0.950 . S
C5236 C5231 1.363 . S
C5236 C5235 1.415 . S
C5237 H5213 0.951 . S
C5237 C5238 1.366 . S
C5237 C5239 1.388 . S
C5238 C5237 1.366 . S
C5238 C5242 1.385 . S
C5239 H5214 0.951 . S
C5239 C5237 1.388 . S
C5239 C5240 1.366 . S
C5240 C5239 1.366 . S
C5240 C5241 1.414 . S
C5240 C5243 1.499 . S
C5241 H5215 0.950 . S
C5241 C5240 1.414 . S
C5241 C5242 1.374 . S
C5242 H5216 0.950 . S
C5242 C5238 1.385 . S
C5242 C5241 1.374 . S
C5243 C5240 1.499 . S
C5243 C5244 1.373 . S
C5243 C5245 1.389 . S
C5244 H5217 0.950 . S
C5244 C5230 1.377 . S
C5244 C5243 1.373 . S
C5245 C5229 1.377 . S
C5245 C5243 1.389 . S
C5245 C5246 1.524 . S
C5246 C5245 1.524 . S
C5246 C5247 1.397 . S
C5246 C5251 1.363 . S
C5247 H5218 0.950 . S
C5247 C5246 1.397 . S
C5247 C5248 1.334 . S
C5248 H5219 0.950 . S
C5248 C5247 1.334 . S
C5248 C5249 1.287 . S
C5249 C5248 1.287 . S
C5249 C5250 1.524 . S
C5249 H5252 0.999 . S
C5250 H5220 0.950 . S
C5250 C5249 1.524 . S
C5250 C5251 1.415 . S
C5251 H5221 0.950 . S
C5251 C5246 1.363 . S
C5251 C5250 1.415 . S
H5252 C5249 0.999 . S
H5253 C5234 0.913 . S
H5254 C5272 0.951 . S
H5255 C5274 0.951 . S
H5256 C5276 0.950 . S
H5257 C5277 0.950 . S
H5258 C5279 0.950 . S
H5259 C5282 0.950 . S
H5260 C5283 0.950 . S
H5261 C5285 0.950 . S
H5262 C5286 0.950 . S
H5263 C5287 0.951 . S
H5264 C5289 0.951 . S
H5265 C5291 0.950 . S
H5266 C5292 0.950 . S
H5267 C5294 0.950 . S
H5268 C5297 0.950 . S
H5269 C5298 0.950 . S
H5270 C5300 0.950 . S
H5271 C5301 0.950 . S
C5272 H5254 0.951 . S
C5272 C5273 1.366 . S
C5272 C5274 1.388 . S
C5273 C5272 1.366 . S
C5273 C5277 1.385 . S
C5274 H5255 0.951 . S
C5274 C5272 1.388 . S
C5274 C5275 1.366 . S
C5275 C5274 1.366 . S
C5275 C5276 1.414 . S
C5275 C5278 1.499 . S
C5276 H5256 0.950 . S
C5276 C5275 1.414 . S
C5276 C5277 1.374 . S
C5277 H5257 0.950 . S
C5277 C5273 1.385 . S
C5277 C5276 1.374 . S
C5278 C5275 1.499 . S
C5278 C5279 1.373 . S
C5278 C5280 1.389 . S
C5279 H5258 0.950 . S
C5279 C5278 1.373 . S
C5279 C5295 1.377 . S
C5280 C5278 1.389 . S
C5280 C5281 1.524 . S
C5280 C5294 1.377 . S
C5281 C5280 1.524 . S
C5281 C5282 1.397 . S
C5281 C5286 1.363 . S
C5282 H5259 0.950 . S
C5282 C5281 1.397 . S
C5282 C5283 1.334 . S
C5283 H5260 0.950 . S
C5283 C5282 1.334 . S
C5283 C5284 1.287 . S
C5284 C5283 1.287 . S
C5284 C5285 1.524 . S
C5284 H5303 0.913 . S
C5285 H5261 0.950 . S
C5285 C5284 1.524 . S
C5285 C5286 1.415 . S
C5286 H5262 0.950 . S
C5286 C5281 1.363 . S
C5286 C5285 1.415 . S
C5287 H5263 0.951 . S
C5287 C5288 1.366 . S
C5287 C5289 1.388 . S
C5288 C5287 1.366 . S
C5288 C5292 1.385 . S
C5289 H5264 0.951 . S
C5289 C5287 1.388 . S
C5289 C5290 1.366 . S
C5290 C5289 1.366 . S
C5290 C5291 1.414 . S
C5290 C5293 1.499 . S
C5291 H5265 0.950 . S
C5291 C5290 1.414 . S
C5291 C5292 1.374 . S
C5292 H5266 0.950 . S
C5292 C5288 1.385 . S
C5292 C5291 1.374 . S
C5293 C5290 1.499 . S
C5293 C5294 1.373 . S
C5293 C5295 1.389 . S
C5294 H5267 0.950 . S
C5294 C5280 1.377 . S
C5294 C5293 1.373 . S
C5295 C5279 1.377 . S
C5295 C5293 1.389 . S
C5295 C5296 1.524 . S
C5296 C5295 1.524 . S
C5296 C5297 1.397 . S
C5296 C5301 1.363 . S
C5297 H5268 0.950 . S
C5297 C5296 1.397 . S
C5297 C5298 1.334 . S
C5298 H5269 0.950 . S
C5298 C5297 1.334 . S
C5298 C5299 1.287 . S
C5299 C5298 1.287 . S
C5299 C5300 1.524 . S
C5299 H5302 0.999 . S
C5300 H5270 0.950 . S
C5300 C5299 1.524 . S
C5300 C5301 1.415 . S
C5301 H5271 0.950 . S
C5301 C5296 1.363 . S
C5301 C5300 1.415 . S
H5302 C5299 0.999 . S
H5303 C5284 0.913 . S
H5304 C5322 0.951 . S
H5305 C5324 0.901 1_565 S
H5306 C5326 0.950 . S
H5307 C5327 0.950 . S
H5308 C5329 0.950 . S
H5309 C5332 0.950 . S
H5310 C5333 0.950 . S
H5311 C5335 0.950 . S
H5312 C5336 0.950 . S
H5313 C5337 0.951 . S
H5314 C5339 0.951 . S
H5315 C5341 0.923 1_565 S
H5316 C5342 0.957 . S
H5317 C5344 0.950 . S
H5318 C5347 0.950 . S
H5319 C5348 0.950 . S
H5320 C5350 0.950 . S
H5321 C5351 0.950 . S
C5322 H5304 0.951 . S
C5322 C5323 1.366 . S
C5322 C5324 1.388 . S
C5323 C5322 1.366 . S
C5323 C5327 1.385 . S
C5324 H5305 0.901 1_545 S
C5324 C5322 1.388 . S
C5324 C5325 1.366 . S
C5325 C5324 1.366 . S
C5325 C5326 1.414 . S
C5325 C5328 1.499 . S
C5326 H5306 0.950 . S
C5326 C5325 1.414 . S
C5326 C5327 1.374 . S
C5327 H5307 0.950 . S
C5327 C5323 1.385 . S
C5327 C5326 1.374 . S
C5328 C5325 1.499 . S
C5328 C5329 1.373 . S
C5328 C5330 1.389 1_545 S
C5329 H5308 0.950 . S
C5329 C5328 1.373 . S
C5329 C5345 1.377 . S
C5330 C5328 1.389 1_565 S
C5330 C5331 1.524 . S
C5330 C5344 1.377 . S
C5331 C5330 1.524 . S
C5331 C5332 1.397 . S
C5331 C5336 1.363 . S
C5332 H5309 0.950 . S
C5332 C5331 1.397 . S
C5332 C5333 1.334 . S
C5333 H5310 0.950 . S
C5333 C5332 1.334 . S
C5333 C5334 1.287 . S
C5334 C5333 1.287 . S
C5334 C5335 1.524 . S
C5334 H5353 0.913 . S
C5335 H5311 0.950 . S
C5335 C5334 1.524 . S
C5335 C5336 1.415 . S
C5336 H5312 0.950 . S
C5336 C5331 1.363 . S
C5336 C5335 1.415 . S
C5337 H5313 0.951 . S
C5337 C5338 1.366 . S
C5337 C5339 1.388 . S
C5338 C5337 1.366 . S
C5338 C5342 1.382 1_545 S
C5339 H5314 0.951 . S
C5339 C5337 1.388 . S
C5339 C5340 1.366 . S
C5340 C5339 1.366 . S
C5340 C5341 1.479 . S
C5340 C5343 1.499 . S
C5341 H5315 0.923 1_545 S
C5341 C5340 1.479 . S
C5341 C5342 1.337 1_545 S
C5342 H5316 0.957 . S
C5342 C5338 1.382 1_565 S
C5342 C5341 1.337 1_565 S
C5343 C5340 1.499 . S
C5343 C5344 1.373 1_545 S
C5343 C5345 1.389 . S
C5344 H5317 0.950 . S
C5344 C5330 1.377 . S
C5344 C5343 1.373 1_565 S
C5345 C5329 1.377 . S
C5345 C5343 1.389 . S
C5345 C5346 1.524 . S
C5346 C5345 1.524 . S
C5346 C5347 1.397 . S
C5346 C5351 1.363 . S
C5347 H5318 0.950 . S
C5347 C5346 1.397 . S
C5347 C5348 1.334 . S
C5348 H5319 0.950 . S
C5348 C5347 1.334 . S
C5348 C5349 1.287 . S
C5349 C5348 1.287 . S
C5349 C5350 1.524 . S
C5349 H5352 0.999 . S
C5350 H5320 0.950 . S
C5350 C5349 1.524 . S
C5350 C5351 1.415 . S
C5351 H5321 0.950 . S
C5351 C5346 1.363 . S
C5351 C5350 1.415 . S
H5352 C5349 0.999 . S
H5353 C5334 0.913 . S
H5354 C5372 0.951 . S
H5355 C5374 0.951 . S
H5356 C5376 0.950 . S
H5357 C5377 0.950 . S
H5358 C5379 0.950 . S
H5359 C5382 0.950 1_655 S
H5360 C5383 0.950 . S
H5361 C5385 0.950 . S
H5362 C5386 0.950 . S
H5363 C5387 0.951 . S
H5364 C5389 0.951 . S
H5365 C5391 0.950 . S
H5366 C5392 0.950 . S
H5367 C5394 0.950 . S
H5368 C5397 0.950 . S
H5369 C5398 0.950 . S
H5370 C5400 0.950 . S
H5371 C5401 0.950 . S
C5372 H5354 0.951 . S
C5372 C5373 1.366 1_455 S
C5372 C5374 1.388 . S
C5373 C5372 1.366 1_655 S
C5373 C5377 1.385 . S
C5374 H5355 0.951 . S
C5374 C5372 1.388 . S
C5374 C5375 1.366 1_455 S
C5375 C5374 1.366 1_655 S
C5375 C5376 1.414 . S
C5375 C5378 1.499 . S
C5376 H5356 0.950 . S
C5376 C5375 1.414 . S
C5376 C5377 1.374 . S
C5377 H5357 0.950 . S
C5377 C5373 1.385 . S
C5377 C5376 1.374 . S
C5378 C5375 1.499 . S
C5378 C5379 1.373 . S
C5378 C5380 1.355 1_655 S
C5379 H5358 0.950 . S
C5379 C5378 1.373 . S
C5379 C5395 1.377 . S
C5380 C5378 1.355 1_455 S
C5380 C5381 1.590 . S
C5380 C5394 1.348 . S
C5381 C5380 1.590 . S
C5381 C5382 1.397 . S
C5381 C5386 1.363 . S
C5382 H5359 0.950 1_455 S
C5382 C5381 1.397 . S
C5382 C5383 1.334 . S
C5383 H5360 0.950 . S
C5383 C5382 1.334 . S
C5383 C5384 1.287 . S
C5384 C5383 1.287 . S
C5384 C5385 1.524 . S
C5384 H5403 0.913 . S
C5385 H5361 0.950 . S
C5385 C5384 1.524 . S
C5385 C5386 1.415 . S
C5386 H5362 0.950 . S
C5386 C5381 1.363 . S
C5386 C5385 1.415 . S
C5387 H5363 0.951 . S
C5387 C5388 1.366 . S
C5387 C5389 1.388 . S
C5388 C5387 1.366 . S
C5388 C5392 1.385 1_655 S
C5389 H5364 0.951 . S
C5389 C5387 1.388 . S
C5389 C5390 1.366 . S
C5390 C5389 1.366 . S
C5390 C5391 1.414 1_655 S
C5390 C5393 1.499 . S
C5391 H5365 0.950 . S
C5391 C5390 1.414 1_455 S
C5391 C5392 1.374 . S
C5392 H5366 0.950 . S
C5392 C5388 1.385 1_455 S
C5392 C5391 1.374 . S
C5393 C5390 1.499 . S
C5393 C5394 1.373 1_655 S
C5393 C5395 1.389 . S
C5394 H5367 0.950 . S
C5394 C5380 1.348 . S
C5394 C5393 1.373 1_455 S
C5395 C5379 1.377 . S
C5395 C5393 1.389 . S
C5395 C5396 1.524 . S
C5396 C5395 1.524 . S
C5396 C5397 1.397 . S
C5396 C5401 1.363 . S
C5397 H5368 0.950 . S
C5397 C5396 1.397 . S
C5397 C5398 1.334 . S
C5398 H5369 0.950 . S
C5398 C5397 1.334 . S
C5398 C5399 1.287 . S
C5399 C5398 1.287 . S
C5399 C5400 1.524 . S
C5399 H5402 0.999 . S
C5400 H5370 0.950 . S
C5400 C5399 1.524 . S
C5400 C5401 1.415 . S
C5401 H5371 0.950 . S
C5401 C5396 1.363 . S
C5401 C5400 1.415 . S
H5402 C5399 0.999 . S
H5403 C5384 0.913 . S
H5404 C5422 0.951 . S
H5405 C5424 0.951 . S
H5406 C5426 0.950 . S
H5407 C5427 0.950 . S
H5408 C5429 0.950 . S
H5409 C5432 0.950 . S
H5410 C5433 0.950 . S
H5411 C5435 0.950 . S
H5412 C5436 0.950 . S
H5413 C5437 0.951 . S
H5414 C5439 0.951 . S
H5415 C5441 0.950 . S
H5416 C5442 0.950 . S
H5417 C5444 0.950 . S
H5418 C5447 0.950 . S
H5419 C5448 0.950 . S
H5420 C5450 0.950 . S
H5421 C5451 0.950 . S
C5422 H5404 0.951 . S
C5422 C5423 1.366 . S
C5422 C5424 1.388 . S
C5423 C5422 1.366 . S
C5423 C5427 1.385 . S
C5424 H5405 0.951 . S
C5424 C5422 1.388 . S
C5424 C5425 1.366 . S
C5425 C5424 1.366 . S
C5425 C5426 1.414 . S
C5425 C5428 1.499 . S
C5426 H5406 0.950 . S
C5426 C5425 1.414 . S
C5426 C5427 1.374 . S
C5427 H5407 0.950 . S
C5427 C5423 1.385 . S
C5427 C5426 1.374 . S
C5428 C5425 1.499 . S
C5428 C5429 1.373 . S
C5428 C5430 1.389 . S
C5429 H5408 0.950 . S
C5429 C5428 1.373 . S
C5429 C5445 1.377 . S
C5430 C5428 1.389 . S
C5430 C5431 1.524 . S
C5430 C5444 1.377 . S
C5431 C5430 1.524 . S
C5431 C5432 1.397 . S
C5431 C5436 1.363 . S
C5432 H5409 0.950 . S
C5432 C5431 1.397 . S
C5432 C5433 1.334 . S
C5433 H5410 0.950 . S
C5433 C5432 1.334 . S
C5433 C5434 1.287 . S
C5434 C5433 1.287 . S
C5434 C5435 1.524 . S
C5434 H5453 0.913 . S
C5435 H5411 0.950 . S
C5435 C5434 1.524 . S
C5435 C5436 1.415 . S
C5436 H5412 0.950 . S
C5436 C5431 1.363 . S
C5436 C5435 1.415 . S
C5437 H5413 0.951 . S
C5437 C5438 1.366 . S
C5437 C5439 1.388 . S
C5438 C5437 1.366 . S
C5438 C5442 1.385 . S
C5439 H5414 0.951 . S
C5439 C5437 1.388 . S
C5439 C5440 1.366 . S
C5440 C5439 1.366 . S
C5440 C5441 1.414 . S
C5440 C5443 1.499 . S
C5441 H5415 0.950 . S
C5441 C5440 1.414 . S
C5441 C5442 1.374 . S
C5442 H5416 0.950 . S
C5442 C5438 1.385 . S
C5442 C5441 1.374 . S
C5443 C5440 1.499 . S
C5443 C5444 1.373 . S
C5443 C5445 1.389 . S
C5444 H5417 0.950 . S
C5444 C5430 1.377 . S
C5444 C5443 1.373 . S
C5445 C5429 1.377 . S
C5445 C5443 1.389 . S
C5445 C5446 1.524 . S
C5446 C5445 1.524 . S
C5446 C5447 1.397 . S
C5446 C5451 1.363 . S
C5447 H5418 0.950 . S
C5447 C5446 1.397 . S
C5447 C5448 1.334 . S
C5448 H5419 0.950 . S
C5448 C5447 1.334 . S
C5448 C5449 1.287 . S
C5449 C5448 1.287 . S
C5449 C5450 1.524 . S
C5449 H5452 0.999 . S
C5450 H5420 0.950 . S
C5450 C5449 1.524 . S
C5450 C5451 1.415 . S
C5451 H5421 0.950 . S
C5451 C5446 1.363 . S
C5451 C5450 1.415 . S
H5452 C5449 0.999 . S
H5453 C5434 0.913 . S
H5454 C5472 0.951 . S
H5455 C5474 0.951 . S
H5456 C5476 0.950 . S
H5457 C5477 0.950 . S
H5458 C5479 0.950 . S
H5459 C5482 0.950 . S
H5460 C5483 0.950 . S
H5461 C5485 0.950 . S
H5462 C5486 0.950 . S
H5463 C5487 0.951 . S
H5464 C5489 0.951 . S
H5465 C5491 0.950 . S
H5466 C5492 0.950 . S
H5467 C5494 0.950 . S
H5468 C5497 0.950 . S
H5469 C5498 0.950 . S
H5470 C5500 0.950 . S
H5471 C5501 0.950 . S
C5472 H5454 0.951 . S
C5472 C5473 1.366 . S
C5472 C5474 1.388 . S
C5473 C5472 1.366 . S
C5473 C5477 1.385 . S
C5474 H5455 0.951 . S
C5474 C5472 1.388 . S
C5474 C5475 1.366 . S
C5475 C5474 1.366 . S
C5475 C5476 1.414 . S
C5475 C5478 1.499 . S
C5476 H5456 0.950 . S
C5476 C5475 1.414 . S
C5476 C5477 1.374 . S
C5477 H5457 0.950 . S
C5477 C5473 1.385 . S
C5477 C5476 1.374 . S
C5478 C5475 1.499 . S
C5478 C5479 1.373 . S
C5478 C5480 1.389 . S
C5479 H5458 0.950 . S
C5479 C5478 1.373 . S
C5479 C5495 1.377 . S
C5480 C5478 1.389 . S
C5480 C5481 1.524 . S
C5480 C5494 1.377 . S
C5481 C5480 1.524 . S
C5481 C5482 1.397 . S
C5481 C5486 1.363 . S
C5482 H5459 0.950 . S
C5482 C5481 1.397 . S
C5482 C5483 1.334 . S
C5483 H5460 0.950 . S
C5483 C5482 1.334 . S
C5483 C5484 1.287 . S
C5484 C5483 1.287 . S
C5484 C5485 1.524 . S
C5484 H5503 0.913 . S
C5485 H5461 0.950 . S
C5485 C5484 1.524 . S
C5485 C5486 1.415 . S
C5486 H5462 0.950 . S
C5486 C5481 1.363 . S
C5486 C5485 1.415 . S
C5487 H5463 0.951 . S
C5487 C5488 1.366 . S
C5487 C5489 1.388 . S
C5488 C5487 1.366 . S
C5488 C5492 1.385 . S
C5489 H5464 0.951 . S
C5489 C5487 1.388 . S
C5489 C5490 1.366 . S
C5490 C5489 1.366 . S
C5490 C5491 1.414 . S
C5490 C5493 1.499 . S
C5491 H5465 0.950 . S
C5491 C5490 1.414 . S
C5491 C5492 1.374 . S
C5492 H5466 0.950 . S
C5492 C5488 1.385 . S
C5492 C5491 1.374 . S
C5493 C5490 1.499 . S
C5493 C5494 1.373 . S
C5493 C5495 1.389 . S
C5494 H5467 0.950 . S
C5494 C5480 1.377 . S
C5494 C5493 1.373 . S
C5495 C5479 1.377 . S
C5495 C5493 1.389 . S
C5495 C5496 1.524 . S
C5496 C5495 1.524 . S
C5496 C5497 1.397 . S
C5496 C5501 1.363 . S
C5497 H5468 0.950 . S
C5497 C5496 1.397 . S
C5497 C5498 1.334 . S
C5498 H5469 0.950 . S
C5498 C5497 1.334 . S
C5498 C5499 1.287 . S
C5499 C5498 1.287 . S
C5499 C5500 1.524 . S
C5499 H5502 0.999 . S
C5500 H5470 0.950 . S
C5500 C5499 1.524 . S
C5500 C5501 1.415 . S
C5501 H5471 0.950 . S
C5501 C5496 1.363 . S
C5501 C5500 1.415 . S
H5502 C5499 0.999 . S
H5503 C5484 0.913 . S
H5504 C5522 0.951 . S
H5505 C5524 0.951 . S
H5506 C5526 0.950 . S
H5507 C5527 0.950 . S
H5508 C5529 0.950 . S
H5509 C5532 0.950 . S
H5510 C5533 0.950 . S
H5511 C5535 0.950 . S
H5512 C5536 0.950 . S
H5513 C5537 0.951 . S
H5514 C5539 0.951 . S
H5515 C5541 0.950 . S
H5516 C5542 0.950 . S
H5517 C5544 0.950 . S
H5518 C5547 0.950 . S
H5519 C5548 0.950 . S
H5520 C5550 0.950 . S
H5521 C5551 0.950 . S
C5522 H5504 0.951 . S
C5522 C5523 1.366 . S
C5522 C5524 1.388 . S
C5523 C5522 1.366 . S
C5523 C5527 1.385 . S
C5524 H5505 0.951 . S
C5524 C5522 1.388 . S
C5524 C5525 1.366 . S
C5525 C5524 1.366 . S
C5525 C5526 1.414 . S
C5525 C5528 1.499 . S
C5526 H5506 0.950 . S
C5526 C5525 1.414 . S
C5526 C5527 1.374 . S
C5527 H5507 0.950 . S
C5527 C5523 1.385 . S
C5527 C5526 1.374 . S
C5528 C5525 1.499 . S
C5528 C5529 1.373 . S
C5528 C5530 1.389 . S
C5529 H5508 0.950 . S
C5529 C5528 1.373 . S
C5529 C5545 1.377 . S
C5530 C5528 1.389 . S
C5530 C5531 1.524 . S
C5530 C5544 1.377 . S
C5531 C5530 1.524 . S
C5531 C5532 1.397 . S
C5531 C5536 1.363 . S
C5532 H5509 0.950 . S
C5532 C5531 1.397 . S
C5532 C5533 1.334 . S
C5533 H5510 0.950 . S
C5533 C5532 1.334 . S
C5533 C5534 1.287 . S
C5534 C5533 1.287 . S
C5534 C5535 1.524 . S
C5534 H5553 0.913 . S
C5535 H5511 0.950 . S
C5535 C5534 1.524 . S
C5535 C5536 1.415 . S
C5536 H5512 0.950 . S
C5536 C5531 1.363 . S
C5536 C5535 1.415 . S
C5537 H5513 0.951 . S
C5537 C5538 1.366 . S
C5537 C5539 1.388 . S
C5538 C5537 1.366 . S
C5538 C5542 1.385 . S
C5539 H5514 0.951 . S
C5539 C5537 1.388 . S
C5539 C5540 1.366 . S
C5540 C5539 1.366 . S
C5540 C5541 1.414 . S
C5540 C5543 1.499 . S
C5541 H5515 0.950 . S
C5541 C5540 1.414 . S
C5541 C5542 1.374 . S
C5542 H5516 0.950 . S
C5542 C5538 1.385 . S
C5542 C5541 1.374 . S
C5543 C5540 1.499 . S
C5543 C5544 1.373 . S
C5543 C5545 1.389 . S
C5544 H5517 0.950 . S
C5544 C5530 1.377 . S
C5544 C5543 1.373 . S
C5545 C5529 1.377 . S
C5545 C5543 1.389 . S
C5545 C5546 1.524 . S
C5546 C5545 1.524 . S
C5546 C5547 1.397 . S
C5546 C5551 1.363 . S
C5547 H5518 0.950 . S
C5547 C5546 1.397 . S
C5547 C5548 1.334 . S
C5548 H5519 0.950 . S
C5548 C5547 1.334 . S
C5548 C5549 1.287 . S
C5549 C5548 1.287 . S
C5549 C5550 1.524 . S
C5549 H5552 0.999 . S
C5550 H5520 0.950 . S
C5550 C5549 1.524 . S
C5550 C5551 1.415 . S
C5551 H5521 0.950 . S
C5551 C5546 1.363 . S
C5551 C5550 1.415 . S
H5552 C5549 0.999 . S
H5553 C5534 0.913 . S
H5554 C5572 0.951 . S
H5555 C5574 0.951 . S
H5556 C5576 0.950 . S
H5557 C5577 0.950 . S
H5558 C5579 0.950 . S
H5559 C5582 0.950 . S
H5560 C5583 0.950 . S
H5561 C5585 0.950 . S
H5562 C5586 0.950 . S
H5563 C5587 0.951 . S
H5564 C5589 0.951 . S
H5565 C5591 0.950 . S
H5566 C5592 0.950 . S
H5567 C5594 0.950 . S
H5568 C5597 0.950 . S
H5569 C5598 0.950 . S
H5570 C5600 0.950 . S
H5571 C5601 0.950 . S
C5572 H5554 0.951 . S
C5572 C5573 1.366 . S
C5572 C5574 1.388 . S
C5573 C5572 1.366 . S
C5573 C5577 1.385 . S
C5574 H5555 0.951 . S
C5574 C5572 1.388 . S
C5574 C5575 1.366 . S
C5575 C5574 1.366 . S
C5575 C5576 1.414 . S
C5575 C5578 1.499 . S
C5576 H5556 0.950 . S
C5576 C5575 1.414 . S
C5576 C5577 1.374 . S
C5577 H5557 0.950 . S
C5577 C5573 1.385 . S
C5577 C5576 1.374 . S
C5578 C5575 1.499 . S
C5578 C5579 1.373 . S
C5578 C5580 1.389 . S
C5579 H5558 0.950 . S
C5579 C5578 1.373 . S
C5579 C5595 1.377 . S
C5580 C5578 1.389 . S
C5580 C5581 1.524 . S
C5580 C5594 1.377 . S
C5581 C5580 1.524 . S
C5581 C5582 1.397 . S
C5581 C5586 1.363 . S
C5582 H5559 0.950 . S
C5582 C5581 1.397 . S
C5582 C5583 1.334 . S
C5583 H5560 0.950 . S
C5583 C5582 1.334 . S
C5583 C5584 1.287 . S
C5584 C5583 1.287 . S
C5584 C5585 1.524 . S
C5584 H5603 0.913 . S
C5585 H5561 0.950 . S
C5585 C5584 1.524 . S
C5585 C5586 1.415 . S
C5586 H5562 0.950 . S
C5586 C5581 1.363 . S
C5586 C5585 1.415 . S
C5587 H5563 0.951 . S
C5587 C5588 1.366 . S
C5587 C5589 1.388 . S
C5588 C5587 1.366 . S
C5588 C5592 1.385 . S
C5589 H5564 0.951 . S
C5589 C5587 1.388 . S
C5589 C5590 1.366 . S
C5590 C5589 1.366 . S
C5590 C5591 1.414 . S
C5590 C5593 1.499 . S
C5591 H5565 0.950 . S
C5591 C5590 1.414 . S
C5591 C5592 1.374 . S
C5592 H5566 0.950 . S
C5592 C5588 1.385 . S
C5592 C5591 1.374 . S
C5593 C5590 1.499 . S
C5593 C5594 1.373 . S
C5593 C5595 1.389 . S
C5594 H5567 0.950 . S
C5594 C5580 1.377 . S
C5594 C5593 1.373 . S
C5595 C5579 1.377 . S
C5595 C5593 1.389 . S
C5595 C5596 1.524 . S
C5596 C5595 1.524 . S
C5596 C5597 1.397 . S
C5596 C5601 1.363 . S
C5597 H5568 0.950 . S
C5597 C5596 1.397 . S
C5597 C5598 1.334 . S
C5598 H5569 0.950 . S
C5598 C5597 1.334 . S
C5598 C5599 1.287 . S
C5599 C5598 1.287 . S
C5599 C5600 1.524 . S
C5599 H5602 0.999 . S
C5600 H5570 0.950 . S
C5600 C5599 1.524 . S
C5600 C5601 1.415 . S
C5601 H5571 0.950 . S
C5601 C5596 1.363 . S
C5601 C5600 1.415 . S
H5602 C5599 0.999 . S
H5603 C5584 0.913 . S
H5604 C5622 0.951 . S
H5605 C5624 0.951 . S
H5606 C5626 0.950 . S
H5607 C5627 0.950 . S
H5608 C5629 0.950 . S
H5609 C5632 0.950 . S
H5610 C5633 0.950 . S
H5611 C5635 0.950 . S
H5612 C5636 0.950 . S
H5613 C5637 0.951 . S
H5614 C5639 0.951 . S
H5615 C5641 0.950 . S
H5616 C5642 0.950 . S
H5617 C5644 0.950 . S
H5618 C5647 0.950 . S
H5619 C5648 0.950 . S
H5620 C5650 0.950 . S
H5621 C5651 0.950 . S
C5622 H5604 0.951 . S
C5622 C5623 1.366 . S
C5622 C5624 1.388 . S
C5623 C5622 1.366 . S
C5623 C5627 1.385 . S
C5624 H5605 0.951 . S
C5624 C5622 1.388 . S
C5624 C5625 1.366 . S
C5625 C5624 1.366 . S
C5625 C5626 1.414 . S
C5625 C5628 1.499 . S
C5626 H5606 0.950 . S
C5626 C5625 1.414 . S
C5626 C5627 1.374 . S
C5627 H5607 0.950 . S
C5627 C5623 1.385 . S
C5627 C5626 1.374 . S
C5628 C5625 1.499 . S
C5628 C5629 1.373 . S
C5628 C5630 1.389 . S
C5629 H5608 0.950 . S
C5629 C5628 1.373 . S
C5629 C5645 1.377 . S
C5630 C5628 1.389 . S
C5630 C5631 1.524 . S
C5630 C5644 1.377 . S
C5631 C5630 1.524 . S
C5631 C5632 1.397 . S
C5631 C5636 1.363 . S
C5632 H5609 0.950 . S
C5632 C5631 1.397 . S
C5632 C5633 1.334 . S
C5633 H5610 0.950 . S
C5633 C5632 1.334 . S
C5633 C5634 1.287 . S
C5634 C5633 1.287 . S
C5634 C5635 1.524 . S
C5634 H5653 0.913 . S
C5635 H5611 0.950 . S
C5635 C5634 1.524 . S
C5635 C5636 1.415 . S
C5636 H5612 0.950 . S
C5636 C5631 1.363 . S
C5636 C5635 1.415 . S
C5637 H5613 0.951 . S
C5637 C5638 1.366 . S
C5637 C5639 1.388 . S
C5638 C5637 1.366 . S
C5638 C5642 1.385 . S
C5639 H5614 0.951 . S
C5639 C5637 1.388 . S
C5639 C5640 1.366 . S
C5640 C5639 1.366 . S
C5640 C5641 1.414 . S
C5640 C5643 1.499 . S
C5641 H5615 0.950 . S
C5641 C5640 1.414 . S
C5641 C5642 1.374 . S
C5642 H5616 0.950 . S
C5642 C5638 1.385 . S
C5642 C5641 1.374 . S
C5643 C5640 1.499 . S
C5643 C5644 1.373 . S
C5643 C5645 1.389 . S
C5644 H5617 0.950 . S
C5644 C5630 1.377 . S
C5644 C5643 1.373 . S
C5645 C5629 1.377 . S
C5645 C5643 1.389 . S
C5645 C5646 1.524 . S
C5646 C5645 1.524 . S
C5646 C5647 1.397 . S
C5646 C5651 1.363 . S
C5647 H5618 0.950 . S
C5647 C5646 1.397 . S
C5647 C5648 1.334 . S
C5648 H5619 0.950 . S
C5648 C5647 1.334 . S
C5648 C5649 1.287 . S
C5649 C5648 1.287 . S
C5649 C5650 1.524 . S
C5649 H5652 0.999 . S
C5650 H5620 0.950 . S
C5650 C5649 1.524 . S
C5650 C5651 1.415 . S
C5651 H5621 0.950 . S
C5651 C5646 1.363 . S
C5651 C5650 1.415 . S
H5652 C5649 0.999 . S
H5653 C5634 0.913 . S
H5654 C5672 0.951 . S
H5655 C5674 0.951 . S
H5656 C5676 0.950 . S
H5657 C5677 0.950 . S
H5658 C5679 0.950 . S
H5659 C5682 0.950 . S
H5660 C5683 0.950 . S
H5661 C5685 0.950 . S
H5662 C5686 0.950 . S
H5663 C5687 0.951 . S
H5664 C5689 0.951 . S
H5665 C5691 0.950 . S
H5666 C5692 0.950 . S
H5667 C5694 0.950 . S
H5668 C5697 0.950 . S
H5669 C5698 0.950 . S
H5670 C5700 0.950 . S
H5671 C5701 0.950 . S
C5672 H5654 0.951 . S
C5672 C5673 1.366 . S
C5672 C5674 1.388 . S
C5673 C5672 1.366 . S
C5673 C5677 1.385 . S
C5674 H5655 0.951 . S
C5674 C5672 1.388 . S
C5674 C5675 1.366 . S
C5675 C5674 1.366 . S
C5675 C5676 1.414 . S
C5675 C5678 1.499 . S
C5676 H5656 0.950 . S
C5676 C5675 1.414 . S
C5676 C5677 1.374 . S
C5677 H5657 0.950 . S
C5677 C5673 1.385 . S
C5677 C5676 1.374 . S
C5678 C5675 1.499 . S
C5678 C5679 1.373 . S
C5678 C5680 1.389 . S
C5679 H5658 0.950 . S
C5679 C5678 1.373 . S
C5679 C5695 1.377 . S
C5680 C5678 1.389 . S
C5680 C5681 1.524 . S
C5680 C5694 1.377 . S
C5681 C5680 1.524 . S
C5681 C5682 1.397 . S
C5681 C5686 1.363 . S
C5682 H5659 0.950 . S
C5682 C5681 1.397 . S
C5682 C5683 1.334 . S
C5683 H5660 0.950 . S
C5683 C5682 1.334 . S
C5683 C5684 1.287 . S
C5684 C5683 1.287 . S
C5684 C5685 1.524 . S
C5684 H5703 0.913 . S
C5685 H5661 0.950 . S
C5685 C5684 1.524 . S
C5685 C5686 1.415 . S
C5686 H5662 0.950 . S
C5686 C5681 1.363 . S
C5686 C5685 1.415 . S
C5687 H5663 0.951 . S
C5687 C5688 1.366 . S
C5687 C5689 1.388 . S
C5688 C5687 1.366 . S
C5688 C5692 1.385 . S
C5689 H5664 0.951 . S
C5689 C5687 1.388 . S
C5689 C5690 1.366 . S
C5690 C5689 1.366 . S
C5690 C5691 1.414 . S
C5690 C5693 1.499 . S
C5691 H5665 0.950 . S
C5691 C5690 1.414 . S
C5691 C5692 1.374 . S
C5692 H5666 0.950 . S
C5692 C5688 1.385 . S
C5692 C5691 1.374 . S
C5693 C5690 1.499 . S
C5693 C5694 1.373 . S
C5693 C5695 1.389 . S
C5694 H5667 0.950 . S
C5694 C5680 1.377 . S
C5694 C5693 1.373 . S
C5695 C5679 1.377 . S
C5695 C5693 1.389 . S
C5695 C5696 1.524 . S
C5696 C5695 1.524 . S
C5696 C5697 1.397 . S
C5696 C5701 1.363 . S
C5697 H5668 0.950 . S
C5697 C5696 1.397 . S
C5697 C5698 1.334 . S
C5698 H5669 0.950 . S
C5698 C5697 1.334 . S
C5698 C5699 1.287 . S
C5699 C5698 1.287 . S
C5699 C5700 1.524 . S
C5699 H5702 0.999 . S
C5700 H5670 0.950 . S
C5700 C5699 1.524 . S
C5700 C5701 1.415 . S
C5701 H5671 0.950 . S
C5701 C5696 1.363 . S
C5701 C5700 1.415 . S
H5702 C5699 0.999 . S
H5703 C5684 0.913 . S
H5704 C5722 0.951 . S
H5705 C5724 0.951 . S
H5706 C5726 0.950 . S
H5707 C5727 0.950 . S
H5708 C5729 0.950 . S
H5709 C5732 0.950 . S
H5710 C5733 0.950 . S
H5711 C5735 0.950 . S
H5712 C5736 0.950 . S
H5713 C5737 0.951 . S
H5714 C5739 0.951 . S
H5715 C5741 0.950 . S
H5716 C5742 0.950 . S
H5717 C5744 0.950 . S
H5718 C5747 0.950 . S
H5719 C5748 0.950 . S
H5720 C5750 0.950 . S
H5721 C5751 0.950 . S
C5722 H5704 0.951 . S
C5722 C5723 1.366 . S
C5722 C5724 1.388 . S
C5723 C5722 1.366 . S
C5723 C5727 1.385 . S
C5724 H5705 0.951 . S
C5724 C5722 1.388 . S
C5724 C5725 1.366 . S
C5725 C5724 1.366 . S
C5725 C5726 1.414 . S
C5725 C5728 1.499 . S
C5726 H5706 0.950 . S
C5726 C5725 1.414 . S
C5726 C5727 1.374 . S
C5727 H5707 0.950 . S
C5727 C5723 1.385 . S
C5727 C5726 1.374 . S
C5728 C5725 1.499 . S
C5728 C5729 1.373 . S
C5728 C5730 1.389 . S
C5729 H5708 0.950 . S
C5729 C5728 1.373 . S
C5729 C5745 1.377 . S
C5730 C5728 1.389 . S
C5730 C5731 1.524 . S
C5730 C5744 1.377 . S
C5731 C5730 1.524 . S
C5731 C5732 1.397 . S
C5731 C5736 1.363 . S
C5732 H5709 0.950 . S
C5732 C5731 1.397 . S
C5732 C5733 1.334 . S
C5733 H5710 0.950 . S
C5733 C5732 1.334 . S
C5733 C5734 1.287 . S
C5734 C5733 1.287 . S
C5734 C5735 1.524 . S
C5734 H5753 0.913 . S
C5735 H5711 0.950 . S
C5735 C5734 1.524 . S
C5735 C5736 1.415 . S
C5736 H5712 0.950 . S
C5736 C5731 1.363 . S
C5736 C5735 1.415 . S
C5737 H5713 0.951 . S
C5737 C5738 1.366 . S
C5737 C5739 1.388 . S
C5738 C5737 1.366 . S
C5738 C5742 1.385 . S
C5739 H5714 0.951 . S
C5739 C5737 1.388 . S
C5739 C5740 1.366 . S
C5740 C5739 1.366 . S
C5740 C5741 1.414 . S
C5740 C5743 1.499 . S
C5741 H5715 0.950 . S
C5741 C5740 1.414 . S
C5741 C5742 1.374 . S
C5742 H5716 0.950 . S
C5742 C5738 1.385 . S
C5742 C5741 1.374 . S
C5743 C5740 1.499 . S
C5743 C5744 1.373 . S
C5743 C5745 1.389 . S
C5744 H5717 0.950 . S
C5744 C5730 1.377 . S
C5744 C5743 1.373 . S
C5745 C5729 1.377 . S
C5745 C5743 1.389 . S
C5745 C5746 1.524 . S
C5746 C5745 1.524 . S
C5746 C5747 1.397 . S
C5746 C5751 1.363 . S
C5747 H5718 0.950 . S
C5747 C5746 1.397 . S
C5747 C5748 1.334 . S
C5748 H5719 0.950 . S
C5748 C5747 1.334 . S
C5748 C5749 1.287 . S
C5749 C5748 1.287 . S
C5749 C5750 1.524 . S
C5749 H5752 0.999 . S
C5750 H5720 0.950 . S
C5750 C5749 1.524 . S
C5750 C5751 1.415 . S
C5751 H5721 0.950 . S
C5751 C5746 1.363 . S
C5751 C5750 1.415 . S
H5752 C5749 0.999 . S
H5753 C5734 0.913 . S
H5754 C5772 0.951 1_455 S
H5755 C5774 0.856 1_455 S
H5756 C5776 0.950 . S
H5757 C5777 0.950 . S
H5758 C5779 0.950 . S
H5759 C5782 0.918 1_655 S
H5760 C5783 0.950 . S
H5761 C5785 0.950 . S
H5762 C5786 0.950 . S
H5763 C5787 0.951 . S
H5764 C5789 0.951 . S
H5765 C5791 0.950 . S
H5766 C5792 0.950 . S
H5767 C5794 1.004 . S
H5768 C5797 0.950 . S
H5769 C5798 0.950 . S
H5770 C5800 0.950 . S
H5771 C5801 0.950 . S
C5772 H5754 0.951 1_655 S
C5772 C5773 1.366 . S
C5772 C5774 1.444 . S
C5773 C5772 1.366 . S
C5773 C5777 1.385 . S
C5774 H5755 0.856 1_655 S
C5774 C5772 1.444 . S
C5774 C5775 1.410 . S
C5775 C5774 1.410 . S
C5775 C5776 1.414 . S
C5775 C5778 1.499 . S
C5776 H5756 0.950 . S
C5776 C5775 1.414 . S
C5776 C5777 1.374 . S
C5777 H5757 0.950 . S
C5777 C5773 1.385 . S
C5777 C5776 1.374 . S
C5778 C5775 1.499 . S
C5778 C5779 1.373 . S
C5778 C5780 1.389 . S
C5779 H5758 0.950 . S
C5779 C5778 1.373 . S
C5779 C5795 1.377 . S
C5780 C5778 1.389 . S
C5780 C5781 1.524 1_655 S
C5780 C5794 1.349 1_655 S
C5781 C5780 1.524 1_455 S
C5781 C5782 1.413 . S
C5781 C5786 1.363 . S
C5782 H5759 0.918 1_455 S
C5782 C5781 1.413 . S
C5782 C5783 1.350 . S
C5783 H5760 0.950 . S
C5783 C5782 1.350 . S
C5783 C5784 1.287 . S
C5784 C5783 1.287 . S
C5784 C5785 1.524 . S
C5784 H5803 0.913 . S
C5785 H5761 0.950 . S
C5785 C5784 1.524 . S
C5785 C5786 1.415 . S
C5786 H5762 0.950 . S
C5786 C5781 1.363 . S
C5786 C5785 1.415 . S
C5787 H5763 0.951 . S
C5787 C5788 1.366 . S
C5787 C5789 1.388 . S
C5788 C5787 1.366 . S
C5788 C5792 1.385 1_655 S
C5789 H5764 0.951 . S
C5789 C5787 1.388 . S
C5789 C5790 1.366 . S
C5790 C5789 1.366 . S
C5790 C5791 1.414 1_655 S
C5790 C5793 1.499 . S
C5791 H5765 0.950 . S
C5791 C5790 1.414 1_455 S
C5791 C5792 1.374 . S
C5792 H5766 0.950 . S
C5792 C5788 1.385 1_455 S
C5792 C5791 1.374 . S
C5793 C5790 1.499 . S
C5793 C5794 1.350 1_655 S
C5793 C5795 1.389 . S
C5794 H5767 1.004 . S
C5794 C5780 1.349 1_455 S
C5794 C5793 1.350 1_455 S
C5795 C5779 1.377 . S
C5795 C5793 1.389 . S
C5795 C5796 1.524 . S
C5796 C5795 1.524 . S
C5796 C5797 1.397 . S
C5796 C5801 1.363 . S
C5797 H5768 0.950 . S
C5797 C5796 1.397 . S
C5797 C5798 1.334 . S
C5798 H5769 0.950 . S
C5798 C5797 1.334 . S
C5798 C5799 1.287 . S
C5799 C5798 1.287 . S
C5799 C5800 1.524 . S
C5799 H5802 0.999 . S
C5800 H5770 0.950 . S
C5800 C5799 1.524 . S
C5800 C5801 1.415 . S
C5801 H5771 0.950 . S
C5801 C5796 1.363 . S
C5801 C5800 1.415 . S
H5802 C5799 0.999 . S
H5803 C5784 0.913 . S
H5804 C5822 0.951 . S
H5805 C5824 0.951 . S
H5806 C5826 0.950 . S
H5807 C5827 0.950 . S
H5808 C5829 0.950 . S
H5809 C5832 0.950 . S
H5810 C5833 0.950 . S
H5811 C5835 0.950 . S
H5812 C5836 0.950 . S
H5813 C5837 0.951 . S
H5814 C5839 0.951 . S
H5815 C5841 0.950 . S
H5816 C5842 0.950 . S
H5817 C5844 0.950 . S
H5818 C5847 0.950 . S
H5819 C5848 0.950 . S
H5820 C5850 0.950 . S
H5821 C5851 0.950 . S
C5822 H5804 0.951 . S
C5822 C5823 1.366 . S
C5822 C5824 1.388 . S
C5823 C5822 1.366 . S
C5823 C5827 1.385 . S
C5824 H5805 0.951 . S
C5824 C5822 1.388 . S
C5824 C5825 1.366 . S
C5825 C5824 1.366 . S
C5825 C5826 1.414 . S
C5825 C5828 1.499 . S
C5826 H5806 0.950 . S
C5826 C5825 1.414 . S
C5826 C5827 1.374 . S
C5827 H5807 0.950 . S
C5827 C5823 1.385 . S
C5827 C5826 1.374 . S
C5828 C5825 1.499 . S
C5828 C5829 1.373 . S
C5828 C5830 1.389 . S
C5829 H5808 0.950 . S
C5829 C5828 1.373 . S
C5829 C5845 1.377 . S
C5830 C5828 1.389 . S
C5830 C5831 1.524 . S
C5830 C5844 1.377 . S
C5831 C5830 1.524 . S
C5831 C5832 1.397 . S
C5831 C5836 1.363 . S
C5832 H5809 0.950 . S
C5832 C5831 1.397 . S
C5832 C5833 1.334 . S
C5833 H5810 0.950 . S
C5833 C5832 1.334 . S
C5833 C5834 1.287 . S
C5834 C5833 1.287 . S
C5834 C5835 1.524 . S
C5834 H5853 0.913 . S
C5835 H5811 0.950 . S
C5835 C5834 1.524 . S
C5835 C5836 1.415 . S
C5836 H5812 0.950 . S
C5836 C5831 1.363 . S
C5836 C5835 1.415 . S
C5837 H5813 0.951 . S
C5837 C5838 1.366 . S
C5837 C5839 1.388 . S
C5838 C5837 1.366 . S
C5838 C5842 1.385 . S
C5839 H5814 0.951 . S
C5839 C5837 1.388 . S
C5839 C5840 1.366 . S
C5840 C5839 1.366 . S
C5840 C5841 1.414 . S
C5840 C5843 1.499 . S
C5841 H5815 0.950 . S
C5841 C5840 1.414 . S
C5841 C5842 1.374 . S
C5842 H5816 0.950 . S
C5842 C5838 1.385 . S
C5842 C5841 1.374 . S
C5843 C5840 1.499 . S
C5843 C5844 1.373 . S
C5843 C5845 1.389 . S
C5844 H5817 0.950 . S
C5844 C5830 1.377 . S
C5844 C5843 1.373 . S
C5845 C5829 1.377 . S
C5845 C5843 1.389 . S
C5845 C5846 1.524 . S
C5846 C5845 1.524 . S
C5846 C5847 1.397 . S
C5846 C5851 1.363 . S
C5847 H5818 0.950 . S
C5847 C5846 1.397 . S
C5847 C5848 1.334 . S
C5848 H5819 0.950 . S
C5848 C5847 1.334 . S
C5848 C5849 1.287 . S
C5849 C5848 1.287 . S
C5849 C5850 1.524 . S
C5849 H5852 0.999 . S
C5850 H5820 0.950 . S
C5850 C5849 1.524 . S
C5850 C5851 1.415 . S
C5851 H5821 0.950 . S
C5851 C5846 1.363 . S
C5851 C5850 1.415 . S
H5852 C5849 0.999 . S
H5853 C5834 0.913 . S
H5854 C5872 0.951 . S
H5855 C5874 0.951 . S
H5856 C5876 0.950 . S
H5857 C5877 0.950 . S
H5858 C5879 0.950 . S
H5859 C5882 0.950 . S
H5860 C5883 0.950 . S
H5861 C5885 0.950 . S
H5862 C5886 0.950 . S
H5863 C5887 0.945 . S
H5864 C5889 0.951 . S
H5865 C5891 0.950 . S
H5866 C5892 0.950 . S
H5867 C5894 0.950 . S
H5868 C5897 0.950 . S
H5869 C5898 0.950 . S
H5870 C5900 0.950 . S
H5871 C5901 0.950 . S
C5872 H5854 0.951 . S
C5872 C5873 1.366 . S
C5872 C5874 1.388 . S
C5873 C5872 1.366 . S
C5873 C5877 1.385 . S
C5874 H5855 0.951 . S
C5874 C5872 1.388 . S
C5874 C5875 1.366 . S
C5875 C5874 1.366 . S
C5875 C5876 1.414 . S
C5875 C5878 1.499 . S
C5876 H5856 0.950 . S
C5876 C5875 1.414 . S
C5876 C5877 1.374 . S
C5877 H5857 0.950 . S
C5877 C5873 1.385 . S
C5877 C5876 1.374 . S
C5878 C5875 1.499 . S
C5878 C5879 1.373 . S
C5878 C5880 1.337 1_545 S
C5879 H5858 0.950 . S
C5879 C5878 1.373 . S
C5879 C5895 1.377 . S
C5880 C5878 1.337 1_565 S
C5880 C5881 1.617 . S
C5880 C5894 1.347 . S
C5881 C5880 1.617 . S
C5881 C5882 1.397 . S
C5881 C5886 1.363 . S
C5882 H5859 0.950 . S
C5882 C5881 1.397 . S
C5882 C5883 1.334 . S
C5883 H5860 0.950 . S
C5883 C5882 1.334 . S
C5883 C5884 1.287 . S
C5884 C5883 1.287 . S
C5884 C5885 1.524 . S
C5884 H5903 0.913 . S
C5885 H5861 0.950 . S
C5885 C5884 1.524 . S
C5885 C5886 1.415 . S
C5886 H5862 0.950 . S
C5886 C5881 1.363 . S
C5886 C5885 1.415 . S
C5887 H5863 0.945 . S
C5887 C5888 1.379 . S
C5887 C5889 1.388 . S
C5888 C5887 1.379 . S
C5888 C5892 1.350 . S
C5889 H5864 0.951 . S
C5889 C5887 1.388 . S
C5889 C5890 1.366 . S
C5890 C5889 1.366 . S
C5890 C5891 1.414 . S
C5890 C5893 1.499 . S
C5891 H5865 0.950 . S
C5891 C5890 1.414 . S
C5891 C5892 1.374 . S
C5892 H5866 0.950 . S
C5892 C5888 1.350 . S
C5892 C5891 1.374 . S
C5893 C5890 1.499 . S
C5893 C5894 1.373 1_545 S
C5893 C5895 1.389 . S
C5894 H5867 0.950 . S
C5894 C5880 1.347 . S
C5894 C5893 1.373 1_565 S
C5895 C5879 1.377 . S
C5895 C5893 1.389 . S
C5895 C5896 1.524 . S
C5896 C5895 1.524 . S
C5896 C5897 1.397 . S
C5896 C5901 1.363 . S
C5897 H5868 0.950 . S
C5897 C5896 1.397 . S
C5897 C5898 1.334 . S
C5898 H5869 0.950 . S
C5898 C5897 1.334 . S
C5898 C5899 1.287 . S
C5899 C5898 1.287 . S
C5899 C5900 1.524 . S
C5899 H5902 0.999 . S
C5900 H5870 0.950 . S
C5900 C5899 1.524 . S
C5900 C5901 1.415 . S
C5901 H5871 0.950 . S
C5901 C5896 1.363 . S
C5901 C5900 1.415 . S
H5902 C5899 0.999 . S
H5903 C5884 0.913 . S
C2323 C7 1.255 . S
C2338 C1307 1.043 1_655 S
C2373 C23 1.716 . S
C2388 C1447 1.135 . S
C2438 C1535 1.119 . S
C2423 C37 1.323 . S
C2473 C35 1.415 . S
C2488 C1675 1.044 1_565 S
C2523 C9 1.357 . S
C2538 C1789 1.035 . S
C2573 C21 1.710 . S
C2588 C1877 1.324 . S
C2623 C49 1.244 . S
C2638 C1763 1.067 . S
C2688 C1903 1.359 . S
C2673 C65 1.623 . S
C2738 C1649 1.148 . S
C2723 C79 1.347 . S
C2773 C77 1.362 . S
C2788 C1561 1.079 . S
C2838 C1333 1.065 . S
C2823 C51 1.371 . S
C2873 C63 1.619 . S
C2888 C1421 1.485 . S
C2923 C91 1.775 . S
C2938 C1991 1.366 . S
C2973 C107 1.802 . S
C2988 C2131 1.203 . S
C3038 C2219 1.324 . S
C3023 C121 1.771 . S
C3073 C119 1.797 . S
C3088 C307 1.204 . S
C3123 C93 1.859 . S
C3138 C421 1.233 . S
C3173 C105 1.777 . S
C3188 C509 1.376 . S
C3223 C133 1.491 . S
C3238 C395 1.371 . S
C3273 C149 1.697 . S
C3288 C535 1.447 . S
C3338 C281 1.536 . S
C3323 C163 1.710 . S
C3388 C2245 1.663 . S
C3373 C161 1.893 . S
C3438 C2017 1.451 . S
C3423 C135 1.710 . S
C3488 C2105 1.600 . S
C3473 C147 1.714 . S
C3523 C175 1.591 . S
C3538 C623 1.208 . S
C3573 C191 1.784 . S
C3588 C763 1.186 . S
C3623 C205 1.805 . S
C3638 C851 1.362 . S
C3673 C203 1.977 . S
C3688 C991 1.364 . S
C3738 C1105 1.198 . S
C3723 C177 1.825 . S
C3788 C1193 1.416 . S
C3773 C189 1.804 . S
C3838 C1079 1.563 . S
C3823 C217 1.697 . S
C3888 C1219 1.460 . S
C3873 C233 1.717 . S
C3923 C247 1.658 . S
C3938 C965 1.489 . S
C3988 C877 1.483 . S
C3973 C245 1.697 . S
C4023 C219 1.761 . S
C4038 C649 1.494 . S
C4088 C737 1.572 . S
C4073 C231 1.692 . S
C4138 C263 1.043 . S
C4123 C8 1.849 . S
C4173 C17 1.589 . S
C4188 C377 0.895 . S
C4238 C481 1.281 . S
C4223 C31 1.727 . S
C4288 C595 1.230 . S
C4273 C36 1.673 . S
C4338 C719 1.013 . S
C4323 C3 1.766 . S
C4388 C823 1.178 . S
C4373 C22 1.601 1_556 S
C4423 C50 1.952 . S
C4438 C833 1.452 . S
C4473 C59 1.670 . S
C4488 C605 1.251 . S
C4523 C73 1.840 . S
C4538 C709 1.571 . S
C4573 C78 1.796 . S
C4588 C367 1.571 . S
C4638 C491 1.413 . S
C4623 C45 1.847 . S
C4673 C64 1.715 . S
C4688 C253 1.484 . S
C4738 C947 0.998 . S
C4723 C92 1.751 . S
C4773 C101 1.828 . S
C4788 C1061 1.077 . S
C4823 C115 1.801 1_655 S
C4838 C1165 1.372 . S
C4888 C1279 1.002 . S
C4873 C120 1.225 . S
C4923 C87 1.690 . S
C4938 C1403 0.974 . S
C4973 C106 1.284 . S
C4988 C1507 1.040 . S
C5023 C134 1.427 . S
C5038 C1517 0.903 1_565 S
C5073 C143 1.320 . S
C5088 C1289 0.879 1_455 S
C5138 C1393 1.513 . S
C5123 C157 1.752 . S
C5173 C162 1.691 . S
C5188 C1051 1.477 . S
C5223 C129 1.914 . S
C5238 C1175 1.458 . S
C5288 C937 1.673 . S
C5273 C148 1.924 . S
C5338 C1631 0.908 . S
C5323 C176 1.433 . S
C5373 C185 1.304 . S
C5388 C1745 0.863 . S
C5423 C199 1.660 . S
C5438 C1849 1.239 . S
C5488 C1963 1.177 . S
C5473 C204 1.575 . S
C5538 C2087 1.105 . S
C5523 C171 1.883 . S
C5573 C190 1.834 . S
C5588 C2191 1.364 . S
C5623 C218 1.853 . S
C5638 C2201 1.368 . S
C5673 C227 1.911 1_565 S
C5688 C1973 1.439 . S
C5738 C2077 1.631 . S
C5723 C241 1.802 1_455 S
C5788 C1735 0.934 1_655 S
C5773 C246 1.216 . S
C5838 C1859 1.336 . S
C5823 C213 1.785 . S
C5873 C232 1.311 . S
C5888 C1621 1.089 1_545 S
