# Generated by pormake.
# Topology ctn, (3,4)-cn, num edge types: 1
# Building blocks:
#     Node 0, Type 0, BuildingBlock: ESEHIV_clean_linker_0, # of connection points: 3
#     Node 1, Type 0, BuildingBlock: ESEHIV_clean_linker_0, # of connection points: 3
#     Node 2, Type 0, BuildingBlock: ESEHIV_clean_linker_0, # of connection points: 3
#     Node 3, Type 0, BuildingBlock: ESEHIV_clean_linker_0, # of connection points: 3
#     Node 4, Type 0, BuildingBlock: ESEHIV_clean_linker_0, # of connection points: 3
#     Node 5, Type 0, BuildingBlock: ESEHIV_clean_linker_0, # of connection points: 3
#     Node 6, Type 0, BuildingBlock: ESEHIV_clean_linker_0, # of connection points: 3
#     Node 7, Type 0, BuildingBlock: ESEHIV_clean_linker_0, # of connection points: 3
#     Node 8, Type 0, BuildingBlock: ESEHIV_clean_linker_0, # of connection points: 3
#     Node 9, Type 0, BuildingBlock: ESEHIV_clean_linker_0, # of connection points: 3
#     Node 10, Type 0, BuildingBlock: ESEHIV_clean_linker_0, # of connection points: 3
#     Node 11, Type 0, BuildingBlock: ESEHIV_clean_linker_0, # of connection points: 3
#     Node 12, Type 0, BuildingBlock: ESEHIV_clean_linker_0, # of connection points: 3
#     Node 13, Type 0, BuildingBlock: ESEHIV_clean_linker_0, # of connection points: 3
#     Node 14, Type 0, BuildingBlock: ESEHIV_clean_linker_0, # of connection points: 3
#     Node 15, Type 0, BuildingBlock: ESEHIV_clean_linker_0, # of connection points: 3
#     Node 16, Type 1, BuildingBlock: QUQFOY_clean_sbu_1, # of connection points: 4
#     Node 17, Type 1, BuildingBlock: QUQFOY_clean_sbu_1, # of connection points: 4
#     Node 18, Type 1, BuildingBlock: QUQFOY_clean_sbu_1, # of connection points: 4
#     Node 19, Type 1, BuildingBlock: QUQFOY_clean_sbu_1, # of connection points: 4
#     Node 20, Type 1, BuildingBlock: QUQFOY_clean_sbu_1, # of connection points: 4
#     Node 21, Type 1, BuildingBlock: QUQFOY_clean_sbu_1, # of connection points: 4
#     Node 22, Type 1, BuildingBlock: QUQFOY_clean_sbu_1, # of connection points: 4
#     Node 23, Type 1, BuildingBlock: QUQFOY_clean_sbu_1, # of connection points: 4
#     Node 24, Type 1, BuildingBlock: QUQFOY_clean_sbu_1, # of connection points: 4
#     Node 25, Type 1, BuildingBlock: QUQFOY_clean_sbu_1, # of connection points: 4
#     Node 26, Type 1, BuildingBlock: QUQFOY_clean_sbu_1, # of connection points: 4
#     Node 27, Type 1, BuildingBlock: QUQFOY_clean_sbu_1, # of connection points: 4
#     Edge 28, Type (0, 1), BuildingBlock: EZIPEK_clean_linker_0, # of connection points: 2
#     Edge 29, Type (0, 1), BuildingBlock: EZIPEK_clean_linker_0, # of connection points: 2
#     Edge 30, Type (0, 1), BuildingBlock: EZIPEK_clean_linker_0, # of connection points: 2
#     Edge 31, Type (0, 1), BuildingBlock: EZIPEK_clean_linker_0, # of connection points: 2
#     Edge 32, Type (0, 1), BuildingBlock: EZIPEK_clean_linker_0, # of connection points: 2
#     Edge 33, Type (0, 1), BuildingBlock: EZIPEK_clean_linker_0, # of connection points: 2
#     Edge 34, Type (0, 1), BuildingBlock: EZIPEK_clean_linker_0, # of connection points: 2
#     Edge 35, Type (0, 1), BuildingBlock: EZIPEK_clean_linker_0, # of connection points: 2
#     Edge 36, Type (0, 1), BuildingBlock: EZIPEK_clean_linker_0, # of connection points: 2
#     Edge 37, Type (0, 1), BuildingBlock: EZIPEK_clean_linker_0, # of connection points: 2
#     Edge 38, Type (0, 1), BuildingBlock: EZIPEK_clean_linker_0, # of connection points: 2
#     Edge 39, Type (0, 1), BuildingBlock: EZIPEK_clean_linker_0, # of connection points: 2
#     Edge 40, Type (0, 1), BuildingBlock: EZIPEK_clean_linker_0, # of connection points: 2
#     Edge 41, Type (0, 1), BuildingBlock: EZIPEK_clean_linker_0, # of connection points: 2
#     Edge 42, Type (0, 1), BuildingBlock: EZIPEK_clean_linker_0, # of connection points: 2
#     Edge 43, Type (0, 1), BuildingBlock: EZIPEK_clean_linker_0, # of connection points: 2
#     Edge 44, Type (0, 1), BuildingBlock: EZIPEK_clean_linker_0, # of connection points: 2
#     Edge 45, Type (0, 1), BuildingBlock: EZIPEK_clean_linker_0, # of connection points: 2
#     Edge 46, Type (0, 1), BuildingBlock: EZIPEK_clean_linker_0, # of connection points: 2
#     Edge 47, Type (0, 1), BuildingBlock: EZIPEK_clean_linker_0, # of connection points: 2
#     Edge 48, Type (0, 1), BuildingBlock: EZIPEK_clean_linker_0, # of connection points: 2
#     Edge 49, Type (0, 1), BuildingBlock: EZIPEK_clean_linker_0, # of connection points: 2
#     Edge 50, Type (0, 1), BuildingBlock: EZIPEK_clean_linker_0, # of connection points: 2
#     Edge 51, Type (0, 1), BuildingBlock: EZIPEK_clean_linker_0, # of connection points: 2
#     Edge 52, Type (0, 1), BuildingBlock: EZIPEK_clean_linker_0, # of connection points: 2
#     Edge 53, Type (0, 1), BuildingBlock: EZIPEK_clean_linker_0, # of connection points: 2
#     Edge 54, Type (0, 1), BuildingBlock: EZIPEK_clean_linker_0, # of connection points: 2
#     Edge 55, Type (0, 1), BuildingBlock: EZIPEK_clean_linker_0, # of connection points: 2
#     Edge 56, Type (0, 1), BuildingBlock: EZIPEK_clean_linker_0, # of connection points: 2
#     Edge 57, Type (0, 1), BuildingBlock: EZIPEK_clean_linker_0, # of connection points: 2
#     Edge 58, Type (0, 1), BuildingBlock: EZIPEK_clean_linker_0, # of connection points: 2
#     Edge 59, Type (0, 1), BuildingBlock: EZIPEK_clean_linker_0, # of connection points: 2
#     Edge 60, Type (0, 1), BuildingBlock: EZIPEK_clean_linker_0, # of connection points: 2
#     Edge 61, Type (0, 1), BuildingBlock: EZIPEK_clean_linker_0, # of connection points: 2
#     Edge 62, Type (0, 1), BuildingBlock: EZIPEK_clean_linker_0, # of connection points: 2
#     Edge 63, Type (0, 1), BuildingBlock: EZIPEK_clean_linker_0, # of connection points: 2
#     Edge 64, Type (0, 1), BuildingBlock: EZIPEK_clean_linker_0, # of connection points: 2
#     Edge 65, Type (0, 1), BuildingBlock: EZIPEK_clean_linker_0, # of connection points: 2
#     Edge 66, Type (0, 1), BuildingBlock: EZIPEK_clean_linker_0, # of connection points: 2
#     Edge 67, Type (0, 1), BuildingBlock: EZIPEK_clean_linker_0, # of connection points: 2
#     Edge 68, Type (0, 1), BuildingBlock: EZIPEK_clean_linker_0, # of connection points: 2
#     Edge 69, Type (0, 1), BuildingBlock: EZIPEK_clean_linker_0, # of connection points: 2
#     Edge 70, Type (0, 1), BuildingBlock: EZIPEK_clean_linker_0, # of connection points: 2
#     Edge 71, Type (0, 1), BuildingBlock: EZIPEK_clean_linker_0, # of connection points: 2
#     Edge 72, Type (0, 1), BuildingBlock: EZIPEK_clean_linker_0, # of connection points: 2
#     Edge 73, Type (0, 1), BuildingBlock: EZIPEK_clean_linker_0, # of connection points: 2
#     Edge 74, Type (0, 1), BuildingBlock: EZIPEK_clean_linker_0, # of connection points: 2
#     Edge 75, Type (0, 1), BuildingBlock: EZIPEK_clean_linker_0, # of connection points: 2
# Relax obj value: 0.038
# Max RMSD: 0.147
# Mean RMSD: 0.068
data_MOF--net-ctn--node1-QUQFOY_clean_sbu_1--node2-ESEHIV_clean_linker_0--edge1-EZIPEK_clean_linker_0
_symmetry_space_group_name_H-M    P1
_symmetry_Int_Tables_number       1
_symmetry_cell_setting            triclinic
loop_
_symmetry_equiv_pos_as_xyz
'x, y, z'
_cell_length_a     37.1783
_cell_length_b     37.107104
_cell_length_c     37.152104
_cell_angle_alpha  93.322025
_cell_angle_beta   90.11535
_cell_angle_gamma 95.470804
loop_
_atom_site_label
_atom_site_type_symbol
_atom_site_fract_x
_atom_site_fract_y
_atom_site_fract_z
_atom_type_partial_charge
H0 H 0.00494 0.13635 0.07783 0.0
H1 H 0.05353 0.04732 0.121 0.0
H2 H 0.09388 0.09166 0.02283 0.0
C3 C 0.02563 0.1176 0.07662 0.0
C4 C 0.04965 0.11733 0.04758 0.0
C5 C 0.02713 0.09251 0.10318 0.0
C6 C 0.053 0.06741 0.10098 0.0
C7 C 0.07721 0.06718 0.07219 0.0
C8 C 0.0758 0.09242 0.04566 0.0
H9 H 0.30768 0.67121 0.26739 0.0
H10 H 0.33493 0.76858 0.21251 0.0
H11 H 0.22791 0.71366 0.20151 0.0
C12 C 0.29999 0.69103 0.24919 0.0
C13 C 0.2647 0.68848 0.23523 0.0
C14 C 0.32454 0.72071 0.2425 0.0
C15 C 0.31554 0.74596 0.21827 0.0
C16 C 0.28096 0.74281 0.20264 0.0
C17 C 0.25511 0.71505 0.21242 0.0
H18 H 0.95545 0.52964 0.1054 0.0
H19 H 0.97853 0.42136 0.07627 0.0
H20 H 0.90156 0.47336 0.01456 0.0
C21 C 0.95026 0.50504 0.08822 0.0
C22 C 0.92592 0.50379 0.05947 0.0
C23 C 0.96866 0.47485 0.09411 0.0
C24 C 0.96204 0.44321 0.07188 0.0
C25 C 0.93528 0.44001 0.04446 0.0
C26 C 0.919 0.47187 0.03739 0.0
H27 H 0.67761 0.76159 0.22066 0.0
H28 H 0.77725 0.82204 0.19337 0.0
H29 H 0.72459 0.8489 0.29264 0.0
C30 C 0.69937 0.78235 0.22781 0.0
C31 C 0.69792 0.80391 0.26011 0.0
C32 C 0.72865 0.78811 0.20438 0.0
C33 C 0.75562 0.81633 0.21238 0.0
C34 C 0.75366 0.83859 0.2437 0.0
C35 C 0.72586 0.83143 0.26833 0.0
H36 H 0.00363 0.95624 0.47514 0.0
H37 H 0.06846 0.04629 0.43308 0.0
H38 H 0.10962 0.98871 0.51916 0.0
C39 C 0.02849 0.9741 0.47542 0.0
C40 C 0.05646 0.96897 0.49932 0.0
C41 C 0.03272 0.00214 0.45168 0.0
C42 C 0.06505 0.02477 0.45168 0.0
C43 C 0.09266 0.02027 0.47627 0.0
C44 C 0.08827 0.99236 0.50015 0.0
H45 H 0.16014 0.77866 0.82342 0.0
H46 H 0.24925 0.73039 0.86854 0.0
H47 H 0.20155 0.68657 0.76762 0.0
C48 C 0.17936 0.7584 0.82163 0.0
C49 C 0.1781 0.73297 0.79223 0.0
C50 C 0.2051 0.75759 0.84892 0.0
C51 C 0.22964 0.73122 0.84702 0.0
C52 C 0.22852 0.70552 0.81776 0.0
C53 C 0.20285 0.70662 0.79012 0.0
H54 H 0.8957 0.59348 0.51225 0.0
H55 H 0.9907 0.61365 0.44824 0.0
H56 H 0.92088 0.51516 0.42842 0.0
C57 C 0.91224 0.58573 0.4896 0.0
C58 C 0.904 0.55225 0.47063 0.0
C59 C 0.94353 0.60781 0.48165 0.0
C60 C 0.96584 0.59711 0.45354 0.0
C61 C 0.95776 0.5637 0.43424 0.0
C62 C 0.92652 0.54154 0.44246 0.0
H63 H 0.7613 0.8328 0.84294 0.0
H64 H 0.81436 0.85477 0.74271 0.0
H65 H 0.85833 0.78387 0.8159 0.0
C66 C 0.7834 0.8292 0.82447 0.0
C67 C 0.80892 0.80534 0.83203 0.0
C68 C 0.7862 0.84816 0.79293 0.0
C69 C 0.81341 0.84142 0.76792 0.0
C70 C 0.84003 0.81849 0.77614 0.0
C71 C 0.83819 0.80172 0.80908 0.0
H72 H 0.26119 0.3513 0.36625 0.0
H73 H 0.30847 0.36196 0.26145 0.0
H74 H 0.35609 0.29866 0.33949 0.0
C75 C 0.28257 0.34606 0.3474 0.0
C76 C 0.30805 0.32249 0.35595 0.0
C77 C 0.28363 0.36147 0.31384 0.0
C78 C 0.30928 0.35183 0.28819 0.0
C79 C 0.33607 0.32945 0.29732 0.0
C80 C 0.33607 0.31639 0.33208 0.0
H81 H 0.45125 0.02833 0.59871 0.0
H82 H 0.49508 0.92902 0.56474 0.0
H83 H 0.40977 0.96725 0.50297 0.0
C84 C 0.45113 0.00468 0.58013 0.0
C85 C 0.42795 0.00092 0.5501 0.0
C86 C 0.4749 0.97841 0.58555 0.0
C87 C 0.47591 0.94876 0.56081 0.0
C88 C 0.45229 0.94432 0.53112 0.0
C89 C 0.42782 0.97023 0.52613 0.0
H90 H 0.17483 0.26995 0.7322 0.0
H91 H 0.27969 0.32527 0.71433 0.0
H92 H 0.21826 0.35672 0.80659 0.0
C93 C 0.19678 0.2898 0.74117 0.0
C94 C 0.19298 0.31232 0.77245 0.0
C95 C 0.22862 0.29362 0.72094 0.0
C96 C 0.25598 0.32088 0.73107 0.0
C97 C 0.25183 0.34394 0.76151 0.0
C98 C 0.22125 0.33859 0.78304 0.0
H99 H 0.81111 0.17499 0.76304 0.0
H100 H 0.83204 0.27606 0.71293 0.0
H101 H 0.72925 0.21348 0.6967 0.0
C102 C 0.80223 0.19479 0.74545 0.0
C103 C 0.76727 0.1901 0.73061 0.0
C104 C 0.82466 0.22649 0.7407 0.0
C105 C 0.81423 0.25183 0.71723 0.0
C106 C 0.78024 0.24647 0.70033 0.0
C107 C 0.75618 0.21653 0.70839 0.0
H108 H 0.49651 0.63054 0.59305 0.0
H109 H 0.54909 0.54299 0.63446 0.0
H110 H 0.5791 0.58239 0.53106 0.0
C111 C 0.51689 0.61153 0.59051 0.0
C112 C 0.53799 0.60981 0.55932 0.0
C113 C 0.52084 0.58741 0.61761 0.0
C114 C 0.54651 0.56216 0.61387 0.0
C115 C 0.56753 0.56032 0.5827 0.0
C116 C 0.56339 0.5843 0.55554 0.0
H117 H 0.50018 0.45028 0.997 0.0
H118 H 0.56841 0.53736 0.95382 0.0
H119 H 0.61145 0.47026 0.03077 0.0
C120 C 0.52625 0.46594 0.9957 0.0
C121 C 0.55528 0.45714 0.01658 0.0
C122 C 0.53113 0.49462 0.97266 0.0
C123 C 0.56472 0.51492 0.97133 0.0
C124 C 0.59364 0.50627 0.99228 0.0
C125 C 0.58904 0.47703 0.01453 0.0
H126 H 0.66718 0.2855 0.3217 0.0
H127 H 0.75547 0.23465 0.36257 0.0
H128 H 0.70305 0.19101 0.26503 0.0
C129 C 0.68644 0.2657 0.31715 0.0
C130 C 0.6859 0.24326 0.28502 0.0
C131 C 0.71135 0.2626 0.34474 0.0
C132 C 0.73561 0.23627 0.34143 0.0
C133 C 0.73248 0.21031 0.31249 0.0
C134 C 0.70666 0.21308 0.28524 0.0
H135 H 0.41907 0.07718 0.02484 0.0
H136 H 0.51047 0.1045 0.95756 0.0
H137 H 0.44709 0.00162 0.93975 0.0
C138 C 0.43631 0.07031 0.00244 0.0
C139 C 0.42935 0.03703 0.9829 0.0
C140 C 0.46572 0.09449 0.99366 0.0
C141 C 0.48766 0.08576 0.9644 0.0
C142 C 0.48114 0.05214 0.94504 0.0
C143 C 0.45211 0.0277 0.95453 0.0
O144 O 0.24235 0.84739 0.99585 0.0
Cd145 Cd 0.26314 0.87578 0.0412 0.0
Cd146 Cd 0.22195 0.92756 0.0166 0.0
O147 O 0.20743 0.88761 0.97704 0.0
O148 O 0.28617 0.83811 0.06609 0.0
O149 O 0.24093 0.86614 0.0896 0.0
C150 C 0.26356 0.84203 0.09188 0.0
C151 C 0.17783 0.96219 0.03992 0.0
C152 C 0.21998 0.85699 0.97336 0.0
C153 C 0.30269 0.94485 0.02004 0.0
O154 O 0.27212 0.95505 0.01232 0.0
O155 O 0.30525 0.91432 0.03306 0.0
O156 O 0.18925 0.96529 0.0075 0.0
O157 O 0.19082 0.93868 0.05936 0.0
O158 O 0.15805 0.56102 0.30821 0.0
Cd159 Cd 0.13883 0.50817 0.31727 0.0
Cd160 Cd 0.10217 0.5186 0.26257 0.0
O161 O 0.15229 0.54414 0.2515 0.0
O162 O 0.17753 0.48363 0.33934 0.0
O163 O 0.15498 0.46854 0.28431 0.0
C164 C 0.17764 0.4637 0.30965 0.0
C165 C 0.068 0.4967 0.21275 0.0
C166 C 0.16624 0.56646 0.27578 0.0
C167 C 0.06807 0.52153 0.33533 0.0
O168 O 0.07097 0.53643 0.3054 0.0
O169 O 0.09131 0.50076 0.34415 0.0
O170 O 0.07354 0.5309 0.22102 0.0
O171 O 0.08255 0.47438 0.23243 0.0
O172 O 0.7679 0.71297 0.96982 0.0
Cd173 Cd 0.75205 0.68183 0.01163 0.0
Cd174 Cd 0.79658 0.63582 0.97868 0.0
O175 O 0.80527 0.67671 0.94361 0.0
O176 O 0.77399 0.69284 0.06076 0.0
O177 O 0.72346 0.71356 0.04225 0.0
C178 C 0.74688 0.71148 0.0674 0.0
C179 C 0.8419 0.61151 0.00845 0.0
C180 C 0.79011 0.70602 0.94514 0.0
C181 C 0.72042 0.60687 0.98718 0.0
O182 O 0.75071 0.60054 0.97393 0.0
O183 O 0.71596 0.63731 0.0029 0.0
O184 O 0.83631 0.60416 0.97442 0.0
O185 O 0.8237 0.63533 0.02509 0.0
O186 O 0.93725 0.0256 0.31381 0.0
Cd187 Cd 0.90806 0.02579 0.26705 0.0
Cd188 Cd 0.85631 0.04099 0.31366 0.0
O189 O 0.89414 0.03554 0.35303 0.0
O190 O 0.94536 0.02531 0.22918 0.0
O191 O 0.90994 0.06989 0.2377 0.0
C192 C 0.93566 0.05591 0.22014 0.0
C193 C 0.8244 0.09193 0.31332 0.0
C194 C 0.92642 0.02899 0.3461 0.0
C195 C 0.84358 0.97232 0.26769 0.0
O196 O 0.83096 0.99367 0.29121 0.0
O197 O 0.87434 0.9798 0.25389 0.0
O198 O 0.81563 0.06604 0.33428 0.0
O199 O 0.85238 0.08929 0.29309 0.0
O200 O 0.26985 0.22078 0.49084 0.0
Cd201 Cd 0.25815 0.1847 0.5304 0.0
Cd202 Cd 0.29796 0.14542 0.48502 0.0
O203 O 0.31169 0.19301 0.46118 0.0
O204 O 0.22745 0.2133 0.56224 0.0
O205 O 0.27952 0.19577 0.58016 0.0
C206 C 0.25139 0.21275 0.58713 0.0
C207 C 0.33892 0.11068 0.50911 0.0
C208 C 0.2938 0.22022 0.46658 0.0
C209 C 0.22249 0.11768 0.4916 0.0
O210 O 0.24919 0.11821 0.47045 0.0
O211 O 0.22292 0.13942 0.51926 0.0
O212 O 0.33479 0.11124 0.47465 0.0
O213 O 0.32113 0.13156 0.53007 0.0
O214 O 0.43755 0.52661 0.83601 0.0
Cd215 Cd 0.40772 0.52893 0.7898 0.0
Cd216 Cd 0.35765 0.54483 0.83801 0.0
O217 O 0.39734 0.54252 0.87615 0.0
O218 O 0.444 0.52551 0.751 0.0
O219 O 0.41202 0.57268 0.75976 0.0
C220 C 0.43608 0.55664 0.74163 0.0
C221 C 0.32554 0.59426 0.83079 0.0
C222 C 0.42834 0.53264 0.86854 0.0
C223 C 0.34255 0.47585 0.79425 0.0
O224 O 0.33221 0.49577 0.82033 0.0
O225 O 0.37124 0.48479 0.77721 0.0
O226 O 0.31952 0.57405 0.85769 0.0
O227 O 0.3513 0.58747 0.80882 0.0
O228 O 0.74478 0.35465 0.49497 0.0
Cd229 Cd 0.75576 0.38372 0.54355 0.0
Cd230 Cd 0.70959 0.42337 0.51383 0.0
O231 O 0.69512 0.37878 0.48048 0.0
O232 O 0.78354 0.35027 0.56979 0.0
O233 O 0.73079 0.36698 0.58866 0.0
C234 C 0.7577 0.34797 0.59279 0.0
C235 C 0.66672 0.45655 0.54133 0.0
C236 C 0.71728 0.35521 0.47478 0.0
C237 C 0.78655 0.45297 0.51797 0.0
O238 O 0.757 0.45224 0.50074 0.0
O239 O 0.79013 0.43057 0.542 0.0
O240 O 0.67264 0.45747 0.50723 0.0
O241 O 0.6843 0.43559 0.55999 0.0
O242 O 0.66825 0.05517 0.79971 0.0
Cd243 Cd 0.64874 0.00203 0.80701 0.0
Cd244 Cd 0.60847 0.01688 0.75643 0.0
O245 O 0.6585 0.0413 0.74298 0.0
O246 O 0.68784 0.97575 0.82581 0.0
O247 O 0.66222 0.96292 0.77175 0.0
C248 C 0.68579 0.9565 0.79564 0.0
C249 C 0.57113 -0.0002 0.70755 0.0
C250 C 0.67427 0.06233 0.76725 0.0
C251 C 0.58038 0.0165 0.83188 0.0
O252 O 0.58108 0.03291 0.80275 0.0
O253 O 0.60363 0.99459 0.83733 0.0
O254 O 0.57792 0.03332 0.71829 0.0
O255 O 0.58564 0.97542 0.72457 0.0
O256 O 0.95702 0.29493 0.94378 0.0
Cd257 Cd 0.97624 0.25329 0.9127 0.0
Cd258 Cd 0.00091 0.308 0.87539 0.0
O259 O 0.98729 0.34093 0.9186 0.0
O260 O 0.97195 0.21177 0.94426 0.0
O261 O 0.02452 0.23696 0.92529 0.0
C262 C 0.00671 0.21344 0.94437 0.0
C263 C 0.05824 0.31007 0.85115 0.0
C264 C 0.96639 0.32869 0.94299 0.0
C265 C 0.94275 0.25649 0.84139 0.0
O266 O 0.95978 0.2877 0.84119 0.0
O267 O 0.94743 0.23576 0.86663 0.0
O268 O 0.03614 0.33334 0.8434 0.0
O269 O 0.04818 0.28661 0.87438 0.0
O270 O 0.4591 0.78979 0.43837 0.0
Cd271 Cd 0.47302 0.74209 0.41375 0.0
Cd272 Cd 0.51107 0.78651 0.37246 0.0
O273 O 0.50198 0.82462 0.41305 0.0
O274 O 0.4635 0.70499 0.44965 0.0
O275 O 0.51833 0.7219 0.42921 0.0
C276 C 0.49785 0.70257 0.45029 0.0
C277 C 0.56795 0.78959 0.34601 0.0
C278 C 0.47675 0.82053 0.43588 0.0
C279 C 0.44562 0.7422 0.34041 0.0
O280 O 0.46856 0.76948 0.33804 0.0
O281 O 0.4446 0.72376 0.36812 0.0
O282 O 0.54461 0.81168 0.33877 0.0
O283 O 0.55921 0.76576 0.36924 0.0
O284 O 0.96478 0.75516 0.67157 0.0
Cd285 Cd 0.01553 0.74729 0.65113 0.0
Cd286 Cd -0.00113 0.80057 0.61806 0.0
O287 O 0.97961 0.81275 0.66877 0.0
O288 O 0.039 0.71636 0.6839 0.0
O289 O 0.05978 0.77324 0.6744 0.0
C290 C 0.06287 0.74359 0.69032 0.0
C291 C 0.02339 0.84869 0.58707 0.0
C292 C 0.95918 0.78741 0.68134 0.0
C293 C 0.99156 0.72827 0.58073 0.0
O294 O 0.97497 0.75639 0.58646 0.0
O295 O 0.01783 0.72329 0.60091 0.0
O296 O 0.989 0.84282 0.59114 0.0
O297 O 0.04434 0.82724 0.60092 0.0
O298 O 0.45359 0.24741 0.19891 0.0
Cd299 Cd 0.50028 0.23192 0.1765 0.0
Cd300 Cd 0.49594 0.2891 0.13561 0.0
O301 O 0.46539 0.30201 0.18066 0.0
O302 O 0.53395 0.21383 0.21128 0.0
O303 O 0.54601 0.26412 0.18172 0.0
C304 C 0.55614 0.24136 0.20387 0.0
C305 C 0.52105 0.33908 0.10699 0.0
C306 C 0.447 0.28029 0.20018 0.0
C307 C 0.48717 0.21126 0.10147 0.0
O308 O 0.48464 0.2449 0.09859 0.0
O309 O 0.49493 0.19924 0.13141 0.0
O310 O 0.48701 0.32914 0.10485 0.0
O311 O 0.54129 0.32114 0.12616 0.0
C312 C 0.18778 0.77535 0.91208 0.0
C313 C 0.20616 0.78442 0.87991 0.0
C314 C 0.23107 0.84257 0.90827 0.0
C315 C 0.21222 0.83381 0.94027 0.0
N316 N 0.1683 0.79569 0.97165 0.0
N317 N 0.24011 0.82822 0.84463 0.0
C318 C 0.18921 0.80128 0.94187 0.0
C319 C 0.2261 0.81863 0.87713 0.0
N320 N 0.16971 0.74167 0.91428 0.0
N321 N 0.25513 0.87286 0.90826 0.0
H322 H 0.23837 0.81078 0.82152 0.0
H323 H 0.25127 0.85427 0.83977 0.0
H324 H 0.2589 0.89158 0.93027 0.0
H325 H 0.27309 0.87844 0.88741 0.0
H326 H 0.15913 0.73176 0.93806 0.0
H327 H 0.16686 0.72257 0.89248 0.0
H328 H 0.14841 0.77418 0.97346 0.0
H329 H 0.16892 0.81431 0.99386 0.0
C330 C 0.01943 0.5446 0.42221 0.0
C331 C 0.98476 0.5501 0.40886 0.0
C332 C 0.00289 0.52998 0.3483 0.0
C333 C 0.03912 0.53036 0.36076 0.0
N334 N 0.08292 0.54696 0.40873 0.0
N335 N 0.94472 0.55306 0.35812 0.0
C336 C 0.04776 0.53996 0.39754 0.0
C337 C 0.97672 0.54413 0.37157 0.0
N338 N 0.02522 0.54312 0.45842 0.0
N339 N 0.99312 0.5149 0.31487 0.0
H340 H 0.92499 0.5638 0.37428 0.0
H341 H 0.93916 0.55277 0.3306 0.0
H342 H 0.01113 0.50281 0.29762 0.0
H343 H 0.9664 0.51091 0.30586 0.0
H344 H 0.04927 0.53584 0.4691 0.0
H345 H 0.00478 0.5452 0.47741 0.0
H346 H 0.09015 0.55733 0.43469 0.0
H347 H 0.1048 0.54666 0.39127 0.0
C348 C 0.78307 0.74652 0.85455 0.0
C349 C 0.80309 0.78072 0.86168 0.0
C350 C 0.81742 0.7645 0.92262 0.0
C351 C 0.79574 0.73118 0.91611 0.0
N352 N 0.75338 0.69225 0.87871 0.0
N353 N 0.83567 0.82475 0.90279 0.0
C354 C 0.77737 0.7226 0.88281 0.0
C355 C 0.81923 0.79048 0.89587 0.0
N356 N 0.77019 0.73663 0.82051 0.0
N357 N 0.83699 0.77072 0.95395 0.0
H358 H 0.83792 0.84413 0.88345 0.0
H359 H 0.84484 0.83493 0.92819 0.0
H360 H 0.836 0.75226 0.97416 0.0
H361 H 0.85612 0.79279 0.95899 0.0
H362 H 0.75955 0.71044 0.81245 0.0
H363 H 0.77212 0.75403 0.79939 0.0
H364 H 0.73591 0.68675 0.85674 0.0
H365 H 0.74888 0.67363 0.89858 0.0
C366 C 0.99564 0.98278 0.3965 0.0
C367 C 0.00339 0.00782 0.42634 0.0
C368 C 0.96038 0.04744 0.40389 0.0
C369 C 0.95099 0.02123 0.37531 0.0
N370 N 0.95253 0.95988 0.35004 0.0
N371 N 0.98791 0.05978 0.46306 0.0
C372 C 0.96649 0.98764 0.37329 0.0
C373 C 0.9841 0.03891 0.43149 0.0
N374 N 0.01694 0.95516 0.38945 0.0
N375 N 0.9481 0.08101 0.40382 0.0
H376 H 0.00475 0.05399 0.48404 0.0
H377 H 0.97192 0.0807 0.46979 0.0
H378 H 0.93098 0.08844 0.38385 0.0
H379 H 0.95728 0.10246 0.42186 0.0
H380 H 0.0149 0.93863 0.36576 0.0
H381 H 0.03879 0.95068 0.40571 0.0
H382 H 0.96042 0.93369 0.35009 0.0
H383 H 0.93036 0.96193 0.33332 0.0
C384 C 0.24154 0.23538 0.68774 0.0
C385 C 0.23243 0.27159 0.68695 0.0
C386 C 0.24133 0.27026 0.62182 0.0
C387 C 0.24699 0.233 0.62196 0.0
N388 N 0.2465 0.17819 0.65402 0.0
N389 N 0.21594 0.32093 0.65282 0.0
C390 C 0.24558 0.21496 0.65466 0.0
C391 C 0.22997 0.28825 0.65381 0.0
N392 N 0.24723 0.22088 0.72003 0.0
N393 N 0.24833 0.2889 0.59151 0.0
H394 H 0.2066 0.33459 0.67574 0.0
H395 H 0.21018 0.33263 0.62891 0.0
H396 H 0.25811 0.27705 0.5678 0.0
H397 H 0.24813 0.31692 0.59104 0.0
H398 H 0.25786 0.19613 0.72224 0.0
H399 H 0.2438 0.23481 0.7448 0.0
H400 H 0.24165 0.16311 0.67659 0.0
H401 H 0.24911 0.16223 0.63031 0.0
C402 C 0.46142 0.56623 0.64462 0.0
C403 C 0.49593 0.58604 0.64866 0.0
C404 C 0.48789 0.59286 0.71402 0.0
C405 C 0.45378 0.57243 0.70996 0.0
N406 N 0.40398 0.54738 0.67207 0.0
N407 N 0.53888 0.62505 0.685 0.0
C408 C 0.43915 0.56181 0.67536 0.0
C409 C 0.50811 0.6017 0.68275 0.0
N410 N 0.45081 0.54999 0.61181 0.0
N411 N 0.50142 0.60251 0.74782 0.0
H412 H 0.55424 0.63179 0.66245 0.0
H413 H 0.54768 0.63995 0.70849 0.0
H414 H 0.48647 0.59783 0.77113 0.0
H415 H 0.52781 0.61366 0.75297 0.0
H416 H 0.42797 0.53163 0.60799 0.0
H417 H 0.46608 0.553 0.58848 0.0
H418 H 0.3905 0.54217 0.64747 0.0
H419 H 0.38718 0.54362 0.69429 0.0
C420 C 0.76285 0.30752 0.68455 0.0
C421 C 0.77038 0.27182 0.67332 0.0
C422 C 0.76026 0.28461 0.61044 0.0
C423 C 0.75813 0.32164 0.62116 0.0
N424 N 0.76031 0.36956 0.66806 0.0
N425 N 0.7813 0.22758 0.62528 0.0
C426 C 0.75981 0.33346 0.65819 0.0
C427 C 0.77022 0.26056 0.63618 0.0
N428 N 0.75814 0.31639 0.72034 0.0
N429 N 0.7519 0.27226 0.57575 0.0
H430 H 0.78938 0.20923 0.64318 0.0
H431 H 0.78559 0.21972 0.59838 0.0
H432 H 0.74367 0.28899 0.55628 0.0
H433 H 0.74946 0.24487 0.56728 0.0
H434 H 0.74914 0.34084 0.72998 0.0
H435 H 0.76022 0.29797 0.74026 0.0
H436 H 0.76565 0.38028 0.69426 0.0
H437 H 0.75794 0.38928 0.64954 0.0
C438 C 0.53459 0.00145 0.61302 0.0
C439 C 0.50001 0.98241 0.61661 0.0
C440 C 0.51276 0.97248 0.67974 0.0
C441 C 0.54785 0.99033 0.67572 0.0
N442 N 0.59508 0.01546 0.63762 0.0
N443 N 0.45774 0.94465 0.65057 0.0
C444 C 0.55963 0.00298 0.64203 0.0
C445 C 0.48959 0.96624 0.64914 0.0
N446 N 0.54312 0.0187 0.58218 0.0
N447 N 0.501 0.96315 0.71311 0.0
H448 H 0.43947 0.94053 0.62904 0.0
H449 H 0.4505 0.92881 0.67211 0.0
H450 H 0.51742 0.96674 0.73608 0.0
H451 H 0.47434 0.95406 0.71862 0.0
H452 H 0.56622 0.0365 0.57947 0.0
H453 H 0.52585 0.01726 0.55986 0.0
H454 H 0.60629 0.02172 0.61283 0.0
H455 H 0.61428 0.0165 0.65828 0.0
C456 C 0.89054 0.22565 0.7553 0.0
C457 C 0.85587 0.2355 0.76527 0.0
C458 C 0.87767 0.2549 0.82615 0.0
C459 C 0.91288 0.24725 0.81555 0.0
N460 N 0.9546 0.22939 0.76986 0.0
N461 N 0.81699 0.26442 0.80768 0.0
C462 C 0.91988 0.23379 0.78 0.0
C463 C 0.84959 0.25153 0.80002 0.0
N464 N 0.89507 0.20781 0.72263 0.0
N465 N 0.871 0.26494 0.86137 0.0
H466 H 0.79539 0.26202 0.78949 0.0
H467 H 0.81207 0.28011 0.83096 0.0
H468 H 0.8911 0.26919 0.8812 0.0
H469 H 0.84518 0.26655 0.87172 0.0
H470 H 0.91864 0.19639 0.71514 0.0
H471 H 0.87429 0.20253 0.70358 0.0
H472 H 0.96215 0.22337 0.74339 0.0
H473 H 0.97644 0.23381 0.78778 0.0
C474 C 0.46401 0.91722 0.46887 0.0
C475 C 0.45424 0.9125 0.50532 0.0
C476 C 0.46166 0.84784 0.49699 0.0
C477 C 0.46775 0.85185 0.45963 0.0
N478 N 0.46355 0.88903 0.40863 0.0
N479 N 0.43375 0.87162 0.55087 0.0
C480 C 0.46553 0.88615 0.44506 0.0
C481 C 0.44971 0.87719 0.51831 0.0
N482 N 0.47364 0.95102 0.45722 0.0
N483 N 0.46942 0.8171 0.51279 0.0
H484 H 0.42369 0.89244 0.56678 0.0
H485 H 0.42706 0.84583 0.56005 0.0
H486 H 0.48088 0.79583 0.49897 0.0
H487 H 0.46845 0.8146 0.54058 0.0
H488 H 0.48437 0.95523 0.43174 0.0
H489 H 0.47443 0.97459 0.47399 0.0
H490 H 0.45876 0.91308 0.39708 0.0
H491 H 0.46235 0.86665 0.3902 0.0
C492 C 0.14325 0.27821 0.80672 0.0
C493 C 0.15836 0.31093 0.79258 0.0
C494 C 0.11236 0.34338 0.82378 0.0
C495 C 0.09373 0.30998 0.83279 0.0
N496 N 0.08777 0.24433 0.82314 0.0
N497 N 0.14992 0.37272 0.77927 0.0
C498 C 0.1081 0.27689 0.82171 0.0
C499 C 0.14072 0.343 0.79856 0.0
N500 N 0.16253 0.24867 0.80673 0.0
N501 N 0.1042 0.37544 0.84021 0.0
H502 H 0.16882 0.37281 0.75857 0.0
H503 H 0.1356 0.39559 0.781 0.0
H504 H 0.08578 0.37686 0.86126 0.0
H505 H 0.11917 0.40007 0.83609 0.0
H506 H 0.1536 0.22533 0.81971 0.0
H507 H 0.18893 0.24892 0.79724 0.0
H508 H 0.09652 0.22011 0.81243 0.0
H509 H 0.06071 0.24184 0.8306 0.0
C510 C 0.54589 0.66964 0.5309 0.0
C511 C 0.53126 0.63288 0.52927 0.0
C512 C 0.50244 0.6406 0.47126 0.0
C513 C 0.51294 0.67833 0.47534 0.0
N514 N 0.54183 0.72995 0.51036 0.0
N515 N 0.49303 0.58351 0.49997 0.0
C516 C 0.5343 0.6932 0.5053 0.0
C517 C 0.50902 0.61827 0.49986 0.0
N518 N 0.57111 0.68183 0.55672 0.0
N519 N 0.48689 0.62607 0.43963 0.0
H520 H 0.49753 0.56606 0.52019 0.0
H521 H 0.47325 0.57274 0.48146 0.0
H522 H 0.48209 0.64173 0.418 0.0
H523 H 0.48189 0.5983 0.43351 0.0
H524 H 0.58559 0.70729 0.55711 0.0
H525 H 0.5798 0.66531 0.57615 0.0
H526 H 0.55353 0.74267 0.53383 0.0
H527 H 0.53407 0.74815 0.49214 0.0
C528 C 0.89009 0.8391 0.73349 0.0
C529 C 0.86942 0.81077 0.75031 0.0
C530 C 0.91174 0.76878 0.7274 0.0
C531 C 0.92827 0.79551 0.70517 0.0
N532 N 0.92085 0.85304 0.67861 0.0
N533 N 0.85442 0.74576 0.751 0.0
C534 C 0.91398 0.82991 0.70557 0.0
C535 C 0.87817 0.77461 0.74335 0.0
N536 N 0.88824 0.87457 0.74458 0.0
N537 N 0.92839 0.73894 0.73531 0.0
H538 H 0.82823 0.74876 0.75991 0.0
H539 H 0.85944 0.71905 0.74412 0.0
H540 H 0.95517 0.73567 0.72885 0.0
H541 H 0.91725 0.72025 0.75311 0.0
H542 H 0.90501 0.89552 0.73409 0.0
H543 H 0.87348 0.88252 0.76699 0.0
H544 H 0.90898 0.87737 0.67788 0.0
H545 H 0.93323 0.84575 0.65451 0.0
C546 C 0.03827 0.94465 0.55859 0.0
C547 C 0.05233 0.93876 0.52355 0.0
C548 C 0.05154 0.87373 0.53167 0.0
C549 C 0.03786 0.87971 0.56689 0.0
N550 N 0.0255 0.92062 0.61705 0.0
N551 N 0.07922 0.90004 0.47896 0.0
C552 C 0.03352 0.91519 0.58135 0.0
C553 C 0.06128 0.90399 0.51084 0.0
N554 N 0.02832 0.97808 0.56956 0.0
N555 N 0.05331 0.83911 0.51747 0.0
H556 H 0.08603 0.92155 0.4626 0.0
H557 H 0.08986 0.87618 0.47001 0.0
H558 H 0.047 0.81625 0.53215 0.0
H559 H 0.0588 0.83279 0.4905 0.0
H560 H 0.014 0.98312 0.59307 0.0
H561 H 0.03237 0.00059 0.55396 0.0
H562 H 0.0253 0.94615 0.6302 0.0
H563 H 0.02215 0.89948 0.63446 0.0
C564 C 0.11307 0.72264 0.77434 0.0
C565 C 0.14925 0.73328 0.7648 0.0
C566 C 0.12918 0.74726 0.70483 0.0
C567 C 0.09274 0.74072 0.71596 0.0
N568 N 0.0499 0.72908 0.76371 0.0
N569 N 0.19184 0.76072 0.72318 0.0
C570 C 0.0846 0.73015 0.75136 0.0
C571 C 0.15741 0.74696 0.73061 0.0
N572 N 0.10598 0.70476 0.80509 0.0
N573 N 0.13692 0.75223 0.6694 0.0
H574 H 0.21334 0.76058 0.74125 0.0
H575 H 0.19853 0.7748 0.70031 0.0
H576 H 0.11706 0.75189 0.6495 0.0
H577 H 0.16303 0.75332 0.65914 0.0
H578 H 0.08037 0.69309 0.8115 0.0
H579 H 0.12625 0.69854 0.82251 0.0
H580 H 0.04306 0.72521 0.79048 0.0
H581 H 0.02834 0.73576 0.74822 0.0
C582 C 0.965 0.63327 0.54247 0.0
C583 C 0.95576 0.63925 0.50638 0.0
C584 C 0.97112 0.7046 0.5183 0.0
C585 C 0.97715 0.69848 0.55511 0.0
N586 N 0.9726 0.65709 0.6035 0.0
N587 N 0.94384 0.68095 0.46131 0.0
C588 C 0.97168 0.66294 0.56751 0.0
C589 C 0.95703 0.67507 0.49462 0.0
N590 N 0.96807 0.59943 0.55395 0.0
N591 N 0.98045 0.73802 0.50558 0.0
H592 H 0.93329 0.65996 0.44331 0.0
H593 H 0.94056 0.70668 0.45277 0.0
H594 H 0.99138 0.76017 0.52193 0.0
H595 H 0.98028 0.74302 0.47828 0.0
H596 H 0.96563 0.57574 0.53729 0.0
H597 H 0.96563 0.57574 0.53729 0.0
H598 H 0.969 0.63113 0.61317 0.0
H599 H 0.97405 0.67797 0.62363 0.0
C600 C 0.81069 0.87251 0.26796 0.0
C601 C 0.77809 0.87227 0.2482 0.0
C602 C 0.79244 0.93605 0.23548 0.0
C603 C 0.82298 0.93725 0.25843 0.0
N604 N 0.86032 0.90845 0.29917 0.0
N605 N 0.73591 0.90346 0.21487 0.0
C606 C 0.8321 0.90589 0.27519 0.0
C607 C 0.76844 0.90393 0.23226 0.0
N608 N 0.82134 0.84072 0.27928 0.0
N609 N 0.78697 0.96541 0.21623 0.0
H610 H 0.71812 0.88012 0.21072 0.0
H611 H 0.72537 0.92659 0.20644 0.0
H612 H 0.80413 0.9894 0.21819 0.0
H613 H 0.76732 0.96516 0.1962 0.0
H614 H 0.84667 0.83836 0.29039 0.0
H615 H 0.80575 0.81591 0.27516 0.0
H616 H 0.86581 0.88774 0.31548 0.0
H617 H 0.8771 0.9323 0.30453 0.0
C618 C 0.75754 0.15872 0.34236 0.0
C619 C 0.7557 0.17958 0.3117 0.0
C620 C 0.79586 0.14007 0.27992 0.0
C621 C 0.80232 0.12338 0.3126 0.0
N622 N 0.79695 0.1267 0.37771 0.0
N623 N 0.78146 0.19533 0.25425 0.0
C624 C 0.78544 0.13559 0.34472 0.0
C625 C 0.77738 0.1719 0.28129 0.0
N626 N 0.73211 0.15993 0.36876 0.0
N627 N 0.80524 0.12482 0.24736 0.0
H628 H 0.77002 0.21994 0.25501 0.0
H629 H 0.79954 0.19211 0.23315 0.0
H630 H 0.81577 0.09983 0.24431 0.0
H631 H 0.79817 0.13486 0.22295 0.0
H632 H 0.73117 0.14295 0.39021 0.0
H633 H 0.70964 0.17454 0.36685 0.0
H634 H 0.78679 0.1374 0.40177 0.0
H635 H 0.81971 0.11285 0.38116 0.0
C636 C 0.39633 0.99608 0.02579 0.0
C637 C 0.39765 0.0122 0.99206 0.0
C638 C 0.33945 0.97965 0.97509 0.0
C639 C 0.33575 0.96754 0.0106 0.0
N640 N 0.35814 0.96947 0.07185 0.0
N641 N 0.36717 0.0253 0.93751 0.0
C642 C 0.36356 0.97706 0.03659 0.0
C643 C 0.36828 0.00571 0.96748 0.0
N644 N 0.42657 0.9982 0.04709 0.0
N645 N 0.3165 0.9651 0.94813 0.0
H646 H 0.38742 0.04533 0.93125 0.0
H647 H 0.34449 0.02416 0.92081 0.0
H648 H 0.29596 0.9446 0.95198 0.0
H649 H 0.32041 0.97049 0.92112 0.0
H650 H 0.42808 0.98389 0.07027 0.0
H651 H 0.45123 0.01149 0.03977 0.0
H652 H 0.37617 0.9791 0.09249 0.0
H653 H 0.33406 0.95658 0.0811 0.0
C654 C 0.22069 0.37466 0.29893 0.0
C655 C 0.2573 0.38757 0.306 0.0
C656 C 0.24188 0.4502 0.30563 0.0
C657 C 0.20474 0.43727 0.30446 0.0
N658 N 0.15796 0.38743 0.30194 0.0
N659 N 0.30307 0.43737 0.31856 0.0
C660 C 0.19384 0.39953 0.30109 0.0
C661 C 0.26811 0.42531 0.30961 0.0
N662 N 0.21181 0.33866 0.28998 0.0
N663 N 0.25204 0.48623 0.30214 0.0
H664 H 0.32331 0.42005 0.32114 0.0
H665 H 0.31156 0.46435 0.32588 0.0
H666 H 0.23346 0.50515 0.29861 0.0
H667 H 0.27876 0.4968 0.2992 0.0
H668 H 0.18617 0.32796 0.28122 0.0
H669 H 0.23102 0.3199 0.28818 0.0
H670 H 0.14847 0.36029 0.30378 0.0
H671 H 0.1375 0.40481 0.30333 0.0
C672 C 0.1598 0.03202 0.46984 0.0
C673 C 0.12601 0.04541 0.4776 0.0
C674 C 0.15563 0.10689 0.48537 0.0
C675 C 0.18975 0.09277 0.48377 0.0
N676 N 0.2243 0.04059 0.48018 0.0
N677 N 0.09257 0.09484 0.49976 0.0
C678 C 0.19198 0.05496 0.4773 0.0
C679 C 0.12406 0.08269 0.48723 0.0
N680 N 0.16114 0.99773 0.45469 0.0
N681 N 0.15326 0.14333 0.48401 0.0
H682 H 0.06902 0.07776 0.50305 0.0
H683 H 0.09092 0.12123 0.51042 0.0
H684 H 0.17577 0.1619 0.48085 0.0
H685 H 0.12872 0.15451 0.48183 0.0
H686 H 0.18498 0.98793 0.44535 0.0
H687 H 0.13802 0.98036 0.44814 0.0
H688 H 0.22651 0.01277 0.47948 0.0
H689 H 0.2485 0.05614 0.4867 0.0
C690 C 0.7219 0.13662 0.71277 0.0
C691 C 0.74224 0.15814 0.73983 0.0
C692 C 0.7235 0.11298 0.7829 0.0
C693 C 0.69781 0.09527 0.75772 0.0
N694 N 0.66489 0.10166 0.70185 0.0
N695 N 0.7507 0.17181 0.80411 0.0
C696 C 0.6946 0.11027 0.72344 0.0
C697 C 0.73936 0.14802 0.77607 0.0
N698 N 0.72901 0.14015 0.67706 0.0
N699 N 0.73462 0.09622 0.81215 0.0
H700 H 0.75965 0.19886 0.80054 0.0
H701 H 0.74684 0.16562 0.83095 0.0
H702 H 0.7281 0.06877 0.81585 0.0
H703 H 0.75481 0.10837 0.82965 0.0
H704 H 0.71593 0.1229 0.65693 0.0
H705 H 0.75072 0.157 0.66797 0.0
H706 H 0.66161 0.11394 0.67765 0.0
H707 H 0.64136 0.08721 0.71034 0.0
C708 C 0.42086 0.05972 0.52239 0.0
C709 C 0.40567 0.03055 0.54228 0.0
C710 C 0.3469 0.05523 0.54264 0.0
C711 C 0.36243 0.0851 0.52384 0.0
N712 N 0.41511 0.11996 0.50224 0.0
N713 N 0.35684 0.00346 0.57717 0.0
C714 C 0.39975 0.08857 0.51562 0.0
C715 C 0.36947 0.02928 0.55431 0.0
N716 N 0.45511 0.05927 0.50908 0.0
N717 N 0.31034 0.05056 0.5476 0.0
H718 H 0.37243 0.9835 0.58553 0.0
H719 H 0.332 0.00345 0.59007 0.0
H720 H 0.29281 0.06904 0.5398 0.0
H721 H 0.29693 0.02712 0.5571 0.0
H722 H 0.46617 0.07744 0.49086 0.0
H723 H 0.47184 0.03912 0.5143 0.0
H724 H 0.44282 0.12577 0.49903 0.0
H725 H 0.40037 0.14177 0.4974 0.0
C726 C 0.57865 0.49754 0.56029 0.0
C727 C 0.59217 0.53145 0.57709 0.0
C728 C 0.65322 0.51174 0.57878 0.0
C729 C 0.64045 0.47969 0.5581 0.0
N730 N 0.59188 0.44104 0.52908 0.0
N731 N 0.64143 0.57197 0.6023 0.0
C732 C 0.60329 0.47214 0.54914 0.0
C733 C 0.62918 0.53871 0.58676 0.0
N734 N 0.5422 0.48968 0.55526 0.0
N735 N 0.68839 0.51643 0.59039 0.0
H736 H 0.62429 0.59178 0.6097 0.0
H737 H 0.6686 0.58085 0.60639 0.0
H738 H 0.70706 0.49787 0.58392 0.0
H739 H 0.69873 0.53739 0.6084 0.0
H740 H 0.53008 0.46424 0.54655 0.0
H741 H 0.52344 0.50806 0.5621 0.0
H742 H 0.56623 0.43573 0.51764 0.0
H743 H 0.60876 0.42074 0.52261 0.0
C744 C 0.72834 0.32267 0.37738 0.0
C745 C 0.71157 0.28677 0.37782 0.0
C746 C 0.69949 0.29526 0.4424 0.0
C747 C 0.71418 0.33181 0.44141 0.0
N748 N 0.73848 0.38231 0.40788 0.0
N749 N 0.6756 0.24048 0.40831 0.0
C750 C 0.72727 0.34617 0.4088 0.0
C751 C 0.69555 0.27345 0.40968 0.0
N752 N 0.74645 0.33379 0.34734 0.0
N753 N 0.6899 0.2813 0.47466 0.0
H754 H 0.67181 0.22397 0.38466 0.0
H755 H 0.66026 0.23077 0.42972 0.0
H756 H 0.69128 0.29694 0.49898 0.0
H757 H 0.68291 0.25382 0.47776 0.0
H758 H 0.76275 0.35815 0.34661 0.0
H759 H 0.74744 0.31745 0.32362 0.0
H760 H 0.74429 0.39525 0.38417 0.0
H761 H 0.73973 0.40018 0.43068 0.0
C762 C 0.54217 0.03692 0.92453 0.0
C763 C 0.50593 0.04185 0.91586 0.0
C764 C 0.5172 0.0251 0.85249 0.0
C765 C 0.55456 0.02517 0.8606 0.0
N766 N 0.60359 0.04064 0.90344 0.0
N767 N 0.46019 0.04679 0.87065 0.0
C768 C 0.5674 0.03369 0.89639 0.0
C769 C 0.49371 0.0377 0.87953 0.0
N770 N 0.55232 0.03419 0.95955 0.0
N771 N 0.50384 0.01166 0.8196 0.0
H772 H 0.44239 0.05659 0.88967 0.0
H773 H 0.45141 0.04775 0.84411 0.0
H774 H 0.51991 0.00091 0.79949 0.0
H775 H 0.4763 0.00778 0.81362 0.0
H776 H 0.57775 0.02729 0.96688 0.0
H777 H 0.53411 0.0347 0.98083 0.0
H778 H 0.61381 0.05025 0.9287 0.0
H779 H 0.62317 0.041 0.88339 0.0
C780 C 0.3229 0.30574 0.41837 0.0
C781 C 0.30194 0.29874 0.38638 0.0
C782 C 0.27224 0.24336 0.4099 0.0
C783 C 0.29591 0.24828 0.4401 0.0
N784 N 0.34505 0.28217 0.47308 0.0
N785 N 0.26017 0.25879 0.34902 0.0
C786 C 0.32157 0.27904 0.44446 0.0
C787 C 0.27732 0.26712 0.3815 0.0
N788 N 0.34357 0.3381 0.42382 0.0
N789 N 0.24464 0.21611 0.40853 0.0
H790 H 0.26263 0.27553 0.32741 0.0
H791 H 0.24564 0.2339 0.34235 0.0
H792 H 0.24065 0.19718 0.42818 0.0
H793 H 0.22391 0.21388 0.3894 0.0
H794 H 0.35705 0.34646 0.44787 0.0
H795 H 0.34507 0.35798 0.40498 0.0
H796 H 0.36686 0.3019 0.47601 0.0
H797 H 0.34391 0.26354 0.49315 0.0
C798 C 0.48644 0.53644 0.95355 0.0
C799 C 0.50174 0.50291 0.94847 0.0
C800 C 0.46299 0.4867 0.89582 0.0
C801 C 0.452 0.52239 0.89748 0.0
N802 N 0.45602 0.58283 0.9258 0.0
N803 N 0.50904 0.44848 0.91128 0.0
C804 C 0.4642 0.54771 0.92596 0.0
C805 C 0.49115 0.47855 0.91874 0.0
N806 N 0.49276 0.55715 0.98495 0.0
N807 N 0.44567 0.46016 0.87322 0.0
H808 H 0.53029 0.44157 0.92703 0.0
H809 H 0.50496 0.43217 0.88757 0.0
H810 H 0.42395 0.46457 0.85677 0.0
H811 H 0.45024 0.43292 0.8737 0.0
H812 H 0.47962 0.58015 0.99167 0.0
H813 H 0.50866 0.54942 0.00582 0.0
H814 H 0.46738 0.60337 0.94379 0.0
H815 H 0.44015 0.59216 0.90579 0.0
C816 C 0.72628 0.78461 0.13727 0.0
C817 C 0.73015 0.76687 0.16961 0.0
C818 C 0.74143 0.71116 0.13475 0.0
C819 C 0.74243 0.73051 0.10283 0.0
N820 N 0.74309 0.7877 0.07471 0.0
N821 N 0.74638 0.71487 0.1999 0.0
C822 C 0.73677 0.76782 0.10431 0.0
C823 C 0.73905 0.73052 0.16864 0.0
N824 N 0.71198 0.81725 0.13803 0.0
N825 N 0.7411 0.67422 0.13271 0.0
H826 H 0.74462 0.72808 0.2253 0.0
H827 H 0.75695 0.68989 0.20047 0.0
H828 H 0.74182 0.65885 0.10837 0.0
H829 H 0.73661 0.65853 0.15491 0.0
H830 H 0.70537 0.82973 0.11482 0.0
H831 H 0.70325 0.83001 0.16175 0.0
H832 H 0.74279 0.81578 0.07546 0.0
H833 H 0.75245 0.77682 0.05036 0.0
C834 C 0.00883 0.10616 0.16684 0.0
C835 C -0.00021 0.09022 0.13202 0.0
C836 C 0.94213 0.0631 0.15443 0.0
C837 C 0.95401 0.07383 0.18997 0.0
N838 N 0.99736 0.10615 0.23119 0.0
N839 N 0.95846 0.05343 0.09169 0.0
C840 C 0.98676 0.09608 0.19651 0.0
C841 C 0.96627 0.06917 0.12536 0.0
N842 N 0.03847 0.13082 0.17131 0.0
N843 N 0.90782 0.04698 0.14872 0.0
H844 H 0.97511 0.0579 0.06951 0.0
H845 H 0.93655 0.03432 0.08598 0.0
H846 H 0.88975 0.04219 0.16976 0.0
H847 H 0.89618 0.04129 0.12328 0.0
H848 H 0.04498 0.14585 0.19534 0.0
H849 H 0.05518 0.13842 0.14995 0.0
H850 H 0.02281 0.11871 0.2383 0.0
H851 H 0.98089 0.10056 0.25329 0.0
C852 C 0.26839 0.75527 0.13854 0.0
C853 C 0.27229 0.76813 0.17515 0.0
C854 C 0.26813 0.83041 0.15792 0.0
C855 C 0.2624 0.81711 0.12158 0.0
N856 N 0.24643 0.76626 0.07927 0.0
N857 N 0.26793 0.81628 0.2209 0.0
C858 C 0.25914 0.77929 0.11254 0.0
C859 C 0.26958 0.80525 0.18525 0.0
N860 N 0.27541 0.72069 0.12819 0.0
N861 N 0.27412 0.86687 0.16613 0.0
H862 H 0.26874 0.79843 0.24151 0.0
H863 H 0.26248 0.8423 0.22986 0.0
H864 H 0.27343 0.88614 0.14687 0.0
H865 H 0.28249 0.87791 0.19152 0.0
H866 H 0.27669 0.71128 0.10129 0.0
H867 H 0.28347 0.70243 0.14618 0.0
H868 H 0.24025 0.73872 0.07246 0.0
H869 H 0.23829 0.78306 0.05981 0.0
C870 C 0.98516 0.46203 0.15707 0.0
C871 C 0.99553 0.47634 0.12363 0.0
C872 C 0.05667 0.49407 0.1468 0.0
C873 C 0.04493 0.48418 0.18142 0.0
N874 N -0.00166 0.46003 0.22083 0.0
N875 N 0.0402 0.50646 0.08584 0.0
C876 C 0.00943 0.46791 0.18685 0.0
C877 C 0.03115 0.49228 0.11815 0.0
N878 N 0.95211 0.44291 0.16029 0.0
N879 N 0.09245 0.5045 0.14141 0.0
H880 H 0.02269 0.50414 0.06367 0.0
H881 H 0.06427 0.52222 0.0814 0.0
H882 H 0.11178 0.50556 0.16196 0.0
H883 H 0.10363 0.50902 0.11623 0.0
H884 H 0.94451 0.42827 0.18255 0.0
H885 H 0.93288 0.43956 0.13959 0.0
H886 H 0.97159 0.45267 0.22752 0.0
H887 H 0.01573 0.46264 0.24306 0.0
C888 C 0.35335 0.74775 0.29942 0.0
C889 C 0.35686 0.72824 0.26583 0.0
C890 C 0.41992 0.72018 0.27979 0.0
C891 C 0.41532 0.7369 0.31455 0.0
N892 N 0.37779 0.76474 0.35911 0.0
N893 N 0.39145 0.6935 0.22426 0.0
C894 C 0.38206 0.7502 0.32482 0.0
C895 C 0.38967 0.71389 0.25595 0.0
N896 N 0.32273 0.7646 0.30668 0.0
N897 N 0.45323 0.71072 0.26962 0.0
H898 H 0.37008 0.68952 0.20575 0.0
H899 H 0.41316 0.67895 0.21704 0.0
H900 H 0.47555 0.71385 0.28699 0.0
H901 H 0.45945 0.7018 0.2435 0.0
H902 H 0.32013 0.78283 0.32865 0.0
H903 H 0.30046 0.76255 0.28934 0.0
H904 H 0.35297 0.77037 0.36984 0.0
H905 H 0.39876 0.7694 0.37798 0.0
C906 C 0.94193 0.3728 0.03325 0.0
C907 C 0.92853 0.40466 0.0217 0.0
C908 C 0.92904 0.38001 0.95946 0.0
C909 C 0.95167 0.35371 0.97028 0.0
N910 N 0.97885 0.32402 0.01848 0.0
N911 N 0.88246 0.41702 0.98007 0.0
C912 C 0.9572 0.34914 0.00754 0.0
C913 C 0.9143 0.40299 0.98626 0.0
N914 N 0.93764 0.36422 0.06828 0.0
N915 N 0.92094 0.3827 0.9239 0.0
H916 H 0.86665 0.42579 0.00145 0.0
H917 H 0.8691 0.41412 0.95524 0.0
H918 H 0.92868 0.3646 0.9035 0.0
H919 H 0.9078 0.40408 0.91476 0.0
H920 H 0.94396 0.33969 0.07779 0.0
H921 H 0.92394 0.38035 0.08659 0.0
H922 H 0.98647 0.32243 0.04531 0.0
H923 H 0.99175 0.30689 0.00059 0.0
C924 C 0.65415 0.76566 0.29754 0.0
C925 C 0.66577 0.79977 0.28392 0.0
C926 C 0.61968 0.8272 0.31998 0.0
C927 C 0.60358 0.79233 0.32774 0.0
N928 N 0.60259 0.7271 0.31654 0.0
N929 N 0.65214 0.86126 0.2752 0.0
C930 C 0.62005 0.76104 0.31475 0.0
C931 C 0.64647 0.83015 0.29315 0.0
N932 N 0.6758 0.7379 0.2948 0.0
N933 N 0.61025 0.85757 0.33879 0.0
H934 H 0.66936 0.86375 0.25321 0.0
H935 H 0.63636 0.88288 0.27942 0.0
H936 H 0.59275 0.85645 0.3607 0.0
H937 H 0.62342 0.88326 0.33553 0.0
H938 H 0.66968 0.71358 0.30716 0.0
H939 H 0.70155 0.74066 0.28362 0.0
H940 H 0.61249 0.70411 0.30428 0.0
H941 H 0.57655 0.72213 0.32647 0.0
C942 C 0.05598 0.17906 0.02321 0.0
C943 C 0.04513 0.14147 0.01783 0.0
C944 C 0.01977 0.15138 0.95875 0.0
C945 C 0.02516 0.18924 0.96687 0.0
N946 N 0.04699 0.23999 0.00718 0.0
N947 N 0.01464 0.09142 0.98174 0.0
C948 C 0.04345 0.20343 -0.00107 0.0
C949 C 0.02691 0.12737 0.98568 0.0
N950 N 0.07834 0.19129 0.05147 0.0
N951 N 0.00811 0.13853 0.92508 0.0
H952 H 0.01935 0.0728 0.00076 0.0
H953 H 0.99755 0.08043 0.96086 0.0
H954 H 0.00294 0.15567 0.90476 0.0
H955 H 0.00696 0.1113 0.91624 0.0
H956 H 0.09003 0.2179 0.05501 0.0
H957 H 0.08779 0.17398 0.06974 0.0
H958 H 0.05599 0.25167 0.03213 0.0
H959 H 0.03881 0.25876 0.98978 0.0
C960 C 0.36992 0.28026 0.26763 0.0
C961 C 0.36278 0.31718 0.27034 0.0
C962 C 0.40432 0.32768 0.22046 0.0
C963 C 0.4179 0.29327 0.22428 0.0
N964 N 0.41914 0.24323 0.26411 0.0
N965 N 0.38245 0.37837 0.25442 0.0
C966 C 0.40237 0.27117 0.25145 0.0
C967 C 0.38276 0.34178 0.24836 0.0
N968 N 0.3459 0.25373 0.27994 0.0
N969 N 0.40956 0.34615 0.18988 0.0
H970 H 0.36941 0.39005 0.27633 0.0
H971 H 0.39885 0.39681 0.24006 0.0
H972 H 0.41956 0.33488 0.16609 0.0
H973 H 0.39828 0.37043 0.18643 0.0
H974 H 0.34995 0.2263 0.27646 0.0
H975 H 0.32035 0.25886 0.28935 0.0
H976 H 0.40832 0.22805 0.28499 0.0
H977 H 0.44594 0.23915 0.25861 0.0
C978 C 0.55686 0.39165 0.0283 0.0
C979 C 0.55027 0.42715 0.04109 0.0
C980 C 0.5337 0.40533 0.10034 0.0
C981 C 0.53611 0.36941 0.08619 0.0
N982 N 0.54841 0.32711 0.03711 0.0
N983 N 0.53143 0.46864 0.08815 0.0
C984 C 0.54769 0.36221 0.05037 0.0
C985 C 0.53869 0.43432 0.07695 0.0
N986 N 0.5721 0.38627 0.99516 0.0
N987 N 0.52698 0.41152 0.13624 0.0
H988 H 0.53586 0.49076 0.07209 0.0
H989 H 0.51912 0.47505 0.11251 0.0
H990 H 0.52316 0.39062 0.15389 0.0
H991 H 0.52804 0.43721 0.14922 0.0
H992 H 0.58114 0.36179 0.98574 0.0
H993 H 0.57806 0.40709 0.97779 0.0
H994 H 0.55223 0.31968 0.01005 0.0
H995 H 0.54335 0.30494 0.05302 0.0
C996 C 0.6527 0.22339 0.22511 0.0
C997 C 0.66044 0.2493 0.25423 0.0
C998 C 0.60552 0.27731 0.24043 0.0
C999 C 0.5932 0.24566 0.21896 0.0
N1000 N 0.60695 0.19007 0.18675 0.0
N1001 N 0.6584 0.31368 0.26459 0.0
C1002 C 0.61736 0.21909 0.20997 0.0
C1003 C 0.64115 0.28049 0.25465 0.0
N1004 N 0.68031 0.20818 0.20776 0.0
N1005 N 0.58294 0.30344 0.24887 0.0
H1006 H 0.686 0.31689 0.27074 0.0
H1007 H 0.64664 0.33785 0.26232 0.0
H1008 H 0.55634 0.302 0.23954 0.0
H1009 H 0.58991 0.3251 0.2675 0.0
H1010 H 0.67674 0.1914 0.18429 0.0
H1011 H 0.70724 0.21712 0.21383 0.0
H1012 H 0.62231 0.16812 0.18269 0.0
H1013 H 0.58237 0.18723 0.1728 0.0
C1014 C 0.44927 0.15471 0.01881 0.0
C1015 C 0.47423 0.12805 0.01679 0.0
C1016 C 0.51214 0.1633 0.0624 0.0
C1017 C 0.48396 0.18584 0.06936 0.0
N1018 N 0.42378 0.20128 0.05623 0.0
N1019 N 0.52703 0.1041 0.04079 0.0
C1020 C 0.45212 0.18152 0.04781 0.0
C1021 C 0.50529 0.13169 0.03941 0.0
N1022 N 0.42302 0.15438 0.99298 0.0
N1023 N 0.54562 0.17238 0.07741 0.0
H1024 H 0.52228 0.07969 0.02552 0.0
H1025 H 0.54773 0.10405 0.05973 0.0
H1026 H 0.55196 0.19609 0.09358 0.0
H1027 H 0.56799 0.15855 0.07056 0.0
H1028 H 0.40612 0.17506 0.99121 0.0
H1029 H 0.42052 0.13518 0.97123 0.0
H1030 H 0.39851 0.19626 0.04382 0.0
H1031 H 0.42443 0.22077 0.07764 0.0
C1032 C 0.27273 0.40774 0.7484 0.0
C1033 C 0.27701 0.37682 0.76826 0.0
C1034 C 0.3243 0.41105 0.80537 0.0
C1035 C 0.32126 0.44133 0.78429 0.0
N1036 N 0.29749 0.46743 0.73238 0.0
N1037 N 0.30999 0.34646 0.8113 0.0
C1038 C 0.29708 0.43927 0.75462 0.0
C1039 C 0.30379 0.37769 0.79549 0.0
N1040 N 0.24438 0.40749 0.72482 0.0
N1041 N 0.34624 0.41446 0.83521 0.0
H1042 H 0.29509 0.32165 0.80481 0.0
H1043 H 0.33156 0.34438 0.82872 0.0
H1044 H 0.36264 0.43813 0.84255 0.0
H1045 H 0.34661 0.39475 0.854 0.0
H1046 H 0.23735 0.43047 0.71273 0.0
H1047 H 0.22593 0.38488 0.71933 0.0
H1048 H 0.28344 0.46592 0.70798 0.0
H1049 H 0.31407 0.49159 0.7369 0.0
C1050 C 0.29109 0.68546 0.81372 0.0
C1051 C 0.25336 0.67648 0.81738 0.0
C1052 C 0.26342 0.61275 0.82202 0.0
C1053 C 0.30126 0.62257 0.82397 0.0
N1054 N 0.35131 0.66916 0.82599 0.0
N1055 N 0.20382 0.63247 0.83098 0.0
C1056 C 0.31527 0.65915 0.82068 0.0
C1057 C 0.23951 0.64033 0.82302 0.0
N1058 N 0.30373 0.71894 0.80301 0.0
N1059 N 0.2503 0.57704 0.81788 0.0
H1060 H 0.18531 0.6519 0.83257 0.0
H1061 H 0.1933 0.60728 0.83926 0.0
H1062 H 0.26697 0.55596 0.81558 0.0
H1063 H 0.22315 0.56859 0.81275 0.0
H1064 H 0.33062 0.72586 0.79645 0.0
H1065 H 0.28669 0.73872 0.79743 0.0
H1066 H 0.36238 0.69607 0.82779 0.0
H1067 H 0.36982 0.65085 0.83175 0.0
C1068 C 0.88142 0.49291 0.4957 0.0
C1069 C 0.87401 0.52688 0.48322 0.0
C1070 C 0.81114 0.51511 0.50167 0.0
C1071 C 0.81728 0.47887 0.50823 0.0
N1072 N 0.85747 0.43105 0.50228 0.0
N1073 N 0.82991 0.56746 0.46809 0.0
C1074 C 0.85222 0.46704 0.50282 0.0
C1075 C 0.83827 0.53721 0.48438 0.0
N1076 N 0.91616 0.48565 0.50197 0.0
N1077 N 0.78008 0.52894 0.51312 0.0
H1078 H 0.84885 0.58376 0.45411 0.0
H1079 H 0.80349 0.57416 0.46538 0.0
H1080 H 0.76043 0.51431 0.52784 0.0
H1081 H 0.77586 0.55619 0.51168 0.0
H1082 H 0.92241 0.4624 0.51418 0.0
H1083 H 0.93843 0.5045 0.49884 0.0
H1084 H 0.88203 0.42134 0.49511 0.0
H1085 H 0.83661 0.41053 0.50466 0.0
C1086 C 0.77358 0.91334 0.79391 0.0
C1087 C 0.76122 0.87618 0.7873 0.0
C1088 C 0.69881 0.89163 0.7827 0.0
C1089 C 0.71141 0.92887 0.78846 0.0
N1090 N 0.76103 0.97573 0.78915 0.0
N1091 N 0.71399 0.83042 0.76736 0.0
C1092 C 0.74894 0.93988 0.79072 0.0
C1093 C 0.72437 0.8655 0.77896 0.0
N1094 N 0.80834 0.92324 0.80519 0.0
N1095 N 0.66258 0.88103 0.78293 0.0
H1096 H 0.7322 0.81072 0.76448 0.0
H1097 H 0.68818 0.82164 0.75757 0.0
H1098 H 0.64299 0.89929 0.78573 0.0
H1099 H 0.65195 0.85404 0.78301 0.0
H1100 H 0.81756 0.94955 0.8144 0.0
H1101 H 0.82731 0.90468 0.80827 0.0
H1102 H 0.78825 0.985 0.78714 0.0
H1103 H 0.74367 0.99587 0.78608 0.0
C1104 C 0.6409 0.55002 0.02293 0.0
C1105 C 0.62846 0.52893 0.99156 0.0
C1106 C 0.67723 0.55836 0.9564 0.0
C1107 C 0.69088 0.5776 0.98838 0.0
N1108 N 0.69236 0.58277 0.05355 0.0
N1109 N 0.63959 0.50625 0.9308 0.0
C1110 C 0.6748 0.57059 0.02216 0.0
C1111 C 0.64821 0.53091 0.95897 0.0
N1112 N 0.61968 0.55199 0.05287 0.0
N1113 N 0.69053 0.56745 0.92353 0.0
H1114 H 0.61884 0.48536 0.93207 0.0
H1115 H 0.65522 0.50438 0.90763 0.0
H1116 H 0.71133 0.58792 0.92041 0.0
H1117 H 0.67882 0.55683 0.89922 0.0
H1118 H 0.62622 0.57005 0.07496 0.0
H1119 H 0.59392 0.53837 0.05435 0.0
H1120 H 0.68311 0.5755 0.07884 0.0
H1121 H 0.71815 0.59663 0.05418 0.0
C1122 C 0.23456 0.65004 0.28249 0.0
C1123 C 0.23786 0.65853 0.24578 0.0
C1124 C 0.18786 0.61265 0.23119 0.0
C1125 C 0.19047 0.59873 0.26597 0.0
N1126 N 0.2262 0.60026 0.32112 0.0
N1127 N 0.22313 0.63924 0.18359 0.0
C1128 C 0.2166 0.61625 0.29081 0.0
C1129 C 0.21619 0.63729 0.21951 0.0
N1130 N 0.24764 0.67427 0.30952 0.0
N1131 N 0.15788 0.60434 0.20992 0.0
H1132 H 0.24553 0.65458 0.17379 0.0
H1133 H 0.20905 0.62205 0.16405 0.0
H1134 H 0.13414 0.59067 0.21898 0.0
H1135 H 0.15486 0.61593 0.1853 0.0
H1136 H 0.24349 0.66959 0.33669 0.0
H1137 H 0.25853 0.70051 0.30477 0.0
H1138 H 0.2469 0.6119 0.3383 0.0
H1139 H 0.21761 0.57357 0.32639 0.0
C1140 C 0.92268 0.56156 0.02821 0.0
C1141 C 0.90715 0.53606 0.05209 0.0
C1142 C 0.85033 0.56427 0.05232 0.0
C1143 C 0.86572 0.58969 0.02814 0.0
N1144 N 0.91812 0.61826 -0.00031 0.0
N1145 N 0.86033 0.51817 0.09395 0.0
C1146 C 0.90253 0.59016 0.01825 0.0
C1147 C 0.87235 0.53925 0.06662 0.0
N1148 N 0.95609 0.55755 0.01407 0.0
N1149 N 0.81414 0.5622 0.05957 0.0
H1150 H 0.87554 0.49899 0.10451 0.0
H1151 H 0.83681 0.52187 0.1083 0.0
H1152 H 0.79678 0.57985 0.04979 0.0
H1153 H 0.80062 0.54128 0.0732 0.0
H1154 H 0.96724 0.5726 0.99335 0.0
H1155 H 0.97209 0.53766 0.0218 0.0
H1156 H 0.94563 0.62209 0.99427 0.0
H1157 H 0.90388 0.63971 0.99247 0.0
C1158 C 0.1368 0.04342 0.08388 0.0
C1159 C 0.10187 0.03818 0.06794 0.0
C1160 C 0.11448 0.97845 0.0421 0.0
C1161 C 0.15076 0.98581 0.05404 0.0
N1162 N 0.19769 0.02494 0.08517 0.0
N1163 N 0.05679 0.00167 0.03152 0.0
C1164 C 0.16219 0.018 0.07508 0.0
C1165 C 0.09038 0.00577 0.04719 0.0
N1166 N 0.14548 0.0726 0.10753 0.0
N1167 N 0.10311 0.94502 0.02645 0.0
H1168 H 0.03773 0.02029 0.03603 0.0
H1169 H 0.04828 0.98085 0.01256 0.0
H1170 H 0.12028 0.92448 0.02255 0.0
H1171 H 0.07627 0.93646 0.02008 0.0
H1172 H 0.16908 0.07615 0.12296 0.0
H1173 H 0.12777 0.09221 0.11377 0.0
H1174 H 0.20885 0.0497 0.09677 0.0
H1175 H 0.21671 0.00635 0.08024 0.0
loop_
_geom_bond_atom_site_label_1
_geom_bond_atom_site_label_2
_geom_bond_distance
_geom_bond_site_symmetry_2
_ccdc_geom_bond_type
H0 C3 0.931 . S
H1 C6 0.928 . S
H2 C8 0.930 . S
C3 H0 0.931 . S
C3 C4 1.413 . S
C3 C5 1.360 . S
C4 C3 1.413 . S
C4 C8 1.429 . S
C5 C3 1.360 . S
C5 C6 1.372 . S
C6 H1 0.928 . S
C6 C5 1.372 . S
C6 C7 1.404 . S
C7 C6 1.404 . S
C7 C8 1.391 . S
C8 H2 0.930 . S
C8 C4 1.429 . S
C8 C7 1.391 . S
H9 C12 0.931 . S
H10 C15 0.928 . S
H11 C17 0.930 . S
C12 H9 0.931 . S
C12 C13 1.413 . S
C12 C14 1.360 . S
C13 C12 1.413 . S
C13 C17 1.429 . S
C14 C12 1.360 . S
C14 C15 1.372 . S
C15 H10 0.928 . S
C15 C14 1.372 . S
C15 C16 1.404 . S
C16 C15 1.404 . S
C16 C17 1.391 . S
C17 H11 0.930 . S
C17 C13 1.429 . S
C17 C16 1.391 . S
H18 C21 0.931 . S
H19 C24 0.928 . S
H20 C26 0.930 . S
C21 H18 0.931 . S
C21 C22 1.413 . S
C21 C23 1.360 . S
C22 C21 1.413 . S
C22 C26 1.429 . S
C23 C21 1.360 . S
C23 C24 1.372 . S
C24 H19 0.928 . S
C24 C23 1.372 . S
C24 C25 1.404 . S
C25 C24 1.404 . S
C25 C26 1.391 . S
C26 H20 0.930 . S
C26 C22 1.429 . S
C26 C25 1.391 . S
H27 C30 0.931 . S
H28 C33 0.928 . S
H29 C35 0.930 . S
C30 H27 0.931 . S
C30 C31 1.413 . S
C30 C32 1.360 . S
C31 C30 1.413 . S
C31 C35 1.429 . S
C32 C30 1.360 . S
C32 C33 1.372 . S
C33 H28 0.928 . S
C33 C32 1.372 . S
C33 C34 1.404 . S
C34 C33 1.404 . S
C34 C35 1.391 . S
C35 H29 0.930 . S
C35 C31 1.429 . S
C35 C34 1.391 . S
H36 C39 0.931 . S
H37 C42 0.928 1_545 S
H38 C44 0.930 . S
C39 H36 0.931 . S
C39 C40 1.413 . S
C39 C41 1.360 . S
C40 C39 1.413 . S
C40 C44 1.429 . S
C41 C39 1.360 . S
C41 C42 1.372 . S
C42 H37 0.928 1_565 S
C42 C41 1.372 . S
C42 C43 1.404 . S
C43 C42 1.404 . S
C43 C44 1.391 . S
C44 H38 0.930 . S
C44 C40 1.429 . S
C44 C43 1.391 . S
H45 C48 0.931 . S
H46 C51 0.928 . S
H47 C53 0.930 . S
C48 H45 0.931 . S
C48 C49 1.413 . S
C48 C50 1.360 . S
C49 C48 1.413 . S
C49 C53 1.429 . S
C50 C48 1.360 . S
C50 C51 1.372 . S
C51 H46 0.928 . S
C51 C50 1.372 . S
C51 C52 1.404 . S
C52 C51 1.404 . S
C52 C53 1.391 . S
C53 H47 0.930 . S
C53 C49 1.429 . S
C53 C52 1.391 . S
H54 C57 0.931 . S
H55 C60 0.928 . S
H56 C62 0.930 . S
C57 H54 0.931 . S
C57 C58 1.413 . S
C57 C59 1.360 . S
C58 C57 1.413 . S
C58 C62 1.429 . S
C59 C57 1.360 . S
C59 C60 1.372 . S
C60 H55 0.928 . S
C60 C59 1.372 . S
C60 C61 1.404 . S
C61 C60 1.404 . S
C61 C62 1.391 . S
C62 H56 0.930 . S
C62 C58 1.429 . S
C62 C61 1.391 . S
H63 C66 0.931 . S
H64 C69 0.928 . S
H65 C71 0.930 . S
C66 H63 0.931 . S
C66 C67 1.413 . S
C66 C68 1.360 . S
C67 C66 1.413 . S
C67 C71 1.429 . S
C68 C66 1.360 . S
C68 C69 1.372 . S
C69 H64 0.928 . S
C69 C68 1.372 . S
C69 C70 1.404 . S
C70 C69 1.404 . S
C70 C71 1.391 . S
C71 H65 0.930 . S
C71 C67 1.429 . S
C71 C70 1.391 . S
H72 C75 0.931 . S
H73 C78 0.928 . S
H74 C80 0.930 . S
C75 H72 0.931 . S
C75 C76 1.413 . S
C75 C77 1.360 . S
C76 C75 1.413 . S
C76 C80 1.429 . S
C77 C75 1.360 . S
C77 C78 1.372 . S
C78 H73 0.928 . S
C78 C77 1.372 . S
C78 C79 1.404 . S
C79 C78 1.404 . S
C79 C80 1.391 . S
C80 H74 0.930 . S
C80 C76 1.429 . S
C80 C79 1.391 . S
H81 C84 0.931 . S
H82 C87 0.928 . S
H83 C89 0.930 . S
C84 H81 0.931 . S
C84 C85 1.413 . S
C84 C86 1.360 . S
C85 C84 1.413 . S
C85 C89 1.429 . S
C86 C84 1.360 . S
C86 C87 1.372 . S
C87 H82 0.928 . S
C87 C86 1.372 . S
C87 C88 1.404 . S
C88 C87 1.404 . S
C88 C89 1.391 . S
C89 H83 0.930 . S
C89 C85 1.429 . S
C89 C88 1.391 . S
H90 C93 0.931 . S
H91 C96 0.928 . S
H92 C98 0.930 . S
C93 H90 0.931 . S
C93 C94 1.413 . S
C93 C95 1.360 . S
C94 C93 1.413 . S
C94 C98 1.429 . S
C95 C93 1.360 . S
C95 C96 1.372 . S
C96 H91 0.928 . S
C96 C95 1.372 . S
C96 C97 1.404 . S
C97 C96 1.404 . S
C97 C98 1.391 . S
C98 H92 0.930 . S
C98 C94 1.429 . S
C98 C97 1.391 . S
H99 C102 0.931 . S
H100 C105 0.928 . S
H101 C107 0.930 . S
C102 H99 0.931 . S
C102 C103 1.413 . S
C102 C104 1.360 . S
C103 C102 1.413 . S
C103 C107 1.429 . S
C104 C102 1.360 . S
C104 C105 1.372 . S
C105 H100 0.928 . S
C105 C104 1.372 . S
C105 C106 1.404 . S
C106 C105 1.404 . S
C106 C107 1.391 . S
C107 H101 0.930 . S
C107 C103 1.429 . S
C107 C106 1.391 . S
H108 C111 0.931 . S
H109 C114 0.928 . S
H110 C116 0.930 . S
C111 H108 0.931 . S
C111 C112 1.413 . S
C111 C113 1.360 . S
C112 C111 1.413 . S
C112 C116 1.429 . S
C113 C111 1.360 . S
C113 C114 1.372 . S
C114 H109 0.928 . S
C114 C113 1.372 . S
C114 C115 1.404 . S
C115 C114 1.404 . S
C115 C116 1.391 . S
C116 H110 0.930 . S
C116 C112 1.429 . S
C116 C115 1.391 . S
H117 C120 0.931 . S
H118 C123 0.928 . S
H119 C125 0.930 . S
C120 H117 0.931 . S
C120 C121 1.413 . S
C120 C122 1.360 . S
C121 C120 1.413 . S
C121 C125 1.429 . S
C122 C120 1.360 . S
C122 C123 1.372 . S
C123 H118 0.928 . S
C123 C122 1.372 . S
C123 C124 1.404 . S
C124 C123 1.404 . S
C124 C125 1.391 . S
C125 H119 0.930 . S
C125 C121 1.429 . S
C125 C124 1.391 . S
H126 C129 0.931 . S
H127 C132 0.928 . S
H128 C134 0.930 . S
C129 H126 0.931 . S
C129 C130 1.413 . S
C129 C131 1.360 . S
C130 C129 1.413 . S
C130 C134 1.429 . S
C131 C129 1.360 . S
C131 C132 1.372 . S
C132 H127 0.928 . S
C132 C131 1.372 . S
C132 C133 1.404 . S
C133 C132 1.404 . S
C133 C134 1.391 . S
C134 H128 0.930 . S
C134 C130 1.429 . S
C134 C133 1.391 . S
H135 C138 0.931 . S
H136 C141 0.928 . S
H137 C143 0.930 . S
C138 H135 0.931 . S
C138 C139 1.413 . S
C138 C140 1.360 . S
C139 C138 1.413 . S
C139 C143 1.429 . S
C140 C138 1.360 . S
C140 C141 1.372 . S
C141 H136 0.928 . S
C141 C140 1.372 . S
C141 C142 1.404 . S
C142 C141 1.404 . S
C142 C143 1.391 . S
C143 H137 0.930 . S
C143 C139 1.429 . S
C143 C142 1.391 . S
O144 Cd145 2.223 . S
O144 C152 1.310 1_554 S
Cd145 O144 2.223 . S
Cd145 O148 2.297 . S
Cd145 O149 2.439 . S
Cd145 O155 2.240 . S
Cd146 O147 2.240 . S
Cd146 O154 2.223 1_554 S
Cd146 O156 2.297 . S
Cd146 O157 2.439 . S
O147 Cd146 2.240 . S
O147 C152 1.269 1_554 S
O148 Cd145 2.297 . S
O148 C150 1.247 . S
O149 Cd145 2.439 . S
O149 C150 1.208 . S
C150 O148 1.247 . S
C150 O149 1.208 . S
C151 O156 1.247 . S
C151 O157 1.208 . S
C152 O144 1.310 1_556 S
C152 O147 1.269 1_556 S
C153 O154 1.315 1_554 S
C153 O155 1.279 . S
O154 Cd146 2.223 1_556 S
O154 C153 1.315 1_556 S
O155 Cd145 2.240 . S
O155 C153 1.279 . S
O156 Cd146 2.297 . S
O156 C151 1.247 . S
O157 Cd146 2.439 . S
O157 C151 1.208 . S
O158 Cd159 2.223 . S
O158 C166 1.315 . S
Cd159 O158 2.223 . S
Cd159 O162 2.297 . S
Cd159 O163 2.439 . S
Cd159 O169 2.240 . S
Cd160 O161 2.240 . S
Cd160 O168 2.223 . S
Cd160 O170 2.297 . S
Cd160 O171 2.439 . S
O161 Cd160 2.240 . S
O161 C166 1.279 . S
O162 Cd159 2.297 . S
O162 C164 1.247 . S
O163 Cd159 2.439 . S
O163 C164 1.208 . S
C164 O162 1.247 . S
C164 O163 1.208 . S
C165 O170 1.247 . S
C165 O171 1.208 . S
C166 O158 1.315 . S
C166 O161 1.279 . S
C167 O168 1.315 . S
C167 O169 1.279 . S
O168 Cd160 2.223 . S
O168 C167 1.315 . S
O169 Cd159 2.240 . S
O169 C167 1.279 . S
O170 Cd160 2.297 . S
O170 C165 1.247 . S
O171 Cd160 2.439 . S
O171 C165 1.208 . S
O172 Cd173 2.223 1_556 S
O172 C180 1.315 . S
Cd173 O172 2.223 1_554 S
Cd173 O176 2.297 . S
Cd173 O177 2.439 . S
Cd173 O183 2.240 . S
Cd174 O175 2.240 . S
Cd174 O182 2.223 . S
Cd174 O184 2.304 . S
Cd174 O185 2.439 1_556 S
O175 Cd174 2.240 . S
O175 C180 1.279 . S
O176 Cd173 2.297 . S
O176 C178 1.247 . S
O177 Cd173 2.439 . S
O177 C178 1.208 . S
C178 O176 1.247 . S
C178 O177 1.208 . S
C179 O184 1.230 1_554 S
C179 O185 1.208 . S
C180 O172 1.315 . S
C180 O175 1.279 . S
C181 O182 1.315 . S
C181 O183 1.279 1_556 S
O182 Cd174 2.223 . S
O182 C181 1.315 . S
O183 Cd173 2.240 . S
O183 C181 1.279 1_554 S
O184 Cd174 2.304 . S
O184 C179 1.230 1_556 S
O185 Cd174 2.439 1_554 S
O185 C179 1.208 . S
O186 Cd187 2.223 1_565 S
O186 C194 1.315 1_565 S
Cd187 O186 2.223 1_545 S
Cd187 O190 2.297 . S
Cd187 O191 2.439 . S
Cd187 O197 2.240 . S
Cd188 O189 2.240 . S
Cd188 O196 2.223 . S
Cd188 O198 2.297 . S
Cd188 O199 2.439 . S
O189 Cd188 2.240 . S
O189 C194 1.279 . S
O190 Cd187 2.297 . S
O190 C192 1.247 . S
O191 Cd187 2.439 . S
O191 C192 1.208 . S
C192 O190 1.247 . S
C192 O191 1.208 . S
C193 O198 1.247 . S
C193 O199 1.208 . S
C194 O186 1.315 1_545 S
C194 O189 1.279 . S
C195 O196 1.314 . S
C195 O197 1.277 . S
O196 Cd188 2.223 . S
O196 C195 1.314 . S
O197 Cd187 2.240 . S
O197 C195 1.277 . S
O198 Cd188 2.297 . S
O198 C193 1.247 . S
O199 Cd188 2.439 . S
O199 C193 1.208 . S
O200 Cd201 2.223 . S
O200 C208 1.315 . S
Cd201 O200 2.223 . S
Cd201 O204 2.297 . S
Cd201 O205 2.439 . S
Cd201 O211 2.240 . S
Cd202 O203 2.240 . S
Cd202 O210 2.223 . S
Cd202 O212 2.297 . S
Cd202 O213 2.439 . S
O203 Cd202 2.240 . S
O203 C208 1.279 . S
O204 Cd201 2.297 . S
O204 C206 1.247 . S
O205 Cd201 2.439 . S
O205 C206 1.208 . S
C206 O204 1.247 . S
C206 O205 1.208 . S
C207 O212 1.247 . S
C207 O213 1.208 . S
C208 O200 1.315 . S
C208 O203 1.279 . S
C209 O210 1.315 . S
C209 O211 1.279 . S
O210 Cd202 2.223 . S
O210 C209 1.315 . S
O211 Cd201 2.240 . S
O211 C209 1.279 . S
O212 Cd202 2.297 . S
O212 C207 1.247 . S
O213 Cd202 2.439 . S
O213 C207 1.208 . S
O214 Cd215 2.223 . S
O214 C222 1.315 . S
Cd215 O214 2.223 . S
Cd215 O218 2.297 . S
Cd215 O219 2.439 . S
Cd215 O225 2.240 . S
Cd216 O217 2.240 . S
Cd216 O224 2.223 . S
Cd216 O226 2.297 . S
Cd216 O227 2.439 . S
O217 Cd216 2.240 . S
O217 C222 1.279 . S
O218 Cd215 2.297 . S
O218 C220 1.247 . S
O219 Cd215 2.439 . S
O219 C220 1.208 . S
C220 O218 1.247 . S
C220 O219 1.208 . S
C221 O226 1.247 . S
C221 O227 1.208 . S
C222 O214 1.315 . S
C222 O217 1.279 . S
C223 O224 1.315 . S
C223 O225 1.279 . S
O224 Cd216 2.223 . S
O224 C223 1.315 . S
O225 Cd215 2.240 . S
O225 C223 1.279 . S
O226 Cd216 2.297 . S
O226 C221 1.247 . S
O227 Cd216 2.439 . S
O227 C221 1.208 . S
O228 Cd229 2.223 . S
O228 C236 1.315 . S
Cd229 O228 2.223 . S
Cd229 O232 2.297 . S
Cd229 O233 2.439 . S
Cd229 O239 2.240 . S
Cd230 O231 2.240 . S
Cd230 O238 2.223 . S
Cd230 O240 2.297 . S
Cd230 O241 2.439 . S
O231 Cd230 2.240 . S
O231 C236 1.279 . S
O232 Cd229 2.297 . S
O232 C234 1.247 . S
O233 Cd229 2.439 . S
O233 C234 1.208 . S
C234 O232 1.247 . S
C234 O233 1.208 . S
C235 O240 1.247 . S
C235 O241 1.208 . S
C236 O228 1.315 . S
C236 O231 1.279 . S
C237 O238 1.315 . S
C237 O239 1.279 . S
O238 Cd230 2.223 . S
O238 C237 1.315 . S
O239 Cd229 2.240 . S
O239 C237 1.279 . S
O240 Cd230 2.297 . S
O240 C235 1.247 . S
O241 Cd230 2.439 . S
O241 C235 1.208 . S
O242 Cd243 2.223 1_545 S
O242 C250 1.315 . S
Cd243 O242 2.223 1_565 S
Cd243 O246 2.297 . S
Cd243 O247 2.439 . S
Cd243 O253 2.240 1_565 S
Cd244 O245 2.240 . S
Cd244 O252 2.223 . S
Cd244 O254 2.297 . S
Cd244 O255 2.439 1_545 S
O245 Cd244 2.240 . S
O245 C250 1.279 . S
O246 Cd243 2.297 . S
O246 C248 1.247 . S
O247 Cd243 2.439 . S
O247 C248 1.208 . S
C248 O246 1.247 . S
C248 O247 1.208 . S
C249 O254 1.247 1_565 S
C249 O255 1.208 . S
C250 O242 1.315 . S
C250 O245 1.279 . S
C251 O252 1.315 . S
C251 O253 1.279 . S
O252 Cd244 2.223 . S
O252 C251 1.315 . S
O253 Cd243 2.240 1_545 S
O253 C251 1.279 . S
O254 Cd244 2.297 . S
O254 C249 1.247 1_545 S
O255 Cd244 2.439 1_565 S
O255 C249 1.208 . S
O256 Cd257 2.223 . S
O256 C264 1.315 . S
Cd257 O256 2.223 . S
Cd257 O260 2.297 1_655 S
Cd257 O261 2.439 1_655 S
Cd257 O267 2.240 . S
Cd258 O259 2.240 . S
Cd258 O266 2.223 1_455 S
Cd258 O268 2.297 . S
Cd258 O269 2.439 . S
O259 Cd258 2.240 . S
O259 C264 1.279 1_455 S
O260 Cd257 2.297 1_455 S
O260 C262 1.247 . S
O261 Cd257 2.439 1_455 S
O261 C262 1.208 . S
C262 O260 1.247 . S
C262 O261 1.208 . S
C263 O268 1.247 . S
C263 O269 1.208 . S
C264 O256 1.315 . S
C264 O259 1.279 1_655 S
C265 O266 1.315 . S
C265 O267 1.279 . S
O266 Cd258 2.223 1_655 S
O266 C265 1.315 . S
O267 Cd257 2.240 . S
O267 C265 1.279 . S
O268 Cd258 2.297 . S
O268 C263 1.247 . S
O269 Cd258 2.439 . S
O269 C263 1.208 . S
O270 Cd271 2.223 . S
O270 C278 1.315 . S
Cd271 O270 2.223 . S
Cd271 O274 2.297 . S
Cd271 O275 2.439 . S
Cd271 O281 2.240 . S
Cd272 O273 2.240 . S
Cd272 O280 2.223 . S
Cd272 O282 2.297 . S
Cd272 O283 2.439 . S
O273 Cd272 2.240 . S
O273 C278 1.279 . S
O274 Cd271 2.297 . S
O274 C276 1.247 . S
O275 Cd271 2.439 . S
O275 C276 1.208 . S
C276 O274 1.247 . S
C276 O275 1.208 . S
C277 O282 1.247 . S
C277 O283 1.208 . S
C278 O270 1.315 . S
C278 O273 1.279 . S
C279 O280 1.315 . S
C279 O281 1.279 . S
O280 Cd272 2.223 . S
O280 C279 1.315 . S
O281 Cd271 2.240 . S
O281 C279 1.279 . S
O282 Cd272 2.297 . S
O282 C277 1.247 . S
O283 Cd272 2.439 . S
O283 C277 1.208 . S
O284 Cd285 2.223 1_655 S
O284 C292 1.315 . S
Cd285 O284 2.223 1_455 S
Cd285 O288 2.297 . S
Cd285 O289 2.439 . S
Cd285 O295 2.240 . S
Cd286 O287 2.240 . S
Cd286 O294 2.223 . S
Cd286 O296 2.297 . S
Cd286 O297 2.439 1_655 S
O287 Cd286 2.240 . S
O287 C292 1.279 . S
O288 Cd285 2.297 . S
O288 C290 1.247 . S
O289 Cd285 2.439 . S
O289 C290 1.208 . S
C290 O288 1.247 . S
C290 O289 1.208 . S
C291 O296 1.247 1_455 S
C291 O297 1.208 . S
C292 O284 1.315 . S
C292 O287 1.279 . S
C293 O294 1.315 . S
C293 O295 1.279 1_655 S
O294 Cd286 2.223 . S
O294 C293 1.315 . S
O295 Cd285 2.240 . S
O295 C293 1.279 1_455 S
O296 Cd286 2.297 . S
O296 C291 1.247 1_655 S
O297 Cd286 2.439 1_455 S
O297 C291 1.208 . S
O298 Cd299 2.223 . S
O298 C306 1.315 . S
Cd299 O298 2.223 . S
Cd299 O302 2.297 . S
Cd299 O303 2.439 . S
Cd299 O309 2.240 . S
Cd300 O301 2.240 . S
Cd300 O308 2.223 . S
Cd300 O310 2.297 . S
Cd300 O311 2.439 . S
O301 Cd300 2.240 . S
O301 C306 1.279 . S
O302 Cd299 2.297 . S
O302 C304 1.247 . S
O303 Cd299 2.439 . S
O303 C304 1.208 . S
C304 O302 1.247 . S
C304 O303 1.208 . S
C305 O310 1.247 . S
C305 O311 1.208 . S
C306 O298 1.315 . S
C306 O301 1.279 . S
C307 O308 1.315 . S
C307 O309 1.279 . S
O308 Cd300 2.223 . S
O308 C307 1.315 . S
O309 Cd299 2.240 . S
O309 C307 1.279 . S
O310 Cd300 2.297 . S
O310 C305 1.247 . S
O311 Cd300 2.439 . S
O311 C305 1.208 . S
C312 C313 1.363 . S
C312 C318 1.379 . S
C312 N320 1.356 . S
C313 C312 1.363 . S
C313 C319 1.363 . S
C314 C315 1.363 . S
C314 C319 1.379 . S
C314 N321 1.356 . S
C315 C314 1.363 . S
C315 C318 1.363 . S
N316 C318 1.328 1_554 S
N316 H328 0.997 . S
N316 H329 1.001 . S
N317 C319 1.356 . S
N317 H322 0.984 . S
N317 H323 0.985 . S
C318 C312 1.379 . S
C318 C315 1.363 . S
C318 N316 1.328 1_556 S
C319 C313 1.363 . S
C319 C314 1.379 . S
C319 N317 1.356 . S
N320 C312 1.356 . S
N320 H326 0.984 . S
N320 H327 0.984 . S
N321 C314 1.356 . S
N321 H324 0.984 . S
N321 H325 0.985 . S
H322 N317 0.984 . S
H323 N317 0.985 . S
H324 N321 0.984 . S
H325 N321 0.985 . S
H326 N320 0.984 . S
H327 N320 0.984 . S
H328 N316 0.997 . S
H329 N316 1.001 . S
C330 C331 1.363 1_455 S
C330 C336 1.379 . S
C330 N338 1.356 1_455 S
C331 C330 1.363 1_655 S
C331 C337 1.363 . S
C332 C333 1.363 . S
C332 C337 1.379 1_455 S
C332 N339 1.356 . S
C333 C332 1.363 . S
C333 C336 1.363 . S
N334 C336 1.356 . S
N334 H346 0.984 . S
N334 H347 0.985 . S
N335 C337 1.356 . S
N335 H340 0.984 . S
N335 H341 0.985 . S
C336 C330 1.379 . S
C336 C333 1.363 . S
C336 N334 1.356 . S
C337 C331 1.363 . S
C337 C332 1.379 1_655 S
C337 N335 1.356 . S
N338 C330 1.356 1_655 S
N338 H344 0.984 . S
N338 H345 0.984 . S
N339 C332 1.356 . S
N339 H342 0.984 . S
N339 H343 0.985 . S
H340 N335 0.984 . S
H341 N335 0.985 . S
H342 N339 0.984 . S
H343 N339 0.985 . S
H344 N338 0.984 . S
H345 N338 0.984 . S
H346 N334 0.984 . S
H347 N334 0.985 . S
C348 C349 1.363 . S
C348 C354 1.379 . S
C348 N356 1.356 . S
C349 C348 1.363 . S
C349 C355 1.363 . S
C350 C351 1.363 . S
C350 C355 1.379 . S
C350 N357 1.356 . S
C351 C350 1.363 . S
C351 C354 1.363 . S
N352 C354 1.356 . S
N352 H364 0.984 . S
N352 H365 0.985 . S
N353 C355 1.356 . S
N353 H358 0.984 . S
N353 H359 0.985 . S
C354 C348 1.379 . S
C354 C351 1.363 . S
C354 N352 1.356 . S
C355 C349 1.363 . S
C355 C350 1.379 . S
C355 N353 1.356 . S
N356 C348 1.356 . S
N356 H362 0.984 . S
N356 H363 0.984 . S
N357 C350 1.356 . S
N357 H360 0.984 . S
N357 H361 0.985 . S
H358 N353 0.984 . S
H359 N353 0.985 . S
H360 N357 0.984 . S
H361 N357 0.985 . S
H362 N356 0.984 . S
H363 N356 0.984 . S
H364 N352 0.984 . S
H365 N352 0.985 . S
C366 C367 1.363 . S
C366 C372 1.379 1_455 S
C366 N374 1.356 . S
C367 C366 1.363 . S
C367 C373 1.350 1_565 S
C368 C369 1.363 1_545 S
C368 C373 1.387 1_655 S
C368 N375 1.356 . S
C369 C368 1.363 1_565 S
C369 C372 1.362 . S
N370 C372 1.356 . S
N370 H382 0.984 . S
N370 H383 0.985 . S
N371 C373 1.358 . S
N371 H376 0.984 1_545 S
N371 H377 0.985 . S
C372 C366 1.379 1_655 S
C372 C369 1.362 . S
C372 N370 1.356 . S
C373 C367 1.350 1_545 S
C373 C368 1.387 1_455 S
C373 N371 1.358 . S
N374 C366 1.356 . S
N374 H380 0.984 . S
N374 H381 0.984 . S
N375 C368 1.356 . S
N375 H378 0.984 . S
N375 H379 0.985 . S
H376 N371 0.984 1_565 S
H377 N371 0.985 . S
H378 N375 0.984 . S
H379 N375 0.985 . S
H380 N374 0.984 . S
H381 N374 0.984 . S
H382 N370 0.984 . S
H383 N370 0.985 . S
C384 C385 1.363 . S
C384 C390 1.379 . S
C384 N392 1.356 . S
C385 C384 1.363 . S
C385 C391 1.363 . S
C386 C387 1.363 . S
C386 C391 1.379 . S
C386 N393 1.356 . S
C387 C386 1.363 . S
C387 C390 1.363 . S
N388 C390 1.356 . S
N388 H400 0.984 . S
N388 H401 0.985 . S
N389 C391 1.356 . S
N389 H394 0.984 . S
N389 H395 0.985 . S
C390 C384 1.379 . S
C390 C387 1.363 . S
C390 N388 1.356 . S
C391 C385 1.363 . S
C391 C386 1.379 . S
C391 N389 1.356 . S
N392 C384 1.356 . S
N392 H398 0.984 . S
N392 H399 0.984 . S
N393 C386 1.356 . S
N393 H396 0.984 . S
N393 H397 0.985 . S
H394 N389 0.984 . S
H395 N389 0.985 . S
H396 N393 0.984 . S
H397 N393 0.985 . S
H398 N392 0.984 . S
H399 N392 0.984 . S
H400 N388 0.984 . S
H401 N388 0.985 . S
C402 C403 1.363 . S
C402 C408 1.379 . S
C402 N410 1.356 . S
C403 C402 1.363 . S
C403 C409 1.363 . S
C404 C405 1.363 . S
C404 C409 1.379 . S
C404 N411 1.356 . S
C405 C404 1.363 . S
C405 C408 1.363 . S
N406 C408 1.356 . S
N406 H418 0.984 . S
N406 H419 0.985 . S
N407 C409 1.356 . S
N407 H412 0.984 . S
N407 H413 0.985 . S
C408 C402 1.379 . S
C408 C405 1.363 . S
C408 N406 1.356 . S
C409 C403 1.363 . S
C409 C404 1.379 . S
C409 N407 1.356 . S
N410 C402 1.356 . S
N410 H416 0.984 . S
N410 H417 0.984 . S
N411 C404 1.356 . S
N411 H414 0.984 . S
N411 H415 0.985 . S
H412 N407 0.984 . S
H413 N407 0.985 . S
H414 N411 0.984 . S
H415 N411 0.985 . S
H416 N410 0.984 . S
H417 N410 0.984 . S
H418 N406 0.984 . S
H419 N406 0.985 . S
C420 C421 1.363 . S
C420 C426 1.379 . S
C420 N428 1.356 . S
C421 C420 1.363 . S
C421 C427 1.363 . S
C422 C423 1.363 . S
C422 C427 1.379 . S
C422 N429 1.356 . S
C423 C422 1.363 . S
C423 C426 1.363 . S
N424 C426 1.356 . S
N424 H436 0.984 . S
N424 H437 0.985 . S
N425 C427 1.356 . S
N425 H430 0.984 . S
N425 H431 0.985 . S
C426 C420 1.379 . S
C426 C423 1.363 . S
C426 N424 1.356 . S
C427 C421 1.363 . S
C427 C422 1.379 . S
C427 N425 1.356 . S
N428 C420 1.356 . S
N428 H434 0.984 . S
N428 H435 0.984 . S
N429 C422 1.356 . S
N429 H432 0.984 . S
N429 H433 0.985 . S
H430 N425 0.984 . S
H431 N425 0.985 . S
H432 N429 0.984 . S
H433 N429 0.985 . S
H434 N428 0.984 . S
H435 N428 0.984 . S
H436 N424 0.984 . S
H437 N424 0.985 . S
C438 C439 1.363 . S
C438 C444 1.379 . S
C438 N446 1.356 . S
C439 C438 1.363 . S
C439 C445 1.363 . S
C440 C441 1.363 . S
C440 C445 1.379 . S
C440 N447 1.356 . S
C441 C440 1.363 . S
C441 C444 1.363 . S
N442 C444 1.348 1_545 S
N442 H454 0.993 . S
N442 H455 0.984 . S
N443 C445 1.356 . S
N443 H448 0.984 . S
N443 H449 0.985 . S
C444 C438 1.379 . S
C444 C441 1.363 . S
C444 N442 1.348 1_565 S
C445 C439 1.363 . S
C445 C440 1.379 . S
C445 N443 1.356 . S
N446 C438 1.356 . S
N446 H452 0.984 . S
N446 H453 0.984 . S
N447 C440 1.356 . S
N447 H450 0.984 . S
N447 H451 0.985 . S
H448 N443 0.984 . S
H449 N443 0.985 . S
H450 N447 0.984 . S
H451 N447 0.985 . S
H452 N446 0.984 . S
H453 N446 0.984 . S
H454 N442 0.993 . S
H455 N442 0.984 . S
C456 C457 1.363 . S
C456 C462 1.379 . S
C456 N464 1.356 . S
C457 C456 1.363 . S
C457 C463 1.363 . S
C458 C459 1.363 . S
C458 C463 1.379 . S
C458 N465 1.356 . S
C459 C458 1.363 . S
C459 C462 1.363 . S
N460 C462 1.356 . S
N460 H472 0.984 . S
N460 H473 0.985 . S
N461 C463 1.356 . S
N461 H466 0.984 . S
N461 H467 0.985 . S
C462 C456 1.379 . S
C462 C459 1.363 . S
C462 N460 1.356 . S
C463 C457 1.363 . S
C463 C458 1.379 . S
C463 N461 1.356 . S
N464 C456 1.356 . S
N464 H470 0.984 . S
N464 H471 0.984 . S
N465 C458 1.356 . S
N465 H468 0.984 . S
N465 H469 0.985 . S
H466 N461 0.984 . S
H467 N461 0.985 . S
H468 N465 0.984 . S
H469 N465 0.985 . S
H470 N464 0.984 . S
H471 N464 0.984 . S
H472 N460 0.984 . S
H473 N460 0.985 . S
C474 C475 1.363 . S
C474 C480 1.379 . S
C474 N482 1.356 . S
C475 C474 1.363 . S
C475 C481 1.363 . S
C476 C477 1.363 . S
C476 C481 1.379 . S
C476 N483 1.356 . S
C477 C476 1.363 . S
C477 C480 1.363 . S
N478 C480 1.356 . S
N478 H490 0.984 . S
N478 H491 0.985 . S
N479 C481 1.356 . S
N479 H484 0.984 . S
N479 H485 0.985 . S
C480 C474 1.379 . S
C480 C477 1.363 . S
C480 N478 1.356 . S
C481 C475 1.363 . S
C481 C476 1.379 . S
C481 N479 1.356 . S
N482 C474 1.356 . S
N482 H488 0.984 . S
N482 H489 0.984 . S
N483 C476 1.356 . S
N483 H486 0.984 . S
N483 H487 0.985 . S
H484 N479 0.984 . S
H485 N479 0.985 . S
H486 N483 0.984 . S
H487 N483 0.985 . S
H488 N482 0.984 . S
H489 N482 0.984 . S
H490 N478 0.984 . S
H491 N478 0.985 . S
C492 C493 1.363 . S
C492 C498 1.379 . S
C492 N500 1.356 . S
C493 C492 1.363 . S
C493 C499 1.363 . S
C494 C495 1.363 . S
C494 C499 1.379 . S
C494 N501 1.356 . S
C495 C494 1.363 . S
C495 C498 1.363 . S
N496 C498 1.356 . S
N496 H508 0.984 . S
N496 H509 0.985 . S
N497 C499 1.356 . S
N497 H502 0.984 . S
N497 H503 0.985 . S
C498 C492 1.379 . S
C498 C495 1.363 . S
C498 N496 1.356 . S
C499 C493 1.363 . S
C499 C494 1.379 . S
C499 N497 1.356 . S
N500 C492 1.356 . S
N500 H506 0.984 . S
N500 H507 0.984 . S
N501 C494 1.356 . S
N501 H504 0.984 . S
N501 H505 0.985 . S
H502 N497 0.984 . S
H503 N497 0.985 . S
H504 N501 0.984 . S
H505 N501 0.985 . S
H506 N500 0.984 . S
H507 N500 0.984 . S
H508 N496 0.984 . S
H509 N496 0.985 . S
C510 C511 1.363 . S
C510 C516 1.379 . S
C510 N518 1.356 . S
C511 C510 1.363 . S
C511 C517 1.363 . S
C512 C513 1.363 . S
C512 C517 1.379 . S
C512 N519 1.356 . S
C513 C512 1.363 . S
C513 C516 1.363 . S
N514 C516 1.356 . S
N514 H526 0.984 . S
N514 H527 0.985 . S
N515 C517 1.356 . S
N515 H520 0.984 . S
N515 H521 0.985 . S
C516 C510 1.379 . S
C516 C513 1.363 . S
C516 N514 1.356 . S
C517 C511 1.363 . S
C517 C512 1.379 . S
C517 N515 1.356 . S
N518 C510 1.356 . S
N518 H524 0.984 . S
N518 H525 0.984 . S
N519 C512 1.356 . S
N519 H522 0.984 . S
N519 H523 0.985 . S
H520 N515 0.984 . S
H521 N515 0.985 . S
H522 N519 0.984 . S
H523 N519 0.985 . S
H524 N518 0.984 . S
H525 N518 0.984 . S
H526 N514 0.984 . S
H527 N514 0.985 . S
C528 C529 1.363 . S
C528 C534 1.379 . S
C528 N536 1.356 . S
C529 C528 1.363 . S
C529 C535 1.363 . S
C530 C531 1.363 . S
C530 C535 1.379 . S
C530 N537 1.356 . S
C531 C530 1.363 . S
C531 C534 1.363 . S
N532 C534 1.356 . S
N532 H544 0.984 . S
N532 H545 0.985 . S
N533 C535 1.356 . S
N533 H538 0.984 . S
N533 H539 0.985 . S
C534 C528 1.379 . S
C534 C531 1.363 . S
C534 N532 1.356 . S
C535 C529 1.363 . S
C535 C530 1.379 . S
C535 N533 1.356 . S
N536 C528 1.356 . S
N536 H542 0.984 . S
N536 H543 0.984 . S
N537 C530 1.356 . S
N537 H540 0.984 . S
N537 H541 0.985 . S
H538 N533 0.984 . S
H539 N533 0.985 . S
H540 N537 0.984 . S
H541 N537 0.985 . S
H542 N536 0.984 . S
H543 N536 0.984 . S
H544 N532 0.984 . S
H545 N532 0.985 . S
C546 C547 1.363 . S
C546 C552 1.379 . S
C546 N554 1.356 . S
C547 C546 1.363 . S
C547 C553 1.363 . S
C548 C549 1.363 . S
C548 C553 1.379 . S
C548 N555 1.356 . S
C549 C548 1.363 . S
C549 C552 1.363 . S
N550 C552 1.356 . S
N550 H562 0.984 . S
N550 H563 0.985 . S
N551 C553 1.356 . S
N551 H556 0.984 . S
N551 H557 0.985 . S
C552 C546 1.379 . S
C552 C549 1.363 . S
C552 N550 1.356 . S
C553 C547 1.363 . S
C553 C548 1.379 . S
C553 N551 1.356 . S
N554 C546 1.356 . S
N554 H560 0.984 . S
N554 H561 0.984 . S
N555 C548 1.356 . S
N555 H558 0.984 . S
N555 H559 0.985 . S
H556 N551 0.984 . S
H557 N551 0.985 . S
H558 N555 0.984 . S
H559 N555 0.985 . S
H560 N554 0.984 . S
H561 N554 0.984 . S
H562 N550 0.984 . S
H563 N550 0.985 . S
C564 C565 1.363 . S
C564 C570 1.379 . S
C564 N572 1.356 . S
C565 C564 1.363 . S
C565 C571 1.363 . S
C566 C567 1.363 . S
C566 C571 1.379 . S
C566 N573 1.356 . S
C567 C566 1.363 . S
C567 C570 1.363 . S
N568 C570 1.356 . S
N568 H580 0.984 . S
N568 H581 0.985 . S
N569 C571 1.356 . S
N569 H574 0.984 . S
N569 H575 0.985 . S
C570 C564 1.379 . S
C570 C567 1.363 . S
C570 N568 1.356 . S
C571 C565 1.363 . S
C571 C566 1.379 . S
C571 N569 1.356 . S
N572 C564 1.356 . S
N572 H578 0.984 . S
N572 H579 0.984 . S
N573 C566 1.356 . S
N573 H576 0.984 . S
N573 H577 0.985 . S
H574 N569 0.984 . S
H575 N569 0.985 . S
H576 N573 0.984 . S
H577 N573 0.985 . S
H578 N572 0.984 . S
H579 N572 0.984 . S
H580 N568 0.984 . S
H581 N568 0.985 . S
C582 C583 1.363 . S
C582 C588 1.379 . S
C582 N590 1.356 . S
C583 C582 1.363 . S
C583 C589 1.363 . S
C584 C585 1.363 . S
C584 C589 1.379 . S
C584 N591 1.356 1_655 S
C585 C584 1.363 . S
C585 C588 1.363 . S
N586 C588 1.356 . S
N586 H598 0.984 . S
N586 H599 0.985 . S
N587 C589 1.356 . S
N587 H592 0.984 . S
N587 H593 0.985 1_655 S
C588 C582 1.379 . S
C588 C585 1.363 . S
C588 N586 1.356 . S
C589 C583 1.363 . S
C589 C584 1.379 . S
C589 N587 1.356 . S
N590 C582 1.356 . S
N590 H596 0.984 . S
N590 H597 0.984 . S
N591 C584 1.356 1_455 S
N591 H594 0.984 . S
N591 H595 0.985 . S
H592 N587 0.984 . S
H593 N587 0.985 1_455 S
H594 N591 0.984 . S
H595 N591 0.985 . S
H596 N590 0.984 . S
H597 N590 0.984 . S
H598 N586 0.984 . S
H599 N586 0.985 . S
C600 C601 1.363 . S
C600 C606 1.379 . S
C600 N608 1.356 . S
C601 C600 1.363 . S
C601 C607 1.363 . S
C602 C603 1.363 . S
C602 C607 1.379 . S
C602 N609 1.356 1_565 S
C603 C602 1.363 . S
C603 C606 1.363 . S
N604 C606 1.356 . S
N604 H616 0.984 . S
N604 H617 0.985 . S
N605 C607 1.356 . S
N605 H610 0.984 . S
N605 H611 0.985 . S
C606 C600 1.379 . S
C606 C603 1.363 . S
C606 N604 1.356 . S
C607 C601 1.363 . S
C607 C602 1.379 . S
C607 N605 1.356 . S
N608 C600 1.356 . S
N608 H614 0.984 . S
N608 H615 0.984 . S
N609 C602 1.356 1_545 S
N609 H612 0.984 . S
N609 H613 0.985 . S
H610 N605 0.984 . S
H611 N605 0.985 . S
H612 N609 0.984 . S
H613 N609 0.985 . S
H614 N608 0.984 . S
H615 N608 0.984 . S
H616 N604 0.984 . S
H617 N604 0.985 . S
C618 C619 1.363 . S
C618 C624 1.379 . S
C618 N626 1.356 . S
C619 C618 1.363 . S
C619 C625 1.363 . S
C620 C621 1.363 . S
C620 C625 1.379 . S
C620 N627 1.356 . S
C621 C620 1.363 . S
C621 C624 1.363 . S
N622 C624 1.356 . S
N622 H634 0.984 . S
N622 H635 0.985 . S
N623 C625 1.356 . S
N623 H628 0.984 . S
N623 H629 0.985 . S
C624 C618 1.379 . S
C624 C621 1.363 . S
C624 N622 1.356 . S
C625 C619 1.363 . S
C625 C620 1.379 . S
C625 N623 1.356 . S
N626 C618 1.356 . S
N626 H632 0.984 . S
N626 H633 0.984 . S
N627 C620 1.356 . S
N627 H630 0.984 . S
N627 H631 0.985 . S
H628 N623 0.984 . S
H629 N623 0.985 . S
H630 N627 0.984 . S
H631 N627 0.985 . S
H632 N626 0.984 . S
H633 N626 0.984 . S
H634 N622 0.984 . S
H635 N622 0.985 . S
C636 C637 1.363 1_554 S
C636 C642 1.379 . S
C636 N644 1.356 . S
C637 C636 1.363 1_556 S
C637 C643 1.363 . S
C638 C639 1.363 . S
C638 C643 1.379 1_565 S
C638 N645 1.356 . S
C639 C638 1.363 . S
C639 C642 1.363 1_566 S
N640 C642 1.356 1_565 S
N640 H652 0.984 . S
N640 H653 0.985 . S
N641 C643 1.356 . S
N641 H646 0.984 . S
N641 H647 0.985 . S
C642 C636 1.379 . S
C642 C639 1.363 1_544 S
C642 N640 1.356 1_545 S
C643 C637 1.363 . S
C643 C638 1.379 1_545 S
C643 N641 1.356 . S
N644 C636 1.356 . S
N644 H650 0.984 . S
N644 H651 0.984 1_554 S
N645 C638 1.356 . S
N645 H648 0.984 . S
N645 H649 0.985 . S
H646 N641 0.984 . S
H647 N641 0.985 . S
H648 N645 0.984 . S
H649 N645 0.985 . S
H650 N644 0.984 . S
H651 N644 0.984 1_556 S
H652 N640 0.984 . S
H653 N640 0.985 . S
C654 C655 1.363 . S
C654 C660 1.379 . S
C654 N662 1.356 . S
C655 C654 1.363 . S
C655 C661 1.363 . S
C656 C657 1.363 . S
C656 C661 1.379 . S
C656 N663 1.356 . S
C657 C656 1.363 . S
C657 C660 1.363 . S
N658 C660 1.356 . S
N658 H670 0.984 . S
N658 H671 0.985 . S
N659 C661 1.356 . S
N659 H664 0.984 . S
N659 H665 0.985 . S
C660 C654 1.379 . S
C660 C657 1.363 . S
C660 N658 1.356 . S
C661 C655 1.363 . S
C661 C656 1.379 . S
C661 N659 1.356 . S
N662 C654 1.356 . S
N662 H668 0.984 . S
N662 H669 0.984 . S
N663 C656 1.356 . S
N663 H666 0.984 . S
N663 H667 0.985 . S
H664 N659 0.984 . S
H665 N659 0.985 . S
H666 N663 0.984 . S
H667 N663 0.985 . S
H668 N662 0.984 . S
H669 N662 0.984 . S
H670 N658 0.984 . S
H671 N658 0.985 . S
C672 C673 1.363 . S
C672 C678 1.379 . S
C672 N680 1.356 1_545 S
C673 C672 1.363 . S
C673 C679 1.363 . S
C674 C675 1.363 . S
C674 C679 1.379 . S
C674 N681 1.356 . S
C675 C674 1.363 . S
C675 C678 1.363 . S
N676 C678 1.356 . S
N676 H688 0.984 . S
N676 H689 0.985 . S
N677 C679 1.356 . S
N677 H682 0.984 1_545 S
N677 H683 0.985 . S
C678 C672 1.379 . S
C678 C675 1.363 . S
C678 N676 1.356 . S
C679 C673 1.363 . S
C679 C674 1.379 . S
C679 N677 1.356 . S
N680 C672 1.356 1_565 S
N680 H686 0.984 . S
N680 H687 0.984 . S
N681 C674 1.356 . S
N681 H684 0.984 . S
N681 H685 0.985 . S
H682 N677 0.984 1_565 S
H683 N677 0.985 . S
H684 N681 0.984 . S
H685 N681 0.985 . S
H686 N680 0.984 . S
H687 N680 0.984 . S
H688 N676 0.984 . S
H689 N676 0.985 . S
C690 C691 1.363 . S
C690 C696 1.379 . S
C690 N698 1.356 . S
C691 C690 1.363 . S
C691 C697 1.363 . S
C692 C693 1.363 . S
C692 C697 1.379 . S
C692 N699 1.356 . S
C693 C692 1.363 . S
C693 C696 1.363 . S
N694 C696 1.356 . S
N694 H706 0.984 . S
N694 H707 0.985 . S
N695 C697 1.356 . S
N695 H700 0.984 . S
N695 H701 0.985 . S
C696 C690 1.379 . S
C696 C693 1.363 . S
C696 N694 1.356 . S
C697 C691 1.363 . S
C697 C692 1.379 . S
C697 N695 1.356 . S
N698 C690 1.356 . S
N698 H704 0.984 . S
N698 H705 0.984 . S
N699 C692 1.356 . S
N699 H702 0.984 . S
N699 H703 0.985 . S
H700 N695 0.984 . S
H701 N695 0.985 . S
H702 N699 0.984 . S
H703 N699 0.985 . S
H704 N698 0.984 . S
H705 N698 0.984 . S
H706 N694 0.984 . S
H707 N694 0.985 . S
C708 C709 1.363 . S
C708 C714 1.379 1_565 S
C708 N716 1.356 . S
C709 C708 1.363 . S
C709 C715 1.363 . S
C710 C711 1.363 . S
C710 C715 1.379 1_545 S
C710 N717 1.356 . S
C711 C710 1.363 . S
C711 C714 1.363 . S
N712 C714 1.356 . S
N712 H724 0.984 . S
N712 H725 0.985 . S
N713 C715 1.356 . S
N713 H718 0.984 . S
N713 H719 0.985 . S
C714 C708 1.379 1_545 S
C714 C711 1.363 . S
C714 N712 1.356 . S
C715 C709 1.363 . S
C715 C710 1.379 1_565 S
C715 N713 1.356 . S
N716 C708 1.356 . S
N716 H722 0.984 . S
N716 H723 0.984 . S
N717 C710 1.356 . S
N717 H720 0.984 . S
N717 H721 0.985 . S
H718 N713 0.984 . S
H719 N713 0.985 . S
H720 N717 0.984 . S
H721 N717 0.985 . S
H722 N716 0.984 . S
H723 N716 0.984 . S
H724 N712 0.984 . S
H725 N712 0.985 . S
C726 C727 1.363 . S
C726 C732 1.379 . S
C726 N734 1.356 . S
C727 C726 1.363 . S
C727 C733 1.363 . S
C728 C729 1.363 . S
C728 C733 1.379 . S
C728 N735 1.356 . S
C729 C728 1.363 . S
C729 C732 1.363 . S
N730 C732 1.356 . S
N730 H742 0.984 . S
N730 H743 0.985 . S
N731 C733 1.356 . S
N731 H736 0.984 . S
N731 H737 0.985 . S
C732 C726 1.379 . S
C732 C729 1.363 . S
C732 N730 1.356 . S
C733 C727 1.363 . S
C733 C728 1.379 . S
C733 N731 1.356 . S
N734 C726 1.356 . S
N734 H740 0.984 . S
N734 H741 0.984 . S
N735 C728 1.356 . S
N735 H738 0.984 . S
N735 H739 0.985 . S
H736 N731 0.984 . S
H737 N731 0.985 . S
H738 N735 0.984 . S
H739 N735 0.985 . S
H740 N734 0.984 . S
H741 N734 0.984 . S
H742 N730 0.984 . S
H743 N730 0.985 . S
C744 C745 1.363 . S
C744 C750 1.379 . S
C744 N752 1.356 . S
C745 C744 1.363 . S
C745 C751 1.363 . S
C746 C747 1.363 . S
C746 C751 1.379 . S
C746 N753 1.356 . S
C747 C746 1.363 . S
C747 C750 1.363 . S
N748 C750 1.356 . S
N748 H760 0.984 . S
N748 H761 0.985 . S
N749 C751 1.356 . S
N749 H754 0.984 . S
N749 H755 0.985 . S
C750 C744 1.379 . S
C750 C747 1.363 . S
C750 N748 1.356 . S
C751 C745 1.363 . S
C751 C746 1.379 . S
C751 N749 1.356 . S
N752 C744 1.356 . S
N752 H758 0.984 . S
N752 H759 0.984 . S
N753 C746 1.356 . S
N753 H756 0.984 . S
N753 H757 0.985 . S
H754 N749 0.984 . S
H755 N749 0.985 . S
H756 N753 0.984 . S
H757 N753 0.985 . S
H758 N752 0.984 . S
H759 N752 0.984 . S
H760 N748 0.984 . S
H761 N748 0.985 . S
C762 C763 1.363 . S
C762 C768 1.379 . S
C762 N770 1.356 . S
C763 C762 1.363 . S
C763 C769 1.363 . S
C764 C765 1.363 . S
C764 C769 1.379 . S
C764 N771 1.356 . S
C765 C764 1.363 . S
C765 C768 1.363 . S
N766 C768 1.356 . S
N766 H778 0.984 . S
N766 H779 0.985 . S
N767 C769 1.356 . S
N767 H772 0.984 . S
N767 H773 0.985 . S
C768 C762 1.379 . S
C768 C765 1.363 . S
C768 N766 1.356 . S
C769 C763 1.363 . S
C769 C764 1.379 . S
C769 N767 1.356 . S
N770 C762 1.356 . S
N770 H776 0.984 . S
N770 H777 0.984 . S
N771 C764 1.356 . S
N771 H774 0.984 . S
N771 H775 0.985 . S
H772 N767 0.984 . S
H773 N767 0.985 . S
H774 N771 0.984 . S
H775 N771 0.985 . S
H776 N770 0.984 . S
H777 N770 0.984 . S
H778 N766 0.984 . S
H779 N766 0.985 . S
C780 C781 1.363 . S
C780 C786 1.379 . S
C780 N788 1.356 . S
C781 C780 1.363 . S
C781 C787 1.363 . S
C782 C783 1.363 . S
C782 C787 1.379 . S
C782 N789 1.356 . S
C783 C782 1.363 . S
C783 C786 1.363 . S
N784 C786 1.356 . S
N784 H796 0.984 . S
N784 H797 0.985 . S
N785 C787 1.356 . S
N785 H790 0.984 . S
N785 H791 0.985 . S
C786 C780 1.379 . S
C786 C783 1.363 . S
C786 N784 1.356 . S
C787 C781 1.363 . S
C787 C782 1.379 . S
C787 N785 1.356 . S
N788 C780 1.356 . S
N788 H794 0.984 . S
N788 H795 0.984 . S
N789 C782 1.356 . S
N789 H792 0.984 . S
N789 H793 0.985 . S
H790 N785 0.984 . S
H791 N785 0.985 . S
H792 N789 0.984 . S
H793 N789 0.985 . S
H794 N788 0.984 . S
H795 N788 0.984 . S
H796 N784 0.984 . S
H797 N784 0.985 . S
C798 C799 1.363 . S
C798 C804 1.379 . S
C798 N806 1.356 . S
C799 C798 1.363 . S
C799 C805 1.363 . S
C800 C801 1.363 . S
C800 C805 1.379 . S
C800 N807 1.356 . S
C801 C800 1.363 . S
C801 C804 1.363 . S
N802 C804 1.356 . S
N802 H814 0.984 . S
N802 H815 0.985 . S
N803 C805 1.356 . S
N803 H808 0.984 . S
N803 H809 0.985 . S
C804 C798 1.379 . S
C804 C801 1.363 . S
C804 N802 1.356 . S
C805 C799 1.363 . S
C805 C800 1.379 . S
C805 N803 1.356 . S
N806 C798 1.356 . S
N806 H812 0.984 . S
N806 H813 0.984 . S
N807 C800 1.356 . S
N807 H810 0.984 . S
N807 H811 0.985 . S
H808 N803 0.984 . S
H809 N803 0.985 . S
H810 N807 0.984 . S
H811 N807 0.985 . S
H812 N806 0.984 . S
H813 N806 0.984 . S
H814 N802 0.984 . S
H815 N802 0.985 . S
C816 C817 1.363 . S
C816 C822 1.379 . S
C816 N824 1.356 . S
C817 C816 1.363 . S
C817 C823 1.363 . S
C818 C819 1.363 . S
C818 C823 1.379 . S
C818 N825 1.356 . S
C819 C818 1.363 . S
C819 C822 1.363 . S
N820 C822 1.356 . S
N820 H832 0.984 . S
N820 H833 0.985 . S
N821 C823 1.356 . S
N821 H826 0.984 . S
N821 H827 0.985 . S
C822 C816 1.379 . S
C822 C819 1.363 . S
C822 N820 1.356 . S
C823 C817 1.363 . S
C823 C818 1.379 . S
C823 N821 1.356 . S
N824 C816 1.356 . S
N824 H830 0.984 . S
N824 H831 0.984 . S
N825 C818 1.356 . S
N825 H828 0.984 . S
N825 H829 0.985 . S
H826 N821 0.984 . S
H827 N821 0.985 . S
H828 N825 0.984 . S
H829 N825 0.985 . S
H830 N824 0.984 . S
H831 N824 0.984 . S
H832 N820 0.984 . S
H833 N820 0.985 . S
C834 C835 1.363 . S
C834 C840 1.379 . S
C834 N842 1.356 . S
C835 C834 1.363 . S
C835 C841 1.363 . S
C836 C837 1.363 . S
C836 C841 1.379 1_655 S
C836 N843 1.356 . S
C837 C836 1.363 . S
C837 C840 1.363 1_655 S
N838 C840 1.356 . S
N838 H850 0.984 . S
N838 H851 0.985 1_455 S
N839 C841 1.356 . S
N839 H844 0.984 . S
N839 H845 0.985 . S
C840 C834 1.379 . S
C840 C837 1.363 1_455 S
C840 N838 1.356 . S
C841 C835 1.363 . S
C841 C836 1.379 1_455 S
C841 N839 1.356 . S
N842 C834 1.356 . S
N842 H848 0.984 . S
N842 H849 0.984 . S
N843 C836 1.356 . S
N843 H846 0.984 . S
N843 H847 0.985 . S
H844 N839 0.984 . S
H845 N839 0.985 . S
H846 N843 0.984 . S
H847 N843 0.985 . S
H848 N842 0.984 . S
H849 N842 0.984 . S
H850 N838 0.984 . S
H851 N838 0.985 1_655 S
C852 C853 1.363 . S
C852 C858 1.379 . S
C852 N860 1.356 . S
C853 C852 1.363 . S
C853 C859 1.363 . S
C854 C855 1.363 . S
C854 C859 1.379 . S
C854 N861 1.356 . S
C855 C854 1.363 . S
C855 C858 1.363 . S
N856 C858 1.356 . S
N856 H868 0.984 . S
N856 H869 0.985 . S
N857 C859 1.356 . S
N857 H862 0.984 . S
N857 H863 0.985 . S
C858 C852 1.379 . S
C858 C855 1.363 . S
C858 N856 1.356 . S
C859 C853 1.363 . S
C859 C854 1.379 . S
C859 N857 1.356 . S
N860 C852 1.356 . S
N860 H866 0.984 . S
N860 H867 0.984 . S
N861 C854 1.356 . S
N861 H864 0.984 . S
N861 H865 0.985 . S
H862 N857 0.984 . S
H863 N857 0.985 . S
H864 N861 0.984 . S
H865 N861 0.985 . S
H866 N860 0.984 . S
H867 N860 0.984 . S
H868 N856 0.984 . S
H869 N856 0.985 . S
C870 C871 1.363 . S
C870 C876 1.379 . S
C870 N878 1.356 . S
C871 C870 1.363 . S
C871 C877 1.363 . S
C872 C873 1.363 . S
C872 C877 1.379 1_455 S
C872 N879 1.356 . S
C873 C872 1.363 . S
C873 C876 1.363 1_455 S
N874 C876 1.356 . S
N874 H886 0.984 . S
N874 H887 0.985 1_655 S
N875 C877 1.356 . S
N875 H880 0.984 . S
N875 H881 0.985 . S
C876 C870 1.379 . S
C876 C873 1.363 1_655 S
C876 N874 1.356 . S
C877 C871 1.363 . S
C877 C872 1.379 1_655 S
C877 N875 1.356 . S
N878 C870 1.356 . S
N878 H884 0.984 . S
N878 H885 0.984 . S
N879 C872 1.356 . S
N879 H882 0.984 . S
N879 H883 0.985 . S
H880 N875 0.984 . S
H881 N875 0.985 . S
H882 N879 0.984 . S
H883 N879 0.985 . S
H884 N878 0.984 . S
H885 N878 0.984 . S
H886 N874 0.984 . S
H887 N874 0.985 1_455 S
C888 C889 1.363 . S
C888 C894 1.379 . S
C888 N896 1.356 . S
C889 C888 1.363 . S
C889 C895 1.363 . S
C890 C891 1.363 . S
C890 C895 1.379 . S
C890 N897 1.356 . S
C891 C890 1.363 . S
C891 C894 1.363 . S
N892 C894 1.356 . S
N892 H904 0.984 . S
N892 H905 0.985 . S
N893 C895 1.356 . S
N893 H898 0.984 . S
N893 H899 0.985 . S
C894 C888 1.379 . S
C894 C891 1.363 . S
C894 N892 1.356 . S
C895 C889 1.363 . S
C895 C890 1.379 . S
C895 N893 1.356 . S
N896 C888 1.356 . S
N896 H902 0.984 . S
N896 H903 0.984 . S
N897 C890 1.356 . S
N897 H900 0.984 . S
N897 H901 0.985 . S
H898 N893 0.984 . S
H899 N893 0.985 . S
H900 N897 0.984 . S
H901 N897 0.985 . S
H902 N896 0.984 . S
H903 N896 0.984 . S
H904 N892 0.984 . S
H905 N892 0.985 . S
C906 C907 1.363 . S
C906 C912 1.379 . S
C906 N914 1.356 . S
C907 C906 1.363 . S
C907 C913 1.363 . S
C908 C909 1.363 . S
C908 C913 1.379 1_556 S
C908 N915 1.356 . S
C909 C908 1.363 . S
C909 C912 1.363 1_556 S
N910 C912 1.356 . S
N910 H922 0.984 1_655 S
N910 H923 0.985 1_654 S
N911 C913 1.356 . S
N911 H916 0.984 . S
N911 H917 0.985 1_554 S
C912 C906 1.379 . S
C912 C909 1.363 1_554 S
C912 N910 1.356 . S
C913 C907 1.363 . S
C913 C908 1.379 1_554 S
C913 N911 1.356 . S
N914 C906 1.356 . S
N914 H920 0.984 . S
N914 H921 0.984 . S
N915 C908 1.356 . S
N915 H918 0.984 . S
N915 H919 0.985 . S
H916 N911 0.984 . S
H917 N911 0.985 1_556 S
H918 N915 0.984 . S
H919 N915 0.985 . S
H920 N914 0.984 . S
H921 N914 0.984 . S
H922 N910 0.984 1_455 S
H923 N910 0.985 1_456 S
C924 C925 1.363 . S
C924 C930 1.379 . S
C924 N932 1.356 . S
C925 C924 1.363 . S
C925 C931 1.363 . S
C926 C927 1.363 . S
C926 C931 1.379 . S
C926 N933 1.356 . S
C927 C926 1.363 . S
C927 C930 1.363 . S
N928 C930 1.356 . S
N928 H940 0.984 . S
N928 H941 0.985 . S
N929 C931 1.356 . S
N929 H934 0.984 . S
N929 H935 0.985 . S
C930 C924 1.379 . S
C930 C927 1.363 . S
C930 N928 1.356 . S
C931 C925 1.363 . S
C931 C926 1.379 . S
C931 N929 1.356 . S
N932 C924 1.356 . S
N932 H938 0.984 . S
N932 H939 0.984 . S
N933 C926 1.356 . S
N933 H936 0.984 . S
N933 H937 0.985 . S
H934 N929 0.984 . S
H935 N929 0.985 . S
H936 N933 0.984 . S
H937 N933 0.985 . S
H938 N932 0.984 . S
H939 N932 0.984 . S
H940 N928 0.984 . S
H941 N928 0.985 . S
C942 C943 1.363 . S
C942 C948 1.379 . S
C942 N950 1.356 . S
C943 C942 1.363 . S
C943 C949 1.363 . S
C944 C945 1.363 . S
C944 C949 1.379 . S
C944 N951 1.356 1_554 S
C945 C944 1.363 . S
C945 C948 1.363 . S
N946 C948 1.356 . S
N946 H958 0.984 1_455 S
N946 H959 0.985 . S
N947 C949 1.356 . S
N947 H952 0.984 . S
N947 H953 0.985 . S
C948 C942 1.379 . S
C948 C945 1.363 . S
C948 N946 1.356 . S
C949 C943 1.363 . S
C949 C944 1.379 . S
C949 N947 1.356 . S
N950 C942 1.356 . S
N950 H956 0.984 . S
N950 H957 0.984 . S
N951 C944 1.356 1_556 S
N951 H954 0.984 . S
N951 H955 0.985 . S
H952 N947 0.984 . S
H953 N947 0.985 . S
H954 N951 0.984 . S
H955 N951 0.985 . S
H956 N950 0.984 . S
H957 N950 0.984 . S
H958 N946 0.984 1_655 S
H959 N946 0.985 . S
C960 C961 1.363 . S
C960 C966 1.379 . S
C960 N968 1.356 . S
C961 C960 1.363 . S
C961 C967 1.363 . S
C962 C963 1.363 . S
C962 C967 1.379 . S
C962 N969 1.356 . S
C963 C962 1.363 . S
C963 C966 1.363 . S
N964 C966 1.356 . S
N964 H976 0.984 . S
N964 H977 0.985 . S
N965 C967 1.356 . S
N965 H970 0.984 . S
N965 H971 0.985 . S
C966 C960 1.379 . S
C966 C963 1.363 . S
C966 N964 1.356 . S
C967 C961 1.363 . S
C967 C962 1.379 . S
C967 N965 1.356 . S
N968 C960 1.356 . S
N968 H974 0.984 . S
N968 H975 0.984 . S
N969 C962 1.356 . S
N969 H972 0.984 . S
N969 H973 0.985 . S
H970 N965 0.984 . S
H971 N965 0.985 . S
H972 N969 0.984 . S
H973 N969 0.985 . S
H974 N968 0.984 . S
H975 N968 0.984 . S
H976 N964 0.984 . S
H977 N964 0.985 . S
C978 C979 1.363 . S
C978 C984 1.379 1_556 S
C978 N986 1.356 . S
C979 C978 1.363 . S
C979 C985 1.363 1_556 S
C980 C981 1.363 . S
C980 C985 1.379 . S
C980 N987 1.356 . S
C981 C980 1.363 . S
C981 C984 1.363 . S
N982 C984 1.356 . S
N982 H994 0.984 1_554 S
N982 H995 0.985 . S
N983 C985 1.356 1_556 S
N983 H988 0.984 . S
N983 H989 0.985 1_556 S
C984 C978 1.379 1_554 S
C984 C981 1.363 . S
C984 N982 1.356 . S
C985 C979 1.363 1_554 S
C985 C980 1.379 . S
C985 N983 1.356 1_554 S
N986 C978 1.356 . S
N986 H992 0.984 . S
N986 H993 0.984 . S
N987 C980 1.356 . S
N987 H990 0.984 . S
N987 H991 0.985 . S
H988 N983 0.984 . S
H989 N983 0.985 1_554 S
H990 N987 0.984 . S
H991 N987 0.985 . S
H992 N986 0.984 . S
H993 N986 0.984 . S
H994 N982 0.984 1_556 S
H995 N982 0.985 . S
C996 C997 1.363 . S
C996 C1002 1.379 . S
C996 N1004 1.356 . S
C997 C996 1.363 . S
C997 C1003 1.363 . S
C998 C999 1.363 . S
C998 C1003 1.379 . S
C998 N1005 1.356 . S
C999 C998 1.363 . S
C999 C1002 1.363 . S
N1000 C1002 1.356 . S
N1000 H1012 0.984 . S
N1000 H1013 0.985 . S
N1001 C1003 1.356 . S
N1001 H1006 0.984 . S
N1001 H1007 0.985 . S
C1002 C996 1.379 . S
C1002 C999 1.363 . S
C1002 N1000 1.356 . S
C1003 C997 1.363 . S
C1003 C998 1.379 . S
C1003 N1001 1.356 . S
N1004 C996 1.356 . S
N1004 H1010 0.984 . S
N1004 H1011 0.984 . S
N1005 C998 1.356 . S
N1005 H1008 0.984 . S
N1005 H1009 0.985 . S
H1006 N1001 0.984 . S
H1007 N1001 0.985 . S
H1008 N1005 0.984 . S
H1009 N1005 0.985 . S
H1010 N1004 0.984 . S
H1011 N1004 0.984 . S
H1012 N1000 0.984 . S
H1013 N1000 0.985 . S
C1014 C1015 1.363 1_554 S
C1014 C1020 1.379 . S
C1014 N1022 1.356 1_554 S
C1015 C1014 1.363 1_556 S
C1015 C1021 1.363 1_556 S
C1016 C1017 1.363 . S
C1016 C1021 1.379 . S
C1016 N1023 1.356 . S
C1017 C1016 1.363 . S
C1017 C1020 1.363 . S
N1018 C1020 1.356 . S
N1018 H1030 0.984 . S
N1018 H1031 0.985 . S
N1019 C1021 1.356 . S
N1019 H1024 0.984 1_554 S
N1019 H1025 0.985 . S
C1020 C1014 1.379 . S
C1020 C1017 1.363 . S
C1020 N1018 1.356 . S
C1021 C1015 1.363 1_554 S
C1021 C1016 1.379 . S
C1021 N1019 1.356 . S
N1022 C1014 1.356 1_556 S
N1022 H1028 0.984 . S
N1022 H1029 0.984 . S
N1023 C1016 1.356 . S
N1023 H1026 0.984 . S
N1023 H1027 0.985 . S
H1024 N1019 0.984 1_556 S
H1025 N1019 0.985 . S
H1026 N1023 0.984 . S
H1027 N1023 0.985 . S
H1028 N1022 0.984 . S
H1029 N1022 0.984 . S
H1030 N1018 0.984 . S
H1031 N1018 0.985 . S
C1032 C1033 1.363 . S
C1032 C1038 1.379 . S
C1032 N1040 1.356 . S
C1033 C1032 1.363 . S
C1033 C1039 1.363 . S
C1034 C1035 1.363 . S
C1034 C1039 1.379 . S
C1034 N1041 1.356 . S
C1035 C1034 1.363 . S
C1035 C1038 1.363 . S
N1036 C1038 1.356 . S
N1036 H1048 0.984 . S
N1036 H1049 0.985 . S
N1037 C1039 1.356 . S
N1037 H1042 0.984 . S
N1037 H1043 0.985 . S
C1038 C1032 1.379 . S
C1038 C1035 1.363 . S
C1038 N1036 1.356 . S
C1039 C1033 1.363 . S
C1039 C1034 1.379 . S
C1039 N1037 1.356 . S
N1040 C1032 1.356 . S
N1040 H1046 0.984 . S
N1040 H1047 0.984 . S
N1041 C1034 1.356 . S
N1041 H1044 0.984 . S
N1041 H1045 0.985 . S
H1042 N1037 0.984 . S
H1043 N1037 0.985 . S
H1044 N1041 0.984 . S
H1045 N1041 0.985 . S
H1046 N1040 0.984 . S
H1047 N1040 0.984 . S
H1048 N1036 0.984 . S
H1049 N1036 0.985 . S
C1050 C1051 1.363 . S
C1050 C1056 1.379 . S
C1050 N1058 1.356 . S
C1051 C1050 1.363 . S
C1051 C1057 1.363 . S
C1052 C1053 1.363 . S
C1052 C1057 1.379 . S
C1052 N1059 1.356 . S
C1053 C1052 1.363 . S
C1053 C1056 1.363 . S
N1054 C1056 1.356 . S
N1054 H1066 0.984 . S
N1054 H1067 0.985 . S
N1055 C1057 1.356 . S
N1055 H1060 0.984 . S
N1055 H1061 0.985 . S
C1056 C1050 1.379 . S
C1056 C1053 1.363 . S
C1056 N1054 1.356 . S
C1057 C1051 1.363 . S
C1057 C1052 1.379 . S
C1057 N1055 1.356 . S
N1058 C1050 1.356 . S
N1058 H1064 0.984 . S
N1058 H1065 0.984 . S
N1059 C1052 1.356 . S
N1059 H1062 0.984 . S
N1059 H1063 0.985 . S
H1060 N1055 0.984 . S
H1061 N1055 0.985 . S
H1062 N1059 0.984 . S
H1063 N1059 0.985 . S
H1064 N1058 0.984 . S
H1065 N1058 0.984 . S
H1066 N1054 0.984 . S
H1067 N1054 0.985 . S
C1068 C1069 1.363 . S
C1068 C1074 1.379 . S
C1068 N1076 1.356 . S
C1069 C1068 1.363 . S
C1069 C1075 1.363 . S
C1070 C1071 1.363 . S
C1070 C1075 1.379 . S
C1070 N1077 1.356 . S
C1071 C1070 1.363 . S
C1071 C1074 1.363 . S
N1072 C1074 1.356 . S
N1072 H1084 0.984 . S
N1072 H1085 0.985 . S
N1073 C1075 1.356 . S
N1073 H1078 0.984 . S
N1073 H1079 0.985 . S
C1074 C1068 1.379 . S
C1074 C1071 1.363 . S
C1074 N1072 1.356 . S
C1075 C1069 1.363 . S
C1075 C1070 1.379 . S
C1075 N1073 1.356 . S
N1076 C1068 1.356 . S
N1076 H1082 0.984 . S
N1076 H1083 0.984 . S
N1077 C1070 1.356 . S
N1077 H1080 0.984 . S
N1077 H1081 0.985 . S
H1078 N1073 0.984 . S
H1079 N1073 0.985 . S
H1080 N1077 0.984 . S
H1081 N1077 0.985 . S
H1082 N1076 0.984 . S
H1083 N1076 0.984 . S
H1084 N1072 0.984 . S
H1085 N1072 0.985 . S
C1086 C1087 1.363 . S
C1086 C1092 1.379 . S
C1086 N1094 1.356 . S
C1087 C1086 1.363 . S
C1087 C1093 1.363 . S
C1088 C1089 1.363 . S
C1088 C1093 1.379 . S
C1088 N1095 1.356 . S
C1089 C1088 1.363 . S
C1089 C1092 1.363 . S
N1090 C1092 1.356 . S
N1090 H1102 0.984 . S
N1090 H1103 0.985 . S
N1091 C1093 1.356 . S
N1091 H1096 0.984 . S
N1091 H1097 0.985 . S
C1092 C1086 1.379 . S
C1092 C1089 1.363 . S
C1092 N1090 1.356 . S
C1093 C1087 1.363 . S
C1093 C1088 1.379 . S
C1093 N1091 1.356 . S
N1094 C1086 1.356 . S
N1094 H1100 0.984 . S
N1094 H1101 0.984 . S
N1095 C1088 1.356 . S
N1095 H1098 0.984 . S
N1095 H1099 0.985 . S
H1096 N1091 0.984 . S
H1097 N1091 0.985 . S
H1098 N1095 0.984 . S
H1099 N1095 0.985 . S
H1100 N1094 0.984 . S
H1101 N1094 0.984 . S
H1102 N1090 0.984 . S
H1103 N1090 0.985 . S
C1104 C1105 1.363 . S
C1104 C1110 1.379 . S
C1104 N1112 1.356 . S
C1105 C1104 1.363 . S
C1105 C1111 1.363 . S
C1106 C1107 1.363 . S
C1106 C1111 1.379 . S
C1106 N1113 1.356 . S
C1107 C1106 1.363 . S
C1107 C1110 1.363 . S
N1108 C1110 1.356 1_554 S
N1108 H1120 0.984 . S
N1108 H1121 0.985 . S
N1109 C1111 1.356 . S
N1109 H1114 0.984 . S
N1109 H1115 0.985 . S
C1110 C1104 1.379 . S
C1110 C1107 1.363 . S
C1110 N1108 1.356 1_556 S
C1111 C1105 1.363 . S
C1111 C1106 1.379 . S
C1111 N1109 1.356 . S
N1112 C1104 1.356 . S
N1112 H1118 0.984 1_556 S
N1112 H1119 0.984 . S
N1113 C1106 1.356 . S
N1113 H1116 0.984 . S
N1113 H1117 0.985 . S
H1114 N1109 0.984 . S
H1115 N1109 0.985 . S
H1116 N1113 0.984 . S
H1117 N1113 0.985 . S
H1118 N1112 0.984 1_554 S
H1119 N1112 0.984 . S
H1120 N1108 0.984 . S
H1121 N1108 0.985 . S
C1122 C1123 1.363 . S
C1122 C1128 1.379 . S
C1122 N1130 1.356 . S
C1123 C1122 1.363 . S
C1123 C1129 1.363 . S
C1124 C1125 1.363 . S
C1124 C1129 1.379 . S
C1124 N1131 1.356 . S
C1125 C1124 1.363 . S
C1125 C1128 1.363 . S
N1126 C1128 1.356 . S
N1126 H1138 0.984 . S
N1126 H1139 0.985 . S
N1127 C1129 1.356 . S
N1127 H1132 0.984 . S
N1127 H1133 0.985 . S
C1128 C1122 1.379 . S
C1128 C1125 1.363 . S
C1128 N1126 1.356 . S
C1129 C1123 1.363 . S
C1129 C1124 1.379 . S
C1129 N1127 1.356 . S
N1130 C1122 1.356 . S
N1130 H1136 0.984 . S
N1130 H1137 0.984 . S
N1131 C1124 1.356 . S
N1131 H1134 0.984 . S
N1131 H1135 0.985 . S
H1132 N1127 0.984 . S
H1133 N1127 0.985 . S
H1134 N1131 0.984 . S
H1135 N1131 0.985 . S
H1136 N1130 0.984 . S
H1137 N1130 0.984 . S
H1138 N1126 0.984 . S
H1139 N1126 0.985 . S
C1140 C1141 1.363 . S
C1140 C1146 1.379 . S
C1140 N1148 1.356 . S
C1141 C1140 1.363 . S
C1141 C1147 1.363 . S
C1142 C1143 1.363 . S
C1142 C1147 1.379 . S
C1142 N1149 1.356 . S
C1143 C1142 1.363 . S
C1143 C1146 1.363 . S
N1144 C1146 1.356 . S
N1144 H1156 0.984 1_554 S
N1144 H1157 0.985 . S
N1145 C1147 1.356 . S
N1145 H1150 0.984 . S
N1145 H1151 0.985 . S
C1146 C1140 1.379 . S
C1146 C1143 1.363 . S
C1146 N1144 1.356 . S
C1147 C1141 1.363 . S
C1147 C1142 1.379 . S
C1147 N1145 1.356 . S
N1148 C1140 1.356 . S
N1148 H1154 0.984 . S
N1148 H1155 0.984 . S
N1149 C1142 1.356 . S
N1149 H1152 0.984 . S
N1149 H1153 0.985 . S
H1150 N1145 0.984 . S
H1151 N1145 0.985 . S
H1152 N1149 0.984 . S
H1153 N1149 0.985 . S
H1154 N1148 0.984 . S
H1155 N1148 0.984 . S
H1156 N1144 0.984 1_556 S
H1157 N1144 0.985 . S
C1158 C1159 1.363 . S
C1158 C1164 1.379 . S
C1158 N1166 1.356 . S
C1159 C1158 1.363 . S
C1159 C1165 1.363 . S
C1160 C1161 1.363 . S
C1160 C1165 1.379 . S
C1160 N1167 1.356 1_545 S
C1161 C1160 1.363 . S
C1161 C1164 1.363 . S
N1162 C1164 1.356 . S
N1162 H1174 0.984 . S
N1162 H1175 0.985 . S
N1163 C1165 1.356 . S
N1163 H1168 0.984 . S
N1163 H1169 0.985 . S
C1164 C1158 1.379 . S
C1164 C1161 1.363 . S
C1164 N1162 1.356 . S
C1165 C1159 1.363 . S
C1165 C1160 1.379 . S
C1165 N1163 1.356 . S
N1166 C1158 1.356 . S
N1166 H1172 0.984 . S
N1166 H1173 0.984 . S
N1167 C1160 1.356 1_565 S
N1167 H1170 0.984 . S
N1167 H1171 0.985 . S
H1168 N1163 0.984 . S
H1169 N1163 0.985 . S
H1170 N1167 0.984 . S
H1171 N1167 0.985 . S
H1172 N1166 0.984 . S
H1173 N1166 0.984 . S
H1174 N1162 0.984 . S
H1175 N1162 0.985 . S
C315 C152 1.583 . S
C313 C50 1.567 . S
C333 C167 1.629 . S
C331 C61 1.667 . S
C349 C67 1.630 . S
C351 C180 1.621 . S
C369 C194 1.487 1_565 S
C367 C41 1.536 . S
C387 C206 1.558 . S
C385 C95 1.629 . S
C405 C220 1.336 . S
C403 C113 1.344 . S
C421 C106 1.657 . S
C423 C234 1.616 . S
C441 C249 1.454 . S
C439 C86 1.466 . S
C457 C104 1.589 . S
C459 C265 1.583 . S
C477 C278 1.486 . S
C475 C88 1.498 . S
C493 C94 1.565 . S
C495 C263 1.513 . S
C513 C276 1.473 . S
C511 C112 1.454 . S
C529 C70 1.723 . S
C531 C292 1.714 . S
C547 C40 1.522 . S
C549 C291 1.500 . S
C565 C49 1.655 . S
C567 C290 1.586 . S
C583 C59 1.606 . S
C585 C293 1.580 . S
C601 C34 1.622 . S
C603 C195 1.623 1_565 S
C619 C133 1.492 . S
C621 C193 1.467 . S
C639 C153 1.502 1_556 S
C637 C139 1.533 . S
C657 C164 1.653 . S
C655 C77 1.676 . S
C673 C43 1.569 1_545 S
C675 C209 1.548 . S
C693 C250 1.758 . S
C691 C103 1.763 . S
C711 C207 1.481 . S
C709 C85 1.479 . S
C729 C235 1.444 . S
C727 C115 1.454 . S
C747 C236 1.568 . S
C745 C131 1.567 . S
C763 C142 1.667 . S
C765 C251 1.629 . S
C781 C76 1.630 . S
C783 C208 1.621 . S
C801 C222 1.486 . S
C799 C122 1.536 . S
C817 C32 1.629 . S
C819 C178 1.558 . S
C837 C192 1.337 . S
C835 C5 1.344 . S
C855 C150 1.616 . S
C853 C16 1.657 . S
C873 C165 1.454 . S
C871 C23 1.466 . S
C889 C14 1.589 . S
C891 C279 1.582 . S
C907 C25 1.498 . S
C909 C264 1.486 . S
C925 C31 1.565 . S
C927 C277 1.513 . S
C943 C4 1.454 . S
C945 C262 1.473 1_554 S
C963 C306 1.714 . S
C961 C79 1.724 . S
C981 C305 1.500 . S
C979 C121 1.522 . S
C999 C304 1.586 . S
C997 C130 1.655 . S
C1015 C140 1.607 . S
C1017 C307 1.580 . S
C1033 C97 1.622 . S
C1035 C223 1.621 . S
C1053 C221 1.467 . S
C1051 C52 1.492 . S
C1071 C237 1.502 . S
C1069 C58 1.533 . S
C1089 C248 1.653 . S
C1087 C68 1.676 . S
C1105 C124 1.569 . S
C1107 C181 1.548 . S
C1125 C166 1.758 . S
C1123 C13 1.763 . S
C1141 C22 1.479 . S
C1143 C179 1.481 . S
C1161 C151 1.444 1_545 S
C1159 C7 1.454 . S
