# Generated by pormake.
# Topology ptr, (4,4)-cn, num edge types: 1
# Building blocks:
#     Node 0, Type 0, BuildingBlock: QUQFOY_clean_sbu_1, # of connection points: 4
#     Node 1, Type 0, BuildingBlock: QUQFOY_clean_sbu_1, # of connection points: 4
#     Node 2, Type 0, BuildingBlock: QUQFOY_clean_sbu_1, # of connection points: 4
#     Node 3, Type 0, BuildingBlock: QUQFOY_clean_sbu_1, # of connection points: 4
#     Node 4, Type 0, BuildingBlock: QUQFOY_clean_sbu_1, # of connection points: 4
#     Node 5, Type 0, BuildingBlock: QUQFOY_clean_sbu_1, # of connection points: 4
#     Node 6, Type 0, BuildingBlock: QUQFOY_clean_sbu_1, # of connection points: 4
#     Node 7, Type 0, BuildingBlock: QUQFOY_clean_sbu_1, # of connection points: 4
#     Node 8, Type 0, BuildingBlock: QUQFOY_clean_sbu_1, # of connection points: 4
#     Node 9, Type 0, BuildingBlock: QUQFOY_clean_sbu_1, # of connection points: 4
#     Node 10, Type 0, BuildingBlock: QUQFOY_clean_sbu_1, # of connection points: 4
#     Node 11, Type 0, BuildingBlock: QUQFOY_clean_sbu_1, # of connection points: 4
#     Node 12, Type 0, BuildingBlock: QUQFOY_clean_sbu_1, # of connection points: 4
#     Node 13, Type 0, BuildingBlock: QUQFOY_clean_sbu_1, # of connection points: 4
#     Node 14, Type 0, BuildingBlock: QUQFOY_clean_sbu_1, # of connection points: 4
#     Node 15, Type 0, BuildingBlock: QUQFOY_clean_sbu_1, # of connection points: 4
#     Node 16, Type 0, BuildingBlock: QUQFOY_clean_sbu_1, # of connection points: 4
#     Node 17, Type 0, BuildingBlock: QUQFOY_clean_sbu_1, # of connection points: 4
#     Node 18, Type 1, BuildingBlock: KUFVIS_clean_linker_0, # of connection points: 4
#     Node 19, Type 1, BuildingBlock: KUFVIS_clean_linker_0, # of connection points: 4
#     Node 20, Type 1, BuildingBlock: KUFVIS_clean_linker_0, # of connection points: 4
#     Node 21, Type 1, BuildingBlock: KUFVIS_clean_linker_0, # of connection points: 4
#     Node 22, Type 1, BuildingBlock: KUFVIS_clean_linker_0, # of connection points: 4
#     Node 23, Type 1, BuildingBlock: KUFVIS_clean_linker_0, # of connection points: 4
#     Node 24, Type 1, BuildingBlock: KUFVIS_clean_linker_0, # of connection points: 4
#     Node 25, Type 1, BuildingBlock: KUFVIS_clean_linker_0, # of connection points: 4
#     Node 26, Type 1, BuildingBlock: KUFVIS_clean_linker_0, # of connection points: 4
#     Node 27, Type 1, BuildingBlock: KUFVIS_clean_linker_0, # of connection points: 4
#     Node 28, Type 1, BuildingBlock: KUFVIS_clean_linker_0, # of connection points: 4
#     Node 29, Type 1, BuildingBlock: KUFVIS_clean_linker_0, # of connection points: 4
#     Node 30, Type 1, BuildingBlock: KUFVIS_clean_linker_0, # of connection points: 4
#     Node 31, Type 1, BuildingBlock: KUFVIS_clean_linker_0, # of connection points: 4
#     Node 32, Type 1, BuildingBlock: KUFVIS_clean_linker_0, # of connection points: 4
#     Node 33, Type 1, BuildingBlock: KUFVIS_clean_linker_0, # of connection points: 4
#     Node 34, Type 1, BuildingBlock: KUFVIS_clean_linker_0, # of connection points: 4
#     Node 35, Type 1, BuildingBlock: KUFVIS_clean_linker_0, # of connection points: 4
#     Edge 36, Type (0, 1), BuildingBlock: XUDNAN_clean_linker_2, # of connection points: 2
#     Edge 37, Type (0, 1), BuildingBlock: XUDNAN_clean_linker_2, # of connection points: 2
#     Edge 38, Type (0, 1), BuildingBlock: XUDNAN_clean_linker_2, # of connection points: 2
#     Edge 39, Type (0, 1), BuildingBlock: XUDNAN_clean_linker_2, # of connection points: 2
#     Edge 40, Type (0, 1), BuildingBlock: XUDNAN_clean_linker_2, # of connection points: 2
#     Edge 41, Type (0, 1), BuildingBlock: XUDNAN_clean_linker_2, # of connection points: 2
#     Edge 42, Type (0, 1), BuildingBlock: XUDNAN_clean_linker_2, # of connection points: 2
#     Edge 43, Type (0, 1), BuildingBlock: XUDNAN_clean_linker_2, # of connection points: 2
#     Edge 44, Type (0, 1), BuildingBlock: XUDNAN_clean_linker_2, # of connection points: 2
#     Edge 45, Type (0, 1), BuildingBlock: XUDNAN_clean_linker_2, # of connection points: 2
#     Edge 46, Type (0, 1), BuildingBlock: XUDNAN_clean_linker_2, # of connection points: 2
#     Edge 47, Type (0, 1), BuildingBlock: XUDNAN_clean_linker_2, # of connection points: 2
#     Edge 48, Type (0, 1), BuildingBlock: XUDNAN_clean_linker_2, # of connection points: 2
#     Edge 49, Type (0, 1), BuildingBlock: XUDNAN_clean_linker_2, # of connection points: 2
#     Edge 50, Type (0, 1), BuildingBlock: XUDNAN_clean_linker_2, # of connection points: 2
#     Edge 51, Type (0, 1), BuildingBlock: XUDNAN_clean_linker_2, # of connection points: 2
#     Edge 52, Type (0, 1), BuildingBlock: XUDNAN_clean_linker_2, # of connection points: 2
#     Edge 53, Type (0, 1), BuildingBlock: XUDNAN_clean_linker_2, # of connection points: 2
#     Edge 54, Type (0, 1), BuildingBlock: XUDNAN_clean_linker_2, # of connection points: 2
#     Edge 55, Type (0, 1), BuildingBlock: XUDNAN_clean_linker_2, # of connection points: 2
#     Edge 56, Type (0, 1), BuildingBlock: XUDNAN_clean_linker_2, # of connection points: 2
#     Edge 57, Type (0, 1), BuildingBlock: XUDNAN_clean_linker_2, # of connection points: 2
#     Edge 58, Type (0, 1), BuildingBlock: XUDNAN_clean_linker_2, # of connection points: 2
#     Edge 59, Type (0, 1), BuildingBlock: XUDNAN_clean_linker_2, # of connection points: 2
#     Edge 60, Type (0, 1), BuildingBlock: XUDNAN_clean_linker_2, # of connection points: 2
#     Edge 61, Type (0, 1), BuildingBlock: XUDNAN_clean_linker_2, # of connection points: 2
#     Edge 62, Type (0, 1), BuildingBlock: XUDNAN_clean_linker_2, # of connection points: 2
#     Edge 63, Type (0, 1), BuildingBlock: XUDNAN_clean_linker_2, # of connection points: 2
#     Edge 64, Type (0, 1), BuildingBlock: XUDNAN_clean_linker_2, # of connection points: 2
#     Edge 65, Type (0, 1), BuildingBlock: XUDNAN_clean_linker_2, # of connection points: 2
#     Edge 66, Type (0, 1), BuildingBlock: XUDNAN_clean_linker_2, # of connection points: 2
#     Edge 67, Type (0, 1), BuildingBlock: XUDNAN_clean_linker_2, # of connection points: 2
#     Edge 68, Type (0, 1), BuildingBlock: XUDNAN_clean_linker_2, # of connection points: 2
#     Edge 69, Type (0, 1), BuildingBlock: XUDNAN_clean_linker_2, # of connection points: 2
#     Edge 70, Type (0, 1), BuildingBlock: XUDNAN_clean_linker_2, # of connection points: 2
#     Edge 71, Type (0, 1), BuildingBlock: XUDNAN_clean_linker_2, # of connection points: 2
#     Edge 72, Type (0, 1), BuildingBlock: XUDNAN_clean_linker_2, # of connection points: 2
#     Edge 73, Type (0, 1), BuildingBlock: XUDNAN_clean_linker_2, # of connection points: 2
#     Edge 74, Type (0, 1), BuildingBlock: XUDNAN_clean_linker_2, # of connection points: 2
#     Edge 75, Type (0, 1), BuildingBlock: XUDNAN_clean_linker_2, # of connection points: 2
#     Edge 76, Type (0, 1), BuildingBlock: XUDNAN_clean_linker_2, # of connection points: 2
#     Edge 77, Type (0, 1), BuildingBlock: XUDNAN_clean_linker_2, # of connection points: 2
#     Edge 78, Type (0, 1), BuildingBlock: XUDNAN_clean_linker_2, # of connection points: 2
#     Edge 79, Type (0, 1), BuildingBlock: XUDNAN_clean_linker_2, # of connection points: 2
#     Edge 80, Type (0, 1), BuildingBlock: XUDNAN_clean_linker_2, # of connection points: 2
#     Edge 81, Type (0, 1), BuildingBlock: XUDNAN_clean_linker_2, # of connection points: 2
#     Edge 82, Type (0, 1), BuildingBlock: XUDNAN_clean_linker_2, # of connection points: 2
#     Edge 83, Type (0, 1), BuildingBlock: XUDNAN_clean_linker_2, # of connection points: 2
#     Edge 84, Type (0, 1), BuildingBlock: XUDNAN_clean_linker_2, # of connection points: 2
#     Edge 85, Type (0, 1), BuildingBlock: XUDNAN_clean_linker_2, # of connection points: 2
#     Edge 86, Type (0, 1), BuildingBlock: XUDNAN_clean_linker_2, # of connection points: 2
#     Edge 87, Type (0, 1), BuildingBlock: XUDNAN_clean_linker_2, # of connection points: 2
#     Edge 88, Type (0, 1), BuildingBlock: XUDNAN_clean_linker_2, # of connection points: 2
#     Edge 89, Type (0, 1), BuildingBlock: XUDNAN_clean_linker_2, # of connection points: 2
#     Edge 90, Type (0, 1), BuildingBlock: XUDNAN_clean_linker_2, # of connection points: 2
#     Edge 91, Type (0, 1), BuildingBlock: XUDNAN_clean_linker_2, # of connection points: 2
#     Edge 92, Type (0, 1), BuildingBlock: XUDNAN_clean_linker_2, # of connection points: 2
#     Edge 93, Type (0, 1), BuildingBlock: XUDNAN_clean_linker_2, # of connection points: 2
#     Edge 94, Type (0, 1), BuildingBlock: XUDNAN_clean_linker_2, # of connection points: 2
#     Edge 95, Type (0, 1), BuildingBlock: XUDNAN_clean_linker_2, # of connection points: 2
#     Edge 96, Type (0, 1), BuildingBlock: XUDNAN_clean_linker_2, # of connection points: 2
#     Edge 97, Type (0, 1), BuildingBlock: XUDNAN_clean_linker_2, # of connection points: 2
#     Edge 98, Type (0, 1), BuildingBlock: XUDNAN_clean_linker_2, # of connection points: 2
#     Edge 99, Type (0, 1), BuildingBlock: XUDNAN_clean_linker_2, # of connection points: 2
#     Edge 100, Type (0, 1), BuildingBlock: XUDNAN_clean_linker_2, # of connection points: 2
#     Edge 101, Type (0, 1), BuildingBlock: XUDNAN_clean_linker_2, # of connection points: 2
#     Edge 102, Type (0, 1), BuildingBlock: XUDNAN_clean_linker_2, # of connection points: 2
#     Edge 103, Type (0, 1), BuildingBlock: XUDNAN_clean_linker_2, # of connection points: 2
#     Edge 104, Type (0, 1), BuildingBlock: XUDNAN_clean_linker_2, # of connection points: 2
#     Edge 105, Type (0, 1), BuildingBlock: XUDNAN_clean_linker_2, # of connection points: 2
#     Edge 106, Type (0, 1), BuildingBlock: XUDNAN_clean_linker_2, # of connection points: 2
#     Edge 107, Type (0, 1), BuildingBlock: XUDNAN_clean_linker_2, # of connection points: 2
# Relax obj value: 0.019
# Max RMSD: 0.075
# Mean RMSD: 0.059
data_MOF--net-ptr--node1-QUQFOY_clean_sbu_1--node2-KUFVIS_clean_linker_0--edge1-XUDNAN_clean_linker_2
_symmetry_space_group_name_H-M    P1
_symmetry_Int_Tables_number       1
_symmetry_cell_setting            triclinic
loop_
_symmetry_equiv_pos_as_xyz
'x, y, z'
_cell_length_a     79.820513
_cell_length_b     79.949581
_cell_length_c     50.455053
_cell_angle_alpha  90.189549
_cell_angle_beta   89.900349
_cell_angle_gamma 119.98816
loop_
_atom_site_label
_atom_site_type_symbol
_atom_site_fract_x
_atom_site_fract_y
_atom_site_fract_z
_atom_type_partial_charge
O0 O 0.03652 0.40688 0.04454 0.0
Cd1 Cd 0.042 0.39376 0.01313 0.0
Cd2 Cd 1.00243 0.37575 0.00968 0.0
O3 O 1.00454 0.3909 0.04445 0.0
O4 O 0.06965 0.40078 0.01866 0.0
O5 O 0.04575 0.37059 0.01681 0.0
C6 C 0.064 0.38263 0.01983 0.0
C7 C 0.98135 0.34226 0.00596 0.0
C8 C 1.02053 0.40385 0.05422 0.0
C9 C 0.02598 0.40326 0.96556 0.0
O10 O 1.00926 0.39202 0.97509 0.0
O11 O 0.04106 0.40527 0.97706 0.0
O12 O 0.97505 0.35429 0.00526 0.0
O13 O 0.9997 0.34922 0.00954 0.0
O14 O 0.63379 0.63015 0.05645 0.0
Cd15 Cd 0.64379 0.64728 0.02259 0.0
Cd16 Cd 0.66413 0.62692 0.01751 0.0
O17 O 0.65183 0.61637 0.054 0.0
O18 O 0.63759 0.66849 0.02825 0.0
O19 O 0.66745 0.67404 0.02367 0.0
C20 C 0.65589 0.68074 0.02771 0.0
C21 C 0.69591 0.63304 0.00965 0.0
C22 C 0.63894 0.61859 0.06569 0.0
C23 C 0.63279 0.61961 0.97705 0.0
O24 O 0.64477 0.61514 0.98658 0.0
O25 O 0.63092 0.6332 0.98719 0.0
O26 O 0.68158 0.6158 0.01253 0.0
O27 O 0.69235 0.64708 0.01148 0.0
O28 O 0.41075 0.02903 0.97806 0.0
Cd29 Cd 0.4019 0.03872 0.01044 0.0
Cd30 Cd 0.38296 0.99936 0.0234 0.0
O31 O 0.39741 0.99837 0.98981 0.0
O32 O 0.40716 0.06531 0.00098 0.0
O33 O 0.37783 0.04118 0.00945 0.0
C34 C 0.38886 0.05906 0.00294 0.0
C35 C 0.35041 0.97509 0.02944 0.0
C36 C 0.408 1.0121 0.97412 0.0
C37 C 0.41357 0.02757 0.06138 0.0
O38 O 0.40016 1.01036 0.05674 0.0
O39 O 0.41667 0.04115 0.04546 0.0
O40 O 0.36445 0.97176 0.03304 0.0
O41 O 0.35475 0.99227 0.02216 0.0
O42 O 1.01563 0.62832 0.97243 0.0
Cd43 Cd 1.00891 0.63874 0.00635 0.0
Cd44 Cd 0.04805 0.66382 0.00549 0.0
O45 O 0.0466 0.65046 0.96987 0.0
O46 O 0.98034 0.62875 0.00594 0.0
O47 O 1.002 0.65977 0.00256 0.0
C48 C 0.98405 0.6463 0.00313 0.0
C49 C 0.06705 0.69747 0.01056 0.0
C50 C 0.03194 0.6354 0.96078 0.0
C51 C 0.03194 0.63519 0.05056 0.0
O52 O 0.04668 0.64794 0.03822 0.0
O53 O 1.01499 0.63021 0.04238 0.0
O54 O 0.07472 0.68672 0.00769 0.0
O55 O 0.04841 0.68919 0.0095 0.0
O56 O 0.41241 0.38669 0.98047 0.0
Cd57 Cd 0.396 0.3711 0.01257 0.0
Cd58 Cd 0.37813 0.39209 -0.00139 0.0
O59 O 0.39395 0.39738 0.96383 0.0
O60 O 0.40407 0.3513 0.01824 0.0
O61 O 0.3745 0.34357 0.00623 0.0
C62 C 0.38696 0.33817 0.0112 0.0
C63 C 0.34579 0.38513 0.00066 0.0
C64 C 0.40889 0.39555 0.96238 0.0
C65 C 0.40183 0.40256 0.04929 0.0
O66 O 0.39418 0.40744 0.03103 0.0
O67 O 0.40201 0.38675 0.04763 0.0
O68 O 0.3596 0.40191 0.9937 0.0
O69 O 0.35014 0.3718 0.00478 0.0
O70 O 0.63541 0.9978 0.04886 0.0
Cd71 Cd 0.64438 0.98855 0.0163 0.0
Cd72 Cd 0.66526 0.0309 0.00617 0.0
O73 O 0.6504 0.0292 0.04062 0.0
O74 O 0.63211 0.95999 0.02204 0.0
O75 O 0.66367 0.9791 0.01957 0.0
C76 C 0.6491 0.96192 0.02255 0.0
C77 C 0.69651 0.05814 0.00084 0.0
C78 C 0.63893 0.01475 0.05468 0.0
C79 C 0.63544 1.00395 0.96622 0.0
O80 O 0.64823 0.02107 0.97256 0.0
O81 O 0.63232 0.98966 0.98065 0.0
O82 O 0.68115 0.05956 0.00047 0.0
O83 O 0.69429 0.04116 0.0044 0.0
O84 O 0.69294 0.73019 0.39019 0.0
Cd85 Cd 0.70146 0.72205 0.35577 0.0
Cd86 Cd 0.66051 0.69725 0.3536 0.0
O87 O 0.66139 0.7099 0.38947 0.0
O88 O 0.73001 0.73252 0.3604 0.0
O89 O 0.70912 0.70142 0.35536 0.0
C90 C 0.72677 0.71504 0.35904 0.0
C91 C 0.63724 0.66451 0.34716 0.0
C92 C 0.6762 0.72378 0.40033 0.0
C93 C 0.68062 0.72851 0.31138 0.0
O94 O 0.66528 0.71501 0.32169 0.0
O95 O 0.69717 0.73319 0.32084 0.0
O96 O 0.63253 0.67771 0.34833 0.0
O97 O 0.65525 0.66973 0.35023 0.0
O98 O 0.30243 0.96868 0.3932 0.0
Cd99 Cd 0.30977 0.98584 0.35979 0.0
Cd100 Cd 0.32926 0.96402 0.3477 0.0
O101 O 0.31597 0.95116 0.38311 0.0
O102 O 0.30052 1.00439 0.36848 0.0
O103 O 0.33099 1.01395 0.35905 0.0
C104 C 0.31798 0.01835 0.3654 0.0
C105 C 0.3606 0.96893 0.33975 0.0
C106 C 0.30565 0.95498 0.39847 0.0
C107 C 0.2979 0.96085 0.31034 0.0
O108 O 0.31108 0.95677 0.31527 0.0
O109 O 0.29517 0.972 0.32556 0.0
O110 O 0.34555 0.95194 0.33979 0.0
O111 O 0.35799 0.98336 0.3444 0.0
O112 O 0.08045 0.3659 0.30745 0.0
Cd113 Cd 0.07203 0.37533 0.34042 0.0
Cd114 Cd 0.05211 0.33607 0.35173 0.0
O115 O 0.06618 0.33494 0.31771 0.0
O116 O 0.07892 0.40246 0.33157 0.0
O117 O 0.04901 0.37947 0.34011 0.0
C118 C 0.06086 0.39721 0.33376 0.0
C119 C 1.01879 0.31406 0.35695 0.0
C120 C 0.07713 0.34889 0.30256 0.0
C121 C 0.08277 0.36251 0.39073 0.0
O122 O 0.06917 0.34551 0.38546 0.0
O123 O 0.08626 0.37649 0.37535 0.0
O124 O 0.03156 0.30881 0.35957 0.0
O125 O 0.02489 0.33191 0.35103 0.0
O126 O 0.68544 0.96322 0.29875 0.0
Cd127 Cd 0.67572 0.97122 0.33195 0.0
Cd128 Cd 0.71666 0.99168 0.34341 0.0
O129 O 0.71663 0.97806 0.30842 0.0
O130 O 0.64796 0.96297 0.32385 0.0
O131 O 0.66997 0.99327 0.33198 0.0
C132 C 0.65226 0.98074 0.32617 0.0
C133 C 0.74241 0.02344 0.35047 0.0
C134 C 0.70257 0.96696 0.29346 0.0
C135 C 0.6897 0.96041 0.38152 0.0
O136 O 0.70675 0.9739 0.37622 0.0
O137 O 0.67553 0.95717 0.36659 0.0
O138 O 0.745 1.0088 0.35054 0.0
O139 O 0.72509 0.02019 0.34622 0.0
O140 O 0.08057 0.72091 0.32172 0.0
Cd141 Cd 0.06387 0.70523 0.35361 0.0
Cd142 Cd 0.04502 0.72433 0.34033 0.0
O143 O 0.06125 0.73073 0.3057 0.0
O144 O 0.06976 0.68382 0.35888 0.0
O145 O 0.0411 0.67862 0.34606 0.0
C146 C 0.05241 0.6718 0.35111 0.0
C147 C 1.01173 0.7141 0.34088 0.0
C148 C 0.07656 0.72958 0.30388 0.0
C149 C 0.06886 0.73621 0.39086 0.0
O150 O 0.06034 0.74039 0.37298 0.0
O151 O 0.07001 0.72093 0.38881 0.0
O152 O 0.02451 0.73144 0.33424 0.0
O153 O 1.01773 0.70215 0.34608 0.0
O154 O 0.29295 0.3215 0.37352 0.0
Cd155 Cd 0.30771 0.31888 0.34168 0.0
Cd156 Cd 0.32317 0.358 0.3414 0.0
O157 O 0.30781 0.35331 0.37669 0.0
O158 O 0.30153 0.29139 0.34266 0.0
O159 O 0.33122 0.31589 0.34751 0.0
C160 C 0.3196 0.29746 0.34657 0.0
C161 C 0.35652 0.37986 0.33805 0.0
C162 C 0.29521 0.33667 0.38504 0.0
C163 C 0.29754 0.33547 0.2954 0.0
O164 O 0.30699 0.35183 0.3068 0.0
O165 O 0.29712 0.32068 0.30531 0.0
O166 O 0.3441 0.38571 0.33883 0.0
O167 O 0.35004 0.36151 0.3401 0.0
O168 O 0.37213 0.06865 0.71062 0.0
Cd169 Cd 0.37538 0.05372 0.67958 0.0
Cd170 Cd 0.33475 0.03896 0.67899 0.0
O171 O 0.3403 0.0552 0.71366 0.0
O172 O 0.40374 0.06285 0.68082 0.0
O173 O 0.38161 0.03229 0.68607 0.0
C174 C 0.39966 0.04537 0.68507 0.0
C175 C 0.30983 1.00653 0.67575 0.0
C176 C 0.35723 0.06741 0.72174 0.0
C177 C 0.35892 0.06401 0.63311 0.0
O178 O 0.34247 0.05508 0.64436 0.0
O179 O 0.37346 0.06386 0.64304 0.0
O180 O 0.3062 0.02054 0.6752 0.0
O181 O 0.32761 1.01084 0.67905 0.0
O182 O 0.96749 0.3095 0.7079 0.0
Cd183 Cd 0.98254 0.32544 0.67521 0.0
Cd184 Cd 1.00137 0.30555 0.68638 0.0
O185 O 0.98578 0.29773 0.72155 0.0
O186 O 0.97516 0.34598 0.67372 0.0
O187 O 1.00528 0.35251 0.6794 0.0
C188 C 0.99304 0.35859 0.67801 0.0
C189 C 0.03449 0.31601 0.68304 0.0
C190 C 0.97103 0.29973 0.72451 0.0
C191 C 0.97598 0.29491 0.6369 0.0
O192 O 0.9853 0.29085 0.6536 0.0
O193 O 0.97455 0.30997 0.63995 0.0
O194 O 1.02192 0.29812 0.68716 0.0
O195 O 0.02843 0.32828 0.6823 0.0
O196 O 0.74837 0.69546 0.64156 0.0
Cd197 Cd 0.74137 0.70598 0.67476 0.0
Cd198 Cd 0.71949 0.66366 0.68613 0.0
O199 O 0.73246 0.66413 0.65024 0.0
O200 O 0.75396 0.73448 0.66788 0.0
O201 O 0.72245 0.71598 0.67249 0.0
C202 C 0.73712 0.73293 0.66826 0.0
C203 C 0.68773 0.63778 0.69364 0.0
C204 C 0.74376 0.67821 0.63551 0.0
C205 C 0.75109 0.69063 0.72437 0.0
O206 O 0.73782 0.67357 0.71859 0.0
O207 O 0.7542 0.70489 0.70985 0.0
O208 O 0.70242 0.63523 0.69272 0.0
O209 O 0.69091 0.65512 0.69021 0.0
O210 O 0.3367 0.29375 0.65114 0.0
Cd211 Cd 0.33591 0.30929 0.68347 0.0
Cd212 Cd 0.37425 0.3272 0.67411 0.0
O213 O 0.36715 0.31169 0.63877 0.0
O214 O 0.30882 0.30477 0.68372 0.0
O215 O 0.33455 0.33361 0.67814 0.0
C216 C 0.31594 0.32293 0.67901 0.0
C217 C 0.39612 0.36062 0.67734 0.0
C218 C 0.35039 0.2971 0.63517 0.0
C219 C 0.35805 0.3013 0.72286 0.0
O220 O 0.372 0.31068 0.70686 0.0
O221 O 0.34188 0.30048 0.71918 0.0
O222 O 0.40203 0.34846 0.67342 0.0
O223 O 0.37765 0.35389 0.67834 0.0
O224 O 0.74522 0.0645 0.63721 0.0
Cd225 Cd 0.73812 0.04635 0.66965 0.0
Cd226 Cd 0.71908 0.06679 0.68438 0.0
O227 O 0.73241 0.08209 0.65029 0.0
O228 O 0.7455 0.0267 0.65895 0.0
O229 O 0.71564 0.01884 0.6697 0.0
C230 C 0.72772 1.01346 0.66217 0.0
C231 C 0.68642 0.05756 0.69152 0.0
C232 C 0.74231 0.07861 0.63368 0.0
C233 C 0.75051 0.06922 0.72067 0.0
O234 O 0.7369 0.07289 0.71705 0.0
O235 O 0.75352 0.05904 0.70399 0.0
O236 O 0.70012 0.07506 0.69537 0.0
O237 O 0.69118 0.04514 0.68349 0.0
O238 O 0.96 0.65852 0.69823 0.0
Cd239 Cd 0.9752 0.65711 0.66603 0.0
Cd240 Cd 0.99659 0.69545 0.67903 0.0
O241 O 0.98064 0.68746 0.71391 0.0
O242 O 0.96548 0.62877 0.6618 0.0
O243 O 0.99569 0.64975 0.67247 0.0
C244 C 0.9824 0.632 0.66861 0.0
C245 C 0.03026 0.71627 0.67737 0.0
C246 C 0.96479 0.67152 0.71589 0.0
C247 C 0.97229 0.68387 0.62864 0.0
O248 O 0.98166 0.69655 0.64628 0.0
O249 O 0.96977 0.6669 0.63083 0.0
O250 O 1.01861 0.72262 0.68258 0.0
O251 O 0.02288 0.69783 0.67445 0.0
H252 H 0.25065 0.35224 0.12315 0.0
H253 H 0.21051 0.36424 0.08298 0.0
H254 H 0.19855 0.3399 0.1623 0.0
H255 H 0.18216 0.35379 0.168 0.0
H256 H 0.13667 0.35793 0.13029 0.0
H257 H 0.17964 0.35559 0.08205 0.0
C258 C 0.23699 0.3521 0.12274 0.0
C259 C 0.22536 0.34616 0.14523 0.0
C260 C 0.23127 0.35768 0.09977 0.0
C261 C 0.21413 0.35879 0.10031 0.0
C262 C 0.20194 0.35285 0.1231 0.0
C263 C 0.2076 0.34568 0.14498 0.0
C264 C 0.18374 0.35437 0.12468 0.0
C265 C 0.17545 0.35427 0.14969 0.0
C266 C 0.15835 0.35512 0.15176 0.0
C267 C 0.14993 0.35732 0.12884 0.0
C268 C 0.15777 0.35784 0.10388 0.0
C269 C 0.17435 0.35593 0.10166 0.0
H270 H 0.68858 0.89948 0.1262 0.0
H271 H 0.67501 0.84627 0.08757 0.0
H272 H 0.69997 0.85945 0.16656 0.0
H273 H 0.68168 0.8283 0.17198 0.0
H274 H 0.68167 0.77982 0.13635 0.0
H275 H 0.68726 0.82585 0.0867 0.0
C276 C 0.68855 0.88588 0.12621 0.0
C277 C 0.6944 0.88042 0.14898 0.0
C278 C 0.6822 0.87402 0.10374 0.0
C279 C 0.68099 0.8558 0.10449 0.0
C280 C 0.68722 0.84997 0.12723 0.0
C281 C 0.69456 0.86296 0.14905 0.0
C282 C 0.68539 0.83026 0.12909 0.0
C283 C 0.68305 0.82148 0.15421 0.0
C284 C 0.68239 0.80372 0.15691 0.0
C285 C 0.68282 0.79387 0.13431 0.0
C286 C 0.68394 0.80147 0.10903 0.0
C287 C 0.68572 0.81987 0.10634 0.0
H288 H 0.2507 0.90286 0.1358 0.0
H289 H 0.20929 0.85445 0.09014 0.0
H290 H 0.19722 0.86214 0.17179 0.0
H291 H 0.18223 0.83044 0.17251 0.0
H292 H 0.1325 0.78789 0.13065 0.0
H293 H 0.17667 0.83614 0.08798 0.0
C294 C 0.23686 0.88959 0.13449 0.0
C295 C 0.22478 0.88319 0.15661 0.0
C296 C 0.23117 0.8796 0.11042 0.0
C297 C 0.21318 0.86238 0.10865 0.0
C298 C 0.20072 0.85531 0.13102 0.0
C299 C 0.20659 0.86646 0.15462 0.0
C300 C 0.1819 0.83633 0.13042 0.0
C301 C 0.17426 0.82562 0.1541 0.0
C302 C 0.15623 0.80852 0.15446 0.0
C303 C 0.14612 0.80144 0.13072 0.0
C304 C 0.15369 0.81108 0.1068 0.0
C305 C 0.17137 0.82863 0.10661 0.0
H306 H 0.35847 0.12619 0.89197 0.0
H307 H 0.35563 0.17 0.9375 0.0
H308 H 0.36175 0.17432 0.8517 0.0
H309 H 0.35055 0.19287 0.85236 0.0
H310 H 0.3572 0.24264 0.89229 0.0
H311 H 0.36205 0.19978 0.93702 0.0
C312 C 0.35804 0.13955 0.89269 0.0
C313 C 0.3591 0.1491 0.86921 0.0
C314 C 0.35755 0.14744 0.9172 0.0
C315 C 0.35673 0.16468 0.91825 0.0
C316 C 0.35757 0.17477 0.89458 0.0
C317 C 0.35962 0.16689 0.87026 0.0
C318 C 0.35665 0.19338 0.89474 0.0
C319 C 0.35348 0.2007 0.87078 0.0
C320 C 0.3541 0.21853 0.86977 0.0
C321 C 0.35623 0.22863 0.89323 0.0
C322 C 0.35855 0.22168 0.91762 0.0
C323 C 0.35929 0.20436 0.91823 0.0
H324 H 0.79935 0.12529 0.8961 0.0
H325 H 0.83748 0.17696 0.93897 0.0
H326 H 0.85141 0.16758 0.85903 0.0
H327 H 0.8652 0.19873 0.85613 0.0
H328 H 0.91228 0.24548 0.89664 0.0
H329 H 0.86963 0.19773 0.94181 0.0
C330 C 0.81279 0.13899 0.89719 0.0
C331 C 0.82461 0.14564 0.87486 0.0
C332 C 0.8176 0.14985 0.92058 0.0
C333 C 0.83448 0.16822 0.92129 0.0
C334 C 0.84712 0.1752 0.89908 0.0
C335 C 0.8421 0.16321 0.87623 0.0
C336 C 0.86507 0.195 0.89897 0.0
C337 C 0.87262 0.20477 0.87464 0.0
C338 C 0.88994 0.22255 0.87369 0.0
C339 C 0.89923 0.23142 0.89727 0.0
C340 C 0.89164 0.22285 0.92175 0.0
C341 C 0.87486 0.20445 0.9227 0.0
H342 H 0.79784 0.67525 0.89746 0.0
H343 H 0.83716 0.66212 0.93789 0.0
H344 H 0.85059 0.68774 0.8595 0.0
H345 H 0.86389 0.66975 0.85456 0.0
H346 H 0.91249 0.67131 0.89202 0.0
H347 H 0.8698 0.67478 0.94001 0.0
C348 C 0.81151 0.6754 0.89808 0.0
C349 C 0.82346 0.68165 0.87585 0.0
C350 C 0.81662 0.66901 0.92084 0.0
C351 C 0.83383 0.66807 0.92079 0.0
C352 C 0.84644 0.6746 0.89856 0.0
C353 C 0.8412 0.68204 0.87657 0.0
C354 C 0.86463 0.67322 0.89743 0.0
C355 C 0.87184 0.67132 0.87261 0.0
C356 C 0.88936 0.6713 0.87058 0.0
C357 C 0.89944 0.67228 0.89362 0.0
C358 C 0.8923 0.67307 0.91869 0.0
C359 C 0.87495 0.67369 0.92059 0.0
H360 H 0.91784 0.68831 0.4563 0.0
H361 H 0.8709 0.68622 0.41194 0.0
H362 H 0.87386 0.69312 0.49742 0.0
H363 H 0.84262 0.67751 0.4957 0.0
H364 H 0.80244 0.69118 0.46041 0.0
H365 H 0.85084 0.6982 0.41459 0.0
C366 C 0.90408 0.68797 0.45571 0.0
C367 C 0.89615 0.68976 0.47942 0.0
C368 C 0.8954 0.68718 0.43126 0.0
C369 C 0.87776 0.68737 0.43085 0.0
C370 C 0.8691 0.6888 0.45478 0.0
C371 C 0.8791 0.69074 0.47883 0.0
C372 C 0.84997 0.68854 0.45529 0.0
C373 C 0.83859 0.68296 0.47874 0.0
C374 C 0.82193 0.68458 0.48092 0.0
C375 C 0.81569 0.69055 0.45901 0.0
C376 C 0.82569 0.6949 0.43496 0.0
C377 C 0.84294 0.69411 0.43308 0.0
H378 H 0.35246 0.23742 0.46689 0.0
H379 H 0.35377 0.19198 0.42305 0.0
H380 H 0.3467 0.18849 0.50839 0.0
H381 H 0.36079 0.17106 0.50608 0.0
H382 H 0.34386 0.11681 0.46917 0.0
H383 H 0.33939 0.16012 0.4251 0.0
C384 C 0.35269 0.22397 0.46647 0.0
C385 C 0.3507 0.21434 0.4903 0.0
C386 C 0.35323 0.21576 0.44212 0.0
C387 C 0.35271 0.19785 0.4419 0.0
C388 C 0.35077 0.18772 0.46576 0.0
C389 C 0.34927 0.19611 0.48982 0.0
C390 C 0.34966 0.16828 0.46584 0.0
C391 C 0.35478 0.16178 0.48894 0.0
C392 C 0.35206 0.14308 0.49033 0.0
C393 C 0.34529 0.13104 0.46824 0.0
C394 C 0.34132 0.13734 0.44455 0.0
C395 C 0.34326 0.15584 0.44335 0.0
H396 H 0.92194 0.23973 0.46361 0.0
H397 H 0.87453 0.19815 0.41652 0.0
H398 H 0.87456 0.19194 0.50194 0.0
H399 H 0.84316 0.17897 0.4977 0.0
H400 H 0.80211 0.12667 0.45952 0.0
H401 H 0.85464 0.16539 0.4188 0.0
C402 C 0.90785 0.22674 0.46237 0.0
C403 C 0.89871 0.21696 0.48551 0.0
C404 C 0.89952 0.21974 0.43754 0.0
C405 C 0.8811 0.20302 0.43583 0.0
C406 C 0.87142 0.19275 0.45913 0.0
C407 C 0.88089 0.19975 0.4838 0.0
C408 C 0.85169 0.1748 0.45824 0.0
C409 C 0.83919 0.16966 0.48049 0.0
C410 C 0.82168 0.15206 0.48128 0.0
C411 C 0.81572 0.14021 0.45888 0.0
C412 C 0.82718 0.14515 0.43604 0.0
C413 C 0.84541 0.16221 0.43598 0.0
H414 H 0.02584 0.46327 0.2237 0.0
H415 H 0.03241 0.51113 0.2703 0.0
H416 H 1.01561 0.50555 0.1876 0.0
H417 H 0.0321 0.53654 0.1875 0.0
H418 H 0.02727 0.58067 0.22793 0.0
H419 H 1.02152 0.53215 0.27219 0.0
C420 C 0.02492 0.47633 0.22524 0.0
C421 C 1.02078 0.4837 0.20272 0.0
C422 C 0.02864 0.48592 0.24963 0.0
C423 C 0.02862 0.50353 0.25155 0.0
C424 C 0.02448 0.51143 0.22902 0.0
C425 C 1.01986 0.50074 0.205 0.0
C426 C 0.02564 0.53095 0.22964 0.0
C427 C 0.02907 0.54154 0.20584 0.0
C428 C 0.02882 0.55892 0.20513 0.0
C429 C 0.02637 0.56668 0.2286 0.0
C430 C 0.02438 0.55749 0.253 0.0
C431 C 0.02369 0.53944 0.25341 0.0
H432 H 0.45178 0.45385 0.22718 0.0
H433 H 0.49918 0.4948 0.27469 0.0
H434 H 0.49869 0.50261 0.18967 0.0
H435 H 0.53011 0.51706 0.19325 0.0
H436 H 0.56991 0.56892 0.23364 0.0
H437 H 0.51924 0.52682 0.2746 0.0
C438 C 0.46581 0.4669 0.22856 0.0
C439 C 0.47479 0.47715 0.2056 0.0
C440 C 0.47427 0.47349 0.25343 0.0
C441 C 0.49259 0.49031 0.25535 0.0
C442 C 0.50205 0.50114 0.23231 0.0
C443 C 0.49251 0.49445 0.20762 0.0
C444 C 0.52149 0.51949 0.23354 0.0
C445 C 0.53374 0.52588 0.21093 0.0
C446 C 0.5508 0.54392 0.21067 0.0
C447 C 0.55641 0.55524 0.23355 0.0
C448 C 0.54543 0.5488 0.25673 0.0
C449 C 0.52787 0.53111 0.25673 0.0
H450 H 0.46343 1.01202 0.23135 0.0
H451 H 0.5015 0.99606 0.2689 0.0
H452 H 0.51553 0.02418 0.19197 0.0
H453 H 0.53082 1.00905 0.18525 0.0
H454 H 0.5751 1.00235 0.222 0.0
H455 H 0.53299 1.00569 0.27105 0.0
C456 C 0.4769 1.01175 0.23135 0.0
C457 C 0.4887 0.01821 0.20899 0.0
C458 C 0.48173 1.0044 0.25332 0.0
C459 C 0.49859 1.00286 0.25245 0.0
C460 C 0.51129 1.00984 0.23029 0.0
C461 C 0.50626 0.01815 0.20904 0.0
C462 C 0.52914 1.00771 0.2285 0.0
C463 C 0.53731 1.00791 0.20341 0.0
C464 C 0.55397 1.00631 0.20109 0.0
C465 C 0.56209 1.00338 0.22375 0.0
C466 C 0.55442 1.0028 0.24885 0.0
C467 C 0.53823 1.00541 0.25138 0.0
H468 H 0.58642 0.0227 0.79798 0.0
H469 H 0.54398 0.03102 0.75782 0.0
H470 H 0.53239 1.00488 0.83603 0.0
H471 H 0.51397 0.01683 0.84171 0.0
H472 H 0.46674 0.0169 0.8028 0.0
H473 H 0.51263 0.01915 0.75581 0.0
C474 C 0.57229 0.02159 0.79784 0.0
C475 C 0.56024 1.01393 0.81979 0.0
C476 C 0.56625 0.02718 0.77531 0.0
C477 C 0.54795 0.02583 0.7751 0.0
C478 C 0.53537 0.01832 0.79736 0.0
C479 C 0.54165 1.01166 0.81915 0.0
C480 C 0.51611 0.01776 0.79848 0.0
C481 C 0.50709 0.01665 0.82322 0.0
C482 C 0.4892 0.01596 0.82472 0.0
C483 C 0.48037 0.01703 0.80148 0.0
C484 C 0.48883 0.01838 0.77666 0.0
C485 C 0.5066 0.0186 0.7752 0.0
H486 H 1.01604 0.57027 0.79085 0.0
H487 H 1.00523 0.51901 0.74909 0.0
H488 H 0.02892 0.53066 0.8289 0.0
H489 H 1.01594 0.50038 0.83326 0.0
H490 H 1.01268 0.45178 0.79349 0.0
H491 H 1.01473 0.49756 0.74718 0.0
C492 C 1.01643 0.5569 0.79007 0.0
C493 C 1.02237 0.55112 0.81243 0.0
C494 C 1.01116 0.54589 0.76677 0.0
C495 C 1.01043 0.52785 0.76672 0.0
C496 C 1.01641 0.52152 0.78928 0.0
C497 C 0.02318 0.53402 0.81165 0.0
C498 C 1.01531 0.50199 0.79002 0.0
C499 C 1.01549 0.49349 0.81463 0.0
C500 C 1.01495 0.4757 0.81589 0.0
C501 C 1.01297 0.46548 0.79258 0.0
C502 C 1.01264 0.47323 0.76793 0.0
C503 C 1.01421 0.49159 0.76654 0.0
H504 H 0.58292 0.56954 0.80348 0.0
H505 H 0.54516 0.52203 0.75329 0.0
H506 H 0.52897 0.52551 0.83421 0.0
H507 H 0.5163 0.49444 0.83331 0.0
H508 H 0.46915 0.45085 0.78899 0.0
H509 H 0.51248 0.50125 0.7486 0.0
C510 C 0.5691 0.55654 0.80035 0.0
C511 C 0.55657 0.54822 0.8218 0.0
C512 C 0.56486 0.54754 0.77539 0.0
C513 C 0.54781 0.52943 0.77214 0.0
C514 C 0.53457 0.52085 0.79341 0.0
C515 C 0.53899 0.53103 0.81777 0.0
C516 C 0.51672 0.50104 0.7913 0.0
C517 C 0.509 0.48966 0.81445 0.0
C518 C 0.49156 0.47202 0.81382 0.0
C519 C 0.48237 0.46477 0.78961 0.0
C520 C 0.49015 0.47488 0.76606 0.0
C521 C 0.50707 0.49324 0.76684 0.0
H522 H 0.69483 0.79384 0.56528 0.0
H523 H 0.71064 0.84819 0.60205 0.0
H524 H 0.68074 0.83226 0.52621 0.0
H525 H 0.69568 0.86253 0.51835 0.0
H526 H 0.70193 0.91369 0.55417 0.0
H527 H 0.70056 0.86969 0.60392 0.0
C528 C 0.69478 0.8074 0.56532 0.0
C529 C 0.68758 0.81217 0.54332 0.0
C530 C 0.70236 0.81992 0.58698 0.0
C531 C 0.70363 0.83818 0.58588 0.0
C532 C 0.69605 0.84333 0.56382 0.0
C533 C 0.68735 0.82956 0.54308 0.0
C534 C 0.69777 0.86304 0.56157 0.0
C535 C 0.69693 0.87043 0.53635 0.0
C536 C 0.69805 0.88843 0.53366 0.0
C537 C 0.70117 0.89981 0.55612 0.0
C538 C 0.70242 0.89327 0.58129 0.0
C539 C 0.70028 0.87475 0.58416 0.0
H540 H 0.12331 0.79049 0.56594 0.0
H541 H 0.17047 0.83344 0.61191 0.0
H542 H 0.16773 0.84056 0.52711 0.0
H543 H 0.19951 0.855 0.53011 0.0
H544 H 0.23949 0.90775 0.56858 0.0
H545 H 0.18914 0.8663 0.61092 0.0
C546 C 0.13691 0.80404 0.56685 0.0
C547 C 0.14494 0.81444 0.54362 0.0
C548 C 0.14577 0.81105 0.59142 0.0
C549 C 0.16351 0.82857 0.59283 0.0
C550 C 0.17211 0.83949 0.56957 0.0
C551 C 0.16217 0.83234 0.54517 0.0
C552 C 0.19128 0.85817 0.57022 0.0
C553 C 0.20332 0.86418 0.54745 0.0
C554 C 0.22034 0.88223 0.54655 0.0
C555 C 0.22603 0.89404 0.56898 0.0
C556 C 0.21516 0.88822 0.59231 0.0
C557 C 0.19771 0.87034 0.59297 0.0
H558 H 0.13022 0.34745 0.56486 0.0
H559 H 0.17205 0.33867 0.60626 0.0
H560 H 0.18182 0.35814 0.52462 0.0
H561 H 0.19587 0.3405 0.52184 0.0
H562 H 0.24593 0.34525 0.55968 0.0
H563 H 0.20451 0.35167 0.60635 0.0
C564 C 0.14381 0.34745 0.56485 0.0
C565 C 0.15511 0.35275 0.54191 0.0
C566 C 0.15013 0.34294 0.58815 0.0
C567 C 0.16776 0.34287 0.58829 0.0
C568 C 0.17937 0.34778 0.56512 0.0
C569 C 0.17302 0.35339 0.54234 0.0
C570 C 0.19781 0.34682 0.56415 0.0
C571 C 0.20435 0.34333 0.53971 0.0
C572 C 0.22194 0.34338 0.5379 0.0
C573 C 0.23266 0.34585 0.56086 0.0
C574 C 0.22613 0.34825 0.58553 0.0
C575 C 0.20897 0.34915 0.58719 0.0
H576 H 1.00109 0.39763 0.10215 0.0
H577 H 0.04119 0.44236 0.04904 0.0
H578 H 0.0428 0.46738 0.07931 0.0
H579 H 0.97575 0.42246 0.12612 0.0
H580 H 0.97436 0.41457 0.15988 0.0
H581 H 0.97467 0.39983 0.13298 0.0
H582 H 1.00437 0.39992 0.15382 0.0
H583 H 1.00405 0.41454 0.18082 0.0
H584 H 0.0257 0.42265 0.16137 0.0
H585 H 0.04082 0.48761 0.11504 0.0
H586 H 0.0385 0.50214 0.15704 0.0
H587 H 1.00126 0.44491 0.18923 0.0
C588 C 1.01001 0.4127 0.09691 0.0
C589 C 1.02094 0.41814 0.07323 0.0
C590 C 0.03276 0.43796 0.06714 0.0
C591 C 0.03366 0.45226 0.0841 0.0
C592 C 0.02286 0.44655 0.10734 0.0
C593 C 1.01148 0.42729 0.11407 0.0
C594 C 1.00276 0.42534 0.14146 0.0
C595 C 0.98057 0.41493 0.14001 0.0
C596 C 1.00963 0.415 0.16049 0.0
C597 C 1.01115 0.44647 0.149 0.0
C598 C 1.02239 0.45839 0.12875 0.0
C599 C 0.03198 0.47844 0.13103 0.0
C600 C 0.03045 0.48658 0.15491 0.0
C601 C 1.01962 0.47471 0.17639 0.0
C602 C 1.00962 0.45437 0.17315 0.0
H603 H 0.61495 0.62243 0.10165 0.0
H604 H 0.63803 0.58524 0.08019 0.0
H605 H 0.61713 0.56158 0.11367 0.0
H606 H 0.6119 0.61241 0.17275 0.0
H607 H 0.58993 0.61333 0.17681 0.0
H608 H 0.60698 0.62748 0.15137 0.0
H609 H 0.57982 0.61154 0.11617 0.0
H610 H 0.56276 0.59713 0.14145 0.0
H611 H 0.56646 0.5856 0.11308 0.0
H612 H 0.59197 0.54076 0.14745 0.0
H613 H 0.56781 0.52661 0.18365 0.0
H614 H 0.56243 0.57793 0.18481 0.0
C615 C 0.61578 0.60942 0.10421 0.0
C616 C 0.62815 0.60574 0.0882 0.0
C617 C 0.62879 0.58851 0.09226 0.0
C618 C 0.61686 0.57488 0.11113 0.0
C619 C 0.60451 0.57874 0.12611 0.0
C620 C 0.60417 0.59577 0.12328 0.0
C621 C 0.58989 0.59656 0.14237 0.0
C622 C 0.6003 0.61344 0.16199 0.0
C623 C 0.57378 0.59778 0.12736 0.0
C624 C 0.58213 0.57725 0.15612 0.0
C625 C 0.59057 0.56707 0.14625 0.0
C626 C 0.58538 0.54866 0.15549 0.0
C627 C 0.57156 0.54067 0.17584 0.0
C628 C 0.56332 0.55119 0.18688 0.0
C629 C 0.56857 0.56962 0.17666 0.0
H630 H 0.40916 1.00293 0.1019 0.0
H631 H 0.44865 0.06013 0.07143 0.0
H632 H 0.47267 0.0642 0.10551 0.0
H633 H 0.42143 0.01458 0.17171 0.0
H634 H 0.41897 0.99137 0.17871 0.0
H635 H 0.40478 0.99365 0.15276 0.0
H636 H 0.41816 0.97847 0.11941 0.0
H637 H 0.4326 0.9764 0.14515 0.0
H638 H 0.44395 0.98929 0.11513 0.0
H639 H 0.49343 0.06083 0.14166 0.0
H640 H 0.50727 0.0515 0.17911 0.0
H641 H 0.45372 0.99688 0.18525 0.0
C642 C 0.42273 0.01645 0.10257 0.0
C643 C 0.42696 0.03121 0.08393 0.0
C644 C 0.44497 0.04864 0.08556 0.0
C645 C 0.45877 0.05105 0.10477 0.0
C646 C 0.45431 0.03596 0.12237 0.0
C647 C 0.43657 0.01912 0.12163 0.0
C648 C 0.43526 1.00498 0.14251 0.0
C649 C 0.41916 1.00092 0.16261 0.0
C650 C 0.43232 0.98618 0.12978 0.0
C651 C 0.45507 0.01637 0.15499 0.0
C652 C 0.46597 0.03418 0.14312 0.0
C653 C 0.48494 0.04697 0.1512 0.0
C654 C 0.49274 0.04153 0.17231 0.0
C655 C 0.48151 0.02356 0.18513 0.0
C656 C 0.46256 1.01082 0.176 0.0
H657 H 0.42573 0.03478 0.93048 0.0
H658 H 0.41524 0.98218 0.96978 0.0
H659 H 0.43618 0.97836 0.93718 0.0
H660 H 0.42523 0.01749 0.86347 0.0
H661 H 0.44381 0.04077 0.8519 0.0
H662 H 0.42795 0.03924 0.87837 0.0
H663 H 0.45775 0.06019 0.90804 0.0
H664 H 0.4737 0.06153 0.88178 0.0
H665 H 0.47519 0.05253 0.91389 0.0
H666 H 0.45977 0.9812 0.9016 0.0
H667 H 0.48055 0.98809 0.86194 0.0
H668 H 0.47447 0.03789 0.84474 0.0
C669 C 0.42771 0.02237 0.93211 0.0
C670 C 0.41885 1.0088 0.95276 0.0
C671 C 0.42176 0.99272 0.95408 0.0
C672 C 0.43376 0.99049 0.93576 0.0
C673 C 0.44258 1.00433 0.91599 0.0
C674 C 0.43941 0.01976 0.91374 0.0
C675 C 0.45016 0.03226 0.89016 0.0
C676 C 0.43594 0.03244 0.86977 0.0
C677 C 0.46508 0.05285 0.89901 0.0
C678 C 0.45996 0.02153 0.87964 0.0
C679 C 0.45561 1.00559 0.89501 0.0
C680 C 0.4632 0.99359 0.88934 0.0
C681 C 0.4751 0.99769 0.86696 0.0
C682 C 0.47909 1.0135 0.85038 0.0
C683 C 0.47161 0.02568 0.85709 0.0
H684 H 0.99954 0.39735 0.92621 0.0
H685 H 0.05706 0.43846 0.95462 0.0
H686 H 0.05956 0.46189 0.92098 0.0
H687 H 1.011 0.40933 0.85608 0.0
H688 H 0.98745 0.40593 0.84841 0.0
H689 H 0.99016 0.3924 0.87486 0.0
H690 H 0.97389 0.40518 0.90727 0.0
H691 H 0.97142 0.41901 0.881 0.0
H692 H 0.98388 0.43087 0.91111 0.0
H693 H 0.05501 0.48176 0.88657 0.0
H694 H 0.046 0.49485 0.84826 0.0
H695 H 0.99262 0.44028 0.83948 0.0
C696 C 1.01272 0.41121 0.92514 0.0
C697 C 0.0281 0.41608 0.94309 0.0
C698 C 0.04516 0.43433 0.94098 0.0
C699 C 0.04665 0.44782 0.92208 0.0
C700 C 0.03111 0.44275 0.90507 0.0
C701 C 1.01466 0.42473 0.90593 0.0
C702 C 1.00043 0.42274 0.88453 0.0
C703 C 0.99707 0.40665 0.8648 0.0
C704 C 0.98127 0.41924 0.89672 0.0
C705 C 1.01138 0.44251 0.87176 0.0
C706 C 0.02891 0.45392 0.88424 0.0
C707 C 0.0414 0.47292 0.87649 0.0
C708 C 0.0361 0.48029 0.85491 0.0
C709 C 1.01862 0.4686 0.84109 0.0
C710 C 1.00604 0.44952 0.84981 0.0
H711 H 0.62172 0.62873 0.92959 0.0
H712 H 0.61252 0.58092 0.97975 0.0
H713 H 0.58909 0.55787 0.94759 0.0
H714 H 0.57213 0.60721 0.90291 0.0
H715 H 0.58011 0.61627 0.86989 0.0
H716 H 0.59461 0.62944 0.8981 0.0
H717 H 0.62401 0.62841 0.87814 0.0
H718 H 0.60964 0.61535 0.84986 0.0
H719 H 0.62158 0.60545 0.86918 0.0
H720 H 0.56788 0.5399 0.91001 0.0
H721 H 0.55277 0.5276 0.86652 0.0
H722 H 0.57632 0.58645 0.83848 0.0
C723 C 0.61452 0.61341 0.93382 0.0
C724 C 0.61875 0.60653 0.95719 0.0
C725 C 0.60944 0.58642 0.96192 0.0
C726 C 0.59602 0.57323 0.94388 0.0
C727 C 0.59221 0.58035 0.92094 0.0
C728 C 0.60133 0.59992 0.91557 0.0
C729 C 0.59587 0.60342 0.88814 0.0
C730 C 0.58503 0.61476 0.88987 0.0
C731 C 0.61384 0.61376 0.87028 0.0
C732 C 0.58254 0.58278 0.87895 0.0
C733 C 0.58037 0.56978 0.89847 0.0
C734 C 0.56931 0.54991 0.89459 0.0
C735 C 0.56063 0.54306 0.86984 0.0
C736 C 0.56318 0.556 0.84905 0.0
C737 C 0.57403 0.57616 0.85395 0.0
H738 H 1.00384 0.60841 0.92787 0.0
H739 H 0.06567 0.63847 0.94278 0.0
H740 H 0.06976 0.61903 0.90802 0.0
H741 H 0.99774 0.56174 0.9149 0.0
H742 H 0.98056 0.55604 0.88844 0.0
H743 H 0.98232 0.57223 0.91459 0.0
H744 H 0.98844 0.59862 0.88005 0.0
H745 H 0.98642 0.5824 0.85378 0.0
H746 H 1.0078 0.60588 0.85639 0.0
H747 H 0.06695 0.5951 0.87293 0.0
H748 H 0.05782 0.57149 0.83602 0.0
H749 H 0.99837 0.55846 0.84233 0.0
C750 C 1.01825 0.61099 0.9237 0.0
C751 C 0.03442 0.62495 0.93812 0.0
C752 C 0.05306 0.62795 0.93193 0.0
C753 C 0.05553 0.61687 0.91233 0.0
C754 C 0.03927 0.603 0.89881 0.0
C755 C 1.02103 0.60028 0.90388 0.0
C756 C 1.00605 0.58492 0.88582 0.0
C757 C 0.99077 0.56772 0.90191 0.0
C758 C 0.99663 0.59347 0.86795 0.0
C759 C 1.01868 0.57937 0.86996 0.0
C760 C 0.03776 0.58976 0.87798 0.0
C761 C 0.05207 0.58693 0.8664 0.0
C762 C 0.04678 0.57345 0.84565 0.0
C763 C 0.02745 0.56322 0.83659 0.0
C764 C 1.01324 0.56611 0.84908 0.0
H765 H 0.40571 0.41303 0.91691 0.0
H766 H 0.44524 0.40043 0.95983 0.0
H767 H 0.4707 0.41893 0.92705 0.0
H768 H 0.42242 0.40924 0.85091 0.0
H769 H 0.41957 0.42856 0.83756 0.0
H770 H 0.40424 0.41401 0.86425 0.0
H771 H 0.41478 0.44492 0.89226 0.0
H772 H 0.43027 0.45955 0.86576 0.0
H773 H 0.44014 0.46115 0.89838 0.0
H774 H 0.49267 0.44048 0.89115 0.0
H775 H 0.5084 0.46075 0.8517 0.0
H776 H 0.45448 0.45824 0.83103 0.0
C777 C 0.41965 0.41401 0.91928 0.0
C778 C 0.42341 0.40526 0.94104 0.0
C779 C 0.4419 0.40691 0.94334 0.0
C780 C 0.45654 0.41748 0.92487 0.0
C781 C 0.45249 0.42619 0.90395 0.0
C782 C 0.43443 0.42434 0.90079 0.0
C783 C 0.43385 0.43496 0.87629 0.0
C784 C 0.41915 0.42085 0.85606 0.0
C785 C 0.4295 0.4511 0.88362 0.0
C786 C 0.45442 0.44319 0.8664 0.0
C787 C 0.465 0.4381 0.88276 0.0
C788 C 0.4845 0.44443 0.87805 0.0
C789 C 0.49335 0.45602 0.85576 0.0
C790 C 0.48262 0.46094 0.83837 0.0
C791 C 0.46295 0.45451 0.84392 0.0
H792 H 0.6391 0.03032 0.92858 0.0
H793 H 0.60211 0.97073 0.95274 0.0
H794 H 0.57838 0.9668 0.91845 0.0
H795 H 0.60206 0.04113 0.91652 0.0
H796 H 0.61343 0.05592 0.88784 0.0
H797 H 0.62804 0.05386 0.91335 0.0
H798 H 0.64405 0.04227 0.87865 0.0
H799 H 0.6297 0.04457 0.85296 0.0
H800 H 0.629 0.0219 0.8577 0.0
H801 H 0.55754 0.97009 0.88328 0.0
H802 H 0.5432 0.9795 0.84668 0.0
H803 H 0.59416 0.03651 0.84555 0.0
C804 C 0.62615 0.01634 0.92645 0.0
C805 C 0.6225 1.00085 0.94341 0.0
C806 C 0.60532 0.98282 0.93993 0.0
C807 C 0.59168 0.98045 0.9206 0.0
C808 C 0.59549 0.99619 0.90473 0.0
C809 C 0.61246 1.01369 0.90717 0.0
C810 C 0.6131 0.02836 0.88772 0.0
C811 C 0.61422 0.04584 0.90224 0.0
C812 C 0.62996 0.03464 0.86809 0.0
C813 C 0.59377 0.01645 0.87416 0.0
C814 C 0.58373 0.99796 0.8843 0.0
C815 C 0.56534 0.98449 0.87506 0.0
C816 C 0.55724 0.98997 0.85448 0.0
C817 C 0.56763 1.00866 0.84335 0.0
C818 C 0.58599 0.02206 0.85362 0.0
H819 H 0.6185 0.98966 0.09507 0.0
H820 H 0.63353 0.04561 0.06229 0.0
H821 H 0.61166 0.04842 0.09427 0.0
H822 H 0.56869 0.97313 0.10754 0.0
H823 H 0.56792 0.96165 0.13855 0.0
H824 H 0.58487 0.9639 0.11324 0.0
H825 H 0.61332 0.98161 0.14626 0.0
H826 H 0.59642 0.9791 0.17178 0.0
H827 H 0.61627 1.00266 0.16363 0.0
H828 H 0.5869 0.04447 0.12836 0.0
H829 H 0.56487 0.03628 0.16679 0.0
H830 H 0.56689 0.98361 0.17842 0.0
C831 C 0.61733 1.00259 0.09478 0.0
C832 C 0.62772 0.01739 0.0761 0.0
C833 C 0.62583 0.03411 0.07647 0.0
C834 C 0.61331 0.03578 0.09442 0.0
C835 C 0.60292 0.02072 0.1121 0.0
C836 C 0.6051 1.00463 0.1128 0.0
C837 C 0.59276 0.99082 0.13442 0.0
C838 C 0.57767 0.97122 0.12273 0.0
C839 C 0.60545 0.98841 0.15526 0.0
C840 C 0.58326 1.00163 0.14565 0.0
C841 C 0.5891 0.01872 0.13226 0.0
C842 C 0.58226 0.03115 0.13905 0.0
C843 C 0.56961 0.02631 0.1607 0.0
C844 C 0.56416 1.00931 0.17543 0.0
C845 C 0.57081 0.99667 0.16742 0.0
H846 H 1.00691 0.61531 0.09173 0.0
H847 H 0.06357 0.63168 0.05968 0.0
H848 H 0.06836 0.61315 0.09474 0.0
H849 H 1.02143 0.61914 0.16084 0.0
H850 H 0.99873 0.59895 0.17135 0.0
H851 H 0.99947 0.61322 0.14334 0.0
H852 H 0.98295 0.58231 0.11431 0.0
H853 H 0.9823 0.56798 0.14219 0.0
H854 H 0.99374 0.56722 0.11173 0.0
H855 H 0.06658 0.59165 0.13178 0.0
H856 H 0.05977 0.57156 0.17197 0.0
H857 H 1.00545 0.57078 0.18222 0.0
C858 C 1.02033 0.61502 0.09219 0.0
C859 C 0.03484 0.62492 0.0729 0.0
C860 C 0.05228 0.62432 0.07429 0.0
C861 C 0.05511 0.61373 0.09405 0.0
C862 C 0.04051 0.60401 0.1126 0.0
C863 C 0.02359 0.6048 0.11219 0.0
C864 C 1.01058 0.5936 0.1352 0.0
C865 C 1.00737 0.60703 0.15378 0.0
C866 C 0.99125 0.57678 0.12525 0.0
C867 C 0.02277 0.5863 0.14837 0.0
C868 C 0.03987 0.59227 0.13479 0.0
C869 C 0.05331 0.58698 0.14271 0.0
C870 C 0.0493 0.57551 0.16541 0.0
C871 C 0.03215 0.56972 0.18006 0.0
C872 C 1.01871 0.57513 0.17134 0.0
H873 H 0.41686 0.39657 0.0953 0.0
H874 H 0.40984 0.43991 0.05299 0.0
H875 H 0.42848 0.46382 0.08754 0.0
H876 H 0.412 0.4121 0.16118 0.0
H877 H 0.4297 0.40718 0.17569 0.0
H878 H 0.41575 0.39335 0.14754 0.0
H879 H 0.44744 0.40272 0.12202 0.0
H880 H 0.46148 0.41671 0.15001 0.0
H881 H 0.46523 0.42788 0.11792 0.0
H882 H 0.44901 0.48357 0.12569 0.0
H883 H 0.46737 0.4968 0.16736 0.0
H884 H 0.46024 0.44063 0.18566 0.0
C885 C 0.41915 0.41105 0.09338 0.0
C886 C 0.41188 0.41631 0.07134 0.0
C887 C 0.41517 0.43544 0.06967 0.0
C888 C 0.42585 0.44921 0.08915 0.0
C889 C 0.43302 0.44364 0.11038 0.0
C890 C 0.42962 0.42497 0.11284 0.0
C891 C 0.43866 0.42272 0.13798 0.0
C892 C 0.4231 0.40797 0.1567 0.0
C893 C 0.45412 0.41718 0.13159 0.0
C894 C 0.44771 0.44303 0.14911 0.0
C895 C 0.44445 0.45493 0.13277 0.0
C896 C 0.45161 0.47439 0.13873 0.0
C897 C 0.46211 0.48181 0.16229 0.0
C898 C 0.46517 0.46973 0.17965 0.0
C899 C 0.45799 0.45015 0.17279 0.0
H900 H 0.70442 0.75162 0.43196 0.0
H901 H 0.64226 0.71975 0.41971 0.0
H902 H 0.63834 0.73985 0.45364 0.0
H903 H 0.70243 0.75716 0.50336 0.0
H904 H 0.72344 0.78099 0.5035 0.0
H905 H 0.72107 0.76366 0.47874 0.0
H906 H 0.72534 0.78805 0.44193 0.0
H907 H 0.72737 0.80531 0.46658 0.0
H908 H 0.70929 0.79779 0.44097 0.0
H909 H 0.64144 0.76487 0.48751 0.0
H910 H 0.65124 0.79008 0.52243 0.0
H911 H 0.71095 0.80464 0.51289 0.0
C912 C 0.68995 0.74869 0.43661 0.0
C913 C 0.67366 0.7341 0.4231 0.0
C914 C 0.65498 0.73077 0.42985 0.0
C915 C 0.65259 0.7422 0.44898 0.0
C916 C 0.66901 0.75681 0.46139 0.0
C917 C 0.68728 0.75984 0.45579 0.0
C918 C 0.70256 0.77627 0.47214 0.0
C919 C 0.71298 0.76909 0.49053 0.0
C920 C 0.71699 0.79283 0.45433 0.0
C921 C 0.69005 0.7821 0.48769 0.0
C922 C 0.67074 0.77085 0.48109 0.0
C923 C 0.65652 0.77372 0.4929 0.0
C924 C 0.66216 0.78811 0.51248 0.0
C925 C 0.68178 0.79924 0.52002 0.0
C926 C 0.69585 0.79633 0.50722 0.0
H927 H 0.28519 0.96034 0.4382 0.0
H928 H 0.30244 0.9199 0.40952 0.0
H929 H 0.28197 0.89646 0.44366 0.0
H930 H 0.28399 0.94871 0.50837 0.0
H931 H 0.26336 0.95157 0.515 0.0
H932 H 0.28003 0.96533 0.48898 0.0
H933 H 0.25161 0.95197 0.45551 0.0
H934 H 0.2349 0.93795 0.48133 0.0
H935 H 0.2364 0.92622 0.45159 0.0
H936 H 0.25768 0.87647 0.47932 0.0
H937 H 0.23455 0.86324 0.51683 0.0
H938 H 0.23395 0.91706 0.52225 0.0
C939 C 0.2849 0.94667 0.43928 0.0
C940 C 0.29545 0.942 0.42111 0.0
C941 C 0.2946 0.9239 0.42327 0.0
C942 C 0.28291 0.91042 0.44251 0.0
C943 C 0.27229 0.91531 0.45963 0.0
C944 C 0.27345 0.93313 0.45847 0.0
C945 C 0.26063 0.93486 0.47913 0.0
C946 C 0.27273 0.95108 0.49905 0.0
C947 C 0.24496 0.93793 0.4661 0.0
C948 C 0.25193 0.91517 0.49194 0.0
C949 C 0.2587 0.90401 0.48035 0.0
C950 C 0.25238 0.88514 0.48866 0.0
C951 C 0.23915 0.87768 0.50978 0.0
C952 C 0.23255 0.88915 0.5224 0.0
C953 C 0.23889 0.90803 0.51305 0.0
H954 H 0.07703 0.33762 0.43174 0.0
H955 H 0.11822 0.39422 0.40098 0.0
H956 H 0.14145 0.39785 0.43594 0.0
H957 H 0.08846 0.3501 0.50164 0.0
H958 H 0.08524 0.32676 0.50994 0.0
H959 H 0.07172 0.32902 0.48302 0.0
H960 H 0.08491 0.31267 0.45141 0.0
H961 H 0.09864 0.31056 0.47815 0.0
H962 H 0.11068 0.32278 0.44806 0.0
H963 H 0.16116 0.39425 0.47261 0.0
H964 H 0.17421 0.38513 0.51103 0.0
H965 H 0.11972 0.33153 0.51844 0.0
C966 C 0.09084 0.35089 0.43251 0.0
C967 C 0.09577 0.36563 0.41354 0.0
C968 C 0.11403 0.38276 0.41533 0.0
C969 C 0.12738 0.38492 0.43505 0.0
C970 C 0.12221 0.36992 0.45304 0.0
C971 C 0.10425 0.35338 0.45221 0.0
C972 C 0.10221 0.33943 0.47391 0.0
C973 C 0.08594 0.33614 0.49327 0.0
C974 C 0.09892 0.32023 0.46217 0.0
C975 C 0.12189 0.3506 0.4869 0.0
C976 C 0.1333 0.3681 0.47449 0.0
C977 C 0.15228 0.38065 0.48261 0.0
C978 C 0.15963 0.37532 0.50429 0.0
C979 C 0.14795 0.35769 0.5177 0.0
C980 C 0.12891 0.34518 0.50868 0.0
H981 H 0.09522 0.37247 0.25988 0.0
H982 H 0.08356 0.31854 0.29617 0.0
H983 H 0.10441 0.31516 0.26289 0.0
H984 H 0.09486 0.35694 0.19183 0.0
H985 H 0.11379 0.3804 0.1814 0.0
H986 H 0.09784 0.3784 0.20804 0.0
H987 H 0.12752 0.39811 0.23846 0.0
H988 H 0.14354 0.39992 0.21203 0.0
H989 H 0.14459 0.38989 0.24352 0.0
H990 H 0.12808 0.3186 0.22707 0.0
H991 H 0.14902 0.32624 0.18752 0.0
H992 H 0.14414 0.37711 0.17348 0.0
C993 C 0.09691 0.35985 0.26069 0.0
C994 C 0.08776 0.34578 0.28071 0.0
C995 C 0.0903 0.32945 0.28097 0.0
C996 C 0.10224 0.32747 0.26226 0.0
C997 C 0.11138 0.34182 0.24318 0.0
C998 C 0.10855 0.3575 0.24194 0.0
C999 C 0.11961 0.37059 0.21897 0.0
C1000 C 0.10569 0.37164 0.19887 0.0
C1001 C 0.13471 0.39083 0.22885 0.0
C1002 C 0.12921 0.3599 0.20762 0.0
C1003 C 0.12448 0.34347 0.22206 0.0
C1004 C 0.1318 0.33138 0.21554 0.0
C1005 C 0.14382 0.33592 0.19321 0.0
C1006 C 0.14822 0.35226 0.17752 0.0
C1007 C 0.14099 0.36451 0.18512 0.0
H1008 H 0.70489 0.747 0.26892 0.0
H1009 H 0.6516 0.73648 0.30667 0.0
H1010 H 0.64764 0.75653 0.27313 0.0
H1011 H 0.72167 0.79637 0.24788 0.0
H1012 H 0.73052 0.79349 0.21629 0.0
H1013 H 0.73009 0.77934 0.24428 0.0
H1014 H 0.70961 0.74788 0.21737 0.0
H1015 H 0.7101 0.76194 0.18928 0.0
H1016 H 0.68727 0.74349 0.2024 0.0
H1017 H 0.64934 0.77781 0.23603 0.0
H1018 H 0.65469 0.7959 0.1942 0.0
H1019 H 0.70546 0.79099 0.17835 0.0
C1020 C 0.69248 0.74905 0.27012 0.0
C1021 C 0.67858 0.74025 0.29042 0.0
C1022 C 0.66237 0.743 0.29119 0.0
C1023 C 0.66005 0.75448 0.27235 0.0
C1024 C 0.67394 0.76294 0.25258 0.0
C1025 C 0.68968 0.76016 0.25101 0.0
C1026 C 0.70168 0.76984 0.22656 0.0
C1027 C 0.72221 0.7857 0.23422 0.0
C1028 C 0.70219 0.75489 0.20779 0.0
C1029 C 0.69017 0.77841 0.21474 0.0
C1030 C 0.67442 0.77454 0.23034 0.0
C1031 C 0.66162 0.78094 0.22359 0.0
C1032 C 0.6648 0.79127 0.19994 0.0
C1033 C 0.68045 0.7948 0.18321 0.0
C1034 C 0.69338 0.78844 0.19087 0.0
H1035 H 0.30243 0.94095 0.26918 0.0
H1036 H 0.26302 0.95865 0.30075 0.0
H1037 H 0.23945 0.93998 0.26557 0.0
H1038 H 0.29176 0.94333 0.19983 0.0
H1039 H 0.29391 0.92266 0.1908 0.0
H1040 H 0.30768 0.93773 0.21821 0.0
H1041 H 0.29305 0.90774 0.24884 0.0
H1042 H 0.27907 0.89261 0.2216 0.0
H1043 H 0.26714 0.89304 0.25175 0.0
H1044 H 0.2194 0.91782 0.22794 0.0
H1045 H 0.20615 0.89683 0.18822 0.0
H1046 H 0.25912 0.89456 0.18127 0.0
C1047 C 0.28891 0.94105 0.26861 0.0
C1048 C 0.28458 0.95125 0.28778 0.0
C1049 C 0.26673 0.95103 0.28622 0.0
C1050 C 0.25319 0.94037 0.2664 0.0
C1051 C 0.25778 0.93017 0.24814 0.0
C1052 C 0.27534 0.93067 0.24885 0.0
C1053 C 0.27689 0.91867 0.22677 0.0
C1054 C 0.29354 0.93136 0.20778 0.0
C1055 C 0.27917 0.90203 0.23792 0.0
C1056 C 0.25742 0.91123 0.21362 0.0
C1057 C 0.2465 0.91786 0.22629 0.0
C1058 C 0.22787 0.91263 0.21778 0.0
C1059 C 0.22041 0.90061 0.19539 0.0
C1060 C 0.23166 0.89419 0.18174 0.0
C1061 C 0.25028 0.89941 0.19126 0.0
H1062 H 0.67696 0.9444 0.25464 0.0
H1063 H 0.73549 0.96536 0.28293 0.0
H1064 H 0.73966 0.94483 0.25 0.0
H1065 H 0.66487 0.89594 0.24341 0.0
H1066 H 0.65122 0.89299 0.21362 0.0
H1067 H 0.65301 0.90988 0.23871 0.0
H1068 H 0.66663 0.93751 0.20415 0.0
H1069 H 0.6646 0.92064 0.17886 0.0
H1070 H 0.68753 0.94215 0.18479 0.0
H1071 H 0.73665 0.92018 0.21539 0.0
H1072 H 0.72781 0.8965 0.17859 0.0
H1073 H 0.6718 0.89258 0.17276 0.0
C1074 C 0.69075 0.94489 0.25373 0.0
C1075 C 0.70588 0.95654 0.27145 0.0
C1076 C 0.72369 0.95667 0.26953 0.0
C1077 C 0.72617 0.94495 0.25097 0.0
C1078 C 0.71079 0.93328 0.23427 0.0
C1079 C 0.69354 0.93342 0.2352 0.0
C1080 C 0.6793 0.91967 0.21496 0.0
C1081 C 0.66103 0.90368 0.22849 0.0
C1082 C 0.67423 0.93065 0.19448 0.0
C1083 C 0.69115 0.91166 0.20266 0.0
C1084 C 0.70924 0.91953 0.21414 0.0
C1085 C 0.72257 0.91403 0.20615 0.0
C1086 C 0.71742 0.90049 0.18543 0.0
C1087 C 0.6992 0.89283 0.17289 0.0
C1088 C 0.68588 0.89833 0.18195 0.0
H1089 H 0.07242 0.74741 0.25951 0.0
H1090 H 0.11324 0.73534 0.29983 0.0
H1091 H 0.13815 0.75474 0.26678 0.0
H1092 H 0.08851 0.74508 0.1926 0.0
H1093 H 0.08497 0.76428 0.18046 0.0
H1094 H 0.0702 0.74916 0.20715 0.0
H1095 H 0.08053 0.77956 0.23622 0.0
H1096 H 0.09548 0.79474 0.20972 0.0
H1097 H 0.10588 0.7961 0.24189 0.0
H1098 H 0.15934 0.77691 0.23062 0.0
H1099 H 0.17409 0.79751 0.19117 0.0
H1100 H 0.11943 0.79436 0.17353 0.0
C1101 C 0.08654 0.7487 0.26126 0.0
C1102 C 0.0908 0.73982 0.28238 0.0
C1103 C 0.10951 0.7419 0.28386 0.0
C1104 C 0.12384 0.75299 0.26522 0.0
C1105 C 0.11927 0.76181 0.24498 0.0
C1106 C 0.101 0.75957 0.24263 0.0
C1107 C 0.09983 0.7704 0.21874 0.0
C1108 C 0.085 0.75639 0.19854 0.0
C1109 C 0.09516 0.78613 0.22716 0.0
C1110 C 0.1203 0.77917 0.20821 0.0
C1111 C 0.13134 0.77418 0.22375 0.0
C1112 C 0.15081 0.78084 0.21821 0.0
C1113 C 0.15911 0.79264 0.19591 0.0
C1114 C 0.14791 0.7975 0.17932 0.0
C1115 C 0.1283 0.79076 0.18578 0.0
H1116 H 0.29964 0.3637 0.26208 0.0
H1117 H 0.26733 0.30192 0.27635 0.0
H1118 H 0.24463 0.29806 0.2406 0.0
H1119 H 0.25953 0.37003 0.24768 0.0
H1120 H 0.27149 0.38729 0.22152 0.0
H1121 H 0.28546 0.38534 0.24808 0.0
H1122 H 0.30627 0.37926 0.21415 0.0
H1123 H 0.29253 0.38145 0.18747 0.0
H1124 H 0.29452 0.36004 0.1902 0.0
H1125 H 0.2242 0.30111 0.20495 0.0
H1126 H 0.21014 0.31055 0.16799 0.0
H1127 H 0.25664 0.36978 0.17534 0.0
C1128 C 0.28789 0.34935 0.25753 0.0
C1129 C 0.28526 0.33313 0.27209 0.0
C1130 C 0.26973 0.31457 0.26542 0.0
C1131 C 0.25666 0.31222 0.24525 0.0
C1132 C 0.25943 0.32853 0.23164 0.0
C1133 C 0.27486 0.34669 0.23715 0.0
C1134 C 0.27484 0.36177 0.21906 0.0
C1135 C 0.2727 0.377 0.23505 0.0
C1136 C 0.29312 0.37118 0.20169 0.0
C1137 C 0.25692 0.34928 0.20272 0.0
C1138 C 0.24808 0.33018 0.21048 0.0
C1139 C 0.23106 0.31601 0.19858 0.0
C1140 C 0.2231 0.32146 0.1778 0.0
C1141 C 0.23234 0.34082 0.16907 0.0
C1142 C 0.24934 0.35488 0.18181 0.0
H1143 H 0.30065 0.36218 0.42581 0.0
H1144 H 0.25892 0.30649 0.39278 0.0
H1145 H 0.23518 0.30306 0.42669 0.0
H1146 H 0.28804 0.34785 0.49423 0.0
H1147 H 0.29164 0.37098 0.50474 0.0
H1148 H 0.30519 0.3695 0.47716 0.0
H1149 H 0.2927 0.38744 0.44766 0.0
H1150 H 0.27898 0.38883 0.47512 0.0
H1151 H 0.26701 0.37793 0.44433 0.0
H1152 H 0.21547 0.30591 0.46325 0.0
H1153 H 0.20255 0.31321 0.50362 0.0
H1154 H 0.25742 0.36587 0.51497 0.0
C1155 C 0.28651 0.34929 0.42576 0.0
C1156 C 0.28164 0.33463 0.40657 0.0
C1157 C 0.26305 0.31787 0.40734 0.0
C1158 C 0.24939 0.31583 0.42642 0.0
C1159 C 0.25456 0.33054 0.44494 0.0
C1160 C 0.27277 0.34681 0.44509 0.0
C1161 C 0.27487 0.35997 0.46813 0.0
C1162 C 0.29088 0.3622 0.48719 0.0
C1163 C 0.27861 0.37971 0.4582 0.0
C1164 C 0.25502 0.34857 0.48074 0.0
C1165 C 0.24344 0.33178 0.4668 0.0
C1166 C 0.22442 0.31899 0.47441 0.0
C1167 C 0.21716 0.32328 0.49722 0.0
C1168 C 0.22899 0.34006 0.5123 0.0
C1169 C 0.2481 0.35291 0.50377 0.0
H1170 H 0.71405 0.9665 0.42347 0.0
H1171 H 0.65902 0.92401 0.38947 0.0
H1172 H 0.65598 0.90042 0.42336 0.0
H1173 H 0.73119 0.93448 0.4398 0.0
H1174 H 0.74207 0.94616 0.47075 0.0
H1175 H 0.73988 0.95991 0.44415 0.0
H1176 H 0.72117 0.97091 0.47499 0.0
H1177 H 0.72358 0.95744 0.5018 0.0
H1178 H 0.69996 0.953 0.4922 0.0
H1179 H 0.65985 0.88083 0.45962 0.0
H1180 H 0.66815 0.86826 0.49926 0.0
H1181 H 0.71999 0.92387 0.51037 0.0
C1182 C 0.70126 0.95229 0.42328 0.0
C1183 C 0.68679 0.94711 0.40374 0.0
C1184 C 0.67025 0.92838 0.4043 0.0
C1185 C 0.66846 0.91482 0.42336 0.0
C1186 C 0.68321 0.92026 0.44193 0.0
C1187 C 0.69911 0.93867 0.44236 0.0
C1188 C 0.7127 0.94103 0.46484 0.0
C1189 C 0.73264 0.94566 0.45424 0.0
C1190 C 0.71444 0.95651 0.48463 0.0
C1191 C 0.70202 0.92104 0.47688 0.0
C1192 C 0.68516 0.90919 0.46321 0.0
C1193 C 0.67298 0.89001 0.47054 0.0
C1194 C 0.67789 0.88294 0.4929 0.0
C1195 C 0.6947 0.89508 0.50779 0.0
C1196 C 0.70703 0.91428 0.49935 0.0
H1197 H 0.08605 0.7317 0.43586 0.0
H1198 H 0.07499 0.77294 0.39498 0.0
H1199 H 0.09406 0.79759 0.42854 0.0
H1200 H 0.08266 0.74744 0.50247 0.0
H1201 H 0.10155 0.74372 0.51549 0.0
H1202 H 0.08693 0.7292 0.48821 0.0
H1203 H 0.11793 0.73958 0.46046 0.0
H1204 H 0.13263 0.75429 0.48756 0.0
H1205 H 0.1347 0.76491 0.45541 0.0
H1206 H 0.11564 0.81847 0.46548 0.0
H1207 H 0.13523 0.83278 0.50599 0.0
H1208 H 0.1314 0.77795 0.52381 0.0
C1209 C 0.08751 0.74586 0.43407 0.0
C1210 C 0.07898 0.7503 0.41266 0.0
C1211 C 0.08127 0.76906 0.41117 0.0
C1212 C 0.09219 0.78326 0.43009 0.0
C1213 C 0.10064 0.77852 0.45065 0.0
C1214 C 0.09821 0.76021 0.45302 0.0
C1215 C 0.10853 0.75882 0.47741 0.0
C1216 C 0.09405 0.74391 0.49706 0.0
C1217 C 0.12439 0.75412 0.46974 0.0
C1218 C 0.11719 0.77921 0.48823 0.0
C1219 C 0.11263 0.79041 0.47236 0.0
C1220 C 0.11923 0.80981 0.47814 0.0
C1221 C 0.13046 0.81787 0.50105 0.0
C1222 C 0.1348 0.80649 0.51801 0.0
C1223 C 0.1282 0.78696 0.51127 0.0
H1224 H 0.33347 0.06444 0.76382 0.0
H1225 H 0.38765 0.10382 0.72504 0.0
H1226 H 0.3928 0.12945 0.75666 0.0
H1227 H 0.31892 0.09944 0.78073 0.0
H1228 H 0.30959 0.08928 0.8129 0.0
H1229 H 0.3094 0.07401 0.78641 0.0
H1230 H 0.32867 0.06289 0.81563 0.0
H1231 H 0.32877 0.07799 0.84225 0.0
H1232 H 0.35126 0.08073 0.83016 0.0
H1233 H 0.39206 0.15117 0.79169 0.0
H1234 H 0.38728 0.16634 0.83168 0.0
H1235 H 0.33489 0.11273 0.84995 0.0
C1236 C 0.34637 0.07847 0.76203 0.0
C1237 C 0.36013 0.08212 0.74193 0.0
C1238 C 0.37696 0.10062 0.74037 0.0
C1239 C 0.37997 0.11536 0.75812 0.0
C1240 C 0.36616 0.11137 0.77764 0.0
C1241 C 0.34985 0.09332 0.78005 0.0
C1242 C 0.33795 0.09264 0.80393 0.0
C1243 C 0.31777 0.08861 0.79547 0.0
C1244 C 0.33659 0.07768 0.82419 0.0
C1245 C 0.35014 0.11309 0.81442 0.0
C1246 C 0.36618 0.12372 0.79868 0.0
C1247 C 0.37957 0.143 0.80424 0.0
C1248 C 0.3767 0.15153 0.82684 0.0
C1249 C 0.36074 0.14071 0.84375 0.0
C1250 C 0.34722 0.1213 0.83727 0.0
H1251 H 0.9749 0.28214 0.76952 0.0
H1252 H 0.93405 0.29292 0.72676 0.0
H1253 H 0.90869 0.27322 0.75898 0.0
H1254 H 0.94164 0.23319 0.78801 0.0
H1255 H 0.95158 0.23527 0.8207 0.0
H1256 H 0.96682 0.25016 0.79417 0.0
H1257 H 0.9762 0.28093 0.82194 0.0
H1258 H 0.96116 0.26613 0.84866 0.0
H1259 H 0.95742 0.28484 0.83511 0.0
H1260 H 0.88715 0.25124 0.7946 0.0
H1261 H 0.87207 0.2316 0.83474 0.0
H1262 H 0.92689 0.23626 0.85583 0.0
C1263 C 0.96065 0.28043 0.76704 0.0
C1264 C 0.95653 0.28909 0.74552 0.0
C1265 C 0.93768 0.28655 0.74309 0.0
C1266 C 0.92308 0.27527 0.76122 0.0
C1267 C 0.92751 0.26673 0.78194 0.0
C1268 C 0.9459 0.26942 0.78526 0.0
C1269 C 0.9469 0.25913 0.80988 0.0
C1270 C 0.95204 0.24351 0.80275 0.0
C1271 C 0.96127 0.27362 0.83009 0.0
C1272 C 0.92622 0.25021 0.8197 0.0
C1273 C 0.91521 0.25458 0.8031 0.0
C1274 C 0.89563 0.24778 0.80784 0.0
C1275 C 0.88715 0.23655 0.83052 0.0
C1276 C 0.89833 0.23247 0.84826 0.0
C1277 C 0.91805 0.23925 0.84257 0.0
H1278 H 0.74629 0.66508 0.76398 0.0
H1279 H 0.78579 0.723 0.73573 0.0
H1280 H 0.80905 0.727 0.77082 0.0
H1281 H 0.75633 0.6762 0.83408 0.0
H1282 H 0.75425 0.65321 0.84154 0.0
H1283 H 0.74065 0.65522 0.81451 0.0
H1284 H 0.75568 0.64084 0.78254 0.0
H1285 H 0.76948 0.63898 0.80941 0.0
H1286 H 0.78163 0.6522 0.77994 0.0
H1287 H 0.82894 0.72389 0.80783 0.0
H1288 H 0.84209 0.71496 0.84644 0.0
H1289 H 0.78911 0.65967 0.85073 0.0
C1290 C 0.75975 0.67868 0.76528 0.0
C1291 C 0.76418 0.69371 0.74703 0.0
C1292 C 0.78198 0.71129 0.74953 0.0
C1293 C 0.79536 0.71368 0.76932 0.0
C1294 C 0.79068 0.69843 0.78666 0.0
C1295 C 0.77317 0.68138 0.78505 0.0
C1296 C 0.77153 0.66727 0.8062 0.0
C1297 C 0.75469 0.66271 0.82521 0.0
C1298 C 0.76946 0.64873 0.79377 0.0
C1299 C 0.79089 0.67896 0.81983 0.0
C1300 C 0.80184 0.69685 0.8082 0.0
C1301 C 0.82043 0.70997 0.8172 0.0
C1302 C 0.82783 0.70477 0.83897 0.0
C1303 C 0.81655 0.68672 0.85156 0.0
C1304 C 0.79796 0.67365 0.8416 0.0
H1305 H 0.764 0.70328 0.59513 0.0
H1306 H 0.74522 0.64542 0.62384 0.0
H1307 H 0.76381 0.64089 0.58815 0.0
H1308 H 0.76181 0.69152 0.52493 0.0
H1309 H 0.78279 0.71435 0.51687 0.0
H1310 H 0.76759 0.71271 0.54433 0.0
H1311 H 0.79742 0.72711 0.57544 0.0
H1312 H 0.81266 0.72857 0.54816 0.0
H1313 H 0.81181 0.71554 0.57769 0.0
H1314 H 0.78625 0.64347 0.55056 0.0
H1315 H 0.80762 0.65176 0.51119 0.0
H1316 H 0.81071 0.70738 0.50672 0.0
C1317 C 0.76362 0.68957 0.59379 0.0
C1318 C 0.75315 0.67473 0.61237 0.0
C1319 C 0.75303 0.657 0.6098 0.0
C1320 C 0.76365 0.65431 0.58967 0.0
C1321 C 0.77416 0.66941 0.57206 0.0
C1322 C 0.77396 0.68657 0.57367 0.0
C1323 C 0.78627 0.70046 0.55214 0.0
C1324 C 0.77387 0.70502 0.53347 0.0
C1325 C 0.80303 0.71901 0.56408 0.0
C1326 C 0.79358 0.68851 0.53831 0.0
C1327 C 0.78659 0.67069 0.55017 0.0
C1328 C 0.7917 0.65734 0.54102 0.0
C1329 C 0.80394 0.6622 0.51883 0.0
C1330 C 0.81073 0.68015 0.50596 0.0
C1331 C 0.80561 0.69349 0.5161 0.0
H1332 H 0.33133 0.064 0.60045 0.0
H1333 H 0.39319 0.09383 0.61526 0.0
H1334 H 0.39794 0.11845 0.58219 0.0
H1335 H 0.33547 0.07284 0.52904 0.0
H1336 H 0.31443 0.07562 0.52791 0.0
H1337 H 0.31609 0.06023 0.55248 0.0
H1338 H 0.31055 0.07959 0.5894 0.0
H1339 H 0.30927 0.09528 0.56497 0.0
H1340 H 0.32651 0.10533 0.59168 0.0
H1341 H 0.39578 0.1411 0.5495 0.0
H1342 H 0.38724 0.15711 0.51422 0.0
H1343 H 0.32727 0.11182 0.5194 0.0
C1344 C 0.3459 0.07557 0.59649 0.0
C1345 C 0.36187 0.07698 0.61051 0.0
C1346 C 0.38072 0.09234 0.60468 0.0
C1347 C 0.38357 0.10652 0.58609 0.0
C1348 C 0.36747 0.10502 0.5732 0.0
C1349 C 0.34906 0.0897 0.57769 0.0
C1350 C 0.33428 0.09118 0.56059 0.0
C1351 C 0.3245 0.07395 0.54137 0.0
C1352 C 0.31927 0.09295 0.57769 0.0
C1353 C 0.34724 0.1098 0.54603 0.0
C1354 C 0.36631 0.11772 0.5538 0.0
C1355 C 0.38091 0.135 0.54316 0.0
C1356 C 0.37595 0.14409 0.52339 0.0
C1357 C 0.35664 0.13571 0.51442 0.0
C1358 C 0.34211 0.11855 0.52618 0.0
H1359 H 0.95869 0.29972 0.59227 0.0
H1360 H 0.96855 0.2578 0.63354 0.0
H1361 H 0.9486 0.23305 0.60065 0.0
H1362 H 0.90951 0.26733 0.57324 0.0
H1363 H 0.91182 0.27778 0.5409 0.0
H1364 H 0.9268 0.29248 0.56782 0.0
H1365 H 0.95758 0.30183 0.54006 0.0
H1366 H 0.94268 0.28734 0.51296 0.0
H1367 H 0.96117 0.28305 0.52614 0.0
H1368 H 0.92658 0.2123 0.56439 0.0
H1369 H 0.9071 0.19813 0.52376 0.0
H1370 H 0.9126 0.25352 0.50481 0.0
C1371 C 0.95673 0.28537 0.5943 0.0
C1372 C 0.96519 0.28076 0.61557 0.0
C1373 C 0.96232 0.26179 0.6174 0.0
C1374 C 0.95089 0.24754 0.5989 0.0
C1375 C 0.94254 0.25245 0.57843 0.0
C1376 C 0.94555 0.27096 0.57572 0.0
C1377 C 0.93541 0.27252 0.55127 0.0
C1378 C 0.91997 0.27784 0.55877 0.0
C1379 C 0.95009 0.28704 0.53144 0.0
C1380 C 0.92624 0.25201 0.54081 0.0
C1381 C 0.93033 0.2406 0.55696 0.0
C1382 C 0.92332 0.22109 0.55151 0.0
C1383 C 0.91218 0.21313 0.52856 0.0
C1384 C 0.9084 0.22474 0.51129 0.0
C1385 C 0.91535 0.24435 0.51772 0.0
H1386 H 0.37359 0.30023 0.59227 0.0
H1387 H 0.31955 0.26062 0.63133 0.0
H1388 H 0.31474 0.23495 0.60006 0.0
H1389 H 0.35632 0.28268 0.52541 0.0
H1390 H 0.37918 0.28576 0.5144 0.0
H1391 H 0.37854 0.30115 0.54004 0.0
H1392 H 0.398 0.29126 0.57094 0.0
H1393 H 0.3985 0.27565 0.54549 0.0
H1394 H 0.38892 0.26605 0.5778 0.0
H1395 H 0.31626 0.21293 0.566 0.0
H1396 H 0.32209 0.19731 0.52743 0.0
H1397 H 0.37415 0.25115 0.50888 0.0
C1398 C 0.36069 0.2862 0.59411 0.0
C1399 C 0.34699 0.28251 0.61438 0.0
C1400 C 0.33025 0.26393 0.61598 0.0
C1401 C 0.32741 0.24915 0.59839 0.0
C1402 C 0.3413 0.25314 0.57899 0.0
C1403 C 0.35743 0.27128 0.57638 0.0
C1404 C 0.36976 0.27179 0.55313 0.0
C1405 C 0.37102 0.2862 0.53199 0.0
C1406 C 0.38999 0.27646 0.56241 0.0
C1407 C 0.35808 0.25112 0.54329 0.0
C1408 C 0.34184 0.24054 0.55871 0.0
C1409 C 0.32889 0.22106 0.55369 0.0
C1410 C 0.33239 0.21226 0.53192 0.0
C1411 C 0.34857 0.223 0.51528 0.0
C1412 C 0.36166 0.24262 0.5213 0.0
H1413 H 0.76127 0.07372 0.59157 0.0
H1414 H 0.74566 0.11411 0.62524 0.0
H1415 H 0.76456 0.13773 0.59031 0.0
H1416 H 0.80947 0.10796 0.57445 0.0
H1417 H 0.80939 0.09616 0.54391 0.0
H1418 H 0.79405 0.08221 0.57092 0.0
H1419 H 0.764 0.06884 0.54031 0.0
H1420 H 0.77928 0.0826 0.51312 0.0
H1421 H 0.75906 0.08545 0.52258 0.0
H1422 H 0.78704 0.15779 0.55263 0.0
H1423 H 0.80847 0.17103 0.5133 0.0
H1424 H 0.80849 0.11709 0.50467 0.0
C1425 C 0.76163 0.08744 0.5915 0.0
C1426 C 0.75196 0.09202 0.61122 0.0
C1427 C 0.75286 0.11019 0.61031 0.0
C1428 C 0.76364 0.12376 0.59061 0.0
C1429 C 0.77333 0.1189 0.5718 0.0
C1430 C 0.77219 0.10106 0.57193 0.0
C1431 C 0.78389 0.09931 0.54958 0.0
C1432 C 0.80016 0.09623 0.56037 0.0
C1433 C 0.77077 0.08309 0.53025 0.0
C1434 C 0.79192 0.11899 0.53696 0.0
C1435 C 0.78581 0.13018 0.55007 0.0
C1436 C 0.79179 0.14908 0.54212 0.0
C1437 C 0.80403 0.15653 0.51992 0.0
C1438 C 0.80997 0.14503 0.50589 0.0
C1439 C 0.80396 0.12612 0.51482 0.0
H1440 H 0.95424 0.66267 0.58359 0.0
H1441 H 0.96796 0.71557 0.62546 0.0
H1442 H 0.94918 0.72222 0.5928 0.0
H1443 H 0.95754 0.68229 0.51726 0.0
H1444 H 0.93795 0.66004 0.50438 0.0
H1445 H 0.95271 0.6595 0.53097 0.0
H1446 H 0.92195 0.63969 0.55945 0.0
H1447 H 0.90713 0.64036 0.53307 0.0
H1448 H 0.90595 0.6491 0.56561 0.0
H1449 H 0.92738 0.72236 0.55712 0.0
H1450 H 0.90725 0.7178 0.51747 0.0
H1451 H 0.90874 0.66574 0.49764 0.0
C1452 C 0.95344 0.67573 0.58575 0.0
C1453 C 0.96258 0.68855 0.60719 0.0
C1454 C 0.96119 0.70552 0.60921 0.0
C1455 C 0.95045 0.70941 0.59082 0.0
C1456 C 0.94132 0.69632 0.57026 0.0
C1457 C 0.94297 0.68 0.56731 0.0
C1458 C 0.93202 0.66852 0.54305 0.0
C1459 C 0.94588 0.66754 0.52271 0.0
C1460 C 0.9158 0.64822 0.55077 0.0
C1461 C 0.92385 0.68086 0.53305 0.0
C1462 C 0.92923 0.69673 0.54918 0.0
C1463 C 0.92316 0.71004 0.54423 0.0
C1464 C 0.91162 0.70728 0.52184 0.0
C1465 C 0.90648 0.69145 0.5046 0.0
C1466 C 0.91255 0.67801 0.51049 0.0
H1467 H 0.97082 0.69284 0.76184 0.0
H1468 H 0.927 0.6431 0.71859 0.0
H1469 H 0.90286 0.63853 0.7524 0.0
H1470 H 0.95408 0.67249 0.82725 0.0
H1471 H 0.95945 0.6952 0.842 0.0
H1472 H 0.97341 0.6948 0.81416 0.0
H1473 H 0.96513 0.71779 0.78854 0.0
H1474 H 0.95102 0.71813 0.81622 0.0
H1475 H 0.94016 0.71109 0.78383 0.0
H1476 H 0.88303 0.63973 0.78998 0.0
H1477 H 0.86969 0.64488 0.83151 0.0
H1478 H 0.92625 0.69301 0.85137 0.0
C1479 C 0.95617 0.68096 0.75955 0.0
C1480 C 0.95086 0.66838 0.73747 0.0
C1481 C 0.93152 0.65293 0.73532 0.0
C1482 C 0.91762 0.65024 0.75437 0.0
C1483 C 0.92325 0.66299 0.77568 0.0
C1484 C 0.9421 0.67789 0.77862 0.0
C1485 C 0.94437 0.68916 0.80389 0.0
C1486 C 0.95867 0.68783 0.82295 0.0
C1487 C 0.95053 0.71029 0.79774 0.0
C1488 C 0.92386 0.67829 0.81452 0.0
C1489 C 0.91187 0.66336 0.7978 0.0
C1490 C 0.89227 0.65135 0.80329 0.0
C1491 C 0.88478 0.65446 0.82679 0.0
C1492 C 0.89692 0.66933 0.84457 0.0
C1493 C 0.91667 0.68148 0.83815 0.0
H1494 H 0.33687 0.28619 0.76914 0.0
H1495 H 0.38377 0.28851 0.72249 0.0
H1496 H 0.38601 0.26597 0.75328 0.0
H1497 H 0.35776 0.28529 0.83296 0.0
H1498 H 0.33472 0.26929 0.84807 0.0
H1499 H 0.33629 0.28528 0.8219 0.0
H1500 H 0.31035 0.25599 0.79532 0.0
H1501 H 0.30889 0.23988 0.82127 0.0
H1502 H 0.31424 0.23613 0.78779 0.0
H1503 H 0.38259 0.24226 0.78756 0.0
H1504 H 0.37705 0.22253 0.8276 0.0
H1505 H 0.33384 0.23659 0.85437 0.0
C1506 C 0.34765 0.28201 0.76554 0.0
C1507 C 0.36011 0.28913 0.74332 0.0
C1508 C 0.37413 0.2834 0.73941 0.0
C1509 C 0.37543 0.27045 0.75668 0.0
C1510 C 0.36282 0.26348 0.77811 0.0
C1511 C 0.34947 0.26933 0.78302 0.0
C1512 C 0.3384 0.26032 0.80842 0.0
C1513 C 0.34201 0.27598 0.82906 0.0
C1514 C 0.31668 0.24731 0.80286 0.0
C1515 C 0.34759 0.24849 0.81681 0.0
C1516 C 0.36141 0.25031 0.79874 0.0
C1517 C 0.37183 0.24074 0.80192 0.0
C1518 C 0.36846 0.22942 0.8246 0.0
C1519 C 0.35496 0.22794 0.84401 0.0
C1520 C 0.34422 0.23743 0.83982 0.0
H1521 H 0.74599 0.08784 0.76346 0.0
H1522 H 0.78575 0.07174 0.72878 0.0
H1523 H 0.80957 0.08998 0.76396 0.0
H1524 H 0.78078 0.13555 0.78164 0.0
H1525 H 0.76911 0.13532 0.81235 0.0
H1526 H 0.75496 0.12041 0.78506 0.0
H1527 H 0.74121 0.09002 0.81487 0.0
H1528 H 0.75515 0.10487 0.84235 0.0
H1529 H 0.75765 0.0846 0.8322 0.0
H1530 H 0.82994 0.1119 0.80206 0.0
H1531 H 0.84341 0.13271 0.842 0.0
H1532 H 0.78983 0.13349 0.85135 0.0
C1533 C 0.75962 0.08795 0.76336 0.0
C1534 C 0.76397 0.07835 0.74329 0.0
C1535 C 0.78201 0.07889 0.74399 0.0
C1536 C 0.79569 0.08931 0.76383 0.0
C1537 C 0.79107 0.09897 0.78297 0.0
C1538 C 0.77333 0.09812 0.78307 0.0
C1539 C 0.7718 0.10966 0.8058 0.0
C1540 C 0.769 0.12622 0.79559 0.0
C1541 C 0.75549 0.0965 0.82493 0.0
C1542 C 0.79148 0.11728 0.81838 0.0
C1543 C 0.8025 0.1111 0.80493 0.0
C1544 C 0.82136 0.1167 0.81284 0.0
C1545 C 0.82895 0.12859 0.83538 0.0
C1546 C 0.8176 0.13454 0.84976 0.0
C1547 C 0.79874 0.12895 0.84085 0.0
H1548 H 0.09982 0.40353 0.04213 0.0
H1549 H 0.05963 0.34669 0.01106 0.0
H1550 H 0.08271 0.33562 0.02243 0.0
H1551 H 0.14528 0.40494 0.02348 0.0
H1552 H 0.15706 0.41673 0.05397 0.0
H1553 H 0.13872 0.42089 0.03992 0.0
H1554 H 0.11932 0.41014 0.0839 0.0
H1555 H 0.13772 0.40625 0.0981 0.0
H1556 H 0.11293 0.38692 0.09769 0.0
H1557 H 0.10912 0.33007 0.04092 0.0
H1558 H 0.13421 0.32956 0.06928 0.0
H1559 H 0.15636 0.38965 0.08925 0.0
C1560 C 0.09604 0.38887 0.03716 0.0
C1561 C 0.07803 0.37603 0.02538 0.0
C1562 C 0.0734 0.3568 0.01993 0.0
C1563 C 0.08648 0.35044 0.02616 0.0
C1564 C 0.1041 0.36345 0.03795 0.0
C1565 C 0.10878 0.38223 0.0436 0.0
C1566 C 0.1275 0.39276 0.05908 0.0
C1567 C 0.14306 0.40984 0.04315 0.0
C1568 C 0.12416 0.39939 0.0863 0.0
C1569 C 0.13247 0.37688 0.06183 0.0
C1570 C 0.11905 0.36018 0.04903 0.0
C1571 C 0.11989 0.34317 0.05057 0.0
C1572 C 0.13429 0.34302 0.06646 0.0
C1573 C 0.14749 0.35971 0.08073 0.0
C1574 C 0.14686 0.37693 0.07772 0.0
H1575 H 0.63574 0.69755 0.04716 0.0
H1576 H 0.69284 0.71115 0.02047 0.0
H1577 H 0.70531 0.74556 0.03163 0.0
H1578 H 0.63802 0.743 0.02633 0.0
H1579 H 0.6254 0.74379 0.05554 0.0
H1580 H 0.62047 0.72086 0.04203 0.0
H1581 H 0.62849 0.71139 0.08741 0.0
H1582 H 0.63317 0.73412 0.10103 0.0
H1583 H 0.65147 0.72724 0.10285 0.0
H1584 H 0.7122 0.77808 0.05017 0.0
H1585 H 0.71321 0.80442 0.07756 0.0
H1586 H 0.6518 0.76933 0.09225 0.0
C1587 C 0.65078 0.70781 0.04308 0.0
C1588 C 0.66326 0.70164 0.03266 0.0
C1589 C 0.68296 0.71552 0.02828 0.0
C1590 C 0.69015 0.73513 0.03444 0.0
C1591 C 0.67748 0.7407 0.04496 0.0
C1592 C 0.6582 0.72737 0.04933 0.0
C1593 C 0.64797 0.73653 0.06335 0.0
C1594 C 0.63202 0.73601 0.04575 0.0
C1595 C 0.63981 0.72674 0.09025 0.0
C1596 C 0.66457 0.757 0.06685 0.0
C1597 C 0.68143 0.75928 0.05571 0.0
C1598 C 0.69899 0.77655 0.05845 0.0
C1599 C 0.69944 0.79153 0.07378 0.0
C1600 C 0.68247 0.78908 0.08623 0.0
C1601 C 0.66479 0.7718 0.08205 0.0
H1602 H 0.33779 0.94271 0.05976 0.0
H1603 H 0.31711 0.97302 0.01063 0.0
H1604 H 0.28331 0.94772 0.01997 0.0
H1605 H 0.2992 0.89293 0.045 0.0
H1606 H 0.29828 0.8852 0.07875 0.0
H1607 H 0.32069 0.90411 0.06523 0.0
H1608 H 0.32334 0.92701 0.10358 0.0
H1609 H 0.30118 0.90808 0.11735 0.0
H1610 H 0.30345 0.93115 0.10982 0.0
H1611 H 0.25163 0.9203 0.03775 0.0
H1612 H 0.22571 0.89625 0.06673 0.0
H1613 H 0.2673 0.88473 0.10516 0.0
C1614 C 0.32616 0.94383 0.05051 0.0
C1615 C 0.33009 0.95972 0.03417 0.0
C1616 C 0.31444 0.96093 0.02308 0.0
C1617 C 0.2952 0.94654 0.02813 0.0
C1618 C 0.29182 0.93108 0.04444 0.0
C1619 C 0.30692 0.92979 0.05569 0.0
C1620 C 0.29957 0.91307 0.07492 0.0
C1621 C 0.30474 0.89793 0.0654 0.0
C1622 C 0.30734 0.92026 0.10307 0.0
C1623 C 0.27798 0.90536 0.07325 0.0
C1624 C 0.27371 0.91563 0.05512 0.0
C1625 C 0.2548 0.91197 0.05165 0.0
C1626 C 0.24011 0.89813 0.06795 0.0
C1627 C 0.24446 0.88834 0.08763 0.0
C1628 C 0.26351 0.89158 0.08963 0.0
H1629 H 0.40811 0.09568 0.98252 0.0
H1630 H 0.35145 0.05151 0.00942 0.0
H1631 H 0.33806 0.07248 -0.00276 0.0
H1632 H 0.4042 0.1382 0.00231 0.0
H1633 H 0.41674 0.1515 0.97308 0.0
H1634 H 0.42229 0.1341 0.98707 0.0
H1635 H 0.41497 0.11618 0.94192 0.0
H1636 H 0.40973 0.13366 0.92782 0.0
H1637 H 0.39195 0.10833 0.92615 0.0
H1638 H 0.3302 0.09698 0.9773 0.0
H1639 H 0.32843 0.12129 0.94882 0.0
H1640 H 0.39014 0.14934 0.93566 0.0
C1641 C 0.39295 0.09053 0.98637 0.0
C1642 C 0.38087 0.07197 -0.00285 0.0
C1643 C 0.36103 0.0657 0.00133 0.0
C1644 C 0.35332 0.07757 0.99459 0.0
C1645 C 0.36562 0.09574 0.98377 0.0
C1646 C 0.38503 0.10214 0.97966 0.0
C1647 C 0.39485 0.12139 0.96544 0.0
C1648 C 0.41044 0.13723 0.98304 0.0
C1649 C 0.40336 0.11978 0.93876 0.0
C1650 C 0.37787 0.12463 0.96151 0.0
C1651 C 0.36115 0.10985 0.97256 0.0
C1652 C 0.34329 0.10885 0.96917 0.0
C1653 C 0.34241 0.12282 0.95323 0.0
C1654 C 0.35926 0.13755 0.94094 0.0
C1655 C 0.37723 0.13873 0.94585 0.0
H1656 H 0.94403 0.32478 0.988 0.0
H1657 H 0.98876 0.31239 0.0124 0.0
H1658 H 0.96731 0.27795 0.00094 0.0
H1659 H 0.90148 0.2782 0.00857 0.0
H1660 H 0.8878 0.27751 0.97979 0.0
H1661 H 0.90539 0.3004 0.99387 0.0
H1662 H 0.92273 0.31113 0.9484 0.0
H1663 H 0.90508 0.28844 0.93423 0.0
H1664 H 0.93044 0.29607 0.93192 0.0
H1665 H 0.94245 0.24564 0.98143 0.0
H1666 H 0.91795 0.21973 0.95275 0.0
H1667 H 0.88972 0.25332 0.94119 0.0
C1668 C 0.94916 0.31475 0.99161 0.0
C1669 C 0.96803 0.32128 0.00139 0.0
C1670 C 0.97432 0.30773 0.00511 0.0
C1671 C 0.96219 0.2881 -0.00122 0.0
C1672 C 0.94374 0.28219 0.98879 0.0
C1673 C 0.9373 0.29519 0.98519 0.0
C1674 C 0.91786 0.28579 0.97135 0.0
C1675 C 0.90221 0.28546 0.98949 0.0
C1676 C 0.91912 0.29596 0.94492 0.0
C1677 C 0.91458 0.26562 0.96694 0.0
C1678 C 0.92947 0.26366 0.97757 0.0
C1679 C 0.93049 0.24687 0.97364 0.0
C1680 C 0.91641 0.23212 0.95757 0.0
C1681 C 0.90162 0.2343 0.94562 0.0
C1682 C 0.90041 0.25099 0.95109 0.0
H1683 H 0.72784 0.66656 0.99275 0.0
H1684 H 0.70817 0.60667 0.01171 0.0
H1685 H 0.73973 0.61099 -0.00227 0.0
H1686 H 0.75129 0.66748 0.93456 0.0
H1687 H 0.77105 0.69185 0.93839 0.0
H1688 H 0.74811 0.6848 0.95365 0.0
H1689 H 0.765 0.69599 -0.00065 0.0
H1690 H 0.78803 0.70295 0.98416 0.0
H1691 H 0.77961 0.68628 0.01152 0.0
H1692 H 0.77201 0.62069 0.97646 0.0
H1693 H 0.80102 0.63453 0.94759 0.0
H1694 H 0.79996 0.68811 0.94346 0.0
C1695 C 0.73035 0.65449 0.99459 0.0
C1696 C 0.71554 0.63631 0.00351 0.0
C1697 C 0.71929 0.62077 0.00504 0.0
C1698 C 0.73724 0.6231 -0.00273 0.0
C1699 C 0.75142 0.64111 0.98811 0.0
C1700 C 0.74818 0.65656 0.9868 0.0
C1701 C 0.76503 0.67383 0.97377 0.0
C1702 C 0.75847 0.67983 0.94861 0.0
C1703 C 0.77501 0.69076 0.99338 0.0
C1704 C 0.77792 0.66549 0.96713 0.0
C1705 C 0.77002 0.6467 0.97593 0.0
C1706 C 0.77853 0.63553 0.96994 0.0
C1707 C 0.7951 0.64352 0.9537 0.0
C1708 C 0.80281 0.66241 0.94348 0.0
C1709 C 0.79449 0.67369 0.95125 0.0
H1710 H 0.9853 0.67714 0.97748 0.0
H1711 H 0.94653 0.62444 0.01932 0.0
H1712 H 0.91908 0.62946 0.00926 0.0
H1713 H 0.9598 0.70468 0.99344 0.0
H1714 H 0.96408 0.71496 0.96069 0.0
H1715 H 0.98122 0.70932 0.97543 0.0
H1716 H 0.97817 0.68802 0.9348 0.0
H1717 H 0.96121 0.69373 0.91995 0.0
H1718 H 0.95457 0.66887 0.925 0.0
H1719 H 0.89521 0.63789 0.98987 0.0
H1720 H 0.877 0.64714 0.95931 0.0
H1721 H 0.931 0.69401 0.92945 0.0
C1722 C 0.97113 0.66701 0.98523 0.0
C1723 C 0.9681 0.65055 -0.00049 0.0
C1724 C 0.94922 0.63724 0.00852 0.0
C1725 C 0.93355 0.64004 0.00304 0.0
C1726 C 0.93692 0.6562 0.98842 0.0
C1727 C 0.95526 0.66944 0.97955 0.0
C1728 C 0.95463 0.68413 0.96128 0.0
C1729 C 0.96559 0.70448 0.97345 0.0
C1730 C 0.96261 0.68364 0.93363 0.0
C1731 C 0.93304 0.67669 0.96046 0.0
C1732 C 0.92308 0.66085 0.97675 0.0
C1733 C 0.90288 0.6505 0.97744 0.0
C1734 C 0.89261 0.65594 0.96018 0.0
C1735 C 0.90257 0.67139 0.94223 0.0
C1736 C 0.92302 0.68233 0.94329 0.0
H1737 H 0.35562 0.30893 0.98542 0.0
H1738 H 0.40889 0.32207 0.02539 0.0
H1739 H 0.40429 0.29033 0.01197 0.0
H1740 H 0.32897 0.25538 -0.00166 0.0
H1741 H 0.31797 0.25026 0.96595 0.0
H1742 H 0.32359 0.2724 0.98274 0.0
H1743 H 0.34379 0.29205 0.94225 0.0
H1744 H 0.33825 0.27004 0.92542 0.0
H1745 H 0.3631 0.28851 0.93028 0.0
H1746 H 0.39657 0.25936 0.98831 0.0
H1747 H 0.38686 0.23286 0.95572 0.0
H1748 H 0.3382 0.23934 0.93227 0.0
C1749 C 0.36597 0.30487 0.99212 0.0
C1750 C 0.38253 0.31796 0.00668 0.0
C1751 C 0.39602 0.31227 0.01439 0.0
C1752 C 0.39349 0.2942 0.00692 0.0
C1753 C 0.37731 0.28184 0.99187 0.0
C1754 C 0.36369 0.2869 0.98472 0.0
C1755 C 0.34875 0.27202 0.96612 0.0
C1756 C 0.32863 0.26191 0.97907 0.0
C1757 C 0.34847 0.28121 0.93945 0.0
C1758 C 0.35653 0.25828 0.96303 0.0
C1759 C 0.37283 0.26396 0.97835 0.0
C1760 C 0.38357 0.25452 0.97669 0.0
C1761 C 0.37788 0.23937 0.95824 0.0
C1762 C 0.36172 0.23394 0.94155 0.0
C1763 C 0.35055 0.24307 0.9449 0.0
H1764 H 0.7305 0.0594 0.98697 0.0
H1765 H 0.70599 0.09602 0.00365 0.0
H1766 H 0.73717 0.12482 0.99242 0.0
H1767 H 0.7809 0.09384 0.00965 0.0
H1768 H 0.79138 0.08705 0.98298 0.0
H1769 H 0.76821 0.06962 0.99648 0.0
H1770 H 0.75293 0.06359 0.9496 0.0
H1771 H 0.77604 0.08081 0.93605 0.0
H1772 H 0.75535 0.08378 0.93069 0.0
H1773 H 0.76974 0.14933 0.97398 0.0
H1774 H 0.79954 0.16653 0.94691 0.0
H1775 H 0.80297 0.11422 0.94256 0.0
C1776 C 0.73186 0.07352 0.98895 0.0
C1777 C 0.71583 0.07544 0.99643 0.0
C1778 C 0.71807 0.09416 -0.00192 0.0
C1779 C 0.73579 0.11065 0.99189 0.0
C1780 C 0.75123 0.10827 0.9841 0.0
C1781 C 0.74942 0.09014 0.9826 0.0
C1782 C 0.76745 0.09128 0.97086 0.0
C1783 C 0.77758 0.08508 0.99121 0.0
C1784 C 0.76265 0.07915 0.94529 0.0
C1785 C 0.77936 0.11272 0.96512 0.0
C1786 C 0.76997 0.12239 0.97336 0.0
C1787 C 0.77742 0.14199 0.96793 0.0
C1788 C 0.79445 0.15173 0.95274 0.0
C1789 C 0.80366 0.14177 0.94296 0.0
C1790 C 0.79639 0.12226 0.95023 0.0
H1791 H 0.6825 0.96153 0.03472 0.0
H1792 H 0.62102 0.92383 0.02167 0.0
H1793 H 0.62424 0.89558 0.033 0.0
H1794 H 0.69842 0.92713 0.0113 0.0
H1795 H 0.71655 0.93472 0.03687 0.0
H1796 H 0.71008 0.95162 0.02349 0.0
H1797 H 0.70215 0.95852 0.07076 0.0
H1798 H 0.70881 0.94188 0.08418 0.0
H1799 H 0.68519 0.93864 0.09096 0.0
H1800 H 0.63321 0.87195 0.05177 0.0
H1801 H 0.64683 0.85594 0.07915 0.0
H1802 H 0.70244 0.90859 0.07893 0.0
C1803 C 0.66982 0.94728 0.03357 0.0
C1804 C 0.65154 0.94491 0.02713 0.0
C1805 C 0.6352 0.92604 0.02647 0.0
C1806 C 0.6369 0.90985 0.0327 0.0
C1807 C 0.65507 0.91269 0.03944 0.0
C1808 C 0.67125 0.93096 0.03987 0.0
C1809 C 0.68865 0.93037 0.05064 0.0
C1810 C 0.70435 0.93631 0.02929 0.0
C1811 C 0.69665 0.94309 0.07561 0.0
C1812 C 0.67956 0.90909 0.0572 0.0
C1813 C 0.66026 0.89901 0.05013 0.0
C1814 C 0.64842 0.87958 0.05683 0.0
C1815 C 0.65628 0.87051 0.07219 0.0
C1816 C 0.67572 0.88096 0.08081 0.0
C1817 C 0.68763 0.90018 0.07211 0.0
H1818 H 0.10558 0.71684 0.02251 0.0
H1819 H 0.05603 0.72497 0.01435 0.0
H1820 H 0.07582 0.7586 0.03038 0.0
H1821 H 0.12056 0.73982 0.08223 0.0
H1822 H 0.14611 0.75035 0.07603 0.0
H1823 H 0.12921 0.72855 0.05919 0.0
H1824 H 0.1432 0.74497 0.01395 0.0
H1825 H 0.16009 0.76695 0.03077 0.0
H1826 H 0.14404 0.76734 0.00602 0.0
H1827 H 0.09942 0.78936 0.05386 0.0
H1828 H 0.12384 0.81335 0.08461 0.0
H1829 H 0.15788 0.7852 0.0773 0.0
C1830 C 0.09902 0.72585 0.02329 0.0
C1831 C 0.07929 0.71831 0.0169 0.0
C1832 C 0.07115 0.73046 0.01892 0.0
C1833 C 0.08233 0.74963 0.02789 0.0
C1834 C 0.10164 0.75647 0.03465 0.0
C1835 C 0.10991 0.74491 0.03238 0.0
C1836 C 0.13011 0.7547 0.04399 0.0
C1837 C 0.13156 0.74264 0.0667 0.0
C1838 C 0.14526 0.75873 0.02238 0.0
C1839 C 0.1317 0.77328 0.05414 0.0
C1840 C 0.11529 0.77425 0.0481 0.0
C1841 C 0.11255 0.78904 0.05801 0.0
C1842 C 0.12654 0.8027 0.07527 0.0
C1843 C 0.143 0.80146 0.08238 0.0
C1844 C 0.14584 0.78692 0.07107 0.0
H1845 H 0.31493 0.35329 0.02298 0.0
H1846 H 0.33259 0.41048 0.99279 0.0
H1847 H 0.30207 0.40762 0.00899 0.0
H1848 H 0.26163 0.33185 0.01059 0.0
H1849 H 0.25562 0.31816 0.04089 0.0
H1850 H 0.27725 0.32338 0.02295 0.0
H1851 H 0.29772 0.33897 0.06517 0.0
H1852 H 0.27623 0.33384 0.08315 0.0
H1853 H 0.2962 0.35825 0.08154 0.0
H1854 H 0.27182 0.40053 0.03472 0.0
H1855 H 0.24526 0.38978 0.06758 0.0
H1856 H 0.24687 0.33694 0.07936 0.0
C1857 C 0.31212 0.36496 0.01899 0.0
C1858 C 0.32615 0.38204 0.00641 0.0
C1859 C 0.32205 0.39717 0.00219 0.0
C1860 C 0.30469 0.39567 0.0113 0.0
C1861 C 0.29141 0.37887 0.02438 0.0
C1862 C 0.29486 0.36369 0.02795 0.0
C1863 C 0.27924 0.348 0.04484 0.0
C1864 C 0.26776 0.32924 0.02885 0.0
C1865 C 0.28787 0.34458 0.07017 0.0
C1866 C 0.26694 0.35705 0.05113 0.0
C1867 C 0.27397 0.37474 0.0389 0.0
C1868 C 0.26594 0.3865 0.04393 0.0
C1869 C 0.25078 0.38026 0.06251 0.0
C1870 C 0.24395 0.36252 0.07596 0.0
C1871 C 0.25173 0.35055 0.0693 0.0
H1872 H 0.76039 0.73629 0.38669 0.0
H1873 H 0.72892 0.6839 0.34027 0.0
H1874 H 0.75509 0.67635 0.34792 0.0
H1875 H 0.81014 0.74795 0.36912 0.0
H1876 H 0.8189 0.75562 0.40238 0.0
H1877 H 0.79934 0.75846 0.38979 0.0
H1878 H 0.77777 0.73894 0.42947 0.0
H1879 H 0.79735 0.73638 0.44231 0.0
H1880 H 0.77418 0.71523 0.43617 0.0
H1881 H 0.78349 0.67318 0.36393 0.0
H1882 H 0.80845 0.67218 0.39189 0.0
H1883 H 0.82047 0.72579 0.42936 0.0
C1884 C 0.75923 0.72346 0.37761 0.0
C1885 C 0.74276 0.71082 0.36252 0.0
C1886 C 0.74147 0.69385 0.35172 0.0
C1887 C 0.75635 0.68953 0.35581 0.0
C1888 C 0.77237 0.70225 0.37095 0.0
C1889 C 0.77374 0.71876 0.38195 0.0
C1890 C 0.79108 0.72875 0.40024 0.0
C1891 C 0.80573 0.74889 0.38975 0.0
C1892 C 0.78471 0.72988 0.42872 0.0
C1893 C 0.79903 0.71509 0.39833 0.0
C1894 C 0.78835 0.70014 0.38082 0.0
C1895 C 0.79213 0.68499 0.37732 0.0
C1896 C 0.8065 0.68463 0.39303 0.0
C1897 C 0.8167 0.69917 0.41221 0.0
C1898 C 0.81335 0.71489 0.41415 0.0
H1899 H 0.29764 0.03115 0.39432 0.0
H1900 H 0.34943 0.05139 0.34666 0.0
H1901 H 0.35764 0.08521 0.35499 0.0
H1902 H 0.28655 0.06964 0.37777 0.0
H1903 H 0.27924 0.07082 0.41123 0.0
H1904 H 0.27592 0.04833 0.3982 0.0
H1905 H 0.29562 0.04587 0.43736 0.0
H1906 H 0.29862 0.06807 0.45065 0.0
H1907 H 0.31955 0.06575 0.44396 0.0
H1908 H 0.36162 0.11688 0.37194 0.0
H1909 H 0.36349 0.14285 0.40087 0.0
H1910 H 0.30973 0.10179 0.4384 0.0
C1911 C 0.3105 0.04269 0.38515 0.0
C1912 C 0.32278 0.03865 0.36955 0.0
C1913 C 0.33977 0.05416 0.35856 0.0
C1914 C 0.34444 0.0734 0.36301 0.0
C1915 C 0.33204 0.0769 0.3786 0.0
C1916 C 0.31552 0.06193 0.38975 0.0
C1917 C 0.30588 0.06942 0.40843 0.0
C1918 C 0.2857 0.06424 0.39829 0.0
C1919 C 0.30487 0.06184 0.43676 0.0
C1920 C 0.3198 0.09095 0.40666 0.0
C1921 C 0.33455 0.09506 0.38885 0.0
C1922 C 0.34995 0.11385 0.38555 0.0
C1923 C 0.35081 0.12859 0.40182 0.0
C1924 C 0.3365 0.12436 0.42132 0.0
C1925 C 0.32046 0.10547 0.42297 0.0
H1926 H 1.00271 0.2771 0.37564 0.0
H1927 H 0.9877 0.31955 0.34943 0.0
H1928 H 0.95332 0.2968 0.35996 0.0
H1929 H 0.95789 0.23336 0.35352 0.0
H1930 H 0.95738 0.21993 0.38243 0.0
H1931 H 0.98019 0.23843 0.36932 0.0
H1932 H 0.98916 0.2556 0.41509 0.0
H1933 H 0.96657 0.23703 0.4283 0.0
H1934 H 0.97277 0.26198 0.43069 0.0
H1935 H 0.92111 0.27068 0.37849 0.0
H1936 H 0.89529 0.24517 0.40611 0.0
H1937 H 0.93148 0.21999 0.41959 0.0
C1938 C 0.99217 0.2815 0.37155 0.0
C1939 C 0.99793 0.30009 0.36149 0.0
C1940 C 0.98365 0.30536 0.35698 0.0
C1941 C 0.96406 0.29247 0.36278 0.0
C1942 C 0.95891 0.2743 0.37296 0.0
C1943 C 0.97263 0.26887 0.37732 0.0
C1944 C 0.96385 0.24943 0.39091 0.0
C1945 C 0.96489 0.2344 0.37296 0.0
C1946 C 0.97366 0.25113 0.41784 0.0
C1947 C 0.94317 0.24498 0.39431 0.0
C1948 C 0.94044 0.2593 0.38343 0.0
C1949 C 0.92296 0.25917 0.38648 0.0
C1950 C 0.90827 0.24452 0.40193 0.0
C1951 C 0.91121 0.23031 0.41415 0.0
C1952 C 0.92863 0.23024 0.40951 0.0
H1953 H 0.07924 0.4304 0.30475 0.0
H1954 H 0.02685 0.39499 0.3496 0.0
H1955 H 1.0152 0.41766 0.33878 0.0
H1956 H 0.08421 0.47791 0.31932 0.0
H1957 H 0.09208 0.48656 0.28611 0.0
H1958 H 0.09741 0.4691 0.30041 0.0
H1959 H 0.08074 0.44596 0.26072 0.0
H1960 H 0.07563 0.46344 0.24622 0.0
H1961 H 0.05621 0.43922 0.2523 0.0
H1962 H 1.00821 0.44298 0.31995 0.0
H1963 H 1.00489 0.46604 0.29072 0.0
H1964 H 0.06126 0.48398 0.25714 0.0
C1965 C 0.06549 0.42763 0.31278 0.0
C1966 C 0.05405 0.41107 0.32832 0.0
C1967 C 0.0359 0.40765 0.33779 0.0
C1968 C 0.02924 0.42053 0.33188 0.0
C1969 C 0.04085 0.43669 0.31635 0.0
C1970 C 0.05852 0.44014 0.30672 0.0
C1971 C 0.06728 0.45722 0.28804 0.0
C1972 C 0.08638 0.47367 0.29914 0.0
C1973 C 0.07012 0.45109 0.26018 0.0
C1974 C 0.05162 0.46266 0.28817 0.0
C1975 C 0.03666 0.45094 0.30505 0.0
C1976 C 1.02 0.45244 0.30704 0.0
C1977 C 1.01828 0.46569 0.2906 0.0
C1978 C 0.03305 0.47709 0.27232 0.0
C1979 C 0.0501 0.47588 0.27166 0.0
H1980 H 0.60406 0.65215 0.319 0.0
H1981 H 0.63746 0.63137 0.36074 0.0
H1982 H 0.61306 0.59773 0.34874 0.0
H1983 H 0.55512 0.61091 0.33196 0.0
H1984 H 0.54689 0.61161 0.29895 0.0
H1985 H 0.56512 0.63354 0.3145 0.0
H1986 H 0.58822 0.63998 0.27475 0.0
H1987 H 0.56996 0.61831 0.259 0.0
H1988 H 0.59368 0.62155 0.2648 0.0
H1989 H 0.58639 0.56667 0.3289 0.0
H1990 H 0.56305 0.54199 0.29783 0.0
H1991 H 0.54835 0.58349 0.26718 0.0
C1992 C 0.60598 0.64047 0.32617 0.0
C1993 C 0.62244 0.64428 0.34119 0.0
C1994 C 0.62485 0.6287 0.34941 0.0
C1995 C 0.61099 0.60957 0.34285 0.0
C1996 C 0.59493 0.6063 0.32785 0.0
C1997 C 0.59254 0.6214 0.31932 0.0
C1998 C 0.5756 0.61445 0.30046 0.0
C1999 C 0.55974 0.61783 0.31218 0.0
C2000 C 0.58227 0.62414 0.27315 0.0
C2001 C 0.56903 0.59313 0.29916 0.0
C2002 C 0.58001 0.58858 0.31564 0.0
C2003 C 0.57749 0.57001 0.3163 0.0
C2004 C 0.56408 0.55601 0.29882 0.0
C2005 C 0.55359 0.56077 0.28076 0.0
C2006 C 0.5557 0.57937 0.28153 0.0
H2007 H 0.39392 1.00252 0.32681 0.0
H2008 H 0.37095 0.9411 0.33805 0.0
H2009 H 0.40227 0.94468 0.32431 0.0
H2010 H 0.4184 1.00587 0.26858 0.0
H2011 H 0.43878 0.02947 0.2752 0.0
H2012 H 0.41568 0.02253 0.28985 0.0
H2013 H 0.43142 0.03017 0.33651 0.0
H2014 H 0.45459 0.03697 0.3219 0.0
H2015 H 0.44474 0.01865 0.34718 0.0
H2016 H 0.43479 0.9542 0.30404 0.0
H2017 H 0.46439 0.96852 0.27633 0.0
H2018 H 0.4664 0.02365 0.27898 0.0
C2019 C 0.39564 0.98992 0.32703 0.0
C2020 C 0.38 0.97156 0.33372 0.0
C2021 C 0.38273 0.95534 0.33311 0.0
C2022 C 0.40053 0.95724 0.32548 0.0
C2023 C 0.41558 0.97548 0.31856 0.0
C2024 C 0.4133 0.99155 0.31928 0.0
C2025 C 0.43098 1.00911 0.30823 0.0
C2026 C 0.42563 0.0172 0.28403 0.0
C2027 C 0.44103 0.02464 0.32974 0.0
C2028 C 0.44323 1.00029 0.30035 0.0
C2029 C 0.4343 0.98095 0.30688 0.0
C2030 C 0.44211 0.96942 0.29932 0.0
C2031 C 0.45903 0.97769 0.28377 0.0
C2032 C 0.46778 0.99721 0.27578 0.0
C2033 C 0.46016 1.00875 0.28518 0.0
H2034 H 0.61699 0.95957 0.30207 0.0
H2035 H 0.65402 0.01501 0.33942 0.0
H2036 H 0.62956 0.02469 0.33035 0.0
H2037 H 0.60255 0.97788 0.2495 0.0
H2038 H 0.57834 0.95751 0.24769 0.0
H2039 H 0.59763 0.95438 0.26032 0.0
H2040 H 0.57809 0.94 0.30359 0.0
H2041 H 0.55887 0.94345 0.29115 0.0
H2042 H 0.57002 0.95382 0.32255 0.0
H2043 H 0.602 0.02929 0.31353 0.0
H2044 H 0.57625 0.0296 0.28643 0.0
H2045 H 0.55775 0.97144 0.25982 0.0
C2046 C 0.61982 0.97362 0.30883 0.0
C2047 C 0.63737 0.98646 0.32173 0.0
C2048 C 0.64066 1.00489 0.32962 0.0
C2049 C 0.62678 1.01046 0.3247 0.0
C2050 C 0.60964 0.99747 0.3118 0.0
C2051 C 0.60624 0.97947 0.30381 0.0
C2052 C 0.58771 0.96892 0.28789 0.0
C2053 C 0.59181 0.96442 0.25969 0.0
C2054 C 0.57279 0.95045 0.30216 0.0
C2055 C 0.58138 0.98391 0.28763 0.0
C2056 C 0.59399 1.00017 0.30194 0.0
C2057 C 0.59186 0.01649 0.3027 0.0
C2058 C 0.57705 0.01649 0.28753 0.0
C2059 C 0.56471 1.00036 0.27167 0.0
C2060 C 0.56656 0.98368 0.27253 0.0
H2061 H 0.02276 0.64577 0.31945 0.0
H2062 H 0.06944 0.65176 0.36974 0.0
H2063 H 0.06285 0.61936 0.35597 0.0
H2064 H 0.99045 0.5919 0.32666 0.0
H2065 H 0.98338 0.58928 0.29231 0.0
H2066 H 0.98917 0.61115 0.31002 0.0
H2067 H 1.01474 0.63132 0.27436 0.0
H2068 H 1.009 0.60959 0.2566 0.0
H2069 H 0.03357 0.62586 0.26671 0.0
H2070 H 0.05447 0.58851 0.33171 0.0
H2071 H 0.04646 0.56345 0.29741 0.0
H2072 H 1.00504 0.57716 0.26308 0.0
C2073 C 0.03113 0.63997 0.32829 0.0
C2074 C 0.04645 0.65123 0.34597 0.0
C2075 C 0.05752 0.64336 0.35636 0.0
C2076 C 0.05382 0.6249 0.34872 0.0
C2077 C 0.03897 0.61437 0.33066 0.0
C2078 C 0.02775 0.62162 0.32064 0.0
C2079 C 1.01433 0.60855 0.29907 0.0
C2080 C 0.99307 0.59969 0.30753 0.0
C2081 C 1.01815 0.61948 0.27264 0.0
C2082 C 1.02032 0.59331 0.29773 0.0
C2083 C 0.03426 0.59665 0.31648 0.0
C2084 C 0.04327 0.58552 0.31732 0.0
C2085 C 0.03852 0.57117 0.29786 0.0
C2086 C 0.02505 0.56823 0.27762 0.0
C2087 C 1.01528 0.57894 0.27842 0.0
H2088 H 0.37286 0.41737 0.32158 0.0
H2089 H 0.38721 0.37346 0.34251 0.0
H2090 H 0.42137 0.39575 0.33039 0.0
H2091 H 0.40056 0.43231 0.26471 0.0
H2092 H 0.40766 0.45745 0.26804 0.0
H2093 H 0.38539 0.43928 0.28252 0.0
H2094 H 0.39664 0.45604 0.32833 0.0
H2095 H 0.4191 0.47419 0.31392 0.0
H2096 H 0.41934 0.46036 0.34191 0.0
H2097 H 0.45316 0.4215 0.31067 0.0
H2098 H 0.47839 0.44692 0.28228 0.0
H2099 H 0.44308 0.47362 0.27399 0.0
C2100 C 0.38327 0.4126 0.32432 0.0
C2101 C 0.37737 0.39372 0.3333 0.0
C2102 C 0.39139 0.38789 0.33586 0.0
C2103 C 0.41086 0.40051 0.32915 0.0
C2104 C 0.41614 0.41894 0.31991 0.0
C2105 C 0.40268 0.42493 0.31747 0.0
C2106 C 0.4114 0.4445 0.30422 0.0
C2107 C 0.40062 0.4433 0.27835 0.0
C2108 C 0.41163 0.45967 0.32324 0.0
C2109 C 0.4317 0.44837 0.29879 0.0
C2110 C 0.43434 0.43367 0.30844 0.0
C2111 C 0.45139 0.4333 0.30361 0.0
C2112 C 0.46574 0.44787 0.2877 0.0
C2113 C 0.46288 0.4625 0.27677 0.0
C2114 C 0.44589 0.463 0.28305 0.0
H2115 H 0.35123 0.3029 0.37501 0.0
H2116 H 0.30242 0.26015 0.32957 0.0
H2117 H 0.31066 0.23533 0.34206 0.0
H2118 H 0.38416 0.28186 0.36459 0.0
H2119 H 0.39284 0.28741 0.39823 0.0
H2120 H 0.38592 0.30275 0.38098 0.0
H2121 H 0.36201 0.29819 0.41883 0.0
H2122 H 0.36889 0.28296 0.43613 0.0
H2123 H 0.34382 0.2741 0.42824 0.0
H2124 H 0.32054 0.21418 0.3652 0.0
H2125 H 0.3297 0.19829 0.39944 0.0
H2126 H 0.37246 0.2544 0.42994 0.0
C2127 C 0.34275 0.28848 0.36692 0.0
C2128 C 0.32634 0.28348 0.35106 0.0
C2129 C 0.31513 0.2643 0.34161 0.0
C2130 C 0.31979 0.25013 0.34846 0.0
C2131 C 0.33571 0.25532 0.3648 0.0
C2132 C 0.34707 0.27407 0.3739 0.0
C2133 C 0.36158 0.27526 0.39425 0.0
C2134 C 0.38236 0.28755 0.38388 0.0
C2135 C 0.3589 0.28308 0.42092 0.0
C2136 C 0.35593 0.25416 0.39617 0.0
C2137 C 0.34133 0.24295 0.37852 0.0
C2138 C 0.33229 0.22283 0.37867 0.0
C2139 C 0.33769 0.2139 0.39811 0.0
C2140 C 0.35183 0.22507 0.41734 0.0
C2141 C 0.36166 0.24547 0.41541 0.0
H2142 H 0.74092 0.05582 0.36532 0.0
H2143 H 0.78099 0.03532 0.34909 0.0
H2144 H 0.8083 0.06707 0.36211 0.0
H2145 H 0.77337 0.10717 0.34513 0.0
H2146 H 0.76502 0.11616 0.37186 0.0
H2147 H 0.74894 0.09295 0.3572 0.0
H2148 H 0.74283 0.07687 0.40345 0.0
H2149 H 0.75873 0.09999 0.41817 0.0
H2150 H 0.76317 0.08022 0.42303 0.0
H2151 H 0.8309 0.09969 0.38212 0.0
H2152 H 0.84605 0.12908 0.41023 0.0
H2153 H 0.79153 0.12853 0.4131 0.0
C2154 C 0.75548 0.0582 0.36383 0.0
C2155 C 0.75881 0.04313 0.35595 0.0
C2156 C 0.77806 0.04666 0.35495 0.0
C2157 C 0.79371 0.06471 0.36217 0.0
C2158 C 0.78994 0.07918 0.37032 0.0
C2159 C 0.77128 0.07611 0.37119 0.0
C2160 C 0.77089 0.09324 0.38345 0.0
C2161 C 0.76416 0.10295 0.3632 0.0
C2162 C 0.75816 0.08722 0.40851 0.0
C2163 C 0.79211 0.10609 0.39017 0.0
C2164 C 0.80296 0.09794 0.382 0.0
C2165 C 0.82262 0.1064 0.38816 0.0
C2166 C 0.83118 0.12319 0.40395 0.0
C2167 C 0.82002 0.13116 0.41361 0.0
C2168 C 0.80047 0.12287 0.40567 0.0
H2169 H 0.98343 0.68355 0.36886 0.0
H2170 H 0.99387 0.73336 0.32237 0.0
H2171 H 0.9613 0.72755 0.33374 0.0
H2172 H 0.9297 0.65362 0.35617 0.0
H2173 H 0.92514 0.64479 0.38974 0.0
H2174 H 0.94759 0.65048 0.37374 0.0
H2175 H 0.96674 0.67376 0.41227 0.0
H2176 H 0.94443 0.66807 0.42834 0.0
H2177 H 0.96192 0.69284 0.42099 0.0
H2178 H 0.92986 0.71956 0.35588 0.0
H2179 H 0.90379 0.71128 0.38864 0.0
H2180 H 0.91317 0.66624 0.42004 0.0
C2181 C 0.97859 0.69281 0.3603 0.0
C2182 C 0.99115 0.70878 0.34445 0.0
C2183 C 0.98449 0.72095 0.33438 0.0
C2184 C 0.96593 0.7177 0.34064 0.0
C2185 C 0.95409 0.70216 0.35695 0.0
C2186 C 0.96015 0.68985 0.36656 0.0
C2187 C 0.94573 0.67573 0.38634 0.0
C2188 C 0.93649 0.65492 0.37586 0.0
C2189 C 0.95528 0.67774 0.41358 0.0
C2190 C 0.9311 0.68256 0.38726 0.0
C2191 C 0.93593 0.69756 0.36978 0.0
C2192 C 0.92569 0.70753 0.3692 0.0
C2193 C 0.91075 0.70263 0.38775 0.0
C2194 C 0.90633 0.68804 0.40679 0.0
C2195 C 0.91607 0.67733 0.40553 0.0
H2196 H 0.39753 1.01436 0.71145 0.0
H2197 H 0.43745 0.06701 0.67036 0.0
H2198 H 0.46459 0.06213 0.68269 0.0
H2199 H 0.42636 0.02251 0.76569 0.0
H2200 H 0.41985 0.99772 0.77112 0.0
H2201 H 0.40323 1.00318 0.75468 0.0
H2202 H 0.40181 0.98215 0.71457 0.0
H2203 H 0.41855 0.97668 0.73095 0.0
H2204 H 0.4239 0.98705 0.69822 0.0
H2205 H 0.48789 0.05428 0.7048 0.0
H2206 H 0.50521 0.04522 0.73717 0.0
H2207 H 0.45043 0.9976 0.76378 0.0
C2208 C 0.4119 0.02449 0.70432 0.0
C2209 C 0.41535 0.04095 0.68972 0.0
C2210 C 0.43445 0.05423 0.68146 0.0
C2211 C 0.44996 0.05152 0.68823 0.0
C2212 C 0.44619 0.03542 0.70326 0.0
C2213 C 0.4276 0.02209 0.71119 0.0
C2214 C 0.42774 1.00744 0.73002 0.0
C2215 C 0.41877 1.00775 0.75696 0.0
C2216 C 0.41739 0.98712 0.71769 0.0
C2217 C 0.44931 0.0151 0.73234 0.0
C2218 C 0.45971 0.03099 0.7163 0.0
C2219 C 0.4799 0.0416 0.71703 0.0
C2220 C 0.48965 0.0363 0.73535 0.0
C2221 C 0.47918 0.02069 0.75289 0.0
C2222 C 0.45882 1.00953 0.75047 0.0
H2223 H 0.97052 0.37241 0.69778 0.0
H2224 H 0.02899 0.39073 0.67199 0.0
H2225 H 0.03904 0.42436 0.68509 0.0
H2226 H 0.9694 0.41718 0.68143 0.0
H2227 H 0.95615 0.41561 0.71117 0.0
H2228 H 0.95284 0.3939 0.69535 0.0
H2229 H 0.96165 0.38334 0.73926 0.0
H2230 H 0.96477 0.40485 0.75516 0.0
H2231 H 0.98421 0.39952 0.75542 0.0
H2232 H 0.04334 0.45536 0.7053 0.0
H2233 H 0.04239 0.47951 0.73526 0.0
H2234 H 0.98159 0.44037 0.74986 0.0
C2235 C 0.98531 0.38361 0.69412 0.0
C2236 C 0.9989 0.37905 0.68338 0.0
C2237 C 1.0183 0.39396 0.6799 0.0
C2238 C 0.02409 0.41311 0.68716 0.0
C2239 C 1.01036 0.41709 0.6981 0.0
C2240 C 0.99138 0.40266 0.70178 0.0
C2241 C 0.98004 0.41001 0.71721 0.0
C2242 C 0.96364 0.40912 0.70027 0.0
C2243 C 0.97222 0.39877 0.7433 0.0
C2244 C 0.99567 0.4307 0.72227 0.0
C2245 C 1.01296 0.43469 0.71053 0.0
C2246 C 0.0298 0.45249 0.71414 0.0
C2247 C 0.02912 0.4662 0.73096 0.0
C2248 C 1.01179 0.46195 0.74416 0.0
C2249 C 0.99481 0.44418 0.73919 0.0
H2250 H 0.65609 0.63869 0.71384 0.0
H2251 H 0.67518 0.59944 0.68658 0.0
H2252 H 0.64343 0.57163 0.69847 0.0
H2253 H 0.63235 0.61219 0.77023 0.0
H2254 H 0.61284 0.61737 0.7691 0.0
H2255 H 0.63591 0.63406 0.75487 0.0
H2256 H 0.61924 0.63198 0.70995 0.0
H2257 H 0.59609 0.61515 0.72407 0.0
H2258 H 0.60439 0.60875 0.69456 0.0
H2259 H 0.61058 0.54795 0.71713 0.0
H2260 H 0.58087 0.53088 0.74433 0.0
H2261 H 0.58328 0.58537 0.76003 0.0
C2262 C 0.65341 0.62424 0.70979 0.0
C2263 C 0.66807 0.62126 0.69901 0.0
C2264 C 0.66416 0.6021 0.69471 0.0
C2265 C 0.64611 0.58619 0.70127 0.0
C2266 C 0.63204 0.58959 0.71223 0.0
C2267 C 0.63552 0.60816 0.71658 0.0
C2268 C 0.61874 0.60788 0.73114 0.0
C2269 C 0.62536 0.6185 0.75791 0.0
C2270 C 0.60904 0.61645 0.71389 0.0
C2271 C 0.60556 0.58632 0.7349 0.0
C2272 C 0.61328 0.57596 0.72343 0.0
C2273 C 0.60426 0.5559 0.72585 0.0
C2274 C 0.58729 0.54627 0.74117 0.0
C2275 C 0.57967 0.55675 0.75412 0.0
C2276 C 0.58866 0.57695 0.75014 0.0
H2277 H 0.70363 0.73374 0.65826 0.0
H2278 H 0.76573 0.77078 0.66576 0.0
H2279 H 0.76269 0.799 0.6535 0.0
H2280 H 0.69886 0.75497 0.6014 0.0
H2281 H 0.67581 0.75251 0.60998 0.0
H2282 H 0.68264 0.73599 0.62339 0.0
H2283 H 0.67719 0.7448 0.67093 0.0
H2284 H 0.67055 0.76156 0.65754 0.0
H2285 H 0.68981 0.76969 0.68149 0.0
H2286 H 0.75345 0.8225 0.63459 0.0
H2287 H 0.73896 0.83813 0.6081 0.0
H2288 H 0.68299 0.78622 0.61401 0.0
C2289 C 0.71652 0.74786 0.65799 0.0
C2290 C 0.7349 0.75003 0.66317 0.0
C2291 C 0.75147 0.76872 0.66197 0.0
C2292 C 0.74988 0.7849 0.65518 0.0
C2293 C 0.73159 0.78225 0.64974 0.0
C2294 C 0.71519 0.76417 0.65112 0.0
C2295 C 0.69753 0.76481 0.64162 0.0
C2296 C 0.68818 0.75128 0.61768 0.0
C2297 C 0.68291 0.75993 0.66425 0.0
C2298 C 0.70665 0.78587 0.63376 0.0
C2299 C 0.72626 0.79582 0.63901 0.0
C2300 C 0.73802 0.81497 0.63093 0.0
C2301 C 0.72968 0.82384 0.6161 0.0
C2302 C 0.70984 0.81348 0.60937 0.0
C2303 C 0.69813 0.79459 0.61939 0.0
H2304 H 0.27703 0.99416 0.64627 0.0
H2305 H 0.30781 0.97324 0.69392 0.0
H2306 H 0.28251 0.93952 0.68407 0.0
H2307 H 0.22703 0.95495 0.65986 0.0
H2308 H 0.21951 0.95446 0.62607 0.0
H2309 H 0.23819 0.97671 0.64034 0.0
H2310 H 0.2615 0.98021 0.60213 0.0
H2311 H 0.24282 0.95819 0.58764 0.0
H2312 H 0.26599 0.96064 0.59531 0.0
H2313 H 0.25515 0.90804 0.66582 0.0
H2314 H 0.23147 0.88242 0.63607 0.0
H2315 H 0.21969 0.92404 0.59859 0.0
C2316 C 0.27817 0.98247 0.6552 0.0
C2317 C 0.29419 0.9863 0.67129 0.0
C2318 C 0.29556 0.97062 0.68177 0.0
C2319 C 0.28118 0.95143 0.67641 0.0
C2320 C 0.26561 0.94813 0.66027 0.0
C2321 C 0.26419 0.96327 0.64954 0.0
C2322 C 0.24756 0.95603 0.63003 0.0
C2323 C 0.23216 0.96082 0.63966 0.0
C2324 C 0.25491 0.96425 0.60214 0.0
C2325 C 0.24003 0.93447 0.63099 0.0
C2326 C 0.25031 0.93012 0.64904 0.0
C2327 C 0.24682 0.91127 0.65198 0.0
C2328 C 0.23317 0.89673 0.63524 0.0
C2329 C 0.22339 0.90117 0.61561 0.0
C2330 C 0.22646 0.92016 0.61411 0.0
H2331 H 0.04745 0.29546 0.65538 0.0
H2332 H 0.0672 0.3502 0.69535 0.0
H2333 H 0.10088 0.36067 0.68167 0.0
H2334 H 0.09085 0.29057 0.66567 0.0
H2335 H 0.08945 0.28121 0.63269 0.0
H2336 H 0.06769 0.2767 0.64966 0.0
H2337 H 0.05875 0.29162 0.61042 0.0
H2338 H 0.08032 0.29596 0.59332 0.0
H2339 H 0.07593 0.31567 0.59947 0.0
H2340 H 0.13196 0.36612 0.66035 0.0
H2341 H 0.15644 0.36801 0.62838 0.0
H2342 H 0.11582 0.31075 0.59962 0.0
C2343 C 0.05897 0.30942 0.66192 0.0
C2344 C 0.05485 0.32188 0.67696 0.0
C2345 C 0.07014 0.34037 0.68415 0.0
C2346 C 0.0893 0.34636 0.67659 0.0
C2347 C 0.09287 0.3338 0.66147 0.0
C2348 C 0.07804 0.3158 0.65391 0.0
C2349 C 0.08512 0.30615 0.63454 0.0
C2350 C 0.08316 0.28756 0.64635 0.0
C2351 C 0.0744 0.30213 0.60787 0.0
C2352 C 0.10618 0.32165 0.63191 0.0
C2353 C 0.11052 0.33728 0.64814 0.0
C2354 C 0.12878 0.35384 0.64789 0.0
C2355 C 0.14267 0.35474 0.62989 0.0
C2356 C 0.13813 0.33931 0.61217 0.0
C2357 C 0.11982 0.32242 0.61366 0.0
H2358 H 0.27775 0.30274 0.66497 0.0
H2359 H 0.32532 0.361 0.67716 0.0
H2360 H 0.3047 0.37401 0.6616 0.0
H2361 H 0.26326 0.31202 0.60518 0.0
H2362 H 0.23774 0.29588 0.61015 0.0
H2363 H 0.25503 0.29137 0.62661 0.0
H2364 H 0.23962 0.29125 0.67194 0.0
H2365 H 0.22233 0.29593 0.65553 0.0
H2366 H 0.2374 0.3118 0.68155 0.0
H2367 H 0.28023 0.38062 0.63928 0.0
H2368 H 0.25521 0.38009 0.60964 0.0
H2369 H 0.22401 0.31766 0.61135 0.0
C2370 C 0.28367 0.31823 0.66515 0.0
C2371 C 0.30308 0.33085 0.67266 0.0
C2372 C 0.31044 0.35105 0.67175 0.0
C2373 C 0.29879 0.35856 0.66304 0.0
C2374 C 0.2798 0.34571 0.65526 0.0
C2375 C 0.27232 0.32594 0.6562 0.0
C2376 C 0.25238 0.31522 0.64376 0.0
C2377 C 0.2521 0.30291 0.62002 0.0
C2378 C 0.23703 0.30282 0.66444 0.0
C2379 C 0.25 0.33201 0.63492 0.0
C2380 C 0.26579 0.3495 0.64218 0.0
C2381 C 0.2676 0.36702 0.63408 0.0
C2382 C 0.25328 0.36663 0.61745 0.0
C2383 C 0.23743 0.34886 0.60908 0.0
C2384 C 0.23559 0.33141 0.61846 0.0
H2385 H 0.7478 0.99916 0.63567 0.0
H2386 H 0.69346 0.98121 0.67613 0.0
H2387 H 0.68307 0.94704 0.66597 0.0
H2388 H 0.72777 0.96673 0.58281 0.0
H2389 H 0.74791 0.96263 0.57937 0.0
H2390 H 0.75168 0.98508 0.59287 0.0
H2391 H 0.76702 0.97958 0.63485 0.0
H2392 H 0.76297 0.9569 0.62155 0.0
H2393 H 0.75348 0.95769 0.65368 0.0
H2394 H 0.67766 0.91486 0.64798 0.0
H2395 H 0.67644 0.8887 0.61995 0.0
H2396 H 0.73403 0.92806 0.591 0.0
C2397 C 0.73384 0.98804 0.64284 0.0
C2398 C 0.72151 0.99286 0.65693 0.0
C2399 C 0.70319 0.97787 0.6654 0.0
C2400 C 0.69723 0.9584 0.65986 0.0
C2401 C 0.70974 0.95416 0.64581 0.0
C2402 C 0.72762 0.96863 0.63725 0.0
C2403 C 0.73761 0.96058 0.62024 0.0
C2404 C 0.74145 0.96927 0.59217 0.0
C2405 C 0.75638 0.96388 0.63338 0.0
C2406 C 0.72241 0.93936 0.62 0.0
C2407 C 0.70656 0.93581 0.63526 0.0
C2408 C 0.69014 0.91744 0.63637 0.0
C2409 C 0.68962 0.9026 0.62065 0.0
C2410 C 0.70533 0.9063 0.60393 0.0
C2411 C 0.7221 0.92475 0.60431 0.0
H2412 H 0.04752 0.75488 0.66679 0.0
H2413 H 0.06 0.70829 0.67573 0.0
H2414 H 0.094 0.73043 0.6627 0.0
H2415 H 0.07297 0.77238 0.60887 0.0
H2416 H 0.0813 0.79747 0.61575 0.0
H2417 H 0.05932 0.77909 0.63061 0.0
H2418 H 0.073 0.79298 0.67717 0.0
H2419 H 0.09516 0.81134 0.66235 0.0
H2420 H 0.09585 0.79563 0.68733 0.0
H2421 H 0.12533 0.75641 0.64281 0.0
H2422 H 0.14981 0.7826 0.61466 0.0
H2423 H 0.1167 0.81191 0.61786 0.0
C2424 C 0.05755 0.74947 0.66685 0.0
C2425 C 0.05116 0.7299 0.67269 0.0
C2426 C 0.0646 0.72326 0.67161 0.0
C2427 C 0.08397 0.73578 0.66435 0.0
C2428 C 0.08971 0.75492 0.65817 0.0
C2429 C 0.07682 0.7617 0.6593 0.0
C2430 C 0.08576 0.78202 0.64838 0.0
C2431 C 0.07415 0.78277 0.62449 0.0
C2432 C 0.08755 0.79634 0.67011 0.0
C2433 C 0.10548 0.78544 0.64007 0.0
C2434 C 0.10768 0.76982 0.64641 0.0
C2435 C 0.12396 0.7689 0.63838 0.0
C2436 C 0.1379 0.78391 0.62262 0.0
C2437 C 0.13544 0.79955 0.61501 0.0
C2438 C 0.11931 0.80054 0.62449 0.0
H2439 H 1.01439 0.63353 0.69136 0.0
H2440 H 0.95752 0.59342 0.66013 0.0
H2441 H 0.96086 0.56605 0.67599 0.0
H2442 H 0.0368 0.60258 0.67888 0.0
H2443 H 0.05026 0.61029 0.70944 0.0
H2444 H 0.04478 0.62649 0.69163 0.0
H2445 H 0.0286 0.63075 0.73372 0.0
H2446 H 0.03398 0.61459 0.75156 0.0
H2447 H 1.00938 0.60969 0.7496 0.0
H2448 H 0.96834 0.54319 0.70134 0.0
H2449 H 0.97929 0.52757 0.73404 0.0
H2450 H 0.0315 0.58245 0.74734 0.0
C2451 C 1.0029 0.61899 0.68708 0.0
C2452 C 0.98576 0.61567 0.6743 0.0
C2453 C 0.97086 0.59638 0.66971 0.0
C2454 C 0.97264 0.5807 0.6786 0.0
C2455 C 0.98948 0.58447 0.69189 0.0
C2456 C 1.00444 0.60318 0.69587 0.0
C2457 C 1.02017 0.60349 0.71295 0.0
C2458 C 0.03912 0.61116 0.69728 0.0
C2459 C 0.02319 0.61532 0.73846 0.0
C2460 C 1.01139 0.58216 0.71886 0.0
C2461 C 0.99382 0.57132 0.70627 0.0
C2462 C 0.98229 0.55149 0.71084 0.0
C2463 C 0.98864 0.54268 0.72934 0.0
C2464 C 1.00625 0.55376 0.74317 0.0
C2465 C 1.01799 0.57358 0.73699 0.0
H2466 H 0.43432 0.37689 0.69086 0.0
H2467 H 0.38934 0.39113 0.67672 0.0
H2468 H 0.41192 0.425 0.6897 0.0
H2469 H 0.45082 0.403 0.74877 0.0
H2470 H 0.47593 0.4104 0.7436 0.0
H2471 H 0.45743 0.38854 0.72859 0.0
H2472 H 0.47293 0.40125 0.68246 0.0
H2473 H 0.49137 0.42333 0.69744 0.0
H2474 H 0.47666 0.42421 0.671 0.0
H2475 H 0.43804 0.45622 0.70999 0.0
H2476 H 0.46368 0.48037 0.73926 0.0
H2477 H 0.49135 0.44569 0.74067 0.0
C2478 C 0.42938 0.38726 0.68971 0.0
C2479 C 0.41011 0.38139 0.68239 0.0
C2480 C 0.40406 0.3953 0.68201 0.0
C2481 C 0.41685 0.41462 0.68923 0.0
C2482 C 0.43567 0.41986 0.69681 0.0
C2483 C 0.44187 0.40651 0.69717 0.0
C2484 C 0.46185 0.41503 0.70932 0.0
C2485 C 0.46147 0.40357 0.73403 0.0
C2486 C 0.47657 0.41601 0.68883 0.0
C2487 C 0.46571 0.43507 0.71659 0.0
C2488 C 0.45065 0.43777 0.7087 0.0
C2489 C 0.45013 0.45445 0.71564 0.0
C2490 C 0.46486 0.46823 0.73201 0.0
C2491 C 0.47983 0.4652 0.74134 0.0
C2492 C 0.48055 0.44874 0.73275 0.0
H2493 H 0.67306 0.07545 0.72455 0.0
H2494 H 0.65364 0.02684 0.6708 0.0
H2495 H 0.61958 0.01735 0.68048 0.0
H2496 H 0.63852 0.04999 0.77334 0.0
H2497 H 0.63571 0.07011 0.78337 0.0
H2498 H 0.65812 0.07439 0.769 0.0
H2499 H 0.65517 0.09603 0.73325 0.0
H2500 H 0.63248 0.09145 0.74732 0.0
H2501 H 0.6338 0.0863 0.71282 0.0
H2502 H 0.58761 1.01172 0.69892 0.0
H2503 H 0.5613 1.00771 0.72903 0.0
H2504 H 0.60175 0.05924 0.77175 0.0
C2505 C 0.66164 0.06304 0.71438 0.0
C2506 C 0.66598 0.05202 0.69664 0.0
C2507 C 0.65063 0.03554 0.68435 0.0
C2508 C 0.63125 0.03015 0.68957 0.0
C2509 C 0.62745 0.04132 0.70727 0.0
C2510 C 0.64227 0.05729 0.71974 0.0
C2511 C 0.63448 0.06547 0.74035 0.0
C2512 C 0.64216 0.06494 0.76814 0.0
C2513 C 0.63927 0.08603 0.73298 0.0
C2514 C 0.61298 0.05137 0.73802 0.0
C2515 C 0.60913 0.03781 0.71838 0.0
C2516 C 0.59042 0.02246 0.71401 0.0
C2517 C 0.5755 0.0204 0.73097 0.0
C2518 C 0.57944 0.03345 0.75219 0.0
C2519 C 0.59827 0.04948 0.75507 0.0
loop_
_geom_bond_atom_site_label_1
_geom_bond_atom_site_label_2
_geom_bond_distance
_geom_bond_site_symmetry_2
_ccdc_geom_bond_type
O0 Cd1 2.223 . S
O0 C8 1.315 . S
Cd1 O0 2.223 . S
Cd1 O4 2.297 . S
Cd1 O5 2.439 . S
Cd1 O11 2.240 1_554 S
Cd2 O3 2.240 . S
Cd2 O10 2.223 1_554 S
Cd2 O12 2.297 1_554 S
Cd2 O13 2.439 1_554 S
O3 Cd2 2.240 . S
O3 C8 1.279 1_655 S
O4 Cd1 2.297 . S
O4 C6 1.247 . S
O5 Cd1 2.439 . S
O5 C6 1.208 . S
C6 O4 1.247 . S
C6 O5 1.208 . S
C7 O12 1.247 . S
C7 O13 1.208 . S
C8 O0 1.315 . S
C8 O3 1.279 1_455 S
C9 O10 1.315 . S
C9 O11 1.279 1_655 S
O10 Cd2 2.223 1_556 S
O10 C9 1.315 . S
O11 Cd1 2.240 1_556 S
O11 C9 1.279 1_455 S
O12 Cd2 2.297 1_556 S
O12 C7 1.247 . S
O13 Cd2 2.439 1_556 S
O13 C7 1.208 . S
O14 Cd15 2.223 . S
O14 C22 1.315 . S
Cd15 O14 2.223 . S
Cd15 O18 2.297 . S
Cd15 O19 2.439 . S
Cd15 O25 2.240 1_554 S
Cd16 O17 2.240 . S
Cd16 O24 2.223 1_554 S
Cd16 O26 2.297 1_554 S
Cd16 O27 2.439 1_554 S
O17 Cd16 2.240 . S
O17 C22 1.279 . S
O18 Cd15 2.297 . S
O18 C20 1.247 . S
O19 Cd15 2.439 . S
O19 C20 1.208 . S
C20 O18 1.247 . S
C20 O19 1.208 . S
C21 O26 1.247 . S
C21 O27 1.208 . S
C22 O14 1.315 . S
C22 O17 1.279 . S
C23 O24 1.315 . S
C23 O25 1.279 . S
O24 Cd16 2.223 1_556 S
O24 C23 1.315 . S
O25 Cd15 2.240 1_556 S
O25 C23 1.279 . S
O26 Cd16 2.297 1_556 S
O26 C21 1.247 . S
O27 Cd16 2.439 1_556 S
O27 C21 1.208 . S
O28 Cd29 2.223 1_556 S
O28 C36 1.315 . S
Cd29 O28 2.223 1_554 S
Cd29 O32 2.297 1_554 S
Cd29 O33 2.439 1_554 S
Cd29 O39 2.240 . S
Cd30 O31 2.240 1_554 S
Cd30 O38 2.223 . S
Cd30 O40 2.297 . S
Cd30 O41 2.439 . S
O31 Cd30 2.240 1_556 S
O31 C36 1.279 1_565 S
O32 Cd29 2.297 1_556 S
O32 C34 1.247 . S
O33 Cd29 2.439 1_556 S
O33 C34 1.208 . S
C34 O32 1.247 . S
C34 O33 1.208 . S
C35 O40 1.247 . S
C35 O41 1.208 . S
C36 O28 1.315 . S
C36 O31 1.279 1_545 S
C37 O38 1.315 . S
C37 O39 1.279 1_565 S
O38 Cd30 2.223 . S
O38 C37 1.315 . S
O39 Cd29 2.240 . S
O39 C37 1.279 1_545 S
O40 Cd30 2.297 . S
O40 C35 1.247 . S
O41 Cd30 2.439 . S
O41 C35 1.208 . S
O42 Cd43 2.223 1_556 S
O42 C50 1.315 . S
Cd43 O42 2.223 1_554 S
Cd43 O46 2.297 1_554 S
Cd43 O47 2.439 1_554 S
Cd43 O53 2.240 . S
Cd44 O45 2.240 1_554 S
Cd44 O52 2.223 . S
Cd44 O54 2.297 . S
Cd44 O55 2.439 . S
O45 Cd44 2.240 1_556 S
O45 C50 1.279 1_455 S
O46 Cd43 2.297 1_556 S
O46 C48 1.247 . S
O47 Cd43 2.439 1_556 S
O47 C48 1.208 . S
C48 O46 1.247 . S
C48 O47 1.208 . S
C49 O54 1.247 . S
C49 O55 1.208 . S
C50 O42 1.315 . S
C50 O45 1.279 1_655 S
C51 O52 1.315 . S
C51 O53 1.279 1_455 S
O52 Cd44 2.223 . S
O52 C51 1.315 . S
O53 Cd43 2.240 . S
O53 C51 1.279 1_655 S
O54 Cd44 2.297 . S
O54 C49 1.247 . S
O55 Cd44 2.439 . S
O55 C49 1.208 . S
O56 Cd57 2.223 1_556 S
O56 C64 1.315 . S
Cd57 O56 2.223 1_554 S
Cd57 O60 2.297 1_554 S
Cd57 O61 2.439 1_554 S
Cd57 O67 2.240 . S
Cd58 O59 2.240 1_554 S
Cd58 O66 2.223 . S
Cd58 O68 2.297 . S
Cd58 O69 2.439 . S
O59 Cd58 2.240 1_556 S
O59 C64 1.279 . S
O60 Cd57 2.297 1_556 S
O60 C62 1.247 . S
O61 Cd57 2.439 1_556 S
O61 C62 1.208 . S
C62 O60 1.247 . S
C62 O61 1.208 . S
C63 O68 1.247 . S
C63 O69 1.208 . S
C64 O56 1.315 . S
C64 O59 1.279 . S
C65 O66 1.315 . S
C65 O67 1.279 . S
O66 Cd58 2.223 . S
O66 C65 1.315 . S
O67 Cd57 2.240 . S
O67 C65 1.279 . S
O68 Cd58 2.297 . S
O68 C63 1.247 . S
O69 Cd58 2.439 . S
O69 C63 1.208 . S
O70 Cd71 2.223 . S
O70 C78 1.315 . S
Cd71 O70 2.223 . S
Cd71 O74 2.297 . S
Cd71 O75 2.439 . S
Cd71 O81 2.240 1_554 S
Cd72 O73 2.240 . S
Cd72 O80 2.223 1_554 S
Cd72 O82 2.297 1_554 S
Cd72 O83 2.439 1_554 S
O73 Cd72 2.240 . S
O73 C78 1.279 1_545 S
O74 Cd71 2.297 . S
O74 C76 1.247 . S
O75 Cd71 2.439 . S
O75 C76 1.208 . S
C76 O74 1.247 . S
C76 O75 1.208 . S
C77 O82 1.247 . S
C77 O83 1.208 . S
C78 O70 1.315 . S
C78 O73 1.279 1_565 S
C79 O80 1.315 . S
C79 O81 1.279 1_545 S
O80 Cd72 2.223 1_556 S
O80 C79 1.315 . S
O81 Cd71 2.240 1_556 S
O81 C79 1.279 1_565 S
O82 Cd72 2.297 1_556 S
O82 C77 1.247 . S
O83 Cd72 2.439 1_556 S
O83 C77 1.208 . S
O84 Cd85 2.223 . S
O84 C92 1.315 . S
Cd85 O84 2.223 . S
Cd85 O88 2.297 . S
Cd85 O89 2.439 . S
Cd85 O95 2.240 . S
Cd86 O87 2.240 . S
Cd86 O94 2.223 . S
Cd86 O96 2.297 . S
Cd86 O97 2.439 . S
O87 Cd86 2.240 . S
O87 C92 1.279 . S
O88 Cd85 2.297 . S
O88 C90 1.247 . S
O89 Cd85 2.439 . S
O89 C90 1.208 . S
C90 O88 1.247 . S
C90 O89 1.208 . S
C91 O96 1.247 . S
C91 O97 1.208 . S
C92 O84 1.315 . S
C92 O87 1.279 . S
C93 O94 1.315 . S
C93 O95 1.279 . S
O94 Cd86 2.223 . S
O94 C93 1.315 . S
O95 Cd85 2.240 . S
O95 C93 1.279 . S
O96 Cd86 2.297 . S
O96 C91 1.247 . S
O97 Cd86 2.439 . S
O97 C91 1.208 . S
O98 Cd99 2.223 . S
O98 C106 1.315 . S
Cd99 O98 2.223 . S
Cd99 O102 2.297 1_565 S
Cd99 O103 2.439 1_565 S
Cd99 O109 2.240 . S
Cd100 O101 2.240 . S
Cd100 O108 2.223 . S
Cd100 O110 2.297 . S
Cd100 O111 2.439 . S
O101 Cd100 2.240 . S
O101 C106 1.279 . S
O102 Cd99 2.297 1_545 S
O102 C104 1.247 . S
O103 Cd99 2.439 1_545 S
O103 C104 1.208 . S
C104 O102 1.247 . S
C104 O103 1.208 . S
C105 O110 1.247 . S
C105 O111 1.208 . S
C106 O98 1.315 . S
C106 O101 1.279 . S
C107 O108 1.315 . S
C107 O109 1.279 . S
O108 Cd100 2.223 . S
O108 C107 1.315 . S
O109 Cd99 2.240 . S
O109 C107 1.279 . S
O110 Cd100 2.297 . S
O110 C105 1.247 . S
O111 Cd100 2.439 . S
O111 C105 1.208 . S
O112 Cd113 2.223 . S
O112 C120 1.315 . S
Cd113 O112 2.223 . S
Cd113 O116 2.297 . S
Cd113 O117 2.439 . S
Cd113 O123 2.240 . S
Cd114 O115 2.240 . S
Cd114 O122 2.223 . S
Cd114 O124 2.297 1_455 S
Cd114 O125 2.439 1_455 S
O115 Cd114 2.240 . S
O115 C120 1.279 . S
O116 Cd113 2.297 . S
O116 C118 1.247 . S
O117 Cd113 2.439 . S
O117 C118 1.208 . S
C118 O116 1.247 . S
C118 O117 1.208 . S
C119 O124 1.247 . S
C119 O125 1.208 . S
C120 O112 1.315 . S
C120 O115 1.279 . S
C121 O122 1.315 . S
C121 O123 1.279 . S
O122 Cd114 2.223 . S
O122 C121 1.315 . S
O123 Cd113 2.240 . S
O123 C121 1.279 . S
O124 Cd114 2.297 1_655 S
O124 C119 1.247 . S
O125 Cd114 2.439 1_655 S
O125 C119 1.208 . S
O126 Cd127 2.223 . S
O126 C134 1.315 . S
Cd127 O126 2.223 . S
Cd127 O130 2.297 . S
Cd127 O131 2.439 . S
Cd127 O137 2.240 . S
Cd128 O129 2.240 . S
Cd128 O136 2.223 . S
Cd128 O138 2.297 1_565 S
Cd128 O139 2.439 1_565 S
O129 Cd128 2.240 . S
O129 C134 1.279 . S
O130 Cd127 2.297 . S
O130 C132 1.247 . S
O131 Cd127 2.439 . S
O131 C132 1.208 . S
C132 O130 1.247 . S
C132 O131 1.208 . S
C133 O138 1.247 . S
C133 O139 1.208 . S
C134 O126 1.315 . S
C134 O129 1.279 . S
C135 O136 1.315 . S
C135 O137 1.279 . S
O136 Cd128 2.223 . S
O136 C135 1.315 . S
O137 Cd127 2.240 . S
O137 C135 1.279 . S
O138 Cd128 2.297 1_545 S
O138 C133 1.247 . S
O139 Cd128 2.439 1_545 S
O139 C133 1.208 . S
O140 Cd141 2.223 . S
O140 C148 1.315 . S
Cd141 O140 2.223 . S
Cd141 O144 2.297 . S
Cd141 O145 2.439 . S
Cd141 O151 2.240 . S
Cd142 O143 2.240 . S
Cd142 O150 2.223 . S
Cd142 O152 2.297 1_455 S
Cd142 O153 2.439 1_455 S
O143 Cd142 2.240 . S
O143 C148 1.279 . S
O144 Cd141 2.297 . S
O144 C146 1.247 . S
O145 Cd141 2.439 . S
O145 C146 1.208 . S
C146 O144 1.247 . S
C146 O145 1.208 . S
C147 O152 1.247 . S
C147 O153 1.208 . S
C148 O140 1.315 . S
C148 O143 1.279 . S
C149 O150 1.315 . S
C149 O151 1.279 . S
O150 Cd142 2.223 . S
O150 C149 1.315 . S
O151 Cd141 2.240 . S
O151 C149 1.279 . S
O152 Cd142 2.297 1_655 S
O152 C147 1.247 . S
O153 Cd142 2.439 1_655 S
O153 C147 1.208 . S
O154 Cd155 2.223 . S
O154 C162 1.315 . S
Cd155 O154 2.223 . S
Cd155 O158 2.297 . S
Cd155 O159 2.439 . S
Cd155 O165 2.240 . S
Cd156 O157 2.240 . S
Cd156 O164 2.223 . S
Cd156 O166 2.297 . S
Cd156 O167 2.439 . S
O157 Cd156 2.240 . S
O157 C162 1.279 . S
O158 Cd155 2.297 . S
O158 C160 1.247 . S
O159 Cd155 2.439 . S
O159 C160 1.208 . S
C160 O158 1.247 . S
C160 O159 1.208 . S
C161 O166 1.247 . S
C161 O167 1.208 . S
C162 O154 1.315 . S
C162 O157 1.279 . S
C163 O164 1.315 . S
C163 O165 1.279 . S
O164 Cd156 2.223 . S
O164 C163 1.315 . S
O165 Cd155 2.240 . S
O165 C163 1.279 . S
O166 Cd156 2.297 . S
O166 C161 1.247 . S
O167 Cd156 2.439 . S
O167 C161 1.208 . S
O168 Cd169 2.223 . S
O168 C176 1.315 . S
Cd169 O168 2.223 . S
Cd169 O172 2.297 . S
Cd169 O173 2.439 . S
Cd169 O179 2.240 . S
Cd170 O171 2.240 . S
Cd170 O178 2.223 . S
Cd170 O180 2.297 1_545 S
Cd170 O181 2.439 1_545 S
O171 Cd170 2.240 . S
O171 C176 1.279 . S
O172 Cd169 2.297 . S
O172 C174 1.247 . S
O173 Cd169 2.439 . S
O173 C174 1.208 . S
C174 O172 1.247 . S
C174 O173 1.208 . S
C175 O180 1.247 . S
C175 O181 1.208 . S
C176 O168 1.315 . S
C176 O171 1.279 . S
C177 O178 1.315 . S
C177 O179 1.279 . S
O178 Cd170 2.223 . S
O178 C177 1.315 . S
O179 Cd169 2.240 . S
O179 C177 1.279 . S
O180 Cd170 2.297 1_565 S
O180 C175 1.247 . S
O181 Cd170 2.439 1_565 S
O181 C175 1.208 . S
O182 Cd183 2.223 . S
O182 C190 1.315 . S
Cd183 O182 2.223 . S
Cd183 O186 2.297 . S
Cd183 O187 2.439 . S
Cd183 O193 2.240 . S
Cd184 O185 2.240 . S
Cd184 O192 2.223 . S
Cd184 O194 2.297 1_655 S
Cd184 O195 2.439 1_655 S
O185 Cd184 2.240 . S
O185 C190 1.279 . S
O186 Cd183 2.297 . S
O186 C188 1.247 . S
O187 Cd183 2.439 . S
O187 C188 1.208 . S
C188 O186 1.247 . S
C188 O187 1.208 . S
C189 O194 1.247 . S
C189 O195 1.208 . S
C190 O182 1.315 . S
C190 O185 1.279 . S
C191 O192 1.315 . S
C191 O193 1.279 . S
O192 Cd184 2.223 . S
O192 C191 1.315 . S
O193 Cd183 2.240 . S
O193 C191 1.279 . S
O194 Cd184 2.297 1_455 S
O194 C189 1.247 . S
O195 Cd184 2.439 1_455 S
O195 C189 1.208 . S
O196 Cd197 2.223 . S
O196 C204 1.315 . S
Cd197 O196 2.223 . S
Cd197 O200 2.297 . S
Cd197 O201 2.439 . S
Cd197 O207 2.240 . S
Cd198 O199 2.240 . S
Cd198 O206 2.223 . S
Cd198 O208 2.297 . S
Cd198 O209 2.439 . S
O199 Cd198 2.240 . S
O199 C204 1.279 . S
O200 Cd197 2.297 . S
O200 C202 1.247 . S
O201 Cd197 2.439 . S
O201 C202 1.208 . S
C202 O200 1.247 . S
C202 O201 1.208 . S
C203 O208 1.247 . S
C203 O209 1.208 . S
C204 O196 1.315 . S
C204 O199 1.279 . S
C205 O206 1.315 . S
C205 O207 1.279 . S
O206 Cd198 2.223 . S
O206 C205 1.315 . S
O207 Cd197 2.240 . S
O207 C205 1.279 . S
O208 Cd198 2.297 . S
O208 C203 1.247 . S
O209 Cd198 2.439 . S
O209 C203 1.208 . S
O210 Cd211 2.223 . S
O210 C218 1.315 . S
Cd211 O210 2.223 . S
Cd211 O214 2.297 . S
Cd211 O215 2.439 . S
Cd211 O221 2.240 . S
Cd212 O213 2.240 . S
Cd212 O220 2.223 . S
Cd212 O222 2.297 . S
Cd212 O223 2.439 . S
O213 Cd212 2.240 . S
O213 C218 1.279 . S
O214 Cd211 2.297 . S
O214 C216 1.247 . S
O215 Cd211 2.439 . S
O215 C216 1.208 . S
C216 O214 1.247 . S
C216 O215 1.208 . S
C217 O222 1.247 . S
C217 O223 1.208 . S
C218 O210 1.315 . S
C218 O213 1.279 . S
C219 O220 1.315 . S
C219 O221 1.279 . S
O220 Cd212 2.223 . S
O220 C219 1.315 . S
O221 Cd211 2.240 . S
O221 C219 1.279 . S
O222 Cd212 2.297 . S
O222 C217 1.247 . S
O223 Cd212 2.439 . S
O223 C217 1.208 . S
O224 Cd225 2.223 . S
O224 C232 1.315 . S
Cd225 O224 2.223 . S
Cd225 O228 2.297 1_545 S
Cd225 O229 2.439 1_545 S
Cd225 O235 2.240 . S
Cd226 O227 2.240 . S
Cd226 O234 2.223 . S
Cd226 O236 2.297 . S
Cd226 O237 2.439 . S
O227 Cd226 2.240 . S
O227 C232 1.279 . S
O228 Cd225 2.297 1_565 S
O228 C230 1.247 . S
O229 Cd225 2.439 1_565 S
O229 C230 1.208 . S
C230 O228 1.247 . S
C230 O229 1.208 . S
C231 O236 1.247 . S
C231 O237 1.208 . S
C232 O224 1.315 . S
C232 O227 1.279 . S
C233 O234 1.315 . S
C233 O235 1.279 . S
O234 Cd226 2.223 . S
O234 C233 1.315 . S
O235 Cd225 2.240 . S
O235 C233 1.279 . S
O236 Cd226 2.297 . S
O236 C231 1.247 . S
O237 Cd226 2.439 . S
O237 C231 1.208 . S
O238 Cd239 2.223 . S
O238 C246 1.315 . S
Cd239 O238 2.223 . S
Cd239 O242 2.297 . S
Cd239 O243 2.439 . S
Cd239 O249 2.240 . S
Cd240 O241 2.240 . S
Cd240 O248 2.223 . S
Cd240 O250 2.297 1_655 S
Cd240 O251 2.439 1_655 S
O241 Cd240 2.240 . S
O241 C246 1.279 . S
O242 Cd239 2.297 . S
O242 C244 1.247 . S
O243 Cd239 2.439 . S
O243 C244 1.208 . S
C244 O242 1.247 . S
C244 O243 1.208 . S
C245 O250 1.247 . S
C245 O251 1.208 . S
C246 O238 1.315 . S
C246 O241 1.279 . S
C247 O248 1.315 . S
C247 O249 1.279 . S
O248 Cd240 2.223 . S
O248 C247 1.315 . S
O249 Cd239 2.240 . S
O249 C247 1.279 . S
O250 Cd240 2.297 1_455 S
O250 C245 1.247 . S
O251 Cd240 2.439 1_455 S
O251 C245 1.208 . S
H252 C258 0.930 . S
H253 C261 0.931 . S
H254 C263 0.931 . S
H255 C265 0.930 . S
H256 C267 0.930 . S
H257 C269 0.931 . S
C258 H252 0.930 . S
C258 C259 1.380 . S
C258 C260 1.394 . S
C259 C258 1.380 . S
C259 C263 1.382 . S
C260 C258 1.394 . S
C260 C261 1.400 . S
C261 H253 0.931 . S
C261 C260 1.400 . S
C261 C262 1.375 . S
C262 C261 1.375 . S
C262 C263 1.415 . S
C262 C264 1.501 . S
C263 H254 0.931 . S
C263 C259 1.382 . S
C263 C262 1.415 . S
C264 C262 1.501 . S
C264 C265 1.384 . S
C264 C269 1.408 . S
C265 H255 0.930 . S
C265 C264 1.384 . S
C265 C266 1.389 . S
C266 C265 1.389 . S
C266 C267 1.405 . S
C267 H256 0.930 . S
C267 C266 1.405 . S
C267 C268 1.364 . S
C268 C267 1.364 . S
C268 C269 1.400 . S
C269 H257 0.931 . S
C269 C264 1.408 . S
C269 C268 1.400 . S
H270 C276 0.930 . S
H271 C279 0.931 . S
H272 C281 0.931 . S
H273 C283 0.930 . S
H274 C285 0.930 . S
H275 C287 0.931 . S
C276 H270 0.930 . S
C276 C277 1.380 . S
C276 C278 1.394 . S
C277 C276 1.380 . S
C277 C281 1.382 . S
C278 C276 1.394 . S
C278 C279 1.400 . S
C279 H271 0.931 . S
C279 C278 1.400 . S
C279 C280 1.375 . S
C280 C279 1.375 . S
C280 C281 1.415 . S
C280 C282 1.501 . S
C281 H272 0.931 . S
C281 C277 1.382 . S
C281 C280 1.415 . S
C282 C280 1.501 . S
C282 C283 1.384 . S
C282 C287 1.408 . S
C283 H273 0.930 . S
C283 C282 1.384 . S
C283 C284 1.389 . S
C284 C283 1.389 . S
C284 C285 1.405 . S
C285 H274 0.930 . S
C285 C284 1.405 . S
C285 C286 1.364 . S
C286 C285 1.364 . S
C286 C287 1.400 . S
C287 H275 0.931 . S
C287 C282 1.408 . S
C287 C286 1.400 . S
H288 C294 0.930 . S
H289 C297 0.931 . S
H290 C299 0.931 . S
H291 C301 0.930 . S
H292 C303 0.930 . S
H293 C305 0.931 . S
C294 H288 0.930 . S
C294 C295 1.380 . S
C294 C296 1.394 . S
C295 C294 1.380 . S
C295 C299 1.382 . S
C296 C294 1.394 . S
C296 C297 1.400 . S
C297 H289 0.931 . S
C297 C296 1.400 . S
C297 C298 1.375 . S
C298 C297 1.375 . S
C298 C299 1.415 . S
C298 C300 1.501 . S
C299 H290 0.931 . S
C299 C295 1.382 . S
C299 C298 1.415 . S
C300 C298 1.501 . S
C300 C301 1.384 . S
C300 C305 1.408 . S
C301 H291 0.930 . S
C301 C300 1.384 . S
C301 C302 1.389 . S
C302 C301 1.389 . S
C302 C303 1.405 . S
C303 H292 0.930 . S
C303 C302 1.405 . S
C303 C304 1.364 . S
C304 C303 1.364 . S
C304 C305 1.400 . S
C305 H293 0.931 . S
C305 C300 1.408 . S
C305 C304 1.400 . S
H306 C312 0.930 . S
H307 C315 0.931 . S
H308 C317 0.931 . S
H309 C319 0.930 . S
H310 C321 0.930 . S
H311 C323 0.931 . S
C312 H306 0.930 . S
C312 C313 1.380 . S
C312 C314 1.394 . S
C313 C312 1.380 . S
C313 C317 1.382 . S
C314 C312 1.394 . S
C314 C315 1.400 . S
C315 H307 0.931 . S
C315 C314 1.400 . S
C315 C316 1.375 . S
C316 C315 1.375 . S
C316 C317 1.415 . S
C316 C318 1.501 . S
C317 H308 0.931 . S
C317 C313 1.382 . S
C317 C316 1.415 . S
C318 C316 1.501 . S
C318 C319 1.384 . S
C318 C323 1.408 . S
C319 H309 0.930 . S
C319 C318 1.384 . S
C319 C320 1.389 . S
C320 C319 1.389 . S
C320 C321 1.405 . S
C321 H310 0.930 . S
C321 C320 1.405 . S
C321 C322 1.364 . S
C322 C321 1.364 . S
C322 C323 1.400 . S
C323 H311 0.931 . S
C323 C318 1.408 . S
C323 C322 1.400 . S
H324 C330 0.930 . S
H325 C333 0.931 . S
H326 C335 0.931 . S
H327 C337 0.930 . S
H328 C339 0.930 . S
H329 C341 0.931 . S
C330 H324 0.930 . S
C330 C331 1.380 . S
C330 C332 1.394 . S
C331 C330 1.380 . S
C331 C335 1.382 . S
C332 C330 1.394 . S
C332 C333 1.400 . S
C333 H325 0.931 . S
C333 C332 1.400 . S
C333 C334 1.375 . S
C334 C333 1.375 . S
C334 C335 1.415 . S
C334 C336 1.501 . S
C335 H326 0.931 . S
C335 C331 1.382 . S
C335 C334 1.415 . S
C336 C334 1.501 . S
C336 C337 1.384 . S
C336 C341 1.408 . S
C337 H327 0.930 . S
C337 C336 1.384 . S
C337 C338 1.389 . S
C338 C337 1.389 . S
C338 C339 1.405 . S
C339 H328 0.930 . S
C339 C338 1.405 . S
C339 C340 1.364 . S
C340 C339 1.364 . S
C340 C341 1.400 . S
C341 H329 0.931 . S
C341 C336 1.408 . S
C341 C340 1.400 . S
H342 C348 0.930 . S
H343 C351 0.931 . S
H344 C353 0.931 . S
H345 C355 0.930 . S
H346 C357 0.930 . S
H347 C359 0.931 . S
C348 H342 0.930 . S
C348 C349 1.380 . S
C348 C350 1.394 . S
C349 C348 1.380 . S
C349 C353 1.382 . S
C350 C348 1.394 . S
C350 C351 1.400 . S
C351 H343 0.931 . S
C351 C350 1.400 . S
C351 C352 1.375 . S
C352 C351 1.375 . S
C352 C353 1.415 . S
C352 C354 1.501 . S
C353 H344 0.931 . S
C353 C349 1.382 . S
C353 C352 1.415 . S
C354 C352 1.501 . S
C354 C355 1.384 . S
C354 C359 1.408 . S
C355 H345 0.930 . S
C355 C354 1.384 . S
C355 C356 1.389 . S
C356 C355 1.389 . S
C356 C357 1.405 . S
C357 H346 0.930 . S
C357 C356 1.405 . S
C357 C358 1.364 . S
C358 C357 1.364 . S
C358 C359 1.400 . S
C359 H347 0.931 . S
C359 C354 1.408 . S
C359 C358 1.400 . S
H360 C366 0.930 . S
H361 C369 0.931 . S
H362 C371 0.931 . S
H363 C373 0.930 . S
H364 C375 0.930 . S
H365 C377 0.931 . S
C366 H360 0.930 . S
C366 C367 1.380 . S
C366 C368 1.394 . S
C367 C366 1.380 . S
C367 C371 1.382 . S
C368 C366 1.394 . S
C368 C369 1.400 . S
C369 H361 0.931 . S
C369 C368 1.400 . S
C369 C370 1.375 . S
C370 C369 1.375 . S
C370 C371 1.415 . S
C370 C372 1.501 . S
C371 H362 0.931 . S
C371 C367 1.382 . S
C371 C370 1.415 . S
C372 C370 1.501 . S
C372 C373 1.384 . S
C372 C377 1.408 . S
C373 H363 0.930 . S
C373 C372 1.384 . S
C373 C374 1.389 . S
C374 C373 1.389 . S
C374 C375 1.405 . S
C375 H364 0.930 . S
C375 C374 1.405 . S
C375 C376 1.364 . S
C376 C375 1.364 . S
C376 C377 1.400 . S
C377 H365 0.931 . S
C377 C372 1.408 . S
C377 C376 1.400 . S
H378 C384 0.930 . S
H379 C387 0.931 . S
H380 C389 0.931 . S
H381 C391 0.930 . S
H382 C393 0.930 . S
H383 C395 0.931 . S
C384 H378 0.930 . S
C384 C385 1.380 . S
C384 C386 1.394 . S
C385 C384 1.380 . S
C385 C389 1.382 . S
C386 C384 1.394 . S
C386 C387 1.400 . S
C387 H379 0.931 . S
C387 C386 1.400 . S
C387 C388 1.375 . S
C388 C387 1.375 . S
C388 C389 1.415 . S
C388 C390 1.501 . S
C389 H380 0.931 . S
C389 C385 1.382 . S
C389 C388 1.415 . S
C390 C388 1.501 . S
C390 C391 1.384 . S
C390 C395 1.408 . S
C391 H381 0.930 . S
C391 C390 1.384 . S
C391 C392 1.389 . S
C392 C391 1.389 . S
C392 C393 1.405 . S
C393 H382 0.930 . S
C393 C392 1.405 . S
C393 C394 1.364 . S
C394 C393 1.364 . S
C394 C395 1.400 . S
C395 H383 0.931 . S
C395 C390 1.408 . S
C395 C394 1.400 . S
H396 C402 0.930 . S
H397 C405 0.931 . S
H398 C407 0.931 . S
H399 C409 0.930 . S
H400 C411 0.930 . S
H401 C413 0.931 . S
C402 H396 0.930 . S
C402 C403 1.380 . S
C402 C404 1.394 . S
C403 C402 1.380 . S
C403 C407 1.382 . S
C404 C402 1.394 . S
C404 C405 1.400 . S
C405 H397 0.931 . S
C405 C404 1.400 . S
C405 C406 1.375 . S
C406 C405 1.375 . S
C406 C407 1.415 . S
C406 C408 1.501 . S
C407 H398 0.931 . S
C407 C403 1.382 . S
C407 C406 1.415 . S
C408 C406 1.501 . S
C408 C409 1.384 . S
C408 C413 1.408 . S
C409 H399 0.930 . S
C409 C408 1.384 . S
C409 C410 1.389 . S
C410 C409 1.389 . S
C410 C411 1.405 . S
C411 H400 0.930 . S
C411 C410 1.405 . S
C411 C412 1.364 . S
C412 C411 1.364 . S
C412 C413 1.400 . S
C413 H401 0.931 . S
C413 C408 1.408 . S
C413 C412 1.400 . S
H414 C420 0.920 . S
H415 C423 0.931 . S
H416 C425 0.931 . S
H417 C427 0.930 . S
H418 C429 0.930 . S
H419 C431 0.940 1_655 S
C420 H414 0.920 . S
C420 C421 1.389 . S
C420 C422 1.396 1_655 S
C421 C420 1.389 . S
C421 C425 1.382 . S
C422 C420 1.396 1_455 S
C422 C423 1.400 . S
C423 H415 0.931 . S
C423 C422 1.400 . S
C423 C424 1.375 . S
C424 C423 1.375 . S
C424 C425 1.415 1_455 S
C424 C426 1.501 . S
C425 H416 0.931 . S
C425 C421 1.382 . S
C425 C424 1.415 1_655 S
C426 C424 1.501 . S
C426 C427 1.384 . S
C426 C431 1.419 . S
C427 H417 0.930 . S
C427 C426 1.384 . S
C427 C428 1.389 . S
C428 C427 1.389 . S
C428 C429 1.405 . S
C429 H418 0.930 . S
C429 C428 1.405 . S
C429 C430 1.360 . S
C430 C429 1.360 . S
C430 C431 1.394 . S
C431 H419 0.940 1_455 S
C431 C426 1.419 . S
C431 C430 1.394 . S
H432 C438 0.930 . S
H433 C441 0.931 . S
H434 C443 0.931 . S
H435 C445 0.930 . S
H436 C447 0.930 . S
H437 C449 0.931 . S
C438 H432 0.930 . S
C438 C439 1.380 . S
C438 C440 1.394 . S
C439 C438 1.380 . S
C439 C443 1.382 . S
C440 C438 1.394 . S
C440 C441 1.400 . S
C441 H433 0.931 . S
C441 C440 1.400 . S
C441 C442 1.375 . S
C442 C441 1.375 . S
C442 C443 1.415 . S
C442 C444 1.501 . S
C443 H434 0.931 . S
C443 C439 1.382 . S
C443 C442 1.415 . S
C444 C442 1.501 . S
C444 C445 1.384 . S
C444 C449 1.408 . S
C445 H435 0.930 . S
C445 C444 1.384 . S
C445 C446 1.389 . S
C446 C445 1.389 . S
C446 C447 1.405 . S
C447 H436 0.930 . S
C447 C446 1.405 . S
C447 C448 1.364 . S
C448 C447 1.364 . S
C448 C449 1.400 . S
C449 H437 0.931 . S
C449 C444 1.408 . S
C449 C448 1.400 . S
H450 C456 0.943 . S
H451 C459 0.931 . S
H452 C461 0.931 . S
H453 C463 0.930 . S
H454 C465 0.930 . S
H455 C467 0.920 1_545 S
C456 H450 0.943 . S
C456 C457 1.377 . S
C456 C458 1.384 1_545 S
C457 C456 1.377 . S
C457 C461 1.382 . S
C458 C456 1.384 1_565 S
C458 C459 1.400 . S
C459 H451 0.931 . S
C459 C458 1.400 . S
C459 C460 1.375 . S
C460 C459 1.375 . S
C460 C461 1.415 1_565 S
C460 C462 1.501 . S
C461 H452 0.931 . S
C461 C457 1.382 . S
C461 C460 1.415 1_545 S
C462 C460 1.501 . S
C462 C463 1.384 . S
C462 C467 1.401 . S
C463 H453 0.930 . S
C463 C462 1.384 . S
C463 C464 1.389 . S
C464 C463 1.389 . S
C464 C465 1.405 . S
C465 H454 0.930 . S
C465 C464 1.405 . S
C465 C466 1.372 . S
C466 C465 1.372 . S
C466 C467 1.407 . S
C467 H455 0.920 1_565 S
C467 C462 1.401 . S
C467 C466 1.407 . S
H468 C474 0.913 . S
H469 C477 0.931 . S
H470 C479 0.927 1_545 S
H471 C481 0.930 . S
H472 C483 0.930 . S
H473 C485 0.931 . S
C474 H468 0.913 . S
C474 C475 1.382 . S
C474 C476 1.416 1_545 S
C475 C474 1.382 . S
C475 C479 1.401 1_545 S
C476 C474 1.416 1_565 S
C476 C477 1.376 . S
C477 H469 0.931 . S
C477 C476 1.376 . S
C477 C478 1.375 . S
C478 C477 1.375 . S
C478 C479 1.414 . S
C478 C480 1.501 . S
C479 H470 0.927 1_565 S
C479 C475 1.401 1_565 S
C479 C478 1.414 . S
C480 C478 1.501 . S
C480 C481 1.384 . S
C480 C485 1.408 1_565 S
C481 H471 0.930 . S
C481 C480 1.384 . S
C481 C482 1.389 . S
C482 C481 1.389 . S
C482 C483 1.405 . S
C483 H472 0.930 . S
C483 C482 1.405 . S
C483 C484 1.364 1_565 S
C484 C483 1.364 1_545 S
C484 C485 1.400 . S
C485 H473 0.931 . S
C485 C480 1.408 1_545 S
C485 C484 1.400 . S
H486 C492 0.953 . S
H487 C495 0.931 . S
H488 C497 0.934 1_655 S
H489 C499 0.930 . S
H490 C501 0.930 . S
H491 C503 0.931 . S
C492 H486 0.953 . S
C492 C493 1.378 . S
C492 C494 1.367 1_655 S
C493 C492 1.378 . S
C493 C497 1.362 1_655 S
C494 C492 1.367 1_455 S
C494 C495 1.434 . S
C495 H487 0.931 . S
C495 C494 1.434 . S
C495 C496 1.375 . S
C496 C495 1.375 . S
C496 C497 1.417 . S
C496 C498 1.501 . S
C497 H488 0.934 1_455 S
C497 C493 1.362 1_455 S
C497 C496 1.417 . S
C498 C496 1.501 . S
C498 C499 1.384 . S
C498 C503 1.408 1_455 S
C499 H489 0.930 . S
C499 C498 1.384 . S
C499 C500 1.389 . S
C500 C499 1.389 . S
C500 C501 1.405 . S
C501 H490 0.930 . S
C501 C500 1.405 . S
C501 C502 1.364 1_455 S
C502 C501 1.364 1_655 S
C502 C503 1.400 . S
C503 H491 0.931 . S
C503 C498 1.408 1_655 S
C503 C502 1.400 . S
H504 C510 0.930 . S
H505 C513 0.931 . S
H506 C515 0.931 . S
H507 C517 0.930 . S
H508 C519 0.930 . S
H509 C521 0.931 . S
C510 H504 0.930 . S
C510 C511 1.380 . S
C510 C512 1.394 . S
C511 C510 1.380 . S
C511 C515 1.382 . S
C512 C510 1.394 . S
C512 C513 1.400 . S
C513 H505 0.931 . S
C513 C512 1.400 . S
C513 C514 1.375 . S
C514 C513 1.375 . S
C514 C515 1.415 . S
C514 C516 1.501 . S
C515 H506 0.931 . S
C515 C511 1.382 . S
C515 C514 1.415 . S
C516 C514 1.501 . S
C516 C517 1.384 . S
C516 C521 1.408 . S
C517 H507 0.930 . S
C517 C516 1.384 . S
C517 C518 1.389 . S
C518 C517 1.389 . S
C518 C519 1.405 . S
C519 H508 0.930 . S
C519 C518 1.405 . S
C519 C520 1.364 . S
C520 C519 1.364 . S
C520 C521 1.400 . S
C521 H509 0.931 . S
C521 C516 1.408 . S
C521 C520 1.400 . S
H522 C528 0.930 . S
H523 C531 0.931 . S
H524 C533 0.931 . S
H525 C535 0.930 . S
H526 C537 0.930 . S
H527 C539 0.931 . S
C528 H522 0.930 . S
C528 C529 1.380 . S
C528 C530 1.394 . S
C529 C528 1.380 . S
C529 C533 1.382 . S
C530 C528 1.394 . S
C530 C531 1.400 . S
C531 H523 0.931 . S
C531 C530 1.400 . S
C531 C532 1.375 . S
C532 C531 1.375 . S
C532 C533 1.415 . S
C532 C534 1.501 . S
C533 H524 0.931 . S
C533 C529 1.382 . S
C533 C532 1.415 . S
C534 C532 1.501 . S
C534 C535 1.384 . S
C534 C539 1.408 . S
C535 H525 0.930 . S
C535 C534 1.384 . S
C535 C536 1.389 . S
C536 C535 1.389 . S
C536 C537 1.405 . S
C537 H526 0.930 . S
C537 C536 1.405 . S
C537 C538 1.364 . S
C538 C537 1.364 . S
C538 C539 1.400 . S
C539 H527 0.931 . S
C539 C534 1.408 . S
C539 C538 1.400 . S
H540 C546 0.930 . S
H541 C549 0.931 . S
H542 C551 0.931 . S
H543 C553 0.930 . S
H544 C555 0.930 . S
H545 C557 0.931 . S
C546 H540 0.930 . S
C546 C547 1.380 . S
C546 C548 1.394 . S
C547 C546 1.380 . S
C547 C551 1.382 . S
C548 C546 1.394 . S
C548 C549 1.400 . S
C549 H541 0.931 . S
C549 C548 1.400 . S
C549 C550 1.375 . S
C550 C549 1.375 . S
C550 C551 1.415 . S
C550 C552 1.501 . S
C551 H542 0.931 . S
C551 C547 1.382 . S
C551 C550 1.415 . S
C552 C550 1.501 . S
C552 C553 1.384 . S
C552 C557 1.408 . S
C553 H543 0.930 . S
C553 C552 1.384 . S
C553 C554 1.389 . S
C554 C553 1.389 . S
C554 C555 1.405 . S
C555 H544 0.930 . S
C555 C554 1.405 . S
C555 C556 1.364 . S
C556 C555 1.364 . S
C556 C557 1.400 . S
C557 H545 0.931 . S
C557 C552 1.408 . S
C557 C556 1.400 . S
H558 C564 0.930 . S
H559 C567 0.931 . S
H560 C569 0.931 . S
H561 C571 0.930 . S
H562 C573 0.930 . S
H563 C575 0.931 . S
C564 H558 0.930 . S
C564 C565 1.380 . S
C564 C566 1.394 . S
C565 C564 1.380 . S
C565 C569 1.382 . S
C566 C564 1.394 . S
C566 C567 1.400 . S
C567 H559 0.931 . S
C567 C566 1.400 . S
C567 C568 1.375 . S
C568 C567 1.375 . S
C568 C569 1.415 . S
C568 C570 1.501 . S
C569 H560 0.931 . S
C569 C565 1.382 . S
C569 C568 1.415 . S
C570 C568 1.501 . S
C570 C571 1.384 . S
C570 C575 1.408 . S
C571 H561 0.930 . S
C571 C570 1.384 . S
C571 C572 1.389 . S
C572 C571 1.389 . S
C572 C573 1.405 . S
C573 H562 0.930 . S
C573 C572 1.405 . S
C573 C574 1.364 . S
C574 C573 1.364 . S
C574 C575 1.400 . S
C575 H563 0.931 . S
C575 C570 1.408 . S
C575 C574 1.400 . S
H576 C588 0.930 . S
H577 C590 0.930 . S
H578 C591 0.930 . S
H579 C595 0.959 . S
H580 C595 0.959 . S
H581 C595 0.961 . S
H582 C596 0.960 . S
H583 C596 0.961 . S
H584 C596 0.959 . S
H585 C599 0.929 . S
H586 C600 0.931 . S
H587 C602 0.930 . S
C588 H576 0.930 . S
C588 C589 1.399 1_655 S
C588 C593 1.399 . S
C589 C588 1.399 1_455 S
C589 C590 1.376 . S
C590 H577 0.930 . S
C590 C589 1.376 . S
C590 C591 1.388 . S
C591 H578 0.930 . S
C591 C590 1.388 . S
C591 C592 1.390 . S
C592 C591 1.390 . S
C592 C593 1.394 1_455 S
C592 C598 1.465 . S
C593 C588 1.399 . S
C593 C592 1.394 1_655 S
C593 C594 1.516 . S
C594 C593 1.516 . S
C594 C595 1.502 . S
C594 C596 1.561 . S
C594 C597 1.526 . S
C595 H579 0.959 . S
C595 H580 0.959 . S
C595 H581 0.961 . S
C595 C594 1.502 . S
C596 H582 0.960 . S
C596 H583 0.961 . S
C596 H584 0.959 . S
C596 C594 1.561 . S
C597 C594 1.526 . S
C597 C598 1.396 1_655 S
C597 C602 1.390 . S
C598 C592 1.465 . S
C598 C597 1.396 1_455 S
C598 C599 1.399 . S
C599 H585 0.929 . S
C599 C598 1.399 . S
C599 C600 1.385 . S
C600 H586 0.931 . S
C600 C599 1.385 . S
C600 C601 1.389 1_455 S
C601 C600 1.389 1_655 S
C601 C602 1.387 . S
C602 H587 0.930 . S
C602 C597 1.390 . S
C602 C601 1.387 . S
H603 C615 0.930 . S
H604 C617 0.930 . S
H605 C618 0.930 . S
H606 C622 0.959 . S
H607 C622 0.959 . S
H608 C622 0.961 . S
H609 C623 0.960 . S
H610 C623 0.961 . S
H611 C623 0.959 . S
H612 C626 0.929 . S
H613 C627 0.931 . S
H614 C629 0.930 . S
C615 H603 0.930 . S
C615 C616 1.399 . S
C615 C620 1.399 . S
C616 C615 1.399 . S
C616 C617 1.376 . S
C617 H604 0.930 . S
C617 C616 1.376 . S
C617 C618 1.388 . S
C618 H605 0.930 . S
C618 C617 1.388 . S
C618 C619 1.390 . S
C619 C618 1.390 . S
C619 C620 1.394 . S
C619 C625 1.465 . S
C620 C615 1.399 . S
C620 C619 1.394 . S
C620 C621 1.516 . S
C621 C620 1.516 . S
C621 C622 1.502 . S
C621 C623 1.561 . S
C621 C624 1.526 . S
C622 H606 0.959 . S
C622 H607 0.959 . S
C622 H608 0.961 . S
C622 C621 1.502 . S
C623 H609 0.960 . S
C623 H610 0.961 . S
C623 H611 0.959 . S
C623 C621 1.561 . S
C624 C621 1.526 . S
C624 C625 1.396 . S
C624 C629 1.390 . S
C625 C619 1.465 . S
C625 C624 1.396 . S
C625 C626 1.399 . S
C626 H612 0.929 . S
C626 C625 1.399 . S
C626 C627 1.385 . S
C627 H613 0.931 . S
C627 C626 1.385 . S
C627 C628 1.389 . S
C628 C627 1.389 . S
C628 C629 1.387 . S
C629 H614 0.930 . S
C629 C624 1.390 . S
C629 C628 1.387 . S
H630 C642 0.930 . S
H631 C644 0.930 . S
H632 C645 0.930 . S
H633 C649 0.959 . S
H634 C649 0.959 . S
H635 C649 0.961 . S
H636 C650 0.960 . S
H637 C650 0.961 . S
H638 C650 0.959 . S
H639 C653 0.929 . S
H640 C654 0.931 . S
H641 C656 0.930 . S
C642 H630 0.930 . S
C642 C643 1.399 1_565 S
C642 C647 1.399 . S
C643 C642 1.399 1_545 S
C643 C644 1.376 . S
C644 H631 0.930 . S
C644 C643 1.376 . S
C644 C645 1.388 . S
C645 H632 0.930 . S
C645 C644 1.388 . S
C645 C646 1.390 . S
C646 C645 1.390 . S
C646 C647 1.394 1_545 S
C646 C652 1.465 . S
C647 C642 1.399 . S
C647 C646 1.394 1_565 S
C647 C648 1.516 . S
C648 C647 1.516 . S
C648 C649 1.502 . S
C648 C650 1.561 . S
C648 C651 1.526 . S
C649 H633 0.959 . S
C649 H634 0.959 . S
C649 H635 0.961 . S
C649 C648 1.502 . S
C650 H636 0.960 . S
C650 H637 0.961 . S
C650 H638 0.959 . S
C650 C648 1.561 . S
C651 C648 1.526 . S
C651 C652 1.396 1_565 S
C651 C656 1.390 . S
C652 C646 1.465 . S
C652 C651 1.396 1_545 S
C652 C653 1.399 . S
C653 H639 0.929 . S
C653 C652 1.399 . S
C653 C654 1.385 . S
C654 H640 0.931 . S
C654 C653 1.385 . S
C654 C655 1.389 . S
C655 C654 1.389 . S
C655 C656 1.387 1_545 S
C656 H641 0.930 . S
C656 C651 1.390 . S
C656 C655 1.387 1_565 S
H657 C669 0.930 . S
H658 C671 0.930 . S
H659 C672 0.930 . S
H660 C676 0.959 . S
H661 C676 0.959 . S
H662 C676 0.961 . S
H663 C677 0.960 . S
H664 C677 0.961 . S
H665 C677 0.959 . S
H666 C680 0.929 . S
H667 C681 0.931 . S
H668 C683 0.930 . S
C669 H657 0.930 . S
C669 C670 1.399 1_545 S
C669 C674 1.399 . S
C670 C669 1.399 1_565 S
C670 C671 1.376 . S
C671 H658 0.930 . S
C671 C670 1.376 . S
C671 C672 1.388 . S
C672 H659 0.930 . S
C672 C671 1.388 . S
C672 C673 1.390 . S
C673 C672 1.390 . S
C673 C674 1.394 1_565 S
C673 C679 1.465 . S
C674 C669 1.399 . S
C674 C673 1.394 1_545 S
C674 C675 1.516 . S
C675 C674 1.516 . S
C675 C676 1.502 . S
C675 C677 1.561 . S
C675 C678 1.526 . S
C676 H660 0.959 . S
C676 H661 0.959 . S
C676 H662 0.961 . S
C676 C675 1.502 . S
C677 H663 0.960 . S
C677 H664 0.961 . S
C677 H665 0.959 . S
C677 C675 1.561 . S
C678 C675 1.526 . S
C678 C679 1.396 1_545 S
C678 C683 1.390 . S
C679 C673 1.465 . S
C679 C678 1.396 1_565 S
C679 C680 1.399 . S
C680 H666 0.929 . S
C680 C679 1.399 . S
C680 C681 1.385 . S
C681 H667 0.931 . S
C681 C680 1.385 . S
C681 C682 1.389 . S
C682 C681 1.389 . S
C682 C683 1.387 1_565 S
C683 H668 0.930 . S
C683 C678 1.390 . S
C683 C682 1.387 1_545 S
H684 C696 0.930 . S
H685 C698 0.930 . S
H686 C699 0.930 . S
H687 C703 0.959 . S
H688 C703 0.959 . S
H689 C703 0.961 . S
H690 C704 0.960 . S
H691 C704 0.961 . S
H692 C704 0.959 1_455 S
H693 C707 0.929 . S
H694 C708 0.931 . S
H695 C710 0.930 . S
C696 H684 0.930 . S
C696 C697 1.399 1_655 S
C696 C701 1.399 . S
C697 C696 1.399 1_455 S
C697 C698 1.376 . S
C698 H685 0.930 . S
C698 C697 1.376 . S
C698 C699 1.388 . S
C699 H686 0.930 . S
C699 C698 1.388 . S
C699 C700 1.390 . S
C700 C699 1.390 . S
C700 C701 1.394 1_455 S
C700 C706 1.465 . S
C701 C696 1.399 . S
C701 C700 1.394 1_655 S
C701 C702 1.516 . S
C702 C701 1.516 . S
C702 C703 1.502 . S
C702 C704 1.561 . S
C702 C705 1.526 . S
C703 H687 0.959 . S
C703 H688 0.959 . S
C703 H689 0.961 . S
C703 C702 1.502 . S
C704 H690 0.960 . S
C704 H691 0.961 . S
C704 H692 0.959 1_655 S
C704 C702 1.561 . S
C705 C702 1.526 . S
C705 C706 1.396 1_655 S
C705 C710 1.390 . S
C706 C700 1.465 . S
C706 C705 1.396 1_455 S
C706 C707 1.399 . S
C707 H693 0.929 . S
C707 C706 1.399 . S
C707 C708 1.385 . S
C708 H694 0.931 . S
C708 C707 1.385 . S
C708 C709 1.389 . S
C709 C708 1.389 . S
C709 C710 1.387 1_455 S
C710 H695 0.930 . S
C710 C705 1.390 . S
C710 C709 1.387 1_655 S
H711 C723 0.930 . S
H712 C725 0.930 . S
H713 C726 0.930 . S
H714 C730 0.959 . S
H715 C730 0.959 . S
H716 C730 0.961 . S
H717 C731 0.960 . S
H718 C731 0.961 . S
H719 C731 0.959 . S
H720 C734 0.929 . S
H721 C735 0.931 . S
H722 C737 0.930 . S
C723 H711 0.930 . S
C723 C724 1.399 . S
C723 C728 1.399 . S
C724 C723 1.399 . S
C724 C725 1.376 . S
C725 H712 0.930 . S
C725 C724 1.376 . S
C725 C726 1.388 . S
C726 H713 0.930 . S
C726 C725 1.388 . S
C726 C727 1.390 . S
C727 C726 1.390 . S
C727 C728 1.394 . S
C727 C733 1.465 . S
C728 C723 1.399 . S
C728 C727 1.394 . S
C728 C729 1.516 . S
C729 C728 1.516 . S
C729 C730 1.502 . S
C729 C731 1.561 . S
C729 C732 1.526 . S
C730 H714 0.959 . S
C730 H715 0.959 . S
C730 H716 0.961 . S
C730 C729 1.502 . S
C731 H717 0.960 . S
C731 H718 0.961 . S
C731 H719 0.959 . S
C731 C729 1.561 . S
C732 C729 1.526 . S
C732 C733 1.396 . S
C732 C737 1.390 . S
C733 C727 1.465 . S
C733 C732 1.396 . S
C733 C734 1.399 . S
C734 H720 0.929 . S
C734 C733 1.399 . S
C734 C735 1.385 . S
C735 H721 0.931 . S
C735 C734 1.385 . S
C735 C736 1.389 . S
C736 C735 1.389 . S
C736 C737 1.387 . S
C737 H722 0.930 . S
C737 C732 1.390 . S
C737 C736 1.387 . S
H738 C750 0.930 . S
H739 C752 0.930 . S
H740 C753 0.930 . S
H741 C757 0.959 . S
H742 C757 0.959 . S
H743 C757 0.961 . S
H744 C758 0.960 . S
H745 C758 0.961 . S
H746 C758 0.959 . S
H747 C761 0.929 . S
H748 C762 0.931 . S
H749 C764 0.930 . S
C750 H738 0.930 . S
C750 C751 1.399 1_655 S
C750 C755 1.399 . S
C751 C750 1.399 1_455 S
C751 C752 1.376 . S
C752 H739 0.930 . S
C752 C751 1.376 . S
C752 C753 1.388 . S
C753 H740 0.930 . S
C753 C752 1.388 . S
C753 C754 1.390 . S
C754 C753 1.390 . S
C754 C755 1.394 1_455 S
C754 C760 1.465 . S
C755 C750 1.399 . S
C755 C754 1.394 1_655 S
C755 C756 1.516 . S
C756 C755 1.516 . S
C756 C757 1.502 . S
C756 C758 1.561 . S
C756 C759 1.526 . S
C757 H741 0.959 . S
C757 H742 0.959 . S
C757 H743 0.961 . S
C757 C756 1.502 . S
C758 H744 0.960 . S
C758 H745 0.961 . S
C758 H746 0.959 . S
C758 C756 1.561 . S
C759 C756 1.526 . S
C759 C760 1.396 1_655 S
C759 C764 1.390 . S
C760 C754 1.465 . S
C760 C759 1.396 1_455 S
C760 C761 1.399 . S
C761 H747 0.929 . S
C761 C760 1.399 . S
C761 C762 1.385 . S
C762 H748 0.931 . S
C762 C761 1.385 . S
C762 C763 1.389 . S
C763 C762 1.389 . S
C763 C764 1.387 1_455 S
C764 H749 0.930 . S
C764 C759 1.390 . S
C764 C763 1.387 1_655 S
H765 C777 0.930 . S
H766 C779 0.930 . S
H767 C780 0.930 . S
H768 C784 0.959 . S
H769 C784 0.959 . S
H770 C784 0.961 . S
H771 C785 0.960 . S
H772 C785 0.961 . S
H773 C785 0.959 . S
H774 C788 0.929 . S
H775 C789 0.931 . S
H776 C791 0.930 . S
C777 H765 0.930 . S
C777 C778 1.399 . S
C777 C782 1.399 . S
C778 C777 1.399 . S
C778 C779 1.376 . S
C779 H766 0.930 . S
C779 C778 1.376 . S
C779 C780 1.388 . S
C780 H767 0.930 . S
C780 C779 1.388 . S
C780 C781 1.390 . S
C781 C780 1.390 . S
C781 C782 1.394 . S
C781 C787 1.465 . S
C782 C777 1.399 . S
C782 C781 1.394 . S
C782 C783 1.516 . S
C783 C782 1.516 . S
C783 C784 1.502 . S
C783 C785 1.561 . S
C783 C786 1.526 . S
C784 H768 0.959 . S
C784 H769 0.959 . S
C784 H770 0.961 . S
C784 C783 1.502 . S
C785 H771 0.960 . S
C785 H772 0.961 . S
C785 H773 0.959 . S
C785 C783 1.561 . S
C786 C783 1.526 . S
C786 C787 1.396 . S
C786 C791 1.390 . S
C787 C781 1.465 . S
C787 C786 1.396 . S
C787 C788 1.399 . S
C788 H774 0.929 . S
C788 C787 1.399 . S
C788 C789 1.385 . S
C789 H775 0.931 . S
C789 C788 1.385 . S
C789 C790 1.389 . S
C790 C789 1.389 . S
C790 C791 1.387 . S
C791 H776 0.930 . S
C791 C786 1.390 . S
C791 C790 1.387 . S
H792 C804 0.930 . S
H793 C806 0.930 . S
H794 C807 0.930 . S
H795 C811 0.959 . S
H796 C811 0.959 . S
H797 C811 0.961 . S
H798 C812 0.960 . S
H799 C812 0.961 . S
H800 C812 0.959 . S
H801 C815 0.929 . S
H802 C816 0.931 . S
H803 C818 0.930 . S
C804 H792 0.930 . S
C804 C805 1.344 1_545 S
C804 C809 1.399 . S
C805 C804 1.344 1_565 S
C805 C806 1.420 . S
C806 H793 0.930 . S
C806 C805 1.420 . S
C806 C807 1.388 . S
C807 H794 0.930 . S
C807 C806 1.388 . S
C807 C808 1.390 . S
C808 C807 1.390 . S
C808 C809 1.394 1_565 S
C808 C814 1.465 . S
C809 C804 1.399 . S
C809 C808 1.394 1_545 S
C809 C810 1.516 . S
C810 C809 1.516 . S
C810 C811 1.502 . S
C810 C812 1.561 . S
C810 C813 1.526 . S
C811 H795 0.959 . S
C811 H796 0.959 . S
C811 H797 0.961 . S
C811 C810 1.502 . S
C812 H798 0.960 . S
C812 H799 0.961 . S
C812 H800 0.959 . S
C812 C810 1.561 . S
C813 C810 1.526 . S
C813 C814 1.396 1_545 S
C813 C818 1.390 . S
C814 C808 1.465 . S
C814 C813 1.396 1_565 S
C814 C815 1.399 . S
C815 H801 0.929 . S
C815 C814 1.399 . S
C815 C816 1.385 . S
C816 H802 0.931 . S
C816 C815 1.385 . S
C816 C817 1.389 . S
C817 C816 1.389 . S
C817 C818 1.387 1_565 S
C818 H803 0.930 . S
C818 C813 1.390 . S
C818 C817 1.387 1_545 S
H819 C831 0.930 . S
H820 C833 0.930 . S
H821 C834 0.930 . S
H822 C838 0.959 . S
H823 C838 0.959 . S
H824 C838 0.961 . S
H825 C839 0.960 . S
H826 C839 0.961 . S
H827 C839 0.959 . S
H828 C842 0.929 . S
H829 C843 0.931 . S
H830 C845 0.930 . S
C831 H819 0.930 . S
C831 C832 1.399 1_565 S
C831 C836 1.399 . S
C832 C831 1.399 1_545 S
C832 C833 1.376 . S
C833 H820 0.930 . S
C833 C832 1.376 . S
C833 C834 1.388 . S
C834 H821 0.930 . S
C834 C833 1.388 . S
C834 C835 1.390 . S
C835 C834 1.390 . S
C835 C836 1.394 1_545 S
C835 C841 1.465 . S
C836 C831 1.399 . S
C836 C835 1.394 1_565 S
C836 C837 1.516 . S
C837 C836 1.516 . S
C837 C838 1.502 . S
C837 C839 1.561 . S
C837 C840 1.526 . S
C838 H822 0.959 . S
C838 H823 0.959 . S
C838 H824 0.961 . S
C838 C837 1.502 . S
C839 H825 0.960 . S
C839 H826 0.961 . S
C839 H827 0.959 . S
C839 C837 1.561 . S
C840 C837 1.526 . S
C840 C841 1.396 1_565 S
C840 C845 1.390 . S
C841 C835 1.465 . S
C841 C840 1.396 1_545 S
C841 C842 1.399 . S
C842 H828 0.929 . S
C842 C841 1.399 . S
C842 C843 1.385 . S
C843 H829 0.931 . S
C843 C842 1.385 . S
C843 C844 1.389 . S
C844 C843 1.389 . S
C844 C845 1.387 1_545 S
C845 H830 0.930 . S
C845 C840 1.390 . S
C845 C844 1.387 1_565 S
H846 C858 0.930 . S
H847 C860 0.930 . S
H848 C861 0.930 . S
H849 C865 0.959 . S
H850 C865 0.959 . S
H851 C865 0.961 . S
H852 C866 0.960 . S
H853 C866 0.961 . S
H854 C866 0.959 1_455 S
H855 C869 0.929 . S
H856 C870 0.931 . S
H857 C872 0.930 . S
C858 H846 0.930 . S
C858 C859 1.399 1_655 S
C858 C863 1.399 . S
C859 C858 1.399 1_455 S
C859 C860 1.376 . S
C860 H847 0.930 . S
C860 C859 1.376 . S
C860 C861 1.388 . S
C861 H848 0.930 . S
C861 C860 1.388 . S
C861 C862 1.390 . S
C862 C861 1.390 . S
C862 C863 1.394 1_455 S
C862 C868 1.465 . S
C863 C858 1.399 . S
C863 C862 1.394 1_655 S
C863 C864 1.516 . S
C864 C863 1.516 . S
C864 C865 1.502 . S
C864 C866 1.561 . S
C864 C867 1.526 . S
C865 H849 0.959 . S
C865 H850 0.959 . S
C865 H851 0.961 . S
C865 C864 1.502 . S
C866 H852 0.960 . S
C866 H853 0.961 . S
C866 H854 0.959 1_655 S
C866 C864 1.561 . S
C867 C864 1.526 . S
C867 C868 1.396 1_655 S
C867 C872 1.390 . S
C868 C862 1.465 . S
C868 C867 1.396 1_455 S
C868 C869 1.399 . S
C869 H855 0.929 . S
C869 C868 1.399 . S
C869 C870 1.385 . S
C870 H856 0.931 . S
C870 C869 1.385 . S
C870 C871 1.389 . S
C871 C870 1.389 . S
C871 C872 1.387 1_455 S
C872 H857 0.930 . S
C872 C867 1.390 . S
C872 C871 1.387 1_655 S
H873 C885 0.930 . S
H874 C887 0.930 . S
H875 C888 0.930 . S
H876 C892 0.959 . S
H877 C892 0.959 . S
H878 C892 0.961 . S
H879 C893 0.960 . S
H880 C893 0.961 . S
H881 C893 0.959 . S
H882 C896 0.929 . S
H883 C897 0.931 . S
H884 C899 0.930 . S
C885 H873 0.930 . S
C885 C886 1.399 . S
C885 C890 1.399 . S
C886 C885 1.399 . S
C886 C887 1.376 . S
C887 H874 0.930 . S
C887 C886 1.376 . S
C887 C888 1.388 . S
C888 H875 0.930 . S
C888 C887 1.388 . S
C888 C889 1.390 . S
C889 C888 1.390 . S
C889 C890 1.394 . S
C889 C895 1.465 . S
C890 C885 1.399 . S
C890 C889 1.394 . S
C890 C891 1.516 . S
C891 C890 1.516 . S
C891 C892 1.502 . S
C891 C893 1.561 . S
C891 C894 1.526 . S
C892 H876 0.959 . S
C892 H877 0.959 . S
C892 H878 0.961 . S
C892 C891 1.502 . S
C893 H879 0.960 . S
C893 H880 0.961 . S
C893 H881 0.959 . S
C893 C891 1.561 . S
C894 C891 1.526 . S
C894 C895 1.396 . S
C894 C899 1.390 . S
C895 C889 1.465 . S
C895 C894 1.396 . S
C895 C896 1.399 . S
C896 H882 0.929 . S
C896 C895 1.399 . S
C896 C897 1.385 . S
C897 H883 0.931 . S
C897 C896 1.385 . S
C897 C898 1.389 . S
C898 C897 1.389 . S
C898 C899 1.387 . S
C899 H884 0.930 . S
C899 C894 1.390 . S
C899 C898 1.387 . S
H900 C912 0.930 . S
H901 C914 0.930 . S
H902 C915 0.930 . S
H903 C919 0.959 . S
H904 C919 0.959 . S
H905 C919 0.961 . S
H906 C920 0.960 . S
H907 C920 0.961 . S
H908 C920 0.959 . S
H909 C923 0.929 . S
H910 C924 0.931 . S
H911 C926 0.930 . S
C912 H900 0.930 . S
C912 C913 1.399 . S
C912 C917 1.399 . S
C913 C912 1.399 . S
C913 C914 1.376 . S
C914 H901 0.930 . S
C914 C913 1.376 . S
C914 C915 1.388 . S
C915 H902 0.930 . S
C915 C914 1.388 . S
C915 C916 1.390 . S
C916 C915 1.390 . S
C916 C917 1.394 . S
C916 C922 1.465 . S
C917 C912 1.399 . S
C917 C916 1.394 . S
C917 C918 1.516 . S
C918 C917 1.516 . S
C918 C919 1.502 . S
C918 C920 1.561 . S
C918 C921 1.526 . S
C919 H903 0.959 . S
C919 H904 0.959 . S
C919 H905 0.961 . S
C919 C918 1.502 . S
C920 H906 0.960 . S
C920 H907 0.961 . S
C920 H908 0.959 . S
C920 C918 1.561 . S
C921 C918 1.526 . S
C921 C922 1.396 . S
C921 C926 1.390 . S
C922 C916 1.465 . S
C922 C921 1.396 . S
C922 C923 1.399 . S
C923 H909 0.929 . S
C923 C922 1.399 . S
C923 C924 1.385 . S
C924 H910 0.931 . S
C924 C923 1.385 . S
C924 C925 1.389 . S
C925 C924 1.389 . S
C925 C926 1.387 . S
C926 H911 0.930 . S
C926 C921 1.390 . S
C926 C925 1.387 . S
H927 C939 0.930 . S
H928 C941 0.930 . S
H929 C942 0.930 . S
H930 C946 0.959 . S
H931 C946 0.959 . S
H932 C946 0.961 . S
H933 C947 0.960 . S
H934 C947 0.961 . S
H935 C947 0.959 . S
H936 C950 0.929 . S
H937 C951 0.931 . S
H938 C953 0.930 . S
C939 H927 0.930 . S
C939 C940 1.399 . S
C939 C944 1.399 . S
C940 C939 1.399 . S
C940 C941 1.376 . S
C941 H928 0.930 . S
C941 C940 1.376 . S
C941 C942 1.388 . S
C942 H929 0.930 . S
C942 C941 1.388 . S
C942 C943 1.390 . S
C943 C942 1.390 . S
C943 C944 1.394 . S
C943 C949 1.465 . S
C944 C939 1.399 . S
C944 C943 1.394 . S
C944 C945 1.516 . S
C945 C944 1.516 . S
C945 C946 1.502 . S
C945 C947 1.561 . S
C945 C948 1.526 . S
C946 H930 0.959 . S
C946 H931 0.959 . S
C946 H932 0.961 . S
C946 C945 1.502 . S
C947 H933 0.960 . S
C947 H934 0.961 . S
C947 H935 0.959 . S
C947 C945 1.561 . S
C948 C945 1.526 . S
C948 C949 1.396 . S
C948 C953 1.390 . S
C949 C943 1.465 . S
C949 C948 1.396 . S
C949 C950 1.399 . S
C950 H936 0.929 . S
C950 C949 1.399 . S
C950 C951 1.385 . S
C951 H937 0.931 . S
C951 C950 1.385 . S
C951 C952 1.389 . S
C952 C951 1.389 . S
C952 C953 1.387 . S
C953 H938 0.930 . S
C953 C948 1.390 . S
C953 C952 1.387 . S
H954 C966 0.930 . S
H955 C968 0.930 . S
H956 C969 0.930 . S
H957 C973 0.959 . S
H958 C973 0.959 . S
H959 C973 0.961 . S
H960 C974 0.960 . S
H961 C974 0.961 . S
H962 C974 0.959 . S
H963 C977 0.929 . S
H964 C978 0.931 . S
H965 C980 0.930 . S
C966 H954 0.930 . S
C966 C967 1.399 . S
C966 C971 1.399 . S
C967 C966 1.399 . S
C967 C968 1.376 . S
C968 H955 0.930 . S
C968 C967 1.376 . S
C968 C969 1.388 . S
C969 H956 0.930 . S
C969 C968 1.388 . S
C969 C970 1.390 . S
C970 C969 1.390 . S
C970 C971 1.394 . S
C970 C976 1.465 . S
C971 C966 1.399 . S
C971 C970 1.394 . S
C971 C972 1.516 . S
C972 C971 1.516 . S
C972 C973 1.502 . S
C972 C974 1.561 . S
C972 C975 1.526 . S
C973 H957 0.959 . S
C973 H958 0.959 . S
C973 H959 0.961 . S
C973 C972 1.502 . S
C974 H960 0.960 . S
C974 H961 0.961 . S
C974 H962 0.959 . S
C974 C972 1.561 . S
C975 C972 1.526 . S
C975 C976 1.396 . S
C975 C980 1.390 . S
C976 C970 1.465 . S
C976 C975 1.396 . S
C976 C977 1.399 . S
C977 H963 0.929 . S
C977 C976 1.399 . S
C977 C978 1.385 . S
C978 H964 0.931 . S
C978 C977 1.385 . S
C978 C979 1.389 . S
C979 C978 1.389 . S
C979 C980 1.387 . S
C980 H965 0.930 . S
C980 C975 1.390 . S
C980 C979 1.387 . S
H981 C993 0.930 . S
H982 C995 0.930 . S
H983 C996 0.930 . S
H984 C1000 0.959 . S
H985 C1000 0.959 . S
H986 C1000 0.961 . S
H987 C1001 0.960 . S
H988 C1001 0.961 . S
H989 C1001 0.959 . S
H990 C1004 0.929 . S
H991 C1005 0.931 . S
H992 C1007 0.930 . S
C993 H981 0.930 . S
C993 C994 1.399 . S
C993 C998 1.399 . S
C994 C993 1.399 . S
C994 C995 1.376 . S
C995 H982 0.930 . S
C995 C994 1.376 . S
C995 C996 1.388 . S
C996 H983 0.930 . S
C996 C995 1.388 . S
C996 C997 1.390 . S
C997 C996 1.390 . S
C997 C998 1.394 . S
C997 C1003 1.465 . S
C998 C993 1.399 . S
C998 C997 1.394 . S
C998 C999 1.516 . S
C999 C998 1.516 . S
C999 C1000 1.502 . S
C999 C1001 1.561 . S
C999 C1002 1.526 . S
C1000 H984 0.959 . S
C1000 H985 0.959 . S
C1000 H986 0.961 . S
C1000 C999 1.502 . S
C1001 H987 0.960 . S
C1001 H988 0.961 . S
C1001 H989 0.959 . S
C1001 C999 1.561 . S
C1002 C999 1.526 . S
C1002 C1003 1.396 . S
C1002 C1007 1.390 . S
C1003 C997 1.465 . S
C1003 C1002 1.396 . S
C1003 C1004 1.399 . S
C1004 H990 0.929 . S
C1004 C1003 1.399 . S
C1004 C1005 1.385 . S
C1005 H991 0.931 . S
C1005 C1004 1.385 . S
C1005 C1006 1.389 . S
C1006 C1005 1.389 . S
C1006 C1007 1.387 . S
C1007 H992 0.930 . S
C1007 C1002 1.390 . S
C1007 C1006 1.387 . S
H1008 C1020 0.930 . S
H1009 C1022 0.930 . S
H1010 C1023 0.930 . S
H1011 C1027 0.959 . S
H1012 C1027 0.959 . S
H1013 C1027 0.961 . S
H1014 C1028 0.960 . S
H1015 C1028 0.961 . S
H1016 C1028 0.959 . S
H1017 C1031 0.929 . S
H1018 C1032 0.931 . S
H1019 C1034 0.930 . S
C1020 H1008 0.930 . S
C1020 C1021 1.399 . S
C1020 C1025 1.399 . S
C1021 C1020 1.399 . S
C1021 C1022 1.376 . S
C1022 H1009 0.930 . S
C1022 C1021 1.376 . S
C1022 C1023 1.388 . S
C1023 H1010 0.930 . S
C1023 C1022 1.388 . S
C1023 C1024 1.390 . S
C1024 C1023 1.390 . S
C1024 C1025 1.394 . S
C1024 C1030 1.465 . S
C1025 C1020 1.399 . S
C1025 C1024 1.394 . S
C1025 C1026 1.516 . S
C1026 C1025 1.516 . S
C1026 C1027 1.502 . S
C1026 C1028 1.561 . S
C1026 C1029 1.526 . S
C1027 H1011 0.959 . S
C1027 H1012 0.959 . S
C1027 H1013 0.961 . S
C1027 C1026 1.502 . S
C1028 H1014 0.960 . S
C1028 H1015 0.961 . S
C1028 H1016 0.959 . S
C1028 C1026 1.561 . S
C1029 C1026 1.526 . S
C1029 C1030 1.396 . S
C1029 C1034 1.390 . S
C1030 C1024 1.465 . S
C1030 C1029 1.396 . S
C1030 C1031 1.399 . S
C1031 H1017 0.929 . S
C1031 C1030 1.399 . S
C1031 C1032 1.385 . S
C1032 H1018 0.931 . S
C1032 C1031 1.385 . S
C1032 C1033 1.389 . S
C1033 C1032 1.389 . S
C1033 C1034 1.387 . S
C1034 H1019 0.930 . S
C1034 C1029 1.390 . S
C1034 C1033 1.387 . S
H1035 C1047 0.930 . S
H1036 C1049 0.930 . S
H1037 C1050 0.930 . S
H1038 C1054 0.959 . S
H1039 C1054 0.959 . S
H1040 C1054 0.961 . S
H1041 C1055 0.960 . S
H1042 C1055 0.961 . S
H1043 C1055 0.959 . S
H1044 C1058 0.929 . S
H1045 C1059 0.931 . S
H1046 C1061 0.930 . S
C1047 H1035 0.930 . S
C1047 C1048 1.399 . S
C1047 C1052 1.399 . S
C1048 C1047 1.399 . S
C1048 C1049 1.376 . S
C1049 H1036 0.930 . S
C1049 C1048 1.376 . S
C1049 C1050 1.388 . S
C1050 H1037 0.930 . S
C1050 C1049 1.388 . S
C1050 C1051 1.390 . S
C1051 C1050 1.390 . S
C1051 C1052 1.394 . S
C1051 C1057 1.465 . S
C1052 C1047 1.399 . S
C1052 C1051 1.394 . S
C1052 C1053 1.516 . S
C1053 C1052 1.516 . S
C1053 C1054 1.502 . S
C1053 C1055 1.561 . S
C1053 C1056 1.526 . S
C1054 H1038 0.959 . S
C1054 H1039 0.959 . S
C1054 H1040 0.961 . S
C1054 C1053 1.502 . S
C1055 H1041 0.960 . S
C1055 H1042 0.961 . S
C1055 H1043 0.959 . S
C1055 C1053 1.561 . S
C1056 C1053 1.526 . S
C1056 C1057 1.396 . S
C1056 C1061 1.390 . S
C1057 C1051 1.465 . S
C1057 C1056 1.396 . S
C1057 C1058 1.399 . S
C1058 H1044 0.929 . S
C1058 C1057 1.399 . S
C1058 C1059 1.385 . S
C1059 H1045 0.931 . S
C1059 C1058 1.385 . S
C1059 C1060 1.389 . S
C1060 C1059 1.389 . S
C1060 C1061 1.387 . S
C1061 H1046 0.930 . S
C1061 C1056 1.390 . S
C1061 C1060 1.387 . S
H1062 C1074 0.930 . S
H1063 C1076 0.930 . S
H1064 C1077 0.930 . S
H1065 C1081 0.959 . S
H1066 C1081 0.959 . S
H1067 C1081 0.961 . S
H1068 C1082 0.960 . S
H1069 C1082 0.961 . S
H1070 C1082 0.959 . S
H1071 C1085 0.929 . S
H1072 C1086 0.931 . S
H1073 C1088 0.930 . S
C1074 H1062 0.930 . S
C1074 C1075 1.399 . S
C1074 C1079 1.399 . S
C1075 C1074 1.399 . S
C1075 C1076 1.376 . S
C1076 H1063 0.930 . S
C1076 C1075 1.376 . S
C1076 C1077 1.388 . S
C1077 H1064 0.930 . S
C1077 C1076 1.388 . S
C1077 C1078 1.390 . S
C1078 C1077 1.390 . S
C1078 C1079 1.394 . S
C1078 C1084 1.465 . S
C1079 C1074 1.399 . S
C1079 C1078 1.394 . S
C1079 C1080 1.516 . S
C1080 C1079 1.516 . S
C1080 C1081 1.502 . S
C1080 C1082 1.561 . S
C1080 C1083 1.526 . S
C1081 H1065 0.959 . S
C1081 H1066 0.959 . S
C1081 H1067 0.961 . S
C1081 C1080 1.502 . S
C1082 H1068 0.960 . S
C1082 H1069 0.961 . S
C1082 H1070 0.959 . S
C1082 C1080 1.561 . S
C1083 C1080 1.526 . S
C1083 C1084 1.396 . S
C1083 C1088 1.390 . S
C1084 C1078 1.465 . S
C1084 C1083 1.396 . S
C1084 C1085 1.399 . S
C1085 H1071 0.929 . S
C1085 C1084 1.399 . S
C1085 C1086 1.385 . S
C1086 H1072 0.931 . S
C1086 C1085 1.385 . S
C1086 C1087 1.389 . S
C1087 C1086 1.389 . S
C1087 C1088 1.387 . S
C1088 H1073 0.930 . S
C1088 C1083 1.390 . S
C1088 C1087 1.387 . S
H1089 C1101 0.930 . S
H1090 C1103 0.930 . S
H1091 C1104 0.930 . S
H1092 C1108 0.959 . S
H1093 C1108 0.959 . S
H1094 C1108 0.961 . S
H1095 C1109 0.960 . S
H1096 C1109 0.961 . S
H1097 C1109 0.959 . S
H1098 C1112 0.929 . S
H1099 C1113 0.931 . S
H1100 C1115 0.930 . S
C1101 H1089 0.930 . S
C1101 C1102 1.399 . S
C1101 C1106 1.399 . S
C1102 C1101 1.399 . S
C1102 C1103 1.376 . S
C1103 H1090 0.930 . S
C1103 C1102 1.376 . S
C1103 C1104 1.388 . S
C1104 H1091 0.930 . S
C1104 C1103 1.388 . S
C1104 C1105 1.390 . S
C1105 C1104 1.390 . S
C1105 C1106 1.394 . S
C1105 C1111 1.465 . S
C1106 C1101 1.399 . S
C1106 C1105 1.394 . S
C1106 C1107 1.516 . S
C1107 C1106 1.516 . S
C1107 C1108 1.502 . S
C1107 C1109 1.561 . S
C1107 C1110 1.526 . S
C1108 H1092 0.959 . S
C1108 H1093 0.959 . S
C1108 H1094 0.961 . S
C1108 C1107 1.502 . S
C1109 H1095 0.960 . S
C1109 H1096 0.961 . S
C1109 H1097 0.959 . S
C1109 C1107 1.561 . S
C1110 C1107 1.526 . S
C1110 C1111 1.396 . S
C1110 C1115 1.390 . S
C1111 C1105 1.465 . S
C1111 C1110 1.396 . S
C1111 C1112 1.399 . S
C1112 H1098 0.929 . S
C1112 C1111 1.399 . S
C1112 C1113 1.385 . S
C1113 H1099 0.931 . S
C1113 C1112 1.385 . S
C1113 C1114 1.389 . S
C1114 C1113 1.389 . S
C1114 C1115 1.387 . S
C1115 H1100 0.930 . S
C1115 C1110 1.390 . S
C1115 C1114 1.387 . S
H1116 C1128 0.930 . S
H1117 C1130 0.930 . S
H1118 C1131 0.930 . S
H1119 C1135 0.959 . S
H1120 C1135 0.959 . S
H1121 C1135 0.961 . S
H1122 C1136 0.960 . S
H1123 C1136 0.961 . S
H1124 C1136 0.959 . S
H1125 C1139 0.929 . S
H1126 C1140 0.931 . S
H1127 C1142 0.930 . S
C1128 H1116 0.930 . S
C1128 C1129 1.399 . S
C1128 C1133 1.399 . S
C1129 C1128 1.399 . S
C1129 C1130 1.376 . S
C1130 H1117 0.930 . S
C1130 C1129 1.376 . S
C1130 C1131 1.388 . S
C1131 H1118 0.930 . S
C1131 C1130 1.388 . S
C1131 C1132 1.390 . S
C1132 C1131 1.390 . S
C1132 C1133 1.394 . S
C1132 C1138 1.465 . S
C1133 C1128 1.399 . S
C1133 C1132 1.394 . S
C1133 C1134 1.516 . S
C1134 C1133 1.516 . S
C1134 C1135 1.502 . S
C1134 C1136 1.561 . S
C1134 C1137 1.526 . S
C1135 H1119 0.959 . S
C1135 H1120 0.959 . S
C1135 H1121 0.961 . S
C1135 C1134 1.502 . S
C1136 H1122 0.960 . S
C1136 H1123 0.961 . S
C1136 H1124 0.959 . S
C1136 C1134 1.561 . S
C1137 C1134 1.526 . S
C1137 C1138 1.396 . S
C1137 C1142 1.390 . S
C1138 C1132 1.465 . S
C1138 C1137 1.396 . S
C1138 C1139 1.399 . S
C1139 H1125 0.929 . S
C1139 C1138 1.399 . S
C1139 C1140 1.385 . S
C1140 H1126 0.931 . S
C1140 C1139 1.385 . S
C1140 C1141 1.389 . S
C1141 C1140 1.389 . S
C1141 C1142 1.387 . S
C1142 H1127 0.930 . S
C1142 C1137 1.390 . S
C1142 C1141 1.387 . S
H1143 C1155 0.930 . S
H1144 C1157 0.930 . S
H1145 C1158 0.930 . S
H1146 C1162 0.959 . S
H1147 C1162 0.959 . S
H1148 C1162 0.961 . S
H1149 C1163 0.960 . S
H1150 C1163 0.961 . S
H1151 C1163 0.959 . S
H1152 C1166 0.929 . S
H1153 C1167 0.931 . S
H1154 C1169 0.930 . S
C1155 H1143 0.930 . S
C1155 C1156 1.399 . S
C1155 C1160 1.399 . S
C1156 C1155 1.399 . S
C1156 C1157 1.376 . S
C1157 H1144 0.930 . S
C1157 C1156 1.376 . S
C1157 C1158 1.388 . S
C1158 H1145 0.930 . S
C1158 C1157 1.388 . S
C1158 C1159 1.390 . S
C1159 C1158 1.390 . S
C1159 C1160 1.394 . S
C1159 C1165 1.465 . S
C1160 C1155 1.399 . S
C1160 C1159 1.394 . S
C1160 C1161 1.516 . S
C1161 C1160 1.516 . S
C1161 C1162 1.502 . S
C1161 C1163 1.561 . S
C1161 C1164 1.526 . S
C1162 H1146 0.959 . S
C1162 H1147 0.959 . S
C1162 H1148 0.961 . S
C1162 C1161 1.502 . S
C1163 H1149 0.960 . S
C1163 H1150 0.961 . S
C1163 H1151 0.959 . S
C1163 C1161 1.561 . S
C1164 C1161 1.526 . S
C1164 C1165 1.396 . S
C1164 C1169 1.390 . S
C1165 C1159 1.465 . S
C1165 C1164 1.396 . S
C1165 C1166 1.399 . S
C1166 H1152 0.929 . S
C1166 C1165 1.399 . S
C1166 C1167 1.385 . S
C1167 H1153 0.931 . S
C1167 C1166 1.385 . S
C1167 C1168 1.389 . S
C1168 C1167 1.389 . S
C1168 C1169 1.387 . S
C1169 H1154 0.930 . S
C1169 C1164 1.390 . S
C1169 C1168 1.387 . S
H1170 C1182 0.930 . S
H1171 C1184 0.930 . S
H1172 C1185 0.930 . S
H1173 C1189 0.959 . S
H1174 C1189 0.959 . S
H1175 C1189 0.961 . S
H1176 C1190 0.960 . S
H1177 C1190 0.961 . S
H1178 C1190 0.959 . S
H1179 C1193 0.929 . S
H1180 C1194 0.931 . S
H1181 C1196 0.930 . S
C1182 H1170 0.930 . S
C1182 C1183 1.399 . S
C1182 C1187 1.399 . S
C1183 C1182 1.399 . S
C1183 C1184 1.376 . S
C1184 H1171 0.930 . S
C1184 C1183 1.376 . S
C1184 C1185 1.388 . S
C1185 H1172 0.930 . S
C1185 C1184 1.388 . S
C1185 C1186 1.390 . S
C1186 C1185 1.390 . S
C1186 C1187 1.394 . S
C1186 C1192 1.465 . S
C1187 C1182 1.399 . S
C1187 C1186 1.394 . S
C1187 C1188 1.516 . S
C1188 C1187 1.516 . S
C1188 C1189 1.502 . S
C1188 C1190 1.561 . S
C1188 C1191 1.526 . S
C1189 H1173 0.959 . S
C1189 H1174 0.959 . S
C1189 H1175 0.961 . S
C1189 C1188 1.502 . S
C1190 H1176 0.960 . S
C1190 H1177 0.961 . S
C1190 H1178 0.959 . S
C1190 C1188 1.561 . S
C1191 C1188 1.526 . S
C1191 C1192 1.396 . S
C1191 C1196 1.390 . S
C1192 C1186 1.465 . S
C1192 C1191 1.396 . S
C1192 C1193 1.399 . S
C1193 H1179 0.929 . S
C1193 C1192 1.399 . S
C1193 C1194 1.385 . S
C1194 H1180 0.931 . S
C1194 C1193 1.385 . S
C1194 C1195 1.389 . S
C1195 C1194 1.389 . S
C1195 C1196 1.387 . S
C1196 H1181 0.930 . S
C1196 C1191 1.390 . S
C1196 C1195 1.387 . S
H1197 C1209 0.930 . S
H1198 C1211 0.930 . S
H1199 C1212 0.930 . S
H1200 C1216 0.959 . S
H1201 C1216 0.959 . S
H1202 C1216 0.961 . S
H1203 C1217 0.960 . S
H1204 C1217 0.961 . S
H1205 C1217 0.959 . S
H1206 C1220 0.929 . S
H1207 C1221 0.931 . S
H1208 C1223 0.930 . S
C1209 H1197 0.930 . S
C1209 C1210 1.399 . S
C1209 C1214 1.399 . S
C1210 C1209 1.399 . S
C1210 C1211 1.376 . S
C1211 H1198 0.930 . S
C1211 C1210 1.376 . S
C1211 C1212 1.388 . S
C1212 H1199 0.930 . S
C1212 C1211 1.388 . S
C1212 C1213 1.390 . S
C1213 C1212 1.390 . S
C1213 C1214 1.394 . S
C1213 C1219 1.465 . S
C1214 C1209 1.399 . S
C1214 C1213 1.394 . S
C1214 C1215 1.516 . S
C1215 C1214 1.516 . S
C1215 C1216 1.502 . S
C1215 C1217 1.561 . S
C1215 C1218 1.526 . S
C1216 H1200 0.959 . S
C1216 H1201 0.959 . S
C1216 H1202 0.961 . S
C1216 C1215 1.502 . S
C1217 H1203 0.960 . S
C1217 H1204 0.961 . S
C1217 H1205 0.959 . S
C1217 C1215 1.561 . S
C1218 C1215 1.526 . S
C1218 C1219 1.396 . S
C1218 C1223 1.390 . S
C1219 C1213 1.465 . S
C1219 C1218 1.396 . S
C1219 C1220 1.399 . S
C1220 H1206 0.929 . S
C1220 C1219 1.399 . S
C1220 C1221 1.385 . S
C1221 H1207 0.931 . S
C1221 C1220 1.385 . S
C1221 C1222 1.389 . S
C1222 C1221 1.389 . S
C1222 C1223 1.387 . S
C1223 H1208 0.930 . S
C1223 C1218 1.390 . S
C1223 C1222 1.387 . S
H1224 C1236 0.930 . S
H1225 C1238 0.930 . S
H1226 C1239 0.930 . S
H1227 C1243 0.959 . S
H1228 C1243 0.959 . S
H1229 C1243 0.961 . S
H1230 C1244 0.960 . S
H1231 C1244 0.961 . S
H1232 C1244 0.959 . S
H1233 C1247 0.929 . S
H1234 C1248 0.931 . S
H1235 C1250 0.930 . S
C1236 H1224 0.930 . S
C1236 C1237 1.399 . S
C1236 C1241 1.399 . S
C1237 C1236 1.399 . S
C1237 C1238 1.376 . S
C1238 H1225 0.930 . S
C1238 C1237 1.376 . S
C1238 C1239 1.388 . S
C1239 H1226 0.930 . S
C1239 C1238 1.388 . S
C1239 C1240 1.390 . S
C1240 C1239 1.390 . S
C1240 C1241 1.394 . S
C1240 C1246 1.465 . S
C1241 C1236 1.399 . S
C1241 C1240 1.394 . S
C1241 C1242 1.516 . S
C1242 C1241 1.516 . S
C1242 C1243 1.502 . S
C1242 C1244 1.561 . S
C1242 C1245 1.526 . S
C1243 H1227 0.959 . S
C1243 H1228 0.959 . S
C1243 H1229 0.961 . S
C1243 C1242 1.502 . S
C1244 H1230 0.960 . S
C1244 H1231 0.961 . S
C1244 H1232 0.959 . S
C1244 C1242 1.561 . S
C1245 C1242 1.526 . S
C1245 C1246 1.396 . S
C1245 C1250 1.390 . S
C1246 C1240 1.465 . S
C1246 C1245 1.396 . S
C1246 C1247 1.399 . S
C1247 H1233 0.929 . S
C1247 C1246 1.399 . S
C1247 C1248 1.385 . S
C1248 H1234 0.931 . S
C1248 C1247 1.385 . S
C1248 C1249 1.389 . S
C1249 C1248 1.389 . S
C1249 C1250 1.387 . S
C1250 H1235 0.930 . S
C1250 C1245 1.390 . S
C1250 C1249 1.387 . S
H1251 C1263 0.930 . S
H1252 C1265 0.930 . S
H1253 C1266 0.930 . S
H1254 C1270 0.959 . S
H1255 C1270 0.959 . S
H1256 C1270 0.961 . S
H1257 C1271 0.960 . S
H1258 C1271 0.961 . S
H1259 C1271 0.959 . S
H1260 C1274 0.929 . S
H1261 C1275 0.931 . S
H1262 C1277 0.930 . S
C1263 H1251 0.930 . S
C1263 C1264 1.399 . S
C1263 C1268 1.399 . S
C1264 C1263 1.399 . S
C1264 C1265 1.376 . S
C1265 H1252 0.930 . S
C1265 C1264 1.376 . S
C1265 C1266 1.388 . S
C1266 H1253 0.930 . S
C1266 C1265 1.388 . S
C1266 C1267 1.390 . S
C1267 C1266 1.390 . S
C1267 C1268 1.394 . S
C1267 C1273 1.465 . S
C1268 C1263 1.399 . S
C1268 C1267 1.394 . S
C1268 C1269 1.516 . S
C1269 C1268 1.516 . S
C1269 C1270 1.502 . S
C1269 C1271 1.561 . S
C1269 C1272 1.526 . S
C1270 H1254 0.959 . S
C1270 H1255 0.959 . S
C1270 H1256 0.961 . S
C1270 C1269 1.502 . S
C1271 H1257 0.960 . S
C1271 H1258 0.961 . S
C1271 H1259 0.959 . S
C1271 C1269 1.561 . S
C1272 C1269 1.526 . S
C1272 C1273 1.396 . S
C1272 C1277 1.390 . S
C1273 C1267 1.465 . S
C1273 C1272 1.396 . S
C1273 C1274 1.399 . S
C1274 H1260 0.929 . S
C1274 C1273 1.399 . S
C1274 C1275 1.385 . S
C1275 H1261 0.931 . S
C1275 C1274 1.385 . S
C1275 C1276 1.389 . S
C1276 C1275 1.389 . S
C1276 C1277 1.387 . S
C1277 H1262 0.930 . S
C1277 C1272 1.390 . S
C1277 C1276 1.387 . S
H1278 C1290 0.930 . S
H1279 C1292 0.930 . S
H1280 C1293 0.930 . S
H1281 C1297 0.959 . S
H1282 C1297 0.959 . S
H1283 C1297 0.961 . S
H1284 C1298 0.960 . S
H1285 C1298 0.961 . S
H1286 C1298 0.959 . S
H1287 C1301 0.929 . S
H1288 C1302 0.931 . S
H1289 C1304 0.930 . S
C1290 H1278 0.930 . S
C1290 C1291 1.399 . S
C1290 C1295 1.399 . S
C1291 C1290 1.399 . S
C1291 C1292 1.376 . S
C1292 H1279 0.930 . S
C1292 C1291 1.376 . S
C1292 C1293 1.388 . S
C1293 H1280 0.930 . S
C1293 C1292 1.388 . S
C1293 C1294 1.390 . S
C1294 C1293 1.390 . S
C1294 C1295 1.394 . S
C1294 C1300 1.465 . S
C1295 C1290 1.399 . S
C1295 C1294 1.394 . S
C1295 C1296 1.516 . S
C1296 C1295 1.516 . S
C1296 C1297 1.502 . S
C1296 C1298 1.561 . S
C1296 C1299 1.526 . S
C1297 H1281 0.959 . S
C1297 H1282 0.959 . S
C1297 H1283 0.961 . S
C1297 C1296 1.502 . S
C1298 H1284 0.960 . S
C1298 H1285 0.961 . S
C1298 H1286 0.959 . S
C1298 C1296 1.561 . S
C1299 C1296 1.526 . S
C1299 C1300 1.396 . S
C1299 C1304 1.390 . S
C1300 C1294 1.465 . S
C1300 C1299 1.396 . S
C1300 C1301 1.399 . S
C1301 H1287 0.929 . S
C1301 C1300 1.399 . S
C1301 C1302 1.385 . S
C1302 H1288 0.931 . S
C1302 C1301 1.385 . S
C1302 C1303 1.389 . S
C1303 C1302 1.389 . S
C1303 C1304 1.387 . S
C1304 H1289 0.930 . S
C1304 C1299 1.390 . S
C1304 C1303 1.387 . S
H1305 C1317 0.930 . S
H1306 C1319 0.930 . S
H1307 C1320 0.930 . S
H1308 C1324 0.959 . S
H1309 C1324 0.959 . S
H1310 C1324 0.961 . S
H1311 C1325 0.960 . S
H1312 C1325 0.961 . S
H1313 C1325 0.959 . S
H1314 C1328 0.929 . S
H1315 C1329 0.931 . S
H1316 C1331 0.930 . S
C1317 H1305 0.930 . S
C1317 C1318 1.399 . S
C1317 C1322 1.399 . S
C1318 C1317 1.399 . S
C1318 C1319 1.376 . S
C1319 H1306 0.930 . S
C1319 C1318 1.376 . S
C1319 C1320 1.388 . S
C1320 H1307 0.930 . S
C1320 C1319 1.388 . S
C1320 C1321 1.390 . S
C1321 C1320 1.390 . S
C1321 C1322 1.394 . S
C1321 C1327 1.465 . S
C1322 C1317 1.399 . S
C1322 C1321 1.394 . S
C1322 C1323 1.516 . S
C1323 C1322 1.516 . S
C1323 C1324 1.502 . S
C1323 C1325 1.561 . S
C1323 C1326 1.526 . S
C1324 H1308 0.959 . S
C1324 H1309 0.959 . S
C1324 H1310 0.961 . S
C1324 C1323 1.502 . S
C1325 H1311 0.960 . S
C1325 H1312 0.961 . S
C1325 H1313 0.959 . S
C1325 C1323 1.561 . S
C1326 C1323 1.526 . S
C1326 C1327 1.396 . S
C1326 C1331 1.390 . S
C1327 C1321 1.465 . S
C1327 C1326 1.396 . S
C1327 C1328 1.399 . S
C1328 H1314 0.929 . S
C1328 C1327 1.399 . S
C1328 C1329 1.385 . S
C1329 H1315 0.931 . S
C1329 C1328 1.385 . S
C1329 C1330 1.389 . S
C1330 C1329 1.389 . S
C1330 C1331 1.387 . S
C1331 H1316 0.930 . S
C1331 C1326 1.390 . S
C1331 C1330 1.387 . S
H1332 C1344 0.930 . S
H1333 C1346 0.930 . S
H1334 C1347 0.930 . S
H1335 C1351 0.959 . S
H1336 C1351 0.959 . S
H1337 C1351 0.961 . S
H1338 C1352 0.960 . S
H1339 C1352 0.961 . S
H1340 C1352 0.959 . S
H1341 C1355 0.929 . S
H1342 C1356 0.931 . S
H1343 C1358 0.930 . S
C1344 H1332 0.930 . S
C1344 C1345 1.399 . S
C1344 C1349 1.399 . S
C1345 C1344 1.399 . S
C1345 C1346 1.376 . S
C1346 H1333 0.930 . S
C1346 C1345 1.376 . S
C1346 C1347 1.388 . S
C1347 H1334 0.930 . S
C1347 C1346 1.388 . S
C1347 C1348 1.390 . S
C1348 C1347 1.390 . S
C1348 C1349 1.394 . S
C1348 C1354 1.465 . S
C1349 C1344 1.399 . S
C1349 C1348 1.394 . S
C1349 C1350 1.516 . S
C1350 C1349 1.516 . S
C1350 C1351 1.502 . S
C1350 C1352 1.561 . S
C1350 C1353 1.526 . S
C1351 H1335 0.959 . S
C1351 H1336 0.959 . S
C1351 H1337 0.961 . S
C1351 C1350 1.502 . S
C1352 H1338 0.960 . S
C1352 H1339 0.961 . S
C1352 H1340 0.959 . S
C1352 C1350 1.561 . S
C1353 C1350 1.526 . S
C1353 C1354 1.396 . S
C1353 C1358 1.390 . S
C1354 C1348 1.465 . S
C1354 C1353 1.396 . S
C1354 C1355 1.399 . S
C1355 H1341 0.929 . S
C1355 C1354 1.399 . S
C1355 C1356 1.385 . S
C1356 H1342 0.931 . S
C1356 C1355 1.385 . S
C1356 C1357 1.389 . S
C1357 C1356 1.389 . S
C1357 C1358 1.387 . S
C1358 H1343 0.930 . S
C1358 C1353 1.390 . S
C1358 C1357 1.387 . S
H1359 C1371 0.930 . S
H1360 C1373 0.930 . S
H1361 C1374 0.930 . S
H1362 C1378 0.959 . S
H1363 C1378 0.959 . S
H1364 C1378 0.961 . S
H1365 C1379 0.960 . S
H1366 C1379 0.961 . S
H1367 C1379 0.959 . S
H1368 C1382 0.929 . S
H1369 C1383 0.931 . S
H1370 C1385 0.930 . S
C1371 H1359 0.930 . S
C1371 C1372 1.399 . S
C1371 C1376 1.399 . S
C1372 C1371 1.399 . S
C1372 C1373 1.376 . S
C1373 H1360 0.930 . S
C1373 C1372 1.376 . S
C1373 C1374 1.388 . S
C1374 H1361 0.930 . S
C1374 C1373 1.388 . S
C1374 C1375 1.390 . S
C1375 C1374 1.390 . S
C1375 C1376 1.394 . S
C1375 C1381 1.465 . S
C1376 C1371 1.399 . S
C1376 C1375 1.394 . S
C1376 C1377 1.516 . S
C1377 C1376 1.516 . S
C1377 C1378 1.502 . S
C1377 C1379 1.561 . S
C1377 C1380 1.526 . S
C1378 H1362 0.959 . S
C1378 H1363 0.959 . S
C1378 H1364 0.961 . S
C1378 C1377 1.502 . S
C1379 H1365 0.960 . S
C1379 H1366 0.961 . S
C1379 H1367 0.959 . S
C1379 C1377 1.561 . S
C1380 C1377 1.526 . S
C1380 C1381 1.396 . S
C1380 C1385 1.390 . S
C1381 C1375 1.465 . S
C1381 C1380 1.396 . S
C1381 C1382 1.399 . S
C1382 H1368 0.929 . S
C1382 C1381 1.399 . S
C1382 C1383 1.385 . S
C1383 H1369 0.931 . S
C1383 C1382 1.385 . S
C1383 C1384 1.389 . S
C1384 C1383 1.389 . S
C1384 C1385 1.387 . S
C1385 H1370 0.930 . S
C1385 C1380 1.390 . S
C1385 C1384 1.387 . S
H1386 C1398 0.930 . S
H1387 C1400 0.930 . S
H1388 C1401 0.930 . S
H1389 C1405 0.959 . S
H1390 C1405 0.959 . S
H1391 C1405 0.961 . S
H1392 C1406 0.960 . S
H1393 C1406 0.961 . S
H1394 C1406 0.959 . S
H1395 C1409 0.929 . S
H1396 C1410 0.931 . S
H1397 C1412 0.930 . S
C1398 H1386 0.930 . S
C1398 C1399 1.399 . S
C1398 C1403 1.399 . S
C1399 C1398 1.399 . S
C1399 C1400 1.376 . S
C1400 H1387 0.930 . S
C1400 C1399 1.376 . S
C1400 C1401 1.388 . S
C1401 H1388 0.930 . S
C1401 C1400 1.388 . S
C1401 C1402 1.390 . S
C1402 C1401 1.390 . S
C1402 C1403 1.394 . S
C1402 C1408 1.465 . S
C1403 C1398 1.399 . S
C1403 C1402 1.394 . S
C1403 C1404 1.516 . S
C1404 C1403 1.516 . S
C1404 C1405 1.502 . S
C1404 C1406 1.561 . S
C1404 C1407 1.526 . S
C1405 H1389 0.959 . S
C1405 H1390 0.959 . S
C1405 H1391 0.961 . S
C1405 C1404 1.502 . S
C1406 H1392 0.960 . S
C1406 H1393 0.961 . S
C1406 H1394 0.959 . S
C1406 C1404 1.561 . S
C1407 C1404 1.526 . S
C1407 C1408 1.396 . S
C1407 C1412 1.390 . S
C1408 C1402 1.465 . S
C1408 C1407 1.396 . S
C1408 C1409 1.399 . S
C1409 H1395 0.929 . S
C1409 C1408 1.399 . S
C1409 C1410 1.385 . S
C1410 H1396 0.931 . S
C1410 C1409 1.385 . S
C1410 C1411 1.389 . S
C1411 C1410 1.389 . S
C1411 C1412 1.387 . S
C1412 H1397 0.930 . S
C1412 C1407 1.390 . S
C1412 C1411 1.387 . S
H1413 C1425 0.930 . S
H1414 C1427 0.930 . S
H1415 C1428 0.930 . S
H1416 C1432 0.959 . S
H1417 C1432 0.959 . S
H1418 C1432 0.961 . S
H1419 C1433 0.960 . S
H1420 C1433 0.961 . S
H1421 C1433 0.959 . S
H1422 C1436 0.929 . S
H1423 C1437 0.931 . S
H1424 C1439 0.930 . S
C1425 H1413 0.930 . S
C1425 C1426 1.399 . S
C1425 C1430 1.399 . S
C1426 C1425 1.399 . S
C1426 C1427 1.376 . S
C1427 H1414 0.930 . S
C1427 C1426 1.376 . S
C1427 C1428 1.388 . S
C1428 H1415 0.930 . S
C1428 C1427 1.388 . S
C1428 C1429 1.390 . S
C1429 C1428 1.390 . S
C1429 C1430 1.394 . S
C1429 C1435 1.465 . S
C1430 C1425 1.399 . S
C1430 C1429 1.394 . S
C1430 C1431 1.516 . S
C1431 C1430 1.516 . S
C1431 C1432 1.502 . S
C1431 C1433 1.561 . S
C1431 C1434 1.526 . S
C1432 H1416 0.959 . S
C1432 H1417 0.959 . S
C1432 H1418 0.961 . S
C1432 C1431 1.502 . S
C1433 H1419 0.960 . S
C1433 H1420 0.961 . S
C1433 H1421 0.959 . S
C1433 C1431 1.561 . S
C1434 C1431 1.526 . S
C1434 C1435 1.396 . S
C1434 C1439 1.390 . S
C1435 C1429 1.465 . S
C1435 C1434 1.396 . S
C1435 C1436 1.399 . S
C1436 H1422 0.929 . S
C1436 C1435 1.399 . S
C1436 C1437 1.385 . S
C1437 H1423 0.931 . S
C1437 C1436 1.385 . S
C1437 C1438 1.389 . S
C1438 C1437 1.389 . S
C1438 C1439 1.387 . S
C1439 H1424 0.930 . S
C1439 C1434 1.390 . S
C1439 C1438 1.387 . S
H1440 C1452 0.930 . S
H1441 C1454 0.930 . S
H1442 C1455 0.930 . S
H1443 C1459 0.959 . S
H1444 C1459 0.959 . S
H1445 C1459 0.961 . S
H1446 C1460 0.960 . S
H1447 C1460 0.961 . S
H1448 C1460 0.959 . S
H1449 C1463 0.929 . S
H1450 C1464 0.931 . S
H1451 C1466 0.930 . S
C1452 H1440 0.930 . S
C1452 C1453 1.399 . S
C1452 C1457 1.399 . S
C1453 C1452 1.399 . S
C1453 C1454 1.376 . S
C1454 H1441 0.930 . S
C1454 C1453 1.376 . S
C1454 C1455 1.388 . S
C1455 H1442 0.930 . S
C1455 C1454 1.388 . S
C1455 C1456 1.390 . S
C1456 C1455 1.390 . S
C1456 C1457 1.394 . S
C1456 C1462 1.465 . S
C1457 C1452 1.399 . S
C1457 C1456 1.394 . S
C1457 C1458 1.516 . S
C1458 C1457 1.516 . S
C1458 C1459 1.502 . S
C1458 C1460 1.561 . S
C1458 C1461 1.526 . S
C1459 H1443 0.959 . S
C1459 H1444 0.959 . S
C1459 H1445 0.961 . S
C1459 C1458 1.502 . S
C1460 H1446 0.960 . S
C1460 H1447 0.961 . S
C1460 H1448 0.959 . S
C1460 C1458 1.561 . S
C1461 C1458 1.526 . S
C1461 C1462 1.396 . S
C1461 C1466 1.390 . S
C1462 C1456 1.465 . S
C1462 C1461 1.396 . S
C1462 C1463 1.399 . S
C1463 H1449 0.929 . S
C1463 C1462 1.399 . S
C1463 C1464 1.385 . S
C1464 H1450 0.931 . S
C1464 C1463 1.385 . S
C1464 C1465 1.389 . S
C1465 C1464 1.389 . S
C1465 C1466 1.387 . S
C1466 H1451 0.930 . S
C1466 C1461 1.390 . S
C1466 C1465 1.387 . S
H1467 C1479 0.930 . S
H1468 C1481 0.930 . S
H1469 C1482 0.930 . S
H1470 C1486 0.959 . S
H1471 C1486 0.959 . S
H1472 C1486 0.961 . S
H1473 C1487 0.960 . S
H1474 C1487 0.961 . S
H1475 C1487 0.959 . S
H1476 C1490 0.929 . S
H1477 C1491 0.931 . S
H1478 C1493 0.930 . S
C1479 H1467 0.930 . S
C1479 C1480 1.399 . S
C1479 C1484 1.399 . S
C1480 C1479 1.399 . S
C1480 C1481 1.376 . S
C1481 H1468 0.930 . S
C1481 C1480 1.376 . S
C1481 C1482 1.388 . S
C1482 H1469 0.930 . S
C1482 C1481 1.388 . S
C1482 C1483 1.390 . S
C1483 C1482 1.390 . S
C1483 C1484 1.394 . S
C1483 C1489 1.465 . S
C1484 C1479 1.399 . S
C1484 C1483 1.394 . S
C1484 C1485 1.516 . S
C1485 C1484 1.516 . S
C1485 C1486 1.502 . S
C1485 C1487 1.561 . S
C1485 C1488 1.526 . S
C1486 H1470 0.959 . S
C1486 H1471 0.959 . S
C1486 H1472 0.961 . S
C1486 C1485 1.502 . S
C1487 H1473 0.960 . S
C1487 H1474 0.961 . S
C1487 H1475 0.959 . S
C1487 C1485 1.561 . S
C1488 C1485 1.526 . S
C1488 C1489 1.396 . S
C1488 C1493 1.390 . S
C1489 C1483 1.465 . S
C1489 C1488 1.396 . S
C1489 C1490 1.399 . S
C1490 H1476 0.929 . S
C1490 C1489 1.399 . S
C1490 C1491 1.385 . S
C1491 H1477 0.931 . S
C1491 C1490 1.385 . S
C1491 C1492 1.389 . S
C1492 C1491 1.389 . S
C1492 C1493 1.387 . S
C1493 H1478 0.930 . S
C1493 C1488 1.390 . S
C1493 C1492 1.387 . S
H1494 C1506 0.930 . S
H1495 C1508 0.930 . S
H1496 C1509 0.930 . S
H1497 C1513 0.959 . S
H1498 C1513 0.959 . S
H1499 C1513 0.961 . S
H1500 C1514 0.960 . S
H1501 C1514 0.961 . S
H1502 C1514 0.959 . S
H1503 C1517 0.929 . S
H1504 C1518 0.931 . S
H1505 C1520 0.930 . S
C1506 H1494 0.930 . S
C1506 C1507 1.399 . S
C1506 C1511 1.399 . S
C1507 C1506 1.399 . S
C1507 C1508 1.376 . S
C1508 H1495 0.930 . S
C1508 C1507 1.376 . S
C1508 C1509 1.388 . S
C1509 H1496 0.930 . S
C1509 C1508 1.388 . S
C1509 C1510 1.390 . S
C1510 C1509 1.390 . S
C1510 C1511 1.394 . S
C1510 C1516 1.465 . S
C1511 C1506 1.399 . S
C1511 C1510 1.394 . S
C1511 C1512 1.516 . S
C1512 C1511 1.516 . S
C1512 C1513 1.502 . S
C1512 C1514 1.561 . S
C1512 C1515 1.526 . S
C1513 H1497 0.959 . S
C1513 H1498 0.959 . S
C1513 H1499 0.961 . S
C1513 C1512 1.502 . S
C1514 H1500 0.960 . S
C1514 H1501 0.961 . S
C1514 H1502 0.959 . S
C1514 C1512 1.561 . S
C1515 C1512 1.526 . S
C1515 C1516 1.396 . S
C1515 C1520 1.390 . S
C1516 C1510 1.465 . S
C1516 C1515 1.396 . S
C1516 C1517 1.399 . S
C1517 H1503 0.929 . S
C1517 C1516 1.399 . S
C1517 C1518 1.385 . S
C1518 H1504 0.931 . S
C1518 C1517 1.385 . S
C1518 C1519 1.389 . S
C1519 C1518 1.389 . S
C1519 C1520 1.387 . S
C1520 H1505 0.930 . S
C1520 C1515 1.390 . S
C1520 C1519 1.387 . S
H1521 C1533 0.930 . S
H1522 C1535 0.930 . S
H1523 C1536 0.930 . S
H1524 C1540 0.959 . S
H1525 C1540 0.959 . S
H1526 C1540 0.961 . S
H1527 C1541 0.960 . S
H1528 C1541 0.961 . S
H1529 C1541 0.959 . S
H1530 C1544 0.929 . S
H1531 C1545 0.931 . S
H1532 C1547 0.930 . S
C1533 H1521 0.930 . S
C1533 C1534 1.399 . S
C1533 C1538 1.399 . S
C1534 C1533 1.399 . S
C1534 C1535 1.376 . S
C1535 H1522 0.930 . S
C1535 C1534 1.376 . S
C1535 C1536 1.388 . S
C1536 H1523 0.930 . S
C1536 C1535 1.388 . S
C1536 C1537 1.390 . S
C1537 C1536 1.390 . S
C1537 C1538 1.394 . S
C1537 C1543 1.465 . S
C1538 C1533 1.399 . S
C1538 C1537 1.394 . S
C1538 C1539 1.516 . S
C1539 C1538 1.516 . S
C1539 C1540 1.502 . S
C1539 C1541 1.561 . S
C1539 C1542 1.526 . S
C1540 H1524 0.959 . S
C1540 H1525 0.959 . S
C1540 H1526 0.961 . S
C1540 C1539 1.502 . S
C1541 H1527 0.960 . S
C1541 H1528 0.961 . S
C1541 H1529 0.959 . S
C1541 C1539 1.561 . S
C1542 C1539 1.526 . S
C1542 C1543 1.396 . S
C1542 C1547 1.390 . S
C1543 C1537 1.465 . S
C1543 C1542 1.396 . S
C1543 C1544 1.399 . S
C1544 H1530 0.929 . S
C1544 C1543 1.399 . S
C1544 C1545 1.385 . S
C1545 H1531 0.931 . S
C1545 C1544 1.385 . S
C1545 C1546 1.389 . S
C1546 C1545 1.389 . S
C1546 C1547 1.387 . S
C1547 H1532 0.930 . S
C1547 C1542 1.390 . S
C1547 C1546 1.387 . S
H1548 C1560 0.930 . S
H1549 C1562 0.930 . S
H1550 C1563 0.930 . S
H1551 C1567 0.959 . S
H1552 C1567 0.959 . S
H1553 C1567 0.961 . S
H1554 C1568 0.960 . S
H1555 C1568 0.961 . S
H1556 C1568 0.959 . S
H1557 C1571 0.929 . S
H1558 C1572 0.931 . S
H1559 C1574 0.930 . S
C1560 H1548 0.930 . S
C1560 C1561 1.399 . S
C1560 C1565 1.399 . S
C1561 C1560 1.399 . S
C1561 C1562 1.376 . S
C1562 H1549 0.930 . S
C1562 C1561 1.376 . S
C1562 C1563 1.388 . S
C1563 H1550 0.930 . S
C1563 C1562 1.388 . S
C1563 C1564 1.390 . S
C1564 C1563 1.390 . S
C1564 C1565 1.394 . S
C1564 C1570 1.465 . S
C1565 C1560 1.399 . S
C1565 C1564 1.394 . S
C1565 C1566 1.516 . S
C1566 C1565 1.516 . S
C1566 C1567 1.502 . S
C1566 C1568 1.561 . S
C1566 C1569 1.526 . S
C1567 H1551 0.959 . S
C1567 H1552 0.959 . S
C1567 H1553 0.961 . S
C1567 C1566 1.502 . S
C1568 H1554 0.960 . S
C1568 H1555 0.961 . S
C1568 H1556 0.959 . S
C1568 C1566 1.561 . S
C1569 C1566 1.526 . S
C1569 C1570 1.396 . S
C1569 C1574 1.390 . S
C1570 C1564 1.465 . S
C1570 C1569 1.396 . S
C1570 C1571 1.399 . S
C1571 H1557 0.929 . S
C1571 C1570 1.399 . S
C1571 C1572 1.385 . S
C1572 H1558 0.931 . S
C1572 C1571 1.385 . S
C1572 C1573 1.389 . S
C1573 C1572 1.389 . S
C1573 C1574 1.387 . S
C1574 H1559 0.930 . S
C1574 C1569 1.390 . S
C1574 C1573 1.387 . S
H1575 C1587 0.930 . S
H1576 C1589 0.930 . S
H1577 C1590 0.930 . S
H1578 C1594 0.959 . S
H1579 C1594 0.959 . S
H1580 C1594 0.961 . S
H1581 C1595 0.960 . S
H1582 C1595 0.961 . S
H1583 C1595 0.959 . S
H1584 C1598 0.929 . S
H1585 C1599 0.931 . S
H1586 C1601 0.930 . S
C1587 H1575 0.930 . S
C1587 C1588 1.399 . S
C1587 C1592 1.399 . S
C1588 C1587 1.399 . S
C1588 C1589 1.376 . S
C1589 H1576 0.930 . S
C1589 C1588 1.376 . S
C1589 C1590 1.388 . S
C1590 H1577 0.930 . S
C1590 C1589 1.388 . S
C1590 C1591 1.390 . S
C1591 C1590 1.390 . S
C1591 C1592 1.394 . S
C1591 C1597 1.465 . S
C1592 C1587 1.399 . S
C1592 C1591 1.394 . S
C1592 C1593 1.516 . S
C1593 C1592 1.516 . S
C1593 C1594 1.502 . S
C1593 C1595 1.561 . S
C1593 C1596 1.526 . S
C1594 H1578 0.959 . S
C1594 H1579 0.959 . S
C1594 H1580 0.961 . S
C1594 C1593 1.502 . S
C1595 H1581 0.960 . S
C1595 H1582 0.961 . S
C1595 H1583 0.959 . S
C1595 C1593 1.561 . S
C1596 C1593 1.526 . S
C1596 C1597 1.396 . S
C1596 C1601 1.390 . S
C1597 C1591 1.465 . S
C1597 C1596 1.396 . S
C1597 C1598 1.399 . S
C1598 H1584 0.929 . S
C1598 C1597 1.399 . S
C1598 C1599 1.385 . S
C1599 H1585 0.931 . S
C1599 C1598 1.385 . S
C1599 C1600 1.389 . S
C1600 C1599 1.389 . S
C1600 C1601 1.387 . S
C1601 H1586 0.930 . S
C1601 C1596 1.390 . S
C1601 C1600 1.387 . S
H1602 C1614 0.930 . S
H1603 C1616 0.930 . S
H1604 C1617 0.930 . S
H1605 C1621 0.959 . S
H1606 C1621 0.959 . S
H1607 C1621 0.961 . S
H1608 C1622 0.960 . S
H1609 C1622 0.961 . S
H1610 C1622 0.959 . S
H1611 C1625 0.929 . S
H1612 C1626 0.931 . S
H1613 C1628 0.930 . S
C1614 H1602 0.930 . S
C1614 C1615 1.399 . S
C1614 C1619 1.399 . S
C1615 C1614 1.399 . S
C1615 C1616 1.376 . S
C1616 H1603 0.930 . S
C1616 C1615 1.376 . S
C1616 C1617 1.388 . S
C1617 H1604 0.930 . S
C1617 C1616 1.388 . S
C1617 C1618 1.390 . S
C1618 C1617 1.390 . S
C1618 C1619 1.394 . S
C1618 C1624 1.465 . S
C1619 C1614 1.399 . S
C1619 C1618 1.394 . S
C1619 C1620 1.516 . S
C1620 C1619 1.516 . S
C1620 C1621 1.502 . S
C1620 C1622 1.561 . S
C1620 C1623 1.526 . S
C1621 H1605 0.959 . S
C1621 H1606 0.959 . S
C1621 H1607 0.961 . S
C1621 C1620 1.502 . S
C1622 H1608 0.960 . S
C1622 H1609 0.961 . S
C1622 H1610 0.959 . S
C1622 C1620 1.561 . S
C1623 C1620 1.526 . S
C1623 C1624 1.396 . S
C1623 C1628 1.390 . S
C1624 C1618 1.465 . S
C1624 C1623 1.396 . S
C1624 C1625 1.399 . S
C1625 H1611 0.929 . S
C1625 C1624 1.399 . S
C1625 C1626 1.385 . S
C1626 H1612 0.931 . S
C1626 C1625 1.385 . S
C1626 C1627 1.389 . S
C1627 C1626 1.389 . S
C1627 C1628 1.387 . S
C1628 H1613 0.930 . S
C1628 C1623 1.390 . S
C1628 C1627 1.387 . S
H1629 C1641 0.930 . S
H1630 C1643 0.930 1_554 S
H1631 C1644 0.930 . S
H1632 C1648 0.959 . S
H1633 C1648 0.959 . S
H1634 C1648 0.961 . S
H1635 C1649 0.960 . S
H1636 C1649 0.961 . S
H1637 C1649 0.959 . S
H1638 C1652 0.929 . S
H1639 C1653 0.931 . S
H1640 C1655 0.930 . S
C1641 H1629 0.930 . S
C1641 C1642 1.399 . S
C1641 C1646 1.399 . S
C1642 C1641 1.399 . S
C1642 C1643 1.376 . S
C1643 H1630 0.930 1_556 S
C1643 C1642 1.376 . S
C1643 C1644 1.388 . S
C1644 H1631 0.930 . S
C1644 C1643 1.388 . S
C1644 C1645 1.390 . S
C1645 C1644 1.390 . S
C1645 C1646 1.394 . S
C1645 C1651 1.465 . S
C1646 C1641 1.399 . S
C1646 C1645 1.394 . S
C1646 C1647 1.516 . S
C1647 C1646 1.516 . S
C1647 C1648 1.502 . S
C1647 C1649 1.561 . S
C1647 C1650 1.526 . S
C1648 H1632 0.959 . S
C1648 H1633 0.959 . S
C1648 H1634 0.961 . S
C1648 C1647 1.502 . S
C1649 H1635 0.960 . S
C1649 H1636 0.961 . S
C1649 H1637 0.959 . S
C1649 C1647 1.561 . S
C1650 C1647 1.526 . S
C1650 C1651 1.396 . S
C1650 C1655 1.390 . S
C1651 C1645 1.465 . S
C1651 C1650 1.396 . S
C1651 C1652 1.399 . S
C1652 H1638 0.929 . S
C1652 C1651 1.399 . S
C1652 C1653 1.385 . S
C1653 H1639 0.931 . S
C1653 C1652 1.385 . S
C1653 C1654 1.389 . S
C1654 C1653 1.389 . S
C1654 C1655 1.387 . S
C1655 H1640 0.930 . S
C1655 C1650 1.390 . S
C1655 C1654 1.387 . S
H1656 C1668 0.930 . S
H1657 C1670 0.930 1_554 S
H1658 C1671 0.930 . S
H1659 C1675 0.959 . S
H1660 C1675 0.959 . S
H1661 C1675 0.961 . S
H1662 C1676 0.960 . S
H1663 C1676 0.961 . S
H1664 C1676 0.959 . S
H1665 C1679 0.929 . S
H1666 C1680 0.931 . S
H1667 C1682 0.930 . S
C1668 H1656 0.930 . S
C1668 C1669 1.399 . S
C1668 C1673 1.399 . S
C1669 C1668 1.399 . S
C1669 C1670 1.376 . S
C1670 H1657 0.930 1_556 S
C1670 C1669 1.376 . S
C1670 C1671 1.388 . S
C1671 H1658 0.930 . S
C1671 C1670 1.388 . S
C1671 C1672 1.390 . S
C1672 C1671 1.390 . S
C1672 C1673 1.394 . S
C1672 C1678 1.465 . S
C1673 C1668 1.399 . S
C1673 C1672 1.394 . S
C1673 C1674 1.516 . S
C1674 C1673 1.516 . S
C1674 C1675 1.502 . S
C1674 C1676 1.561 . S
C1674 C1677 1.526 . S
C1675 H1659 0.959 . S
C1675 H1660 0.959 . S
C1675 H1661 0.961 . S
C1675 C1674 1.502 . S
C1676 H1662 0.960 . S
C1676 H1663 0.961 . S
C1676 H1664 0.959 . S
C1676 C1674 1.561 . S
C1677 C1674 1.526 . S
C1677 C1678 1.396 . S
C1677 C1682 1.390 . S
C1678 C1672 1.465 . S
C1678 C1677 1.396 . S
C1678 C1679 1.399 . S
C1679 H1665 0.929 . S
C1679 C1678 1.399 . S
C1679 C1680 1.385 . S
C1680 H1666 0.931 . S
C1680 C1679 1.385 . S
C1680 C1681 1.389 . S
C1681 C1680 1.389 . S
C1681 C1682 1.387 . S
C1682 H1667 0.930 . S
C1682 C1677 1.390 . S
C1682 C1681 1.387 . S
H1683 C1695 0.930 . S
H1684 C1697 0.930 . S
H1685 C1698 0.930 . S
H1686 C1702 0.959 . S
H1687 C1702 0.959 . S
H1688 C1702 0.961 . S
H1689 C1703 0.960 . S
H1690 C1703 0.961 . S
H1691 C1703 0.959 . S
H1692 C1706 0.929 . S
H1693 C1707 0.931 . S
H1694 C1709 0.930 . S
C1695 H1683 0.930 . S
C1695 C1696 1.399 . S
C1695 C1700 1.399 . S
C1696 C1695 1.399 . S
C1696 C1697 1.376 . S
C1697 H1684 0.930 . S
C1697 C1696 1.376 . S
C1697 C1698 1.388 . S
C1698 H1685 0.930 . S
C1698 C1697 1.388 . S
C1698 C1699 1.390 . S
C1699 C1698 1.390 . S
C1699 C1700 1.394 . S
C1699 C1705 1.465 . S
C1700 C1695 1.399 . S
C1700 C1699 1.394 . S
C1700 C1701 1.516 . S
C1701 C1700 1.516 . S
C1701 C1702 1.502 . S
C1701 C1703 1.561 . S
C1701 C1704 1.526 . S
C1702 H1686 0.959 . S
C1702 H1687 0.959 . S
C1702 H1688 0.961 . S
C1702 C1701 1.502 . S
C1703 H1689 0.960 . S
C1703 H1690 0.961 . S
C1703 H1691 0.959 . S
C1703 C1701 1.561 . S
C1704 C1701 1.526 . S
C1704 C1705 1.396 . S
C1704 C1709 1.390 . S
C1705 C1699 1.465 . S
C1705 C1704 1.396 . S
C1705 C1706 1.399 . S
C1706 H1692 0.929 . S
C1706 C1705 1.399 . S
C1706 C1707 1.385 . S
C1707 H1693 0.931 . S
C1707 C1706 1.385 . S
C1707 C1708 1.389 . S
C1708 C1707 1.389 . S
C1708 C1709 1.387 . S
C1709 H1694 0.930 . S
C1709 C1704 1.390 . S
C1709 C1708 1.387 . S
H1710 C1722 0.930 . S
H1711 C1724 0.930 . S
H1712 C1725 0.930 . S
H1713 C1729 0.959 . S
H1714 C1729 0.959 . S
H1715 C1729 0.961 . S
H1716 C1730 0.960 . S
H1717 C1730 0.961 . S
H1718 C1730 0.959 . S
H1719 C1733 0.929 . S
H1720 C1734 0.931 . S
H1721 C1736 0.930 . S
C1722 H1710 0.930 . S
C1722 C1723 1.399 . S
C1722 C1727 1.399 . S
C1723 C1722 1.399 . S
C1723 C1724 1.376 . S
C1724 H1711 0.930 . S
C1724 C1723 1.376 . S
C1724 C1725 1.388 . S
C1725 H1712 0.930 . S
C1725 C1724 1.388 . S
C1725 C1726 1.390 . S
C1726 C1725 1.390 . S
C1726 C1727 1.394 . S
C1726 C1732 1.465 . S
C1727 C1722 1.399 . S
C1727 C1726 1.394 . S
C1727 C1728 1.516 . S
C1728 C1727 1.516 . S
C1728 C1729 1.502 . S
C1728 C1730 1.561 . S
C1728 C1731 1.526 . S
C1729 H1713 0.959 . S
C1729 H1714 0.959 . S
C1729 H1715 0.961 . S
C1729 C1728 1.502 . S
C1730 H1716 0.960 . S
C1730 H1717 0.961 . S
C1730 H1718 0.959 . S
C1730 C1728 1.561 . S
C1731 C1728 1.526 . S
C1731 C1732 1.396 . S
C1731 C1736 1.390 . S
C1732 C1726 1.465 . S
C1732 C1731 1.396 . S
C1732 C1733 1.399 . S
C1733 H1719 0.929 . S
C1733 C1732 1.399 . S
C1733 C1734 1.385 . S
C1734 H1720 0.931 . S
C1734 C1733 1.385 . S
C1734 C1735 1.389 . S
C1735 C1734 1.389 . S
C1735 C1736 1.387 . S
C1736 H1721 0.930 . S
C1736 C1731 1.390 . S
C1736 C1735 1.387 . S
H1737 C1749 0.930 . S
H1738 C1751 0.930 1_554 S
H1739 C1752 0.930 . S
H1740 C1756 0.959 . S
H1741 C1756 0.959 . S
H1742 C1756 0.961 . S
H1743 C1757 0.960 . S
H1744 C1757 0.961 . S
H1745 C1757 0.959 . S
H1746 C1760 0.929 . S
H1747 C1761 0.931 . S
H1748 C1763 0.930 . S
C1749 H1737 0.930 . S
C1749 C1750 1.399 . S
C1749 C1754 1.399 . S
C1750 C1749 1.399 . S
C1750 C1751 1.376 . S
C1751 H1738 0.930 1_556 S
C1751 C1750 1.376 . S
C1751 C1752 1.388 . S
C1752 H1739 0.930 . S
C1752 C1751 1.388 . S
C1752 C1753 1.390 . S
C1753 C1752 1.390 . S
C1753 C1754 1.394 . S
C1753 C1759 1.465 . S
C1754 C1749 1.399 . S
C1754 C1753 1.394 . S
C1754 C1755 1.516 . S
C1755 C1754 1.516 . S
C1755 C1756 1.502 . S
C1755 C1757 1.561 . S
C1755 C1758 1.526 . S
C1756 H1740 0.959 . S
C1756 H1741 0.959 . S
C1756 H1742 0.961 . S
C1756 C1755 1.502 . S
C1757 H1743 0.960 . S
C1757 H1744 0.961 . S
C1757 H1745 0.959 . S
C1757 C1755 1.561 . S
C1758 C1755 1.526 . S
C1758 C1759 1.396 . S
C1758 C1763 1.390 . S
C1759 C1753 1.465 . S
C1759 C1758 1.396 . S
C1759 C1760 1.399 . S
C1760 H1746 0.929 . S
C1760 C1759 1.399 . S
C1760 C1761 1.385 . S
C1761 H1747 0.931 . S
C1761 C1760 1.385 . S
C1761 C1762 1.389 . S
C1762 C1761 1.389 . S
C1762 C1763 1.387 . S
C1763 H1748 0.930 . S
C1763 C1758 1.390 . S
C1763 C1762 1.387 . S
H1764 C1776 0.930 . S
H1765 C1778 0.930 . S
H1766 C1779 0.930 . S
H1767 C1783 0.959 . S
H1768 C1783 0.959 . S
H1769 C1783 0.961 . S
H1770 C1784 0.960 . S
H1771 C1784 0.961 . S
H1772 C1784 0.959 . S
H1773 C1787 0.929 . S
H1774 C1788 0.931 . S
H1775 C1790 0.930 . S
C1776 H1764 0.930 . S
C1776 C1777 1.399 . S
C1776 C1781 1.399 . S
C1777 C1776 1.399 . S
C1777 C1778 1.376 . S
C1778 H1765 0.930 . S
C1778 C1777 1.376 . S
C1778 C1779 1.388 . S
C1779 H1766 0.930 . S
C1779 C1778 1.388 . S
C1779 C1780 1.390 . S
C1780 C1779 1.390 . S
C1780 C1781 1.394 . S
C1780 C1786 1.465 . S
C1781 C1776 1.399 . S
C1781 C1780 1.394 . S
C1781 C1782 1.516 . S
C1782 C1781 1.516 . S
C1782 C1783 1.502 . S
C1782 C1784 1.561 . S
C1782 C1785 1.526 . S
C1783 H1767 0.959 . S
C1783 H1768 0.959 . S
C1783 H1769 0.961 . S
C1783 C1782 1.502 . S
C1784 H1770 0.960 . S
C1784 H1771 0.961 . S
C1784 H1772 0.959 . S
C1784 C1782 1.561 . S
C1785 C1782 1.526 . S
C1785 C1786 1.396 . S
C1785 C1790 1.390 . S
C1786 C1780 1.465 . S
C1786 C1785 1.396 . S
C1786 C1787 1.399 . S
C1787 H1773 0.929 . S
C1787 C1786 1.399 . S
C1787 C1788 1.385 . S
C1788 H1774 0.931 . S
C1788 C1787 1.385 . S
C1788 C1789 1.389 . S
C1789 C1788 1.389 . S
C1789 C1790 1.387 . S
C1790 H1775 0.930 . S
C1790 C1785 1.390 . S
C1790 C1789 1.387 . S
H1791 C1803 0.930 . S
H1792 C1805 0.930 . S
H1793 C1806 0.930 . S
H1794 C1810 0.959 . S
H1795 C1810 0.959 . S
H1796 C1810 0.961 . S
H1797 C1811 0.960 . S
H1798 C1811 0.961 . S
H1799 C1811 0.959 . S
H1800 C1814 0.929 . S
H1801 C1815 0.931 . S
H1802 C1817 0.930 . S
C1803 H1791 0.930 . S
C1803 C1804 1.399 . S
C1803 C1808 1.399 . S
C1804 C1803 1.399 . S
C1804 C1805 1.376 . S
C1805 H1792 0.930 . S
C1805 C1804 1.376 . S
C1805 C1806 1.388 . S
C1806 H1793 0.930 . S
C1806 C1805 1.388 . S
C1806 C1807 1.390 . S
C1807 C1806 1.390 . S
C1807 C1808 1.394 . S
C1807 C1813 1.465 . S
C1808 C1803 1.399 . S
C1808 C1807 1.394 . S
C1808 C1809 1.516 . S
C1809 C1808 1.516 . S
C1809 C1810 1.502 . S
C1809 C1811 1.561 . S
C1809 C1812 1.526 . S
C1810 H1794 0.959 . S
C1810 H1795 0.959 . S
C1810 H1796 0.961 . S
C1810 C1809 1.502 . S
C1811 H1797 0.960 . S
C1811 H1798 0.961 . S
C1811 H1799 0.959 . S
C1811 C1809 1.561 . S
C1812 C1809 1.526 . S
C1812 C1813 1.396 . S
C1812 C1817 1.390 . S
C1813 C1807 1.465 . S
C1813 C1812 1.396 . S
C1813 C1814 1.399 . S
C1814 H1800 0.929 . S
C1814 C1813 1.399 . S
C1814 C1815 1.385 . S
C1815 H1801 0.931 . S
C1815 C1814 1.385 . S
C1815 C1816 1.389 . S
C1816 C1815 1.389 . S
C1816 C1817 1.387 . S
C1817 H1802 0.930 . S
C1817 C1812 1.390 . S
C1817 C1816 1.387 . S
H1818 C1830 0.930 . S
H1819 C1832 0.930 . S
H1820 C1833 0.930 . S
H1821 C1837 0.959 . S
H1822 C1837 0.959 . S
H1823 C1837 0.961 . S
H1824 C1838 0.960 . S
H1825 C1838 0.961 . S
H1826 C1838 0.959 . S
H1827 C1841 0.929 . S
H1828 C1842 0.931 . S
H1829 C1844 0.930 . S
C1830 H1818 0.930 . S
C1830 C1831 1.399 . S
C1830 C1835 1.399 . S
C1831 C1830 1.399 . S
C1831 C1832 1.376 . S
C1832 H1819 0.930 . S
C1832 C1831 1.376 . S
C1832 C1833 1.388 . S
C1833 H1820 0.930 . S
C1833 C1832 1.388 . S
C1833 C1834 1.390 . S
C1834 C1833 1.390 . S
C1834 C1835 1.394 . S
C1834 C1840 1.465 . S
C1835 C1830 1.399 . S
C1835 C1834 1.394 . S
C1835 C1836 1.516 . S
C1836 C1835 1.516 . S
C1836 C1837 1.502 . S
C1836 C1838 1.561 . S
C1836 C1839 1.526 . S
C1837 H1821 0.959 . S
C1837 H1822 0.959 . S
C1837 H1823 0.961 . S
C1837 C1836 1.502 . S
C1838 H1824 0.960 . S
C1838 H1825 0.961 . S
C1838 H1826 0.959 . S
C1838 C1836 1.561 . S
C1839 C1836 1.526 . S
C1839 C1840 1.396 . S
C1839 C1844 1.390 . S
C1840 C1834 1.465 . S
C1840 C1839 1.396 . S
C1840 C1841 1.399 . S
C1841 H1827 0.929 . S
C1841 C1840 1.399 . S
C1841 C1842 1.385 . S
C1842 H1828 0.931 . S
C1842 C1841 1.385 . S
C1842 C1843 1.389 . S
C1843 C1842 1.389 . S
C1843 C1844 1.387 . S
C1844 H1829 0.930 . S
C1844 C1839 1.390 . S
C1844 C1843 1.387 . S
H1845 C1857 0.930 . S
H1846 C1859 0.930 . S
H1847 C1860 0.930 . S
H1848 C1864 0.959 . S
H1849 C1864 0.959 . S
H1850 C1864 0.961 . S
H1851 C1865 0.960 . S
H1852 C1865 0.961 . S
H1853 C1865 0.959 . S
H1854 C1868 0.929 . S
H1855 C1869 0.931 . S
H1856 C1871 0.930 . S
C1857 H1845 0.930 . S
C1857 C1858 1.399 . S
C1857 C1862 1.399 . S
C1858 C1857 1.399 . S
C1858 C1859 1.376 . S
C1859 H1846 0.930 . S
C1859 C1858 1.376 . S
C1859 C1860 1.388 . S
C1860 H1847 0.930 . S
C1860 C1859 1.388 . S
C1860 C1861 1.390 . S
C1861 C1860 1.390 . S
C1861 C1862 1.394 . S
C1861 C1867 1.465 . S
C1862 C1857 1.399 . S
C1862 C1861 1.394 . S
C1862 C1863 1.516 . S
C1863 C1862 1.516 . S
C1863 C1864 1.502 . S
C1863 C1865 1.561 . S
C1863 C1866 1.526 . S
C1864 H1848 0.959 . S
C1864 H1849 0.959 . S
C1864 H1850 0.961 . S
C1864 C1863 1.502 . S
C1865 H1851 0.960 . S
C1865 H1852 0.961 . S
C1865 H1853 0.959 . S
C1865 C1863 1.561 . S
C1866 C1863 1.526 . S
C1866 C1867 1.396 . S
C1866 C1871 1.390 . S
C1867 C1861 1.465 . S
C1867 C1866 1.396 . S
C1867 C1868 1.399 . S
C1868 H1854 0.929 . S
C1868 C1867 1.399 . S
C1868 C1869 1.385 . S
C1869 H1855 0.931 . S
C1869 C1868 1.385 . S
C1869 C1870 1.389 . S
C1870 C1869 1.389 . S
C1870 C1871 1.387 . S
C1871 H1856 0.930 . S
C1871 C1866 1.390 . S
C1871 C1870 1.387 . S
H1872 C1884 0.930 . S
H1873 C1886 0.930 . S
H1874 C1887 0.930 . S
H1875 C1891 0.959 . S
H1876 C1891 0.959 . S
H1877 C1891 0.961 . S
H1878 C1892 0.960 . S
H1879 C1892 0.961 . S
H1880 C1892 0.959 . S
H1881 C1895 0.929 . S
H1882 C1896 0.931 . S
H1883 C1898 0.930 . S
C1884 H1872 0.930 . S
C1884 C1885 1.399 . S
C1884 C1889 1.399 . S
C1885 C1884 1.399 . S
C1885 C1886 1.376 . S
C1886 H1873 0.930 . S
C1886 C1885 1.376 . S
C1886 C1887 1.388 . S
C1887 H1874 0.930 . S
C1887 C1886 1.388 . S
C1887 C1888 1.390 . S
C1888 C1887 1.390 . S
C1888 C1889 1.394 . S
C1888 C1894 1.465 . S
C1889 C1884 1.399 . S
C1889 C1888 1.394 . S
C1889 C1890 1.516 . S
C1890 C1889 1.516 . S
C1890 C1891 1.502 . S
C1890 C1892 1.561 . S
C1890 C1893 1.526 . S
C1891 H1875 0.959 . S
C1891 H1876 0.959 . S
C1891 H1877 0.961 . S
C1891 C1890 1.502 . S
C1892 H1878 0.960 . S
C1892 H1879 0.961 . S
C1892 H1880 0.959 . S
C1892 C1890 1.561 . S
C1893 C1890 1.526 . S
C1893 C1894 1.396 . S
C1893 C1898 1.390 . S
C1894 C1888 1.465 . S
C1894 C1893 1.396 . S
C1894 C1895 1.399 . S
C1895 H1881 0.929 . S
C1895 C1894 1.399 . S
C1895 C1896 1.385 . S
C1896 H1882 0.931 . S
C1896 C1895 1.385 . S
C1896 C1897 1.389 . S
C1897 C1896 1.389 . S
C1897 C1898 1.387 . S
C1898 H1883 0.930 . S
C1898 C1893 1.390 . S
C1898 C1897 1.387 . S
H1899 C1911 0.930 . S
H1900 C1913 0.930 . S
H1901 C1914 0.930 . S
H1902 C1918 0.959 . S
H1903 C1918 0.959 . S
H1904 C1918 0.961 . S
H1905 C1919 0.960 . S
H1906 C1919 0.961 . S
H1907 C1919 0.959 . S
H1908 C1922 0.929 . S
H1909 C1923 0.931 . S
H1910 C1925 0.930 . S
C1911 H1899 0.930 . S
C1911 C1912 1.399 . S
C1911 C1916 1.399 . S
C1912 C1911 1.399 . S
C1912 C1913 1.376 . S
C1913 H1900 0.930 . S
C1913 C1912 1.376 . S
C1913 C1914 1.388 . S
C1914 H1901 0.930 . S
C1914 C1913 1.388 . S
C1914 C1915 1.390 . S
C1915 C1914 1.390 . S
C1915 C1916 1.394 . S
C1915 C1921 1.465 . S
C1916 C1911 1.399 . S
C1916 C1915 1.394 . S
C1916 C1917 1.516 . S
C1917 C1916 1.516 . S
C1917 C1918 1.502 . S
C1917 C1919 1.561 . S
C1917 C1920 1.526 . S
C1918 H1902 0.959 . S
C1918 H1903 0.959 . S
C1918 H1904 0.961 . S
C1918 C1917 1.502 . S
C1919 H1905 0.960 . S
C1919 H1906 0.961 . S
C1919 H1907 0.959 . S
C1919 C1917 1.561 . S
C1920 C1917 1.526 . S
C1920 C1921 1.396 . S
C1920 C1925 1.390 . S
C1921 C1915 1.465 . S
C1921 C1920 1.396 . S
C1921 C1922 1.399 . S
C1922 H1908 0.929 . S
C1922 C1921 1.399 . S
C1922 C1923 1.385 . S
C1923 H1909 0.931 . S
C1923 C1922 1.385 . S
C1923 C1924 1.389 . S
C1924 C1923 1.389 . S
C1924 C1925 1.387 . S
C1925 H1910 0.930 . S
C1925 C1920 1.390 . S
C1925 C1924 1.387 . S
H1926 C1938 0.930 . S
H1927 C1940 0.930 . S
H1928 C1941 0.930 . S
H1929 C1945 0.959 . S
H1930 C1945 0.959 . S
H1931 C1945 0.961 . S
H1932 C1946 0.960 . S
H1933 C1946 0.961 . S
H1934 C1946 0.959 . S
H1935 C1949 0.929 . S
H1936 C1950 0.931 . S
H1937 C1952 0.930 . S
C1938 H1926 0.930 . S
C1938 C1939 1.399 . S
C1938 C1943 1.399 . S
C1939 C1938 1.399 . S
C1939 C1940 1.376 . S
C1940 H1927 0.930 . S
C1940 C1939 1.376 . S
C1940 C1941 1.388 . S
C1941 H1928 0.930 . S
C1941 C1940 1.388 . S
C1941 C1942 1.390 . S
C1942 C1941 1.390 . S
C1942 C1943 1.394 . S
C1942 C1948 1.465 . S
C1943 C1938 1.399 . S
C1943 C1942 1.394 . S
C1943 C1944 1.516 . S
C1944 C1943 1.516 . S
C1944 C1945 1.502 . S
C1944 C1946 1.561 . S
C1944 C1947 1.526 . S
C1945 H1929 0.959 . S
C1945 H1930 0.959 . S
C1945 H1931 0.961 . S
C1945 C1944 1.502 . S
C1946 H1932 0.960 . S
C1946 H1933 0.961 . S
C1946 H1934 0.959 . S
C1946 C1944 1.561 . S
C1947 C1944 1.526 . S
C1947 C1948 1.396 . S
C1947 C1952 1.390 . S
C1948 C1942 1.465 . S
C1948 C1947 1.396 . S
C1948 C1949 1.399 . S
C1949 H1935 0.929 . S
C1949 C1948 1.399 . S
C1949 C1950 1.385 . S
C1950 H1936 0.931 . S
C1950 C1949 1.385 . S
C1950 C1951 1.389 . S
C1951 C1950 1.389 . S
C1951 C1952 1.387 . S
C1952 H1937 0.930 . S
C1952 C1947 1.390 . S
C1952 C1951 1.387 . S
H1953 C1965 0.930 . S
H1954 C1967 0.930 . S
H1955 C1968 0.930 . S
H1956 C1972 0.959 . S
H1957 C1972 0.959 . S
H1958 C1972 0.961 . S
H1959 C1973 0.960 . S
H1960 C1973 0.961 . S
H1961 C1973 0.959 . S
H1962 C1976 0.929 . S
H1963 C1977 0.931 . S
H1964 C1979 0.930 . S
C1965 H1953 0.930 . S
C1965 C1966 1.399 . S
C1965 C1970 1.399 . S
C1966 C1965 1.399 . S
C1966 C1967 1.376 1_455 S
C1967 H1954 0.930 . S
C1967 C1966 1.376 1_655 S
C1967 C1968 1.388 . S
C1968 H1955 0.930 . S
C1968 C1967 1.388 . S
C1968 C1969 1.390 . S
C1969 C1968 1.390 . S
C1969 C1970 1.394 1_655 S
C1969 C1975 1.465 . S
C1970 C1965 1.399 . S
C1970 C1969 1.394 1_455 S
C1970 C1971 1.516 . S
C1971 C1970 1.516 . S
C1971 C1972 1.502 . S
C1971 C1973 1.561 . S
C1971 C1974 1.526 . S
C1972 H1956 0.959 . S
C1972 H1957 0.959 . S
C1972 H1958 0.961 . S
C1972 C1971 1.502 . S
C1973 H1959 0.960 . S
C1973 H1960 0.961 . S
C1973 H1961 0.959 . S
C1973 C1971 1.561 . S
C1974 C1971 1.526 . S
C1974 C1975 1.396 1_455 S
C1974 C1979 1.390 . S
C1975 C1969 1.465 . S
C1975 C1974 1.396 1_655 S
C1975 C1976 1.399 . S
C1976 H1962 0.929 . S
C1976 C1975 1.399 . S
C1976 C1977 1.385 . S
C1977 H1963 0.931 . S
C1977 C1976 1.385 . S
C1977 C1978 1.389 1_655 S
C1978 C1977 1.389 1_455 S
C1978 C1979 1.387 . S
C1979 H1964 0.930 . S
C1979 C1974 1.390 . S
C1979 C1978 1.387 . S
H1980 C1992 0.930 . S
H1981 C1994 0.930 . S
H1982 C1995 0.930 . S
H1983 C1999 0.959 . S
H1984 C1999 0.959 . S
H1985 C1999 0.961 . S
H1986 C2000 0.960 . S
H1987 C2000 0.961 . S
H1988 C2000 0.959 . S
H1989 C2003 0.929 . S
H1990 C2004 0.931 . S
H1991 C2006 0.930 . S
C1992 H1980 0.930 . S
C1992 C1993 1.399 . S
C1992 C1997 1.399 . S
C1993 C1992 1.399 . S
C1993 C1994 1.376 . S
C1994 H1981 0.930 . S
C1994 C1993 1.376 . S
C1994 C1995 1.388 . S
C1995 H1982 0.930 . S
C1995 C1994 1.388 . S
C1995 C1996 1.390 . S
C1996 C1995 1.390 . S
C1996 C1997 1.394 . S
C1996 C2002 1.465 . S
C1997 C1992 1.399 . S
C1997 C1996 1.394 . S
C1997 C1998 1.516 . S
C1998 C1997 1.516 . S
C1998 C1999 1.502 . S
C1998 C2000 1.561 . S
C1998 C2001 1.526 . S
C1999 H1983 0.959 . S
C1999 H1984 0.959 . S
C1999 H1985 0.961 . S
C1999 C1998 1.502 . S
C2000 H1986 0.960 . S
C2000 H1987 0.961 . S
C2000 H1988 0.959 . S
C2000 C1998 1.561 . S
C2001 C1998 1.526 . S
C2001 C2002 1.396 . S
C2001 C2006 1.390 . S
C2002 C1996 1.465 . S
C2002 C2001 1.396 . S
C2002 C2003 1.399 . S
C2003 H1989 0.929 . S
C2003 C2002 1.399 . S
C2003 C2004 1.385 . S
C2004 H1990 0.931 . S
C2004 C2003 1.385 . S
C2004 C2005 1.389 . S
C2005 C2004 1.389 . S
C2005 C2006 1.387 . S
C2006 H1991 0.930 . S
C2006 C2001 1.390 . S
C2006 C2005 1.387 . S
H2007 C2019 0.930 . S
H2008 C2021 0.930 . S
H2009 C2022 0.930 . S
H2010 C2026 0.959 . S
H2011 C2026 0.959 . S
H2012 C2026 0.961 . S
H2013 C2027 0.960 . S
H2014 C2027 0.961 . S
H2015 C2027 0.959 . S
H2016 C2030 0.929 . S
H2017 C2031 0.931 . S
H2018 C2033 0.930 . S
C2019 H2007 0.930 . S
C2019 C2020 1.399 1_545 S
C2019 C2024 1.435 . S
C2020 C2019 1.399 1_565 S
C2020 C2021 1.376 . S
C2021 H2008 0.930 . S
C2021 C2020 1.376 . S
C2021 C2022 1.388 . S
C2022 H2009 0.930 . S
C2022 C2021 1.388 . S
C2022 C2023 1.390 . S
C2023 C2022 1.390 . S
C2023 C2024 1.334 1_565 S
C2023 C2029 1.465 . S
C2024 C2019 1.435 . S
C2024 C2023 1.334 1_545 S
C2024 C2025 1.533 . S
C2025 C2024 1.533 . S
C2025 C2026 1.502 . S
C2025 C2027 1.561 . S
C2025 C2028 1.526 . S
C2026 H2010 0.959 . S
C2026 H2011 0.959 . S
C2026 H2012 0.961 . S
C2026 C2025 1.502 . S
C2027 H2013 0.960 . S
C2027 H2014 0.961 . S
C2027 H2015 0.959 . S
C2027 C2025 1.561 . S
C2028 C2025 1.526 . S
C2028 C2029 1.396 1_545 S
C2028 C2033 1.390 . S
C2029 C2023 1.465 . S
C2029 C2028 1.396 1_565 S
C2029 C2030 1.399 . S
C2030 H2016 0.929 . S
C2030 C2029 1.399 . S
C2030 C2031 1.385 . S
C2031 H2017 0.931 . S
C2031 C2030 1.385 . S
C2031 C2032 1.389 . S
C2032 C2031 1.389 . S
C2032 C2033 1.387 1_565 S
C2033 H2018 0.930 . S
C2033 C2028 1.390 . S
C2033 C2032 1.387 1_545 S
H2034 C2046 0.930 . S
H2035 C2048 0.930 . S
H2036 C2049 0.930 . S
H2037 C2053 0.959 . S
H2038 C2053 0.959 . S
H2039 C2053 0.961 . S
H2040 C2054 0.960 . S
H2041 C2054 0.961 . S
H2042 C2054 0.959 . S
H2043 C2057 0.929 . S
H2044 C2058 0.931 . S
H2045 C2060 0.930 . S
C2046 H2034 0.930 . S
C2046 C2047 1.399 . S
C2046 C2051 1.399 . S
C2047 C2046 1.399 . S
C2047 C2048 1.376 1_565 S
C2048 H2035 0.930 . S
C2048 C2047 1.376 1_545 S
C2048 C2049 1.388 . S
C2049 H2036 0.930 . S
C2049 C2048 1.388 . S
C2049 C2050 1.390 . S
C2050 C2049 1.390 . S
C2050 C2051 1.394 1_545 S
C2050 C2056 1.465 . S
C2051 C2046 1.399 . S
C2051 C2050 1.394 1_565 S
C2051 C2052 1.516 . S
C2052 C2051 1.516 . S
C2052 C2053 1.502 . S
C2052 C2054 1.561 . S
C2052 C2055 1.526 . S
C2053 H2037 0.959 . S
C2053 H2038 0.959 . S
C2053 H2039 0.961 . S
C2053 C2052 1.502 . S
C2054 H2040 0.960 . S
C2054 H2041 0.961 . S
C2054 H2042 0.959 . S
C2054 C2052 1.561 . S
C2055 C2052 1.526 . S
C2055 C2056 1.396 1_565 S
C2055 C2060 1.390 . S
C2056 C2050 1.465 . S
C2056 C2055 1.396 1_545 S
C2056 C2057 1.399 . S
C2057 H2043 0.929 . S
C2057 C2056 1.399 . S
C2057 C2058 1.385 . S
C2058 H2044 0.931 . S
C2058 C2057 1.385 . S
C2058 C2059 1.389 . S
C2059 C2058 1.389 . S
C2059 C2060 1.387 1_545 S
C2060 H2045 0.930 . S
C2060 C2055 1.390 . S
C2060 C2059 1.387 1_565 S
H2061 C2073 0.930 . S
H2062 C2075 0.930 . S
H2063 C2076 0.930 . S
H2064 C2080 0.959 . S
H2065 C2080 0.959 . S
H2066 C2080 0.961 . S
H2067 C2081 0.960 . S
H2068 C2081 0.961 . S
H2069 C2081 0.959 . S
H2070 C2084 0.929 . S
H2071 C2085 0.931 . S
H2072 C2087 0.930 . S
C2073 H2061 0.930 . S
C2073 C2074 1.399 1_655 S
C2073 C2078 1.399 . S
C2074 C2073 1.399 1_455 S
C2074 C2075 1.376 . S
C2075 H2062 0.930 . S
C2075 C2074 1.376 . S
C2075 C2076 1.388 . S
C2076 H2063 0.930 . S
C2076 C2075 1.388 . S
C2076 C2077 1.390 . S
C2077 C2076 1.390 . S
C2077 C2078 1.394 1_455 S
C2077 C2083 1.465 . S
C2078 C2073 1.399 . S
C2078 C2077 1.394 1_655 S
C2078 C2079 1.516 . S
C2079 C2078 1.516 . S
C2079 C2080 1.502 . S
C2079 C2081 1.561 . S
C2079 C2082 1.526 . S
C2080 H2064 0.959 . S
C2080 H2065 0.959 . S
C2080 H2066 0.961 . S
C2080 C2079 1.502 . S
C2081 H2067 0.960 . S
C2081 H2068 0.961 . S
C2081 H2069 0.959 . S
C2081 C2079 1.561 . S
C2082 C2079 1.526 . S
C2082 C2083 1.396 1_655 S
C2082 C2087 1.390 . S
C2083 C2077 1.465 . S
C2083 C2082 1.396 1_455 S
C2083 C2084 1.399 . S
C2084 H2070 0.929 . S
C2084 C2083 1.399 . S
C2084 C2085 1.385 . S
C2085 H2071 0.931 . S
C2085 C2084 1.385 . S
C2085 C2086 1.389 . S
C2086 C2085 1.389 . S
C2086 C2087 1.387 1_455 S
C2087 H2072 0.930 . S
C2087 C2082 1.390 . S
C2087 C2086 1.387 1_655 S
H2088 C2100 0.930 . S
H2089 C2102 0.930 . S
H2090 C2103 0.930 . S
H2091 C2107 0.959 . S
H2092 C2107 0.959 . S
H2093 C2107 0.961 . S
H2094 C2108 0.960 . S
H2095 C2108 0.961 . S
H2096 C2108 0.959 . S
H2097 C2111 0.929 . S
H2098 C2112 0.931 . S
H2099 C2114 0.930 . S
C2100 H2088 0.930 . S
C2100 C2101 1.399 . S
C2100 C2105 1.399 . S
C2101 C2100 1.399 . S
C2101 C2102 1.376 . S
C2102 H2089 0.930 . S
C2102 C2101 1.376 . S
C2102 C2103 1.388 . S
C2103 H2090 0.930 . S
C2103 C2102 1.388 . S
C2103 C2104 1.390 . S
C2104 C2103 1.390 . S
C2104 C2105 1.394 . S
C2104 C2110 1.465 . S
C2105 C2100 1.399 . S
C2105 C2104 1.394 . S
C2105 C2106 1.516 . S
C2106 C2105 1.516 . S
C2106 C2107 1.502 . S
C2106 C2108 1.561 . S
C2106 C2109 1.526 . S
C2107 H2091 0.959 . S
C2107 H2092 0.959 . S
C2107 H2093 0.961 . S
C2107 C2106 1.502 . S
C2108 H2094 0.960 . S
C2108 H2095 0.961 . S
C2108 H2096 0.959 . S
C2108 C2106 1.561 . S
C2109 C2106 1.526 . S
C2109 C2110 1.396 . S
C2109 C2114 1.390 . S
C2110 C2104 1.465 . S
C2110 C2109 1.396 . S
C2110 C2111 1.399 . S
C2111 H2097 0.929 . S
C2111 C2110 1.399 . S
C2111 C2112 1.385 . S
C2112 H2098 0.931 . S
C2112 C2111 1.385 . S
C2112 C2113 1.389 . S
C2113 C2112 1.389 . S
C2113 C2114 1.387 . S
C2114 H2099 0.930 . S
C2114 C2109 1.390 . S
C2114 C2113 1.387 . S
H2115 C2127 0.930 . S
H2116 C2129 0.930 . S
H2117 C2130 0.930 . S
H2118 C2134 0.959 . S
H2119 C2134 0.959 . S
H2120 C2134 0.961 . S
H2121 C2135 0.960 . S
H2122 C2135 0.961 . S
H2123 C2135 0.959 . S
H2124 C2138 0.929 . S
H2125 C2139 0.931 . S
H2126 C2141 0.930 . S
C2127 H2115 0.930 . S
C2127 C2128 1.399 . S
C2127 C2132 1.399 . S
C2128 C2127 1.399 . S
C2128 C2129 1.376 . S
C2129 H2116 0.930 . S
C2129 C2128 1.376 . S
C2129 C2130 1.388 . S
C2130 H2117 0.930 . S
C2130 C2129 1.388 . S
C2130 C2131 1.390 . S
C2131 C2130 1.390 . S
C2131 C2132 1.394 . S
C2131 C2137 1.465 . S
C2132 C2127 1.399 . S
C2132 C2131 1.394 . S
C2132 C2133 1.516 . S
C2133 C2132 1.516 . S
C2133 C2134 1.502 . S
C2133 C2135 1.561 . S
C2133 C2136 1.526 . S
C2134 H2118 0.959 . S
C2134 H2119 0.959 . S
C2134 H2120 0.961 . S
C2134 C2133 1.502 . S
C2135 H2121 0.960 . S
C2135 H2122 0.961 . S
C2135 H2123 0.959 . S
C2135 C2133 1.561 . S
C2136 C2133 1.526 . S
C2136 C2137 1.396 . S
C2136 C2141 1.390 . S
C2137 C2131 1.465 . S
C2137 C2136 1.396 . S
C2137 C2138 1.399 . S
C2138 H2124 0.929 . S
C2138 C2137 1.399 . S
C2138 C2139 1.385 . S
C2139 H2125 0.931 . S
C2139 C2138 1.385 . S
C2139 C2140 1.389 . S
C2140 C2139 1.389 . S
C2140 C2141 1.387 . S
C2141 H2126 0.930 . S
C2141 C2136 1.390 . S
C2141 C2140 1.387 . S
H2142 C2154 0.930 . S
H2143 C2156 0.930 . S
H2144 C2157 0.930 . S
H2145 C2161 0.959 . S
H2146 C2161 0.959 . S
H2147 C2161 0.961 . S
H2148 C2162 0.960 . S
H2149 C2162 0.961 . S
H2150 C2162 0.959 . S
H2151 C2165 0.929 . S
H2152 C2166 0.931 . S
H2153 C2168 0.930 . S
C2154 H2142 0.930 . S
C2154 C2155 1.399 . S
C2154 C2159 1.399 . S
C2155 C2154 1.399 . S
C2155 C2156 1.376 . S
C2156 H2143 0.930 . S
C2156 C2155 1.376 . S
C2156 C2157 1.388 . S
C2157 H2144 0.930 . S
C2157 C2156 1.388 . S
C2157 C2158 1.390 . S
C2158 C2157 1.390 . S
C2158 C2159 1.394 . S
C2158 C2164 1.465 . S
C2159 C2154 1.399 . S
C2159 C2158 1.394 . S
C2159 C2160 1.516 . S
C2160 C2159 1.516 . S
C2160 C2161 1.502 . S
C2160 C2162 1.561 . S
C2160 C2163 1.526 . S
C2161 H2145 0.959 . S
C2161 H2146 0.959 . S
C2161 H2147 0.961 . S
C2161 C2160 1.502 . S
C2162 H2148 0.960 . S
C2162 H2149 0.961 . S
C2162 H2150 0.959 . S
C2162 C2160 1.561 . S
C2163 C2160 1.526 . S
C2163 C2164 1.396 . S
C2163 C2168 1.390 . S
C2164 C2158 1.465 . S
C2164 C2163 1.396 . S
C2164 C2165 1.399 . S
C2165 H2151 0.929 . S
C2165 C2164 1.399 . S
C2165 C2166 1.385 . S
C2166 H2152 0.931 . S
C2166 C2165 1.385 . S
C2166 C2167 1.389 . S
C2167 C2166 1.389 . S
C2167 C2168 1.387 . S
C2168 H2153 0.930 . S
C2168 C2163 1.390 . S
C2168 C2167 1.387 . S
H2169 C2181 0.930 . S
H2170 C2183 0.930 . S
H2171 C2184 0.930 . S
H2172 C2188 0.959 . S
H2173 C2188 0.959 . S
H2174 C2188 0.961 . S
H2175 C2189 0.960 . S
H2176 C2189 0.961 . S
H2177 C2189 0.959 . S
H2178 C2192 0.929 . S
H2179 C2193 0.931 . S
H2180 C2195 0.930 . S
C2181 H2169 0.930 . S
C2181 C2182 1.399 . S
C2181 C2186 1.399 . S
C2182 C2181 1.399 . S
C2182 C2183 1.376 . S
C2183 H2170 0.930 . S
C2183 C2182 1.376 . S
C2183 C2184 1.388 . S
C2184 H2171 0.930 . S
C2184 C2183 1.388 . S
C2184 C2185 1.390 . S
C2185 C2184 1.390 . S
C2185 C2186 1.394 . S
C2185 C2191 1.465 . S
C2186 C2181 1.399 . S
C2186 C2185 1.394 . S
C2186 C2187 1.516 . S
C2187 C2186 1.516 . S
C2187 C2188 1.502 . S
C2187 C2189 1.561 . S
C2187 C2190 1.526 . S
C2188 H2172 0.959 . S
C2188 H2173 0.959 . S
C2188 H2174 0.961 . S
C2188 C2187 1.502 . S
C2189 H2175 0.960 . S
C2189 H2176 0.961 . S
C2189 H2177 0.959 . S
C2189 C2187 1.561 . S
C2190 C2187 1.526 . S
C2190 C2191 1.396 . S
C2190 C2195 1.390 . S
C2191 C2185 1.465 . S
C2191 C2190 1.396 . S
C2191 C2192 1.399 . S
C2192 H2178 0.929 . S
C2192 C2191 1.399 . S
C2192 C2193 1.385 . S
C2193 H2179 0.931 . S
C2193 C2192 1.385 . S
C2193 C2194 1.389 . S
C2194 C2193 1.389 . S
C2194 C2195 1.387 . S
C2195 H2180 0.930 . S
C2195 C2190 1.390 . S
C2195 C2194 1.387 . S
H2196 C2208 0.930 . S
H2197 C2210 0.930 . S
H2198 C2211 0.930 . S
H2199 C2215 0.959 . S
H2200 C2215 0.959 . S
H2201 C2215 0.961 . S
H2202 C2216 0.960 . S
H2203 C2216 0.961 . S
H2204 C2216 0.959 . S
H2205 C2219 0.929 . S
H2206 C2220 0.931 . S
H2207 C2222 0.930 . S
C2208 H2196 0.930 . S
C2208 C2209 1.399 1_565 S
C2208 C2213 1.399 . S
C2209 C2208 1.399 1_545 S
C2209 C2210 1.376 . S
C2210 H2197 0.930 . S
C2210 C2209 1.376 . S
C2210 C2211 1.388 . S
C2211 H2198 0.930 . S
C2211 C2210 1.388 . S
C2211 C2212 1.390 . S
C2212 C2211 1.390 . S
C2212 C2213 1.394 1_545 S
C2212 C2218 1.465 . S
C2213 C2208 1.399 . S
C2213 C2212 1.394 1_565 S
C2213 C2214 1.516 . S
C2214 C2213 1.516 . S
C2214 C2215 1.502 . S
C2214 C2216 1.561 . S
C2214 C2217 1.526 . S
C2215 H2199 0.959 . S
C2215 H2200 0.959 . S
C2215 H2201 0.961 . S
C2215 C2214 1.502 . S
C2216 H2202 0.960 . S
C2216 H2203 0.961 . S
C2216 H2204 0.959 . S
C2216 C2214 1.561 . S
C2217 C2214 1.526 . S
C2217 C2218 1.396 1_565 S
C2217 C2222 1.390 . S
C2218 C2212 1.465 . S
C2218 C2217 1.396 1_545 S
C2218 C2219 1.399 . S
C2219 H2205 0.929 . S
C2219 C2218 1.399 . S
C2219 C2220 1.385 . S
C2220 H2206 0.931 . S
C2220 C2219 1.385 . S
C2220 C2221 1.389 . S
C2221 C2220 1.389 . S
C2221 C2222 1.387 1_545 S
C2222 H2207 0.930 . S
C2222 C2217 1.390 . S
C2222 C2221 1.387 1_565 S
H2223 C2235 0.930 . S
H2224 C2237 0.930 . S
H2225 C2238 0.930 . S
H2226 C2242 0.959 . S
H2227 C2242 0.959 . S
H2228 C2242 0.961 . S
H2229 C2243 0.960 . S
H2230 C2243 0.961 . S
H2231 C2243 0.959 1_455 S
H2232 C2246 0.929 . S
H2233 C2247 0.931 . S
H2234 C2249 0.930 . S
C2235 H2223 0.930 . S
C2235 C2236 1.399 . S
C2235 C2240 1.399 . S
C2236 C2235 1.399 . S
C2236 C2237 1.376 1_655 S
C2237 H2224 0.930 . S
C2237 C2236 1.376 1_455 S
C2237 C2238 1.388 . S
C2238 H2225 0.930 . S
C2238 C2237 1.388 . S
C2238 C2239 1.390 1_455 S
C2239 C2238 1.390 1_655 S
C2239 C2240 1.394 . S
C2239 C2245 1.444 . S
C2240 C2235 1.399 . S
C2240 C2239 1.394 . S
C2240 C2241 1.516 . S
C2241 C2240 1.516 . S
C2241 C2242 1.502 . S
C2241 C2243 1.561 . S
C2241 C2244 1.526 . S
C2242 H2226 0.959 . S
C2242 H2227 0.959 . S
C2242 H2228 0.961 . S
C2242 C2241 1.502 . S
C2243 H2229 0.960 . S
C2243 H2230 0.961 . S
C2243 H2231 0.959 1_655 S
C2243 C2241 1.561 . S
C2244 C2241 1.526 . S
C2244 C2245 1.414 . S
C2244 C2249 1.390 . S
C2245 C2239 1.444 . S
C2245 C2244 1.414 . S
C2245 C2246 1.406 1_655 S
C2246 H2232 0.929 . S
C2246 C2245 1.406 1_455 S
C2246 C2247 1.385 . S
C2247 H2233 0.931 . S
C2247 C2246 1.385 . S
C2247 C2248 1.389 1_455 S
C2248 C2247 1.389 1_655 S
C2248 C2249 1.387 . S
C2249 H2234 0.930 . S
C2249 C2244 1.390 . S
C2249 C2248 1.387 . S
H2250 C2262 0.930 . S
H2251 C2264 0.930 . S
H2252 C2265 0.930 . S
H2253 C2269 0.959 . S
H2254 C2269 0.959 . S
H2255 C2269 0.961 . S
H2256 C2270 0.960 . S
H2257 C2270 0.961 . S
H2258 C2270 0.959 . S
H2259 C2273 0.929 . S
H2260 C2274 0.931 . S
H2261 C2276 0.930 . S
C2262 H2250 0.930 . S
C2262 C2263 1.399 . S
C2262 C2267 1.399 . S
C2263 C2262 1.399 . S
C2263 C2264 1.376 . S
C2264 H2251 0.930 . S
C2264 C2263 1.376 . S
C2264 C2265 1.388 . S
C2265 H2252 0.930 . S
C2265 C2264 1.388 . S
C2265 C2266 1.390 . S
C2266 C2265 1.390 . S
C2266 C2267 1.394 . S
C2266 C2272 1.465 . S
C2267 C2262 1.399 . S
C2267 C2266 1.394 . S
C2267 C2268 1.516 . S
C2268 C2267 1.516 . S
C2268 C2269 1.502 . S
C2268 C2270 1.561 . S
C2268 C2271 1.526 . S
C2269 H2253 0.959 . S
C2269 H2254 0.959 . S
C2269 H2255 0.961 . S
C2269 C2268 1.502 . S
C2270 H2256 0.960 . S
C2270 H2257 0.961 . S
C2270 H2258 0.959 . S
C2270 C2268 1.561 . S
C2271 C2268 1.526 . S
C2271 C2272 1.396 . S
C2271 C2276 1.390 . S
C2272 C2266 1.465 . S
C2272 C2271 1.396 . S
C2272 C2273 1.399 . S
C2273 H2259 0.929 . S
C2273 C2272 1.399 . S
C2273 C2274 1.385 . S
C2274 H2260 0.931 . S
C2274 C2273 1.385 . S
C2274 C2275 1.389 . S
C2275 C2274 1.389 . S
C2275 C2276 1.387 . S
C2276 H2261 0.930 . S
C2276 C2271 1.390 . S
C2276 C2275 1.387 . S
H2277 C2289 0.930 . S
H2278 C2291 0.930 . S
H2279 C2292 0.930 . S
H2280 C2296 0.959 . S
H2281 C2296 0.959 . S
H2282 C2296 0.961 . S
H2283 C2297 0.960 . S
H2284 C2297 0.961 . S
H2285 C2297 0.959 . S
H2286 C2300 0.929 . S
H2287 C2301 0.931 . S
H2288 C2303 0.930 . S
C2289 H2277 0.930 . S
C2289 C2290 1.399 . S
C2289 C2294 1.399 . S
C2290 C2289 1.399 . S
C2290 C2291 1.376 . S
C2291 H2278 0.930 . S
C2291 C2290 1.376 . S
C2291 C2292 1.388 . S
C2292 H2279 0.930 . S
C2292 C2291 1.388 . S
C2292 C2293 1.390 . S
C2293 C2292 1.390 . S
C2293 C2294 1.394 . S
C2293 C2299 1.465 . S
C2294 C2289 1.399 . S
C2294 C2293 1.394 . S
C2294 C2295 1.516 . S
C2295 C2294 1.516 . S
C2295 C2296 1.502 . S
C2295 C2297 1.561 . S
C2295 C2298 1.526 . S
C2296 H2280 0.959 . S
C2296 H2281 0.959 . S
C2296 H2282 0.961 . S
C2296 C2295 1.502 . S
C2297 H2283 0.960 . S
C2297 H2284 0.961 . S
C2297 H2285 0.959 . S
C2297 C2295 1.561 . S
C2298 C2295 1.526 . S
C2298 C2299 1.396 . S
C2298 C2303 1.390 . S
C2299 C2293 1.465 . S
C2299 C2298 1.396 . S
C2299 C2300 1.399 . S
C2300 H2286 0.929 . S
C2300 C2299 1.399 . S
C2300 C2301 1.385 . S
C2301 H2287 0.931 . S
C2301 C2300 1.385 . S
C2301 C2302 1.389 . S
C2302 C2301 1.389 . S
C2302 C2303 1.387 . S
C2303 H2288 0.930 . S
C2303 C2298 1.390 . S
C2303 C2302 1.387 . S
H2304 C2316 0.930 . S
H2305 C2318 0.930 . S
H2306 C2319 0.930 . S
H2307 C2323 0.959 . S
H2308 C2323 0.959 . S
H2309 C2323 0.961 . S
H2310 C2324 0.960 . S
H2311 C2324 0.961 . S
H2312 C2324 0.959 . S
H2313 C2327 0.929 . S
H2314 C2328 0.931 . S
H2315 C2330 0.930 . S
C2316 H2304 0.930 . S
C2316 C2317 1.399 . S
C2316 C2321 1.399 . S
C2317 C2316 1.399 . S
C2317 C2318 1.376 . S
C2318 H2305 0.930 . S
C2318 C2317 1.376 . S
C2318 C2319 1.388 . S
C2319 H2306 0.930 . S
C2319 C2318 1.388 . S
C2319 C2320 1.390 . S
C2320 C2319 1.390 . S
C2320 C2321 1.394 . S
C2320 C2326 1.465 . S
C2321 C2316 1.399 . S
C2321 C2320 1.394 . S
C2321 C2322 1.516 . S
C2322 C2321 1.516 . S
C2322 C2323 1.502 . S
C2322 C2324 1.561 . S
C2322 C2325 1.526 . S
C2323 H2307 0.959 . S
C2323 H2308 0.959 . S
C2323 H2309 0.961 . S
C2323 C2322 1.502 . S
C2324 H2310 0.960 . S
C2324 H2311 0.961 . S
C2324 H2312 0.959 . S
C2324 C2322 1.561 . S
C2325 C2322 1.526 . S
C2325 C2326 1.396 . S
C2325 C2330 1.390 . S
C2326 C2320 1.465 . S
C2326 C2325 1.396 . S
C2326 C2327 1.399 . S
C2327 H2313 0.929 . S
C2327 C2326 1.399 . S
C2327 C2328 1.385 . S
C2328 H2314 0.931 . S
C2328 C2327 1.385 . S
C2328 C2329 1.389 . S
C2329 C2328 1.389 . S
C2329 C2330 1.387 . S
C2330 H2315 0.930 . S
C2330 C2325 1.390 . S
C2330 C2329 1.387 . S
H2331 C2343 0.930 . S
H2332 C2345 0.930 . S
H2333 C2346 0.930 . S
H2334 C2350 0.959 . S
H2335 C2350 0.959 . S
H2336 C2350 0.961 . S
H2337 C2351 0.960 . S
H2338 C2351 0.961 . S
H2339 C2351 0.959 . S
H2340 C2354 0.929 . S
H2341 C2355 0.931 . S
H2342 C2357 0.930 . S
C2343 H2331 0.930 . S
C2343 C2344 1.399 . S
C2343 C2348 1.399 . S
C2344 C2343 1.399 . S
C2344 C2345 1.376 . S
C2345 H2332 0.930 . S
C2345 C2344 1.376 . S
C2345 C2346 1.388 . S
C2346 H2333 0.930 . S
C2346 C2345 1.388 . S
C2346 C2347 1.390 . S
C2347 C2346 1.390 . S
C2347 C2348 1.394 . S
C2347 C2353 1.465 . S
C2348 C2343 1.399 . S
C2348 C2347 1.394 . S
C2348 C2349 1.516 . S
C2349 C2348 1.516 . S
C2349 C2350 1.502 . S
C2349 C2351 1.561 . S
C2349 C2352 1.526 . S
C2350 H2334 0.959 . S
C2350 H2335 0.959 . S
C2350 H2336 0.961 . S
C2350 C2349 1.502 . S
C2351 H2337 0.960 . S
C2351 H2338 0.961 . S
C2351 H2339 0.959 . S
C2351 C2349 1.561 . S
C2352 C2349 1.526 . S
C2352 C2353 1.396 . S
C2352 C2357 1.390 . S
C2353 C2347 1.465 . S
C2353 C2352 1.396 . S
C2353 C2354 1.399 . S
C2354 H2340 0.929 . S
C2354 C2353 1.399 . S
C2354 C2355 1.385 . S
C2355 H2341 0.931 . S
C2355 C2354 1.385 . S
C2355 C2356 1.389 . S
C2356 C2355 1.389 . S
C2356 C2357 1.387 . S
C2357 H2342 0.930 . S
C2357 C2352 1.390 . S
C2357 C2356 1.387 . S
H2358 C2370 0.930 . S
H2359 C2372 0.930 . S
H2360 C2373 0.930 . S
H2361 C2377 0.959 . S
H2362 C2377 0.959 . S
H2363 C2377 0.961 . S
H2364 C2378 0.960 . S
H2365 C2378 0.961 . S
H2366 C2378 0.959 . S
H2367 C2381 0.929 . S
H2368 C2382 0.931 . S
H2369 C2384 0.930 . S
C2370 H2358 0.930 . S
C2370 C2371 1.399 . S
C2370 C2375 1.399 . S
C2371 C2370 1.399 . S
C2371 C2372 1.376 . S
C2372 H2359 0.930 . S
C2372 C2371 1.376 . S
C2372 C2373 1.388 . S
C2373 H2360 0.930 . S
C2373 C2372 1.388 . S
C2373 C2374 1.390 . S
C2374 C2373 1.390 . S
C2374 C2375 1.394 . S
C2374 C2380 1.465 . S
C2375 C2370 1.399 . S
C2375 C2374 1.394 . S
C2375 C2376 1.516 . S
C2376 C2375 1.516 . S
C2376 C2377 1.502 . S
C2376 C2378 1.561 . S
C2376 C2379 1.526 . S
C2377 H2361 0.959 . S
C2377 H2362 0.959 . S
C2377 H2363 0.961 . S
C2377 C2376 1.502 . S
C2378 H2364 0.960 . S
C2378 H2365 0.961 . S
C2378 H2366 0.959 . S
C2378 C2376 1.561 . S
C2379 C2376 1.526 . S
C2379 C2380 1.396 . S
C2379 C2384 1.390 . S
C2380 C2374 1.465 . S
C2380 C2379 1.396 . S
C2380 C2381 1.399 . S
C2381 H2367 0.929 . S
C2381 C2380 1.399 . S
C2381 C2382 1.385 . S
C2382 H2368 0.931 . S
C2382 C2381 1.385 . S
C2382 C2383 1.389 . S
C2383 C2382 1.389 . S
C2383 C2384 1.387 . S
C2384 H2369 0.930 . S
C2384 C2379 1.390 . S
C2384 C2383 1.387 . S
H2385 C2397 0.930 . S
H2386 C2399 0.930 . S
H2387 C2400 0.930 . S
H2388 C2404 0.959 . S
H2389 C2404 0.959 . S
H2390 C2404 0.961 . S
H2391 C2405 0.960 . S
H2392 C2405 0.961 . S
H2393 C2405 0.959 . S
H2394 C2408 0.929 . S
H2395 C2409 0.931 . S
H2396 C2411 0.930 . S
C2397 H2385 0.930 . S
C2397 C2398 1.399 . S
C2397 C2402 1.399 . S
C2398 C2397 1.399 . S
C2398 C2399 1.376 . S
C2399 H2386 0.930 . S
C2399 C2398 1.376 . S
C2399 C2400 1.388 . S
C2400 H2387 0.930 . S
C2400 C2399 1.388 . S
C2400 C2401 1.390 . S
C2401 C2400 1.390 . S
C2401 C2402 1.394 . S
C2401 C2407 1.465 . S
C2402 C2397 1.399 . S
C2402 C2401 1.394 . S
C2402 C2403 1.516 . S
C2403 C2402 1.516 . S
C2403 C2404 1.502 . S
C2403 C2405 1.561 . S
C2403 C2406 1.526 . S
C2404 H2388 0.959 . S
C2404 H2389 0.959 . S
C2404 H2390 0.961 . S
C2404 C2403 1.502 . S
C2405 H2391 0.960 . S
C2405 H2392 0.961 . S
C2405 H2393 0.959 . S
C2405 C2403 1.561 . S
C2406 C2403 1.526 . S
C2406 C2407 1.396 . S
C2406 C2411 1.390 . S
C2407 C2401 1.465 . S
C2407 C2406 1.396 . S
C2407 C2408 1.399 . S
C2408 H2394 0.929 . S
C2408 C2407 1.399 . S
C2408 C2409 1.385 . S
C2409 H2395 0.931 . S
C2409 C2408 1.385 . S
C2409 C2410 1.389 . S
C2410 C2409 1.389 . S
C2410 C2411 1.387 . S
C2411 H2396 0.930 . S
C2411 C2406 1.390 . S
C2411 C2410 1.387 . S
H2412 C2424 0.930 . S
H2413 C2426 0.930 . S
H2414 C2427 0.930 . S
H2415 C2431 0.959 . S
H2416 C2431 0.959 . S
H2417 C2431 0.961 . S
H2418 C2432 0.960 . S
H2419 C2432 0.961 . S
H2420 C2432 0.959 . S
H2421 C2435 0.929 . S
H2422 C2436 0.931 . S
H2423 C2438 0.930 . S
C2424 H2412 0.930 . S
C2424 C2425 1.399 . S
C2424 C2429 1.399 . S
C2425 C2424 1.399 . S
C2425 C2426 1.376 . S
C2426 H2413 0.930 . S
C2426 C2425 1.376 . S
C2426 C2427 1.388 . S
C2427 H2414 0.930 . S
C2427 C2426 1.388 . S
C2427 C2428 1.390 . S
C2428 C2427 1.390 . S
C2428 C2429 1.394 . S
C2428 C2434 1.465 . S
C2429 C2424 1.399 . S
C2429 C2428 1.394 . S
C2429 C2430 1.516 . S
C2430 C2429 1.516 . S
C2430 C2431 1.502 . S
C2430 C2432 1.561 . S
C2430 C2433 1.526 . S
C2431 H2415 0.959 . S
C2431 H2416 0.959 . S
C2431 H2417 0.961 . S
C2431 C2430 1.502 . S
C2432 H2418 0.960 . S
C2432 H2419 0.961 . S
C2432 H2420 0.959 . S
C2432 C2430 1.561 . S
C2433 C2430 1.526 . S
C2433 C2434 1.396 . S
C2433 C2438 1.390 . S
C2434 C2428 1.465 . S
C2434 C2433 1.396 . S
C2434 C2435 1.399 . S
C2435 H2421 0.929 . S
C2435 C2434 1.399 . S
C2435 C2436 1.385 . S
C2436 H2422 0.931 . S
C2436 C2435 1.385 . S
C2436 C2437 1.389 . S
C2437 C2436 1.389 . S
C2437 C2438 1.387 . S
C2438 H2423 0.930 . S
C2438 C2433 1.390 . S
C2438 C2437 1.387 . S
H2439 C2451 0.930 . S
H2440 C2453 0.930 . S
H2441 C2454 0.930 . S
H2442 C2458 0.959 . S
H2443 C2458 0.959 . S
H2444 C2458 0.961 . S
H2445 C2459 0.960 . S
H2446 C2459 0.961 . S
H2447 C2459 0.959 1_655 S
H2448 C2462 0.929 . S
H2449 C2463 0.931 . S
H2450 C2465 0.930 . S
C2451 H2439 0.930 . S
C2451 C2452 1.399 1_455 S
C2451 C2456 1.385 . S
C2452 C2451 1.399 1_655 S
C2452 C2453 1.376 . S
C2453 H2440 0.930 . S
C2453 C2452 1.376 . S
C2453 C2454 1.388 . S
C2454 H2441 0.930 . S
C2454 C2453 1.388 . S
C2454 C2455 1.390 . S
C2455 C2454 1.390 . S
C2455 C2456 1.378 1_655 S
C2455 C2461 1.465 . S
C2456 C2451 1.385 . S
C2456 C2455 1.378 1_455 S
C2456 C2457 1.546 . S
C2457 C2456 1.546 . S
C2457 C2458 1.502 . S
C2457 C2459 1.561 . S
C2457 C2460 1.526 . S
C2458 H2442 0.959 . S
C2458 H2443 0.959 . S
C2458 H2444 0.961 . S
C2458 C2457 1.502 . S
C2459 H2445 0.960 . S
C2459 H2446 0.961 . S
C2459 H2447 0.959 1_455 S
C2459 C2457 1.561 . S
C2460 C2457 1.526 . S
C2460 C2461 1.396 1_455 S
C2460 C2465 1.390 . S
C2461 C2455 1.465 . S
C2461 C2460 1.396 1_655 S
C2461 C2462 1.399 . S
C2462 H2448 0.929 . S
C2462 C2461 1.399 . S
C2462 C2463 1.385 . S
C2463 H2449 0.931 . S
C2463 C2462 1.385 . S
C2463 C2464 1.389 . S
C2464 C2463 1.389 . S
C2464 C2465 1.387 1_655 S
C2465 H2450 0.930 . S
C2465 C2460 1.390 . S
C2465 C2464 1.387 1_455 S
H2466 C2478 0.930 . S
H2467 C2480 0.930 . S
H2468 C2481 0.930 . S
H2469 C2485 0.959 . S
H2470 C2485 0.959 . S
H2471 C2485 0.961 . S
H2472 C2486 0.960 . S
H2473 C2486 0.961 . S
H2474 C2486 0.959 . S
H2475 C2489 0.929 . S
H2476 C2490 0.931 . S
H2477 C2492 0.930 . S
C2478 H2466 0.930 . S
C2478 C2479 1.399 . S
C2478 C2483 1.399 . S
C2479 C2478 1.399 . S
C2479 C2480 1.376 . S
C2480 H2467 0.930 . S
C2480 C2479 1.376 . S
C2480 C2481 1.388 . S
C2481 H2468 0.930 . S
C2481 C2480 1.388 . S
C2481 C2482 1.390 . S
C2482 C2481 1.390 . S
C2482 C2483 1.394 . S
C2482 C2488 1.465 . S
C2483 C2478 1.399 . S
C2483 C2482 1.394 . S
C2483 C2484 1.516 . S
C2484 C2483 1.516 . S
C2484 C2485 1.502 . S
C2484 C2486 1.561 . S
C2484 C2487 1.526 . S
C2485 H2469 0.959 . S
C2485 H2470 0.959 . S
C2485 H2471 0.961 . S
C2485 C2484 1.502 . S
C2486 H2472 0.960 . S
C2486 H2473 0.961 . S
C2486 H2474 0.959 . S
C2486 C2484 1.561 . S
C2487 C2484 1.526 . S
C2487 C2488 1.396 . S
C2487 C2492 1.390 . S
C2488 C2482 1.465 . S
C2488 C2487 1.396 . S
C2488 C2489 1.399 . S
C2489 H2475 0.929 . S
C2489 C2488 1.399 . S
C2489 C2490 1.385 . S
C2490 H2476 0.931 . S
C2490 C2489 1.385 . S
C2490 C2491 1.389 . S
C2491 C2490 1.389 . S
C2491 C2492 1.387 . S
C2492 H2477 0.930 . S
C2492 C2487 1.390 . S
C2492 C2491 1.387 . S
H2493 C2505 0.930 . S
H2494 C2507 0.930 . S
H2495 C2508 0.930 . S
H2496 C2512 0.959 . S
H2497 C2512 0.959 . S
H2498 C2512 0.961 . S
H2499 C2513 0.960 . S
H2500 C2513 0.961 . S
H2501 C2513 0.959 . S
H2502 C2516 0.929 . S
H2503 C2517 0.931 . S
H2504 C2519 0.930 . S
C2505 H2493 0.930 . S
C2505 C2506 1.399 . S
C2505 C2510 1.399 . S
C2506 C2505 1.399 . S
C2506 C2507 1.376 1_545 S
C2507 H2494 0.930 . S
C2507 C2506 1.376 1_565 S
C2507 C2508 1.388 . S
C2508 H2495 0.930 . S
C2508 C2507 1.388 . S
C2508 C2509 1.390 . S
C2509 C2508 1.390 . S
C2509 C2510 1.394 1_565 S
C2509 C2515 1.465 . S
C2510 C2505 1.399 . S
C2510 C2509 1.394 1_545 S
C2510 C2511 1.516 . S
C2511 C2510 1.516 . S
C2511 C2512 1.502 . S
C2511 C2513 1.561 . S
C2511 C2514 1.526 . S
C2512 H2496 0.959 . S
C2512 H2497 0.959 . S
C2512 H2498 0.961 . S
C2512 C2511 1.502 . S
C2513 H2499 0.960 . S
C2513 H2500 0.961 . S
C2513 H2501 0.959 . S
C2513 C2511 1.561 . S
C2514 C2511 1.526 . S
C2514 C2515 1.396 1_545 S
C2514 C2519 1.390 . S
C2515 C2509 1.465 . S
C2515 C2514 1.396 1_565 S
C2515 C2516 1.399 . S
C2516 H2502 0.929 . S
C2516 C2515 1.399 . S
C2516 C2517 1.385 . S
C2517 H2503 0.931 . S
C2517 C2516 1.385 . S
C2517 C2518 1.389 . S
C2518 C2517 1.389 . S
C2518 C2519 1.387 1_565 S
C2519 H2504 0.930 . S
C2519 C2514 1.390 . S
C2519 C2518 1.387 1_545 S
C589 C8 1.522 . S
C601 C421 1.496 . S
C616 C22 1.528 . S
C628 C446 1.553 . S
C655 C457 1.543 . S
C643 C37 1.549 1_545 S
C670 C36 1.547 1_565 S
C682 C482 1.543 . S
C697 C9 1.561 1_455 S
C709 C500 1.521 . S
C724 C23 1.532 . S
C736 C511 1.495 . S
C751 C50 1.543 1_455 S
C763 C493 1.513 1_455 S
C790 C518 1.494 . S
C778 C64 1.502 . S
C817 C475 1.488 1_565 S
C805 C79 1.553 1_565 S
C832 C78 1.543 1_545 S
C844 C464 1.506 1_545 S
C871 C428 1.491 . S
C859 C51 1.500 . S
C886 C65 1.526 . S
C898 C439 1.541 . S
C913 C92 1.565 . S
C925 C529 1.507 . S
C940 C106 1.567 . S
C952 C554 1.517 . S
C979 C565 1.551 . S
C967 C121 1.552 . S
C994 C120 1.552 . S
C1006 C266 1.547 . S
C1021 C93 1.526 . S
C1033 C284 1.551 . S
C1048 C107 1.531 . S
C1060 C295 1.548 . S
C1075 C134 1.518 . S
C1087 C277 1.482 . S
C1102 C148 1.503 . S
C1114 C302 1.494 . S
C1141 C259 1.505 . S
C1129 C163 1.546 . S
C1168 C572 1.514 . S
C1156 C162 1.500 . S
C1195 C536 1.501 . S
C1183 C135 1.541 . S
C1222 C547 1.545 . S
C1210 C149 1.535 . S
C1237 C176 1.524 . S
C1249 C313 1.502 . S
C1264 C190 1.525 . S
C1276 C338 1.550 . S
C1291 C205 1.533 . S
C1303 C349 1.550 . S
C1318 C204 1.555 . S
C1330 C374 1.551 . S
C1357 C392 1.558 . S
C1345 C177 1.539 . S
C1384 C403 1.494 . S
C1372 C191 1.551 . S
C1411 C385 1.489 . S
C1399 C218 1.519 . S
C1438 C410 1.535 . S
C1426 C232 1.549 . S
C1453 C247 1.505 . S
C1465 C367 1.532 . S
C1492 C356 1.521 . S
C1480 C246 1.500 . S
C1507 C219 1.516 . S
C1519 C320 1.540 . S
C1546 C331 1.506 . S
C1534 C233 1.547 . S
C1573 C268 1.424 . S
C1561 C6 1.503 . S
C1588 C20 1.494 . S
C1600 C286 1.449 . S
C1627 C296 1.484 . S
C1615 C35 1.473 . S
C1654 C314 1.481 . S
C1642 C34 1.470 . S
C1681 C340 1.462 . S
C1669 C7 1.491 . S
C1708 C350 1.473 . S
C1696 C21 1.439 . S
C1723 C48 1.482 . S
C1735 C358 1.414 . S
C1750 C62 1.455 . S
C1762 C322 1.479 . S
C1777 C77 1.463 . S
C1789 C332 1.435 . S
C1804 C76 1.450 . S
C1816 C278 1.487 . S
C1843 C304 1.410 . S
C1831 C49 1.510 . S
C1858 C63 1.464 . S
C1870 C260 1.430 . S
C1897 C376 1.426 . S
C1885 C90 1.502 . S
C1912 C104 1.478 . S
C1924 C394 1.402 . S
C1939 C119 1.476 . S
C1951 C404 1.486 . S
C1978 C422 1.429 . S
C1966 C118 1.491 . S
C1993 C91 1.478 . S
C2005 C448 1.478 . S
C2020 C105 1.437 . S
C2032 C458 1.474 . S
C2047 C132 1.494 . S
C2059 C466 1.476 1_545 S
C2074 C146 1.473 . S
C2086 C430 1.399 . S
C2113 C440 1.418 . S
C2101 C161 1.511 . S
C2128 C160 1.476 . S
C2140 C386 1.418 . S
C2155 C133 1.500 . S
C2167 C412 1.403 . S
C2194 C368 1.428 . S
C2182 C147 1.476 . S
C2221 C484 1.473 . S
C2209 C174 1.432 . S
C2236 C188 1.484 . S
C2248 C502 1.469 . S
C2263 C203 1.462 . S
C2275 C512 1.486 . S
C2302 C530 1.434 . S
C2290 C202 1.434 . S
C2329 C556 1.429 . S
C2317 C175 1.505 . S
C2344 C189 1.500 . S
C2356 C566 1.426 . S
C2371 C216 1.513 . S
C2383 C574 1.419 . S
C2398 C230 1.476 . S
C2410 C538 1.489 . S
C2437 C548 1.425 . S
C2425 C245 1.514 . S
C2464 C494 1.434 1_655 S
C2452 C244 1.439 . S
C2491 C520 1.482 . S
C2479 C217 1.459 . S
C2506 C231 1.485 . S
C2518 C476 1.502 . S
