# Generated by pormake.
# Topology ptr, (4,4)-cn, num edge types: 1
# Building blocks:
#     Node 0, Type 0, BuildingBlock: KUFVIS_clean_sbu_0, # of connection points: 4
#     Node 1, Type 0, BuildingBlock: KUFVIS_clean_sbu_0, # of connection points: 4
#     Node 2, Type 0, BuildingBlock: KUFVIS_clean_sbu_0, # of connection points: 4
#     Node 3, Type 0, BuildingBlock: KUFVIS_clean_sbu_0, # of connection points: 4
#     Node 4, Type 0, BuildingBlock: KUFVIS_clean_sbu_0, # of connection points: 4
#     Node 5, Type 0, BuildingBlock: KUFVIS_clean_sbu_0, # of connection points: 4
#     Node 6, Type 0, BuildingBlock: KUFVIS_clean_sbu_0, # of connection points: 4
#     Node 7, Type 0, BuildingBlock: KUFVIS_clean_sbu_0, # of connection points: 4
#     Node 8, Type 0, BuildingBlock: KUFVIS_clean_sbu_0, # of connection points: 4
#     Node 9, Type 0, BuildingBlock: KUFVIS_clean_sbu_0, # of connection points: 4
#     Node 10, Type 0, BuildingBlock: KUFVIS_clean_sbu_0, # of connection points: 4
#     Node 11, Type 0, BuildingBlock: KUFVIS_clean_sbu_0, # of connection points: 4
#     Node 12, Type 0, BuildingBlock: KUFVIS_clean_sbu_0, # of connection points: 4
#     Node 13, Type 0, BuildingBlock: KUFVIS_clean_sbu_0, # of connection points: 4
#     Node 14, Type 0, BuildingBlock: KUFVIS_clean_sbu_0, # of connection points: 4
#     Node 15, Type 0, BuildingBlock: KUFVIS_clean_sbu_0, # of connection points: 4
#     Node 16, Type 0, BuildingBlock: KUFVIS_clean_sbu_0, # of connection points: 4
#     Node 17, Type 0, BuildingBlock: KUFVIS_clean_sbu_0, # of connection points: 4
#     Node 18, Type 1, BuildingBlock: NAWXER_clean_linker_0, # of connection points: 4
#     Node 19, Type 1, BuildingBlock: NAWXER_clean_linker_0, # of connection points: 4
#     Node 20, Type 1, BuildingBlock: NAWXER_clean_linker_0, # of connection points: 4
#     Node 21, Type 1, BuildingBlock: NAWXER_clean_linker_0, # of connection points: 4
#     Node 22, Type 1, BuildingBlock: NAWXER_clean_linker_0, # of connection points: 4
#     Node 23, Type 1, BuildingBlock: NAWXER_clean_linker_0, # of connection points: 4
#     Node 24, Type 1, BuildingBlock: NAWXER_clean_linker_0, # of connection points: 4
#     Node 25, Type 1, BuildingBlock: NAWXER_clean_linker_0, # of connection points: 4
#     Node 26, Type 1, BuildingBlock: NAWXER_clean_linker_0, # of connection points: 4
#     Node 27, Type 1, BuildingBlock: NAWXER_clean_linker_0, # of connection points: 4
#     Node 28, Type 1, BuildingBlock: NAWXER_clean_linker_0, # of connection points: 4
#     Node 29, Type 1, BuildingBlock: NAWXER_clean_linker_0, # of connection points: 4
#     Node 30, Type 1, BuildingBlock: NAWXER_clean_linker_0, # of connection points: 4
#     Node 31, Type 1, BuildingBlock: NAWXER_clean_linker_0, # of connection points: 4
#     Node 32, Type 1, BuildingBlock: NAWXER_clean_linker_0, # of connection points: 4
#     Node 33, Type 1, BuildingBlock: NAWXER_clean_linker_0, # of connection points: 4
#     Node 34, Type 1, BuildingBlock: NAWXER_clean_linker_0, # of connection points: 4
#     Node 35, Type 1, BuildingBlock: NAWXER_clean_linker_0, # of connection points: 4
#     Edge 36, Type (0, 1), BuildingBlock: TEMPAE_clean_linker_10, # of connection points: 2
#     Edge 37, Type (0, 1), BuildingBlock: TEMPAE_clean_linker_10, # of connection points: 2
#     Edge 38, Type (0, 1), BuildingBlock: TEMPAE_clean_linker_10, # of connection points: 2
#     Edge 39, Type (0, 1), BuildingBlock: TEMPAE_clean_linker_10, # of connection points: 2
#     Edge 40, Type (0, 1), BuildingBlock: TEMPAE_clean_linker_10, # of connection points: 2
#     Edge 41, Type (0, 1), BuildingBlock: TEMPAE_clean_linker_10, # of connection points: 2
#     Edge 42, Type (0, 1), BuildingBlock: TEMPAE_clean_linker_10, # of connection points: 2
#     Edge 43, Type (0, 1), BuildingBlock: TEMPAE_clean_linker_10, # of connection points: 2
#     Edge 44, Type (0, 1), BuildingBlock: TEMPAE_clean_linker_10, # of connection points: 2
#     Edge 45, Type (0, 1), BuildingBlock: TEMPAE_clean_linker_10, # of connection points: 2
#     Edge 46, Type (0, 1), BuildingBlock: TEMPAE_clean_linker_10, # of connection points: 2
#     Edge 47, Type (0, 1), BuildingBlock: TEMPAE_clean_linker_10, # of connection points: 2
#     Edge 48, Type (0, 1), BuildingBlock: TEMPAE_clean_linker_10, # of connection points: 2
#     Edge 49, Type (0, 1), BuildingBlock: TEMPAE_clean_linker_10, # of connection points: 2
#     Edge 50, Type (0, 1), BuildingBlock: TEMPAE_clean_linker_10, # of connection points: 2
#     Edge 51, Type (0, 1), BuildingBlock: TEMPAE_clean_linker_10, # of connection points: 2
#     Edge 52, Type (0, 1), BuildingBlock: TEMPAE_clean_linker_10, # of connection points: 2
#     Edge 53, Type (0, 1), BuildingBlock: TEMPAE_clean_linker_10, # of connection points: 2
#     Edge 54, Type (0, 1), BuildingBlock: TEMPAE_clean_linker_10, # of connection points: 2
#     Edge 55, Type (0, 1), BuildingBlock: TEMPAE_clean_linker_10, # of connection points: 2
#     Edge 56, Type (0, 1), BuildingBlock: TEMPAE_clean_linker_10, # of connection points: 2
#     Edge 57, Type (0, 1), BuildingBlock: TEMPAE_clean_linker_10, # of connection points: 2
#     Edge 58, Type (0, 1), BuildingBlock: TEMPAE_clean_linker_10, # of connection points: 2
#     Edge 59, Type (0, 1), BuildingBlock: TEMPAE_clean_linker_10, # of connection points: 2
#     Edge 60, Type (0, 1), BuildingBlock: TEMPAE_clean_linker_10, # of connection points: 2
#     Edge 61, Type (0, 1), BuildingBlock: TEMPAE_clean_linker_10, # of connection points: 2
#     Edge 62, Type (0, 1), BuildingBlock: TEMPAE_clean_linker_10, # of connection points: 2
#     Edge 63, Type (0, 1), BuildingBlock: TEMPAE_clean_linker_10, # of connection points: 2
#     Edge 64, Type (0, 1), BuildingBlock: TEMPAE_clean_linker_10, # of connection points: 2
#     Edge 65, Type (0, 1), BuildingBlock: TEMPAE_clean_linker_10, # of connection points: 2
#     Edge 66, Type (0, 1), BuildingBlock: TEMPAE_clean_linker_10, # of connection points: 2
#     Edge 67, Type (0, 1), BuildingBlock: TEMPAE_clean_linker_10, # of connection points: 2
#     Edge 68, Type (0, 1), BuildingBlock: TEMPAE_clean_linker_10, # of connection points: 2
#     Edge 69, Type (0, 1), BuildingBlock: TEMPAE_clean_linker_10, # of connection points: 2
#     Edge 70, Type (0, 1), BuildingBlock: TEMPAE_clean_linker_10, # of connection points: 2
#     Edge 71, Type (0, 1), BuildingBlock: TEMPAE_clean_linker_10, # of connection points: 2
#     Edge 72, Type (0, 1), BuildingBlock: TEMPAE_clean_linker_10, # of connection points: 2
#     Edge 73, Type (0, 1), BuildingBlock: TEMPAE_clean_linker_10, # of connection points: 2
#     Edge 74, Type (0, 1), BuildingBlock: TEMPAE_clean_linker_10, # of connection points: 2
#     Edge 75, Type (0, 1), BuildingBlock: TEMPAE_clean_linker_10, # of connection points: 2
#     Edge 76, Type (0, 1), BuildingBlock: TEMPAE_clean_linker_10, # of connection points: 2
#     Edge 77, Type (0, 1), BuildingBlock: TEMPAE_clean_linker_10, # of connection points: 2
#     Edge 78, Type (0, 1), BuildingBlock: TEMPAE_clean_linker_10, # of connection points: 2
#     Edge 79, Type (0, 1), BuildingBlock: TEMPAE_clean_linker_10, # of connection points: 2
#     Edge 80, Type (0, 1), BuildingBlock: TEMPAE_clean_linker_10, # of connection points: 2
#     Edge 81, Type (0, 1), BuildingBlock: TEMPAE_clean_linker_10, # of connection points: 2
#     Edge 82, Type (0, 1), BuildingBlock: TEMPAE_clean_linker_10, # of connection points: 2
#     Edge 83, Type (0, 1), BuildingBlock: TEMPAE_clean_linker_10, # of connection points: 2
#     Edge 84, Type (0, 1), BuildingBlock: TEMPAE_clean_linker_10, # of connection points: 2
#     Edge 85, Type (0, 1), BuildingBlock: TEMPAE_clean_linker_10, # of connection points: 2
#     Edge 86, Type (0, 1), BuildingBlock: TEMPAE_clean_linker_10, # of connection points: 2
#     Edge 87, Type (0, 1), BuildingBlock: TEMPAE_clean_linker_10, # of connection points: 2
#     Edge 88, Type (0, 1), BuildingBlock: TEMPAE_clean_linker_10, # of connection points: 2
#     Edge 89, Type (0, 1), BuildingBlock: TEMPAE_clean_linker_10, # of connection points: 2
#     Edge 90, Type (0, 1), BuildingBlock: TEMPAE_clean_linker_10, # of connection points: 2
#     Edge 91, Type (0, 1), BuildingBlock: TEMPAE_clean_linker_10, # of connection points: 2
#     Edge 92, Type (0, 1), BuildingBlock: TEMPAE_clean_linker_10, # of connection points: 2
#     Edge 93, Type (0, 1), BuildingBlock: TEMPAE_clean_linker_10, # of connection points: 2
#     Edge 94, Type (0, 1), BuildingBlock: TEMPAE_clean_linker_10, # of connection points: 2
#     Edge 95, Type (0, 1), BuildingBlock: TEMPAE_clean_linker_10, # of connection points: 2
#     Edge 96, Type (0, 1), BuildingBlock: TEMPAE_clean_linker_10, # of connection points: 2
#     Edge 97, Type (0, 1), BuildingBlock: TEMPAE_clean_linker_10, # of connection points: 2
#     Edge 98, Type (0, 1), BuildingBlock: TEMPAE_clean_linker_10, # of connection points: 2
#     Edge 99, Type (0, 1), BuildingBlock: TEMPAE_clean_linker_10, # of connection points: 2
#     Edge 100, Type (0, 1), BuildingBlock: TEMPAE_clean_linker_10, # of connection points: 2
#     Edge 101, Type (0, 1), BuildingBlock: TEMPAE_clean_linker_10, # of connection points: 2
#     Edge 102, Type (0, 1), BuildingBlock: TEMPAE_clean_linker_10, # of connection points: 2
#     Edge 103, Type (0, 1), BuildingBlock: TEMPAE_clean_linker_10, # of connection points: 2
#     Edge 104, Type (0, 1), BuildingBlock: TEMPAE_clean_linker_10, # of connection points: 2
#     Edge 105, Type (0, 1), BuildingBlock: TEMPAE_clean_linker_10, # of connection points: 2
#     Edge 106, Type (0, 1), BuildingBlock: TEMPAE_clean_linker_10, # of connection points: 2
#     Edge 107, Type (0, 1), BuildingBlock: TEMPAE_clean_linker_10, # of connection points: 2
# Relax obj value: 0.038
# Max RMSD: 0.167
# Mean RMSD: 0.064
data_MOF--net-ptr--node1-KUFVIS_clean_sbu_0--node2-NAWXER_clean_linker_0--edge1-TEMPAE_clean_linker_10
_symmetry_space_group_name_H-M    P1
_symmetry_Int_Tables_number       1
_symmetry_cell_setting            triclinic
loop_
_symmetry_equiv_pos_as_xyz
'x, y, z'
_cell_length_a     87.651175
_cell_length_b     87.207728
_cell_length_c     64.854803
_cell_angle_alpha  89.790292
_cell_angle_beta   90.554509
_cell_angle_gamma 119.48125
loop_
_atom_site_label
_atom_site_type_symbol
_atom_site_fract_x
_atom_site_fract_y
_atom_site_fract_z
_atom_type_partial_charge
Mn0 Mn 0.99875 0.35062 0.99906 0.0
Mn1 Mn 0.03875 0.3867 0.00282 0.0
C2 C 0.00561 0.37493 0.97864 0.0
C3 C 0.97993 0.32295 0.98523 0.0
C4 C 0.00977 0.37815 0.03343 0.0
O5 O 0.01281 0.34134 0.01465 0.0
O6 O 0.03899 0.36605 0.01522 0.0
C7 C 0.05716 0.3748 0.97454 0.0
N8 N 0.05259 0.38703 0.98009 0.0
C9 C 0.0699 0.40653 0.95295 0.0
C10 C 0.07485 0.39418 0.94696 0.0
C11 C 0.06836 0.37819 0.95773 0.0
C12 C 0.05846 0.40227 0.96958 0.0
H13 H 0.05233 0.36258 0.98292 0.0
C14 C 0.02904 0.34976 0.01943 0.0
O15 O 0.97679 0.32784 0.00284 0.0
O16 O 0.99423 0.334 0.97593 0.0
N17 N 0.04093 0.40793 0.99149 0.0
C18 C 0.03456 0.41824 0.99897 0.0
C19 C 0.03997 0.43482 0.99012 0.0
C20 C 0.05211 0.44075 0.97397 0.0
C21 C 0.05838 0.42987 0.96643 0.0
C22 C 0.05251 0.41348 0.97584 0.0
H23 H 0.0256 0.41393 0.01176 0.0
O24 O 0.98941 0.36327 0.98205 0.0
O25 O 0.01743 0.3718 0.9868 0.0
O26 O 0.99834 0.36393 0.02478 0.0
O27 O 0.02528 0.38761 0.02656 0.0
C28 C 0.07038 0.4347 0.95009 0.0
C29 C 0.07593 0.42293 0.94316 0.0
H30 H 0.08361 0.39682 0.93412 0.0
H31 H 0.0721 0.36858 0.95319 0.0
H32 H 0.03504 0.44314 0.99596 0.0
H33 H 0.05656 0.45372 0.96752 0.0
H34 H 0.07533 0.44738 0.94264 0.0
H35 H 0.08493 0.42668 0.93037 0.0
Mn36 Mn 0.64777 0.64736 0.0139 0.0
Mn37 Mn 0.64978 0.60975 0.01124 0.0
C38 C 0.63043 0.62402 0.03519 0.0
C39 C 0.65838 0.6758 0.02651 0.0
C40 C 0.62919 0.619 0.98072 0.0
O41 O 0.67002 0.65483 0.99764 0.0
O42 O 0.67049 0.6293 0.99774 0.0
C43 C 0.68057 0.62099 0.03883 0.0
N44 N 0.66359 0.60931 0.03395 0.0
C45 C 0.6613 0.59076 0.06263 0.0
C46 C 0.67879 0.60255 0.06793 0.0
C47 C 0.68844 0.61778 0.05603 0.0
C48 C 0.6541 0.59481 0.04551 0.0
H49 H 0.68805 0.63266 0.02965 0.0
C50 C 0.67705 0.64557 0.99292 0.0
O51 O 0.64948 0.67072 0.00938 0.0
O52 O 0.66134 0.66444 0.03614 0.0
N53 N 0.63083 0.58945 0.02355 0.0
C54 C 0.61412 0.57943 0.01633 0.0
C55 C 0.60285 0.56349 0.02616 0.0
C56 C 0.60897 0.55786 0.04304 0.0
C57 C 0.62619 0.5684 0.05025 0.0
C58 C 0.63684 0.58412 0.03978 0.0
H59 H 0.60948 0.58349 0.00305 0.0
O60 O 0.62665 0.63642 0.03165 0.0
O61 O 0.64472 0.62595 0.02681 0.0
O62 O 0.63286 0.63374 0.98888 0.0
O63 O 0.63496 0.60907 0.98772 0.0
C64 C 0.63329 0.56383 0.06723 0.0
C65 C 0.65076 0.57512 0.07359 0.0
H66 H 0.68495 0.60004 0.0811 0.0
H67 H 0.70193 0.62696 0.06005 0.0
H68 H 0.58957 0.55542 0.02055 0.0
H69 H 0.60038 0.54533 0.05023 0.0
H70 H 0.62542 0.5517 0.07558 0.0
H71 H 0.656 0.57156 0.08682 0.0
Mn72 Mn 0.35305 0.00124 0.01994 0.0
Mn73 Mn 0.38813 0.04174 0.01382 0.0
C74 C 0.37775 0.01009 0.04064 0.0
C75 C 0.32585 0.98241 0.03449 0.0
C76 C 0.3803 0.01105 0.9857 0.0
O77 O 0.3428 0.01379 0.00308 0.0
O78 O 0.367 0.04023 0.00027 0.0
C79 C 0.37544 0.06124 0.03928 0.0
N80 N 0.38808 0.05704 0.03478 0.0
C81 C 0.40779 0.07762 0.05996 0.0
C82 C 0.395 0.08222 0.06485 0.0
C83 C 0.37871 0.07391 0.05455 0.0
C84 C 0.40365 0.0647 0.04486 0.0
H85 H 0.36299 0.05503 0.03121 0.0
C86 C 0.35073 0.02966 0.99672 0.0
O87 O 0.33076 0.97843 0.01745 0.0
O88 O 0.33661 0.99745 0.04289 0.0
N89 N 0.40976 0.0458 0.02592 0.0
C90 C 0.42032 0.03925 0.02007 0.0
C91 C 0.43734 0.04658 0.0283 0.0
C92 C 0.44331 0.06056 0.04242 0.0
C93 C 0.43198 0.0666 0.04887 0.0
C94 C 0.41527 0.059 0.03985 0.0
H95 H 0.41583 0.02864 0.00908 0.0
O96 O 0.36649 0.99354 0.03804 0.0
O97 O 0.37409 0.02121 0.03141 0.0
O98 O 0.36612 0.99988 0.99441 0.0
O99 O 0.38959 0.02695 0.99185 0.0
C100 C 0.43663 0.07996 0.06373 0.0
C101 C 0.42447 0.08533 0.06944 0.0
H102 H 0.39753 0.09208 0.07649 0.0
H103 H 0.36877 0.07737 0.05825 0.0
H104 H 0.44592 0.04163 0.02356 0.0
H105 H 0.45662 0.0665 0.04829 0.0
H106 H 0.44945 0.08605 0.07104 0.0
H107 H 0.4281 0.09543 0.0811 0.0
Mn108 Mn 0.00622 0.65648 0.99631 0.0
Mn109 Mn 0.04682 0.66152 0.00069 0.0
C110 C 0.01379 0.63931 0.97643 0.0
C111 C 0.98736 0.66544 0.98223 0.0
C112 C 0.01785 0.64125 0.03161 0.0
O113 O 0.01965 0.67946 0.01221 0.0
O114 O 0.04683 0.68291 0.0111 0.0
C115 C 0.06434 0.69009 0.97007 0.0
N116 N 0.0603 0.67383 0.97719 0.0
C117 C 0.07757 0.67046 0.95087 0.0
C118 C 0.08208 0.68726 0.94337 0.0
C119 C 0.07532 0.69706 0.95293 0.0
C120 C 0.06636 0.66412 0.9678 0.0
H121 H 0.05919 0.69766 0.97742 0.0
C122 C 0.03608 0.68827 0.01569 0.0
O123 O 0.98404 0.65715 0.99971 0.0
O124 O 0.00174 0.66868 0.97306 0.0
N125 N 0.04925 0.64212 0.99118 0.0
C126 C 0.0431 0.6259 0.99983 0.0
C127 C 0.04856 0.6144 0.99206 0.0
C128 C 0.06055 0.61982 0.97577 0.0
C129 C 0.06666 0.63655 0.96706 0.0
C130 C 0.06072 0.64742 0.97541 0.0
H131 H 0.03422 0.62182 0.01269 0.0
O132 O 0.99747 0.63474 0.97925 0.0
O133 O 0.02528 0.65424 0.9846 0.0
O134 O 0.00589 0.64277 0.02202 0.0
O135 O 0.03368 0.64827 0.02536 0.0
C136 C 0.07851 0.64295 0.95052 0.0
C137 C 0.08376 0.65978 0.94223 0.0
H138 H 0.09064 0.69272 0.93024 0.0
H139 H 0.07864 0.70998 0.94716 0.0
H140 H 0.04376 0.60148 0.99882 0.0
H141 H 0.06501 0.61105 0.97012 0.0
H142 H 0.08355 0.63496 0.94391 0.0
H143 H 0.0926 0.66439 0.92926 0.0
Mn144 Mn 0.3468 0.35309 0.00953 0.0
Mn145 Mn 0.38357 0.34994 0.00636 0.0
C146 C 0.37086 0.37079 0.03005 0.0
C147 C 0.31904 0.34348 0.02324 0.0
C148 C 0.37427 0.37031 0.97553 0.0
O149 O 0.33831 0.32996 0.99416 0.0
O150 O 0.36345 0.32902 0.99361 0.0
C151 C 0.37248 0.31961 0.03461 0.0
N152 N 0.38428 0.33644 0.02923 0.0
C153 C 0.40355 0.33887 0.05722 0.0
C154 C 0.39164 0.32153 0.06303 0.0
C155 C 0.37599 0.3119 0.05174 0.0
C156 C 0.3992 0.34594 0.04022 0.0
H157 H 0.36049 0.31213 0.02588 0.0
C158 C 0.34713 0.32246 0.98938 0.0
O159 O 0.32347 0.35154 0.00561 0.0
O160 O 0.33061 0.34075 0.03265 0.0
N161 N 0.40435 0.36899 0.01801 0.0
C162 C 0.41432 0.38561 0.01052 0.0
C163 C 0.43057 0.39688 0.01983 0.0
C164 C 0.43654 0.39084 0.03647 0.0
C165 C 0.42603 0.37371 0.04398 0.0
C166 C 0.40997 0.36307 0.03406 0.0
H167 H 0.40999 0.39018 0.99741 0.0
O168 O 0.35878 0.37497 0.02647 0.0
O169 O 0.36828 0.35603 0.02203 0.0
O170 O 0.35978 0.36703 0.98376 0.0
O171 O 0.38403 0.3644 0.98265 0.0
C172 C 0.43093 0.3667 0.06076 0.0
C173 C 0.41959 0.34938 0.06756 0.0
H174 H 0.39438 0.3155 0.07613 0.0
H175 H 0.36672 0.29853 0.05614 0.0
H176 H 0.43861 0.4101 0.014 0.0
H177 H 0.44927 0.39944 0.04328 0.0
H178 H 0.44334 0.37455 0.06864 0.0
H179 H 0.42339 0.34423 0.08066 0.0
Mn180 Mn 0.64796 0.99814 0.00324 0.0
Mn181 Mn 0.61287 0.95761 0.00853 0.0
C182 C 0.62311 0.98991 0.98339 0.0
C183 C 0.67487 0.01715 0.98843 0.0
C184 C 0.6212 0.98758 0.03807 0.0
O185 O 0.65823 0.98506 0.0189 0.0
O186 O 0.63403 0.95853 0.02107 0.0
C187 C 0.62509 0.93886 0.98111 0.0
N188 N 0.61268 0.9432 0.98631 0.0
C189 C 0.59344 0.92507 0.95915 0.0
C190 C 0.60599 0.92034 0.95354 0.0
C191 C 0.62192 0.92735 0.9645 0.0
C192 C 0.59745 0.9368 0.97563 0.0
H193 H 0.63731 0.94412 0.98958 0.0
C194 C 0.65034 0.96899 0.02454 0.0
O195 O 0.67039 0.02072 0.00605 0.0
O196 O 0.66387 0.00236 0.97972 0.0
N197 N 0.5913 0.95436 0.99709 0.0
C198 C 0.58073 0.9605 0.00424 0.0
C199 C 0.56421 0.95465 0.99507 0.0
C200 C 0.55859 0.9423 0.97894 0.0
C201 C 0.56969 0.93618 0.97183 0.0
C202 C 0.58601 0.9425 0.98155 0.0
H203 H 0.58484 0.96971 0.01693 0.0
O204 O 0.6344 0.00642 0.98624 0.0
O205 O 0.62688 0.9786 0.99179 0.0
O206 O 0.63519 0.99891 0.02918 0.0
O207 O 0.61188 0.97175 0.03166 0.0
C208 C 0.56514 0.92393 0.95561 0.0
C209 C 0.5771 0.91857 0.94909 0.0
H210 H 0.60353 0.91137 0.94083 0.0
H211 H 0.63169 0.92379 0.96024 0.0
H212 H 0.55572 0.95945 0.00061 0.0
H213 H 0.54569 0.93755 0.97221 0.0
H214 H 0.55252 0.91864 0.94794 0.0
H215 H 0.57356 0.90936 0.9364 0.0
Mn216 Mn 0.66231 0.68537 0.33839 0.0
Mn217 Mn 0.70308 0.72008 0.34257 0.0
C218 C 0.67085 0.7095 0.31705 0.0
C219 C 0.64318 0.65769 0.32499 0.0
C220 C 0.67388 0.71274 0.37264 0.0
O221 O 0.67523 0.67568 0.35555 0.0
O222 O 0.70266 0.69873 0.3539 0.0
C223 C 0.7209 0.70831 0.31322 0.0
N224 N 0.71676 0.72068 0.31953 0.0
C225 C 0.7341 0.74058 0.2927 0.0
C226 C 0.7387 0.72813 0.28601 0.0
C227 C 0.73196 0.71187 0.29622 0.0
C228 C 0.72281 0.73617 0.3095 0.0
H229 H 0.71577 0.69583 0.32108 0.0
C230 C 0.69168 0.68289 0.35901 0.0
O231 O 0.63966 0.66326 0.34186 0.0
O232 O 0.65796 0.66806 0.31612 0.0
N233 N 0.70559 0.74171 0.33206 0.0
C234 C 0.69927 0.75194 0.33989 0.0
C235 C 0.70461 0.76861 0.33131 0.0
C236 C 0.71665 0.77471 0.31506 0.0
C237 C 0.72297 0.76393 0.30724 0.0
C238 C 0.71708 0.74741 0.31632 0.0
H239 H 0.69031 0.74749 0.35267 0.0
O240 O 0.65436 0.69843 0.3198 0.0
O241 O 0.68183 0.70581 0.32634 0.0
O242 O 0.66183 0.69949 0.36311 0.0
O243 O 0.68982 0.72088 0.36675 0.0
C244 C 0.73498 0.76898 0.29092 0.0
C245 C 0.74031 0.75721 0.28341 0.0
H246 H 0.74733 0.73089 0.273 0.0
H247 H 0.73536 0.70215 0.29108 0.0
H248 H 0.69965 0.77683 0.33738 0.0
H249 H 0.72093 0.78768 0.30869 0.0
H250 H 0.74011 0.78186 0.28393 0.0
H251 H 0.74926 0.76111 0.27056 0.0
Mn252 Mn 0.32232 0.97917 0.35505 0.0
Mn253 Mn 0.3261 0.94249 0.35411 0.0
C254 C 0.30483 0.95564 0.37605 0.0
C255 C 0.33137 0.00749 0.36702 0.0
C256 C 0.30603 0.95063 0.3217 0.0
O257 O 0.34529 0.98738 0.34005 0.0
O258 O 0.34691 0.96247 0.34135 0.0
C259 C 0.35588 0.95484 0.38352 0.0
N260 N 0.33926 0.94268 0.37784 0.0
C261 C 0.33649 0.9245 0.40711 0.0
C262 C 0.35361 0.93679 0.41324 0.0
C263 C 0.36331 0.95207 0.40144 0.0
C264 C 0.3297 0.92811 0.38928 0.0
H265 H 0.36339 0.96656 0.37442 0.0
C266 C 0.35303 0.97862 0.33621 0.0
O267 O 0.32318 0.00199 0.34951 0.0
O268 O 0.33456 0.99662 0.37744 0.0
N269 N 0.30713 0.92183 0.36579 0.0
C270 C 0.29082 0.91131 0.35772 0.0
C271 C 0.27957 0.89526 0.36737 0.0
C272 C 0.28533 0.89006 0.38496 0.0
C273 C 0.30215 0.90111 0.39302 0.0
C274 C 0.31279 0.91691 0.38269 0.0
H275 H 0.28648 0.91506 0.34392 0.0
O276 O 0.30058 0.9676 0.37173 0.0
O277 O 0.31963 0.95814 0.36862 0.0
O278 O 0.30868 0.96512 0.32963 0.0
O279 O 0.31205 0.94117 0.32949 0.0
C280 C 0.30886 0.89699 0.41073 0.0
C281 C 0.32593 0.90878 0.41793 0.0
H282 H 0.35943 0.93463 0.42697 0.0
H283 H 0.37651 0.96164 0.40609 0.0
H284 H 0.2666 0.8868 0.36109 0.0
H285 H 0.27678 0.87746 0.39203 0.0
H286 H 0.30097 0.88481 0.41899 0.0
H287 H 0.33086 0.90556 0.4317 0.0
Mn288 Mn 0.01799 0.33914 0.34872 0.0
Mn289 Mn 0.05398 0.37922 0.34448 0.0
C290 C 0.04227 0.34648 0.36959 0.0
C291 C 0.99033 0.32077 0.36246 0.0
C292 C 0.04532 0.34925 0.31467 0.0
O293 O 0.00888 0.35295 0.33209 0.0
O294 O 0.03338 0.37933 0.33187 0.0
C295 C 0.0425 0.39836 0.37228 0.0
N296 N 0.05458 0.39361 0.36694 0.0
C297 C 0.07418 0.41136 0.39404 0.0
C298 C 0.06199 0.41651 0.39982 0.0
C299 C 0.04603 0.40989 0.38896 0.0
C300 C 0.06979 0.39958 0.37754 0.0
H301 H 0.03029 0.39342 0.36385 0.0
C302 C 0.01722 0.36925 0.32732 0.0
O303 O 0.99523 0.31694 0.34532 0.0
O304 O 0.00135 0.33545 0.37139 0.0
N305 N 0.0752 0.38158 0.35592 0.0
C306 C 0.08546 0.37518 0.34847 0.0
C307 C 0.10208 0.38084 0.35727 0.0
C308 C 0.1081 0.39325 0.37333 0.0
C309 C 0.09727 0.39956 0.38085 0.0
C310 C 0.08086 0.39347 0.37145 0.0
H311 H 0.08109 0.36601 0.33573 0.0
O312 O 0.03048 0.33016 0.36667 0.0
O313 O 0.03922 0.35818 0.36083 0.0
O314 O 0.0313 0.33788 0.3235 0.0
O315 O 0.05457 0.3651 0.32107 0.0
C316 C 0.10221 0.41184 0.3971 0.0
C317 C 0.09056 0.41753 0.40389 0.0
H318 H 0.06474 0.42553 0.41255 0.0
H319 H 0.03653 0.41378 0.39335 0.0
H320 H 0.11035 0.37589 0.35143 0.0
H321 H 0.12112 0.39794 0.37968 0.0
H322 H 0.11489 0.41692 0.40457 0.0
H323 H 0.09441 0.42677 0.41659 0.0
Mn324 Mn 0.67483 0.98532 0.33795 0.0
Mn325 Mn 0.71408 0.98753 0.34476 0.0
C326 C 0.6819 0.96746 0.31869 0.0
C327 C 0.6572 0.99532 0.32258 0.0
C328 C 0.68354 0.96758 0.37359 0.0
O329 O 0.68875 0.00832 0.35371 0.0
O330 O 0.71448 0.00867 0.35662 0.0
C331 C 0.73443 0.01787 0.31716 0.0
N332 N 0.72911 0.00092 0.32274 0.0
C333 C 0.7469 0.99813 0.29663 0.0
C334 C 0.75262 0.01558 0.29063 0.0
C335 C 0.74628 0.02546 0.30087 0.0
C336 C 0.73487 0.9912 0.31275 0.0
H337 H 0.72968 0.02553 0.32509 0.0
C338 C 0.70471 0.01555 0.3596 0.0
O339 O 0.65315 0.98713 0.34014 0.0
O340 O 0.67166 0.99795 0.31413 0.0
N341 N 0.71609 0.96821 0.33407 0.0
C342 C 0.70896 0.95145 0.34145 0.0
C343 C 0.71406 0.93988 0.33301 0.0
C344 C 0.72667 0.94576 0.31738 0.0
C345 C 0.73378 0.96304 0.30998 0.0
C346 C 0.72819 0.97396 0.31897 0.0
H347 H 0.69956 0.94699 0.35379 0.0
O348 O 0.66568 0.96351 0.32099 0.0
O349 O 0.69364 0.98207 0.32726 0.0
O350 O 0.67289 0.97119 0.36406 0.0
O351 O 0.6993 0.97315 0.36779 0.0
C352 C 0.74631 0.96991 0.29416 0.0
C353 C 0.75268 0.98737 0.2873 0.0
H354 H 0.76187 0.02152 0.27818 0.0
H355 H 0.7506 0.03892 0.29631 0.0
H356 H 0.70849 0.92655 0.33876 0.0
H357 H 0.73085 0.93691 0.31124 0.0
H358 H 0.75106 0.96186 0.28705 0.0
H359 H 0.7621 0.9924 0.27491 0.0
Mn360 Mn 0.01226 0.68532 0.34872 0.0
Mn361 Mn 0.0481 0.68069 0.34546 0.0
C362 C 0.03656 0.70261 0.36915 0.0
C363 C 0.98464 0.67583 0.36275 0.0
C364 C 0.03848 0.70043 0.31375 0.0
O365 O 0.00358 0.66241 0.33269 0.0
O366 O 0.02726 0.65878 0.33566 0.0
C367 C 0.03891 0.65307 0.37716 0.0
N368 N 0.0503 0.6693 0.36959 0.0
C369 C 0.07137 0.67413 0.39637 0.0
C370 C 0.05993 0.65742 0.40439 0.0
C371 C 0.04357 0.64689 0.39482 0.0
C372 C 0.06587 0.67969 0.37896 0.0
H373 H 0.02637 0.64494 0.36977 0.0
C374 C 0.01136 0.65346 0.33024 0.0
O375 O 0.98906 0.68416 0.34527 0.0
O376 O 0.99613 0.67277 0.37178 0.0
N377 N 0.06939 0.70074 0.35448 0.0
C378 C 0.07865 0.71674 0.34519 0.0
C379 C 0.09534 0.72885 0.35283 0.0
C380 C 0.10247 0.72426 0.36965 0.0
C381 C 0.09268 0.70774 0.37899 0.0
C382 C 0.0761 0.69625 0.37077 0.0
H383 H 0.07343 0.7202 0.33194 0.0
O384 O 0.02459 0.70702 0.36608 0.0
O385 O 0.03359 0.68783 0.36086 0.0
O386 O 0.02529 0.69935 0.32321 0.0
O387 O 0.04718 0.69309 0.32021 0.0
C388 C 0.0988 0.70213 0.39599 0.0
C389 C 0.08804 0.68546 0.4049 0.0
H390 H 0.06355 0.65255 0.41791 0.0
H391 H 0.03464 0.63401 0.40096 0.0
H392 H 0.1028 0.7416 0.34557 0.0
H393 H 0.11548 0.73353 0.37525 0.0
H394 H 0.11174 0.71056 0.40239 0.0
H395 H 0.09277 0.68145 0.41821 0.0
Mn396 Mn 0.31393 0.3287 0.33407 0.0
Mn397 Mn 0.27933 0.28765 0.33717 0.0
C398 C 0.28918 0.32095 0.3142 0.0
C399 C 0.34087 0.34859 0.32008 0.0
C400 C 0.28697 0.31605 0.36881 0.0
O401 O 0.3244 0.31529 0.34859 0.0
O402 O 0.30058 0.28839 0.3491 0.0
C403 C 0.2921 0.27063 0.30787 0.0
N404 N 0.27947 0.27442 0.31385 0.0
C405 C 0.26039 0.2572 0.28608 0.0
C406 C 0.27316 0.25305 0.27966 0.0
C407 C 0.28912 0.25988 0.29054 0.0
C408 C 0.26421 0.2682 0.30327 0.0
H409 H 0.30433 0.27575 0.31629 0.0
C410 C 0.31677 0.29897 0.35311 0.0
O411 O 0.33617 0.35129 0.33803 0.0
O412 O 0.33009 0.33418 0.31052 0.0
N413 N 0.25767 0.28456 0.32622 0.0
C414 C 0.24693 0.29018 0.33415 0.0
C415 C 0.23037 0.28445 0.32513 0.0
C416 C 0.22491 0.27276 0.30834 0.0
C417 C 0.2362 0.26717 0.30043 0.0
C418 C 0.25255 0.27335 0.31002 0.0
H419 H 0.25091 0.29885 0.34735 0.0
O420 O 0.30024 0.33737 0.31797 0.0
O421 O 0.29314 0.30948 0.3217 0.0
O422 O 0.30081 0.32806 0.36032 0.0
O423 O 0.27799 0.30049 0.36147 0.0
C424 C 0.23183 0.25561 0.28351 0.0
C425 C 0.24401 0.25082 0.27617 0.0
H426 H 0.27085 0.24465 0.26639 0.0
H427 H 0.29906 0.25677 0.28565 0.0
H428 H 0.22173 0.28884 0.33129 0.0
H429 H 0.21198 0.26809 0.30171 0.0
H430 H 0.21918 0.25041 0.27593 0.0
H431 H 0.2406 0.24216 0.26294 0.0
Mn432 Mn 0.32941 0.01879 0.67429 0.0
Mn433 Mn 0.36839 0.05619 0.67668 0.0
C434 C 0.33471 0.04247 0.65351 0.0
C435 C 0.31107 0.9908 0.66094 0.0
C436 C 0.33978 0.04724 0.70764 0.0
O437 O 0.34458 0.01054 0.68893 0.0
O438 O 0.36942 0.03655 0.69105 0.0
C439 C 0.38743 0.04356 0.6504 0.0
N440 N 0.38244 0.05574 0.65457 0.0
C441 C 0.39927 0.07388 0.62625 0.0
C442 C 0.40465 0.06157 0.62169 0.0
C443 C 0.39862 0.04629 0.63375 0.0
C444 C 0.38788 0.07029 0.64282 0.0
H445 H 0.38295 0.03186 0.65971 0.0
C446 C 0.36045 0.02002 0.69473 0.0
O447 O 0.30814 0.99549 0.67879 0.0
O448 O 0.32485 0.00223 0.65113 0.0
N449 N 0.36999 0.07652 0.66335 0.0
C450 C 0.36317 0.08683 0.66939 0.0
C451 C 0.36828 0.10288 0.65933 0.0
C452 C 0.38049 0.10825 0.64331 0.0
C453 C 0.38703 0.09725 0.637 0.0
C454 C 0.38156 0.08148 0.64773 0.0
H455 H 0.35399 0.08286 0.68186 0.0
O456 O 0.31881 0.03057 0.65787 0.0
O457 O 0.34717 0.04012 0.66122 0.0
O458 O 0.32931 0.03197 0.70042 0.0
O459 O 0.35453 0.05784 0.69958 0.0
C460 C 0.39888 0.10139 0.62062 0.0
C461 C 0.40481 0.0896 0.61507 0.0
H462 H 0.4134 0.06371 0.60897 0.0
H463 H 0.40269 0.03671 0.63031 0.0
H464 H 0.36301 0.11121 0.6641 0.0
H465 H 0.38473 0.12085 0.63592 0.0
H466 H 0.4034 0.11353 0.61207 0.0
H467 H 0.41371 0.0928 0.60227 0.0
Mn468 Mn 0.98731 0.31433 0.68431 0.0
Mn469 Mn 0.99038 0.27738 0.67987 0.0
C470 C 0.96966 0.28998 0.70429 0.0
C471 C 0.99684 0.34223 0.69814 0.0
C472 C 0.97106 0.28794 0.64893 0.0
O473 O 0.01024 0.32285 0.66899 0.0
O474 O 0.01185 0.29792 0.66918 0.0
C475 C 0.01927 0.28632 0.70981 0.0
N476 N 0.00271 0.27507 0.70302 0.0
C477 C 0.99911 0.25348 0.72854 0.0
C478 C 0.01616 0.26481 0.73581 0.0
C479 C 0.02624 0.28135 0.72648 0.0
C480 C 0.99279 0.25928 0.71211 0.0
H481 H 0.02711 0.29894 0.7025 0.0
C482 C 0.01815 0.31427 0.66496 0.0
O483 O 0.98857 0.33752 0.68059 0.0
O484 O 0.99985 0.3308 0.70756 0.0
N485 N 0.97071 0.25622 0.68947 0.0
C486 C 0.95431 0.24717 0.68107 0.0
C487 C 0.9426 0.23027 0.68846 0.0
C488 C 0.94796 0.22278 0.70415 0.0
C489 C 0.9648 0.23245 0.71278 0.0
C490 C 0.97592 0.24918 0.70472 0.0
H491 H 0.95029 0.25268 0.66862 0.0
O492 O 0.96565 0.30228 0.70108 0.0
O493 O 0.98429 0.29252 0.69625 0.0
O494 O 0.97339 0.30173 0.65836 0.0
O495 O 0.97722 0.27822 0.65544 0.0
C496 C 0.97105 0.22611 0.72893 0.0
C497 C 0.98813 0.23669 0.73695 0.0
H498 H 0.02162 0.26097 0.74856 0.0
H499 H 0.03939 0.29018 0.73202 0.0
H500 H 0.92958 0.22292 0.68182 0.0
H501 H 0.93902 0.20958 0.70944 0.0
H502 H 0.96278 0.21318 0.73544 0.0
H503 H 0.99269 0.23178 0.74958 0.0
Mn504 Mn 0.68193 0.667 0.68016 0.0
Mn505 Mn 0.71832 0.70608 0.67175 0.0
C506 C 0.70686 0.67508 0.70011 0.0
C507 C 0.6547 0.65006 0.69563 0.0
C508 C 0.70752 0.67392 0.64487 0.0
O509 O 0.67264 0.68023 0.66283 0.0
O510 O 0.69746 0.70613 0.65967 0.0
C511 C 0.70948 0.72837 0.69782 0.0
N512 N 0.72079 0.72257 0.69259 0.0
C513 C 0.74266 0.7427 0.71636 0.0
C514 C 0.73128 0.74894 0.72199 0.0
C515 C 0.71457 0.74166 0.71277 0.0
C516 C 0.73674 0.72924 0.70164 0.0
H517 H 0.69672 0.72295 0.69056 0.0
C518 C 0.68103 0.69611 0.6565 0.0
O519 O 0.65874 0.64514 0.67864 0.0
O520 O 0.66639 0.665 0.70346 0.0
N521 N 0.73976 0.70844 0.68239 0.0
C522 C 0.74888 0.7005 0.67574 0.0
C523 C 0.76596 0.70642 0.68317 0.0
C524 C 0.77357 0.72056 0.69712 0.0
C525 C 0.76382 0.72831 0.70404 0.0
C526 C 0.7469 0.72194 0.69599 0.0
H527 H 0.74327 0.68994 0.66458 0.0
O528 O 0.69475 0.65871 0.69849 0.0
O529 O 0.70388 0.68646 0.69038 0.0
O530 O 0.69376 0.66353 0.65482 0.0
O531 O 0.7173 0.69008 0.64973 0.0
C532 C 0.77028 0.74223 0.71844 0.0
C533 C 0.75963 0.74928 0.72477 0.0
H534 H 0.73521 0.75928 0.7334 0.0
H535 H 0.70571 0.74638 0.71705 0.0
H536 H 0.77338 0.7003 0.67789 0.0
H537 H 0.78691 0.72536 0.70241 0.0
H538 H 0.78335 0.74749 0.7249 0.0
H539 H 0.76463 0.75978 0.73609 0.0
Mn540 Mn 0.3335 0.31212 0.67422 0.0
Mn541 Mn 0.37354 0.31574 0.67857 0.0
C542 C 0.34039 0.29432 0.65451 0.0
C543 C 0.31495 0.32127 0.65946 0.0
C544 C 0.34448 0.29611 0.70951 0.0
O545 O 0.34757 0.33542 0.68939 0.0
O546 O 0.37407 0.33722 0.68955 0.0
C547 C 0.39184 0.34479 0.64869 0.0
N548 N 0.38733 0.32828 0.65535 0.0
C549 C 0.40442 0.32486 0.62883 0.0
C550 C 0.40941 0.34191 0.62181 0.0
C551 C 0.40298 0.35186 0.6317 0.0
C552 C 0.39309 0.31844 0.64565 0.0
H553 H 0.38695 0.35248 0.65628 0.0
C554 C 0.36394 0.34348 0.6935 0.0
O555 O 0.31158 0.31349 0.67729 0.0
O556 O 0.32926 0.32406 0.6505 0.0
N557 N 0.37543 0.29618 0.66846 0.0
C558 C 0.36869 0.27969 0.67654 0.0
C559 C 0.37364 0.26795 0.66825 0.0
C560 C 0.38572 0.27341 0.65205 0.0
C561 C 0.39244 0.29043 0.64395 0.0
C562 C 0.38697 0.30151 0.65278 0.0
H563 H 0.35971 0.27556 0.6893 0.0
O564 O 0.32418 0.29004 0.65768 0.0
O565 O 0.35216 0.30919 0.66248 0.0
O566 O 0.33294 0.29864 0.70038 0.0
O567 O 0.36011 0.30225 0.70289 0.0
C568 C 0.40442 0.29689 0.62755 0.0
C569 C 0.41021 0.31399 0.6198 0.0
H570 H 0.41809 0.34744 0.60879 0.0
H571 H 0.40668 0.36498 0.6263 0.0
H572 H 0.36837 0.25481 0.67453 0.0
H573 H 0.38974 0.26442 0.64596 0.0
H574 H 0.40914 0.28874 0.62061 0.0
H575 H 0.41913 0.31866 0.60691 0.0
Mn576 Mn 0.68004 0.01902 0.67515 0.0
Mn577 Mn 0.71648 0.01565 0.66894 0.0
C578 C 0.70468 0.03609 0.69524 0.0
C579 C 0.65268 0.00927 0.69009 0.0
C580 C 0.70599 0.03627 0.63988 0.0
O581 O 0.67102 0.99622 0.65887 0.0
O582 O 0.69578 0.99459 0.65733 0.0
C583 C 0.70747 0.98546 0.6968 0.0
N584 N 0.71876 0.00231 0.69096 0.0
C585 C 0.7403 0.00473 0.71594 0.0
C586 C 0.72892 0.98738 0.72222 0.0
C587 C 0.71239 0.97775 0.71269 0.0
C588 C 0.73456 0.01179 0.70025 0.0
H589 H 0.69484 0.97797 0.68933 0.0
C590 C 0.67942 0.98838 0.65364 0.0
O591 O 0.65676 0.01774 0.6727 0.0
O592 O 0.66437 0.0062 0.69857 0.0
N593 N 0.73774 0.03489 0.67932 0.0
C594 C 0.74681 0.05169 0.67203 0.0
C595 C 0.76364 0.06309 0.67988 0.0
C596 C 0.77106 0.05702 0.69488 0.0
C597 C 0.76139 0.03975 0.70234 0.0
C598 C 0.74471 0.02899 0.6939 0.0
H599 H 0.74133 0.05628 0.66013 0.0
O600 O 0.6926 0.04044 0.69271 0.0
O601 O 0.70183 0.02154 0.68631 0.0
O602 O 0.69221 0.03356 0.64941 0.0
O603 O 0.71564 0.02985 0.64573 0.0
C604 C 0.76768 0.03275 0.71771 0.0
C605 C 0.75707 0.01531 0.72465 0.0
H606 H 0.73273 0.98135 0.73437 0.0
H607 H 0.70353 0.96436 0.71747 0.0
H608 H 0.77099 0.07643 0.67415 0.0
H609 H 0.7842 0.06575 0.70055 0.0
H610 H 0.78059 0.04072 0.72446 0.0
H611 H 0.76194 0.01018 0.73672 0.0
Mn612 Mn 0.97819 0.66658 0.6703 0.0
Mn613 Mn 0.94279 0.62654 0.67772 0.0
C614 C 0.95328 0.6578 0.65016 0.0
C615 C 0.00523 0.68485 0.65535 0.0
C616 C 0.95221 0.6579 0.70549 0.0
O617 O 0.98823 0.65386 0.68727 0.0
O618 O 0.96407 0.62729 0.68953 0.0
C619 C 0.95292 0.60565 0.65096 0.0
N620 N 0.9411 0.61072 0.65641 0.0
C621 C 0.91977 0.59053 0.63221 0.0
C622 C 0.93169 0.58504 0.62633 0.0
C623 C 0.94838 0.59272 0.63566 0.0
C624 C 0.92515 0.60366 0.64728 0.0
H625 H 0.96567 0.61137 0.65829 0.0
C626 C 0.98038 0.63779 0.69295 0.0
O627 O 0.0006 0.68912 0.67237 0.0
O628 O 0.9943 0.66974 0.64719 0.0
N629 N 0.92105 0.62349 0.66715 0.0
C630 C 0.9114 0.63078 0.67401 0.0
C631 C 0.89429 0.62446 0.6664 0.0
C632 C 0.88723 0.61057 0.65209 0.0
C633 C 0.89751 0.60347 0.645 0.0
C634 C 0.91443 0.61025 0.65319 0.0
H635 H 0.91661 0.64114 0.68542 0.0
O636 O 0.96482 0.67433 0.65217 0.0
O637 O 0.95681 0.64669 0.6596 0.0
O638 O 0.96574 0.66888 0.69565 0.0
O639 O 0.94298 0.64175 0.70027 0.0
C640 C 0.89159 0.58984 0.63026 0.0
C641 C 0.90279 0.58351 0.6237 0.0
H642 H 0.92819 0.57497 0.61465 0.0
H643 H 0.95766 0.58857 0.63119 0.0
H644 H 0.88647 0.63008 0.67183 0.0
H645 H 0.87388 0.60547 0.64664 0.0
H646 H 0.87852 0.58426 0.62371 0.0
H647 H 0.8982 0.57324 0.61212 0.0
C648 C 0.21371 0.33192 0.11678 0.0
C649 C 0.21027 0.32084 0.09961 0.0
C650 C 0.20018 0.32993 0.12961 0.0
C651 C 0.18288 0.31645 0.12606 0.0
C652 C 0.19288 0.30756 0.09579 0.0
C653 C 0.17932 0.30543 0.10886 0.0
C654 C 0.16845 0.31466 0.13949 0.0
C655 C 0.20097 0.30259 0.18489 0.0
C656 C 0.21008 0.31618 0.19924 0.0
C657 C 0.18855 0.30309 0.17164 0.0
C658 C 0.18491 0.31703 0.17288 0.0
C659 C 0.20696 0.33048 0.19985 0.0
C660 C 0.19428 0.33078 0.18694 0.0
C661 C 0.17018 0.31648 0.16113 0.0
C662 C 0.10043 0.30704 0.18944 0.0
C663 C 0.10709 0.31992 0.20503 0.0
C664 C 0.1118 0.30551 0.17561 0.0
C665 C 0.12998 0.31719 0.17681 0.0
C666 C 0.12522 0.33146 0.20625 0.0
C667 C 0.13651 0.33012 0.19231 0.0
C668 C 0.14263 0.31564 0.1631 0.0
C669 C 0.10733 0.32513 0.12081 0.0
C670 C 0.09739 0.31108 0.10722 0.0
C671 C 0.12128 0.32577 0.13202 0.0
C672 C 0.1255 0.31228 0.13003 0.0
C673 C 0.10175 0.29765 0.10513 0.0
C674 C 0.11576 0.29831 0.11637 0.0
C675 C 0.14051 0.31311 0.1415 0.0
H676 H 0.22692 0.34217 0.12042 0.0
H677 H 0.20331 0.33919 0.14215 0.0
H678 H 0.18967 0.29897 0.08253 0.0
H679 H 0.16605 0.29516 0.10553 0.0
H680 H 0.20315 0.29141 0.18432 0.0
H681 H 0.18126 0.29225 0.16107 0.0
H682 H 0.21372 0.34098 0.21099 0.0
H683 H 0.19154 0.34157 0.18818 0.0
H684 H 0.08649 0.29788 0.18832 0.0
H685 H 0.10641 0.29503 0.16429 0.0
H686 H 0.13069 0.34162 0.21799 0.0
H687 H 0.15045 0.33924 0.19368 0.0
H688 H 0.10464 0.33594 0.12236 0.0
H689 H 0.12895 0.33694 0.14203 0.0
H690 H 0.09435 0.28665 0.0948 0.0
H691 H 0.11893 0.28786 0.1145 0.0
N692 N 0.15352 0.31277 0.13052 0.0
N693 N 0.15736 0.3171 0.17199 0.0
C694 C 0.68086 0.8942 0.1215 0.0
C695 C 0.69445 0.90331 0.10736 0.0
C696 C 0.67948 0.87969 0.13215 0.0
C697 C 0.69183 0.8741 0.12921 0.0
C698 C 0.70671 0.89759 0.10418 0.0
C699 C 0.70538 0.88307 0.11501 0.0
C700 C 0.68994 0.85833 0.14009 0.0
C701 C 0.70246 0.89784 0.19181 0.0
C702 C 0.68787 0.89369 0.20419 0.0
C703 C 0.70184 0.88572 0.17731 0.0
C704 C 0.6867 0.86919 0.17525 0.0
C705 C 0.67259 0.87736 0.20169 0.0
C706 C 0.6721 0.86511 0.18752 0.0
C707 C 0.68643 0.85566 0.16142 0.0
C708 C 0.69385 0.79395 0.18287 0.0
C709 C 0.67983 0.78529 0.19655 0.0
C710 C 0.69448 0.80685 0.16953 0.0
C711 C 0.68118 0.81138 0.16985 0.0
C712 C 0.66604 0.78913 0.19604 0.0
C713 C 0.66682 0.80224 0.18293 0.0
C714 C 0.68341 0.82712 0.15875 0.0
C715 C 0.66724 0.78585 0.1104 0.0
C716 C 0.6819 0.78663 0.10068 0.0
C717 C 0.66891 0.79996 0.12214 0.0
C718 C 0.68519 0.81531 0.12413 0.0
C719 C 0.69817 0.80225 0.10241 0.0
C720 C 0.69975 0.81654 0.11389 0.0
C721 C 0.68687 0.8297 0.13749 0.0
H722 H 0.67087 0.89791 0.1238 0.0
H723 H 0.66846 0.87258 0.14232 0.0
H724 H 0.71724 0.9043 0.09328 0.0
H725 H 0.71491 0.87882 0.11231 0.0
H726 H 0.7144 0.91036 0.19357 0.0
H727 H 0.71332 0.88901 0.16815 0.0
H728 H 0.66126 0.87384 0.21124 0.0
H729 H 0.66035 0.85237 0.18621 0.0
H730 H 0.70465 0.79123 0.1831 0.0
H731 H 0.70585 0.81398 0.15984 0.0
H732 H 0.65521 0.78275 0.20664 0.0
H733 H 0.65652 0.80568 0.18351 0.0
H734 H 0.65439 0.77431 0.10897 0.0
H735 H 0.65748 0.79889 0.12976 0.0
H736 H 0.70979 0.8033 0.09534 0.0
H737 H 0.71243 0.82832 0.11532 0.0
N738 N 0.69003 0.84522 0.12884 0.0
N739 N 0.68327 0.84016 0.16992 0.0
C740 C 0.11292 0.78661 0.12673 0.0
C741 C 0.10671 0.79063 0.10856 0.0
C742 C 0.12547 0.79995 0.13915 0.0
C743 C 0.13146 0.81774 0.13443 0.0
C744 C 0.11297 0.80848 0.10363 0.0
C745 C 0.12515 0.82186 0.11647 0.0
C746 C 0.14542 0.83202 0.14703 0.0
C747 C 0.10181 0.79974 0.19207 0.0
C748 C 0.10693 0.79256 0.2084 0.0
C749 C 0.11441 0.81249 0.1791 0.0
C750 C 0.13229 0.81792 0.18197 0.0
C751 C 0.12481 0.79816 0.21131 0.0
C752 C 0.13731 0.81068 0.19829 0.0
C753 C 0.14615 0.83154 0.16884 0.0
C754 C 0.21263 0.89786 0.19237 0.0
C755 C 0.2177 0.89034 0.20836 0.0
C756 C 0.19891 0.8871 0.17892 0.0
C757 C 0.19032 0.86867 0.18108 0.0
C758 C 0.20931 0.87194 0.2102 0.0
C759 C 0.19578 0.86125 0.19673 0.0
C760 C 0.17472 0.85685 0.16853 0.0
C761 C 0.21869 0.88202 0.12296 0.0
C762 C 0.2177 0.89526 0.11147 0.0
C763 C 0.20441 0.86987 0.13445 0.0
C764 C 0.18874 0.87049 0.1345 0.0
C765 C 0.20183 0.89568 0.11146 0.0
C766 C 0.18743 0.88328 0.12268 0.0
C767 C 0.17377 0.85777 0.14689 0.0
H768 H 0.1083 0.7731 0.13135 0.0
H769 H 0.13068 0.79625 0.15225 0.0
H770 H 0.10888 0.8122 0.08957 0.0
H771 H 0.12985 0.83547 0.1122 0.0
H772 H 0.08811 0.79575 0.18961 0.0
H773 H 0.11021 0.81817 0.16695 0.0
H774 H 0.12914 0.7927 0.22359 0.0
H775 H 0.15099 0.81463 0.2009 0.0
H776 H 0.21883 0.91203 0.19077 0.0
H777 H 0.19464 0.89321 0.16738 0.0
H778 H 0.21312 0.86581 0.22223 0.0
H779 H 0.18938 0.84709 0.19873 0.0
H780 H 0.23046 0.88091 0.12299 0.0
H781 H 0.20557 0.8599 0.14326 0.0
H782 H 0.20057 0.90577 0.1031 0.0
H783 H 0.1754 0.88394 0.12253 0.0
N784 N 0.15918 0.84532 0.13695 0.0
N785 N 0.16085 0.84388 0.17856 0.0
C786 C 0.31351 0.10343 0.84433 0.0
C787 C 0.305 0.09827 0.825 0.0
C788 C 0.31097 0.11484 0.85711 0.0
C789 C 0.29917 0.12068 0.8514 0.0
C790 C 0.29333 0.10433 0.81929 0.0
C791 C 0.29037 0.11524 0.83237 0.0
C792 C 0.29735 0.13403 0.8637 0.0
C793 C 0.28664 0.08918 0.90596 0.0
C794 C 0.29871 0.09409 0.92243 0.0
C795 C 0.28524 0.10202 0.89437 0.0
C796 C 0.29622 0.12 0.89873 0.0
C797 C 0.30892 0.11203 0.92745 0.0
C798 C 0.30765 0.12483 0.91576 0.0
C799 C 0.29642 0.134 0.88549 0.0
C800 C 0.28905 0.19884 0.9013 0.0
C801 C 0.30054 0.20572 0.91828 0.0
C802 C 0.28748 0.18425 0.89056 0.0
C803 C 0.29768 0.17652 0.89633 0.0
C804 C 0.31009 0.19744 0.92459 0.0
C805 C 0.30865 0.18298 0.91375 0.0
C806 C 0.29721 0.16183 0.88438 0.0
C807 C 0.31841 0.20757 0.8395 0.0
C808 C 0.30805 0.20454 0.82166 0.0
C809 C 0.3149 0.19383 0.85322 0.0
C810 C 0.30083 0.17684 0.8495 0.0
C811 C 0.29379 0.18756 0.81819 0.0
C812 C 0.29031 0.17384 0.83189 0.0
C813 C 0.29808 0.16179 0.86264 0.0
H814 H 0.32243 0.09896 0.84953 0.0
H815 H 0.31862 0.11942 0.87119 0.0
H816 H 0.28688 0.10122 0.80436 0.0
H817 H 0.28149 0.11984 0.82733 0.0
H818 H 0.27844 0.07543 0.90192 0.0
H819 H 0.27593 0.09792 0.88168 0.0
H820 H 0.31845 0.11627 0.93992 0.0
H821 H 0.31615 0.13859 0.91956 0.0
H822 H 0.28132 0.2048 0.89629 0.0
H823 H 0.27845 0.17914 0.87762 0.0
H824 H 0.31918 0.20253 0.9375 0.0
H825 H 0.31654 0.17718 0.91862 0.0
H826 H 0.32967 0.2204 0.84246 0.0
H827 H 0.32354 0.19637 0.86637 0.0
H828 H 0.28542 0.18482 0.80474 0.0
H829 H 0.27949 0.1608 0.82862 0.0
N830 N 0.29798 0.14786 0.85324 0.0
N831 N 0.29652 0.14798 0.89491 0.0
C832 C 0.89424 0.20442 0.8989 0.0
C833 C 0.88915 0.21451 0.91088 0.0
C834 C 0.88186 0.19025 0.88721 0.0
C835 C 0.86417 0.18596 0.88719 0.0
C836 C 0.87139 0.21001 0.9111 0.0
C837 C 0.85899 0.19578 0.89946 0.0
C838 C 0.85097 0.17094 0.87491 0.0
C839 C 0.88257 0.21051 0.82514 0.0
C840 C 0.89377 0.20593 0.81464 0.0
C841 C 0.86992 0.19862 0.83866 0.0
C842 C 0.86805 0.18186 0.84173 0.0
C843 C 0.89228 0.18934 0.81857 0.0
C844 C 0.87935 0.17733 0.83171 0.0
C845 C 0.85336 0.16855 0.85393 0.0
C846 C 0.78395 0.11523 0.8232 0.0
C847 C 0.78807 0.10433 0.81124 0.0
C848 C 0.79593 0.12684 0.83771 0.0
C849 C 0.81233 0.12792 0.84039 0.0
C850 C 0.80424 0.10491 0.81479 0.0
C851 C 0.81634 0.11679 0.82897 0.0
C852 C 0.82597 0.14195 0.85332 0.0
C853 C 0.78939 0.10104 0.89743 0.0
C854 C 0.78011 0.1066 0.91009 0.0
C855 C 0.80338 0.11322 0.8856 0.0
C856 C 0.80833 0.13117 0.88618 0.0
C857 C 0.78513 0.12458 0.91071 0.0
C858 C 0.79921 0.13678 0.89898 0.0
C859 C 0.82357 0.14423 0.87434 0.0
H860 H 0.90784 0.20761 0.89835 0.0
H861 H 0.88611 0.18257 0.87831 0.0
H862 H 0.86705 0.21741 0.9204 0.0
H863 H 0.84538 0.19256 0.89986 0.0
H864 H 0.88306 0.22298 0.82234 0.0
H865 H 0.86112 0.20224 0.84608 0.0
H866 H 0.90091 0.18547 0.81124 0.0
H867 H 0.87809 0.16444 0.83395 0.0
H868 H 0.77181 0.11542 0.82075 0.0
H869 H 0.79272 0.13556 0.84615 0.0
H870 H 0.80774 0.09643 0.80631 0.0
H871 H 0.82895 0.11746 0.83084 0.0
H872 H 0.78576 0.08726 0.89657 0.0
H873 H 0.81051 0.10862 0.87627 0.0
H874 H 0.77833 0.12925 0.92052 0.0
H875 H 0.80294 0.15059 0.89984 0.0
N876 N 0.83612 0.15871 0.88434 0.0
N877 N 0.8408 0.15415 0.84393 0.0
C878 C 0.79553 0.70263 0.89822 0.0
C879 C 0.78861 0.68953 0.91346 0.0
C880 C 0.80994 0.7051 0.88663 0.0
C881 C 0.8174 0.6942 0.88974 0.0
C882 C 0.79637 0.67897 0.91694 0.0
C883 C 0.81061 0.68129 0.90521 0.0
C884 C 0.8326 0.6964 0.87762 0.0
C885 C 0.79087 0.68145 0.82741 0.0
C886 C 0.79417 0.69561 0.81424 0.0
C887 C 0.80352 0.68288 0.84177 0.0
C888 C 0.81974 0.69842 0.8431 0.0
C889 C 0.8102 0.71143 0.81638 0.0
C890 C 0.82294 0.71271 0.83043 0.0
C891 C 0.83398 0.69915 0.85609 0.0
C892 C 0.88985 0.68302 0.8324 0.0
C893 C 0.89802 0.69534 0.81653 0.0
C894 C 0.87833 0.68461 0.84579 0.0
C895 C 0.87496 0.69873 0.84383 0.0
C896 C 0.89483 0.7096 0.81475 0.0
C897 C 0.88334 0.71122 0.82823 0.0
C898 C 0.86132 0.69941 0.85644 0.0
C899 C 0.90383 0.70526 0.89977 0.0
C900 C 0.89864 0.69065 0.91283 0.0
C901 C 0.89133 0.70752 0.88868 0.0
C902 C 0.87342 0.6952 0.89045 0.0
C903 C 0.88068 0.67865 0.91504 0.0
C904 C 0.86819 0.68098 0.90407 0.0
C905 C 0.86006 0.69682 0.87801 0.0
H906 H 0.78992 0.7111 0.89545 0.0
H907 H 0.81533 0.71565 0.87543 0.0
H908 H 0.7912 0.66867 0.92847 0.0
H909 H 0.81618 0.6728 0.90805 0.0
H910 H 0.77884 0.66898 0.82607 0.0
H911 H 0.80092 0.6716 0.85122 0.0
H912 H 0.81308 0.72278 0.80692 0.0
H913 H 0.83541 0.7248 0.83125 0.0
H914 H 0.89172 0.67168 0.8339 0.0
H915 H 0.87154 0.67441 0.85717 0.0
H916 H 0.901 0.71934 0.80274 0.0
H917 H 0.88078 0.72209 0.82626 0.0
H918 H 0.91759 0.7147 0.89775 0.0
H919 H 0.89565 0.71879 0.87856 0.0
H920 H 0.8763 0.66741 0.92523 0.0
H921 H 0.85444 0.6714 0.9058 0.0
N922 N 0.84571 0.6953 0.88772 0.0
N923 N 0.84829 0.70061 0.84637 0.0
C924 C 0.75586 0.62539 0.45202 0.0
C925 C 0.76017 0.64083 0.44097 0.0
C926 C 0.76893 0.62362 0.46247 0.0
C927 C 0.78647 0.63718 0.46171 0.0
C928 C 0.77775 0.65419 0.43988 0.0
C929 C 0.79083 0.65228 0.44998 0.0
C930 C 0.80029 0.63598 0.47355 0.0
C931 C 0.76966 0.64762 0.51988 0.0
C932 C 0.76174 0.63507 0.53557 0.0
C933 C 0.78146 0.64662 0.5064 0.0
C934 C 0.78536 0.63284 0.50801 0.0
C935 C 0.7656 0.62123 0.53717 0.0
C936 C 0.77734 0.62017 0.52355 0.0
C937 C 0.79913 0.63273 0.49499 0.0
C938 C 0.86988 0.65132 0.52299 0.0
C939 C 0.86691 0.63671 0.53513 0.0
C940 C 0.85718 0.65012 0.50889 0.0
C941 C 0.84125 0.63436 0.50681 0.0
C942 C 0.85123 0.62068 0.53214 0.0
C943 C 0.83842 0.61961 0.51834 0.0
C944 C 0.82684 0.63383 0.49441 0.0
C945 C 0.86512 0.6326 0.44987 0.0
C946 C 0.87332 0.64766 0.43733 0.0
C947 C 0.85048 0.62926 0.46155 0.0
C948 C 0.84376 0.64094 0.46091 0.0
C949 C 0.86643 0.65919 0.43653 0.0
C950 C 0.85171 0.65578 0.44808 0.0
C951 C 0.82825 0.63761 0.47312 0.0
H952 H 0.74236 0.61493 0.45296 0.0
H953 H 0.76537 0.61177 0.47128 0.0
H954 H 0.78134 0.66613 0.43124 0.0
H955 H 0.80429 0.66285 0.44917 0.0
H956 H 0.76734 0.65869 0.51856 0.0
H957 H 0.78802 0.65705 0.49522 0.0
H958 H 0.75969 0.61136 0.54911 0.0
H959 H 0.78034 0.60957 0.5253 0.0
H960 H 0.88163 0.66394 0.52503 0.0
H961 H 0.85945 0.66174 0.50031 0.0
H962 H 0.84865 0.60903 0.54082 0.0
H963 H 0.82617 0.60734 0.51692 0.0
H964 H 0.87018 0.62351 0.45085 0.0
H965 H 0.84434 0.6175 0.47097 0.0
H966 H 0.87234 0.67079 0.42682 0.0
H967 H 0.84666 0.66488 0.4472 0.0
N968 N 0.81488 0.63853 0.46347 0.0
N969 N 0.81238 0.63158 0.50455 0.0
C970 C 0.34349 0.22469 0.45341 0.0
C971 C 0.35795 0.2338 0.44039 0.0
C972 C 0.34122 0.20996 0.46434 0.0
C973 C 0.35348 0.2041 0.46275 0.0
C974 C 0.37019 0.22789 0.43866 0.0
C975 C 0.36794 0.21311 0.44973 0.0
C976 C 0.35056 0.18798 0.47366 0.0
C977 C 0.36091 0.22633 0.52605 0.0
C978 C 0.34598 0.22201 0.53789 0.0
C979 C 0.36058 0.21456 0.51126 0.0
C980 C 0.34539 0.19822 0.50829 0.0
C981 C 0.33063 0.20591 0.53441 0.0
C982 C 0.33041 0.19401 0.5199 0.0
C983 C 0.34554 0.18483 0.49457 0.0
C984 C 0.35237 0.1236 0.51844 0.0
C985 C 0.33769 0.11468 0.53113 0.0
C986 C 0.35338 0.13633 0.50458 0.0
C987 C 0.33978 0.14042 0.50338 0.0
C988 C 0.32362 0.11798 0.52904 0.0
C989 C 0.32475 0.13094 0.51539 0.0
C990 C 0.34244 0.15625 0.49213 0.0
C991 C 0.33077 0.11586 0.44401 0.0
C992 C 0.34628 0.11724 0.43602 0.0
C993 C 0.33119 0.1297 0.45515 0.0
C994 C 0.34703 0.14534 0.45823 0.0
C995 C 0.36211 0.13318 0.43872 0.0
C996 C 0.36243 0.14719 0.44957 0.0
C997 C 0.34743 0.15932 0.4713 0.0
H998 H 0.33351 0.22854 0.45457 0.0
H999 H 0.32957 0.20285 0.47359 0.0
H1000 H 0.38141 0.2346 0.42866 0.0
H1001 H 0.37744 0.20868 0.44809 0.0
H1002 H 0.3729 0.23868 0.52853 0.0
H1003 H 0.37236 0.21793 0.50268 0.0
H1004 H 0.31903 0.20224 0.54351 0.0
H1005 H 0.31861 0.1814 0.51792 0.0
H1006 H 0.36342 0.12132 0.52001 0.0
H1007 H 0.36526 0.14375 0.4958 0.0
H1008 H 0.31229 0.11139 0.53891 0.0
H1009 H 0.31422 0.13406 0.51482 0.0
H1010 H 0.31826 0.10404 0.44176 0.0
H1011 H 0.31913 0.12815 0.46153 0.0
H1012 H 0.37432 0.13469 0.43297 0.0
H1013 H 0.37479 0.1592 0.45187 0.0
N1014 N 0.35134 0.17508 0.46273 0.0
N1015 N 0.34165 0.16908 0.50298 0.0
C1016 C 0.77979 0.12466 0.45565 0.0
C1017 C 0.77033 0.12753 0.43993 0.0
C1018 C 0.79258 0.13873 0.46699 0.0
C1019 C 0.79606 0.15599 0.46313 0.0
C1020 C 0.77411 0.14488 0.43569 0.0
C1021 C 0.78692 0.15902 0.44718 0.0
C1022 C 0.80979 0.17082 0.47519 0.0
C1023 C 0.76657 0.13776 0.51993 0.0
C1024 C 0.77189 0.1309 0.53642 0.0
C1025 C 0.77905 0.15064 0.50697 0.0
C1026 C 0.79702 0.15658 0.51005 0.0
C1027 C 0.78985 0.13697 0.53948 0.0
C1028 C 0.80224 0.14966 0.5265 0.0
C1029 C 0.8107 0.17045 0.49695 0.0
C1030 C 0.87676 0.23739 0.51993 0.0
C1031 C 0.88212 0.23001 0.53581 0.0
C1032 C 0.86303 0.22648 0.50655 0.0
C1033 C 0.85469 0.20806 0.50868 0.0
C1034 C 0.87403 0.21162 0.53753 0.0
C1035 C 0.86047 0.20079 0.52416 0.0
C1036 C 0.83902 0.19607 0.49633 0.0
C1037 C 0.88255 0.22066 0.45013 0.0
C1038 C 0.8817 0.23411 0.43894 0.0
C1039 C 0.8683 0.20859 0.46172 0.0
C1040 C 0.85278 0.20949 0.46214 0.0
C1041 C 0.86596 0.23481 0.43931 0.0
C1042 C 0.85158 0.22248 0.45061 0.0
C1043 C 0.83788 0.19683 0.47467 0.0
H1044 H 0.77758 0.11153 0.45888 0.0
H1045 H 0.79992 0.1361 0.47867 0.0
H1046 H 0.76709 0.14749 0.4236 0.0
H1047 H 0.7896 0.17227 0.44375 0.0
H1048 H 0.75282 0.13343 0.51733 0.0
H1049 H 0.77466 0.15608 0.49475 0.0
H1050 H 0.79434 0.13174 0.55185 0.0
H1051 H 0.81599 0.15399 0.52925 0.0
H1052 H 0.88272 0.25155 0.51839 0.0
H1053 H 0.85854 0.23247 0.49511 0.0
H1054 H 0.87808 0.20558 0.54943 0.0
H1055 H 0.8543 0.18664 0.52612 0.0
H1056 H 0.89418 0.21932 0.44986 0.0
H1057 H 0.86936 0.19847 0.47031 0.0
H1058 H 0.86482 0.24506 0.43118 0.0
H1059 H 0.83967 0.22335 0.45077 0.0
N1060 N 0.82332 0.18414 0.46486 0.0
N1061 N 0.82534 0.183 0.50654 0.0
C1062 C 0.97439 0.54401 0.15695 0.0
C1063 C 0.98747 0.54982 0.14183 0.0
C1064 C 0.97169 0.53019 0.17025 0.0
C1065 C 0.98231 0.52231 0.16888 0.0
C1066 C 0.99808 0.54197 0.14063 0.0
C1067 C 0.99552 0.52839 0.15397 0.0
C1068 C 0.97943 0.50707 0.18178 0.0
C1069 C 0.99341 0.55196 0.22512 0.0
C1070 C 0.98207 0.5486 0.24186 0.0
C1071 C 0.99205 0.53823 0.21285 0.0
C1072 C 0.97872 0.52082 0.21623 0.0
C1073 C 0.96907 0.53105 0.24563 0.0
C1074 C 0.96739 0.51736 0.23291 0.0
C1075 C 0.97731 0.50607 0.20345 0.0
C1076 C 0.99014 0.44678 0.22557 0.0
C1077 C 0.97672 0.43695 0.23967 0.0
C1078 C 0.98984 0.46008 0.21385 0.0
C1079 C 0.97602 0.46373 0.21576 0.0
C1080 C 0.96305 0.44088 0.2419 0.0
C1081 C 0.96275 0.45422 0.23009 0.0
C1082 C 0.97582 0.47789 0.20332 0.0
C1083 C 0.96941 0.43565 0.1577 0.0
C1084 C 0.98212 0.44179 0.14215 0.0
C1085 C 0.96801 0.44759 0.17088 0.0
C1086 C 0.97959 0.46579 0.16897 0.0
C1087 C 0.99369 0.45994 0.14038 0.0
C1088 C 0.99244 0.47178 0.15363 0.0
C1089 C 0.97804 0.47902 0.18173 0.0
H1090 H 0.96597 0.54979 0.15806 0.0
H1091 H 0.96116 0.52549 0.18131 0.0
H1092 H 0.00839 0.54634 0.12929 0.0
H1093 H 0.00389 0.52255 0.15257 0.0
H1094 H 0.00345 0.56522 0.22141 0.0
H1095 H 0.0016 0.54131 0.20083 0.0
H1096 H 0.96036 0.52777 0.25863 0.0
H1097 H 0.95726 0.504 0.23619 0.0
H1098 H 0.00113 0.44448 0.2239 0.0
H1099 H 0.00055 0.46763 0.2034 0.0
H1100 H 0.95254 0.43357 0.25265 0.0
H1101 H 0.95208 0.45698 0.23198 0.0
H1102 H 0.96027 0.4217 0.15924 0.0
H1103 H 0.95768 0.44263 0.18221 0.0
H1104 H 0.00374 0.46499 0.12869 0.0
H1105 H 0.00153 0.48572 0.1518 0.0
N1106 N 0.97973 0.49352 0.17197 0.0
N1107 N 0.9754 0.4914 0.21332 0.0
C1108 C 0.45702 0.44254 0.15952 0.0
C1109 C 0.4474 0.44677 0.14541 0.0
C1110 C 0.46846 0.45513 0.17363 0.0
C1111 C 0.47063 0.47219 0.17356 0.0
C1112 C 0.44916 0.46365 0.14582 0.0
C1113 C 0.46088 0.47635 0.15961 0.0
C1114 C 0.48413 0.48612 0.18671 0.0
C1115 C 0.43978 0.45155 0.22798 0.0
C1116 C 0.44402 0.44396 0.2447 0.0
C1117 C 0.45293 0.46478 0.2162 0.0
C1118 C 0.47066 0.47041 0.22044 0.0
C1119 C 0.46179 0.44985 0.24917 0.0
C1120 C 0.47496 0.46294 0.23717 0.0
C1121 C 0.48478 0.48479 0.20841 0.0
C1122 C 0.54095 0.55622 0.23339 0.0
C1123 C 0.55259 0.55303 0.24537 0.0
C1124 C 0.52782 0.54282 0.22155 0.0
C1125 C 0.5258 0.52586 0.22174 0.0
C1126 C 0.55044 0.53591 0.2455 0.0
C1127 C 0.53701 0.52239 0.23397 0.0
C1128 C 0.51186 0.5118 0.2092 0.0
C1129 C 0.55558 0.54023 0.16352 0.0
C1130 C 0.55216 0.55016 0.14901 0.0
C1131 C 0.54244 0.5288 0.17684 0.0
C1132 C 0.52562 0.52697 0.17564 0.0
C1133 C 0.53555 0.54886 0.14838 0.0
C1134 C 0.52229 0.53716 0.16144 0.0
C1135 C 0.51114 0.51312 0.18761 0.0
H1136 H 0.45589 0.4296 0.15936 0.0
H1137 H 0.47607 0.45176 0.18408 0.0
H1138 H 0.442 0.46722 0.1349 0.0
H1139 H 0.46251 0.4895 0.15924 0.0
H1140 H 0.42625 0.44726 0.22393 0.0
H1141 H 0.44917 0.47078 0.20399 0.0
H1142 H 0.46557 0.44456 0.26214 0.0
H1143 H 0.48854 0.46725 0.24099 0.0
H1144 H 0.5418 0.56903 0.23328 0.0
H1145 H 0.51908 0.54564 0.21241 0.0
H1146 H 0.55925 0.53296 0.25426 0.0
H1147 H 0.5356 0.50934 0.23425 0.0
H1148 H 0.5683 0.54099 0.16417 0.0
H1149 H 0.54518 0.52081 0.18743 0.0
H1150 H 0.5326 0.55627 0.13713 0.0
H1151 H 0.50934 0.53579 0.16018 0.0
N1152 N 0.4973 0.50026 0.17715 0.0
N1153 N 0.4987 0.49771 0.21885 0.0
C1154 C 0.46911 0.03543 0.23768 0.0
C1155 C 0.4625 0.02259 0.25324 0.0
C1156 C 0.48293 0.03731 0.22534 0.0
C1157 C 0.49002 0.02603 0.22796 0.0
C1158 C 0.46993 0.01169 0.25624 0.0
C1159 C 0.48353 0.01339 0.24373 0.0
C1160 C 0.50462 0.02761 0.21509 0.0
C1161 C 0.46209 0.01392 0.16573 0.0
C1162 C 0.46522 0.02876 0.15391 0.0
C1163 C 0.47487 0.01462 0.1794 0.0
C1164 C 0.49109 0.03008 0.1813 0.0
C1165 C 0.48126 0.04448 0.15673 0.0
C1166 C 0.49417 0.04501 0.16999 0.0
C1167 C 0.5054 0.03017 0.19353 0.0
C1168 C 0.55867 0.01106 0.16717 0.0
C1169 C 0.56677 0.02316 0.15107 0.0
C1170 C 0.54781 0.01327 0.18103 0.0
C1171 C 0.54501 0.02777 0.17927 0.0
C1172 C 0.56412 0.03778 0.14948 0.0
C1173 C 0.55326 0.04 0.16339 0.0
C1174 C 0.53211 0.02919 0.19252 0.0
C1175 C 0.57554 0.03474 0.23437 0.0
C1176 C 0.57042 0.02049 0.24799 0.0
C1177 C 0.56294 0.03698 0.22344 0.0
C1178 C 0.54502 0.02502 0.22596 0.0
C1179 C 0.55246 0.00877 0.2508 0.0
C1180 C 0.53989 0.0111 0.24 0.0
C1181 C 0.5315 0.02689 0.21412 0.0
H1182 H 0.46374 0.04414 0.23526 0.0
H1183 H 0.48816 0.04772 0.21397 0.0
H1184 H 0.46496 0.00158 0.26802 0.0
H1185 H 0.48883 0.00462 0.24622 0.0
H1186 H 0.45008 0.0015 0.16384 0.0
H1187 H 0.47237 0.00288 0.18785 0.0
H1188 H 0.48404 0.05634 0.1484 0.0
H1189 H 0.50663 0.05706 0.17131 0.0
H1190 H 0.56013 0.99947 0.16856 0.0
H1191 H 0.5411 0.00328 0.19265 0.0
H1192 H 0.57026 0.04738 0.13732 0.0
H1193 H 0.55113 0.05116 0.16159 0.0
H1194 H 0.58929 0.04395 0.23188 0.0
H1195 H 0.56721 0.04802 0.21298 0.0
H1196 H 0.54814 0.99782 0.26141 0.0
H1197 H 0.52613 0.0018 0.24232 0.0
N1198 N 0.51773 0.02606 0.22452 0.0
N1199 N 0.5191 0.03088 0.1831 0.0
C1200 C 0.54881 0.99917 0.78627 0.0
C1201 C 0.54541 0.98818 0.76902 0.0
C1202 C 0.53517 0.9975 0.7987 0.0
C1203 C 0.5178 0.9844 0.79469 0.0
C1204 C 0.52795 0.97531 0.76472 0.0
C1205 C 0.51429 0.97347 0.7774 0.0
C1206 C 0.50324 0.98283 0.80772 0.0
C1207 C 0.53457 0.96973 0.85377 0.0
C1208 C 0.5438 0.98333 0.86806 0.0
C1209 C 0.5223 0.97039 0.84042 0.0
C1210 C 0.51893 0.98452 0.84151 0.0
C1211 C 0.5409 0.99777 0.86858 0.0
C1212 C 0.52836 0.99824 0.85558 0.0
C1213 C 0.5045 0.98428 0.82945 0.0
C1214 C 0.43401 0.97017 0.85756 0.0
C1215 C 0.43865 0.9851 0.86979 0.0
C1216 C 0.44634 0.96965 0.84441 0.0
C1217 C 0.46352 0.98392 0.8437 0.0
C1218 C 0.45575 0.99943 0.86882 0.0
C1219 C 0.46814 0.99875 0.85609 0.0
C1220 C 0.47694 0.98335 0.83065 0.0
C1221 C 0.44248 0.99442 0.78988 0.0
C1222 C 0.4328 0.98114 0.77536 0.0
C1223 C 0.45636 0.99457 0.80067 0.0
C1224 C 0.46069 0.98127 0.79745 0.0
C1225 C 0.43739 0.96804 0.77175 0.0
C1226 C 0.45128 0.96814 0.78271 0.0
C1227 C 0.47539 0.98147 0.80901 0.0
H1228 H 0.56205 0.00912 0.79027 0.0
H1229 H 0.53829 0.00669 0.81132 0.0
H1230 H 0.52476 0.96681 0.75138 0.0
H1231 H 0.50098 0.96348 0.77371 0.0
H1232 H 0.53658 0.95843 0.85327 0.0
H1233 H 0.51496 0.95958 0.82983 0.0
H1234 H 0.54775 0.00828 0.87968 0.0
H1235 H 0.52582 0.00917 0.8567 0.0
H1236 H 0.4209 0.95895 0.85822 0.0
H1237 H 0.44259 0.95803 0.83509 0.0
H1238 H 0.4596 0.011 0.8783 0.0
H1239 H 0.48135 0.00985 0.85579 0.0
H1240 H 0.43961 0.005 0.79254 0.0
H1241 H 0.46386 0.00524 0.81136 0.0
H1242 H 0.4302 0.95771 0.76056 0.0
H1243 H 0.45457 0.95789 0.77982 0.0
N1244 N 0.48859 0.98129 0.79831 0.0
N1245 N 0.49142 0.98466 0.84004 0.0
C1246 C 0.01114 0.56051 0.78486 0.0
C1247 C 0.02478 0.57002 0.77094 0.0
C1248 C 0.00996 0.54596 0.79521 0.0
C1249 C 0.0226 0.54076 0.79222 0.0
C1250 C 0.03719 0.56455 0.76746 0.0
C1251 C 0.0361 0.55 0.77804 0.0
C1252 C 0.0213 0.52537 0.80348 0.0
C1253 C 0.03378 0.56606 0.8535 0.0
C1254 C 0.01939 0.56202 0.86619 0.0
C1255 C 0.03317 0.55359 0.83955 0.0
C1256 C 0.01825 0.53683 0.83833 0.0
C1257 C 0.00432 0.54539 0.86458 0.0
C1258 C 0.00385 0.53281 0.85094 0.0
C1259 C 0.01801 0.52309 0.82489 0.0
C1260 C 0.02679 0.46288 0.84914 0.0
C1261 C 0.01205 0.45338 0.8616 0.0
C1262 C 0.02753 0.47569 0.83558 0.0
C1263 C 0.01361 0.4793 0.8345 0.0
C1264 C 0.99775 0.45635 0.85972 0.0
C1265 C 0.99862 0.4694 0.84642 0.0
C1266 C 0.01564 0.4948 0.82305 0.0
C1267 C 0.00113 0.45302 0.77564 0.0
C1268 C 0.01639 0.45358 0.76801 0.0
C1269 C 0.00207 0.46736 0.7862 0.0
C1270 C 0.01822 0.48271 0.78904 0.0
C1271 C 0.03254 0.46922 0.77051 0.0
C1272 C 0.03341 0.48373 0.78081 0.0
C1273 C 0.01916 0.4971 0.80179 0.0
H1274 H 0.00104 0.56403 0.78735 0.0
H1275 H 0.99898 0.53863 0.80538 0.0
H1276 H 0.04774 0.57156 0.75665 0.0
H1277 H 0.04585 0.54606 0.77529 0.0
H1278 H 0.04554 0.5788 0.85455 0.0
H1279 H 0.04451 0.55685 0.83013 0.0
H1280 H 0.99315 0.54195 0.87438 0.0
H1281 H 0.99227 0.5199 0.85028 0.0
H1282 H 0.038 0.46084 0.85049 0.0
H1283 H 0.03934 0.48342 0.82679 0.0
H1284 H 0.98635 0.44929 0.86938 0.0
H1285 H 0.98784 0.47214 0.8459 0.0
H1286 H 0.9884 0.44144 0.77355 0.0
H1287 H 0.9902 0.46642 0.79238 0.0
H1288 H 0.04458 0.47011 0.76505 0.0
H1289 H 0.046 0.49548 0.78302 0.0
N1290 N 0.02181 0.51228 0.79264 0.0
N1291 N 0.0152 0.50785 0.83383 0.0
C1292 C 0.53513 0.57146 0.78336 0.0
C1293 C 0.54412 0.56581 0.77032 0.0
C1294 C 0.52049 0.55921 0.79434 0.0
C1295 C 0.51457 0.54108 0.79244 0.0
C1296 C 0.53792 0.54765 0.76811 0.0
C1297 C 0.5232 0.53541 0.77894 0.0
C1298 C 0.49949 0.52796 0.80453 0.0
C1299 C 0.54274 0.5561 0.85136 0.0
C1300 C 0.53905 0.56485 0.86705 0.0
C1301 C 0.52962 0.54501 0.83757 0.0
C1302 C 0.5126 0.5426 0.83901 0.0
C1303 C 0.52208 0.56266 0.86824 0.0
C1304 C 0.50896 0.55156 0.85442 0.0
C1305 C 0.49819 0.5293 0.82608 0.0
C1306 C 0.44173 0.45788 0.84995 0.0
C1307 C 0.43322 0.46208 0.86537 0.0
C1308 C 0.45359 0.47089 0.83676 0.0
C1309 C 0.45701 0.48836 0.83844 0.0
C1310 C 0.43655 0.47955 0.86694 0.0
C1311 C 0.44839 0.49257 0.85366 0.0
C1312 C 0.47082 0.50252 0.82584 0.0
C1313 C 0.42856 0.4668 0.78186 0.0
C1314 C 0.43361 0.45617 0.77099 0.0
C1315 C 0.44111 0.48167 0.79252 0.0
C1316 C 0.45887 0.48618 0.79215 0.0
C1317 C 0.45139 0.46089 0.7703 0.0
C1318 C 0.46395 0.47591 0.78059 0.0
C1319 C 0.47215 0.50116 0.80432 0.0
H1320 H 0.53963 0.58537 0.78539 0.0
H1321 H 0.51385 0.56389 0.80438 0.0
H1322 H 0.54444 0.54291 0.75795 0.0
H1323 H 0.51879 0.5215 0.77712 0.0
H1324 H 0.55556 0.5572 0.85029 0.0
H1325 H 0.53264 0.53777 0.82632 0.0
H1326 H 0.51887 0.56932 0.88006 0.0
H1327 H 0.49587 0.54974 0.85596 0.0
H1328 H 0.43979 0.44465 0.84864 0.0
H1329 H 0.46057 0.46738 0.82575 0.0
H1330 H 0.43015 0.4832 0.8786 0.0
H1331 H 0.45099 0.506 0.85543 0.0
H1332 H 0.41489 0.46334 0.78251 0.0
H1333 H 0.43697 0.48954 0.80123 0.0
H1334 H 0.45552 0.45287 0.76188 0.0
H1335 H 0.47758 0.4792 0.7801 0.0
N1336 N 0.48647 0.51385 0.79448 0.0
N1337 N 0.48385 0.5166 0.83585 0.0
C1338 C 0.64862 0.77657 0.50143 0.0
C1339 C 0.63824 0.76918 0.48367 0.0
C1340 C 0.64505 0.7869 0.51485 0.0
C1341 C 0.6309 0.78982 0.51091 0.0
C1342 C 0.62386 0.77183 0.48003 0.0
C1343 C 0.62031 0.78215 0.49344 0.0
C1344 C 0.62834 0.80249 0.52343 0.0
C1345 C 0.61972 0.75747 0.56419 0.0
C1346 C 0.6313 0.7624 0.58115 0.0
C1347 C 0.61805 0.77023 0.55278 0.0
C1348 C 0.62823 0.78819 0.55785 0.0
C1349 C 0.64085 0.78027 0.58672 0.0
C1350 C 0.6393 0.79301 0.57523 0.0
C1351 C 0.62771 0.80215 0.54521 0.0
C1352 C 0.61913 0.86603 0.56325 0.0
C1353 C 0.63047 0.87255 0.5804 0.0
C1354 C 0.61772 0.85171 0.55204 0.0
C1355 C 0.62793 0.84392 0.5575 0.0
C1356 C 0.64003 0.8642 0.5864 0.0
C1357 C 0.63874 0.85002 0.57509 0.0
C1358 C 0.62768 0.82957 0.54504 0.0
C1359 C 0.64961 0.87616 0.50147 0.0
C1360 C 0.6396 0.87362 0.48342 0.0
C1361 C 0.64561 0.86212 0.51489 0.0
C1362 C 0.63141 0.84531 0.51066 0.0
C1363 C 0.62516 0.85685 0.47949 0.0
C1364 C 0.62119 0.84283 0.4929 0.0
C1365 C 0.62846 0.82993 0.52328 0.0
H1366 H 0.65995 0.77502 0.5045 0.0
H1367 H 0.65374 0.79312 0.52789 0.0
H1368 H 0.6155 0.76615 0.46662 0.0
H1369 H 0.60945 0.7844 0.49 0.0
H1370 H 0.61201 0.74376 0.55972 0.0
H1371 H 0.60894 0.76606 0.53989 0.0
H1372 H 0.65001 0.78452 0.59957 0.0
H1373 H 0.6472 0.80673 0.57957 0.0
H1374 H 0.61143 0.87206 0.55847 0.0
H1375 H 0.6088 0.84687 0.53897 0.0
H1376 H 0.64901 0.86903 0.59942 0.0
H1377 H 0.64665 0.84418 0.57973 0.0
H1378 H 0.661 0.8888 0.50479 0.0
H1379 H 0.65404 0.86426 0.52815 0.0
H1380 H 0.61707 0.8545 0.46586 0.0
H1381 H 0.6103 0.82993 0.48923 0.0
N1382 N 0.62858 0.81629 0.51338 0.0
N1383 N 0.62745 0.81574 0.55512 0.0
C1384 C 0.12418 0.7742 0.4973 0.0
C1385 C 0.11495 0.77881 0.48305 0.0
C1386 C 0.13604 0.78671 0.51115 0.0
C1387 C 0.139 0.80406 0.51079 0.0
C1388 C 0.11746 0.79601 0.4832 0.0
C1389 C 0.12957 0.8086 0.49681 0.0
C1390 C 0.15302 0.81778 0.52362 0.0
C1391 C 0.10857 0.78752 0.56713 0.0
C1392 C 0.11095 0.7749 0.57817 0.0
C1393 C 0.12242 0.80101 0.5564 0.0
C1394 C 0.13904 0.80241 0.5568 0.0
C1395 C 0.12773 0.77642 0.5785 0.0
C1396 C 0.14169 0.79019 0.5681 0.0
C1397 C 0.15355 0.81657 0.54524 0.0
C1398 C 0.2129 0.88853 0.5673 0.0
C1399 C 0.21979 0.88435 0.58475 0.0
C1400 C 0.20031 0.87527 0.55483 0.0
C1401 C 0.19463 0.85747 0.55912 0.0
C1402 C 0.21389 0.86651 0.58924 0.0
C1403 C 0.20139 0.85321 0.57658 0.0
C1404 C 0.18088 0.84332 0.54623 0.0
C1405 C 0.22576 0.87039 0.50155 0.0
C1406 C 0.22286 0.88019 0.48632 0.0
C1407 C 0.21217 0.85917 0.51455 0.0
C1408 C 0.19542 0.8574 0.5123 0.0
C1409 C 0.20625 0.8788 0.48449 0.0
C1410 C 0.19257 0.8673 0.49721 0.0
C1411 C 0.18058 0.84419 0.52446 0.0
H1412 H 0.12247 0.76103 0.49741 0.0
H1413 H 0.14341 0.78302 0.52159 0.0
H1414 H 0.11062 0.79988 0.47218 0.0
H1415 H 0.1318 0.82197 0.49621 0.0
H1416 H 0.09604 0.78714 0.56691 0.0
H1417 H 0.12021 0.81048 0.54791 0.0
H1418 H 0.13007 0.76686 0.58652 0.0
H1419 H 0.15445 0.79107 0.56848 0.0
H1420 H 0.21724 0.90211 0.56321 0.0
H1421 H 0.19484 0.87899 0.54199 0.0
H1422 H 0.2187 0.8628 0.60273 0.0
H1423 H 0.19701 0.83958 0.58042 0.0
H1424 H 0.23846 0.87123 0.50315 0.0
H1425 H 0.21457 0.85143 0.52589 0.0
H1426 H 0.20369 0.88609 0.47269 0.0
H1427 H 0.1797 0.866 0.49514 0.0
N1428 N 0.16657 0.83149 0.514 0.0
N1429 N 0.16739 0.8294 0.55582 0.0
C1430 C 0.23054 0.35301 0.49704 0.0
C1431 C 0.22386 0.34078 0.48077 0.0
C1432 C 0.21912 0.35478 0.51054 0.0
C1433 C 0.20088 0.34405 0.50822 0.0
C1434 C 0.20565 0.33001 0.47862 0.0
C1435 C 0.1943 0.33164 0.49218 0.0
C1436 C 0.18835 0.34644 0.52113 0.0
C1437 C 0.21804 0.3303 0.5644 0.0
C1438 C 0.22664 0.34183 0.58098 0.0
C1439 C 0.20598 0.33232 0.5521 0.0
C1440 C 0.20263 0.34628 0.5556 0.0
C1441 C 0.22288 0.35551 0.58482 0.0
C1442 C 0.21101 0.35769 0.57227 0.0
C1443 C 0.18962 0.34839 0.54286 0.0
C1444 C 0.11992 0.34056 0.56423 0.0
C1445 C 0.12448 0.35388 0.57906 0.0
C1446 C 0.13277 0.33991 0.5524 0.0
C1447 C 0.15047 0.35265 0.55493 0.0
C1448 C 0.14225 0.36652 0.5818 0.0
C1449 C 0.15515 0.36586 0.56988 0.0
C1450 C 0.16405 0.35157 0.54268 0.0
C1451 C 0.13447 0.36561 0.49513 0.0
C1452 C 0.12403 0.35141 0.48198 0.0
C1453 C 0.14666 0.36475 0.50847 0.0
C1454 C 0.14877 0.3498 0.50855 0.0
C1455 C 0.1258 0.33627 0.48256 0.0
C1456 C 0.13824 0.33557 0.49555 0.0
C1457 C 0.16269 0.34934 0.52111 0.0
H1458 H 0.24454 0.36156 0.49888 0.0
H1459 H 0.22454 0.3648 0.52243 0.0
H1460 H 0.20017 0.32033 0.46635 0.0
H1461 H 0.1803 0.32326 0.49 0.0
H1462 H 0.22066 0.31972 0.56078 0.0
H1463 H 0.19919 0.32284 0.53994 0.0
H1464 H 0.22892 0.36442 0.59769 0.0
H1465 H 0.20839 0.36834 0.57558 0.0
H1466 H 0.10644 0.33029 0.56216 0.0
H1467 H 0.12886 0.32918 0.54154 0.0
H1468 H 0.14617 0.37691 0.59313 0.0
H1469 H 0.16877 0.37569 0.57224 0.0
H1470 H 0.13335 0.37744 0.49484 0.0
H1471 H 0.15481 0.37594 0.51823 0.0
H1472 H 0.11803 0.32527 0.47237 0.0
H1473 H 0.13976 0.32397 0.49535 0.0
N1474 N 0.17485 0.34687 0.51122 0.0
N1475 N 0.17748 0.35105 0.55276 0.0
C1476 C 0.01732 0.39877 0.06334 0.0
C1477 C 0.00459 0.3846 0.05175 0.0
C1478 C 0.01255 0.40616 0.07948 0.0
C1479 C 0.99461 0.39932 0.08409 0.0
C1480 C 0.98173 0.38456 0.07308 0.0
C1481 C 0.98687 0.37733 0.05708 0.0
C1482 C 0.02671 0.42181 0.09099 0.0
C1483 C 0.96246 0.37696 0.07751 0.0
C1484 C 0.98466 0.41502 0.13421 0.0
C1485 C 0.98331 0.42956 0.12733 0.0
C1486 C 0.98777 0.4046 0.12023 0.0
C1487 C 0.98938 0.4088 0.09896 0.0
C1488 C 0.98718 0.42297 0.09189 0.0
C1489 C 0.98423 0.43321 0.10618 0.0
C1490 C 0.9901 0.38963 0.12832 0.0
C1491 C 0.98859 0.42776 0.06931 0.0
H1492 H 0.03105 0.40439 0.05951 0.0
H1493 H 0.97692 0.36638 0.04826 0.0
H1494 H 0.02565 0.43371 0.08741 0.0
H1495 H 0.02503 0.41962 0.10787 0.0
H1496 H 0.04007 0.42449 0.08685 0.0
H1497 H 0.95427 0.36436 0.06919 0.0
H1498 H 0.96002 0.37465 0.09429 0.0
H1499 H 0.95819 0.3865 0.07274 0.0
H1500 H 0.984 0.41226 0.15059 0.0
H1501 H 0.98294 0.44432 0.10084 0.0
H1502 H 0.00391 0.39283 0.12628 0.0
H1503 H 0.98176 0.3774 0.11945 0.0
H1504 H 0.98681 0.38703 0.14492 0.0
H1505 H 0.00214 0.43228 0.06398 0.0
H1506 H 0.98533 0.43836 0.06622 0.0
H1507 H 0.97968 0.41604 0.05997 0.0
C1508 C 0.62814 0.60847 0.06825 0.0
C1509 C 0.6201 0.61034 0.05041 0.0
C1510 C 0.61803 0.59772 0.08456 0.0
C1511 C 0.59949 0.58879 0.08293 0.0
C1512 C 0.59142 0.59009 0.06449 0.0
C1513 C 0.60183 0.60111 0.04859 0.0
C1514 C 0.62717 0.59665 0.10389 0.0
C1515 C 0.57174 0.58043 0.06186 0.0
C1516 C 0.57143 0.55201 0.12017 0.0
C1517 C 0.56529 0.56049 0.13322 0.0
C1518 C 0.58278 0.56109 0.10395 0.0
C1519 C 0.58845 0.57919 0.10097 0.0
C1520 C 0.58271 0.58796 0.11461 0.0
C1521 C 0.57098 0.57842 0.13043 0.0
C1522 C 0.58806 0.5511 0.08951 0.0
C1523 C 0.58867 0.60732 0.11223 0.0
H1524 H 0.64229 0.61602 0.0698 0.0
H1525 H 0.59568 0.60278 0.03483 0.0
H1526 H 0.62436 0.60322 0.11675 0.0
H1527 H 0.62218 0.58272 0.10839 0.0
H1528 H 0.64161 0.60304 0.10197 0.0
H1529 H 0.56764 0.5814 0.04586 0.0
H1530 H 0.56625 0.56631 0.06581 0.0
H1531 H 0.56591 0.58601 0.07253 0.0
H1532 H 0.5668 0.53806 0.12222 0.0
H1533 H 0.5662 0.58493 0.14061 0.0
H1534 H 0.60245 0.55824 0.08761 0.0
H1535 H 0.58195 0.55018 0.07418 0.0
H1536 H 0.58395 0.53755 0.09505 0.0
H1537 H 0.6032 0.61502 0.11175 0.0
H1538 H 0.58405 0.61243 0.12498 0.0
H1539 H 0.58365 0.60959 0.09743 0.0
C1540 C 0.39538 0.02797 0.07091 0.0
C1541 C 0.39205 0.01515 0.05593 0.0
C1542 C 0.40772 0.03149 0.0868 0.0
C1543 C 0.41632 0.02137 0.08824 0.0
C1544 C 0.41283 0.00827 0.0732 0.0
C1545 C 0.40077 0.00536 0.05722 0.0
C1546 C 0.41137 0.04585 0.10219 0.0
C1547 C 0.42157 0.99707 0.07421 0.0
C1548 C 0.45851 0.03679 0.1191 0.0
C1549 C 0.45244 0.02756 0.1377 0.0
C1550 C 0.4469 0.03531 0.10323 0.0
C1551 C 0.42868 0.02408 0.10566 0.0
C1552 C 0.42237 0.01473 0.12439 0.0
C1553 C 0.43429 0.01672 0.14025 0.0
C1554 C 0.45424 0.04599 0.08395 0.0
C1555 C 0.40307 0.00226 0.12748 0.0
H1556 H 0.38804 0.03497 0.07047 0.0
H1557 H 0.39791 0.99518 0.04587 0.0
H1558 H 0.40767 0.04016 0.11787 0.0
H1559 H 0.4256 0.05549 0.1026 0.0
H1560 H 0.40408 0.05295 0.09847 0.0
H1561 H 0.41725 0.98729 0.06148 0.0
H1562 H 0.436 0.00557 0.07344 0.0
H1563 H 0.41858 0.98994 0.08913 0.0
H1564 H 0.47246 0.04495 0.11664 0.0
H1565 H 0.42935 0.00969 0.15461 0.0
H1566 H 0.4506 0.05649 0.08365 0.0
H1567 H 0.44861 0.03767 0.07003 0.0
H1568 H 0.46875 0.05233 0.0833 0.0
H1569 H 0.39557 0.00935 0.12541 0.0
H1570 H 0.40024 0.9961 0.143 0.0
H1571 H 0.39821 0.99167 0.11567 0.0
C1572 C 0.40478 0.01369 0.96391 0.0
C1573 C 0.38675 0.00537 0.96785 0.0
C1574 C 0.41137 0.00855 0.94735 0.0
C1575 C 0.39961 0.99522 0.93374 0.0
C1576 C 0.38134 0.98693 0.93734 0.0
C1577 C 0.37513 0.99189 0.9546 0.0
C1578 C 0.43098 0.01741 0.94444 0.0
C1579 C 0.36838 0.97311 0.92276 0.0
C1580 C 0.42094 0.9984 0.8822 0.0
C1581 C 0.42612 0.98564 0.8844 0.0
C1582 C 0.41102 0.0007 0.89749 0.0
C1583 C 0.40669 0.99036 0.91566 0.0
C1584 C 0.41128 0.97693 0.91748 0.0
C1585 C 0.42081 0.97462 0.90167 0.0
C1586 C 0.40601 0.01486 0.89471 0.0
C1587 C 0.4073 0.9659 0.93675 0.0
H1588 H 0.41386 0.02417 0.97394 0.0
H1589 H 0.36116 0.98555 0.95742 0.0
H1590 H 0.43523 0.00737 0.94352 0.0
H1591 H 0.4346 0.02485 0.92973 0.0
H1592 H 0.43835 0.02668 0.95719 0.0
H1593 H 0.35461 0.96786 0.92778 0.0
H1594 H 0.36981 0.97882 0.90711 0.0
H1595 H 0.37111 0.96201 0.92151 0.0
H1596 H 0.42506 0.00687 0.86876 0.0
H1597 H 0.42499 0.96485 0.90335 0.0
H1598 H 0.41419 0.02612 0.90503 0.0
H1599 H 0.39212 0.00982 0.89897 0.0
H1600 H 0.40791 0.01978 0.87859 0.0
H1601 H 0.41548 0.9743 0.9497 0.0
H1602 H 0.41 0.95481 0.93483 0.0
H1603 H 0.39339 0.96048 0.94115 0.0
C1604 C 0.00067 0.39837 0.96371 0.0
C1605 C 0.00952 0.38871 0.96316 0.0
C1606 C 0.00217 0.40973 0.94751 0.0
C1607 C 0.01248 0.41111 0.93017 0.0
C1608 C 0.0218 0.40167 0.92982 0.0
C1609 C 0.02007 0.39044 0.94628 0.0
C1610 C 0.99226 0.41977 0.94866 0.0
C1611 C 0.03302 0.40287 0.91171 0.0
C1612 C 0.99966 0.42438 0.87974 0.0
C1613 C 0.01251 0.44212 0.87832 0.0
C1614 C 0.99976 0.41399 0.89631 0.0
C1615 C 0.01274 0.42173 0.91199 0.0
C1616 C 0.02562 0.43972 0.91055 0.0
C1617 C 0.02549 0.44963 0.8936 0.0
C1618 C 0.98588 0.39481 0.89716 0.0
C1619 C 0.03933 0.44861 0.92709 0.0
H1620 H 0.99231 0.39678 0.9767 0.0
H1621 H 0.02645 0.3825 0.94562 0.0
H1622 H 0.0012 0.43398 0.94577 0.0
H1623 H 0.98192 0.41496 0.93652 0.0
H1624 H 0.98597 0.41829 0.96388 0.0
H1625 H 0.04022 0.39552 0.91441 0.0
H1626 H 0.02465 0.39746 0.89774 0.0
H1627 H 0.04267 0.41683 0.90849 0.0
H1628 H 0.98959 0.41866 0.86788 0.0
H1629 H 0.03525 0.46346 0.89258 0.0
H1630 H 0.97772 0.39234 0.91106 0.0
H1631 H 0.99214 0.38644 0.89844 0.0
H1632 H 0.97718 0.39064 0.88333 0.0
H1633 H 0.03288 0.44771 0.94203 0.0
H1634 H 0.04847 0.46271 0.92368 0.0
H1635 H 0.04699 0.44171 0.92874 0.0
C1636 C 0.60979 0.6227 0.95476 0.0
C1637 C 0.61705 0.61267 0.9627 0.0
C1638 C 0.59752 0.61634 0.93848 0.0
C1639 C 0.59239 0.59956 0.92996 0.0
C1640 C 0.59994 0.58955 0.93756 0.0
C1641 C 0.61216 0.59621 0.95381 0.0
C1642 C 0.58976 0.62739 0.93074 0.0
C1643 C 0.59481 0.57159 0.92884 0.0
C1644 C 0.54801 0.57315 0.90389 0.0
C1645 C 0.55254 0.57513 0.88298 0.0
C1646 C 0.5608 0.5815 0.9193 0.0
C1647 C 0.57857 0.59205 0.91368 0.0
C1648 C 0.58318 0.59456 0.89258 0.0
C1649 C 0.5701 0.58605 0.87748 0.0
C1650 C 0.55537 0.57849 0.94163 0.0
C1651 C 0.60199 0.60578 0.88601 0.0
H1652 H 0.61346 0.63543 0.96145 0.0
H1653 H 0.61767 0.58834 0.95975 0.0
H1654 H 0.59146 0.62924 0.91382 0.0
H1655 H 0.57546 0.62048 0.93373 0.0
H1656 H 0.59582 0.64054 0.93824 0.0
H1657 H 0.6024 0.56578 0.93593 0.0
H1658 H 0.58066 0.5625 0.93146 0.0
H1659 H 0.5969 0.57248 0.91194 0.0
H1660 H 0.53452 0.56454 0.90828 0.0
H1661 H 0.57365 0.5878 0.86133 0.0
H1662 H 0.56035 0.59127 0.94973 0.0
H1663 H 0.56122 0.57123 0.94943 0.0
H1664 H 0.54091 0.57083 0.94338 0.0
H1665 H 0.60774 0.61903 0.89316 0.0
H1666 H 0.60324 0.60733 0.86899 0.0
H1667 H 0.60984 0.59971 0.89144 0.0
C1668 C 0.02852 0.63703 0.9449 0.0
C1669 C 0.01819 0.62901 0.96218 0.0
C1670 C 0.03052 0.62689 0.92947 0.0
C1671 C 0.02167 0.60829 0.93129 0.0
C1672 C 0.01168 0.60022 0.94913 0.0
C1673 C 0.0099 0.61068 0.96424 0.0
C1674 C 0.0414 0.63603 0.91082 0.0
C1675 C 0.00224 0.58047 0.95184 0.0
C1676 C 0.00767 0.57978 0.88304 0.0
C1677 C 0.02046 0.57464 0.88204 0.0
C1678 C 0.00821 0.59115 0.89868 0.0
C1679 C 0.02165 0.59715 0.9139 0.0
C1680 C 0.03457 0.59192 0.91284 0.0
C1681 C 0.03394 0.5809 0.89679 0.0
C1682 C 0.99426 0.59651 0.8991 0.0
C1683 C 0.04879 0.59757 0.92895 0.0
H1684 H 0.03449 0.65118 0.94306 0.0
H1685 H 0.00171 0.60452 0.97753 0.0
H1686 H 0.05108 0.63158 0.90803 0.0
H1687 H 0.03278 0.63251 0.89697 0.0
H1688 H 0.04854 0.65059 0.91255 0.0
H1689 H 0.99645 0.57643 0.96742 0.0
H1690 H 0.99157 0.57425 0.94019 0.0
H1691 H 0.01135 0.57526 0.94933 0.0
H1692 H 0.99725 0.57491 0.87156 0.0
H1693 H 0.0437 0.5767 0.89611 0.0
H1694 H 0.00044 0.61109 0.89928 0.0
H1695 H 0.98647 0.59155 0.91339 0.0
H1696 H 0.98521 0.59135 0.88562 0.0
H1697 H 0.05598 0.6121 0.93001 0.0
H1698 H 0.05828 0.59297 0.92551 0.0
H1699 H 0.04283 0.5923 0.94417 0.0
C1700 C 0.39692 0.38666 0.94865 0.0
C1701 C 0.38076 0.38241 0.95754 0.0
C1702 C 0.40407 0.39918 0.93285 0.0
C1703 C 0.39486 0.4077 0.92563 0.0
C1704 C 0.37831 0.40312 0.93402 0.0
C1705 C 0.37145 0.39055 0.94989 0.0
C1706 C 0.42176 0.40366 0.9243 0.0
C1707 C 0.36807 0.41187 0.92664 0.0
C1708 C 0.42359 0.45258 0.90168 0.0
C1709 C 0.42191 0.4485 0.88058 0.0
C1710 C 0.41432 0.43954 0.91645 0.0
C1711 C 0.40307 0.42196 0.90999 0.0
C1712 C 0.40078 0.41788 0.88869 0.0
C1713 C 0.41025 0.4312 0.87424 0.0
C1714 C 0.41717 0.44442 0.93903 0.0
C1715 C 0.38882 0.39933 0.88118 0.0
H1716 H 0.40425 0.38048 0.95433 0.0
H1717 H 0.35896 0.38739 0.95659 0.0
H1718 H 0.4209 0.402 0.9073 0.0
H1719 H 0.43133 0.41767 0.92759 0.0
H1720 H 0.42689 0.39533 0.93098 0.0
H1721 H 0.35488 0.40599 0.9337 0.0
H1722 H 0.37538 0.42611 0.93052 0.0
H1723 H 0.36651 0.41082 0.90962 0.0
H1724 H 0.43273 0.46586 0.90674 0.0
H1725 H 0.40872 0.42801 0.85794 0.0
H1726 H 0.42379 0.43783 0.94666 0.0
H1727 H 0.40442 0.43978 0.94678 0.0
H1728 H 0.42533 0.45886 0.94144 0.0
H1729 H 0.39418 0.3907 0.88606 0.0
H1730 H 0.38731 0.39863 0.86413 0.0
H1731 H 0.37567 0.39398 0.88819 0.0
C1732 C 0.59853 0.99304 0.96888 0.0
C1733 C 0.60899 0.98508 0.96811 0.0
C1734 C 0.58679 0.99076 0.95279 0.0
C1735 C 0.58595 0.98071 0.93527 0.0
C1736 C 0.59614 0.97219 0.93475 0.0
C1737 C 0.60765 0.97457 0.95119 0.0
C1738 C 0.57587 0.99974 0.95417 0.0
C1739 C 0.59559 0.96131 0.91642 0.0
C1740 C 0.54788 0.96786 0.89794 0.0
C1741 C 0.55515 0.98176 0.88383 0.0
C1742 C 0.55781 0.96715 0.91459 0.0
C1743 C 0.57554 0.98044 0.91687 0.0
C1744 C 0.58312 0.99415 0.90211 0.0
C1745 C 0.57273 0.99478 0.88588 0.0
C1746 C 0.54909 0.95264 0.93019 0.0
C1747 C 0.60206 0.00842 0.90377 0.0
H1748 H 0.59979 0.00133 0.98194 0.0
H1749 H 0.61614 0.96882 0.95042 0.0
H1750 H 0.58038 0.01043 0.94255 0.0
H1751 H 0.56192 0.99026 0.95068 0.0
H1752 H 0.57673 0.00553 0.96966 0.0
H1753 H 0.60305 0.95426 0.91928 0.0
H1754 H 0.58185 0.95149 0.91247 0.0
H1755 H 0.60122 0.97002 0.90283 0.0
H1756 H 0.53417 0.95796 0.89643 0.0
H1757 H 0.57826 0.00553 0.8749 0.0
H1758 H 0.54809 0.95835 0.94502 0.0
H1759 H 0.55715 0.94628 0.93287 0.0
H1760 H 0.53574 0.94244 0.92524 0.0
H1761 H 0.60626 0.01737 0.89024 0.0
H1762 H 0.61067 0.00247 0.90519 0.0
H1763 H 0.60402 0.01637 0.91788 0.0
C1764 C 0.62444 0.01056 0.0637 0.0
C1765 C 0.61493 0.99324 0.05617 0.0
C1766 C 0.618 0.01634 0.07989 0.0
C1767 C 0.60165 0.00455 0.08876 0.0
C1768 C 0.59221 0.98695 0.08162 0.0
C1769 C 0.59895 0.98151 0.06545 0.0
C1770 C 0.62846 0.0352 0.08716 0.0
C1771 C 0.57472 0.97397 0.09069 0.0
C1772 C 0.58842 0.01363 0.14096 0.0
C1773 C 0.57694 0.01983 0.13524 0.0
C1774 C 0.59698 0.00908 0.126 0.0
C1775 C 0.59395 0.01074 0.10484 0.0
C1776 C 0.58277 0.01746 0.09899 0.0
C1777 C 0.5744 0.02192 0.11425 0.0
C1778 C 0.6089 0.00206 0.13283 0.0
C1779 C 0.57917 0.01938 0.07658 0.0
H1780 H 0.63682 0.01974 0.05672 0.0
H1781 H 0.59147 0.96809 0.05984 0.0
H1782 H 0.62104 0.04221 0.0839 0.0
H1783 H 0.63058 0.03563 0.10409 0.0
H1784 H 0.64141 0.04241 0.07954 0.0
H1785 H 0.56937 0.96057 0.084 0.0
H1786 H 0.57599 0.9731 0.10763 0.0
H1787 H 0.56512 0.97857 0.08788 0.0
H1788 H 0.59059 0.01219 0.15716 0.0
H1789 H 0.56537 0.02646 0.10971 0.0
H1790 H 0.62192 0.00969 0.12553 0.0
H1791 H 0.60331 0.98818 0.12775 0.0
H1792 H 0.61072 0.00261 0.14984 0.0
H1793 H 0.59167 0.02734 0.06829 0.0
H1794 H 0.57093 0.02572 0.07461 0.0
H1795 H 0.57236 0.00621 0.06914 0.0
C1796 C 0.02568 0.62834 0.06181 0.0
C1797 C 0.01289 0.62989 0.05023 0.0
C1798 C 0.02099 0.61634 0.07819 0.0
C1799 C 0.00307 0.60552 0.08304 0.0
C1800 C 0.99015 0.60753 0.07203 0.0
C1801 C 0.99521 0.61971 0.0558 0.0
C1802 C 0.03517 0.61468 0.08969 0.0
C1803 C 0.97091 0.59619 0.07669 0.0
C1804 C 0.99134 0.56103 0.10579 0.0
C1805 C 0.98999 0.56372 0.12683 0.0
C1806 C 0.99515 0.5744 0.09137 0.0
C1807 C 0.9978 0.59095 0.09817 0.0
C1808 C 0.99599 0.59362 0.11935 0.0
C1809 C 0.992 0.57989 0.13346 0.0
C1810 C 0.99673 0.57093 0.0689 0.0
C1811 C 0.99881 0.61111 0.12716 0.0
H1812 H 0.03938 0.6362 0.05778 0.0
H1813 H 0.9852 0.6208 0.04704 0.0
H1814 H 0.03357 0.61524 0.10657 0.0
H1815 H 0.03406 0.60171 0.08623 0.0
H1816 H 0.04851 0.62519 0.08542 0.0
H1817 H 0.96267 0.60057 0.06817 0.0
H1818 H 0.96657 0.58234 0.07234 0.0
H1819 H 0.96858 0.59635 0.09345 0.0
H1820 H 0.98955 0.54843 0.10062 0.0
H1821 H 0.99106 0.582 0.14975 0.0
H1822 H 0.0103 0.57982 0.06362 0.0
H1823 H 0.98785 0.57377 0.05934 0.0
H1824 H 0.99352 0.5571 0.06605 0.0
H1825 H 0.01261 0.6214 0.12461 0.0
H1826 H 0.99591 0.61073 0.14385 0.0
H1827 H 0.99039 0.61513 0.11844 0.0
C1828 C 0.38671 0.37265 0.06281 0.0
C1829 C 0.38468 0.38098 0.04536 0.0
C1830 C 0.39787 0.38253 0.07912 0.0
C1831 C 0.407 0.40118 0.07797 0.0
C1832 C 0.40542 0.40957 0.05997 0.0
C1833 C 0.39407 0.39936 0.04401 0.0
C1834 C 0.39922 0.37305 0.09796 0.0
C1835 C 0.41519 0.42937 0.0579 0.0
C1836 C 0.41888 0.42887 0.12682 0.0
C1837 C 0.43669 0.43414 0.12913 0.0
C1838 C 0.40893 0.41763 0.11061 0.0
C1839 C 0.41714 0.41199 0.0961 0.0
C1840 C 0.43515 0.41732 0.09852 0.0
C1841 C 0.44465 0.42815 0.11515 0.0
C1842 C 0.38971 0.41206 0.10881 0.0
C1843 C 0.44454 0.4121 0.0832 0.0
H1844 H 0.37904 0.35843 0.06405 0.0
H1845 H 0.39227 0.40575 0.03056 0.0
H1846 H 0.41315 0.37768 0.1019 0.0
H1847 H 0.3933 0.37605 0.11132 0.0
H1848 H 0.39244 0.35854 0.09572 0.0
H1849 H 0.41387 0.43372 0.04218 0.0
H1850 H 0.41005 0.43522 0.06916 0.0
H1851 H 0.42931 0.43468 0.06143 0.0
H1852 H 0.41278 0.43355 0.13771 0.0
H1853 H 0.4585 0.43247 0.11685 0.0
H1854 H 0.38178 0.39749 0.10799 0.0
H1855 H 0.38725 0.41737 0.09435 0.0
H1856 H 0.3851 0.41675 0.122 0.0
H1857 H 0.43753 0.39762 0.08145 0.0
H1858 H 0.45832 0.41652 0.08784 0.0
H1859 H 0.44453 0.41793 0.06798 0.0
C1860 C 0.65162 0.71103 0.39795 0.0
C1861 C 0.66896 0.71959 0.39086 0.0
C1862 C 0.64647 0.71811 0.41409 0.0
C1863 C 0.65893 0.73415 0.42338 0.0
C1864 C 0.67656 0.74256 0.4168 0.0
C1865 C 0.68137 0.73519 0.40064 0.0
C1866 C 0.62754 0.70873 0.42071 0.0
C1867 C 0.69023 0.75968 0.42635 0.0
C1868 C 0.64258 0.76297 0.44721 0.0
C1869 C 0.64303 0.75968 0.46833 0.0
C1870 C 0.6476 0.75465 0.43246 0.0
C1871 C 0.65328 0.74275 0.43897 0.0
C1872 C 0.65368 0.73926 0.46025 0.0
C1873 C 0.64856 0.74779 0.47469 0.0
C1874 C 0.64703 0.75876 0.40991 0.0
C1875 C 0.65961 0.72661 0.46773 0.0
H1876 H 0.64192 0.69893 0.39062 0.0
H1877 H 0.69481 0.74192 0.39536 0.0
H1878 H 0.62668 0.70667 0.43765 0.0
H1879 H 0.62149 0.71699 0.417 0.0
H1880 H 0.61977 0.69576 0.41299 0.0
H1881 H 0.70359 0.76393 0.42047 0.0
H1882 H 0.68693 0.77019 0.42297 0.0
H1883 H 0.69039 0.75838 0.44337 0.0
H1884 H 0.63863 0.77239 0.4422 0.0
H1885 H 0.6488 0.74508 0.49098 0.0
H1886 H 0.63851 0.74646 0.40126 0.0
H1887 H 0.66035 0.76453 0.40329 0.0
H1888 H 0.64204 0.76812 0.4074 0.0
H1889 H 0.65132 0.71344 0.46069 0.0
H1890 H 0.65899 0.72519 0.48478 0.0
H1891 H 0.67329 0.73124 0.46284 0.0
C1892 C 0.30172 0.94028 0.40949 0.0
C1893 C 0.29422 0.94179 0.39098 0.0
C1894 C 0.29116 0.92928 0.42539 0.0
C1895 C 0.27271 0.91972 0.42267 0.0
C1896 C 0.26523 0.92067 0.40358 0.0
C1897 C 0.27606 0.93194 0.3881 0.0
C1898 C 0.29969 0.92863 0.44544 0.0
C1899 C 0.24569 0.91037 0.39979 0.0
C1900 C 0.24382 0.88264 0.45921 0.0
C1901 C 0.23667 0.89076 0.47128 0.0
C1902 C 0.25581 0.89196 0.44358 0.0
C1903 C 0.26106 0.90993 0.44022 0.0
C1904 C 0.2543 0.91834 0.45294 0.0
C1905 C 0.24199 0.90857 0.46816 0.0
C1906 C 0.2622 0.88232 0.43011 0.0
C1907 C 0.25977 0.93756 0.45016 0.0
H1908 H 0.31575 0.94829 0.41185 0.0
H1909 H 0.27031 0.93332 0.37382 0.0
H1910 H 0.29605 0.93499 0.45776 0.0
H1911 H 0.29493 0.91478 0.45016 0.0
H1912 H 0.31421 0.93544 0.44437 0.0
H1913 H 0.24218 0.91112 0.38346 0.0
H1914 H 0.24052 0.89633 0.40393 0.0
H1915 H 0.23906 0.9156 0.40972 0.0
H1916 H 0.2395 0.86878 0.4615 0.0
H1917 H 0.23644 0.91482 0.47759 0.0
H1918 H 0.25837 0.86894 0.43601 0.0
H1919 H 0.27664 0.88992 0.42896 0.0
H1920 H 0.25661 0.88103 0.41439 0.0
H1921 H 0.25434 0.94243 0.46228 0.0
H1922 H 0.2552 0.93955 0.4349 0.0
H1923 H 0.27428 0.94566 0.45051 0.0
C1924 C 0.0664 0.34211 0.38322 0.0
C1925 C 0.05658 0.35075 0.38453 0.0
C1926 C 0.07837 0.34392 0.39884 0.0
C1927 C 0.08016 0.35421 0.41651 0.0
C1928 C 0.07055 0.36333 0.41763 0.0
C1929 C 0.05877 0.3614 0.40164 0.0
C1930 C 0.08861 0.33426 0.39678 0.0
C1931 C 0.07209 0.37448 0.4361 0.0
C1932 C 0.09461 0.34017 0.46517 0.0
C1933 C 0.11238 0.35288 0.46642 0.0
C1934 C 0.08382 0.34086 0.44944 0.0
C1935 C 0.09112 0.35432 0.43434 0.0
C1936 C 0.10907 0.36724 0.43577 0.0
C1937 C 0.11942 0.36649 0.45192 0.0
C1938 C 0.0647 0.32697 0.44872 0.0
C1939 C 0.11754 0.38145 0.41981 0.0
H1940 H 0.0645 0.33369 0.37005 0.0
H1941 H 0.05078 0.36767 0.40288 0.0
H1942 H 0.08421 0.32372 0.40856 0.0
H1943 H 0.08694 0.32819 0.3813 0.0
H1944 H 0.10277 0.3434 0.39955 0.0
H1945 H 0.06483 0.38182 0.43384 0.0
H1946 H 0.06682 0.36593 0.44988 0.0
H1947 H 0.08604 0.38408 0.43938 0.0
H1948 H 0.0892 0.32965 0.47645 0.0
H1949 H 0.13325 0.37617 0.45277 0.0
H1950 H 0.06196 0.31883 0.43462 0.0
H1951 H 0.05638 0.33329 0.44794 0.0
H1952 H 0.06081 0.31815 0.46237 0.0
H1953 H 0.11738 0.37536 0.40477 0.0
H1954 H 0.13131 0.39121 0.42383 0.0
H1955 H 0.10996 0.38843 0.41803 0.0
C1956 C 0.04458 0.32582 0.29149 0.0
C1957 C 0.05179 0.3437 0.29664 0.0
C1958 C 0.05172 0.32042 0.27563 0.0
C1959 C 0.06634 0.3332 0.26458 0.0
C1960 C 0.07321 0.35129 0.26914 0.0
C1961 C 0.06591 0.35631 0.28511 0.0
C1962 C 0.04407 0.301 0.27127 0.0
C1963 C 0.08872 0.36536 0.25762 0.0
C1964 C 0.09952 0.32251 0.24136 0.0
C1965 C 0.09539 0.3214 0.22029 0.0
C1966 C 0.08966 0.32557 0.256 0.0
C1967 C 0.07541 0.32777 0.24939 0.0
C1968 C 0.07078 0.32603 0.22819 0.0
C1969 C 0.08079 0.32275 0.21387 0.0
C1970 C 0.09491 0.32708 0.27847 0.0
C1971 C 0.05575 0.3284 0.22055 0.0
H1972 H 0.03369 0.31595 0.30027 0.0
H1973 H 0.07152 0.37017 0.2888 0.0
H1974 H 0.04129 0.29833 0.25455 0.0
H1975 H 0.05373 0.2968 0.27566 0.0
H1976 H 0.03179 0.29284 0.27992 0.0
H1977 H 0.09164 0.37886 0.26194 0.0
H1978 H 0.1005 0.36411 0.26095 0.0
H1979 H 0.08626 0.36366 0.24075 0.0
H1980 H 0.11069 0.32123 0.24636 0.0
H1981 H 0.07763 0.32197 0.19756 0.0
H1982 H 0.08342 0.31826 0.28797 0.0
H1983 H 0.09964 0.34076 0.2839 0.0
H1984 H 0.10543 0.3237 0.28122 0.0
H1985 H 0.04375 0.32002 0.22951 0.0
H1986 H 0.05286 0.3251 0.20393 0.0
H1987 H 0.05899 0.34228 0.22286 0.0
C1988 C 0.66922 0.7345 0.30096 0.0
C1989 C 0.67601 0.72298 0.30092 0.0
C1990 C 0.67181 0.74565 0.28413 0.0
C1991 C 0.68073 0.74464 0.26653 0.0
C1992 C 0.68808 0.73336 0.26674 0.0
C1993 C 0.68563 0.72264 0.284 0.0
C1994 C 0.66456 0.75815 0.28495 0.0
C1995 C 0.69779 0.73198 0.2484 0.0
C1996 C 0.66666 0.75712 0.21654 0.0
C1997 C 0.68066 0.77408 0.21313 0.0
C1998 C 0.66691 0.7471 0.23342 0.0
C1999 C 0.68123 0.75449 0.24751 0.0
C2000 C 0.69541 0.7716 0.24392 0.0
C2001 C 0.69508 0.78105 0.22658 0.0
C2002 C 0.65168 0.72876 0.23642 0.0
C2003 C 0.71089 0.78013 0.25839 0.0
H2004 H 0.6617 0.73461 0.31408 0.0
H2005 H 0.69055 0.71341 0.2839 0.0
H2006 H 0.65381 0.75413 0.27343 0.0
H2007 H 0.65938 0.75846 0.30042 0.0
H2008 H 0.67492 0.77167 0.28093 0.0
H2009 H 0.70314 0.72296 0.25129 0.0
H2010 H 0.68884 0.72712 0.23482 0.0
H2011 H 0.70878 0.74516 0.24441 0.0
H2012 H 0.65552 0.75176 0.20605 0.0
H2013 H 0.70584 0.79426 0.224 0.0
H2014 H 0.64455 0.72833 0.25064 0.0
H2015 H 0.65652 0.71923 0.23841 0.0
H2016 H 0.6423 0.72443 0.22322 0.0
H2017 H 0.70663 0.7773 0.27462 0.0
H2018 H 0.71848 0.79465 0.25631 0.0
H2019 H 0.71973 0.77474 0.25522 0.0
C2020 C 0.28509 0.95198 0.2961 0.0
C2021 C 0.2948 0.94404 0.30298 0.0
C2022 C 0.27331 0.94494 0.27943 0.0
C2023 C 0.27127 0.92968 0.26934 0.0
C2024 C 0.28157 0.92206 0.27561 0.0
C2025 C 0.29315 0.92928 0.29239 0.0
C2026 C 0.26248 0.95337 0.27325 0.0
C2027 C 0.27986 0.90585 0.26512 0.0
C2028 C 0.22767 0.89783 0.24483 0.0
C2029 C 0.23114 0.90145 0.2238 0.0
C2030 C 0.24049 0.9073 0.2598 0.0
C2031 C 0.25725 0.92067 0.25356 0.0
C2032 C 0.2607 0.92474 0.23236 0.0
C2033 C 0.24752 0.91511 0.21768 0.0
C2034 C 0.23621 0.9027 0.28227 0.0
C2035 C 0.27845 0.93885 0.22518 0.0
H2036 H 0.28626 0.96339 0.30412 0.0
H2037 H 0.30069 0.92313 0.29743 0.0
H2038 H 0.26322 0.95571 0.25637 0.0
H2039 H 0.24852 0.94434 0.27696 0.0
H2040 H 0.26679 0.96609 0.28131 0.0
H2041 H 0.28989 0.90248 0.27061 0.0
H2042 H 0.26669 0.89446 0.26813 0.0
H2043 H 0.28108 0.9078 0.24817 0.0
H2044 H 0.21489 0.88744 0.24957 0.0
H2045 H 0.25021 0.91787 0.2014 0.0
H2046 H 0.23898 0.91464 0.29119 0.0
H2047 H 0.24463 0.89764 0.28876 0.0
H2048 H 0.22228 0.89258 0.28456 0.0
H2049 H 0.28234 0.95142 0.23335 0.0
H2050 H 0.27868 0.94118 0.2083 0.0
H2051 H 0.28844 0.93495 0.22896 0.0
C2052 C 0.67696 0.93892 0.30463 0.0
C2053 C 0.6861 0.95734 0.30391 0.0
C2054 C 0.67878 0.9289 0.28896 0.0
C2055 C 0.68966 0.93754 0.2719 0.0
C2056 C 0.6993 0.95619 0.27144 0.0
C2057 C 0.69729 0.96588 0.2874 0.0
C2058 C 0.66849 0.90906 0.29025 0.0
C2059 C 0.71111 0.96593 0.25363 0.0
C2060 C 0.70179 0.91081 0.23611 0.0
C2061 C 0.68894 0.90581 0.2207 0.0
C2062 C 0.70225 0.92117 0.25282 0.0
C2063 C 0.68982 0.92705 0.25389 0.0
C2064 C 0.67706 0.92236 0.23801 0.0
C2065 C 0.67663 0.9116 0.22171 0.0
C2066 C 0.71572 0.92542 0.26959 0.0
C2067 C 0.66368 0.9285 0.2384 0.0
H2068 H 0.66813 0.93237 0.31731 0.0
H2069 H 0.70393 0.98014 0.28658 0.0
H2070 H 0.65827 0.90384 0.27797 0.0
H2071 H 0.67721 0.90339 0.28768 0.0
H2072 H 0.662 0.90443 0.30541 0.0
H2073 H 0.72041 0.96102 0.2508 0.0
H2074 H 0.7031 0.9635 0.2394 0.0
H2075 H 0.71873 0.98037 0.2564 0.0
H2076 H 0.71115 0.90609 0.2354 0.0
H2077 H 0.66669 0.90768 0.20972 0.0
H2078 H 0.70902 0.91957 0.28432 0.0
H2079 H 0.72341 0.93985 0.27168 0.0
H2080 H 0.72486 0.92038 0.26615 0.0
H2081 H 0.65524 0.92304 0.25213 0.0
H2082 H 0.65519 0.9244 0.22439 0.0
H2083 H 0.67038 0.94307 0.23966 0.0
C2084 C 0.03881 0.72352 0.29016 0.0
C2085 C 0.04507 0.71193 0.29528 0.0
C2086 C 0.04668 0.73616 0.27452 0.0
C2087 C 0.06111 0.73719 0.26371 0.0
C2088 C 0.06681 0.72487 0.26798 0.0
C2089 C 0.05876 0.71243 0.2837 0.0
C2090 C 0.04018 0.74902 0.27038 0.0
C2091 C 0.08208 0.72543 0.2567 0.0
C2092 C 0.07903 0.76432 0.21484 0.0
C2093 C 0.0939 0.77924 0.22256 0.0
C2094 C 0.06777 0.75072 0.22812 0.0
C2095 C 0.07148 0.75219 0.24957 0.0
C2096 C 0.08602 0.76763 0.25748 0.0
C2097 C 0.09705 0.78094 0.24388 0.0
C2098 C 0.05239 0.73446 0.21913 0.0
C2099 C 0.09036 0.76983 0.28026 0.0
H2100 H 0.02822 0.72325 0.29894 0.0
H2101 H 0.06362 0.70346 0.28734 0.0
H2102 H 0.05004 0.76227 0.27605 0.0
H2103 H 0.03847 0.75016 0.25358 0.0
H2104 H 0.02755 0.74511 0.27815 0.0
H2105 H 0.0838 0.71393 0.26041 0.0
H2106 H 0.08024 0.72579 0.2398 0.0
H2107 H 0.09432 0.73762 0.26098 0.0
H2108 H 0.07661 0.76294 0.19835 0.0
H2109 H 0.10839 0.7926 0.24992 0.0
H2110 H 0.04026 0.73113 0.22771 0.0
H2111 H 0.05474 0.72311 0.22066 0.0
H2112 H 0.05022 0.73613 0.20256 0.0
H2113 H 0.07877 0.76767 0.28924 0.0
H2114 H 0.10144 0.7831 0.28405 0.0
H2115 H 0.09391 0.75981 0.28536 0.0
C2116 C 0.27409 0.3067 0.28138 0.0
C2117 C 0.27518 0.31656 0.29886 0.0
C2118 C 0.26266 0.30475 0.26502 0.0
C2119 C 0.25232 0.3131 0.26615 0.0
C2120 C 0.25298 0.32255 0.28417 0.0
C2121 C 0.2646 0.32436 0.30021 0.0
C2122 C 0.26229 0.2945 0.24616 0.0
C2123 C 0.24194 0.33137 0.28617 0.0
C2124 C 0.23893 0.32788 0.21739 0.0
C2125 C 0.22145 0.31466 0.21505 0.0
C2126 C 0.24933 0.32716 0.23356 0.0
C2127 C 0.24185 0.31315 0.24797 0.0
C2128 C 0.2242 0.29974 0.24546 0.0
C2129 C 0.21427 0.30055 0.22887 0.0
C2130 C 0.26817 0.34161 0.23552 0.0
C2131 C 0.2156 0.28491 0.26069 0.0
H2132 H 0.2827 0.30112 0.28015 0.0
H2133 H 0.26568 0.33217 0.31369 0.0
H2134 H 0.24861 0.28458 0.24211 0.0
H2135 H 0.26775 0.30358 0.23285 0.0
H2136 H 0.27001 0.28762 0.24843 0.0
H2137 H 0.24274 0.33673 0.3019 0.0
H2138 H 0.24641 0.34235 0.27495 0.0
H2139 H 0.22802 0.32191 0.28251 0.0
H2140 H 0.24439 0.33881 0.20665 0.0
H2141 H 0.20064 0.29049 0.22715 0.0
H2142 H 0.27695 0.33583 0.23645 0.0
H2143 H 0.26999 0.34911 0.24997 0.0
H2144 H 0.27227 0.35093 0.22234 0.0
H2145 H 0.22356 0.27835 0.26251 0.0
H2146 H 0.20211 0.27494 0.25589 0.0
H2147 H 0.21498 0.29031 0.27592 0.0
C2148 C 0.28758 0.33812 0.39406 0.0
C2149 C 0.28038 0.32055 0.38754 0.0
C2150 C 0.28027 0.34265 0.41052 0.0
C2151 C 0.26548 0.32929 0.42076 0.0
C2152 C 0.25868 0.31148 0.41491 0.0
C2153 C 0.26617 0.30733 0.39836 0.0
C2154 C 0.28786 0.3618 0.41631 0.0
C2155 C 0.24298 0.29683 0.42554 0.0
C2156 C 0.24993 0.33754 0.47196 0.0
C2157 C 0.23563 0.33943 0.46554 0.0
C2158 C 0.26016 0.33472 0.45752 0.0
C2159 C 0.25603 0.33396 0.43624 0.0
C2160 C 0.24205 0.33661 0.4297 0.0
C2161 C 0.23199 0.33924 0.44443 0.0
C2162 C 0.27494 0.33189 0.46506 0.0
C2163 C 0.23734 0.3361 0.40714 0.0
H2164 H 0.29857 0.34845 0.38586 0.0
H2165 H 0.26059 0.29369 0.39361 0.0
H2166 H 0.27838 0.3663 0.41216 0.0
H2167 H 0.29013 0.36357 0.43321 0.0
H2168 H 0.3004 0.37037 0.40834 0.0
H2169 H 0.24026 0.28358 0.42037 0.0
H2170 H 0.24505 0.29776 0.44249 0.0
H2171 H 0.23122 0.29813 0.42228 0.0
H2172 H 0.25271 0.33763 0.4883 0.0
H2173 H 0.2211 0.34099 0.43945 0.0
H2174 H 0.28719 0.34069 0.45674 0.0
H2175 H 0.27173 0.31814 0.46178 0.0
H2176 H 0.27737 0.33432 0.48189 0.0
H2177 H 0.24903 0.34544 0.39827 0.0
H2178 H 0.22679 0.33948 0.40457 0.0
H2179 H 0.23287 0.32273 0.40083 0.0
C2180 C 0.65947 0.94789 0.39766 0.0
C2181 C 0.67705 0.95551 0.39159 0.0
C2182 C 0.65284 0.93531 0.4135 0.0
C2183 C 0.66405 0.93021 0.42356 0.0
C2184 C 0.68192 0.93826 0.41802 0.0
C2185 C 0.6882 0.95078 0.40213 0.0
C2186 C 0.6337 0.92703 0.41899 0.0
C2187 C 0.69431 0.93322 0.42843 0.0
C2188 C 0.65093 0.9055 0.47454 0.0
C2189 C 0.64492 0.88808 0.46811 0.0
C2190 C 0.65692 0.91934 0.4602 0.0
C2191 C 0.65689 0.91567 0.43894 0.0
C2192 C 0.65053 0.89809 0.43234 0.0
C2193 C 0.64467 0.88454 0.44699 0.0
C2194 C 0.66357 0.93792 0.46781 0.0
C2195 C 0.6503 0.89363 0.40981 0.0
H2196 H 0.65072 0.95144 0.38971 0.0
H2197 H 0.70182 0.95658 0.39767 0.0
H2198 H 0.62691 0.91282 0.41495 0.0
H2199 H 0.63225 0.92797 0.43584 0.0
H2200 H 0.62703 0.93333 0.41079 0.0
H2201 H 0.70805 0.94147 0.42324 0.0
H2202 H 0.69393 0.93448 0.4454 0.0
H2203 H 0.69012 0.91923 0.42503 0.0
H2204 H 0.65099 0.90831 0.49081 0.0
H2205 H 0.64033 0.87118 0.4419 0.0
H2206 H 0.65637 0.94382 0.46 0.0
H2207 H 0.67762 0.94618 0.46392 0.0
H2208 H 0.66212 0.93848 0.48475 0.0
H2209 H 0.64286 0.89861 0.4007 0.0
H2210 H 0.6443 0.87923 0.40715 0.0
H2211 H 0.66387 0.9002 0.40383 0.0
C2212 C 0.05207 0.70428 0.40207 0.0
C2213 C 0.05072 0.71254 0.38416 0.0
C2214 C 0.06341 0.71416 0.41825 0.0
C2215 C 0.07357 0.73271 0.41638 0.0
C2216 C 0.07285 0.74094 0.3978 0.0
C2217 C 0.06115 0.73078 0.38207 0.0
C2218 C 0.06386 0.70484 0.43769 0.0
C2219 C 0.08405 0.76056 0.39478 0.0
C2220 C 0.08654 0.76221 0.46377 0.0
C2221 C 0.10393 0.7662 0.46689 0.0
C2222 C 0.07634 0.75083 0.44779 0.0
C2223 C 0.08392 0.74373 0.43429 0.0
C2224 C 0.10153 0.74783 0.43748 0.0
C2225 C 0.11122 0.75877 0.45394 0.0
C2226 C 0.05752 0.74657 0.4452 0.0
C2227 C 0.11029 0.7408 0.42355 0.0
H2228 H 0.04367 0.69018 0.40378 0.0
H2229 H 0.05994 0.73712 0.36821 0.0
H2230 H 0.07752 0.70821 0.44147 0.0
H2231 H 0.05895 0.70932 0.45078 0.0
H2232 H 0.05577 0.69029 0.43632 0.0
H2233 H 0.08316 0.76466 0.37878 0.0
H2234 H 0.07987 0.76762 0.40555 0.0
H2235 H 0.09797 0.76475 0.39836 0.0
H2236 H 0.08092 0.76796 0.47389 0.0
H2237 H 0.12474 0.76198 0.45631 0.0
H2238 H 0.04875 0.73208 0.44488 0.0
H2239 H 0.05584 0.75184 0.43027 0.0
H2240 H 0.05328 0.75222 0.45777 0.0
H2241 H 0.10578 0.7269 0.42772 0.0
H2242 H 0.1248 0.74826 0.42512 0.0
H2243 H 0.10673 0.7413 0.40725 0.0
C2244 C 0.32632 0.04174 0.74262 0.0
C2245 C 0.33434 0.05319 0.72603 0.0
C2246 C 0.32128 0.04744 0.76024 0.0
C2247 C 0.32371 0.06473 0.76083 0.0
C2248 C 0.33153 0.0762 0.74392 0.0
C2249 C 0.33706 0.0704 0.72693 0.0
C2250 C 0.31364 0.03508 0.7783 0.0
C2251 C 0.33387 0.09457 0.74363 0.0
C2252 C 0.29652 0.07651 0.79575 0.0
C2253 C 0.30912 0.08771 0.81021 0.0
C2254 C 0.30092 0.06848 0.77993 0.0
C2255 C 0.31815 0.07105 0.77901 0.0
C2256 C 0.33055 0.08118 0.79442 0.0
C2257 C 0.32602 0.08966 0.80955 0.0
C2258 C 0.28741 0.0581 0.76352 0.0
C2259 C 0.3489 0.08377 0.79437 0.0
H2260 H 0.32436 0.02847 0.74198 0.0
H2261 H 0.34314 0.07923 0.71412 0.0
H2262 H 0.32167 0.04121 0.79235 0.0
H2263 H 0.30022 0.03265 0.78147 0.0
H2264 H 0.31304 0.02223 0.7756 0.0
H2265 H 0.33932 0.10147 0.72882 0.0
H2266 H 0.32109 0.09398 0.74619 0.0
H2267 H 0.34282 0.10253 0.75631 0.0
H2268 H 0.28327 0.07435 0.79638 0.0
H2269 H 0.33604 0.09837 0.82032 0.0
H2270 H 0.2861 0.04488 0.76166 0.0
H2271 H 0.29174 0.06497 0.74849 0.0
H2272 H 0.27433 0.05648 0.76708 0.0
H2273 H 0.34858 0.07104 0.79173 0.0
H2274 H 0.35599 0.08954 0.80908 0.0
H2275 H 0.35645 0.09274 0.78162 0.0
C2276 C 0.94088 0.26806 0.71853 0.0
C2277 C 0.95916 0.27575 0.71895 0.0
C2278 C 0.9306 0.25631 0.73399 0.0
C2279 C 0.9388 0.25204 0.7502 0.0
C2280 C 0.95728 0.25954 0.75045 0.0
C2281 C 0.96727 0.27165 0.73507 0.0
C2282 C 0.91098 0.24891 0.73334 0.0
C2283 C 0.9665 0.25503 0.76717 0.0
C2284 C 0.91435 0.23629 0.80089 0.0
C2285 C 0.90613 0.2179 0.79873 0.0
C2286 C 0.92508 0.24755 0.78527 0.0
C2287 C 0.92804 0.24029 0.76726 0.0
C2288 C 0.9201 0.22179 0.76522 0.0
C2289 C 0.90916 0.21086 0.78081 0.0
C2290 C 0.93289 0.26721 0.78784 0.0
C2291 C 0.9232 0.21347 0.74661 0.0
H2292 H 0.93466 0.27157 0.7063 0.0
H2293 H 0.98145 0.27827 0.73594 0.0
H2294 H 0.90422 0.23431 0.73301 0.0
H2295 H 0.90672 0.25282 0.74748 0.0
H2296 H 0.90665 0.25355 0.71968 0.0
H2297 H 0.98087 0.26144 0.76469 0.0
H2298 H 0.96418 0.25921 0.7824 0.0
H2299 H 0.9611 0.24055 0.76781 0.0
H2300 H 0.91236 0.24195 0.81475 0.0
H2301 H 0.90266 0.19672 0.77866 0.0
H2302 H 0.92834 0.27253 0.77507 0.0
H2303 H 0.94738 0.27378 0.787 0.0
H2304 H 0.92925 0.27076 0.80272 0.0
H2305 H 0.92065 0.21878 0.73223 0.0
H2306 H 0.91489 0.1989 0.74646 0.0
H2307 H 0.93712 0.21676 0.74667 0.0
C2308 C 0.72548 0.6935 0.72943 0.0
C2309 C 0.72125 0.67994 0.71518 0.0
C2310 C 0.73789 0.697 0.7452 0.0
C2311 C 0.7456 0.68611 0.74733 0.0
C2312 C 0.74117 0.67223 0.73309 0.0
C2313 C 0.72909 0.66937 0.71715 0.0
C2314 C 0.74253 0.71216 0.75976 0.0
C2315 C 0.74884 0.66012 0.735 0.0
C2316 C 0.78777 0.70143 0.77818 0.0
C2317 C 0.78153 0.69356 0.79745 0.0
C2318 C 0.77625 0.69933 0.76193 0.0
C2319 C 0.75796 0.68888 0.76474 0.0
C2320 C 0.75151 0.68074 0.78407 0.0
C2321 C 0.76335 0.68331 0.80024 0.0
C2322 C 0.78376 0.70857 0.74186 0.0
C2323 C 0.73212 0.66907 0.78757 0.0
H2324 H 0.71875 0.7011 0.72854 0.0
H2325 H 0.7255 0.6586 0.7064 0.0
H2326 H 0.73891 0.7072 0.77574 0.0
H2327 H 0.7569 0.72123 0.75968 0.0
H2328 H 0.7358 0.71972 0.75559 0.0
H2329 H 0.74391 0.64985 0.72279 0.0
H2330 H 0.76334 0.66784 0.73405 0.0
H2331 H 0.74558 0.65354 0.75027 0.0
H2332 H 0.80175 0.70905 0.77559 0.0
H2333 H 0.75833 0.67729 0.81509 0.0
H2334 H 0.78071 0.71942 0.74016 0.0
H2335 H 0.77774 0.69944 0.72865 0.0
H2336 H 0.79821 0.71428 0.7412 0.0
H2337 H 0.72517 0.67665 0.78508 0.0
H2338 H 0.72924 0.66343 0.80337 0.0
H2339 H 0.7267 0.65808 0.77626 0.0
C2340 C 0.72884 0.67783 0.61717 0.0
C2341 C 0.71314 0.66684 0.62748 0.0
C2342 C 0.73515 0.67124 0.60175 0.0
C2343 C 0.72552 0.6532 0.59633 0.0
C2344 C 0.70945 0.64209 0.60622 0.0
C2345 C 0.70345 0.64903 0.62171 0.0
C2346 C 0.75237 0.68354 0.59159 0.0
C2347 C 0.69879 0.6228 0.60075 0.0
C2348 C 0.7384 0.64246 0.54491 0.0
C2349 C 0.75061 0.63732 0.55107 0.0
C2350 C 0.72939 0.64678 0.55952 0.0
C2351 C 0.73276 0.64603 0.58079 0.0
C2352 C 0.74443 0.64002 0.5871 0.0
C2353 C 0.75319 0.63572 0.57216 0.0
C2354 C 0.71693 0.65296 0.55217 0.0
C2355 C 0.74842 0.63909 0.60962 0.0
H2356 H 0.73647 0.6916 0.62142 0.0
H2357 H 0.69131 0.6404 0.62952 0.0
H2358 H 0.76198 0.679 0.59468 0.0
H2359 H 0.75055 0.68343 0.57463 0.0
H2360 H 0.75802 0.69732 0.59719 0.0
H2361 H 0.68609 0.61616 0.60898 0.0
H2362 H 0.69615 0.62122 0.58391 0.0
H2363 H 0.70632 0.61602 0.60472 0.0
H2364 H 0.73617 0.64349 0.52862 0.0
H2365 H 0.76273 0.63192 0.57704 0.0
H2366 H 0.72259 0.6672 0.55561 0.0
H2367 H 0.7043 0.64588 0.56044 0.0
H2368 H 0.7143 0.65097 0.53532 0.0
H2369 H 0.75562 0.6526 0.61614 0.0
H2370 H 0.7565 0.63262 0.61204 0.0
H2371 H 0.7361 0.63175 0.61842 0.0
C2372 C 0.34819 0.05669 0.62025 0.0
C2373 C 0.33761 0.05521 0.637 0.0
C2374 C 0.34919 0.06691 0.603 0.0
C2375 C 0.33915 0.0756 0.60246 0.0
C2376 C 0.32876 0.07445 0.61962 0.0
C2377 C 0.32796 0.06407 0.63661 0.0
C2378 C 0.36049 0.06786 0.58509 0.0
C2379 C 0.31814 0.0838 0.61983 0.0
C2380 C 0.35112 0.11255 0.56389 0.0
C2381 C 0.33829 0.10419 0.54863 0.0
C2382 C 0.35148 0.10344 0.58151 0.0
C2383 C 0.339 0.08539 0.58368 0.0
C2384 C 0.32612 0.07679 0.56805 0.0
C2385 C 0.32576 0.0864 0.55078 0.0
C2386 C 0.36507 0.11324 0.5979 0.0
C2387 C 0.31269 0.0575 0.56967 0.0
H2388 H 0.3552 0.04935 0.62033 0.0
H2389 H 0.31961 0.06268 0.64953 0.0
H2390 H 0.35213 0.06179 0.57126 0.0
H2391 H 0.36981 0.0818 0.58127 0.0
H2392 H 0.3681 0.06102 0.58838 0.0
H2393 H 0.31166 0.08248 0.63488 0.0
H2394 H 0.32666 0.09801 0.61647 0.0
H2395 H 0.30791 0.07831 0.60759 0.0
H2396 H 0.36062 0.12642 0.56226 0.0
H2397 H 0.31579 0.08004 0.53893 0.0
H2398 H 0.3737 0.10737 0.59945 0.0
H2399 H 0.35859 0.11191 0.61291 0.0
H2400 H 0.37332 0.12747 0.59434 0.0
H2401 H 0.31936 0.04958 0.57164 0.0
H2402 H 0.304 0.05264 0.55586 0.0
H2403 H 0.30447 0.05525 0.58347 0.0
C2404 C 0.95008 0.29036 0.62424 0.0
C2405 C 0.95993 0.28228 0.63004 0.0
C2406 C 0.93821 0.28392 0.60758 0.0
C2407 C 0.93619 0.26911 0.59642 0.0
C2408 C 0.9467 0.26144 0.60155 0.0
C2409 C 0.95839 0.26809 0.6183 0.0
C2410 C 0.92722 0.29242 0.60257 0.0
C2411 C 0.945 0.24568 0.58995 0.0
C2412 C 0.89242 0.23726 0.57224 0.0
C2413 C 0.89557 0.24124 0.55122 0.0
C2414 C 0.90535 0.24669 0.58712 0.0
C2415 C 0.9219 0.26041 0.58084 0.0
C2416 C 0.92499 0.26494 0.55969 0.0
C2417 C 0.91172 0.25531 0.54509 0.0
C2418 C 0.90146 0.24154 0.60953 0.0
C2419 C 0.94249 0.27948 0.55244 0.0
H2420 H 0.95119 0.30136 0.63314 0.0
H2421 H 0.96603 0.26183 0.62248 0.0
H2422 H 0.92755 0.29511 0.5858 0.0
H2423 H 0.91337 0.28328 0.60662 0.0
H2424 H 0.93171 0.30496 0.61112 0.0
H2425 H 0.95522 0.2423 0.5946 0.0
H2426 H 0.93195 0.23409 0.59289 0.0
H2427 H 0.94594 0.2482 0.57311 0.0
H2428 H 0.87982 0.22658 0.57704 0.0
H2429 H 0.91418 0.25836 0.52883 0.0
H2430 H 0.90427 0.25323 0.619 0.0
H2431 H 0.91007 0.23644 0.6153 0.0
H2432 H 0.8876 0.23127 0.61195 0.0
H2433 H 0.94644 0.2917 0.56139 0.0
H2434 H 0.94229 0.28238 0.53578 0.0
H2435 H 0.95266 0.27562 0.55513 0.0
C2436 C 0.35506 0.29287 0.62253 0.0
C2437 C 0.34436 0.28427 0.63938 0.0
C2438 C 0.35689 0.28324 0.60636 0.0
C2439 C 0.34745 0.26459 0.6069 0.0
C2440 C 0.33698 0.25589 0.62422 0.0
C2441 C 0.33543 0.26586 0.64017 0.0
C2442 C 0.36831 0.29304 0.5883 0.0
C2443 C 0.32682 0.23604 0.62552 0.0
C2444 C 0.33429 0.23913 0.55637 0.0
C2445 C 0.34679 0.23362 0.5549 0.0
C2446 C 0.33459 0.24952 0.57302 0.0
C2447 C 0.34746 0.25416 0.58876 0.0
C2448 C 0.36001 0.24848 0.58731 0.0
C2449 C 0.35966 0.23846 0.57028 0.0
C2450 C 0.32101 0.25538 0.5739 0.0
C2451 C 0.37365 0.25275 0.60388 0.0
H2452 H 0.36148 0.30711 0.62164 0.0
H2453 H 0.32694 0.25926 0.65311 0.0
H2454 H 0.3778 0.28839 0.58528 0.0
H2455 H 0.36005 0.29033 0.57423 0.0
H2456 H 0.3757 0.3075 0.59092 0.0
H2457 H 0.32056 0.23137 0.64078 0.0
H2458 H 0.31645 0.23077 0.61343 0.0
H2459 H 0.33558 0.23047 0.62265 0.0
H2460 H 0.32433 0.23533 0.54443 0.0
H2461 H 0.36916 0.23396 0.56925 0.0
H2462 H 0.32755 0.26995 0.57505 0.0
H2463 H 0.31289 0.24992 0.58787 0.0
H2464 H 0.31223 0.25109 0.56014 0.0
H2465 H 0.3817 0.2672 0.60538 0.0
H2466 H 0.38243 0.24726 0.60056 0.0
H2467 H 0.36718 0.24748 0.61888 0.0
C2468 C 0.70514 0.05966 0.61784 0.0
C2469 C 0.71201 0.04841 0.62194 0.0
C2470 C 0.71248 0.07276 0.60258 0.0
C2471 C 0.72698 0.07461 0.59116 0.0
C2472 C 0.73331 0.06267 0.59444 0.0
C2473 C 0.72578 0.04976 0.60976 0.0
C2474 C 0.70531 0.08519 0.59943 0.0
C2475 C 0.74869 0.0641 0.58253 0.0
C2476 C 0.7441 0.10249 0.54274 0.0
C2477 C 0.75895 0.11742 0.55052 0.0
C2478 C 0.73297 0.08873 0.55592 0.0
C2479 C 0.7368 0.09 0.57732 0.0
C2480 C 0.75123 0.10548 0.58534 0.0
C2481 C 0.76211 0.11897 0.57185 0.0
C2482 C 0.71767 0.07247 0.5468 0.0
C2483 C 0.75573 0.10744 0.60807 0.0
H2484 H 0.6945 0.05873 0.62712 0.0
H2485 H 0.73108 0.04103 0.61259 0.0
H2486 H 0.71488 0.09841 0.60545 0.0
H2487 H 0.70336 0.08667 0.58277 0.0
H2488 H 0.69266 0.08062 0.60748 0.0
H2489 H 0.75105 0.0529 0.58566 0.0
H2490 H 0.7465 0.0646 0.56573 0.0
H2491 H 0.76071 0.07651 0.58678 0.0
H2492 H 0.74163 0.10121 0.52625 0.0
H2493 H 0.77338 0.13065 0.57797 0.0
H2494 H 0.70562 0.06861 0.55583 0.0
H2495 H 0.72041 0.06134 0.54752 0.0
H2496 H 0.71512 0.07444 0.53046 0.0
H2497 H 0.74407 0.1047 0.6173 0.0
H2498 H 0.76651 0.12084 0.61203 0.0
H2499 H 0.75979 0.09771 0.61271 0.0
C2500 C 0.93555 0.63948 0.62036 0.0
C2501 C 0.93897 0.6526 0.63495 0.0
C2502 C 0.92324 0.63575 0.60443 0.0
C2503 C 0.91481 0.646 0.60252 0.0
C2504 C 0.9184 0.65942 0.61713 0.0
C2505 C 0.9304 0.6625 0.63322 0.0
C2506 C 0.91949 0.62108 0.58945 0.0
C2507 C 0.90995 0.67085 0.61545 0.0
C2508 C 0.89756 0.64938 0.54961 0.0
C2509 C 0.87941 0.63851 0.55192 0.0
C2510 C 0.90924 0.65192 0.56593 0.0
C2511 C 0.90265 0.64311 0.5849 0.0
C2512 C 0.8844 0.63197 0.58719 0.0
C2513 C 0.87304 0.6299 0.57079 0.0
C2514 C 0.92859 0.66431 0.56303 0.0
C2515 C 0.87681 0.62206 0.60689 0.0
H2516 H 0.94284 0.63243 0.62111 0.0
H2517 H 0.93338 0.67293 0.64426 0.0
H2518 H 0.90523 0.61152 0.58914 0.0
H2519 H 0.92321 0.62646 0.57365 0.0
H2520 H 0.92669 0.61397 0.59351 0.0
H2521 H 0.9142 0.68076 0.62803 0.0
H2522 H 0.9133 0.67786 0.60043 0.0
H2523 H 0.89548 0.66257 0.6159 0.0
H2524 H 0.90268 0.65598 0.53504 0.0
H2525 H 0.85904 0.62177 0.57299 0.0
H2526 H 0.93602 0.6572 0.5655 0.0
H2527 H 0.93337 0.67504 0.57465 0.0
H2528 H 0.93159 0.67029 0.5474 0.0
H2529 H 0.88076 0.61187 0.60858 0.0
H2530 H 0.86227 0.61546 0.60705 0.0
H2531 H 0.882 0.63102 0.62037 0.0
C2532 C 0.95594 0.68186 0.72992 0.0
C2533 C 0.9463 0.66427 0.72328 0.0
C2534 C 0.94979 0.68822 0.74585 0.0
C2535 C 0.93361 0.67675 0.7553 0.0
C2536 C 0.92404 0.65892 0.74902 0.0
C2537 C 0.93051 0.6529 0.73316 0.0
C2538 C 0.96039 0.7073 0.75223 0.0
C2539 C 0.9067 0.64627 0.7587 0.0
C2540 C 0.92051 0.68677 0.80702 0.0
C2541 C 0.9087 0.69247 0.80098 0.0
C2542 C 0.92931 0.68229 0.79231 0.0
C2543 C 0.92615 0.68347 0.77107 0.0
C2544 C 0.91475 0.68985 0.76489 0.0
C2545 C 0.90618 0.69428 0.77992 0.0
C2546 C 0.94148 0.67569 0.79949 0.0
C2547 C 0.91099 0.69123 0.74239 0.0
H2548 H 0.96818 0.69076 0.72248 0.0
H2549 H 0.92292 0.63929 0.72822 0.0
H2550 H 0.95295 0.71423 0.74858 0.0
H2551 H 0.96274 0.70831 0.76914 0.0
H2552 H 0.97323 0.7142 0.74433 0.0
H2553 H 0.90121 0.63267 0.75259 0.0
H2554 H 0.90827 0.64594 0.77566 0.0
H2555 H 0.89709 0.65083 0.75574 0.0
H2556 H 0.92266 0.68556 0.82329 0.0
H2557 H 0.89692 0.69846 0.77513 0.0
H2558 H 0.9543 0.683 0.79167 0.0
H2559 H 0.93582 0.66159 0.7953 0.0
H2560 H 0.94372 0.67703 0.81643 0.0
H2561 H 0.92341 0.69889 0.73386 0.0
H2562 H 0.90281 0.69761 0.74014 0.0
H2563 H 0.90401 0.67787 0.73544 0.0
C2564 C 0.3219 0.27632 0.73504 0.0
C2565 C 0.33926 0.28457 0.72802 0.0
C2566 C 0.31645 0.26411 0.7513 0.0
C2567 C 0.32864 0.26006 0.76081 0.0
C2568 C 0.3463 0.26881 0.75434 0.0
C2569 C 0.3514 0.28093 0.73806 0.0
C2570 C 0.2975 0.25507 0.75778 0.0
C2571 C 0.35971 0.26489 0.76414 0.0
C2572 C 0.31818 0.23613 0.81235 0.0
C2573 C 0.31265 0.21875 0.80616 0.0
C2574 C 0.32321 0.24971 0.79777 0.0
C2575 C 0.3227 0.24581 0.77651 0.0
C2576 C 0.31692 0.22826 0.77017 0.0
C2577 C 0.31201 0.21498 0.78505 0.0
C2578 C 0.32926 0.26825 0.80511 0.0
C2579 C 0.31622 0.22356 0.74766 0.0
H2580 H 0.31239 0.27903 0.72749 0.0
H2581 H 0.36485 0.28723 0.73288 0.0
H2582 H 0.2912 0.24083 0.75404 0.0
H2583 H 0.29658 0.2562 0.7747 0.0
H2584 H 0.28999 0.26066 0.74997 0.0
H2585 H 0.37315 0.27367 0.75833 0.0
H2586 H 0.35981 0.26634 0.78113 0.0
H2587 H 0.35619 0.25104 0.76088 0.0
H2588 H 0.31854 0.23911 0.82861 0.0
H2589 H 0.30805 0.20167 0.78013 0.0
H2590 H 0.3212 0.27339 0.7978 0.0
H2591 H 0.34303 0.27702 0.8004 0.0
H2592 H 0.32846 0.26902 0.82213 0.0
H2593 H 0.30792 0.22771 0.73893 0.0
H2594 H 0.31092 0.20921 0.74525 0.0
H2595 H 0.32957 0.2307 0.74104 0.0
C2596 C 0.72254 0.03659 0.72572 0.0
C2597 C 0.71876 0.04572 0.71055 0.0
C2598 C 0.73452 0.04564 0.74175 0.0
C2599 C 0.74223 0.06419 0.74316 0.0
C2600 C 0.73827 0.07344 0.72795 0.0
C2601 C 0.72663 0.06408 0.71179 0.0
C2602 C 0.73868 0.03532 0.75737 0.0
C2603 C 0.74589 0.09317 0.7291 0.0
C2604 C 0.75786 0.08542 0.79599 0.0
C2605 C 0.77615 0.09333 0.79423 0.0
C2606 C 0.74667 0.07593 0.7795 0.0
C2607 C 0.7539 0.07391 0.76094 0.0
C2608 C 0.77229 0.08162 0.7592 0.0
C2609 C 0.78315 0.09131 0.77572 0.0
C2610 C 0.72714 0.06835 0.78181 0.0
C2611 C 0.78057 0.07951 0.73997 0.0
H2612 H 0.71577 0.02232 0.72535 0.0
H2613 H 0.72336 0.0711 0.70031 0.0
H2614 H 0.73453 0.03694 0.77292 0.0
H2615 H 0.73209 0.02104 0.75364 0.0
H2616 H 0.75305 0.04048 0.75809 0.0
H2617 H 0.7415 0.09837 0.71604 0.0
H2618 H 0.74197 0.09674 0.74375 0.0
H2619 H 0.76041 0.09979 0.72908 0.0
H2620 H 0.75223 0.08667 0.81025 0.0
H2621 H 0.79723 0.09762 0.7739 0.0
H2622 H 0.72034 0.05386 0.77973 0.0
H2623 H 0.72213 0.07376 0.76966 0.0
H2624 H 0.72363 0.07132 0.79712 0.0
H2625 H 0.77715 0.06553 0.7386 0.0
H2626 H 0.79508 0.08774 0.74021 0.0
H2627 H 0.7754 0.08297 0.72611 0.0
C2628 C 0.05481 0.35017 0.03661 0.0
C2629 C 0.03701 0.3407 0.03098 0.0
C2630 C 0.0626 0.34249 0.04859 0.0
C2631 C 0.05243 0.32479 0.05504 0.0
C2632 C 0.03461 0.3149 0.04893 0.0
C2633 C 0.02706 0.32301 0.03702 0.0
C2634 C 0.08166 0.35354 0.05477 0.0
C2635 C 0.02346 0.29593 0.05534 0.0
C2636 C 0.08189 0.30719 0.07334 0.0
C2637 C 0.08329 0.31118 0.09445 0.0
C2638 C 0.07058 0.31005 0.06046 0.0
C2639 C 0.06059 0.31721 0.06889 0.0
C2640 C 0.06092 0.31991 0.09043 0.0
C2641 C 0.07222 0.3168 0.10296 0.0
C2642 C 0.07043 0.30678 0.0376 0.0
C2643 C 0.05045 0.3275 0.10005 0.0
H2644 H 0.06272 0.3638 0.03197 0.0
H2645 H 0.01333 0.31555 0.03268 0.0
H2646 H 0.08286 0.3547 0.07182 0.0
H2647 H 0.08919 0.34711 0.04964 0.0
H2648 H 0.0878 0.36701 0.04813 0.0
H2649 H 0.01033 0.28961 0.04782 0.0
H2650 H 0.03009 0.28828 0.05145 0.0
H2651 H 0.0217 0.29518 0.07229 0.0
H2652 H 0.0904 0.30286 0.06662 0.0
H2653 H 0.07293 0.31948 0.11936 0.0
H2654 H 0.07816 0.31954 0.02954 0.0
H2655 H 0.05687 0.3005 0.03128 0.0
H2656 H 0.07621 0.29827 0.03405 0.0
H2657 H 0.05633 0.34161 0.09581 0.0
H2658 H 0.05022 0.32649 0.11713 0.0
H2659 H 0.03677 0.32069 0.09413 0.0
C2660 C 0.67735 0.70047 0.05035 0.0
C2661 C 0.66406 0.69341 0.03531 0.0
C2662 C 0.68192 0.71656 0.06 0.0
C2663 C 0.67266 0.72555 0.05483 0.0
C2664 C 0.65953 0.71869 0.03926 0.0
C2665 C 0.65553 0.70279 0.02951 0.0
C2666 C 0.69629 0.72368 0.07616 0.0
C2667 C 0.64911 0.72769 0.0336 0.0
C2668 C 0.6687 0.75396 0.09622 0.0
C2669 C 0.68012 0.77107 0.08914 0.0
C2670 C 0.66617 0.73909 0.08517 0.0
C2671 C 0.67566 0.74131 0.06684 0.0
C2672 C 0.68763 0.75847 0.05989 0.0
C2673 C 0.68959 0.77316 0.071 0.0
C2674 C 0.65314 0.721 0.093 0.0
C2675 C 0.69824 0.76132 0.04063 0.0
H2676 H 0.68408 0.69331 0.05473 0.0
H2677 H 0.6452 0.69733 0.01794 0.0
H2678 H 0.7058 0.73771 0.07302 0.0
H2679 H 0.6906 0.72306 0.09154 0.0
H2680 H 0.70346 0.71614 0.07679 0.0
H2681 H 0.64001 0.72117 0.02042 0.0
H2682 H 0.64134 0.72757 0.04706 0.0
H2683 H 0.65804 0.74167 0.02956 0.0
H2684 H 0.66168 0.75211 0.11048 0.0
H2685 H 0.69832 0.78627 0.06524 0.0
H2686 H 0.65982 0.71324 0.09617 0.0
H2687 H 0.64295 0.7138 0.08104 0.0
H2688 H 0.64657 0.72157 0.10732 0.0
H2689 H 0.70548 0.75389 0.04166 0.0
H2690 H 0.70778 0.77546 0.03802 0.0
H2691 H 0.68937 0.75622 0.02702 0.0
C2692 C 0.30088 0.95199 0.03991 0.0
C2693 C 0.30909 0.97003 0.04441 0.0
C2694 C 0.28567 0.9399 0.05031 0.0
C2695 C 0.27825 0.94607 0.06521 0.0
C2696 C 0.28615 0.96437 0.06928 0.0
C2697 C 0.30161 0.97611 0.05902 0.0
C2698 C 0.27786 0.92048 0.04584 0.0
C2699 C 0.27842 0.97151 0.08468 0.0
C2700 C 0.23102 0.91507 0.08067 0.0
C2701 C 0.23319 0.90855 0.09968 0.0
C2702 C 0.24552 0.92752 0.06947 0.0
C2703 C 0.26267 0.93331 0.07717 0.0
C2704 C 0.265 0.92678 0.09625 0.0
C2705 C 0.25027 0.9147 0.10737 0.0
C2706 C 0.2425 0.93442 0.04935 0.0
C2707 C 0.28307 0.93245 0.10489 0.0
H2708 H 0.30668 0.94722 0.02871 0.0
H2709 H 0.30785 0.99007 0.06244 0.0
H2710 H 0.27819 0.9135 0.06004 0.0
H2711 H 0.26393 0.91478 0.04109 0.0
H2712 H 0.28499 0.91785 0.0335 0.0
H2713 H 0.28543 0.98614 0.08501 0.0
H2714 H 0.2644 0.96672 0.08094 0.0
H2715 H 0.27899 0.96666 0.10035 0.0
H2716 H 0.21797 0.91029 0.07435 0.0
H2717 H 0.2522 0.91014 0.12222 0.0
H2718 H 0.24825 0.93067 0.03649 0.0
H2719 H 0.24916 0.94903 0.04975 0.0
H2720 H 0.22835 0.92928 0.046 0.0
H2721 H 0.29073 0.92949 0.09363 0.0
H2722 H 0.28265 0.92578 0.11967 0.0
H2723 H 0.29022 0.94689 0.10751 0.0
C2724 C 0.32244 0.02725 0.98369 0.0
C2725 C 0.34082 0.03661 0.98493 0.0
C2726 C 0.31313 0.03436 0.97336 0.0
C2727 C 0.32245 0.05115 0.96398 0.0
C2728 C 0.34099 0.06043 0.96477 0.0
C2729 C 0.34991 0.05309 0.97523 0.0
C2730 C 0.29336 0.0241 0.97283 0.0
C2731 C 0.35145 0.07832 0.95486 0.0
C2732 C 0.30402 0.06837 0.92247 0.0
C2733 C 0.3017 0.08085 0.93353 0.0
C2734 C 0.30968 0.05769 0.93241 0.0
C2735 C 0.31306 0.05954 0.95392 0.0
C2736 C 0.30958 0.07127 0.96535 0.0
C2737 C 0.30398 0.08181 0.95501 0.0
C2738 C 0.31322 0.04535 0.91967 0.0
C2739 C 0.31286 0.07354 0.98832 0.0
H2740 H 0.31528 0.01452 0.99114 0.0
H2741 H 0.3641 0.0604 0.9759 0.0
H2742 H 0.28805 0.03144 0.98132 0.0
H2743 H 0.2885 0.02257 0.9567 0.0
H2744 H 0.28811 0.01082 0.97984 0.0
H2745 H 0.36581 0.08354 0.95626 0.0
H2746 H 0.34797 0.07758 0.93827 0.0
H2747 H 0.34824 0.08785 0.96219 0.0
H2748 H 0.30239 0.06764 0.90584 0.0
H2749 H 0.30194 0.09125 0.96366 0.0
H2750 H 0.30773 0.03227 0.92718 0.0
H2751 H 0.32758 0.05074 0.91842 0.0
H2752 H 0.30761 0.04357 0.90385 0.0
H2753 H 0.30692 0.06053 0.99608 0.0
H2754 H 0.30751 0.08151 0.99529 0.0
H2755 H 0.32718 0.08023 0.99144 0.0
C2756 C 0.97013 0.30195 0.95558 0.0
C2757 C 0.96729 0.30599 0.97559 0.0
C2758 C 0.95763 0.28657 0.94555 0.0
C2759 C 0.94196 0.27492 0.95584 0.0
C2760 C 0.93924 0.27865 0.97627 0.0
C2761 C 0.95194 0.29418 0.9859 0.0
C2762 C 0.96098 0.28305 0.92374 0.0
C2763 C 0.92274 0.26647 0.98778 0.0
C2764 C 0.90229 0.24583 0.92253 0.0
C2765 C 0.90239 0.2298 0.92291 0.0
C2766 C 0.91501 0.26057 0.93334 0.0
C2767 C 0.9281 0.25922 0.94487 0.0
C2768 C 0.92815 0.24301 0.94553 0.0
C2769 C 0.9153 0.2285 0.9345 0.0
C2770 C 0.9146 0.27766 0.93215 0.0
C2771 C 0.94182 0.24105 0.95779 0.0
H2772 H 0.98197 0.31101 0.94751 0.0
H2773 H 0.94969 0.2972 0.00139 0.0
H2774 H 0.9599 0.26985 0.92271 0.0
H2775 H 0.95091 0.28301 0.91322 0.0
H2776 H 0.97413 0.29305 0.91822 0.0
H2777 H 0.92307 0.27076 0.00396 0.0
H2778 H 0.91123 0.26595 0.97982 0.0
H2779 H 0.92077 0.25289 0.98787 0.0
H2780 H 0.89246 0.24695 0.91341 0.0
H2781 H 0.91529 0.21607 0.93503 0.0
H2782 H 0.92692 0.28805 0.92523 0.0
H2783 H 0.91377 0.28215 0.94787 0.0
H2784 H 0.90336 0.27642 0.92281 0.0
H2785 H 0.95506 0.25025 0.95182 0.0
H2786 H 0.93977 0.22744 0.95712 0.0
H2787 H 0.9416 0.24458 0.97416 0.0
C2788 C 0.69937 0.64311 0.9717 0.0
C2789 C 0.6936 0.6538 0.98112 0.0
C2790 C 0.71501 0.65047 0.96058 0.0
C2791 C 0.72529 0.669 0.95897 0.0
C2792 C 0.71958 0.67991 0.96835 0.0
C2793 C 0.70373 0.67217 0.97924 0.0
C2794 C 0.72056 0.63836 0.95064 0.0
C2795 C 0.73032 0.69972 0.96709 0.0
C2796 C 0.77282 0.68425 0.94688 0.0
C2797 C 0.77304 0.68643 0.92544 0.0
C2798 C 0.75759 0.67954 0.95818 0.0
C2799 C 0.74217 0.67676 0.94774 0.0
C2800 C 0.74254 0.67968 0.92621 0.0
C2801 C 0.75803 0.68458 0.91532 0.0
C2802 C 0.75778 0.67675 0.98116 0.0
C2803 C 0.72633 0.6767 0.91451 0.0
H2804 H 0.6916 0.62891 0.9729 0.0
H2805 H 0.69941 0.68053 0.98652 0.0
H2806 H 0.72245 0.64106 0.93385 0.0
H2807 H 0.7333 0.64084 0.95724 0.0
H2808 H 0.71082 0.62423 0.95286 0.0
H2809 H 0.72392 0.70635 0.97494 0.0
H2810 H 0.74339 0.70427 0.97428 0.0
H2811 H 0.73251 0.70396 0.95073 0.0
H2812 H 0.78451 0.68593 0.95476 0.0
H2813 H 0.75815 0.68616 0.89872 0.0
H2814 H 0.74954 0.66254 0.98473 0.0
H2815 H 0.75213 0.68389 0.98941 0.0
H2816 H 0.77122 0.68126 0.98723 0.0
H2817 H 0.71655 0.66245 0.91454 0.0
H2818 H 0.72922 0.68122 0.89825 0.0
H2819 H 0.72023 0.6837 0.92212 0.0
C2820 C 0.97758 0.67699 0.9526 0.0
C2821 C 0.97504 0.67051 0.97283 0.0
C2822 C 0.96552 0.68097 0.94306 0.0
C2823 C 0.95064 0.67856 0.9541 0.0
C2824 C 0.94824 0.67245 0.97471 0.0
C2825 C 0.96043 0.66841 0.9838 0.0
C2826 C 0.96847 0.68734 0.92101 0.0
C2827 C 0.93261 0.66987 0.98702 0.0
C2828 C 0.92607 0.70142 0.93408 0.0
C2829 C 0.91189 0.68762 0.92367 0.0
C2830 C 0.93872 0.69864 0.94424 0.0
C2831 C 0.93722 0.68172 0.94377 0.0
C2832 C 0.92295 0.66777 0.93323 0.0
C2833 C 0.91043 0.67088 0.92337 0.0
C2834 C 0.95367 0.71379 0.9555 0.0
C2835 C 0.921 0.64959 0.93219 0.0
H2836 H 0.98884 0.67862 0.94402 0.0
H2837 H 0.95843 0.66349 0.99948 0.0
H2838 H 0.95754 0.67777 0.91112 0.0
H2839 H 0.96858 0.70009 0.91986 0.0
H2840 H 0.98099 0.68906 0.91481 0.0
H2841 H 0.93314 0.66593 0.0032 0.0
H2842 H 0.93186 0.68221 0.98715 0.0
H2843 H 0.92037 0.65955 0.97968 0.0
H2844 H 0.92714 0.71434 0.93447 0.0
H2845 H 0.89961 0.66025 0.91509 0.0
H2846 H 0.96635 0.71642 0.94885 0.0
H2847 H 0.95378 0.71031 0.97195 0.0
H2848 H 0.9528 0.72606 0.95465 0.0
H2849 H 0.93267 0.65026 0.92478 0.0
H2850 H 0.90913 0.64018 0.92338 0.0
H2851 H 0.92023 0.64434 0.94798 0.0
C2852 C 0.34825 0.29796 0.97087 0.0
C2853 C 0.33826 0.30523 0.97852 0.0
C2854 C 0.34031 0.28158 0.96091 0.0
C2855 C 0.32187 0.2721 0.95855 0.0
C2856 C 0.31165 0.27934 0.96606 0.0
C2857 C 0.31997 0.29586 0.97592 0.0
C2858 C 0.35171 0.27438 0.95303 0.0
C2859 C 0.29194 0.26954 0.96388 0.0
C2860 C 0.30637 0.23684 0.91718 0.0
C2861 C 0.3034 0.22203 0.92879 0.0
C2862 C 0.31142 0.25307 0.92679 0.0
C2863 C 0.31349 0.25448 0.9485 0.0
C2864 C 0.30949 0.23931 0.96036 0.0
C2865 C 0.30455 0.22328 0.95035 0.0
C2866 C 0.31562 0.26893 0.91358 0.0
C2867 C 0.31138 0.24023 0.98356 0.0
H2868 H 0.36239 0.30506 0.97266 0.0
H2869 H 0.31212 0.30133 0.98179 0.0
H2870 H 0.34819 0.26172 0.96078 0.0
H2871 H 0.34945 0.27167 0.93625 0.0
H2872 H 0.36589 0.28359 0.9557 0.0
H2873 H 0.2859 0.27714 0.97013 0.0
H2874 H 0.28813 0.26655 0.9474 0.0
H2875 H 0.28643 0.25677 0.97211 0.0
H2876 H 0.30562 0.23597 0.9005 0.0
H2877 H 0.302 0.21179 0.95939 0.0
H2878 H 0.32998 0.27807 0.91385 0.0
H2879 H 0.30926 0.27621 0.91977 0.0
H2880 H 0.31135 0.26525 0.8973 0.0
H2881 H 0.32546 0.24794 0.98786 0.0
H2882 H 0.30584 0.22695 0.99065 0.0
H2883 H 0.30475 0.24709 0.99021 0.0
C2884 C 0.7034 0.04542 0.98804 0.0
C2885 C 0.69131 0.02978 0.97813 0.0
C2886 C 0.71848 0.058 0.97785 0.0
C2887 C 0.72142 0.0549 0.95724 0.0
C2888 C 0.70944 0.03898 0.94732 0.0
C2889 C 0.69456 0.02658 0.95792 0.0
C2890 C 0.73107 0.07476 0.98898 0.0
C2891 C 0.7121 0.03523 0.92532 0.0
C2892 C 0.74946 0.09403 0.923 0.0
C2893 C 0.76525 0.09364 0.92263 0.0
C2894 C 0.73514 0.08159 0.93437 0.0
C2895 C 0.73672 0.06854 0.94575 0.0
C2896 C 0.75272 0.06824 0.94568 0.0
C2897 C 0.76678 0.08077 0.93404 0.0
C2898 C 0.71823 0.08222 0.93393 0.0
C2899 C 0.75494 0.05463 0.95778 0.0
H2900 H 0.70098 0.04794 0.00369 0.0
H2901 H 0.68526 0.01453 0.95015 0.0
H2902 H 0.74452 0.07662 0.9886 0.0
H2903 H 0.73143 0.08623 0.98107 0.0
H2904 H 0.72736 0.07476 0.00531 0.0
H2905 H 0.70182 0.022 0.92003 0.0
H2906 H 0.71195 0.0453 0.91493 0.0
H2907 H 0.72509 0.03608 0.92375 0.0
H2908 H 0.74818 0.10386 0.91403 0.0
H2909 H 0.77906 0.08058 0.93398 0.0
H2910 H 0.71439 0.08342 0.94984 0.0
H2911 H 0.70755 0.06978 0.92736 0.0
H2912 H 0.71926 0.09341 0.92463 0.0
H2913 H 0.752 0.05518 0.97428 0.0
H2914 H 0.7684 0.05655 0.95662 0.0
H2915 H 0.74551 0.04124 0.95207 0.0
C2916 C 0.65127 0.9445 0.04343 0.0
C2917 C 0.66023 0.96179 0.03582 0.0
C2918 C 0.66003 0.93734 0.05451 0.0
C2919 C 0.67829 0.94765 0.05806 0.0
C2920 C 0.68756 0.96501 0.0502 0.0
C2921 C 0.67839 0.97192 0.0392 0.0
C2922 C 0.64961 0.91876 0.06269 0.0
C2923 C 0.70706 0.97628 0.05357 0.0
C2924 C 0.69094 0.92997 0.10429 0.0
C2925 C 0.69469 0.91774 0.09496 0.0
C2926 C 0.68717 0.94114 0.09237 0.0
C2927 C 0.68724 0.94008 0.0706 0.0
C2928 C 0.69279 0.92906 0.06116 0.0
C2929 C 0.69642 0.91795 0.07348 0.0
C2930 C 0.68143 0.95278 0.10307 0.0
C2931 C 0.69327 0.92772 0.038 0.0
H2932 H 0.63726 0.93649 0.04093 0.0
H2933 H 0.68546 0.98526 0.03332 0.0
H2934 H 0.65497 0.91051 0.05666 0.0
H2935 H 0.65069 0.91884 0.07976 0.0
H2936 H 0.6355 0.91246 0.05838 0.0
H2937 H 0.71249 0.98914 0.04549 0.0
H2938 H 0.70997 0.97879 0.07029 0.0
H2939 H 0.71393 0.96928 0.04808 0.0
H2940 H 0.68998 0.93011 0.12094 0.0
H2941 H 0.69933 0.90854 0.06617 0.0
H2942 H 0.667 0.94685 0.10153 0.0
H2943 H 0.68747 0.96601 0.09586 0.0
H2944 H 0.68487 0.95433 0.11976 0.0
H2945 H 0.6797 0.91968 0.03197 0.0
H2946 H 0.70101 0.9214 0.03321 0.0
H2947 H 0.69892 0.94092 0.03076 0.0
C2948 C 0.03568 0.70614 0.04527 0.0
C2949 C 0.04327 0.70512 0.02681 0.0
C2950 C 0.04439 0.72091 0.05819 0.0
C2951 C 0.06077 0.73511 0.0521 0.0
C2952 C 0.06769 0.73469 0.0326 0.0
C2953 C 0.05901 0.71953 0.02036 0.0
C2954 C 0.03679 0.72064 0.07906 0.0
C2955 C 0.08484 0.74977 0.02524 0.0
C2956 C 0.08173 0.77792 0.0827 0.0
C2957 C 0.09442 0.77626 0.09443 0.0
C2958 C 0.07062 0.76466 0.06884 0.0
C2959 C 0.07186 0.74914 0.06711 0.0
C2960 C 0.08429 0.74717 0.07923 0.0
C2961 C 0.0956 0.76084 0.09238 0.0
C2962 C 0.05781 0.76738 0.05577 0.0
C2963 C 0.08586 0.7307 0.0781 0.0
H2964 H 0.02357 0.69487 0.0503 0.0
H2965 H 0.06481 0.71874 0.006 0.0
H2966 H 0.04473 0.71874 0.09117 0.0
H2967 H 0.03728 0.73336 0.08225 0.0
H2968 H 0.023 0.70986 0.08035 0.0
H2969 H 0.08693 0.74863 0.00857 0.0
H2970 H 0.08531 0.76255 0.02796 0.0
H2971 H 0.09584 0.74995 0.03404 0.0
H2972 H 0.08046 0.7896 0.0843 0.0
H2973 H 0.1056 0.75949 0.10079 0.0
H2974 H 0.04426 0.75653 0.05834 0.0
H2975 H 0.06072 0.76708 0.0392 0.0
H2976 H 0.05831 0.7801 0.05912 0.0
H2977 H 0.07287 0.71885 0.08045 0.0
H2978 H 0.09517 0.73063 0.0898 0.0
H2979 H 0.09046 0.72958 0.0626 0.0
C2980 C 0.28819 0.33808 0.02117 0.0
C2981 C 0.30191 0.33836 0.03278 0.0
C2982 C 0.27222 0.33408 0.03045 0.0
C2983 C 0.27009 0.33065 0.0519 0.0
C2984 C 0.28382 0.33065 0.0636 0.0
C2985 C 0.29948 0.33433 0.05386 0.0
C2986 C 0.25776 0.33385 0.0174 0.0
C2987 C 0.2822 0.32734 0.08656 0.0
C2988 C 0.23869 0.34027 0.08169 0.0
C2989 C 0.22488 0.32328 0.0859 0.0
C2990 C 0.25328 0.34284 0.0703 0.0
C2991 C 0.25398 0.32808 0.06246 0.0
C2992 C 0.23977 0.31093 0.0658 0.0
C2993 C 0.22546 0.30871 0.07762 0.0
C2994 C 0.26821 0.36136 0.06723 0.0
C2995 C 0.23991 0.29488 0.0574 0.0
H2996 H 0.28996 0.34106 0.00484 0.0
H2997 H 0.31005 0.33459 0.06294 0.0
H2998 H 0.24536 0.32132 0.01971 0.0
H2999 H 0.25541 0.3447 0.0222 0.0
H3000 H 0.26094 0.33537 0.00071 0.0
H3001 H 0.29388 0.32731 0.09332 0.0
H3002 H 0.28049 0.33769 0.09437 0.0
H3003 H 0.27044 0.3145 0.08993 0.0
H3004 H 0.2382 0.35166 0.0875 0.0
H3005 H 0.21497 0.29552 0.08087 0.0
H3006 H 0.27095 0.36411 0.05057 0.0
H3007 H 0.2803 0.36274 0.07463 0.0
H3008 H 0.26543 0.37145 0.07385 0.0
H3009 H 0.24299 0.29655 0.04071 0.0
H3010 H 0.22717 0.28265 0.05959 0.0
H3011 H 0.25031 0.29324 0.06529 0.0
C3012 C 0.71599 0.67662 0.36598 0.0
C3013 C 0.69875 0.67277 0.36979 0.0
C3014 C 0.7238 0.6687 0.37748 0.0
C3015 C 0.71426 0.65688 0.3935 0.0
C3016 C 0.69659 0.65232 0.39688 0.0
C3017 C 0.68895 0.66023 0.3848 0.0
C3018 C 0.74258 0.67366 0.3731 0.0
C3019 C 0.68609 0.63991 0.41396 0.0
C3020 C 0.73592 0.63179 0.41516 0.0
C3021 C 0.74648 0.64334 0.43071 0.0
C3022 C 0.72451 0.63547 0.40351 0.0
C3023 C 0.72356 0.65088 0.40784 0.0
C3024 C 0.73337 0.66191 0.42449 0.0
C3025 C 0.74486 0.65808 0.4356 0.0
C3026 C 0.71439 0.62351 0.38576 0.0
C3027 C 0.73252 0.67831 0.42983 0.0
H3028 H 0.72354 0.68615 0.35421 0.0
H3029 H 0.67563 0.65726 0.38781 0.0
H3030 H 0.7511 0.68146 0.38618 0.0
H3031 H 0.74384 0.66167 0.37156 0.0
H3032 H 0.74752 0.6816 0.3588 0.0
H3033 H 0.67197 0.63598 0.41289 0.0
H3034 H 0.68738 0.62788 0.41367 0.0
H3035 H 0.69126 0.64643 0.42908 0.0
H3036 H 0.73725 0.6204 0.41144 0.0
H3037 H 0.75294 0.66687 0.44782 0.0
H3038 H 0.7202 0.63025 0.37101 0.0
H3039 H 0.70056 0.62057 0.38583 0.0
H3040 H 0.71465 0.61091 0.38622 0.0
H3041 H 0.73881 0.68826 0.41748 0.0
H3042 H 0.73927 0.68422 0.44467 0.0
H3043 H 0.71868 0.67529 0.43085 0.0
C3044 C 0.32724 0.03379 0.36798 0.0
C3045 C 0.33596 0.025 0.3753 0.0
C3046 C 0.33013 0.04958 0.37707 0.0
C3047 C 0.34232 0.05693 0.39356 0.0
C3048 C 0.35181 0.04856 0.40032 0.0
C3049 C 0.34835 0.03255 0.39127 0.0
C3050 C 0.31951 0.05793 0.36968 0.0
C3051 C 0.36521 0.05622 0.41753 0.0
C3052 C 0.35653 0.10429 0.40831 0.0
C3053 C 0.34585 0.1019 0.4254 0.0
C3054 C 0.35588 0.0898 0.39807 0.0
C3055 C 0.34402 0.07252 0.40481 0.0
C3056 C 0.33333 0.07003 0.42211 0.0
C3057 C 0.33455 0.08472 0.43233 0.0
C3058 C 0.36772 0.09296 0.37992 0.0
C3059 C 0.32038 0.0518 0.42966 0.0
H3060 H 0.31761 0.02795 0.35569 0.0
H3061 H 0.35523 0.02586 0.39683 0.0
H3062 H 0.31082 0.05756 0.38223 0.0
H3063 H 0.32827 0.07196 0.36573 0.0
H3064 H 0.31128 0.0511 0.35597 0.0
H3065 H 0.37278 0.04916 0.41943 0.0
H3066 H 0.3745 0.07034 0.41454 0.0
H3067 H 0.35855 0.05545 0.43226 0.0
H3068 H 0.3652 0.11746 0.40269 0.0
H3069 H 0.3266 0.08268 0.44583 0.0
H3070 H 0.35973 0.08754 0.3657 0.0
H3071 H 0.37532 0.086 0.38225 0.0
H3072 H 0.37702 0.10718 0.37749 0.0
H3073 H 0.31098 0.04425 0.41711 0.0
H3074 H 0.31285 0.05214 0.44317 0.0
H3075 H 0.32733 0.04454 0.43404 0.0
C3076 C 0.96606 0.31463 0.38687 0.0
C3077 C 0.97334 0.30854 0.37203 0.0
C3078 C 0.95049 0.30296 0.39698 0.0
C3079 C 0.94227 0.28471 0.39253 0.0
C3080 C 0.94945 0.27854 0.37734 0.0
C3081 C 0.96479 0.29056 0.36709 0.0
C3082 C 0.94301 0.31013 0.4127 0.0
C3083 C 0.94131 0.25915 0.37245 0.0
C3084 C 0.91428 0.25314 0.43453 0.0
C3085 C 0.89719 0.24733 0.42709 0.0
C3086 C 0.929 0.26515 0.42336 0.0
C3087 C 0.92668 0.27198 0.40449 0.0
C3088 C 0.90952 0.26653 0.39705 0.0
C3089 C 0.89501 0.25413 0.40829 0.0
C3090 C 0.94708 0.27044 0.43171 0.0
C3091 C 0.9065 0.27376 0.37718 0.0
H3092 H 0.97257 0.32855 0.39063 0.0
H3093 H 0.97044 0.28578 0.35572 0.0
H3094 H 0.929 0.30552 0.40916 0.0
H3095 H 0.94364 0.30512 0.42824 0.0
H3096 H 0.95018 0.32475 0.4132 0.0
H3097 H 0.94819 0.25654 0.35981 0.0
H3098 H 0.94166 0.25192 0.3864 0.0
H3099 H 0.92735 0.25371 0.36795 0.0
H3100 H 0.91623 0.24838 0.44923 0.0
H3101 H 0.88195 0.24962 0.40215 0.0
H3102 H 0.95443 0.28484 0.4346 0.0
H3103 H 0.95454 0.26748 0.42017 0.0
H3104 H 0.94665 0.26352 0.4463 0.0
H3105 H 0.91335 0.28836 0.37781 0.0
H3106 H 0.89237 0.26883 0.374 0.0
H3107 H 0.91207 0.27004 0.36409 0.0
C3108 C 0.01771 0.39503 0.30979 0.0
C3109 C 0.00822 0.37721 0.31554 0.0
C3110 C 0.01004 0.40288 0.29789 0.0
C3111 C 0.99231 0.39278 0.2916 0.0
C3112 C 0.98243 0.37491 0.29771 0.0
C3113 C 0.99053 0.3673 0.30957 0.0
C3114 C 0.02109 0.42196 0.29167 0.0
C3115 C 0.96344 0.36381 0.29144 0.0
C3116 C 0.97427 0.42219 0.27377 0.0
C3117 C 0.97762 0.42326 0.25255 0.0
C3118 C 0.97764 0.41114 0.28657 0.0
C3119 C 0.98463 0.40104 0.27794 0.0
C3120 C 0.98684 0.40112 0.25634 0.0
C3121 C 0.98325 0.41219 0.24391 0.0
C3122 C 0.97494 0.41129 0.3095 0.0
C3123 C 0.99423 0.39054 0.24649 0.0
H3124 H 0.03135 0.40292 0.31433 0.0
H3125 H 0.98304 0.35356 0.31398 0.0
H3126 H 0.02197 0.42301 0.27462 0.0
H3127 H 0.0149 0.42969 0.29694 0.0
H3128 H 0.0346 0.42807 0.29818 0.0
H3129 H 0.95725 0.35053 0.29861 0.0
H3130 H 0.95595 0.37047 0.29587 0.0
H3131 H 0.96239 0.36222 0.27444 0.0
H3132 H 0.96995 0.43072 0.2806 0.0
H3133 H 0.98547 0.41263 0.22745 0.0
H3134 H 0.98785 0.41896 0.31733 0.0
H3135 H 0.96865 0.39772 0.31582 0.0
H3136 H 0.96675 0.41735 0.31333 0.0
H3137 H 0.00832 0.39644 0.25062 0.0
H3138 H 0.993 0.39024 0.22941 0.0
H3139 H 0.98751 0.37682 0.25232 0.0
C3140 C 0.63608 0.63223 0.30181 0.0
C3141 C 0.63045 0.64077 0.31551 0.0
C3142 C 0.62396 0.61687 0.29141 0.0
C3143 C 0.6058 0.61027 0.29433 0.0
C3144 C 0.60007 0.61864 0.30851 0.0
C3145 C 0.6125 0.63367 0.31916 0.0
C3146 C 0.63058 0.608 0.27688 0.0
C3147 C 0.58082 0.61225 0.3117 0.0
C3148 C 0.5751 0.58489 0.25019 0.0
C3149 C 0.56681 0.56753 0.25766 0.0
C3150 C 0.58778 0.59887 0.26199 0.0
C3151 C 0.59277 0.5954 0.2815 0.0
C3152 C 0.58499 0.57789 0.28887 0.0
C3153 C 0.57194 0.5642 0.277 0.0
C3154 C 0.59559 0.61741 0.2537 0.0
C3155 C 0.5903 0.57366 0.3094 0.0
H3156 H 0.64998 0.63764 0.29911 0.0
H3157 H 0.60812 0.64033 0.32965 0.0
H3158 H 0.62419 0.59367 0.28019 0.0
H3159 H 0.62715 0.60947 0.26077 0.0
H3160 H 0.64501 0.61365 0.27802 0.0
H3161 H 0.57854 0.61979 0.3239 0.0
H3162 H 0.57485 0.61352 0.29708 0.0
H3163 H 0.5739 0.59811 0.31595 0.0
H3164 H 0.57166 0.58763 0.23507 0.0
H3165 H 0.56553 0.55092 0.28311 0.0
H3166 H 0.60999 0.6233 0.25221 0.0
H3167 H 0.5932 0.62575 0.26463 0.0
H3168 H 0.59003 0.6179 0.2384 0.0
H3169 H 0.60474 0.57932 0.31018 0.0
H3170 H 0.584 0.55924 0.31219 0.0
H3171 H 0.58662 0.5797 0.32203 0.0
C3172 C 0.37582 0.97672 0.31538 0.0
C3173 C 0.36968 0.98716 0.32463 0.0
C3174 C 0.39127 0.9843 0.30392 0.0
C3175 C 0.40102 0.00283 0.30182 0.0
C3176 C 0.39504 0.01351 0.31121 0.0
C3177 C 0.37934 0.00553 0.32241 0.0
C3178 C 0.3971 0.97242 0.29395 0.0
C3179 C 0.40525 0.03333 0.30951 0.0
C3180 C 0.44818 0.01856 0.28746 0.0
C3181 C 0.44753 0.02006 0.26599 0.0
C3182 C 0.43339 0.01409 0.29953 0.0
C3183 C 0.41753 0.0108 0.28983 0.0
C3184 C 0.41704 0.01314 0.26825 0.0
C3185 C 0.43212 0.01785 0.25659 0.0
C3186 C 0.43451 0.012 0.32253 0.0
C3187 C 0.40033 0.00956 0.25731 0.0
H3188 H 0.3684 0.96251 0.31683 0.0
H3189 H 0.37473 0.01369 0.32957 0.0
H3190 H 0.39838 0.97473 0.27706 0.0
H3191 H 0.41019 0.97552 0.30003 0.0
H3192 H 0.38782 0.95825 0.29672 0.0
H3193 H 0.39889 0.03977 0.31783 0.0
H3194 H 0.41867 0.03833 0.31588 0.0
H3195 H 0.40663 0.0373 0.29306 0.0
H3196 H 0.46019 0.02049 0.29475 0.0
H3197 H 0.43159 0.01893 0.23996 0.0
H3198 H 0.42689 0.99784 0.32664 0.0
H3199 H 0.42868 0.01891 0.33092 0.0
H3200 H 0.44824 0.01718 0.32796 0.0
H3201 H 0.39082 0.99524 0.25779 0.0
H3202 H 0.40259 0.01381 0.24093 0.0
H3203 H 0.39421 0.01642 0.26518 0.0
C3204 C 0.6485 0.00666 0.29176 0.0
C3205 C 0.64548 0.00073 0.31223 0.0
C3206 C 0.63684 0.0107 0.28128 0.0
C3207 C 0.62189 0.00893 0.2916 0.0
C3208 C 0.61906 0.00345 0.31245 0.0
C3209 C 0.63084 0.99933 0.32249 0.0
C3210 C 0.64024 0.01639 0.259 0.0
C3211 C 0.60336 0.00158 0.32403 0.0
C3212 C 0.59802 0.03169 0.26904 0.0
C3213 C 0.58373 0.01766 0.25906 0.0
C3214 C 0.61054 0.02906 0.27976 0.0
C3215 C 0.60881 0.01204 0.2803 0.0
C3216 C 0.59448 0.99787 0.27008 0.0
C3217 C 0.58208 0.00085 0.25966 0.0
C3218 C 0.62554 0.04444 0.29064 0.0
C3219 C 0.59227 0.97957 0.2701 0.0
H3220 H 0.65978 0.00774 0.28372 0.0
H3221 H 0.62848 0.99483 0.33834 0.0
H3222 H 0.62943 0.00658 0.24916 0.0
H3223 H 0.64054 0.02916 0.25694 0.0
H3224 H 0.65281 0.01777 0.25345 0.0
H3225 H 0.60359 0.99816 0.34051 0.0
H3226 H 0.60286 0.01403 0.32319 0.0
H3227 H 0.59114 0.99113 0.31679 0.0
H3228 H 0.59924 0.04468 0.26875 0.0
H3229 H 0.57117 0.99002 0.25173 0.0
H3230 H 0.63822 0.04652 0.28461 0.0
H3231 H 0.62531 0.04157 0.30735 0.0
H3232 H 0.62502 0.05684 0.28872 0.0
H3233 H 0.60402 0.97987 0.2634 0.0
H3234 H 0.58053 0.97005 0.26118 0.0
H3235 H 0.59107 0.97471 0.28616 0.0
C3236 C 0.0023 0.62171 0.32759 0.0
C3237 C 0.00221 0.6365 0.31932 0.0
C3238 C 0.99643 0.60629 0.31589 0.0
C3239 C 0.99104 0.60599 0.29517 0.0
C3240 C 0.9902 0.62068 0.28707 0.0
C3241 C 0.99557 0.63572 0.2994 0.0
C3242 C 0.99696 0.59071 0.32535 0.0
C3243 C 0.98502 0.62109 0.2649 0.0
C3244 C 0.00087 0.57778 0.2593 0.0
C3245 C 0.98417 0.56329 0.25556 0.0
C3246 C 0.00314 0.59189 0.27169 0.0
C3247 C 0.98845 0.59129 0.28136 0.0
C3248 C 0.97159 0.57661 0.27809 0.0
C3249 C 0.96961 0.56293 0.26498 0.0
C3250 C 0.02135 0.60745 0.27449 0.0
C3251 C 0.9557 0.57529 0.2886 0.0
H3252 H 0.00743 0.62237 0.34304 0.0
H3253 H 0.99575 0.6473 0.29297 0.0
H3254 H 0.9847 0.57832 0.32178 0.0
H3255 H 0.00798 0.58957 0.31872 0.0
H3256 H 0.99878 0.59201 0.34236 0.0
H3257 H 0.98321 0.63262 0.26163 0.0
H3258 H 0.99539 0.62176 0.25463 0.0
H3259 H 0.97271 0.60889 0.26093 0.0
H3260 H 0.01234 0.57811 0.25272 0.0
H3261 H 0.95659 0.55201 0.26205 0.0
H3262 H 0.02553 0.60842 0.29085 0.0
H3263 H 0.02136 0.61986 0.27057 0.0
H3264 H 0.03117 0.60645 0.26474 0.0
H3265 H 0.95773 0.57615 0.30557 0.0
H3266 H 0.94356 0.56279 0.28488 0.0
H3267 H 0.95378 0.58648 0.28393 0.0
C3268 C 0.35968 0.36091 0.28912 0.0
C3269 C 0.35731 0.3618 0.31034 0.0
C3270 C 0.37449 0.3741 0.27919 0.0
C3271 C 0.3874 0.38836 0.29084 0.0
C3272 C 0.38542 0.38899 0.31241 0.0
C3273 C 0.37029 0.37576 0.32189 0.0
C3274 C 0.376 0.37309 0.25611 0.0
C3275 C 0.39909 0.40383 0.32538 0.0
C3276 C 0.43138 0.41571 0.26488 0.0
C3277 C 0.42991 0.43008 0.25745 0.0
C3278 C 0.41788 0.40229 0.27635 0.0
C3279 C 0.40242 0.40309 0.28017 0.0
C3280 C 0.40094 0.41765 0.27299 0.0
C3281 C 0.41476 0.43103 0.26191 0.0
C3282 C 0.42001 0.38708 0.28403 0.0
C3283 C 0.38459 0.41891 0.2766 0.0
H3284 H 0.34965 0.35017 0.2801 0.0
H3285 H 0.36856 0.37644 0.33833 0.0
H3286 H 0.37591 0.38453 0.24867 0.0
H3287 H 0.38861 0.37378 0.25221 0.0
H3288 H 0.36513 0.36081 0.24942 0.0
H3289 H 0.39628 0.40163 0.34212 0.0
H3290 H 0.41223 0.40535 0.32254 0.0
H3291 H 0.39967 0.4164 0.32097 0.0
H3292 H 0.44293 0.41473 0.26136 0.0
H3293 H 0.41364 0.44226 0.25669 0.0
H3294 H 0.41031 0.37475 0.27624 0.0
H3295 H 0.4174 0.38519 0.30082 0.0
H3296 H 0.43334 0.38909 0.28116 0.0
H3297 H 0.37313 0.4075 0.26935 0.0
H3298 H 0.38561 0.43121 0.2702 0.0
H3299 H 0.38198 0.41842 0.29336 0.0
C3300 C 0.34465 0.30221 0.36869 0.0
C3301 C 0.3267 0.29174 0.36419 0.0
C3302 C 0.35369 0.29545 0.38021 0.0
C3303 C 0.34447 0.27792 0.38756 0.0
C3304 C 0.32649 0.26719 0.38263 0.0
C3305 C 0.31789 0.27419 0.37095 0.0
C3306 C 0.37292 0.30715 0.38493 0.0
C3307 C 0.31613 0.24841 0.39021 0.0
C3308 C 0.36235 0.24887 0.40628 0.0
C3309 C 0.35912 0.24841 0.42747 0.0
C3310 C 0.35945 0.26 0.3931 0.0
C3311 C 0.35302 0.27071 0.40136 0.0
C3312 C 0.35151 0.27161 0.42297 0.0
C3313 C 0.35467 0.26049 0.43578 0.0
C3314 C 0.36159 0.25896 0.37017 0.0
C3315 C 0.34478 0.28291 0.43244 0.0
H3316 H 0.35161 0.31576 0.36344 0.0
H3317 H 0.30406 0.2659 0.36753 0.0
H3318 H 0.37472 0.31061 0.40155 0.0
H3319 H 0.38032 0.30014 0.38169 0.0
H3320 H 0.37867 0.31954 0.37584 0.0
H3321 H 0.30231 0.24175 0.38467 0.0
H3322 H 0.3223 0.24066 0.38496 0.0
H3323 H 0.31614 0.24821 0.40732 0.0
H3324 H 0.36585 0.2396 0.39974 0.0
H3325 H 0.3526 0.26048 0.45224 0.0
H3326 H 0.36731 0.2722 0.36301 0.0
H3327 H 0.34854 0.25059 0.36295 0.0
H3328 H 0.37004 0.25313 0.36663 0.0
H3329 H 0.35116 0.29622 0.42543 0.0
H3330 H 0.34701 0.28429 0.44939 0.0
H3331 H 0.33048 0.27681 0.42941 0.0
C3332 C 0.73001 0.04052 0.37765 0.0
C3333 C 0.71262 0.03277 0.37049 0.0
C3334 C 0.73779 0.05658 0.38829 0.0
C3335 C 0.72802 0.06524 0.39185 0.0
C3336 C 0.71055 0.0577 0.38444 0.0
C3337 C 0.70302 0.04151 0.37387 0.0
C3338 C 0.75646 0.06414 0.39598 0.0
C3339 C 0.69978 0.06665 0.38786 0.0
C3340 C 0.74585 0.09643 0.43727 0.0
C3341 C 0.75723 0.11238 0.42754 0.0
C3342 C 0.73532 0.08117 0.42575 0.0
C3343 C 0.73614 0.08189 0.40396 0.0
C3344 C 0.74666 0.09823 0.39403 0.0
C3345 C 0.75711 0.1133 0.40595 0.0
C3346 C 0.72424 0.06404 0.43696 0.0
C3347 C 0.7478 0.09956 0.37083 0.0
H3348 H 0.73762 0.03398 0.37512 0.0
H3349 H 0.68961 0.0357 0.36833 0.0
H3350 H 0.76469 0.07757 0.38966 0.0
H3351 H 0.75687 0.06531 0.41304 0.0
H3352 H 0.76236 0.0559 0.3916 0.0
H3353 H 0.68666 0.05947 0.38036 0.0
H3354 H 0.698 0.06761 0.40463 0.0
H3355 H 0.70677 0.08029 0.38175 0.0
H3356 H 0.74563 0.09574 0.45397 0.0
H3357 H 0.76591 0.12557 0.39834 0.0
H3358 H 0.73 0.05531 0.43503 0.0
H3359 H 0.71078 0.05708 0.43036 0.0
H3360 H 0.72339 0.06608 0.45372 0.0
H3361 H 0.75533 0.09329 0.36517 0.0
H3362 H 0.7544 0.11346 0.36549 0.0
H3363 H 0.73454 0.09244 0.3637 0.0
C3364 C 0.95469 0.67286 0.36213 0.0
C3365 C 0.96757 0.67063 0.37251 0.0
C3366 C 0.93878 0.66866 0.37172 0.0
C3367 C 0.9358 0.66224 0.39222 0.0
C3368 C 0.94868 0.65976 0.40266 0.0
C3369 C 0.96435 0.66391 0.39265 0.0
C3370 C 0.92528 0.67131 0.36004 0.0
C3371 C 0.94605 0.65307 0.42457 0.0
C3372 C 0.90374 0.66842 0.42539 0.0
C3373 C 0.88912 0.65145 0.42529 0.0
C3374 C 0.91893 0.67216 0.41449 0.0
C3375 C 0.91947 0.65862 0.40307 0.0
C3376 C 0.90464 0.64152 0.40265 0.0
C3377 C 0.88967 0.63812 0.41386 0.0
C3378 C 0.93454 0.69051 0.41552 0.0
C3379 C 0.90466 0.62679 0.3905 0.0
H3380 H 0.95706 0.678 0.34654 0.0
H3381 H 0.97426 0.66218 0.4008 0.0
H3382 H 0.91253 0.65889 0.3598 0.0
H3383 H 0.92318 0.68138 0.36794 0.0
H3384 H 0.92926 0.67563 0.34389 0.0
H3385 H 0.9572 0.65154 0.43037 0.0
H3386 H 0.9445 0.66234 0.43487 0.0
H3387 H 0.93387 0.64015 0.42564 0.0
H3388 H 0.90343 0.67872 0.43439 0.0
H3389 H 0.87831 0.62503 0.41356 0.0
H3390 H 0.93839 0.69595 0.39975 0.0
H3391 H 0.9459 0.69004 0.42255 0.0
H3392 H 0.93186 0.69964 0.4247 0.0
H3393 H 0.90782 0.63076 0.37414 0.0
H3394 H 0.89184 0.61443 0.39111 0.0
H3395 H 0.91496 0.62408 0.39663 0.0
C3396 C 0.3867 0.02204 0.71267 0.0
C3397 C 0.36924 0.0117 0.70611 0.0
C3398 C 0.39536 0.01465 0.72355 0.0
C3399 C 0.38638 0.99641 0.72799 0.0
C3400 C 0.36882 0.98579 0.72128 0.0
C3401 C 0.36042 0.99357 0.71042 0.0
C3402 C 0.4141 0.02645 0.73048 0.0
C3403 C 0.35891 0.96628 0.7257 0.0
C3404 C 0.41777 0.97989 0.74189 0.0
C3405 C 0.41861 0.98173 0.7634 0.0
C3406 C 0.40629 0.98336 0.73012 0.0
C3407 C 0.39548 0.98881 0.74016 0.0
C3408 C 0.39536 0.9894 0.76195 0.0
C3409 C 0.40692 0.98583 0.77332 0.0
C3410 C 0.40671 0.98248 0.70691 0.0
C3411 C 0.38397 0.99507 0.77324 0.0
H3412 H 0.3937 0.03604 0.70941 0.0
H3413 H 0.34695 0.98544 0.70536 0.0
H3414 H 0.41503 0.02619 0.74754 0.0
H3415 H 0.42265 0.02158 0.72415 0.0
H3416 H 0.41928 0.04033 0.72551 0.0
H3417 H 0.34551 0.95976 0.71885 0.0
H3418 H 0.36616 0.95987 0.71954 0.0
H3419 H 0.35783 0.96404 0.7426 0.0
H3420 H 0.42681 0.97676 0.73416 0.0
H3421 H 0.40731 0.98693 0.78999 0.0
H3422 H 0.41355 0.99604 0.70055 0.0
H3423 H 0.39323 0.97575 0.70037 0.0
H3424 H 0.41368 0.97546 0.70167 0.0
H3425 H 0.38908 0.00938 0.77081 0.0
H3426 H 0.38368 0.99261 0.79009 0.0
H3427 H 0.37035 0.98807 0.76712 0.0
C3428 C 0.0141 0.36633 0.72353 0.0
C3429 C 0.0018 0.35954 0.70739 0.0
C3430 C 0.01817 0.38235 0.73307 0.0
C3431 C 0.00939 0.39153 0.72661 0.0
C3432 C 0.99716 0.38486 0.71009 0.0
C3433 C 0.99366 0.36904 0.70053 0.0
C3434 C 0.03157 0.38927 0.75033 0.0
C3435 C 0.98728 0.39407 0.70299 0.0
C3436 C 0.00351 0.42082 0.76508 0.0
C3437 C 0.01534 0.43776 0.75788 0.0
C3438 C 0.0016 0.40571 0.75517 0.0
C3439 C 0.0121 0.40752 0.7379 0.0
C3440 C 0.02454 0.42453 0.73098 0.0
C3441 C 0.0259 0.43945 0.74092 0.0
C3442 C 0.98804 0.3878 0.76292 0.0
C3443 C 0.03618 0.42696 0.71284 0.0
H3444 H 0.02052 0.35908 0.72877 0.0
H3445 H 0.98408 0.3638 0.68811 0.0
H3446 H 0.04156 0.40317 0.74732 0.0
H3447 H 0.0251 0.38902 0.76504 0.0
H3448 H 0.03831 0.38139 0.7523 0.0
H3449 H 0.97862 0.38745 0.6895 0.0
H3450 H 0.97911 0.39439 0.71577 0.0
H3451 H 0.99658 0.40791 0.6988 0.0
H3452 H 0.99563 0.41931 0.77851 0.0
H3453 H 0.03498 0.45243 0.73509 0.0
H3454 H 0.99436 0.37986 0.76706 0.0
H3455 H 0.9783 0.3806 0.75053 0.0
H3456 H 0.98099 0.38867 0.77661 0.0
H3457 H 0.043 0.4192 0.71512 0.0
H3458 H 0.04616 0.44099 0.71044 0.0
H3459 H 0.0281 0.42198 0.6986 0.0
C3460 C 0.63509 0.64252 0.72622 0.0
C3461 C 0.63782 0.63876 0.70602 0.0
C3462 C 0.61961 0.63124 0.73676 0.0
C3463 C 0.60648 0.61593 0.72677 0.0
C3464 C 0.60895 0.61235 0.70616 0.0
C3465 C 0.62463 0.62376 0.69608 0.0
C3466 C 0.61753 0.63543 0.75877 0.0
C3467 C 0.59518 0.59628 0.6949 0.0
C3468 C 0.57511 0.57696 0.75935 0.0
C3469 C 0.56009 0.57879 0.75928 0.0
C3470 C 0.59033 0.58905 0.749 0.0
C3471 C 0.59049 0.60325 0.73814 0.0
C3472 C 0.57537 0.60518 0.73802 0.0
C3473 C 0.56037 0.59298 0.7487 0.0
C3474 C 0.60625 0.58664 0.74972 0.0
C3475 C 0.57497 0.62003 0.72643 0.0
H3476 H 0.64524 0.65407 0.73402 0.0
H3477 H 0.62662 0.62081 0.68044 0.0
H3478 H 0.60521 0.63596 0.76038 0.0
H3479 H 0.61658 0.62484 0.76911 0.0
H3480 H 0.62865 0.64818 0.76407 0.0
H3481 H 0.59868 0.59592 0.67855 0.0
H3482 H 0.59345 0.58419 0.7027 0.0
H3483 H 0.58238 0.59596 0.6953 0.0
H3484 H 0.57503 0.56614 0.76775 0.0
H3485 H 0.54873 0.59435 0.74847 0.0
H3486 H 0.61762 0.5986 0.75621 0.0
H3487 H 0.60977 0.58484 0.73387 0.0
H3488 H 0.60409 0.5751 0.75917 0.0
H3489 H 0.58553 0.63289 0.73222 0.0
H3490 H 0.56222 0.61974 0.72794 0.0
H3491 H 0.57746 0.61924 0.70983 0.0
C3492 C 0.68098 0.72053 0.63627 0.0
C3493 C 0.67153 0.70368 0.64502 0.0
C3494 C 0.67248 0.72829 0.62577 0.0
C3495 C 0.65399 0.71905 0.62394 0.0
C3496 C 0.6443 0.70197 0.63252 0.0
C3497 C 0.65319 0.69446 0.64294 0.0
C3498 C 0.68333 0.74651 0.61678 0.0
C3499 C 0.62456 0.69177 0.6309 0.0
C3500 C 0.63571 0.74976 0.61396 0.0
C3501 C 0.6343 0.74922 0.59238 0.0
C3502 C 0.64098 0.73908 0.6246 0.0
C3503 C 0.64503 0.72766 0.61337 0.0
C3504 C 0.64262 0.7263 0.5917 0.0
C3505 C 0.63725 0.73709 0.58145 0.0
C3506 C 0.64324 0.74082 0.64773 0.0
C3507 C 0.64683 0.71433 0.57916 0.0
H3508 H 0.69514 0.7278 0.63765 0.0
H3509 H 0.64574 0.68145 0.64965 0.0
H3510 H 0.68068 0.74627 0.59999 0.0
H3511 H 0.67966 0.75574 0.62399 0.0
H3512 H 0.69762 0.75175 0.61915 0.0
H3513 H 0.61898 0.67844 0.63787 0.0
H3514 H 0.61892 0.69909 0.63878 0.0
H3515 H 0.62039 0.69034 0.61449 0.0
H3516 H 0.63317 0.75892 0.62249 0.0
H3517 H 0.63629 0.7367 0.56477 0.0
H3518 H 0.65741 0.74751 0.65172 0.0
H3519 H 0.63703 0.72764 0.65509 0.0
H3520 H 0.63751 0.74857 0.65438 0.0
H3521 H 0.66123 0.71971 0.579 0.0
H3522 H 0.64209 0.71303 0.56297 0.0
H3523 H 0.64091 0.70103 0.58618 0.0
C3524 C 0.29997 0.97078 0.63048 0.0
C3525 C 0.29869 0.97366 0.65149 0.0
C3526 C 0.2874 0.95533 0.62069 0.0
C3527 C 0.27334 0.94232 0.63226 0.0
C3528 C 0.27241 0.94479 0.65368 0.0
C3529 C 0.28504 0.96052 0.66303 0.0
C3530 C 0.28874 0.95329 0.59776 0.0
C3531 C 0.25779 0.93106 0.66658 0.0
C3532 C 0.23153 0.91368 0.60218 0.0
C3533 C 0.23298 0.89864 0.59816 0.0
C3534 C 0.24442 0.92782 0.61358 0.0
C3535 C 0.25899 0.92681 0.62154 0.0
C3536 C 0.26022 0.91142 0.61828 0.0
C3537 C 0.24726 0.89755 0.6065 0.0
C3538 C 0.24267 0.94406 0.61662 0.0
C3539 C 0.27545 0.90979 0.62677 0.0
H3540 H 0.31048 0.98089 0.62147 0.0
H3541 H 0.28407 0.96264 0.67931 0.0
H3542 H 0.28836 0.94064 0.59442 0.0
H3543 H 0.27735 0.95297 0.58973 0.0
H3544 H 0.30095 0.9642 0.59121 0.0
H3545 H 0.25989 0.9342 0.68331 0.0
H3546 H 0.24516 0.93011 0.66185 0.0
H3547 H 0.25658 0.91793 0.66404 0.0
H3548 H 0.22034 0.91448 0.59625 0.0
H3549 H 0.24858 0.88607 0.60337 0.0
H3550 H 0.2539 0.95558 0.60938 0.0
H3551 H 0.24301 0.947 0.63329 0.0
H3552 H 0.23033 0.94258 0.60983 0.0
H3553 H 0.28771 0.91945 0.61907 0.0
H3554 H 0.27368 0.89639 0.62446 0.0
H3555 H 0.27718 0.91288 0.6435 0.0
C3556 C 0.04302 0.31339 0.64764 0.0
C3557 C 0.03522 0.32324 0.65418 0.0
C3558 C 0.05852 0.32114 0.63629 0.0
C3559 C 0.06664 0.33929 0.63147 0.0
C3560 C 0.05924 0.34951 0.63857 0.0
C3561 C 0.04354 0.34134 0.64976 0.0
C3562 C 0.06592 0.30971 0.62894 0.0
C3563 C 0.0677 0.36895 0.63395 0.0
C3564 C 0.11317 0.3561 0.61367 0.0
C3565 C 0.11065 0.3537 0.59227 0.0
C3566 C 0.09918 0.35291 0.62666 0.0
C3567 C 0.0823 0.34703 0.61802 0.0
C3568 C 0.08002 0.34593 0.59634 0.0
C3569 C 0.09425 0.34938 0.58373 0.0
C3570 C 0.1022 0.3545 0.64969 0.0
C3571 C 0.06225 0.33973 0.58649 0.0
H3572 H 0.03681 0.29942 0.65097 0.0
H3573 H 0.0377 0.34911 0.65485 0.0
H3574 H 0.06605 0.30958 0.61183 0.0
H3575 H 0.07966 0.31518 0.63438 0.0
H3576 H 0.05824 0.29591 0.63446 0.0
H3577 H 0.06129 0.37537 0.64222 0.0
H3578 H 0.08179 0.37565 0.63831 0.0
H3579 H 0.06694 0.37093 0.61715 0.0
H3580 H 0.12579 0.35942 0.6204 0.0
H3581 H 0.09234 0.34793 0.56716 0.0
H3582 H 0.0968 0.34115 0.65649 0.0
H3583 H 0.09532 0.3609 0.65687 0.0
H3584 H 0.11636 0.36217 0.65372 0.0
H3585 H 0.05373 0.32548 0.58963 0.0
H3586 H 0.0631 0.34173 0.56952 0.0
H3587 H 0.05581 0.34676 0.59318 0.0
C3588 C 0.30386 0.3292 0.62793 0.0
C3589 C 0.30262 0.32589 0.64919 0.0
C3590 C 0.29159 0.3324 0.61755 0.0
C3591 C 0.27793 0.33264 0.62877 0.0
C3592 C 0.27694 0.32988 0.65037 0.0
C3593 C 0.2892 0.32634 0.6603 0.0
C3594 C 0.29293 0.33498 0.59446 0.0
C3595 C 0.2628 0.33041 0.66292 0.0
C3596 C 0.25461 0.35421 0.60185 0.0
C3597 C 0.23942 0.33953 0.59417 0.0
C3598 C 0.26698 0.35217 0.61372 0.0
C3599 C 0.26431 0.33505 0.61768 0.0
C3600 C 0.24895 0.32018 0.61022 0.0
C3601 C 0.23662 0.32259 0.59878 0.0
C3602 C 0.28308 0.36834 0.62168 0.0
C3603 C 0.2457 0.3017 0.61391 0.0
H3604 H 0.31415 0.32877 0.61924 0.0
H3605 H 0.28826 0.32389 0.67677 0.0
H3606 H 0.28096 0.32445 0.58687 0.0
H3607 H 0.29379 0.34774 0.59038 0.0
H3608 H 0.30452 0.33473 0.58807 0.0
H3609 H 0.26453 0.32917 0.67972 0.0
H3610 H 0.26275 0.34294 0.66009 0.0
H3611 H 0.24977 0.31954 0.6581 0.0
H3612 H 0.25706 0.36736 0.59822 0.0
H3613 H 0.22476 0.31113 0.59341 0.0
H3614 H 0.29493 0.36951 0.61419 0.0
H3615 H 0.28462 0.36717 0.63852 0.0
H3616 H 0.28253 0.38061 0.6187 0.0
H3617 H 0.25639 0.30015 0.60699 0.0
H3618 H 0.233 0.29153 0.60724 0.0
H3619 H 0.24576 0.29924 0.63069 0.0
C3620 C 0.67953 0.96353 0.63472 0.0
C3621 C 0.67002 0.97121 0.64271 0.0
C3622 C 0.67111 0.94727 0.62454 0.0
C3623 C 0.65265 0.93831 0.62231 0.0
C3624 C 0.6429 0.94593 0.63022 0.0
C3625 C 0.65171 0.96234 0.6403 0.0
C3626 C 0.68202 0.93964 0.61624 0.0
C3627 C 0.62319 0.93668 0.62818 0.0
C3628 C 0.63648 0.90373 0.58015 0.0
C3629 C 0.63329 0.88867 0.59135 0.0
C3630 C 0.64174 0.91983 0.59017 0.0
C3631 C 0.64378 0.92084 0.6119 0.0
C3632 C 0.63947 0.90541 0.62337 0.0
C3633 C 0.63433 0.88951 0.61294 0.0
C3634 C 0.64626 0.93599 0.57738 0.0
C3635 C 0.64132 0.90589 0.64656 0.0
H3636 H 0.69368 0.97024 0.63638 0.0
H3637 H 0.64422 0.96811 0.64644 0.0
H3638 H 0.67812 0.92677 0.62368 0.0
H3639 H 0.67968 0.93723 0.59943 0.0
H3640 H 0.69628 0.94845 0.61894 0.0
H3641 H 0.61755 0.94449 0.63487 0.0
H3642 H 0.61927 0.93407 0.6117 0.0
H3643 H 0.61738 0.92374 0.63609 0.0
H3644 H 0.63581 0.90317 0.56345 0.0
H3645 H 0.6316 0.87782 0.62166 0.0
H3646 H 0.66068 0.9448 0.57755 0.0
H3647 H 0.64028 0.9435 0.58398 0.0
H3648 H 0.64182 0.93262 0.56111 0.0
H3649 H 0.65542 0.9131 0.65088 0.0
H3650 H 0.63536 0.89247 0.65333 0.0
H3651 H 0.6351 0.91305 0.6535 0.0
C3652 C 0.02959 0.71527 0.64908 0.0
C3653 C 0.02178 0.69716 0.64511 0.0
C3654 C 0.04455 0.72738 0.63837 0.0
C3655 C 0.05213 0.72119 0.62373 0.0
C3656 C 0.04468 0.70285 0.62023 0.0
C3657 C 0.0294 0.69105 0.63076 0.0
C3658 C 0.05185 0.74684 0.6422 0.0
C3659 C 0.0527 0.69574 0.60518 0.0
C3660 C 0.07888 0.75294 0.58137 0.0
C3661 C 0.09601 0.76035 0.58937 0.0
C3662 C 0.06453 0.74007 0.5923 0.0
C3663 C 0.06736 0.73401 0.61145 0.0
C3664 C 0.08463 0.74085 0.61926 0.0
C3665 C 0.09872 0.7541 0.60828 0.0
C3666 C 0.04628 0.7333 0.58359 0.0
C3667 C 0.0882 0.73442 0.63942 0.0
H3668 H 0.02365 0.72004 0.66006 0.0
H3669 H 0.02344 0.67703 0.62778 0.0
H3670 H 0.06582 0.753 0.64696 0.0
H3671 H 0.05128 0.75338 0.62772 0.0
H3672 H 0.04455 0.74947 0.65429 0.0
H3673 H 0.04614 0.68112 0.60545 0.0
H3674 H 0.05173 0.69999 0.58932 0.0
H3675 H 0.06683 0.70112 0.60876 0.0
H3676 H 0.07661 0.75726 0.56654 0.0
H3677 H 0.1118 0.75981 0.61482 0.0
H3678 H 0.03834 0.73618 0.59451 0.0
H3679 H 0.03967 0.7188 0.58165 0.0
H3680 H 0.04632 0.73933 0.56845 0.0
H3681 H 0.08267 0.73838 0.65232 0.0
H3682 H 0.10244 0.73982 0.64236 0.0
H3683 H 0.08169 0.71982 0.63947 0.0
C3684 C 0.9814 0.61316 0.71137 0.0
C3685 C 0.99034 0.63052 0.70395 0.0
C3686 C 0.99025 0.60576 0.72178 0.0
C3687 C 0.00859 0.61589 0.72487 0.0
C3688 C 0.01781 0.63337 0.71733 0.0
C3689 C 0.00856 0.64052 0.70698 0.0
C3690 C 0.97986 0.58707 0.72963 0.0
C3691 C 0.03738 0.64448 0.72029 0.0
C3692 C 0.02165 0.59695 0.76947 0.0
C3693 C 0.02507 0.58482 0.7593 0.0
C3694 C 0.01794 0.60854 0.75835 0.0
C3695 C 0.01766 0.60797 0.73654 0.0
C3696 C 0.02287 0.59701 0.72623 0.0
C3697 C 0.0265 0.58551 0.73777 0.0
C3698 C 0.0126 0.6201 0.76997 0.0
C3699 C 0.02292 0.59615 0.703 0.0
H3700 H 0.96735 0.60525 0.70917 0.0
H3701 H 0.0156 0.6539 0.70123 0.0
H3702 H 0.98499 0.57883 0.72294 0.0
H3703 H 0.98128 0.58686 0.74663 0.0
H3704 H 0.96568 0.58094 0.72575 0.0
H3705 H 0.0427 0.65762 0.71291 0.0
H3706 H 0.04064 0.64638 0.73699 0.0
H3707 H 0.04406 0.63764 0.71374 0.0
H3708 H 0.0209 0.59668 0.78616 0.0
H3709 H 0.02918 0.57618 0.72984 0.0
H3710 H 0.99816 0.61431 0.76896 0.0
H3711 H 0.01858 0.63346 0.76309 0.0
H3712 H 0.01643 0.62134 0.78652 0.0
H3713 H 0.00923 0.58836 0.69724 0.0
H3714 H 0.03043 0.58978 0.69749 0.0
H3715 H 0.02859 0.6095 0.69618 0.0
C3716 C 0.38961 0.37309 0.70022 0.0
C3717 C 0.3719 0.36094 0.70358 0.0
C3718 C 0.39799 0.38915 0.71084 0.0
C3719 C 0.38855 0.393 0.72558 0.0
C3720 C 0.37051 0.38104 0.72862 0.0
C3721 C 0.36232 0.36519 0.71739 0.0
C3722 C 0.41714 0.4017 0.7068 0.0
C3723 C 0.36011 0.38459 0.74443 0.0
C3724 C 0.41833 0.42363 0.76728 0.0
C3725 C 0.42045 0.43986 0.76074 0.0
C3726 C 0.40707 0.40808 0.75666 0.0
C3727 C 0.39808 0.40891 0.7388 0.0
C3728 C 0.39974 0.42525 0.73256 0.0
C3729 C 0.41083 0.44057 0.74377 0.0
C3730 C 0.40542 0.39089 0.76405 0.0
C3731 C 0.3906 0.4267 0.71342 0.0
H3732 H 0.39703 0.36995 0.68941 0.0
H3733 H 0.34865 0.35578 0.72008 0.0
H3734 H 0.41927 0.41513 0.70371 0.0
H3735 H 0.42504 0.40253 0.72065 0.0
H3736 H 0.42211 0.39749 0.69351 0.0
H3737 H 0.3459 0.37481 0.74362 0.0
H3738 H 0.36505 0.38413 0.76011 0.0
H3739 H 0.3618 0.39797 0.74231 0.0
H3740 H 0.42574 0.42318 0.78053 0.0
H3741 H 0.41259 0.45321 0.73877 0.0
H3742 H 0.41173 0.38622 0.75286 0.0
H3743 H 0.39142 0.38063 0.765 0.0
H3744 H 0.41169 0.3922 0.7794 0.0
H3745 H 0.39642 0.42419 0.69961 0.0
H3746 H 0.39178 0.43993 0.71187 0.0
H3747 H 0.3765 0.41662 0.71355 0.0
C3748 C 0.62199 0.00429 0.68946 0.0
C3749 C 0.63582 0.00415 0.70034 0.0
C3750 C 0.60634 0.00048 0.69941 0.0
C3751 C 0.60465 0.9968 0.72081 0.0
C3752 C 0.61846 0.99632 0.73176 0.0
C3753 C 0.63381 0.99984 0.72135 0.0
C3754 C 0.59177 0.00077 0.68711 0.0
C3755 C 0.6173 0.99273 0.75466 0.0
C3756 C 0.57429 0.00718 0.75178 0.0
C3757 C 0.5601 0.99033 0.75563 0.0
C3758 C 0.58875 0.00944 0.74033 0.0
C3759 C 0.58893 0.99453 0.73207 0.0
C3760 C 0.57442 0.97753 0.73523 0.0
C3761 C 0.56025 0.97561 0.74712 0.0
C3762 C 0.60403 0.0278 0.73746 0.0
C3763 C 0.57401 0.96134 0.72639 0.0
H3764 H 0.62343 0.0075 0.67317 0.0
H3765 H 0.64448 0.99977 0.72986 0.0
H3766 H 0.57925 0.98839 0.68959 0.0
H3767 H 0.58988 0.01178 0.69245 0.0
H3768 H 0.59454 0.00239 0.67033 0.0
H3769 H 0.62891 0.99218 0.76076 0.0
H3770 H 0.6162 0.00323 0.763 0.0
H3771 H 0.60537 0.98007 0.75814 0.0
H3772 H 0.57417 0.01869 0.75779 0.0
H3773 H 0.54947 0.96252 0.75012 0.0
H3774 H 0.60645 0.03084 0.7208 0.0
H3775 H 0.61609 0.02862 0.74422 0.0
H3776 H 0.60181 0.03802 0.7448 0.0
H3777 H 0.57658 0.96301 0.70959 0.0
H3778 H 0.56123 0.94924 0.72893 0.0
H3779 H 0.58451 0.95949 0.73362 0.0
loop_
_geom_bond_atom_site_label_1
_geom_bond_atom_site_label_2
_geom_bond_distance
_geom_bond_site_symmetry_2
_ccdc_geom_bond_type
Mn0 O5 2.095 1_655 S
Mn0 O15 2.162 . S
Mn0 O16 2.297 1_554 S
Mn0 O24 2.385 1_554 S
Mn0 O25 2.209 1_654 S
Mn0 O26 2.094 . S
Mn1 O6 2.121 . S
Mn1 N8 2.257 1_554 S
Mn1 N17 2.282 . S
Mn1 O25 2.215 1_554 S
Mn1 O27 2.117 . S
C2 O24 1.234 1_455 S
C2 O25 1.283 . S
C3 O15 1.281 1_556 S
C3 O16 1.236 . S
C4 O26 1.262 . S
C4 O27 1.211 1_655 S
O5 Mn0 2.095 1_455 S
O5 C14 1.250 . S
O6 Mn1 2.121 . S
O6 C14 1.258 . S
C7 N8 1.326 . S
C7 C11 1.460 . S
C7 H13 0.929 . S
N8 Mn1 2.257 1_556 S
N8 C7 1.326 . S
N8 C12 1.362 . S
C9 C10 1.258 . S
C9 C12 1.431 . S
C9 C29 1.449 . S
C10 C9 1.258 . S
C10 C11 1.477 . S
C10 H30 0.931 . S
C11 C7 1.460 . S
C11 C10 1.477 . S
C11 H31 0.930 . S
C12 N8 1.362 . S
C12 C9 1.431 . S
C12 C22 1.476 . S
H13 C7 0.929 . S
C14 O5 1.250 . S
C14 O6 1.258 . S
O15 Mn0 2.162 . S
O15 C3 1.281 1_554 S
O16 Mn0 2.297 1_556 S
O16 C3 1.236 . S
N17 Mn1 2.282 . S
N17 C18 1.328 . S
N17 C22 1.318 1_554 S
C18 N17 1.328 . S
C18 C19 1.457 1_554 S
C18 H23 0.929 . S
C19 C18 1.457 1_556 S
C19 C20 1.291 . S
C19 H32 0.931 . S
C20 C19 1.291 . S
C20 C21 1.373 . S
C20 H33 0.929 . S
C21 C20 1.373 . S
C21 C22 1.396 . S
C21 C28 1.403 . S
C22 C12 1.476 . S
C22 N17 1.318 1_556 S
C22 C21 1.396 . S
H23 C18 0.929 . S
O24 Mn0 2.385 1_556 S
O24 C2 1.234 1_655 S
O25 Mn0 2.209 1_456 S
O25 Mn1 2.215 1_556 S
O25 C2 1.283 . S
O26 Mn0 2.094 . S
O26 C4 1.262 . S
O27 Mn1 2.117 . S
O27 C4 1.211 1_455 S
C28 C21 1.403 . S
C28 C29 1.399 . S
C28 H34 0.929 . S
C29 C9 1.449 . S
C29 C28 1.399 . S
C29 H35 0.930 . S
H30 C10 0.931 . S
H31 C11 0.930 . S
H32 C19 0.931 . S
H33 C20 0.929 . S
H34 C28 0.929 . S
H35 C29 0.930 . S
Mn36 O41 2.095 1_554 S
Mn36 O51 2.162 . S
Mn36 O52 2.297 . S
Mn36 O60 2.385 . S
Mn36 O61 2.209 . S
Mn36 O62 2.094 1_554 S
Mn37 O42 2.121 . S
Mn37 N44 2.257 1_556 S
Mn37 N53 2.282 1_556 S
Mn37 O61 2.215 1_556 S
Mn37 O63 2.117 . S
C38 O60 1.234 . S
C38 O61 1.283 . S
C39 O51 1.281 . S
C39 O52 1.236 . S
C40 O62 1.240 . S
C40 O63 1.264 . S
O41 Mn36 2.095 1_556 S
O41 C50 1.250 . S
O42 Mn37 2.121 . S
O42 C50 1.258 . S
C43 N44 1.326 . S
C43 C47 1.460 . S
C43 H49 0.929 . S
N44 Mn37 2.257 1_554 S
N44 C43 1.326 . S
N44 C48 1.362 . S
C45 C46 1.258 . S
C45 C48 1.431 . S
C45 C65 1.449 . S
C46 C45 1.258 . S
C46 C47 1.477 . S
C46 H66 0.931 . S
C47 C43 1.460 . S
C47 C46 1.477 . S
C47 H67 0.930 . S
C48 N44 1.362 . S
C48 C45 1.431 . S
C48 C58 1.476 . S
H49 C43 0.929 . S
C50 O41 1.250 . S
C50 O42 1.258 . S
O51 Mn36 2.162 . S
O51 C39 1.281 . S
O52 Mn36 2.297 . S
O52 C39 1.236 . S
N53 Mn37 2.282 1_554 S
N53 C54 1.328 . S
N53 C58 1.318 . S
C54 N53 1.328 . S
C54 C55 1.457 . S
C54 H59 0.901 1_554 S
C55 C54 1.457 . S
C55 C56 1.291 . S
C55 H68 0.931 . S
C56 C55 1.291 . S
C56 C57 1.373 . S
C56 H69 0.929 . S
C57 C56 1.373 . S
C57 C58 1.396 . S
C57 C64 1.403 . S
C58 C48 1.476 . S
C58 N53 1.318 . S
C58 C57 1.396 . S
H59 C54 0.901 1_556 S
O60 Mn36 2.385 . S
O60 C38 1.234 . S
O61 Mn36 2.209 . S
O61 Mn37 2.215 1_554 S
O61 C38 1.283 . S
O62 Mn36 2.094 1_556 S
O62 C40 1.240 . S
O63 Mn37 2.117 . S
O63 C40 1.264 . S
C64 C57 1.403 . S
C64 C65 1.399 . S
C64 H70 0.929 . S
C65 C45 1.449 . S
C65 C64 1.399 . S
C65 H71 0.930 . S
H66 C46 0.931 . S
H67 C47 0.930 . S
H68 C55 0.931 . S
H69 C56 0.929 . S
H70 C64 0.929 . S
H71 C65 0.930 . S
Mn72 O77 2.095 1_564 S
Mn72 O87 2.162 . S
Mn72 O88 2.297 . S
Mn72 O96 2.385 . S
Mn72 O97 2.209 1_565 S
Mn72 O98 2.094 1_554 S
Mn73 O78 2.121 1_554 S
Mn73 N80 2.257 . S
Mn73 N89 2.282 . S
Mn73 O97 2.215 . S
Mn73 O99 2.117 1_554 S
C74 O96 1.234 1_545 S
C74 O97 1.283 . S
C75 O87 1.281 . S
C75 O88 1.236 . S
C76 O98 1.240 . S
C76 O99 1.264 1_565 S
O77 Mn72 2.095 1_546 S
O77 C86 1.250 . S
O78 Mn73 2.121 1_556 S
O78 C86 1.258 . S
C79 N80 1.326 . S
C79 C83 1.460 . S
C79 H85 0.929 . S
N80 Mn73 2.257 . S
N80 C79 1.326 . S
N80 C84 1.362 . S
C81 C82 1.258 . S
C81 C84 1.431 . S
C81 C101 1.449 . S
C82 C81 1.258 . S
C82 C83 1.477 . S
C82 H102 0.931 . S
C83 C79 1.460 . S
C83 C82 1.477 . S
C83 H103 0.930 . S
C84 N80 1.362 . S
C84 C81 1.431 . S
C84 C94 1.476 . S
H85 C79 0.929 . S
C86 O77 1.250 . S
C86 O78 1.258 . S
O87 Mn72 2.162 . S
O87 C75 1.281 . S
O88 Mn72 2.297 . S
O88 C75 1.236 . S
N89 Mn73 2.282 . S
N89 C90 1.328 . S
N89 C94 1.318 . S
C90 N89 1.328 . S
C90 C91 1.457 . S
C90 H95 0.929 . S
C91 C90 1.457 . S
C91 C92 1.291 . S
C91 H104 0.931 . S
C92 C91 1.291 . S
C92 C93 1.373 . S
C92 H105 0.929 . S
C93 C92 1.373 . S
C93 C94 1.396 . S
C93 C100 1.403 . S
C94 C84 1.476 . S
C94 N89 1.318 . S
C94 C93 1.396 . S
H95 C90 0.929 . S
O96 Mn72 2.385 . S
O96 C74 1.234 1_565 S
O97 Mn72 2.209 1_545 S
O97 Mn73 2.215 . S
O97 C74 1.283 . S
O98 Mn72 2.094 1_556 S
O98 C76 1.240 . S
O99 Mn73 2.117 1_556 S
O99 C76 1.264 1_545 S
C100 C93 1.403 . S
C100 C101 1.399 . S
C100 H106 0.929 . S
C101 C81 1.449 . S
C101 C100 1.399 . S
C101 H107 0.930 . S
H102 C82 0.931 . S
H103 C83 0.930 . S
H104 C91 0.931 . S
H105 C92 0.929 . S
H106 C100 0.929 . S
H107 C101 0.930 . S
Mn108 O113 2.095 1_655 S
Mn108 O123 2.162 . S
Mn108 O124 2.297 1_554 S
Mn108 O132 2.385 1_554 S
Mn108 O133 2.209 1_654 S
Mn108 O134 2.094 . S
Mn109 O114 2.121 . S
Mn109 N116 2.257 1_554 S
Mn109 N125 2.282 . S
Mn109 O133 2.215 1_554 S
Mn109 O135 2.117 . S
C110 O132 1.234 1_455 S
C110 O133 1.283 . S
C111 O123 1.281 1_556 S
C111 O124 1.236 . S
C112 O134 1.240 . S
C112 O135 1.264 1_655 S
O113 Mn108 2.095 1_455 S
O113 C122 1.250 . S
O114 Mn109 2.121 . S
O114 C122 1.258 . S
C115 N116 1.326 . S
C115 C119 1.460 . S
C115 H121 0.929 . S
N116 Mn109 2.257 1_556 S
N116 C115 1.326 . S
N116 C120 1.362 . S
C117 C118 1.258 . S
C117 C120 1.431 . S
C117 C137 1.449 . S
C118 C117 1.258 . S
C118 C119 1.477 . S
C118 H138 0.931 . S
C119 C115 1.460 . S
C119 C118 1.477 . S
C119 H139 0.930 . S
C120 N116 1.362 . S
C120 C117 1.431 . S
C120 C130 1.476 . S
H121 C115 0.929 . S
C122 O113 1.250 . S
C122 O114 1.258 . S
O123 Mn108 2.162 . S
O123 C111 1.281 1_554 S
O124 Mn108 2.297 1_556 S
O124 C111 1.236 . S
N125 Mn109 2.282 . S
N125 C126 1.328 . S
N125 C130 1.318 1_554 S
C126 N125 1.328 . S
C126 C127 1.457 1_554 S
C126 H131 0.929 . S
C127 C126 1.457 1_556 S
C127 C128 1.291 . S
C127 H140 0.930 . S
C128 C127 1.291 . S
C128 C129 1.373 . S
C128 H141 0.929 . S
C129 C128 1.373 . S
C129 C130 1.396 . S
C129 C136 1.403 . S
C130 C120 1.476 . S
C130 N125 1.318 1_556 S
C130 C129 1.396 . S
H131 C126 0.929 . S
O132 Mn108 2.385 1_556 S
O132 C110 1.234 1_655 S
O133 Mn108 2.209 1_456 S
O133 Mn109 2.215 1_556 S
O133 C110 1.283 . S
O134 Mn108 2.094 . S
O134 C112 1.240 . S
O135 Mn109 2.117 . S
O135 C112 1.264 1_455 S
C136 C129 1.403 . S
C136 C137 1.399 . S
C136 H142 0.929 . S
C137 C117 1.449 . S
C137 C136 1.399 . S
C137 H143 0.930 . S
H138 C118 0.931 . S
H139 C119 0.930 . S
H140 C127 0.930 . S
H141 C128 0.929 . S
H142 C136 0.929 . S
H143 C137 0.930 . S
Mn144 O149 2.095 1_554 S
Mn144 O159 2.162 . S
Mn144 O160 2.297 . S
Mn144 O168 2.385 . S
Mn144 O169 2.209 . S
Mn144 O170 2.094 1_554 S
Mn145 O150 2.121 . S
Mn145 N152 2.257 1_556 S
Mn145 N161 2.282 1_556 S
Mn145 O169 2.215 1_556 S
Mn145 O171 2.117 . S
C146 O168 1.234 . S
C146 O169 1.283 . S
C147 O159 1.281 . S
C147 O160 1.236 . S
C148 O170 1.240 . S
C148 O171 1.264 . S
O149 Mn144 2.095 1_556 S
O149 C158 1.250 . S
O150 Mn145 2.121 . S
O150 C158 1.258 . S
C151 N152 1.326 . S
C151 C155 1.460 . S
C151 H157 0.929 . S
N152 Mn145 2.257 1_554 S
N152 C151 1.326 . S
N152 C156 1.362 . S
C153 C154 1.258 . S
C153 C156 1.431 . S
C153 C173 1.449 . S
C154 C153 1.258 . S
C154 C155 1.477 . S
C154 H174 0.931 . S
C155 C151 1.460 . S
C155 C154 1.477 . S
C155 H175 0.930 . S
C156 N152 1.362 . S
C156 C153 1.431 . S
C156 C166 1.476 . S
H157 C151 0.929 . S
C158 O149 1.250 . S
C158 O150 1.258 . S
O159 Mn144 2.162 . S
O159 C147 1.281 . S
O160 Mn144 2.297 . S
O160 C147 1.236 . S
N161 Mn145 2.282 1_554 S
N161 C162 1.328 . S
N161 C166 1.318 . S
C162 N161 1.328 . S
C162 C163 1.457 . S
C162 H167 0.933 . S
C163 C162 1.457 . S
C163 C164 1.291 . S
C163 H176 0.931 . S
C164 C163 1.291 . S
C164 C165 1.373 . S
C164 H177 0.929 . S
C165 C164 1.373 . S
C165 C166 1.396 . S
C165 C172 1.403 . S
C166 C156 1.476 . S
C166 N161 1.318 . S
C166 C165 1.396 . S
H167 C162 0.933 . S
O168 Mn144 2.385 . S
O168 C146 1.234 . S
O169 Mn144 2.209 . S
O169 Mn145 2.215 1_554 S
O169 C146 1.283 . S
O170 Mn144 2.094 1_556 S
O170 C148 1.240 . S
O171 Mn145 2.117 . S
O171 C148 1.264 . S
C172 C165 1.403 . S
C172 C173 1.399 . S
C172 H178 0.929 . S
C173 C153 1.449 . S
C173 C172 1.399 . S
C173 H179 0.930 . S
H174 C154 0.931 . S
H175 C155 0.930 . S
H176 C163 0.931 . S
H177 C164 0.929 . S
H178 C172 0.929 . S
H179 C173 0.930 . S
Mn180 O185 2.095 1_545 S
Mn180 O195 2.162 . S
Mn180 O196 2.297 1_554 S
Mn180 O204 2.385 1_554 S
Mn180 O205 2.209 1_544 S
Mn180 O206 2.094 . S
Mn181 O186 2.121 . S
Mn181 N188 2.257 1_554 S
Mn181 N197 2.282 . S
Mn181 O205 2.215 1_554 S
Mn181 O207 2.117 . S
C182 O204 1.234 1_565 S
C182 O205 1.283 . S
C183 O195 1.281 1_556 S
C183 O196 1.236 . S
C184 O206 1.240 . S
C184 O207 1.264 1_545 S
O185 Mn180 2.095 1_565 S
O185 C194 1.250 . S
O186 Mn181 2.121 . S
O186 C194 1.258 . S
C187 N188 1.326 . S
C187 C191 1.460 . S
C187 H193 0.929 . S
N188 Mn181 2.257 1_556 S
N188 C187 1.326 . S
N188 C192 1.362 . S
C189 C190 1.258 . S
C189 C192 1.431 . S
C189 C209 1.449 . S
C190 C189 1.258 . S
C190 C191 1.477 . S
C190 H210 0.931 . S
C191 C187 1.460 . S
C191 C190 1.477 . S
C191 H211 0.930 . S
C192 N188 1.362 . S
C192 C189 1.431 . S
C192 C202 1.476 . S
H193 C187 0.929 . S
C194 O185 1.250 . S
C194 O186 1.258 . S
O195 Mn180 2.162 . S
O195 C183 1.281 1_554 S
O196 Mn180 2.297 1_556 S
O196 C183 1.236 . S
N197 Mn181 2.282 . S
N197 C198 1.328 . S
N197 C202 1.318 1_554 S
C198 N197 1.328 . S
C198 C199 1.457 1_554 S
C198 H203 0.929 . S
C199 C198 1.457 1_556 S
C199 C200 1.291 . S
C199 H212 0.933 . S
C200 C199 1.291 . S
C200 C201 1.373 . S
C200 H213 0.929 . S
C201 C200 1.373 . S
C201 C202 1.396 . S
C201 C208 1.403 . S
C202 C192 1.476 . S
C202 N197 1.318 1_556 S
C202 C201 1.396 . S
H203 C198 0.929 . S
O204 Mn180 2.385 1_556 S
O204 C182 1.234 1_545 S
O205 Mn180 2.209 1_566 S
O205 Mn181 2.215 1_556 S
O205 C182 1.283 . S
O206 Mn180 2.094 . S
O206 C184 1.240 . S
O207 Mn181 2.117 . S
O207 C184 1.264 1_565 S
C208 C201 1.403 . S
C208 C209 1.399 . S
C208 H214 0.929 . S
C209 C189 1.449 . S
C209 C208 1.399 . S
C209 H215 0.930 . S
H210 C190 0.931 . S
H211 C191 0.930 . S
H212 C199 0.933 . S
H213 C200 0.929 . S
H214 C208 0.929 . S
H215 C209 0.930 . S
Mn216 O221 2.095 . S
Mn216 O231 2.162 . S
Mn216 O232 2.297 . S
Mn216 O240 2.385 . S
Mn216 O241 2.209 . S
Mn216 O242 2.094 . S
Mn217 O222 2.121 . S
Mn217 N224 2.257 . S
Mn217 N233 2.282 . S
Mn217 O241 2.215 . S
Mn217 O243 2.117 . S
C218 O240 1.234 . S
C218 O241 1.283 . S
C219 O231 1.281 . S
C219 O232 1.236 . S
C220 O242 1.240 . S
C220 O243 1.264 . S
O221 Mn216 2.095 . S
O221 C230 1.250 . S
O222 Mn217 2.121 . S
O222 C230 1.258 . S
C223 N224 1.326 . S
C223 C227 1.460 . S
C223 H229 0.929 . S
N224 Mn217 2.257 . S
N224 C223 1.326 . S
N224 C228 1.362 . S
C225 C226 1.258 . S
C225 C228 1.431 . S
C225 C245 1.449 . S
C226 C225 1.258 . S
C226 C227 1.477 . S
C226 H246 0.931 . S
C227 C223 1.460 . S
C227 C226 1.477 . S
C227 H247 0.930 . S
C228 N224 1.362 . S
C228 C225 1.431 . S
C228 C238 1.476 . S
H229 C223 0.929 . S
C230 O221 1.250 . S
C230 O222 1.258 . S
O231 Mn216 2.162 . S
O231 C219 1.281 . S
O232 Mn216 2.297 . S
O232 C219 1.236 . S
N233 Mn217 2.282 . S
N233 C234 1.328 . S
N233 C238 1.318 . S
C234 N233 1.328 . S
C234 C235 1.457 . S
C234 H239 0.929 . S
C235 C234 1.457 . S
C235 C236 1.291 . S
C235 H248 0.931 . S
C236 C235 1.291 . S
C236 C237 1.373 . S
C236 H249 0.929 . S
C237 C236 1.373 . S
C237 C238 1.396 . S
C237 C244 1.403 . S
C238 C228 1.476 . S
C238 N233 1.318 . S
C238 C237 1.396 . S
H239 C234 0.929 . S
O240 Mn216 2.385 . S
O240 C218 1.234 . S
O241 Mn216 2.209 . S
O241 Mn217 2.215 . S
O241 C218 1.283 . S
O242 Mn216 2.094 . S
O242 C220 1.240 . S
O243 Mn217 2.117 . S
O243 C220 1.264 . S
C244 C237 1.403 . S
C244 C245 1.399 . S
C244 H250 0.929 . S
C245 C225 1.449 . S
C245 C244 1.399 . S
C245 H251 0.930 . S
H246 C226 0.931 . S
H247 C227 0.930 . S
H248 C235 0.931 . S
H249 C236 0.929 . S
H250 C244 0.929 . S
H251 C245 0.930 . S
Mn252 O257 2.095 . S
Mn252 O267 2.162 1_565 S
Mn252 O268 2.297 1_565 S
Mn252 O276 2.385 . S
Mn252 O277 2.209 . S
Mn252 O278 2.094 . S
Mn253 O258 2.121 . S
Mn253 N260 2.257 . S
Mn253 N269 2.282 . S
Mn253 O277 2.215 . S
Mn253 O279 2.117 . S
C254 O276 1.234 . S
C254 O277 1.283 . S
C255 O267 1.281 . S
C255 O268 1.236 . S
C256 O278 1.240 . S
C256 O279 1.264 . S
O257 Mn252 2.095 . S
O257 C266 1.250 . S
O258 Mn253 2.121 . S
O258 C266 1.258 . S
C259 N260 1.326 . S
C259 C263 1.460 . S
C259 H265 0.929 . S
N260 Mn253 2.257 . S
N260 C259 1.326 . S
N260 C264 1.362 . S
C261 C262 1.258 . S
C261 C264 1.431 . S
C261 C281 1.449 . S
C262 C261 1.258 . S
C262 C263 1.477 . S
C262 H282 0.931 . S
C263 C259 1.460 . S
C263 C262 1.477 . S
C263 H283 0.930 . S
C264 N260 1.362 . S
C264 C261 1.431 . S
C264 C274 1.476 . S
H265 C259 0.929 . S
C266 O257 1.250 . S
C266 O258 1.258 . S
O267 Mn252 2.162 1_545 S
O267 C255 1.281 . S
O268 Mn252 2.297 1_545 S
O268 C255 1.236 . S
N269 Mn253 2.282 . S
N269 C270 1.328 . S
N269 C274 1.318 . S
C270 N269 1.328 . S
C270 C271 1.457 . S
C270 H275 0.929 . S
C271 C270 1.457 . S
C271 C272 1.291 . S
C271 H284 0.931 . S
C272 C271 1.291 . S
C272 C273 1.373 . S
C272 H285 0.929 . S
C273 C272 1.373 . S
C273 C274 1.396 . S
C273 C280 1.403 . S
C274 C264 1.476 . S
C274 N269 1.318 . S
C274 C273 1.396 . S
H275 C270 0.929 . S
O276 Mn252 2.385 . S
O276 C254 1.234 . S
O277 Mn252 2.209 . S
O277 Mn253 2.215 . S
O277 C254 1.283 . S
O278 Mn252 2.094 . S
O278 C256 1.240 . S
O279 Mn253 2.117 . S
O279 C256 1.264 . S
C280 C273 1.403 . S
C280 C281 1.399 . S
C280 H286 0.929 . S
C281 C261 1.449 . S
C281 C280 1.399 . S
C281 H287 0.930 . S
H282 C262 0.931 . S
H283 C263 0.930 . S
H284 C271 0.931 . S
H285 C272 0.929 . S
H286 C280 0.929 . S
H287 C281 0.930 . S
Mn288 O293 2.095 . S
Mn288 O303 2.162 1_455 S
Mn288 O304 2.297 1_455 S
Mn288 O312 2.385 . S
Mn288 O313 2.209 . S
Mn288 O314 2.094 . S
Mn289 O294 2.121 . S
Mn289 N296 2.257 . S
Mn289 N305 2.282 . S
Mn289 O313 2.215 . S
Mn289 O315 2.117 . S
C290 O312 1.234 . S
C290 O313 1.283 . S
C291 O303 1.281 . S
C291 O304 1.236 . S
C292 O314 1.240 . S
C292 O315 1.264 . S
O293 Mn288 2.095 . S
O293 C302 1.250 . S
O294 Mn289 2.121 . S
O294 C302 1.258 . S
C295 N296 1.326 . S
C295 C299 1.460 . S
C295 H301 0.929 . S
N296 Mn289 2.257 . S
N296 C295 1.326 . S
N296 C300 1.362 . S
C297 C298 1.258 . S
C297 C300 1.431 . S
C297 C317 1.449 . S
C298 C297 1.258 . S
C298 C299 1.477 . S
C298 H318 0.931 . S
C299 C295 1.460 . S
C299 C298 1.477 . S
C299 H319 0.930 . S
C300 N296 1.362 . S
C300 C297 1.431 . S
C300 C310 1.476 . S
H301 C295 0.929 . S
C302 O293 1.250 . S
C302 O294 1.258 . S
O303 Mn288 2.162 1_655 S
O303 C291 1.281 . S
O304 Mn288 2.297 1_655 S
O304 C291 1.236 . S
N305 Mn289 2.282 . S
N305 C306 1.328 . S
N305 C310 1.318 . S
C306 N305 1.328 . S
C306 C307 1.457 . S
C306 H311 0.929 . S
C307 C306 1.457 . S
C307 C308 1.291 . S
C307 H320 0.931 . S
C308 C307 1.291 . S
C308 C309 1.373 . S
C308 H321 0.929 . S
C309 C308 1.373 . S
C309 C310 1.396 . S
C309 C316 1.403 . S
C310 C300 1.476 . S
C310 N305 1.318 . S
C310 C309 1.396 . S
H311 C306 0.929 . S
O312 Mn288 2.385 . S
O312 C290 1.234 . S
O313 Mn288 2.209 . S
O313 Mn289 2.215 . S
O313 C290 1.283 . S
O314 Mn288 2.094 . S
O314 C292 1.240 . S
O315 Mn289 2.117 . S
O315 C292 1.264 . S
C316 C309 1.403 . S
C316 C317 1.399 . S
C316 H322 0.929 . S
C317 C297 1.449 . S
C317 C316 1.399 . S
C317 H323 0.930 . S
H318 C298 0.931 . S
H319 C299 0.930 . S
H320 C307 0.931 . S
H321 C308 0.929 . S
H322 C316 0.929 . S
H323 C317 0.930 . S
Mn324 O329 2.099 . S
Mn324 O339 2.162 . S
Mn324 O340 2.297 . S
Mn324 O348 2.385 . S
Mn324 O349 2.209 . S
Mn324 O350 2.094 . S
Mn325 O330 2.121 1_565 S
Mn325 N332 2.257 . S
Mn325 N341 2.282 . S
Mn325 O349 2.215 . S
Mn325 O351 2.117 . S
C326 O348 1.234 . S
C326 O349 1.283 . S
C327 O339 1.281 . S
C327 O340 1.236 . S
C328 O350 1.240 . S
C328 O351 1.264 . S
O329 Mn324 2.099 . S
O329 C338 1.248 1_565 S
O330 Mn325 2.121 1_545 S
O330 C338 1.258 . S
C331 N332 1.326 1_545 S
C331 C335 1.460 . S
C331 H337 0.929 . S
N332 Mn325 2.257 . S
N332 C331 1.326 1_565 S
N332 C336 1.362 . S
C333 C334 1.258 1_565 S
C333 C336 1.431 . S
C333 C353 1.449 . S
C334 C333 1.258 1_545 S
C334 C335 1.477 . S
C334 H354 0.931 . S
C335 C331 1.460 . S
C335 C334 1.477 . S
C335 H355 0.930 . S
C336 N332 1.362 . S
C336 C333 1.431 . S
C336 C346 1.476 . S
H337 C331 0.929 . S
C338 O329 1.248 1_545 S
C338 O330 1.258 . S
O339 Mn324 2.162 . S
O339 C327 1.281 . S
O340 Mn324 2.297 . S
O340 C327 1.236 . S
N341 Mn325 2.282 . S
N341 C342 1.328 . S
N341 C346 1.318 . S
C342 N341 1.328 . S
C342 C343 1.457 . S
C342 H347 0.929 . S
C343 C342 1.457 . S
C343 C344 1.291 . S
C343 H356 0.931 . S
C344 C343 1.291 . S
C344 C345 1.373 . S
C344 H357 0.929 . S
C345 C344 1.373 . S
C345 C346 1.396 . S
C345 C352 1.403 . S
C346 C336 1.476 . S
C346 N341 1.318 . S
C346 C345 1.396 . S
H347 C342 0.929 . S
O348 Mn324 2.385 . S
O348 C326 1.234 . S
O349 Mn324 2.209 . S
O349 Mn325 2.215 . S
O349 C326 1.283 . S
O350 Mn324 2.094 . S
O350 C328 1.240 . S
O351 Mn325 2.117 . S
O351 C328 1.264 . S
C352 C345 1.403 . S
C352 C353 1.399 . S
C352 H358 0.929 . S
C353 C333 1.449 . S
C353 C352 1.399 . S
C353 H359 0.930 . S
H354 C334 0.931 . S
H355 C335 0.930 . S
H356 C343 0.931 . S
H357 C344 0.929 . S
H358 C352 0.929 . S
H359 C353 0.930 . S
Mn360 O365 2.095 . S
Mn360 O375 2.162 1_455 S
Mn360 O376 2.297 1_455 S
Mn360 O384 2.385 . S
Mn360 O385 2.209 . S
Mn360 O386 2.094 . S
Mn361 O366 2.121 . S
Mn361 N368 2.257 . S
Mn361 N377 2.282 . S
Mn361 O385 2.215 . S
Mn361 O387 2.117 . S
C362 O384 1.234 . S
C362 O385 1.283 . S
C363 O375 1.281 . S
C363 O376 1.236 . S
C364 O386 1.240 . S
C364 O387 1.264 . S
O365 Mn360 2.095 . S
O365 C374 1.250 . S
O366 Mn361 2.121 . S
O366 C374 1.258 . S
C367 N368 1.326 . S
C367 C371 1.460 . S
C367 H373 0.929 . S
N368 Mn361 2.257 . S
N368 C367 1.326 . S
N368 C372 1.362 . S
C369 C370 1.258 . S
C369 C372 1.431 . S
C369 C389 1.449 . S
C370 C369 1.258 . S
C370 C371 1.477 . S
C370 H390 0.931 . S
C371 C367 1.460 . S
C371 C370 1.477 . S
C371 H391 0.930 . S
C372 N368 1.362 . S
C372 C369 1.431 . S
C372 C382 1.476 . S
H373 C367 0.929 . S
C374 O365 1.250 . S
C374 O366 1.258 . S
O375 Mn360 2.162 1_655 S
O375 C363 1.281 . S
O376 Mn360 2.297 1_655 S
O376 C363 1.236 . S
N377 Mn361 2.282 . S
N377 C378 1.328 . S
N377 C382 1.318 . S
C378 N377 1.328 . S
C378 C379 1.457 . S
C378 H383 0.929 . S
C379 C378 1.457 . S
C379 C380 1.291 . S
C379 H392 0.931 . S
C380 C379 1.291 . S
C380 C381 1.373 . S
C380 H393 0.929 . S
C381 C380 1.373 . S
C381 C382 1.396 . S
C381 C388 1.403 . S
C382 C372 1.476 . S
C382 N377 1.318 . S
C382 C381 1.396 . S
H383 C378 0.929 . S
O384 Mn360 2.385 . S
O384 C362 1.234 . S
O385 Mn360 2.209 . S
O385 Mn361 2.215 . S
O385 C362 1.283 . S
O386 Mn360 2.094 . S
O386 C364 1.240 . S
O387 Mn361 2.117 . S
O387 C364 1.264 . S
C388 C381 1.403 . S
C388 C389 1.399 . S
C388 H394 0.929 . S
C389 C369 1.449 . S
C389 C388 1.399 . S
C389 H395 0.930 . S
H390 C370 0.931 . S
H391 C371 0.930 . S
H392 C379 0.931 . S
H393 C380 0.929 . S
H394 C388 0.929 . S
H395 C389 0.930 . S
Mn396 O401 2.095 . S
Mn396 O411 2.162 . S
Mn396 O412 2.297 . S
Mn396 O420 2.385 . S
Mn396 O421 2.209 . S
Mn396 O422 2.094 . S
Mn397 O402 2.121 . S
Mn397 N404 2.257 . S
Mn397 N413 2.282 . S
Mn397 O421 2.215 . S
Mn397 O423 2.117 . S
C398 O420 1.234 . S
C398 O421 1.283 . S
C399 O411 1.281 . S
C399 O412 1.236 . S
C400 O422 1.240 . S
C400 O423 1.264 . S
O401 Mn396 2.095 . S
O401 C410 1.250 . S
O402 Mn397 2.121 . S
O402 C410 1.258 . S
C403 N404 1.326 . S
C403 C407 1.460 . S
C403 H409 0.929 . S
N404 Mn397 2.257 . S
N404 C403 1.326 . S
N404 C408 1.362 . S
C405 C406 1.258 . S
C405 C408 1.431 . S
C405 C425 1.449 . S
C406 C405 1.258 . S
C406 C407 1.477 . S
C406 H426 0.931 . S
C407 C403 1.460 . S
C407 C406 1.477 . S
C407 H427 0.930 . S
C408 N404 1.362 . S
C408 C405 1.431 . S
C408 C418 1.476 . S
H409 C403 0.929 . S
C410 O401 1.250 . S
C410 O402 1.258 . S
O411 Mn396 2.162 . S
O411 C399 1.281 . S
O412 Mn396 2.297 . S
O412 C399 1.236 . S
N413 Mn397 2.282 . S
N413 C414 1.328 . S
N413 C418 1.318 . S
C414 N413 1.328 . S
C414 C415 1.457 . S
C414 H419 0.929 . S
C415 C414 1.457 . S
C415 C416 1.291 . S
C415 H428 0.931 . S
C416 C415 1.291 . S
C416 C417 1.373 . S
C416 H429 0.929 . S
C417 C416 1.373 . S
C417 C418 1.396 . S
C417 C424 1.403 . S
C418 C408 1.476 . S
C418 N413 1.318 . S
C418 C417 1.396 . S
H419 C414 0.929 . S
O420 Mn396 2.385 . S
O420 C398 1.234 . S
O421 Mn396 2.209 . S
O421 Mn397 2.215 . S
O421 C398 1.283 . S
O422 Mn396 2.094 . S
O422 C400 1.240 . S
O423 Mn397 2.117 . S
O423 C400 1.264 . S
C424 C417 1.403 . S
C424 C425 1.399 . S
C424 H430 0.929 . S
C425 C405 1.449 . S
C425 C424 1.399 . S
C425 H431 0.930 . S
H426 C406 0.931 . S
H427 C407 0.930 . S
H428 C415 0.931 . S
H429 C416 0.929 . S
H430 C424 0.929 . S
H431 C425 0.930 . S
Mn432 O437 2.095 . S
Mn432 O447 2.162 1_545 S
Mn432 O448 2.297 1_545 S
Mn432 O456 2.385 . S
Mn432 O457 2.209 . S
Mn432 O458 2.094 . S
Mn433 O438 2.121 . S
Mn433 N440 2.257 . S
Mn433 N449 2.282 . S
Mn433 O457 2.215 . S
Mn433 O459 2.117 . S
C434 O456 1.234 . S
C434 O457 1.283 . S
C435 O447 1.281 . S
C435 O448 1.236 . S
C436 O458 1.240 . S
C436 O459 1.264 . S
O437 Mn432 2.095 . S
O437 C446 1.250 . S
O438 Mn433 2.121 . S
O438 C446 1.258 . S
C439 N440 1.326 . S
C439 C443 1.460 . S
C439 H445 0.929 . S
N440 Mn433 2.257 . S
N440 C439 1.326 . S
N440 C444 1.362 . S
C441 C442 1.258 . S
C441 C444 1.431 . S
C441 C461 1.449 . S
C442 C441 1.258 . S
C442 C443 1.477 . S
C442 H462 0.931 . S
C443 C439 1.460 . S
C443 C442 1.477 . S
C443 H463 0.930 . S
C444 N440 1.362 . S
C444 C441 1.431 . S
C444 C454 1.476 . S
H445 C439 0.929 . S
C446 O437 1.250 . S
C446 O438 1.258 . S
O447 Mn432 2.162 1_565 S
O447 C435 1.281 . S
O448 Mn432 2.297 1_565 S
O448 C435 1.236 . S
N449 Mn433 2.282 . S
N449 C450 1.328 . S
N449 C454 1.318 . S
C450 N449 1.328 . S
C450 C451 1.457 . S
C450 H455 0.929 . S
C451 C450 1.457 . S
C451 C452 1.291 . S
C451 H464 0.931 . S
C452 C451 1.291 . S
C452 C453 1.373 . S
C452 H465 0.929 . S
C453 C452 1.373 . S
C453 C454 1.396 . S
C453 C460 1.403 . S
C454 C444 1.476 . S
C454 N449 1.318 . S
C454 C453 1.396 . S
H455 C450 0.929 . S
O456 Mn432 2.385 . S
O456 C434 1.234 . S
O457 Mn432 2.209 . S
O457 Mn433 2.215 . S
O457 C434 1.283 . S
O458 Mn432 2.094 . S
O458 C436 1.240 . S
O459 Mn433 2.117 . S
O459 C436 1.264 . S
C460 C453 1.403 . S
C460 C461 1.399 . S
C460 H466 0.929 . S
C461 C441 1.449 . S
C461 C460 1.399 . S
C461 H467 0.930 . S
H462 C442 0.931 . S
H463 C443 0.930 . S
H464 C451 0.931 . S
H465 C452 0.929 . S
H466 C460 0.929 . S
H467 C461 0.930 . S
Mn468 O473 2.095 . S
Mn468 O483 2.162 . S
Mn468 O484 2.297 . S
Mn468 O492 2.385 . S
Mn468 O493 2.209 . S
Mn468 O494 2.094 . S
Mn469 O474 2.121 1_655 S
Mn469 N476 2.257 . S
Mn469 N485 2.282 . S
Mn469 O493 2.215 . S
Mn469 O495 2.117 . S
C470 O492 1.234 . S
C470 O493 1.283 . S
C471 O483 1.281 . S
C471 O484 1.236 . S
C472 O494 1.240 . S
C472 O495 1.264 . S
O473 Mn468 2.095 . S
O473 C482 1.250 1_655 S
O474 Mn469 2.121 1_455 S
O474 C482 1.258 . S
C475 N476 1.326 1_455 S
C475 C479 1.460 . S
C475 H481 0.929 . S
N476 Mn469 2.257 . S
N476 C475 1.326 1_655 S
N476 C480 1.362 . S
C477 C478 1.258 1_655 S
C477 C480 1.431 . S
C477 C497 1.449 . S
C478 C477 1.258 1_455 S
C478 C479 1.477 . S
C478 H498 0.931 . S
C479 C475 1.460 . S
C479 C478 1.477 . S
C479 H499 0.930 . S
C480 N476 1.362 . S
C480 C477 1.431 . S
C480 C490 1.476 . S
H481 C475 0.929 . S
C482 O473 1.250 1_455 S
C482 O474 1.258 . S
O483 Mn468 2.162 . S
O483 C471 1.281 . S
O484 Mn468 2.297 . S
O484 C471 1.236 . S
N485 Mn469 2.282 . S
N485 C486 1.328 . S
N485 C490 1.318 . S
C486 N485 1.328 . S
C486 C487 1.457 . S
C486 H491 0.929 . S
C487 C486 1.457 . S
C487 C488 1.291 . S
C487 H500 0.931 . S
C488 C487 1.291 . S
C488 C489 1.373 . S
C488 H501 0.929 . S
C489 C488 1.373 . S
C489 C490 1.396 . S
C489 C496 1.403 . S
C490 C480 1.476 . S
C490 N485 1.318 . S
C490 C489 1.396 . S
H491 C486 0.929 . S
O492 Mn468 2.385 . S
O492 C470 1.234 . S
O493 Mn468 2.209 . S
O493 Mn469 2.215 . S
O493 C470 1.283 . S
O494 Mn468 2.094 . S
O494 C472 1.240 . S
O495 Mn469 2.117 . S
O495 C472 1.264 . S
C496 C489 1.403 . S
C496 C497 1.399 . S
C496 H502 0.929 . S
C497 C477 1.449 . S
C497 C496 1.399 . S
C497 H503 0.930 . S
H498 C478 0.931 . S
H499 C479 0.930 . S
H500 C487 0.931 . S
H501 C488 0.929 . S
H502 C496 0.929 . S
H503 C497 0.930 . S
Mn504 O509 2.095 . S
Mn504 O519 2.162 . S
Mn504 O520 2.297 . S
Mn504 O528 2.385 . S
Mn504 O529 2.209 . S
Mn504 O530 2.094 . S
Mn505 O510 2.121 . S
Mn505 N512 2.257 . S
Mn505 N521 2.282 . S
Mn505 O529 2.215 . S
Mn505 O531 2.117 . S
C506 O528 1.234 . S
C506 O529 1.283 . S
C507 O519 1.281 . S
C507 O520 1.236 . S
C508 O530 1.240 . S
C508 O531 1.264 . S
O509 Mn504 2.095 . S
O509 C518 1.250 . S
O510 Mn505 2.121 . S
O510 C518 1.258 . S
C511 N512 1.326 . S
C511 C515 1.460 . S
C511 H517 0.929 . S
N512 Mn505 2.257 . S
N512 C511 1.326 . S
N512 C516 1.362 . S
C513 C514 1.258 . S
C513 C516 1.431 . S
C513 C533 1.449 . S
C514 C513 1.258 . S
C514 C515 1.477 . S
C514 H534 0.931 . S
C515 C511 1.460 . S
C515 C514 1.477 . S
C515 H535 0.930 . S
C516 N512 1.362 . S
C516 C513 1.431 . S
C516 C526 1.476 . S
H517 C511 0.929 . S
C518 O509 1.250 . S
C518 O510 1.258 . S
O519 Mn504 2.162 . S
O519 C507 1.281 . S
O520 Mn504 2.297 . S
O520 C507 1.236 . S
N521 Mn505 2.282 . S
N521 C522 1.328 . S
N521 C526 1.318 . S
C522 N521 1.328 . S
C522 C523 1.457 . S
C522 H527 0.929 . S
C523 C522 1.457 . S
C523 C524 1.291 . S
C523 H536 0.931 . S
C524 C523 1.291 . S
C524 C525 1.373 . S
C524 H537 0.929 . S
C525 C524 1.373 . S
C525 C526 1.396 . S
C525 C532 1.403 . S
C526 C516 1.476 . S
C526 N521 1.318 . S
C526 C525 1.396 . S
H527 C522 0.929 . S
O528 Mn504 2.385 . S
O528 C506 1.234 . S
O529 Mn504 2.209 . S
O529 Mn505 2.215 . S
O529 C506 1.283 . S
O530 Mn504 2.094 . S
O530 C508 1.240 . S
O531 Mn505 2.117 . S
O531 C508 1.264 . S
C532 C525 1.403 . S
C532 C533 1.399 . S
C532 H538 0.929 . S
C533 C513 1.449 . S
C533 C532 1.399 . S
C533 H539 0.930 . S
H534 C514 0.931 . S
H535 C515 0.930 . S
H536 C523 0.931 . S
H537 C524 0.929 . S
H538 C532 0.929 . S
H539 C533 0.930 . S
Mn540 O545 2.095 . S
Mn540 O555 2.162 . S
Mn540 O556 2.297 . S
Mn540 O564 2.385 . S
Mn540 O565 2.209 . S
Mn540 O566 2.094 . S
Mn541 O546 2.121 . S
Mn541 N548 2.257 . S
Mn541 N557 2.282 . S
Mn541 O565 2.215 . S
Mn541 O567 2.117 . S
C542 O564 1.234 . S
C542 O565 1.283 . S
C543 O555 1.281 . S
C543 O556 1.236 . S
C544 O566 1.240 . S
C544 O567 1.264 . S
O545 Mn540 2.095 . S
O545 C554 1.250 . S
O546 Mn541 2.121 . S
O546 C554 1.258 . S
C547 N548 1.326 . S
C547 C551 1.460 . S
C547 H553 0.929 . S
N548 Mn541 2.257 . S
N548 C547 1.326 . S
N548 C552 1.362 . S
C549 C550 1.258 . S
C549 C552 1.431 . S
C549 C569 1.449 . S
C550 C549 1.258 . S
C550 C551 1.477 . S
C550 H570 0.931 . S
C551 C547 1.460 . S
C551 C550 1.477 . S
C551 H571 0.930 . S
C552 N548 1.362 . S
C552 C549 1.431 . S
C552 C562 1.476 . S
H553 C547 0.929 . S
C554 O545 1.250 . S
C554 O546 1.258 . S
O555 Mn540 2.162 . S
O555 C543 1.281 . S
O556 Mn540 2.297 . S
O556 C543 1.236 . S
N557 Mn541 2.282 . S
N557 C558 1.328 . S
N557 C562 1.318 . S
C558 N557 1.328 . S
C558 C559 1.457 . S
C558 H563 0.929 . S
C559 C558 1.457 . S
C559 C560 1.291 . S
C559 H572 0.931 . S
C560 C559 1.291 . S
C560 C561 1.373 . S
C560 H573 0.929 . S
C561 C560 1.373 . S
C561 C562 1.396 . S
C561 C568 1.403 . S
C562 C552 1.476 . S
C562 N557 1.318 . S
C562 C561 1.396 . S
H563 C558 0.929 . S
O564 Mn540 2.385 . S
O564 C542 1.234 . S
O565 Mn540 2.209 . S
O565 Mn541 2.215 . S
O565 C542 1.283 . S
O566 Mn540 2.094 . S
O566 C544 1.240 . S
O567 Mn541 2.117 . S
O567 C544 1.264 . S
C568 C561 1.403 . S
C568 C569 1.399 . S
C568 H574 0.929 . S
C569 C549 1.449 . S
C569 C568 1.399 . S
C569 H575 0.930 . S
H570 C550 0.931 . S
H571 C551 0.930 . S
H572 C559 0.931 . S
H573 C560 0.929 . S
H574 C568 0.929 . S
H575 C569 0.930 . S
Mn576 O581 2.095 1_545 S
Mn576 O591 2.162 . S
Mn576 O592 2.297 . S
Mn576 O600 2.385 . S
Mn576 O601 2.209 . S
Mn576 O602 2.094 . S
Mn577 O582 2.121 1_545 S
Mn577 N584 2.257 . S
Mn577 N593 2.282 . S
Mn577 O601 2.215 . S
Mn577 O603 2.117 . S
C578 O600 1.234 . S
C578 O601 1.283 . S
C579 O591 1.281 . S
C579 O592 1.236 . S
C580 O602 1.240 . S
C580 O603 1.264 . S
O581 Mn576 2.095 1_565 S
O581 C590 1.250 . S
O582 Mn577 2.121 1_565 S
O582 C590 1.258 . S
C583 N584 1.326 1_565 S
C583 C587 1.460 . S
C583 H589 0.929 . S
N584 Mn577 2.257 . S
N584 C583 1.326 1_545 S
N584 C588 1.362 . S
C585 C586 1.258 1_545 S
C585 C588 1.431 . S
C585 C605 1.449 . S
C586 C585 1.258 1_565 S
C586 C587 1.477 . S
C586 H606 0.931 . S
C587 C583 1.460 . S
C587 C586 1.477 . S
C587 H607 0.930 . S
C588 N584 1.362 . S
C588 C585 1.431 . S
C588 C598 1.476 . S
H589 C583 0.929 . S
C590 O581 1.250 . S
C590 O582 1.258 . S
O591 Mn576 2.162 . S
O591 C579 1.281 . S
O592 Mn576 2.297 . S
O592 C579 1.236 . S
N593 Mn577 2.282 . S
N593 C594 1.328 . S
N593 C598 1.318 . S
C594 N593 1.328 . S
C594 C595 1.457 . S
C594 H599 0.929 . S
C595 C594 1.457 . S
C595 C596 1.291 . S
C595 H608 0.931 . S
C596 C595 1.291 . S
C596 C597 1.373 . S
C596 H609 0.929 . S
C597 C596 1.373 . S
C597 C598 1.396 . S
C597 C604 1.403 . S
C598 C588 1.476 . S
C598 N593 1.318 . S
C598 C597 1.396 . S
H599 C594 0.929 . S
O600 Mn576 2.385 . S
O600 C578 1.234 . S
O601 Mn576 2.209 . S
O601 Mn577 2.215 . S
O601 C578 1.283 . S
O602 Mn576 2.094 . S
O602 C580 1.240 . S
O603 Mn577 2.117 . S
O603 C580 1.264 . S
C604 C597 1.403 . S
C604 C605 1.399 . S
C604 H610 0.929 . S
C605 C585 1.449 . S
C605 C604 1.399 . S
C605 H611 0.930 . S
H606 C586 0.931 . S
H607 C587 0.930 . S
H608 C595 0.931 . S
H609 C596 0.929 . S
H610 C604 0.929 . S
H611 C605 0.930 . S
Mn612 O617 2.095 . S
Mn612 O627 2.162 1_655 S
Mn612 O628 2.297 1_655 S
Mn612 O636 2.385 . S
Mn612 O637 2.209 . S
Mn612 O638 2.094 . S
Mn613 O618 2.121 . S
Mn613 N620 2.257 . S
Mn613 N629 2.282 . S
Mn613 O637 2.215 . S
Mn613 O639 2.117 . S
C614 O636 1.234 . S
C614 O637 1.283 . S
C615 O627 1.281 . S
C615 O628 1.236 . S
C616 O638 1.240 . S
C616 O639 1.264 . S
O617 Mn612 2.095 . S
O617 C626 1.250 . S
O618 Mn613 2.121 . S
O618 C626 1.258 . S
C619 N620 1.326 . S
C619 C623 1.460 . S
C619 H625 0.929 . S
N620 Mn613 2.257 . S
N620 C619 1.326 . S
N620 C624 1.362 . S
C621 C622 1.258 . S
C621 C624 1.431 . S
C621 C641 1.449 . S
C622 C621 1.258 . S
C622 C623 1.477 . S
C622 H642 0.931 . S
C623 C619 1.460 . S
C623 C622 1.477 . S
C623 H643 0.930 . S
C624 N620 1.362 . S
C624 C621 1.431 . S
C624 C634 1.476 . S
H625 C619 0.929 . S
C626 O617 1.250 . S
C626 O618 1.258 . S
O627 Mn612 2.162 1_455 S
O627 C615 1.281 . S
O628 Mn612 2.297 1_455 S
O628 C615 1.236 . S
N629 Mn613 2.282 . S
N629 C630 1.328 . S
N629 C634 1.318 . S
C630 N629 1.328 . S
C630 C631 1.457 . S
C630 H635 0.929 . S
C631 C630 1.457 . S
C631 C632 1.291 . S
C631 H644 0.931 . S
C632 C631 1.291 . S
C632 C633 1.373 . S
C632 H645 0.929 . S
C633 C632 1.373 . S
C633 C634 1.396 . S
C633 C640 1.403 . S
C634 C624 1.476 . S
C634 N629 1.318 . S
C634 C633 1.396 . S
H635 C630 0.929 . S
O636 Mn612 2.385 . S
O636 C614 1.234 . S
O637 Mn612 2.209 . S
O637 Mn613 2.215 . S
O637 C614 1.283 . S
O638 Mn612 2.094 . S
O638 C616 1.240 . S
O639 Mn613 2.117 . S
O639 C616 1.264 . S
C640 C633 1.403 . S
C640 C641 1.399 . S
C640 H646 0.929 . S
C641 C621 1.449 . S
C641 C640 1.399 . S
C641 H647 0.930 . S
H642 C622 0.931 . S
H643 C623 0.930 . S
H644 C631 0.931 . S
H645 C632 0.929 . S
H646 C640 0.929 . S
H647 C641 0.930 . S
C648 C649 1.384 . S
C648 C650 1.384 . S
C648 H676 0.931 . S
C649 C648 1.384 . S
C649 C652 1.382 . S
C650 C648 1.384 . S
C650 C651 1.381 . S
C650 H677 0.930 . S
C651 C650 1.381 . S
C651 C653 1.381 . S
C651 C654 1.487 . S
C652 C649 1.382 . S
C652 C653 1.387 . S
C652 H678 0.930 . S
C653 C651 1.381 . S
C653 C652 1.387 . S
C653 H679 0.931 . S
C654 C651 1.487 . S
C654 C661 1.399 . S
C654 N692 1.343 . S
C655 C656 1.384 . S
C655 C657 1.384 . S
C655 H680 0.931 . S
C656 C655 1.384 . S
C656 C659 1.382 . S
C657 C655 1.384 . S
C657 C658 1.381 . S
C657 H681 0.930 . S
C658 C657 1.381 . S
C658 C660 1.381 . S
C658 C661 1.487 . S
C659 C656 1.382 . S
C659 C660 1.387 . S
C659 H682 0.930 . S
C660 C658 1.381 . S
C660 C659 1.387 . S
C660 H683 0.931 . S
C661 C654 1.399 . S
C661 C658 1.487 . S
C661 N693 1.343 . S
C662 C663 1.384 . S
C662 C664 1.384 . S
C662 H684 0.931 . S
C663 C662 1.384 . S
C663 C666 1.382 . S
C664 C662 1.384 . S
C664 C665 1.381 . S
C664 H685 0.930 . S
C665 C664 1.381 . S
C665 C667 1.381 . S
C665 C668 1.487 . S
C666 C663 1.382 . S
C666 C667 1.387 . S
C666 H686 0.930 . S
C667 C665 1.381 . S
C667 C666 1.387 . S
C667 H687 0.931 . S
C668 C665 1.487 . S
C668 C675 1.399 . S
C668 N693 1.343 . S
C669 C670 1.384 . S
C669 C671 1.384 . S
C669 H688 0.931 . S
C670 C669 1.384 . S
C670 C673 1.382 . S
C671 C669 1.384 . S
C671 C672 1.381 . S
C671 H689 0.930 . S
C672 C671 1.381 . S
C672 C674 1.381 . S
C672 C675 1.487 . S
C673 C670 1.382 . S
C673 C674 1.387 . S
C673 H690 0.930 . S
C674 C672 1.381 . S
C674 C673 1.387 . S
C674 H691 0.931 . S
C675 C668 1.399 . S
C675 C672 1.487 . S
C675 N692 1.343 . S
H676 C648 0.931 . S
H677 C650 0.930 . S
H678 C652 0.930 . S
H679 C653 0.931 . S
H680 C655 0.931 . S
H681 C657 0.930 . S
H682 C659 0.930 . S
H683 C660 0.931 . S
H684 C662 0.931 . S
H685 C664 0.930 . S
H686 C666 0.930 . S
H687 C667 0.931 . S
H688 C669 0.931 . S
H689 C671 0.930 . S
H690 C673 0.930 . S
H691 C674 0.931 . S
N692 C654 1.343 . S
N692 C675 1.343 . S
N693 C661 1.343 . S
N693 C668 1.343 . S
C694 C695 1.384 . S
C694 C696 1.384 . S
C694 H722 0.931 . S
C695 C694 1.384 . S
C695 C698 1.382 . S
C696 C694 1.384 . S
C696 C697 1.381 . S
C696 H723 0.930 . S
C697 C696 1.381 . S
C697 C699 1.381 . S
C697 C700 1.487 . S
C698 C695 1.382 . S
C698 C699 1.387 . S
C698 H724 0.930 . S
C699 C697 1.381 . S
C699 C698 1.387 . S
C699 H725 0.931 . S
C700 C697 1.487 . S
C700 C707 1.399 . S
C700 N738 1.343 . S
C701 C702 1.384 . S
C701 C703 1.384 . S
C701 H726 0.931 . S
C702 C701 1.384 . S
C702 C705 1.382 . S
C703 C701 1.384 . S
C703 C704 1.381 . S
C703 H727 0.930 . S
C704 C703 1.381 . S
C704 C706 1.381 . S
C704 C707 1.487 . S
C705 C702 1.382 . S
C705 C706 1.387 . S
C705 H728 0.930 . S
C706 C704 1.381 . S
C706 C705 1.387 . S
C706 H729 0.931 . S
C707 C700 1.399 . S
C707 C704 1.487 . S
C707 N739 1.343 . S
C708 C709 1.384 . S
C708 C710 1.384 . S
C708 H730 0.931 . S
C709 C708 1.384 . S
C709 C712 1.382 . S
C710 C708 1.384 . S
C710 C711 1.381 . S
C710 H731 0.930 . S
C711 C710 1.381 . S
C711 C713 1.381 . S
C711 C714 1.487 . S
C712 C709 1.382 . S
C712 C713 1.387 . S
C712 H732 0.930 . S
C713 C711 1.381 . S
C713 C712 1.387 . S
C713 H733 0.931 . S
C714 C711 1.487 . S
C714 C721 1.399 . S
C714 N739 1.343 . S
C715 C716 1.384 . S
C715 C717 1.384 . S
C715 H734 0.931 . S
C716 C715 1.384 . S
C716 C719 1.382 . S
C717 C715 1.384 . S
C717 C718 1.381 . S
C717 H735 0.930 . S
C718 C717 1.381 . S
C718 C720 1.381 . S
C718 C721 1.487 . S
C719 C716 1.382 . S
C719 C720 1.387 . S
C719 H736 0.930 . S
C720 C718 1.381 . S
C720 C719 1.387 . S
C720 H737 0.931 . S
C721 C714 1.399 . S
C721 C718 1.487 . S
C721 N738 1.343 . S
H722 C694 0.931 . S
H723 C696 0.930 . S
H724 C698 0.930 . S
H725 C699 0.931 . S
H726 C701 0.931 . S
H727 C703 0.930 . S
H728 C705 0.930 . S
H729 C706 0.931 . S
H730 C708 0.931 . S
H731 C710 0.930 . S
H732 C712 0.930 . S
H733 C713 0.931 . S
H734 C715 0.931 . S
H735 C717 0.930 . S
H736 C719 0.930 . S
H737 C720 0.931 . S
N738 C700 1.343 . S
N738 C721 1.343 . S
N739 C707 1.343 . S
N739 C714 1.343 . S
C740 C741 1.384 . S
C740 C742 1.384 . S
C740 H768 0.931 . S
C741 C740 1.384 . S
C741 C744 1.382 . S
C742 C740 1.384 . S
C742 C743 1.381 . S
C742 H769 0.930 . S
C743 C742 1.381 . S
C743 C745 1.381 . S
C743 C746 1.487 . S
C744 C741 1.382 . S
C744 C745 1.387 . S
C744 H770 0.930 . S
C745 C743 1.381 . S
C745 C744 1.387 . S
C745 H771 0.931 . S
C746 C743 1.487 . S
C746 C753 1.399 . S
C746 N784 1.343 . S
C747 C748 1.384 . S
C747 C749 1.384 . S
C747 H772 0.931 . S
C748 C747 1.384 . S
C748 C751 1.382 . S
C749 C747 1.384 . S
C749 C750 1.381 . S
C749 H773 0.930 . S
C750 C749 1.381 . S
C750 C752 1.381 . S
C750 C753 1.487 . S
C751 C748 1.382 . S
C751 C752 1.387 . S
C751 H774 0.930 . S
C752 C750 1.381 . S
C752 C751 1.387 . S
C752 H775 0.931 . S
C753 C746 1.399 . S
C753 C750 1.487 . S
C753 N785 1.343 . S
C754 C755 1.384 . S
C754 C756 1.384 . S
C754 H776 0.931 . S
C755 C754 1.384 . S
C755 C758 1.382 . S
C756 C754 1.384 . S
C756 C757 1.381 . S
C756 H777 0.930 . S
C757 C756 1.381 . S
C757 C759 1.381 . S
C757 C760 1.487 . S
C758 C755 1.382 . S
C758 C759 1.387 . S
C758 H778 0.930 . S
C759 C757 1.381 . S
C759 C758 1.387 . S
C759 H779 0.931 . S
C760 C757 1.487 . S
C760 C767 1.399 . S
C760 N785 1.343 . S
C761 C762 1.384 . S
C761 C763 1.384 . S
C761 H780 0.931 . S
C762 C761 1.384 . S
C762 C765 1.382 . S
C763 C761 1.384 . S
C763 C764 1.381 . S
C763 H781 0.930 . S
C764 C763 1.381 . S
C764 C766 1.381 . S
C764 C767 1.487 . S
C765 C762 1.382 . S
C765 C766 1.387 . S
C765 H782 0.930 . S
C766 C764 1.381 . S
C766 C765 1.387 . S
C766 H783 0.931 . S
C767 C760 1.399 . S
C767 C764 1.487 . S
C767 N784 1.343 . S
H768 C740 0.931 . S
H769 C742 0.930 . S
H770 C744 0.930 . S
H771 C745 0.931 . S
H772 C747 0.931 . S
H773 C749 0.930 . S
H774 C751 0.930 . S
H775 C752 0.931 . S
H776 C754 0.931 . S
H777 C756 0.930 . S
H778 C758 0.930 . S
H779 C759 0.931 . S
H780 C761 0.931 . S
H781 C763 0.930 . S
H782 C765 0.930 . S
H783 C766 0.931 . S
N784 C746 1.343 . S
N784 C767 1.343 . S
N785 C753 1.343 . S
N785 C760 1.343 . S
C786 C787 1.384 . S
C786 C788 1.384 . S
C786 H814 0.931 . S
C787 C786 1.384 . S
C787 C790 1.382 . S
C788 C786 1.384 . S
C788 C789 1.381 . S
C788 H815 0.930 . S
C789 C788 1.381 . S
C789 C791 1.381 . S
C789 C792 1.487 . S
C790 C787 1.382 . S
C790 C791 1.387 . S
C790 H816 0.930 . S
C791 C789 1.381 . S
C791 C790 1.387 . S
C791 H817 0.931 . S
C792 C789 1.487 . S
C792 C799 1.399 . S
C792 N830 1.343 . S
C793 C794 1.384 . S
C793 C795 1.384 . S
C793 H818 0.931 . S
C794 C793 1.384 . S
C794 C797 1.382 . S
C795 C793 1.384 . S
C795 C796 1.381 . S
C795 H819 0.930 . S
C796 C795 1.381 . S
C796 C798 1.381 . S
C796 C799 1.487 . S
C797 C794 1.382 . S
C797 C798 1.387 . S
C797 H820 0.930 . S
C798 C796 1.381 . S
C798 C797 1.387 . S
C798 H821 0.931 . S
C799 C792 1.399 . S
C799 C796 1.487 . S
C799 N831 1.343 . S
C800 C801 1.384 . S
C800 C802 1.384 . S
C800 H822 0.931 . S
C801 C800 1.384 . S
C801 C804 1.382 . S
C802 C800 1.384 . S
C802 C803 1.381 . S
C802 H823 0.930 . S
C803 C802 1.381 . S
C803 C805 1.381 . S
C803 C806 1.487 . S
C804 C801 1.382 . S
C804 C805 1.387 . S
C804 H824 0.930 . S
C805 C803 1.381 . S
C805 C804 1.387 . S
C805 H825 0.931 . S
C806 C803 1.487 . S
C806 C813 1.399 . S
C806 N831 1.343 . S
C807 C808 1.384 . S
C807 C809 1.384 . S
C807 H826 0.931 . S
C808 C807 1.384 . S
C808 C811 1.382 . S
C809 C807 1.384 . S
C809 C810 1.381 . S
C809 H827 0.930 . S
C810 C809 1.381 . S
C810 C812 1.381 . S
C810 C813 1.487 . S
C811 C808 1.382 . S
C811 C812 1.387 . S
C811 H828 0.930 . S
C812 C810 1.381 . S
C812 C811 1.387 . S
C812 H829 0.931 . S
C813 C806 1.399 . S
C813 C810 1.487 . S
C813 N830 1.343 . S
H814 C786 0.931 . S
H815 C788 0.930 . S
H816 C790 0.930 . S
H817 C791 0.931 . S
H818 C793 0.931 . S
H819 C795 0.930 . S
H820 C797 0.930 . S
H821 C798 0.931 . S
H822 C800 0.931 . S
H823 C802 0.930 . S
H824 C804 0.930 . S
H825 C805 0.931 . S
H826 C807 0.931 . S
H827 C809 0.930 . S
H828 C811 0.930 . S
H829 C812 0.931 . S
N830 C792 1.343 . S
N830 C813 1.343 . S
N831 C799 1.343 . S
N831 C806 1.343 . S
C832 C833 1.384 . S
C832 C834 1.384 . S
C832 H860 0.931 . S
C833 C832 1.384 . S
C833 C836 1.382 . S
C834 C832 1.384 . S
C834 C835 1.381 . S
C834 H861 0.930 . S
C835 C834 1.381 . S
C835 C837 1.381 . S
C835 C838 1.487 . S
C836 C833 1.382 . S
C836 C837 1.387 . S
C836 H862 0.930 . S
C837 C835 1.381 . S
C837 C836 1.387 . S
C837 H863 0.931 . S
C838 C835 1.487 . S
C838 C845 1.399 . S
C838 N876 1.343 . S
C839 C840 1.384 . S
C839 C841 1.384 . S
C839 H864 0.931 . S
C840 C839 1.384 . S
C840 C843 1.382 . S
C841 C839 1.384 . S
C841 C842 1.381 . S
C841 H865 0.930 . S
C842 C841 1.381 . S
C842 C844 1.381 . S
C842 C845 1.487 . S
C843 C840 1.382 . S
C843 C844 1.387 . S
C843 H866 0.930 . S
C844 C842 1.381 . S
C844 C843 1.387 . S
C844 H867 0.931 . S
C845 C838 1.399 . S
C845 C842 1.487 . S
C845 N877 1.343 . S
C846 C847 1.384 . S
C846 C848 1.384 . S
C846 H868 0.931 . S
C847 C846 1.384 . S
C847 C850 1.382 . S
C848 C846 1.384 . S
C848 C849 1.381 . S
C848 H869 0.930 . S
C849 C848 1.381 . S
C849 C851 1.381 . S
C849 C852 1.487 . S
C850 C847 1.382 . S
C850 C851 1.387 . S
C850 H870 0.930 . S
C851 C849 1.381 . S
C851 C850 1.387 . S
C851 H871 0.931 . S
C852 C849 1.487 . S
C852 C859 1.399 . S
C852 N877 1.343 . S
C853 C854 1.384 . S
C853 C855 1.384 . S
C853 H872 0.931 . S
C854 C853 1.384 . S
C854 C857 1.382 . S
C855 C853 1.384 . S
C855 C856 1.381 . S
C855 H873 0.930 . S
C856 C855 1.381 . S
C856 C858 1.381 . S
C856 C859 1.487 . S
C857 C854 1.382 . S
C857 C858 1.387 . S
C857 H874 0.930 . S
C858 C856 1.381 . S
C858 C857 1.387 . S
C858 H875 0.931 . S
C859 C852 1.399 . S
C859 C856 1.487 . S
C859 N876 1.343 . S
H860 C832 0.931 . S
H861 C834 0.930 . S
H862 C836 0.930 . S
H863 C837 0.931 . S
H864 C839 0.931 . S
H865 C841 0.930 . S
H866 C843 0.930 . S
H867 C844 0.931 . S
H868 C846 0.931 . S
H869 C848 0.930 . S
H870 C850 0.930 . S
H871 C851 0.931 . S
H872 C853 0.931 . S
H873 C855 0.930 . S
H874 C857 0.930 . S
H875 C858 0.931 . S
N876 C838 1.343 . S
N876 C859 1.343 . S
N877 C845 1.343 . S
N877 C852 1.343 . S
C878 C879 1.384 . S
C878 C880 1.384 . S
C878 H906 0.931 . S
C879 C878 1.384 . S
C879 C882 1.382 . S
C880 C878 1.384 . S
C880 C881 1.381 . S
C880 H907 0.930 . S
C881 C880 1.381 . S
C881 C883 1.381 . S
C881 C884 1.487 . S
C882 C879 1.382 . S
C882 C883 1.387 . S
C882 H908 0.930 . S
C883 C881 1.381 . S
C883 C882 1.387 . S
C883 H909 0.931 . S
C884 C881 1.487 . S
C884 C891 1.399 . S
C884 N922 1.343 . S
C885 C886 1.384 . S
C885 C887 1.384 . S
C885 H910 0.931 . S
C886 C885 1.384 . S
C886 C889 1.382 . S
C887 C885 1.384 . S
C887 C888 1.381 . S
C887 H911 0.930 . S
C888 C887 1.381 . S
C888 C890 1.381 . S
C888 C891 1.487 . S
C889 C886 1.382 . S
C889 C890 1.387 . S
C889 H912 0.930 . S
C890 C888 1.381 . S
C890 C889 1.387 . S
C890 H913 0.931 . S
C891 C884 1.399 . S
C891 C888 1.487 . S
C891 N923 1.343 . S
C892 C893 1.384 . S
C892 C894 1.384 . S
C892 H914 0.931 . S
C893 C892 1.384 . S
C893 C896 1.382 . S
C894 C892 1.384 . S
C894 C895 1.381 . S
C894 H915 0.930 . S
C895 C894 1.381 . S
C895 C897 1.381 . S
C895 C898 1.487 . S
C896 C893 1.382 . S
C896 C897 1.387 . S
C896 H916 0.930 . S
C897 C895 1.381 . S
C897 C896 1.387 . S
C897 H917 0.931 . S
C898 C895 1.487 . S
C898 C905 1.399 . S
C898 N923 1.343 . S
C899 C900 1.384 . S
C899 C901 1.384 . S
C899 H918 0.931 . S
C900 C899 1.384 . S
C900 C903 1.382 . S
C901 C899 1.384 . S
C901 C902 1.381 . S
C901 H919 0.930 . S
C902 C901 1.381 . S
C902 C904 1.381 . S
C902 C905 1.487 . S
C903 C900 1.382 . S
C903 C904 1.387 . S
C903 H920 0.930 . S
C904 C902 1.381 . S
C904 C903 1.387 . S
C904 H921 0.931 . S
C905 C898 1.399 . S
C905 C902 1.487 . S
C905 N922 1.343 . S
H906 C878 0.931 . S
H907 C880 0.930 . S
H908 C882 0.930 . S
H909 C883 0.931 . S
H910 C885 0.931 . S
H911 C887 0.930 . S
H912 C889 0.930 . S
H913 C890 0.931 . S
H914 C892 0.931 . S
H915 C894 0.930 . S
H916 C896 0.930 . S
H917 C897 0.931 . S
H918 C899 0.931 . S
H919 C901 0.930 . S
H920 C903 0.930 . S
H921 C904 0.931 . S
N922 C884 1.343 . S
N922 C905 1.343 . S
N923 C891 1.343 . S
N923 C898 1.343 . S
C924 C925 1.384 . S
C924 C926 1.384 . S
C924 H952 0.931 . S
C925 C924 1.384 . S
C925 C928 1.382 . S
C926 C924 1.384 . S
C926 C927 1.381 . S
C926 H953 0.930 . S
C927 C926 1.381 . S
C927 C929 1.381 . S
C927 C930 1.487 . S
C928 C925 1.382 . S
C928 C929 1.387 . S
C928 H954 0.930 . S
C929 C927 1.381 . S
C929 C928 1.387 . S
C929 H955 0.931 . S
C930 C927 1.487 . S
C930 C937 1.399 . S
C930 N968 1.343 . S
C931 C932 1.384 . S
C931 C933 1.384 . S
C931 H956 0.931 . S
C932 C931 1.384 . S
C932 C935 1.382 . S
C933 C931 1.384 . S
C933 C934 1.381 . S
C933 H957 0.930 . S
C934 C933 1.381 . S
C934 C936 1.381 . S
C934 C937 1.487 . S
C935 C932 1.382 . S
C935 C936 1.387 . S
C935 H958 0.930 . S
C936 C934 1.381 . S
C936 C935 1.387 . S
C936 H959 0.931 . S
C937 C930 1.399 . S
C937 C934 1.487 . S
C937 N969 1.343 . S
C938 C939 1.384 . S
C938 C940 1.384 . S
C938 H960 0.931 . S
C939 C938 1.384 . S
C939 C942 1.382 . S
C940 C938 1.384 . S
C940 C941 1.381 . S
C940 H961 0.930 . S
C941 C940 1.381 . S
C941 C943 1.381 . S
C941 C944 1.487 . S
C942 C939 1.382 . S
C942 C943 1.387 . S
C942 H962 0.930 . S
C943 C941 1.381 . S
C943 C942 1.387 . S
C943 H963 0.931 . S
C944 C941 1.487 . S
C944 C951 1.399 . S
C944 N969 1.343 . S
C945 C946 1.384 . S
C945 C947 1.384 . S
C945 H964 0.931 . S
C946 C945 1.384 . S
C946 C949 1.382 . S
C947 C945 1.384 . S
C947 C948 1.381 . S
C947 H965 0.930 . S
C948 C947 1.381 . S
C948 C950 1.381 . S
C948 C951 1.487 . S
C949 C946 1.382 . S
C949 C950 1.387 . S
C949 H966 0.930 . S
C950 C948 1.381 . S
C950 C949 1.387 . S
C950 H967 0.931 . S
C951 C944 1.399 . S
C951 C948 1.487 . S
C951 N968 1.343 . S
H952 C924 0.931 . S
H953 C926 0.930 . S
H954 C928 0.930 . S
H955 C929 0.931 . S
H956 C931 0.931 . S
H957 C933 0.930 . S
H958 C935 0.930 . S
H959 C936 0.931 . S
H960 C938 0.931 . S
H961 C940 0.930 . S
H962 C942 0.930 . S
H963 C943 0.931 . S
H964 C945 0.931 . S
H965 C947 0.930 . S
H966 C949 0.930 . S
H967 C950 0.931 . S
N968 C930 1.343 . S
N968 C951 1.343 . S
N969 C937 1.343 . S
N969 C944 1.343 . S
C970 C971 1.384 . S
C970 C972 1.384 . S
C970 H998 0.931 . S
C971 C970 1.384 . S
C971 C974 1.382 . S
C972 C970 1.384 . S
C972 C973 1.381 . S
C972 H999 0.930 . S
C973 C972 1.381 . S
C973 C975 1.381 . S
C973 C976 1.487 . S
C974 C971 1.382 . S
C974 C975 1.387 . S
C974 H1000 0.930 . S
C975 C973 1.381 . S
C975 C974 1.387 . S
C975 H1001 0.931 . S
C976 C973 1.487 . S
C976 C983 1.399 . S
C976 N1014 1.343 . S
C977 C978 1.384 . S
C977 C979 1.384 . S
C977 H1002 0.931 . S
C978 C977 1.384 . S
C978 C981 1.382 . S
C979 C977 1.384 . S
C979 C980 1.381 . S
C979 H1003 0.930 . S
C980 C979 1.381 . S
C980 C982 1.381 . S
C980 C983 1.487 . S
C981 C978 1.382 . S
C981 C982 1.387 . S
C981 H1004 0.930 . S
C982 C980 1.381 . S
C982 C981 1.387 . S
C982 H1005 0.931 . S
C983 C976 1.399 . S
C983 C980 1.487 . S
C983 N1015 1.343 . S
C984 C985 1.384 . S
C984 C986 1.384 . S
C984 H1006 0.931 . S
C985 C984 1.384 . S
C985 C988 1.382 . S
C986 C984 1.384 . S
C986 C987 1.381 . S
C986 H1007 0.930 . S
C987 C986 1.381 . S
C987 C989 1.381 . S
C987 C990 1.487 . S
C988 C985 1.382 . S
C988 C989 1.387 . S
C988 H1008 0.930 . S
C989 C987 1.381 . S
C989 C988 1.387 . S
C989 H1009 0.931 . S
C990 C987 1.487 . S
C990 C997 1.399 . S
C990 N1015 1.343 . S
C991 C992 1.384 . S
C991 C993 1.384 . S
C991 H1010 0.931 . S
C992 C991 1.384 . S
C992 C995 1.382 . S
C993 C991 1.384 . S
C993 C994 1.381 . S
C993 H1011 0.930 . S
C994 C993 1.381 . S
C994 C996 1.381 . S
C994 C997 1.487 . S
C995 C992 1.382 . S
C995 C996 1.387 . S
C995 H1012 0.930 . S
C996 C994 1.381 . S
C996 C995 1.387 . S
C996 H1013 0.931 . S
C997 C990 1.399 . S
C997 C994 1.487 . S
C997 N1014 1.343 . S
H998 C970 0.931 . S
H999 C972 0.930 . S
H1000 C974 0.930 . S
H1001 C975 0.931 . S
H1002 C977 0.931 . S
H1003 C979 0.930 . S
H1004 C981 0.930 . S
H1005 C982 0.931 . S
H1006 C984 0.931 . S
H1007 C986 0.930 . S
H1008 C988 0.930 . S
H1009 C989 0.931 . S
H1010 C991 0.931 . S
H1011 C993 0.930 . S
H1012 C995 0.930 . S
H1013 C996 0.931 . S
N1014 C976 1.343 . S
N1014 C997 1.343 . S
N1015 C983 1.343 . S
N1015 C990 1.343 . S
C1016 C1017 1.384 . S
C1016 C1018 1.384 . S
C1016 H1044 0.931 . S
C1017 C1016 1.384 . S
C1017 C1020 1.382 . S
C1018 C1016 1.384 . S
C1018 C1019 1.381 . S
C1018 H1045 0.930 . S
C1019 C1018 1.381 . S
C1019 C1021 1.381 . S
C1019 C1022 1.487 . S
C1020 C1017 1.382 . S
C1020 C1021 1.387 . S
C1020 H1046 0.930 . S
C1021 C1019 1.381 . S
C1021 C1020 1.387 . S
C1021 H1047 0.931 . S
C1022 C1019 1.487 . S
C1022 C1029 1.399 . S
C1022 N1060 1.343 . S
C1023 C1024 1.384 . S
C1023 C1025 1.384 . S
C1023 H1048 0.931 . S
C1024 C1023 1.384 . S
C1024 C1027 1.382 . S
C1025 C1023 1.384 . S
C1025 C1026 1.381 . S
C1025 H1049 0.930 . S
C1026 C1025 1.381 . S
C1026 C1028 1.381 . S
C1026 C1029 1.487 . S
C1027 C1024 1.382 . S
C1027 C1028 1.387 . S
C1027 H1050 0.930 . S
C1028 C1026 1.381 . S
C1028 C1027 1.387 . S
C1028 H1051 0.931 . S
C1029 C1022 1.399 . S
C1029 C1026 1.487 . S
C1029 N1061 1.343 . S
C1030 C1031 1.384 . S
C1030 C1032 1.384 . S
C1030 H1052 0.931 . S
C1031 C1030 1.384 . S
C1031 C1034 1.382 . S
C1032 C1030 1.384 . S
C1032 C1033 1.381 . S
C1032 H1053 0.930 . S
C1033 C1032 1.381 . S
C1033 C1035 1.381 . S
C1033 C1036 1.487 . S
C1034 C1031 1.382 . S
C1034 C1035 1.387 . S
C1034 H1054 0.930 . S
C1035 C1033 1.381 . S
C1035 C1034 1.387 . S
C1035 H1055 0.931 . S
C1036 C1033 1.487 . S
C1036 C1043 1.399 . S
C1036 N1061 1.343 . S
C1037 C1038 1.384 . S
C1037 C1039 1.384 . S
C1037 H1056 0.931 . S
C1038 C1037 1.384 . S
C1038 C1041 1.382 . S
C1039 C1037 1.384 . S
C1039 C1040 1.381 . S
C1039 H1057 0.930 . S
C1040 C1039 1.381 . S
C1040 C1042 1.381 . S
C1040 C1043 1.487 . S
C1041 C1038 1.382 . S
C1041 C1042 1.387 . S
C1041 H1058 0.930 . S
C1042 C1040 1.381 . S
C1042 C1041 1.387 . S
C1042 H1059 0.931 . S
C1043 C1036 1.399 . S
C1043 C1040 1.487 . S
C1043 N1060 1.343 . S
H1044 C1016 0.931 . S
H1045 C1018 0.930 . S
H1046 C1020 0.930 . S
H1047 C1021 0.931 . S
H1048 C1023 0.931 . S
H1049 C1025 0.930 . S
H1050 C1027 0.930 . S
H1051 C1028 0.931 . S
H1052 C1030 0.931 . S
H1053 C1032 0.930 . S
H1054 C1034 0.930 . S
H1055 C1035 0.931 . S
H1056 C1037 0.931 . S
H1057 C1039 0.930 . S
H1058 C1041 0.930 . S
H1059 C1042 0.931 . S
N1060 C1022 1.343 . S
N1060 C1043 1.343 . S
N1061 C1029 1.343 . S
N1061 C1036 1.343 . S
C1062 C1063 1.384 . S
C1062 C1064 1.384 . S
C1062 H1090 0.931 . S
C1063 C1062 1.384 . S
C1063 C1066 1.382 1_655 S
C1064 C1062 1.384 . S
C1064 C1065 1.387 1_655 S
C1064 H1091 0.930 . S
C1065 C1064 1.387 1_455 S
C1065 C1067 1.378 . S
C1065 C1068 1.475 . S
C1066 C1063 1.382 1_455 S
C1066 C1067 1.387 . S
C1066 H1092 0.930 . S
C1067 C1065 1.378 . S
C1067 C1066 1.387 . S
C1067 H1093 0.931 . S
C1068 C1065 1.475 . S
C1068 C1075 1.398 1_455 S
C1068 N1106 1.354 . S
C1069 C1070 1.384 . S
C1069 C1071 1.384 . S
C1069 H1094 0.931 . S
C1070 C1069 1.384 . S
C1070 C1073 1.382 1_455 S
C1071 C1069 1.384 . S
C1071 C1072 1.384 . S
C1071 H1095 0.930 . S
C1072 C1071 1.384 . S
C1072 C1074 1.375 1_455 S
C1072 C1075 1.493 1_455 S
C1073 C1070 1.382 1_655 S
C1073 C1074 1.387 . S
C1073 H1096 0.930 . S
C1074 C1072 1.375 1_655 S
C1074 C1073 1.387 . S
C1074 H1097 0.931 . S
C1075 C1068 1.398 1_655 S
C1075 C1072 1.493 1_655 S
C1075 N1107 1.367 . S
C1076 C1077 1.384 . S
C1076 C1078 1.384 . S
C1076 H1098 0.931 . S
C1077 C1076 1.384 . S
C1077 C1080 1.382 1_455 S
C1078 C1076 1.384 . S
C1078 C1079 1.387 . S
C1078 H1099 0.930 . S
C1079 C1078 1.387 . S
C1079 C1081 1.378 1_455 S
C1079 C1082 1.482 1_455 S
C1080 C1077 1.382 1_655 S
C1080 C1081 1.387 . S
C1080 H1100 0.930 . S
C1081 C1079 1.378 1_655 S
C1081 C1080 1.387 . S
C1081 H1101 0.931 . S
C1082 C1079 1.482 1_655 S
C1082 C1089 1.398 1_655 S
C1082 N1107 1.318 . S
C1083 C1084 1.384 . S
C1083 C1085 1.384 . S
C1083 H1102 0.931 . S
C1084 C1083 1.384 . S
C1084 C1087 1.382 1_655 S
C1085 C1083 1.384 . S
C1085 C1086 1.380 . S
C1085 H1103 0.930 . S
C1086 C1085 1.380 . S
C1086 C1088 1.385 1_655 S
C1086 C1089 1.493 1_655 S
C1087 C1084 1.382 1_455 S
C1087 C1088 1.387 . S
C1087 H1104 0.930 . S
C1088 C1086 1.385 1_455 S
C1088 C1087 1.387 . S
C1088 H1105 0.931 . S
C1089 C1082 1.398 1_455 S
C1089 C1086 1.493 1_455 S
C1089 N1106 1.335 . S
H1090 C1062 0.931 . S
H1091 C1064 0.930 . S
H1092 C1066 0.930 . S
H1093 C1067 0.931 . S
H1094 C1069 0.931 . S
H1095 C1071 0.930 . S
H1096 C1073 0.930 . S
H1097 C1074 0.931 . S
H1098 C1076 0.931 . S
H1099 C1078 0.930 . S
H1100 C1080 0.930 . S
H1101 C1081 0.931 . S
H1102 C1083 0.931 . S
H1103 C1085 0.930 . S
H1104 C1087 0.930 . S
H1105 C1088 0.931 . S
N1106 C1068 1.354 . S
N1106 C1089 1.335 . S
N1107 C1075 1.367 . S
N1107 C1082 1.318 . S
C1108 C1109 1.384 . S
C1108 C1110 1.384 . S
C1108 H1136 0.931 . S
C1109 C1108 1.384 . S
C1109 C1112 1.382 . S
C1110 C1108 1.384 . S
C1110 C1111 1.381 . S
C1110 H1137 0.930 . S
C1111 C1110 1.381 . S
C1111 C1113 1.381 . S
C1111 C1114 1.487 . S
C1112 C1109 1.382 . S
C1112 C1113 1.387 . S
C1112 H1138 0.930 . S
C1113 C1111 1.381 . S
C1113 C1112 1.387 . S
C1113 H1139 0.931 . S
C1114 C1111 1.487 . S
C1114 C1121 1.399 . S
C1114 N1152 1.343 . S
C1115 C1116 1.384 . S
C1115 C1117 1.384 . S
C1115 H1140 0.931 . S
C1116 C1115 1.384 . S
C1116 C1119 1.382 . S
C1117 C1115 1.384 . S
C1117 C1118 1.381 . S
C1117 H1141 0.930 . S
C1118 C1117 1.381 . S
C1118 C1120 1.381 . S
C1118 C1121 1.487 . S
C1119 C1116 1.382 . S
C1119 C1120 1.387 . S
C1119 H1142 0.930 . S
C1120 C1118 1.381 . S
C1120 C1119 1.387 . S
C1120 H1143 0.931 . S
C1121 C1114 1.399 . S
C1121 C1118 1.487 . S
C1121 N1153 1.343 . S
C1122 C1123 1.384 . S
C1122 C1124 1.384 . S
C1122 H1144 0.931 . S
C1123 C1122 1.384 . S
C1123 C1126 1.382 . S
C1124 C1122 1.384 . S
C1124 C1125 1.381 . S
C1124 H1145 0.930 . S
C1125 C1124 1.381 . S
C1125 C1127 1.381 . S
C1125 C1128 1.487 . S
C1126 C1123 1.382 . S
C1126 C1127 1.387 . S
C1126 H1146 0.930 . S
C1127 C1125 1.381 . S
C1127 C1126 1.387 . S
C1127 H1147 0.931 . S
C1128 C1125 1.487 . S
C1128 C1135 1.399 . S
C1128 N1153 1.343 . S
C1129 C1130 1.384 . S
C1129 C1131 1.384 . S
C1129 H1148 0.931 . S
C1130 C1129 1.384 . S
C1130 C1133 1.382 . S
C1131 C1129 1.384 . S
C1131 C1132 1.381 . S
C1131 H1149 0.930 . S
C1132 C1131 1.381 . S
C1132 C1134 1.381 . S
C1132 C1135 1.487 . S
C1133 C1130 1.382 . S
C1133 C1134 1.387 . S
C1133 H1150 0.930 . S
C1134 C1132 1.381 . S
C1134 C1133 1.387 . S
C1134 H1151 0.931 . S
C1135 C1128 1.399 . S
C1135 C1132 1.487 . S
C1135 N1152 1.343 . S
H1136 C1108 0.931 . S
H1137 C1110 0.930 . S
H1138 C1112 0.930 . S
H1139 C1113 0.931 . S
H1140 C1115 0.931 . S
H1141 C1117 0.930 . S
H1142 C1119 0.930 . S
H1143 C1120 0.931 . S
H1144 C1122 0.931 . S
H1145 C1124 0.930 . S
H1146 C1126 0.930 . S
H1147 C1127 0.931 . S
H1148 C1129 0.931 . S
H1149 C1131 0.930 . S
H1150 C1133 0.930 . S
H1151 C1134 0.931 . S
N1152 C1114 1.343 . S
N1152 C1135 1.343 . S
N1153 C1121 1.343 . S
N1153 C1128 1.343 . S
C1154 C1155 1.384 1_545 S
C1154 C1156 1.384 . S
C1154 H1182 0.931 . S
C1155 C1154 1.384 1_565 S
C1155 C1158 1.382 . S
C1156 C1154 1.384 . S
C1156 C1157 1.381 1_545 S
C1156 H1183 0.930 . S
C1157 C1156 1.381 1_565 S
C1157 C1159 1.381 . S
C1157 C1160 1.487 . S
C1158 C1155 1.382 . S
C1158 C1159 1.387 . S
C1158 H1184 0.930 . S
C1159 C1157 1.381 . S
C1159 C1158 1.387 . S
C1159 H1185 0.931 . S
C1160 C1157 1.487 . S
C1160 C1167 1.399 1_565 S
C1160 N1198 1.343 . S
C1161 C1162 1.384 1_565 S
C1161 C1163 1.384 . S
C1161 H1186 0.931 . S
C1162 C1161 1.384 1_545 S
C1162 C1165 1.382 . S
C1163 C1161 1.384 . S
C1163 C1164 1.381 1_565 S
C1163 H1187 0.930 . S
C1164 C1163 1.381 1_545 S
C1164 C1166 1.381 . S
C1164 C1167 1.487 . S
C1165 C1162 1.382 . S
C1165 C1166 1.387 . S
C1165 H1188 0.930 . S
C1166 C1164 1.381 . S
C1166 C1165 1.387 . S
C1166 H1189 0.931 . S
C1167 C1160 1.399 1_545 S
C1167 C1164 1.487 . S
C1167 N1199 1.343 . S
C1168 C1169 1.384 1_565 S
C1168 C1170 1.384 . S
C1168 H1190 0.931 . S
C1169 C1168 1.384 1_545 S
C1169 C1172 1.382 . S
C1170 C1168 1.384 . S
C1170 C1171 1.381 1_565 S
C1170 H1191 0.930 . S
C1171 C1170 1.381 1_545 S
C1171 C1173 1.381 . S
C1171 C1174 1.487 . S
C1172 C1169 1.382 . S
C1172 C1173 1.387 . S
C1172 H1192 0.930 . S
C1173 C1171 1.381 . S
C1173 C1172 1.387 . S
C1173 H1193 0.931 . S
C1174 C1171 1.487 . S
C1174 C1181 1.399 1_545 S
C1174 N1199 1.343 . S
C1175 C1176 1.384 1_545 S
C1175 C1177 1.384 . S
C1175 H1194 0.931 . S
C1176 C1175 1.384 1_565 S
C1176 C1179 1.382 . S
C1177 C1175 1.384 . S
C1177 C1178 1.381 1_545 S
C1177 H1195 0.930 . S
C1178 C1177 1.381 1_565 S
C1178 C1180 1.381 . S
C1178 C1181 1.487 . S
C1179 C1176 1.382 . S
C1179 C1180 1.387 . S
C1179 H1196 0.930 . S
C1180 C1178 1.381 . S
C1180 C1179 1.387 . S
C1180 H1197 0.931 . S
C1181 C1174 1.399 1_565 S
C1181 C1178 1.487 . S
C1181 N1198 1.343 . S
H1182 C1154 0.931 . S
H1183 C1156 0.930 . S
H1184 C1158 0.930 . S
H1185 C1159 0.931 . S
H1186 C1161 0.931 . S
H1187 C1163 0.930 . S
H1188 C1165 0.930 . S
H1189 C1166 0.931 . S
H1190 C1168 0.931 . S
H1191 C1170 0.930 . S
H1192 C1172 0.930 . S
H1193 C1173 0.931 . S
H1194 C1175 0.931 . S
H1195 C1177 0.930 . S
H1196 C1179 0.930 . S
H1197 C1180 0.931 . S
N1198 C1160 1.343 . S
N1198 C1181 1.343 . S
N1199 C1167 1.343 . S
N1199 C1174 1.343 . S
C1200 C1201 1.384 . S
C1200 C1202 1.384 . S
C1200 H1228 0.931 . S
C1201 C1200 1.384 . S
C1201 C1204 1.382 1_545 S
C1202 C1200 1.384 . S
C1202 C1203 1.386 . S
C1202 H1229 0.930 . S
C1203 C1202 1.386 . S
C1203 C1205 1.371 1_545 S
C1203 C1206 1.495 1_545 S
C1204 C1201 1.382 1_565 S
C1204 C1205 1.387 . S
C1204 H1230 0.930 . S
C1205 C1203 1.371 1_565 S
C1205 C1204 1.387 . S
C1205 H1231 0.931 . S
C1206 C1203 1.495 1_565 S
C1206 C1213 1.399 1_565 S
C1206 N1244 1.365 . S
C1207 C1208 1.384 . S
C1207 C1209 1.384 . S
C1207 H1232 0.931 . S
C1208 C1207 1.384 . S
C1208 C1211 1.382 1_565 S
C1209 C1207 1.384 . S
C1209 C1210 1.380 . S
C1209 H1233 0.930 . S
C1210 C1209 1.380 . S
C1210 C1212 1.382 1_565 S
C1210 C1213 1.479 1_565 S
C1211 C1208 1.382 1_545 S
C1211 C1212 1.387 . S
C1211 H1234 0.930 . S
C1212 C1210 1.382 1_545 S
C1212 C1211 1.387 . S
C1212 H1235 0.931 . S
C1213 C1206 1.399 1_545 S
C1213 C1210 1.479 1_545 S
C1213 N1245 1.320 . S
C1214 C1215 1.384 . S
C1214 C1216 1.384 . S
C1214 H1236 0.931 . S
C1215 C1214 1.384 . S
C1215 C1218 1.382 1_565 S
C1216 C1214 1.384 . S
C1216 C1217 1.382 . S
C1216 H1237 0.930 . S
C1217 C1216 1.382 . S
C1217 C1219 1.380 1_565 S
C1217 C1220 1.495 1_565 S
C1218 C1215 1.382 1_545 S
C1218 C1219 1.387 . S
C1218 H1238 0.930 . S
C1219 C1217 1.380 1_545 S
C1219 C1218 1.387 . S
C1219 H1239 0.931 . S
C1220 C1217 1.495 1_545 S
C1220 C1227 1.399 1_545 S
C1220 N1245 1.365 . S
C1221 C1222 1.384 . S
C1221 C1223 1.384 . S
C1221 H1240 0.931 . S
C1222 C1221 1.384 . S
C1222 C1225 1.382 1_545 S
C1223 C1221 1.384 . S
C1223 C1224 1.397 . S
C1223 H1241 0.930 . S
C1224 C1223 1.397 . S
C1224 C1226 1.373 1_545 S
C1224 C1227 1.479 1_545 S
C1225 C1222 1.382 1_565 S
C1225 C1226 1.387 . S
C1225 H1242 0.930 . S
C1226 C1224 1.373 1_565 S
C1226 C1225 1.387 . S
C1226 H1243 0.931 . S
C1227 C1220 1.399 1_565 S
C1227 C1224 1.479 1_565 S
C1227 N1244 1.320 . S
H1228 C1200 0.931 . S
H1229 C1202 0.930 . S
H1230 C1204 0.930 . S
H1231 C1205 0.931 . S
H1232 C1207 0.931 . S
H1233 C1209 0.930 . S
H1234 C1211 0.930 . S
H1235 C1212 0.931 . S
H1236 C1214 0.931 . S
H1237 C1216 0.930 . S
H1238 C1218 0.930 . S
H1239 C1219 0.931 . S
H1240 C1221 0.931 . S
H1241 C1223 0.930 . S
H1242 C1225 0.930 . S
H1243 C1226 0.931 . S
N1244 C1206 1.365 . S
N1244 C1227 1.320 . S
N1245 C1213 1.320 . S
N1245 C1220 1.365 . S
C1246 C1247 1.384 . S
C1246 C1248 1.384 . S
C1246 H1274 0.931 . S
C1247 C1246 1.384 . S
C1247 C1250 1.382 1_655 S
C1248 C1246 1.384 . S
C1248 C1249 1.409 . S
C1248 H1275 0.930 . S
C1249 C1248 1.409 . S
C1249 C1251 1.367 1_655 S
C1249 C1252 1.476 1_655 S
C1250 C1247 1.382 1_455 S
C1250 C1251 1.387 . S
C1250 H1276 0.930 . S
C1251 C1249 1.367 1_455 S
C1251 C1250 1.387 . S
C1251 H1277 0.931 . S
C1252 C1249 1.476 1_455 S
C1252 C1259 1.399 1_455 S
C1252 N1290 1.324 . S
C1253 C1254 1.384 . S
C1253 C1255 1.384 . S
C1253 H1278 0.931 . S
C1254 C1253 1.384 . S
C1254 C1257 1.382 1_455 S
C1255 C1253 1.384 . S
C1255 C1256 1.386 . S
C1255 H1279 0.930 . S
C1256 C1255 1.386 . S
C1256 C1258 1.370 1_455 S
C1256 C1259 1.499 1_455 S
C1257 C1254 1.382 1_655 S
C1257 C1258 1.387 . S
C1257 H1280 0.930 . S
C1258 C1256 1.370 1_655 S
C1258 C1257 1.387 . S
C1258 H1281 0.931 . S
C1259 C1252 1.399 1_655 S
C1259 C1256 1.499 1_655 S
C1259 N1291 1.363 . S
C1260 C1261 1.384 . S
C1260 C1262 1.384 . S
C1260 H1282 0.931 . S
C1261 C1260 1.384 . S
C1261 C1264 1.382 1_455 S
C1262 C1260 1.384 . S
C1262 C1263 1.392 . S
C1262 H1283 0.930 . S
C1263 C1262 1.392 . S
C1263 C1265 1.375 1_455 S
C1263 C1266 1.476 1_455 S
C1264 C1261 1.382 1_655 S
C1264 C1265 1.387 . S
C1264 H1284 0.930 . S
C1265 C1263 1.375 1_655 S
C1265 C1264 1.387 . S
C1265 H1285 0.931 . S
C1266 C1263 1.476 1_655 S
C1266 C1273 1.399 1_655 S
C1266 N1291 1.324 . S
C1267 C1268 1.384 . S
C1267 C1269 1.384 . S
C1267 H1286 0.931 . S
C1268 C1267 1.384 . S
C1268 C1271 1.382 1_655 S
C1269 C1267 1.384 . S
C1269 C1270 1.390 . S
C1269 H1287 0.930 . S
C1270 C1269 1.390 . S
C1270 C1272 1.360 1_655 S
C1270 C1273 1.499 1_655 S
C1271 C1268 1.382 1_455 S
C1271 C1272 1.387 . S
C1271 H1288 0.930 . S
C1272 C1270 1.360 1_455 S
C1272 C1271 1.387 . S
C1272 H1289 0.931 . S
C1273 C1266 1.399 1_455 S
C1273 C1270 1.499 1_455 S
C1273 N1290 1.363 . S
H1274 C1246 0.931 . S
H1275 C1248 0.930 . S
H1276 C1250 0.930 . S
H1277 C1251 0.931 . S
H1278 C1253 0.931 . S
H1279 C1255 0.930 . S
H1280 C1257 0.930 . S
H1281 C1258 0.931 . S
H1282 C1260 0.931 . S
H1283 C1262 0.930 . S
H1284 C1264 0.930 . S
H1285 C1265 0.931 . S
H1286 C1267 0.931 . S
H1287 C1269 0.930 . S
H1288 C1271 0.930 . S
H1289 C1272 0.931 . S
N1290 C1252 1.324 . S
N1290 C1273 1.363 . S
N1291 C1259 1.363 . S
N1291 C1266 1.324 . S
C1292 C1293 1.384 . S
C1292 C1294 1.384 . S
C1292 H1320 0.931 . S
C1293 C1292 1.384 . S
C1293 C1296 1.382 . S
C1294 C1292 1.384 . S
C1294 C1295 1.381 . S
C1294 H1321 0.930 . S
C1295 C1294 1.381 . S
C1295 C1297 1.381 . S
C1295 C1298 1.487 . S
C1296 C1293 1.382 . S
C1296 C1297 1.387 . S
C1296 H1322 0.930 . S
C1297 C1295 1.381 . S
C1297 C1296 1.387 . S
C1297 H1323 0.931 . S
C1298 C1295 1.487 . S
C1298 C1305 1.399 . S
C1298 N1336 1.343 . S
C1299 C1300 1.384 . S
C1299 C1301 1.384 . S
C1299 H1324 0.931 . S
C1300 C1299 1.384 . S
C1300 C1303 1.382 . S
C1301 C1299 1.384 . S
C1301 C1302 1.381 . S
C1301 H1325 0.930 . S
C1302 C1301 1.381 . S
C1302 C1304 1.381 . S
C1302 C1305 1.487 . S
C1303 C1300 1.382 . S
C1303 C1304 1.387 . S
C1303 H1326 0.930 . S
C1304 C1302 1.381 . S
C1304 C1303 1.387 . S
C1304 H1327 0.931 . S
C1305 C1298 1.399 . S
C1305 C1302 1.487 . S
C1305 N1337 1.343 . S
C1306 C1307 1.384 . S
C1306 C1308 1.384 . S
C1306 H1328 0.931 . S
C1307 C1306 1.384 . S
C1307 C1310 1.382 . S
C1308 C1306 1.384 . S
C1308 C1309 1.381 . S
C1308 H1329 0.930 . S
C1309 C1308 1.381 . S
C1309 C1311 1.381 . S
C1309 C1312 1.487 . S
C1310 C1307 1.382 . S
C1310 C1311 1.387 . S
C1310 H1330 0.930 . S
C1311 C1309 1.381 . S
C1311 C1310 1.387 . S
C1311 H1331 0.931 . S
C1312 C1309 1.487 . S
C1312 C1319 1.399 . S
C1312 N1337 1.343 . S
C1313 C1314 1.384 . S
C1313 C1315 1.384 . S
C1313 H1332 0.931 . S
C1314 C1313 1.384 . S
C1314 C1317 1.382 . S
C1315 C1313 1.384 . S
C1315 C1316 1.381 . S
C1315 H1333 0.930 . S
C1316 C1315 1.381 . S
C1316 C1318 1.381 . S
C1316 C1319 1.487 . S
C1317 C1314 1.382 . S
C1317 C1318 1.387 . S
C1317 H1334 0.930 . S
C1318 C1316 1.381 . S
C1318 C1317 1.387 . S
C1318 H1335 0.931 . S
C1319 C1312 1.399 . S
C1319 C1316 1.487 . S
C1319 N1336 1.343 . S
H1320 C1292 0.931 . S
H1321 C1294 0.930 . S
H1322 C1296 0.930 . S
H1323 C1297 0.931 . S
H1324 C1299 0.931 . S
H1325 C1301 0.930 . S
H1326 C1303 0.930 . S
H1327 C1304 0.931 . S
H1328 C1306 0.931 . S
H1329 C1308 0.930 . S
H1330 C1310 0.930 . S
H1331 C1311 0.931 . S
H1332 C1313 0.931 . S
H1333 C1315 0.930 . S
H1334 C1317 0.930 . S
H1335 C1318 0.931 . S
N1336 C1298 1.343 . S
N1336 C1319 1.343 . S
N1337 C1305 1.343 . S
N1337 C1312 1.343 . S
C1338 C1339 1.384 . S
C1338 C1340 1.384 . S
C1338 H1366 0.931 . S
C1339 C1338 1.384 . S
C1339 C1342 1.382 . S
C1340 C1338 1.384 . S
C1340 C1341 1.381 . S
C1340 H1367 0.930 . S
C1341 C1340 1.381 . S
C1341 C1343 1.381 . S
C1341 C1344 1.487 . S
C1342 C1339 1.382 . S
C1342 C1343 1.387 . S
C1342 H1368 0.930 . S
C1343 C1341 1.381 . S
C1343 C1342 1.387 . S
C1343 H1369 0.931 . S
C1344 C1341 1.487 . S
C1344 C1351 1.399 . S
C1344 N1382 1.343 . S
C1345 C1346 1.384 . S
C1345 C1347 1.384 . S
C1345 H1370 0.931 . S
C1346 C1345 1.384 . S
C1346 C1349 1.382 . S
C1347 C1345 1.384 . S
C1347 C1348 1.381 . S
C1347 H1371 0.930 . S
C1348 C1347 1.381 . S
C1348 C1350 1.381 . S
C1348 C1351 1.487 . S
C1349 C1346 1.382 . S
C1349 C1350 1.387 . S
C1349 H1372 0.930 . S
C1350 C1348 1.381 . S
C1350 C1349 1.387 . S
C1350 H1373 0.931 . S
C1351 C1344 1.399 . S
C1351 C1348 1.487 . S
C1351 N1383 1.343 . S
C1352 C1353 1.384 . S
C1352 C1354 1.384 . S
C1352 H1374 0.931 . S
C1353 C1352 1.384 . S
C1353 C1356 1.382 . S
C1354 C1352 1.384 . S
C1354 C1355 1.381 . S
C1354 H1375 0.930 . S
C1355 C1354 1.381 . S
C1355 C1357 1.381 . S
C1355 C1358 1.487 . S
C1356 C1353 1.382 . S
C1356 C1357 1.387 . S
C1356 H1376 0.930 . S
C1357 C1355 1.381 . S
C1357 C1356 1.387 . S
C1357 H1377 0.931 . S
C1358 C1355 1.487 . S
C1358 C1365 1.399 . S
C1358 N1383 1.343 . S
C1359 C1360 1.384 . S
C1359 C1361 1.384 . S
C1359 H1378 0.931 . S
C1360 C1359 1.384 . S
C1360 C1363 1.382 . S
C1361 C1359 1.384 . S
C1361 C1362 1.381 . S
C1361 H1379 0.930 . S
C1362 C1361 1.381 . S
C1362 C1364 1.381 . S
C1362 C1365 1.487 . S
C1363 C1360 1.382 . S
C1363 C1364 1.387 . S
C1363 H1380 0.930 . S
C1364 C1362 1.381 . S
C1364 C1363 1.387 . S
C1364 H1381 0.931 . S
C1365 C1358 1.399 . S
C1365 C1362 1.487 . S
C1365 N1382 1.343 . S
H1366 C1338 0.931 . S
H1367 C1340 0.930 . S
H1368 C1342 0.930 . S
H1369 C1343 0.931 . S
H1370 C1345 0.931 . S
H1371 C1347 0.930 . S
H1372 C1349 0.930 . S
H1373 C1350 0.931 . S
H1374 C1352 0.931 . S
H1375 C1354 0.930 . S
H1376 C1356 0.930 . S
H1377 C1357 0.931 . S
H1378 C1359 0.931 . S
H1379 C1361 0.930 . S
H1380 C1363 0.930 . S
H1381 C1364 0.931 . S
N1382 C1344 1.343 . S
N1382 C1365 1.343 . S
N1383 C1351 1.343 . S
N1383 C1358 1.343 . S
C1384 C1385 1.384 . S
C1384 C1386 1.384 . S
C1384 H1412 0.931 . S
C1385 C1384 1.384 . S
C1385 C1388 1.382 . S
C1386 C1384 1.384 . S
C1386 C1387 1.381 . S
C1386 H1413 0.930 . S
C1387 C1386 1.381 . S
C1387 C1389 1.381 . S
C1387 C1390 1.487 . S
C1388 C1385 1.382 . S
C1388 C1389 1.387 . S
C1388 H1414 0.930 . S
C1389 C1387 1.381 . S
C1389 C1388 1.387 . S
C1389 H1415 0.931 . S
C1390 C1387 1.487 . S
C1390 C1397 1.399 . S
C1390 N1428 1.343 . S
C1391 C1392 1.384 . S
C1391 C1393 1.384 . S
C1391 H1416 0.931 . S
C1392 C1391 1.384 . S
C1392 C1395 1.382 . S
C1393 C1391 1.384 . S
C1393 C1394 1.381 . S
C1393 H1417 0.930 . S
C1394 C1393 1.381 . S
C1394 C1396 1.381 . S
C1394 C1397 1.487 . S
C1395 C1392 1.382 . S
C1395 C1396 1.387 . S
C1395 H1418 0.930 . S
C1396 C1394 1.381 . S
C1396 C1395 1.387 . S
C1396 H1419 0.931 . S
C1397 C1390 1.399 . S
C1397 C1394 1.487 . S
C1397 N1429 1.343 . S
C1398 C1399 1.384 . S
C1398 C1400 1.384 . S
C1398 H1420 0.931 . S
C1399 C1398 1.384 . S
C1399 C1402 1.382 . S
C1400 C1398 1.384 . S
C1400 C1401 1.381 . S
C1400 H1421 0.930 . S
C1401 C1400 1.381 . S
C1401 C1403 1.381 . S
C1401 C1404 1.487 . S
C1402 C1399 1.382 . S
C1402 C1403 1.387 . S
C1402 H1422 0.930 . S
C1403 C1401 1.381 . S
C1403 C1402 1.387 . S
C1403 H1423 0.931 . S
C1404 C1401 1.487 . S
C1404 C1411 1.399 . S
C1404 N1429 1.343 . S
C1405 C1406 1.384 . S
C1405 C1407 1.384 . S
C1405 H1424 0.931 . S
C1406 C1405 1.384 . S
C1406 C1409 1.382 . S
C1407 C1405 1.384 . S
C1407 C1408 1.381 . S
C1407 H1425 0.930 . S
C1408 C1407 1.381 . S
C1408 C1410 1.381 . S
C1408 C1411 1.487 . S
C1409 C1406 1.382 . S
C1409 C1410 1.387 . S
C1409 H1426 0.930 . S
C1410 C1408 1.381 . S
C1410 C1409 1.387 . S
C1410 H1427 0.931 . S
C1411 C1404 1.399 . S
C1411 C1408 1.487 . S
C1411 N1428 1.343 . S
H1412 C1384 0.931 . S
H1413 C1386 0.930 . S
H1414 C1388 0.930 . S
H1415 C1389 0.931 . S
H1416 C1391 0.931 . S
H1417 C1393 0.930 . S
H1418 C1395 0.930 . S
H1419 C1396 0.931 . S
H1420 C1398 0.931 . S
H1421 C1400 0.930 . S
H1422 C1402 0.930 . S
H1423 C1403 0.931 . S
H1424 C1405 0.931 . S
H1425 C1407 0.930 . S
H1426 C1409 0.930 . S
H1427 C1410 0.931 . S
N1428 C1390 1.343 . S
N1428 C1411 1.343 . S
N1429 C1397 1.343 . S
N1429 C1404 1.343 . S
C1430 C1431 1.384 . S
C1430 C1432 1.384 . S
C1430 H1458 0.931 . S
C1431 C1430 1.384 . S
C1431 C1434 1.382 . S
C1432 C1430 1.384 . S
C1432 C1433 1.381 . S
C1432 H1459 0.930 . S
C1433 C1432 1.381 . S
C1433 C1435 1.381 . S
C1433 C1436 1.487 . S
C1434 C1431 1.382 . S
C1434 C1435 1.387 . S
C1434 H1460 0.930 . S
C1435 C1433 1.381 . S
C1435 C1434 1.387 . S
C1435 H1461 0.931 . S
C1436 C1433 1.487 . S
C1436 C1443 1.399 . S
C1436 N1474 1.343 . S
C1437 C1438 1.384 . S
C1437 C1439 1.384 . S
C1437 H1462 0.931 . S
C1438 C1437 1.384 . S
C1438 C1441 1.382 . S
C1439 C1437 1.384 . S
C1439 C1440 1.381 . S
C1439 H1463 0.930 . S
C1440 C1439 1.381 . S
C1440 C1442 1.381 . S
C1440 C1443 1.487 . S
C1441 C1438 1.382 . S
C1441 C1442 1.387 . S
C1441 H1464 0.930 . S
C1442 C1440 1.381 . S
C1442 C1441 1.387 . S
C1442 H1465 0.931 . S
C1443 C1436 1.399 . S
C1443 C1440 1.487 . S
C1443 N1475 1.343 . S
C1444 C1445 1.384 . S
C1444 C1446 1.384 . S
C1444 H1466 0.931 . S
C1445 C1444 1.384 . S
C1445 C1448 1.382 . S
C1446 C1444 1.384 . S
C1446 C1447 1.381 . S
C1446 H1467 0.930 . S
C1447 C1446 1.381 . S
C1447 C1449 1.381 . S
C1447 C1450 1.487 . S
C1448 C1445 1.382 . S
C1448 C1449 1.387 . S
C1448 H1468 0.930 . S
C1449 C1447 1.381 . S
C1449 C1448 1.387 . S
C1449 H1469 0.931 . S
C1450 C1447 1.487 . S
C1450 C1457 1.399 . S
C1450 N1475 1.343 . S
C1451 C1452 1.384 . S
C1451 C1453 1.384 . S
C1451 H1470 0.931 . S
C1452 C1451 1.384 . S
C1452 C1455 1.382 . S
C1453 C1451 1.384 . S
C1453 C1454 1.381 . S
C1453 H1471 0.930 . S
C1454 C1453 1.381 . S
C1454 C1456 1.381 . S
C1454 C1457 1.487 . S
C1455 C1452 1.382 . S
C1455 C1456 1.387 . S
C1455 H1472 0.930 . S
C1456 C1454 1.381 . S
C1456 C1455 1.387 . S
C1456 H1473 0.931 . S
C1457 C1450 1.399 . S
C1457 C1454 1.487 . S
C1457 N1474 1.343 . S
H1458 C1430 0.931 . S
H1459 C1432 0.930 . S
H1460 C1434 0.930 . S
H1461 C1435 0.931 . S
H1462 C1437 0.931 . S
H1463 C1439 0.930 . S
H1464 C1441 0.930 . S
H1465 C1442 0.931 . S
H1466 C1444 0.931 . S
H1467 C1446 0.930 . S
H1468 C1448 0.930 . S
H1469 C1449 0.931 . S
H1470 C1451 0.931 . S
H1471 C1453 0.930 . S
H1472 C1455 0.930 . S
H1473 C1456 0.931 . S
N1474 C1436 1.343 . S
N1474 C1457 1.343 . S
N1475 C1443 1.343 . S
N1475 C1450 1.343 . S
C1476 C1477 1.391 1_455 S
C1476 C1478 1.394 . S
C1476 H1492 0.931 . S
C1477 C1476 1.391 1_655 S
C1477 C1481 1.376 . S
C1478 C1476 1.394 . S
C1478 C1479 1.369 1_455 S
C1478 C1482 1.531 . S
C1479 C1478 1.369 1_655 S
C1479 C1480 1.410 . S
C1479 C1487 1.503 . S
C1480 C1479 1.410 . S
C1480 C1481 1.392 . S
C1480 C1483 1.511 . S
C1481 C1477 1.376 . S
C1481 C1480 1.392 . S
C1481 H1493 0.929 . S
C1482 C1478 1.531 . S
C1482 H1494 0.960 . S
C1482 H1495 0.962 . S
C1482 H1496 0.960 . S
C1483 C1480 1.511 . S
C1483 H1497 0.961 . S
C1483 H1498 0.961 . S
C1483 H1499 0.961 . S
C1484 C1485 1.370 1_455 S
C1484 C1486 1.363 . S
C1484 H1500 0.931 . S
C1485 C1484 1.370 1_655 S
C1485 C1489 1.408 . S
C1486 C1484 1.363 . S
C1486 C1487 1.370 1_455 S
C1486 C1490 1.524 . S
C1487 C1479 1.503 . S
C1487 C1486 1.370 1_655 S
C1487 C1488 1.403 . S
C1488 C1487 1.403 . S
C1488 C1489 1.404 . S
C1488 C1491 1.539 . S
C1489 C1485 1.408 . S
C1489 C1488 1.404 . S
C1489 H1501 0.930 . S
C1490 C1486 1.524 . S
C1490 H1502 0.956 . S
C1490 H1503 0.961 . S
C1490 H1504 0.961 . S
C1491 C1488 1.539 . S
C1491 H1505 0.958 . S
C1491 H1506 0.961 . S
C1491 H1507 0.960 . S
H1492 C1476 0.931 . S
H1493 C1481 0.929 . S
H1494 C1482 0.960 . S
H1495 C1482 0.962 . S
H1496 C1482 0.960 . S
H1497 C1483 0.961 . S
H1498 C1483 0.961 . S
H1499 C1483 0.961 . S
H1500 C1484 0.931 . S
H1501 C1489 0.930 . S
H1502 C1490 0.956 . S
H1503 C1490 0.961 . S
H1504 C1490 0.961 . S
H1505 C1491 0.958 . S
H1506 C1491 0.961 . S
H1507 C1491 0.960 . S
C1508 C1509 1.391 . S
C1508 C1510 1.394 . S
C1508 H1524 0.931 . S
C1509 C1508 1.391 . S
C1509 C1513 1.376 . S
C1510 C1508 1.394 . S
C1510 C1511 1.369 . S
C1510 C1514 1.531 . S
C1511 C1510 1.369 . S
C1511 C1512 1.410 . S
C1511 C1519 1.503 . S
C1512 C1511 1.410 . S
C1512 C1513 1.392 . S
C1512 C1515 1.511 . S
C1513 C1509 1.376 . S
C1513 C1512 1.392 . S
C1513 H1525 0.929 . S
C1514 C1510 1.531 . S
C1514 H1526 0.960 . S
C1514 H1527 0.962 . S
C1514 H1528 0.960 . S
C1515 C1512 1.511 . S
C1515 H1529 0.961 . S
C1515 H1530 0.961 . S
C1515 H1531 0.961 . S
C1516 C1517 1.370 . S
C1516 C1518 1.363 . S
C1516 H1532 0.931 . S
C1517 C1516 1.370 . S
C1517 C1521 1.408 . S
C1518 C1516 1.363 . S
C1518 C1519 1.370 . S
C1518 C1522 1.524 . S
C1519 C1511 1.503 . S
C1519 C1518 1.370 . S
C1519 C1520 1.403 . S
C1520 C1519 1.403 . S
C1520 C1521 1.404 . S
C1520 C1523 1.539 . S
C1521 C1517 1.408 . S
C1521 C1520 1.404 . S
C1521 H1533 0.930 . S
C1522 C1518 1.524 . S
C1522 H1534 0.956 . S
C1522 H1535 0.961 . S
C1522 H1536 0.961 . S
C1523 C1520 1.539 . S
C1523 H1537 0.958 . S
C1523 H1538 0.961 . S
C1523 H1539 0.960 . S
H1524 C1508 0.931 . S
H1525 C1513 0.929 . S
H1526 C1514 0.960 . S
H1527 C1514 0.962 . S
H1528 C1514 0.960 . S
H1529 C1515 0.961 . S
H1530 C1515 0.961 . S
H1531 C1515 0.961 . S
H1532 C1516 0.931 . S
H1533 C1521 0.930 . S
H1534 C1522 0.956 . S
H1535 C1522 0.961 . S
H1536 C1522 0.961 . S
H1537 C1523 0.958 . S
H1538 C1523 0.961 . S
H1539 C1523 0.960 . S
C1540 C1541 1.391 . S
C1540 C1542 1.394 . S
C1540 H1556 0.931 . S
C1541 C1540 1.391 . S
C1541 C1545 1.376 1_545 S
C1542 C1540 1.394 . S
C1542 C1543 1.369 . S
C1542 C1546 1.531 . S
C1543 C1542 1.369 . S
C1543 C1544 1.410 1_545 S
C1543 C1551 1.503 . S
C1544 C1543 1.410 1_565 S
C1544 C1545 1.392 . S
C1544 C1547 1.511 . S
C1545 C1541 1.376 1_565 S
C1545 C1544 1.392 . S
C1545 H1557 0.929 . S
C1546 C1542 1.531 . S
C1546 H1558 0.960 . S
C1546 H1559 0.962 . S
C1546 H1560 0.960 . S
C1547 C1544 1.511 . S
C1547 H1561 0.961 . S
C1547 H1562 0.961 . S
C1547 H1563 0.961 . S
C1548 C1549 1.370 1_565 S
C1548 C1550 1.363 . S
C1548 H1564 0.931 . S
C1549 C1548 1.370 1_545 S
C1549 C1553 1.408 . S
C1550 C1548 1.363 . S
C1550 C1551 1.370 1_565 S
C1550 C1554 1.524 . S
C1551 C1543 1.503 . S
C1551 C1550 1.370 1_545 S
C1551 C1552 1.403 . S
C1552 C1551 1.403 . S
C1552 C1553 1.404 . S
C1552 C1555 1.539 . S
C1553 C1549 1.408 . S
C1553 C1552 1.404 . S
C1553 H1565 0.930 . S
C1554 C1550 1.524 . S
C1554 H1566 0.956 . S
C1554 H1567 0.961 . S
C1554 H1568 0.961 . S
C1555 C1552 1.539 . S
C1555 H1569 0.958 . S
C1555 H1570 0.961 . S
C1555 H1571 0.960 . S
H1556 C1540 0.931 . S
H1557 C1545 0.929 . S
H1558 C1546 0.960 . S
H1559 C1546 0.962 . S
H1560 C1546 0.960 . S
H1561 C1547 0.961 . S
H1562 C1547 0.961 . S
H1563 C1547 0.961 . S
H1564 C1548 0.931 . S
H1565 C1553 0.930 . S
H1566 C1554 0.956 . S
H1567 C1554 0.961 . S
H1568 C1554 0.961 . S
H1569 C1555 0.958 . S
H1570 C1555 0.961 . S
H1571 C1555 0.960 . S
C1572 C1573 1.391 . S
C1572 C1574 1.394 . S
C1572 H1588 0.931 . S
C1573 C1572 1.391 . S
C1573 C1577 1.376 . S
C1574 C1572 1.394 . S
C1574 C1575 1.369 . S
C1574 C1578 1.531 . S
C1575 C1574 1.369 . S
C1575 C1576 1.410 . S
C1575 C1583 1.503 . S
C1576 C1575 1.410 . S
C1576 C1577 1.392 . S
C1576 C1579 1.511 1_565 S
C1577 C1573 1.376 . S
C1577 C1576 1.392 . S
C1577 H1589 0.891 1_565 S
C1578 C1574 1.531 . S
C1578 H1590 0.960 . S
C1578 H1591 0.962 . S
C1578 H1592 0.960 . S
C1579 C1576 1.511 1_545 S
C1579 H1593 0.961 . S
C1579 H1594 0.961 . S
C1579 H1595 0.961 1_545 S
C1580 C1581 1.370 1_545 S
C1580 C1582 1.363 . S
C1580 H1596 0.931 . S
C1581 C1580 1.370 1_565 S
C1581 C1585 1.408 . S
C1582 C1580 1.363 . S
C1582 C1583 1.370 1_545 S
C1582 C1586 1.524 . S
C1583 C1575 1.503 . S
C1583 C1582 1.370 1_565 S
C1583 C1584 1.403 . S
C1584 C1583 1.403 . S
C1584 C1585 1.404 . S
C1584 C1587 1.539 . S
C1585 C1581 1.408 . S
C1585 C1584 1.404 . S
C1585 H1597 0.930 . S
C1586 C1582 1.524 . S
C1586 H1598 0.956 . S
C1586 H1599 0.961 . S
C1586 H1600 0.961 . S
C1587 C1584 1.539 . S
C1587 H1601 0.958 . S
C1587 H1602 0.961 . S
C1587 H1603 0.960 . S
H1588 C1572 0.931 . S
H1589 C1577 0.891 1_545 S
H1590 C1578 0.960 . S
H1591 C1578 0.962 . S
H1592 C1578 0.960 . S
H1593 C1579 0.961 . S
H1594 C1579 0.961 . S
H1595 C1579 0.961 1_565 S
H1596 C1580 0.931 . S
H1597 C1585 0.930 . S
H1598 C1586 0.956 . S
H1599 C1586 0.961 . S
H1600 C1586 0.961 . S
H1601 C1587 0.958 . S
H1602 C1587 0.961 . S
H1603 C1587 0.960 . S
C1604 C1605 1.374 1_655 S
C1604 C1606 1.397 . S
C1604 H1620 0.940 . S
C1605 C1604 1.374 1_455 S
C1605 C1609 1.376 . S
C1606 C1604 1.397 . S
C1606 C1607 1.364 1_655 S
C1606 C1610 1.540 . S
C1607 C1606 1.364 1_455 S
C1607 C1608 1.410 . S
C1607 C1615 1.503 . S
C1608 C1607 1.410 . S
C1608 C1609 1.392 . S
C1608 C1611 1.511 . S
C1609 C1605 1.376 . S
C1609 C1608 1.392 . S
C1609 H1621 0.929 . S
C1610 C1606 1.540 . S
C1610 H1622 0.960 . S
C1610 H1623 0.962 . S
C1610 H1624 0.960 . S
C1611 C1608 1.511 . S
C1611 H1625 0.961 . S
C1611 H1626 0.961 . S
C1611 H1627 0.961 . S
C1612 C1613 1.370 1_655 S
C1612 C1614 1.363 . S
C1612 H1628 0.931 . S
C1613 C1612 1.370 1_455 S
C1613 C1617 1.408 . S
C1614 C1612 1.363 . S
C1614 C1615 1.370 1_655 S
C1614 C1618 1.524 . S
C1615 C1607 1.503 . S
C1615 C1614 1.370 1_455 S
C1615 C1616 1.403 . S
C1616 C1615 1.403 . S
C1616 C1617 1.404 . S
C1616 C1619 1.539 . S
C1617 C1613 1.408 . S
C1617 C1616 1.404 . S
C1617 H1629 0.930 . S
C1618 C1614 1.524 . S
C1618 H1630 0.956 . S
C1618 H1631 0.961 . S
C1618 H1632 0.961 . S
C1619 C1616 1.539 . S
C1619 H1633 0.958 . S
C1619 H1634 0.961 . S
C1619 H1635 0.960 . S
H1620 C1604 0.940 . S
H1621 C1609 0.929 . S
H1622 C1610 0.960 . S
H1623 C1610 0.962 . S
H1624 C1610 0.960 . S
H1625 C1611 0.961 . S
H1626 C1611 0.961 . S
H1627 C1611 0.961 . S
H1628 C1612 0.931 . S
H1629 C1617 0.930 . S
H1630 C1618 0.956 . S
H1631 C1618 0.961 . S
H1632 C1618 0.961 . S
H1633 C1619 0.958 . S
H1634 C1619 0.961 . S
H1635 C1619 0.960 . S
C1636 C1637 1.391 . S
C1636 C1638 1.394 . S
C1636 H1652 0.931 . S
C1637 C1636 1.391 . S
C1637 C1641 1.376 . S
C1638 C1636 1.394 . S
C1638 C1639 1.369 . S
C1638 C1642 1.531 . S
C1639 C1638 1.369 . S
C1639 C1640 1.410 . S
C1639 C1647 1.503 . S
C1640 C1639 1.410 . S
C1640 C1641 1.392 . S
C1640 C1643 1.511 . S
C1641 C1637 1.376 . S
C1641 C1640 1.392 . S
C1641 H1653 0.929 . S
C1642 C1638 1.531 . S
C1642 H1654 0.960 . S
C1642 H1655 0.962 . S
C1642 H1656 0.960 . S
C1643 C1640 1.511 . S
C1643 H1657 0.961 . S
C1643 H1658 0.961 . S
C1643 H1659 0.961 . S
C1644 C1645 1.370 . S
C1644 C1646 1.363 . S
C1644 H1660 0.931 . S
C1645 C1644 1.370 . S
C1645 C1649 1.408 . S
C1646 C1644 1.363 . S
C1646 C1647 1.370 . S
C1646 C1650 1.524 . S
C1647 C1639 1.503 . S
C1647 C1646 1.370 . S
C1647 C1648 1.403 . S
C1648 C1647 1.403 . S
C1648 C1649 1.404 . S
C1648 C1651 1.539 . S
C1649 C1645 1.408 . S
C1649 C1648 1.404 . S
C1649 H1661 0.930 . S
C1650 C1646 1.524 . S
C1650 H1662 0.956 . S
C1650 H1663 0.961 . S
C1650 H1664 0.961 . S
C1651 C1648 1.539 . S
C1651 H1665 0.958 . S
C1651 H1666 0.961 . S
C1651 H1667 0.960 . S
H1652 C1636 0.931 . S
H1653 C1641 0.929 . S
H1654 C1642 0.960 . S
H1655 C1642 0.962 . S
H1656 C1642 0.960 . S
H1657 C1643 0.961 . S
H1658 C1643 0.961 . S
H1659 C1643 0.961 . S
H1660 C1644 0.931 . S
H1661 C1649 0.930 . S
H1662 C1650 0.956 . S
H1663 C1650 0.961 . S
H1664 C1650 0.961 . S
H1665 C1651 0.958 . S
H1666 C1651 0.961 . S
H1667 C1651 0.960 . S
C1668 C1669 1.359 1_655 S
C1668 C1670 1.377 . S
C1668 H1684 0.991 . S
C1669 C1668 1.359 1_455 S
C1669 C1673 1.376 . S
C1670 C1668 1.377 . S
C1670 C1671 1.346 1_655 S
C1670 C1674 1.544 . S
C1671 C1670 1.346 1_455 S
C1671 C1672 1.410 . S
C1671 C1679 1.503 . S
C1672 C1671 1.410 . S
C1672 C1673 1.392 . S
C1672 C1675 1.511 . S
C1673 C1669 1.376 . S
C1673 C1672 1.392 . S
C1673 H1685 0.929 . S
C1674 C1670 1.544 . S
C1674 H1686 0.960 . S
C1674 H1687 0.962 . S
C1674 H1688 0.960 . S
C1675 C1672 1.511 . S
C1675 H1689 0.961 . S
C1675 H1690 0.961 . S
C1675 H1691 0.961 . S
C1676 C1677 1.370 1_655 S
C1676 C1678 1.363 . S
C1676 H1692 0.931 . S
C1677 C1676 1.370 1_455 S
C1677 C1681 1.408 . S
C1678 C1676 1.363 . S
C1678 C1679 1.370 1_655 S
C1678 C1682 1.524 . S
C1679 C1671 1.503 . S
C1679 C1678 1.370 1_455 S
C1679 C1680 1.403 . S
C1680 C1679 1.403 . S
C1680 C1681 1.404 . S
C1680 C1683 1.539 . S
C1681 C1677 1.408 . S
C1681 C1680 1.404 . S
C1681 H1693 0.930 . S
C1682 C1678 1.524 . S
C1682 H1694 0.956 . S
C1682 H1695 0.961 . S
C1682 H1696 0.961 . S
C1683 C1680 1.539 . S
C1683 H1697 0.958 . S
C1683 H1698 0.961 . S
C1683 H1699 0.960 . S
H1684 C1668 0.991 . S
H1685 C1673 0.929 . S
H1686 C1674 0.960 . S
H1687 C1674 0.962 . S
H1688 C1674 0.960 . S
H1689 C1675 0.961 . S
H1690 C1675 0.961 . S
H1691 C1675 0.961 . S
H1692 C1676 0.931 . S
H1693 C1681 0.930 . S
H1694 C1682 0.956 . S
H1695 C1682 0.961 . S
H1696 C1682 0.961 . S
H1697 C1683 0.958 . S
H1698 C1683 0.961 . S
H1699 C1683 0.960 . S
C1700 C1701 1.391 . S
C1700 C1702 1.394 . S
C1700 H1716 0.931 . S
C1701 C1700 1.391 . S
C1701 C1705 1.376 . S
C1702 C1700 1.394 . S
C1702 C1703 1.369 . S
C1702 C1706 1.531 . S
C1703 C1702 1.369 . S
C1703 C1704 1.410 . S
C1703 C1711 1.503 . S
C1704 C1703 1.410 . S
C1704 C1705 1.392 . S
C1704 C1707 1.511 . S
C1705 C1701 1.376 . S
C1705 C1704 1.392 . S
C1705 H1717 0.929 . S
C1706 C1702 1.531 . S
C1706 H1718 0.960 . S
C1706 H1719 0.962 . S
C1706 H1720 0.960 . S
C1707 C1704 1.511 . S
C1707 H1721 0.961 . S
C1707 H1722 0.961 . S
C1707 H1723 0.961 . S
C1708 C1709 1.370 . S
C1708 C1710 1.363 . S
C1708 H1724 0.931 . S
C1709 C1708 1.370 . S
C1709 C1713 1.408 . S
C1710 C1708 1.363 . S
C1710 C1711 1.370 . S
C1710 C1714 1.524 . S
C1711 C1703 1.503 . S
C1711 C1710 1.370 . S
C1711 C1712 1.403 . S
C1712 C1711 1.403 . S
C1712 C1713 1.404 . S
C1712 C1715 1.539 . S
C1713 C1709 1.408 . S
C1713 C1712 1.404 . S
C1713 H1725 0.930 . S
C1714 C1710 1.524 . S
C1714 H1726 0.956 . S
C1714 H1727 0.961 . S
C1714 H1728 0.961 . S
C1715 C1712 1.539 . S
C1715 H1729 0.958 . S
C1715 H1730 0.961 . S
C1715 H1731 0.960 . S
H1716 C1700 0.931 . S
H1717 C1705 0.929 . S
H1718 C1706 0.960 . S
H1719 C1706 0.962 . S
H1720 C1706 0.960 . S
H1721 C1707 0.961 . S
H1722 C1707 0.961 . S
H1723 C1707 0.961 . S
H1724 C1708 0.931 . S
H1725 C1713 0.930 . S
H1726 C1714 0.956 . S
H1727 C1714 0.961 . S
H1728 C1714 0.961 . S
H1729 C1715 0.958 . S
H1730 C1715 0.961 . S
H1731 C1715 0.960 . S
C1732 C1733 1.391 1_545 S
C1732 C1734 1.394 . S
C1732 H1748 0.931 . S
C1733 C1732 1.391 1_565 S
C1733 C1737 1.376 . S
C1734 C1732 1.394 . S
C1734 C1735 1.369 1_545 S
C1734 C1738 1.531 . S
C1735 C1734 1.369 1_565 S
C1735 C1736 1.410 . S
C1735 C1743 1.503 . S
C1736 C1735 1.410 . S
C1736 C1737 1.392 . S
C1736 C1739 1.511 . S
C1737 C1733 1.376 . S
C1737 C1736 1.392 . S
C1737 H1749 0.929 . S
C1738 C1734 1.531 . S
C1738 H1750 0.960 . S
C1738 H1751 0.962 . S
C1738 H1752 0.960 . S
C1739 C1736 1.511 . S
C1739 H1753 0.961 . S
C1739 H1754 0.961 . S
C1739 H1755 0.961 . S
C1740 C1741 1.370 1_545 S
C1740 C1742 1.363 . S
C1740 H1756 0.931 . S
C1741 C1740 1.370 1_565 S
C1741 C1745 1.408 . S
C1742 C1740 1.363 . S
C1742 C1743 1.370 1_545 S
C1742 C1746 1.524 . S
C1743 C1735 1.503 . S
C1743 C1742 1.370 1_565 S
C1743 C1744 1.403 . S
C1744 C1743 1.403 . S
C1744 C1745 1.404 . S
C1744 C1747 1.539 . S
C1745 C1741 1.408 . S
C1745 C1744 1.404 . S
C1745 H1757 0.930 . S
C1746 C1742 1.524 . S
C1746 H1758 0.956 . S
C1746 H1759 0.961 1_545 S
C1746 H1760 0.961 . S
C1747 C1744 1.539 . S
C1747 H1761 0.958 . S
C1747 H1762 0.961 . S
C1747 H1763 0.960 . S
H1748 C1732 0.931 . S
H1749 C1737 0.929 . S
H1750 C1738 0.960 . S
H1751 C1738 0.962 . S
H1752 C1738 0.960 . S
H1753 C1739 0.961 . S
H1754 C1739 0.961 . S
H1755 C1739 0.961 . S
H1756 C1740 0.931 . S
H1757 C1745 0.930 . S
H1758 C1746 0.956 . S
H1759 C1746 0.961 1_565 S
H1760 C1746 0.961 . S
H1761 C1747 0.958 . S
H1762 C1747 0.961 . S
H1763 C1747 0.960 . S
C1764 C1765 1.391 . S
C1764 C1766 1.394 . S
C1764 H1780 0.931 . S
C1765 C1764 1.391 . S
C1765 C1769 1.376 1_545 S
C1766 C1764 1.394 . S
C1766 C1767 1.369 . S
C1766 C1770 1.531 . S
C1767 C1766 1.369 . S
C1767 C1768 1.410 1_545 S
C1767 C1775 1.503 . S
C1768 C1767 1.410 1_565 S
C1768 C1769 1.392 . S
C1768 C1771 1.511 . S
C1769 C1765 1.376 1_565 S
C1769 C1768 1.392 . S
C1769 H1781 0.929 . S
C1770 C1766 1.531 . S
C1770 H1782 0.960 . S
C1770 H1783 0.962 . S
C1770 H1784 0.960 . S
C1771 C1768 1.511 . S
C1771 H1785 0.961 . S
C1771 H1786 0.961 . S
C1771 H1787 0.961 . S
C1772 C1773 1.370 1_565 S
C1772 C1774 1.346 . S
C1772 H1788 0.931 . S
C1773 C1772 1.370 1_545 S
C1773 C1777 1.408 . S
C1774 C1772 1.346 . S
C1774 C1775 1.343 1_565 S
C1774 C1778 1.571 . S
C1775 C1767 1.503 . S
C1775 C1774 1.343 1_545 S
C1775 C1776 1.403 . S
C1776 C1775 1.403 . S
C1776 C1777 1.404 . S
C1776 C1779 1.539 . S
C1777 C1773 1.408 . S
C1777 C1776 1.404 . S
C1777 H1789 0.930 . S
C1778 C1774 1.571 . S
C1778 H1790 0.956 1_565 S
C1778 H1791 0.961 . S
C1778 H1792 0.961 . S
C1779 C1776 1.539 . S
C1779 H1793 0.958 . S
C1779 H1794 0.961 . S
C1779 H1795 0.960 . S
H1780 C1764 0.931 . S
H1781 C1769 0.929 . S
H1782 C1770 0.960 . S
H1783 C1770 0.962 . S
H1784 C1770 0.960 . S
H1785 C1771 0.961 . S
H1786 C1771 0.961 . S
H1787 C1771 0.961 . S
H1788 C1772 0.931 . S
H1789 C1777 0.930 . S
H1790 C1778 0.956 1_545 S
H1791 C1778 0.961 . S
H1792 C1778 0.961 . S
H1793 C1779 0.958 . S
H1794 C1779 0.961 . S
H1795 C1779 0.960 . S
C1796 C1797 1.391 . S
C1796 C1798 1.394 . S
C1796 H1812 0.931 . S
C1797 C1796 1.391 . S
C1797 C1801 1.376 1_655 S
C1798 C1796 1.394 . S
C1798 C1799 1.387 . S
C1798 C1802 1.531 . S
C1799 C1798 1.387 . S
C1799 C1800 1.412 1_655 S
C1799 C1807 1.489 . S
C1800 C1799 1.412 1_455 S
C1800 C1801 1.392 . S
C1800 C1803 1.511 . S
C1801 C1797 1.376 1_455 S
C1801 C1800 1.392 . S
C1801 H1813 0.929 . S
C1802 C1798 1.531 . S
C1802 H1814 0.960 . S
C1802 H1815 0.962 . S
C1802 H1816 0.960 . S
C1803 C1800 1.511 . S
C1803 H1817 0.961 . S
C1803 H1818 0.961 . S
C1803 H1819 0.961 . S
C1804 C1805 1.370 . S
C1804 C1806 1.363 . S
C1804 H1820 0.931 . S
C1805 C1804 1.370 . S
C1805 C1809 1.408 1_655 S
C1806 C1804 1.363 . S
C1806 C1807 1.370 . S
C1806 C1810 1.524 . S
C1807 C1799 1.489 . S
C1807 C1806 1.370 . S
C1807 C1808 1.403 1_655 S
C1808 C1807 1.403 1_455 S
C1808 C1809 1.404 . S
C1808 C1811 1.539 . S
C1809 C1805 1.408 1_455 S
C1809 C1808 1.404 . S
C1809 H1821 0.930 . S
C1810 C1806 1.524 . S
C1810 H1822 0.956 . S
C1810 H1823 0.961 . S
C1810 H1824 0.961 . S
C1811 C1808 1.539 . S
C1811 H1825 0.958 . S
C1811 H1826 0.961 . S
C1811 H1827 0.960 . S
H1812 C1796 0.931 . S
H1813 C1801 0.929 . S
H1814 C1802 0.960 . S
H1815 C1802 0.962 . S
H1816 C1802 0.960 . S
H1817 C1803 0.961 . S
H1818 C1803 0.961 . S
H1819 C1803 0.961 . S
H1820 C1804 0.931 . S
H1821 C1809 0.930 . S
H1822 C1810 0.956 . S
H1823 C1810 0.961 . S
H1824 C1810 0.961 . S
H1825 C1811 0.958 . S
H1826 C1811 0.961 . S
H1827 C1811 0.960 . S
C1828 C1829 1.391 . S
C1828 C1830 1.394 . S
C1828 H1844 0.931 . S
C1829 C1828 1.391 . S
C1829 C1833 1.376 . S
C1830 C1828 1.394 . S
C1830 C1831 1.369 . S
C1830 C1834 1.531 . S
C1831 C1830 1.369 . S
C1831 C1832 1.410 . S
C1831 C1839 1.503 . S
C1832 C1831 1.410 . S
C1832 C1833 1.392 . S
C1832 C1835 1.511 . S
C1833 C1829 1.376 . S
C1833 C1832 1.392 . S
C1833 H1845 0.929 . S
C1834 C1830 1.531 . S
C1834 H1846 0.960 . S
C1834 H1847 0.962 . S
C1834 H1848 0.960 . S
C1835 C1832 1.511 . S
C1835 H1849 0.961 . S
C1835 H1850 0.961 . S
C1835 H1851 0.961 . S
C1836 C1837 1.370 . S
C1836 C1838 1.363 . S
C1836 H1852 0.931 . S
C1837 C1836 1.370 . S
C1837 C1841 1.408 . S
C1838 C1836 1.363 . S
C1838 C1839 1.370 . S
C1838 C1842 1.524 . S
C1839 C1831 1.503 . S
C1839 C1838 1.370 . S
C1839 C1840 1.403 . S
C1840 C1839 1.403 . S
C1840 C1841 1.404 . S
C1840 C1843 1.539 . S
C1841 C1837 1.408 . S
C1841 C1840 1.404 . S
C1841 H1853 0.930 . S
C1842 C1838 1.524 . S
C1842 H1854 0.956 . S
C1842 H1855 0.961 . S
C1842 H1856 0.961 . S
C1843 C1840 1.539 . S
C1843 H1857 0.958 . S
C1843 H1858 0.961 . S
C1843 H1859 0.960 . S
H1844 C1828 0.931 . S
H1845 C1833 0.929 . S
H1846 C1834 0.960 . S
H1847 C1834 0.962 . S
H1848 C1834 0.960 . S
H1849 C1835 0.961 . S
H1850 C1835 0.961 . S
H1851 C1835 0.961 . S
H1852 C1836 0.931 . S
H1853 C1841 0.930 . S
H1854 C1842 0.956 . S
H1855 C1842 0.961 . S
H1856 C1842 0.961 . S
H1857 C1843 0.958 . S
H1858 C1843 0.961 . S
H1859 C1843 0.960 . S
C1860 C1861 1.391 . S
C1860 C1862 1.394 . S
C1860 H1876 0.931 . S
C1861 C1860 1.391 . S
C1861 C1865 1.376 . S
C1862 C1860 1.394 . S
C1862 C1863 1.369 . S
C1862 C1866 1.531 . S
C1863 C1862 1.369 . S
C1863 C1864 1.410 . S
C1863 C1871 1.503 . S
C1864 C1863 1.410 . S
C1864 C1865 1.392 . S
C1864 C1867 1.511 . S
C1865 C1861 1.376 . S
C1865 C1864 1.392 . S
C1865 H1877 0.929 . S
C1866 C1862 1.531 . S
C1866 H1878 0.960 . S
C1866 H1879 0.962 . S
C1866 H1880 0.960 . S
C1867 C1864 1.511 . S
C1867 H1881 0.961 . S
C1867 H1882 0.961 . S
C1867 H1883 0.961 . S
C1868 C1869 1.370 . S
C1868 C1870 1.363 . S
C1868 H1884 0.931 . S
C1869 C1868 1.370 . S
C1869 C1873 1.408 . S
C1870 C1868 1.363 . S
C1870 C1871 1.370 . S
C1870 C1874 1.524 . S
C1871 C1863 1.503 . S
C1871 C1870 1.370 . S
C1871 C1872 1.403 . S
C1872 C1871 1.403 . S
C1872 C1873 1.404 . S
C1872 C1875 1.539 . S
C1873 C1869 1.408 . S
C1873 C1872 1.404 . S
C1873 H1885 0.930 . S
C1874 C1870 1.524 . S
C1874 H1886 0.956 . S
C1874 H1887 0.961 . S
C1874 H1888 0.961 . S
C1875 C1872 1.539 . S
C1875 H1889 0.958 . S
C1875 H1890 0.961 . S
C1875 H1891 0.960 . S
H1876 C1860 0.931 . S
H1877 C1865 0.929 . S
H1878 C1866 0.960 . S
H1879 C1866 0.962 . S
H1880 C1866 0.960 . S
H1881 C1867 0.961 . S
H1882 C1867 0.961 . S
H1883 C1867 0.961 . S
H1884 C1868 0.931 . S
H1885 C1873 0.930 . S
H1886 C1874 0.956 . S
H1887 C1874 0.961 . S
H1888 C1874 0.961 . S
H1889 C1875 0.958 . S
H1890 C1875 0.961 . S
H1891 C1875 0.960 . S
C1892 C1893 1.391 . S
C1892 C1894 1.394 . S
C1892 H1908 0.931 . S
C1893 C1892 1.391 . S
C1893 C1897 1.376 . S
C1894 C1892 1.394 . S
C1894 C1895 1.369 . S
C1894 C1898 1.531 . S
C1895 C1894 1.369 . S
C1895 C1896 1.410 . S
C1895 C1903 1.503 . S
C1896 C1895 1.410 . S
C1896 C1897 1.392 . S
C1896 C1899 1.511 . S
C1897 C1893 1.376 . S
C1897 C1896 1.392 . S
C1897 H1909 0.929 . S
C1898 C1894 1.531 . S
C1898 H1910 0.960 . S
C1898 H1911 0.962 . S
C1898 H1912 0.960 . S
C1899 C1896 1.511 . S
C1899 H1913 0.961 . S
C1899 H1914 0.961 . S
C1899 H1915 0.961 . S
C1900 C1901 1.370 . S
C1900 C1902 1.363 . S
C1900 H1916 0.931 . S
C1901 C1900 1.370 . S
C1901 C1905 1.408 . S
C1902 C1900 1.363 . S
C1902 C1903 1.370 . S
C1902 C1906 1.524 . S
C1903 C1895 1.503 . S
C1903 C1902 1.370 . S
C1903 C1904 1.403 . S
C1904 C1903 1.403 . S
C1904 C1905 1.404 . S
C1904 C1907 1.539 . S
C1905 C1901 1.408 . S
C1905 C1904 1.404 . S
C1905 H1917 0.930 . S
C1906 C1902 1.524 . S
C1906 H1918 0.956 . S
C1906 H1919 0.961 . S
C1906 H1920 0.961 . S
C1907 C1904 1.539 . S
C1907 H1921 0.958 . S
C1907 H1922 0.961 . S
C1907 H1923 0.960 . S
H1908 C1892 0.931 . S
H1909 C1897 0.929 . S
H1910 C1898 0.960 . S
H1911 C1898 0.962 . S
H1912 C1898 0.960 . S
H1913 C1899 0.961 . S
H1914 C1899 0.961 . S
H1915 C1899 0.961 . S
H1916 C1900 0.931 . S
H1917 C1905 0.930 . S
H1918 C1906 0.956 . S
H1919 C1906 0.961 . S
H1920 C1906 0.961 . S
H1921 C1907 0.958 . S
H1922 C1907 0.961 . S
H1923 C1907 0.960 . S
C1924 C1925 1.391 . S
C1924 C1926 1.394 . S
C1924 H1940 0.931 . S
C1925 C1924 1.391 . S
C1925 C1929 1.376 . S
C1926 C1924 1.394 . S
C1926 C1927 1.369 . S
C1926 C1930 1.531 . S
C1927 C1926 1.369 . S
C1927 C1928 1.410 . S
C1927 C1935 1.503 . S
C1928 C1927 1.410 . S
C1928 C1929 1.392 . S
C1928 C1931 1.511 . S
C1929 C1925 1.376 . S
C1929 C1928 1.392 . S
C1929 H1941 0.929 . S
C1930 C1926 1.531 . S
C1930 H1942 0.960 . S
C1930 H1943 0.962 . S
C1930 H1944 0.960 . S
C1931 C1928 1.511 . S
C1931 H1945 0.961 . S
C1931 H1946 0.961 . S
C1931 H1947 0.961 . S
C1932 C1933 1.370 . S
C1932 C1934 1.363 . S
C1932 H1948 0.931 . S
C1933 C1932 1.370 . S
C1933 C1937 1.408 . S
C1934 C1932 1.363 . S
C1934 C1935 1.370 . S
C1934 C1938 1.524 . S
C1935 C1927 1.503 . S
C1935 C1934 1.370 . S
C1935 C1936 1.403 . S
C1936 C1935 1.403 . S
C1936 C1937 1.404 . S
C1936 C1939 1.539 . S
C1937 C1933 1.408 . S
C1937 C1936 1.404 . S
C1937 H1949 0.930 . S
C1938 C1934 1.524 . S
C1938 H1950 0.956 . S
C1938 H1951 0.961 . S
C1938 H1952 0.961 . S
C1939 C1936 1.539 . S
C1939 H1953 0.958 . S
C1939 H1954 0.961 . S
C1939 H1955 0.960 . S
H1940 C1924 0.931 . S
H1941 C1929 0.929 . S
H1942 C1930 0.960 . S
H1943 C1930 0.962 . S
H1944 C1930 0.960 . S
H1945 C1931 0.961 . S
H1946 C1931 0.961 . S
H1947 C1931 0.961 . S
H1948 C1932 0.931 . S
H1949 C1937 0.930 . S
H1950 C1938 0.956 . S
H1951 C1938 0.961 . S
H1952 C1938 0.961 . S
H1953 C1939 0.958 . S
H1954 C1939 0.961 . S
H1955 C1939 0.960 . S
C1956 C1957 1.391 . S
C1956 C1958 1.394 . S
C1956 H1972 0.931 . S
C1957 C1956 1.391 . S
C1957 C1961 1.376 . S
C1958 C1956 1.394 . S
C1958 C1959 1.369 . S
C1958 C1962 1.531 . S
C1959 C1958 1.369 . S
C1959 C1960 1.410 . S
C1959 C1967 1.503 . S
C1960 C1959 1.410 . S
C1960 C1961 1.392 . S
C1960 C1963 1.511 . S
C1961 C1957 1.376 . S
C1961 C1960 1.392 . S
C1961 H1973 0.929 . S
C1962 C1958 1.531 . S
C1962 H1974 0.960 . S
C1962 H1975 0.962 . S
C1962 H1976 0.960 . S
C1963 C1960 1.511 . S
C1963 H1977 0.961 . S
C1963 H1978 0.961 . S
C1963 H1979 0.961 . S
C1964 C1965 1.370 . S
C1964 C1966 1.363 . S
C1964 H1980 0.931 . S
C1965 C1964 1.370 . S
C1965 C1969 1.408 . S
C1966 C1964 1.363 . S
C1966 C1967 1.370 . S
C1966 C1970 1.524 . S
C1967 C1959 1.503 . S
C1967 C1966 1.370 . S
C1967 C1968 1.403 . S
C1968 C1967 1.403 . S
C1968 C1969 1.404 . S
C1968 C1971 1.539 . S
C1969 C1965 1.408 . S
C1969 C1968 1.404 . S
C1969 H1981 0.930 . S
C1970 C1966 1.524 . S
C1970 H1982 0.956 . S
C1970 H1983 0.961 . S
C1970 H1984 0.961 . S
C1971 C1968 1.539 . S
C1971 H1985 0.958 . S
C1971 H1986 0.961 . S
C1971 H1987 0.960 . S
H1972 C1956 0.931 . S
H1973 C1961 0.929 . S
H1974 C1962 0.960 . S
H1975 C1962 0.962 . S
H1976 C1962 0.960 . S
H1977 C1963 0.961 . S
H1978 C1963 0.961 . S
H1979 C1963 0.961 . S
H1980 C1964 0.931 . S
H1981 C1969 0.930 . S
H1982 C1970 0.956 . S
H1983 C1970 0.961 . S
H1984 C1970 0.961 . S
H1985 C1971 0.958 . S
H1986 C1971 0.961 . S
H1987 C1971 0.960 . S
C1988 C1989 1.391 . S
C1988 C1990 1.394 . S
C1988 H2004 0.931 . S
C1989 C1988 1.391 . S
C1989 C1993 1.376 . S
C1990 C1988 1.394 . S
C1990 C1991 1.369 . S
C1990 C1994 1.531 . S
C1991 C1990 1.369 . S
C1991 C1992 1.410 . S
C1991 C1999 1.503 . S
C1992 C1991 1.410 . S
C1992 C1993 1.392 . S
C1992 C1995 1.511 . S
C1993 C1989 1.376 . S
C1993 C1992 1.392 . S
C1993 H2005 0.929 . S
C1994 C1990 1.531 . S
C1994 H2006 0.960 . S
C1994 H2007 0.962 . S
C1994 H2008 0.960 . S
C1995 C1992 1.511 . S
C1995 H2009 0.961 . S
C1995 H2010 0.961 . S
C1995 H2011 0.961 . S
C1996 C1997 1.370 . S
C1996 C1998 1.363 . S
C1996 H2012 0.931 . S
C1997 C1996 1.370 . S
C1997 C2001 1.408 . S
C1998 C1996 1.363 . S
C1998 C1999 1.370 . S
C1998 C2002 1.524 . S
C1999 C1991 1.503 . S
C1999 C1998 1.370 . S
C1999 C2000 1.403 . S
C2000 C1999 1.403 . S
C2000 C2001 1.404 . S
C2000 C2003 1.539 . S
C2001 C1997 1.408 . S
C2001 C2000 1.404 . S
C2001 H2013 0.930 . S
C2002 C1998 1.524 . S
C2002 H2014 0.956 . S
C2002 H2015 0.961 . S
C2002 H2016 0.961 . S
C2003 C2000 1.539 . S
C2003 H2017 0.958 . S
C2003 H2018 0.961 . S
C2003 H2019 0.960 . S
H2004 C1988 0.931 . S
H2005 C1993 0.929 . S
H2006 C1994 0.960 . S
H2007 C1994 0.962 . S
H2008 C1994 0.960 . S
H2009 C1995 0.961 . S
H2010 C1995 0.961 . S
H2011 C1995 0.961 . S
H2012 C1996 0.931 . S
H2013 C2001 0.930 . S
H2014 C2002 0.956 . S
H2015 C2002 0.961 . S
H2016 C2002 0.961 . S
H2017 C2003 0.958 . S
H2018 C2003 0.961 . S
H2019 C2003 0.960 . S
C2020 C2021 1.391 . S
C2020 C2022 1.394 . S
C2020 H2036 0.931 . S
C2021 C2020 1.391 . S
C2021 C2025 1.376 . S
C2022 C2020 1.394 . S
C2022 C2023 1.369 . S
C2022 C2026 1.531 . S
C2023 C2022 1.369 . S
C2023 C2024 1.410 . S
C2023 C2031 1.503 . S
C2024 C2023 1.410 . S
C2024 C2025 1.392 . S
C2024 C2027 1.511 . S
C2025 C2021 1.376 . S
C2025 C2024 1.392 . S
C2025 H2037 0.929 . S
C2026 C2022 1.531 . S
C2026 H2038 0.960 . S
C2026 H2039 0.962 . S
C2026 H2040 0.960 . S
C2027 C2024 1.511 . S
C2027 H2041 0.961 . S
C2027 H2042 0.961 . S
C2027 H2043 0.961 . S
C2028 C2029 1.370 . S
C2028 C2030 1.363 . S
C2028 H2044 0.931 . S
C2029 C2028 1.370 . S
C2029 C2033 1.408 . S
C2030 C2028 1.363 . S
C2030 C2031 1.370 . S
C2030 C2034 1.524 . S
C2031 C2023 1.503 . S
C2031 C2030 1.370 . S
C2031 C2032 1.403 . S
C2032 C2031 1.403 . S
C2032 C2033 1.404 . S
C2032 C2035 1.539 . S
C2033 C2029 1.408 . S
C2033 C2032 1.404 . S
C2033 H2045 0.930 . S
C2034 C2030 1.524 . S
C2034 H2046 0.956 . S
C2034 H2047 0.961 . S
C2034 H2048 0.961 . S
C2035 C2032 1.539 . S
C2035 H2049 0.958 . S
C2035 H2050 0.961 . S
C2035 H2051 0.960 . S
H2036 C2020 0.931 . S
H2037 C2025 0.929 . S
H2038 C2026 0.960 . S
H2039 C2026 0.962 . S
H2040 C2026 0.960 . S
H2041 C2027 0.961 . S
H2042 C2027 0.961 . S
H2043 C2027 0.961 . S
H2044 C2028 0.931 . S
H2045 C2033 0.930 . S
H2046 C2034 0.956 . S
H2047 C2034 0.961 . S
H2048 C2034 0.961 . S
H2049 C2035 0.958 . S
H2050 C2035 0.961 . S
H2051 C2035 0.960 . S
C2052 C2053 1.391 . S
C2052 C2054 1.394 . S
C2052 H2068 0.931 . S
C2053 C2052 1.391 . S
C2053 C2057 1.376 . S
C2054 C2052 1.394 . S
C2054 C2055 1.369 . S
C2054 C2058 1.531 . S
C2055 C2054 1.369 . S
C2055 C2056 1.410 . S
C2055 C2063 1.503 . S
C2056 C2055 1.410 . S
C2056 C2057 1.392 . S
C2056 C2059 1.511 . S
C2057 C2053 1.376 . S
C2057 C2056 1.392 . S
C2057 H2069 0.929 . S
C2058 C2054 1.531 . S
C2058 H2070 0.960 . S
C2058 H2071 0.962 . S
C2058 H2072 0.960 . S
C2059 C2056 1.511 . S
C2059 H2073 0.961 . S
C2059 H2074 0.961 . S
C2059 H2075 0.961 . S
C2060 C2061 1.370 . S
C2060 C2062 1.363 . S
C2060 H2076 0.931 . S
C2061 C2060 1.370 . S
C2061 C2065 1.408 . S
C2062 C2060 1.363 . S
C2062 C2063 1.370 . S
C2062 C2066 1.524 . S
C2063 C2055 1.503 . S
C2063 C2062 1.370 . S
C2063 C2064 1.403 . S
C2064 C2063 1.403 . S
C2064 C2065 1.404 . S
C2064 C2067 1.539 . S
C2065 C2061 1.408 . S
C2065 C2064 1.404 . S
C2065 H2077 0.930 . S
C2066 C2062 1.524 . S
C2066 H2078 0.956 . S
C2066 H2079 0.961 . S
C2066 H2080 0.961 . S
C2067 C2064 1.539 . S
C2067 H2081 0.958 . S
C2067 H2082 0.961 . S
C2067 H2083 0.960 . S
H2068 C2052 0.931 . S
H2069 C2057 0.929 . S
H2070 C2058 0.960 . S
H2071 C2058 0.962 . S
H2072 C2058 0.960 . S
H2073 C2059 0.961 . S
H2074 C2059 0.961 . S
H2075 C2059 0.961 . S
H2076 C2060 0.931 . S
H2077 C2065 0.930 . S
H2078 C2066 0.956 . S
H2079 C2066 0.961 . S
H2080 C2066 0.961 . S
H2081 C2067 0.958 . S
H2082 C2067 0.961 . S
H2083 C2067 0.960 . S
C2084 C2085 1.391 . S
C2084 C2086 1.394 . S
C2084 H2100 0.931 . S
C2085 C2084 1.391 . S
C2085 C2089 1.376 . S
C2086 C2084 1.394 . S
C2086 C2087 1.369 . S
C2086 C2090 1.531 . S
C2087 C2086 1.369 . S
C2087 C2088 1.410 . S
C2087 C2095 1.503 . S
C2088 C2087 1.410 . S
C2088 C2089 1.392 . S
C2088 C2091 1.511 . S
C2089 C2085 1.376 . S
C2089 C2088 1.392 . S
C2089 H2101 0.929 . S
C2090 C2086 1.531 . S
C2090 H2102 0.960 . S
C2090 H2103 0.962 . S
C2090 H2104 0.960 . S
C2091 C2088 1.511 . S
C2091 H2105 0.961 . S
C2091 H2106 0.961 . S
C2091 H2107 0.961 . S
C2092 C2093 1.370 . S
C2092 C2094 1.363 . S
C2092 H2108 0.931 . S
C2093 C2092 1.370 . S
C2093 C2097 1.408 . S
C2094 C2092 1.363 . S
C2094 C2095 1.370 . S
C2094 C2098 1.524 . S
C2095 C2087 1.503 . S
C2095 C2094 1.370 . S
C2095 C2096 1.403 . S
C2096 C2095 1.403 . S
C2096 C2097 1.404 . S
C2096 C2099 1.539 . S
C2097 C2093 1.408 . S
C2097 C2096 1.404 . S
C2097 H2109 0.930 . S
C2098 C2094 1.524 . S
C2098 H2110 0.956 . S
C2098 H2111 0.961 . S
C2098 H2112 0.961 . S
C2099 C2096 1.539 . S
C2099 H2113 0.958 . S
C2099 H2114 0.961 . S
C2099 H2115 0.960 . S
H2100 C2084 0.931 . S
H2101 C2089 0.929 . S
H2102 C2090 0.960 . S
H2103 C2090 0.962 . S
H2104 C2090 0.960 . S
H2105 C2091 0.961 . S
H2106 C2091 0.961 . S
H2107 C2091 0.961 . S
H2108 C2092 0.931 . S
H2109 C2097 0.930 . S
H2110 C2098 0.956 . S
H2111 C2098 0.961 . S
H2112 C2098 0.961 . S
H2113 C2099 0.958 . S
H2114 C2099 0.961 . S
H2115 C2099 0.960 . S
C2116 C2117 1.391 . S
C2116 C2118 1.394 . S
C2116 H2132 0.931 . S
C2117 C2116 1.391 . S
C2117 C2121 1.376 . S
C2118 C2116 1.394 . S
C2118 C2119 1.369 . S
C2118 C2122 1.531 . S
C2119 C2118 1.369 . S
C2119 C2120 1.410 . S
C2119 C2127 1.503 . S
C2120 C2119 1.410 . S
C2120 C2121 1.392 . S
C2120 C2123 1.511 . S
C2121 C2117 1.376 . S
C2121 C2120 1.392 . S
C2121 H2133 0.929 . S
C2122 C2118 1.531 . S
C2122 H2134 0.960 . S
C2122 H2135 0.962 . S
C2122 H2136 0.960 . S
C2123 C2120 1.511 . S
C2123 H2137 0.961 . S
C2123 H2138 0.961 . S
C2123 H2139 0.961 . S
C2124 C2125 1.370 . S
C2124 C2126 1.363 . S
C2124 H2140 0.931 . S
C2125 C2124 1.370 . S
C2125 C2129 1.408 . S
C2126 C2124 1.363 . S
C2126 C2127 1.370 . S
C2126 C2130 1.524 . S
C2127 C2119 1.503 . S
C2127 C2126 1.370 . S
C2127 C2128 1.403 . S
C2128 C2127 1.403 . S
C2128 C2129 1.404 . S
C2128 C2131 1.539 . S
C2129 C2125 1.408 . S
C2129 C2128 1.404 . S
C2129 H2141 0.930 . S
C2130 C2126 1.524 . S
C2130 H2142 0.956 . S
C2130 H2143 0.961 . S
C2130 H2144 0.961 . S
C2131 C2128 1.539 . S
C2131 H2145 0.958 . S
C2131 H2146 0.961 . S
C2131 H2147 0.960 . S
H2132 C2116 0.931 . S
H2133 C2121 0.929 . S
H2134 C2122 0.960 . S
H2135 C2122 0.962 . S
H2136 C2122 0.960 . S
H2137 C2123 0.961 . S
H2138 C2123 0.961 . S
H2139 C2123 0.961 . S
H2140 C2124 0.931 . S
H2141 C2129 0.930 . S
H2142 C2130 0.956 . S
H2143 C2130 0.961 . S
H2144 C2130 0.961 . S
H2145 C2131 0.958 . S
H2146 C2131 0.961 . S
H2147 C2131 0.960 . S
C2148 C2149 1.391 . S
C2148 C2150 1.394 . S
C2148 H2164 0.931 . S
C2149 C2148 1.391 . S
C2149 C2153 1.376 . S
C2150 C2148 1.394 . S
C2150 C2151 1.369 . S
C2150 C2154 1.531 . S
C2151 C2150 1.369 . S
C2151 C2152 1.410 . S
C2151 C2159 1.503 . S
C2152 C2151 1.410 . S
C2152 C2153 1.392 . S
C2152 C2155 1.511 . S
C2153 C2149 1.376 . S
C2153 C2152 1.392 . S
C2153 H2165 0.929 . S
C2154 C2150 1.531 . S
C2154 H2166 0.960 . S
C2154 H2167 0.962 . S
C2154 H2168 0.960 . S
C2155 C2152 1.511 . S
C2155 H2169 0.961 . S
C2155 H2170 0.961 . S
C2155 H2171 0.961 . S
C2156 C2157 1.370 . S
C2156 C2158 1.363 . S
C2156 H2172 0.931 . S
C2157 C2156 1.370 . S
C2157 C2161 1.408 . S
C2158 C2156 1.363 . S
C2158 C2159 1.370 . S
C2158 C2162 1.524 . S
C2159 C2151 1.503 . S
C2159 C2158 1.370 . S
C2159 C2160 1.403 . S
C2160 C2159 1.403 . S
C2160 C2161 1.404 . S
C2160 C2163 1.539 . S
C2161 C2157 1.408 . S
C2161 C2160 1.404 . S
C2161 H2173 0.930 . S
C2162 C2158 1.524 . S
C2162 H2174 0.956 . S
C2162 H2175 0.961 . S
C2162 H2176 0.961 . S
C2163 C2160 1.539 . S
C2163 H2177 0.958 . S
C2163 H2178 0.961 . S
C2163 H2179 0.960 . S
H2164 C2148 0.931 . S
H2165 C2153 0.929 . S
H2166 C2154 0.960 . S
H2167 C2154 0.962 . S
H2168 C2154 0.960 . S
H2169 C2155 0.961 . S
H2170 C2155 0.961 . S
H2171 C2155 0.961 . S
H2172 C2156 0.931 . S
H2173 C2161 0.930 . S
H2174 C2162 0.956 . S
H2175 C2162 0.961 . S
H2176 C2162 0.961 . S
H2177 C2163 0.958 . S
H2178 C2163 0.961 . S
H2179 C2163 0.960 . S
C2180 C2181 1.391 . S
C2180 C2182 1.394 . S
C2180 H2196 0.931 . S
C2181 C2180 1.391 . S
C2181 C2185 1.376 . S
C2182 C2180 1.394 . S
C2182 C2183 1.369 . S
C2182 C2186 1.531 . S
C2183 C2182 1.369 . S
C2183 C2184 1.410 . S
C2183 C2191 1.503 . S
C2184 C2183 1.410 . S
C2184 C2185 1.392 . S
C2184 C2187 1.511 . S
C2185 C2181 1.376 . S
C2185 C2184 1.392 . S
C2185 H2197 0.929 . S
C2186 C2182 1.531 . S
C2186 H2198 0.960 . S
C2186 H2199 0.962 . S
C2186 H2200 0.960 . S
C2187 C2184 1.511 . S
C2187 H2201 0.961 . S
C2187 H2202 0.961 . S
C2187 H2203 0.961 . S
C2188 C2189 1.370 . S
C2188 C2190 1.363 . S
C2188 H2204 0.931 . S
C2189 C2188 1.370 . S
C2189 C2193 1.408 . S
C2190 C2188 1.363 . S
C2190 C2191 1.370 . S
C2190 C2194 1.524 . S
C2191 C2183 1.503 . S
C2191 C2190 1.370 . S
C2191 C2192 1.403 . S
C2192 C2191 1.403 . S
C2192 C2193 1.404 . S
C2192 C2195 1.539 . S
C2193 C2189 1.408 . S
C2193 C2192 1.404 . S
C2193 H2205 0.930 . S
C2194 C2190 1.524 . S
C2194 H2206 0.956 . S
C2194 H2207 0.961 . S
C2194 H2208 0.961 . S
C2195 C2192 1.539 . S
C2195 H2209 0.958 . S
C2195 H2210 0.961 . S
C2195 H2211 0.960 . S
H2196 C2180 0.931 . S
H2197 C2185 0.929 . S
H2198 C2186 0.960 . S
H2199 C2186 0.962 . S
H2200 C2186 0.960 . S
H2201 C2187 0.961 . S
H2202 C2187 0.961 . S
H2203 C2187 0.961 . S
H2204 C2188 0.931 . S
H2205 C2193 0.930 . S
H2206 C2194 0.956 . S
H2207 C2194 0.961 . S
H2208 C2194 0.961 . S
H2209 C2195 0.958 . S
H2210 C2195 0.961 . S
H2211 C2195 0.960 . S
C2212 C2213 1.391 . S
C2212 C2214 1.394 . S
C2212 H2228 0.931 . S
C2213 C2212 1.391 . S
C2213 C2217 1.376 . S
C2214 C2212 1.394 . S
C2214 C2215 1.369 . S
C2214 C2218 1.531 . S
C2215 C2214 1.369 . S
C2215 C2216 1.410 . S
C2215 C2223 1.503 . S
C2216 C2215 1.410 . S
C2216 C2217 1.392 . S
C2216 C2219 1.511 . S
C2217 C2213 1.376 . S
C2217 C2216 1.392 . S
C2217 H2229 0.929 . S
C2218 C2214 1.531 . S
C2218 H2230 0.960 . S
C2218 H2231 0.962 . S
C2218 H2232 0.960 . S
C2219 C2216 1.511 . S
C2219 H2233 0.961 . S
C2219 H2234 0.961 . S
C2219 H2235 0.961 . S
C2220 C2221 1.370 . S
C2220 C2222 1.363 . S
C2220 H2236 0.931 . S
C2221 C2220 1.370 . S
C2221 C2225 1.408 . S
C2222 C2220 1.363 . S
C2222 C2223 1.370 . S
C2222 C2226 1.524 . S
C2223 C2215 1.503 . S
C2223 C2222 1.370 . S
C2223 C2224 1.403 . S
C2224 C2223 1.403 . S
C2224 C2225 1.404 . S
C2224 C2227 1.539 . S
C2225 C2221 1.408 . S
C2225 C2224 1.404 . S
C2225 H2237 0.930 . S
C2226 C2222 1.524 . S
C2226 H2238 0.956 . S
C2226 H2239 0.961 . S
C2226 H2240 0.961 . S
C2227 C2224 1.539 . S
C2227 H2241 0.958 . S
C2227 H2242 0.961 . S
C2227 H2243 0.960 . S
H2228 C2212 0.931 . S
H2229 C2217 0.929 . S
H2230 C2218 0.960 . S
H2231 C2218 0.962 . S
H2232 C2218 0.960 . S
H2233 C2219 0.961 . S
H2234 C2219 0.961 . S
H2235 C2219 0.961 . S
H2236 C2220 0.931 . S
H2237 C2225 0.930 . S
H2238 C2226 0.956 . S
H2239 C2226 0.961 . S
H2240 C2226 0.961 . S
H2241 C2227 0.958 . S
H2242 C2227 0.961 . S
H2243 C2227 0.960 . S
C2244 C2245 1.391 . S
C2244 C2246 1.394 . S
C2244 H2260 0.931 . S
C2245 C2244 1.391 . S
C2245 C2249 1.376 . S
C2246 C2244 1.394 . S
C2246 C2247 1.369 . S
C2246 C2250 1.531 . S
C2247 C2246 1.369 . S
C2247 C2248 1.410 . S
C2247 C2255 1.503 . S
C2248 C2247 1.410 . S
C2248 C2249 1.392 . S
C2248 C2251 1.511 . S
C2249 C2245 1.376 . S
C2249 C2248 1.392 . S
C2249 H2261 0.929 . S
C2250 C2246 1.531 . S
C2250 H2262 0.960 . S
C2250 H2263 0.962 . S
C2250 H2264 0.960 . S
C2251 C2248 1.511 . S
C2251 H2265 0.961 . S
C2251 H2266 0.961 . S
C2251 H2267 0.961 . S
C2252 C2253 1.370 . S
C2252 C2254 1.363 . S
C2252 H2268 0.931 . S
C2253 C2252 1.370 . S
C2253 C2257 1.408 . S
C2254 C2252 1.363 . S
C2254 C2255 1.370 . S
C2254 C2258 1.524 . S
C2255 C2247 1.503 . S
C2255 C2254 1.370 . S
C2255 C2256 1.403 . S
C2256 C2255 1.403 . S
C2256 C2257 1.404 . S
C2256 C2259 1.539 . S
C2257 C2253 1.408 . S
C2257 C2256 1.404 . S
C2257 H2269 0.930 . S
C2258 C2254 1.524 . S
C2258 H2270 0.956 . S
C2258 H2271 0.961 . S
C2258 H2272 0.961 . S
C2259 C2256 1.539 . S
C2259 H2273 0.958 . S
C2259 H2274 0.961 . S
C2259 H2275 0.960 . S
H2260 C2244 0.931 . S
H2261 C2249 0.929 . S
H2262 C2250 0.960 . S
H2263 C2250 0.962 . S
H2264 C2250 0.960 . S
H2265 C2251 0.961 . S
H2266 C2251 0.961 . S
H2267 C2251 0.961 . S
H2268 C2252 0.931 . S
H2269 C2257 0.930 . S
H2270 C2258 0.956 . S
H2271 C2258 0.961 . S
H2272 C2258 0.961 . S
H2273 C2259 0.958 . S
H2274 C2259 0.961 . S
H2275 C2259 0.960 . S
C2276 C2277 1.391 . S
C2276 C2278 1.394 . S
C2276 H2292 0.931 . S
C2277 C2276 1.391 . S
C2277 C2281 1.376 . S
C2278 C2276 1.394 . S
C2278 C2279 1.369 . S
C2278 C2282 1.531 . S
C2279 C2278 1.369 . S
C2279 C2280 1.410 . S
C2279 C2287 1.503 . S
C2280 C2279 1.410 . S
C2280 C2281 1.392 . S
C2280 C2283 1.511 . S
C2281 C2277 1.376 . S
C2281 C2280 1.392 . S
C2281 H2293 0.929 . S
C2282 C2278 1.531 . S
C2282 H2294 0.960 . S
C2282 H2295 0.962 . S
C2282 H2296 0.960 . S
C2283 C2280 1.511 . S
C2283 H2297 0.961 . S
C2283 H2298 0.961 . S
C2283 H2299 0.961 . S
C2284 C2285 1.370 . S
C2284 C2286 1.363 . S
C2284 H2300 0.931 . S
C2285 C2284 1.370 . S
C2285 C2289 1.408 . S
C2286 C2284 1.363 . S
C2286 C2287 1.370 . S
C2286 C2290 1.524 . S
C2287 C2279 1.503 . S
C2287 C2286 1.370 . S
C2287 C2288 1.403 . S
C2288 C2287 1.403 . S
C2288 C2289 1.404 . S
C2288 C2291 1.539 . S
C2289 C2285 1.408 . S
C2289 C2288 1.404 . S
C2289 H2301 0.930 . S
C2290 C2286 1.524 . S
C2290 H2302 0.956 . S
C2290 H2303 0.961 . S
C2290 H2304 0.961 . S
C2291 C2288 1.539 . S
C2291 H2305 0.958 . S
C2291 H2306 0.961 . S
C2291 H2307 0.960 . S
H2292 C2276 0.931 . S
H2293 C2281 0.929 . S
H2294 C2282 0.960 . S
H2295 C2282 0.962 . S
H2296 C2282 0.960 . S
H2297 C2283 0.961 . S
H2298 C2283 0.961 . S
H2299 C2283 0.961 . S
H2300 C2284 0.931 . S
H2301 C2289 0.930 . S
H2302 C2290 0.956 . S
H2303 C2290 0.961 . S
H2304 C2290 0.961 . S
H2305 C2291 0.958 . S
H2306 C2291 0.961 . S
H2307 C2291 0.960 . S
C2308 C2309 1.391 . S
C2308 C2310 1.394 . S
C2308 H2324 0.931 . S
C2309 C2308 1.391 . S
C2309 C2313 1.376 . S
C2310 C2308 1.394 . S
C2310 C2311 1.369 . S
C2310 C2314 1.531 . S
C2311 C2310 1.369 . S
C2311 C2312 1.410 . S
C2311 C2319 1.503 . S
C2312 C2311 1.410 . S
C2312 C2313 1.392 . S
C2312 C2315 1.511 . S
C2313 C2309 1.376 . S
C2313 C2312 1.392 . S
C2313 H2325 0.929 . S
C2314 C2310 1.531 . S
C2314 H2326 0.960 . S
C2314 H2327 0.962 . S
C2314 H2328 0.960 . S
C2315 C2312 1.511 . S
C2315 H2329 0.961 . S
C2315 H2330 0.961 . S
C2315 H2331 0.961 . S
C2316 C2317 1.370 . S
C2316 C2318 1.363 . S
C2316 H2332 0.931 . S
C2317 C2316 1.370 . S
C2317 C2321 1.408 . S
C2318 C2316 1.363 . S
C2318 C2319 1.370 . S
C2318 C2322 1.524 . S
C2319 C2311 1.503 . S
C2319 C2318 1.370 . S
C2319 C2320 1.403 . S
C2320 C2319 1.403 . S
C2320 C2321 1.404 . S
C2320 C2323 1.539 . S
C2321 C2317 1.408 . S
C2321 C2320 1.404 . S
C2321 H2333 0.930 . S
C2322 C2318 1.524 . S
C2322 H2334 0.956 . S
C2322 H2335 0.961 . S
C2322 H2336 0.961 . S
C2323 C2320 1.539 . S
C2323 H2337 0.958 . S
C2323 H2338 0.961 . S
C2323 H2339 0.960 . S
H2324 C2308 0.931 . S
H2325 C2313 0.929 . S
H2326 C2314 0.960 . S
H2327 C2314 0.962 . S
H2328 C2314 0.960 . S
H2329 C2315 0.961 . S
H2330 C2315 0.961 . S
H2331 C2315 0.961 . S
H2332 C2316 0.931 . S
H2333 C2321 0.930 . S
H2334 C2322 0.956 . S
H2335 C2322 0.961 . S
H2336 C2322 0.961 . S
H2337 C2323 0.958 . S
H2338 C2323 0.961 . S
H2339 C2323 0.960 . S
C2340 C2341 1.391 . S
C2340 C2342 1.394 . S
C2340 H2356 0.931 . S
C2341 C2340 1.391 . S
C2341 C2345 1.376 . S
C2342 C2340 1.394 . S
C2342 C2343 1.369 . S
C2342 C2346 1.531 . S
C2343 C2342 1.369 . S
C2343 C2344 1.410 . S
C2343 C2351 1.503 . S
C2344 C2343 1.410 . S
C2344 C2345 1.392 . S
C2344 C2347 1.511 . S
C2345 C2341 1.376 . S
C2345 C2344 1.392 . S
C2345 H2357 0.929 . S
C2346 C2342 1.531 . S
C2346 H2358 0.960 . S
C2346 H2359 0.962 . S
C2346 H2360 0.960 . S
C2347 C2344 1.511 . S
C2347 H2361 0.961 . S
C2347 H2362 0.961 . S
C2347 H2363 0.961 . S
C2348 C2349 1.370 . S
C2348 C2350 1.363 . S
C2348 H2364 0.931 . S
C2349 C2348 1.370 . S
C2349 C2353 1.408 . S
C2350 C2348 1.363 . S
C2350 C2351 1.370 . S
C2350 C2354 1.524 . S
C2351 C2343 1.503 . S
C2351 C2350 1.370 . S
C2351 C2352 1.403 . S
C2352 C2351 1.403 . S
C2352 C2353 1.404 . S
C2352 C2355 1.539 . S
C2353 C2349 1.408 . S
C2353 C2352 1.404 . S
C2353 H2365 0.930 . S
C2354 C2350 1.524 . S
C2354 H2366 0.956 . S
C2354 H2367 0.961 . S
C2354 H2368 0.961 . S
C2355 C2352 1.539 . S
C2355 H2369 0.958 . S
C2355 H2370 0.961 . S
C2355 H2371 0.960 . S
H2356 C2340 0.931 . S
H2357 C2345 0.929 . S
H2358 C2346 0.960 . S
H2359 C2346 0.962 . S
H2360 C2346 0.960 . S
H2361 C2347 0.961 . S
H2362 C2347 0.961 . S
H2363 C2347 0.961 . S
H2364 C2348 0.931 . S
H2365 C2353 0.930 . S
H2366 C2354 0.956 . S
H2367 C2354 0.961 . S
H2368 C2354 0.961 . S
H2369 C2355 0.958 . S
H2370 C2355 0.961 . S
H2371 C2355 0.960 . S
C2372 C2373 1.391 . S
C2372 C2374 1.394 . S
C2372 H2388 0.931 . S
C2373 C2372 1.391 . S
C2373 C2377 1.376 . S
C2374 C2372 1.394 . S
C2374 C2375 1.369 . S
C2374 C2378 1.531 . S
C2375 C2374 1.369 . S
C2375 C2376 1.410 . S
C2375 C2383 1.503 . S
C2376 C2375 1.410 . S
C2376 C2377 1.392 . S
C2376 C2379 1.511 . S
C2377 C2373 1.376 . S
C2377 C2376 1.392 . S
C2377 H2389 0.929 . S
C2378 C2374 1.531 . S
C2378 H2390 0.960 . S
C2378 H2391 0.962 . S
C2378 H2392 0.960 . S
C2379 C2376 1.511 . S
C2379 H2393 0.961 . S
C2379 H2394 0.961 . S
C2379 H2395 0.961 . S
C2380 C2381 1.370 . S
C2380 C2382 1.363 . S
C2380 H2396 0.931 . S
C2381 C2380 1.370 . S
C2381 C2385 1.408 . S
C2382 C2380 1.363 . S
C2382 C2383 1.370 . S
C2382 C2386 1.524 . S
C2383 C2375 1.503 . S
C2383 C2382 1.370 . S
C2383 C2384 1.403 . S
C2384 C2383 1.403 . S
C2384 C2385 1.404 . S
C2384 C2387 1.539 . S
C2385 C2381 1.408 . S
C2385 C2384 1.404 . S
C2385 H2397 0.930 . S
C2386 C2382 1.524 . S
C2386 H2398 0.956 . S
C2386 H2399 0.961 . S
C2386 H2400 0.961 . S
C2387 C2384 1.539 . S
C2387 H2401 0.958 . S
C2387 H2402 0.961 . S
C2387 H2403 0.960 . S
H2388 C2372 0.931 . S
H2389 C2377 0.929 . S
H2390 C2378 0.960 . S
H2391 C2378 0.962 . S
H2392 C2378 0.960 . S
H2393 C2379 0.961 . S
H2394 C2379 0.961 . S
H2395 C2379 0.961 . S
H2396 C2380 0.931 . S
H2397 C2385 0.930 . S
H2398 C2386 0.956 . S
H2399 C2386 0.961 . S
H2400 C2386 0.961 . S
H2401 C2387 0.958 . S
H2402 C2387 0.961 . S
H2403 C2387 0.960 . S
C2404 C2405 1.391 . S
C2404 C2406 1.394 . S
C2404 H2420 0.931 . S
C2405 C2404 1.391 . S
C2405 C2409 1.376 . S
C2406 C2404 1.394 . S
C2406 C2407 1.369 . S
C2406 C2410 1.531 . S
C2407 C2406 1.369 . S
C2407 C2408 1.410 . S
C2407 C2415 1.503 . S
C2408 C2407 1.410 . S
C2408 C2409 1.392 . S
C2408 C2411 1.511 . S
C2409 C2405 1.376 . S
C2409 C2408 1.392 . S
C2409 H2421 0.929 . S
C2410 C2406 1.531 . S
C2410 H2422 0.960 . S
C2410 H2423 0.962 . S
C2410 H2424 0.960 . S
C2411 C2408 1.511 . S
C2411 H2425 0.961 . S
C2411 H2426 0.961 . S
C2411 H2427 0.961 . S
C2412 C2413 1.370 . S
C2412 C2414 1.363 . S
C2412 H2428 0.931 . S
C2413 C2412 1.370 . S
C2413 C2417 1.408 . S
C2414 C2412 1.363 . S
C2414 C2415 1.370 . S
C2414 C2418 1.524 . S
C2415 C2407 1.503 . S
C2415 C2414 1.370 . S
C2415 C2416 1.403 . S
C2416 C2415 1.403 . S
C2416 C2417 1.404 . S
C2416 C2419 1.539 . S
C2417 C2413 1.408 . S
C2417 C2416 1.404 . S
C2417 H2429 0.930 . S
C2418 C2414 1.524 . S
C2418 H2430 0.956 . S
C2418 H2431 0.961 . S
C2418 H2432 0.961 . S
C2419 C2416 1.539 . S
C2419 H2433 0.958 . S
C2419 H2434 0.961 . S
C2419 H2435 0.960 . S
H2420 C2404 0.931 . S
H2421 C2409 0.929 . S
H2422 C2410 0.960 . S
H2423 C2410 0.962 . S
H2424 C2410 0.960 . S
H2425 C2411 0.961 . S
H2426 C2411 0.961 . S
H2427 C2411 0.961 . S
H2428 C2412 0.931 . S
H2429 C2417 0.930 . S
H2430 C2418 0.956 . S
H2431 C2418 0.961 . S
H2432 C2418 0.961 . S
H2433 C2419 0.958 . S
H2434 C2419 0.961 . S
H2435 C2419 0.960 . S
C2436 C2437 1.391 . S
C2436 C2438 1.394 . S
C2436 H2452 0.931 . S
C2437 C2436 1.391 . S
C2437 C2441 1.376 . S
C2438 C2436 1.394 . S
C2438 C2439 1.369 . S
C2438 C2442 1.531 . S
C2439 C2438 1.369 . S
C2439 C2440 1.410 . S
C2439 C2447 1.503 . S
C2440 C2439 1.410 . S
C2440 C2441 1.392 . S
C2440 C2443 1.511 . S
C2441 C2437 1.376 . S
C2441 C2440 1.392 . S
C2441 H2453 0.929 . S
C2442 C2438 1.531 . S
C2442 H2454 0.960 . S
C2442 H2455 0.962 . S
C2442 H2456 0.960 . S
C2443 C2440 1.511 . S
C2443 H2457 0.961 . S
C2443 H2458 0.961 . S
C2443 H2459 0.961 . S
C2444 C2445 1.370 . S
C2444 C2446 1.363 . S
C2444 H2460 0.931 . S
C2445 C2444 1.370 . S
C2445 C2449 1.408 . S
C2446 C2444 1.363 . S
C2446 C2447 1.370 . S
C2446 C2450 1.524 . S
C2447 C2439 1.503 . S
C2447 C2446 1.370 . S
C2447 C2448 1.403 . S
C2448 C2447 1.403 . S
C2448 C2449 1.404 . S
C2448 C2451 1.539 . S
C2449 C2445 1.408 . S
C2449 C2448 1.404 . S
C2449 H2461 0.930 . S
C2450 C2446 1.524 . S
C2450 H2462 0.956 . S
C2450 H2463 0.961 . S
C2450 H2464 0.961 . S
C2451 C2448 1.539 . S
C2451 H2465 0.958 . S
C2451 H2466 0.961 . S
C2451 H2467 0.960 . S
H2452 C2436 0.931 . S
H2453 C2441 0.929 . S
H2454 C2442 0.960 . S
H2455 C2442 0.962 . S
H2456 C2442 0.960 . S
H2457 C2443 0.961 . S
H2458 C2443 0.961 . S
H2459 C2443 0.961 . S
H2460 C2444 0.931 . S
H2461 C2449 0.930 . S
H2462 C2450 0.956 . S
H2463 C2450 0.961 . S
H2464 C2450 0.961 . S
H2465 C2451 0.958 . S
H2466 C2451 0.961 . S
H2467 C2451 0.960 . S
C2468 C2469 1.391 . S
C2468 C2470 1.394 . S
C2468 H2484 0.931 . S
C2469 C2468 1.391 . S
C2469 C2473 1.376 . S
C2470 C2468 1.394 . S
C2470 C2471 1.369 . S
C2470 C2474 1.531 . S
C2471 C2470 1.369 . S
C2471 C2472 1.410 . S
C2471 C2479 1.503 . S
C2472 C2471 1.410 . S
C2472 C2473 1.392 . S
C2472 C2475 1.511 . S
C2473 C2469 1.376 . S
C2473 C2472 1.392 . S
C2473 H2485 0.929 . S
C2474 C2470 1.531 . S
C2474 H2486 0.960 . S
C2474 H2487 0.962 . S
C2474 H2488 0.960 . S
C2475 C2472 1.511 . S
C2475 H2489 0.961 . S
C2475 H2490 0.961 . S
C2475 H2491 0.961 . S
C2476 C2477 1.370 . S
C2476 C2478 1.363 . S
C2476 H2492 0.931 . S
C2477 C2476 1.370 . S
C2477 C2481 1.408 . S
C2478 C2476 1.363 . S
C2478 C2479 1.370 . S
C2478 C2482 1.524 . S
C2479 C2471 1.503 . S
C2479 C2478 1.370 . S
C2479 C2480 1.403 . S
C2480 C2479 1.403 . S
C2480 C2481 1.404 . S
C2480 C2483 1.539 . S
C2481 C2477 1.408 . S
C2481 C2480 1.404 . S
C2481 H2493 0.930 . S
C2482 C2478 1.524 . S
C2482 H2494 0.956 . S
C2482 H2495 0.961 . S
C2482 H2496 0.961 . S
C2483 C2480 1.539 . S
C2483 H2497 0.958 . S
C2483 H2498 0.961 . S
C2483 H2499 0.960 . S
H2484 C2468 0.931 . S
H2485 C2473 0.929 . S
H2486 C2474 0.960 . S
H2487 C2474 0.962 . S
H2488 C2474 0.960 . S
H2489 C2475 0.961 . S
H2490 C2475 0.961 . S
H2491 C2475 0.961 . S
H2492 C2476 0.931 . S
H2493 C2481 0.930 . S
H2494 C2482 0.956 . S
H2495 C2482 0.961 . S
H2496 C2482 0.961 . S
H2497 C2483 0.958 . S
H2498 C2483 0.961 . S
H2499 C2483 0.960 . S
C2500 C2501 1.391 . S
C2500 C2502 1.394 . S
C2500 H2516 0.931 . S
C2501 C2500 1.391 . S
C2501 C2505 1.376 . S
C2502 C2500 1.394 . S
C2502 C2503 1.369 . S
C2502 C2506 1.531 . S
C2503 C2502 1.369 . S
C2503 C2504 1.410 . S
C2503 C2511 1.503 . S
C2504 C2503 1.410 . S
C2504 C2505 1.392 . S
C2504 C2507 1.511 . S
C2505 C2501 1.376 . S
C2505 C2504 1.392 . S
C2505 H2517 0.929 . S
C2506 C2502 1.531 . S
C2506 H2518 0.960 . S
C2506 H2519 0.962 . S
C2506 H2520 0.960 . S
C2507 C2504 1.511 . S
C2507 H2521 0.961 . S
C2507 H2522 0.961 . S
C2507 H2523 0.961 . S
C2508 C2509 1.370 . S
C2508 C2510 1.363 . S
C2508 H2524 0.931 . S
C2509 C2508 1.370 . S
C2509 C2513 1.408 . S
C2510 C2508 1.363 . S
C2510 C2511 1.370 . S
C2510 C2514 1.524 . S
C2511 C2503 1.503 . S
C2511 C2510 1.370 . S
C2511 C2512 1.403 . S
C2512 C2511 1.403 . S
C2512 C2513 1.404 . S
C2512 C2515 1.539 . S
C2513 C2509 1.408 . S
C2513 C2512 1.404 . S
C2513 H2525 0.930 . S
C2514 C2510 1.524 . S
C2514 H2526 0.956 . S
C2514 H2527 0.961 . S
C2514 H2528 0.961 . S
C2515 C2512 1.539 . S
C2515 H2529 0.958 . S
C2515 H2530 0.961 . S
C2515 H2531 0.960 . S
H2516 C2500 0.931 . S
H2517 C2505 0.929 . S
H2518 C2506 0.960 . S
H2519 C2506 0.962 . S
H2520 C2506 0.960 . S
H2521 C2507 0.961 . S
H2522 C2507 0.961 . S
H2523 C2507 0.961 . S
H2524 C2508 0.931 . S
H2525 C2513 0.930 . S
H2526 C2514 0.956 . S
H2527 C2514 0.961 . S
H2528 C2514 0.961 . S
H2529 C2515 0.958 . S
H2530 C2515 0.961 . S
H2531 C2515 0.960 . S
C2532 C2533 1.391 . S
C2532 C2534 1.394 . S
C2532 H2548 0.931 . S
C2533 C2532 1.391 . S
C2533 C2537 1.376 . S
C2534 C2532 1.394 . S
C2534 C2535 1.369 . S
C2534 C2538 1.531 . S
C2535 C2534 1.369 . S
C2535 C2536 1.410 . S
C2535 C2543 1.503 . S
C2536 C2535 1.410 . S
C2536 C2537 1.392 . S
C2536 C2539 1.511 . S
C2537 C2533 1.376 . S
C2537 C2536 1.392 . S
C2537 H2549 0.929 . S
C2538 C2534 1.531 . S
C2538 H2550 0.960 . S
C2538 H2551 0.962 . S
C2538 H2552 0.960 . S
C2539 C2536 1.511 . S
C2539 H2553 0.961 . S
C2539 H2554 0.961 . S
C2539 H2555 0.961 . S
C2540 C2541 1.370 . S
C2540 C2542 1.363 . S
C2540 H2556 0.931 . S
C2541 C2540 1.370 . S
C2541 C2545 1.408 . S
C2542 C2540 1.363 . S
C2542 C2543 1.370 . S
C2542 C2546 1.524 . S
C2543 C2535 1.503 . S
C2543 C2542 1.370 . S
C2543 C2544 1.403 . S
C2544 C2543 1.403 . S
C2544 C2545 1.404 . S
C2544 C2547 1.539 . S
C2545 C2541 1.408 . S
C2545 C2544 1.404 . S
C2545 H2557 0.930 . S
C2546 C2542 1.524 . S
C2546 H2558 0.956 . S
C2546 H2559 0.961 . S
C2546 H2560 0.961 . S
C2547 C2544 1.539 . S
C2547 H2561 0.958 . S
C2547 H2562 0.961 . S
C2547 H2563 0.960 . S
H2548 C2532 0.931 . S
H2549 C2537 0.929 . S
H2550 C2538 0.960 . S
H2551 C2538 0.962 . S
H2552 C2538 0.960 . S
H2553 C2539 0.961 . S
H2554 C2539 0.961 . S
H2555 C2539 0.961 . S
H2556 C2540 0.931 . S
H2557 C2545 0.930 . S
H2558 C2546 0.956 . S
H2559 C2546 0.961 . S
H2560 C2546 0.961 . S
H2561 C2547 0.958 . S
H2562 C2547 0.961 . S
H2563 C2547 0.960 . S
C2564 C2565 1.391 . S
C2564 C2566 1.394 . S
C2564 H2580 0.931 . S
C2565 C2564 1.391 . S
C2565 C2569 1.376 . S
C2566 C2564 1.394 . S
C2566 C2567 1.369 . S
C2566 C2570 1.531 . S
C2567 C2566 1.369 . S
C2567 C2568 1.410 . S
C2567 C2575 1.503 . S
C2568 C2567 1.410 . S
C2568 C2569 1.392 . S
C2568 C2571 1.511 . S
C2569 C2565 1.376 . S
C2569 C2568 1.392 . S
C2569 H2581 0.929 . S
C2570 C2566 1.531 . S
C2570 H2582 0.960 . S
C2570 H2583 0.962 . S
C2570 H2584 0.960 . S
C2571 C2568 1.511 . S
C2571 H2585 0.961 . S
C2571 H2586 0.961 . S
C2571 H2587 0.961 . S
C2572 C2573 1.370 . S
C2572 C2574 1.363 . S
C2572 H2588 0.931 . S
C2573 C2572 1.370 . S
C2573 C2577 1.408 . S
C2574 C2572 1.363 . S
C2574 C2575 1.370 . S
C2574 C2578 1.524 . S
C2575 C2567 1.503 . S
C2575 C2574 1.370 . S
C2575 C2576 1.403 . S
C2576 C2575 1.403 . S
C2576 C2577 1.404 . S
C2576 C2579 1.539 . S
C2577 C2573 1.408 . S
C2577 C2576 1.404 . S
C2577 H2589 0.930 . S
C2578 C2574 1.524 . S
C2578 H2590 0.956 . S
C2578 H2591 0.961 . S
C2578 H2592 0.961 . S
C2579 C2576 1.539 . S
C2579 H2593 0.958 . S
C2579 H2594 0.961 . S
C2579 H2595 0.960 . S
H2580 C2564 0.931 . S
H2581 C2569 0.929 . S
H2582 C2570 0.960 . S
H2583 C2570 0.962 . S
H2584 C2570 0.960 . S
H2585 C2571 0.961 . S
H2586 C2571 0.961 . S
H2587 C2571 0.961 . S
H2588 C2572 0.931 . S
H2589 C2577 0.930 . S
H2590 C2578 0.956 . S
H2591 C2578 0.961 . S
H2592 C2578 0.961 . S
H2593 C2579 0.958 . S
H2594 C2579 0.961 . S
H2595 C2579 0.960 . S
C2596 C2597 1.391 . S
C2596 C2598 1.394 . S
C2596 H2612 0.931 . S
C2597 C2596 1.391 . S
C2597 C2601 1.376 . S
C2598 C2596 1.394 . S
C2598 C2599 1.369 . S
C2598 C2602 1.531 . S
C2599 C2598 1.369 . S
C2599 C2600 1.410 . S
C2599 C2607 1.503 . S
C2600 C2599 1.410 . S
C2600 C2601 1.392 . S
C2600 C2603 1.511 . S
C2601 C2597 1.376 . S
C2601 C2600 1.392 . S
C2601 H2613 0.929 . S
C2602 C2598 1.531 . S
C2602 H2614 0.960 . S
C2602 H2615 0.962 . S
C2602 H2616 0.960 . S
C2603 C2600 1.511 . S
C2603 H2617 0.961 . S
C2603 H2618 0.961 . S
C2603 H2619 0.961 . S
C2604 C2605 1.370 . S
C2604 C2606 1.363 . S
C2604 H2620 0.931 . S
C2605 C2604 1.370 . S
C2605 C2609 1.408 . S
C2606 C2604 1.363 . S
C2606 C2607 1.370 . S
C2606 C2610 1.524 . S
C2607 C2599 1.503 . S
C2607 C2606 1.370 . S
C2607 C2608 1.403 . S
C2608 C2607 1.403 . S
C2608 C2609 1.404 . S
C2608 C2611 1.539 . S
C2609 C2605 1.408 . S
C2609 C2608 1.404 . S
C2609 H2621 0.930 . S
C2610 C2606 1.524 . S
C2610 H2622 0.956 . S
C2610 H2623 0.961 . S
C2610 H2624 0.961 . S
C2611 C2608 1.539 . S
C2611 H2625 0.958 . S
C2611 H2626 0.961 . S
C2611 H2627 0.960 . S
H2612 C2596 0.931 . S
H2613 C2601 0.929 . S
H2614 C2602 0.960 . S
H2615 C2602 0.962 . S
H2616 C2602 0.960 . S
H2617 C2603 0.961 . S
H2618 C2603 0.961 . S
H2619 C2603 0.961 . S
H2620 C2604 0.931 . S
H2621 C2609 0.930 . S
H2622 C2610 0.956 . S
H2623 C2610 0.961 . S
H2624 C2610 0.961 . S
H2625 C2611 0.958 . S
H2626 C2611 0.961 . S
H2627 C2611 0.960 . S
C2628 C2629 1.391 . S
C2628 C2630 1.394 . S
C2628 H2644 0.931 . S
C2629 C2628 1.391 . S
C2629 C2633 1.376 . S
C2630 C2628 1.394 . S
C2630 C2631 1.369 . S
C2630 C2634 1.531 . S
C2631 C2630 1.369 . S
C2631 C2632 1.410 . S
C2631 C2639 1.503 . S
C2632 C2631 1.410 . S
C2632 C2633 1.392 . S
C2632 C2635 1.511 . S
C2633 C2629 1.376 . S
C2633 C2632 1.392 . S
C2633 H2645 0.929 . S
C2634 C2630 1.531 . S
C2634 H2646 0.960 . S
C2634 H2647 0.962 . S
C2634 H2648 0.960 . S
C2635 C2632 1.511 . S
C2635 H2649 0.961 . S
C2635 H2650 0.961 . S
C2635 H2651 0.961 . S
C2636 C2637 1.370 . S
C2636 C2638 1.363 . S
C2636 H2652 0.931 . S
C2637 C2636 1.370 . S
C2637 C2641 1.408 . S
C2638 C2636 1.363 . S
C2638 C2639 1.370 . S
C2638 C2642 1.524 . S
C2639 C2631 1.503 . S
C2639 C2638 1.370 . S
C2639 C2640 1.403 . S
C2640 C2639 1.403 . S
C2640 C2641 1.404 . S
C2640 C2643 1.539 . S
C2641 C2637 1.408 . S
C2641 C2640 1.404 . S
C2641 H2653 0.930 . S
C2642 C2638 1.524 . S
C2642 H2654 0.956 . S
C2642 H2655 0.961 . S
C2642 H2656 0.961 . S
C2643 C2640 1.539 . S
C2643 H2657 0.958 . S
C2643 H2658 0.961 . S
C2643 H2659 0.960 . S
H2644 C2628 0.931 . S
H2645 C2633 0.929 . S
H2646 C2634 0.960 . S
H2647 C2634 0.962 . S
H2648 C2634 0.960 . S
H2649 C2635 0.961 . S
H2650 C2635 0.961 . S
H2651 C2635 0.961 . S
H2652 C2636 0.931 . S
H2653 C2641 0.930 . S
H2654 C2642 0.956 . S
H2655 C2642 0.961 . S
H2656 C2642 0.961 . S
H2657 C2643 0.958 . S
H2658 C2643 0.961 . S
H2659 C2643 0.960 . S
C2660 C2661 1.391 . S
C2660 C2662 1.394 . S
C2660 H2676 0.931 . S
C2661 C2660 1.391 . S
C2661 C2665 1.376 . S
C2662 C2660 1.394 . S
C2662 C2663 1.369 . S
C2662 C2666 1.531 . S
C2663 C2662 1.369 . S
C2663 C2664 1.410 . S
C2663 C2671 1.503 . S
C2664 C2663 1.410 . S
C2664 C2665 1.392 . S
C2664 C2667 1.511 . S
C2665 C2661 1.376 . S
C2665 C2664 1.392 . S
C2665 H2677 0.929 . S
C2666 C2662 1.531 . S
C2666 H2678 0.960 . S
C2666 H2679 0.962 . S
C2666 H2680 0.960 . S
C2667 C2664 1.511 . S
C2667 H2681 0.961 . S
C2667 H2682 0.961 . S
C2667 H2683 0.961 . S
C2668 C2669 1.370 . S
C2668 C2670 1.363 . S
C2668 H2684 0.931 . S
C2669 C2668 1.370 . S
C2669 C2673 1.408 . S
C2670 C2668 1.363 . S
C2670 C2671 1.370 . S
C2670 C2674 1.524 . S
C2671 C2663 1.503 . S
C2671 C2670 1.370 . S
C2671 C2672 1.403 . S
C2672 C2671 1.403 . S
C2672 C2673 1.404 . S
C2672 C2675 1.539 . S
C2673 C2669 1.408 . S
C2673 C2672 1.404 . S
C2673 H2685 0.930 . S
C2674 C2670 1.524 . S
C2674 H2686 0.956 . S
C2674 H2687 0.961 . S
C2674 H2688 0.961 . S
C2675 C2672 1.539 . S
C2675 H2689 0.958 . S
C2675 H2690 0.961 . S
C2675 H2691 0.960 . S
H2676 C2660 0.931 . S
H2677 C2665 0.929 . S
H2678 C2666 0.960 . S
H2679 C2666 0.962 . S
H2680 C2666 0.960 . S
H2681 C2667 0.961 . S
H2682 C2667 0.961 . S
H2683 C2667 0.961 . S
H2684 C2668 0.931 . S
H2685 C2673 0.930 . S
H2686 C2674 0.956 . S
H2687 C2674 0.961 . S
H2688 C2674 0.961 . S
H2689 C2675 0.958 . S
H2690 C2675 0.961 . S
H2691 C2675 0.960 . S
C2692 C2693 1.391 . S
C2692 C2694 1.394 . S
C2692 H2708 0.931 . S
C2693 C2692 1.391 . S
C2693 C2697 1.376 . S
C2694 C2692 1.394 . S
C2694 C2695 1.369 . S
C2694 C2698 1.531 . S
C2695 C2694 1.369 . S
C2695 C2696 1.410 . S
C2695 C2703 1.503 . S
C2696 C2695 1.410 . S
C2696 C2697 1.392 . S
C2696 C2699 1.511 . S
C2697 C2693 1.376 . S
C2697 C2696 1.392 . S
C2697 H2709 0.929 . S
C2698 C2694 1.531 . S
C2698 H2710 0.960 . S
C2698 H2711 0.962 . S
C2698 H2712 0.960 . S
C2699 C2696 1.511 . S
C2699 H2713 0.961 . S
C2699 H2714 0.961 . S
C2699 H2715 0.961 . S
C2700 C2701 1.370 . S
C2700 C2702 1.363 . S
C2700 H2716 0.931 . S
C2701 C2700 1.370 . S
C2701 C2705 1.408 . S
C2702 C2700 1.363 . S
C2702 C2703 1.370 . S
C2702 C2706 1.524 . S
C2703 C2695 1.503 . S
C2703 C2702 1.370 . S
C2703 C2704 1.403 . S
C2704 C2703 1.403 . S
C2704 C2705 1.404 . S
C2704 C2707 1.539 . S
C2705 C2701 1.408 . S
C2705 C2704 1.404 . S
C2705 H2717 0.930 . S
C2706 C2702 1.524 . S
C2706 H2718 0.956 . S
C2706 H2719 0.961 . S
C2706 H2720 0.961 . S
C2707 C2704 1.539 . S
C2707 H2721 0.958 . S
C2707 H2722 0.961 . S
C2707 H2723 0.960 . S
H2708 C2692 0.931 . S
H2709 C2697 0.929 . S
H2710 C2698 0.960 . S
H2711 C2698 0.962 . S
H2712 C2698 0.960 . S
H2713 C2699 0.961 . S
H2714 C2699 0.961 . S
H2715 C2699 0.961 . S
H2716 C2700 0.931 . S
H2717 C2705 0.930 . S
H2718 C2706 0.956 . S
H2719 C2706 0.961 . S
H2720 C2706 0.961 . S
H2721 C2707 0.958 . S
H2722 C2707 0.961 . S
H2723 C2707 0.960 . S
C2724 C2725 1.391 . S
C2724 C2726 1.394 . S
C2724 H2740 0.931 . S
C2725 C2724 1.391 . S
C2725 C2729 1.376 . S
C2726 C2724 1.394 . S
C2726 C2727 1.369 . S
C2726 C2730 1.531 . S
C2727 C2726 1.369 . S
C2727 C2728 1.410 . S
C2727 C2735 1.503 . S
C2728 C2727 1.410 . S
C2728 C2729 1.392 . S
C2728 C2731 1.511 . S
C2729 C2725 1.376 . S
C2729 C2728 1.392 . S
C2729 H2741 0.929 . S
C2730 C2726 1.531 . S
C2730 H2742 0.960 . S
C2730 H2743 0.962 . S
C2730 H2744 0.960 . S
C2731 C2728 1.511 . S
C2731 H2745 0.961 . S
C2731 H2746 0.961 . S
C2731 H2747 0.961 . S
C2732 C2733 1.370 . S
C2732 C2734 1.363 . S
C2732 H2748 0.931 . S
C2733 C2732 1.370 . S
C2733 C2737 1.408 . S
C2734 C2732 1.363 . S
C2734 C2735 1.370 . S
C2734 C2738 1.524 . S
C2735 C2727 1.503 . S
C2735 C2734 1.370 . S
C2735 C2736 1.403 . S
C2736 C2735 1.403 . S
C2736 C2737 1.404 . S
C2736 C2739 1.539 . S
C2737 C2733 1.408 . S
C2737 C2736 1.404 . S
C2737 H2749 0.930 . S
C2738 C2734 1.524 . S
C2738 H2750 0.956 . S
C2738 H2751 0.961 . S
C2738 H2752 0.961 . S
C2739 C2736 1.539 . S
C2739 H2753 0.958 . S
C2739 H2754 0.961 . S
C2739 H2755 0.960 . S
H2740 C2724 0.931 . S
H2741 C2729 0.929 . S
H2742 C2730 0.960 . S
H2743 C2730 0.962 . S
H2744 C2730 0.960 . S
H2745 C2731 0.961 . S
H2746 C2731 0.961 . S
H2747 C2731 0.961 . S
H2748 C2732 0.931 . S
H2749 C2737 0.930 . S
H2750 C2738 0.956 . S
H2751 C2738 0.961 . S
H2752 C2738 0.961 . S
H2753 C2739 0.958 . S
H2754 C2739 0.961 . S
H2755 C2739 0.960 . S
C2756 C2757 1.391 . S
C2756 C2758 1.394 . S
C2756 H2772 0.931 . S
C2757 C2756 1.391 . S
C2757 C2761 1.376 . S
C2758 C2756 1.394 . S
C2758 C2759 1.369 . S
C2758 C2762 1.531 . S
C2759 C2758 1.369 . S
C2759 C2760 1.410 . S
C2759 C2767 1.503 . S
C2760 C2759 1.410 . S
C2760 C2761 1.392 . S
C2760 C2763 1.511 . S
C2761 C2757 1.376 . S
C2761 C2760 1.392 . S
C2761 H2773 0.929 . S
C2762 C2758 1.531 . S
C2762 H2774 0.960 . S
C2762 H2775 0.962 . S
C2762 H2776 0.960 . S
C2763 C2760 1.511 . S
C2763 H2777 0.961 . S
C2763 H2778 0.961 . S
C2763 H2779 0.961 . S
C2764 C2765 1.370 . S
C2764 C2766 1.363 . S
C2764 H2780 0.931 . S
C2765 C2764 1.370 . S
C2765 C2769 1.408 . S
C2766 C2764 1.363 . S
C2766 C2767 1.370 . S
C2766 C2770 1.524 . S
C2767 C2759 1.503 . S
C2767 C2766 1.370 . S
C2767 C2768 1.403 . S
C2768 C2767 1.403 . S
C2768 C2769 1.404 . S
C2768 C2771 1.539 . S
C2769 C2765 1.408 . S
C2769 C2768 1.404 . S
C2769 H2781 0.930 . S
C2770 C2766 1.524 . S
C2770 H2782 0.956 . S
C2770 H2783 0.961 . S
C2770 H2784 0.961 . S
C2771 C2768 1.539 . S
C2771 H2785 0.958 . S
C2771 H2786 0.961 . S
C2771 H2787 0.960 . S
H2772 C2756 0.931 . S
H2773 C2761 0.929 . S
H2774 C2762 0.960 . S
H2775 C2762 0.962 . S
H2776 C2762 0.960 . S
H2777 C2763 0.961 . S
H2778 C2763 0.961 . S
H2779 C2763 0.961 . S
H2780 C2764 0.931 . S
H2781 C2769 0.930 . S
H2782 C2770 0.956 . S
H2783 C2770 0.961 . S
H2784 C2770 0.961 . S
H2785 C2771 0.958 . S
H2786 C2771 0.961 . S
H2787 C2771 0.960 . S
C2788 C2789 1.391 . S
C2788 C2790 1.394 . S
C2788 H2804 0.931 . S
C2789 C2788 1.391 . S
C2789 C2793 1.376 . S
C2790 C2788 1.394 . S
C2790 C2791 1.369 . S
C2790 C2794 1.531 . S
C2791 C2790 1.369 . S
C2791 C2792 1.410 . S
C2791 C2799 1.503 . S
C2792 C2791 1.410 . S
C2792 C2793 1.392 . S
C2792 C2795 1.511 . S
C2793 C2789 1.376 . S
C2793 C2792 1.392 . S
C2793 H2805 0.929 . S
C2794 C2790 1.531 . S
C2794 H2806 0.960 . S
C2794 H2807 0.962 . S
C2794 H2808 0.960 . S
C2795 C2792 1.511 . S
C2795 H2809 0.961 . S
C2795 H2810 0.961 . S
C2795 H2811 0.961 . S
C2796 C2797 1.370 . S
C2796 C2798 1.363 . S
C2796 H2812 0.931 . S
C2797 C2796 1.370 . S
C2797 C2801 1.408 . S
C2798 C2796 1.363 . S
C2798 C2799 1.370 . S
C2798 C2802 1.524 . S
C2799 C2791 1.503 . S
C2799 C2798 1.370 . S
C2799 C2800 1.403 . S
C2800 C2799 1.403 . S
C2800 C2801 1.404 . S
C2800 C2803 1.539 . S
C2801 C2797 1.408 . S
C2801 C2800 1.404 . S
C2801 H2813 0.930 . S
C2802 C2798 1.524 . S
C2802 H2814 0.956 . S
C2802 H2815 0.961 . S
C2802 H2816 0.961 . S
C2803 C2800 1.539 . S
C2803 H2817 0.958 . S
C2803 H2818 0.961 . S
C2803 H2819 0.960 . S
H2804 C2788 0.931 . S
H2805 C2793 0.929 . S
H2806 C2794 0.960 . S
H2807 C2794 0.962 . S
H2808 C2794 0.960 . S
H2809 C2795 0.961 . S
H2810 C2795 0.961 . S
H2811 C2795 0.961 . S
H2812 C2796 0.931 . S
H2813 C2801 0.930 . S
H2814 C2802 0.956 . S
H2815 C2802 0.961 . S
H2816 C2802 0.961 . S
H2817 C2803 0.958 . S
H2818 C2803 0.961 . S
H2819 C2803 0.960 . S
C2820 C2821 1.391 . S
C2820 C2822 1.394 . S
C2820 H2836 0.931 . S
C2821 C2820 1.391 . S
C2821 C2825 1.376 . S
C2822 C2820 1.394 . S
C2822 C2823 1.369 . S
C2822 C2826 1.531 . S
C2823 C2822 1.369 . S
C2823 C2824 1.410 . S
C2823 C2831 1.503 . S
C2824 C2823 1.410 . S
C2824 C2825 1.392 . S
C2824 C2827 1.511 . S
C2825 C2821 1.376 . S
C2825 C2824 1.392 . S
C2825 H2837 0.929 . S
C2826 C2822 1.531 . S
C2826 H2838 0.960 . S
C2826 H2839 0.962 . S
C2826 H2840 0.960 . S
C2827 C2824 1.511 . S
C2827 H2841 0.961 . S
C2827 H2842 0.961 . S
C2827 H2843 0.961 . S
C2828 C2829 1.370 . S
C2828 C2830 1.363 . S
C2828 H2844 0.931 . S
C2829 C2828 1.370 . S
C2829 C2833 1.408 . S
C2830 C2828 1.363 . S
C2830 C2831 1.370 . S
C2830 C2834 1.524 . S
C2831 C2823 1.503 . S
C2831 C2830 1.370 . S
C2831 C2832 1.403 . S
C2832 C2831 1.403 . S
C2832 C2833 1.404 . S
C2832 C2835 1.539 . S
C2833 C2829 1.408 . S
C2833 C2832 1.404 . S
C2833 H2845 0.930 . S
C2834 C2830 1.524 . S
C2834 H2846 0.956 . S
C2834 H2847 0.961 . S
C2834 H2848 0.961 . S
C2835 C2832 1.539 . S
C2835 H2849 0.958 . S
C2835 H2850 0.961 . S
C2835 H2851 0.960 . S
H2836 C2820 0.931 . S
H2837 C2825 0.929 . S
H2838 C2826 0.960 . S
H2839 C2826 0.962 . S
H2840 C2826 0.960 . S
H2841 C2827 0.961 . S
H2842 C2827 0.961 . S
H2843 C2827 0.961 . S
H2844 C2828 0.931 . S
H2845 C2833 0.930 . S
H2846 C2834 0.956 . S
H2847 C2834 0.961 . S
H2848 C2834 0.961 . S
H2849 C2835 0.958 . S
H2850 C2835 0.961 . S
H2851 C2835 0.960 . S
C2852 C2853 1.391 . S
C2852 C2854 1.394 . S
C2852 H2868 0.931 1_556 S
C2853 C2852 1.391 . S
C2853 C2857 1.376 . S
C2854 C2852 1.394 . S
C2854 C2855 1.369 . S
C2854 C2858 1.531 . S
C2855 C2854 1.369 . S
C2855 C2856 1.410 . S
C2855 C2863 1.503 . S
C2856 C2855 1.410 . S
C2856 C2857 1.392 . S
C2856 C2859 1.511 . S
C2857 C2853 1.376 . S
C2857 C2856 1.392 . S
C2857 H2869 0.929 . S
C2858 C2854 1.531 . S
C2858 H2870 0.960 . S
C2858 H2871 0.971 . S
C2858 H2872 0.960 1_556 S
C2859 C2856 1.511 . S
C2859 H2873 0.961 . S
C2859 H2874 0.961 . S
C2859 H2875 0.961 . S
C2860 C2861 1.370 . S
C2860 C2862 1.363 . S
C2860 H2876 0.931 . S
C2861 C2860 1.370 . S
C2861 C2865 1.408 . S
C2862 C2860 1.363 . S
C2862 C2863 1.370 . S
C2862 C2866 1.524 . S
C2863 C2855 1.503 . S
C2863 C2862 1.370 . S
C2863 C2864 1.403 . S
C2864 C2863 1.403 . S
C2864 C2865 1.404 . S
C2864 C2867 1.539 . S
C2865 C2861 1.408 . S
C2865 C2864 1.404 . S
C2865 H2877 0.930 . S
C2866 C2862 1.524 . S
C2866 H2878 0.956 . S
C2866 H2879 0.961 . S
C2866 H2880 0.961 . S
C2867 C2864 1.539 . S
C2867 H2881 0.958 . S
C2867 H2882 0.961 . S
C2867 H2883 0.960 . S
H2868 C2852 0.931 1_554 S
H2869 C2857 0.929 . S
H2870 C2858 0.960 . S
H2871 C2858 0.971 . S
H2872 C2858 0.960 1_554 S
H2873 C2859 0.961 . S
H2874 C2859 0.961 . S
H2875 C2859 0.961 . S
H2876 C2860 0.931 . S
H2877 C2865 0.930 . S
H2878 C2866 0.956 . S
H2879 C2866 0.961 . S
H2880 C2866 0.961 . S
H2881 C2867 0.958 . S
H2882 C2867 0.961 . S
H2883 C2867 0.960 . S
C2884 C2885 1.391 . S
C2884 C2886 1.394 . S
C2884 H2900 0.931 1_556 S
C2885 C2884 1.391 . S
C2885 C2889 1.376 . S
C2886 C2884 1.394 . S
C2886 C2887 1.369 . S
C2886 C2890 1.531 . S
C2887 C2886 1.369 . S
C2887 C2888 1.410 . S
C2887 C2895 1.503 . S
C2888 C2887 1.410 . S
C2888 C2889 1.392 . S
C2888 C2891 1.511 . S
C2889 C2885 1.376 . S
C2889 C2888 1.392 . S
C2889 H2901 0.929 . S
C2890 C2886 1.531 . S
C2890 H2902 0.960 . S
C2890 H2903 0.962 . S
C2890 H2904 0.960 1_556 S
C2891 C2888 1.511 . S
C2891 H2905 0.961 . S
C2891 H2906 0.961 . S
C2891 H2907 0.961 . S
C2892 C2893 1.370 . S
C2892 C2894 1.363 . S
C2892 H2908 0.931 . S
C2893 C2892 1.370 . S
C2893 C2897 1.408 . S
C2894 C2892 1.363 . S
C2894 C2895 1.370 . S
C2894 C2898 1.524 . S
C2895 C2887 1.503 . S
C2895 C2894 1.370 . S
C2895 C2896 1.403 . S
C2896 C2895 1.403 . S
C2896 C2897 1.404 . S
C2896 C2899 1.539 . S
C2897 C2893 1.408 . S
C2897 C2896 1.404 . S
C2897 H2909 0.930 . S
C2898 C2894 1.524 . S
C2898 H2910 0.956 . S
C2898 H2911 0.961 . S
C2898 H2912 0.961 . S
C2899 C2896 1.539 . S
C2899 H2913 0.958 . S
C2899 H2914 0.961 . S
C2899 H2915 0.960 . S
H2900 C2884 0.931 1_554 S
H2901 C2889 0.929 . S
H2902 C2890 0.960 . S
H2903 C2890 0.962 . S
H2904 C2890 0.960 1_554 S
H2905 C2891 0.961 . S
H2906 C2891 0.961 . S
H2907 C2891 0.961 . S
H2908 C2892 0.931 . S
H2909 C2897 0.930 . S
H2910 C2898 0.956 . S
H2911 C2898 0.961 . S
H2912 C2898 0.961 . S
H2913 C2899 0.958 . S
H2914 C2899 0.961 . S
H2915 C2899 0.960 . S
C2916 C2917 1.391 . S
C2916 C2918 1.394 . S
C2916 H2932 0.931 . S
C2917 C2916 1.391 . S
C2917 C2921 1.376 . S
C2918 C2916 1.394 . S
C2918 C2919 1.369 . S
C2918 C2922 1.531 . S
C2919 C2918 1.369 . S
C2919 C2920 1.410 . S
C2919 C2927 1.503 . S
C2920 C2919 1.410 . S
C2920 C2921 1.392 . S
C2920 C2923 1.511 . S
C2921 C2917 1.376 . S
C2921 C2920 1.392 . S
C2921 H2933 0.929 . S
C2922 C2918 1.531 . S
C2922 H2934 0.960 . S
C2922 H2935 0.962 . S
C2922 H2936 0.960 . S
C2923 C2920 1.511 . S
C2923 H2937 0.961 . S
C2923 H2938 0.961 . S
C2923 H2939 0.961 . S
C2924 C2925 1.370 . S
C2924 C2926 1.363 . S
C2924 H2940 0.931 . S
C2925 C2924 1.370 . S
C2925 C2929 1.408 . S
C2926 C2924 1.363 . S
C2926 C2927 1.370 . S
C2926 C2930 1.524 . S
C2927 C2919 1.503 . S
C2927 C2926 1.370 . S
C2927 C2928 1.403 . S
C2928 C2927 1.403 . S
C2928 C2929 1.404 . S
C2928 C2931 1.539 . S
C2929 C2925 1.408 . S
C2929 C2928 1.404 . S
C2929 H2941 0.930 . S
C2930 C2926 1.524 . S
C2930 H2942 0.956 . S
C2930 H2943 0.961 . S
C2930 H2944 0.961 . S
C2931 C2928 1.539 . S
C2931 H2945 0.958 . S
C2931 H2946 0.961 . S
C2931 H2947 0.960 . S
H2932 C2916 0.931 . S
H2933 C2921 0.929 . S
H2934 C2922 0.960 . S
H2935 C2922 0.962 . S
H2936 C2922 0.960 . S
H2937 C2923 0.961 . S
H2938 C2923 0.961 . S
H2939 C2923 0.961 . S
H2940 C2924 0.931 . S
H2941 C2929 0.930 . S
H2942 C2930 0.956 . S
H2943 C2930 0.961 . S
H2944 C2930 0.961 . S
H2945 C2931 0.958 . S
H2946 C2931 0.961 . S
H2947 C2931 0.960 . S
C2948 C2949 1.391 . S
C2948 C2950 1.394 . S
C2948 H2964 0.931 . S
C2949 C2948 1.391 . S
C2949 C2953 1.376 . S
C2950 C2948 1.394 . S
C2950 C2951 1.369 . S
C2950 C2954 1.531 . S
C2951 C2950 1.369 . S
C2951 C2952 1.410 . S
C2951 C2959 1.503 . S
C2952 C2951 1.410 . S
C2952 C2953 1.392 . S
C2952 C2955 1.511 . S
C2953 C2949 1.376 . S
C2953 C2952 1.392 . S
C2953 H2965 0.929 . S
C2954 C2950 1.531 . S
C2954 H2966 0.960 . S
C2954 H2967 0.962 . S
C2954 H2968 0.960 . S
C2955 C2952 1.511 . S
C2955 H2969 0.961 . S
C2955 H2970 0.961 . S
C2955 H2971 0.961 . S
C2956 C2957 1.370 . S
C2956 C2958 1.363 . S
C2956 H2972 0.931 . S
C2957 C2956 1.370 . S
C2957 C2961 1.408 . S
C2958 C2956 1.363 . S
C2958 C2959 1.370 . S
C2958 C2962 1.524 . S
C2959 C2951 1.503 . S
C2959 C2958 1.370 . S
C2959 C2960 1.403 . S
C2960 C2959 1.403 . S
C2960 C2961 1.404 . S
C2960 C2963 1.539 . S
C2961 C2957 1.408 . S
C2961 C2960 1.404 . S
C2961 H2973 0.930 . S
C2962 C2958 1.524 . S
C2962 H2974 0.956 . S
C2962 H2975 0.961 . S
C2962 H2976 0.961 . S
C2963 C2960 1.539 . S
C2963 H2977 0.958 . S
C2963 H2978 0.961 . S
C2963 H2979 0.960 . S
H2964 C2948 0.931 . S
H2965 C2953 0.929 . S
H2966 C2954 0.960 . S
H2967 C2954 0.962 . S
H2968 C2954 0.960 . S
H2969 C2955 0.961 . S
H2970 C2955 0.961 . S
H2971 C2955 0.961 . S
H2972 C2956 0.931 . S
H2973 C2961 0.930 . S
H2974 C2962 0.956 . S
H2975 C2962 0.961 . S
H2976 C2962 0.961 . S
H2977 C2963 0.958 . S
H2978 C2963 0.961 . S
H2979 C2963 0.960 . S
C2980 C2981 1.391 . S
C2980 C2982 1.394 . S
C2980 H2996 0.931 . S
C2981 C2980 1.391 . S
C2981 C2985 1.376 . S
C2982 C2980 1.394 . S
C2982 C2983 1.369 . S
C2982 C2986 1.531 . S
C2983 C2982 1.369 . S
C2983 C2984 1.410 . S
C2983 C2991 1.503 . S
C2984 C2983 1.410 . S
C2984 C2985 1.392 . S
C2984 C2987 1.511 . S
C2985 C2981 1.376 . S
C2985 C2984 1.392 . S
C2985 H2997 0.929 . S
C2986 C2982 1.531 . S
C2986 H2998 0.960 . S
C2986 H2999 0.962 . S
C2986 H3000 0.960 . S
C2987 C2984 1.511 . S
C2987 H3001 0.961 . S
C2987 H3002 0.961 . S
C2987 H3003 0.961 . S
C2988 C2989 1.370 . S
C2988 C2990 1.363 . S
C2988 H3004 0.931 . S
C2989 C2988 1.370 . S
C2989 C2993 1.408 . S
C2990 C2988 1.363 . S
C2990 C2991 1.370 . S
C2990 C2994 1.524 . S
C2991 C2983 1.503 . S
C2991 C2990 1.370 . S
C2991 C2992 1.403 . S
C2992 C2991 1.403 . S
C2992 C2993 1.404 . S
C2992 C2995 1.539 . S
C2993 C2989 1.408 . S
C2993 C2992 1.404 . S
C2993 H3005 0.930 . S
C2994 C2990 1.524 . S
C2994 H3006 0.956 . S
C2994 H3007 0.961 . S
C2994 H3008 0.961 . S
C2995 C2992 1.539 . S
C2995 H3009 0.958 . S
C2995 H3010 0.961 . S
C2995 H3011 0.960 . S
H2996 C2980 0.931 . S
H2997 C2985 0.929 . S
H2998 C2986 0.960 . S
H2999 C2986 0.962 . S
H3000 C2986 0.960 . S
H3001 C2987 0.961 . S
H3002 C2987 0.961 . S
H3003 C2987 0.961 . S
H3004 C2988 0.931 . S
H3005 C2993 0.930 . S
H3006 C2994 0.956 . S
H3007 C2994 0.961 . S
H3008 C2994 0.961 . S
H3009 C2995 0.958 . S
H3010 C2995 0.961 . S
H3011 C2995 0.960 . S
C3012 C3013 1.391 . S
C3012 C3014 1.394 . S
C3012 H3028 0.931 . S
C3013 C3012 1.391 . S
C3013 C3017 1.376 . S
C3014 C3012 1.394 . S
C3014 C3015 1.369 . S
C3014 C3018 1.531 . S
C3015 C3014 1.369 . S
C3015 C3016 1.410 . S
C3015 C3023 1.503 . S
C3016 C3015 1.410 . S
C3016 C3017 1.392 . S
C3016 C3019 1.511 . S
C3017 C3013 1.376 . S
C3017 C3016 1.392 . S
C3017 H3029 0.929 . S
C3018 C3014 1.531 . S
C3018 H3030 0.960 . S
C3018 H3031 0.962 . S
C3018 H3032 0.960 . S
C3019 C3016 1.511 . S
C3019 H3033 0.961 . S
C3019 H3034 0.961 . S
C3019 H3035 0.961 . S
C3020 C3021 1.370 . S
C3020 C3022 1.363 . S
C3020 H3036 0.931 . S
C3021 C3020 1.370 . S
C3021 C3025 1.408 . S
C3022 C3020 1.363 . S
C3022 C3023 1.370 . S
C3022 C3026 1.524 . S
C3023 C3015 1.503 . S
C3023 C3022 1.370 . S
C3023 C3024 1.403 . S
C3024 C3023 1.403 . S
C3024 C3025 1.404 . S
C3024 C3027 1.539 . S
C3025 C3021 1.408 . S
C3025 C3024 1.404 . S
C3025 H3037 0.930 . S
C3026 C3022 1.524 . S
C3026 H3038 0.956 . S
C3026 H3039 0.961 . S
C3026 H3040 0.961 . S
C3027 C3024 1.539 . S
C3027 H3041 0.958 . S
C3027 H3042 0.961 . S
C3027 H3043 0.960 . S
H3028 C3012 0.931 . S
H3029 C3017 0.929 . S
H3030 C3018 0.960 . S
H3031 C3018 0.962 . S
H3032 C3018 0.960 . S
H3033 C3019 0.961 . S
H3034 C3019 0.961 . S
H3035 C3019 0.961 . S
H3036 C3020 0.931 . S
H3037 C3025 0.930 . S
H3038 C3026 0.956 . S
H3039 C3026 0.961 . S
H3040 C3026 0.961 . S
H3041 C3027 0.958 . S
H3042 C3027 0.961 . S
H3043 C3027 0.960 . S
C3044 C3045 1.391 . S
C3044 C3046 1.394 . S
C3044 H3060 0.931 . S
C3045 C3044 1.391 . S
C3045 C3049 1.376 . S
C3046 C3044 1.394 . S
C3046 C3047 1.369 . S
C3046 C3050 1.531 . S
C3047 C3046 1.369 . S
C3047 C3048 1.410 . S
C3047 C3055 1.503 . S
C3048 C3047 1.410 . S
C3048 C3049 1.392 . S
C3048 C3051 1.511 . S
C3049 C3045 1.376 . S
C3049 C3048 1.392 . S
C3049 H3061 0.929 . S
C3050 C3046 1.531 . S
C3050 H3062 0.960 . S
C3050 H3063 0.962 . S
C3050 H3064 0.960 . S
C3051 C3048 1.511 . S
C3051 H3065 0.961 . S
C3051 H3066 0.961 . S
C3051 H3067 0.961 . S
C3052 C3053 1.370 . S
C3052 C3054 1.363 . S
C3052 H3068 0.931 . S
C3053 C3052 1.370 . S
C3053 C3057 1.408 . S
C3054 C3052 1.363 . S
C3054 C3055 1.370 . S
C3054 C3058 1.524 . S
C3055 C3047 1.503 . S
C3055 C3054 1.370 . S
C3055 C3056 1.403 . S
C3056 C3055 1.403 . S
C3056 C3057 1.404 . S
C3056 C3059 1.539 . S
C3057 C3053 1.408 . S
C3057 C3056 1.404 . S
C3057 H3069 0.930 . S
C3058 C3054 1.524 . S
C3058 H3070 0.956 . S
C3058 H3071 0.961 . S
C3058 H3072 0.961 . S
C3059 C3056 1.539 . S
C3059 H3073 0.958 . S
C3059 H3074 0.961 . S
C3059 H3075 0.960 . S
H3060 C3044 0.931 . S
H3061 C3049 0.929 . S
H3062 C3050 0.960 . S
H3063 C3050 0.962 . S
H3064 C3050 0.960 . S
H3065 C3051 0.961 . S
H3066 C3051 0.961 . S
H3067 C3051 0.961 . S
H3068 C3052 0.931 . S
H3069 C3057 0.930 . S
H3070 C3058 0.956 . S
H3071 C3058 0.961 . S
H3072 C3058 0.961 . S
H3073 C3059 0.958 . S
H3074 C3059 0.961 . S
H3075 C3059 0.960 . S
C3076 C3077 1.391 . S
C3076 C3078 1.394 . S
C3076 H3092 0.931 . S
C3077 C3076 1.391 . S
C3077 C3081 1.376 . S
C3078 C3076 1.394 . S
C3078 C3079 1.369 . S
C3078 C3082 1.531 . S
C3079 C3078 1.369 . S
C3079 C3080 1.410 . S
C3079 C3087 1.503 . S
C3080 C3079 1.410 . S
C3080 C3081 1.392 . S
C3080 C3083 1.511 . S
C3081 C3077 1.376 . S
C3081 C3080 1.392 . S
C3081 H3093 0.929 . S
C3082 C3078 1.531 . S
C3082 H3094 0.960 . S
C3082 H3095 0.962 . S
C3082 H3096 0.960 . S
C3083 C3080 1.511 . S
C3083 H3097 0.961 . S
C3083 H3098 0.961 . S
C3083 H3099 0.961 . S
C3084 C3085 1.370 . S
C3084 C3086 1.363 . S
C3084 H3100 0.931 . S
C3085 C3084 1.370 . S
C3085 C3089 1.408 . S
C3086 C3084 1.363 . S
C3086 C3087 1.370 . S
C3086 C3090 1.524 . S
C3087 C3079 1.503 . S
C3087 C3086 1.370 . S
C3087 C3088 1.403 . S
C3088 C3087 1.403 . S
C3088 C3089 1.404 . S
C3088 C3091 1.539 . S
C3089 C3085 1.408 . S
C3089 C3088 1.404 . S
C3089 H3101 0.930 . S
C3090 C3086 1.524 . S
C3090 H3102 0.956 . S
C3090 H3103 0.961 . S
C3090 H3104 0.961 . S
C3091 C3088 1.539 . S
C3091 H3105 0.958 . S
C3091 H3106 0.961 . S
C3091 H3107 0.960 . S
H3092 C3076 0.931 . S
H3093 C3081 0.929 . S
H3094 C3082 0.960 . S
H3095 C3082 0.962 . S
H3096 C3082 0.960 . S
H3097 C3083 0.961 . S
H3098 C3083 0.961 . S
H3099 C3083 0.961 . S
H3100 C3084 0.931 . S
H3101 C3089 0.930 . S
H3102 C3090 0.956 . S
H3103 C3090 0.961 . S
H3104 C3090 0.961 . S
H3105 C3091 0.958 . S
H3106 C3091 0.961 . S
H3107 C3091 0.960 . S
C3108 C3109 1.391 . S
C3108 C3110 1.394 . S
C3108 H3124 0.931 . S
C3109 C3108 1.391 . S
C3109 C3113 1.376 1_455 S
C3110 C3108 1.394 . S
C3110 C3111 1.369 . S
C3110 C3114 1.531 . S
C3111 C3110 1.369 . S
C3111 C3112 1.410 1_455 S
C3111 C3119 1.503 . S
C3112 C3111 1.410 1_655 S
C3112 C3113 1.392 . S
C3112 C3115 1.511 . S
C3113 C3109 1.376 1_655 S
C3113 C3112 1.392 . S
C3113 H3125 0.929 . S
C3114 C3110 1.531 . S
C3114 H3126 0.960 . S
C3114 H3127 0.962 . S
C3114 H3128 0.960 . S
C3115 C3112 1.511 . S
C3115 H3129 0.961 . S
C3115 H3130 0.961 . S
C3115 H3131 0.961 . S
C3116 C3117 1.370 . S
C3116 C3118 1.363 . S
C3116 H3132 0.931 . S
C3117 C3116 1.370 . S
C3117 C3121 1.408 1_455 S
C3118 C3116 1.363 . S
C3118 C3119 1.370 . S
C3118 C3122 1.524 . S
C3119 C3111 1.503 . S
C3119 C3118 1.370 . S
C3119 C3120 1.403 1_455 S
C3120 C3119 1.403 1_655 S
C3120 C3121 1.404 . S
C3120 C3123 1.539 . S
C3121 C3117 1.408 1_655 S
C3121 C3120 1.404 . S
C3121 H3133 0.930 . S
C3122 C3118 1.524 . S
C3122 H3134 0.956 . S
C3122 H3135 0.961 . S
C3122 H3136 0.961 . S
C3123 C3120 1.539 . S
C3123 H3137 0.958 . S
C3123 H3138 0.961 . S
C3123 H3139 0.960 . S
H3124 C3108 0.931 . S
H3125 C3113 0.929 . S
H3126 C3114 0.960 . S
H3127 C3114 0.962 . S
H3128 C3114 0.960 . S
H3129 C3115 0.961 . S
H3130 C3115 0.961 . S
H3131 C3115 0.961 . S
H3132 C3116 0.931 . S
H3133 C3121 0.930 . S
H3134 C3122 0.956 . S
H3135 C3122 0.961 . S
H3136 C3122 0.961 . S
H3137 C3123 0.958 . S
H3138 C3123 0.961 . S
H3139 C3123 0.960 . S
C3140 C3141 1.391 . S
C3140 C3142 1.394 . S
C3140 H3156 0.931 . S
C3141 C3140 1.391 . S
C3141 C3145 1.376 . S
C3142 C3140 1.394 . S
C3142 C3143 1.369 . S
C3142 C3146 1.531 . S
C3143 C3142 1.369 . S
C3143 C3144 1.410 . S
C3143 C3151 1.503 . S
C3144 C3143 1.410 . S
C3144 C3145 1.392 . S
C3144 C3147 1.511 . S
C3145 C3141 1.376 . S
C3145 C3144 1.392 . S
C3145 H3157 0.929 . S
C3146 C3142 1.531 . S
C3146 H3158 0.960 . S
C3146 H3159 0.962 . S
C3146 H3160 0.960 . S
C3147 C3144 1.511 . S
C3147 H3161 0.961 . S
C3147 H3162 0.961 . S
C3147 H3163 0.961 . S
C3148 C3149 1.370 . S
C3148 C3150 1.363 . S
C3148 H3164 0.931 . S
C3149 C3148 1.370 . S
C3149 C3153 1.408 . S
C3150 C3148 1.363 . S
C3150 C3151 1.370 . S
C3150 C3154 1.524 . S
C3151 C3143 1.503 . S
C3151 C3150 1.370 . S
C3151 C3152 1.403 . S
C3152 C3151 1.403 . S
C3152 C3153 1.404 . S
C3152 C3155 1.539 . S
C3153 C3149 1.408 . S
C3153 C3152 1.404 . S
C3153 H3165 0.930 . S
C3154 C3150 1.524 . S
C3154 H3166 0.956 . S
C3154 H3167 0.961 . S
C3154 H3168 0.961 . S
C3155 C3152 1.539 . S
C3155 H3169 0.958 . S
C3155 H3170 0.961 . S
C3155 H3171 0.960 . S
H3156 C3140 0.931 . S
H3157 C3145 0.929 . S
H3158 C3146 0.960 . S
H3159 C3146 0.962 . S
H3160 C3146 0.960 . S
H3161 C3147 0.961 . S
H3162 C3147 0.961 . S
H3163 C3147 0.961 . S
H3164 C3148 0.931 . S
H3165 C3153 0.930 . S
H3166 C3154 0.956 . S
H3167 C3154 0.961 . S
H3168 C3154 0.961 . S
H3169 C3155 0.958 . S
H3170 C3155 0.961 . S
H3171 C3155 0.960 . S
C3172 C3173 1.391 . S
C3172 C3174 1.394 . S
C3172 H3188 0.931 . S
C3173 C3172 1.391 . S
C3173 C3177 1.376 1_565 S
C3174 C3172 1.394 . S
C3174 C3175 1.369 . S
C3174 C3178 1.531 . S
C3175 C3174 1.369 . S
C3175 C3176 1.410 1_565 S
C3175 C3183 1.503 . S
C3176 C3175 1.410 1_545 S
C3176 C3177 1.392 . S
C3176 C3179 1.511 . S
C3177 C3173 1.376 1_545 S
C3177 C3176 1.392 . S
C3177 H3189 0.929 . S
C3178 C3174 1.531 . S
C3178 H3190 0.960 . S
C3178 H3191 0.962 . S
C3178 H3192 0.960 . S
C3179 C3176 1.511 . S
C3179 H3193 0.961 . S
C3179 H3194 0.961 . S
C3179 H3195 0.961 . S
C3180 C3181 1.370 . S
C3180 C3182 1.363 . S
C3180 H3196 0.931 . S
C3181 C3180 1.370 . S
C3181 C3185 1.408 1_565 S
C3182 C3180 1.363 . S
C3182 C3183 1.370 . S
C3182 C3186 1.524 . S
C3183 C3175 1.503 . S
C3183 C3182 1.370 . S
C3183 C3184 1.403 1_565 S
C3184 C3183 1.403 1_545 S
C3184 C3185 1.404 . S
C3184 C3187 1.539 . S
C3185 C3181 1.408 1_545 S
C3185 C3184 1.404 . S
C3185 H3197 0.930 . S
C3186 C3182 1.524 . S
C3186 H3198 0.956 . S
C3186 H3199 0.961 . S
C3186 H3200 0.961 . S
C3187 C3184 1.539 . S
C3187 H3201 0.958 . S
C3187 H3202 0.961 . S
C3187 H3203 0.960 . S
H3188 C3172 0.931 . S
H3189 C3177 0.929 . S
H3190 C3178 0.960 . S
H3191 C3178 0.962 . S
H3192 C3178 0.960 . S
H3193 C3179 0.961 . S
H3194 C3179 0.961 . S
H3195 C3179 0.961 . S
H3196 C3180 0.931 . S
H3197 C3185 0.930 . S
H3198 C3186 0.956 . S
H3199 C3186 0.961 . S
H3200 C3186 0.961 . S
H3201 C3187 0.958 . S
H3202 C3187 0.961 . S
H3203 C3187 0.960 . S
C3204 C3205 1.391 1_545 S
C3204 C3206 1.394 . S
C3204 H3220 0.931 . S
C3205 C3204 1.391 1_565 S
C3205 C3209 1.376 . S
C3206 C3204 1.394 . S
C3206 C3207 1.369 1_545 S
C3206 C3210 1.531 . S
C3207 C3206 1.369 1_565 S
C3207 C3208 1.410 . S
C3207 C3215 1.503 . S
C3208 C3207 1.410 . S
C3208 C3209 1.392 . S
C3208 C3211 1.511 . S
C3209 C3205 1.376 . S
C3209 C3208 1.392 . S
C3209 H3221 0.929 . S
C3210 C3206 1.531 . S
C3210 H3222 0.960 . S
C3210 H3223 0.962 . S
C3210 H3224 0.960 . S
C3211 C3208 1.511 . S
C3211 H3225 0.961 . S
C3211 H3226 0.961 . S
C3211 H3227 0.961 . S
C3212 C3213 1.370 . S
C3212 C3214 1.363 . S
C3212 H3228 0.906 1_565 S
C3213 C3212 1.370 . S
C3213 C3217 1.408 . S
C3214 C3212 1.363 . S
C3214 C3215 1.370 . S
C3214 C3218 1.524 . S
C3215 C3207 1.503 . S
C3215 C3214 1.370 . S
C3215 C3216 1.403 . S
C3216 C3215 1.403 . S
C3216 C3217 1.404 . S
C3216 C3219 1.539 . S
C3217 C3213 1.408 . S
C3217 C3216 1.404 . S
C3217 H3229 0.930 . S
C3218 C3214 1.524 . S
C3218 H3230 0.956 1_565 S
C3218 H3231 0.961 . S
C3218 H3232 0.999 . S
C3219 C3216 1.539 . S
C3219 H3233 0.958 . S
C3219 H3234 0.961 . S
C3219 H3235 0.960 . S
H3220 C3204 0.931 . S
H3221 C3209 0.929 . S
H3222 C3210 0.960 . S
H3223 C3210 0.962 . S
H3224 C3210 0.960 . S
H3225 C3211 0.961 . S
H3226 C3211 0.961 . S
H3227 C3211 0.961 . S
H3228 C3212 0.906 1_545 S
H3229 C3217 0.930 . S
H3230 C3218 0.956 1_545 S
H3231 C3218 0.961 . S
H3232 C3218 0.999 . S
H3233 C3219 0.958 . S
H3234 C3219 0.961 . S
H3235 C3219 0.960 . S
C3236 C3237 1.391 . S
C3236 C3238 1.394 . S
C3236 H3252 0.931 . S
C3237 C3236 1.391 . S
C3237 C3241 1.376 . S
C3238 C3236 1.394 . S
C3238 C3239 1.369 . S
C3238 C3242 1.531 . S
C3239 C3238 1.369 . S
C3239 C3240 1.410 . S
C3239 C3247 1.503 . S
C3240 C3239 1.410 . S
C3240 C3241 1.392 . S
C3240 C3243 1.511 1_455 S
C3241 C3237 1.376 . S
C3241 C3240 1.392 . S
C3241 H3253 0.929 . S
C3242 C3238 1.531 . S
C3242 H3254 0.977 . S
C3242 H3255 0.962 . S
C3242 H3256 0.960 . S
C3243 C3240 1.511 1_655 S
C3243 H3257 0.961 1_655 S
C3243 H3258 0.961 1_655 S
C3243 H3259 0.961 . S
C3244 C3245 1.370 . S
C3244 C3246 1.363 . S
C3244 H3260 0.931 . S
C3245 C3244 1.370 . S
C3245 C3249 1.408 1_455 S
C3246 C3244 1.363 . S
C3246 C3247 1.370 . S
C3246 C3250 1.524 . S
C3247 C3239 1.503 . S
C3247 C3246 1.370 . S
C3247 C3248 1.403 1_455 S
C3248 C3247 1.403 1_655 S
C3248 C3249 1.404 . S
C3248 C3251 1.539 . S
C3249 C3245 1.408 1_655 S
C3249 C3248 1.404 . S
C3249 H3261 0.930 . S
C3250 C3246 1.524 . S
C3250 H3262 0.956 . S
C3250 H3263 0.961 . S
C3250 H3264 0.961 . S
C3251 C3248 1.539 . S
C3251 H3265 0.958 . S
C3251 H3266 0.961 . S
C3251 H3267 0.960 . S
H3252 C3236 0.931 . S
H3253 C3241 0.929 . S
H3254 C3242 0.977 . S
H3255 C3242 0.962 . S
H3256 C3242 0.960 . S
H3257 C3243 0.961 1_455 S
H3258 C3243 0.961 1_455 S
H3259 C3243 0.961 . S
H3260 C3244 0.931 . S
H3261 C3249 0.930 . S
H3262 C3250 0.956 . S
H3263 C3250 0.961 . S
H3264 C3250 0.961 . S
H3265 C3251 0.958 . S
H3266 C3251 0.961 . S
H3267 C3251 0.960 . S
C3268 C3269 1.391 . S
C3268 C3270 1.394 . S
C3268 H3284 0.931 . S
C3269 C3268 1.391 . S
C3269 C3273 1.376 . S
C3270 C3268 1.394 . S
C3270 C3271 1.369 . S
C3270 C3274 1.531 . S
C3271 C3270 1.369 . S
C3271 C3272 1.410 . S
C3271 C3279 1.503 . S
C3272 C3271 1.410 . S
C3272 C3273 1.392 . S
C3272 C3275 1.511 . S
C3273 C3269 1.376 . S
C3273 C3272 1.392 . S
C3273 H3285 0.929 . S
C3274 C3270 1.531 . S
C3274 H3286 0.960 . S
C3274 H3287 0.962 . S
C3274 H3288 0.960 . S
C3275 C3272 1.511 . S
C3275 H3289 0.961 . S
C3275 H3290 0.961 . S
C3275 H3291 0.961 . S
C3276 C3277 1.370 . S
C3276 C3278 1.363 . S
C3276 H3292 0.931 . S
C3277 C3276 1.370 . S
C3277 C3281 1.408 . S
C3278 C3276 1.363 . S
C3278 C3279 1.370 . S
C3278 C3282 1.524 . S
C3279 C3271 1.503 . S
C3279 C3278 1.370 . S
C3279 C3280 1.403 . S
C3280 C3279 1.403 . S
C3280 C3281 1.404 . S
C3280 C3283 1.539 . S
C3281 C3277 1.408 . S
C3281 C3280 1.404 . S
C3281 H3293 0.930 . S
C3282 C3278 1.524 . S
C3282 H3294 0.956 . S
C3282 H3295 0.961 . S
C3282 H3296 0.961 . S
C3283 C3280 1.539 . S
C3283 H3297 0.958 . S
C3283 H3298 0.961 . S
C3283 H3299 0.960 . S
H3284 C3268 0.931 . S
H3285 C3273 0.929 . S
H3286 C3274 0.960 . S
H3287 C3274 0.962 . S
H3288 C3274 0.960 . S
H3289 C3275 0.961 . S
H3290 C3275 0.961 . S
H3291 C3275 0.961 . S
H3292 C3276 0.931 . S
H3293 C3281 0.930 . S
H3294 C3282 0.956 . S
H3295 C3282 0.961 . S
H3296 C3282 0.961 . S
H3297 C3283 0.958 . S
H3298 C3283 0.961 . S
H3299 C3283 0.960 . S
C3300 C3301 1.391 . S
C3300 C3302 1.394 . S
C3300 H3316 0.931 . S
C3301 C3300 1.391 . S
C3301 C3305 1.376 . S
C3302 C3300 1.394 . S
C3302 C3303 1.369 . S
C3302 C3306 1.531 . S
C3303 C3302 1.369 . S
C3303 C3304 1.410 . S
C3303 C3311 1.503 . S
C3304 C3303 1.410 . S
C3304 C3305 1.392 . S
C3304 C3307 1.511 . S
C3305 C3301 1.376 . S
C3305 C3304 1.392 . S
C3305 H3317 0.929 . S
C3306 C3302 1.531 . S
C3306 H3318 0.960 . S
C3306 H3319 0.962 . S
C3306 H3320 0.960 . S
C3307 C3304 1.511 . S
C3307 H3321 0.961 . S
C3307 H3322 0.961 . S
C3307 H3323 0.961 . S
C3308 C3309 1.370 . S
C3308 C3310 1.363 . S
C3308 H3324 0.931 . S
C3309 C3308 1.370 . S
C3309 C3313 1.408 . S
C3310 C3308 1.363 . S
C3310 C3311 1.370 . S
C3310 C3314 1.524 . S
C3311 C3303 1.503 . S
C3311 C3310 1.370 . S
C3311 C3312 1.403 . S
C3312 C3311 1.403 . S
C3312 C3313 1.404 . S
C3312 C3315 1.539 . S
C3313 C3309 1.408 . S
C3313 C3312 1.404 . S
C3313 H3325 0.930 . S
C3314 C3310 1.524 . S
C3314 H3326 0.956 . S
C3314 H3327 0.961 . S
C3314 H3328 0.961 . S
C3315 C3312 1.539 . S
C3315 H3329 0.958 . S
C3315 H3330 0.961 . S
C3315 H3331 0.960 . S
H3316 C3300 0.931 . S
H3317 C3305 0.929 . S
H3318 C3306 0.960 . S
H3319 C3306 0.962 . S
H3320 C3306 0.960 . S
H3321 C3307 0.961 . S
H3322 C3307 0.961 . S
H3323 C3307 0.961 . S
H3324 C3308 0.931 . S
H3325 C3313 0.930 . S
H3326 C3314 0.956 . S
H3327 C3314 0.961 . S
H3328 C3314 0.961 . S
H3329 C3315 0.958 . S
H3330 C3315 0.961 . S
H3331 C3315 0.960 . S
C3332 C3333 1.391 . S
C3332 C3334 1.394 . S
C3332 H3348 0.931 . S
C3333 C3332 1.391 . S
C3333 C3337 1.376 . S
C3334 C3332 1.394 . S
C3334 C3335 1.369 . S
C3334 C3338 1.531 . S
C3335 C3334 1.369 . S
C3335 C3336 1.410 . S
C3335 C3343 1.503 . S
C3336 C3335 1.410 . S
C3336 C3337 1.392 . S
C3336 C3339 1.511 . S
C3337 C3333 1.376 . S
C3337 C3336 1.392 . S
C3337 H3349 0.929 . S
C3338 C3334 1.531 . S
C3338 H3350 0.960 . S
C3338 H3351 0.962 . S
C3338 H3352 0.960 . S
C3339 C3336 1.511 . S
C3339 H3353 0.961 . S
C3339 H3354 0.961 . S
C3339 H3355 0.961 . S
C3340 C3341 1.370 . S
C3340 C3342 1.363 . S
C3340 H3356 0.931 . S
C3341 C3340 1.370 . S
C3341 C3345 1.408 . S
C3342 C3340 1.363 . S
C3342 C3343 1.370 . S
C3342 C3346 1.524 . S
C3343 C3335 1.503 . S
C3343 C3342 1.370 . S
C3343 C3344 1.403 . S
C3344 C3343 1.403 . S
C3344 C3345 1.404 . S
C3344 C3347 1.539 . S
C3345 C3341 1.408 . S
C3345 C3344 1.404 . S
C3345 H3357 0.930 . S
C3346 C3342 1.524 . S
C3346 H3358 0.956 . S
C3346 H3359 0.961 . S
C3346 H3360 0.961 . S
C3347 C3344 1.539 . S
C3347 H3361 0.958 . S
C3347 H3362 0.961 . S
C3347 H3363 0.960 . S
H3348 C3332 0.931 . S
H3349 C3337 0.929 . S
H3350 C3338 0.960 . S
H3351 C3338 0.962 . S
H3352 C3338 0.960 . S
H3353 C3339 0.961 . S
H3354 C3339 0.961 . S
H3355 C3339 0.961 . S
H3356 C3340 0.931 . S
H3357 C3345 0.930 . S
H3358 C3346 0.956 . S
H3359 C3346 0.961 . S
H3360 C3346 0.961 . S
H3361 C3347 0.958 . S
H3362 C3347 0.961 . S
H3363 C3347 0.960 . S
C3364 C3365 1.391 . S
C3364 C3366 1.394 . S
C3364 H3380 0.931 . S
C3365 C3364 1.391 . S
C3365 C3369 1.376 . S
C3366 C3364 1.394 . S
C3366 C3367 1.369 . S
C3366 C3370 1.531 . S
C3367 C3366 1.369 . S
C3367 C3368 1.410 . S
C3367 C3375 1.503 . S
C3368 C3367 1.410 . S
C3368 C3369 1.392 . S
C3368 C3371 1.511 . S
C3369 C3365 1.376 . S
C3369 C3368 1.392 . S
C3369 H3381 0.929 . S
C3370 C3366 1.531 . S
C3370 H3382 0.960 . S
C3370 H3383 0.962 . S
C3370 H3384 0.960 . S
C3371 C3368 1.511 . S
C3371 H3385 0.961 . S
C3371 H3386 0.961 . S
C3371 H3387 0.961 . S
C3372 C3373 1.370 . S
C3372 C3374 1.363 . S
C3372 H3388 0.931 . S
C3373 C3372 1.370 . S
C3373 C3377 1.408 . S
C3374 C3372 1.363 . S
C3374 C3375 1.370 . S
C3374 C3378 1.524 . S
C3375 C3367 1.503 . S
C3375 C3374 1.370 . S
C3375 C3376 1.403 . S
C3376 C3375 1.403 . S
C3376 C3377 1.404 . S
C3376 C3379 1.539 . S
C3377 C3373 1.408 . S
C3377 C3376 1.404 . S
C3377 H3389 0.930 . S
C3378 C3374 1.524 . S
C3378 H3390 0.956 . S
C3378 H3391 0.961 . S
C3378 H3392 0.961 . S
C3379 C3376 1.539 . S
C3379 H3393 0.958 . S
C3379 H3394 0.961 . S
C3379 H3395 0.960 . S
H3380 C3364 0.931 . S
H3381 C3369 0.929 . S
H3382 C3370 0.960 . S
H3383 C3370 0.962 . S
H3384 C3370 0.960 . S
H3385 C3371 0.961 . S
H3386 C3371 0.961 . S
H3387 C3371 0.961 . S
H3388 C3372 0.931 . S
H3389 C3377 0.930 . S
H3390 C3378 0.956 . S
H3391 C3378 0.961 . S
H3392 C3378 0.961 . S
H3393 C3379 0.958 . S
H3394 C3379 0.961 . S
H3395 C3379 0.960 . S
C3396 C3397 1.391 . S
C3396 C3398 1.394 . S
C3396 H3412 0.931 . S
C3397 C3396 1.391 . S
C3397 C3401 1.376 . S
C3398 C3396 1.394 . S
C3398 C3399 1.369 . S
C3398 C3402 1.530 . S
C3399 C3398 1.369 . S
C3399 C3400 1.410 . S
C3399 C3407 1.503 . S
C3400 C3399 1.410 . S
C3400 C3401 1.392 . S
C3400 C3403 1.511 . S
C3401 C3397 1.376 . S
C3401 C3400 1.392 . S
C3401 H3413 0.929 . S
C3402 C3398 1.530 . S
C3402 H3414 0.964 1_545 S
C3402 H3415 0.959 . S
C3402 H3416 0.960 1_545 S
C3403 C3400 1.511 . S
C3403 H3417 0.961 . S
C3403 H3418 0.961 . S
C3403 H3419 0.961 1_545 S
C3404 C3405 1.370 . S
C3404 C3406 1.363 . S
C3404 H3420 0.931 . S
C3405 C3404 1.370 . S
C3405 C3409 1.408 1_545 S
C3406 C3404 1.363 . S
C3406 C3407 1.370 . S
C3406 C3410 1.524 . S
C3407 C3399 1.503 . S
C3407 C3406 1.370 . S
C3407 C3408 1.403 1_545 S
C3408 C3407 1.403 1_565 S
C3408 C3409 1.404 . S
C3408 C3411 1.539 . S
C3409 C3405 1.408 1_565 S
C3409 C3408 1.404 . S
C3409 H3421 0.930 . S
C3410 C3406 1.524 . S
C3410 H3422 0.956 . S
C3410 H3423 0.961 . S
C3410 H3424 0.961 . S
C3411 C3408 1.539 . S
C3411 H3425 0.958 . S
C3411 H3426 0.961 . S
C3411 H3427 0.960 . S
H3412 C3396 0.931 . S
H3413 C3401 0.929 . S
H3414 C3402 0.964 1_565 S
H3415 C3402 0.959 . S
H3416 C3402 0.960 1_565 S
H3417 C3403 0.961 . S
H3418 C3403 0.961 . S
H3419 C3403 0.961 1_565 S
H3420 C3404 0.931 . S
H3421 C3409 0.930 . S
H3422 C3410 0.956 . S
H3423 C3410 0.961 . S
H3424 C3410 0.961 . S
H3425 C3411 0.958 . S
H3426 C3411 0.961 . S
H3427 C3411 0.960 . S
C3428 C3429 1.391 1_455 S
C3428 C3430 1.394 . S
C3428 H3444 0.931 . S
C3429 C3428 1.391 1_655 S
C3429 C3433 1.376 . S
C3430 C3428 1.394 . S
C3430 C3431 1.369 1_455 S
C3430 C3434 1.531 . S
C3431 C3430 1.369 1_655 S
C3431 C3432 1.410 . S
C3431 C3439 1.503 . S
C3432 C3431 1.410 . S
C3432 C3433 1.392 . S
C3432 C3435 1.511 . S
C3433 C3429 1.376 . S
C3433 C3432 1.392 . S
C3433 H3445 0.929 . S
C3434 C3430 1.531 . S
C3434 H3446 0.960 . S
C3434 H3447 0.962 . S
C3434 H3448 0.960 . S
C3435 C3432 1.511 . S
C3435 H3449 0.961 . S
C3435 H3450 0.961 . S
C3435 H3451 0.961 . S
C3436 C3437 1.370 . S
C3436 C3438 1.363 . S
C3436 H3452 0.931 . S
C3437 C3436 1.370 . S
C3437 C3441 1.408 1_655 S
C3438 C3436 1.363 . S
C3438 C3439 1.370 . S
C3438 C3442 1.524 . S
C3439 C3431 1.503 . S
C3439 C3438 1.370 . S
C3439 C3440 1.403 1_655 S
C3440 C3439 1.403 1_455 S
C3440 C3441 1.404 . S
C3440 C3443 1.539 . S
C3441 C3437 1.408 1_455 S
C3441 C3440 1.404 . S
C3441 H3453 0.930 . S
C3442 C3438 1.524 . S
C3442 H3454 0.956 . S
C3442 H3455 0.961 . S
C3442 H3456 0.961 . S
C3443 C3440 1.539 . S
C3443 H3457 0.958 . S
C3443 H3458 0.961 . S
C3443 H3459 0.960 . S
H3444 C3428 0.931 . S
H3445 C3433 0.929 . S
H3446 C3434 0.960 . S
H3447 C3434 0.962 . S
H3448 C3434 0.960 . S
H3449 C3435 0.961 . S
H3450 C3435 0.961 . S
H3451 C3435 0.961 . S
H3452 C3436 0.931 . S
H3453 C3441 0.930 . S
H3454 C3442 0.956 . S
H3455 C3442 0.961 . S
H3456 C3442 0.961 . S
H3457 C3443 0.958 . S
H3458 C3443 0.961 . S
H3459 C3443 0.960 . S
C3460 C3461 1.391 . S
C3460 C3462 1.394 . S
C3460 H3476 0.931 . S
C3461 C3460 1.391 . S
C3461 C3465 1.376 . S
C3462 C3460 1.394 . S
C3462 C3463 1.369 . S
C3462 C3466 1.531 . S
C3463 C3462 1.369 . S
C3463 C3464 1.410 . S
C3463 C3471 1.503 . S
C3464 C3463 1.410 . S
C3464 C3465 1.392 . S
C3464 C3467 1.511 . S
C3465 C3461 1.376 . S
C3465 C3464 1.392 . S
C3465 H3477 0.929 . S
C3466 C3462 1.531 . S
C3466 H3478 0.960 . S
C3466 H3479 0.962 . S
C3466 H3480 0.960 . S
C3467 C3464 1.511 . S
C3467 H3481 0.961 . S
C3467 H3482 0.961 . S
C3467 H3483 0.961 . S
C3468 C3469 1.370 . S
C3468 C3470 1.363 . S
C3468 H3484 0.931 . S
C3469 C3468 1.370 . S
C3469 C3473 1.408 . S
C3470 C3468 1.363 . S
C3470 C3471 1.370 . S
C3470 C3474 1.524 . S
C3471 C3463 1.503 . S
C3471 C3470 1.370 . S
C3471 C3472 1.403 . S
C3472 C3471 1.403 . S
C3472 C3473 1.404 . S
C3472 C3475 1.539 . S
C3473 C3469 1.408 . S
C3473 C3472 1.404 . S
C3473 H3485 0.930 . S
C3474 C3470 1.524 . S
C3474 H3486 0.956 . S
C3474 H3487 0.961 . S
C3474 H3488 0.961 . S
C3475 C3472 1.539 . S
C3475 H3489 0.958 . S
C3475 H3490 0.961 . S
C3475 H3491 0.960 . S
H3476 C3460 0.931 . S
H3477 C3465 0.929 . S
H3478 C3466 0.960 . S
H3479 C3466 0.962 . S
H3480 C3466 0.960 . S
H3481 C3467 0.961 . S
H3482 C3467 0.961 . S
H3483 C3467 0.961 . S
H3484 C3468 0.931 . S
H3485 C3473 0.930 . S
H3486 C3474 0.956 . S
H3487 C3474 0.961 . S
H3488 C3474 0.961 . S
H3489 C3475 0.958 . S
H3490 C3475 0.961 . S
H3491 C3475 0.960 . S
C3492 C3493 1.391 . S
C3492 C3494 1.394 . S
C3492 H3508 0.931 . S
C3493 C3492 1.391 . S
C3493 C3497 1.376 . S
C3494 C3492 1.394 . S
C3494 C3495 1.369 . S
C3494 C3498 1.531 . S
C3495 C3494 1.369 . S
C3495 C3496 1.410 . S
C3495 C3503 1.503 . S
C3496 C3495 1.410 . S
C3496 C3497 1.392 . S
C3496 C3499 1.511 . S
C3497 C3493 1.376 . S
C3497 C3496 1.392 . S
C3497 H3509 0.929 . S
C3498 C3494 1.531 . S
C3498 H3510 0.960 . S
C3498 H3511 0.962 . S
C3498 H3512 0.960 . S
C3499 C3496 1.511 . S
C3499 H3513 0.961 . S
C3499 H3514 0.961 . S
C3499 H3515 0.961 . S
C3500 C3501 1.370 . S
C3500 C3502 1.363 . S
C3500 H3516 0.931 . S
C3501 C3500 1.370 . S
C3501 C3505 1.408 . S
C3502 C3500 1.363 . S
C3502 C3503 1.370 . S
C3502 C3506 1.524 . S
C3503 C3495 1.503 . S
C3503 C3502 1.370 . S
C3503 C3504 1.403 . S
C3504 C3503 1.403 . S
C3504 C3505 1.404 . S
C3504 C3507 1.539 . S
C3505 C3501 1.408 . S
C3505 C3504 1.404 . S
C3505 H3517 0.930 . S
C3506 C3502 1.524 . S
C3506 H3518 0.956 . S
C3506 H3519 0.961 . S
C3506 H3520 0.961 . S
C3507 C3504 1.539 . S
C3507 H3521 0.958 . S
C3507 H3522 0.961 . S
C3507 H3523 0.960 . S
H3508 C3492 0.931 . S
H3509 C3497 0.929 . S
H3510 C3498 0.960 . S
H3511 C3498 0.962 . S
H3512 C3498 0.960 . S
H3513 C3499 0.961 . S
H3514 C3499 0.961 . S
H3515 C3499 0.961 . S
H3516 C3500 0.931 . S
H3517 C3505 0.930 . S
H3518 C3506 0.956 . S
H3519 C3506 0.961 . S
H3520 C3506 0.961 . S
H3521 C3507 0.958 . S
H3522 C3507 0.961 . S
H3523 C3507 0.960 . S
C3524 C3525 1.391 . S
C3524 C3526 1.394 . S
C3524 H3540 0.931 . S
C3525 C3524 1.391 . S
C3525 C3529 1.376 . S
C3526 C3524 1.394 . S
C3526 C3527 1.369 . S
C3526 C3530 1.531 . S
C3527 C3526 1.369 . S
C3527 C3528 1.410 . S
C3527 C3535 1.503 . S
C3528 C3527 1.410 . S
C3528 C3529 1.392 . S
C3528 C3531 1.511 . S
C3529 C3525 1.376 . S
C3529 C3528 1.392 . S
C3529 H3541 0.929 . S
C3530 C3526 1.531 . S
C3530 H3542 0.960 . S
C3530 H3543 0.962 . S
C3530 H3544 0.960 . S
C3531 C3528 1.511 . S
C3531 H3545 0.961 . S
C3531 H3546 0.961 . S
C3531 H3547 0.961 . S
C3532 C3533 1.370 . S
C3532 C3534 1.363 . S
C3532 H3548 0.931 . S
C3533 C3532 1.370 . S
C3533 C3537 1.408 . S
C3534 C3532 1.363 . S
C3534 C3535 1.370 . S
C3534 C3538 1.524 . S
C3535 C3527 1.503 . S
C3535 C3534 1.370 . S
C3535 C3536 1.403 . S
C3536 C3535 1.403 . S
C3536 C3537 1.404 . S
C3536 C3539 1.539 . S
C3537 C3533 1.408 . S
C3537 C3536 1.404 . S
C3537 H3549 0.930 . S
C3538 C3534 1.524 . S
C3538 H3550 0.956 . S
C3538 H3551 0.961 . S
C3538 H3552 0.961 . S
C3539 C3536 1.539 . S
C3539 H3553 0.958 . S
C3539 H3554 0.961 . S
C3539 H3555 0.960 . S
H3540 C3524 0.931 . S
H3541 C3529 0.929 . S
H3542 C3530 0.960 . S
H3543 C3530 0.962 . S
H3544 C3530 0.960 . S
H3545 C3531 0.961 . S
H3546 C3531 0.961 . S
H3547 C3531 0.961 . S
H3548 C3532 0.931 . S
H3549 C3537 0.930 . S
H3550 C3538 0.956 . S
H3551 C3538 0.961 . S
H3552 C3538 0.961 . S
H3553 C3539 0.958 . S
H3554 C3539 0.961 . S
H3555 C3539 0.960 . S
C3556 C3557 1.391 . S
C3556 C3558 1.394 . S
C3556 H3572 0.931 . S
C3557 C3556 1.391 . S
C3557 C3561 1.376 . S
C3558 C3556 1.394 . S
C3558 C3559 1.369 . S
C3558 C3562 1.531 . S
C3559 C3558 1.369 . S
C3559 C3560 1.410 . S
C3559 C3567 1.503 . S
C3560 C3559 1.410 . S
C3560 C3561 1.392 . S
C3560 C3563 1.511 . S
C3561 C3557 1.376 . S
C3561 C3560 1.392 . S
C3561 H3573 0.929 . S
C3562 C3558 1.531 . S
C3562 H3574 0.960 . S
C3562 H3575 0.962 . S
C3562 H3576 0.960 . S
C3563 C3560 1.511 . S
C3563 H3577 0.961 . S
C3563 H3578 0.961 . S
C3563 H3579 0.961 . S
C3564 C3565 1.370 . S
C3564 C3566 1.363 . S
C3564 H3580 0.931 . S
C3565 C3564 1.370 . S
C3565 C3569 1.408 . S
C3566 C3564 1.363 . S
C3566 C3567 1.370 . S
C3566 C3570 1.524 . S
C3567 C3559 1.503 . S
C3567 C3566 1.370 . S
C3567 C3568 1.403 . S
C3568 C3567 1.403 . S
C3568 C3569 1.404 . S
C3568 C3571 1.539 . S
C3569 C3565 1.408 . S
C3569 C3568 1.404 . S
C3569 H3581 0.930 . S
C3570 C3566 1.524 . S
C3570 H3582 0.956 . S
C3570 H3583 0.961 . S
C3570 H3584 0.961 . S
C3571 C3568 1.539 . S
C3571 H3585 0.958 . S
C3571 H3586 0.961 . S
C3571 H3587 0.960 . S
H3572 C3556 0.931 . S
H3573 C3561 0.929 . S
H3574 C3562 0.960 . S
H3575 C3562 0.962 . S
H3576 C3562 0.960 . S
H3577 C3563 0.961 . S
H3578 C3563 0.961 . S
H3579 C3563 0.961 . S
H3580 C3564 0.931 . S
H3581 C3569 0.930 . S
H3582 C3570 0.956 . S
H3583 C3570 0.961 . S
H3584 C3570 0.961 . S
H3585 C3571 0.958 . S
H3586 C3571 0.961 . S
H3587 C3571 0.960 . S
C3588 C3589 1.391 . S
C3588 C3590 1.394 . S
C3588 H3604 0.931 . S
C3589 C3588 1.391 . S
C3589 C3593 1.376 . S
C3590 C3588 1.394 . S
C3590 C3591 1.369 . S
C3590 C3594 1.531 . S
C3591 C3590 1.369 . S
C3591 C3592 1.410 . S
C3591 C3599 1.503 . S
C3592 C3591 1.410 . S
C3592 C3593 1.392 . S
C3592 C3595 1.511 . S
C3593 C3589 1.376 . S
C3593 C3592 1.392 . S
C3593 H3605 0.929 . S
C3594 C3590 1.531 . S
C3594 H3606 0.960 . S
C3594 H3607 0.962 . S
C3594 H3608 0.960 . S
C3595 C3592 1.511 . S
C3595 H3609 0.961 . S
C3595 H3610 0.961 . S
C3595 H3611 0.961 . S
C3596 C3597 1.370 . S
C3596 C3598 1.363 . S
C3596 H3612 0.931 . S
C3597 C3596 1.370 . S
C3597 C3601 1.408 . S
C3598 C3596 1.363 . S
C3598 C3599 1.370 . S
C3598 C3602 1.524 . S
C3599 C3591 1.503 . S
C3599 C3598 1.370 . S
C3599 C3600 1.403 . S
C3600 C3599 1.403 . S
C3600 C3601 1.404 . S
C3600 C3603 1.539 . S
C3601 C3597 1.408 . S
C3601 C3600 1.404 . S
C3601 H3613 0.930 . S
C3602 C3598 1.524 . S
C3602 H3614 0.956 . S
C3602 H3615 0.961 . S
C3602 H3616 0.961 . S
C3603 C3600 1.539 . S
C3603 H3617 0.958 . S
C3603 H3618 0.961 . S
C3603 H3619 0.960 . S
H3604 C3588 0.931 . S
H3605 C3593 0.929 . S
H3606 C3594 0.960 . S
H3607 C3594 0.962 . S
H3608 C3594 0.960 . S
H3609 C3595 0.961 . S
H3610 C3595 0.961 . S
H3611 C3595 0.961 . S
H3612 C3596 0.931 . S
H3613 C3601 0.930 . S
H3614 C3602 0.956 . S
H3615 C3602 0.961 . S
H3616 C3602 0.961 . S
H3617 C3603 0.958 . S
H3618 C3603 0.961 . S
H3619 C3603 0.960 . S
C3620 C3621 1.391 . S
C3620 C3622 1.394 . S
C3620 H3636 0.931 . S
C3621 C3620 1.391 . S
C3621 C3625 1.376 . S
C3622 C3620 1.394 . S
C3622 C3623 1.369 . S
C3622 C3626 1.531 . S
C3623 C3622 1.369 . S
C3623 C3624 1.410 . S
C3623 C3631 1.503 . S
C3624 C3623 1.410 . S
C3624 C3625 1.392 . S
C3624 C3627 1.511 . S
C3625 C3621 1.376 . S
C3625 C3624 1.392 . S
C3625 H3637 0.929 . S
C3626 C3622 1.531 . S
C3626 H3638 0.960 . S
C3626 H3639 0.962 . S
C3626 H3640 0.960 . S
C3627 C3624 1.511 . S
C3627 H3641 0.961 . S
C3627 H3642 0.961 . S
C3627 H3643 0.961 . S
C3628 C3629 1.370 . S
C3628 C3630 1.363 . S
C3628 H3644 0.931 . S
C3629 C3628 1.370 . S
C3629 C3633 1.408 . S
C3630 C3628 1.363 . S
C3630 C3631 1.370 . S
C3630 C3634 1.524 . S
C3631 C3623 1.503 . S
C3631 C3630 1.370 . S
C3631 C3632 1.403 . S
C3632 C3631 1.403 . S
C3632 C3633 1.404 . S
C3632 C3635 1.539 . S
C3633 C3629 1.408 . S
C3633 C3632 1.404 . S
C3633 H3645 0.930 . S
C3634 C3630 1.524 . S
C3634 H3646 0.956 . S
C3634 H3647 0.961 . S
C3634 H3648 0.961 . S
C3635 C3632 1.539 . S
C3635 H3649 0.958 . S
C3635 H3650 0.961 . S
C3635 H3651 0.960 . S
H3636 C3620 0.931 . S
H3637 C3625 0.929 . S
H3638 C3626 0.960 . S
H3639 C3626 0.962 . S
H3640 C3626 0.960 . S
H3641 C3627 0.961 . S
H3642 C3627 0.961 . S
H3643 C3627 0.961 . S
H3644 C3628 0.931 . S
H3645 C3633 0.930 . S
H3646 C3634 0.956 . S
H3647 C3634 0.961 . S
H3648 C3634 0.961 . S
H3649 C3635 0.958 . S
H3650 C3635 0.961 . S
H3651 C3635 0.960 . S
C3652 C3653 1.391 . S
C3652 C3654 1.394 . S
C3652 H3668 0.931 . S
C3653 C3652 1.391 . S
C3653 C3657 1.376 . S
C3654 C3652 1.394 . S
C3654 C3655 1.369 . S
C3654 C3658 1.531 . S
C3655 C3654 1.369 . S
C3655 C3656 1.410 . S
C3655 C3663 1.503 . S
C3656 C3655 1.410 . S
C3656 C3657 1.392 . S
C3656 C3659 1.511 . S
C3657 C3653 1.376 . S
C3657 C3656 1.392 . S
C3657 H3669 0.929 . S
C3658 C3654 1.531 . S
C3658 H3670 0.960 . S
C3658 H3671 0.962 . S
C3658 H3672 0.960 . S
C3659 C3656 1.511 . S
C3659 H3673 0.961 . S
C3659 H3674 0.961 . S
C3659 H3675 0.961 . S
C3660 C3661 1.370 . S
C3660 C3662 1.363 . S
C3660 H3676 0.931 . S
C3661 C3660 1.370 . S
C3661 C3665 1.408 . S
C3662 C3660 1.363 . S
C3662 C3663 1.370 . S
C3662 C3666 1.524 . S
C3663 C3655 1.503 . S
C3663 C3662 1.370 . S
C3663 C3664 1.403 . S
C3664 C3663 1.403 . S
C3664 C3665 1.404 . S
C3664 C3667 1.539 . S
C3665 C3661 1.408 . S
C3665 C3664 1.404 . S
C3665 H3677 0.930 . S
C3666 C3662 1.524 . S
C3666 H3678 0.956 . S
C3666 H3679 0.961 . S
C3666 H3680 0.961 . S
C3667 C3664 1.539 . S
C3667 H3681 0.958 . S
C3667 H3682 0.961 . S
C3667 H3683 0.960 . S
H3668 C3652 0.931 . S
H3669 C3657 0.929 . S
H3670 C3658 0.960 . S
H3671 C3658 0.962 . S
H3672 C3658 0.960 . S
H3673 C3659 0.961 . S
H3674 C3659 0.961 . S
H3675 C3659 0.961 . S
H3676 C3660 0.931 . S
H3677 C3665 0.930 . S
H3678 C3666 0.956 . S
H3679 C3666 0.961 . S
H3680 C3666 0.961 . S
H3681 C3667 0.958 . S
H3682 C3667 0.961 . S
H3683 C3667 0.960 . S
C3684 C3685 1.391 . S
C3684 C3686 1.394 . S
C3684 H3700 0.931 . S
C3685 C3684 1.391 . S
C3685 C3689 1.376 1_655 S
C3686 C3684 1.394 . S
C3686 C3687 1.369 . S
C3686 C3690 1.531 . S
C3687 C3686 1.369 . S
C3687 C3688 1.410 1_655 S
C3687 C3695 1.503 . S
C3688 C3687 1.410 1_455 S
C3688 C3689 1.392 . S
C3688 C3691 1.511 . S
C3689 C3685 1.376 1_455 S
C3689 C3688 1.392 . S
C3689 H3701 0.929 . S
C3690 C3686 1.531 . S
C3690 H3702 0.960 . S
C3690 H3703 0.962 . S
C3690 H3704 0.960 . S
C3691 C3688 1.511 . S
C3691 H3705 0.961 . S
C3691 H3706 0.961 . S
C3691 H3707 0.961 . S
C3692 C3693 1.370 1_455 S
C3692 C3694 1.363 . S
C3692 H3708 0.931 . S
C3693 C3692 1.370 1_655 S
C3693 C3697 1.408 . S
C3694 C3692 1.363 . S
C3694 C3695 1.370 1_455 S
C3694 C3698 1.524 . S
C3695 C3687 1.503 . S
C3695 C3694 1.370 1_655 S
C3695 C3696 1.403 . S
C3696 C3695 1.403 . S
C3696 C3697 1.404 . S
C3696 C3699 1.539 . S
C3697 C3693 1.408 . S
C3697 C3696 1.404 . S
C3697 H3709 0.930 . S
C3698 C3694 1.524 . S
C3698 H3710 0.956 . S
C3698 H3711 0.961 . S
C3698 H3712 0.961 . S
C3699 C3696 1.539 . S
C3699 H3713 0.958 . S
C3699 H3714 0.961 . S
C3699 H3715 0.960 . S
H3700 C3684 0.931 . S
H3701 C3689 0.929 . S
H3702 C3690 0.960 . S
H3703 C3690 0.962 . S
H3704 C3690 0.960 . S
H3705 C3691 0.961 . S
H3706 C3691 0.961 . S
H3707 C3691 0.961 . S
H3708 C3692 0.931 . S
H3709 C3697 0.930 . S
H3710 C3698 0.956 . S
H3711 C3698 0.961 . S
H3712 C3698 0.961 . S
H3713 C3699 0.958 . S
H3714 C3699 0.961 . S
H3715 C3699 0.960 . S
C3716 C3717 1.391 . S
C3716 C3718 1.394 . S
C3716 H3732 0.931 . S
C3717 C3716 1.391 . S
C3717 C3721 1.376 . S
C3718 C3716 1.394 . S
C3718 C3719 1.369 . S
C3718 C3722 1.531 . S
C3719 C3718 1.369 . S
C3719 C3720 1.410 . S
C3719 C3727 1.503 . S
C3720 C3719 1.410 . S
C3720 C3721 1.392 . S
C3720 C3723 1.511 . S
C3721 C3717 1.376 . S
C3721 C3720 1.392 . S
C3721 H3733 0.929 . S
C3722 C3718 1.531 . S
C3722 H3734 0.960 . S
C3722 H3735 0.962 . S
C3722 H3736 0.960 . S
C3723 C3720 1.511 . S
C3723 H3737 0.961 . S
C3723 H3738 0.961 . S
C3723 H3739 0.961 . S
C3724 C3725 1.370 . S
C3724 C3726 1.363 . S
C3724 H3740 0.931 . S
C3725 C3724 1.370 . S
C3725 C3729 1.408 . S
C3726 C3724 1.363 . S
C3726 C3727 1.370 . S
C3726 C3730 1.524 . S
C3727 C3719 1.503 . S
C3727 C3726 1.370 . S
C3727 C3728 1.403 . S
C3728 C3727 1.403 . S
C3728 C3729 1.404 . S
C3728 C3731 1.539 . S
C3729 C3725 1.408 . S
C3729 C3728 1.404 . S
C3729 H3741 0.930 . S
C3730 C3726 1.524 . S
C3730 H3742 0.956 . S
C3730 H3743 0.961 . S
C3730 H3744 0.961 . S
C3731 C3728 1.539 . S
C3731 H3745 0.958 . S
C3731 H3746 0.961 . S
C3731 H3747 0.960 . S
H3732 C3716 0.931 . S
H3733 C3721 0.929 . S
H3734 C3722 0.960 . S
H3735 C3722 0.962 . S
H3736 C3722 0.960 . S
H3737 C3723 0.961 . S
H3738 C3723 0.961 . S
H3739 C3723 0.961 . S
H3740 C3724 0.931 . S
H3741 C3729 0.930 . S
H3742 C3730 0.956 . S
H3743 C3730 0.961 . S
H3744 C3730 0.961 . S
H3745 C3731 0.958 . S
H3746 C3731 0.961 . S
H3747 C3731 0.960 . S
C3748 C3749 1.391 1_565 S
C3748 C3750 1.394 . S
C3748 H3764 0.931 . S
C3749 C3748 1.391 1_545 S
C3749 C3753 1.376 . S
C3750 C3748 1.394 . S
C3750 C3751 1.369 1_565 S
C3750 C3754 1.531 . S
C3751 C3750 1.369 1_545 S
C3751 C3752 1.410 . S
C3751 C3759 1.503 . S
C3752 C3751 1.410 . S
C3752 C3753 1.392 . S
C3752 C3755 1.511 . S
C3753 C3749 1.376 . S
C3753 C3752 1.392 . S
C3753 H3765 0.929 . S
C3754 C3750 1.531 . S
C3754 H3766 0.960 . S
C3754 H3767 0.962 . S
C3754 H3768 0.960 . S
C3755 C3752 1.511 . S
C3755 H3769 0.961 . S
C3755 H3770 0.961 . S
C3755 H3771 0.961 . S
C3756 C3757 1.370 . S
C3756 C3758 1.363 . S
C3756 H3772 0.931 . S
C3757 C3756 1.370 . S
C3757 C3761 1.408 1_545 S
C3758 C3756 1.363 . S
C3758 C3759 1.370 . S
C3758 C3762 1.524 . S
C3759 C3751 1.503 . S
C3759 C3758 1.370 . S
C3759 C3760 1.403 1_545 S
C3760 C3759 1.403 1_565 S
C3760 C3761 1.404 . S
C3760 C3763 1.539 . S
C3761 C3757 1.408 1_565 S
C3761 C3760 1.404 . S
C3761 H3773 0.930 . S
C3762 C3758 1.524 . S
C3762 H3774 0.956 . S
C3762 H3775 0.961 . S
C3762 H3776 0.961 . S
C3763 C3760 1.539 . S
C3763 H3777 0.958 . S
C3763 H3778 0.961 . S
C3763 H3779 0.960 . S
H3764 C3748 0.931 . S
H3765 C3753 0.929 . S
H3766 C3754 0.960 . S
H3767 C3754 0.962 . S
H3768 C3754 0.960 . S
H3769 C3755 0.961 . S
H3770 C3755 0.961 . S
H3771 C3755 0.961 . S
H3772 C3756 0.931 . S
H3773 C3761 0.930 . S
H3774 C3762 0.956 . S
H3775 C3762 0.961 . S
H3776 C3762 0.961 . S
H3777 C3763 0.958 . S
H3778 C3763 0.961 . S
H3779 C3763 0.960 . S
C1477 C4 1.447 . S
C1485 C1084 1.432 . S
C1509 C38 1.709 . S
C1517 C1130 1.691 . S
C1549 C1162 1.447 . S
C1541 C74 1.434 . S
C1573 C76 1.412 . S
C1581 C1215 1.421 . S
C1605 C2 1.511 . S
C1613 C1261 1.553 . S
C1637 C40 1.538 . S
C1645 C1300 1.533 . S
C1669 C110 1.490 . S
C1677 C1254 1.504 . S
C1709 C1307 1.544 . S
C1701 C148 1.553 . S
C1741 C1208 1.513 . S
C1733 C182 1.491 . S
C1765 C184 1.435 . S
C1773 C1169 1.475 . S
C1805 C1063 1.418 . S
C1797 C112 1.371 . S
C1829 C146 1.650 . S
C1837 C1109 1.637 . S
C1861 C220 1.650 . S
C1869 C1339 1.642 . S
C1893 C254 1.776 . S
C1901 C1406 1.752 . S
C1933 C1452 1.633 . S
C1925 C290 1.655 . S
C1957 C292 1.523 . S
C1965 C663 1.513 . S
C1989 C218 1.707 . S
C1997 C709 1.696 . S
C2021 C256 1.582 . S
C2029 C755 1.559 . S
C2053 C326 1.678 . S
C2061 C702 1.660 . S
C2085 C364 1.599 . S
C2093 C748 1.581 . S
C2125 C656 1.684 . S
C2117 C398 1.696 . S
C2157 C1431 1.671 . S
C2149 C400 1.683 . S
C2189 C1360 1.516 . S
C2181 C328 1.513 . S
C2221 C1385 1.710 . S
C2213 C362 1.730 . S
C2245 C436 1.551 . S
C2253 C787 1.546 . S
C2277 C470 1.748 . S
C2285 C840 1.749 . S
C2309 C506 1.660 . S
C2317 C886 1.651 . S
C2341 C508 1.613 . S
C2349 C932 1.622 . S
C2381 C985 1.667 . S
C2373 C434 1.681 . S
C2413 C1031 1.585 . S
C2405 C472 1.610 . S
C2445 C978 1.760 . S
C2437 C542 1.777 . S
C2477 C1024 1.596 . S
C2469 C580 1.619 . S
C2501 C614 1.672 . S
C2509 C939 1.670 . S
C2541 C893 1.574 . S
C2533 C616 1.565 . S
C2565 C544 1.528 . S
C2573 C808 1.534 . S
C2605 C847 1.671 . S
C2597 C578 1.666 . S
C2637 C670 1.649 . S
C2629 C14 1.629 . S
C2661 C39 1.557 . S
C2669 C716 1.544 . S
C2701 C762 1.557 . S
C2693 C75 1.585 . S
C2733 C794 1.486 . S
C2725 C86 1.482 . S
C2765 C833 1.610 . S
C2757 C3 1.619 . S
C2797 C879 1.534 . S
C2789 C50 1.525 . S
C2821 C111 1.616 . S
C2829 C900 1.579 . S
C2853 C158 1.502 . S
C2861 C801 1.486 . S
C2885 C183 1.693 . S
C2893 C854 1.683 . S
C2917 C194 1.639 . S
C2925 C695 1.646 . S
C2957 C741 1.536 . S
C2949 C122 1.516 . S
C2981 C147 1.468 . S
C2989 C649 1.463 . S
C3021 C925 1.573 . S
C3013 C230 1.567 . S
C3045 C255 1.685 . S
C3053 C992 1.667 . S
C3077 C291 1.603 . S
C3085 C1038 1.598 . S
C3117 C1077 1.311 . S
C3109 C302 1.280 . S
C3141 C219 1.578 . S
C3149 C1123 1.580 . S
C3173 C266 1.352 . S
C3181 C1155 1.415 . S
C3205 C327 1.331 . S
C3213 C1176 1.315 . S
C3237 C374 1.344 . S
C3245 C1070 1.365 . S
C3277 C1116 1.637 . S
C3269 C399 1.663 . S
C3301 C410 1.557 . S
C3309 C971 1.586 . S
C3333 C338 1.603 . S
C3341 C1017 1.610 . S
C3373 C946 1.586 . S
C3365 C363 1.596 . S
C3405 C1222 1.411 . S
C3397 C446 1.379 . S
C3429 C471 1.391 . S
C3437 C1268 1.399 . S
C3461 C507 1.521 . S
C3469 C1293 1.511 . S
C3501 C1346 1.447 . S
C3493 C518 1.437 . S
C3533 C1399 1.666 . S
C3525 C435 1.667 . S
C3557 C482 1.642 . S
C3565 C1445 1.669 . S
C3589 C543 1.548 . S
C3597 C1438 1.516 . S
C3621 C590 1.622 . S
C3629 C1353 1.616 . S
C3661 C1392 1.716 . S
C3653 C615 1.724 . S
C3693 C1247 1.419 . S
C3685 C626 1.332 . S
C3725 C1314 1.532 . S
C3717 C554 1.539 . S
C3749 C579 1.343 . S
C3757 C1201 1.337 . S
