# Generated by pormake.
# Topology sit, (3,6)-cn, num edge types: 1
# Building blocks:
#     Node 0, Type 0, BuildingBlock: BELTOD_clean_linker_0, # of connection points: 3
#     Node 1, Type 0, BuildingBlock: BELTOD_clean_linker_0, # of connection points: 3
#     Node 2, Type 0, BuildingBlock: BELTOD_clean_linker_0, # of connection points: 3
#     Node 3, Type 0, BuildingBlock: BELTOD_clean_linker_0, # of connection points: 3
#     Node 4, Type 1, BuildingBlock: MIDCAF_clean_sbu_0, # of connection points: 6
#     Node 5, Type 1, BuildingBlock: MIDCAF_clean_sbu_0, # of connection points: 6
#     Edge 6, Type (0, 1), BuildingBlock: XUDNAN_clean_linker_2, # of connection points: 2
#     Edge 7, Type (0, 1), BuildingBlock: XUDNAN_clean_linker_2, # of connection points: 2
#     Edge 8, Type (0, 1), BuildingBlock: XUDNAN_clean_linker_2, # of connection points: 2
#     Edge 9, Type (0, 1), BuildingBlock: XUDNAN_clean_linker_2, # of connection points: 2
#     Edge 10, Type (0, 1), BuildingBlock: XUDNAN_clean_linker_2, # of connection points: 2
#     Edge 11, Type (0, 1), BuildingBlock: XUDNAN_clean_linker_2, # of connection points: 2
#     Edge 12, Type (0, 1), BuildingBlock: XUDNAN_clean_linker_2, # of connection points: 2
#     Edge 13, Type (0, 1), BuildingBlock: XUDNAN_clean_linker_2, # of connection points: 2
#     Edge 14, Type (0, 1), BuildingBlock: XUDNAN_clean_linker_2, # of connection points: 2
#     Edge 15, Type (0, 1), BuildingBlock: XUDNAN_clean_linker_2, # of connection points: 2
#     Edge 16, Type (0, 1), BuildingBlock: XUDNAN_clean_linker_2, # of connection points: 2
#     Edge 17, Type (0, 1), BuildingBlock: XUDNAN_clean_linker_2, # of connection points: 2
# Relax obj value: 0.105
# Max RMSD: 0.192
# Mean RMSD: 0.101
data_MOF--net-sit--node1-MIDCAF_clean_sbu_0--node2-BELTOD_clean_linker_0--edge1-XUDNAN_clean_linker_2
_symmetry_space_group_name_H-M    P1
_symmetry_Int_Tables_number       1
_symmetry_cell_setting            triclinic
loop_
_symmetry_equiv_pos_as_xyz
'x, y, z'
_cell_length_a     26.333949
_cell_length_b     36.109351
_cell_length_c     40.296634
_cell_angle_alpha  89.237578
_cell_angle_beta   90.487606
_cell_angle_gamma 83.43344
loop_
_atom_site_label
_atom_site_type_symbol
_atom_site_fract_x
_atom_site_fract_y
_atom_site_fract_z
_atom_type_partial_charge
P0 P 0.08279 0.24864 0.9723 0.0
H1 H 0.15453 0.24579 0.9175 0.0
H2 H 0.21631 0.28778 0.90125 0.0
H3 H 0.19643 0.34372 -0.00494 0.0
H4 H 0.13427 0.30118 0.01142 0.0
H5 H 0.00029 0.21987 0.00825 0.0
H6 H -0.00125 0.17805 0.05625 0.0
H7 H 0.16293 0.17394 0.06592 0.0
H8 H 0.16384 0.21658 0.01828 0.0
H9 H 0.04032 0.29169 0.9158 0.0
H10 H 0.0194 0.29195 0.02184 0.0
O11 O 0.07499 0.21945 0.94139 0.0
H12 H 0.97927 0.34769 0.91013 0.0
H13 H 0.95689 0.34771 0.01616 0.0
C14 C 0.1401 0.27022 0.96576 0.0
C15 C 0.16459 0.26619 0.93511 0.0
C16 C 0.19952 0.29049 0.92568 0.0
C17 C 0.21034 0.31938 0.94668 0.0
C18 C 0.18874 0.32165 0.97845 0.0
C19 C 0.15352 0.29728 0.98786 0.0
C20 C 0.08194 0.22216 0.01034 0.0
C21 C 0.03581 0.21055 0.02114 0.0
C22 C 0.03511 0.18617 0.04828 0.0
C23 C 0.08077 0.17244 0.06485 0.0
C24 C 0.12702 0.18433 0.05398 0.0
C25 C 0.1276 0.20881 0.0268 0.0
C26 C 0.03299 0.28695 0.96906 0.0
C27 C 0.02188 0.30347 0.93782 0.0
C28 C -0.01237 0.33576 0.93466 0.0
C29 C 0.9637 0.35208 0.96275 0.0
C30 C 0.97482 0.33553 -0.00586 0.0
C31 C 0.00998 0.30348 -0.00266 0.0
P32 P 0.03036 0.64753 0.1084 0.0
H33 H 0.12752 0.67632 0.0879 0.0
H34 H 0.19704 0.64992 0.05331 0.0
H35 H 0.13126 0.54557 0.05126 0.0
H36 H 0.05991 0.57313 0.08401 0.0
H37 H 0.00778 0.68347 0.17181 0.0
H38 H 0.00824 0.74702 0.19092 0.0
H39 H 0.05394 0.78112 0.09352 0.0
H40 H 0.05394 0.71705 0.07447 0.0
H41 H 0.96874 0.58669 0.0968 0.0
H42 H 0.97586 0.69783 0.0579 0.0
O43 O 0.02376 0.6209 0.14191 0.0
H44 H 0.90679 0.57595 0.0537 0.0
H45 H 0.91237 0.68805 0.016 0.0
C46 C 0.08699 0.62734 0.08745 0.0
C47 C 0.12726 0.64806 0.07963 0.0
C48 C 0.16787 0.63253 0.06025 0.0
C49 C 0.16955 0.59566 0.04895 0.0
C50 C 0.13059 0.57436 0.05861 0.0
C51 C 0.08976 0.59009 0.07755 0.0
C52 C 0.0316 0.69511 0.1218 0.0
C53 C 0.01812 0.70443 0.15446 0.0
C54 C 0.01791 0.74099 0.16533 0.0
C55 C 0.03093 0.76923 0.14369 0.0
C56 C 0.04416 0.75996 0.11087 0.0
C57 C 0.04411 0.72328 0.09997 0.0
C58 C 0.97719 0.6431 0.08078 0.0
C59 C 0.95626 0.60912 0.07946 0.0
C60 C 0.92056 0.60304 0.05483 0.0
C61 C 0.90489 0.63098 0.03106 0.0
C62 C 0.92443 0.66555 0.03336 0.0
C63 C 0.96056 0.67138 0.05773 0.0
P64 P 0.61055 0.75735 0.48515 0.0
H65 H 0.71556 0.75785 0.50985 0.0
H66 H 0.77379 0.80649 0.50998 0.0
H67 H 0.65274 0.8858 0.47027 0.0
H68 H 0.59531 0.83817 0.47032 0.0
H69 H 0.59587 0.67909 0.49515 0.0
H70 H 0.5742 0.64383 0.54456 0.0
H71 H 0.59127 0.73928 0.60512 0.0
H72 H 0.61424 0.77417 0.55592 0.0
H73 H 0.56152 0.77925 0.42166 0.0
H74 H 0.52227 0.78549 0.52529 0.0
O75 O 0.63332 0.73031 0.45416 0.0
H76 H 0.48506 0.82146 0.40775 0.0
H77 H 0.44487 0.82625 0.51156 0.0
C78 C 0.651 0.79406 0.49011 0.0
C79 C 0.70141 0.78588 0.50176 0.0
C80 C 0.73452 0.81365 0.5019 0.0
C81 C 0.71768 0.84979 0.48991 0.0
C82 C 0.66679 0.85809 0.47932 0.0
C83 C 0.63381 0.83059 0.47944 0.0
C84 C 0.60721 0.72908 0.52199 0.0
C85 C 0.59676 0.69198 0.51922 0.0
C86 C 0.58438 0.67187 0.54735 0.0
C87 C 0.5813 0.68896 0.5784 0.0
C88 C 0.59384 0.72555 0.58135 0.0
C89 C 0.60708 0.7454 0.55334 0.0
C90 C 0.54731 0.77866 0.47443 0.0
C91 C 0.53545 0.78852 0.44129 0.0
C92 C 0.49174 0.81285 0.43341 0.0
C93 C 0.45903 0.82765 0.4586 0.0
C94 C 0.46977 0.81607 0.49161 0.0
C95 C 0.51373 0.7921 0.49947 0.0
P96 P 0.52798 0.20428 0.57487 0.0
H97 H 0.63874 0.18496 0.57905 0.0
H98 H 0.70354 0.16774 0.53721 0.0
H99 H 0.58597 0.17939 0.46092 0.0
H100 H 0.52223 0.19836 0.50262 0.0
H101 H 0.45522 0.2521 0.61417 0.0
H102 H 0.45333 0.31676 0.63215 0.0
H103 H 0.58741 0.32887 0.57395 0.0
H104 H 0.58858 0.26467 0.55544 0.0
H105 H 0.50443 0.12919 0.56344 0.0
H106 H 0.42575 0.24042 0.55383 0.0
O107 O 0.54668 0.182 0.6102 0.0
H108 H 0.42914 0.10363 0.54096 0.0
H109 H 0.34981 0.21478 0.53268 0.0
C110 C 0.57567 0.19219 0.54398 0.0
C111 C 0.62708 0.18378 0.55328 0.0
C112 C 0.66401 0.17369 0.52934 0.0
C113 C 0.65 0.17178 0.49566 0.0
C114 C 0.59834 0.18089 0.48651 0.0
C115 C 0.56165 0.1914 0.51041 0.0
C116 C 0.52141 0.25362 0.58299 0.0
C117 C 0.48322 0.26903 0.60442 0.0
C118 C 0.48213 0.30599 0.61464 0.0
C119 C 0.52006 0.32787 0.60425 0.0
C120 C 0.5576 0.31265 0.5822 0.0
C121 C 0.55819 0.27589 0.57159 0.0
C122 C 0.47027 0.1866 0.56108 0.0
C123 C 0.47066 0.14804 0.55704 0.0
C124 C 0.42792 0.13348 0.54403 0.0
C125 C 0.38383 0.15728 0.53535 0.0
C126 C 0.3833 0.19589 0.5396 0.0
C127 C 0.42654 0.21052 0.55192 0.0
Zn128 Zn 0.04761 0.09204 0.34637 0.0
Zn129 Zn 0.04783 0.96019 0.36256 0.0
Zn130 Zn 0.04802 0.02414 0.35447 0.0
C131 C 0.02743 0.96761 0.29795 0.0
C132 C 0.97642 0.98653 0.40454 0.0
O133 O 0.11154 0.04092 0.38558 0.0
O134 O 0.08897 0.10176 0.3859 0.0
C135 C 0.07125 0.06387 0.28557 0.0
O136 O 0.0483 0.99722 0.3049 0.0
O137 O 0.01246 0.94805 0.32128 0.0
O138 O 0.01024 0.9589 0.40466 0.0
O139 O 0.97924 0.01357 0.38368 0.0
O140 O 0.07898 0.0922 0.30204 0.0
O141 O 0.05506 0.03566 0.30037 0.0
O142 O 0.97402 0.05073 0.37292 0.0
O143 O 0.97259 0.10621 0.34904 0.0
C144 C 0.95021 0.08295 0.3654 0.0
O145 O 0.11974 1.00282 0.38128 0.0
O146 O 0.12209 0.94478 0.36478 0.0
C147 C 0.11679 0.07348 0.39694 0.0
C148 C 0.14398 0.96995 0.37843 0.0
Zn149 Zn 0.52579 0.59731 0.86137 0.0
Zn150 Zn 0.57678 0.45189 0.84794 0.0
Zn151 Zn 0.55022 0.52465 0.85162 0.0
C152 C 0.5702 0.48231 0.78284 0.0
C153 C 0.47968 0.46111 0.87439 0.0
O154 O 0.61384 0.54719 0.87775 0.0
O155 O 0.5949 0.60858 0.87555 0.0
C156 C 0.51795 0.58319 0.79293 0.0
O157 O 0.55249 0.51191 0.79831 0.0
O158 O 0.58753 0.45322 0.79892 0.0
O159 O 0.51218 0.43543 0.86437 0.0
O160 O 0.48832 0.49547 0.8725 0.0
O161 O 0.50413 0.60751 0.8143 0.0
O162 O 0.53918 0.55073 0.80205 0.0
O163 O 0.4798 0.53307 0.88132 0.0
O164 O 0.47316 0.59233 0.89593 0.0
C165 C 0.45758 0.56059 0.8978 0.0
O166 O 0.62561 0.50867 0.87665 0.0
O167 O 0.63602 0.44697 0.87831 0.0
C168 C 0.62556 0.58026 0.88324 0.0
C169 C 0.65123 0.47763 0.88593 0.0
H170 H 0.13509 0.17184 0.12324 0.0
H171 H 0.02378 0.11358 0.07128 0.0
H172 H 0.0176 0.07281 0.12044 0.0
H173 H 0.1987 0.08914 0.16968 0.0
H174 H 0.20754 0.1163 0.20605 0.0
H175 H 0.20768 0.13772 0.16539 0.0
H176 H 0.13545 0.18828 0.1831 0.0
H177 H 0.13523 0.16714 0.2237 0.0
H178 H 0.077 0.17417 0.19946 0.0
H179 H 0.01604 0.04351 0.17769 0.0
H180 H 0.01777 0.0301 0.2381 0.0
H181 H 0.13328 0.10518 0.25121 0.0
C182 C 0.11047 0.14985 0.12182 0.0
C183 C 0.07994 0.14596 0.09338 0.0
C184 C 0.04714 0.11742 0.09293 0.0
C185 C 0.04376 0.09384 0.12061 0.0
C186 C 0.07384 0.09884 0.14845 0.0
C187 C 0.10678 0.12605 0.14913 0.0
C188 C 0.13181 0.12785 0.18289 0.0
C189 C 0.18988 0.1171 0.18087 0.0
C190 C 0.11907 0.16664 0.19818 0.0
C191 C 0.10638 0.09842 0.20146 0.0
C192 C 0.07363 0.08151 0.18113 0.0
C193 C 0.04258 0.05584 0.19365 0.0
C194 C 0.04416 0.04803 0.22794 0.0
C195 C 0.07659 0.06582 0.24916 0.0
C196 C 0.10882 0.0906 0.23547 0.0
H197 H 0.96043 0.80814 0.18319 0.0
H198 H 0.10326 0.81711 0.13266 0.0
H199 H 0.10915 0.8779 0.15918 0.0
H200 H 0.91389 0.91058 0.18412 0.0
H201 H 0.88772 0.90641 0.22501 0.0
H202 H 0.88955 0.86796 0.19678 0.0
H203 H 0.93949 0.82458 0.24068 0.0
H204 H 0.93751 0.8627 0.26894 0.0
H205 H -0.00189 0.83768 0.25801 0.0
H206 H 0.10684 0.93196 0.19885 0.0
H207 H 0.09798 0.9716 0.24865 0.0
H208 H 0.95666 0.92707 0.27256 0.0
C209 C -0.00756 0.82325 0.17716 0.0
C210 C 0.03136 0.8079 0.15586 0.0
C211 C 0.07261 0.82856 0.14857 0.0
C212 C 0.07625 0.86313 0.16352 0.0
C213 C 0.03795 0.87692 0.18532 0.0
C214 C -0.00343 0.85764 0.19183 0.0
C215 C 0.96365 0.87582 0.21898 0.0
C216 C 0.91056 0.89111 0.2054 0.0
C217 C 0.95951 0.84859 0.24837 0.0
C218 C -0.00558 0.90712 0.22813 0.0
C219 C 0.03652 0.90802 0.20798 0.0
C220 C 0.07331 0.93213 0.2142 0.0
C221 C 0.06788 0.95474 0.24242 0.0
C222 C 0.02621 0.95276 0.26404 0.0
C223 C -0.01169 0.92965 0.25601 0.0
H224 H 0.62069 0.62652 0.61408 0.0
H225 H 0.49109 0.71179 0.60663 0.0
H226 H 0.45329 0.68553 0.65626 0.0
H227 H 0.54846 0.54987 0.64992 0.0
H228 H 0.60081 0.53322 0.67728 0.0
H229 H 0.61331 0.55357 0.63747 0.0
H230 H 0.665 0.60117 0.66647 0.0
H231 H 0.65276 0.58079 0.70612 0.0
H232 H 0.63526 0.62997 0.69873 0.0
H233 H 0.43523 0.65681 0.70946 0.0
H234 H 0.4401 0.62937 0.76581 0.0
H235 H 0.58171 0.56243 0.74115 0.0
C236 C 0.58374 0.63883 0.62259 0.0
C237 C 0.55835 0.67092 0.60671 0.0
C238 C 0.51077 0.68714 0.61865 0.0
C239 C 0.48889 0.67222 0.64656 0.0
C240 C 0.51509 0.64101 0.6622 0.0
C241 C 0.56149 0.62436 0.65077 0.0
C242 C 0.58445 0.59404 0.67477 0.0
C243 C 0.5869 0.55539 0.6589 0.0
C244 C 0.63748 0.602 0.68727 0.0
C245 C 0.54519 0.5979 0.70222 0.0
C246 C 0.50484 0.62443 0.69387 0.0
C247 C 0.46602 0.63546 0.71608 0.0
C248 C 0.46921 0.61984 0.74805 0.0
C249 C 0.51097 0.59359 0.75758 0.0
C250 C 0.54871 0.5817 0.73411 0.0
H251 H 0.60359 0.35052 0.63409 0.0
H252 H 0.44443 0.38618 0.61139 0.0
H253 H 0.44846 0.44221 0.64563 0.0
H254 H 0.59615 0.36694 0.71443 0.0
H255 H 0.6583 0.38246 0.7201 0.0
H256 H 0.64742 0.35237 0.68642 0.0
H257 H 0.6774 0.40054 0.6447 0.0
H258 H 0.68824 0.43094 0.67857 0.0
H259 H 0.64711 0.44792 0.64438 0.0
H260 H 0.46505 0.48722 0.6901 0.0
H261 H 0.4882 0.51069 0.74487 0.0
H262 H 0.63528 0.44397 0.74054 0.0
C263 C 0.57034 0.37109 0.63509 0.0
C264 C 0.52401 0.36452 0.61966 0.0
C265 C 0.48046 0.39103 0.62275 0.0
C266 C 0.48259 0.42306 0.64191 0.0
C267 C 0.52854 0.42815 0.65784 0.0
C268 C 0.5717 0.40275 0.65457 0.0
C269 C 0.61327 0.41037 0.67888 0.0
C270 C 0.62966 0.37602 0.70128 0.0
C271 C 0.65922 0.42321 0.66052 0.0
C272 C 0.58546 0.44205 0.69813 0.0
C273 C 0.53752 0.45317 0.68469 0.0
C274 C 0.50289 0.47931 0.70038 0.0
C275 C 0.51643 0.49271 0.73143 0.0
C276 C 0.56364 0.47924 0.74664 0.0
C277 C 0.59933 0.45509 0.72904 0.0
H278 H 0.29193 0.3479 0.97625 0.0
H279 H 0.1955 0.35697 0.88805 0.0
H280 H 0.24781 0.40258 0.86377 0.0
H281 H 0.32085 0.44876 0.97458 0.0
H282 H 0.38561 0.43568 0.98867 0.0
H283 H 0.33543 0.40894 0.00192 0.0
H284 H 0.38661 0.34884 0.97957 0.0
H285 H 0.43659 0.37543 0.96626 0.0
H286 H 0.40635 0.3476 0.93682 0.0
H287 H 0.31549 0.43973 0.84577 0.0
H288 H 0.397 0.46516 0.83457 0.0
H289 H 0.45119 0.43273 0.93365 0.0
C290 C 0.28126 0.3603 0.95221 0.0
C291 C 0.23995 0.34888 0.9339 0.0
C292 C 0.22742 0.36509 0.90227 0.0
C293 C 0.25651 0.39132 0.88845 0.0
C294 C 0.29779 0.40134 0.90667 0.0
C295 C 0.31017 0.38655 0.93793 0.0
C296 C 0.35966 0.39925 0.95061 0.0
C297 C 0.34977 0.42466 0.98074 0.0
C298 C 0.39965 0.36579 0.95877 0.0
C299 C 0.37476 0.42125 0.9207 0.0
C300 C 0.33763 0.42305 0.89607 0.0
C301 C 0.34431 0.43934 0.86511 0.0
C302 C 0.39055 0.45361 0.85893 0.0
C303 C 0.42922 0.45148 0.88358 0.0
C304 C 0.42124 0.43548 0.9149 0.0
H305 H 0.82199 0.59049 0.03247 0.0
H306 H 0.90907 0.65466 0.96634 0.0
H307 H 0.85024 0.64462 0.92042 0.0
H308 H 0.79669 0.52197 0.97162 0.0
H309 H 0.73234 0.51734 0.98471 0.0
H310 H 0.7796 0.52868 0.01439 0.0
H311 H 0.7252 0.58866 0.03178 0.0
H312 H 0.67512 0.57742 0.00432 0.0
H313 H 0.69947 0.62195 0.00052 0.0
H314 H 0.77823 0.63288 0.88319 0.0
H315 H 0.69844 0.61781 0.85628 0.0
H316 H 0.66182 0.5567 0.94447 0.0
C317 C 0.82925 0.60196 0.00824 0.0
C318 C 0.86999 0.62376 0.00323 0.0
C319 C 0.87754 0.63862 0.97112 0.0
C320 C 0.84465 0.63272 0.94473 0.0
C321 C 0.80476 0.61142 0.95061 0.0
C322 C 0.79707 0.59602 0.98147 0.0
C323 C 0.75044 0.57498 0.98123 0.0
C324 C 0.76562 0.53325 0.98839 0.0
C325 C 0.71018 0.59177 0.00592 0.0
C326 C 0.73237 0.58188 0.94564 0.0
C327 C 0.7644 0.60294 0.92844 0.0
C328 C 0.75342 0.61574 0.89611 0.0
C329 C 0.70815 0.60719 0.88108 0.0
C330 C 0.67502 0.58567 0.89824 0.0
C331 C 0.68749 0.57243 0.9307 0.0
H332 H 0.86659 0.36005 0.98585 0.0
H333 H 0.97318 0.41667 0.92828 0.0
H334 H 0.90354 0.46556 0.91213 0.0
H335 H 0.774 0.3671 0.92956 0.0
H336 H 0.72034 0.37432 0.95714 0.0
H337 H 0.77982 0.35054 0.972 0.0
H338 H 0.78204 0.39827 0.01928 0.0
H339 H 0.72221 0.42246 0.00454 0.0
H340 H 0.77726 0.44738 0.0094 0.0
H341 H 0.82063 0.50064 0.89345 0.0
H342 H 0.73247 0.51554 0.87141 0.0
H343 H 0.67984 0.43504 0.93974 0.0
C344 C 0.87555 0.38373 0.97116 0.0
C345 C 0.92508 0.38497 0.95859 0.0
C346 C 0.93534 0.41548 0.93829 0.0
C347 C 0.89613 0.44348 0.92921 0.0
C348 C 0.84695 0.44059 0.94076 0.0
C349 C 0.83666 0.41158 0.96157 0.0
C350 C 0.77977 0.41115 0.96603 0.0
C351 C 0.76252 0.37358 0.95552 0.0
C352 C 0.76443 0.42038 0.00195 0.0
C353 C 0.75964 0.4425 0.94252 0.0
C354 C 0.7988 0.46011 0.92908 0.0
C355 C 0.7896 0.48757 0.90431 0.0
C356 C 0.73948 0.49605 0.89205 0.0
C357 C 0.69976 0.47667 0.9043 0.0
C358 C 0.70971 0.45061 0.93052 0.0
H359 H 0.27102 0.60785 0.04852 0.0
H360 H 0.16005 0.54924 -0.00368 0.0
H361 H 0.22547 0.52747 0.95556 0.0
H362 H 0.32401 0.6428 0.97776 0.0
H363 H 0.38864 0.63877 -0.00637 0.0
H364 H 0.33584 0.64469 0.02181 0.0
H365 H 0.37194 0.5844 0.05368 0.0
H366 H 0.42504 0.57834 0.02558 0.0
H367 H 0.38516 0.54144 0.03142 0.0
H368 H 0.29936 0.5185 0.91653 0.0
H369 H 0.37589 0.52419 0.88242 0.0
H370 H 0.43822 0.58883 0.95923 0.0
C371 C 0.26044 0.5902 0.02871 0.0
C372 C 0.21027 0.58013 0.02592 0.0
C373 C 0.19839 0.55675 -0.00041 0.0
C374 C 0.23528 0.54433 0.97614 0.0
C375 C 0.28394 0.55549 0.97927 0.0
C376 C 0.29662 0.57785 0.00493 0.0
C377 C 0.35015 0.58862 0.00109 0.0
C378 C 0.34959 0.63124 -0.0016 0.0
C379 C 0.38514 0.57221 0.02964 0.0
C380 C 0.36487 0.57001 0.9686 0.0
C381 C 0.32655 0.55044 0.95669 0.0
C382 C 0.33014 0.53292 0.92603 0.0
C383 C 0.37391 0.53576 0.90701 0.0
C384 C 0.41343 0.5556 0.91882 0.0
C385 C 0.40879 0.5729 0.94998 0.0
H386 H 0.7317 0.89104 0.43452 0.0
H387 H 0.78584 0.87117 0.53577 0.0
H388 H 0.84846 0.91664 0.52743 0.0
H389 H 0.85148 0.89284 0.40015 0.0
H390 H 0.831 0.92784 0.36903 0.0
H391 H 0.7863 0.89837 0.3852 0.0
H392 H 0.72712 0.95699 0.39966 0.0
H393 H 0.77241 0.98819 0.38702 0.0
H394 H 0.74759 0.98974 0.42865 0.0
H395 H 0.91202 0.95676 0.50584 0.0
H396 H 0.97646 0.98348 0.47152 0.0
H397 H 0.87994 0.97904 0.38464 0.0
C398 C 0.75582 0.89708 0.45521 0.0
C399 C 0.75362 0.87814 0.48595 0.0
C400 C 0.78693 0.88562 0.5121 0.0
C401 C 0.82216 0.91162 0.50765 0.0
C402 C 0.82349 0.92976 0.47691 0.0
C403 C 0.7914 0.92258 0.45106 0.0
C404 C 0.8046 0.94202 0.41929 0.0
C405 C 0.81924 0.91358 0.39183 0.0
C406 C 0.76035 0.971 0.40797 0.0
C407 C 0.85031 0.96042 0.43096 0.0
C408 C 0.86005 0.95348 0.46445 0.0
C409 C 0.90407 0.96326 0.47989 0.0
C410 C 0.94029 0.97865 0.46032 0.0
C411 C 0.93205 0.98428 0.42585 0.0
C412 C 0.8857 0.97656 0.41127 0.0
H413 H 0.37885 0.11312 0.48099 0.0
H414 H 0.28678 0.16782 0.55872 0.0
H415 H 0.20984 0.14427 0.53511 0.0
H416 H 0.2891 0.13599 0.41685 0.0
H417 H 0.30304 0.09296 0.39481 0.0
H418 H 0.35165 0.11 0.42017 0.0
H419 H 0.36296 0.04746 0.45279 0.0
H420 H 0.31366 0.03021 0.42803 0.0
H421 H 0.30866 0.03093 0.47265 0.0
H422 H 0.14282 0.11996 0.50115 0.0
H423 H 0.0878 0.09985 0.45652 0.0
H424 H 0.2218 0.06139 0.39948 0.0
C425 C 0.34254 0.11942 0.4933 0.0
C426 C 0.33846 0.14191 0.5218 0.0
C427 C 0.29039 0.15055 0.5369 0.0
C428 C 0.24672 0.13708 0.52381 0.0
C429 C 0.25183 0.1152 0.49553 0.0
C430 C 0.29838 0.10661 0.48024 0.0
C431 C 0.29237 0.08568 0.4483 0.0
C432 C 0.31007 0.10747 0.41827 0.0
C433 C 0.3211 0.04621 0.45058 0.0
C434 C 0.23495 0.08463 0.44762 0.0
C435 C 0.21259 0.10131 0.47546 0.0
C436 C 0.15985 0.10628 0.47954 0.0
C437 C 0.12897 0.09478 0.45415 0.0
C438 C 0.15085 0.07849 0.42514 0.0
C439 C 0.20447 0.07278 0.42197 0.0
H440 H 0.39451 0.83051 0.40454 0.0
H441 H 0.42431 0.88952 0.49456 0.0
H442 H 0.35048 0.93613 0.48169 0.0
H443 H 0.35608 0.91396 0.35358 0.0
H444 H 0.30802 0.89203 0.3315 0.0
H445 H 0.36458 0.86432 0.34723 0.0
H446 H 0.30825 0.82206 0.37961 0.0
H447 H 0.25167 0.84947 0.36385 0.0
H448 H 0.26109 0.84294 0.40799 0.0
H449 H 0.2685 0.97326 0.46108 0.0
H450 H 0.18672 0.99791 0.43374 0.0
H451 H 0.2155 0.91681 0.35588 0.0
C452 C 0.38619 0.85353 0.42132 0.0
C453 C 0.41514 0.85613 0.45066 0.0
C454 C 0.40214 0.88644 0.47222 0.0
C455 C 0.36061 0.91333 0.46496 0.0
C456 C 0.33284 0.90979 0.43585 0.0
C457 C 0.34533 0.88074 0.41431 0.0
C458 C 0.30851 0.88239 0.38525 0.0
C459 C 0.33595 0.88855 0.35245 0.0
C460 C 0.28074 0.84714 0.38414 0.0
C461 C 0.27259 0.91637 0.39421 0.0
C462 C 0.28725 0.93204 0.42335 0.0
C463 C 0.25752 0.96201 0.43768 0.0
C464 C 0.2114 0.97608 0.4219 0.0
C465 C 0.19565 0.95992 0.39233 0.0
C466 C 0.22713 0.93012 0.37819 0.0
H467 H 0.73371 0.11866 0.50133 0.0
H468 H 0.65527 0.19971 0.43224 0.0
H469 H 0.71924 0.18074 0.38972 0.0
H470 H 0.85975 0.13551 0.47809 0.0
H471 H 0.88646 0.08752 0.48325 0.0
H472 H 0.83229 0.10558 0.50746 0.0
H473 H 0.78163 0.05309 0.48576 0.0
H474 H 0.8359 0.03537 0.46146 0.0
H475 H 0.77457 0.04762 0.44161 0.0
H476 H 0.79376 0.15614 0.35589 0.0
H477 H 0.87656 0.12908 0.33354 0.0
H478 H 0.90793 0.06468 0.4245 0.0
C479 C 0.72997 0.13257 0.47732 0.0
C480 C 0.68898 0.16048 0.47012 0.0
C481 C 0.68552 0.17769 0.43822 0.0
C482 C 0.72183 0.16722 0.4139 0.0
C483 C 0.76154 0.13961 0.42184 0.0
C484 C 0.76612 0.1227 0.45282 0.0
C485 C 0.81403 0.09522 0.45546 0.0
C486 C 0.85027 0.10666 0.48267 0.0
C487 C 0.80069 0.05542 0.46145 0.0
C488 C 0.83591 0.09959 0.42118 0.0
C489 C 0.80478 0.12522 0.40217 0.0
C490 C 0.81817 0.13571 0.37036 0.0
C491 C 0.86518 0.12021 0.35789 0.0
C492 C 0.89805 0.09439 0.37712 0.0
C493 C 0.88277 0.08344 0.40891 0.0
loop_
_geom_bond_atom_site_label_1
_geom_bond_atom_site_label_2
_geom_bond_distance
_geom_bond_site_symmetry_2
_ccdc_geom_bond_type
P0 O11 1.490 . S
P0 C14 1.812 . S
P0 C20 1.803 1_556 S
P0 C26 1.819 . S
H1 C15 0.941 . S
H2 C16 0.939 . S
H3 C18 0.940 1_554 S
H4 C19 0.932 1_554 S
H5 C21 0.939 . S
H6 C22 0.942 . S
H7 C24 0.940 . S
H8 C25 0.939 . S
H9 C27 0.941 . S
H10 C31 0.939 . S
O11 P0 1.490 . S
H12 C28 0.939 . S
H13 C30 0.940 . S
C14 P0 1.812 . S
C14 C15 1.389 . S
C14 C19 1.396 . S
C15 H1 0.941 . S
C15 C14 1.389 . S
C15 C16 1.397 . S
C16 H2 0.939 . S
C16 C15 1.397 . S
C16 C17 1.378 . S
C17 C16 1.378 . S
C17 C18 1.378 . S
C18 H3 0.940 1_556 S
C18 C17 1.378 . S
C18 C19 1.399 . S
C19 H4 0.932 1_556 S
C19 C14 1.396 . S
C19 C18 1.399 . S
C20 P0 1.803 1_554 S
C20 C21 1.378 . S
C20 C25 1.400 . S
C21 H5 0.939 . S
C21 C20 1.378 . S
C21 C22 1.361 . S
C22 H6 0.942 . S
C22 C21 1.361 . S
C22 C23 1.369 . S
C23 C22 1.369 . S
C23 C24 1.404 . S
C24 H7 0.940 . S
C24 C23 1.404 . S
C24 C25 1.389 . S
C25 H8 0.939 . S
C25 C20 1.400 . S
C25 C24 1.389 . S
C26 P0 1.819 . S
C26 C27 1.391 . S
C26 C31 1.391 1_556 S
C27 H9 0.941 . S
C27 C26 1.391 . S
C27 C28 1.396 . S
C28 H12 0.939 . S
C28 C27 1.396 . S
C28 C29 1.397 1_455 S
C29 C28 1.397 1_655 S
C29 C30 1.385 1_556 S
C30 H13 0.940 . S
C30 C29 1.385 1_554 S
C30 C31 1.388 1_655 S
C31 H10 0.939 . S
C31 C26 1.391 1_554 S
C31 C30 1.388 1_455 S
P32 O43 1.490 . S
P32 C46 1.812 . S
P32 C52 1.803 . S
P32 C58 1.819 1_455 S
H33 C47 0.941 . S
H34 C48 0.939 . S
H35 C50 0.940 . S
H36 C51 0.940 . S
H37 C53 0.939 . S
H38 C54 0.942 . S
H39 C56 0.940 . S
H40 C57 0.939 . S
H41 C59 0.941 . S
H42 C63 0.939 . S
O43 P32 1.490 . S
H44 C60 0.947 . S
H45 C62 0.940 . S
C46 P32 1.812 . S
C46 C47 1.389 . S
C46 C51 1.391 1_554 S
C47 H33 0.941 . S
C47 C46 1.389 . S
C47 C48 1.397 . S
C48 H34 0.939 . S
C48 C47 1.397 . S
C48 C49 1.378 1_554 S
C49 C48 1.378 1_556 S
C49 C50 1.378 . S
C50 H35 0.940 . S
C50 C49 1.378 . S
C50 C51 1.396 . S
C51 H36 0.940 . S
C51 C46 1.391 1_556 S
C51 C50 1.396 . S
C52 P32 1.803 . S
C52 C53 1.378 1_455 S
C52 C57 1.400 . S
C53 H37 0.939 . S
C53 C52 1.378 1_655 S
C53 C54 1.361 . S
C54 H38 0.942 . S
C54 C53 1.361 . S
C54 C55 1.365 1_655 S
C55 C54 1.365 1_455 S
C55 C56 1.409 . S
C56 H39 0.940 . S
C56 C55 1.409 . S
C56 C57 1.389 . S
C57 H40 0.939 . S
C57 C52 1.400 . S
C57 C56 1.389 . S
C58 P32 1.819 1_655 S
C58 C59 1.391 . S
C58 C63 1.391 . S
C59 H41 0.941 . S
C59 C58 1.391 . S
C59 C60 1.386 1_554 S
C60 H44 0.947 . S
C60 C59 1.386 1_556 S
C60 C61 1.400 . S
C61 C60 1.400 . S
C61 C62 1.385 1_556 S
C62 H45 0.940 . S
C62 C61 1.385 1_554 S
C62 C63 1.388 . S
C63 H42 0.939 . S
C63 C58 1.391 . S
C63 C62 1.388 . S
P64 O75 1.490 . S
P64 C78 1.812 . S
P64 C84 1.803 . S
P64 C90 1.819 . S
H65 C79 0.941 . S
H66 C80 0.939 . S
H67 C82 0.940 . S
H68 C83 0.940 . S
H69 C85 0.939 . S
H70 C86 0.942 . S
H71 C88 0.940 . S
H72 C89 0.939 . S
H73 C91 0.941 . S
H74 C95 0.939 . S
O75 P64 1.490 . S
H76 C92 0.939 . S
H77 C94 0.940 . S
C78 P64 1.812 . S
C78 C79 1.389 . S
C78 C83 1.391 . S
C79 H65 0.941 . S
C79 C78 1.389 . S
C79 C80 1.397 . S
C80 H66 0.939 . S
C80 C79 1.397 . S
C80 C81 1.378 . S
C81 C80 1.378 . S
C81 C82 1.378 . S
C82 H67 0.940 . S
C82 C81 1.378 . S
C82 C83 1.396 . S
C83 H68 0.940 . S
C83 C78 1.391 . S
C83 C82 1.396 . S
C84 P64 1.803 . S
C84 C85 1.378 . S
C84 C89 1.400 . S
C85 H69 0.939 . S
C85 C84 1.378 . S
C85 C86 1.361 . S
C86 H70 0.942 . S
C86 C85 1.361 . S
C86 C87 1.369 . S
C87 C86 1.369 . S
C87 C88 1.404 . S
C88 H71 0.940 . S
C88 C87 1.404 . S
C88 C89 1.389 . S
C89 H72 0.939 . S
C89 C84 1.400 . S
C89 C88 1.389 . S
C90 P64 1.819 . S
C90 C91 1.391 . S
C90 C95 1.391 . S
C91 H73 0.941 . S
C91 C90 1.391 . S
C91 C92 1.396 . S
C92 H76 0.939 . S
C92 C91 1.396 . S
C92 C93 1.397 . S
C93 C92 1.397 . S
C93 C94 1.385 . S
C94 H77 0.940 . S
C94 C93 1.385 . S
C94 C95 1.388 . S
C95 H74 0.939 . S
C95 C90 1.391 . S
C95 C94 1.388 . S
P96 O107 1.490 . S
P96 C110 1.812 . S
P96 C116 1.803 . S
P96 C122 1.819 . S
H97 C111 0.941 . S
H98 C112 0.939 . S
H99 C114 0.940 . S
H100 C115 0.940 . S
H101 C117 0.939 . S
H102 C118 0.942 . S
H103 C120 0.940 . S
H104 C121 0.939 . S
H105 C123 0.941 . S
H106 C127 0.939 . S
O107 P96 1.490 . S
H108 C124 0.939 . S
H109 C126 0.940 . S
C110 P96 1.812 . S
C110 C111 1.389 . S
C110 C115 1.391 . S
C111 H97 0.941 . S
C111 C110 1.389 . S
C111 C112 1.397 . S
C112 H98 0.939 . S
C112 C111 1.397 . S
C112 C113 1.378 . S
C113 C112 1.378 . S
C113 C114 1.378 . S
C114 H99 0.940 . S
C114 C113 1.378 . S
C114 C115 1.396 . S
C115 H100 0.940 . S
C115 C110 1.391 . S
C115 C114 1.396 . S
C116 P96 1.803 . S
C116 C117 1.378 . S
C116 C121 1.400 . S
C117 H101 0.939 . S
C117 C116 1.378 . S
C117 C118 1.361 . S
C118 H102 0.942 . S
C118 C117 1.361 . S
C118 C119 1.369 . S
C119 C118 1.369 . S
C119 C120 1.404 . S
C120 H103 0.940 . S
C120 C119 1.404 . S
C120 C121 1.389 . S
C121 H104 0.939 . S
C121 C116 1.400 . S
C121 C120 1.389 . S
C122 P96 1.819 . S
C122 C123 1.391 . S
C122 C127 1.391 . S
C123 H105 0.941 . S
C123 C122 1.391 . S
C123 C124 1.396 . S
C124 H108 0.939 . S
C124 C123 1.396 . S
C124 C125 1.397 . S
C125 C124 1.397 . S
C125 C126 1.385 . S
C126 H109 0.940 . S
C126 C125 1.385 . S
C126 C127 1.388 . S
C127 H106 0.939 . S
C127 C122 1.391 . S
C127 C126 1.388 . S
Zn128 O134 1.920 . S
Zn128 O140 1.898 . S
Zn128 O143 1.905 1_455 S
Zn129 O137 1.905 . S
Zn129 O138 1.898 . S
Zn129 O146 1.920 . S
Zn130 O133 2.080 . S
Zn130 O136 2.114 1_545 S
Zn130 O139 2.120 1_545 S
Zn130 O141 2.120 . S
Zn130 O142 2.114 1_455 S
Zn130 O145 2.080 1_545 S
C131 O136 1.166 . S
C131 O137 1.182 . S
C132 O138 1.167 . S
C132 O139 1.299 . S
O133 Zn130 2.080 . S
O133 C147 1.305 . S
O134 Zn128 1.920 . S
O134 C147 1.234 . S
C135 O140 1.167 . S
C135 O141 1.299 . S
O136 Zn130 2.114 1_565 S
O136 C131 1.166 . S
O137 Zn129 1.905 . S
O137 C131 1.182 . S
O138 Zn129 1.898 . S
O138 C132 1.167 . S
O139 Zn130 2.120 1_565 S
O139 C132 1.299 . S
O140 Zn128 1.898 . S
O140 C135 1.167 . S
O141 Zn130 2.120 . S
O141 C135 1.299 . S
O142 Zn130 2.114 1_655 S
O142 C144 1.166 . S
O143 Zn128 1.905 1_655 S
O143 C144 1.182 . S
C144 O142 1.166 . S
C144 O143 1.182 . S
O145 Zn130 2.080 1_565 S
O145 C148 1.305 . S
O146 Zn129 1.920 . S
O146 C148 1.234 . S
C147 O133 1.305 . S
C147 O134 1.234 . S
C148 O145 1.305 . S
C148 O146 1.234 . S
Zn149 O155 1.920 . S
Zn149 O161 1.898 . S
Zn149 O164 1.905 . S
Zn150 O158 1.905 . S
Zn150 O159 1.898 . S
Zn150 O167 1.920 . S
Zn151 O154 2.080 . S
Zn151 O157 2.114 . S
Zn151 O160 2.120 . S
Zn151 O162 2.120 . S
Zn151 O163 2.114 . S
Zn151 O166 2.080 . S
C152 O157 1.166 . S
C152 O158 1.182 . S
C153 O159 1.167 . S
C153 O160 1.299 . S
O154 Zn151 2.080 . S
O154 C168 1.305 . S
O155 Zn149 1.920 . S
O155 C168 1.234 . S
C156 O161 1.167 . S
C156 O162 1.299 . S
O157 Zn151 2.114 . S
O157 C152 1.166 . S
O158 Zn150 1.905 . S
O158 C152 1.182 . S
O159 Zn150 1.898 . S
O159 C153 1.167 . S
O160 Zn151 2.120 . S
O160 C153 1.299 . S
O161 Zn149 1.898 . S
O161 C156 1.167 . S
O162 Zn151 2.120 . S
O162 C156 1.299 . S
O163 Zn151 2.114 . S
O163 C165 1.166 . S
O164 Zn149 1.905 . S
O164 C165 1.182 . S
C165 O163 1.166 . S
C165 O164 1.182 . S
O166 Zn151 2.080 . S
O166 C169 1.305 . S
O167 Zn150 1.920 . S
O167 C169 1.234 . S
C168 O154 1.305 . S
C168 O155 1.234 . S
C169 O166 1.305 . S
C169 O167 1.234 . S
H170 C182 0.930 . S
H171 C184 0.930 . S
H172 C185 0.930 . S
H173 C189 0.959 . S
H174 C189 0.959 . S
H175 C189 0.961 . S
H176 C190 0.960 . S
H177 C190 0.961 . S
H178 C190 0.959 . S
H179 C193 0.929 . S
H180 C194 0.931 . S
H181 C196 0.930 . S
C182 H170 0.930 . S
C182 C183 1.399 . S
C182 C187 1.399 . S
C183 C182 1.399 . S
C183 C184 1.376 . S
C184 H171 0.930 . S
C184 C183 1.376 . S
C184 C185 1.388 . S
C185 H172 0.930 . S
C185 C184 1.388 . S
C185 C186 1.390 . S
C186 C185 1.390 . S
C186 C187 1.394 . S
C186 C192 1.465 . S
C187 C182 1.399 . S
C187 C186 1.394 . S
C187 C188 1.516 . S
C188 C187 1.516 . S
C188 C189 1.502 . S
C188 C190 1.561 . S
C188 C191 1.526 . S
C189 H173 0.959 . S
C189 H174 0.959 . S
C189 H175 0.961 . S
C189 C188 1.502 . S
C190 H176 0.960 . S
C190 H177 0.961 . S
C190 H178 0.959 . S
C190 C188 1.561 . S
C191 C188 1.526 . S
C191 C192 1.396 . S
C191 C196 1.390 . S
C192 C186 1.465 . S
C192 C191 1.396 . S
C192 C193 1.399 . S
C193 H179 0.929 . S
C193 C192 1.399 . S
C193 C194 1.385 . S
C194 H180 0.931 . S
C194 C193 1.385 . S
C194 C195 1.389 . S
C195 C194 1.389 . S
C195 C196 1.387 . S
C196 H181 0.930 . S
C196 C191 1.390 . S
C196 C195 1.387 . S
H197 C209 0.930 . S
H198 C211 0.930 . S
H199 C212 0.930 . S
H200 C216 0.959 . S
H201 C216 0.959 . S
H202 C216 0.961 . S
H203 C217 0.960 . S
H204 C217 0.961 . S
H205 C217 0.959 . S
H206 C220 0.929 . S
H207 C221 0.931 . S
H208 C223 0.930 . S
C209 H197 0.930 . S
C209 C210 1.399 1_655 S
C209 C214 1.399 1_655 S
C210 C209 1.399 1_455 S
C210 C211 1.376 . S
C211 H198 0.930 . S
C211 C210 1.376 . S
C211 C212 1.388 . S
C212 H199 0.930 . S
C212 C211 1.388 . S
C212 C213 1.390 . S
C213 C212 1.390 . S
C213 C214 1.394 . S
C213 C219 1.465 . S
C214 C209 1.399 1_455 S
C214 C213 1.394 . S
C214 C215 1.516 1_455 S
C215 C214 1.516 1_655 S
C215 C216 1.502 . S
C215 C217 1.561 1_655 S
C215 C218 1.526 1_655 S
C216 H200 0.959 . S
C216 H201 0.959 . S
C216 H202 0.961 . S
C216 C215 1.502 . S
C217 H203 0.960 . S
C217 H204 0.961 . S
C217 H205 0.959 . S
C217 C215 1.561 1_455 S
C218 C215 1.526 1_455 S
C218 C219 1.396 . S
C218 C223 1.390 . S
C219 C213 1.465 . S
C219 C218 1.396 . S
C219 C220 1.399 . S
C220 H206 0.929 . S
C220 C219 1.399 . S
C220 C221 1.385 . S
C221 H207 0.931 . S
C221 C220 1.385 . S
C221 C222 1.389 . S
C222 C221 1.389 . S
C222 C223 1.387 . S
C223 H208 0.930 . S
C223 C218 1.390 . S
C223 C222 1.387 . S
H224 C236 0.930 . S
H225 C238 0.930 . S
H226 C239 0.930 . S
H227 C243 0.959 . S
H228 C243 0.959 . S
H229 C243 0.961 . S
H230 C244 0.960 . S
H231 C244 0.961 . S
H232 C244 0.959 . S
H233 C247 0.929 . S
H234 C248 0.931 . S
H235 C250 0.930 . S
C236 H224 0.930 . S
C236 C237 1.399 . S
C236 C241 1.399 . S
C237 C236 1.399 . S
C237 C238 1.376 . S
C238 H225 0.930 . S
C238 C237 1.376 . S
C238 C239 1.388 . S
C239 H226 0.930 . S
C239 C238 1.388 . S
C239 C240 1.390 . S
C240 C239 1.390 . S
C240 C241 1.394 . S
C240 C246 1.465 . S
C241 C236 1.399 . S
C241 C240 1.394 . S
C241 C242 1.516 . S
C242 C241 1.516 . S
C242 C243 1.502 . S
C242 C244 1.561 . S
C242 C245 1.526 . S
C243 H227 0.959 . S
C243 H228 0.959 . S
C243 H229 0.961 . S
C243 C242 1.502 . S
C244 H230 0.960 . S
C244 H231 0.961 . S
C244 H232 0.959 . S
C244 C242 1.561 . S
C245 C242 1.526 . S
C245 C246 1.396 . S
C245 C250 1.390 . S
C246 C240 1.465 . S
C246 C245 1.396 . S
C246 C247 1.399 . S
C247 H233 0.929 . S
C247 C246 1.399 . S
C247 C248 1.385 . S
C248 H234 0.931 . S
C248 C247 1.385 . S
C248 C249 1.389 . S
C249 C248 1.389 . S
C249 C250 1.387 . S
C250 H235 0.930 . S
C250 C245 1.390 . S
C250 C249 1.387 . S
H251 C263 0.930 . S
H252 C265 0.930 . S
H253 C266 0.930 . S
H254 C270 0.959 . S
H255 C270 0.959 . S
H256 C270 0.961 . S
H257 C271 0.960 . S
H258 C271 0.961 . S
H259 C271 0.959 . S
H260 C274 0.929 . S
H261 C275 0.931 . S
H262 C277 0.930 . S
C263 H251 0.930 . S
C263 C264 1.399 . S
C263 C268 1.399 . S
C264 C263 1.399 . S
C264 C265 1.376 . S
C265 H252 0.930 . S
C265 C264 1.376 . S
C265 C266 1.388 . S
C266 H253 0.930 . S
C266 C265 1.388 . S
C266 C267 1.390 . S
C267 C266 1.390 . S
C267 C268 1.394 . S
C267 C273 1.465 . S
C268 C263 1.399 . S
C268 C267 1.394 . S
C268 C269 1.516 . S
C269 C268 1.516 . S
C269 C270 1.502 . S
C269 C271 1.561 . S
C269 C272 1.526 . S
C270 H254 0.959 . S
C270 H255 0.959 . S
C270 H256 0.961 . S
C270 C269 1.502 . S
C271 H257 0.960 . S
C271 H258 0.961 . S
C271 H259 0.959 . S
C271 C269 1.561 . S
C272 C269 1.526 . S
C272 C273 1.396 . S
C272 C277 1.390 . S
C273 C267 1.465 . S
C273 C272 1.396 . S
C273 C274 1.399 . S
C274 H260 0.929 . S
C274 C273 1.399 . S
C274 C275 1.385 . S
C275 H261 0.931 . S
C275 C274 1.385 . S
C275 C276 1.389 . S
C276 C275 1.389 . S
C276 C277 1.387 . S
C277 H262 0.930 . S
C277 C272 1.390 . S
C277 C276 1.387 . S
H278 C290 0.930 . S
H279 C292 0.930 . S
H280 C293 0.930 . S
H281 C297 0.959 . S
H282 C297 0.959 . S
H283 C297 0.961 . S
H284 C298 0.960 . S
H285 C298 0.961 . S
H286 C298 0.959 . S
H287 C301 0.929 . S
H288 C302 0.931 . S
H289 C304 0.930 . S
C290 H278 0.930 . S
C290 C291 1.399 . S
C290 C295 1.399 . S
C291 C290 1.399 . S
C291 C292 1.376 . S
C292 H279 0.930 . S
C292 C291 1.376 . S
C292 C293 1.388 . S
C293 H280 0.930 . S
C293 C292 1.388 . S
C293 C294 1.390 . S
C294 C293 1.390 . S
C294 C295 1.394 . S
C294 C300 1.465 . S
C295 C290 1.399 . S
C295 C294 1.394 . S
C295 C296 1.516 . S
C296 C295 1.516 . S
C296 C297 1.502 . S
C296 C298 1.561 1_556 S
C296 C299 1.526 . S
C297 H281 0.959 . S
C297 H282 0.959 . S
C297 H283 0.961 . S
C297 C296 1.502 . S
C298 H284 0.960 . S
C298 H285 0.961 . S
C298 H286 0.959 . S
C298 C296 1.561 1_554 S
C299 C296 1.526 . S
C299 C300 1.396 . S
C299 C304 1.390 . S
C300 C294 1.465 . S
C300 C299 1.396 . S
C300 C301 1.399 . S
C301 H287 0.929 . S
C301 C300 1.399 . S
C301 C302 1.385 . S
C302 H288 0.931 . S
C302 C301 1.385 . S
C302 C303 1.389 . S
C303 C302 1.389 . S
C303 C304 1.387 . S
C304 H289 0.930 . S
C304 C299 1.390 . S
C304 C303 1.387 . S
H305 C317 0.930 1_554 S
H306 C319 0.930 . S
H307 C320 0.930 . S
H308 C324 0.959 . S
H309 C324 0.959 . S
H310 C324 0.961 . S
H311 C325 0.960 . S
H312 C325 0.961 . S
H313 C325 0.959 . S
H314 C328 0.929 . S
H315 C329 0.931 . S
H316 C331 0.930 . S
C317 H305 0.930 1_556 S
C317 C318 1.399 . S
C317 C322 1.399 . S
C318 C317 1.399 . S
C318 C319 1.376 . S
C319 H306 0.930 . S
C319 C318 1.376 . S
C319 C320 1.388 . S
C320 H307 0.930 . S
C320 C319 1.388 . S
C320 C321 1.390 . S
C321 C320 1.390 . S
C321 C322 1.394 . S
C321 C327 1.465 . S
C322 C317 1.399 . S
C322 C321 1.394 . S
C322 C323 1.516 . S
C323 C322 1.516 . S
C323 C324 1.502 . S
C323 C325 1.561 1_556 S
C323 C326 1.526 . S
C324 H308 0.959 . S
C324 H309 0.959 . S
C324 H310 0.961 . S
C324 C323 1.502 . S
C325 H311 0.960 . S
C325 H312 0.961 . S
C325 H313 0.959 . S
C325 C323 1.561 1_554 S
C326 C323 1.526 . S
C326 C327 1.396 . S
C326 C331 1.390 . S
C327 C321 1.465 . S
C327 C326 1.396 . S
C327 C328 1.399 . S
C328 H314 0.929 . S
C328 C327 1.399 . S
C328 C329 1.385 . S
C329 H315 0.931 . S
C329 C328 1.385 . S
C329 C330 1.389 . S
C330 C329 1.389 . S
C330 C331 1.387 . S
C331 H316 0.930 . S
C331 C326 1.390 . S
C331 C330 1.387 . S
H332 C344 0.930 1_554 S
H333 C346 0.930 . S
H334 C347 0.930 . S
H335 C351 0.959 . S
H336 C351 0.959 . S
H337 C351 0.961 1_554 S
H338 C352 0.960 1_554 S
H339 C352 0.961 . S
H340 C352 0.959 . S
H341 C355 0.929 . S
H342 C356 0.931 . S
H343 C358 0.930 . S
C344 H332 0.930 1_556 S
C344 C345 1.399 . S
C344 C349 1.399 . S
C345 C344 1.399 . S
C345 C346 1.376 . S
C346 H333 0.930 . S
C346 C345 1.376 . S
C346 C347 1.388 . S
C347 H334 0.930 . S
C347 C346 1.388 . S
C347 C348 1.390 . S
C348 C347 1.390 . S
C348 C349 1.394 . S
C348 C354 1.465 . S
C349 C344 1.399 . S
C349 C348 1.394 . S
C349 C350 1.516 . S
C350 C349 1.516 . S
C350 C351 1.502 . S
C350 C352 1.561 . S
C350 C353 1.526 . S
C351 H335 0.959 . S
C351 H336 0.959 . S
C351 H337 0.961 1_556 S
C351 C350 1.502 . S
C352 H338 0.960 1_556 S
C352 H339 0.961 . S
C352 H340 0.959 . S
C352 C350 1.561 . S
C353 C350 1.526 . S
C353 C354 1.396 . S
C353 C358 1.390 . S
C354 C348 1.465 . S
C354 C353 1.396 . S
C354 C355 1.399 . S
C355 H341 0.929 . S
C355 C354 1.399 . S
C355 C356 1.385 . S
C356 H342 0.931 . S
C356 C355 1.385 . S
C356 C357 1.389 . S
C357 C356 1.389 . S
C357 C358 1.387 . S
C358 H343 0.930 . S
C358 C353 1.390 . S
C358 C357 1.387 . S
H359 C371 0.930 . S
H360 C373 0.930 . S
H361 C374 0.930 . S
H362 C378 0.959 . S
H363 C378 0.959 1_554 S
H364 C378 0.961 1_554 S
H365 C379 0.960 . S
H366 C379 0.961 . S
H367 C379 0.959 . S
H368 C382 0.929 . S
H369 C383 0.931 . S
H370 C385 0.930 . S
C371 H359 0.930 . S
C371 C372 1.399 . S
C371 C376 1.399 . S
C372 C371 1.399 . S
C372 C373 1.376 . S
C373 H360 0.930 . S
C373 C372 1.376 . S
C373 C374 1.388 . S
C374 H361 0.930 . S
C374 C373 1.388 . S
C374 C375 1.390 . S
C375 C374 1.390 . S
C375 C376 1.394 . S
C375 C381 1.465 . S
C376 C371 1.399 . S
C376 C375 1.394 . S
C376 C377 1.516 . S
C377 C376 1.516 . S
C377 C378 1.502 . S
C377 C379 1.561 . S
C377 C380 1.526 . S
C378 H362 0.959 . S
C378 H363 0.959 1_556 S
C378 H364 0.961 1_556 S
C378 C377 1.502 . S
C379 H365 0.960 . S
C379 H366 0.961 . S
C379 H367 0.959 . S
C379 C377 1.561 . S
C380 C377 1.526 . S
C380 C381 1.396 . S
C380 C385 1.390 . S
C381 C375 1.465 . S
C381 C380 1.396 . S
C381 C382 1.399 . S
C382 H368 0.929 . S
C382 C381 1.399 . S
C382 C383 1.385 . S
C383 H369 0.931 . S
C383 C382 1.385 . S
C383 C384 1.389 . S
C384 C383 1.389 . S
C384 C385 1.387 . S
C385 H370 0.930 . S
C385 C380 1.390 . S
C385 C384 1.387 . S
H386 C398 0.930 . S
H387 C400 0.930 . S
H388 C401 0.930 . S
H389 C405 0.959 . S
H390 C405 0.959 . S
H391 C405 0.961 . S
H392 C406 0.960 . S
H393 C406 0.961 . S
H394 C406 0.959 . S
H395 C409 0.929 . S
H396 C410 0.931 1_455 S
H397 C412 0.930 . S
C398 H386 0.930 . S
C398 C399 1.399 . S
C398 C403 1.399 . S
C399 C398 1.399 . S
C399 C400 1.376 . S
C400 H387 0.930 . S
C400 C399 1.376 . S
C400 C401 1.388 . S
C401 H388 0.930 . S
C401 C400 1.388 . S
C401 C402 1.390 . S
C402 C401 1.390 . S
C402 C403 1.394 . S
C402 C408 1.465 . S
C403 C398 1.399 . S
C403 C402 1.394 . S
C403 C404 1.516 . S
C404 C403 1.516 . S
C404 C405 1.502 . S
C404 C406 1.561 . S
C404 C407 1.526 . S
C405 H389 0.959 . S
C405 H390 0.959 . S
C405 H391 0.961 . S
C405 C404 1.502 . S
C406 H392 0.960 . S
C406 H393 0.961 . S
C406 H394 0.959 . S
C406 C404 1.561 . S
C407 C404 1.526 . S
C407 C408 1.396 . S
C407 C412 1.390 . S
C408 C402 1.465 . S
C408 C407 1.396 . S
C408 C409 1.399 . S
C409 H395 0.929 . S
C409 C408 1.399 . S
C409 C410 1.385 . S
C410 H396 0.931 1_655 S
C410 C409 1.385 . S
C410 C411 1.389 . S
C411 C410 1.389 . S
C411 C412 1.387 . S
C412 H397 0.930 . S
C412 C407 1.390 . S
C412 C411 1.387 . S
H413 C425 0.930 . S
H414 C427 0.930 . S
H415 C428 0.930 . S
H416 C432 0.959 . S
H417 C432 0.959 . S
H418 C432 0.961 . S
H419 C433 0.960 . S
H420 C433 0.961 . S
H421 C433 0.959 . S
H422 C436 0.929 . S
H423 C437 0.931 . S
H424 C439 0.930 . S
C425 H413 0.930 . S
C425 C426 1.399 . S
C425 C430 1.399 . S
C426 C425 1.399 . S
C426 C427 1.376 . S
C427 H414 0.930 . S
C427 C426 1.376 . S
C427 C428 1.388 . S
C428 H415 0.930 . S
C428 C427 1.388 . S
C428 C429 1.390 . S
C429 C428 1.390 . S
C429 C430 1.394 . S
C429 C435 1.465 . S
C430 C425 1.399 . S
C430 C429 1.394 . S
C430 C431 1.516 . S
C431 C430 1.516 . S
C431 C432 1.502 . S
C431 C433 1.561 . S
C431 C434 1.526 . S
C432 H416 0.959 . S
C432 H417 0.959 . S
C432 H418 0.961 . S
C432 C431 1.502 . S
C433 H419 0.960 . S
C433 H420 0.961 . S
C433 H421 0.959 . S
C433 C431 1.561 . S
C434 C431 1.526 . S
C434 C435 1.396 . S
C434 C439 1.390 . S
C435 C429 1.465 . S
C435 C434 1.396 . S
C435 C436 1.399 . S
C436 H422 0.929 . S
C436 C435 1.399 . S
C436 C437 1.385 . S
C437 H423 0.931 . S
C437 C436 1.385 . S
C437 C438 1.389 . S
C438 C437 1.389 . S
C438 C439 1.387 . S
C439 H424 0.930 . S
C439 C434 1.390 . S
C439 C438 1.387 . S
H440 C452 0.930 . S
H441 C454 0.930 . S
H442 C455 0.930 . S
H443 C459 0.959 . S
H444 C459 0.959 . S
H445 C459 0.961 . S
H446 C460 0.960 . S
H447 C460 0.961 . S
H448 C460 0.959 . S
H449 C463 0.929 . S
H450 C464 0.931 . S
H451 C466 0.930 . S
C452 H440 0.930 . S
C452 C453 1.399 . S
C452 C457 1.399 . S
C453 C452 1.399 . S
C453 C454 1.376 . S
C454 H441 0.930 . S
C454 C453 1.376 . S
C454 C455 1.388 . S
C455 H442 0.930 . S
C455 C454 1.388 . S
C455 C456 1.390 . S
C456 C455 1.390 . S
C456 C457 1.394 . S
C456 C462 1.465 . S
C457 C452 1.399 . S
C457 C456 1.394 . S
C457 C458 1.516 . S
C458 C457 1.516 . S
C458 C459 1.502 . S
C458 C460 1.561 . S
C458 C461 1.526 . S
C459 H443 0.959 . S
C459 H444 0.959 . S
C459 H445 0.961 . S
C459 C458 1.502 . S
C460 H446 0.960 . S
C460 H447 0.961 . S
C460 H448 0.959 . S
C460 C458 1.561 . S
C461 C458 1.526 . S
C461 C462 1.396 . S
C461 C466 1.390 . S
C462 C456 1.465 . S
C462 C461 1.396 . S
C462 C463 1.399 . S
C463 H449 0.929 . S
C463 C462 1.399 . S
C463 C464 1.385 . S
C464 H450 0.931 . S
C464 C463 1.385 . S
C464 C465 1.389 . S
C465 C464 1.389 . S
C465 C466 1.387 . S
C466 H451 0.930 . S
C466 C461 1.390 . S
C466 C465 1.387 . S
H467 C479 0.930 . S
H468 C481 0.930 . S
H469 C482 0.930 . S
H470 C486 0.959 . S
H471 C486 0.959 . S
H472 C486 0.961 . S
H473 C487 0.960 . S
H474 C487 0.961 . S
H475 C487 0.959 . S
H476 C490 0.929 . S
H477 C491 0.931 . S
H478 C493 0.930 . S
C479 H467 0.930 . S
C479 C480 1.399 . S
C479 C484 1.399 . S
C480 C479 1.399 . S
C480 C481 1.376 . S
C481 H468 0.930 . S
C481 C480 1.376 . S
C481 C482 1.388 . S
C482 H469 0.930 . S
C482 C481 1.388 . S
C482 C483 1.390 . S
C483 C482 1.390 . S
C483 C484 1.394 . S
C483 C489 1.465 . S
C484 C479 1.399 . S
C484 C483 1.394 . S
C484 C485 1.516 . S
C485 C484 1.516 . S
C485 C486 1.502 . S
C485 C487 1.561 . S
C485 C488 1.526 . S
C486 H470 0.959 . S
C486 H471 0.959 . S
C486 H472 0.961 . S
C486 C485 1.502 . S
C487 H473 0.960 . S
C487 H474 0.961 . S
C487 H475 0.959 . S
C487 C485 1.561 . S
C488 C485 1.526 . S
C488 C489 1.396 . S
C488 C493 1.390 . S
C489 C483 1.465 . S
C489 C488 1.396 . S
C489 C490 1.399 . S
C490 H476 0.929 . S
C490 C489 1.399 . S
C490 C491 1.385 . S
C491 H477 0.931 . S
C491 C490 1.385 . S
C491 C492 1.389 . S
C492 C491 1.389 . S
C492 C493 1.387 . S
C493 H478 0.930 . S
C493 C488 1.390 . S
C493 C492 1.387 . S
C195 C135 1.453 . S
C183 C23 1.501 . S
C222 C131 1.456 . S
C210 C55 1.463 . S
C249 C156 1.356 . S
C237 C87 1.523 . S
C264 C119 1.433 . S
C276 C152 1.382 . S
C291 C17 1.227 . S
C303 C153 0.987 . S
C330 C168 1.020 . S
C318 C61 1.236 . S
C345 C29 1.668 . S
C357 C169 1.559 . S
C384 C165 1.546 . S
C372 C49 1.659 . S
C411 C132 1.097 1_655 S
C399 C81 1.233 . S
C426 C125 1.124 . S
C438 C147 1.169 . S
C465 C148 1.597 . S
C453 C93 1.692 . S
C492 C144 1.549 . S
C480 C113 1.657 . S
