# Generated by pormake.
# Topology anh, (6,3)-cn, num edge types: 1
# Building blocks:
#     Node 0, Type 0, BuildingBlock: HISSIN_clean_sbu_0, # of connection points: 6
#     Node 1, Type 0, BuildingBlock: HISSIN_clean_sbu_0, # of connection points: 6
#     Node 2, Type 0, BuildingBlock: HISSIN_clean_sbu_0, # of connection points: 6
#     Node 3, Type 1, BuildingBlock: CUQRIR_clean_linker_1, # of connection points: 3
#     Node 4, Type 1, BuildingBlock: CUQRIR_clean_linker_1, # of connection points: 3
#     Node 5, Type 1, BuildingBlock: CUQRIR_clean_linker_1, # of connection points: 3
#     Node 6, Type 1, BuildingBlock: CUQRIR_clean_linker_1, # of connection points: 3
#     Node 7, Type 1, BuildingBlock: CUQRIR_clean_linker_1, # of connection points: 3
#     Node 8, Type 1, BuildingBlock: CUQRIR_clean_linker_1, # of connection points: 3
#     Edge 9, Type (0, 1), BuildingBlock: XUDNAN_clean_linker_2, # of connection points: 2
#     Edge 10, Type (0, 1), BuildingBlock: XUDNAN_clean_linker_2, # of connection points: 2
#     Edge 11, Type (0, 1), BuildingBlock: XUDNAN_clean_linker_2, # of connection points: 2
#     Edge 12, Type (0, 1), BuildingBlock: XUDNAN_clean_linker_2, # of connection points: 2
#     Edge 13, Type (0, 1), BuildingBlock: XUDNAN_clean_linker_2, # of connection points: 2
#     Edge 14, Type (0, 1), BuildingBlock: XUDNAN_clean_linker_2, # of connection points: 2
#     Edge 15, Type (0, 1), BuildingBlock: XUDNAN_clean_linker_2, # of connection points: 2
#     Edge 16, Type (0, 1), BuildingBlock: XUDNAN_clean_linker_2, # of connection points: 2
#     Edge 17, Type (0, 1), BuildingBlock: XUDNAN_clean_linker_2, # of connection points: 2
#     Edge 18, Type (0, 1), BuildingBlock: XUDNAN_clean_linker_2, # of connection points: 2
#     Edge 19, Type (0, 1), BuildingBlock: XUDNAN_clean_linker_2, # of connection points: 2
#     Edge 20, Type (0, 1), BuildingBlock: XUDNAN_clean_linker_2, # of connection points: 2
#     Edge 21, Type (0, 1), BuildingBlock: XUDNAN_clean_linker_2, # of connection points: 2
#     Edge 22, Type (0, 1), BuildingBlock: XUDNAN_clean_linker_2, # of connection points: 2
#     Edge 23, Type (0, 1), BuildingBlock: XUDNAN_clean_linker_2, # of connection points: 2
#     Edge 24, Type (0, 1), BuildingBlock: XUDNAN_clean_linker_2, # of connection points: 2
#     Edge 25, Type (0, 1), BuildingBlock: XUDNAN_clean_linker_2, # of connection points: 2
#     Edge 26, Type (0, 1), BuildingBlock: XUDNAN_clean_linker_2, # of connection points: 2
# Relax obj value: 0.299
# Max RMSD: 0.204
# Mean RMSD: 0.159
data_MOF--net-anh--node1-HISSIN_clean_sbu_0--node2-CUQRIR_clean_linker_1--edge1-XUDNAN_clean_linker_2
_symmetry_space_group_name_H-M    P1
_symmetry_Int_Tables_number       1
_symmetry_cell_setting            triclinic
loop_
_symmetry_equiv_pos_as_xyz
'x, y, z'
_cell_length_a     27.345782
_cell_length_b     27.339995
_cell_length_c     46.859475
_cell_angle_alpha  87.65074
_cell_angle_beta   91.939205
_cell_angle_gamma 120.28386
loop_
_atom_site_label
_atom_site_type_symbol
_atom_site_fract_x
_atom_site_fract_y
_atom_site_fract_z
_atom_type_partial_charge
Eu0 Eu 0.17065 0.55425 0.15049 0.0
Eu1 Eu 0.23808 0.68447 0.17074 0.0
C2 C 0.18101 0.58533 0.21614 0.0
C3 C 1.04902 0.41081 0.133 0.0
C4 C 1.01551 0.43231 0.12121 0.0
C5 C 0.9642 0.32672 0.1497 0.0
C6 C 0.95678 0.40184 0.12439 0.0
C7 C 1.02276 0.35683 0.14614 0.0
C8 C 0.93073 0.34997 0.13996 0.0
C9 C 1.11042 0.44796 0.13689 0.0
O10 O 0.30204 0.65483 0.17549 0.0
O11 O 0.26351 0.58103 0.14464 0.0
C12 C 0.30701 0.61881 0.15967 0.0
O13 O 0.17911 0.60856 0.11145 0.0
O14 O 0.28198 0.74416 0.20492 0.0
O15 O 0.27403 0.77484 0.16252 0.0
O16 O 0.26062 0.68781 0.12476 0.0
C17 C 0.22383 0.65749 0.10499 0.0
O18 O 1.09983 0.57468 0.15555 0.0
O19 O 1.15337 0.67195 0.1557 0.0
O20 O 0.18238 0.63171 0.20694 0.0
O21 O 1.13657 0.48912 0.11812 0.0
O22 O 1.12596 0.46476 0.16293 0.0
O23 O 0.18895 0.55466 0.19811 0.0
C24 C 0.26832 0.82334 0.20198 0.0
C25 C 0.28509 0.84183 0.22999 0.0
C26 C 0.22776 0.88453 0.19642 0.0
C27 C 0.27521 0.88294 0.24073 0.0
C28 C 0.23716 0.84308 0.18576 0.0
C29 C 0.24901 0.90666 0.22348 0.0
C30 C 0.28723 0.78718 0.18932 0.0
C31 C 1.10402 0.62502 0.15388 0.0
H32 H 1.03487 0.47416 0.11114 0.0
H33 H 0.94608 0.28735 0.16209 0.0
H34 H 0.93224 0.42047 0.11608 0.0
H35 H 1.04798 0.33985 0.15564 0.0
H36 H 0.30876 0.82695 0.24299 0.0
H37 H 0.20786 0.90253 0.18266 0.0
H38 H 0.29288 0.89994 0.26149 0.0
H39 H 0.22282 0.82902 0.16422 0.0
Eu40 Eu 0.80724 1.0956 0.49279 0.0
Eu41 Eu 0.71921 0.1419 0.49307 0.0
C42 C 0.75284 1.09976 0.55079 0.0
C43 C 0.87669 1.01891 0.52274 0.0
C44 C 0.86211 1.02482 0.55038 0.0
C45 C 0.86655 0.92837 0.53748 0.0
C46 C 0.84693 0.98146 0.5709 0.0
C47 C 0.88157 0.97179 0.51687 0.0
C48 C 0.846 0.93154 0.56407 0.0
C49 C 0.87511 1.05515 0.49914 0.0
O50 O 0.80716 0.22162 0.49726 0.0
O51 O 0.86188 0.188 0.48001 0.0
C52 C 0.85583 0.23057 0.48722 0.0
O53 O 0.7852 1.10041 0.44592 0.0
O54 O 0.68879 0.19507 0.50988 0.0
O55 O 0.63877 0.1322 0.47828 0.0
O56 O 0.75425 0.1643 0.44922 0.0
C57 C 0.77109 0.1363 0.43425 0.0
O58 O 0.71993 1.01769 0.50044 0.0
O59 O 0.66954 1.05246 0.4768 0.0
O60 O 0.71054 1.09668 0.53554 0.0
O61 O 0.82917 1.03151 0.48328 0.0
O62 O 0.88939 1.10657 0.50581 0.0
O63 O 0.80104 0.11474 0.53872 0.0
C64 C 0.62571 0.21031 0.47971 0.0
C65 C 0.66343 0.25896 0.46393 0.0
C66 C 0.55073 0.2313 0.46966 0.0
C67 C 0.64498 0.29456 0.45163 0.0
C68 C 0.56917 0.19607 0.4819 0.0
C69 C 0.58861 0.28163 0.45489 0.0
C70 C 0.6431 0.17264 0.49378 0.0
C71 C 0.6727 1.00914 0.48767 0.0
H72 H 0.85796 1.06081 0.55549 0.0
H73 H 0.86564 0.89004 0.53154 0.0
H74 H 0.83137 0.9849 0.59125 0.0
H75 H 0.89238 0.96635 0.49565 0.0
H76 H 0.70712 0.26992 0.46165 0.0
H77 H 0.50744 0.2205 0.4732 0.0
H78 H 0.6751 0.33295 0.44032 0.0
H79 H 0.53943 0.15825 0.49377 0.0
Eu80 Eu 0.64463 0.56233 0.83724 0.0
Eu81 Eu 0.77478 0.61874 0.81727 0.0
C82 C 0.74439 0.60946 0.8834 0.0
C83 C 0.52449 0.54196 0.88135 0.0
C84 C 0.55889 0.56456 0.90582 0.0
C85 C 0.46325 0.57534 0.897 0.0
C86 C 0.54625 0.59366 0.92538 0.0
C87 C 0.47562 0.54584 0.87764 0.0
C88 C 0.49949 0.60132 0.92059 0.0
C89 C 0.54365 0.52237 0.85773 0.0
O90 O 0.74944 0.52629 0.82521 0.0
O91 O 0.65241 0.48643 0.82528 0.0
C92 C 0.69803 0.48141 0.82486 0.0
O93 O 0.64032 0.56612 0.7894 0.0
O94 O 0.86217 0.63886 0.82435 0.0
O95 O 0.84087 0.67825 0.78846 0.0
O96 O 0.72366 0.56982 0.77897 0.0
C97 C 0.67334 0.56147 0.77139 0.0
O98 O 0.68019 0.65845 0.83899 0.0
O99 O 0.74616 0.68119 0.80501 0.0
O100 O 0.77822 0.64369 0.86342 0.0
O101 O 0.56223 0.55707 0.83563 0.0
O102 O 0.57624 0.50164 0.86464 0.0
O103 O 0.69509 0.56681 0.87651 0.0
C104 C 0.92879 0.67977 0.78606 0.0
C105 C 0.95379 0.72391 0.76545 0.0
C106 C 1.0115 0.66894 0.78529 0.0
C107 C 1.00842 0.74241 0.75599 0.0
C108 C 0.95687 0.65051 0.7948 0.0
C109 C 1.03901 0.71716 0.76709 0.0
C110 C 0.88067 0.67374 0.80223 0.0
C111 C 0.71554 0.69506 0.81999 0.0
H112 H 0.59718 0.5624 0.90907 0.0
H113 H 0.42747 0.58115 0.89219 0.0
H114 H 0.57464 0.61257 0.94345 0.0
H115 H 0.44895 0.52919 0.85878 0.0
H116 H 0.93306 0.74731 0.75843 0.0
H117 H 1.03404 0.64878 0.79445 0.0
H118 H 1.0284 0.77934 0.74179 0.0
H119 H 0.9387 0.61637 0.8107 0.0
C120 C 0.57273 0.27587 0.25349 0.0
N121 N 0.61868 0.27162 0.26072 0.0
N122 N 0.53089 0.24847 0.27296 0.0
C123 C 0.56824 0.30565 0.22661 0.0
C124 C 0.55594 0.23151 0.29362 0.0
N125 N 0.60858 0.24464 0.28587 0.0
C126 C 0.52889 0.20236 0.32148 0.0
H127 H 0.60481 0.34954 0.22565 0.0
H128 H 0.52864 0.30757 0.22589 0.0
H129 H 0.5703 0.28384 0.20761 0.0
H130 H 0.49361 0.15881 0.31743 0.0
H131 H 0.51177 0.22618 0.33178 0.0
H132 H 0.55941 0.20039 0.33693 0.0
C133 C 0.52 0.56691 0.54215 0.0
N134 N 0.53305 0.5708 0.57036 0.0
N135 N 0.48875 0.51203 0.53452 0.0
C136 C 0.5469 0.61616 0.5211 0.0
C137 C 0.4813 0.48282 0.55967 0.0
N138 N 0.50874 0.51834 0.5813 0.0
C139 C 0.45416 0.41939 0.56213 0.0
H140 H 0.5435 0.65216 0.52878 0.0
H141 H 0.52635 0.60427 0.4997 0.0
H142 H 0.5926 0.63049 0.51937 0.0
H143 H 0.48382 0.40664 0.55423 0.0
H144 H 0.41519 0.39912 0.54865 0.0
H145 H 0.44325 0.40396 0.58458 0.0
C146 C 0.39791 0.88526 0.88757 0.0
N147 N 0.38875 0.8686 0.91543 0.0
N148 N 0.35353 0.88823 0.87566 0.0
C149 C 0.44668 0.89074 0.87091 0.0
C150 C 0.3183 0.87562 0.898 0.0
N151 N 0.33892 0.86241 0.92192 0.0
C152 C 0.26098 0.87093 0.89563 0.0
H153 H 0.4472 0.90741 0.84886 0.0
H154 H 0.44372 0.84881 0.87011 0.0
H155 H 0.4872 0.9199 0.88183 0.0
H156 H 0.23215 0.83423 0.88241 0.0
H157 H 0.26487 0.90964 0.88498 0.0
H158 H 0.24212 0.86611 0.91687 0.0
C159 C 0.25995 0.61847 0.46578 0.0
N160 N 0.21902 0.58347 0.44702 0.0
N161 N 0.30648 0.6596 0.45183 0.0
C162 C 0.25433 0.61299 0.49768 0.0
C163 C 0.29208 0.64817 0.42391 0.0
N164 N 0.23924 0.60266 0.42097 0.0
C165 C 0.33114 0.6794 0.39942 0.0
H166 H 0.2803 0.65486 0.50759 0.0
H167 H 0.26972 0.58449 0.50598 0.0
H168 H 0.2095 0.59428 0.50393 0.0
H169 H 0.3761 0.69698 0.40609 0.0
H170 H 0.32492 0.71499 0.39202 0.0
H171 H 0.32185 0.65112 0.38121 0.0
C172 C 0.70508 1.08522 0.80063 0.0
N173 N 0.71267 1.05454 0.78072 0.0
N174 N 0.70769 0.13283 0.78854 0.0
C175 C 0.69866 1.07075 0.83202 0.0
C176 C 0.71655 0.12958 0.76061 0.0
N177 N 0.72045 1.08307 0.75592 0.0
C178 C 0.71673 0.16956 0.73739 0.0
H179 H 0.65389 1.03834 0.83624 0.0
H180 H 0.71003 1.10863 0.84463 0.0
H181 H 0.72558 1.05266 0.83903 0.0
H182 H 0.76106 0.20358 0.73355 0.0
H183 H 0.692 0.18938 0.74356 0.0
H184 H 0.69872 0.14725 0.71711 0.0
C185 C 0.70617 0.62068 0.13301 0.0
N186 N 0.74394 0.62202 0.11422 0.0
N187 N 0.65999 0.61766 0.11923 0.0
C188 C 0.71267 0.61868 0.16495 0.0
C189 C 0.67131 0.61734 0.09128 0.0
N190 N 0.72154 0.61925 0.08825 0.0
C191 C 0.63657 0.62198 0.06675 0.0
H192 H 0.73738 0.59777 0.17122 0.0
H193 H 0.67064 0.59555 0.17521 0.0
H194 H 0.73568 0.66251 0.17288 0.0
H195 H 0.61493 0.64494 0.07295 0.0
H196 H 0.60394 0.57876 0.06031 0.0
H197 H 0.66329 0.64455 0.04801 0.0
H198 H 0.3402 0.55578 0.1281 0.0
H199 H 0.40419 0.6918 0.18848 0.0
H200 H 0.49905 0.70311 0.18603 0.0
H201 H 0.42666 0.49542 0.15482 0.0
H202 H 0.43864 0.47885 0.11982 0.0
H203 H 0.37466 0.47978 0.12667 0.0
H204 H 0.39674 0.55226 0.08476 0.0
H205 H 0.46081 0.5516 0.07783 0.0
H206 H 0.46381 0.6176 0.08429 0.0
H207 H 0.58933 0.7039 0.17542 0.0
H208 H 0.66704 0.69244 0.15779 0.0
H209 H 0.54656 0.55321 0.10614 0.0
C210 C 0.37401 0.58765 0.14099 0.0
C211 C 0.36392 0.62279 0.15856 0.0
C212 C 0.40999 0.66412 0.17487 0.0
C213 C 0.46443 0.67098 0.17364 0.0
C214 C 0.47298 0.63612 0.15608 0.0
C215 C 0.42906 0.59504 0.1401 0.0
C216 C 0.45038 0.56386 0.12264 0.0
C217 C 0.42082 0.50072 0.13152 0.0
C218 C 0.44245 0.57181 0.09047 0.0
C219 C 0.51298 0.59413 0.13115 0.0
C220 C 0.52501 0.63572 0.15045 0.0
C221 C 0.58014 0.67087 0.16062 0.0
C222 C 0.62412 0.66372 0.15069 0.0
C223 C 0.61324 0.62144 0.1309 0.0
C224 C 0.55648 0.58587 0.1213 0.0
H225 H 0.96501 0.26395 0.47087 0.0
H226 H 0.85935 0.33249 0.49361 0.0
H227 H 0.94006 0.42964 0.48541 0.0
H228 H 1.09399 0.37102 0.50423 0.0
H229 H 1.1391 0.37218 0.47672 0.0
H230 H 1.07298 0.30838 0.48416 0.0
H231 H 1.04237 0.30595 0.43109 0.0
H232 H 1.10828 0.36992 0.42352 0.0
H233 H 1.04203 0.36676 0.41491 0.0
H234 H 1.03392 0.521 0.47384 0.0
H235 H 1.13173 0.59647 0.46158 0.0
H236 H 0.17701 0.46901 0.4478 0.0
C237 C 0.95859 0.29925 0.4742 0.0
C238 C 0.90514 0.28991 0.48298 0.0
C239 C 0.8994 0.33791 0.48702 0.0
C240 C 0.9452 0.39348 0.48233 0.0
C241 C 0.99706 0.401 0.47363 0.0
C242 C 1.00397 0.35504 0.46973 0.0
C243 C 1.06416 0.37446 0.46057 0.0
C244 C 1.09433 0.35537 0.48274 0.0
C245 C 1.06418 0.35298 0.43076 0.0
C246 C 1.09026 0.43853 0.45993 0.0
C247 C 1.05075 0.45304 0.46738 0.0
C248 C 1.06493 0.5098 0.46805 0.0
C249 C 1.12051 0.55246 0.46106 0.0
C250 C 1.16172 0.53865 0.45356 0.0
C251 C 1.14619 0.48079 0.4531 0.0
H252 H 0.64542 0.74 0.83338 0.0
H253 H 0.80409 0.7839 0.79343 0.0
H254 H 0.81937 0.87811 0.78046 0.0
H255 H 0.60399 0.81419 0.78105 0.0
H256 H 0.57426 0.83961 0.80633 0.0
H257 H 0.57509 0.77488 0.81398 0.0
H258 H 0.62852 0.81514 0.86161 0.0
H259 H 0.62777 0.87996 0.85409 0.0
H260 H 0.69397 0.88211 0.86133 0.0
H261 H 0.81857 0.96716 0.76996 0.0
H262 H 0.80153 1.04738 0.76349 0.0
H263 H 0.64379 0.95199 0.80901 0.0
C264 C 0.6836 0.76968 0.82218 0.0
C265 C 0.72341 0.75348 0.81449 0.0
C266 C 0.7725 0.79409 0.79956 0.0
C267 C 0.78183 0.84827 0.79206 0.0
C268 C 0.74189 0.8626 0.79945 0.0
C269 C 0.69375 0.82488 0.81426 0.0
C270 C 0.65757 0.85209 0.81885 0.0
C271 C 0.59926 0.81816 0.80418 0.0
C272 C 0.65161 0.85764 0.85088 0.0
C273 C 0.69294 0.91042 0.80421 0.0
C274 C 0.74141 0.91509 0.79324 0.0
C275 C 0.78074 0.96397 0.77847 0.0
C276 C 0.77057 1.00934 0.77471 0.0
C277 C 0.72141 1.00633 0.78552 0.0
C278 C 0.68205 0.95594 0.80064 0.0
H279 H 1.0024 0.55843 0.12376 0.0
H280 H 1.08943 0.70644 0.1764 0.0
H281 H 1.00864 0.72236 0.1706 0.0
H282 H 0.94049 0.62115 0.0738 0.0
H283 H 0.87497 0.55543 0.06901 0.0
H284 H 0.93956 0.55475 0.07711 0.0
H285 H 0.89261 0.48839 0.12067 0.0
H286 H 0.8279 0.48903 0.11313 0.0
H287 H 0.8624 0.50975 0.14772 0.0
H288 H 0.91886 0.723 0.15976 0.0
H289 H 0.82454 0.70718 0.145 0.0
H290 H 0.79248 0.56008 0.09835 0.0
C291 C 1.00415 0.59391 0.13419 0.0
C292 C 1.05246 0.63094 0.15079 0.0
C293 C 1.05322 0.6774 0.16364 0.0
C294 C 1.00742 0.68693 0.16041 0.0
C295 C 0.9609 0.65033 0.14376 0.0
C296 C 0.95892 0.605 0.13061 0.0
C297 C 0.90368 0.57294 0.11354 0.0
C298 C 0.91539 0.57627 0.08146 0.0
C299 C 0.86957 0.51128 0.12442 0.0
C300 C 0.87422 0.60603 0.12004 0.0
C301 C 0.90864 0.65091 0.13729 0.0
C302 C 0.89151 0.68783 0.14636 0.0
C303 C 0.83766 0.67837 0.13801 0.0
C304 C 0.80068 0.63209 0.1209 0.0
C305 C 0.81974 0.59584 0.11144 0.0
H306 H 0.57211 0.97493 0.45772 0.0
H307 H 0.65622 0.91014 0.51453 0.0
H308 H 0.57066 0.81465 0.51326 0.0
H309 H 0.43225 0.8911 0.48685 0.0
H310 H 0.39657 0.87997 0.45264 0.0
H311 H 0.46412 0.94304 0.45823 0.0
H312 H 0.50473 0.91989 0.415 0.0
H313 H 0.43724 0.85692 0.40918 0.0
H314 H 0.50026 0.8519 0.41394 0.0
H315 H 0.47334 0.72432 0.50564 0.0
H316 H 0.37768 0.64889 0.49014 0.0
H317 H 0.35758 0.77261 0.43848 0.0
C318 C 0.57274 0.94078 0.46995 0.0
C319 C 0.62148 0.95064 0.48628 0.0
C320 C 0.61994 0.90418 0.50178 0.0
C321 C 0.57123 0.84962 0.50128 0.0
C322 C 0.52393 0.84156 0.48509 0.0
C323 C 0.52458 0.88598 0.46956 0.0
C324 C 0.46882 0.86615 0.45338 0.0
C325 C 0.43867 0.8969 0.46338 0.0
C326 C 0.47835 0.8742 0.42095 0.0
C327 C 0.43654 0.80366 0.46215 0.0
C328 C 0.46884 0.79019 0.48059 0.0
C329 C 0.44787 0.73473 0.49128 0.0
C330 C 0.39326 0.6921 0.48257 0.0
C331 C 0.3599 0.70471 0.46324 0.0
C332 C 0.38199 0.76158 0.45327 0.0
H333 H 0.77414 0.45083 0.80611 0.0
H334 H 0.60547 0.37944 0.84026 0.0
H335 H 0.59257 0.28339 0.83828 0.0
H336 H 0.73708 0.34031 0.7563 0.0
H337 H 0.8034 0.3414 0.76032 0.0
H338 H 0.80058 0.40466 0.76606 0.0
H339 H 0.84459 0.41168 0.81659 0.0
H340 H 0.84718 0.34818 0.81107 0.0
H341 H 0.81097 0.35236 0.84149 0.0
H342 H 0.59754 0.19316 0.83199 0.0
H343 H 0.61701 0.11814 0.81771 0.0
H344 H 0.78055 0.24692 0.78625 0.0
C345 C 0.73465 0.41507 0.81343 0.0
C346 C 0.69097 0.42325 0.82359 0.0
C347 C 0.63967 0.37479 0.83241 0.0
C348 C 0.63201 0.31985 0.83148 0.0
C349 C 0.67578 0.31328 0.82138 0.0
C350 C 0.72593 0.35963 0.81221 0.0
C351 C 0.76504 0.34071 0.80076 0.0
C352 C 0.77723 0.35778 0.76898 0.0
C353 C 0.82022 0.36466 0.81854 0.0
C354 C 0.72922 0.27665 0.80489 0.0
C355 C 0.67806 0.26162 0.81711 0.0
C356 C 0.63761 0.20469 0.8225 0.0
C357 C 0.6491 0.16223 0.81457 0.0
C358 C 0.70038 0.17651 0.80114 0.0
C359 C 0.74118 0.23471 0.79673 0.0
H360 H 0.73949 0.89179 0.58198 0.0
H361 H 0.87335 0.85115 0.58142 0.0
H362 H 0.80511 0.75237 0.59593 0.0
H363 H 0.64628 0.77846 0.64011 0.0
H364 H 0.58355 0.76621 0.62039 0.0
H365 H 0.64507 0.83636 0.62089 0.0
H366 H 0.64411 0.83946 0.56557 0.0
H367 H 0.584 0.76926 0.56479 0.0
H368 H 0.64782 0.7851 0.54685 0.0
H369 H 0.72227 0.65765 0.59509 0.0
H370 H 0.63157 0.57441 0.58142 0.0
H371 H 0.54852 0.67311 0.58302 0.0
C372 C 0.75504 0.86288 0.58672 0.0
C373 C 0.81168 0.87897 0.58109 0.0
C374 C 0.83021 0.83956 0.58603 0.0
C375 C 0.79172 0.7835 0.59436 0.0
C376 C 0.73507 0.76783 0.59774 0.0
C377 C 0.71685 0.80668 0.59457 0.0
C378 C 0.65274 0.77757 0.59361 0.0
C379 C 0.63062 0.79041 0.62035 0.0
C380 C 0.63099 0.79381 0.56608 0.0
C381 C 0.63785 0.71628 0.59394 0.0
C382 C 0.68587 0.71157 0.59733 0.0
C383 C 0.68416 0.66041 0.59377 0.0
C384 C 0.63256 0.61334 0.58605 0.0
C385 C 0.58329 0.6175 0.58225 0.0
C386 C 0.58563 0.66911 0.58682 0.0
H387 H 1.11081 0.82896 0.77501 0.0
H388 H 1.10759 0.67289 0.75807 0.0
H389 H 0.2084 0.71723 0.77196 0.0
H390 H 0.27362 0.93184 0.75901 0.0
H391 H 0.27729 0.97516 0.78791 0.0
H392 H 0.21409 0.94064 0.76591 0.0
H393 H 1.15484 0.89444 0.81131 0.0
H394 H 0.21729 0.92753 0.83329 0.0
H395 H 0.1723 0.85156 0.835 0.0
H396 H 0.29065 0.76151 0.8032 0.0
H397 H 0.34835 0.80324 0.84606 0.0
H398 H 0.30824 0.93745 0.84112 0.0
C399 C 1.13241 0.80546 0.77238 0.0
C400 C 1.10163 0.74766 0.76533 0.0
C401 C 1.13053 0.71729 0.76332 0.0
C402 C 0.18794 0.74237 0.77103 0.0
C403 C 0.21601 0.79807 0.78033 0.0
C404 C 0.18959 0.82993 0.78031 0.0
C405 C 0.22461 0.88405 0.79661 0.0
C406 C 0.24886 0.936 0.77613 0.0
C407 C 0.1902 0.88959 0.82045 0.0
C408 C 0.27114 0.87432 0.80871 0.0
C409 C 0.26651 0.82547 0.7982 0.0
C410 C 0.29669 0.80126 0.81051 0.0
C411 C 0.32987 0.82558 0.83487 0.0
C412 C 0.33362 0.87434 0.84658 0.0
C413 C 0.30656 0.90072 0.83226 0.0
H414 H 0.30383 0.99965 0.19074 0.0
H415 H 0.22363 0.94095 0.27269 0.0
H416 H 0.27085 1.03994 0.28863 0.0
H417 H 0.42666 1.07115 0.21766 0.0
H418 H 0.45696 0.12857 0.19149 0.0
H419 H 0.39822 1.062 0.18171 0.0
H420 H 0.34169 0.11145 0.16561 0.0
H421 H 0.40108 0.17885 0.17564 0.0
H422 H 0.33217 0.15496 0.19015 0.0
H423 H 0.34349 0.14114 0.29937 0.0
H424 H 0.43991 0.22207 0.30704 0.0
H425 H 0.48441 0.20111 0.22242 0.0
C426 C 0.29333 1.00823 0.21132 0.0
C427 C 0.25911 0.96333 0.23022 0.0
C428 C 0.24867 0.97524 0.25768 0.0
C429 C 0.27527 1.03141 0.26681 0.0
C430 C 0.31294 1.07479 0.2484 0.0
C431 C 0.32206 1.06339 0.22112 0.0
C432 C 0.37567 0.1118 0.2086 0.0
C433 C 0.41672 1.09217 0.19942 0.0
C434 C 0.36179 0.141 0.18352 0.0
C435 C 0.39816 0.1497 0.23399 0.0
C436 C 0.3598 0.13014 0.25594 0.0
C437 C 0.37371 0.15661 0.28224 0.0
C438 C 0.42912 0.20184 0.28666 0.0
C439 C 0.47097 0.21722 0.26572 0.0
C440 C 0.45389 0.19225 0.2387 0.0
H441 H 0.6493 0.39463 0.46341 0.0
H442 H 0.48681 0.26299 0.4319 0.0
H443 H 0.44731 0.32552 0.43717 0.0
H444 H 0.60624 0.42766 0.51652 0.0
H445 H 0.65274 0.50344 0.51596 0.0
H446 H 0.67405 0.45967 0.49936 0.0
H447 H 0.68809 0.51528 0.45135 0.0
H448 H 0.66737 0.56023 0.46805 0.0
H449 H 0.63112 0.52345 0.43612 0.0
H450 H 0.41819 0.38494 0.46161 0.0
H451 H 0.40569 0.43933 0.49893 0.0
H452 H 0.5866 0.534 0.51301 0.0
C453 C 0.60652 0.38036 0.45582 0.0
C454 C 0.57105 0.32394 0.44753 0.0
C455 C 0.51463 0.30603 0.43861 0.0
C456 C 0.49193 0.34148 0.44134 0.0
C457 C 0.52658 0.3952 0.45231 0.0
C458 C 0.58341 0.41532 0.45854 0.0
C459 C 0.60905 0.46947 0.47499 0.0
C460 C 0.63702 0.46464 0.50336 0.0
C461 C 0.6514 0.52011 0.45652 0.0
C462 C 0.55655 0.4729 0.47996 0.0
C463 C 0.50963 0.431 0.4659 0.0
C464 C 0.45489 0.41952 0.47166 0.0
C465 C 0.44795 0.45027 0.49289 0.0
C466 C 0.49543 0.49152 0.50804 0.0
C467 C 0.55018 0.50434 0.50063 0.0
H468 H 0.40113 0.5944 0.93697 0.0
H469 H 0.58345 0.70437 0.93927 0.0
H470 H 0.5718 0.7839 0.95225 0.0
H471 H 0.37639 0.67828 0.89748 0.0
H472 H 0.31102 0.66486 0.91284 0.0
H473 H 0.33158 0.61232 0.91642 0.0
H474 H 0.32482 0.61193 0.97147 0.0
H475 H 0.30439 0.66524 0.96811 0.0
H476 H 0.36438 0.67723 0.99025 0.0
H477 H 0.54227 0.85615 0.95075 0.0
H478 H 0.49716 0.91196 0.93457 0.0
H479 H 0.33653 0.75695 0.92642 0.0
C480 C 0.43855 0.6347 0.9414 0.0
C481 C 0.49303 0.64304 0.93701 0.0
C482 C 0.54113 0.69638 0.94296 0.0
C483 C 0.53492 0.7421 0.95033 0.0
C484 C 0.48041 0.73381 0.95183 0.0
C485 C 0.43286 0.68096 0.94794 0.0
C486 C 0.3799 0.68513 0.94418 0.0
C487 C 0.34798 0.65867 0.91606 0.0
C488 C 0.34109 0.65829 0.97005 0.0
C489 C 0.40584 0.7487 0.94344 0.0
C490 C 0.46332 0.77615 0.94944 0.0
C491 C 0.49701 0.8351 0.94688 0.0
C492 C 0.47142 0.86645 0.93744 0.0
C493 C 0.41333 0.8385 0.92994 0.0
C494 C 0.38036 0.77922 0.9334 0.0
H495 H 0.87733 0.40604 0.15646 0.0
H496 H 0.85089 0.23685 0.1475 0.0
H497 H 0.76294 0.19744 0.17493 0.0
H498 H 0.84087 0.39787 0.22301 0.0
H499 H 0.80121 0.43421 0.21987 0.0
H500 H 0.8549 0.44916 0.19435 0.0
H501 H 0.78087 0.42027 0.15142 0.0
H502 H 0.73089 0.41282 0.17773 0.0
H503 H 0.71472 0.35536 0.15454 0.0
H504 H 0.68606 0.1783 0.20892 0.0
H505 H 0.62186 0.1805 0.24421 0.0
H506 H 0.69969 0.36201 0.23115 0.0
C507 C 0.85186 0.36045 0.15897 0.0
C508 C 0.87149 0.32467 0.14992 0.0
C509 C 0.83735 0.2653 0.15456 0.0
C510 C 0.78704 0.24243 0.16994 0.0
C511 C 0.77072 0.27933 0.17987 0.0
C512 C 0.80115 0.33689 0.17385 0.0
C513 C 0.77657 0.36773 0.18869 0.0
C514 C 0.82106 0.415 0.2076 0.0
C515 C 0.74918 0.39046 0.16684 0.0
C516 C 0.7314 0.31954 0.20619 0.0
C517 C 0.72724 0.26852 0.20001 0.0
C518 C 0.68858 0.21794 0.21363 0.0
C519 C 0.65283 0.21962 0.23376 0.0
C520 C 0.65669 0.27153 0.24035 0.0
C521 C 0.69622 0.322 0.22633 0.0
H522 H 0.31265 0.75616 0.08318 0.0
H523 H 1.15072 0.61095 0.05969 0.0
H524 H 1.15981 0.65143 0.01085 0.0
H525 H 0.29727 0.86133 0.04282 0.0
H526 H 0.37018 0.90098 0.03201 0.0
H527 H 0.35184 0.86062 0.06523 0.0
H528 H 0.40058 0.80585 0.04925 0.0
H529 H 0.41987 0.84687 0.01624 0.0
H530 H 0.38022 0.77065 0.01556 0.0
H531 H 0.1876 0.70583 0.96436 0.0
H532 H 0.2343 0.76887 0.92278 0.0
H533 H 0.3753 0.88145 0.97676 0.0
C534 C 0.27911 0.73275 0.06778 0.0
C535 C 0.23088 0.6804 0.07532 0.0
C536 C 0.1881 0.65108 0.05445 0.0
C537 C 0.19275 0.67381 0.02666 0.0
C538 C 0.24041 0.72585 0.02008 0.0
C539 C 0.28307 0.75476 0.03993 0.0
C540 C 0.33042 0.80937 0.02713 0.0
C541 C 0.33784 0.86113 0.04273 0.0
C542 C 0.38605 0.80808 0.02705 0.0
C543 C 0.3073 0.80701 0.99711 0.0
C544 C 0.25548 0.75831 0.99346 0.0
C545 C 0.22754 0.74475 0.96709 0.0
C546 C 0.25388 0.78135 0.94368 0.0
C547 C 0.30725 0.83132 0.94687 0.0
C548 C 0.33369 0.84452 0.97406 0.0
H549 H 0.68604 1.07385 0.39774 0.0
H550 H 0.85122 0.22427 0.40363 0.0
H551 H 0.83253 0.26179 0.35837 0.0
H552 H 0.67331 1.0725 0.31418 0.0
H553 H 0.59906 1.04934 0.31659 0.0
H554 H 0.63252 1.02607 0.3433 0.0
H555 H 0.59687 1.06399 0.38247 0.0
H556 H 0.56516 1.08931 0.35613 0.0
H557 H 0.61645 0.13769 0.38126 0.0
H558 H 0.78646 0.2945 0.3224 0.0
H559 H 0.7199 0.31522 0.29486 0.0
H560 H 0.58487 0.14258 0.30975 0.0
C561 C 0.71965 0.11256 0.38818 0.0
C562 C 0.77084 0.14534 0.4033 0.0
C563 C 0.81277 0.19777 0.39157 0.0
C564 C 0.80221 0.21952 0.36601 0.0
C565 C 0.74958 0.18805 0.35249 0.0
C566 C 0.70941 0.13483 0.36272 0.0
C567 C 0.65308 0.11394 0.34716 0.0
C568 C 0.63866 1.06241 0.32923 0.0
C569 C 0.60515 1.10049 0.36801 0.0
C570 C 0.66659 0.1653 0.32827 0.0
C571 C 0.72267 0.20725 0.33131 0.0
C572 C 0.74299 0.26134 0.31912 0.0
C573 C 0.70497 0.27292 0.30372 0.0
C574 C 0.64734 0.2308 0.30073 0.0
C575 C 0.62857 0.17578 0.31223 0.0
H576 H 0.60249 0.58801 0.74176 0.0
H577 H 0.69636 0.50015 0.73476 0.0
H578 H 0.65521 0.46992 0.68626 0.0
H579 H 0.4759 0.49055 0.70445 0.0
H580 H 0.46683 0.54511 0.68652 0.0
H581 H 0.50189 0.55789 0.72093 0.0
H582 H 0.5903 0.64708 0.70016 0.0
H583 H 0.55483 0.63512 0.66593 0.0
H584 H 0.62327 0.64066 0.66895 0.0
H585 H 0.60463 0.45119 0.63818 0.0
H586 H 0.5585 0.45527 0.59254 0.0
H587 H 0.4988 0.55591 0.63142 0.0
C588 C 0.61414 0.56211 0.73008 0.0
C589 C 0.65205 0.54582 0.74196 0.0
C590 C 0.66736 0.51303 0.72589 0.0
C591 C 0.64387 0.49536 0.6985 0.0
C592 C 0.60583 0.51152 0.68755 0.0
C593 C 0.59194 0.54504 0.70268 0.0
C594 C 0.5533 0.56007 0.68551 0.0
C595 C 0.49609 0.53701 0.70024 0.0
C596 C 0.58215 0.62453 0.67981 0.0
C597 C 0.54688 0.52918 0.65842 0.0
C598 C 0.57714 0.50107 0.66001 0.0
C599 C 0.58008 0.47227 0.63687 0.0
C600 C 0.55301 0.47396 0.61119 0.0
C601 C 0.52363 0.50434 0.60895 0.0
C602 C 0.51958 0.53106 0.63305 0.0
H603 H 0.82417 0.15088 0.59663 0.0
H604 H 0.66056 1.00858 0.57369 0.0
H605 H 0.64179 0.97932 0.62463 0.0
H606 H 0.85542 1.08341 0.65979 0.0
H607 H 0.88558 0.14708 0.68008 0.0
H608 H 0.89048 0.15177 0.64169 0.0
H609 H 0.84263 0.21313 0.63914 0.0
H610 H 0.83824 0.20907 0.67745 0.0
H611 H 0.7751 0.18678 0.65586 0.0
H612 H 0.63704 0.96996 0.67827 0.0
H613 H 0.64201 0.98849 0.73001 0.0
H614 H 0.80574 0.13909 0.71861 0.0
C615 C 0.78502 0.1129 0.60241 0.0
C616 C 0.74399 1.08158 0.5813 0.0
C617 C 0.69252 1.03304 0.5896 0.0
C618 C 0.68171 1.01586 0.61846 0.0
C619 C 0.72253 1.04804 0.6389 0.0
C620 C 0.77294 1.09595 0.63128 0.0
C621 C 0.80648 0.12697 0.65757 0.0
C622 C 0.86284 0.12731 0.65991 0.0
C623 C 0.81615 0.18755 0.65749 0.0
C624 C 0.76648 1.08997 0.68105 0.0
C625 C 0.71892 1.04382 0.66988 0.0
C626 C 0.67443 1.00554 0.68728 0.0
C627 C 0.67764 1.01597 0.71661 0.0
C628 C 0.72445 1.06466 0.72811 0.0
C629 C 0.7701 1.101 0.71024 0.0
H630 H 0.68479 0.53947 0.92783 0.0
H631 H 0.83705 0.69974 0.90928 0.0
H632 H 0.85585 0.71483 0.96137 0.0
H633 H 0.64105 0.58593 0.98438 0.0
H634 H 0.61236 0.51988 0.00451 0.0
H635 H 0.61544 0.52032 0.96624 0.0
H636 H 0.67263 0.46802 0.97066 0.0
H637 H 0.67012 0.46791 0.00905 0.0
H638 H 0.73738 0.49813 0.99157 0.0
H639 H 0.85108 0.71565 0.01649 0.0
H640 H 0.82137 0.7033 0.06712 0.0
H641 H 0.67486 0.54134 0.04796 0.0
C642 C 0.72272 0.57752 0.93451 0.0
C643 C 0.75957 0.61838 0.91433 0.0
C644 C 0.80834 0.66765 0.92428 0.0
C645 C 0.81936 0.67647 0.95385 0.0
C646 C 0.78151 0.63537 0.97314 0.0
C647 C 0.73427 0.58678 0.96367 0.0
C648 C 0.6976 0.55062 0.98816 0.0
C649 C 0.63814 0.54382 0.98567 0.0
C650 C 0.69427 0.49275 0.98996 0.0
C651 C 0.73087 0.58662 0.0131 0.0
C652 C 0.77939 0.63531 0.00424 0.0
C653 C 0.8138 0.67712 0.0236 0.0
C654 C 0.79704 0.66968 0.05234 0.0
C655 C 0.74644 0.62094 0.06131 0.0
C656 C 0.71435 0.5783 0.0416 0.0
H657 H 0.18246 0.65006 0.25976 0.0
H658 H 0.17006 0.48915 0.24323 0.0
H659 H 0.16964 0.4695 0.29527 0.0
H660 H 0.27867 0.68572 0.31648 0.0
H661 H 0.24953 0.7195 0.33666 0.0
H662 H 0.24137 0.71704 0.29842 0.0
H663 H 1.13246 0.66862 0.30347 0.0
H664 H 1.14037 0.67063 0.34183 0.0
H665 H 1.09534 0.60421 0.32478 0.0
H666 H 0.18167 0.47268 0.34933 0.0
H667 H 0.20922 0.50077 0.39957 0.0
H668 H 0.21148 0.65791 0.38078 0.0
C669 C 0.17837 0.61005 0.267 0.0
C670 C 0.17585 0.57093 0.24729 0.0
C671 C 0.17175 0.51968 0.25783 0.0
C672 C 0.17127 0.50805 0.28739 0.0
C673 C 0.17465 0.54796 0.30623 0.0
C674 C 0.17807 0.59794 0.29637 0.0
C675 C 0.18629 0.63613 0.32082 0.0
C676 C 0.24228 0.69292 0.31791 0.0
C677 C 1.13558 0.64543 0.32284 0.0
C678 C 0.18847 0.60061 0.34597 0.0
C679 C 0.18095 0.54952 0.33723 0.0
C680 C 0.18619 0.51192 0.35646 0.0
C681 C 0.20113 0.52776 0.38505 0.0
C682 C 0.21057 0.58055 0.39411 0.0
C683 C 0.20269 0.61657 0.37443 0.0
loop_
_geom_bond_atom_site_label_1
_geom_bond_atom_site_label_2
_geom_bond_distance
_geom_bond_site_symmetry_2
_ccdc_geom_bond_type
Eu0 C9 2.828 . S
Eu0 O11 2.392 1_655 S
Eu0 O13 2.418 . S
Eu0 O18 2.373 . S
Eu0 O21 2.488 . S
Eu0 O22 2.471 . S
Eu0 O23 2.349 . S
Eu1 O10 2.373 . S
Eu1 O14 2.488 . S
Eu1 O15 2.471 . S
Eu1 O16 2.349 . S
Eu1 O19 2.392 1_455 S
Eu1 O20 2.418 . S
Eu1 C30 2.828 . S
C2 O20 1.244 . S
C2 O23 1.265 1_455 S
C3 C4 1.379 . S
C3 C7 1.373 . S
C3 C9 1.505 . S
C4 C3 1.379 . S
C4 C6 1.369 . S
C4 H32 0.930 . S
C5 C7 1.383 . S
C5 C8 1.382 . S
C5 H33 0.930 . S
C6 C4 1.369 . S
C6 C8 1.392 . S
C6 H34 0.930 . S
C7 C3 1.373 . S
C7 C5 1.383 . S
C7 H35 0.931 . S
C8 C5 1.382 . S
C8 C6 1.392 . S
C9 Eu0 2.828 . S
C9 C3 1.505 . S
C9 O21 1.249 . S
C9 O22 1.244 . S
O10 Eu1 2.373 . S
O10 C12 1.258 . S
O11 Eu0 2.392 1_455 S
O11 C12 1.242 . S
C12 O10 1.258 . S
C12 O11 1.242 . S
O13 Eu0 2.418 . S
O13 C17 1.244 . S
O14 Eu1 2.488 . S
O14 C30 1.249 . S
O15 Eu1 2.471 . S
O15 C30 1.244 . S
O16 Eu1 2.349 . S
O16 C17 1.265 1_455 S
C17 O13 1.244 . S
C17 O16 1.265 1_655 S
O18 Eu0 2.373 . S
O18 C31 1.258 . S
O19 Eu1 2.392 1_655 S
O19 C31 1.242 . S
O20 Eu1 2.418 . S
O20 C2 1.244 . S
O21 Eu0 2.488 . S
O21 C9 1.249 . S
O22 Eu0 2.471 . S
O22 C9 1.244 . S
O23 Eu0 2.349 . S
O23 C2 1.265 1_655 S
C24 C25 1.379 . S
C24 C28 1.373 . S
C24 C30 1.505 . S
C25 C24 1.379 . S
C25 C27 1.369 . S
C25 H36 0.930 . S
C26 C28 1.383 . S
C26 C29 1.382 . S
C26 H37 0.930 . S
C27 C25 1.369 . S
C27 C29 1.392 . S
C27 H38 0.930 . S
C28 C24 1.373 . S
C28 C26 1.383 . S
C28 H39 0.931 . S
C29 C26 1.382 . S
C29 C27 1.392 . S
C30 Eu1 2.828 . S
C30 O14 1.249 . S
C30 O15 1.244 . S
C30 C24 1.505 . S
C31 O18 1.258 . S
C31 O19 1.242 . S
H32 C4 0.930 . S
H33 C5 0.930 . S
H34 C6 0.930 . S
H35 C7 0.931 . S
H36 C25 0.930 . S
H37 C26 0.930 . S
H38 C27 0.930 . S
H39 C28 0.931 . S
Eu40 C49 2.828 . S
Eu40 O51 2.392 1_565 S
Eu40 O53 2.422 . S
Eu40 O58 2.373 . S
Eu40 O61 2.488 . S
Eu40 O62 2.471 . S
Eu40 O63 2.349 1_565 S
Eu41 O50 2.373 . S
Eu41 O54 2.488 . S
Eu41 O55 2.471 . S
Eu41 O56 2.349 . S
Eu41 O59 2.392 1_545 S
Eu41 O60 2.418 . S
Eu41 C70 2.828 . S
C42 O60 1.244 . S
C42 O63 1.265 . S
C43 C44 1.379 . S
C43 C47 1.373 . S
C43 C49 1.505 . S
C44 C43 1.379 . S
C44 C46 1.369 . S
C44 H72 0.930 . S
C45 C47 1.383 . S
C45 C48 1.382 . S
C45 H73 0.930 . S
C46 C44 1.369 . S
C46 C48 1.392 . S
C46 H74 0.930 . S
C47 C43 1.373 . S
C47 C45 1.383 . S
C47 H75 0.931 . S
C48 C45 1.382 . S
C48 C46 1.392 . S
C49 Eu40 2.828 . S
C49 C43 1.505 . S
C49 O61 1.249 . S
C49 O62 1.244 . S
O50 Eu41 2.373 . S
O50 C52 1.258 . S
O51 Eu40 2.392 1_545 S
O51 C52 1.242 . S
C52 O50 1.258 . S
C52 O51 1.242 . S
O53 Eu40 2.422 . S
O53 C57 1.221 1_565 S
O54 Eu41 2.488 . S
O54 C70 1.249 . S
O55 Eu41 2.471 . S
O55 C70 1.244 . S
O56 Eu41 2.349 . S
O56 C57 1.265 . S
C57 O53 1.221 1_545 S
C57 O56 1.265 . S
O58 Eu40 2.373 . S
O58 C71 1.258 . S
O59 Eu41 2.392 1_565 S
O59 C71 1.242 . S
O60 Eu41 2.418 . S
O60 C42 1.244 . S
O61 Eu40 2.488 . S
O61 C49 1.249 . S
O62 Eu40 2.471 . S
O62 C49 1.244 . S
O63 Eu40 2.349 1_545 S
O63 C42 1.265 . S
C64 C65 1.379 . S
C64 C68 1.373 . S
C64 C70 1.505 . S
C65 C64 1.379 . S
C65 C67 1.369 . S
C65 H76 0.930 . S
C66 C68 1.383 . S
C66 C69 1.382 . S
C66 H77 0.930 . S
C67 C65 1.369 . S
C67 C69 1.392 . S
C67 H78 0.930 . S
C68 C64 1.373 . S
C68 C66 1.383 . S
C68 H79 0.931 . S
C69 C66 1.382 . S
C69 C67 1.392 . S
C70 Eu41 2.828 . S
C70 O54 1.249 . S
C70 O55 1.244 . S
C70 C64 1.505 . S
C71 O58 1.258 . S
C71 O59 1.242 . S
H72 C44 0.930 . S
H73 C45 0.930 . S
H74 C46 0.930 . S
H75 C47 0.931 . S
H76 C65 0.930 . S
H77 C66 0.930 . S
H78 C67 0.930 . S
H79 C68 0.931 . S
Eu80 C89 2.828 . S
Eu80 O91 2.392 . S
Eu80 O93 2.418 . S
Eu80 O98 2.373 . S
Eu80 O101 2.488 . S
Eu80 O102 2.471 . S
Eu80 O103 2.349 . S
Eu81 O90 2.373 . S
Eu81 O94 2.488 . S
Eu81 O95 2.471 . S
Eu81 O96 2.349 . S
Eu81 O99 2.392 . S
Eu81 O100 2.418 . S
Eu81 C110 2.828 . S
C82 O100 1.244 . S
C82 O103 1.265 . S
C83 C84 1.379 . S
C83 C87 1.373 . S
C83 C89 1.505 . S
C84 C83 1.379 . S
C84 C86 1.369 . S
C84 H112 0.930 . S
C85 C87 1.383 . S
C85 C88 1.382 . S
C85 H113 0.930 . S
C86 C84 1.369 . S
C86 C88 1.392 . S
C86 H114 0.930 . S
C87 C83 1.373 . S
C87 C85 1.383 . S
C87 H115 0.931 . S
C88 C85 1.382 . S
C88 C86 1.392 . S
C89 Eu80 2.828 . S
C89 C83 1.505 . S
C89 O101 1.249 . S
C89 O102 1.244 . S
O90 Eu81 2.373 . S
O90 C92 1.258 . S
O91 Eu80 2.392 . S
O91 C92 1.242 . S
C92 O90 1.258 . S
C92 O91 1.242 . S
O93 Eu80 2.418 . S
O93 C97 1.244 . S
O94 Eu81 2.488 . S
O94 C110 1.249 . S
O95 Eu81 2.471 . S
O95 C110 1.244 . S
O96 Eu81 2.349 . S
O96 C97 1.265 . S
C97 O93 1.244 . S
C97 O96 1.265 . S
O98 Eu80 2.373 . S
O98 C111 1.258 . S
O99 Eu81 2.392 . S
O99 C111 1.242 . S
O100 Eu81 2.418 . S
O100 C82 1.244 . S
O101 Eu80 2.488 . S
O101 C89 1.249 . S
O102 Eu80 2.471 . S
O102 C89 1.244 . S
O103 Eu80 2.349 . S
O103 C82 1.265 . S
C104 C105 1.379 . S
C104 C108 1.373 . S
C104 C110 1.505 . S
C105 C104 1.379 . S
C105 C107 1.369 . S
C105 H116 0.930 . S
C106 C108 1.383 . S
C106 C109 1.382 . S
C106 H117 0.930 . S
C107 C105 1.369 . S
C107 C109 1.392 . S
C107 H118 0.930 . S
C108 C104 1.373 . S
C108 C106 1.383 . S
C108 H119 0.931 . S
C109 C106 1.382 . S
C109 C107 1.392 . S
C110 Eu81 2.828 . S
C110 O94 1.249 . S
C110 O95 1.244 . S
C110 C104 1.505 . S
C111 O98 1.258 . S
C111 O99 1.242 . S
H112 C84 0.930 . S
H113 C85 0.930 . S
H114 C86 0.930 . S
H115 C87 0.931 . S
H116 C105 0.930 . S
H117 C106 0.930 . S
H118 C107 0.930 . S
H119 C108 0.931 . S
C120 N121 1.317 . S
C120 N122 1.348 1_545 S
C120 C123 1.485 . S
N121 C120 1.317 . S
N121 N125 1.370 . S
N122 C120 1.348 1_565 S
N122 C124 1.346 . S
C123 C120 1.485 . S
C123 H127 0.960 . S
C123 H128 0.961 1_545 S
C123 H129 0.960 . S
C124 N122 1.346 . S
C124 N125 1.307 1_565 S
C124 C126 1.486 . S
N125 N121 1.370 . S
N125 C124 1.307 1_545 S
C126 C124 1.486 . S
C126 H130 0.960 . S
C126 H131 0.960 . S
C126 H132 0.959 . S
H127 C123 0.960 . S
H128 C123 0.961 1_565 S
H129 C123 0.960 . S
H130 C126 0.960 . S
H131 C126 0.960 . S
H132 C126 0.959 . S
C133 N134 1.317 . S
C133 N135 1.348 . S
C133 C136 1.485 . S
N134 C133 1.317 . S
N134 N138 1.370 . S
N135 C133 1.348 . S
N135 C137 1.346 . S
C136 C133 1.485 . S
C136 H140 0.960 . S
C136 H141 0.961 . S
C136 H142 0.960 . S
C137 N135 1.346 . S
C137 N138 1.307 . S
C137 C139 1.486 . S
N138 N134 1.370 . S
N138 C137 1.307 . S
C139 C137 1.486 . S
C139 H143 0.960 . S
C139 H144 0.960 . S
C139 H145 0.959 . S
H140 C136 0.960 . S
H141 C136 0.961 . S
H142 C136 0.960 . S
H143 C139 0.960 . S
H144 C139 0.960 . S
H145 C139 0.959 . S
C146 N147 1.317 . S
C146 N148 1.348 1_455 S
C146 C149 1.485 . S
N147 C146 1.317 . S
N147 N151 1.370 . S
N148 C146 1.348 1_655 S
N148 C150 1.346 . S
C149 C146 1.485 . S
C149 H153 0.960 . S
C149 H154 0.961 . S
C149 H155 0.960 . S
C150 N148 1.346 . S
C150 N151 1.307 1_655 S
C150 C152 1.486 . S
N151 N147 1.370 . S
N151 C150 1.307 1_455 S
C152 C150 1.486 . S
C152 H156 0.960 . S
C152 H157 0.960 . S
C152 H158 0.959 . S
H153 C149 0.960 . S
H154 C149 0.961 . S
H155 C149 0.960 . S
H156 C152 0.960 . S
H157 C152 0.960 . S
H158 C152 0.959 . S
C159 N160 1.317 . S
C159 N161 1.348 . S
C159 C162 1.485 . S
N160 C159 1.317 . S
N160 N164 1.370 . S
N161 C159 1.348 . S
N161 C163 1.346 . S
C162 C159 1.485 . S
C162 H166 0.960 . S
C162 H167 0.961 . S
C162 H168 0.960 . S
C163 N161 1.346 . S
C163 N164 1.307 . S
C163 C165 1.486 . S
N164 N160 1.370 . S
N164 C163 1.307 . S
C165 C163 1.486 . S
C165 H169 0.960 . S
C165 H170 0.960 . S
C165 H171 0.959 . S
H166 C162 0.960 . S
H167 C162 0.961 . S
H168 C162 0.960 . S
H169 C165 0.960 . S
H170 C165 0.960 . S
H171 C165 0.959 . S
C172 N173 1.317 . S
C172 N174 1.348 . S
C172 C175 1.485 . S
N173 C172 1.317 . S
N173 N177 1.370 . S
N174 C172 1.348 . S
N174 C176 1.346 . S
C175 C172 1.485 . S
C175 H179 0.960 . S
C175 H180 0.961 . S
C175 H181 0.960 . S
C176 N174 1.346 . S
C176 N177 1.307 . S
C176 C178 1.486 . S
N177 N173 1.370 . S
N177 C176 1.307 . S
C178 C176 1.486 . S
C178 H182 0.960 . S
C178 H183 0.960 . S
C178 H184 0.959 . S
H179 C175 0.960 . S
H180 C175 0.961 . S
H181 C175 0.960 . S
H182 C178 0.960 . S
H183 C178 0.960 . S
H184 C178 0.959 . S
C185 N186 1.317 . S
C185 N187 1.348 . S
C185 C188 1.485 . S
N186 C185 1.317 . S
N186 N190 1.370 . S
N187 C185 1.348 . S
N187 C189 1.346 . S
C188 C185 1.485 . S
C188 H192 0.960 . S
C188 H193 0.961 . S
C188 H194 0.960 . S
C189 N187 1.346 . S
C189 N190 1.307 . S
C189 C191 1.486 . S
N190 N186 1.370 . S
N190 C189 1.307 . S
C191 C189 1.486 . S
C191 H195 0.960 . S
C191 H196 0.960 . S
C191 H197 0.959 . S
H192 C188 0.960 . S
H193 C188 0.961 . S
H194 C188 0.960 . S
H195 C191 0.960 . S
H196 C191 0.960 . S
H197 C191 0.959 . S
H198 C210 0.930 . S
H199 C212 0.930 . S
H200 C213 0.930 . S
H201 C217 0.959 . S
H202 C217 0.959 . S
H203 C217 0.961 . S
H204 C218 0.960 . S
H205 C218 0.961 . S
H206 C218 0.959 . S
H207 C221 0.929 . S
H208 C222 0.931 . S
H209 C224 0.930 . S
C210 H198 0.930 . S
C210 C211 1.399 . S
C210 C215 1.399 . S
C211 C210 1.399 . S
C211 C212 1.376 . S
C212 H199 0.930 . S
C212 C211 1.376 . S
C212 C213 1.388 . S
C213 H200 0.930 . S
C213 C212 1.388 . S
C213 C214 1.390 . S
C214 C213 1.390 . S
C214 C215 1.394 . S
C214 C220 1.465 . S
C215 C210 1.399 . S
C215 C214 1.394 . S
C215 C216 1.516 . S
C216 C215 1.516 . S
C216 C217 1.502 . S
C216 C218 1.561 . S
C216 C219 1.526 . S
C217 H201 0.959 . S
C217 H202 0.959 . S
C217 H203 0.961 . S
C217 C216 1.502 . S
C218 H204 0.960 . S
C218 H205 0.961 . S
C218 H206 0.959 . S
C218 C216 1.561 . S
C219 C216 1.526 . S
C219 C220 1.396 . S
C219 C224 1.390 . S
C220 C214 1.465 . S
C220 C219 1.396 . S
C220 C221 1.399 . S
C221 H207 0.929 . S
C221 C220 1.399 . S
C221 C222 1.385 . S
C222 H208 0.931 . S
C222 C221 1.385 . S
C222 C223 1.389 . S
C223 C222 1.389 . S
C223 C224 1.387 . S
C224 H209 0.930 . S
C224 C219 1.390 . S
C224 C223 1.387 . S
H225 C237 0.930 . S
H226 C239 0.930 . S
H227 C240 0.930 . S
H228 C244 0.959 . S
H229 C244 0.959 . S
H230 C244 0.961 . S
H231 C245 0.960 . S
H232 C245 0.961 . S
H233 C245 0.959 . S
H234 C248 0.929 . S
H235 C249 0.931 . S
H236 C251 0.930 . S
C237 H225 0.930 . S
C237 C238 1.399 . S
C237 C242 1.399 . S
C238 C237 1.399 . S
C238 C239 1.376 . S
C239 H226 0.930 . S
C239 C238 1.376 . S
C239 C240 1.388 . S
C240 H227 0.930 . S
C240 C239 1.388 . S
C240 C241 1.390 . S
C241 C240 1.390 . S
C241 C242 1.394 . S
C241 C247 1.465 . S
C242 C237 1.399 . S
C242 C241 1.394 . S
C242 C243 1.516 . S
C243 C242 1.516 . S
C243 C244 1.502 . S
C243 C245 1.561 . S
C243 C246 1.526 . S
C244 H228 0.959 . S
C244 H229 0.959 . S
C244 H230 0.961 . S
C244 C243 1.502 . S
C245 H231 0.960 . S
C245 H232 0.961 . S
C245 H233 0.959 . S
C245 C243 1.561 . S
C246 C243 1.526 . S
C246 C247 1.396 . S
C246 C251 1.390 . S
C247 C241 1.465 . S
C247 C246 1.396 . S
C247 C248 1.399 . S
C248 H234 0.929 . S
C248 C247 1.399 . S
C248 C249 1.385 . S
C249 H235 0.931 . S
C249 C248 1.385 . S
C249 C250 1.389 . S
C250 C249 1.389 . S
C250 C251 1.387 . S
C251 H236 0.930 . S
C251 C246 1.390 . S
C251 C250 1.387 . S
H252 C264 0.930 . S
H253 C266 0.930 . S
H254 C267 0.930 . S
H255 C271 0.959 . S
H256 C271 0.959 . S
H257 C271 0.961 . S
H258 C272 0.960 . S
H259 C272 0.961 . S
H260 C272 0.959 . S
H261 C275 0.929 . S
H262 C276 0.931 . S
H263 C278 0.930 . S
C264 H252 0.930 . S
C264 C265 1.399 . S
C264 C269 1.399 . S
C265 C264 1.399 . S
C265 C266 1.376 . S
C266 H253 0.930 . S
C266 C265 1.376 . S
C266 C267 1.388 . S
C267 H254 0.930 . S
C267 C266 1.388 . S
C267 C268 1.390 . S
C268 C267 1.390 . S
C268 C269 1.394 . S
C268 C274 1.465 . S
C269 C264 1.399 . S
C269 C268 1.394 . S
C269 C270 1.516 . S
C270 C269 1.516 . S
C270 C271 1.502 . S
C270 C272 1.561 . S
C270 C273 1.526 . S
C271 H255 0.959 . S
C271 H256 0.959 . S
C271 H257 0.961 . S
C271 C270 1.502 . S
C272 H258 0.960 . S
C272 H259 0.961 . S
C272 H260 0.959 . S
C272 C270 1.561 . S
C273 C270 1.526 . S
C273 C274 1.396 . S
C273 C278 1.390 . S
C274 C268 1.465 . S
C274 C273 1.396 . S
C274 C275 1.399 . S
C275 H261 0.929 . S
C275 C274 1.399 . S
C275 C276 1.385 . S
C276 H262 0.931 . S
C276 C275 1.385 . S
C276 C277 1.389 . S
C277 C276 1.389 . S
C277 C278 1.387 . S
C278 H263 0.930 . S
C278 C273 1.390 . S
C278 C277 1.387 . S
H279 C291 0.930 . S
H280 C293 0.930 . S
H281 C294 0.930 . S
H282 C298 0.959 . S
H283 C298 0.959 . S
H284 C298 0.961 . S
H285 C299 0.960 . S
H286 C299 0.961 . S
H287 C299 0.959 . S
H288 C302 0.929 . S
H289 C303 0.931 . S
H290 C305 0.930 . S
C291 H279 0.930 . S
C291 C292 1.399 . S
C291 C296 1.399 . S
C292 C291 1.399 . S
C292 C293 1.376 . S
C293 H280 0.930 . S
C293 C292 1.376 . S
C293 C294 1.388 . S
C294 H281 0.930 . S
C294 C293 1.388 . S
C294 C295 1.390 . S
C295 C294 1.390 . S
C295 C296 1.394 . S
C295 C301 1.465 . S
C296 C291 1.399 . S
C296 C295 1.394 . S
C296 C297 1.516 . S
C297 C296 1.516 . S
C297 C298 1.502 . S
C297 C299 1.561 . S
C297 C300 1.526 . S
C298 H282 0.959 . S
C298 H283 0.959 . S
C298 H284 0.961 . S
C298 C297 1.502 . S
C299 H285 0.960 . S
C299 H286 0.961 . S
C299 H287 0.959 . S
C299 C297 1.561 . S
C300 C297 1.526 . S
C300 C301 1.396 . S
C300 C305 1.390 . S
C301 C295 1.465 . S
C301 C300 1.396 . S
C301 C302 1.399 . S
C302 H288 0.929 . S
C302 C301 1.399 . S
C302 C303 1.385 . S
C303 H289 0.931 . S
C303 C302 1.385 . S
C303 C304 1.389 . S
C304 C303 1.389 . S
C304 C305 1.387 . S
C305 H290 0.930 . S
C305 C300 1.390 . S
C305 C304 1.387 . S
H306 C318 0.930 . S
H307 C320 0.930 . S
H308 C321 0.930 . S
H309 C325 0.959 . S
H310 C325 0.959 . S
H311 C325 0.961 . S
H312 C326 0.960 . S
H313 C326 0.961 . S
H314 C326 0.959 . S
H315 C329 0.929 . S
H316 C330 0.931 . S
H317 C332 0.930 . S
C318 H306 0.930 . S
C318 C319 1.399 . S
C318 C323 1.399 . S
C319 C318 1.399 . S
C319 C320 1.376 . S
C320 H307 0.930 . S
C320 C319 1.376 . S
C320 C321 1.388 . S
C321 H308 0.930 . S
C321 C320 1.388 . S
C321 C322 1.390 . S
C322 C321 1.390 . S
C322 C323 1.394 . S
C322 C328 1.465 . S
C323 C318 1.399 . S
C323 C322 1.394 . S
C323 C324 1.516 . S
C324 C323 1.516 . S
C324 C325 1.502 . S
C324 C326 1.561 . S
C324 C327 1.526 . S
C325 H309 0.959 . S
C325 H310 0.959 . S
C325 H311 0.961 . S
C325 C324 1.502 . S
C326 H312 0.960 . S
C326 H313 0.961 . S
C326 H314 0.959 . S
C326 C324 1.561 . S
C327 C324 1.526 . S
C327 C328 1.396 . S
C327 C332 1.390 . S
C328 C322 1.465 . S
C328 C327 1.396 . S
C328 C329 1.399 . S
C329 H315 0.929 . S
C329 C328 1.399 . S
C329 C330 1.385 . S
C330 H316 0.931 . S
C330 C329 1.385 . S
C330 C331 1.389 . S
C331 C330 1.389 . S
C331 C332 1.387 . S
C332 H317 0.930 . S
C332 C327 1.390 . S
C332 C331 1.387 . S
H333 C345 0.930 . S
H334 C347 0.930 . S
H335 C348 0.930 . S
H336 C352 0.959 . S
H337 C352 0.959 . S
H338 C352 0.961 . S
H339 C353 0.960 . S
H340 C353 0.961 . S
H341 C353 0.959 . S
H342 C356 0.929 . S
H343 C357 0.931 . S
H344 C359 0.930 . S
C345 H333 0.930 . S
C345 C346 1.399 . S
C345 C350 1.399 . S
C346 C345 1.399 . S
C346 C347 1.376 . S
C347 H334 0.930 . S
C347 C346 1.376 . S
C347 C348 1.388 . S
C348 H335 0.930 . S
C348 C347 1.388 . S
C348 C349 1.390 . S
C349 C348 1.390 . S
C349 C350 1.394 . S
C349 C355 1.465 . S
C350 C345 1.399 . S
C350 C349 1.394 . S
C350 C351 1.516 . S
C351 C350 1.516 . S
C351 C352 1.502 . S
C351 C353 1.561 . S
C351 C354 1.526 . S
C352 H336 0.959 . S
C352 H337 0.959 . S
C352 H338 0.961 . S
C352 C351 1.502 . S
C353 H339 0.960 . S
C353 H340 0.961 . S
C353 H341 0.959 . S
C353 C351 1.561 . S
C354 C351 1.526 . S
C354 C355 1.396 . S
C354 C359 1.390 . S
C355 C349 1.465 . S
C355 C354 1.396 . S
C355 C356 1.399 . S
C356 H342 0.929 . S
C356 C355 1.399 . S
C356 C357 1.385 . S
C357 H343 0.931 . S
C357 C356 1.385 . S
C357 C358 1.389 . S
C358 C357 1.389 . S
C358 C359 1.387 . S
C359 H344 0.930 . S
C359 C354 1.390 . S
C359 C358 1.387 . S
H360 C372 0.930 . S
H361 C374 0.930 . S
H362 C375 0.930 . S
H363 C379 0.959 . S
H364 C379 0.959 . S
H365 C379 0.961 . S
H366 C380 0.960 . S
H367 C380 0.961 . S
H368 C380 0.959 . S
H369 C383 0.929 . S
H370 C384 0.931 . S
H371 C386 0.930 . S
C372 H360 0.930 . S
C372 C373 1.399 . S
C372 C377 1.399 . S
C373 C372 1.399 . S
C373 C374 1.376 . S
C374 H361 0.930 . S
C374 C373 1.376 . S
C374 C375 1.388 . S
C375 H362 0.930 . S
C375 C374 1.388 . S
C375 C376 1.390 . S
C376 C375 1.390 . S
C376 C377 1.394 . S
C376 C382 1.465 . S
C377 C372 1.399 . S
C377 C376 1.394 . S
C377 C378 1.516 . S
C378 C377 1.516 . S
C378 C379 1.502 . S
C378 C380 1.561 . S
C378 C381 1.526 . S
C379 H363 0.959 . S
C379 H364 0.959 . S
C379 H365 0.961 . S
C379 C378 1.502 . S
C380 H366 0.960 . S
C380 H367 0.961 . S
C380 H368 0.959 . S
C380 C378 1.561 . S
C381 C378 1.526 . S
C381 C382 1.396 . S
C381 C386 1.390 . S
C382 C376 1.465 . S
C382 C381 1.396 . S
C382 C383 1.399 . S
C383 H369 0.929 . S
C383 C382 1.399 . S
C383 C384 1.385 . S
C384 H370 0.931 . S
C384 C383 1.385 . S
C384 C385 1.389 . S
C385 C384 1.389 . S
C385 C386 1.387 . S
C386 H371 0.930 . S
C386 C381 1.390 . S
C386 C385 1.387 . S
H387 C399 0.930 . S
H388 C401 0.930 . S
H389 C402 0.930 . S
H390 C406 0.959 . S
H391 C406 0.959 . S
H392 C406 0.961 . S
H393 C407 0.960 . S
H394 C407 0.961 . S
H395 C407 0.959 . S
H396 C410 0.929 . S
H397 C411 0.931 . S
H398 C413 0.930 . S
C399 H387 0.930 . S
C399 C400 1.399 . S
C399 C404 1.399 . S
C400 C399 1.399 . S
C400 C401 1.376 . S
C401 H388 0.930 . S
C401 C400 1.376 . S
C401 C402 1.388 . S
C402 H389 0.930 . S
C402 C401 1.388 . S
C402 C403 1.390 . S
C403 C402 1.390 . S
C403 C404 1.394 . S
C403 C409 1.465 . S
C404 C399 1.399 . S
C404 C403 1.394 . S
C404 C405 1.516 . S
C405 C404 1.516 . S
C405 C406 1.502 . S
C405 C407 1.561 . S
C405 C408 1.526 . S
C406 H390 0.959 . S
C406 H391 0.959 . S
C406 H392 0.961 . S
C406 C405 1.502 . S
C407 H393 0.960 . S
C407 H394 0.961 . S
C407 H395 0.959 . S
C407 C405 1.561 . S
C408 C405 1.526 . S
C408 C409 1.396 . S
C408 C413 1.390 . S
C409 C403 1.465 . S
C409 C408 1.396 . S
C409 C410 1.399 . S
C410 H396 0.929 . S
C410 C409 1.399 . S
C410 C411 1.385 . S
C411 H397 0.931 . S
C411 C410 1.385 . S
C411 C412 1.389 . S
C412 C411 1.389 . S
C412 C413 1.387 . S
C413 H398 0.930 . S
C413 C408 1.390 . S
C413 C412 1.387 . S
H414 C426 0.930 . S
H415 C428 0.930 . S
H416 C429 0.930 . S
H417 C433 0.959 . S
H418 C433 0.959 . S
H419 C433 0.961 . S
H420 C434 0.960 . S
H421 C434 0.961 . S
H422 C434 0.959 . S
H423 C437 0.929 . S
H424 C438 0.931 . S
H425 C440 0.930 . S
C426 H414 0.930 . S
C426 C427 1.399 . S
C426 C431 1.399 . S
C427 C426 1.399 . S
C427 C428 1.376 . S
C428 H415 0.930 . S
C428 C427 1.376 . S
C428 C429 1.388 . S
C429 H416 0.930 . S
C429 C428 1.388 . S
C429 C430 1.390 . S
C430 C429 1.390 . S
C430 C431 1.394 . S
C430 C436 1.465 . S
C431 C426 1.399 . S
C431 C430 1.394 . S
C431 C432 1.516 . S
C432 C431 1.516 . S
C432 C433 1.502 . S
C432 C434 1.561 . S
C432 C435 1.526 . S
C433 H417 0.959 . S
C433 H418 0.959 . S
C433 H419 0.961 . S
C433 C432 1.502 . S
C434 H420 0.960 . S
C434 H421 0.961 . S
C434 H422 0.959 . S
C434 C432 1.561 . S
C435 C432 1.526 . S
C435 C436 1.396 . S
C435 C440 1.390 . S
C436 C430 1.465 . S
C436 C435 1.396 . S
C436 C437 1.399 . S
C437 H423 0.929 . S
C437 C436 1.399 . S
C437 C438 1.385 . S
C438 H424 0.931 . S
C438 C437 1.385 . S
C438 C439 1.389 . S
C439 C438 1.389 . S
C439 C440 1.387 . S
C440 H425 0.930 . S
C440 C435 1.390 . S
C440 C439 1.387 . S
H441 C453 0.930 . S
H442 C455 0.930 . S
H443 C456 0.930 . S
H444 C460 0.959 . S
H445 C460 0.959 . S
H446 C460 0.961 . S
H447 C461 0.960 . S
H448 C461 0.961 . S
H449 C461 0.959 . S
H450 C464 0.929 . S
H451 C465 0.931 . S
H452 C467 0.930 . S
C453 H441 0.930 . S
C453 C454 1.399 . S
C453 C458 1.399 . S
C454 C453 1.399 . S
C454 C455 1.376 . S
C455 H442 0.930 . S
C455 C454 1.376 . S
C455 C456 1.388 . S
C456 H443 0.930 . S
C456 C455 1.388 . S
C456 C457 1.390 . S
C457 C456 1.390 . S
C457 C458 1.394 . S
C457 C463 1.465 . S
C458 C453 1.399 . S
C458 C457 1.394 . S
C458 C459 1.516 . S
C459 C458 1.516 . S
C459 C460 1.502 . S
C459 C461 1.561 . S
C459 C462 1.526 . S
C460 H444 0.959 . S
C460 H445 0.959 . S
C460 H446 0.961 . S
C460 C459 1.502 . S
C461 H447 0.960 . S
C461 H448 0.961 . S
C461 H449 0.959 . S
C461 C459 1.561 . S
C462 C459 1.526 . S
C462 C463 1.396 . S
C462 C467 1.390 . S
C463 C457 1.465 . S
C463 C462 1.396 . S
C463 C464 1.399 . S
C464 H450 0.929 . S
C464 C463 1.399 . S
C464 C465 1.385 . S
C465 H451 0.931 . S
C465 C464 1.385 . S
C465 C466 1.389 . S
C466 C465 1.389 . S
C466 C467 1.387 . S
C467 H452 0.930 . S
C467 C462 1.390 . S
C467 C466 1.387 . S
H468 C480 0.930 . S
H469 C482 0.930 . S
H470 C483 0.930 . S
H471 C487 0.959 . S
H472 C487 0.959 . S
H473 C487 0.961 . S
H474 C488 0.960 . S
H475 C488 0.961 . S
H476 C488 0.959 . S
H477 C491 0.929 . S
H478 C492 0.931 . S
H479 C494 0.930 . S
C480 H468 0.930 . S
C480 C481 1.399 . S
C480 C485 1.399 . S
C481 C480 1.399 . S
C481 C482 1.376 . S
C482 H469 0.930 . S
C482 C481 1.376 . S
C482 C483 1.388 . S
C483 H470 0.930 . S
C483 C482 1.388 . S
C483 C484 1.390 . S
C484 C483 1.390 . S
C484 C485 1.394 . S
C484 C490 1.465 . S
C485 C480 1.399 . S
C485 C484 1.394 . S
C485 C486 1.516 . S
C486 C485 1.516 . S
C486 C487 1.502 . S
C486 C488 1.561 . S
C486 C489 1.526 . S
C487 H471 0.959 . S
C487 H472 0.959 . S
C487 H473 0.961 . S
C487 C486 1.502 . S
C488 H474 0.960 . S
C488 H475 0.961 . S
C488 H476 0.959 . S
C488 C486 1.561 . S
C489 C486 1.526 . S
C489 C490 1.396 . S
C489 C494 1.390 . S
C490 C484 1.465 . S
C490 C489 1.396 . S
C490 C491 1.399 . S
C491 H477 0.929 . S
C491 C490 1.399 . S
C491 C492 1.385 . S
C492 H478 0.931 . S
C492 C491 1.385 . S
C492 C493 1.389 . S
C493 C492 1.389 . S
C493 C494 1.387 . S
C494 H479 0.930 . S
C494 C489 1.390 . S
C494 C493 1.387 . S
H495 C507 0.930 . S
H496 C509 0.930 . S
H497 C510 0.930 . S
H498 C514 0.959 . S
H499 C514 0.959 . S
H500 C514 0.961 . S
H501 C515 0.960 . S
H502 C515 0.961 . S
H503 C515 0.959 . S
H504 C518 0.929 . S
H505 C519 0.931 . S
H506 C521 0.930 . S
C507 H495 0.930 . S
C507 C508 1.399 . S
C507 C512 1.399 . S
C508 C507 1.399 . S
C508 C509 1.376 . S
C509 H496 0.930 . S
C509 C508 1.376 . S
C509 C510 1.388 . S
C510 H497 0.930 . S
C510 C509 1.388 . S
C510 C511 1.390 . S
C511 C510 1.390 . S
C511 C512 1.394 . S
C511 C517 1.465 . S
C512 C507 1.399 . S
C512 C511 1.394 . S
C512 C513 1.516 . S
C513 C512 1.516 . S
C513 C514 1.502 . S
C513 C515 1.561 . S
C513 C516 1.526 . S
C514 H498 0.959 . S
C514 H499 0.959 . S
C514 H500 0.961 . S
C514 C513 1.502 . S
C515 H501 0.960 . S
C515 H502 0.961 . S
C515 H503 0.959 . S
C515 C513 1.561 . S
C516 C513 1.526 . S
C516 C517 1.396 . S
C516 C521 1.390 . S
C517 C511 1.465 . S
C517 C516 1.396 . S
C517 C518 1.399 . S
C518 H504 0.929 . S
C518 C517 1.399 . S
C518 C519 1.385 . S
C519 H505 0.931 . S
C519 C518 1.385 . S
C519 C520 1.389 . S
C520 C519 1.389 . S
C520 C521 1.387 . S
C521 H506 0.930 . S
C521 C516 1.390 . S
C521 C520 1.387 . S
H522 C534 0.930 . S
H523 C536 0.930 . S
H524 C537 0.932 1_655 S
H525 C541 0.959 1_655 S
H526 C541 0.959 . S
H527 C541 0.961 . S
H528 C542 0.960 . S
H529 C542 0.961 . S
H530 C542 0.959 . S
H531 C545 0.929 . S
H532 C546 0.931 . S
H533 C548 0.930 . S
C534 H522 0.930 . S
C534 C535 1.399 . S
C534 C539 1.399 . S
C535 C534 1.399 . S
C535 C536 1.376 1_455 S
C536 H523 0.930 . S
C536 C535 1.376 1_655 S
C536 C537 1.388 1_655 S
C537 H524 0.932 1_455 S
C537 C536 1.388 1_455 S
C537 C538 1.389 . S
C538 C537 1.389 . S
C538 C539 1.394 . S
C538 C544 1.465 1_554 S
C539 C534 1.399 . S
C539 C538 1.394 . S
C539 C540 1.516 . S
C540 C539 1.516 . S
C540 C541 1.502 . S
C540 C542 1.561 . S
C540 C543 1.526 1_554 S
C541 H525 0.959 1_455 S
C541 H526 0.959 . S
C541 H527 0.961 . S
C541 C540 1.502 . S
C542 H528 0.960 . S
C542 H529 0.961 . S
C542 H530 0.959 . S
C542 C540 1.561 . S
C543 C540 1.526 1_556 S
C543 C544 1.396 . S
C543 C548 1.390 . S
C544 C538 1.465 1_556 S
C544 C543 1.396 . S
C544 C545 1.399 . S
C545 H531 0.929 . S
C545 C544 1.399 . S
C545 C546 1.385 . S
C546 H532 0.931 . S
C546 C545 1.385 . S
C546 C547 1.389 . S
C547 C546 1.389 . S
C547 C548 1.387 . S
C548 H533 0.930 . S
C548 C543 1.390 . S
C548 C547 1.387 . S
H549 C561 0.948 . S
H550 C563 0.930 . S
H551 C564 0.930 . S
H552 C568 0.959 . S
H553 C568 0.959 . S
H554 C568 0.961 . S
H555 C569 0.960 . S
H556 C569 0.961 . S
H557 C569 0.959 . S
H558 C572 0.929 . S
H559 C573 0.931 . S
H560 C575 0.930 . S
C561 H549 0.948 . S
C561 C562 1.387 1_565 S
C561 C566 1.393 1_565 S
C562 C561 1.387 1_545 S
C562 C563 1.376 . S
C563 H550 0.930 . S
C563 C562 1.376 . S
C563 C564 1.388 . S
C564 H551 0.930 . S
C564 C563 1.388 . S
C564 C565 1.390 . S
C565 C564 1.390 . S
C565 C566 1.394 . S
C565 C571 1.465 . S
C566 C561 1.393 1_545 S
C566 C565 1.394 . S
C566 C567 1.516 1_545 S
C567 C566 1.516 1_565 S
C567 C568 1.502 . S
C567 C569 1.561 . S
C567 C570 1.526 1_565 S
C568 H552 0.959 . S
C568 H553 0.959 . S
C568 H554 0.961 . S
C568 C567 1.502 . S
C569 H555 0.960 . S
C569 H556 0.961 . S
C569 H557 0.959 . S
C569 C567 1.561 . S
C570 C567 1.526 1_545 S
C570 C571 1.396 . S
C570 C575 1.390 1_545 S
C571 C565 1.465 . S
C571 C570 1.396 . S
C571 C572 1.399 . S
C572 H558 0.929 . S
C572 C571 1.399 . S
C572 C573 1.385 . S
C573 H559 0.931 . S
C573 C572 1.385 . S
C573 C574 1.389 . S
C574 C573 1.389 . S
C574 C575 1.387 1_545 S
C575 H560 0.930 . S
C575 C570 1.390 1_565 S
C575 C574 1.387 1_565 S
H576 C588 0.930 . S
H577 C590 0.930 . S
H578 C591 0.930 . S
H579 C595 0.959 . S
H580 C595 0.959 . S
H581 C595 0.961 . S
H582 C596 0.960 . S
H583 C596 0.961 . S
H584 C596 0.959 . S
H585 C599 0.929 . S
H586 C600 0.931 . S
H587 C602 0.930 . S
C588 H576 0.930 . S
C588 C589 1.399 . S
C588 C593 1.399 . S
C589 C588 1.399 . S
C589 C590 1.376 . S
C590 H577 0.930 . S
C590 C589 1.376 . S
C590 C591 1.388 . S
C591 H578 0.930 . S
C591 C590 1.388 . S
C591 C592 1.390 . S
C592 C591 1.390 . S
C592 C593 1.394 . S
C592 C598 1.465 . S
C593 C588 1.399 . S
C593 C592 1.394 . S
C593 C594 1.516 . S
C594 C593 1.516 . S
C594 C595 1.502 . S
C594 C596 1.561 . S
C594 C597 1.526 . S
C595 H579 0.959 . S
C595 H580 0.959 . S
C595 H581 0.961 . S
C595 C594 1.502 . S
C596 H582 0.960 . S
C596 H583 0.961 . S
C596 H584 0.959 . S
C596 C594 1.561 . S
C597 C594 1.526 . S
C597 C598 1.396 . S
C597 C602 1.390 . S
C598 C592 1.465 . S
C598 C597 1.396 . S
C598 C599 1.399 . S
C599 H585 0.929 . S
C599 C598 1.399 . S
C599 C600 1.385 . S
C600 H586 0.931 . S
C600 C599 1.385 . S
C600 C601 1.389 . S
C601 C600 1.389 . S
C601 C602 1.387 . S
C602 H587 0.930 . S
C602 C597 1.390 . S
C602 C601 1.387 . S
H603 C615 0.930 . S
H604 C617 0.930 . S
H605 C618 0.930 . S
H606 C622 0.959 . S
H607 C622 0.959 . S
H608 C622 0.961 . S
H609 C623 0.960 . S
H610 C623 0.961 . S
H611 C623 0.959 . S
H612 C626 0.929 . S
H613 C627 0.931 . S
H614 C629 0.930 . S
C615 H603 0.930 . S
C615 C616 1.399 . S
C615 C620 1.399 . S
C616 C615 1.399 . S
C616 C617 1.376 1_545 S
C617 H604 0.930 . S
C617 C616 1.376 1_565 S
C617 C618 1.388 . S
C618 H605 0.930 . S
C618 C617 1.388 . S
C618 C619 1.390 1_565 S
C619 C618 1.390 1_545 S
C619 C620 1.394 . S
C619 C625 1.465 . S
C620 C615 1.399 . S
C620 C619 1.394 . S
C620 C621 1.516 . S
C621 C620 1.516 . S
C621 C622 1.502 . S
C621 C623 1.561 . S
C621 C624 1.526 . S
C622 H606 0.959 . S
C622 H607 0.959 . S
C622 H608 0.961 . S
C622 C621 1.502 . S
C623 H609 0.960 . S
C623 H610 0.961 . S
C623 H611 0.959 . S
C623 C621 1.561 . S
C624 C621 1.526 . S
C624 C625 1.396 . S
C624 C629 1.390 . S
C625 C619 1.465 . S
C625 C624 1.396 . S
C625 C626 1.399 1_545 S
C626 H612 0.929 . S
C626 C625 1.399 1_565 S
C626 C627 1.385 . S
C627 H613 0.931 . S
C627 C626 1.385 . S
C627 C628 1.389 1_565 S
C628 C627 1.389 1_545 S
C628 C629 1.387 . S
C629 H614 0.930 . S
C629 C624 1.390 . S
C629 C628 1.387 . S
H630 C642 0.930 . S
H631 C644 0.930 . S
H632 C645 0.930 . S
H633 C649 0.959 . S
H634 C649 0.959 1_554 S
H635 C649 0.961 . S
H636 C650 0.960 . S
H637 C650 0.961 1_554 S
H638 C650 0.959 . S
H639 C653 0.929 . S
H640 C654 0.931 . S
H641 C656 0.930 . S
C642 H630 0.930 . S
C642 C643 1.399 . S
C642 C647 1.399 . S
C643 C642 1.399 . S
C643 C644 1.376 . S
C644 H631 0.930 . S
C644 C643 1.376 . S
C644 C645 1.388 . S
C645 H632 0.930 . S
C645 C644 1.388 . S
C645 C646 1.390 . S
C646 C645 1.390 . S
C646 C647 1.394 . S
C646 C652 1.465 1_556 S
C647 C642 1.399 . S
C647 C646 1.394 . S
C647 C648 1.516 . S
C648 C647 1.516 . S
C648 C649 1.502 . S
C648 C650 1.561 . S
C648 C651 1.526 1_556 S
C649 H633 0.959 . S
C649 H634 0.959 1_556 S
C649 H635 0.961 . S
C649 C648 1.502 . S
C650 H636 0.960 . S
C650 H637 0.961 1_556 S
C650 H638 0.959 . S
C650 C648 1.561 . S
C651 C648 1.526 1_554 S
C651 C652 1.396 . S
C651 C656 1.390 . S
C652 C646 1.465 1_554 S
C652 C651 1.396 . S
C652 C653 1.399 . S
C653 H639 0.929 . S
C653 C652 1.399 . S
C653 C654 1.385 . S
C654 H640 0.931 . S
C654 C653 1.385 . S
C654 C655 1.389 . S
C655 C654 1.389 . S
C655 C656 1.387 . S
C656 H641 0.930 . S
C656 C651 1.390 . S
C656 C655 1.387 . S
H657 C669 0.930 . S
H658 C671 0.930 . S
H659 C672 0.930 . S
H660 C676 0.959 . S
H661 C676 0.959 . S
H662 C676 0.961 . S
H663 C677 0.960 . S
H664 C677 0.961 . S
H665 C677 0.959 . S
H666 C680 0.929 . S
H667 C681 0.931 . S
H668 C683 0.930 . S
C669 H657 0.930 . S
C669 C670 1.400 1_455 S
C669 C674 1.399 . S
C670 C669 1.400 1_655 S
C670 C671 1.375 . S
C671 H658 0.930 . S
C671 C670 1.375 . S
C671 C672 1.388 . S
C672 H659 0.930 . S
C672 C671 1.388 . S
C672 C673 1.390 1_655 S
C673 C672 1.390 1_455 S
C673 C674 1.394 . S
C673 C679 1.465 . S
C674 C669 1.399 . S
C674 C673 1.394 . S
C674 C675 1.516 . S
C675 C674 1.516 . S
C675 C676 1.502 . S
C675 C677 1.561 1_455 S
C675 C678 1.526 . S
C676 H660 0.959 . S
C676 H661 0.959 . S
C676 H662 0.961 . S
C676 C675 1.502 . S
C677 H663 0.960 . S
C677 H664 0.961 . S
C677 H665 0.959 . S
C677 C675 1.561 1_655 S
C678 C675 1.526 . S
C678 C679 1.396 . S
C678 C683 1.390 . S
C679 C673 1.465 . S
C679 C678 1.396 . S
C679 C680 1.399 . S
C680 H666 0.929 . S
C680 C679 1.399 . S
C680 C681 1.385 . S
C681 H667 0.931 . S
C681 C680 1.385 . S
C681 C682 1.389 . S
C682 C681 1.389 . S
C682 C683 1.387 . S
C683 H668 0.930 . S
C683 C678 1.390 . S
C683 C682 1.387 . S
C211 C12 2.691 . S
C223 N187 2.649 . S
C238 C52 2.850 . S
C250 N160 2.856 1_655 S
C265 C111 2.881 . S
C277 N173 2.885 1_565 S
C292 C31 3.334 . S
C304 N186 3.344 . S
C331 N161 3.108 . S
C319 C71 3.138 . S
C358 N174 3.063 . S
C346 C92 3.093 . S
C373 C48 0.194 . S
C385 N134 0.308 . S
C400 C109 0.526 . S
C412 N148 0.124 . S
C427 C29 0.501 . S
C439 N122 0.610 . S
C466 N135 0.460 . S
C454 C69 0.469 . S
C493 N147 0.587 . S
C481 C88 0.569 . S
C508 C8 0.195 . S
C520 N121 0.367 . S
C547 N151 1.212 . S
C535 C17 1.192 1_455 S
C562 C57 1.289 . S
C574 N125 1.285 . S
C589 C97 1.219 . S
C601 N138 1.232 . S
C628 N177 1.826 . S
C616 C42 1.708 . S
C655 N190 1.751 . S
C643 C82 1.692 . S
C670 C2 1.739 1_655 S
C682 N164 1.781 . S
