# Generated by pormake.
# Topology anh, (6,3)-cn, num edge types: 1
# Building blocks:
#     Node 0, Type 0, BuildingBlock: BETFEN_clean_sbu_0, # of connection points: 6
#     Node 1, Type 0, BuildingBlock: BETFEN_clean_sbu_0, # of connection points: 6
#     Node 2, Type 0, BuildingBlock: BETFEN_clean_sbu_0, # of connection points: 6
#     Node 3, Type 1, BuildingBlock: QEWDON_clean_linker_0, # of connection points: 3
#     Node 4, Type 1, BuildingBlock: QEWDON_clean_linker_0, # of connection points: 3
#     Node 5, Type 1, BuildingBlock: QEWDON_clean_linker_0, # of connection points: 3
#     Node 6, Type 1, BuildingBlock: QEWDON_clean_linker_0, # of connection points: 3
#     Node 7, Type 1, BuildingBlock: QEWDON_clean_linker_0, # of connection points: 3
#     Node 8, Type 1, BuildingBlock: QEWDON_clean_linker_0, # of connection points: 3
#     Edge 9, Type (0, 1), BuildingBlock: EZIPEK_clean_linker_0, # of connection points: 2
#     Edge 10, Type (0, 1), BuildingBlock: EZIPEK_clean_linker_0, # of connection points: 2
#     Edge 11, Type (0, 1), BuildingBlock: EZIPEK_clean_linker_0, # of connection points: 2
#     Edge 12, Type (0, 1), BuildingBlock: EZIPEK_clean_linker_0, # of connection points: 2
#     Edge 13, Type (0, 1), BuildingBlock: EZIPEK_clean_linker_0, # of connection points: 2
#     Edge 14, Type (0, 1), BuildingBlock: EZIPEK_clean_linker_0, # of connection points: 2
#     Edge 15, Type (0, 1), BuildingBlock: EZIPEK_clean_linker_0, # of connection points: 2
#     Edge 16, Type (0, 1), BuildingBlock: EZIPEK_clean_linker_0, # of connection points: 2
#     Edge 17, Type (0, 1), BuildingBlock: EZIPEK_clean_linker_0, # of connection points: 2
#     Edge 18, Type (0, 1), BuildingBlock: EZIPEK_clean_linker_0, # of connection points: 2
#     Edge 19, Type (0, 1), BuildingBlock: EZIPEK_clean_linker_0, # of connection points: 2
#     Edge 20, Type (0, 1), BuildingBlock: EZIPEK_clean_linker_0, # of connection points: 2
#     Edge 21, Type (0, 1), BuildingBlock: EZIPEK_clean_linker_0, # of connection points: 2
#     Edge 22, Type (0, 1), BuildingBlock: EZIPEK_clean_linker_0, # of connection points: 2
#     Edge 23, Type (0, 1), BuildingBlock: EZIPEK_clean_linker_0, # of connection points: 2
#     Edge 24, Type (0, 1), BuildingBlock: EZIPEK_clean_linker_0, # of connection points: 2
#     Edge 25, Type (0, 1), BuildingBlock: EZIPEK_clean_linker_0, # of connection points: 2
#     Edge 26, Type (0, 1), BuildingBlock: EZIPEK_clean_linker_0, # of connection points: 2
# Relax obj value: 0.193
# Max RMSD: 0.197
# Mean RMSD: 0.130
data_MOF--net-anh--node1-BETFEN_clean_sbu_0--node2-QEWDON_clean_linker_0--edge1-EZIPEK_clean_linker_0
_symmetry_space_group_name_H-M    P1
_symmetry_Int_Tables_number       1
_symmetry_cell_setting            triclinic
loop_
_symmetry_equiv_pos_as_xyz
'x, y, z'
_cell_length_a     23.445069
_cell_length_b     24.575405
_cell_length_c     35.850118
_cell_angle_alpha  92.521716
_cell_angle_beta   98.004538
_cell_angle_gamma 99.367752
loop_
_atom_site_label
_atom_site_type_symbol
_atom_site_fract_x
_atom_site_fract_y
_atom_site_fract_z
_atom_type_partial_charge
Pr0 Pr 0.08102 0.58889 0.14009 0.0
Pr1 Pr 0.09975 0.71059 0.13201 0.0
C2 C 0.06724 0.48459 0.16096 0.0
C3 C 1.01455 0.44229 0.15823 0.0
C4 C 0.9681 0.44196 0.12882 0.0
C5 C 0.9137 0.40984 0.13013 0.0
C6 C 0.90499 0.37793 0.16093 0.0
C7 C 0.95196 0.37609 0.18948 0.0
C8 C 1.00657 0.40823 0.18813 0.0
C9 C 0.05521 0.61589 0.06532 0.0
C10 C 0.96487 0.64926 0.13033 0.0
C11 C 0.13217 0.81532 0.11396 0.0
C12 C 0.18177 0.85978 0.12696 0.0
C13 C 0.2066 0.86736 0.16522 0.0
C14 C 0.25475 0.90878 0.17712 0.0
C15 C 0.27905 0.94256 0.15087 0.0
C16 C 0.25478 0.93473 0.1126 0.0
C17 C 0.20619 0.8936 0.10072 0.0
C18 C 0.09205 0.68258 0.20604 0.0
C19 C 0.21881 0.65208 0.14295 0.0
O20 O 0.06774 0.52723 0.18425 0.0
O21 O 0.08533 0.4983 0.12914 0.0
O22 O 0.09852 0.63886 0.08862 0.0
O23 O 1.02349 0.57682 0.08022 0.0
O24 O 0.99757 0.68729 0.11399 0.0
O25 O 0.98914 0.61145 0.14885 0.0
O26 O 0.14429 0.7726 0.09566 0.0
O27 O 0.09589 0.80176 0.13786 0.0
O28 O 0.11999 0.66046 0.18373 0.0
O29 O 0.06901 0.72231 0.1909 0.0
O30 O 0.18332 0.6038 0.13994 0.0
O31 O 0.19827 0.69905 0.14388 0.0
H32 H 0.97299 0.46861 0.10579 0.0
H33 H 0.87764 0.41192 0.10807 0.0
H34 H 0.94559 0.35182 0.21352 0.0
H35 H 1.04164 0.40867 0.21133 0.0
H36 H 0.189 0.84112 0.18586 0.0
H37 H 0.27334 0.91431 0.20672 0.0
H38 H 0.27334 0.96055 0.09208 0.0
H39 H 0.18791 0.8879 0.07107 0.0
Pr40 Pr 0.61812 0.14794 0.50539 0.0
Pr41 Pr 0.49411 0.13276 0.49238 0.0
C42 C 0.73269 0.17903 0.50192 0.0
C43 C 0.76989 0.22852 0.49176 0.0
C44 C 0.82811 0.24185 0.5092 0.0
C45 C 0.86374 0.28936 0.50042 0.0
C46 C 0.84147 0.32416 0.47419 0.0
C47 C 0.78322 0.31089 0.45657 0.0
C48 C 0.74756 0.26324 0.46533 0.0
C49 C 0.57476 0.11933 0.57133 0.0
C50 C 0.55475 0.26578 0.50766 0.0
C51 C 0.37675 0.10235 0.48302 0.0
C52 C 0.33586 1.05131 0.48566 0.0
C53 C 0.28407 1.0398 0.45985 0.0
C54 C 0.25063 0.98692 0.45576 0.0
C55 C 0.26851 0.9451 0.47762 0.0
C56 C 0.31806 0.95759 0.50541 0.0
C57 C 0.35202 1.01034 0.50911 0.0
C58 C 0.54276 0.15637 0.42679 0.0
C59 C 0.55596 1.0149 0.49798 0.0
O60 O 0.69581 0.15091 0.47436 0.0
O61 O 0.71025 0.18414 0.53301 0.0
O62 O 0.55551 0.15397 0.54958 0.0
O63 O 0.61539 0.09754 0.55839 0.0
O64 O 0.5048 0.23058 0.50472 0.0
O65 O 0.60342 0.24436 0.50693 0.0
O66 O 0.40687 0.12709 0.51426 0.0
O67 O 0.40796 0.10047 0.4558 0.0
O68 O 0.55787 0.12233 0.44986 0.0
O69 O 0.50351 0.1815 0.4385 0.0
O70 O 0.606 1.04913 0.49782 0.0
O71 O 0.50766 1.03698 0.49851 0.0
H72 H 0.84593 0.21561 0.52969 0.0
H73 H 0.90868 0.29919 0.51419 0.0
H74 H 0.76552 0.33741 0.43624 0.0
H75 H 0.70264 0.25351 0.45155 0.0
H76 H 0.27139 1.07078 0.44127 0.0
H77 H 0.2125 0.97784 0.43419 0.0
H78 H 0.33243 0.9256 0.52241 0.0
H79 H 0.39237 1.01805 0.52872 0.0
Pr80 Pr 0.5648 0.58996 0.82537 0.0
Pr81 Pr 0.58122 0.70491 0.81325 0.0
C82 C 0.54425 0.48041 0.83091 0.0
C83 C 0.57966 0.44207 0.84838 0.0
C84 C 0.55395 0.38741 0.85115 0.0
C85 C 0.58914 0.34792 0.8599 0.0
C86 C 0.65067 0.36261 0.86523 0.0
C87 C 0.67564 0.41883 0.86766 0.0
C88 C 0.64022 0.45846 0.85902 0.0
C89 C 0.60257 0.65443 0.89332 0.0
C90 C 0.69997 0.65135 0.82494 0.0
C91 C 0.58091 0.81382 0.814 0.0
C92 C 0.54117 0.84631 0.82903 0.0
C93 C 0.53413 0.89702 0.8145 0.0
C94 C 0.49149 0.92504 0.82558 0.0
C95 C 0.45528 0.90248 0.85111 0.0
C96 C 0.46304 0.85228 0.86637 0.0
C97 C 0.50593 0.82428 0.85535 0.0
C98 C 0.5797 0.63951 0.74668 0.0
C99 C 0.44514 0.6457 0.81712 0.0
O100 O 0.56258 0.5032 0.80144 0.0
O101 O 0.52775 0.515 0.85414 0.0
O102 O 0.56307 0.66348 0.86781 0.0
O103 O 0.62553 0.61287 0.88298 0.0
O104 O 0.67916 0.69674 0.83213 0.0
O105 O 0.66344 0.60454 0.81472 0.0
O106 O 0.61455 0.7917 0.83909 0.0
O107 O 0.55706 0.77991 0.78485 0.0
O108 O 0.5438 0.63018 0.76971 0.0
O109 O 0.61814 0.68336 0.75782 0.0
O110 O 0.46536 0.59877 0.819 0.0
O111 O 0.48068 0.69268 0.81613 0.0
H112 H 0.50714 0.37446 0.84368 0.0
H113 H 0.56817 0.30503 0.8579 0.0
H114 H 0.72262 0.43153 0.87264 0.0
H115 H 0.66045 0.50115 0.85789 0.0
H116 H 0.56055 0.91421 0.79395 0.0
H117 H 0.48586 0.96392 0.81364 0.0
H118 H 0.43538 0.8345 0.88608 0.0
H119 H 0.51075 0.78486 0.86667 0.0
H120 H 0.60541 0.22399 0.2564 0.0
C121 C 0.57022 0.19178 0.24328 0.0
C122 C 0.54035 0.15535 0.26608 0.0
C123 C 0.55181 0.18897 0.20401 0.0
H124 H 0.47056 1.08628 0.26653 0.0
C125 C 0.49411 0.11433 0.24917 0.0
C126 C 0.47698 0.11011 0.2101 0.0
C127 C 0.50554 0.14741 0.18764 0.0
C128 C 0.57791 0.23125 0.18023 0.0
H129 H 0.49118 0.14427 0.15741 0.0
C130 C 0.63881 0.2481 0.18401 0.0
C131 C 0.66267 0.28824 0.16124 0.0
C132 C 0.54146 0.25533 0.15354 0.0
H133 H 0.49435 0.24377 0.15041 0.0
C134 C 0.56534 0.29529 0.13102 0.0
H135 H 0.66763 0.22989 0.20428 0.0
C136 C 0.62573 0.31177 0.13482 0.0
H137 H 0.64375 0.34294 0.11723 0.0
H138 H 0.53692 0.31368 0.11067 0.0
H139 H 0.5573 0.66392 0.57514 0.0
C140 C 0.55698 0.62315 0.56242 0.0
C141 C 0.55849 0.57939 0.58643 0.0
C142 C 0.55165 0.61462 0.52293 0.0
H143 H 0.55694 0.49215 0.59047 0.0
C144 C 0.5563 0.52511 0.57135 0.0
C145 C 0.55347 0.51226 0.53247 0.0
C146 C 0.551 0.55785 0.50824 0.0
C147 C 0.54223 0.66431 0.49825 0.0
H148 H 0.54829 0.54851 0.47827 0.0
C149 C 0.55434 0.72304 0.51156 0.0
C150 C 0.54035 0.76639 0.48722 0.0
C151 C 0.51637 0.65234 0.46034 0.0
H152 H 0.50433 0.61025 0.44837 0.0
C153 C 0.50321 0.69387 0.43689 0.0
H154 H 0.57485 0.73548 0.54021 0.0
C155 C 0.51472 0.74942 0.44997 0.0
H156 H 0.50334 0.7798 0.4305 0.0
H157 H 0.48306 0.68266 0.40794 0.0
H158 H 0.11414 0.64744 0.89327 0.0
C159 C 0.06887 0.64416 0.88071 0.0
C160 C 1.02556 0.63175 0.90381 0.0
C161 C 0.05417 0.65642 0.84286 0.0
H162 H 0.93407 0.62127 0.90777 0.0
C163 C 0.96688 0.62998 0.88928 0.0
C164 C 0.95037 0.64411 0.85242 0.0
C165 C 0.99408 0.65651 0.82906 0.0
C166 C 0.10199 0.6738 0.81939 0.0
H167 H 0.98084 0.66688 0.8005 0.0
C168 C 0.15712 0.65573 0.8259 0.0
C169 C 0.20249 0.67554 0.80515 0.0
C170 C 0.09399 0.71145 0.79134 0.0
H171 H 0.05399 0.72823 0.78601 0.0
C172 C 0.13834 0.7299 0.77035 0.0
H173 H 0.16528 0.6266 0.84695 0.0
C174 C 0.19214 0.71226 0.7772 0.0
H175 H 0.22624 0.72798 0.76099 0.0
H176 H 0.13126 0.75892 0.74902 0.0
H177 H 0.07313 0.58353 0.37542 0.0
C178 C 0.09204 0.62383 0.3892 0.0
C179 C 0.10785 0.66823 0.36718 0.0
C180 C 0.10317 0.63119 0.42893 0.0
H181 H 0.14734 0.7539 0.36787 0.0
C182 C 0.13408 0.71989 0.38482 0.0
C183 C 0.145 0.72761 0.42417 0.0
C184 C 0.12918 0.68358 0.44611 0.0
C185 C 0.09095 0.58414 0.45283 0.0
H186 H 0.13815 0.69014 0.47662 0.0
C187 C 1.03805 0.54635 0.44539 0.0
C188 C 1.02669 0.50332 0.46929 0.0
C189 C 0.13241 0.57747 0.48398 0.0
H190 H 0.17394 0.60526 0.49004 0.0
C191 C 0.12101 0.53464 0.50755 0.0
H192 H 1.00543 0.55082 0.42166 0.0
C193 C 0.06832 0.49779 0.50036 0.0
H194 H 0.06001 0.4647 0.51892 0.0
H195 H 0.15313 0.52999 0.53145 0.0
H196 H 0.44336 0.09694 0.72464 0.0
C197 C 0.48036 0.12443 0.74068 0.0
C198 C 0.5327 0.13748 0.72547 0.0
C199 C 0.47463 0.14984 0.77545 0.0
H200 H 0.62275 0.17854 0.73706 0.0
C201 C 0.58136 0.17009 0.74773 0.0
C202 C 0.57633 0.19487 0.78268 0.0
C203 C 0.52229 0.18556 0.79601 0.0
C204 C 0.42023 0.13674 0.79177 0.0
H205 H 0.51772 0.20506 0.82292 0.0
C206 C 0.40921 1.08705 0.80892 0.0
C207 C 0.36109 1.07543 0.82824 0.0
C208 C 0.38207 0.17497 0.79332 0.0
H209 H 0.39049 0.21408 0.78057 0.0
C210 C 0.33303 0.1629 0.81177 0.0
H211 H 0.43946 1.05803 0.80843 0.0
C212 C 0.32259 0.11328 0.82946 0.0
H213 H 0.28535 0.10477 0.84438 0.0
H214 H 0.30365 0.19245 0.81291 0.0
H215 H 0.55723 0.68372 0.06926 0.0
C216 C 0.60047 0.67625 0.08028 0.0
C217 C 0.63984 0.6703 0.05485 0.0
C218 C 0.61695 0.6737 0.1194 0.0
H219 H 0.72722 0.65899 0.0485 0.0
C220 C 0.69687 0.6629 0.06832 0.0
C221 C 0.71547 0.6612 0.10701 0.0
C222 C 0.6752 0.66589 0.13249 0.0
C223 C 0.57454 0.68279 0.14625 0.0
H224 H 0.68965 0.66361 0.16231 0.0
C225 C 0.5127 0.66713 0.13617 0.0
C226 C 0.47395 0.67987 0.16112 0.0
C227 C 0.59591 0.71046 0.18192 0.0
H228 H 0.64222 0.72469 0.19058 0.0
C229 C 0.55785 0.72213 0.20666 0.0
H230 H 0.49447 0.64536 0.10915 0.0
C231 C 0.49757 0.70722 0.19638 0.0
H232 H 0.46906 0.71748 0.21599 0.0
H233 H 0.57525 0.74367 0.23387 0.0
C234 C 0.31467 0.68627 0.11946 0.0
C235 C 0.28374 0.65427 0.14479 0.0
C236 C 0.37653 0.62749 0.17276 0.0
C237 C 0.40826 0.66594 0.15146 0.0
N238 N 0.40719 0.73761 0.10764 0.0
N239 N 0.28759 0.6008 0.19971 0.0
C240 C 0.37719 0.69664 0.12545 0.0
C241 C 0.31523 0.6261 0.17235 0.0
N242 N 0.28434 0.70533 0.08882 0.0
N243 N 0.40509 0.59183 0.19324 0.0
H244 H 0.24348 0.6003 0.20136 0.0
H245 H 0.30959 0.58493 0.22292 0.0
H246 H 0.44966 0.59146 0.19382 0.0
H247 H 0.38368 0.55925 0.20643 0.0
H248 H 0.30434 0.72418 0.06739 0.0
H249 H 0.23883 0.69718 0.08269 0.0
H250 H 0.38701 0.76583 0.09204 0.0
H251 H 0.4527 0.74623 0.11084 0.0
C252 C 0.92107 0.36928 0.44056 0.0
C253 C 0.88017 0.37448 0.46556 0.0
C254 C 0.92494 0.47129 0.48203 0.0
C255 C 0.9715 0.46287 0.46233 0.0
N256 N 1.01468 0.40568 0.42183 0.0
N257 N 0.84065 0.42966 0.50953 0.0
C258 C 0.96928 0.41264 0.44071 0.0
C259 C 0.8807 0.42566 0.48565 0.0
N260 N 0.91346 0.32283 0.41675 0.0
N261 N 0.92352 0.52291 0.49732 0.0
H262 H 0.80656 0.39756 0.51191 0.0
H263 H 0.84251 0.46362 0.52831 0.0
H264 H 0.95578 0.55685 0.49526 0.0
H265 H 0.88837 0.53329 0.50922 0.0
H266 H 0.93855 0.31824 0.39543 0.0
H267 H 0.87851 0.29039 0.41624 0.0
H268 H 1.0195 0.368 0.40933 0.0
H269 H 0.04939 0.43748 0.42006 0.0
C270 C 0.35712 0.92663 0.8338 0.0
C271 C 0.40873 0.93239 0.86027 0.0
C272 C 0.3946 1.02391 0.88183 0.0
C273 C 0.35523 1.02403 0.84824 0.0
N274 N 0.28719 0.97423 0.79732 0.0
N275 N 0.46964 0.97907 0.91548 0.0
C276 C 0.33108 0.9741 0.82661 0.0
C277 C 0.42404 0.97814 0.88714 0.0
N278 N 0.33581 0.87672 0.81449 0.0
N279 N 0.40624 1.06933 0.90669 0.0
H280 H 0.49033 0.94485 0.91984 0.0
H281 H 0.48711 1.01309 0.93425 0.0
H282 H 0.38475 0.10302 0.9021 0.0
H283 H 0.43329 1.07214 0.93254 0.0
H284 H 0.29708 0.86856 0.79556 0.0
H285 H 0.3554 0.84206 0.81985 0.0
H286 H 0.27064 0.94083 0.77785 0.0
H287 H 0.26761 1.00907 0.79268 0.0
C288 C 0.88119 0.70037 0.13899 0.0
C289 C 0.90034 0.65041 0.12869 0.0
C290 C 0.79691 0.60464 0.11492 0.0
C291 C 0.77835 0.65637 0.11972 0.0
N292 N 0.8033 0.75497 0.133 0.0
N293 N 0.87502 0.55567 0.10277 0.0
C294 C 0.82066 0.70458 0.13109 0.0
C295 C 0.85778 0.60246 0.11602 0.0
N296 N 0.92054 0.74334 0.15778 0.0
N297 N 0.75609 0.55743 0.10942 0.0
H298 H 0.91855 0.55247 0.10199 0.0
H299 H 0.84602 0.52153 0.08941 0.0
H300 H 0.71143 0.55786 0.10823 0.0
H301 H 0.76667 0.51788 0.10964 0.0
H302 H 0.90849 0.77849 0.16955 0.0
H303 H 0.96473 0.74156 0.1651 0.0
H304 H 0.83241 0.79229 0.13633 0.0
H305 H 0.75951 0.75972 0.12867 0.0
C306 C 0.26748 0.84937 0.45002 0.0
C307 C 0.23872 0.88719 0.46824 0.0
C308 C 0.148 0.81954 0.45868 0.0
C309 C 0.17771 0.78105 0.44217 0.0
N310 N 0.26833 0.754 0.43046 0.0
N311 N 0.15603 0.90515 0.49694 0.0
C312 C 0.23839 0.79429 0.44059 0.0
C313 C 0.18024 0.87123 0.4748 0.0
N314 N 0.32117 0.86673 0.4397 0.0
N315 N 0.08875 0.80756 0.45762 0.0
H316 H 0.1788 0.94314 0.50933 0.0
H317 H 0.11557 0.89365 0.50576 0.0
H318 H 0.06386 0.76979 0.44646 0.0
H319 H 0.06371 0.83634 0.46533 0.0
H320 H 0.34105 0.84246 0.42264 0.0
H321 H 0.34388 0.90705 0.44519 0.0
H322 H 0.31372 0.75994 0.43268 0.0
H323 H 0.24834 0.71305 0.42324 0.0
C324 C 0.69269 0.32008 0.81679 0.0
C325 C 0.68477 0.31984 0.85491 0.0
C326 C 0.64258 0.22264 0.84426 0.0
C327 C 0.62673 0.23188 0.80545 0.0
N328 N 0.63934 0.29394 0.75471 0.0
N329 N 0.67744 0.26399 0.90744 0.0
C330 C 0.65423 0.28103 0.79103 0.0
C331 C 0.6705 0.26801 0.86944 0.0
N332 N 0.73145 0.3609 0.8052 0.0
N333 N 0.62854 0.17233 0.85807 0.0
H334 H 0.69622 0.29835 0.92589 0.0
H335 H 0.66491 0.22692 0.91962 0.0
H336 H 0.60877 0.13684 0.84105 0.0
H337 H 0.60877 0.13684 0.84105 0.0
H338 H 0.75907 0.38981 0.82461 0.0
H339 H 0.73993 0.36181 0.77741 0.0
H340 H 0.65547 0.33195 0.74499 0.0
H341 H 0.60691 0.26984 0.73535 0.0
C342 C 0.58828 0.92335 0.4753 0.0
C343 C 0.55452 0.95087 0.49809 0.0
C344 C 0.51455 0.85661 0.5177 0.0
C345 C 0.55183 0.83015 0.49727 0.0
N346 N 0.63397 0.84311 0.46347 0.0
N347 N 0.49541 0.94117 0.54822 0.0
C348 C 0.59179 0.86534 0.47848 0.0
C349 C 0.52041 0.9166 0.52126 0.0
N350 N 0.61412 0.95137 0.44827 0.0
N351 N 0.47173 0.8244 0.53286 0.0
H352 H 0.5008 0.9839 0.55331 0.0
H353 H 0.47477 0.91933 0.56827 0.0
H354 H 0.46744 0.78142 0.53203 0.0
H355 H 0.43834 0.84001 0.54385 0.0
H356 H 0.63393 0.93244 0.42818 0.0
H357 H 0.6099 0.99191 0.44288 0.0
H358 H 0.66831 0.86682 0.45284 0.0
H359 H 0.63802 0.80161 0.46541 0.0
C360 C 0.79122 0.62622 0.80218 0.0
C361 C 0.76504 0.65271 0.82982 0.0
C362 C 0.86331 0.68684 0.86433 0.0
C363 C 0.88782 0.65125 0.84109 0.0
N364 N 0.8714 0.58019 0.79016 0.0
N365 N 0.77794 0.69854 0.8923 0.0
C366 C 0.8508 0.61902 0.8105 0.0
C367 C 0.80159 0.68073 0.86224 0.0
N368 N 0.76038 0.61072 0.76719 0.0
N369 N 0.89898 0.72699 0.88825 0.0
H370 H 0.7333 0.69073 0.89355 0.0
H371 H 0.8032 0.71486 0.9178 0.0
H372 H 0.94432 0.73428 0.8894 0.0
H373 H 0.88305 0.75679 0.90355 0.0
H374 H 0.7786 0.59482 0.74505 0.0
H375 H 0.71931 0.62106 0.75916 0.0
H376 H 0.84437 0.55208 0.77001 0.0
H377 H 0.91422 0.57288 0.79573 0.0
C378 C 0.32111 1.04067 0.17302 0.0
C379 C 0.33016 0.98632 0.16377 0.0
C380 C 0.43612 1.01494 0.18077 0.0
C381 C 0.42661 1.068 0.19292 0.0
N382 N 0.3613 0.13129 0.20401 0.0
N383 N 0.39429 0.91935 0.16086 0.0
C384 C 0.36941 1.08096 0.18982 0.0
C385 C 0.38721 0.9728 0.16808 0.0
N386 N 0.26636 1.0538 0.16524 0.0
N387 N 0.492 1.00533 0.18083 0.0
H388 H 0.35972 0.88791 0.14995 0.0
H389 H 0.43369 0.90517 0.16754 0.0
H390 H 0.52882 1.03487 0.1909 0.0
H391 H 0.50229 0.96962 0.16869 0.0
H392 H 0.25768 0.09393 0.16726 0.0
H393 H 0.22953 1.02487 0.15421 0.0
H394 H 0.32054 0.14119 0.20679 0.0
H395 H 0.39577 0.1626 0.21531 0.0
C396 C 0.513 0.35152 0.53141 0.0
C397 C 0.55532 0.33001 0.51232 0.0
C398 C 0.59751 0.42977 0.50486 0.0
C399 C 0.5509 0.4499 0.51986 0.0
N400 N 0.45603 0.42478 0.53854 0.0
N401 N 0.63259 0.35377 0.4744 0.0
C402 C 0.50616 0.40893 0.53008 0.0
C403 C 0.59608 0.37071 0.49728 0.0
N404 N 0.48181 0.31845 0.55378 0.0
N405 N 0.64495 0.46688 0.49909 0.0
H406 H 0.63318 0.31252 0.46728 0.0
H407 H 0.65835 0.38079 0.45942 0.0
H408 H 0.64732 0.50946 0.50353 0.0
H409 H 0.68358 0.45526 0.49289 0.0
H410 H 0.4544 0.33307 0.57094 0.0
H411 H 0.48944 0.27887 0.55953 0.0
H412 H 0.41948 0.39661 0.54266 0.0
H413 H 0.44883 0.46551 0.53722 0.0
C414 C 0.33862 0.61731 0.78802 0.0
C415 C 0.38139 0.64677 0.81711 0.0
C416 C 0.30538 0.69125 0.84093 0.0
C417 C 0.2623 0.6603 0.81274 0.0
N418 N 0.23554 0.58577 0.76451 0.0
N419 N 0.40281 0.70108 0.87658 0.0
C420 C 0.27828 0.62054 0.78802 0.0
C421 C 0.36389 0.68056 0.84517 0.0
N422 N 0.3558 0.58904 0.75903 0.0
N423 N 0.29097 0.7325 0.86275 0.0
H424 H 0.44538 0.69275 0.88121 0.0
H425 H 0.39136 0.72164 0.89971 0.0
H426 H 0.24837 0.74037 0.86144 0.0
H427 H 0.32184 0.76127 0.88025 0.0
H428 H 0.32752 0.57201 0.73485 0.0
H429 H 0.39936 0.58641 0.75753 0.0
H430 H 0.24351 0.55225 0.74843 0.0
H431 H 0.1912 0.58748 0.76372 0.0
C432 C 0.81084 0.37964 0.18599 0.0
C433 C 0.84505 0.35109 0.16484 0.0
C434 C 0.76041 0.27877 0.14327 0.0
C435 C 0.72665 0.30674 0.1651 0.0
N436 N 0.72121 0.37682 0.213 0.0
N437 N 0.85683 0.26956 0.129 0.0
C438 C 0.75247 0.35498 0.18837 0.0
C439 C 0.82116 0.29926 0.14526 0.0
N440 N 0.83336 0.43142 0.20239 0.0
N441 N 0.73385 0.23381 0.11968 0.0
H442 H 0.9014 0.28391 0.12968 0.0
H443 H 0.84359 0.22913 0.11744 0.0
H444 H 0.68985 0.21662 0.11846 0.0
H445 H 0.75429 0.21538 0.09975 0.0
H446 H 0.80846 0.45713 0.21417 0.0
H447 H 0.87637 0.45055 0.20203 0.0
H448 H 0.73939 0.40843 0.23358 0.0
H449 H 0.67796 0.36022 0.21504 0.0
C450 C 0.04944 0.67239 0.00853 0.0
C451 C 0.05247 0.62049 0.02396 0.0
C452 C 1.04252 0.57602 0.96016 0.0
C453 C 1.04121 0.62812 0.94501 0.0
N454 N 0.05503 0.72743 0.95427 0.0
N455 N 0.06818 0.5263 0.01517 0.0
C456 C 0.0486 0.67683 0.96911 0.0
C457 C 0.05359 0.57313 -1e-05 0.0
N458 N 0.04443 0.71697 0.03121 0.0
N459 N 1.03204 0.52921 0.9365 0.0
H460 H 0.07949 0.52334 0.04409 0.0
H461 H 0.07518 0.49239 -0.00096 0.0
H462 H 1.02639 0.53011 0.90715 0.0
H463 H 1.02531 0.48948 0.94588 0.0
H464 H 1.0345 0.75389 0.02108 0.0
H465 H 0.04601 0.71589 0.06024 0.0
H466 H 0.06723 0.76465 0.97064 0.0
H467 H 0.05307 0.73239 0.92541 0.0
C468 C 0.56133 0.10983 0.3653 0.0
C469 C 0.55483 0.15801 0.38699 0.0
C470 C 0.54503 0.2075 0.32912 0.0
C471 C 0.55456 0.1605 0.30802 0.0
N472 N 0.59125 1.07455 0.30822 0.0
N473 N 0.56151 0.25738 0.39021 0.0
C474 C 0.56975 0.11442 0.32701 0.0
C475 C 0.55376 0.20841 0.36909 0.0
N476 N 0.55454 1.05879 0.37944 0.0
N477 N 0.524 0.24981 0.31136 0.0
H478 H 0.57 0.25995 0.41958 0.0
H479 H 0.56619 0.29563 0.37847 0.0
H480 H 0.5147 0.25038 0.28213 0.0
H481 H 0.51053 0.282 0.32588 0.0
H482 H 0.55334 1.02254 0.36292 0.0
H483 H 0.54327 1.05088 0.40589 0.0
H484 H 0.60795 1.0425 0.32165 0.0
H485 H 0.59818 1.07714 0.28016 0.0
C486 C 0.60409 0.58249 0.6934 0.0
C487 C 0.5677 0.61733 0.70658 0.0
C488 C 0.51618 0.61555 0.642 0.0
C489 C 0.56041 0.5905 0.6281 0.0
N490 N 0.65313 0.55872 0.64165 0.0
N491 N 0.49088 0.6712 0.69272 0.0
C492 C 0.60615 0.57602 0.6541 0.0
C493 C 0.52398 0.63493 0.68071 0.0
N494 N 0.635 0.55381 0.71827 0.0
N495 N 0.46577 0.61897 0.61866 0.0
H496 H 0.49439 0.68555 0.7209 0.0
H497 H 0.46299 0.69007 0.67426 0.0
H498 H 0.45722 0.60287 0.59065 0.0
H499 H 0.43 0.63225 0.62818 0.0
H500 H 0.6586 0.5242 0.70977 0.0
H501 H 0.63133 0.5553 0.74694 0.0
H502 H 0.68982 0.55256 0.65995 0.0
H503 H 0.65827 0.55622 0.61324 0.0
C504 C 0.50483 0.11867 0.61793 0.0
C505 C 0.56144 0.1136 0.61059 0.0
C506 C 0.58699 0.09955 0.67753 0.0
C507 C 0.53707 0.121 0.68559 0.0
N508 N 0.45288 0.16183 0.66058 0.0
N509 N 0.66164 0.10809 0.6375 0.0
C510 C 0.49661 0.13322 0.65506 0.0
C511 C 0.60416 0.10562 0.64134 0.0
N512 N 0.45851 0.10725 0.58981 0.0
N513 N 0.61832 1.07423 0.70445 0.0
H514 H 0.67882 0.11869 0.6131 0.0
H515 H 0.69387 0.10663 0.66045 0.0
H516 H 0.60545 1.06768 0.73085 0.0
H517 H 0.65274 1.05459 0.69883 0.0
H518 H 0.41557 0.1075 0.59442 0.0
H519 H 0.46325 0.0892 0.56384 0.0
H520 H 0.42567 0.1741 0.63809 0.0
H521 H 0.44805 0.17899 0.68677 0.0
C522 C 0.56885 0.62628 0.95357 0.0
C523 C 0.60112 0.66646 0.93397 0.0
C524 C 0.64567 0.71706 -0.00587 0.0
C525 C 0.62169 0.67156 0.0135 0.0
N526 N 0.56375 0.58045 0.01166 0.0
N527 N 0.66825 0.7516 0.93441 0.0
C528 C 0.58345 0.6258 -0.00671 0.0
C529 C 0.63852 0.71274 0.95393 0.0
N530 N 0.5238 0.58893 0.93413 0.0
N531 N 0.6745 0.76444 0.01429 0.0
H532 H 0.66097 0.75094 0.905 0.0
H533 H 0.7016 0.7829 0.94705 0.0
H534 H 0.67991 0.76884 0.04372 0.0
H535 H 0.68877 0.80081 0.00201 0.0
H536 H 0.49517 0.56174 0.94717 0.0
H537 H 0.51108 0.58937 0.90512 0.0
H538 H 0.54148 0.54339 -0.00229 0.0
H539 H 0.57359 0.57806 0.04074 0.0
C540 C 1.04292 0.66742 0.26372 0.0
C541 C 0.0949 0.67272 0.24686 0.0
C542 C 0.15055 0.65838 0.30778 0.0
C543 C 0.1006 0.66132 0.32537 0.0
N544 N 1.00002 0.67318 0.32126 0.0
N545 N 0.20063 0.68386 0.25504 0.0
C546 C 0.0468 0.66665 0.30363 0.0
C547 C 0.1494 0.67033 0.26931 0.0
N548 N 0.98961 0.6617 0.24159 0.0
N549 N 0.19936 0.64463 0.32806 0.0
H550 H 0.20287 0.69713 0.22802 0.0
H551 H 0.24165 0.68805 0.27139 0.0
H552 H 0.20168 0.63616 0.35646 0.0
H553 H 0.23512 0.63634 0.31587 0.0
H554 H 0.9501 0.6516 0.25187 0.0
H555 H 0.98459 0.66222 0.21233 0.0
H556 H 0.96194 0.68436 0.30752 0.0
H557 H 1.00065 0.67087 0.3503 0.0
loop_
_geom_bond_atom_site_label_1
_geom_bond_atom_site_label_2
_geom_bond_distance
_geom_bond_site_symmetry_2
_ccdc_geom_bond_type
Pr0 C2 2.880 . S
Pr0 O20 2.562 . S
Pr0 O21 2.490 . S
Pr0 O22 2.695 1_655 S
Pr0 O23 2.512 . S
Pr0 O25 2.437 . S
Pr0 O28 2.436 1_655 S
Pr0 O30 2.438 1_655 S
Pr1 C11 2.880 . S
Pr1 O22 2.436 . S
Pr1 O24 2.438 1_455 S
Pr1 O26 2.562 . S
Pr1 O27 2.490 . S
Pr1 O28 2.695 . S
Pr1 O29 2.512 . S
Pr1 O31 2.437 . S
C2 Pr0 2.880 . S
C2 C3 1.491 . S
C2 O20 1.254 . S
C2 O21 1.225 . S
C3 C2 1.491 . S
C3 C4 1.392 . S
C3 C8 1.356 . S
C4 C3 1.392 . S
C4 C5 1.368 . S
C4 H32 0.929 . S
C5 C4 1.368 . S
C5 C6 1.386 . S
C5 H33 0.929 . S
C6 C5 1.386 . S
C6 C7 1.373 . S
C7 C6 1.373 . S
C7 C8 1.409 . S
C7 H34 0.931 . S
C8 C3 1.356 . S
C8 C7 1.409 . S
C8 H35 0.930 . S
C9 O22 1.270 . S
C9 O23 1.248 1_455 S
C10 O24 1.267 . S
C10 O25 1.278 . S
C11 Pr1 2.880 . S
C11 C12 1.491 . S
C11 O26 1.254 . S
C11 O27 1.225 . S
C12 C11 1.491 . S
C12 C13 1.392 . S
C12 C17 1.356 . S
C13 C12 1.392 . S
C13 C14 1.368 . S
C13 H36 0.929 . S
C14 C13 1.368 . S
C14 C15 1.386 . S
C14 H37 0.929 . S
C15 C14 1.386 . S
C15 C16 1.373 . S
C16 C15 1.373 . S
C16 C17 1.409 . S
C16 H38 0.931 . S
C17 C12 1.356 . S
C17 C16 1.409 . S
C17 H39 0.930 . S
C18 O28 1.270 . S
C18 O29 1.248 . S
C19 O30 1.267 . S
C19 O31 1.278 . S
O20 Pr0 2.562 . S
O20 C2 1.254 . S
O21 Pr0 2.490 . S
O21 C2 1.225 . S
O22 Pr0 2.695 1_455 S
O22 Pr1 2.436 . S
O22 C9 1.270 . S
O23 Pr0 2.512 . S
O23 C9 1.248 1_655 S
O24 Pr1 2.438 1_655 S
O24 C10 1.267 . S
O25 Pr0 2.437 . S
O25 C10 1.278 . S
O26 Pr1 2.562 . S
O26 C11 1.254 . S
O27 Pr1 2.490 . S
O27 C11 1.225 . S
O28 Pr0 2.436 1_455 S
O28 Pr1 2.695 . S
O28 C18 1.270 . S
O29 Pr1 2.512 . S
O29 C18 1.248 . S
O30 Pr0 2.438 1_455 S
O30 C19 1.267 . S
O31 Pr1 2.437 . S
O31 C19 1.278 . S
H32 C4 0.929 . S
H33 C5 0.929 . S
H34 C7 0.931 . S
H35 C8 0.930 . S
H36 C13 0.929 . S
H37 C14 0.929 . S
H38 C16 0.931 . S
H39 C17 0.930 . S
Pr40 C42 2.880 . S
Pr40 O60 2.562 . S
Pr40 O61 2.490 . S
Pr40 O62 2.695 . S
Pr40 O63 2.512 . S
Pr40 O65 2.437 . S
Pr40 O68 2.436 . S
Pr40 O70 2.438 1_545 S
Pr41 C51 2.880 1_545 S
Pr41 O62 2.436 . S
Pr41 O64 2.438 . S
Pr41 O66 2.562 1_545 S
Pr41 O67 2.490 1_545 S
Pr41 O68 2.695 . S
Pr41 O69 2.512 . S
Pr41 O71 2.437 1_545 S
C42 Pr40 2.880 . S
C42 C43 1.491 . S
C42 O60 1.254 . S
C42 O61 1.225 . S
C43 C42 1.491 . S
C43 C44 1.392 . S
C43 C48 1.356 . S
C44 C43 1.392 . S
C44 C45 1.368 . S
C44 H72 0.929 . S
C45 C44 1.368 . S
C45 C46 1.386 . S
C45 H73 0.929 . S
C46 C45 1.386 . S
C46 C47 1.373 . S
C47 C46 1.373 . S
C47 C48 1.409 . S
C47 H74 0.931 . S
C48 C43 1.356 . S
C48 C47 1.409 . S
C48 H75 0.930 . S
C49 O62 1.270 . S
C49 O63 1.248 . S
C50 O64 1.267 . S
C50 O65 1.278 . S
C51 Pr41 2.880 1_565 S
C51 C52 1.491 . S
C51 O66 1.254 . S
C51 O67 1.225 . S
C52 C51 1.491 . S
C52 C53 1.392 . S
C52 C57 1.356 . S
C53 C52 1.392 . S
C53 C54 1.368 . S
C53 H76 0.929 . S
C54 C53 1.368 . S
C54 C55 1.386 . S
C54 H77 0.929 . S
C55 C54 1.386 . S
C55 C56 1.373 . S
C56 C55 1.373 . S
C56 C57 1.409 . S
C56 H78 0.931 . S
C57 C52 1.356 . S
C57 C56 1.409 . S
C57 H79 0.930 . S
C58 O68 1.270 . S
C58 O69 1.248 . S
C59 O70 1.267 . S
C59 O71 1.278 . S
O60 Pr40 2.562 . S
O60 C42 1.254 . S
O61 Pr40 2.490 . S
O61 C42 1.225 . S
O62 Pr40 2.695 . S
O62 Pr41 2.436 . S
O62 C49 1.270 . S
O63 Pr40 2.512 . S
O63 C49 1.248 . S
O64 Pr41 2.438 . S
O64 C50 1.267 . S
O65 Pr40 2.437 . S
O65 C50 1.278 . S
O66 Pr41 2.562 1_565 S
O66 C51 1.254 . S
O67 Pr41 2.490 1_565 S
O67 C51 1.225 . S
O68 Pr40 2.436 . S
O68 Pr41 2.695 . S
O68 C58 1.270 . S
O69 Pr41 2.512 . S
O69 C58 1.248 . S
O70 Pr40 2.438 1_565 S
O70 C59 1.267 . S
O71 Pr41 2.437 1_565 S
O71 C59 1.278 . S
H72 C44 0.929 . S
H73 C45 0.929 . S
H74 C47 0.931 . S
H75 C48 0.930 . S
H76 C53 0.929 . S
H77 C54 0.929 . S
H78 C56 0.931 . S
H79 C57 0.930 . S
Pr80 C82 2.880 . S
Pr80 O100 2.562 . S
Pr80 O101 2.490 . S
Pr80 O102 2.695 . S
Pr80 O103 2.512 . S
Pr80 O105 2.437 . S
Pr80 O108 2.436 . S
Pr80 O110 2.438 . S
Pr81 C91 2.880 . S
Pr81 O102 2.436 . S
Pr81 O104 2.438 . S
Pr81 O106 2.562 . S
Pr81 O107 2.490 . S
Pr81 O108 2.695 . S
Pr81 O109 2.512 . S
Pr81 O111 2.437 . S
C82 Pr80 2.880 . S
C82 C83 1.491 . S
C82 O100 1.254 . S
C82 O101 1.225 . S
C83 C82 1.491 . S
C83 C84 1.392 . S
C83 C88 1.356 . S
C84 C83 1.392 . S
C84 C85 1.368 . S
C84 H112 0.929 . S
C85 C84 1.368 . S
C85 C86 1.386 . S
C85 H113 0.929 . S
C86 C85 1.386 . S
C86 C87 1.373 . S
C87 C86 1.373 . S
C87 C88 1.409 . S
C87 H114 0.931 . S
C88 C83 1.356 . S
C88 C87 1.409 . S
C88 H115 0.930 . S
C89 O102 1.270 . S
C89 O103 1.248 . S
C90 O104 1.267 . S
C90 O105 1.278 . S
C91 Pr81 2.880 . S
C91 C92 1.491 . S
C91 O106 1.254 . S
C91 O107 1.225 . S
C92 C91 1.491 . S
C92 C93 1.392 . S
C92 C97 1.356 . S
C93 C92 1.392 . S
C93 C94 1.368 . S
C93 H116 0.929 . S
C94 C93 1.368 . S
C94 C95 1.386 . S
C94 H117 0.929 . S
C95 C94 1.386 . S
C95 C96 1.373 . S
C96 C95 1.373 . S
C96 C97 1.409 . S
C96 H118 0.931 . S
C97 C92 1.356 . S
C97 C96 1.409 . S
C97 H119 0.930 . S
C98 O108 1.270 . S
C98 O109 1.248 . S
C99 O110 1.267 . S
C99 O111 1.278 . S
O100 Pr80 2.562 . S
O100 C82 1.254 . S
O101 Pr80 2.490 . S
O101 C82 1.225 . S
O102 Pr80 2.695 . S
O102 Pr81 2.436 . S
O102 C89 1.270 . S
O103 Pr80 2.512 . S
O103 C89 1.248 . S
O104 Pr81 2.438 . S
O104 C90 1.267 . S
O105 Pr80 2.437 . S
O105 C90 1.278 . S
O106 Pr81 2.562 . S
O106 C91 1.254 . S
O107 Pr81 2.490 . S
O107 C91 1.225 . S
O108 Pr80 2.436 . S
O108 Pr81 2.695 . S
O108 C98 1.270 . S
O109 Pr81 2.512 . S
O109 C98 1.248 . S
O110 Pr80 2.438 . S
O110 C99 1.267 . S
O111 Pr81 2.437 . S
O111 C99 1.278 . S
H112 C84 0.929 . S
H113 C85 0.929 . S
H114 C87 0.931 . S
H115 C88 0.930 . S
H116 C93 0.929 . S
H117 C94 0.929 . S
H118 C96 0.931 . S
H119 C97 0.930 . S
H120 C121 0.949 . S
C121 H120 0.949 . S
C121 C122 1.395 . S
C121 C123 1.391 . S
C122 C121 1.395 . S
C122 C125 1.390 . S
C123 C121 1.391 . S
C123 C127 1.387 . S
C123 C128 1.491 . S
H124 C125 0.950 1_565 S
C125 C122 1.390 . S
C125 H124 0.950 1_545 S
C125 C126 1.378 . S
C126 C125 1.378 . S
C126 C127 1.417 . S
C127 C123 1.387 . S
C127 C126 1.417 . S
C127 H129 0.951 . S
C128 C123 1.491 . S
C128 C130 1.382 . S
C128 C132 1.404 . S
H129 C127 0.951 . S
C130 C128 1.382 . S
C130 C131 1.390 . S
C130 H135 0.949 . S
C131 C130 1.390 . S
C131 C136 1.399 . S
C132 C128 1.404 . S
C132 H133 0.950 . S
C132 C134 1.375 . S
H133 C132 0.950 . S
C134 C132 1.375 . S
C134 C136 1.382 . S
C134 H138 0.950 . S
H135 C130 0.949 . S
C136 C131 1.399 . S
C136 C134 1.382 . S
C136 H137 0.952 . S
H137 C136 0.952 . S
H138 C134 0.950 . S
H139 C140 0.949 . S
C140 H139 0.949 . S
C140 C141 1.395 . S
C140 C142 1.391 . S
C141 C140 1.395 . S
C141 C144 1.390 . S
C142 C140 1.391 . S
C142 C146 1.387 . S
C142 C147 1.491 . S
H143 C144 0.950 . S
C144 C141 1.390 . S
C144 H143 0.950 . S
C144 C145 1.378 . S
C145 C144 1.378 . S
C145 C146 1.409 . S
C146 C142 1.387 . S
C146 C145 1.409 . S
C146 H148 0.951 . S
C147 C142 1.491 . S
C147 C149 1.382 . S
C147 C151 1.404 . S
H148 C146 0.951 . S
C149 C147 1.382 . S
C149 C150 1.390 . S
C149 H154 0.949 . S
C150 C149 1.390 . S
C150 C155 1.399 . S
C151 C147 1.404 . S
C151 H152 0.950 . S
C151 C153 1.375 . S
H152 C151 0.950 . S
C153 C151 1.375 . S
C153 C155 1.382 . S
C153 H157 0.950 . S
H154 C149 0.949 . S
C155 C150 1.399 . S
C155 C153 1.382 . S
C155 H156 0.952 . S
H156 C155 0.952 . S
H157 C153 0.950 . S
H158 C159 0.949 . S
C159 H158 0.949 . S
C159 C160 1.395 . S
C159 C161 1.391 . S
C160 C159 1.395 . S
C160 C163 1.390 1_455 S
C161 C159 1.391 . S
C161 C165 1.387 1_455 S
C161 C166 1.491 . S
H162 C163 0.950 . S
C163 C160 1.390 1_655 S
C163 H162 0.950 . S
C163 C164 1.378 . S
C164 C163 1.378 . S
C164 C165 1.409 . S
C165 C161 1.387 1_655 S
C165 C164 1.409 . S
C165 H167 0.951 . S
C166 C161 1.491 . S
C166 C168 1.382 . S
C166 C170 1.404 . S
H167 C165 0.951 . S
C168 C166 1.382 . S
C168 C169 1.390 . S
C168 H173 0.949 . S
C169 C168 1.390 . S
C169 C174 1.399 . S
C170 C166 1.404 . S
C170 H171 0.950 . S
C170 C172 1.375 . S
H171 C170 0.950 . S
C172 C170 1.375 . S
C172 C174 1.382 . S
C172 H176 0.950 . S
H173 C168 0.949 . S
C174 C169 1.399 . S
C174 C172 1.382 . S
C174 H175 0.952 . S
H175 C174 0.952 . S
H176 C172 0.950 . S
H177 C178 0.949 . S
C178 H177 0.949 . S
C178 C179 1.395 1_655 S
C178 C180 1.391 1_655 S
C179 C178 1.395 1_455 S
C179 C182 1.390 . S
C180 C178 1.391 1_455 S
C180 C184 1.387 . S
C180 C185 1.491 1_455 S
H181 C182 0.950 . S
C182 C179 1.390 . S
C182 H181 0.950 . S
C182 C183 1.378 . S
C183 C182 1.378 . S
C183 C184 1.409 . S
C184 C180 1.387 . S
C184 C183 1.409 . S
C184 H186 0.951 . S
C185 C180 1.491 1_655 S
C185 C187 1.382 . S
C185 C189 1.404 . S
H186 C184 0.951 . S
C187 C185 1.382 . S
C187 C188 1.390 . S
C187 H192 0.949 . S
C188 C187 1.390 . S
C188 C193 1.399 . S
C189 C185 1.404 . S
C189 H190 0.950 . S
C189 C191 1.375 . S
H190 C189 0.950 . S
C191 C189 1.375 . S
C191 C193 1.382 . S
C191 H195 0.950 . S
H192 C187 0.949 . S
C193 C188 1.399 . S
C193 C191 1.382 . S
C193 H194 0.952 . S
H194 C193 0.952 . S
H195 C191 0.950 . S
H196 C197 0.949 1_565 S
C197 H196 0.949 1_545 S
C197 C198 1.395 . S
C197 C199 1.391 . S
C198 C197 1.395 . S
C198 C201 1.390 . S
C199 C197 1.391 . S
C199 C203 1.387 . S
C199 C204 1.491 1_545 S
H200 C201 0.950 . S
C201 C198 1.390 . S
C201 H200 0.950 . S
C201 C202 1.378 . S
C202 C201 1.378 . S
C202 C203 1.409 . S
C203 C199 1.387 . S
C203 C202 1.409 . S
C203 H205 0.951 . S
C204 C199 1.491 1_565 S
C204 C206 1.382 . S
C204 C208 1.404 . S
H205 C203 0.951 . S
C206 C204 1.382 . S
C206 C207 1.390 . S
C206 H211 0.949 . S
C207 C206 1.390 . S
C207 C212 1.399 . S
C208 C204 1.404 . S
C208 H209 0.950 1_565 S
C208 C210 1.375 . S
H209 C208 0.950 1_545 S
C210 C208 1.375 . S
C210 C212 1.382 . S
C210 H214 0.950 . S
H211 C206 0.949 . S
C212 C207 1.399 . S
C212 C210 1.382 . S
C212 H213 0.952 . S
H213 C212 0.952 . S
H214 C210 0.950 . S
H215 C216 0.949 . S
C216 H215 0.949 . S
C216 C217 1.395 . S
C216 C218 1.391 . S
C217 C216 1.395 . S
C217 C220 1.390 . S
C218 C216 1.391 . S
C218 C222 1.387 . S
C218 C223 1.491 . S
H219 C220 0.950 . S
C220 C217 1.390 . S
C220 H219 0.950 . S
C220 C221 1.378 . S
C221 C220 1.378 . S
C221 C222 1.409 . S
C222 C218 1.387 . S
C222 C221 1.409 . S
C222 H224 0.951 . S
C223 C218 1.491 . S
C223 C225 1.382 . S
C223 C227 1.404 . S
H224 C222 0.951 . S
C225 C223 1.382 . S
C225 C226 1.390 . S
C225 H230 0.949 . S
C226 C225 1.390 . S
C226 C231 1.399 . S
C227 C223 1.404 . S
C227 H228 0.950 . S
C227 C229 1.375 . S
H228 C227 0.950 . S
C229 C227 1.375 . S
C229 C231 1.382 . S
C229 H233 0.950 . S
H230 C225 0.949 . S
C231 C226 1.399 . S
C231 C229 1.382 . S
C231 H232 0.952 . S
H232 C231 0.952 . S
H233 C229 0.950 . S
C234 C235 1.363 . S
C234 C240 1.379 . S
C234 N242 1.356 . S
C235 C234 1.363 . S
C235 C241 1.363 . S
C236 C237 1.363 . S
C236 C241 1.379 . S
C236 N243 1.356 . S
C237 C236 1.363 . S
C237 C240 1.363 . S
N238 C240 1.356 . S
N238 H250 0.984 . S
N238 H251 0.985 . S
N239 C241 1.356 . S
N239 H244 0.984 . S
N239 H245 0.985 . S
C240 C234 1.379 . S
C240 C237 1.363 . S
C240 N238 1.356 . S
C241 C235 1.363 . S
C241 C236 1.379 . S
C241 N239 1.356 . S
N242 C234 1.356 . S
N242 H248 0.984 . S
N242 H249 0.984 . S
N243 C236 1.356 . S
N243 H246 0.984 . S
N243 H247 0.985 . S
H244 N239 0.984 . S
H245 N239 0.985 . S
H246 N243 0.984 . S
H247 N243 0.985 . S
H248 N242 0.984 . S
H249 N242 0.984 . S
H250 N238 0.984 . S
H251 N238 0.985 . S
C252 C253 1.363 . S
C252 C258 1.379 . S
C252 N260 1.356 . S
C253 C252 1.363 . S
C253 C259 1.363 . S
C254 C255 1.363 . S
C254 C259 1.379 . S
C254 N261 1.356 . S
C255 C254 1.363 . S
C255 C258 1.363 . S
N256 C258 1.356 . S
N256 H268 0.984 . S
N256 H269 0.985 . S
N257 C259 1.356 . S
N257 H262 0.984 . S
N257 H263 0.985 . S
C258 C252 1.379 . S
C258 C255 1.363 . S
C258 N256 1.356 . S
C259 C253 1.363 . S
C259 C254 1.379 . S
C259 N257 1.356 . S
N260 C252 1.356 . S
N260 H266 0.984 . S
N260 H267 0.984 . S
N261 C254 1.356 . S
N261 H264 0.984 . S
N261 H265 0.985 . S
H262 N257 0.984 . S
H263 N257 0.985 . S
H264 N261 0.984 . S
H265 N261 0.985 . S
H266 N260 0.984 . S
H267 N260 0.984 . S
H268 N256 0.984 . S
H269 N256 0.985 . S
C270 C271 1.363 . S
C270 C276 1.379 . S
C270 N278 1.356 . S
C271 C270 1.363 . S
C271 C277 1.363 . S
C272 C273 1.363 . S
C272 C277 1.379 . S
C272 N279 1.356 . S
C273 C272 1.363 . S
C273 C276 1.363 . S
N274 C276 1.356 . S
N274 H286 0.984 . S
N274 H287 0.985 . S
N275 C277 1.356 . S
N275 H280 0.984 . S
N275 H281 0.985 . S
C276 C270 1.379 . S
C276 C273 1.363 . S
C276 N274 1.356 . S
C277 C271 1.363 . S
C277 C272 1.379 . S
C277 N275 1.356 . S
N278 C270 1.356 . S
N278 H284 0.984 . S
N278 H285 0.984 . S
N279 C272 1.356 . S
N279 H282 0.984 . S
N279 H283 0.985 . S
H280 N275 0.984 . S
H281 N275 0.985 . S
H282 N279 0.984 . S
H283 N279 0.985 . S
H284 N278 0.984 . S
H285 N278 0.984 . S
H286 N274 0.984 . S
H287 N274 0.985 . S
C288 C289 1.363 . S
C288 C294 1.379 . S
C288 N296 1.356 . S
C289 C288 1.363 . S
C289 C295 1.363 . S
C290 C291 1.363 . S
C290 C295 1.379 . S
C290 N297 1.356 . S
C291 C290 1.363 . S
C291 C294 1.363 . S
N292 C294 1.356 . S
N292 H304 0.984 . S
N292 H305 0.985 . S
N293 C295 1.356 . S
N293 H298 0.984 . S
N293 H299 0.985 . S
C294 C288 1.379 . S
C294 C291 1.363 . S
C294 N292 1.356 . S
C295 C289 1.363 . S
C295 C290 1.379 . S
C295 N293 1.356 . S
N296 C288 1.356 . S
N296 H302 0.984 . S
N296 H303 0.984 . S
N297 C290 1.356 . S
N297 H300 0.984 . S
N297 H301 0.985 . S
H298 N293 0.984 . S
H299 N293 0.985 . S
H300 N297 0.984 . S
H301 N297 0.985 . S
H302 N296 0.984 . S
H303 N296 0.984 . S
H304 N292 0.984 . S
H305 N292 0.985 . S
C306 C307 1.363 . S
C306 C312 1.379 . S
C306 N314 1.356 . S
C307 C306 1.363 . S
C307 C313 1.363 . S
C308 C309 1.363 . S
C308 C313 1.379 . S
C308 N315 1.356 . S
C309 C308 1.363 . S
C309 C312 1.363 . S
N310 C312 1.356 . S
N310 H322 0.984 . S
N310 H323 0.985 . S
N311 C313 1.356 . S
N311 H316 0.984 . S
N311 H317 0.985 . S
C312 C306 1.379 . S
C312 C309 1.363 . S
C312 N310 1.356 . S
C313 C307 1.363 . S
C313 C308 1.379 . S
C313 N311 1.356 . S
N314 C306 1.356 . S
N314 H320 0.984 . S
N314 H321 0.984 . S
N315 C308 1.356 . S
N315 H318 0.984 . S
N315 H319 0.985 . S
H316 N311 0.984 . S
H317 N311 0.985 . S
H318 N315 0.984 . S
H319 N315 0.985 . S
H320 N314 0.984 . S
H321 N314 0.984 . S
H322 N310 0.984 . S
H323 N310 0.985 . S
C324 C325 1.363 . S
C324 C330 1.379 . S
C324 N332 1.356 . S
C325 C324 1.363 . S
C325 C331 1.363 . S
C326 C327 1.363 . S
C326 C331 1.379 . S
C326 N333 1.356 . S
C327 C326 1.363 . S
C327 C330 1.363 . S
N328 C330 1.356 . S
N328 H340 0.984 . S
N328 H341 0.985 . S
N329 C331 1.356 . S
N329 H334 0.984 . S
N329 H335 0.985 . S
C330 C324 1.379 . S
C330 C327 1.363 . S
C330 N328 1.356 . S
C331 C325 1.363 . S
C331 C326 1.379 . S
C331 N329 1.356 . S
N332 C324 1.356 . S
N332 H338 0.984 . S
N332 H339 0.984 . S
N333 C326 1.356 . S
N333 H336 0.984 . S
N333 H337 0.985 . S
H334 N329 0.984 . S
H335 N329 0.985 . S
H336 N333 0.984 . S
H337 N333 0.985 . S
H338 N332 0.984 . S
H339 N332 0.984 . S
H340 N328 0.984 . S
H341 N328 0.985 . S
C342 C343 1.363 . S
C342 C348 1.379 . S
C342 N350 1.356 . S
C343 C342 1.363 . S
C343 C349 1.363 . S
C344 C345 1.363 . S
C344 C349 1.379 . S
C344 N351 1.356 . S
C345 C344 1.363 . S
C345 C348 1.363 . S
N346 C348 1.356 . S
N346 H358 0.984 . S
N346 H359 0.985 . S
N347 C349 1.356 . S
N347 H352 0.984 . S
N347 H353 0.985 . S
C348 C342 1.379 . S
C348 C345 1.363 . S
C348 N346 1.356 . S
C349 C343 1.363 . S
C349 C344 1.379 . S
C349 N347 1.356 . S
N350 C342 1.356 . S
N350 H356 0.984 . S
N350 H357 0.984 . S
N351 C344 1.356 . S
N351 H354 0.984 . S
N351 H355 0.985 . S
H352 N347 0.984 . S
H353 N347 0.985 . S
H354 N351 0.984 . S
H355 N351 0.985 . S
H356 N350 0.984 . S
H357 N350 0.984 . S
H358 N346 0.984 . S
H359 N346 0.985 . S
C360 C361 1.363 . S
C360 C366 1.379 . S
C360 N368 1.356 . S
C361 C360 1.363 . S
C361 C367 1.363 . S
C362 C363 1.363 . S
C362 C367 1.379 . S
C362 N369 1.356 . S
C363 C362 1.363 . S
C363 C366 1.363 . S
N364 C366 1.356 . S
N364 H376 0.984 . S
N364 H377 0.985 . S
N365 C367 1.356 . S
N365 H370 0.984 . S
N365 H371 0.985 . S
C366 C360 1.379 . S
C366 C363 1.363 . S
C366 N364 1.356 . S
C367 C361 1.363 . S
C367 C362 1.379 . S
C367 N365 1.356 . S
N368 C360 1.356 . S
N368 H374 0.984 . S
N368 H375 0.984 . S
N369 C362 1.356 . S
N369 H372 0.984 . S
N369 H373 0.985 . S
H370 N365 0.984 . S
H371 N365 0.985 . S
H372 N369 0.984 . S
H373 N369 0.985 . S
H374 N368 0.984 . S
H375 N368 0.984 . S
H376 N364 0.984 . S
H377 N364 0.985 . S
C378 C379 1.363 . S
C378 C384 1.379 . S
C378 N386 1.356 . S
C379 C378 1.363 . S
C379 C385 1.363 . S
C380 C381 1.363 . S
C380 C385 1.379 . S
C380 N387 1.356 . S
C381 C380 1.363 . S
C381 C384 1.363 . S
N382 C384 1.356 . S
N382 H394 0.989 . S
N382 H395 0.985 1_565 S
N383 C385 1.356 . S
N383 H388 0.984 . S
N383 H389 0.985 . S
C384 C378 1.379 . S
C384 C381 1.363 . S
C384 N382 1.356 . S
C385 C379 1.363 . S
C385 C380 1.379 . S
C385 N383 1.356 . S
N386 C378 1.356 . S
N386 H392 0.984 . S
N386 H393 0.984 . S
N387 C380 1.356 . S
N387 H390 0.984 . S
N387 H391 0.985 . S
H388 N383 0.984 . S
H389 N383 0.985 . S
H390 N387 0.984 . S
H391 N387 0.985 . S
H392 N386 0.984 . S
H393 N386 0.984 . S
H394 N382 0.989 . S
H395 N382 0.985 1_545 S
C396 C397 1.363 . S
C396 C402 1.379 . S
C396 N404 1.356 . S
C397 C396 1.363 . S
C397 C403 1.363 . S
C398 C399 1.363 . S
C398 C403 1.379 . S
C398 N405 1.356 . S
C399 C398 1.363 . S
C399 C402 1.363 . S
N400 C402 1.356 . S
N400 H412 0.984 . S
N400 H413 0.985 . S
N401 C403 1.356 . S
N401 H406 0.984 . S
N401 H407 0.985 . S
C402 C396 1.379 . S
C402 C399 1.363 . S
C402 N400 1.356 . S
C403 C397 1.363 . S
C403 C398 1.379 . S
C403 N401 1.356 . S
N404 C396 1.356 . S
N404 H410 0.984 . S
N404 H411 0.984 . S
N405 C398 1.356 . S
N405 H408 0.984 . S
N405 H409 0.985 . S
H406 N401 0.984 . S
H407 N401 0.985 . S
H408 N405 0.984 . S
H409 N405 0.985 . S
H410 N404 0.984 . S
H411 N404 0.984 . S
H412 N400 0.984 . S
H413 N400 0.985 . S
C414 C415 1.363 . S
C414 C420 1.379 . S
C414 N422 1.356 . S
C415 C414 1.363 . S
C415 C421 1.363 . S
C416 C417 1.363 . S
C416 C421 1.379 . S
C416 N423 1.356 . S
C417 C416 1.363 . S
C417 C420 1.363 . S
N418 C420 1.356 . S
N418 H430 0.984 . S
N418 H431 0.985 . S
N419 C421 1.356 . S
N419 H424 0.984 . S
N419 H425 0.985 . S
C420 C414 1.379 . S
C420 C417 1.363 . S
C420 N418 1.356 . S
C421 C415 1.363 . S
C421 C416 1.379 . S
C421 N419 1.356 . S
N422 C414 1.356 . S
N422 H428 0.984 . S
N422 H429 0.984 . S
N423 C416 1.356 . S
N423 H426 0.984 . S
N423 H427 0.985 . S
H424 N419 0.984 . S
H425 N419 0.985 . S
H426 N423 0.984 . S
H427 N423 0.985 . S
H428 N422 0.984 . S
H429 N422 0.984 . S
H430 N418 0.984 . S
H431 N418 0.985 . S
C432 C433 1.363 . S
C432 C438 1.379 . S
C432 N440 1.356 . S
C433 C432 1.363 . S
C433 C439 1.363 . S
C434 C435 1.363 . S
C434 C439 1.379 . S
C434 N441 1.356 . S
C435 C434 1.363 . S
C435 C438 1.363 . S
N436 C438 1.356 . S
N436 H448 0.984 . S
N436 H449 0.985 . S
N437 C439 1.356 . S
N437 H442 0.984 . S
N437 H443 0.985 . S
C438 C432 1.379 . S
C438 C435 1.363 . S
C438 N436 1.356 . S
C439 C433 1.363 . S
C439 C434 1.379 . S
C439 N437 1.356 . S
N440 C432 1.356 . S
N440 H446 0.984 . S
N440 H447 0.984 . S
N441 C434 1.356 . S
N441 H444 0.984 . S
N441 H445 0.985 . S
H442 N437 0.984 . S
H443 N437 0.985 . S
H444 N441 0.984 . S
H445 N441 0.985 . S
H446 N440 0.984 . S
H447 N440 0.984 . S
H448 N436 0.984 . S
H449 N436 0.985 . S
C450 C451 1.363 . S
C450 C456 1.379 1_554 S
C450 N458 1.356 1_455 S
C451 C450 1.363 . S
C451 C457 1.363 . S
C452 C453 1.363 . S
C452 C457 1.379 1_556 S
C452 N459 1.356 . S
C453 C452 1.363 . S
C453 C456 1.363 . S
N454 C456 1.356 1_655 S
N454 H466 0.984 . S
N454 H467 0.985 1_655 S
N455 C457 1.356 . S
N455 H460 0.984 . S
N455 H461 0.985 . S
C456 C450 1.379 1_556 S
C456 C453 1.363 . S
C456 N454 1.356 1_455 S
C457 C451 1.363 . S
C457 C452 1.379 1_554 S
C457 N455 1.356 . S
N458 C450 1.356 1_655 S
N458 H464 0.984 . S
N458 H465 0.984 . S
N459 C452 1.356 . S
N459 H462 0.984 . S
N459 H463 0.985 . S
H460 N455 0.984 . S
H461 N455 0.985 . S
H462 N459 0.984 . S
H463 N459 0.985 . S
H464 N458 0.984 . S
H465 N458 0.984 . S
H466 N454 0.984 . S
H467 N454 0.985 1_455 S
C468 C469 1.363 . S
C468 C474 1.379 . S
C468 N476 1.356 1_545 S
C469 C468 1.363 . S
C469 C475 1.363 . S
C470 C471 1.363 . S
C470 C475 1.379 . S
C470 N477 1.356 . S
C471 C470 1.363 . S
C471 C474 1.363 . S
N472 C474 1.356 1_565 S
N472 H484 0.984 . S
N472 H485 0.982 1_565 S
N473 C475 1.356 . S
N473 H478 0.984 . S
N473 H479 0.985 . S
C474 C468 1.379 . S
C474 C471 1.363 . S
C474 N472 1.356 1_545 S
C475 C469 1.363 . S
C475 C470 1.379 . S
C475 N473 1.356 . S
N476 C468 1.356 1_565 S
N476 H482 0.984 . S
N476 H483 0.984 1_565 S
N477 C470 1.356 . S
N477 H480 0.984 . S
N477 H481 0.985 . S
H478 N473 0.984 . S
H479 N473 0.985 . S
H480 N477 0.984 . S
H481 N477 0.985 . S
H482 N476 0.984 . S
H483 N476 0.984 1_545 S
H484 N472 0.984 . S
H485 N472 0.982 1_545 S
C486 C487 1.363 . S
C486 C492 1.379 . S
C486 N494 1.356 . S
C487 C486 1.363 . S
C487 C493 1.363 . S
C488 C489 1.363 . S
C488 C493 1.379 . S
C488 N495 1.356 . S
C489 C488 1.363 . S
C489 C492 1.363 . S
N490 C492 1.356 . S
N490 H502 0.984 . S
N490 H503 0.985 . S
N491 C493 1.356 . S
N491 H496 0.984 . S
N491 H497 0.985 . S
C492 C486 1.379 . S
C492 C489 1.363 . S
C492 N490 1.356 . S
C493 C487 1.363 . S
C493 C488 1.379 . S
C493 N491 1.356 . S
N494 C486 1.356 . S
N494 H500 0.984 . S
N494 H501 0.984 . S
N495 C488 1.356 . S
N495 H498 0.984 . S
N495 H499 0.985 . S
H496 N491 0.984 . S
H497 N491 0.985 . S
H498 N495 0.984 . S
H499 N495 0.985 . S
H500 N494 0.984 . S
H501 N494 0.984 . S
H502 N490 0.984 . S
H503 N490 0.985 . S
C504 C505 1.363 . S
C504 C510 1.379 . S
C504 N512 1.356 . S
C505 C504 1.363 . S
C505 C511 1.363 . S
C506 C507 1.363 . S
C506 C511 1.379 . S
C506 N513 1.356 . S
C507 C506 1.363 . S
C507 C510 1.363 . S
N508 C510 1.356 . S
N508 H520 0.984 1_545 S
N508 H521 0.985 . S
N509 C511 1.356 . S
N509 H514 0.984 . S
N509 H515 0.985 . S
C510 C504 1.379 . S
C510 C507 1.363 . S
C510 N508 1.356 . S
C511 C505 1.363 . S
C511 C506 1.379 . S
C511 N509 1.356 . S
N512 C504 1.356 . S
N512 H518 0.984 1_545 S
N512 H519 0.984 . S
N513 C506 1.356 . S
N513 H516 0.984 . S
N513 H517 0.985 . S
H514 N509 0.984 . S
H515 N509 0.985 . S
H516 N513 0.984 . S
H517 N513 0.985 . S
H518 N512 0.984 1_565 S
H519 N512 0.984 . S
H520 N508 0.984 1_565 S
H521 N508 0.985 . S
C522 C523 1.363 . S
C522 C528 1.379 1_556 S
C522 N530 1.356 . S
C523 C522 1.363 . S
C523 C529 1.363 . S
C524 C525 1.363 . S
C524 C529 1.379 1_554 S
C524 N531 1.356 . S
C525 C524 1.363 . S
C525 C528 1.363 . S
N526 C528 1.356 . S
N526 H538 0.984 . S
N526 H539 0.985 . S
N527 C529 1.356 . S
N527 H532 0.984 . S
N527 H533 0.985 . S
C528 C522 1.379 1_554 S
C528 C525 1.363 . S
C528 N526 1.356 . S
C529 C523 1.363 . S
C529 C524 1.379 1_556 S
C529 N527 1.356 . S
N530 C522 1.356 . S
N530 H536 0.984 . S
N530 H537 0.984 . S
N531 C524 1.356 . S
N531 H534 0.984 . S
N531 H535 0.985 . S
H532 N527 0.984 . S
H533 N527 0.985 . S
H534 N531 0.984 . S
H535 N531 0.985 . S
H536 N530 0.984 . S
H537 N530 0.984 . S
H538 N526 0.984 . S
H539 N526 0.985 . S
C540 C541 1.363 1_655 S
C540 C546 1.379 . S
C540 N548 1.356 . S
C541 C540 1.363 1_455 S
C541 C547 1.363 . S
C542 C543 1.363 . S
C542 C547 1.379 . S
C542 N549 1.356 . S
C543 C542 1.363 . S
C543 C546 1.363 1_455 S
N544 C546 1.356 . S
N544 H556 0.984 . S
N544 H557 0.985 . S
N545 C547 1.356 . S
N545 H550 0.984 . S
N545 H551 0.985 . S
C546 C540 1.379 . S
C546 C543 1.363 1_655 S
C546 N544 1.356 . S
C547 C541 1.363 . S
C547 C542 1.379 . S
C547 N545 1.356 . S
N548 C540 1.356 . S
N548 H554 0.984 . S
N548 H555 0.984 . S
N549 C542 1.356 . S
N549 H552 0.984 . S
N549 H553 0.985 . S
H550 N545 0.984 . S
H551 N545 0.985 . S
H552 N549 0.984 . S
H553 N549 0.985 . S
H554 N548 0.984 . S
H555 N548 0.984 . S
H556 N544 0.984 . S
H557 N544 0.985 . S
C235 C19 2.013 . S
C237 C226 1.962 . S
C253 C46 1.342 . S
C255 C188 1.273 . S
C271 C95 0.760 . S
C273 C207 0.755 . S
C289 C10 1.929 . S
C291 C221 1.885 . S
C309 C183 1.256 . S
C307 C55 1.254 . S
C327 C202 0.731 . S
C325 C86 0.738 . S
C343 C59 3.222 . S
C345 C150 3.153 . S
C361 C90 1.956 . S
C363 C164 1.956 . S
C379 C15 1.153 . S
C381 C126 1.152 1_565 S
C399 C145 3.022 . S
C397 C50 3.055 . S
C417 C169 1.983 . S
C415 C99 2.016 . S
C433 C6 1.359 . S
C435 C131 1.257 . S
C453 C160 1.521 . S
C451 C9 1.440 . S
C469 C58 1.586 . S
C471 C122 1.571 . S
C487 C98 1.706 . S
C489 C141 1.795 . S
C507 C198 1.283 . S
C505 C49 1.218 . S
C525 C217 1.508 . S
C523 C89 1.488 . S
C541 C18 1.563 . S
C543 C179 1.547 . S
