# Generated by pormake.
# Topology nom, (4,4)-cn, num edge types: 1
# Building blocks:
#     Node 0, Type 0, BuildingBlock: MUDLON_clean_linker_0, # of connection points: 4
#     Node 1, Type 0, BuildingBlock: MUDLON_clean_linker_0, # of connection points: 4
#     Node 2, Type 0, BuildingBlock: MUDLON_clean_linker_0, # of connection points: 4
#     Node 3, Type 0, BuildingBlock: MUDLON_clean_linker_0, # of connection points: 4
#     Node 4, Type 0, BuildingBlock: MUDLON_clean_linker_0, # of connection points: 4
#     Node 5, Type 0, BuildingBlock: MUDLON_clean_linker_0, # of connection points: 4
#     Node 6, Type 1, BuildingBlock: KUFVIS_clean_sbu_0, # of connection points: 4
#     Node 7, Type 1, BuildingBlock: KUFVIS_clean_sbu_0, # of connection points: 4
#     Node 8, Type 1, BuildingBlock: KUFVIS_clean_sbu_0, # of connection points: 4
#     Node 9, Type 1, BuildingBlock: KUFVIS_clean_sbu_0, # of connection points: 4
#     Node 10, Type 1, BuildingBlock: KUFVIS_clean_sbu_0, # of connection points: 4
#     Node 11, Type 1, BuildingBlock: KUFVIS_clean_sbu_0, # of connection points: 4
#     Edge 12, Type (0, 1), BuildingBlock: ZUJKAS_clean_linker_0, # of connection points: 2
#     Edge 13, Type (0, 1), BuildingBlock: ZUJKAS_clean_linker_0, # of connection points: 2
#     Edge 14, Type (0, 1), BuildingBlock: ZUJKAS_clean_linker_0, # of connection points: 2
#     Edge 15, Type (0, 1), BuildingBlock: ZUJKAS_clean_linker_0, # of connection points: 2
#     Edge 16, Type (0, 1), BuildingBlock: ZUJKAS_clean_linker_0, # of connection points: 2
#     Edge 17, Type (0, 1), BuildingBlock: ZUJKAS_clean_linker_0, # of connection points: 2
#     Edge 18, Type (0, 1), BuildingBlock: ZUJKAS_clean_linker_0, # of connection points: 2
#     Edge 19, Type (0, 1), BuildingBlock: ZUJKAS_clean_linker_0, # of connection points: 2
#     Edge 20, Type (0, 1), BuildingBlock: ZUJKAS_clean_linker_0, # of connection points: 2
#     Edge 21, Type (0, 1), BuildingBlock: ZUJKAS_clean_linker_0, # of connection points: 2
#     Edge 22, Type (0, 1), BuildingBlock: ZUJKAS_clean_linker_0, # of connection points: 2
#     Edge 23, Type (0, 1), BuildingBlock: ZUJKAS_clean_linker_0, # of connection points: 2
#     Edge 24, Type (0, 1), BuildingBlock: ZUJKAS_clean_linker_0, # of connection points: 2
#     Edge 25, Type (0, 1), BuildingBlock: ZUJKAS_clean_linker_0, # of connection points: 2
#     Edge 26, Type (0, 1), BuildingBlock: ZUJKAS_clean_linker_0, # of connection points: 2
#     Edge 27, Type (0, 1), BuildingBlock: ZUJKAS_clean_linker_0, # of connection points: 2
#     Edge 28, Type (0, 1), BuildingBlock: ZUJKAS_clean_linker_0, # of connection points: 2
#     Edge 29, Type (0, 1), BuildingBlock: ZUJKAS_clean_linker_0, # of connection points: 2
#     Edge 30, Type (0, 1), BuildingBlock: ZUJKAS_clean_linker_0, # of connection points: 2
#     Edge 31, Type (0, 1), BuildingBlock: ZUJKAS_clean_linker_0, # of connection points: 2
#     Edge 32, Type (0, 1), BuildingBlock: ZUJKAS_clean_linker_0, # of connection points: 2
#     Edge 33, Type (0, 1), BuildingBlock: ZUJKAS_clean_linker_0, # of connection points: 2
#     Edge 34, Type (0, 1), BuildingBlock: ZUJKAS_clean_linker_0, # of connection points: 2
#     Edge 35, Type (0, 1), BuildingBlock: ZUJKAS_clean_linker_0, # of connection points: 2
# Relax obj value: 0.007
# Max RMSD: 0.105
# Mean RMSD: 0.064
data_MOF--net-nom--node1-KUFVIS_clean_sbu_0--node2-MUDLON_clean_linker_0--edge1-ZUJKAS_clean_linker_0
_symmetry_space_group_name_H-M    P1
_symmetry_Int_Tables_number       1
_symmetry_cell_setting            triclinic
loop_
_symmetry_equiv_pos_as_xyz
'x, y, z'
_cell_length_a     73.230625
_cell_length_b     74.922187
_cell_length_c     74.35407
_cell_angle_alpha  90.917898
_cell_angle_beta   90.451045
_cell_angle_gamma 120.43458
loop_
_atom_site_label
_atom_site_type_symbol
_atom_site_fract_x
_atom_site_fract_y
_atom_site_fract_z
_atom_type_partial_charge
H0 H 0.11276 0.54507 0.31498 0.0
N1 N 0.08616 0.55438 0.33057 0.0
H2 H 0.14249 0.56715 0.29582 0.0
H3 H 0.09397 0.591 0.31654 0.0
H4 H 0.12381 0.61339 0.2974 0.0
H5 H 0.09405 0.58968 0.3487 0.0
H6 H 0.11046 0.60098 0.37858 0.0
H7 H 0.09397 0.53245 0.35377 0.0
H8 H 0.11007 0.54344 0.3839 0.0
H9 H 0.06257 0.51686 0.31622 0.0
H10 H 0.05997 0.5703 0.3346 0.0
H11 H 0.02467 0.49869 0.30917 0.0
H12 H 0.02174 0.55198 0.32832 0.0
H13 H 0.93063 0.45134 0.27285 0.0
H14 H 0.91788 0.44923 0.24189 0.0
H15 H 0.90827 0.50056 0.2534 0.0
H16 H 0.92113 0.50262 0.28423 0.0
H17 H 0.92182 0.50251 0.31635 0.0
H18 H 0.88924 0.49268 0.33264 0.0
H19 H 0.87145 0.42826 0.32725 0.0
H20 H 0.90349 0.43832 0.31018 0.0
H21 H 0.95461 0.46268 0.31577 0.0
H22 H 0.99209 0.48276 0.32432 0.0
H23 H 0.9948 0.53814 0.3049 0.0
N24 N 0.93155 0.47584 0.29945 0.0
H25 H 0.95696 0.51794 0.29719 0.0
C26 C 0.10133 0.56645 0.31722 0.0
C27 C 0.11486 0.55978 0.31084 0.0
C28 C 0.13178 0.5724 0.29987 0.0
C29 C 0.13558 0.59208 0.29516 0.0
C30 C 0.12143 0.59841 0.30098 0.0
C31 C 0.10435 0.58563 0.31186 0.0
C32 C 0.09284 0.56018 0.34903 0.0
C33 C 0.09712 0.57933 0.3564 0.0
C34 C 0.10647 0.58577 0.37354 0.0
C35 C 0.11177 0.5732 0.38355 0.0
C36 C 0.10652 0.55363 0.37642 0.0
C37 C 0.09717 0.54723 0.35932 0.0
C38 C 0.06399 0.54475 0.32606 0.0
C39 C 0.05371 0.5246 0.31879 0.0
C40 C 0.03201 0.51421 0.31495 0.0
C41 C 0.01999 0.52371 0.31847 0.0
C42 C 0.03048 0.5442 0.32539 0.0
C43 C 0.05233 0.55467 0.3291 0.0
C44 C 0.92669 0.47696 0.28085 0.0
C45 C 0.92616 0.46237 0.26854 0.0
C46 C 0.91893 0.46125 0.25088 0.0
C47 C 0.91197 0.47468 0.24526 0.0
C48 C 0.91333 0.48988 0.25743 0.0
C49 C 0.92074 0.4911 0.27505 0.0
C50 C 0.91481 0.47104 0.31187 0.0
C51 C 0.91096 0.48632 0.31885 0.0
C52 C 0.89237 0.48064 0.32827 0.0
C53 C 0.87747 0.45961 0.33101 0.0
C54 C 0.88223 0.44454 0.325 0.0
C55 C 0.90064 0.45023 0.31544 0.0
C56 C 0.95311 0.48871 0.30567 0.0
C57 C 0.96329 0.4792 0.31359 0.0
C58 C 0.98476 0.4907 0.31828 0.0
C59 C 0.99666 0.51204 0.31495 0.0
C60 C 0.98617 0.52176 0.30768 0.0
C61 C 0.96453 0.5102 0.30315 0.0
H62 H 0.4596 0.92059 0.46796 0.0
N63 N 0.43756 0.94075 0.46271 0.0
H64 H 0.44903 0.89071 0.48693 0.0
H65 H 0.40688 0.92572 0.48671 0.0
H66 H 0.39602 0.89565 0.50567 0.0
H67 H 0.40283 0.91995 0.44238 0.0
H68 H 0.39956 0.90462 0.41244 0.0
H69 H 0.47033 0.94511 0.4421 0.0
H70 H 0.46741 0.93038 0.41185 0.0
H71 H 0.4753 0.95607 0.48185 0.0
H72 H 0.43636 0.97375 0.45211 0.0
H73 H 0.50103 0.99222 0.48812 0.0
H74 H 0.46285 0.01017 0.45719 0.0
H75 H 0.58292 0.11077 0.5072 0.0
H76 H 0.58911 0.12501 0.53795 0.0
H77 H 0.52152 0.09558 0.54515 0.0
H78 H 0.51552 0.08194 0.51448 0.0
H79 H 0.5255 0.11169 0.49251 0.0
H80 H 0.53342 0.14248 0.47623 0.0
H81 H 0.57662 0.13392 0.44277 0.0
H82 H 0.56975 0.1039 0.46032 0.0
H83 H 0.55332 0.05885 0.48385 0.0
H84 H 0.52754 0.02266 0.47652 0.0
H85 H 0.47733 0.03711 0.47801 0.0
N86 N 0.54617 0.0898 0.48945 0.0
H87 H 0.50348 0.07339 0.48396 0.0
C88 C 0.43392 0.92538 0.47589 0.0
C89 C 0.44594 0.91551 0.47638 0.0
C90 C 0.4398 0.89832 0.48717 0.0
C91 C 0.42155 0.89065 0.49768 0.0
C92 C 0.41026 0.90125 0.49787 0.0
C93 C 0.4164 0.91841 0.48705 0.0
C94 C 0.43673 0.9337 0.4444 0.0
C95 C 0.41698 0.92245 0.43565 0.0
C96 C 0.4152 0.91381 0.41851 0.0
C97 C 0.43324 0.91629 0.40967 0.0
C98 C 0.45316 0.92797 0.41834 0.0
C99 C 0.4549 0.93655 0.43557 0.0
C100 C 0.45355 0.96205 0.46667 0.0
C101 C 0.47223 0.96766 0.47656 0.0
C102 C 0.4872 0.98855 0.47997 0.0
C103 C 0.48417 0.00436 0.47321 0.0
C104 C 0.46564 0.9986 0.46302 0.0
C105 C 0.45051 0.97775 0.45996 0.0
C106 C 0.54886 0.09523 0.50842 0.0
C107 C 0.56948 0.10709 0.51556 0.0
C108 C 0.57295 0.11517 0.53314 0.0
C109 C 0.55579 0.11154 0.54398 0.0
C110 C 0.53509 0.09892 0.53707 0.0
C111 C 0.53164 0.09089 0.51949 0.0
C112 C 0.54746 0.10571 0.47791 0.0
C113 C 0.53661 0.11633 0.48164 0.0
C114 C 0.54104 0.13396 0.4721 0.0
C115 C 0.55599 0.14111 0.45825 0.0
C116 C 0.56554 0.12941 0.45368 0.0
C117 C 0.56144 0.11204 0.46352 0.0
C118 C 0.53038 0.06876 0.48462 0.0
C119 C 0.53674 0.05413 0.48242 0.0
C120 C 0.52189 0.03338 0.47842 0.0
C121 C 0.50016 0.02669 0.47683 0.0
C122 C 0.49387 0.04155 0.47886 0.0
C123 C 0.50882 0.06238 0.48249 0.0
H124 H 0.49113 0.59684 0.65989 0.0
N125 N 0.48246 0.56015 0.67136 0.0
H126 H 0.46824 0.60478 0.64181 0.0
H127 H 0.44617 0.53162 0.65352 0.0
H128 H 0.42312 0.53933 0.63525 0.0
H129 H 0.44464 0.53229 0.68617 0.0
H130 H 0.43228 0.53518 0.71574 0.0
H131 H 0.50466 0.58761 0.69734 0.0
H132 H 0.49209 0.59124 0.72679 0.0
H133 H 0.51932 0.5722 0.65618 0.0
H134 H 0.46375 0.51794 0.67503 0.0
H135 H 0.53504 0.55121 0.64828 0.0
H136 H 0.47969 0.49696 0.66804 0.0
H137 H 0.57808 0.49946 0.61298 0.0
H138 H 0.57886 0.48853 0.58192 0.0
H139 H 0.51988 0.43157 0.58995 0.0
H140 H 0.51936 0.44256 0.62094 0.0
H141 H 0.52207 0.44045 0.65231 0.0
H142 H 0.53089 0.41714 0.66781 0.0
H143 H 0.59722 0.46441 0.66742 0.0
H144 H 0.58819 0.48694 0.65097 0.0
H145 H 0.568 0.51485 0.65339 0.0
H146 H 0.55064 0.5341 0.66219 0.0
H147 H 0.49025 0.48213 0.6447 0.0
N148 N 0.55049 0.47756 0.63804 0.0
H149 H 0.50777 0.4627 0.63685 0.0
C150 C 0.47036 0.56375 0.65807 0.0
C151 C 0.47653 0.58424 0.65416 0.0
C152 C 0.46342 0.58871 0.64381 0.0
C153 C 0.44375 0.57269 0.63719 0.0
C154 C 0.43803 0.55203 0.64038 0.0
C155 C 0.45125 0.54758 0.65072 0.0
C156 C 0.47576 0.55968 0.6896 0.0
C157 C 0.45536 0.54484 0.69511 0.0
C158 C 0.44817 0.5467 0.71199 0.0
C159 C 0.46107 0.56357 0.72363 0.0
C160 C 0.48178 0.57791 0.71833 0.0
C161 C 0.48901 0.57592 0.70149 0.0
C162 C 0.49055 0.54682 0.66639 0.0
C163 C 0.51057 0.55575 0.65869 0.0
C164 C 0.51959 0.54372 0.65437 0.0
C165 C 0.50882 0.52238 0.6578 0.0
C166 C 0.48844 0.51331 0.66513 0.0
C167 C 0.47933 0.52538 0.6693 0.0
C168 C 0.54879 0.47187 0.61927 0.0
C169 C 0.56514 0.48482 0.60787 0.0
C170 C 0.5655 0.47856 0.59014 0.0
C171 C 0.54947 0.45912 0.58351 0.0
C172 C 0.53257 0.44652 0.59474 0.0
C173 C 0.53221 0.45286 0.61246 0.0
C174 C 0.55458 0.46527 0.65025 0.0
C175 C 0.53846 0.44578 0.6557 0.0
C176 C 0.54356 0.43254 0.6647 0.0
C177 C 0.56485 0.4387 0.66859 0.0
C178 C 0.58072 0.45886 0.66422 0.0
C179 C 0.57562 0.4719 0.65504 0.0
C180 C 0.53927 0.48753 0.64431 0.0
C181 C 0.55098 0.50759 0.65169 0.0
C182 C 0.54102 0.51862 0.6565 0.0
C183 C 0.51904 0.50987 0.65384 0.0
C184 C 0.50717 0.48938 0.647 0.0
C185 C 0.51719 0.47825 0.64237 0.0
H186 H 0.11678 0.6054 0.80584 0.0
N187 N 0.08641 0.56838 0.79429 0.0
H188 H 0.14786 0.61351 0.82439 0.0
H189 H 0.09283 0.54022 0.81196 0.0
H190 H 0.12435 0.54803 0.82974 0.0
H191 H 0.09605 0.54027 0.77989 0.0
H192 H 0.11133 0.54213 0.75046 0.0
H193 H 0.08933 0.59269 0.76749 0.0
H194 H 0.10447 0.5945 0.73778 0.0
H195 H 0.06434 0.58158 0.81224 0.0
H196 H 0.05981 0.52641 0.789 0.0
H197 H 0.02761 0.56159 0.82165 0.0
H198 H 0.02267 0.50637 0.79751 0.0
H199 H 0.92313 0.50899 0.85384 0.0
H200 H 0.90824 0.49799 0.88371 0.0
H201 H 0.92009 0.44712 0.88003 0.0
H202 H 0.93437 0.45793 0.85012 0.0
H203 H 0.92446 0.45028 0.81933 0.0
H204 H 0.89184 0.42545 0.80332 0.0
H205 H 0.87503 0.4728 0.79822 0.0
H206 H 0.90726 0.49715 0.81504 0.0
H207 H 0.95639 0.52698 0.81883 0.0
H208 H 0.9932 0.54554 0.80938 0.0
H209 H 0.99858 0.49212 0.82163 0.0
N210 N 0.93458 0.48899 0.83106 0.0
H211 H 0.96137 0.47341 0.83011 0.0
C212 C 0.10267 0.57231 0.80741 0.0
C213 C 0.11818 0.59286 0.81139 0.0
C214 C 0.13603 0.59742 0.82181 0.0
C215 C 0.13887 0.58143 0.8283 0.0
C216 C 0.1227 0.56075 0.82506 0.0
C217 C 0.10469 0.55623 0.81478 0.0
C218 C 0.09165 0.5665 0.77596 0.0
C219 C 0.09744 0.55193 0.77073 0.0
C220 C 0.10629 0.55307 0.75391 0.0
C221 C 0.1093 0.5686 0.74192 0.0
C222 C 0.10225 0.5823 0.74671 0.0
C223 C 0.09359 0.58129 0.76363 0.0
C224 C 0.06475 0.55565 0.79972 0.0
C225 C 0.0553 0.56514 0.80905 0.0
C226 C 0.03422 0.55368 0.81427 0.0
C227 C 0.02193 0.53235 0.8101 0.0
C228 C 0.03161 0.52271 0.80105 0.0
C229 C 0.05287 0.53422 0.796 0.0
C230 C 0.92994 0.48442 0.84976 0.0
C231 C 0.92298 0.49579 0.85973 0.0
C232 C 0.9145 0.48947 0.87679 0.0
C233 C 0.91279 0.47154 0.88422 0.0
C234 C 0.92087 0.4608 0.87459 0.0
C235 C 0.92931 0.46713 0.8575 0.0
C236 C 0.91809 0.47549 0.81852 0.0
C237 C 0.9139 0.45536 0.81455 0.0
C238 C 0.89524 0.4412 0.80528 0.0
C239 C 0.88057 0.447 0.79972 0.0
C240 C 0.88566 0.46763 0.80268 0.0
C241 C 0.90418 0.48166 0.81207 0.0
C242 C 0.95623 0.49901 0.8254 0.0
C243 C 0.96556 0.51932 0.8194 0.0
C244 C 0.98667 0.52993 0.81416 0.0
C245 C 0.9991 0.5205 0.81499 0.0
C246 C 0.98954 0.49988 0.82071 0.0
C247 C 0.96825 0.48918 0.82578 0.0
H248 H 0.51889 0.11674 0.97286 0.0
N249 N 0.52855 0.08833 0.96319 0.0
H250 H 0.54155 0.14946 0.98917 0.0
H251 H 0.56543 0.0986 0.98176 0.0
H252 H 0.58792 0.13097 0.99822 0.0
H253 H 0.5678 0.10333 0.94846 0.0
H254 H 0.57823 0.11737 0.91864 0.0
H255 H 0.50334 0.0869 0.93658 0.0
H256 H 0.51372 0.10092 0.90637 0.0
H257 H 0.49267 0.05955 0.97737 0.0
H258 H 0.55366 0.07079 0.96034 0.0
H259 H 0.48299 0.02439 0.98576 0.0
H260 H 0.54461 0.0363 0.9693 0.0
H261 H 0.45728 0.93101 0.01306 0.0
H262 H 0.44367 0.91381 0.04161 0.0
H263 H 0.50735 0.93198 0.0589 0.0
H264 H 0.52077 0.94907 0.03022 0.0
H265 H 0.51794 0.92762 0.99395 0.0
H266 H 0.50393 0.89509 0.97676 0.0
H267 H 0.44694 0.89668 0.96466 0.0
H268 H 0.46159 0.92974 0.98132 0.0
H269 H 0.48334 0.97228 0.0173 0.0
H270 H 0.49032 0.00572 0.00742 0.0
H271 H 0.52327 1.00086 0.96137 0.0
N272 N 0.49817 0.94812 0.00172 0.0
H273 H 0.51707 0.96761 0.97169 0.0
C274 C 0.54032 0.10515 0.976 0.0
C275 C 0.5337 0.11955 0.97879 0.0
C276 C 0.54668 0.13824 0.98811 0.0
C277 C 0.56668 0.14294 0.99481 0.0
C278 C 0.57277 0.12797 0.99294 0.0
C279 C 0.55976 0.10928 0.98363 0.0
C280 C 0.53463 0.09389 0.94479 0.0
C281 C 0.55571 0.10218 0.93929 0.0
C282 C 0.56171 0.11027 0.92215 0.0
C283 C 0.54684 0.11036 0.91013 0.0
C284 C 0.52561 0.1013 0.91539 0.0
C285 C 0.5196 0.09313 0.93255 0.0
C286 C 0.52384 0.06792 0.96829 0.0
C287 C 0.50402 0.05448 0.97558 0.0
C288 C 0.49858 0.03443 0.98044 0.0
C289 C 0.51298 0.02739 0.97819 0.0
C290 C 0.53292 0.04097 0.97093 0.0
C291 C 0.53825 0.06093 0.96594 0.0
C292 C 0.49011 0.94125 0.0195 0.0
C293 C 0.46833 0.93152 0.02307 0.0
C294 C 0.46057 0.92164 0.03938 0.0
C295 C 0.47441 0.92137 0.05245 0.0
C296 C 0.49628 0.93207 0.0492 0.0
C297 C 0.50401 0.94184 0.03285 0.0
C298 C 0.49079 0.93095 0.98905 0.0
C299 C 0.50265 0.92114 0.98722 0.0
C300 C 0.49448 0.90245 0.97758 0.0
C301 C 0.4741 0.89303 0.96964 0.0
C302 C 0.46268 0.90349 0.97059 0.0
C303 C 0.47097 0.92233 0.98019 0.0
C304 C 0.49932 0.9668 0.99509 0.0
C305 C 0.49175 0.97797 0.0049 0.0
C306 C 0.49575 0.99733 0.9992 0.0
C307 C 0.50745 0.00615 0.98361 0.0
C308 C 0.51452 0.99479 0.9736 0.0
C309 C 0.51069 0.97555 0.97936 0.0
H310 H 0.52932 0.42841 0.15416 0.0
N311 N 0.53413 0.46461 0.16411 0.0
H312 H 0.55388 0.42197 0.13734 0.0
H313 H 0.5692 0.49397 0.14688 0.0
H314 H 0.59362 0.48777 0.12919 0.0
H315 H 0.57184 0.49076 0.18124 0.0
H316 H 0.58239 0.4867 0.21142 0.0
H317 H 0.50927 0.43859 0.18881 0.0
H318 H 0.5195 0.43464 0.21929 0.0
H319 H 0.50157 0.45415 0.142 0.0
H320 H 0.54916 0.50537 0.174 0.0
H321 H 0.48565 0.47473 0.13381 0.0
H322 H 0.53263 0.52569 0.16687 0.0
H323 H 0.42797 0.53435 0.11554 0.0
H324 H 0.4243 0.54472 0.08538 0.0
H325 H 0.49219 0.57524 0.07941 0.0
H326 H 0.49569 0.56543 0.10976 0.0
H327 H 0.49355 0.58658 0.13554 0.0
H328 H 0.49021 0.61352 0.15157 0.0
H329 H 0.4319 0.5666 0.17471 0.0
H330 H 0.43533 0.53974 0.15852 0.0
H331 H 0.44664 0.50539 0.13934 0.0
H332 H 0.46478 0.4866 0.14661 0.0
H333 H 0.52499 0.54389 0.14537 0.0
N334 N 0.46352 0.54538 0.13372 0.0
H335 H 0.50641 0.56263 0.13918 0.0
C336 C 0.54735 0.46156 0.15167 0.0
C337 C 0.54315 0.44137 0.14842 0.0
C338 C 0.55722 0.43776 0.13871 0.0
C339 C 0.57586 0.45434 0.13183 0.0
C340 C 0.57963 0.47462 0.13449 0.0
C341 C 0.56556 0.47822 0.14442 0.0
C342 C 0.53972 0.46487 0.18278 0.0
C343 C 0.56021 0.47873 0.18958 0.0
C344 C 0.56621 0.47642 0.20689 0.0
C345 C 0.55185 0.4602 0.21772 0.0
C346 C 0.53105 0.44707 0.21119 0.0
C347 C 0.52509 0.4494 0.19388 0.0
C348 C 0.52628 0.47797 0.15881 0.0
C349 C 0.50852 0.46984 0.1473 0.0
C350 C 0.49932 0.48161 0.14281 0.0
C351 C 0.50751 0.50181 0.14998 0.0
C352 C 0.52586 0.51025 0.16103 0.0
C353 C 0.53528 0.49853 0.16528 0.0
C354 C 0.46198 0.54897 0.11492 0.0
C355 C 0.44198 0.54292 0.10754 0.0
C356 C 0.43994 0.54883 0.09027 0.0
C357 C 0.45797 0.56091 0.07994 0.0
C358 C 0.478 0.56621 0.08708 0.0
C359 C 0.48001 0.56039 0.10443 0.0
C360 C 0.46458 0.5611 0.14582 0.0
C361 C 0.48034 0.58204 0.14441 0.0
C362 C 0.47832 0.59745 0.15346 0.0
C363 C 0.46066 0.59219 0.16423 0.0
C364 C 0.44574 0.57115 0.1666 0.0
C365 C 0.44767 0.55579 0.15741 0.0
C366 C 0.47509 0.53528 0.13853 0.0
C367 C 0.46375 0.51385 0.14075 0.0
C368 C 0.47422 0.50313 0.14471 0.0
C369 C 0.49648 0.5136 0.14629 0.0
C370 C 0.50786 0.53526 0.14435 0.0
C371 C 0.49727 0.54603 0.14062 0.0
Mn372 Mn 0.62736 0.3829 0.40443 0.0
Mn373 Mn 0.65346 0.43401 0.41503 0.0
C374 C 0.61289 0.39612 0.42445 0.0
C375 C 0.62099 0.34951 0.40914 0.0
C376 C 0.62899 0.41608 0.37992 0.0
O377 O 0.6573 0.39268 0.39589 0.0
O378 O 0.67361 0.42603 0.40538 0.0
C379 C 0.68016 0.43401 0.44514 0.0
N380 N 0.66551 0.4385 0.43871 0.0
C381 C 0.66503 0.45427 0.46701 0.0
C382 C 0.68019 0.4499 0.47392 0.0
C383 C 0.6877 0.43963 0.46296 0.0
C384 C 0.65794 0.44809 0.44922 0.0
H385 H 0.68607 0.42623 0.43671 0.0
C386 C 0.67385 0.41052 0.39812 0.0
O387 O 0.61698 0.35475 0.39369 0.0
O388 O 0.62906 0.36376 0.42172 0.0
N389 N 0.63609 0.44402 0.42472 0.0
C390 C 0.62091 0.44638 0.41623 0.0
C391 C 0.61138 0.45594 0.42549 0.0
C392 C 0.61784 0.46332 0.44324 0.0
C393 C 0.63373 0.46101 0.45159 0.0
C394 C 0.64249 0.45117 0.44176 0.0
H395 H 0.61607 0.44098 0.40251 0.0
O396 O 0.60092 0.37848 0.41619 0.0
O397 O 0.63296 0.40531 0.42096 0.0
O398 O 0.6222 0.39713 0.38335 0.0
O399 O 0.64118 0.43103 0.39063 0.0
C400 C 0.64121 0.46807 0.46928 0.0
C401 C 0.65667 0.46449 0.47707 0.0
H402 H 0.68612 0.45431 0.48762 0.0
H403 H 0.69935 0.43616 0.4682 0.0
H404 H 0.59916 0.45771 0.41893 0.0
H405 H 0.61048 0.47071 0.45034 0.0
H406 H 0.63494 0.476 0.47712 0.0
H407 H 0.66197 0.46963 0.49081 0.0
Mn408 Mn 0.273 0.64974 0.56206 0.0
Mn409 Mn 0.2465 0.59884 0.55035 0.0
C410 C 0.24516 0.63708 0.5414 0.0
C411 C 0.30085 0.68356 0.55827 0.0
C412 C 0.2388 0.61564 0.585 0.0
O413 O 0.293 0.64021 0.57087 0.0
O414 O 0.27413 0.60671 0.56211 0.0
C415 C 0.27598 0.60043 0.52253 0.0
N416 N 0.25603 0.59518 0.52749 0.0
C417 C 0.2418 0.5801 0.49823 0.0
C418 C 0.26217 0.58523 0.49283 0.0
C419 C 0.27934 0.59551 0.50502 0.0
C420 C 0.23944 0.58543 0.51583 0.0
H421 H 0.28922 0.60831 0.53186 0.0
C422 C 0.29058 0.62215 0.5694 0.0
O423 O 0.29112 0.67771 0.57344 0.0
O424 O 0.29479 0.66961 0.54549 0.0
N425 N 0.21956 0.58858 0.53862 0.0
C426 C 0.20114 0.58566 0.54564 0.0
C427 C 0.18243 0.57559 0.53516 0.0
C428 C 0.18283 0.56851 0.51764 0.0
C429 C 0.20198 0.57181 0.51066 0.0
C430 C 0.22006 0.58166 0.52182 0.0
H431 H 0.20072 0.59093 0.55914 0.0
O432 O 0.25128 0.65434 0.5502 0.0
O433 O 0.25574 0.62775 0.54468 0.0
O434 O 0.25268 0.63459 0.58259 0.0
O435 O 0.23523 0.60106 0.5738 0.0
C436 C 0.20389 0.56591 0.493 0.0
C437 C 0.22381 0.57016 0.48675 0.0
H438 H 0.26483 0.58148 0.47934 0.0
H439 H 0.29512 0.5996 0.50094 0.0
H440 H 0.16771 0.57321 0.54059 0.0
H441 H 0.16836 0.5607 0.5096 0.0
H442 H 0.19019 0.55835 0.48404 0.0
H443 H 0.22514 0.56582 0.47307 0.0
Mn444 Mn 0.63065 0.26391 0.72666 0.0
Mn445 Mn 0.65782 0.23917 0.71913 0.0
C446 C 0.6174 0.23624 0.70631 0.0
C447 C 0.62387 0.29058 0.72086 0.0
C448 C 0.63132 0.2326 0.7522 0.0
O449 O 0.66006 0.28425 0.73696 0.0
O450 O 0.67705 0.26724 0.72962 0.0
C451 C 0.686 0.26585 0.69062 0.0
N452 N 0.67139 0.24674 0.6964 0.0
C453 C 0.67307 0.23058 0.66873 0.0
C454 C 0.68823 0.25007 0.66251 0.0
C455 C 0.69466 0.26779 0.67348 0.0
C456 C 0.66498 0.22962 0.68591 0.0
H457 H 0.691 0.27949 0.69903 0.0
C458 C 0.67679 0.28301 0.73621 0.0
O459 O 0.61928 0.28129 0.73615 0.0
O460 O 0.63277 0.28463 0.70904 0.0
N461 N 0.64153 0.21188 0.7088 0.0
C462 C 0.62601 0.19439 0.71644 0.0
C463 C 0.61787 0.17528 0.70723 0.0
C464 C 0.62585 0.17435 0.69035 0.0
C465 C 0.64159 0.19258 0.68264 0.0
C466 C 0.64934 0.21112 0.69257 0.0
H467 H 0.62004 0.19498 0.72953 0.0
O468 O 0.60497 0.24188 0.71353 0.0
O469 O 0.63733 0.24713 0.71103 0.0
O470 O 0.62469 0.24476 0.74786 0.0
O471 O 0.64414 0.22985 0.74265 0.0
C472 C 0.64981 0.1931 0.66547 0.0
C473 C 0.66545 0.2121 0.65847 0.0
H474 H 0.69492 0.25164 0.64929 0.0
H475 H 0.70628 0.2829 0.66874 0.0
H476 H 0.6056 0.16128 0.7132 0.0
H477 H 0.6197 0.15955 0.68337 0.0
H478 H 0.64404 0.179 0.65744 0.0
H479 H 0.67144 0.21235 0.64514 0.0
Mn480 Mn 0.38612 0.64898 0.90696 0.0
Mn481 Mn 0.36033 0.59822 0.91696 0.0
C482 C 0.40107 0.63684 0.92731 0.0
C483 C 0.39214 0.68242 0.91166 0.0
C484 C 0.38413 0.61505 0.88229 0.0
O485 O 0.35606 0.63849 0.89757 0.0
O486 O 0.33973 0.6058 0.90751 0.0
C487 C 0.33476 0.59909 0.94723 0.0
N488 N 0.34916 0.5944 0.94062 0.0
C489 C 0.35141 0.58031 0.96886 0.0
C490 C 0.33651 0.58487 0.97594 0.0
C491 C 0.3282 0.59436 0.96509 0.0
C492 C 0.35734 0.58538 0.95097 0.0
H493 H 0.32836 0.6064 0.93893 0.0
C494 C 0.33947 0.62091 0.89991 0.0
O495 O 0.39624 0.67664 0.89641 0.0
O496 O 0.38411 0.66863 0.92404 0.0
N497 N 0.37817 0.58864 0.92636 0.0
C498 C 0.39309 0.58612 0.91774 0.0
C499 C 0.40311 0.577 0.92677 0.0
C500 C 0.39758 0.57042 0.9445 0.0
C501 C 0.38218 0.57317 0.9531 0.0
C502 C 0.37256 0.58214 0.94335 0.0
H503 H 0.39729 0.59097 0.90406 0.0
O504 O 0.41276 0.65427 0.9194 0.0
O505 O 0.38092 0.62724 0.92336 0.0
O506 O 0.39145 0.63415 0.88613 0.0
O507 O 0.37168 0.60045 0.89251 0.0
C508 C 0.37617 0.56757 0.97102 0.0
C509 C 0.36086 0.57122 0.97892 0.0
H510 H 0.33146 0.5813 0.98972 0.0
H511 H 0.31677 0.59801 0.97049 0.0
H512 H 0.41502 0.57497 0.92006 0.0
H513 H 0.40527 0.5633 0.95138 0.0
H514 H 0.38345 0.56073 0.97893 0.0
H515 H 0.3566 0.56713 0.99279 0.0
Mn516 Mn 0.75264 0.38865 0.06684 0.0
Mn517 Mn 0.7757 0.35978 0.07225 0.0
C518 C 0.78128 0.39988 0.08657 0.0
C519 C 0.72658 0.39668 0.07385 0.0
C520 C 0.78378 0.38734 0.04032 0.0
O521 O 0.7306 0.36062 0.05591 0.0
O522 O 0.74684 0.34261 0.06162 0.0
C523 C 0.74732 0.33178 0.1 0.0
N524 N 0.76718 0.34558 0.09444 0.0
C525 C 0.78297 0.34045 0.12086 0.0
C526 C 0.76269 0.32612 0.12687 0.0
C527 C 0.74479 0.32188 0.11645 0.0
C528 C 0.78447 0.35011 0.10454 0.0
H529 H 0.73355 0.32828 0.09191 0.0
C530 C 0.73105 0.34381 0.05569 0.0
O531 O 0.73613 0.40151 0.05855 0.0
O532 O 0.73196 0.38692 0.08503 0.0
N533 N 0.80365 0.37392 0.08256 0.0
C534 C 0.82199 0.38867 0.07515 0.0
C535 C 0.84139 0.39481 0.08394 0.0
C536 C 0.84175 0.38539 0.10001 0.0
C537 C 0.82266 0.37021 0.10736 0.0
C538 C 0.80381 0.36491 0.09812 0.0
H539 H 0.82184 0.39558 0.06256 0.0
O540 O 0.77608 0.41277 0.08024 0.0
O541 O 0.76917 0.38056 0.08161 0.0
O542 O 0.77189 0.39431 0.04525 0.0
O543 O 0.78592 0.37406 0.04923 0.0
C544 C 0.82158 0.36003 0.12344 0.0
C545 C 0.80174 0.3454 0.13034 0.0
H546 H 0.76069 0.31829 0.13945 0.0
H547 H 0.72909 0.31087 0.121 0.0
H548 H 0.85605 0.40655 0.0782 0.0
H549 H 0.85678 0.38997 0.10661 0.0
H550 H 0.83591 0.36351 0.13074 0.0
H551 H 0.80112 0.33799 0.14289 0.0
Mn552 Mn 0.37947 0.76057 0.23166 0.0
Mn553 Mn 0.43137 0.7886 0.24324 0.0
C554 C 0.39132 0.78819 0.25186 0.0
C555 C 0.34565 0.7323 0.23607 0.0
C556 C 0.41339 0.7929 0.20767 0.0
O557 O 0.39096 0.74211 0.22325 0.0
O558 O 0.42452 0.76079 0.23399 0.0
C559 C 0.43145 0.76398 0.27396 0.0
N560 N 0.43554 0.78243 0.26724 0.0
C561 C 0.44874 0.79965 0.29601 0.0
C562 C 0.44483 0.78087 0.30321 0.0
C563 C 0.43609 0.76295 0.29215 0.0
C564 C 0.44382 0.79973 0.27779 0.0
H565 H 0.42466 0.75016 0.26552 0.0
C566 C 0.40932 0.74458 0.22624 0.0
O567 O 0.35103 0.74132 0.22066 0.0
O568 O 0.36014 0.73929 0.24867 0.0
N569 N 0.4402 0.81578 0.2526 0.0
C570 C 0.44226 0.83248 0.24374 0.0
C571 C 0.45055 0.8516 0.25295 0.0
C572 C 0.45678 0.85341 0.27112 0.0
C573 C 0.45464 0.83605 0.27992 0.0
C574 C 0.44647 0.81744 0.26999 0.0
H575 H 0.43761 0.83124 0.22976 0.0
O576 O 0.37338 0.7812 0.24332 0.0
O577 O 0.40159 0.77859 0.24854 0.0
O578 O 0.39399 0.78013 0.21089 0.0
O579 O 0.42857 0.7965 0.21853 0.0
C580 C 0.46006 0.83642 0.2982 0.0
C581 C 0.45703 0.81821 0.30626 0.0
H582 H 0.44832 0.77999 0.31725 0.0
H583 H 0.43291 0.74837 0.29763 0.0
H584 H 0.45215 0.86493 0.24607 0.0
H585 H 0.46316 0.86819 0.27816 0.0
H586 H 0.46635 0.85056 0.30624 0.0
H587 H 0.461 0.81862 0.32038 0.0
H588 H 0.15283 0.5834 0.26611 0.0
H589 H 0.18728 0.6061 0.25267 0.0
H590 H 0.19729 0.65566 0.28923 0.0
H591 H 0.16285 0.63314 0.30261 0.0
H592 H 0.21025 0.66917 0.25485 0.0
H593 H 0.2427 0.62048 0.2781 0.0
H594 H 0.21931 0.60705 0.2641 0.0
H595 H 0.21786 0.61704 0.28585 0.0
C596 C 0.16234 0.59918 0.2712 0.0
C597 C 0.15518 0.60643 0.2855 0.0
C598 C 0.18203 0.6121 0.26355 0.0
C599 C 0.19504 0.63243 0.2702 0.0
C600 C 0.18753 0.63999 0.28393 0.0
H601 H 0.32977 0.71289 0.26769 0.0
H602 H 0.2929 0.68804 0.27441 0.0
C603 C 0.1678 0.62713 0.29151 0.0
C604 C 0.2168 0.64565 0.26341 0.0
H605 H 0.26513 0.6493 0.26068 0.0
C606 C 0.22224 0.6648 0.25602 0.0
C607 C 0.23248 0.64001 0.26519 0.0
C608 C 0.22793 0.62013 0.27388 0.0
C609 C 0.24297 0.67856 0.25048 0.0
C610 C 0.25858 0.67281 0.25207 0.0
C611 C 0.25309 0.65358 0.25931 0.0
C612 C 0.28104 0.6871 0.24745 0.0
C613 C 0.24814 0.69943 0.24362 0.0
C614 C 0.28672 0.69446 0.22994 0.0
C615 C 0.30784 0.70877 0.22606 0.0
C616 C 0.32365 0.71581 0.2396 0.0
C617 C 0.31799 0.70781 0.25695 0.0
C618 C 0.29691 0.6936 0.26082 0.0
H619 H 0.23581 0.70329 0.2472 0.0
H620 H 0.26365 0.71185 0.24913 0.0
H621 H 0.24911 0.69929 0.22874 0.0
H622 H 0.27481 0.6893 0.21931 0.0
H623 H 0.31171 0.71456 0.21254 0.0
H624 H 0.532 0.15927 0.45132 0.0
H625 H 0.54421 0.19403 0.44075 0.0
H626 H 0.60681 0.20332 0.43356 0.0
H627 H 0.59534 0.16943 0.44576 0.0
H628 H 0.61054 0.23523 0.4493 0.0
H629 H 0.55471 0.21761 0.39242 0.0
H630 H 0.54052 0.20744 0.41275 0.0
H631 H 0.55666 0.1976 0.40388 0.0
C632 C 0.54842 0.16868 0.44762 0.0
C633 C 0.56262 0.16133 0.44955 0.0
C634 C 0.55529 0.1885 0.44119 0.0
C635 C 0.57638 0.20128 0.43599 0.0
C636 C 0.59043 0.19378 0.43737 0.0
H637 H 0.61457 0.31938 0.3844 0.0
H638 H 0.60554 0.28374 0.39021 0.0
C639 C 0.58371 0.17416 0.44417 0.0
C640 C 0.58421 0.22298 0.43044 0.0
H641 H 0.5727 0.25284 0.40378 0.0
C642 C 0.60238 0.23901 0.43916 0.0
C643 C 0.57391 0.22807 0.41698 0.0
C644 C 0.55553 0.21172 0.40584 0.0
C645 C 0.61017 0.25987 0.43519 0.0
C646 C 0.59894 0.26502 0.42272 0.0
C647 C 0.58115 0.249 0.41358 0.0
C648 C 0.60513 0.28688 0.41919 0.0
C649 C 0.63057 0.27607 0.44424 0.0
C650 C 0.60777 0.30054 0.43349 0.0
C651 C 0.6134 0.321 0.43021 0.0
C652 C 0.61588 0.32809 0.41252 0.0
C653 C 0.61282 0.31435 0.39817 0.0
C654 C 0.60761 0.29397 0.40149 0.0
H655 H 0.64075 0.26956 0.44787 0.0
H656 H 0.63972 0.28953 0.43549 0.0
H657 H 0.6269 0.28158 0.45689 0.0
H658 H 0.6052 0.29532 0.44722 0.0
H659 H 0.61532 0.33113 0.44152 0.0
H660 H 0.45236 0.60262 0.6124 0.0
H661 H 0.42805 0.6131 0.60034 0.0
H662 H 0.37681 0.56457 0.62958 0.0
H663 H 0.40105 0.55436 0.64208 0.0
H664 H 0.39028 0.59081 0.58 0.0
H665 H 0.37635 0.61702 0.64598 0.0
H666 H 0.39778 0.6121 0.64243 0.0
H667 H 0.37135 0.59095 0.64578 0.0
C668 C 0.43591 0.5942 0.61628 0.0
C669 C 0.42868 0.57772 0.62829 0.0
C670 C 0.42204 0.60016 0.60933 0.0
C671 C 0.40074 0.58987 0.61435 0.0
C672 C 0.39329 0.57297 0.62581 0.0
H673 H 0.29209 0.58649 0.56671 0.0
H674 H 0.32008 0.58048 0.57713 0.0
C675 C 0.40712 0.56698 0.63275 0.0
C676 C 0.38625 0.59681 0.60767 0.0
H677 H 0.35345 0.61406 0.62169 0.0
C678 C 0.38233 0.59603 0.58909 0.0
C679 C 0.37622 0.60399 0.61953 0.0
C680 C 0.38076 0.60629 0.63953 0.0
C681 C 0.368 0.60151 0.58211 0.0
C682 C 0.35713 0.60764 0.59405 0.0
C683 C 0.36166 0.60917 0.61257 0.0
C684 C 0.34032 0.61164 0.58767 0.0
C685 C 0.36463 0.60067 0.562 0.0
C686 C 0.34213 0.63104 0.59056 0.0
C687 C 0.32602 0.63457 0.58469 0.0
C688 C 0.30771 0.61865 0.57597 0.0
C689 C 0.30593 0.59916 0.57333 0.0
C690 C 0.32201 0.5957 0.57915 0.0
H691 H 0.37825 0.6016 0.55467 0.0
H692 H 0.35028 0.58577 0.5581 0.0
H693 H 0.36225 0.61346 0.55762 0.0
H694 H 0.35609 0.6435 0.59726 0.0
H695 H 0.32793 0.64974 0.58699 0.0
H696 H 0.84225 0.44371 0.80628 0.0
H697 H 0.80739 0.41738 0.79488 0.0
H698 H 0.83556 0.38766 0.7654 0.0
H699 H 0.87078 0.41458 0.7761 0.0
H700 H 0.80506 0.39036 0.74553 0.0
H701 H 0.77445 0.35861 0.81273 0.0
H702 H 0.78419 0.38585 0.81128 0.0
H703 H 0.80218 0.3763 0.8089 0.0
C704 C 0.84116 0.43181 0.79713 0.0
C705 C 0.85942 0.43132 0.79211 0.0
C706 C 0.82113 0.41656 0.79085 0.0
C707 C 0.81882 0.40031 0.77961 0.0
C708 C 0.83698 0.39997 0.77422 0.0
H709 H 0.71631 0.28836 0.73233 0.0
H710 H 0.75013 0.31758 0.74257 0.0
C711 C 0.85708 0.4153 0.78043 0.0
C712 C 0.79747 0.38371 0.77344 0.0
H713 H 0.74961 0.34567 0.7884 0.0
C714 C 0.79295 0.38056 0.7549 0.0
C715 C 0.78167 0.37097 0.78571 0.0
C716 C 0.78587 0.37292 0.80575 0.0
C717 C 0.77303 0.36509 0.74828 0.0
C718 C 0.7573 0.35233 0.76053 0.0
C719 C 0.76169 0.3556 0.77907 0.0
C720 C 0.7366 0.33477 0.75432 0.0
C721 C 0.76888 0.36258 0.72823 0.0
C722 C 0.71769 0.33456 0.75788 0.0
C723 C 0.69818 0.31779 0.75204 0.0
C724 C 0.69727 0.30082 0.74274 0.0
C725 C 0.71632 0.30108 0.73945 0.0
C726 C 0.73573 0.31785 0.74518 0.0
H727 H 0.78048 0.37657 0.72098 0.0
H728 H 0.77019 0.34926 0.72318 0.0
H729 H 0.75264 0.35937 0.72497 0.0
H730 H 0.71807 0.34745 0.76505 0.0
H731 H 0.68385 0.3181 0.75484 0.0
H732 H 0.44946 0.87748 0.93878 0.0
H733 H 0.4334 0.84218 0.92602 0.0
H734 H 0.46072 0.82538 0.96943 0.0
H735 H 0.4765 0.86029 0.98235 0.0
H736 H 0.46714 0.81356 0.93473 0.0
H737 H 0.38267 0.78889 0.94634 0.0
H738 H 0.39804 0.81263 0.93454 0.0
H739 H 0.40426 0.81121 0.95768 0.0
C740 C 0.4519 0.86621 0.94567 0.0
C741 C 0.4644 0.87179 0.96152 0.0
C742 C 0.44271 0.84606 0.93837 0.0
C743 C 0.44577 0.83115 0.94686 0.0
C744 C 0.45822 0.83668 0.96264 0.0
H745 H 0.38628 0.69903 0.94254 0.0
H746 H 0.39831 0.73546 0.94922 0.0
C747 C 0.46736 0.85672 0.96993 0.0
C748 C 0.43642 0.80979 0.93933 0.0
H749 H 0.38959 0.76448 0.93238 0.0
C750 C 0.45018 0.80286 0.93405 0.0
C751 C 0.4143 0.79586 0.93865 0.0
C752 C 0.39887 0.80237 0.94471 0.0
C753 C 0.44245 0.78227 0.92836 0.0
C754 C 0.42032 0.7683 0.92771 0.0
C755 C 0.40653 0.77529 0.93277 0.0
C756 C 0.41138 0.74608 0.92293 0.0
C757 C 0.45805 0.77544 0.92375 0.0
C758 C 0.41427 0.73992 0.90577 0.0
C759 C 0.40745 0.71911 0.90191 0.0
C760 C 0.39755 0.70409 0.91514 0.0
C761 C 0.39392 0.71022 0.93208 0.0
C762 C 0.40074 0.73102 0.93591 0.0
H763 H 0.4744 0.78689 0.92846 0.0
H764 H 0.45335 0.76028 0.9298 0.0
H765 H 0.45828 0.77358 0.90893 0.0
H766 H 0.42215 0.75127 0.89547 0.0
H767 H 0.41036 0.71488 0.8887 0.0
H768 H 0.56866 0.4214 0.10989 0.0
H769 H 0.59452 0.41251 0.09924 0.0
H770 H 0.64517 0.46993 0.12185 0.0
H771 H 0.61936 0.47824 0.13378 0.0
H772 H 0.62618 0.42855 0.07706 0.0
H773 H 0.65815 0.42998 0.14519 0.0
H774 H 0.63485 0.43193 0.14163 0.0
H775 H 0.66085 0.45437 0.13954 0.0
C776 C 0.58528 0.43208 0.11281 0.0
C777 C 0.59179 0.45037 0.12306 0.0
C778 C 0.60009 0.42705 0.10653 0.0
C779 C 0.62179 0.44026 0.11017 0.0
C780 C 0.62848 0.45915 0.11937 0.0
H781 H 0.71991 0.42542 0.05778 0.0
H782 H 0.69462 0.43612 0.06621 0.0
C783 C 0.61365 0.46406 0.12592 0.0
C784 C 0.63726 0.43397 0.10463 0.0
H785 H 0.67659 0.42637 0.12064 0.0
C786 C 0.63717 0.42802 0.0866 0.0
C787 C 0.65133 0.43286 0.11714 0.0
C788 C 0.65119 0.43741 0.13698 0.0
C789 C 0.6508 0.42113 0.08072 0.0
C790 C 0.6655 0.42087 0.09307 0.0
C791 C 0.6655 0.42673 0.11111 0.0
C792 C 0.6808 0.41429 0.08773 0.0
C793 C 0.6488 0.41362 0.06145 0.0
C794 C 0.68206 0.39895 0.09739 0.0
C795 C 0.69689 0.39318 0.09287 0.0
C796 C 0.71063 0.40249 0.07849 0.0
C797 C 0.70934 0.41778 0.06879 0.0
C798 C 0.69476 0.4238 0.07352 0.0
H799 H 0.63282 0.40855 0.05566 0.0
H800 H 0.66055 0.42648 0.05322 0.0
H801 H 0.65175 0.40051 0.06029 0.0
H802 H 0.67154 0.39143 0.10846 0.0
H803 H 0.69753 0.38136 0.10059 0.0
H804 H 0.40472 0.88103 0.53145 0.0
H805 H 0.38822 0.8472 0.54568 0.0
H806 H 0.40258 0.8214 0.49938 0.0
H807 H 0.41912 0.85504 0.48517 0.0
H808 H 0.35397 0.81211 0.53321 0.0
H809 H 0.42114 0.79837 0.5396 0.0
H810 H 0.42482 0.82356 0.53497 0.0
H811 H 0.41784 0.8046 0.51707 0.0
C812 C 0.40456 0.86819 0.5244 0.0
C813 C 0.41334 0.87077 0.50721 0.0
C814 C 0.39519 0.84889 0.53257 0.0
C815 C 0.39447 0.83181 0.52374 0.0
C816 C 0.40349 0.83445 0.50671 0.0
H817 H 0.32451 0.69972 0.52828 0.0
H818 H 0.34851 0.73626 0.52194 0.0
C819 C 0.41293 0.85372 0.49857 0.0
C820 C 0.38265 0.81086 0.53153 0.0
H821 H 0.38627 0.76835 0.54145 0.0
C822 C 0.36112 0.80267 0.53531 0.0
C823 C 0.39198 0.79852 0.53423 0.0
C824 C 0.41527 0.80679 0.53143 0.0
C825 C 0.34848 0.78222 0.54095 0.0
C826 C 0.35765 0.76968 0.54307 0.0
C827 C 0.37928 0.778 0.53976 0.0
C828 C 0.34469 0.74757 0.54776 0.0
C829 C 0.32518 0.77388 0.5439 0.0
C830 C 0.33504 0.74181 0.56456 0.0
C831 C 0.32133 0.72092 0.56826 0.0
C832 C 0.31705 0.70544 0.55518 0.0
C833 C 0.32741 0.71125 0.53862 0.0
C834 C 0.34115 0.73212 0.53498 0.0
H835 H 0.31985 0.78431 0.5386 0.0
H836 H 0.31554 0.75836 0.53733 0.0
H837 H 0.32206 0.77218 0.55853 0.0
H838 H 0.33778 0.75351 0.57469 0.0
H839 H 0.31366 0.71695 0.58116 0.0
H840 H 0.59887 0.43469 0.65981 0.0
H841 H 0.60818 0.40989 0.67107 0.0
H842 H 0.5532 0.38332 0.70454 0.0
H843 H 0.54401 0.40864 0.69382 0.0
H844 H 0.61376 0.40192 0.71014 0.0
H845 H 0.55024 0.33482 0.67087 0.0
H846 H 0.55982 0.36127 0.66459 0.0
H847 H 0.54304 0.35091 0.68364 0.0
C848 C 0.58891 0.4239 0.66985 0.0
C849 C 0.57071 0.42382 0.67597 0.0
C850 C 0.59421 0.40962 0.67615 0.0
C851 C 0.58133 0.39477 0.68855 0.0
C852 C 0.56324 0.39461 0.69485 0.0
H853 H 0.60872 0.30861 0.74396 0.0
H854 H 0.59845 0.33422 0.73696 0.0
C855 C 0.55798 0.40904 0.68864 0.0
C856 C 0.58681 0.37927 0.69453 0.0
H857 H 0.57311 0.32865 0.68871 0.0
C858 C 0.60479 0.38586 0.70561 0.0
C859 C 0.57517 0.35842 0.6884 0.0
C860 C 0.55603 0.3508 0.67613 0.0
C861 C 0.6115 0.37207 0.71069 0.0
C862 C 0.59992 0.35124 0.70449 0.0
C863 C 0.58189 0.34464 0.69347 0.0
C864 C 0.60663 0.33618 0.7089 0.0
C865 C 0.63121 0.37992 0.72228 0.0
C866 C 0.61458 0.3288 0.6954 0.0
C867 C 0.62058 0.31428 0.69937 0.0
C868 C 0.61849 0.3067 0.71686 0.0
C869 C 0.61055 0.31417 0.73036 0.0
C870 C 0.60471 0.32882 0.72641 0.0
H871 H 0.6401 0.39708 0.72374 0.0
H872 H 0.62672 0.37331 0.73587 0.0
H873 H 0.64182 0.37485 0.71649 0.0
H874 H 0.61613 0.33429 0.68179 0.0
H875 H 0.62655 0.30877 0.68866 0.0
H876 H 0.14499 0.56184 0.85678 0.0
H877 H 0.17878 0.56909 0.87028 0.0
H878 H 0.21241 0.61933 0.83396 0.0
H879 H 0.17896 0.61191 0.82002 0.0
H880 H 0.21389 0.56998 0.85012 0.0
H881 H 0.23656 0.64451 0.88546 0.0
H882 H 0.20954 0.62602 0.87879 0.0
H883 H 0.22809 0.6423 0.86235 0.0
C884 C 0.15956 0.57441 0.85163 0.0
C885 C 0.15918 0.58635 0.83736 0.0
C886 C 0.17883 0.57859 0.85943 0.0
C887 C 0.19802 0.59491 0.85326 0.0
C888 C 0.19773 0.60693 0.83914 0.0
H889 H 0.3316 0.64528 0.87764 0.0
H890 H 0.29713 0.63869 0.86646 0.0
C891 C 0.17854 0.60269 0.83125 0.0
C892 C 0.21848 0.59882 0.8609 0.0
H893 H 0.26263 0.6347 0.88427 0.0
C894 C 0.22451 0.58404 0.85771 0.0
C895 C 0.23232 0.61728 0.8706 0.0
C896 C 0.22633 0.63343 0.87467 0.0
C897 C 0.24428 0.58742 0.86367 0.0
C898 C 0.25812 0.60585 0.87351 0.0
C899 C 0.25201 0.6206 0.87674 0.0
C900 C 0.27896 0.61005 0.8806 0.0
C901 C 0.25038 0.57149 0.8589 0.0
C902 C 0.28016 0.59636 0.89255 0.0
C903 C 0.29979 0.59998 0.89884 0.0
C904 C 0.31868 0.61754 0.89352 0.0
C905 C 0.3174 0.63157 0.88197 0.0
C906 C 0.29771 0.62784 0.87556 0.0
H907 H 0.24101 0.56162 0.84716 0.0
H908 H 0.26747 0.57897 0.85576 0.0
H909 H 0.24723 0.56124 0.87049 0.0
H910 H 0.26588 0.58284 0.89702 0.0
H911 H 0.30011 0.58898 0.90793 0.0
H912 H 0.60893 0.16664 0.98834 0.0
H913 H 0.63365 0.20175 0.99946 0.0
H914 H 0.58339 0.20255 0.02858 0.0
H915 H 0.55852 0.1671 0.0178 0.0
H916 H 0.63026 0.23794 0.99447 0.0
H917 H 0.63179 0.21987 0.06663 0.0
H918 H 0.62216 0.20016 0.04902 0.0
H919 H 0.60615 0.21067 0.05632 0.0
C920 C 0.60317 0.1741 0.99737 0.0
C921 C 0.58178 0.16396 0.00233 0.0
C922 C 0.61728 0.19426 0.00356 0.0
C923 C 0.61037 0.20469 0.01491 0.0
C924 C 0.58907 0.19468 0.01996 0.0
H925 H 0.69328 0.33801 0.0418 0.0
H926 H 0.66213 0.30515 0.0319 0.0
C927 C 0.57488 0.17448 0.01371 0.0
C928 C 0.62563 0.2261 0.02127 0.0
H929 H 0.65313 0.25463 0.05851 0.0
C930 C 0.63512 0.24169 0.0085 0.0
C931 C 0.63196 0.23085 0.03956 0.0
C932 C 0.62265 0.21455 0.05373 0.0
C933 C 0.65119 0.26183 0.01348 0.0
C934 C 0.65778 0.26647 0.03172 0.0
C935 C 0.6479 0.25102 0.04455 0.0
C936 C 0.67637 0.28656 0.03749 0.0
C937 C 0.66165 0.27774 0.99912 0.0
C938 C 0.69456 0.28694 0.044 0.0
C939 C 0.71228 0.30555 0.04962 0.0
C940 C 0.71224 0.32431 0.04896 0.0
C941 C 0.69393 0.32391 0.0424 0.0
C942 C 0.67613 0.30517 0.03672 0.0
H943 H 0.65683 0.2708 0.98535 0.0
H944 H 0.65718 0.28978 0.00073 0.0
H945 H 0.67916 0.28549 0.00049 0.0
H946 H 0.69507 0.27276 0.04469 0.0
H947 H 0.72598 0.30512 0.05463 0.0
H948 H 0.46404 0.62545 0.14685 0.0
H949 H 0.45525 0.65095 0.15809 0.0
H950 H 0.43932 0.62118 0.20942 0.0
H951 H 0.44771 0.59529 0.19807 0.0
H952 H 0.40975 0.62975 0.19822 0.0
H953 H 0.48886 0.69969 0.19153 0.0
H954 H 0.47913 0.68532 0.17072 0.0
H955 H 0.48471 0.67387 0.18953 0.0
C956 C 0.45904 0.62455 0.16064 0.0
C957 C 0.45679 0.60849 0.17165 0.0
C958 C 0.45402 0.63915 0.16706 0.0
C959 C 0.44699 0.63824 0.18472 0.0
C960 C 0.44479 0.62225 0.19577 0.0
H961 H 0.44142 0.73898 0.23797 0.0
H962 H 0.44927 0.71236 0.22846 0.0
C963 C 0.44961 0.60749 0.18929 0.0
C964 C 0.44127 0.65355 0.19142 0.0
H965 H 0.46009 0.70539 0.19658 0.0
C966 C 0.4208 0.6463 0.19798 0.0
C967 C 0.45575 0.67514 0.1913 0.0
C968 C 0.4784 0.68397 0.18557 0.0
C969 C 0.41434 0.66002 0.2042 0.0
C970 C 0.42856 0.68163 0.20339 0.0
C971 C 0.44909 0.68885 0.19702 0.0
C972 C 0.42284 0.69712 0.2096 0.0
C973 C 0.39252 0.6512 0.21193 0.0
C974 C 0.4053 0.69747 0.2022 0.0
C975 C 0.40057 0.71261 0.20781 0.0
C976 C 0.41356 0.72793 0.22065 0.0
C977 C 0.43112 0.72752 0.22798 0.0
C978 C 0.43565 0.71227 0.22255 0.0
H979 H 0.3862 0.63506 0.21639 0.0
H980 H 0.39262 0.66074 0.22355 0.0
H981 H 0.38153 0.65093 0.20143 0.0
H982 H 0.39547 0.68627 0.19186 0.0
H983 H 0.38704 0.71258 0.20178 0.0
H984 H 0.83888 0.42651 0.32105 0.0
H985 H 0.80434 0.41643 0.33337 0.0
H986 H 0.83339 0.46861 0.37056 0.0
H987 H 0.86834 0.47831 0.3589 0.0
H988 H 0.8032 0.43288 0.38647 0.0
H989 H 0.77119 0.445 0.3229 0.0
H990 H 0.7808 0.42733 0.32042 0.0
H991 H 0.79898 0.45405 0.32636 0.0
C992 C 0.83806 0.43571 0.33206 0.0
C993 C 0.85649 0.45326 0.33898 0.0
C994 C 0.8182 0.43007 0.3389 0.0
C995 C 0.81622 0.442 0.35262 0.0
C996 C 0.83455 0.45928 0.35984 0.0
H997 H 0.71318 0.44318 0.40655 0.0
H998 H 0.74731 0.44935 0.39605 0.0
C999 C 0.8545 0.46489 0.35307 0.0
C1000 C 0.79501 0.43641 0.3594 0.0
H1001 H 0.74669 0.42881 0.34633 0.0
C1002 C 0.79087 0.43206 0.37771 0.0
C1003 C 0.77892 0.43532 0.34794 0.0
C1004 C 0.78271 0.44086 0.32835 0.0
C1005 C 0.771 0.42645 0.38482 0.0
C1006 C 0.75495 0.42533 0.37334 0.0
C1007 C 0.75901 0.42952 0.35503 0.0
C1008 C 0.73419 0.4209 0.38024 0.0
C1009 C 0.76723 0.42161 0.40452 0.0
C1010 C 0.71546 0.40292 0.37466 0.0
C1011 C 0.6958 0.39928 0.38067 0.0
C1012 C 0.69457 0.41375 0.39214 0.0
C1013 C 0.71347 0.43172 0.39769 0.0
C1014 C 0.73305 0.43524 0.3918 0.0
H1015 H 0.77925 0.41851 0.41053 0.0
H1016 H 0.76811 0.43505 0.41186 0.0
H1017 H 0.75123 0.40798 0.40653 0.0
H1018 H 0.71606 0.39175 0.36563 0.0
H1019 H 0.68158 0.38532 0.37609 0.0
H1020 H 0.10624 0.59466 0.41125 0.0
H1021 H 0.12783 0.60863 0.43893 0.0
H1022 H 0.16641 0.58319 0.42228 0.0
H1023 H 0.14536 0.56963 0.39456 0.0
H1024 H 0.13593 0.58681 0.46612 0.0
H1025 H 0.20956 0.64485 0.43353 0.0
H1026 H 0.18392 0.63283 0.42236 0.0
H1027 H 0.19836 0.61933 0.42365 0.0
C1028 C 0.11941 0.59216 0.41347 0.0
C1029 C 0.12408 0.58102 0.40072 0.0
C1030 C 0.13165 0.60007 0.42929 0.0
C1031 C 0.14889 0.59719 0.43248 0.0
C1032 C 0.15338 0.58586 0.41991 0.0
H1033 H 0.24871 0.62521 0.50762 0.0
H1034 H 0.22372 0.61576 0.48238 0.0
C1035 C 0.14116 0.5779 0.40418 0.0
C1036 C 0.16208 0.60559 0.44908 0.0
H1037 H 0.21312 0.63663 0.46368 0.0
C1038 C 0.1528 0.59782 0.4657 0.0
C1039 C 0.18396 0.62019 0.44844 0.0
C1040 C 0.19453 0.62997 0.43106 0.0
C1041 C 0.16508 0.60323 0.48164 0.0
C1042 C 0.1873 0.61707 0.48091 0.0
C1043 C 0.19626 0.62567 0.46431 0.0
C1044 C 0.20187 0.62211 0.49674 0.0
C1045 C 0.15393 0.59345 0.49883 0.0
C1046 C 0.19823 0.62907 0.51327 0.0
C1047 C 0.21202 0.63338 0.52797 0.0
C1048 C 0.2299 0.63122 0.5263 0.0
C1049 C 0.23432 0.62567 0.50953 0.0
C1050 C 0.22023 0.6207 0.49501 0.0
H1051 H 0.13936 0.57825 0.49614 0.0
H1052 H 0.16421 0.59113 0.50828 0.0
H1053 H 0.14912 0.60375 0.5055 0.0
H1054 H 0.18482 0.63127 0.51481 0.0
H1055 H 0.20879 0.63851 0.54063 0.0
H1056 H 0.53485 0.12968 0.55866 0.0
H1057 H 0.54233 0.14866 0.58736 0.0
H1058 H 0.59306 0.13679 0.59834 0.0
H1059 H 0.58528 0.11718 0.56986 0.0
H1060 H 0.56654 0.13134 0.62827 0.0
H1061 H 0.59477 0.20677 0.59538 0.0
H1062 H 0.56868 0.18651 0.58863 0.0
H1063 H 0.59125 0.18413 0.58329 0.0
C1064 C 0.54737 0.13078 0.5673 0.0
C1065 C 0.55952 0.12195 0.56193 0.0
C1066 C 0.55176 0.14183 0.58361 0.0
C1067 C 0.56845 0.14439 0.59481 0.0
C1068 C 0.58019 0.13508 0.5898 0.0
H1069 H 0.63622 0.24103 0.67419 0.0
H1070 H 0.62357 0.21719 0.64825 0.0
C1071 C 0.57582 0.12401 0.57348 0.0
C1072 C 0.57406 0.15722 0.61153 0.0
H1073 H 0.593 0.2067 0.62698 0.0
C1074 C 0.57241 0.14785 0.62807 0.0
C1075 C 0.58165 0.1787 0.61114 0.0
C1076 C 0.58439 0.18973 0.59367 0.0
C1077 C 0.57841 0.15943 0.6443 0.0
C1078 C 0.58612 0.18104 0.64397 0.0
C1079 C 0.58732 0.19024 0.62734 0.0
C1080 C 0.59407 0.19475 0.66037 0.0
C1081 C 0.5766 0.14819 0.66143 0.0
C1082 C 0.5818 0.19031 0.67592 0.0
C1083 C 0.58964 0.20351 0.69111 0.0
C1084 C 0.60968 0.22152 0.69089 0.0
C1085 C 0.62134 0.22657 0.67505 0.0
C1086 C 0.61387 0.21313 0.6601 0.0
H1087 H 0.57845 0.13453 0.6589 0.0
H1088 H 0.58852 0.15835 0.67166 0.0
H1089 H 0.56063 0.14249 0.66703 0.0
H1090 H 0.56611 0.17677 0.67628 0.0
H1091 H 0.58 0.19973 0.70298 0.0
H1092 H 0.4815 0.57837 0.75637 0.0
H1093 H 0.46791 0.58643 0.78334 0.0
H1094 H 0.40757 0.56423 0.75644 0.0
H1095 H 0.4213 0.55713 0.72918 0.0
H1096 H 0.42117 0.60109 0.77306 0.0
H1097 H 0.42748 0.54776 0.82015 0.0
H1098 H 0.45203 0.56508 0.80963 0.0
H1099 H 0.42999 0.54609 0.79615 0.0
C1100 C 0.46534 0.57521 0.75617 0.0
C1101 C 0.45248 0.567 0.74058 0.0
C1102 C 0.45751 0.5796 0.77169 0.0
C1103 C 0.43661 0.57563 0.77201 0.0
C1104 C 0.4237 0.56728 0.75655 0.0
H1105 H 0.36908 0.57636 0.86723 0.0
H1106 H 0.3813 0.56707 0.84013 0.0
C1107 C 0.43153 0.56302 0.74101 0.0
C1108 C 0.42843 0.58106 0.78812 0.0
H1109 H 0.42001 0.57261 0.83306 0.0
C1110 C 0.42083 0.59479 0.78617 0.0
C1111 C 0.42775 0.57264 0.80516 0.0
C1112 C 0.43455 0.55692 0.80791 0.0
C1113 C 0.41279 0.60052 0.80083 0.0
C1114 C 0.41283 0.59269 0.81801 0.0
C1115 C 0.42018 0.57875 0.81992 0.0
C1116 C 0.40512 0.59856 0.83416 0.0
C1117 C 0.40396 0.61457 0.79767 0.0
C1118 C 0.41449 0.61936 0.83986 0.0
C1119 C 0.40741 0.62478 0.85527 0.0
C1120 C 0.39099 0.60945 0.86545 0.0
C1121 C 0.38171 0.5886 0.85973 0.0
C1122 C 0.38871 0.58323 0.84424 0.0
H1123 H 0.39947 0.61426 0.78331 0.0
H1124 H 0.38983 0.61014 0.806 0.0
H1125 H 0.41621 0.63073 0.80138 0.0
H1126 H 0.42752 0.63141 0.83254 0.0
H1127 H 0.4151 0.64095 0.85937 0.0
H1128 H 0.88474 0.4311 0.89175 0.0
H1129 H 0.86356 0.41746 0.91865 0.0
H1130 H 0.8921 0.47921 0.94164 0.0
H1131 H 0.91396 0.49299 0.91496 0.0
H1132 H 0.88862 0.44957 0.96614 0.0
H1133 H 0.81242 0.42385 0.92998 0.0
H1134 H 0.8279 0.4138 0.92036 0.0
H1135 H 0.83776 0.4412 0.92029 0.0
C1136 C 0.88683 0.44179 0.90264 0.0
C1137 C 0.90106 0.46318 0.90116 0.0
C1138 C 0.87448 0.43397 0.9179 0.0
C1139 C 0.87595 0.44737 0.93197 0.0
C1140 C 0.89059 0.46863 0.93084 0.0
H1141 H 0.7849 0.41645 0.01764 0.0
H1142 H 0.80756 0.43154 0.99166 0.0
C1143 C 0.90298 0.47649 0.91556 0.0
C1144 C 0.8621 0.43916 0.94777 0.0
H1145 H 0.81025 0.41268 0.96006 0.0
C1146 C 0.87149 0.44158 0.96484 0.0
C1147 C 0.83977 0.42902 0.94607 0.0
C1148 C 0.82882 0.42696 0.92822 0.0
C1149 C 0.85911 0.43366 0.98021 0.0
C1150 C 0.83676 0.42279 0.97838 0.0
C1151 C 0.82739 0.42082 0.96138 0.0
C1152 C 0.8228 0.41334 0.99396 0.0
C1153 C 0.87007 0.43722 0.99829 0.0
C1154 C 0.82354 0.39779 0.00363 0.0
C1155 C 0.81062 0.38912 0.01848 0.0
C1156 C 0.79657 0.39572 0.02391 0.0
C1157 C 0.79553 0.41099 0.0139 0.0
C1158 C 0.80848 0.41966 0.99904 0.0
H1159 H 0.88669 0.45031 0.99807 0.0
H1160 H 0.86151 0.44048 0.00891 0.0
H1161 H 0.87041 0.42309 0.00195 0.0
H1162 H 0.83414 0.39236 -0.0003 0.0
H1163 H 0.81184 0.37736 0.02579 0.0
H1164 H 0.48956 0.93173 0.08718 0.0
H1165 H 0.47757 0.90936 0.11339 0.0
H1166 H 0.42852 0.86 0.08076 0.0
H1167 H 0.44052 0.8821 0.05449 0.0
H1168 H 0.4343 0.88616 0.12898 0.0
H1169 H 0.46516 0.83653 0.10309 0.0
H1170 H 0.4741 0.86216 0.09483 0.0
H1171 H 0.44869 0.84094 0.08786 0.0
C1172 C 0.47618 0.91613 0.08562 0.0
C1173 C 0.46603 0.90867 0.06875 0.0
C1174 C 0.4693 0.90343 0.10059 0.0
C1175 C 0.45232 0.883 0.09892 0.0
C1176 C 0.44176 0.87568 0.08226 0.0
H1177 H 0.38598 0.79471 0.18338 0.0
H1178 H 0.39491 0.81631 0.15685 0.0
C1179 C 0.44853 0.8884 0.06731 0.0
C1180 C 0.44609 0.86911 0.11445 0.0
H1181 H 0.44632 0.82666 0.13022 0.0
C1182 C 0.43686 0.87311 0.12927 0.0
C1183 C 0.44965 0.85225 0.11478 0.0
C1184 C 0.46007 0.84769 0.09938 0.0
C1185 C 0.43092 0.86052 0.14442 0.0
C1186 C 0.43427 0.84352 0.14466 0.0
C1187 C 0.44365 0.83963 0.1299 0.0
C1188 C 0.42877 0.82998 0.1604 0.0
C1189 C 0.42146 0.86567 0.16021 0.0
C1190 C 0.44486 0.83021 0.17091 0.0
C1191 C 0.43985 0.81792 0.18609 0.0
C1192 C 0.41861 0.80498 0.19094 0.0
C1193 C 0.4025 0.80444 0.18007 0.0
C1194 C 0.40755 0.81686 0.16495 0.0
H1195 H 0.42339 0.88131 0.15923 0.0
H1196 H 0.40428 0.85413 0.16071 0.0
H1197 H 0.4289 0.8649 0.17303 0.0
H1198 H 0.46133 0.84018 0.16754 0.0
H1199 H 0.45268 0.81872 0.19409 0.0
H1200 H 0.57777 0.48833 0.24375 0.0
H1201 H 0.59136 0.48133 0.27136 0.0
H1202 H 0.55549 0.41588 0.25879 0.0
H1203 H 0.54233 0.42271 0.23101 0.0
H1204 H 0.56897 0.45623 0.30086 0.0
H1205 H 0.61635 0.42755 0.26616 0.0
H1206 H 0.6061 0.44185 0.25478 0.0
H1207 H 0.58902 0.41481 0.25907 0.0
C1208 C 0.57285 0.47246 0.24684 0.0
C1209 C 0.559 0.45609 0.23514 0.0
C1210 C 0.58055 0.46849 0.26265 0.0
C1211 C 0.57469 0.44812 0.26695 0.0
C1212 C 0.56048 0.43173 0.25556 0.0
H1213 H 0.60294 0.38918 0.35329 0.0
H1214 H 0.58993 0.39746 0.32613 0.0
C1215 C 0.55276 0.43567 0.23979 0.0
C1216 C 0.58341 0.44394 0.28335 0.0
H1217 H 0.61287 0.4231 0.29773 0.0
C1218 C 0.57868 0.44911 0.3002 0.0
C1219 C 0.59605 0.43462 0.28241 0.0
C1220 C 0.60237 0.42953 0.26464 0.0
C1221 C 0.58584 0.44475 0.3162 0.0
C1222 C 0.59838 0.43532 0.31526 0.0
C1223 C 0.60321 0.43028 0.2984 0.0
C1224 C 0.60657 0.43048 0.33164 0.0
C1225 C 0.57947 0.44978 0.33397 0.0
C1226 C 0.62056 0.44635 0.34356 0.0
C1227 C 0.62804 0.4417 0.3591 0.0
C1228 C 0.62177 0.42106 0.36299 0.0
C1229 C 0.60808 0.40523 0.35079 0.0
C1230 C 0.60061 0.40992 0.33524 0.0
H1231 H 0.56566 0.45202 0.33242 0.0
H1232 H 0.57546 0.43731 0.34373 0.0
H1233 H 0.59291 0.46435 0.3397 0.0
H1234 H 0.62571 0.46236 0.34083 0.0
H1235 H 0.63862 0.45432 0.36812 0.0
H1236 H 0.45425 0.89687 0.39771 0.0
H1237 H 0.4485 0.87756 0.36937 0.0
H1238 H 0.4009 0.89207 0.35332 0.0
H1239 H 0.4069 0.91192 0.38138 0.0
H1240 H 0.38849 0.8482 0.35206 0.0
H1241 H 0.46334 0.89896 0.31646 0.0
H1242 H 0.46608 0.89351 0.33948 0.0
H1243 H 0.45385 0.90846 0.33447 0.0
C1244 C 0.44291 0.8964 0.38799 0.0
C1245 C 0.431 0.90593 0.39187 0.0
C1246 C 0.43961 0.88529 0.37183 0.0
C1247 C 0.42436 0.88351 0.35926 0.0
C1248 C 0.41274 0.8933 0.36288 0.0
H1249 H 0.39517 0.82625 0.25175 0.0
H1250 H 0.40301 0.84996 0.27776 0.0
C1251 C 0.41612 0.90451 0.37897 0.0
C1252 C 0.41957 0.87033 0.34286 0.0
H1253 H 0.44031 0.86588 0.30325 0.0
C1254 C 0.39978 0.85207 0.34135 0.0
C1255 C 0.43431 0.87554 0.32891 0.0
C1256 C 0.45556 0.89525 0.32974 0.0
C1257 C 0.39449 0.83862 0.32637 0.0
C1258 C 0.40941 0.84359 0.31261 0.0
C1259 C 0.42901 0.86208 0.31391 0.0
C1260 C 0.405 0.82954 0.29691 0.0
C1261 C 0.37298 0.81921 0.3253 0.0
C1262 C 0.40362 0.81034 0.29915 0.0
C1263 C 0.39938 0.797 0.28437 0.0
C1264 C 0.39671 0.80277 0.26713 0.0
C1265 C 0.39761 0.82175 0.26493 0.0
C1266 C 0.40207 0.83522 0.2797 0.0
H1267 H 0.36185 0.81972 0.33508 0.0
H1268 H 0.36599 0.81683 0.31154 0.0
H1269 H 0.37468 0.80566 0.32832 0.0
H1270 H 0.40591 0.80574 0.31232 0.0
H1271 H 0.39813 0.78213 0.2864 0.0
H1272 H 0.54225 0.42057 0.57444 0.0
H1273 H 0.54973 0.40914 0.5459 0.0
H1274 H 0.5688 0.46865 0.5234 0.0
H1275 H 0.56138 0.48026 0.55198 0.0
H1276 H 0.53605 0.40648 0.50998 0.0
H1277 H 0.62183 0.46345 0.51959 0.0
H1278 H 0.60298 0.45734 0.53729 0.0
H1279 H 0.60508 0.47453 0.51979 0.0
C1280 C 0.5476 0.4311 0.56331 0.0
C1281 C 0.5514 0.4514 0.56551 0.0
C1282 C 0.55193 0.42455 0.54703 0.0
C1283 C 0.56014 0.43816 0.53266 0.0
C1284 C 0.56285 0.45804 0.53446 0.0
H1285 H 0.57917 0.40208 0.42476 0.0
H1286 H 0.56554 0.41212 0.45071 0.0
C1287 C 0.55862 0.46465 0.55078 0.0
C1288 C 0.56726 0.43201 0.51633 0.0
H1289 H 0.61143 0.44362 0.49279 0.0
C1290 C 0.5525 0.4147 0.50604 0.0
C1291 C 0.58882 0.44243 0.51155 0.0
C1292 C 0.60567 0.46034 0.5227 0.0
C1293 C 0.55871 0.40768 0.49092 0.0
C1294 C 0.58021 0.41857 0.48576 0.0
C1295 C 0.59492 0.43564 0.49632 0.0
C1296 C 0.58812 0.41234 0.46988 0.0
C1297 C 0.5423 0.3882 0.48115 0.0
C1298 C 0.60585 0.4099 0.47178 0.0
C1299 C 0.61404 0.40495 0.45689 0.0
C1300 C 0.60467 0.40231 0.43981 0.0
C1301 C 0.58671 0.40425 0.43785 0.0
C1302 C 0.57878 0.40971 0.4527 0.0
H1303 H 0.52887 0.37833 0.48999 0.0
H1304 H 0.53579 0.39244 0.46953 0.0
H1305 H 0.54923 0.37893 0.47609 0.0
H1306 H 0.61339 0.41182 0.48483 0.0
H1307 H 0.62764 0.40302 0.45873 0.0
H1308 H 0.09928 0.57502 0.70795 0.0
H1309 H 0.12015 0.5814 0.68067 0.0
H1310 H 0.16775 0.57649 0.71114 0.0
H1311 H 0.14672 0.56954 0.7382 0.0
H1312 H 0.15836 0.61211 0.67318 0.0
H1313 H 0.15982 0.53907 0.66926 0.0
H1314 H 0.14256 0.54259 0.68421 0.0
H1315 H 0.16985 0.55224 0.69053 0.0
C1316 C 0.1141 0.5751 0.70874 0.0
C1317 C 0.12125 0.57153 0.72514 0.0
C1318 C 0.12601 0.57875 0.69317 0.0
C1319 C 0.14535 0.57903 0.69375 0.0
C1320 C 0.15259 0.57569 0.71018 0.0
H1321 H 0.24558 0.63936 0.61559 0.0
H1322 H 0.22301 0.63051 0.6419 0.0
C1323 C 0.14057 0.57177 0.72567 0.0
C1324 C 0.15844 0.58377 0.67739 0.0
H1325 H 0.18492 0.56669 0.65128 0.0
C1326 C 0.16402 0.60208 0.6683 0.0
C1327 C 0.16561 0.57057 0.67085 0.0
C1328 C 0.15896 0.54992 0.67911 0.0
C1329 C 0.17686 0.60775 0.65308 0.0
C1330 C 0.18493 0.59508 0.64711 0.0
C1331 C 0.17902 0.57657 0.656 0.0
C1332 C 0.19906 0.6004 0.63139 0.0
C1333 C 0.18124 0.62703 0.64337 0.0
C1334 C 0.19362 0.5861 0.61703 0.0
C1335 C 0.20671 0.59092 0.60216 0.0
C1336 C 0.22551 0.61025 0.60123 0.0
C1337 C 0.23111 0.62444 0.61576 0.0
C1338 C 0.21812 0.61947 0.63076 0.0
H1339 H 0.16897 0.63121 0.64615 0.0
H1340 H 0.19673 0.64017 0.6481 0.0
H1341 H 0.18188 0.62504 0.6286 0.0
H1342 H 0.17906 0.57125 0.61722 0.0
H1343 H 0.20187 0.57959 0.59126 0.0
H1344 H 0.57486 0.10963 0.88629 0.0
H1345 H 0.58879 0.13021 0.85923 0.0
H1346 H 0.54855 0.15605 0.86761 0.0
H1347 H 0.53493 0.13597 0.89488 0.0
H1348 H 0.56709 0.13173 0.82756 0.0
H1349 H 0.60876 0.20721 0.8649 0.0
H1350 H 0.59924 0.18277 0.8758 0.0
H1351 H 0.58112 0.19129 0.86974 0.0
C1352 C 0.56899 0.11971 0.88237 0.0
C1353 C 0.55386 0.12124 0.89279 0.0
C1354 C 0.5769 0.13137 0.86688 0.0
C1355 C 0.56995 0.14488 0.86161 0.0
C1356 C 0.55436 0.14595 0.87162 0.0
H1357 H 0.60307 0.23294 0.77605 0.0
H1358 H 0.58812 0.21135 0.80233 0.0
C1359 C 0.54641 0.13427 0.88708 0.0
C1360 C 0.5792 0.15805 0.84576 0.0
H1361 H 0.60833 0.20842 0.83311 0.0
C1362 C 0.57617 0.14849 0.82875 0.0
C1363 C 0.59101 0.17991 0.84739 0.0
C1364 C 0.59543 0.19097 0.86544 0.0
C1365 C 0.58433 0.16024 0.81324 0.0
C1366 C 0.5962 0.18211 0.81488 0.0
C1367 C 0.59922 0.19166 0.8319 0.0
C1368 C 0.60561 0.19538 0.79908 0.0
C1369 C 0.57978 0.14916 0.79519 0.0
C1370 C 0.62073 0.19386 0.78876 0.0
C1371 C 0.62932 0.20615 0.77371 0.0
C1372 C 0.62306 0.22036 0.76874 0.0
C1373 C 0.60825 0.22217 0.77941 0.0
C1374 C 0.59966 0.20983 0.79445 0.0
H1375 H 0.56607 0.13311 0.7957 0.0
H1376 H 0.5765 0.15763 0.78473 0.0
H1377 H 0.59382 0.14824 0.79108 0.0
H1378 H 0.6259 0.18313 0.79234 0.0
H1379 H 0.64074 0.20437 0.76589 0.0
H1380 H 0.42697 0.54124 0.05382 0.0
H1381 H 0.4216 0.55617 0.02677 0.0
H1382 H 0.47912 0.61384 0.0389 0.0
H1383 H 0.48403 0.59942 0.06649 0.0
H1384 H 0.44743 0.62024 0.03122 0.0
H1385 H 0.44966 0.56834 0.97869 0.0
H1386 H 0.4305 0.55414 0.99546 0.0
H1387 H 0.45822 0.56881 0.00161 0.0
C1388 C 0.43853 0.55709 0.05074 0.0
C1389 C 0.45593 0.56911 0.06239 0.0
C1390 C 0.43558 0.56552 0.03511 0.0
C1391 C 0.45013 0.58603 0.03065 0.0
C1392 C 0.46777 0.59792 0.04201 0.0
H1393 H 0.43622 0.63328 0.92728 0.0
H1394 H 0.45095 0.6235 0.95255 0.0
C1395 C 0.47065 0.58956 0.05771 0.0
C1396 C 0.44607 0.59555 0.0149 0.0
H1397 H 0.43441 0.5887 0.96993 0.0
C1398 C 0.44475 0.61343 0.01778 0.0
C1399 C 0.443 0.58694 0.99729 0.0
C1400 C 0.44564 0.56863 0.99303 0.0
C1401 C 0.43958 0.62243 0.0037 0.0
C1402 C 0.43504 0.61296 0.98635 0.0
C1403 C 0.43735 0.59567 0.9833 0.0
C1404 C 0.42704 0.62017 0.97137 0.0
C1405 C 0.43925 0.64209 0.00761 0.0
C1406 C 0.40881 0.62166 0.97355 0.0
C1407 C 0.40054 0.62731 0.95921 0.0
C1408 C 0.40994 0.63092 0.9423 0.0
C1409 C 0.4285 0.63008 0.94017 0.0
C1410 C 0.43687 0.62452 0.95456 0.0
H1411 H 0.45014 0.65107 0.01901 0.0
H1412 H 0.44383 0.65211 0.99569 0.0
H1413 H 0.42303 0.63808 0.01149 0.0
H1414 H 0.40064 0.61795 0.98622 0.0
H1415 H 0.38658 0.62853 0.96124 0.0
H1416 H 0.92546 0.46799 0.21299 0.0
H1417 H 0.9063 0.45867 0.18407 0.0
H1418 H 0.85602 0.46435 0.20815 0.0
H1419 H 0.87521 0.47393 0.23699 0.0
H1420 H 0.86849 0.4246 0.17851 0.0
H1421 H 0.8625 0.49302 0.16101 0.0
H1422 H 0.88071 0.49405 0.17808 0.0
H1423 H 0.85326 0.48398 0.18317 0.0
C1424 C 0.91048 0.46757 0.21202 0.0
C1425 C 0.90183 0.47168 0.22724 0.0
C1426 C 0.89958 0.46232 0.1955 0.0
C1427 C 0.87982 0.46103 0.19388 0.0
C1428 C 0.87147 0.46576 0.20893 0.0
H1429 H 0.77769 0.38264 0.11919 0.0
H1430 H 0.80268 0.39718 0.14474 0.0
C1431 C 0.88244 0.47118 0.22543 0.0
C1432 C 0.86695 0.45247 0.17709 0.0
H1433 H 0.83926 0.46143 0.14483 0.0
C1434 C 0.86226 0.43275 0.17106 0.0
C1435 C 0.85894 0.46316 0.16731 0.0
C1436 C 0.86427 0.48481 0.17261 0.0
C1437 C 0.84951 0.42324 0.15573 0.0
C1438 C 0.84077 0.4335 0.14629 0.0
C1439 C 0.8458 0.45345 0.15212 0.0
C1440 C 0.82629 0.42378 0.13044 0.0
C1441 C 0.84605 0.40256 0.14948 0.0
C1442 C 0.83106 0.43393 0.11394 0.0
C1443 C 0.81674 0.42563 0.09939 0.0
C1444 C 0.79753 0.40691 0.101 0.0
C1445 C 0.79279 0.39666 0.11742 0.0
C1446 C 0.80705 0.40501 0.13202 0.0
H1447 H 0.85776 0.39906 0.15558 0.0
H1448 H 0.82999 0.3902 0.15326 0.0
H1449 H 0.84733 0.40232 0.13468 0.0
H1450 H 0.84572 0.44848 0.11243 0.0
H1451 H 0.82051 0.43401 0.08694 0.0
loop_
_geom_bond_atom_site_label_1
_geom_bond_atom_site_label_2
_geom_bond_distance
_geom_bond_site_symmetry_2
_ccdc_geom_bond_type
H0 C27 0.929 . S
N1 C26 1.433 . S
N1 C32 1.435 . S
N1 C38 1.423 . S
H2 C28 0.930 . S
H3 C31 0.931 . S
H4 C30 0.929 . S
H5 C33 0.930 . S
H6 C34 0.932 . S
H7 C37 0.929 . S
H8 C36 0.931 . S
H9 C39 0.929 . S
H10 C43 0.932 . S
H11 C40 0.931 . S
H12 C42 0.929 . S
H13 C45 0.929 . S
H14 C46 0.930 . S
H15 C48 0.929 . S
H16 C49 0.931 . S
H17 C51 0.930 . S
H18 C52 0.932 . S
H19 C54 0.931 . S
H20 C55 0.929 . S
H21 C57 0.929 . S
H22 C58 0.931 . S
H23 C60 0.929 . S
N24 C44 1.433 . S
N24 C50 1.435 . S
N24 C56 1.423 . S
H25 C61 0.932 . S
C26 N1 1.433 . S
C26 C27 1.363 . S
C26 C31 1.370 . S
C27 H0 0.929 . S
C27 C26 1.363 . S
C27 C28 1.385 . S
C28 H2 0.930 . S
C28 C27 1.385 . S
C28 C29 1.357 . S
C29 C28 1.357 . S
C29 C30 1.406 . S
C30 H4 0.929 . S
C30 C29 1.406 . S
C30 C31 1.391 . S
C31 H3 0.931 . S
C31 C26 1.370 . S
C31 C30 1.391 . S
C32 N1 1.435 . S
C32 C33 1.358 . S
C32 C37 1.371 . S
C33 H5 0.930 . S
C33 C32 1.358 . S
C33 C34 1.405 . S
C34 H6 0.932 . S
C34 C33 1.405 . S
C34 C35 1.383 . S
C35 C34 1.383 . S
C35 C36 1.393 . S
C36 H8 0.931 . S
C36 C35 1.393 . S
C36 C37 1.382 . S
C37 H7 0.929 . S
C37 C32 1.371 . S
C37 C36 1.382 . S
C38 N1 1.423 . S
C38 C39 1.362 . S
C38 C43 1.388 . S
C39 H9 0.929 . S
C39 C38 1.362 . S
C39 C40 1.376 . S
C40 H11 0.931 . S
C40 C39 1.376 . S
C40 C41 1.396 . S
C41 C40 1.396 . S
C41 C42 1.348 . S
C41 C59 1.472 1_455 S
C42 H12 0.929 . S
C42 C41 1.348 . S
C42 C43 1.443 . S
C43 H10 0.932 . S
C43 C38 1.388 . S
C43 C42 1.443 . S
C44 N24 1.433 . S
C44 C45 1.363 . S
C44 C49 1.370 . S
C45 H13 0.929 . S
C45 C44 1.363 . S
C45 C46 1.385 . S
C46 H14 0.930 . S
C46 C45 1.385 . S
C46 C47 1.357 . S
C47 C46 1.357 . S
C47 C48 1.406 . S
C48 H15 0.929 . S
C48 C47 1.406 . S
C48 C49 1.391 . S
C49 H16 0.931 . S
C49 C44 1.370 . S
C49 C48 1.391 . S
C50 N24 1.435 . S
C50 C51 1.358 . S
C50 C55 1.371 . S
C51 H17 0.930 . S
C51 C50 1.358 . S
C51 C52 1.405 . S
C52 H18 0.932 . S
C52 C51 1.405 . S
C52 C53 1.383 . S
C53 C52 1.383 . S
C53 C54 1.393 . S
C54 H19 0.931 . S
C54 C53 1.393 . S
C54 C55 1.382 . S
C55 H20 0.929 . S
C55 C50 1.371 . S
C55 C54 1.382 . S
C56 N24 1.423 . S
C56 C57 1.362 . S
C56 C61 1.388 . S
C57 H21 0.929 . S
C57 C56 1.362 . S
C57 C58 1.376 . S
C58 H22 0.931 . S
C58 C57 1.376 . S
C58 C59 1.396 . S
C59 C41 1.472 1_655 S
C59 C58 1.396 . S
C59 C60 1.348 . S
C60 H23 0.929 . S
C60 C59 1.348 . S
C60 C61 1.443 . S
C61 H25 0.932 . S
C61 C56 1.388 . S
C61 C60 1.443 . S
H62 C89 0.929 . S
N63 C88 1.433 . S
N63 C94 1.435 . S
N63 C100 1.423 . S
H64 C90 0.930 . S
H65 C93 0.931 . S
H66 C92 0.929 . S
H67 C95 0.930 . S
H68 C96 0.932 . S
H69 C99 0.929 . S
H70 C98 0.931 . S
H71 C101 0.929 . S
H72 C105 0.932 . S
H73 C102 0.931 . S
H74 C104 0.926 1_545 S
H75 C107 0.929 . S
H76 C108 0.930 . S
H77 C110 0.929 . S
H78 C111 0.931 . S
H79 C113 0.930 . S
H80 C114 0.932 . S
H81 C116 0.931 . S
H82 C117 0.929 . S
H83 C119 0.929 . S
H84 C120 0.931 . S
H85 C122 0.929 . S
N86 C106 1.433 . S
N86 C112 1.435 . S
N86 C118 1.423 . S
H87 C123 0.932 . S
C88 N63 1.433 . S
C88 C89 1.363 . S
C88 C93 1.370 . S
C89 H62 0.929 . S
C89 C88 1.363 . S
C89 C90 1.385 . S
C90 H64 0.930 . S
C90 C89 1.385 . S
C90 C91 1.357 . S
C91 C90 1.357 . S
C91 C92 1.406 . S
C92 H66 0.929 . S
C92 C91 1.406 . S
C92 C93 1.391 . S
C93 H65 0.931 . S
C93 C88 1.370 . S
C93 C92 1.391 . S
C94 N63 1.435 . S
C94 C95 1.358 . S
C94 C99 1.371 . S
C95 H67 0.930 . S
C95 C94 1.358 . S
C95 C96 1.405 . S
C96 H68 0.932 . S
C96 C95 1.405 . S
C96 C97 1.383 . S
C97 C96 1.383 . S
C97 C98 1.393 . S
C98 H70 0.931 . S
C98 C97 1.393 . S
C98 C99 1.382 . S
C99 H69 0.929 . S
C99 C94 1.371 . S
C99 C98 1.382 . S
C100 N63 1.423 . S
C100 C101 1.362 . S
C100 C105 1.388 . S
C101 H71 0.929 . S
C101 C100 1.362 . S
C101 C102 1.376 . S
C102 H73 0.931 . S
C102 C101 1.376 . S
C102 C103 1.396 1_565 S
C103 C102 1.396 1_545 S
C103 C104 1.348 1_545 S
C103 C121 1.472 . S
C104 H74 0.926 1_565 S
C104 C103 1.348 1_565 S
C104 C105 1.445 . S
C105 H72 0.932 . S
C105 C100 1.388 . S
C105 C104 1.445 . S
C106 N86 1.433 . S
C106 C107 1.363 . S
C106 C111 1.370 . S
C107 H75 0.929 . S
C107 C106 1.363 . S
C107 C108 1.385 . S
C108 H76 0.930 . S
C108 C107 1.385 . S
C108 C109 1.357 . S
C109 C108 1.357 . S
C109 C110 1.406 . S
C110 H77 0.929 . S
C110 C109 1.406 . S
C110 C111 1.391 . S
C111 H78 0.931 . S
C111 C106 1.370 . S
C111 C110 1.391 . S
C112 N86 1.435 . S
C112 C113 1.358 . S
C112 C117 1.371 . S
C113 H79 0.930 . S
C113 C112 1.358 . S
C113 C114 1.405 . S
C114 H80 0.932 . S
C114 C113 1.405 . S
C114 C115 1.383 . S
C115 C114 1.383 . S
C115 C116 1.393 . S
C116 H81 0.931 . S
C116 C115 1.393 . S
C116 C117 1.382 . S
C117 H82 0.929 . S
C117 C112 1.371 . S
C117 C116 1.382 . S
C118 N86 1.423 . S
C118 C119 1.362 . S
C118 C123 1.388 . S
C119 H83 0.929 . S
C119 C118 1.362 . S
C119 C120 1.376 . S
C120 H84 0.931 . S
C120 C119 1.376 . S
C120 C121 1.396 . S
C121 C103 1.472 . S
C121 C120 1.396 . S
C121 C122 1.348 . S
C122 H85 0.929 . S
C122 C121 1.348 . S
C122 C123 1.443 . S
C123 H87 0.932 . S
C123 C118 1.388 . S
C123 C122 1.443 . S
H124 C151 0.929 . S
N125 C150 1.433 . S
N125 C156 1.435 . S
N125 C162 1.423 . S
H126 C152 0.930 . S
H127 C155 0.931 . S
H128 C154 0.929 . S
H129 C157 0.930 . S
H130 C158 0.932 . S
H131 C161 0.929 . S
H132 C160 0.931 . S
H133 C163 0.929 . S
H134 C167 0.932 . S
H135 C164 0.931 . S
H136 C166 0.929 . S
H137 C169 0.929 . S
H138 C170 0.930 . S
H139 C172 0.929 . S
H140 C173 0.931 . S
H141 C175 0.930 . S
H142 C176 0.932 . S
H143 C178 0.931 . S
H144 C179 0.929 . S
H145 C181 0.929 . S
H146 C182 0.931 . S
H147 C184 0.929 . S
N148 C168 1.433 . S
N148 C174 1.435 . S
N148 C180 1.423 . S
H149 C185 0.932 . S
C150 N125 1.433 . S
C150 C151 1.363 . S
C150 C155 1.370 . S
C151 H124 0.929 . S
C151 C150 1.363 . S
C151 C152 1.385 . S
C152 H126 0.930 . S
C152 C151 1.385 . S
C152 C153 1.357 . S
C153 C152 1.357 . S
C153 C154 1.406 . S
C154 H128 0.929 . S
C154 C153 1.406 . S
C154 C155 1.391 . S
C155 H127 0.931 . S
C155 C150 1.370 . S
C155 C154 1.391 . S
C156 N125 1.435 . S
C156 C157 1.358 . S
C156 C161 1.371 . S
C157 H129 0.930 . S
C157 C156 1.358 . S
C157 C158 1.405 . S
C158 H130 0.932 . S
C158 C157 1.405 . S
C158 C159 1.383 . S
C159 C158 1.383 . S
C159 C160 1.393 . S
C160 H132 0.931 . S
C160 C159 1.393 . S
C160 C161 1.382 . S
C161 H131 0.929 . S
C161 C156 1.371 . S
C161 C160 1.382 . S
C162 N125 1.423 . S
C162 C163 1.362 . S
C162 C167 1.388 . S
C163 H133 0.929 . S
C163 C162 1.362 . S
C163 C164 1.376 . S
C164 H135 0.931 . S
C164 C163 1.376 . S
C164 C165 1.396 . S
C165 C164 1.396 . S
C165 C166 1.348 . S
C165 C183 1.472 . S
C166 H136 0.929 . S
C166 C165 1.348 . S
C166 C167 1.443 . S
C167 H134 0.932 . S
C167 C162 1.388 . S
C167 C166 1.443 . S
C168 N148 1.433 . S
C168 C169 1.363 . S
C168 C173 1.370 . S
C169 H137 0.929 . S
C169 C168 1.363 . S
C169 C170 1.385 . S
C170 H138 0.930 . S
C170 C169 1.385 . S
C170 C171 1.357 . S
C171 C170 1.357 . S
C171 C172 1.406 . S
C172 H139 0.929 . S
C172 C171 1.406 . S
C172 C173 1.391 . S
C173 H140 0.931 . S
C173 C168 1.370 . S
C173 C172 1.391 . S
C174 N148 1.435 . S
C174 C175 1.358 . S
C174 C179 1.371 . S
C175 H141 0.930 . S
C175 C174 1.358 . S
C175 C176 1.405 . S
C176 H142 0.932 . S
C176 C175 1.405 . S
C176 C177 1.383 . S
C177 C176 1.383 . S
C177 C178 1.393 . S
C178 H143 0.931 . S
C178 C177 1.393 . S
C178 C179 1.382 . S
C179 H144 0.929 . S
C179 C174 1.371 . S
C179 C178 1.382 . S
C180 N148 1.423 . S
C180 C181 1.362 . S
C180 C185 1.388 . S
C181 H145 0.929 . S
C181 C180 1.362 . S
C181 C182 1.376 . S
C182 H146 0.931 . S
C182 C181 1.376 . S
C182 C183 1.396 . S
C183 C165 1.472 . S
C183 C182 1.396 . S
C183 C184 1.348 . S
C184 H147 0.929 . S
C184 C183 1.348 . S
C184 C185 1.443 . S
C185 H149 0.932 . S
C185 C180 1.388 . S
C185 C184 1.443 . S
H186 C213 0.929 . S
N187 C212 1.433 . S
N187 C218 1.435 . S
N187 C224 1.423 . S
H188 C214 0.930 . S
H189 C217 0.931 . S
H190 C216 0.929 . S
H191 C219 0.930 . S
H192 C220 0.932 . S
H193 C223 0.929 . S
H194 C222 0.931 . S
H195 C225 0.929 . S
H196 C229 0.932 . S
H197 C226 0.931 . S
H198 C228 0.929 . S
H199 C231 0.929 . S
H200 C232 0.930 . S
H201 C234 0.929 . S
H202 C235 0.931 . S
H203 C237 0.930 . S
H204 C238 0.932 . S
H205 C240 0.931 . S
H206 C241 0.929 . S
H207 C243 0.929 . S
H208 C244 0.931 . S
H209 C246 0.929 . S
N210 C230 1.433 . S
N210 C236 1.435 . S
N210 C242 1.423 . S
H211 C247 0.932 . S
C212 N187 1.433 . S
C212 C213 1.363 . S
C212 C217 1.370 . S
C213 H186 0.929 . S
C213 C212 1.363 . S
C213 C214 1.385 . S
C214 H188 0.930 . S
C214 C213 1.385 . S
C214 C215 1.357 . S
C215 C214 1.357 . S
C215 C216 1.406 . S
C216 H190 0.929 . S
C216 C215 1.406 . S
C216 C217 1.391 . S
C217 H189 0.931 . S
C217 C212 1.370 . S
C217 C216 1.391 . S
C218 N187 1.435 . S
C218 C219 1.358 . S
C218 C223 1.371 . S
C219 H191 0.930 . S
C219 C218 1.358 . S
C219 C220 1.405 . S
C220 H192 0.932 . S
C220 C219 1.405 . S
C220 C221 1.383 . S
C221 C220 1.383 . S
C221 C222 1.393 . S
C222 H194 0.931 . S
C222 C221 1.393 . S
C222 C223 1.382 . S
C223 H193 0.929 . S
C223 C218 1.371 . S
C223 C222 1.382 . S
C224 N187 1.423 . S
C224 C225 1.362 . S
C224 C229 1.388 . S
C225 H195 0.929 . S
C225 C224 1.362 . S
C225 C226 1.376 . S
C226 H197 0.931 . S
C226 C225 1.376 . S
C226 C227 1.396 . S
C227 C226 1.396 . S
C227 C228 1.348 . S
C227 C245 1.472 1_455 S
C228 H198 0.929 . S
C228 C227 1.348 . S
C228 C229 1.443 . S
C229 H196 0.932 . S
C229 C224 1.388 . S
C229 C228 1.443 . S
C230 N210 1.433 . S
C230 C231 1.363 . S
C230 C235 1.370 . S
C231 H199 0.929 . S
C231 C230 1.363 . S
C231 C232 1.385 . S
C232 H200 0.930 . S
C232 C231 1.385 . S
C232 C233 1.357 . S
C233 C232 1.357 . S
C233 C234 1.406 . S
C234 H201 0.929 . S
C234 C233 1.406 . S
C234 C235 1.391 . S
C235 H202 0.931 . S
C235 C230 1.370 . S
C235 C234 1.391 . S
C236 N210 1.435 . S
C236 C237 1.358 . S
C236 C241 1.371 . S
C237 H203 0.930 . S
C237 C236 1.358 . S
C237 C238 1.405 . S
C238 H204 0.932 . S
C238 C237 1.405 . S
C238 C239 1.383 . S
C239 C238 1.383 . S
C239 C240 1.393 . S
C240 H205 0.931 . S
C240 C239 1.393 . S
C240 C241 1.382 . S
C241 H206 0.929 . S
C241 C236 1.371 . S
C241 C240 1.382 . S
C242 N210 1.423 . S
C242 C243 1.362 . S
C242 C247 1.388 . S
C243 H207 0.929 . S
C243 C242 1.362 . S
C243 C244 1.376 . S
C244 H208 0.931 . S
C244 C243 1.376 . S
C244 C245 1.396 . S
C245 C227 1.472 1_655 S
C245 C244 1.396 . S
C245 C246 1.348 . S
C246 H209 0.929 . S
C246 C245 1.348 . S
C246 C247 1.443 . S
C247 H211 0.932 . S
C247 C242 1.388 . S
C247 C246 1.443 . S
H248 C275 0.929 . S
N249 C274 1.433 . S
N249 C280 1.435 . S
N249 C286 1.423 . S
H250 C276 0.930 . S
H251 C279 0.931 . S
H252 C278 0.929 . S
H253 C281 0.930 . S
H254 C282 0.932 . S
H255 C285 0.929 . S
H256 C284 0.931 . S
H257 C287 0.929 . S
H258 C291 0.932 . S
H259 C288 0.931 . S
H260 C290 0.929 . S
H261 C293 0.929 . S
H262 C294 0.930 . S
H263 C296 0.929 . S
H264 C297 0.931 . S
H265 C299 0.930 1_554 S
H266 C300 0.932 . S
H267 C302 0.931 . S
H268 C303 0.929 . S
H269 C305 0.929 . S
H270 C306 0.931 1_544 S
H271 C308 0.929 . S
N272 C292 1.433 . S
N272 C298 1.435 1_554 S
N272 C304 1.423 1_554 S
H273 C309 0.932 . S
C274 N249 1.433 . S
C274 C275 1.363 . S
C274 C279 1.370 . S
C275 H248 0.929 . S
C275 C274 1.363 . S
C275 C276 1.385 . S
C276 H250 0.930 . S
C276 C275 1.385 . S
C276 C277 1.357 1_556 S
C277 C276 1.357 1_554 S
C277 C278 1.406 . S
C278 H252 0.929 . S
C278 C277 1.406 . S
C278 C279 1.391 1_554 S
C279 H251 0.931 . S
C279 C274 1.370 . S
C279 C278 1.391 1_556 S
C280 N249 1.435 . S
C280 C281 1.358 . S
C280 C285 1.371 . S
C281 H253 0.930 . S
C281 C280 1.358 . S
C281 C282 1.405 . S
C282 H254 0.932 . S
C282 C281 1.405 . S
C282 C283 1.383 . S
C283 C282 1.383 . S
C283 C284 1.393 . S
C284 H256 0.931 . S
C284 C283 1.393 . S
C284 C285 1.382 . S
C285 H255 0.929 . S
C285 C280 1.371 . S
C285 C284 1.382 . S
C286 N249 1.423 . S
C286 C287 1.362 . S
C286 C291 1.388 . S
C287 H257 0.929 . S
C287 C286 1.362 . S
C287 C288 1.376 . S
C288 H259 0.931 . S
C288 C287 1.376 . S
C288 C289 1.396 . S
C289 C288 1.396 . S
C289 C290 1.348 . S
C289 C307 1.472 . S
C290 H260 0.929 . S
C290 C289 1.348 . S
C290 C291 1.443 . S
C291 H258 0.932 . S
C291 C286 1.388 . S
C291 C290 1.443 . S
C292 N272 1.433 . S
C292 C293 1.363 . S
C292 C297 1.370 . S
C293 H261 0.929 . S
C293 C292 1.363 . S
C293 C294 1.385 . S
C294 H262 0.930 . S
C294 C293 1.385 . S
C294 C295 1.357 . S
C295 C294 1.357 . S
C295 C296 1.406 . S
C296 H263 0.929 . S
C296 C295 1.406 . S
C296 C297 1.391 . S
C297 H264 0.931 . S
C297 C292 1.370 . S
C297 C296 1.391 . S
C298 N272 1.435 1_556 S
C298 C299 1.358 . S
C298 C303 1.371 . S
C299 H265 0.930 1_556 S
C299 C298 1.358 . S
C299 C300 1.405 . S
C300 H266 0.932 . S
C300 C299 1.405 . S
C300 C301 1.383 . S
C301 C300 1.383 . S
C301 C302 1.393 . S
C302 H267 0.931 . S
C302 C301 1.393 . S
C302 C303 1.382 . S
C303 H268 0.929 . S
C303 C298 1.371 . S
C303 C302 1.382 . S
C304 N272 1.423 1_556 S
C304 C305 1.362 1_556 S
C304 C309 1.388 . S
C305 H269 0.929 . S
C305 C304 1.362 1_554 S
C305 C306 1.376 1_554 S
C306 H270 0.931 1_566 S
C306 C305 1.376 1_556 S
C306 C307 1.396 1_565 S
C307 C289 1.472 . S
C307 C306 1.396 1_545 S
C307 C308 1.348 1_545 S
C308 H271 0.929 . S
C308 C307 1.348 1_565 S
C308 C309 1.443 . S
C309 H273 0.932 . S
C309 C304 1.388 . S
C309 C308 1.443 . S
H310 C337 0.929 . S
N311 C336 1.433 . S
N311 C342 1.435 . S
N311 C348 1.423 . S
H312 C338 0.930 . S
H313 C341 0.931 . S
H314 C340 0.929 . S
H315 C343 0.930 . S
H316 C344 0.932 . S
H317 C347 0.929 . S
H318 C346 0.931 . S
H319 C349 0.929 . S
H320 C353 0.932 . S
H321 C350 0.931 . S
H322 C352 0.929 . S
H323 C355 0.929 . S
H324 C356 0.930 . S
H325 C358 0.929 . S
H326 C359 0.931 . S
H327 C361 0.930 . S
H328 C362 0.932 . S
H329 C364 0.931 . S
H330 C365 0.929 . S
H331 C367 0.929 . S
H332 C368 0.931 . S
H333 C370 0.929 . S
N334 C354 1.433 . S
N334 C360 1.435 . S
N334 C366 1.423 . S
H335 C371 0.932 . S
C336 N311 1.433 . S
C336 C337 1.363 . S
C336 C341 1.370 . S
C337 H310 0.929 . S
C337 C336 1.363 . S
C337 C338 1.385 . S
C338 H312 0.930 . S
C338 C337 1.385 . S
C338 C339 1.357 . S
C339 C338 1.357 . S
C339 C340 1.406 . S
C340 H314 0.929 . S
C340 C339 1.406 . S
C340 C341 1.391 . S
C341 H313 0.931 . S
C341 C336 1.370 . S
C341 C340 1.391 . S
C342 N311 1.435 . S
C342 C343 1.358 . S
C342 C347 1.371 . S
C343 H315 0.930 . S
C343 C342 1.358 . S
C343 C344 1.405 . S
C344 H316 0.932 . S
C344 C343 1.405 . S
C344 C345 1.383 . S
C345 C344 1.383 . S
C345 C346 1.393 . S
C346 H318 0.931 . S
C346 C345 1.393 . S
C346 C347 1.382 . S
C347 H317 0.929 . S
C347 C342 1.371 . S
C347 C346 1.382 . S
C348 N311 1.423 . S
C348 C349 1.362 . S
C348 C353 1.388 . S
C349 H319 0.929 . S
C349 C348 1.362 . S
C349 C350 1.376 . S
C350 H321 0.931 . S
C350 C349 1.376 . S
C350 C351 1.396 . S
C351 C350 1.396 . S
C351 C352 1.348 . S
C351 C369 1.472 . S
C352 H322 0.929 . S
C352 C351 1.348 . S
C352 C353 1.443 . S
C353 H320 0.932 . S
C353 C348 1.388 . S
C353 C352 1.443 . S
C354 N334 1.433 . S
C354 C355 1.363 . S
C354 C359 1.370 . S
C355 H323 0.929 . S
C355 C354 1.363 . S
C355 C356 1.385 . S
C356 H324 0.930 . S
C356 C355 1.385 . S
C356 C357 1.357 . S
C357 C356 1.357 . S
C357 C358 1.406 . S
C358 H325 0.929 . S
C358 C357 1.406 . S
C358 C359 1.391 . S
C359 H326 0.931 . S
C359 C354 1.370 . S
C359 C358 1.391 . S
C360 N334 1.435 . S
C360 C361 1.358 . S
C360 C365 1.371 . S
C361 H327 0.930 . S
C361 C360 1.358 . S
C361 C362 1.405 . S
C362 H328 0.932 . S
C362 C361 1.405 . S
C362 C363 1.383 . S
C363 C362 1.383 . S
C363 C364 1.393 . S
C364 H329 0.931 . S
C364 C363 1.393 . S
C364 C365 1.382 . S
C365 H330 0.929 . S
C365 C360 1.371 . S
C365 C364 1.382 . S
C366 N334 1.423 . S
C366 C367 1.362 . S
C366 C371 1.388 . S
C367 H331 0.929 . S
C367 C366 1.362 . S
C367 C368 1.376 . S
C368 H332 0.931 . S
C368 C367 1.376 . S
C368 C369 1.396 . S
C369 C351 1.472 . S
C369 C368 1.396 . S
C369 C370 1.348 . S
C370 H333 0.929 . S
C370 C369 1.348 . S
C370 C371 1.443 . S
C371 H335 0.932 . S
C371 C366 1.388 . S
C371 C370 1.443 . S
Mn372 O377 2.095 . S
Mn372 O387 2.162 . S
Mn372 O388 2.297 . S
Mn372 O396 2.385 . S
Mn372 O397 2.209 . S
Mn372 O398 2.094 . S
Mn373 O378 2.121 . S
Mn373 N380 2.257 . S
Mn373 N389 2.282 . S
Mn373 O397 2.215 . S
Mn373 O399 2.117 . S
C374 O396 1.234 . S
C374 O397 1.283 . S
C375 O387 1.281 . S
C375 O388 1.236 . S
C376 O398 1.240 . S
C376 O399 1.264 . S
O377 Mn372 2.095 . S
O377 C386 1.250 . S
O378 Mn373 2.121 . S
O378 C386 1.258 . S
C379 N380 1.326 . S
C379 C383 1.460 . S
C379 H385 0.929 . S
N380 Mn373 2.257 . S
N380 C379 1.326 . S
N380 C384 1.362 . S
C381 C382 1.258 . S
C381 C384 1.431 . S
C381 C401 1.449 . S
C382 C381 1.258 . S
C382 C383 1.477 . S
C382 H402 0.931 . S
C383 C379 1.460 . S
C383 C382 1.477 . S
C383 H403 0.930 . S
C384 N380 1.362 . S
C384 C381 1.431 . S
C384 C394 1.476 . S
H385 C379 0.929 . S
C386 O377 1.250 . S
C386 O378 1.258 . S
O387 Mn372 2.162 . S
O387 C375 1.281 . S
O388 Mn372 2.297 . S
O388 C375 1.236 . S
N389 Mn373 2.282 . S
N389 C390 1.328 . S
N389 C394 1.318 . S
C390 N389 1.328 . S
C390 C391 1.457 . S
C390 H395 0.929 . S
C391 C390 1.457 . S
C391 C392 1.291 . S
C391 H404 0.931 . S
C392 C391 1.291 . S
C392 C393 1.373 . S
C392 H405 0.929 . S
C393 C392 1.373 . S
C393 C394 1.396 . S
C393 C400 1.403 . S
C394 C384 1.476 . S
C394 N389 1.318 . S
C394 C393 1.396 . S
H395 C390 0.929 . S
O396 Mn372 2.385 . S
O396 C374 1.234 . S
O397 Mn372 2.209 . S
O397 Mn373 2.215 . S
O397 C374 1.283 . S
O398 Mn372 2.094 . S
O398 C376 1.240 . S
O399 Mn373 2.117 . S
O399 C376 1.264 . S
C400 C393 1.403 . S
C400 C401 1.399 . S
C400 H406 0.929 . S
C401 C381 1.449 . S
C401 C400 1.399 . S
C401 H407 0.930 . S
H402 C382 0.931 . S
H403 C383 0.930 . S
H404 C391 0.931 . S
H405 C392 0.929 . S
H406 C400 0.929 . S
H407 C401 0.930 . S
Mn408 O413 2.095 . S
Mn408 O423 2.162 . S
Mn408 O424 2.297 . S
Mn408 O432 2.385 . S
Mn408 O433 2.209 . S
Mn408 O434 2.094 . S
Mn409 O414 2.121 . S
Mn409 N416 2.257 . S
Mn409 N425 2.282 . S
Mn409 O433 2.215 . S
Mn409 O435 2.117 . S
C410 O432 1.234 . S
C410 O433 1.283 . S
C411 O423 1.281 . S
C411 O424 1.236 . S
C412 O434 1.240 . S
C412 O435 1.264 . S
O413 Mn408 2.095 . S
O413 C422 1.250 . S
O414 Mn409 2.121 . S
O414 C422 1.258 . S
C415 N416 1.326 . S
C415 C419 1.460 . S
C415 H421 0.929 . S
N416 Mn409 2.257 . S
N416 C415 1.326 . S
N416 C420 1.362 . S
C417 C418 1.258 . S
C417 C420 1.431 . S
C417 C437 1.449 . S
C418 C417 1.258 . S
C418 C419 1.477 . S
C418 H438 0.931 . S
C419 C415 1.460 . S
C419 C418 1.477 . S
C419 H439 0.930 . S
C420 N416 1.362 . S
C420 C417 1.431 . S
C420 C430 1.476 . S
H421 C415 0.929 . S
C422 O413 1.250 . S
C422 O414 1.258 . S
O423 Mn408 2.162 . S
O423 C411 1.281 . S
O424 Mn408 2.297 . S
O424 C411 1.236 . S
N425 Mn409 2.282 . S
N425 C426 1.328 . S
N425 C430 1.318 . S
C426 N425 1.328 . S
C426 C427 1.457 . S
C426 H431 0.929 . S
C427 C426 1.457 . S
C427 C428 1.291 . S
C427 H440 0.931 . S
C428 C427 1.291 . S
C428 C429 1.373 . S
C428 H441 0.929 . S
C429 C428 1.373 . S
C429 C430 1.396 . S
C429 C436 1.403 . S
C430 C420 1.476 . S
C430 N425 1.318 . S
C430 C429 1.396 . S
H431 C426 0.929 . S
O432 Mn408 2.385 . S
O432 C410 1.234 . S
O433 Mn408 2.209 . S
O433 Mn409 2.215 . S
O433 C410 1.283 . S
O434 Mn408 2.094 . S
O434 C412 1.240 . S
O435 Mn409 2.117 . S
O435 C412 1.264 . S
C436 C429 1.403 . S
C436 C437 1.399 . S
C436 H442 0.929 . S
C437 C417 1.449 . S
C437 C436 1.399 . S
C437 H443 0.930 . S
H438 C418 0.931 . S
H439 C419 0.930 . S
H440 C427 0.931 . S
H441 C428 0.929 . S
H442 C436 0.929 . S
H443 C437 0.930 . S
Mn444 O449 2.095 . S
Mn444 O459 2.162 . S
Mn444 O460 2.297 . S
Mn444 O468 2.385 . S
Mn444 O469 2.209 . S
Mn444 O470 2.094 . S
Mn445 O450 2.121 . S
Mn445 N452 2.257 . S
Mn445 N461 2.282 . S
Mn445 O469 2.215 . S
Mn445 O471 2.117 . S
C446 O468 1.234 . S
C446 O469 1.283 . S
C447 O459 1.281 . S
C447 O460 1.236 . S
C448 O470 1.240 . S
C448 O471 1.264 . S
O449 Mn444 2.095 . S
O449 C458 1.250 . S
O450 Mn445 2.121 . S
O450 C458 1.258 . S
C451 N452 1.326 . S
C451 C455 1.460 . S
C451 H457 0.929 . S
N452 Mn445 2.257 . S
N452 C451 1.326 . S
N452 C456 1.362 . S
C453 C454 1.258 . S
C453 C456 1.431 . S
C453 C473 1.449 . S
C454 C453 1.258 . S
C454 C455 1.477 . S
C454 H474 0.931 . S
C455 C451 1.460 . S
C455 C454 1.477 . S
C455 H475 0.930 . S
C456 N452 1.362 . S
C456 C453 1.431 . S
C456 C466 1.476 . S
H457 C451 0.929 . S
C458 O449 1.250 . S
C458 O450 1.258 . S
O459 Mn444 2.162 . S
O459 C447 1.281 . S
O460 Mn444 2.297 . S
O460 C447 1.236 . S
N461 Mn445 2.282 . S
N461 C462 1.328 . S
N461 C466 1.318 . S
C462 N461 1.328 . S
C462 C463 1.457 . S
C462 H467 0.929 . S
C463 C462 1.457 . S
C463 C464 1.291 . S
C463 H476 0.931 . S
C464 C463 1.291 . S
C464 C465 1.373 . S
C464 H477 0.929 . S
C465 C464 1.373 . S
C465 C466 1.396 . S
C465 C472 1.403 . S
C466 C456 1.476 . S
C466 N461 1.318 . S
C466 C465 1.396 . S
H467 C462 0.929 . S
O468 Mn444 2.385 . S
O468 C446 1.234 . S
O469 Mn444 2.209 . S
O469 Mn445 2.215 . S
O469 C446 1.283 . S
O470 Mn444 2.094 . S
O470 C448 1.240 . S
O471 Mn445 2.117 . S
O471 C448 1.264 . S
C472 C465 1.403 . S
C472 C473 1.399 . S
C472 H478 0.929 . S
C473 C453 1.449 . S
C473 C472 1.399 . S
C473 H479 0.930 . S
H474 C454 0.931 . S
H475 C455 0.930 . S
H476 C463 0.931 . S
H477 C464 0.929 . S
H478 C472 0.929 . S
H479 C473 0.930 . S
Mn480 O485 2.095 . S
Mn480 O495 2.162 . S
Mn480 O496 2.297 . S
Mn480 O504 2.385 . S
Mn480 O505 2.209 . S
Mn480 O506 2.094 . S
Mn481 O486 2.121 . S
Mn481 N488 2.257 . S
Mn481 N497 2.282 . S
Mn481 O505 2.215 . S
Mn481 O507 2.117 . S
C482 O504 1.234 . S
C482 O505 1.283 . S
C483 O495 1.281 . S
C483 O496 1.236 . S
C484 O506 1.240 . S
C484 O507 1.264 . S
O485 Mn480 2.095 . S
O485 C494 1.250 . S
O486 Mn481 2.121 . S
O486 C494 1.258 . S
C487 N488 1.326 . S
C487 C491 1.460 . S
C487 H493 0.929 . S
N488 Mn481 2.257 . S
N488 C487 1.326 . S
N488 C492 1.362 . S
C489 C490 1.258 . S
C489 C492 1.431 . S
C489 C509 1.449 . S
C490 C489 1.258 . S
C490 C491 1.477 . S
C490 H510 0.931 . S
C491 C487 1.460 . S
C491 C490 1.477 . S
C491 H511 0.930 . S
C492 N488 1.362 . S
C492 C489 1.431 . S
C492 C502 1.476 . S
H493 C487 0.929 . S
C494 O485 1.250 . S
C494 O486 1.258 . S
O495 Mn480 2.162 . S
O495 C483 1.281 . S
O496 Mn480 2.297 . S
O496 C483 1.236 . S
N497 Mn481 2.282 . S
N497 C498 1.328 . S
N497 C502 1.318 . S
C498 N497 1.328 . S
C498 C499 1.457 . S
C498 H503 0.929 . S
C499 C498 1.457 . S
C499 C500 1.291 . S
C499 H512 0.931 . S
C500 C499 1.291 . S
C500 C501 1.373 . S
C500 H513 0.929 . S
C501 C500 1.373 . S
C501 C502 1.396 . S
C501 C508 1.403 . S
C502 C492 1.476 . S
C502 N497 1.318 . S
C502 C501 1.396 . S
H503 C498 0.929 . S
O504 Mn480 2.385 . S
O504 C482 1.234 . S
O505 Mn480 2.209 . S
O505 Mn481 2.215 . S
O505 C482 1.283 . S
O506 Mn480 2.094 . S
O506 C484 1.240 . S
O507 Mn481 2.117 . S
O507 C484 1.264 . S
C508 C501 1.403 . S
C508 C509 1.399 . S
C508 H514 0.929 . S
C509 C489 1.449 . S
C509 C508 1.399 . S
C509 H515 0.930 . S
H510 C490 0.931 . S
H511 C491 0.930 . S
H512 C499 0.931 . S
H513 C500 0.929 . S
H514 C508 0.929 . S
H515 C509 0.930 . S
Mn516 O521 2.095 . S
Mn516 O531 2.162 . S
Mn516 O532 2.297 . S
Mn516 O540 2.385 . S
Mn516 O541 2.209 . S
Mn516 O542 2.094 . S
Mn517 O522 2.121 . S
Mn517 N524 2.257 . S
Mn517 N533 2.282 . S
Mn517 O541 2.215 . S
Mn517 O543 2.117 . S
C518 O540 1.234 . S
C518 O541 1.283 . S
C519 O531 1.281 . S
C519 O532 1.236 . S
C520 O542 1.240 . S
C520 O543 1.264 . S
O521 Mn516 2.095 . S
O521 C530 1.250 . S
O522 Mn517 2.121 . S
O522 C530 1.258 . S
C523 N524 1.326 . S
C523 C527 1.460 . S
C523 H529 0.929 . S
N524 Mn517 2.257 . S
N524 C523 1.326 . S
N524 C528 1.362 . S
C525 C526 1.258 . S
C525 C528 1.431 . S
C525 C545 1.449 . S
C526 C525 1.258 . S
C526 C527 1.477 . S
C526 H546 0.931 . S
C527 C523 1.460 . S
C527 C526 1.477 . S
C527 H547 0.930 . S
C528 N524 1.362 . S
C528 C525 1.431 . S
C528 C538 1.476 . S
H529 C523 0.929 . S
C530 O521 1.250 . S
C530 O522 1.258 . S
O531 Mn516 2.162 . S
O531 C519 1.281 . S
O532 Mn516 2.297 . S
O532 C519 1.236 . S
N533 Mn517 2.282 . S
N533 C534 1.328 . S
N533 C538 1.318 . S
C534 N533 1.328 . S
C534 C535 1.457 . S
C534 H539 0.929 . S
C535 C534 1.457 . S
C535 C536 1.291 . S
C535 H548 0.931 . S
C536 C535 1.291 . S
C536 C537 1.373 . S
C536 H549 0.929 . S
C537 C536 1.373 . S
C537 C538 1.396 . S
C537 C544 1.403 . S
C538 C528 1.476 . S
C538 N533 1.318 . S
C538 C537 1.396 . S
H539 C534 0.929 . S
O540 Mn516 2.385 . S
O540 C518 1.234 . S
O541 Mn516 2.209 . S
O541 Mn517 2.215 . S
O541 C518 1.283 . S
O542 Mn516 2.094 . S
O542 C520 1.240 . S
O543 Mn517 2.117 . S
O543 C520 1.264 . S
C544 C537 1.403 . S
C544 C545 1.399 . S
C544 H550 0.929 . S
C545 C525 1.449 . S
C545 C544 1.399 . S
C545 H551 0.930 . S
H546 C526 0.931 . S
H547 C527 0.930 . S
H548 C535 0.931 . S
H549 C536 0.929 . S
H550 C544 0.929 . S
H551 C545 0.930 . S
Mn552 O557 2.095 . S
Mn552 O567 2.162 . S
Mn552 O568 2.297 . S
Mn552 O576 2.385 . S
Mn552 O577 2.209 . S
Mn552 O578 2.094 . S
Mn553 O558 2.121 . S
Mn553 N560 2.257 . S
Mn553 N569 2.282 . S
Mn553 O577 2.215 . S
Mn553 O579 2.117 . S
C554 O576 1.234 . S
C554 O577 1.283 . S
C555 O567 1.281 . S
C555 O568 1.236 . S
C556 O578 1.240 . S
C556 O579 1.264 . S
O557 Mn552 2.095 . S
O557 C566 1.250 . S
O558 Mn553 2.121 . S
O558 C566 1.258 . S
C559 N560 1.326 . S
C559 C563 1.460 . S
C559 H565 0.929 . S
N560 Mn553 2.257 . S
N560 C559 1.326 . S
N560 C564 1.362 . S
C561 C562 1.258 . S
C561 C564 1.431 . S
C561 C581 1.449 . S
C562 C561 1.258 . S
C562 C563 1.477 . S
C562 H582 0.931 . S
C563 C559 1.460 . S
C563 C562 1.477 . S
C563 H583 0.930 . S
C564 N560 1.362 . S
C564 C561 1.431 . S
C564 C574 1.476 . S
H565 C559 0.929 . S
C566 O557 1.250 . S
C566 O558 1.258 . S
O567 Mn552 2.162 . S
O567 C555 1.281 . S
O568 Mn552 2.297 . S
O568 C555 1.236 . S
N569 Mn553 2.282 . S
N569 C570 1.328 . S
N569 C574 1.318 . S
C570 N569 1.328 . S
C570 C571 1.457 . S
C570 H575 0.929 . S
C571 C570 1.457 . S
C571 C572 1.291 . S
C571 H584 0.931 . S
C572 C571 1.291 . S
C572 C573 1.373 . S
C572 H585 0.929 . S
C573 C572 1.373 . S
C573 C574 1.396 . S
C573 C580 1.403 . S
C574 C564 1.476 . S
C574 N569 1.318 . S
C574 C573 1.396 . S
H575 C570 0.929 . S
O576 Mn552 2.385 . S
O576 C554 1.234 . S
O577 Mn552 2.209 . S
O577 Mn553 2.215 . S
O577 C554 1.283 . S
O578 Mn552 2.094 . S
O578 C556 1.240 . S
O579 Mn553 2.117 . S
O579 C556 1.264 . S
C580 C573 1.403 . S
C580 C581 1.399 . S
C580 H586 0.929 . S
C581 C561 1.449 . S
C581 C580 1.399 . S
C581 H587 0.930 . S
H582 C562 0.931 . S
H583 C563 0.930 . S
H584 C571 0.931 . S
H585 C572 0.929 . S
H586 C580 0.929 . S
H587 C581 0.930 . S
H588 C596 0.929 . S
H589 C598 0.930 . S
H590 C600 0.930 . S
H591 C603 0.929 . S
H592 C606 0.930 . S
H593 C608 0.960 . S
H594 C608 0.960 . S
H595 C608 0.960 . S
C596 H588 0.929 . S
C596 C597 1.377 . S
C596 C598 1.384 . S
C597 C596 1.377 . S
C597 C603 1.390 . S
C598 H589 0.930 . S
C598 C596 1.384 . S
C598 C599 1.372 . S
C599 C598 1.372 . S
C599 C600 1.400 . S
C599 C604 1.490 . S
C600 H590 0.930 . S
C600 C599 1.400 . S
C600 C603 1.386 . S
H601 C617 0.930 . S
H602 C618 0.931 . S
C603 H591 0.929 . S
C603 C597 1.390 . S
C603 C600 1.386 . S
C604 C599 1.490 . S
C604 C606 1.395 . S
C604 C607 1.403 . S
H605 C611 0.930 . S
C606 H592 0.930 . S
C606 C604 1.395 . S
C606 C609 1.403 . S
C607 C604 1.403 . S
C607 C608 1.524 . S
C607 C611 1.400 . S
C608 H593 0.960 . S
C608 H594 0.960 . S
C608 H595 0.960 . S
C608 C607 1.524 . S
C609 C606 1.403 . S
C609 C610 1.392 . S
C609 C613 1.495 . S
C610 C609 1.392 . S
C610 C611 1.385 . S
C610 C612 1.478 . S
C611 H605 0.930 . S
C611 C607 1.400 . S
C611 C610 1.385 . S
C612 C610 1.478 . S
C612 C614 1.381 . S
C612 C618 1.383 . S
C613 C609 1.495 . S
C613 H619 0.959 . S
C613 H620 0.961 . S
C613 H621 0.960 . S
C614 C612 1.381 . S
C614 C615 1.394 . S
C614 H622 0.930 . S
C615 C614 1.394 . S
C615 C616 1.383 . S
C615 H623 0.929 . S
C616 C615 1.383 . S
C616 C617 1.377 . S
C617 H601 0.930 . S
C617 C616 1.377 . S
C617 C618 1.379 . S
C618 H602 0.931 . S
C618 C612 1.383 . S
C618 C617 1.379 . S
H619 C613 0.959 . S
H620 C613 0.961 . S
H621 C613 0.960 . S
H622 C614 0.930 . S
H623 C615 0.929 . S
H624 C632 0.929 . S
H625 C634 0.930 . S
H626 C636 0.930 . S
H627 C639 0.929 . S
H628 C642 0.930 . S
H629 C644 0.960 . S
H630 C644 0.960 . S
H631 C644 0.960 . S
C632 H624 0.929 . S
C632 C633 1.377 . S
C632 C634 1.384 . S
C633 C632 1.377 . S
C633 C639 1.390 . S
C634 H625 0.930 . S
C634 C632 1.384 . S
C634 C635 1.372 . S
C635 C634 1.372 . S
C635 C636 1.400 . S
C635 C640 1.490 . S
C636 H626 0.930 . S
C636 C635 1.400 . S
C636 C639 1.386 . S
H637 C653 0.930 . S
H638 C654 0.931 . S
C639 H627 0.929 . S
C639 C633 1.390 . S
C639 C636 1.386 . S
C640 C635 1.490 . S
C640 C642 1.395 . S
C640 C643 1.403 . S
H641 C647 0.930 . S
C642 H628 0.930 . S
C642 C640 1.395 . S
C642 C645 1.403 . S
C643 C640 1.403 . S
C643 C644 1.524 . S
C643 C647 1.400 . S
C644 H629 0.960 . S
C644 H630 0.960 . S
C644 H631 0.960 . S
C644 C643 1.524 . S
C645 C642 1.403 . S
C645 C646 1.392 . S
C645 C649 1.495 . S
C646 C645 1.392 . S
C646 C647 1.385 . S
C646 C648 1.478 . S
C647 H641 0.930 . S
C647 C643 1.400 . S
C647 C646 1.385 . S
C648 C646 1.478 . S
C648 C650 1.381 . S
C648 C654 1.383 . S
C649 C645 1.495 . S
C649 H655 0.959 . S
C649 H656 0.961 . S
C649 H657 0.960 . S
C650 C648 1.381 . S
C650 C651 1.394 . S
C650 H658 0.930 . S
C651 C650 1.394 . S
C651 C652 1.383 . S
C651 H659 0.929 . S
C652 C651 1.383 . S
C652 C653 1.377 . S
C653 H637 0.930 . S
C653 C652 1.377 . S
C653 C654 1.379 . S
C654 H638 0.931 . S
C654 C648 1.383 . S
C654 C653 1.379 . S
H655 C649 0.959 . S
H656 C649 0.961 . S
H657 C649 0.960 . S
H658 C650 0.930 . S
H659 C651 0.929 . S
H660 C668 0.929 . S
H661 C670 0.930 . S
H662 C672 0.930 . S
H663 C675 0.929 . S
H664 C678 0.930 . S
H665 C680 0.960 . S
H666 C680 0.960 . S
H667 C680 0.960 . S
C668 H660 0.929 . S
C668 C669 1.377 . S
C668 C670 1.384 . S
C669 C668 1.377 . S
C669 C675 1.390 . S
C670 H661 0.930 . S
C670 C668 1.384 . S
C670 C671 1.372 . S
C671 C670 1.372 . S
C671 C672 1.400 . S
C671 C676 1.490 . S
C672 H662 0.930 . S
C672 C671 1.400 . S
C672 C675 1.386 . S
H673 C689 0.930 . S
H674 C690 0.931 . S
C675 H663 0.929 . S
C675 C669 1.390 . S
C675 C672 1.386 . S
C676 C671 1.490 . S
C676 C678 1.395 . S
C676 C679 1.403 . S
H677 C683 0.930 . S
C678 H664 0.930 . S
C678 C676 1.395 . S
C678 C681 1.403 . S
C679 C676 1.403 . S
C679 C680 1.524 . S
C679 C683 1.400 . S
C680 H665 0.960 . S
C680 H666 0.960 . S
C680 H667 0.960 . S
C680 C679 1.524 . S
C681 C678 1.403 . S
C681 C682 1.392 . S
C681 C685 1.495 . S
C682 C681 1.392 . S
C682 C683 1.385 . S
C682 C684 1.478 . S
C683 H677 0.930 . S
C683 C679 1.400 . S
C683 C682 1.385 . S
C684 C682 1.478 . S
C684 C686 1.381 . S
C684 C690 1.383 . S
C685 C681 1.495 . S
C685 H691 0.959 . S
C685 H692 0.961 . S
C685 H693 0.960 . S
C686 C684 1.381 . S
C686 C687 1.394 . S
C686 H694 0.930 . S
C687 C686 1.394 . S
C687 C688 1.383 . S
C687 H695 0.929 . S
C688 C687 1.383 . S
C688 C689 1.377 . S
C689 H673 0.930 . S
C689 C688 1.377 . S
C689 C690 1.379 . S
C690 H674 0.931 . S
C690 C684 1.383 . S
C690 C689 1.379 . S
H691 C685 0.959 . S
H692 C685 0.961 . S
H693 C685 0.960 . S
H694 C686 0.930 . S
H695 C687 0.929 . S
H696 C704 0.929 . S
H697 C706 0.930 . S
H698 C708 0.930 . S
H699 C711 0.929 . S
H700 C714 0.930 . S
H701 C716 0.960 . S
H702 C716 0.960 . S
H703 C716 0.960 . S
C704 H696 0.929 . S
C704 C705 1.377 . S
C704 C706 1.384 . S
C705 C704 1.377 . S
C705 C711 1.390 . S
C706 H697 0.930 . S
C706 C704 1.384 . S
C706 C707 1.372 . S
C707 C706 1.372 . S
C707 C708 1.400 . S
C707 C712 1.490 . S
C708 H698 0.930 . S
C708 C707 1.400 . S
C708 C711 1.386 . S
H709 C725 0.930 . S
H710 C726 0.931 . S
C711 H699 0.929 . S
C711 C705 1.390 . S
C711 C708 1.386 . S
C712 C707 1.490 . S
C712 C714 1.395 . S
C712 C715 1.403 . S
H713 C719 0.930 . S
C714 H700 0.930 . S
C714 C712 1.395 . S
C714 C717 1.403 . S
C715 C712 1.403 . S
C715 C716 1.524 . S
C715 C719 1.400 . S
C716 H701 0.960 . S
C716 H702 0.960 . S
C716 H703 0.960 . S
C716 C715 1.524 . S
C717 C714 1.403 . S
C717 C718 1.392 . S
C717 C721 1.495 . S
C718 C717 1.392 . S
C718 C719 1.385 . S
C718 C720 1.478 . S
C719 H713 0.930 . S
C719 C715 1.400 . S
C719 C718 1.385 . S
C720 C718 1.478 . S
C720 C722 1.381 . S
C720 C726 1.383 . S
C721 C717 1.495 . S
C721 H727 0.959 . S
C721 H728 0.961 . S
C721 H729 0.960 . S
C722 C720 1.381 . S
C722 C723 1.394 . S
C722 H730 0.930 . S
C723 C722 1.394 . S
C723 C724 1.383 . S
C723 H731 0.929 . S
C724 C723 1.383 . S
C724 C725 1.377 . S
C725 H709 0.930 . S
C725 C724 1.377 . S
C725 C726 1.379 . S
C726 H710 0.931 . S
C726 C720 1.383 . S
C726 C725 1.379 . S
H727 C721 0.959 . S
H728 C721 0.961 . S
H729 C721 0.960 . S
H730 C722 0.930 . S
H731 C723 0.929 . S
H732 C740 0.929 . S
H733 C742 0.930 . S
H734 C744 0.930 . S
H735 C747 0.929 . S
H736 C750 0.930 . S
H737 C752 0.960 . S
H738 C752 0.960 . S
H739 C752 0.960 . S
C740 H732 0.929 . S
C740 C741 1.377 . S
C740 C742 1.384 . S
C741 C740 1.377 . S
C741 C747 1.390 . S
C742 H733 0.930 . S
C742 C740 1.384 . S
C742 C743 1.372 . S
C743 C742 1.372 . S
C743 C744 1.400 . S
C743 C748 1.490 . S
C744 H734 0.930 . S
C744 C743 1.400 . S
C744 C747 1.386 . S
H745 C761 0.930 . S
H746 C762 0.931 . S
C747 H735 0.929 . S
C747 C741 1.390 . S
C747 C744 1.386 . S
C748 C743 1.490 . S
C748 C750 1.395 . S
C748 C751 1.403 . S
H749 C755 0.930 . S
C750 H736 0.930 . S
C750 C748 1.395 . S
C750 C753 1.403 . S
C751 C748 1.403 . S
C751 C752 1.524 . S
C751 C755 1.400 . S
C752 H737 0.960 . S
C752 H738 0.960 . S
C752 H739 0.960 . S
C752 C751 1.524 . S
C753 C750 1.403 . S
C753 C754 1.392 . S
C753 C757 1.495 . S
C754 C753 1.392 . S
C754 C755 1.385 . S
C754 C756 1.478 . S
C755 H749 0.930 . S
C755 C751 1.400 . S
C755 C754 1.385 . S
C756 C754 1.478 . S
C756 C758 1.381 . S
C756 C762 1.383 . S
C757 C753 1.495 . S
C757 H763 0.959 . S
C757 H764 0.961 . S
C757 H765 0.960 . S
C758 C756 1.381 . S
C758 C759 1.394 . S
C758 H766 0.930 . S
C759 C758 1.394 . S
C759 C760 1.383 . S
C759 H767 0.929 . S
C760 C759 1.383 . S
C760 C761 1.377 . S
C761 H745 0.930 . S
C761 C760 1.377 . S
C761 C762 1.379 . S
C762 H746 0.931 . S
C762 C756 1.383 . S
C762 C761 1.379 . S
H763 C757 0.959 . S
H764 C757 0.961 . S
H765 C757 0.960 . S
H766 C758 0.930 . S
H767 C759 0.929 . S
H768 C776 0.929 . S
H769 C778 0.930 . S
H770 C780 0.930 . S
H771 C783 0.929 . S
H772 C786 0.930 . S
H773 C788 0.960 . S
H774 C788 0.960 . S
H775 C788 0.960 . S
C776 H768 0.929 . S
C776 C777 1.377 . S
C776 C778 1.384 . S
C777 C776 1.377 . S
C777 C783 1.390 . S
C778 H769 0.930 . S
C778 C776 1.384 . S
C778 C779 1.372 . S
C779 C778 1.372 . S
C779 C780 1.400 . S
C779 C784 1.490 . S
C780 H770 0.930 . S
C780 C779 1.400 . S
C780 C783 1.386 . S
H781 C797 0.930 . S
H782 C798 0.931 . S
C783 H771 0.929 . S
C783 C777 1.390 . S
C783 C780 1.386 . S
C784 C779 1.490 . S
C784 C786 1.395 . S
C784 C787 1.403 . S
H785 C791 0.930 . S
C786 H772 0.930 . S
C786 C784 1.395 . S
C786 C789 1.403 . S
C787 C784 1.403 . S
C787 C788 1.524 . S
C787 C791 1.400 . S
C788 H773 0.960 . S
C788 H774 0.960 . S
C788 H775 0.960 . S
C788 C787 1.524 . S
C789 C786 1.403 . S
C789 C790 1.392 . S
C789 C793 1.495 . S
C790 C789 1.392 . S
C790 C791 1.385 . S
C790 C792 1.478 . S
C791 H785 0.930 . S
C791 C787 1.400 . S
C791 C790 1.385 . S
C792 C790 1.478 . S
C792 C794 1.381 . S
C792 C798 1.383 . S
C793 C789 1.495 . S
C793 H799 0.959 . S
C793 H800 0.961 . S
C793 H801 0.960 . S
C794 C792 1.381 . S
C794 C795 1.394 . S
C794 H802 0.930 . S
C795 C794 1.394 . S
C795 C796 1.383 . S
C795 H803 0.929 . S
C796 C795 1.383 . S
C796 C797 1.377 . S
C797 H781 0.930 . S
C797 C796 1.377 . S
C797 C798 1.379 . S
C798 H782 0.931 . S
C798 C792 1.383 . S
C798 C797 1.379 . S
H799 C793 0.959 . S
H800 C793 0.961 . S
H801 C793 0.960 . S
H802 C794 0.930 . S
H803 C795 0.929 . S
H804 C812 0.929 . S
H805 C814 0.930 . S
H806 C816 0.930 . S
H807 C819 0.929 . S
H808 C822 0.930 . S
H809 C824 0.960 . S
H810 C824 0.960 . S
H811 C824 0.960 . S
C812 H804 0.929 . S
C812 C813 1.377 . S
C812 C814 1.384 . S
C813 C812 1.377 . S
C813 C819 1.390 . S
C814 H805 0.930 . S
C814 C812 1.384 . S
C814 C815 1.372 . S
C815 C814 1.372 . S
C815 C816 1.400 . S
C815 C820 1.490 . S
C816 H806 0.930 . S
C816 C815 1.400 . S
C816 C819 1.386 . S
H817 C833 0.930 . S
H818 C834 0.931 . S
C819 H807 0.929 . S
C819 C813 1.390 . S
C819 C816 1.386 . S
C820 C815 1.490 . S
C820 C822 1.395 . S
C820 C823 1.403 . S
H821 C827 0.930 . S
C822 H808 0.930 . S
C822 C820 1.395 . S
C822 C825 1.403 . S
C823 C820 1.403 . S
C823 C824 1.524 . S
C823 C827 1.400 . S
C824 H809 0.960 . S
C824 H810 0.960 . S
C824 H811 0.960 . S
C824 C823 1.524 . S
C825 C822 1.403 . S
C825 C826 1.392 . S
C825 C829 1.495 . S
C826 C825 1.392 . S
C826 C827 1.385 . S
C826 C828 1.478 . S
C827 H821 0.930 . S
C827 C823 1.400 . S
C827 C826 1.385 . S
C828 C826 1.478 . S
C828 C830 1.381 . S
C828 C834 1.383 . S
C829 C825 1.495 . S
C829 H835 0.959 . S
C829 H836 0.961 . S
C829 H837 0.960 . S
C830 C828 1.381 . S
C830 C831 1.394 . S
C830 H838 0.930 . S
C831 C830 1.394 . S
C831 C832 1.383 . S
C831 H839 0.929 . S
C832 C831 1.383 . S
C832 C833 1.377 . S
C833 H817 0.930 . S
C833 C832 1.377 . S
C833 C834 1.379 . S
C834 H818 0.931 . S
C834 C828 1.383 . S
C834 C833 1.379 . S
H835 C829 0.959 . S
H836 C829 0.961 . S
H837 C829 0.960 . S
H838 C830 0.930 . S
H839 C831 0.929 . S
H840 C848 0.929 . S
H841 C850 0.930 . S
H842 C852 0.930 . S
H843 C855 0.929 . S
H844 C858 0.930 . S
H845 C860 0.960 . S
H846 C860 0.960 . S
H847 C860 0.960 . S
C848 H840 0.929 . S
C848 C849 1.377 . S
C848 C850 1.384 . S
C849 C848 1.377 . S
C849 C855 1.390 . S
C850 H841 0.930 . S
C850 C848 1.384 . S
C850 C851 1.372 . S
C851 C850 1.372 . S
C851 C852 1.400 . S
C851 C856 1.490 . S
C852 H842 0.930 . S
C852 C851 1.400 . S
C852 C855 1.386 . S
H853 C869 0.930 . S
H854 C870 0.931 . S
C855 H843 0.929 . S
C855 C849 1.390 . S
C855 C852 1.386 . S
C856 C851 1.490 . S
C856 C858 1.395 . S
C856 C859 1.403 . S
H857 C863 0.930 . S
C858 H844 0.930 . S
C858 C856 1.395 . S
C858 C861 1.403 . S
C859 C856 1.403 . S
C859 C860 1.524 . S
C859 C863 1.400 . S
C860 H845 0.960 . S
C860 H846 0.960 . S
C860 H847 0.960 . S
C860 C859 1.524 . S
C861 C858 1.403 . S
C861 C862 1.392 . S
C861 C865 1.495 . S
C862 C861 1.392 . S
C862 C863 1.385 . S
C862 C864 1.478 . S
C863 H857 0.930 . S
C863 C859 1.400 . S
C863 C862 1.385 . S
C864 C862 1.478 . S
C864 C866 1.381 . S
C864 C870 1.383 . S
C865 C861 1.495 . S
C865 H871 0.959 . S
C865 H872 0.961 . S
C865 H873 0.960 . S
C866 C864 1.381 . S
C866 C867 1.394 . S
C866 H874 0.930 . S
C867 C866 1.394 . S
C867 C868 1.383 . S
C867 H875 0.929 . S
C868 C867 1.383 . S
C868 C869 1.377 . S
C869 H853 0.930 . S
C869 C868 1.377 . S
C869 C870 1.379 . S
C870 H854 0.931 . S
C870 C864 1.383 . S
C870 C869 1.379 . S
H871 C865 0.959 . S
H872 C865 0.961 . S
H873 C865 0.960 . S
H874 C866 0.930 . S
H875 C867 0.929 . S
H876 C884 0.929 . S
H877 C886 0.930 . S
H878 C888 0.930 . S
H879 C891 0.929 . S
H880 C894 0.930 . S
H881 C896 0.960 . S
H882 C896 0.960 . S
H883 C896 0.960 . S
C884 H876 0.929 . S
C884 C885 1.377 . S
C884 C886 1.384 . S
C885 C884 1.377 . S
C885 C891 1.390 . S
C886 H877 0.930 . S
C886 C884 1.384 . S
C886 C887 1.372 . S
C887 C886 1.372 . S
C887 C888 1.400 . S
C887 C892 1.490 . S
C888 H878 0.930 . S
C888 C887 1.400 . S
C888 C891 1.386 . S
H889 C905 0.930 . S
H890 C906 0.931 . S
C891 H879 0.929 . S
C891 C885 1.390 . S
C891 C888 1.386 . S
C892 C887 1.490 . S
C892 C894 1.395 . S
C892 C895 1.403 . S
H893 C899 0.930 . S
C894 H880 0.930 . S
C894 C892 1.395 . S
C894 C897 1.403 . S
C895 C892 1.403 . S
C895 C896 1.524 . S
C895 C899 1.400 . S
C896 H881 0.960 . S
C896 H882 0.960 . S
C896 H883 0.960 . S
C896 C895 1.524 . S
C897 C894 1.403 . S
C897 C898 1.392 . S
C897 C901 1.495 . S
C898 C897 1.392 . S
C898 C899 1.385 . S
C898 C900 1.478 . S
C899 H893 0.930 . S
C899 C895 1.400 . S
C899 C898 1.385 . S
C900 C898 1.478 . S
C900 C902 1.381 . S
C900 C906 1.383 . S
C901 C897 1.495 . S
C901 H907 0.959 . S
C901 H908 0.961 . S
C901 H909 0.960 . S
C902 C900 1.381 . S
C902 C903 1.394 . S
C902 H910 0.930 . S
C903 C902 1.394 . S
C903 C904 1.383 . S
C903 H911 0.929 . S
C904 C903 1.383 . S
C904 C905 1.377 . S
C905 H889 0.930 . S
C905 C904 1.377 . S
C905 C906 1.379 . S
C906 H890 0.931 . S
C906 C900 1.383 . S
C906 C905 1.379 . S
H907 C901 0.959 . S
H908 C901 0.961 . S
H909 C901 0.960 . S
H910 C902 0.930 . S
H911 C903 0.929 . S
H912 C920 0.929 1_556 S
H913 C922 0.930 . S
H914 C924 0.930 . S
H915 C927 0.929 . S
H916 C930 0.930 . S
H917 C932 0.960 . S
H918 C932 0.960 . S
H919 C932 0.960 . S
C920 H912 0.929 1_554 S
C920 C921 1.377 . S
C920 C922 1.384 . S
C921 C920 1.377 . S
C921 C927 1.390 . S
C922 H913 0.930 . S
C922 C920 1.384 . S
C922 C923 1.372 . S
C923 C922 1.372 . S
C923 C924 1.400 . S
C923 C928 1.490 . S
C924 H914 0.930 . S
C924 C923 1.400 . S
C924 C927 1.386 . S
H925 C941 0.930 . S
H926 C942 0.931 . S
C927 H915 0.929 . S
C927 C921 1.390 . S
C927 C924 1.386 . S
C928 C923 1.490 . S
C928 C930 1.395 . S
C928 C931 1.403 . S
H929 C935 0.930 . S
C930 H916 0.930 . S
C930 C928 1.395 . S
C930 C933 1.403 . S
C931 C928 1.403 . S
C931 C932 1.524 . S
C931 C935 1.400 . S
C932 H917 0.960 . S
C932 H918 0.960 . S
C932 H919 0.960 . S
C932 C931 1.524 . S
C933 C930 1.403 . S
C933 C934 1.392 . S
C933 C937 1.495 . S
C934 C933 1.392 . S
C934 C935 1.385 . S
C934 C936 1.478 . S
C935 H929 0.930 . S
C935 C931 1.400 . S
C935 C934 1.385 . S
C936 C934 1.478 . S
C936 C938 1.381 . S
C936 C942 1.383 . S
C937 C933 1.495 . S
C937 H943 0.959 . S
C937 H944 0.961 . S
C937 H945 0.960 . S
C938 C936 1.381 . S
C938 C939 1.394 . S
C938 H946 0.930 . S
C939 C938 1.394 . S
C939 C940 1.383 . S
C939 H947 0.929 . S
C940 C939 1.383 . S
C940 C941 1.377 . S
C941 H925 0.930 . S
C941 C940 1.377 . S
C941 C942 1.379 . S
C942 H926 0.931 . S
C942 C936 1.383 . S
C942 C941 1.379 . S
H943 C937 0.959 . S
H944 C937 0.961 . S
H945 C937 0.960 . S
H946 C938 0.930 . S
H947 C939 0.929 . S
H948 C956 0.929 . S
H949 C958 0.930 . S
H950 C960 0.930 . S
H951 C963 0.929 . S
H952 C966 0.930 . S
H953 C968 0.960 . S
H954 C968 0.960 . S
H955 C968 0.960 . S
C956 H948 0.929 . S
C956 C957 1.377 . S
C956 C958 1.384 . S
C957 C956 1.377 . S
C957 C963 1.390 . S
C958 H949 0.930 . S
C958 C956 1.384 . S
C958 C959 1.372 . S
C959 C958 1.372 . S
C959 C960 1.400 . S
C959 C964 1.490 . S
C960 H950 0.930 . S
C960 C959 1.400 . S
C960 C963 1.386 . S
H961 C977 0.930 . S
H962 C978 0.931 . S
C963 H951 0.929 . S
C963 C957 1.390 . S
C963 C960 1.386 . S
C964 C959 1.490 . S
C964 C966 1.395 . S
C964 C967 1.403 . S
H965 C971 0.930 . S
C966 H952 0.930 . S
C966 C964 1.395 . S
C966 C969 1.403 . S
C967 C964 1.403 . S
C967 C968 1.524 . S
C967 C971 1.400 . S
C968 H953 0.960 . S
C968 H954 0.960 . S
C968 H955 0.960 . S
C968 C967 1.524 . S
C969 C966 1.403 . S
C969 C970 1.392 . S
C969 C973 1.495 . S
C970 C969 1.392 . S
C970 C971 1.385 . S
C970 C972 1.478 . S
C971 H965 0.930 . S
C971 C967 1.400 . S
C971 C970 1.385 . S
C972 C970 1.478 . S
C972 C974 1.381 . S
C972 C978 1.383 . S
C973 C969 1.495 . S
C973 H979 0.959 . S
C973 H980 0.961 . S
C973 H981 0.960 . S
C974 C972 1.381 . S
C974 C975 1.394 . S
C974 H982 0.930 . S
C975 C974 1.394 . S
C975 C976 1.383 . S
C975 H983 0.929 . S
C976 C975 1.383 . S
C976 C977 1.377 . S
C977 H961 0.930 . S
C977 C976 1.377 . S
C977 C978 1.379 . S
C978 H962 0.931 . S
C978 C972 1.383 . S
C978 C977 1.379 . S
H979 C973 0.959 . S
H980 C973 0.961 . S
H981 C973 0.960 . S
H982 C974 0.930 . S
H983 C975 0.929 . S
H984 C992 0.929 . S
H985 C994 0.930 . S
H986 C996 0.930 . S
H987 C999 0.929 . S
H988 C1002 0.930 . S
H989 C1004 0.960 . S
H990 C1004 0.960 . S
H991 C1004 0.960 . S
C992 H984 0.929 . S
C992 C993 1.377 . S
C992 C994 1.384 . S
C993 C992 1.377 . S
C993 C999 1.390 . S
C994 H985 0.930 . S
C994 C992 1.384 . S
C994 C995 1.372 . S
C995 C994 1.372 . S
C995 C996 1.400 . S
C995 C1000 1.490 . S
C996 H986 0.930 . S
C996 C995 1.400 . S
C996 C999 1.386 . S
H997 C1013 0.930 . S
H998 C1014 0.931 . S
C999 H987 0.929 . S
C999 C993 1.390 . S
C999 C996 1.386 . S
C1000 C995 1.490 . S
C1000 C1002 1.395 . S
C1000 C1003 1.403 . S
H1001 C1007 0.930 . S
C1002 H988 0.930 . S
C1002 C1000 1.395 . S
C1002 C1005 1.403 . S
C1003 C1000 1.403 . S
C1003 C1004 1.524 . S
C1003 C1007 1.400 . S
C1004 H989 0.960 . S
C1004 H990 0.960 . S
C1004 H991 0.960 . S
C1004 C1003 1.524 . S
C1005 C1002 1.403 . S
C1005 C1006 1.392 . S
C1005 C1009 1.495 . S
C1006 C1005 1.392 . S
C1006 C1007 1.385 . S
C1006 C1008 1.478 . S
C1007 H1001 0.930 . S
C1007 C1003 1.400 . S
C1007 C1006 1.385 . S
C1008 C1006 1.478 . S
C1008 C1010 1.381 . S
C1008 C1014 1.383 . S
C1009 C1005 1.495 . S
C1009 H1015 0.959 . S
C1009 H1016 0.961 . S
C1009 H1017 0.960 . S
C1010 C1008 1.381 . S
C1010 C1011 1.394 . S
C1010 H1018 0.930 . S
C1011 C1010 1.394 . S
C1011 C1012 1.383 . S
C1011 H1019 0.929 . S
C1012 C1011 1.383 . S
C1012 C1013 1.377 . S
C1013 H997 0.930 . S
C1013 C1012 1.377 . S
C1013 C1014 1.379 . S
C1014 H998 0.931 . S
C1014 C1008 1.383 . S
C1014 C1013 1.379 . S
H1015 C1009 0.959 . S
H1016 C1009 0.961 . S
H1017 C1009 0.960 . S
H1018 C1010 0.930 . S
H1019 C1011 0.929 . S
H1020 C1028 0.929 . S
H1021 C1030 0.930 . S
H1022 C1032 0.930 . S
H1023 C1035 0.929 . S
H1024 C1038 0.930 . S
H1025 C1040 0.960 . S
H1026 C1040 0.960 . S
H1027 C1040 0.960 . S
C1028 H1020 0.929 . S
C1028 C1029 1.377 . S
C1028 C1030 1.384 . S
C1029 C1028 1.377 . S
C1029 C1035 1.390 . S
C1030 H1021 0.930 . S
C1030 C1028 1.384 . S
C1030 C1031 1.372 . S
C1031 C1030 1.372 . S
C1031 C1032 1.400 . S
C1031 C1036 1.490 . S
C1032 H1022 0.930 . S
C1032 C1031 1.400 . S
C1032 C1035 1.386 . S
H1033 C1049 0.930 . S
H1034 C1050 0.931 . S
C1035 H1023 0.929 . S
C1035 C1029 1.390 . S
C1035 C1032 1.386 . S
C1036 C1031 1.490 . S
C1036 C1038 1.395 . S
C1036 C1039 1.403 . S
H1037 C1043 0.930 . S
C1038 H1024 0.930 . S
C1038 C1036 1.395 . S
C1038 C1041 1.403 . S
C1039 C1036 1.403 . S
C1039 C1040 1.524 . S
C1039 C1043 1.400 . S
C1040 H1025 0.960 . S
C1040 H1026 0.960 . S
C1040 H1027 0.960 . S
C1040 C1039 1.524 . S
C1041 C1038 1.403 . S
C1041 C1042 1.392 . S
C1041 C1045 1.495 . S
C1042 C1041 1.392 . S
C1042 C1043 1.385 . S
C1042 C1044 1.478 . S
C1043 H1037 0.930 . S
C1043 C1039 1.400 . S
C1043 C1042 1.385 . S
C1044 C1042 1.478 . S
C1044 C1046 1.381 . S
C1044 C1050 1.383 . S
C1045 C1041 1.495 . S
C1045 H1051 0.959 . S
C1045 H1052 0.961 . S
C1045 H1053 0.960 . S
C1046 C1044 1.381 . S
C1046 C1047 1.394 . S
C1046 H1054 0.930 . S
C1047 C1046 1.394 . S
C1047 C1048 1.383 . S
C1047 H1055 0.929 . S
C1048 C1047 1.383 . S
C1048 C1049 1.377 . S
C1049 H1033 0.930 . S
C1049 C1048 1.377 . S
C1049 C1050 1.379 . S
C1050 H1034 0.931 . S
C1050 C1044 1.383 . S
C1050 C1049 1.379 . S
H1051 C1045 0.959 . S
H1052 C1045 0.961 . S
H1053 C1045 0.960 . S
H1054 C1046 0.930 . S
H1055 C1047 0.929 . S
H1056 C1064 0.929 . S
H1057 C1066 0.930 . S
H1058 C1068 0.930 . S
H1059 C1071 0.929 . S
H1060 C1074 0.930 . S
H1061 C1076 0.960 . S
H1062 C1076 0.960 . S
H1063 C1076 0.960 . S
C1064 H1056 0.929 . S
C1064 C1065 1.377 . S
C1064 C1066 1.384 . S
C1065 C1064 1.377 . S
C1065 C1071 1.390 . S
C1066 H1057 0.930 . S
C1066 C1064 1.384 . S
C1066 C1067 1.372 . S
C1067 C1066 1.372 . S
C1067 C1068 1.400 . S
C1067 C1072 1.490 . S
C1068 H1058 0.930 . S
C1068 C1067 1.400 . S
C1068 C1071 1.386 . S
H1069 C1085 0.930 . S
H1070 C1086 0.931 . S
C1071 H1059 0.929 . S
C1071 C1065 1.390 . S
C1071 C1068 1.386 . S
C1072 C1067 1.490 . S
C1072 C1074 1.395 . S
C1072 C1075 1.403 . S
H1073 C1079 0.930 . S
C1074 H1060 0.930 . S
C1074 C1072 1.395 . S
C1074 C1077 1.403 . S
C1075 C1072 1.403 . S
C1075 C1076 1.524 . S
C1075 C1079 1.400 . S
C1076 H1061 0.960 . S
C1076 H1062 0.960 . S
C1076 H1063 0.960 . S
C1076 C1075 1.524 . S
C1077 C1074 1.403 . S
C1077 C1078 1.392 . S
C1077 C1081 1.495 . S
C1078 C1077 1.392 . S
C1078 C1079 1.385 . S
C1078 C1080 1.478 . S
C1079 H1073 0.930 . S
C1079 C1075 1.400 . S
C1079 C1078 1.385 . S
C1080 C1078 1.478 . S
C1080 C1082 1.381 . S
C1080 C1086 1.383 . S
C1081 C1077 1.495 . S
C1081 H1087 0.959 . S
C1081 H1088 0.961 . S
C1081 H1089 0.960 . S
C1082 C1080 1.381 . S
C1082 C1083 1.394 . S
C1082 H1090 0.930 . S
C1083 C1082 1.394 . S
C1083 C1084 1.383 . S
C1083 H1091 0.929 . S
C1084 C1083 1.383 . S
C1084 C1085 1.377 . S
C1085 H1069 0.930 . S
C1085 C1084 1.377 . S
C1085 C1086 1.379 . S
C1086 H1070 0.931 . S
C1086 C1080 1.383 . S
C1086 C1085 1.379 . S
H1087 C1081 0.959 . S
H1088 C1081 0.961 . S
H1089 C1081 0.960 . S
H1090 C1082 0.930 . S
H1091 C1083 0.929 . S
H1092 C1100 0.929 . S
H1093 C1102 0.930 . S
H1094 C1104 0.930 . S
H1095 C1107 0.929 . S
H1096 C1110 0.930 . S
H1097 C1112 0.960 . S
H1098 C1112 0.960 . S
H1099 C1112 0.960 . S
C1100 H1092 0.929 . S
C1100 C1101 1.377 . S
C1100 C1102 1.384 . S
C1101 C1100 1.377 . S
C1101 C1107 1.390 . S
C1102 H1093 0.930 . S
C1102 C1100 1.384 . S
C1102 C1103 1.372 . S
C1103 C1102 1.372 . S
C1103 C1104 1.400 . S
C1103 C1108 1.490 . S
C1104 H1094 0.930 . S
C1104 C1103 1.400 . S
C1104 C1107 1.386 . S
H1105 C1121 0.930 . S
H1106 C1122 0.931 . S
C1107 H1095 0.929 . S
C1107 C1101 1.390 . S
C1107 C1104 1.386 . S
C1108 C1103 1.490 . S
C1108 C1110 1.395 . S
C1108 C1111 1.403 . S
H1109 C1115 0.930 . S
C1110 H1096 0.930 . S
C1110 C1108 1.395 . S
C1110 C1113 1.403 . S
C1111 C1108 1.403 . S
C1111 C1112 1.524 . S
C1111 C1115 1.400 . S
C1112 H1097 0.960 . S
C1112 H1098 0.960 . S
C1112 H1099 0.960 . S
C1112 C1111 1.524 . S
C1113 C1110 1.403 . S
C1113 C1114 1.392 . S
C1113 C1117 1.495 . S
C1114 C1113 1.392 . S
C1114 C1115 1.385 . S
C1114 C1116 1.478 . S
C1115 H1109 0.930 . S
C1115 C1111 1.400 . S
C1115 C1114 1.385 . S
C1116 C1114 1.478 . S
C1116 C1118 1.381 . S
C1116 C1122 1.383 . S
C1117 C1113 1.495 . S
C1117 H1123 0.959 . S
C1117 H1124 0.961 . S
C1117 H1125 0.960 . S
C1118 C1116 1.381 . S
C1118 C1119 1.394 . S
C1118 H1126 0.930 . S
C1119 C1118 1.394 . S
C1119 C1120 1.383 . S
C1119 H1127 0.929 . S
C1120 C1119 1.383 . S
C1120 C1121 1.377 . S
C1121 H1105 0.930 . S
C1121 C1120 1.377 . S
C1121 C1122 1.379 . S
C1122 H1106 0.931 . S
C1122 C1116 1.383 . S
C1122 C1121 1.379 . S
H1123 C1117 0.959 . S
H1124 C1117 0.961 . S
H1125 C1117 0.960 . S
H1126 C1118 0.930 . S
H1127 C1119 0.929 . S
H1128 C1136 0.929 . S
H1129 C1138 0.930 . S
H1130 C1140 0.930 . S
H1131 C1143 0.929 . S
H1132 C1146 0.930 . S
H1133 C1148 0.960 . S
H1134 C1148 0.960 . S
H1135 C1148 0.960 . S
C1136 H1128 0.929 . S
C1136 C1137 1.377 . S
C1136 C1138 1.384 . S
C1137 C1136 1.377 . S
C1137 C1143 1.390 . S
C1138 H1129 0.930 . S
C1138 C1136 1.384 . S
C1138 C1139 1.372 . S
C1139 C1138 1.372 . S
C1139 C1140 1.400 . S
C1139 C1144 1.490 . S
C1140 H1130 0.930 . S
C1140 C1139 1.400 . S
C1140 C1143 1.386 . S
H1141 C1157 0.930 . S
H1142 C1158 0.931 1_556 S
C1143 H1131 0.929 . S
C1143 C1137 1.390 . S
C1143 C1140 1.386 . S
C1144 C1139 1.490 . S
C1144 C1146 1.395 . S
C1144 C1147 1.403 . S
H1145 C1151 0.930 . S
C1146 H1132 0.930 . S
C1146 C1144 1.395 . S
C1146 C1149 1.403 . S
C1147 C1144 1.403 . S
C1147 C1148 1.524 . S
C1147 C1151 1.400 . S
C1148 H1133 0.960 . S
C1148 H1134 0.960 . S
C1148 H1135 0.960 . S
C1148 C1147 1.524 . S
C1149 C1146 1.403 . S
C1149 C1150 1.392 . S
C1149 C1153 1.495 . S
C1150 C1149 1.392 . S
C1150 C1151 1.385 . S
C1150 C1152 1.478 . S
C1151 H1145 0.930 . S
C1151 C1147 1.400 . S
C1151 C1150 1.385 . S
C1152 C1150 1.478 . S
C1152 C1154 1.395 . S
C1152 C1158 1.383 1_556 S
C1153 C1149 1.495 . S
C1153 H1159 0.959 . S
C1153 H1160 0.961 1_556 S
C1153 H1161 0.950 1_556 S
C1154 C1152 1.395 . S
C1154 C1155 1.366 1_556 S
C1154 H1162 0.947 . S
C1155 C1154 1.366 1_554 S
C1155 C1156 1.383 . S
C1155 H1163 0.929 . S
C1156 C1155 1.383 . S
C1156 C1157 1.377 . S
C1157 H1141 0.930 . S
C1157 C1156 1.377 . S
C1157 C1158 1.379 . S
C1158 H1142 0.931 1_554 S
C1158 C1152 1.383 1_554 S
C1158 C1157 1.379 . S
H1159 C1153 0.959 . S
H1160 C1153 0.961 1_554 S
H1161 C1153 0.950 1_554 S
H1162 C1154 0.947 . S
H1163 C1155 0.929 . S
H1164 C1172 0.929 . S
H1165 C1174 0.930 . S
H1166 C1176 0.930 . S
H1167 C1179 0.929 . S
H1168 C1182 0.930 . S
H1169 C1184 0.960 . S
H1170 C1184 0.960 . S
H1171 C1184 0.960 . S
C1172 H1164 0.929 . S
C1172 C1173 1.377 . S
C1172 C1174 1.384 . S
C1173 C1172 1.377 . S
C1173 C1179 1.390 . S
C1174 H1165 0.930 . S
C1174 C1172 1.384 . S
C1174 C1175 1.372 . S
C1175 C1174 1.372 . S
C1175 C1176 1.400 . S
C1175 C1180 1.490 . S
C1176 H1166 0.930 . S
C1176 C1175 1.400 . S
C1176 C1179 1.386 . S
H1177 C1193 0.930 . S
H1178 C1194 0.931 . S
C1179 H1167 0.929 . S
C1179 C1173 1.390 . S
C1179 C1176 1.386 . S
C1180 C1175 1.490 . S
C1180 C1182 1.395 . S
C1180 C1183 1.403 . S
H1181 C1187 0.930 . S
C1182 H1168 0.930 . S
C1182 C1180 1.395 . S
C1182 C1185 1.403 . S
C1183 C1180 1.403 . S
C1183 C1184 1.524 . S
C1183 C1187 1.400 . S
C1184 H1169 0.960 . S
C1184 H1170 0.960 . S
C1184 H1171 0.960 . S
C1184 C1183 1.524 . S
C1185 C1182 1.403 . S
C1185 C1186 1.392 . S
C1185 C1189 1.495 . S
C1186 C1185 1.392 . S
C1186 C1187 1.385 . S
C1186 C1188 1.478 . S
C1187 H1181 0.930 . S
C1187 C1183 1.400 . S
C1187 C1186 1.385 . S
C1188 C1186 1.478 . S
C1188 C1190 1.381 . S
C1188 C1194 1.383 . S
C1189 C1185 1.495 . S
C1189 H1195 0.959 . S
C1189 H1196 0.961 . S
C1189 H1197 0.960 . S
C1190 C1188 1.381 . S
C1190 C1191 1.394 . S
C1190 H1198 0.930 . S
C1191 C1190 1.394 . S
C1191 C1192 1.383 . S
C1191 H1199 0.929 . S
C1192 C1191 1.383 . S
C1192 C1193 1.377 . S
C1193 H1177 0.930 . S
C1193 C1192 1.377 . S
C1193 C1194 1.379 . S
C1194 H1178 0.931 . S
C1194 C1188 1.383 . S
C1194 C1193 1.379 . S
H1195 C1189 0.959 . S
H1196 C1189 0.961 . S
H1197 C1189 0.960 . S
H1198 C1190 0.930 . S
H1199 C1191 0.929 . S
H1200 C1208 0.929 . S
H1201 C1210 0.930 . S
H1202 C1212 0.930 . S
H1203 C1215 0.929 . S
H1204 C1218 0.930 . S
H1205 C1220 0.960 . S
H1206 C1220 0.960 . S
H1207 C1220 0.960 . S
C1208 H1200 0.929 . S
C1208 C1209 1.377 . S
C1208 C1210 1.384 . S
C1209 C1208 1.377 . S
C1209 C1215 1.390 . S
C1210 H1201 0.930 . S
C1210 C1208 1.384 . S
C1210 C1211 1.372 . S
C1211 C1210 1.372 . S
C1211 C1212 1.400 . S
C1211 C1216 1.490 . S
C1212 H1202 0.930 . S
C1212 C1211 1.400 . S
C1212 C1215 1.386 . S
H1213 C1229 0.930 . S
H1214 C1230 0.931 . S
C1215 H1203 0.929 . S
C1215 C1209 1.390 . S
C1215 C1212 1.386 . S
C1216 C1211 1.490 . S
C1216 C1218 1.395 . S
C1216 C1219 1.403 . S
H1217 C1223 0.930 . S
C1218 H1204 0.930 . S
C1218 C1216 1.395 . S
C1218 C1221 1.403 . S
C1219 C1216 1.403 . S
C1219 C1220 1.524 . S
C1219 C1223 1.400 . S
C1220 H1205 0.960 . S
C1220 H1206 0.960 . S
C1220 H1207 0.960 . S
C1220 C1219 1.524 . S
C1221 C1218 1.403 . S
C1221 C1222 1.392 . S
C1221 C1225 1.495 . S
C1222 C1221 1.392 . S
C1222 C1223 1.385 . S
C1222 C1224 1.478 . S
C1223 H1217 0.930 . S
C1223 C1219 1.400 . S
C1223 C1222 1.385 . S
C1224 C1222 1.478 . S
C1224 C1226 1.381 . S
C1224 C1230 1.383 . S
C1225 C1221 1.495 . S
C1225 H1231 0.959 . S
C1225 H1232 0.961 . S
C1225 H1233 0.960 . S
C1226 C1224 1.381 . S
C1226 C1227 1.394 . S
C1226 H1234 0.930 . S
C1227 C1226 1.394 . S
C1227 C1228 1.383 . S
C1227 H1235 0.929 . S
C1228 C1227 1.383 . S
C1228 C1229 1.377 . S
C1229 H1213 0.930 . S
C1229 C1228 1.377 . S
C1229 C1230 1.379 . S
C1230 H1214 0.931 . S
C1230 C1224 1.383 . S
C1230 C1229 1.379 . S
H1231 C1225 0.959 . S
H1232 C1225 0.961 . S
H1233 C1225 0.960 . S
H1234 C1226 0.930 . S
H1235 C1227 0.929 . S
H1236 C1244 0.929 . S
H1237 C1246 0.930 . S
H1238 C1248 0.930 . S
H1239 C1251 0.929 . S
H1240 C1254 0.930 . S
H1241 C1256 0.960 . S
H1242 C1256 0.960 . S
H1243 C1256 0.960 . S
C1244 H1236 0.929 . S
C1244 C1245 1.377 . S
C1244 C1246 1.384 . S
C1245 C1244 1.377 . S
C1245 C1251 1.390 . S
C1246 H1237 0.930 . S
C1246 C1244 1.384 . S
C1246 C1247 1.372 . S
C1247 C1246 1.372 . S
C1247 C1248 1.400 . S
C1247 C1252 1.490 . S
C1248 H1238 0.930 . S
C1248 C1247 1.400 . S
C1248 C1251 1.386 . S
H1249 C1265 0.930 . S
H1250 C1266 0.931 . S
C1251 H1239 0.929 . S
C1251 C1245 1.390 . S
C1251 C1248 1.386 . S
C1252 C1247 1.490 . S
C1252 C1254 1.395 . S
C1252 C1255 1.403 . S
H1253 C1259 0.930 . S
C1254 H1240 0.930 . S
C1254 C1252 1.395 . S
C1254 C1257 1.403 . S
C1255 C1252 1.403 . S
C1255 C1256 1.524 . S
C1255 C1259 1.400 . S
C1256 H1241 0.960 . S
C1256 H1242 0.960 . S
C1256 H1243 0.960 . S
C1256 C1255 1.524 . S
C1257 C1254 1.403 . S
C1257 C1258 1.392 . S
C1257 C1261 1.495 . S
C1258 C1257 1.392 . S
C1258 C1259 1.385 . S
C1258 C1260 1.478 . S
C1259 H1253 0.930 . S
C1259 C1255 1.400 . S
C1259 C1258 1.385 . S
C1260 C1258 1.478 . S
C1260 C1262 1.381 . S
C1260 C1266 1.383 . S
C1261 C1257 1.495 . S
C1261 H1267 0.959 . S
C1261 H1268 0.961 . S
C1261 H1269 0.960 . S
C1262 C1260 1.381 . S
C1262 C1263 1.394 . S
C1262 H1270 0.930 . S
C1263 C1262 1.394 . S
C1263 C1264 1.383 . S
C1263 H1271 0.929 . S
C1264 C1263 1.383 . S
C1264 C1265 1.377 . S
C1265 H1249 0.930 . S
C1265 C1264 1.377 . S
C1265 C1266 1.379 . S
C1266 H1250 0.931 . S
C1266 C1260 1.383 . S
C1266 C1265 1.379 . S
H1267 C1261 0.959 . S
H1268 C1261 0.961 . S
H1269 C1261 0.960 . S
H1270 C1262 0.930 . S
H1271 C1263 0.929 . S
H1272 C1280 0.929 . S
H1273 C1282 0.930 . S
H1274 C1284 0.930 . S
H1275 C1287 0.929 . S
H1276 C1290 0.930 . S
H1277 C1292 0.960 . S
H1278 C1292 0.960 . S
H1279 C1292 0.960 . S
C1280 H1272 0.929 . S
C1280 C1281 1.377 . S
C1280 C1282 1.384 . S
C1281 C1280 1.377 . S
C1281 C1287 1.390 . S
C1282 H1273 0.930 . S
C1282 C1280 1.384 . S
C1282 C1283 1.372 . S
C1283 C1282 1.372 . S
C1283 C1284 1.400 . S
C1283 C1288 1.490 . S
C1284 H1274 0.930 . S
C1284 C1283 1.400 . S
C1284 C1287 1.386 . S
H1285 C1301 0.930 . S
H1286 C1302 0.931 . S
C1287 H1275 0.929 . S
C1287 C1281 1.390 . S
C1287 C1284 1.386 . S
C1288 C1283 1.490 . S
C1288 C1290 1.395 . S
C1288 C1291 1.403 . S
H1289 C1295 0.930 . S
C1290 H1276 0.930 . S
C1290 C1288 1.395 . S
C1290 C1293 1.403 . S
C1291 C1288 1.403 . S
C1291 C1292 1.524 . S
C1291 C1295 1.400 . S
C1292 H1277 0.960 . S
C1292 H1278 0.960 . S
C1292 H1279 0.960 . S
C1292 C1291 1.524 . S
C1293 C1290 1.403 . S
C1293 C1294 1.392 . S
C1293 C1297 1.495 . S
C1294 C1293 1.392 . S
C1294 C1295 1.385 . S
C1294 C1296 1.478 . S
C1295 H1289 0.930 . S
C1295 C1291 1.400 . S
C1295 C1294 1.385 . S
C1296 C1294 1.478 . S
C1296 C1298 1.381 . S
C1296 C1302 1.383 . S
C1297 C1293 1.495 . S
C1297 H1303 0.959 . S
C1297 H1304 0.961 . S
C1297 H1305 0.960 . S
C1298 C1296 1.381 . S
C1298 C1299 1.394 . S
C1298 H1306 0.930 . S
C1299 C1298 1.394 . S
C1299 C1300 1.383 . S
C1299 H1307 0.929 . S
C1300 C1299 1.383 . S
C1300 C1301 1.377 . S
C1301 H1285 0.930 . S
C1301 C1300 1.377 . S
C1301 C1302 1.379 . S
C1302 H1286 0.931 . S
C1302 C1296 1.383 . S
C1302 C1301 1.379 . S
H1303 C1297 0.959 . S
H1304 C1297 0.961 . S
H1305 C1297 0.960 . S
H1306 C1298 0.930 . S
H1307 C1299 0.929 . S
H1308 C1316 0.929 . S
H1309 C1318 0.930 . S
H1310 C1320 0.930 . S
H1311 C1323 0.929 . S
H1312 C1326 0.930 . S
H1313 C1328 0.960 . S
H1314 C1328 0.960 . S
H1315 C1328 0.960 . S
C1316 H1308 0.929 . S
C1316 C1317 1.377 . S
C1316 C1318 1.384 . S
C1317 C1316 1.377 . S
C1317 C1323 1.390 . S
C1318 H1309 0.930 . S
C1318 C1316 1.384 . S
C1318 C1319 1.372 . S
C1319 C1318 1.372 . S
C1319 C1320 1.400 . S
C1319 C1324 1.490 . S
C1320 H1310 0.930 . S
C1320 C1319 1.400 . S
C1320 C1323 1.386 . S
H1321 C1337 0.930 . S
H1322 C1338 0.931 . S
C1323 H1311 0.929 . S
C1323 C1317 1.390 . S
C1323 C1320 1.386 . S
C1324 C1319 1.490 . S
C1324 C1326 1.395 . S
C1324 C1327 1.403 . S
H1325 C1331 0.930 . S
C1326 H1312 0.930 . S
C1326 C1324 1.395 . S
C1326 C1329 1.403 . S
C1327 C1324 1.403 . S
C1327 C1328 1.524 . S
C1327 C1331 1.400 . S
C1328 H1313 0.960 . S
C1328 H1314 0.960 . S
C1328 H1315 0.960 . S
C1328 C1327 1.524 . S
C1329 C1326 1.403 . S
C1329 C1330 1.392 . S
C1329 C1333 1.495 . S
C1330 C1329 1.392 . S
C1330 C1331 1.385 . S
C1330 C1332 1.478 . S
C1331 H1325 0.930 . S
C1331 C1327 1.400 . S
C1331 C1330 1.385 . S
C1332 C1330 1.478 . S
C1332 C1334 1.381 . S
C1332 C1338 1.383 . S
C1333 C1329 1.495 . S
C1333 H1339 0.959 . S
C1333 H1340 0.961 . S
C1333 H1341 0.960 . S
C1334 C1332 1.381 . S
C1334 C1335 1.394 . S
C1334 H1342 0.930 . S
C1335 C1334 1.394 . S
C1335 C1336 1.383 . S
C1335 H1343 0.929 . S
C1336 C1335 1.383 . S
C1336 C1337 1.377 . S
C1337 H1321 0.930 . S
C1337 C1336 1.377 . S
C1337 C1338 1.379 . S
C1338 H1322 0.931 . S
C1338 C1332 1.383 . S
C1338 C1337 1.379 . S
H1339 C1333 0.959 . S
H1340 C1333 0.961 . S
H1341 C1333 0.960 . S
H1342 C1334 0.930 . S
H1343 C1335 0.929 . S
H1344 C1352 0.929 . S
H1345 C1354 0.930 . S
H1346 C1356 0.930 . S
H1347 C1359 0.929 . S
H1348 C1362 0.930 . S
H1349 C1364 0.960 . S
H1350 C1364 0.960 . S
H1351 C1364 0.960 . S
C1352 H1344 0.929 . S
C1352 C1353 1.377 . S
C1352 C1354 1.384 . S
C1353 C1352 1.377 . S
C1353 C1359 1.390 . S
C1354 H1345 0.930 . S
C1354 C1352 1.384 . S
C1354 C1355 1.372 . S
C1355 C1354 1.372 . S
C1355 C1356 1.400 . S
C1355 C1360 1.490 . S
C1356 H1346 0.930 . S
C1356 C1355 1.400 . S
C1356 C1359 1.386 . S
H1357 C1373 0.930 . S
H1358 C1374 0.931 . S
C1359 H1347 0.929 . S
C1359 C1353 1.390 . S
C1359 C1356 1.386 . S
C1360 C1355 1.490 . S
C1360 C1362 1.395 . S
C1360 C1363 1.403 . S
H1361 C1367 0.930 . S
C1362 H1348 0.930 . S
C1362 C1360 1.395 . S
C1362 C1365 1.403 . S
C1363 C1360 1.403 . S
C1363 C1364 1.524 . S
C1363 C1367 1.400 . S
C1364 H1349 0.960 . S
C1364 H1350 0.960 . S
C1364 H1351 0.960 . S
C1364 C1363 1.524 . S
C1365 C1362 1.403 . S
C1365 C1366 1.392 . S
C1365 C1369 1.495 . S
C1366 C1365 1.392 . S
C1366 C1367 1.385 . S
C1366 C1368 1.478 . S
C1367 H1361 0.930 . S
C1367 C1363 1.400 . S
C1367 C1366 1.385 . S
C1368 C1366 1.478 . S
C1368 C1370 1.381 . S
C1368 C1374 1.383 . S
C1369 C1365 1.495 . S
C1369 H1375 0.959 . S
C1369 H1376 0.961 . S
C1369 H1377 0.960 . S
C1370 C1368 1.381 . S
C1370 C1371 1.394 . S
C1370 H1378 0.930 . S
C1371 C1370 1.394 . S
C1371 C1372 1.383 . S
C1371 H1379 0.929 . S
C1372 C1371 1.383 . S
C1372 C1373 1.377 . S
C1373 H1357 0.930 . S
C1373 C1372 1.377 . S
C1373 C1374 1.379 . S
C1374 H1358 0.931 . S
C1374 C1368 1.383 . S
C1374 C1373 1.379 . S
H1375 C1369 0.959 . S
H1376 C1369 0.961 . S
H1377 C1369 0.960 . S
H1378 C1370 0.930 . S
H1379 C1371 0.929 . S
H1380 C1388 0.929 . S
H1381 C1390 0.930 . S
H1382 C1392 0.930 . S
H1383 C1395 0.929 . S
H1384 C1398 0.930 . S
H1385 C1400 0.960 . S
H1386 C1400 0.960 . S
H1387 C1400 0.960 . S
C1388 H1380 0.929 . S
C1388 C1389 1.377 . S
C1388 C1390 1.384 . S
C1389 C1388 1.377 . S
C1389 C1395 1.390 . S
C1390 H1381 0.930 . S
C1390 C1388 1.384 . S
C1390 C1391 1.372 . S
C1391 C1390 1.372 . S
C1391 C1392 1.400 . S
C1391 C1396 1.490 . S
C1392 H1382 0.930 . S
C1392 C1391 1.400 . S
C1392 C1395 1.386 . S
H1393 C1409 0.930 . S
H1394 C1410 0.931 . S
C1395 H1383 0.929 . S
C1395 C1389 1.390 . S
C1395 C1392 1.386 . S
C1396 C1391 1.490 . S
C1396 C1398 1.395 . S
C1396 C1399 1.403 1_554 S
H1397 C1403 0.930 . S
C1398 H1384 0.930 . S
C1398 C1396 1.395 . S
C1398 C1401 1.403 . S
C1399 C1396 1.403 1_556 S
C1399 C1400 1.524 . S
C1399 C1403 1.400 . S
C1400 H1385 0.960 . S
C1400 H1386 0.960 . S
C1400 H1387 0.960 . S
C1400 C1399 1.524 . S
C1401 C1398 1.403 . S
C1401 C1402 1.392 1_554 S
C1401 C1405 1.495 . S
C1402 C1401 1.392 1_556 S
C1402 C1403 1.385 . S
C1402 C1404 1.478 . S
C1403 H1397 0.930 . S
C1403 C1399 1.400 . S
C1403 C1402 1.385 . S
C1404 C1402 1.478 . S
C1404 C1406 1.381 . S
C1404 C1410 1.383 . S
C1405 C1401 1.495 . S
C1405 H1411 0.959 . S
C1405 H1412 0.961 . S
C1405 H1413 0.960 . S
C1406 C1404 1.381 . S
C1406 C1407 1.394 . S
C1406 H1414 0.930 . S
C1407 C1406 1.394 . S
C1407 C1408 1.383 . S
C1407 H1415 0.929 . S
C1408 C1407 1.383 . S
C1408 C1409 1.377 . S
C1409 H1393 0.930 . S
C1409 C1408 1.377 . S
C1409 C1410 1.379 . S
C1410 H1394 0.931 . S
C1410 C1404 1.383 . S
C1410 C1409 1.379 . S
H1411 C1405 0.959 . S
H1412 C1405 0.961 . S
H1413 C1405 0.960 . S
H1414 C1406 0.930 . S
H1415 C1407 0.929 . S
H1416 C1424 0.929 . S
H1417 C1426 0.930 . S
H1418 C1428 0.930 . S
H1419 C1431 0.929 . S
H1420 C1434 0.930 . S
H1421 C1436 0.960 . S
H1422 C1436 0.960 . S
H1423 C1436 0.960 . S
C1424 H1416 0.929 . S
C1424 C1425 1.377 . S
C1424 C1426 1.384 . S
C1425 C1424 1.377 . S
C1425 C1431 1.390 . S
C1426 H1417 0.930 . S
C1426 C1424 1.384 . S
C1426 C1427 1.372 . S
C1427 C1426 1.372 . S
C1427 C1428 1.400 . S
C1427 C1432 1.490 . S
C1428 H1418 0.930 . S
C1428 C1427 1.400 . S
C1428 C1431 1.386 . S
H1429 C1445 0.930 . S
H1430 C1446 0.931 . S
C1431 H1419 0.929 . S
C1431 C1425 1.390 . S
C1431 C1428 1.386 . S
C1432 C1427 1.490 . S
C1432 C1434 1.395 . S
C1432 C1435 1.403 . S
H1433 C1439 0.930 . S
C1434 H1420 0.930 . S
C1434 C1432 1.395 . S
C1434 C1437 1.403 . S
C1435 C1432 1.403 . S
C1435 C1436 1.524 . S
C1435 C1439 1.400 . S
C1436 H1421 0.960 . S
C1436 H1422 0.960 . S
C1436 H1423 0.960 . S
C1436 C1435 1.524 . S
C1437 C1434 1.403 . S
C1437 C1438 1.392 . S
C1437 C1441 1.495 . S
C1438 C1437 1.392 . S
C1438 C1439 1.385 . S
C1438 C1440 1.478 . S
C1439 H1433 0.930 . S
C1439 C1435 1.400 . S
C1439 C1438 1.385 . S
C1440 C1438 1.478 . S
C1440 C1442 1.381 . S
C1440 C1446 1.383 . S
C1441 C1437 1.495 . S
C1441 H1447 0.959 . S
C1441 H1448 0.961 . S
C1441 H1449 0.960 . S
C1442 C1440 1.381 . S
C1442 C1443 1.394 . S
C1442 H1450 0.930 . S
C1443 C1442 1.394 . S
C1443 C1444 1.383 . S
C1443 H1451 0.929 . S
C1444 C1443 1.383 . S
C1444 C1445 1.377 . S
C1445 H1429 0.930 . S
C1445 C1444 1.377 . S
C1445 C1446 1.379 . S
C1446 H1430 0.931 . S
C1446 C1440 1.383 . S
C1446 C1445 1.379 . S
H1447 C1441 0.959 . S
H1448 C1441 0.961 . S
H1449 C1441 0.960 . S
H1450 C1442 0.930 . S
H1451 C1443 0.929 . S
C616 C555 1.681 . S
C597 C29 1.595 . S
C633 C115 1.592 . S
C652 C375 1.613 . S
C669 C153 1.596 . S
C688 C422 1.646 . S
C705 C239 1.487 . S
C724 C458 1.479 . S
C760 C483 1.598 . S
C741 C301 1.575 . S
C777 C339 1.835 . S
C796 C519 1.947 . S
C813 C91 1.642 . S
C832 C411 1.736 . S
C849 C177 1.525 . S
C868 C447 1.538 . S
C885 C215 1.518 . S
C904 C494 1.551 . S
C940 C530 1.913 . S
C921 C277 1.824 . S
C976 C566 1.581 . S
C957 C363 1.567 . S
C1012 C386 1.537 . S
C993 C53 1.539 . S
C1029 C35 1.535 . S
C1048 C410 1.540 . S
C1065 C109 1.423 . S
C1084 C446 1.505 . S
C1120 C484 1.460 . S
C1101 C159 1.443 . S
C1137 C233 1.613 . S
C1156 C520 1.717 . S
C1192 C556 1.507 . S
C1173 C295 1.402 . S
C1228 C376 1.330 . S
C1209 C345 1.320 . S
C1264 C554 1.440 . S
C1245 C97 1.426 . S
C1281 C171 1.387 . S
C1300 C374 1.472 . S
C1336 C412 1.551 . S
C1317 C221 1.531 . S
C1353 C283 1.372 . S
C1372 C448 1.378 . S
C1389 C357 1.456 . S
C1408 C482 1.564 . S
C1425 C47 1.641 . S
C1444 C518 1.738 . S
