# Generated by pormake.
# Topology anh, (6,3)-cn, num edge types: 1
# Building blocks:
#     Node 0, Type 0, BuildingBlock: INOVEN_clean_sbu_0, # of connection points: 6
#     Node 1, Type 0, BuildingBlock: INOVEN_clean_sbu_0, # of connection points: 6
#     Node 2, Type 0, BuildingBlock: INOVEN_clean_sbu_0, # of connection points: 6
#     Node 3, Type 1, BuildingBlock: MIDCAF_clean_linker_0, # of connection points: 3
#     Node 4, Type 1, BuildingBlock: MIDCAF_clean_linker_0, # of connection points: 3
#     Node 5, Type 1, BuildingBlock: MIDCAF_clean_linker_0, # of connection points: 3
#     Node 6, Type 1, BuildingBlock: MIDCAF_clean_linker_0, # of connection points: 3
#     Node 7, Type 1, BuildingBlock: MIDCAF_clean_linker_0, # of connection points: 3
#     Node 8, Type 1, BuildingBlock: MIDCAF_clean_linker_0, # of connection points: 3
#     Edge 9, Type (0, 1), BuildingBlock: XUDNAN_clean_linker_2, # of connection points: 2
#     Edge 10, Type (0, 1), BuildingBlock: XUDNAN_clean_linker_2, # of connection points: 2
#     Edge 11, Type (0, 1), BuildingBlock: XUDNAN_clean_linker_2, # of connection points: 2
#     Edge 12, Type (0, 1), BuildingBlock: XUDNAN_clean_linker_2, # of connection points: 2
#     Edge 13, Type (0, 1), BuildingBlock: XUDNAN_clean_linker_2, # of connection points: 2
#     Edge 14, Type (0, 1), BuildingBlock: XUDNAN_clean_linker_2, # of connection points: 2
#     Edge 15, Type (0, 1), BuildingBlock: XUDNAN_clean_linker_2, # of connection points: 2
#     Edge 16, Type (0, 1), BuildingBlock: XUDNAN_clean_linker_2, # of connection points: 2
#     Edge 17, Type (0, 1), BuildingBlock: XUDNAN_clean_linker_2, # of connection points: 2
#     Edge 18, Type (0, 1), BuildingBlock: XUDNAN_clean_linker_2, # of connection points: 2
#     Edge 19, Type (0, 1), BuildingBlock: XUDNAN_clean_linker_2, # of connection points: 2
#     Edge 20, Type (0, 1), BuildingBlock: XUDNAN_clean_linker_2, # of connection points: 2
#     Edge 21, Type (0, 1), BuildingBlock: XUDNAN_clean_linker_2, # of connection points: 2
#     Edge 22, Type (0, 1), BuildingBlock: XUDNAN_clean_linker_2, # of connection points: 2
#     Edge 23, Type (0, 1), BuildingBlock: XUDNAN_clean_linker_2, # of connection points: 2
#     Edge 24, Type (0, 1), BuildingBlock: XUDNAN_clean_linker_2, # of connection points: 2
#     Edge 25, Type (0, 1), BuildingBlock: XUDNAN_clean_linker_2, # of connection points: 2
#     Edge 26, Type (0, 1), BuildingBlock: XUDNAN_clean_linker_2, # of connection points: 2
# Relax obj value: 0.180
# Max RMSD: 0.213
# Mean RMSD: 0.158
data_MOF--net-anh--node1-INOVEN_clean_sbu_0--node2-MIDCAF_clean_linker_0--edge1-XUDNAN_clean_linker_2
_symmetry_space_group_name_H-M    P1
_symmetry_Int_Tables_number       1
_symmetry_cell_setting            triclinic
loop_
_symmetry_equiv_pos_as_xyz
'x, y, z'
_cell_length_a     36.624993
_cell_length_b     43.389438
_cell_length_c     66.182853
_cell_angle_alpha  92.638418
_cell_angle_beta   89.763976
_cell_angle_gamma 128.29705
loop_
_atom_site_label
_atom_site_type_symbol
_atom_site_fract_x
_atom_site_fract_y
_atom_site_fract_z
_atom_type_partial_charge
Gd0 Gd 0.12342 0.51336 0.14565 0.0
Gd1 Gd 1.06004 0.53262 0.15808 0.0
C2 C 0.16603 0.60568 0.15491 0.0
C3 C 0.18702 0.51164 0.13065 0.0
C4 C 0.23525 0.53089 0.13765 0.0
C5 C 0.24617 0.50752 0.14486 0.0
C6 C 0.26937 0.57214 0.13898 0.0
C7 C 0.32346 0.56593 0.15546 0.0
C8 C 0.31343 0.58953 0.14765 0.0
C9 C 0.28967 0.52485 0.1538 0.0
C10 C 0.10661 0.50876 0.18537 0.0
C11 C 1.01721 0.44175 0.14754 0.0
C12 C 0.99659 0.53105 0.17616 0.0
C13 C 0.94844 0.4982 0.18136 0.0
C14 C 0.91331 0.4767 0.16618 0.0
C15 C 0.93752 0.48707 0.20146 0.0
C16 C 0.85715 0.43374 0.19104 0.0
C17 C 0.89225 0.45511 0.20627 0.0
C18 C 0.86831 0.44498 0.17097 0.0
C19 C 0.07583 0.53464 0.11799 0.0
O20 O 0.17223 0.5804 0.14743 0.0
O21 O 0.12577 0.59408 0.16194 0.0
O22 O 0.15496 0.48487 0.14235 0.0
O23 O 0.17778 0.53419 0.12397 0.0
O24 O 0.11199 0.48573 0.17521 0.0
O25 O 0.11383 0.53499 0.17447 0.0
O26 O 1.01477 0.46608 0.15909 0.0
O27 O 1.05446 0.45524 0.13682 0.0
O28 O 1.00475 0.53737 0.15691 0.0
O29 O 1.02961 0.53386 0.18595 0.0
O30 O 0.0709 0.55871 0.12746 0.0
O31 O 0.06901 0.50978 0.12973 0.0
H32 H 0.22061 0.47573 0.14398 0.0
H33 H 0.26192 0.591 0.13364 0.0
H34 H 0.33935 0.62126 0.14853 0.0
H35 H 0.29714 0.50604 0.15925 0.0
H36 H 0.92035 0.48439 0.15053 0.0
H37 H 0.96401 0.50307 0.21346 0.0
H38 H 0.88466 0.44722 0.22187 0.0
H39 H 0.8419 0.42998 0.15892 0.0
Gd40 Gd 0.62435 0.0141 0.47431 0.0
Gd41 Gd 0.57092 0.04634 0.47141 0.0
C42 C 0.51109 0.95311 0.46992 0.0
C43 C 0.65777 0.97933 0.4851 0.0
C44 C 0.6464 0.94022 0.4838 0.0
C45 C 0.60265 0.90626 0.48908 0.0
C46 C 0.68102 0.93725 0.47803 0.0
C47 C 0.62953 0.86738 0.48392 0.0
C48 C 0.67267 0.90119 0.47802 0.0
C49 C 0.59438 0.87015 0.48922 0.0
C50 C 0.61155 0.02647 0.43635 0.0
C51 C 0.68447 0.10711 0.47365 0.0
C52 C 0.53742 0.08205 0.46256 0.0
C53 C 0.53869 0.11425 0.4718 0.0
C54 C 0.5367 0.11826 0.49287 0.0
C55 C 0.54001 0.14033 0.45945 0.0
C56 C 0.53386 0.17222 0.48899 0.0
C57 C 0.53787 0.16928 0.46799 0.0
C58 C 0.53403 0.14683 0.50136 0.0
C59 C 0.5872 0.0367 0.50959 0.0
O60 O 0.54927 0.95878 0.47609 0.0
O61 O 0.51251 0.98246 0.4639 0.0
O62 O 0.66829 0.99732 0.46821 0.0
O63 O 0.63233 0.98392 0.49678 0.0
O64 O 0.64768 0.03 0.44236 0.0
O65 O 0.582 0.01301 0.44999 0.0
O66 O 0.64569 0.10039 0.4674 0.0
O67 O 0.68387 0.07846 0.48022 0.0
O68 O 0.51462 0.04974 0.47233 0.0
O69 O 0.57636 0.09165 0.45537 0.0
O70 O 0.55092 0.03332 0.50418 0.0
O71 O 0.61468 0.04889 0.49527 0.0
H72 H 0.57518 0.9077 0.49344 0.0
H73 H 0.71501 0.9631 0.47396 0.0
H74 H 0.70061 0.90011 0.47411 0.0
H75 H 0.56067 0.84447 0.49366 0.0
H76 H 0.53627 0.09882 0.50275 0.0
H77 H 0.54171 0.13776 0.44317 0.0
H78 H 0.53773 0.18846 0.45813 0.0
H79 H 0.53171 0.14888 0.51763 0.0
Gd80 Gd 0.62244 0.56911 0.85061 0.0
Gd81 Gd 0.55667 0.48033 0.84407 0.0
C82 C 0.50853 0.52173 0.84806 0.0
C83 C 0.66529 0.64355 0.84773 0.0
C84 C 0.65303 0.66959 0.84373 0.0
C85 C 0.65369 0.69249 0.85968 0.0
C86 C 0.6422 0.67298 0.82398 0.0
C87 C 0.63314 0.72168 0.83627 0.0
C88 C 0.63238 0.69871 0.82031 0.0
C89 C 0.64365 0.71808 0.85602 0.0
C90 C 0.59772 0.52869 0.88428 0.0
C91 C 0.67107 0.52738 0.84694 0.0
C92 C 0.51249 0.40573 0.84712 0.0
C93 C 0.51616 0.375 0.84008 0.0
C94 C 0.47604 0.33872 0.83238 0.0
C95 C 0.55877 0.38139 0.84039 0.0
C96 C 0.52121 0.31616 0.82429 0.0
C97 C 0.56126 0.35215 0.8326 0.0
C98 C 0.47849 0.30962 0.82458 0.0
C99 C 0.58017 0.51898 0.80979 0.0
O100 O 0.55086 0.55523 0.84534 0.0
O101 O 0.50325 0.4892 0.85111 0.0
O102 O 0.65273 0.62654 0.865 0.0
O103 O 0.65997 0.62031 0.83266 0.0
O104 O 0.63927 0.56129 0.88196 0.0
O105 O 0.57149 0.52065 0.86938 0.0
O106 O 0.62776 0.49376 0.84605 0.0
O107 O 0.67898 0.56176 0.84779 0.0
O108 O 0.50264 0.42014 0.83314 0.0
O109 O 0.54354 0.43255 0.86061 0.0
O110 O 0.53993 0.48549 0.81243 0.0
O111 O 0.60721 0.52865 0.82473 0.0
H112 H 0.66244 0.69091 0.87501 0.0
H113 H 0.64152 0.65594 0.81129 0.0
H114 H 0.62394 0.70047 0.80496 0.0
H115 H 0.64514 0.73571 0.86861 0.0
H116 H 0.44277 0.33307 0.83212 0.0
H117 H 0.5902 0.40911 0.84635 0.0
H118 H 0.59472 0.35817 0.83249 0.0
H119 H 0.44687 0.28201 0.81859 0.0
C120 C 0.47843 0.88207 0.18643 0.0
C121 C 0.4555 0.8784 0.16845 0.0
C122 C 0.47427 0.91224 0.15761 0.0
C123 C 0.5136 0.94926 0.16519 0.0
H124 H 0.68302 0.0707 0.16292 0.0
H125 H 0.74818 0.13236 0.1494 0.0
H126 H 0.71341 0.19505 0.18663 0.0
H127 H 0.6509 0.13371 0.20112 0.0
H128 H 0.61655 0.09315 0.24893 0.0
H129 H 0.61308 0.0969 0.28593 0.0
H130 H 0.57446 0.98087 0.28807 0.0
H131 H 0.57659 0.97648 0.25117 0.0
H132 H 0.53254 0.92101 0.20858 0.0
H133 H 0.46475 0.85671 0.19521 0.0
H134 H 0.45753 0.91027 0.14362 0.0
H135 H 0.5259 0.97499 0.15701 0.0
N136 N 0.59886 0.02537 0.18375 0.0
N137 N 0.62643 0.06416 0.21433 0.0
N138 N 0.56945 0.99591 0.21476 0.0
C139 C 0.62775 0.06135 0.19384 0.0
C140 C 0.59766 0.03153 0.22488 0.0
C141 C 0.56929 0.99245 0.19426 0.0
C142 C 0.66207 0.09747 0.18311 0.0
C143 C 0.68914 0.09771 0.16796 0.0
C144 C 0.72654 0.13326 0.16018 0.0
C145 C 0.73706 0.16937 0.16701 0.0
C146 C 0.70792 0.16843 0.18138 0.0
C147 C 0.67149 0.1331 0.18954 0.0
C148 C 0.59678 0.0345 0.24719 0.0
C149 C 0.60738 0.0685 0.25732 0.0
C150 C 0.6052 0.07061 0.27841 0.0
C151 C 0.59356 0.03918 0.2897 0.0
C152 C 0.58366 1.00549 0.27963 0.0
C153 C 0.58472 1.00297 0.25855 0.0
C154 C 0.53439 0.95318 0.18393 0.0
C155 C 0.51717 0.91902 0.19414 0.0
C156 C 0.55915 0.40378 0.56673 0.0
C157 C 0.55695 0.39678 0.54569 0.0
C158 C 0.56838 0.42655 0.53299 0.0
C159 C 0.58083 0.46236 0.54125 0.0
H160 H 0.58913 0.56011 0.52776 0.0
H161 H 0.58963 0.60607 0.50767 0.0
H162 H 0.63521 0.68518 0.56056 0.0
H163 H 0.63382 0.63914 0.58073 0.0
H164 H 0.64922 0.61581 0.62359 0.0
H165 H 0.65519 0.62483 0.66059 0.0
H166 H 0.59237 0.5023 0.66508 0.0
H167 H 0.58649 0.49311 0.62842 0.0
H168 H 0.57289 0.4435 0.59127 0.0
H169 H 0.55129 0.38165 0.57691 0.0
H170 H 0.56687 0.42187 0.5167 0.0
H171 H 0.58901 0.48461 0.5311 0.0
N172 N 0.59874 0.5334 0.55983 0.0
N173 N 0.61578 0.57393 0.58891 0.0
N174 N 0.60155 0.51381 0.59181 0.0
C175 C 0.60911 0.56719 0.56847 0.0
C176 C 0.61203 0.54733 0.60067 0.0
C177 C 0.59504 0.50659 0.57145 0.0
C178 C 0.61126 0.59575 0.55592 0.0
C179 C 0.59937 0.58733 0.53512 0.0
C180 C 0.59979 0.61375 0.52356 0.0
C181 C 0.61214 0.64918 0.53253 0.0
C182 C 0.62462 0.6578 0.55325 0.0
C183 C 0.62413 0.63143 0.5648 0.0
C184 C 0.61724 0.5537 0.62301 0.0
C185 C 0.63678 0.59083 0.63248 0.0
C186 C 0.64042 0.59608 0.65363 0.0
C187 C 0.62391 0.56419 0.66563 0.0
C188 C 0.60484 0.52728 0.65617 0.0
C189 C 0.60175 0.52212 0.63513 0.0
C190 C 0.58259 0.46916 0.56236 0.0
C191 C 0.57188 0.43946 0.57496 0.0
C192 C 0.9868 0.56938 0.87226 0.0
C193 C 0.9582 0.54512 0.85543 0.0
C194 C 0.97322 0.52686 0.84361 0.0
C195 C 1.01389 0.53133 0.84899 0.0
H196 H 0.23656 0.60081 0.88468 0.0
H197 H 0.29402 0.59173 0.87595 0.0
H198 H 0.19511 0.4966 0.83325 0.0
H199 H 0.13688 0.50539 0.84251 0.0
H200 H 0.17657 0.55805 0.93002 0.0
H201 H 0.17583 0.55392 0.96653 0.0
H202 H 1.05756 0.55327 0.96924 0.0
H203 H 1.05845 0.55795 0.93261 0.0
H204 H 1.04652 0.59165 0.89117 0.0
H205 H 0.97716 0.58386 0.88201 0.0
H206 H 0.95311 0.50842 0.83028 0.0
H207 H 1.02286 0.51552 0.84 0.0
N208 N 0.10988 0.5522 0.86431 0.0
N209 N 0.14636 0.55661 0.89486 0.0
N210 N 0.08262 0.55642 0.89593 0.0
C211 C 0.14447 0.5541 0.87432 0.0
C212 C 0.11567 0.55743 0.90578 0.0
C213 C 0.07898 0.55404 0.87539 0.0
C214 C 0.18166 0.55404 0.86427 0.0
C215 C 0.22723 0.5785 0.87301 0.0
C216 C 0.26059 0.57328 0.86796 0.0
C217 C 0.24989 0.54301 0.85402 0.0
C218 C 0.20502 0.51985 0.84437 0.0
C219 C 0.17152 0.52528 0.84939 0.0
C220 C 0.11727 0.55794 0.92824 0.0
C221 C 0.15054 0.55734 0.93832 0.0
C222 C 0.15004 0.5548 0.95929 0.0
C223 C 0.11634 0.55285 0.97076 0.0
C224 C 0.08413 0.55494 0.96084 0.0
C225 C 0.08453 0.55739 0.93981 0.0
C226 C 1.04087 0.55408 0.86646 0.0
C227 C 1.02695 0.57366 0.87762 0.0
C228 C 0.24097 0.65897 0.43388 0.0
C229 C 0.23677 0.67374 0.4523 0.0
C230 C 0.19605 0.64891 0.4633 0.0
C231 C 0.15957 0.61074 0.4556 0.0
H232 H 1.05521 0.47316 0.46524 0.0
H233 H 0.99753 0.40952 0.47987 0.0
H234 H 0.90716 0.37182 0.42714 0.0
H235 H 0.96321 0.43483 0.41305 0.0
H236 H 1.00038 0.47119 0.37303 0.0
H237 H 0.99202 0.46315 0.3364 0.0
H238 H 0.13594 0.56499 0.3316 0.0
H239 H 0.14424 0.57372 0.36848 0.0
H240 H 0.20799 0.61145 0.41135 0.0
H241 H 0.27163 0.67737 0.42496 0.0
H242 H 0.19192 0.65943 0.47762 0.0
H243 H 0.12799 0.59287 0.46403 0.0
N244 N 0.08851 0.52833 0.43718 0.0
N245 N 1.04622 0.49443 0.40688 0.0
N246 N 0.11668 0.55784 0.40596 0.0
C247 C 1.05052 0.49527 0.42729 0.0
C248 C 0.07883 0.52535 0.39609 0.0
C249 C 0.12177 0.55982 0.42645 0.0
C250 C 1.01421 0.45919 0.43788 0.0
C251 C 1.02261 0.4515 0.45701 0.0
C252 C 0.98968 0.41485 0.46529 0.0
C253 C 0.94755 0.38523 0.45468 0.0
C254 C 0.93866 0.39379 0.43597 0.0
C255 C 0.97132 0.43009 0.42775 0.0
C256 C 0.07322 0.52279 0.37375 0.0
C257 C 1.03029 0.49211 0.36424 0.0
C258 C 1.02545 0.48742 0.3432 0.0
C259 C 0.06346 0.5131 0.33108 0.0
C260 C 0.1059 0.54485 0.34052 0.0
C261 C 0.11071 0.5497 0.36166 0.0
C262 C 0.16275 0.59699 0.43655 0.0
C263 C 0.2043 0.62123 0.42603 0.0
C264 C 0.59986 0.13862 0.75509 0.0
C265 C 0.58065 0.13404 0.77413 0.0
C266 C 0.57407 0.10559 0.78653 0.0
C267 C 0.58381 0.08042 0.77935 0.0
H268 H 0.61049 0.9982 0.79375 0.0
H269 H 0.61089 0.95137 0.81267 0.0
H270 H 0.6025 0.89219 0.7565 0.0
H271 H 0.60333 0.93917 0.73768 0.0
H272 H 0.62989 0.98444 0.69632 0.0
H273 H 0.63236 0.9821 0.65934 0.0
H274 H 0.59486 0.05864 0.6572 0.0
H275 H 0.59221 0.06102 0.69386 0.0
H276 H 0.62332 0.11783 0.73297 0.0
H277 H 0.60599 0.16075 0.74537 0.0
H278 H 0.55928 0.10155 0.8013 0.0
H279 H 0.57643 0.05753 0.78879 0.0
N280 N 0.60459 0.02848 0.7616 0.0
N281 N 0.6098 0.99979 0.73177 0.0
N282 N 0.60707 0.05194 0.72999 0.0
C283 C 0.60734 1.00122 0.7523 0.0
C284 C 0.60956 0.02501 0.72052 0.0
C285 C 0.60474 0.05416 0.75041 0.0
C286 C 0.60706 0.97272 0.76414 0.0
C287 C 0.6088 0.97524 0.78544 0.0
C288 C 0.60881 0.94823 0.7963 0.0
C289 C 0.60697 0.91804 0.78614 0.0
C290 C 0.60491 0.91546 0.76487 0.0
C291 C 0.60507 0.94241 0.75405 0.0
C292 C 0.61093 0.02296 0.69811 0.0
C293 C 0.62205 1.00067 0.68795 0.0
C294 C 0.62367 0.99944 0.6668 0.0
C295 C 0.61361 0.02005 0.6554 0.0
C296 C 0.60219 0.04204 0.66555 0.0
C297 C 0.60104 0.04361 0.68662 0.0
C298 C 0.60036 0.08354 0.75971 0.0
C299 C 0.60969 0.11385 0.748 0.0
C300 C 0.59331 0.34464 0.13034 0.0
C301 C 0.57417 0.33384 0.14971 0.0
C302 C 0.53935 0.33715 0.15482 0.0
C303 C 0.52801 0.35491 0.14196 0.0
H304 H 0.57025 0.47566 0.15104 0.0
H305 H 0.56741 0.52442 0.16918 0.0
H306 H 0.50536 0.53119 0.11578 0.0
H307 H 0.51032 0.48442 0.09764 0.0
H308 H 0.48866 0.42577 0.05733 0.0
H309 H 0.48924 0.42868 0.02059 0.0
H310 H 0.59091 0.40877 0.01762 0.0
H311 H 0.58938 0.40463 0.05466 0.0
H312 H 0.59839 0.37159 0.10303 0.0
H313 H 0.6207 0.34329 0.12576 0.0
H314 H 0.52278 0.32817 0.16928 0.0
H315 H 0.50334 0.35946 0.14687 0.0
N316 N 0.54343 0.42093 0.1221 0.0
N317 N 0.53875 0.44316 0.09143 0.0
N318 N 0.5448 0.39236 0.09131 0.0
C319 C 0.54066 0.44586 0.11193 0.0
C320 C 0.54089 0.41666 0.08103 0.0
C321 C 0.54512 0.39395 0.1119 0.0
C322 C 0.54018 0.47599 0.12295 0.0
C323 C 0.55644 0.48796 0.14319 0.0
C324 C 0.55491 0.51597 0.15357 0.0
C325 C 0.53652 0.53215 0.14398 0.0
C326 C 0.52113 0.52052 0.1236 0.0
C327 C 0.52333 0.49311 0.11319 0.0
C328 C 0.53895 0.41495 0.05875 0.0
C329 C 0.5107 0.4215 0.04883 0.0
C330 C 0.51088 0.42303 0.02785 0.0
C331 C 0.54006 0.41889 0.01642 0.0
C332 C 0.56811 0.41196 0.02623 0.0
C333 C 0.56704 0.40942 0.04729 0.0
C334 C 0.55005 0.36846 0.12344 0.0
C335 C 0.58092 0.36134 0.11726 0.0
H336 H 0.40539 0.61185 0.13676 0.0
H337 H 0.34399 0.55465 0.19245 0.0
H338 H 0.41459 0.56266 0.20156 0.0
H339 H 0.43866 0.56424 0.12228 0.0
H340 H 0.4941 0.60135 0.11164 0.0
H341 H 0.45148 0.60885 0.11375 0.0
H342 H 0.50974 0.67434 0.13465 0.0
H343 H 0.5533 0.66733 0.13238 0.0
H344 H 0.53841 0.67528 0.15702 0.0
H345 H 0.4715 0.55195 0.19816 0.0
H346 H 0.50907 0.52577 0.18324 0.0
H347 H 0.54143 0.59338 0.1305 0.0
C348 C 0.40854 0.60359 0.15145 0.0
C349 C 0.36993 0.58298 0.164 0.0
C350 C 0.37368 0.57085 0.18278 0.0
C351 C 0.41381 0.5755 0.18809 0.0
C352 C 0.44999 0.59263 0.17451 0.0
C353 C 0.44836 0.60761 0.15675 0.0
C354 C 0.48623 0.61639 0.14272 0.0
C355 C 0.46637 0.59646 0.12138 0.0
C356 C 0.52418 0.66099 0.14164 0.0
C357 C 0.50442 0.59848 0.15392 0.0
C358 C 0.48476 0.58675 0.17268 0.0
C359 C 0.48867 0.56242 0.18391 0.0
C360 C 0.51029 0.54761 0.17527 0.0
C361 C 0.52781 0.55716 0.15553 0.0
C362 C 0.52791 0.58528 0.14553 0.0
H363 H 0.6994 0.17369 0.46114 0.0
H364 H 0.77096 0.13314 0.4867 0.0
H365 H 0.84518 0.20067 0.4868 0.0
H366 H 0.78844 0.24036 0.42811 0.0
H367 H 0.77959 0.27674 0.43154 0.0
H368 H 0.73188 0.22564 0.43443 0.0
H369 H 0.71912 0.24274 0.47045 0.0
H370 H 0.76691 0.29393 0.4677 0.0
H371 H 0.76687 0.26908 0.48879 0.0
H372 H 0.91261 0.27268 0.48278 0.0
H373 H 0.96746 0.34205 0.4739 0.0
H374 H 0.85141 0.3358 0.45185 0.0
C375 C 0.73056 0.17894 0.46689 0.0
C376 C 0.72913 0.1479 0.47395 0.0
C377 C 0.77096 0.15627 0.48122 0.0
C378 C 0.81336 0.19463 0.48139 0.0
C379 C 0.81351 0.22448 0.4743 0.0
C380 C 0.77316 0.21704 0.46718 0.0
C381 C 0.78292 0.254 0.45978 0.0
C382 C 0.76995 0.24886 0.43712 0.0
C383 C 0.75744 0.26562 0.47244 0.0
C384 C 0.83516 0.28329 0.46357 0.0
C385 C 0.85215 0.2658 0.47208 0.0
C386 C 0.89959 0.28675 0.47629 0.0
C387 C 0.93052 0.32634 0.47133 0.0
C388 C 0.91405 0.34474 0.46218 0.0
C389 C 0.86546 0.32279 0.45866 0.0
H390 H 0.66504 0.77169 0.80521 0.0
H391 H 0.58031 0.73534 0.85833 0.0
H392 H 0.56574 0.78264 0.85189 0.0
H393 H 0.71749 0.87431 0.81104 0.0
H394 H 0.71675 0.87993 0.78427 0.0
H395 H 0.72065 0.84344 0.79318 0.0
H396 H 0.64756 0.78926 0.77124 0.0
H397 H 0.64349 0.8256 0.76222 0.0
H398 H 0.59448 0.78319 0.77406 0.0
H399 H 0.55959 0.83358 0.8392 0.0
H400 H 0.56175 0.88329 0.82116 0.0
H401 H 0.65164 0.88672 0.77675 0.0
C402 C 0.6431 0.77341 0.81541 0.0
C403 C 0.62382 0.74977 0.83229 0.0
C404 C 0.59588 0.75344 0.84543 0.0
C405 C 0.58725 0.7801 0.84185 0.0
C406 C 0.60691 0.80301 0.8251 0.0
C407 C 0.63427 0.79992 0.8121 0.0
C408 C 0.65129 0.82784 0.79518 0.0
C409 C 0.70471 0.85818 0.79598 0.0
C410 C 0.63311 0.80511 0.77445 0.0
C411 C 0.629 0.84696 0.80058 0.0
C412 C 0.6036 0.83234 0.8179 0.0
C413 C 0.57957 0.84536 0.82567 0.0
C414 C 0.58127 0.87383 0.81539 0.0
C415 C 0.60684 0.88904 0.79749 0.0
C416 C 0.63124 0.87544 0.7902 0.0
H417 H 0.79431 0.36454 0.16958 0.0
H418 H 0.80865 0.43377 0.22261 0.0
H419 H 0.7236 0.39258 0.22428 0.0
H420 H 0.72383 0.36555 0.14495 0.0
H421 H 0.68619 0.31628 0.13348 0.0
H422 H 0.74389 0.33677 0.1416 0.0
H423 H 0.71224 0.27862 0.16433 0.0
H424 H 0.65374 0.25723 0.15595 0.0
H425 H 0.66893 0.26604 0.1826 0.0
H426 H 0.64602 0.36528 0.21285 0.0
H427 H 0.58699 0.35563 0.19029 0.0
H428 H 0.61525 0.29826 0.14479 0.0
C429 C 0.77932 0.36944 0.18218 0.0
C430 C 0.80797 0.40223 0.19592 0.0
C431 C 0.78747 0.40848 0.21205 0.0
C432 C 0.73896 0.38505 0.21312 0.0
C433 C 0.71145 0.35507 0.19817 0.0
C434 C 0.73096 0.3464 0.18327 0.0
C435 C 0.69556 0.31912 0.16654 0.0
C436 C 0.71345 0.33549 0.14545 0.0
C437 C 0.68179 0.27779 0.16742 0.0
C438 C 0.65564 0.31908 0.17266 0.0
C439 C 0.66448 0.33813 0.1915 0.0
C440 C 0.63773 0.34896 0.19849 0.0
C441 C 0.6038 0.34317 0.18542 0.0
C442 C 0.5967 0.3266 0.16547 0.0
C443 C 0.62031 0.31149 0.15981 0.0
H444 H 0.49339 0.88139 0.46422 0.0
H445 H 0.42586 0.93459 0.47444 0.0
H446 H 0.34934 0.86868 0.47376 0.0
H447 H 0.4072 0.80623 0.42847 0.0
H448 H 0.41075 0.76908 0.43664 0.0
H449 H 0.46068 0.82023 0.43967 0.0
H450 H 0.46521 0.81305 0.47801 0.0
H451 H 0.41514 0.76184 0.47512 0.0
H452 H 0.4149 0.79424 0.49307 0.0
H453 H 0.28009 0.79741 0.47174 0.0
H454 H 0.22179 0.72571 0.4648 0.0
H455 H 0.33264 0.7178 0.45366 0.0
C456 C 0.46248 0.87905 0.46651 0.0
C457 C 0.46557 0.91313 0.46952 0.0
C458 C 0.4243 0.90893 0.47208 0.0
C459 C 0.38069 0.87159 0.47184 0.0
C460 C 0.3787 0.83859 0.46876 0.0
C461 C 0.41837 0.84187 0.46587 0.0
C462 C 0.40601 0.80169 0.46137 0.0
C463 C 0.42211 0.79917 0.44028 0.0
C464 C 0.42653 0.79215 0.47788 0.0
C465 C 0.35323 0.77543 0.46204 0.0
C466 C 0.33837 0.79735 0.4667 0.0
C467 C 0.29129 0.77991 0.46812 0.0
C468 C 0.25841 0.7391 0.46428 0.0
C469 C 0.27256 0.71607 0.45879 0.0
C470 C 0.32075 0.73461 0.45785 0.0
H471 H 0.56884 0.28992 0.83751 0.0
H472 H 0.48034 0.27523 0.7883 0.0
H473 H 0.48349 0.22527 0.77134 0.0
H474 H 0.64279 0.28038 0.80665 0.0
H475 H 0.64837 0.2534 0.82459 0.0
H476 H 0.63838 0.28747 0.83334 0.0
H477 H 0.56559 0.23203 0.85196 0.0
H478 H 0.57523 0.19773 0.84318 0.0
H479 H 0.52009 0.18713 0.83799 0.0
H480 H 0.49745 0.17888 0.75909 0.0
H481 H 0.52229 0.13825 0.75188 0.0
H482 H 0.60153 0.18116 0.80879 0.0
C483 C 0.55023 0.27619 0.82315 0.0
C484 C 0.52394 0.28624 0.81432 0.0
C485 C 0.49995 0.26753 0.79554 0.0
C486 C 0.50169 0.23922 0.78574 0.0
C487 C 0.52749 0.22976 0.79489 0.0
C488 C 0.55137 0.24755 0.81315 0.0
C489 C 0.57691 0.23204 0.81943 0.0
C490 C 0.62974 0.26531 0.8211 0.0
C491 C 0.55833 0.21098 0.83932 0.0
C492 C 0.564 0.20313 0.80171 0.0
C493 C 0.53537 0.20238 0.78779 0.0
C494 C 0.51969 0.17905 0.76988 0.0
C495 C 0.53405 0.15617 0.76591 0.0
C496 C 0.56377 0.15663 0.77976 0.0
C497 C 0.57842 0.18002 0.79805 0.0
H498 H 0.59168 0.81847 0.51531 0.0
H499 H 0.65363 0.83323 0.45699 0.0
H500 H 0.65044 0.77546 0.46192 0.0
H501 H 0.65329 0.79482 0.54076 0.0
H502 H 0.60618 0.759 0.55623 0.0
H503 H 0.60805 0.79837 0.54713 0.0
H504 H 0.52568 0.74792 0.53056 0.0
H505 H 0.52331 0.7083 0.5398 0.0
H506 H 0.51432 0.70944 0.51318 0.0
H507 H 0.64686 0.71984 0.47459 0.0
H508 H 0.64299 0.67062 0.49397 0.0
H509 H 0.58233 0.69182 0.54379 0.0
C510 C 0.60334 0.80886 0.50333 0.0
C511 C 0.62265 0.83014 0.48571 0.0
C512 C 0.63882 0.81735 0.47063 0.0
C513 C 0.63695 0.7845 0.47325 0.0
C514 C 0.61868 0.76472 0.49102 0.0
C515 C 0.60189 0.77627 0.50575 0.0
C516 C 0.58702 0.75174 0.52405 0.0
C517 C 0.61534 0.77753 0.54316 0.0
C518 C 0.53445 0.72793 0.52707 0.0
C519 C 0.59912 0.72524 0.51754 0.0
C520 C 0.61688 0.73287 0.49836 0.0
C521 C 0.63238 0.71323 0.48951 0.0
C522 C 0.6299 0.68521 0.50061 0.0
C523 C 0.61231 0.67727 0.5204 0.0
C524 C 0.5963 0.69738 0.52878 0.0
H525 H 0.76686 0.58487 0.85765 0.0
H526 H 0.66609 0.46414 0.83405 0.0
H527 H 0.72734 0.45669 0.83288 0.0
H528 H 0.86503 0.60712 0.82815 0.0
H529 H 0.90777 0.63638 0.84836 0.0
H530 H 0.85641 0.63325 0.84699 0.0
H531 H 0.83664 0.60937 0.8834 0.0
H532 H 0.88794 0.61244 0.88486 0.0
H533 H 0.8317 0.56687 0.88949 0.0
H534 H 0.79963 0.46116 0.8344 0.0
H535 H 0.87601 0.47663 0.83959 0.0
H536 H 0.93316 0.59462 0.86222 0.0
C537 C 0.75772 0.55694 0.85212 0.0
C538 C 0.71079 0.52503 0.84601 0.0
C539 C 0.70102 0.48905 0.83904 0.0
C540 C 0.73591 0.4845 0.83821 0.0
C541 C 0.78135 0.51613 0.84444 0.0
C542 C 0.79249 0.55171 0.85132 0.0
C543 C 0.84422 0.58053 0.85755 0.0
C544 C 0.86987 0.61646 0.84448 0.0
C545 C 0.85049 0.59305 0.88017 0.0
C546 C 0.86013 0.55558 0.85314 0.0
C547 C 0.82318 0.51859 0.84546 0.0
C548 C 0.82881 0.49018 0.84031 0.0
C549 C 0.87289 0.49948 0.84317 0.0
C550 C 0.91184 0.53705 0.85123 0.0
C551 C 0.90475 0.56544 0.85616 0.0
H552 H 0.2602 0.64362 0.15904 0.0
H553 H 0.15952 0.6642 0.15096 0.0
H554 H 0.22337 0.73561 0.15067 0.0
H555 H 0.33479 0.72645 0.19372 0.0
H556 H 0.38803 0.73771 0.18451 0.0
H557 H 0.33482 0.68792 0.18231 0.0
H558 H 0.34492 0.68543 0.14368 0.0
H559 H 0.39823 0.73527 0.14575 0.0
H560 H 0.35192 0.72228 0.12864 0.0
H561 H 0.29745 0.80453 0.1515 0.0
H562 H 0.37644 0.86733 0.15729 0.0
H563 H 0.4299 0.80343 0.16695 0.0
C564 C 0.25175 0.66321 0.15703 0.0
C565 C 0.20492 0.64841 0.1549 0.0
C566 C 0.19512 0.67494 0.15267 0.0
C567 C 0.23117 0.71552 0.15235 0.0
C568 C 0.27693 0.72926 0.15454 0.0
C569 C 0.28739 0.70403 0.15712 0.0
C570 C 0.33939 0.72686 0.16066 0.0
C571 C 0.34985 0.71929 0.18154 0.0
C572 C 0.35981 0.71686 0.14367 0.0
C573 C 0.35636 0.7688 0.15983 0.0
C574 C 0.31977 0.76937 0.1559 0.0
C575 C 0.32643 0.80449 0.15453 0.0
C576 C 0.37152 0.84005 0.1577 0.0
C577 C 0.40944 0.84038 0.16246 0.0
C578 C 0.40164 0.80414 0.16332 0.0
H579 H 0.58481 0.25105 0.48268 0.0
H580 H 0.46859 0.15679 0.5158 0.0
H581 H 0.45857 0.20344 0.53196 0.0
H582 H 0.63282 0.32406 0.52283 0.0
H583 H 0.65078 0.36375 0.50702 0.0
H584 H 0.64667 0.32248 0.49682 0.0
H585 H 0.59058 0.31074 0.46819 0.0
H586 H 0.59446 0.35198 0.47835 0.0
H587 H 0.53841 0.30428 0.47462 0.0
H588 H 0.46314 0.26002 0.54564 0.0
H589 H 0.48372 0.32408 0.55709 0.0
H590 H 0.59784 0.38259 0.51564 0.0
C591 C 0.55688 0.24024 0.49311 0.0
C592 C 0.52743 0.20037 0.49803 0.0
C593 C 0.49173 0.18731 0.51199 0.0
C594 C 0.48557 0.21349 0.52112 0.0
C595 C 0.51543 0.25266 0.51613 0.0
C596 C 0.55046 0.26611 0.50251 0.0
C597 C 0.57935 0.31018 0.50075 0.0
C598 C 0.63042 0.33135 0.50725 0.0
C599 C 0.57545 0.31985 0.47919 0.0
C600 C 0.55544 0.31939 0.51572 0.0
C601 C 0.5184 0.28566 0.52426 0.0
C602 C 0.49192 0.28664 0.53902 0.0
C603 C 0.50402 0.32315 0.54549 0.0
C604 C 0.54241 0.35826 0.53729 0.0
C605 C 0.56795 0.35618 0.52197 0.0
H606 H 0.49952 0.58222 0.85131 0.0
H607 H 0.41824 0.45537 0.84394 0.0
H608 H 0.34617 0.44808 0.84354 0.0
H609 H 0.4196 0.5806 0.88496 0.0
H610 H 0.4274 0.62197 0.87462 0.0
H611 H 0.47371 0.61823 0.87358 0.0
H612 H 0.47612 0.62366 0.83483 0.0
H613 H 0.42977 0.62737 0.83571 0.0
H614 H 0.42368 0.58973 0.81956 0.0
H615 H 0.28132 0.45322 0.84407 0.0
H616 H 0.22883 0.47035 0.8471 0.0
H617 H 0.34854 0.59399 0.85472 0.0
C618 C 0.46658 0.55293 0.8495 0.0
C619 C 0.46535 0.51935 0.84762 0.0
C620 C 0.42098 0.4817 0.84548 0.0
C621 C 0.37943 0.47716 0.84517 0.0
C622 C 0.38175 0.51048 0.84715 0.0
C623 C 0.42411 0.54772 0.84938 0.0
C624 C 0.41597 0.57834 0.85183 0.0
C625 C 0.43533 0.60113 0.87248 0.0
C626 C 0.43768 0.60644 0.83444 0.0
C627 C 0.36268 0.55244 0.85064 0.0
C628 C 0.34391 0.51341 0.84777 0.0
C629 C 0.29578 0.48377 0.84623 0.0
C630 C 0.26597 0.49395 0.84779 0.0
C631 C 0.28359 0.53367 0.85098 0.0
C632 C 0.33315 0.56325 0.85237 0.0
H633 H 0.95144 0.40026 0.17597 0.0
H634 H 0.99264 0.38712 0.11667 0.0
H635 H 0.92465 0.31632 0.1147 0.0
H636 H 0.91501 0.30799 0.19338 0.0
H637 H 0.86731 0.29911 0.20742 0.0
H638 H 0.91808 0.34878 0.20366 0.0
H639 H 0.86606 0.36349 0.18751 0.0
H640 H 0.81527 0.31387 0.19145 0.0
H641 H 0.82739 0.33216 0.16643 0.0
H642 H 0.84956 0.24716 0.11885 0.0
H643 H 0.77853 0.18466 0.12976 0.0
H644 H 0.79172 0.24233 0.18787 0.0
C645 C 0.94608 0.38252 0.16253 0.0
C646 C 0.97711 0.39922 0.14639 0.0
C647 C 0.96929 0.3749 0.12921 0.0
C648 C 0.93068 0.33471 0.12793 0.0
C649 C 0.90066 0.31917 0.14411 0.0
C650 C 0.90834 0.34226 0.1612 0.0
C651 C 0.87196 0.3182 0.1768 0.0
C652 C 0.89444 0.31854 0.19647 0.0
C653 C 0.84351 0.33283 0.18081 0.0
C654 C 0.84252 0.27791 0.16585 0.0
C655 C 0.85919 0.27915 0.14692 0.0
C656 C 0.83663 0.24577 0.13378 0.0
C657 C 0.79631 0.21018 0.14024 0.0
C658 C 0.77903 0.20781 0.15984 0.0
C659 C 0.80292 0.24255 0.17269 0.0
H660 H 0.07874 0.57861 0.08819 0.0
H661 H 0.09302 0.48851 0.09883 0.0
H662 H 0.10677 0.48491 0.06268 0.0
H663 H 1.01702 0.5363 0.04033 0.0
H664 H 1.04503 0.58275 0.02899 0.0
H665 H 1.03822 0.57983 0.05597 0.0
H666 H 0.12711 0.63412 0.06167 0.0
H667 H 0.13418 0.63728 0.0347 0.0
H668 H 0.16668 0.6278 0.04987 0.0
H669 H 0.11753 0.48971 0.02568 0.0
H670 H 0.12346 0.50195 0.98939 0.0
H671 H 0.10154 0.58845 0.00182 0.0
C672 C 0.08506 0.55836 0.08287 0.0
C673 C 0.08498 0.53392 0.0963 0.0
C674 C 0.093 0.50754 0.08881 0.0
C675 C 0.10089 0.50528 0.0683 0.0
C676 C 0.10047 0.52949 0.0554 0.0
C677 C 0.0927 0.55549 0.0623 0.0
C678 C 0.0929 0.57733 0.04496 0.0
C679 C 1.04547 0.56851 0.04241 0.0
C680 C 0.13258 0.62177 0.04798 0.0
C681 C 0.10174 0.55932 0.02733 0.0
C682 C 0.10625 0.53198 0.03378 0.0
C683 C 0.11434 0.51122 0.02042 0.0
C684 C 0.11793 0.51855 -0.00016 0.0
C685 C 0.11333 0.54636 0.99276 0.0
C686 C 0.10502 0.56692 0.00676 0.0
H687 H 0.65495 0.02683 0.40279 0.0
H688 H 0.54813 0.03501 0.42265 0.0
H689 H 0.5342 0.04253 0.38723 0.0
H690 H 0.7007 0.0951 0.36311 0.0
H691 H 0.70888 0.06611 0.34626 0.0
H692 H 0.71219 0.06391 0.37324 0.0
H693 H 0.64839 0.9882 0.37006 0.0
H694 H 0.64494 0.99015 0.34308 0.0
H695 H 0.59331 0.96766 0.3577 0.0
H696 H 0.53324 0.05013 0.34947 0.0
H697 H 0.53976 0.05059 0.31213 0.0
H698 H 0.64283 0.03218 0.31718 0.0
C699 C 0.62889 0.03052 0.39969 0.0
C700 C 0.60292 0.03083 0.41536 0.0
C701 C 0.56851 0.03496 0.41077 0.0
C702 C 0.56049 0.03933 0.39075 0.0
C703 C 0.58672 0.03887 0.37557 0.0
C704 C 0.61979 0.03405 0.3798 0.0
C705 C 0.64134 0.03216 0.36071 0.0
C706 C 0.69389 0.06636 0.36085 0.0
C707 C 0.63138 0.99216 0.35771 0.0
C708 C 0.61533 0.03673 0.34502 0.0
C709 C 0.58445 0.04115 0.35388 0.0
C710 C 0.55713 0.0465 0.34238 0.0
C711 C 0.56113 0.04687 0.32126 0.0
C712 C 0.59159 0.04124 0.31196 0.0
C713 C 0.61908 0.03628 0.32401 0.0
H714 H 0.52778 0.49191 0.775 0.0
H715 H 0.66652 0.58461 0.79969 0.0
H716 H 0.69165 0.61073 0.76561 0.0
H717 H 0.56364 0.47229 0.73069 0.0
H718 H 0.51669 0.46165 0.71489 0.0
H719 H 0.50859 0.45365 0.7415 0.0
H720 H 0.48493 0.49887 0.7452 0.0
H721 H 0.49284 0.50696 0.71854 0.0
H722 H 0.52357 0.54827 0.73679 0.0
H723 H 0.70226 0.62379 0.72806 0.0
H724 H 0.69841 0.62054 0.69053 0.0
H725 H 0.55333 0.5175 0.69106 0.0
C726 C 0.56326 0.51812 0.77332 0.0
C727 C 0.59512 0.53658 0.78996 0.0
C728 C 0.64144 0.5704 0.78713 0.0
C729 C 0.65597 0.58538 0.76785 0.0
C730 C 0.62373 0.56605 0.75165 0.0
C731 C 0.57834 0.53307 0.75424 0.0
C732 C 0.55131 0.5157 0.7343 0.0
C733 C 0.53407 0.47333 0.73011 0.0
C734 C 0.51077 0.51758 0.73368 0.0
C735 C 0.58874 0.54353 0.71996 0.0
C736 C 0.63012 0.57277 0.7302 0.0
C737 C 0.66993 0.60117 0.71993 0.0
C738 C 0.66743 0.5992 0.69867 0.0
C739 C 0.62564 0.56871 0.688 0.0
C740 C 0.58579 0.54099 0.69887 0.0
H741 H 0.53526 0.01989 0.5431 0.0
H742 H 0.66445 0.04653 0.52296 0.0
H743 H 0.68306 0.04086 0.5578 0.0
H744 H 0.58194 0.07635 0.58987 0.0
H745 H 0.53026 0.04255 0.60377 0.0
H746 H 0.52569 0.0459 0.57701 0.0
H747 H 0.48228 0.97099 0.57139 0.0
H748 H 0.48678 0.96742 0.59815 0.0
H749 H 0.50883 0.95024 0.58038 0.0
H750 H 0.68819 0.03363 0.59508 0.0
H751 H 0.68185 0.02962 0.63227 0.0
H752 H 0.55054 0.00985 0.62805 0.0
C753 C 0.56727 0.0242 0.54601 0.0
C754 C 0.59817 0.03311 0.53034 0.0
C755 C 0.64003 0.03914 0.53474 0.0
C756 C 0.65089 0.036 0.55446 0.0
C757 C 0.61966 0.02715 0.56961 0.0
C758 C 0.57886 0.02161 0.56564 0.0
C759 C 0.55241 0.01445 0.58477 0.0
C760 C 0.5473 0.04674 0.58911 0.0
C761 C 0.50476 0.97332 0.58359 0.0
C762 C 0.58489 0.01717 0.60016 0.0
C763 C 0.62322 0.02406 0.59111 0.0
C764 C 0.65824 0.02811 0.60233 0.0
C765 C 0.65425 0.02559 0.6234 0.0
C766 C 0.61577 0.01948 0.63301 0.0
C767 C 0.58052 0.01483 0.62113 0.0
H768 H 0.64954 0.54057 0.91797 0.0
H769 H 0.51092 0.46149 0.89019 0.0
H770 H 0.48338 0.42042 0.91965 0.0
H771 H 0.64739 0.46463 0.94242 0.0
H772 H 0.67846 0.49575 0.96487 0.0
H773 H 0.68869 0.51722 0.94077 0.0
H774 H 0.66868 0.56125 0.95568 0.0
H775 H 0.65867 0.5401 0.9798 0.0
H776 H 0.61371 0.53871 0.96761 0.0
H777 H 0.46886 0.39149 0.95301 0.0
H778 H 0.46822 0.37704 0.98878 0.0
H779 H 0.61609 0.47341 0.9951 0.0
C780 C 0.61357 0.51434 0.91804 0.0
C781 C 0.58236 0.50404 0.90181 0.0
C782 C 0.53543 0.46978 0.90245 0.0
C783 C 0.51949 0.44618 0.91908 0.0
C784 C 0.55097 0.45716 0.93491 0.0
C785 C 0.59703 0.49036 0.93457 0.0
C786 C 0.62279 0.49677 0.95415 0.0
C787 C 0.66163 0.49338 0.95032 0.0
C788 C 0.64207 0.53656 0.96494 0.0
C789 C 0.58367 0.46261 0.96571 0.0
C790 C 0.54266 0.43994 0.95422 0.0
C791 C 0.50088 0.40853 0.96206 0.0
C792 C 0.50079 0.40054 0.98232 0.0
C793 C 0.54221 0.42374 0.99443 0.0
C794 C 0.5843 0.45464 0.98591 0.0
H795 H 0.12224 0.56302 0.21475 0.0
H796 H 1.05329 0.43884 0.20255 0.0
H797 H 1.02856 0.42603 0.23788 0.0
H798 H 0.16868 0.56994 0.26242 0.0
H799 H 0.16141 0.60409 0.27414 0.0
H800 H 0.16835 0.60322 0.24723 0.0
H801 H 0.09098 0.59192 0.24098 0.0
H802 H 0.08382 0.59294 0.26792 0.0
H803 H 1.03851 0.55121 0.25204 0.0
H804 H 1.01719 0.42701 0.27456 0.0
H805 H 1.02085 0.44167 0.31116 0.0
H806 H 0.09858 0.56566 0.30072 0.0
C807 C 0.10115 0.53312 0.21953 0.0
C808 C 0.08947 0.50183 0.20607 0.0
C809 C 1.06265 0.46315 0.21276 0.0
C810 C 1.04823 0.45556 0.23273 0.0
C811 C 1.06121 0.48706 0.24584 0.0
C812 C 0.08705 0.5251 0.23961 0.0
C813 C 0.09953 0.55388 0.2573 0.0
C814 C 0.15264 0.58458 0.26046 0.0
C815 C 0.07685 0.57365 0.25439 0.0
C816 C 0.07784 0.52617 0.27447 0.0
C817 C 1.05526 0.48772 0.26739 0.0
C818 C 1.03411 0.4569 0.2803 0.0
C819 C 1.03624 0.46554 0.30108 0.0
C820 C 1.05957 0.50475 0.30883 0.0
C821 C 0.08045 0.5354 0.29526 0.0
loop_
_geom_bond_atom_site_label_1
_geom_bond_atom_site_label_2
_geom_bond_distance
_geom_bond_site_symmetry_2
_ccdc_geom_bond_type
Gd0 C3 2.818 . S
Gd0 O20 2.377 . S
Gd0 O22 2.448 . S
Gd0 O23 2.506 . S
Gd0 O24 2.435 . S
Gd0 O25 2.717 . S
Gd0 O27 2.395 1_455 S
Gd0 O31 2.327 . S
Gd1 C12 2.818 1_455 S
Gd1 O21 2.395 . S
Gd1 O25 2.327 . S
Gd1 O26 2.377 1_455 S
Gd1 O28 2.448 1_455 S
Gd1 O29 2.506 1_455 S
Gd1 O30 2.435 . S
Gd1 O31 2.717 . S
C2 O20 1.240 . S
C2 O21 1.240 . S
C3 Gd0 2.818 . S
C3 C4 1.510 . S
C3 O22 1.249 . S
C3 O23 1.252 . S
C4 C3 1.510 . S
C4 C5 1.404 . S
C4 C6 1.352 . S
C5 C4 1.404 . S
C5 C9 1.389 . S
C5 H32 0.930 . S
C6 C4 1.352 . S
C6 C8 1.374 . S
C6 H33 0.931 . S
C7 C8 1.359 . S
C7 C9 1.364 . S
C8 C6 1.374 . S
C8 C7 1.359 . S
C8 H34 0.931 . S
C9 C5 1.389 . S
C9 C7 1.364 . S
C9 H35 0.931 . S
C10 O24 1.256 . S
C10 O25 1.257 . S
C11 O26 1.240 . S
C11 O27 1.240 . S
C12 Gd1 2.818 1_655 S
C12 C13 1.510 . S
C12 O28 1.249 . S
C12 O29 1.252 . S
C13 C12 1.510 . S
C13 C14 1.404 . S
C13 C15 1.352 . S
C14 C13 1.404 . S
C14 C18 1.389 . S
C14 H36 0.930 . S
C15 C13 1.352 . S
C15 C17 1.374 . S
C15 H37 0.931 . S
C16 C17 1.359 . S
C16 C18 1.364 . S
C17 C15 1.374 . S
C17 C16 1.359 . S
C17 H38 0.931 . S
C18 C14 1.389 . S
C18 C16 1.364 . S
C18 H39 0.931 . S
C19 O30 1.256 . S
C19 O31 1.257 . S
O20 Gd0 2.377 . S
O20 C2 1.240 . S
O21 Gd1 2.395 . S
O21 C2 1.240 . S
O22 Gd0 2.448 . S
O22 C3 1.249 . S
O23 Gd0 2.506 . S
O23 C3 1.252 . S
O24 Gd0 2.435 . S
O24 C10 1.256 . S
O25 Gd0 2.717 . S
O25 Gd1 2.327 . S
O25 C10 1.257 . S
O26 Gd1 2.377 1_655 S
O26 C11 1.240 . S
O27 Gd0 2.395 1_655 S
O27 C11 1.240 . S
O28 Gd1 2.448 1_655 S
O28 C12 1.249 . S
O29 Gd1 2.506 1_655 S
O29 C12 1.252 . S
O30 Gd1 2.435 . S
O30 C19 1.256 . S
O31 Gd0 2.327 . S
O31 Gd1 2.717 . S
O31 C19 1.257 . S
H32 C5 0.930 . S
H33 C6 0.931 . S
H34 C8 0.931 . S
H35 C9 0.931 . S
H36 C14 0.930 . S
H37 C15 0.931 . S
H38 C17 0.931 . S
H39 C18 0.931 . S
Gd40 C43 2.818 . S
Gd40 O60 2.377 . S
Gd40 O62 2.448 . S
Gd40 O63 2.506 . S
Gd40 O64 2.435 . S
Gd40 O65 2.717 1_565 S
Gd40 O67 2.395 1_565 S
Gd40 O71 2.327 1_565 S
Gd41 C52 2.818 . S
Gd41 O61 2.395 1_545 S
Gd41 O65 2.327 . S
Gd41 O66 2.377 . S
Gd41 O68 2.448 . S
Gd41 O69 2.506 . S
Gd41 O70 2.435 . S
Gd41 O71 2.717 . S
C42 O60 1.240 . S
C42 O61 1.240 . S
C43 Gd40 2.818 . S
C43 C44 1.510 . S
C43 O62 1.249 . S
C43 O63 1.252 . S
C44 C43 1.510 . S
C44 C45 1.404 . S
C44 C46 1.352 . S
C45 C44 1.404 . S
C45 C49 1.389 . S
C45 H72 0.930 . S
C46 C44 1.352 . S
C46 C48 1.374 . S
C46 H73 0.931 . S
C47 C48 1.359 . S
C47 C49 1.364 . S
C48 C46 1.374 . S
C48 C47 1.359 . S
C48 H74 0.931 . S
C49 C45 1.389 . S
C49 C47 1.364 . S
C49 H75 0.931 . S
C50 O64 1.256 1_545 S
C50 O65 1.257 . S
C51 O66 1.240 . S
C51 O67 1.240 . S
C52 Gd41 2.818 . S
C52 C53 1.510 . S
C52 O68 1.249 . S
C52 O69 1.252 . S
C53 C52 1.510 . S
C53 C54 1.404 . S
C53 C55 1.352 . S
C54 C53 1.404 . S
C54 C58 1.389 . S
C54 H76 0.930 . S
C55 C53 1.352 . S
C55 C57 1.374 . S
C55 H77 0.931 . S
C56 C57 1.359 . S
C56 C58 1.364 . S
C57 C55 1.374 . S
C57 C56 1.359 . S
C57 H78 0.931 . S
C58 C54 1.389 . S
C58 C56 1.364 . S
C58 H79 0.931 . S
C59 O70 1.256 . S
C59 O71 1.257 . S
O60 Gd40 2.377 . S
O60 C42 1.240 . S
O61 Gd41 2.395 1_565 S
O61 C42 1.240 . S
O62 Gd40 2.448 . S
O62 C43 1.249 . S
O63 Gd40 2.506 . S
O63 C43 1.252 . S
O64 Gd40 2.435 . S
O64 C50 1.256 1_565 S
O65 Gd40 2.717 1_545 S
O65 Gd41 2.327 . S
O65 C50 1.257 . S
O66 Gd41 2.377 . S
O66 C51 1.240 . S
O67 Gd40 2.395 1_545 S
O67 C51 1.240 . S
O68 Gd41 2.448 . S
O68 C52 1.249 . S
O69 Gd41 2.506 . S
O69 C52 1.252 . S
O70 Gd41 2.435 . S
O70 C59 1.256 . S
O71 Gd40 2.327 1_545 S
O71 Gd41 2.717 . S
O71 C59 1.257 . S
H72 C45 0.930 . S
H73 C46 0.931 . S
H74 C48 0.931 . S
H75 C49 0.931 . S
H76 C54 0.930 . S
H77 C55 0.931 . S
H78 C57 0.931 . S
H79 C58 0.931 . S
Gd80 C83 2.818 . S
Gd80 O100 2.377 . S
Gd80 O102 2.448 . S
Gd80 O103 2.506 . S
Gd80 O104 2.435 . S
Gd80 O105 2.717 . S
Gd80 O107 2.395 . S
Gd80 O111 2.327 . S
Gd81 C92 2.818 . S
Gd81 O101 2.395 . S
Gd81 O105 2.327 . S
Gd81 O106 2.377 . S
Gd81 O108 2.448 . S
Gd81 O109 2.506 . S
Gd81 O110 2.435 . S
Gd81 O111 2.717 . S
C82 O100 1.240 . S
C82 O101 1.240 . S
C83 Gd80 2.818 . S
C83 C84 1.510 . S
C83 O102 1.249 . S
C83 O103 1.252 . S
C84 C83 1.510 . S
C84 C85 1.404 . S
C84 C86 1.352 . S
C85 C84 1.404 . S
C85 C89 1.389 . S
C85 H112 0.930 . S
C86 C84 1.352 . S
C86 C88 1.374 . S
C86 H113 0.931 . S
C87 C88 1.359 . S
C87 C89 1.364 . S
C88 C86 1.374 . S
C88 C87 1.359 . S
C88 H114 0.931 . S
C89 C85 1.389 . S
C89 C87 1.364 . S
C89 H115 0.931 . S
C90 O104 1.256 . S
C90 O105 1.257 . S
C91 O106 1.240 . S
C91 O107 1.240 . S
C92 Gd81 2.818 . S
C92 C93 1.510 . S
C92 O108 1.249 . S
C92 O109 1.252 . S
C93 C92 1.510 . S
C93 C94 1.404 . S
C93 C95 1.352 . S
C94 C93 1.404 . S
C94 C98 1.389 . S
C94 H116 0.930 . S
C95 C93 1.352 . S
C95 C97 1.374 . S
C95 H117 0.931 . S
C96 C97 1.359 . S
C96 C98 1.364 . S
C97 C95 1.374 . S
C97 C96 1.359 . S
C97 H118 0.931 . S
C98 C94 1.389 . S
C98 C96 1.364 . S
C98 H119 0.931 . S
C99 O110 1.256 . S
C99 O111 1.257 . S
O100 Gd80 2.377 . S
O100 C82 1.240 . S
O101 Gd81 2.395 . S
O101 C82 1.240 . S
O102 Gd80 2.448 . S
O102 C83 1.249 . S
O103 Gd80 2.506 . S
O103 C83 1.252 . S
O104 Gd80 2.435 . S
O104 C90 1.256 . S
O105 Gd80 2.717 . S
O105 Gd81 2.327 . S
O105 C90 1.257 . S
O106 Gd81 2.377 . S
O106 C91 1.240 . S
O107 Gd80 2.395 . S
O107 C91 1.240 . S
O108 Gd81 2.448 . S
O108 C92 1.249 . S
O109 Gd81 2.506 . S
O109 C92 1.252 . S
O110 Gd81 2.435 . S
O110 C99 1.256 . S
O111 Gd80 2.327 . S
O111 Gd81 2.717 . S
O111 C99 1.257 . S
H112 C85 0.930 . S
H113 C86 0.931 . S
H114 C88 0.931 . S
H115 C89 0.931 . S
H116 C94 0.930 . S
H117 C95 0.931 . S
H118 C97 0.931 . S
H119 C98 0.931 . S
C120 C121 1.384 . S
C120 H133 0.947 . S
C120 C155 1.382 . S
C121 C120 1.384 . S
C121 C122 1.378 . S
C122 C121 1.378 . S
C122 C123 1.378 . S
C122 H134 0.952 . S
C123 C122 1.378 . S
C123 H135 0.950 . S
C123 C154 1.383 . S
H124 C143 0.947 . S
H125 C144 0.946 . S
H126 C146 0.953 . S
H127 C147 0.945 . S
H128 C149 0.952 . S
H129 C150 0.949 . S
H130 C152 0.950 . S
H131 C153 0.948 . S
H132 C155 0.951 . S
H133 C120 0.947 . S
H134 C122 0.952 . S
H135 C123 0.950 . S
N136 C139 1.382 . S
N136 C141 1.363 1_545 S
N137 C139 1.371 . S
N137 C140 1.372 . S
N138 C140 1.361 1_565 S
N138 C141 1.377 . S
C139 N136 1.382 . S
C139 N137 1.371 . S
C139 C142 1.480 . S
C140 N137 1.372 . S
C140 N138 1.361 1_545 S
C140 C148 1.457 . S
C141 N136 1.363 1_565 S
C141 N138 1.377 . S
C141 C154 1.479 . S
C142 C139 1.480 . S
C142 C143 1.383 . S
C142 C147 1.385 . S
C143 H124 0.947 . S
C143 C142 1.383 . S
C143 C144 1.388 . S
C144 H125 0.946 . S
C144 C143 1.388 . S
C144 C145 1.384 . S
C145 C144 1.384 . S
C145 C146 1.377 . S
C146 H126 0.953 . S
C146 C145 1.377 . S
C146 C147 1.369 . S
C147 H127 0.945 . S
C147 C142 1.385 . S
C147 C146 1.369 . S
C148 C140 1.457 . S
C148 C149 1.372 . S
C148 C153 1.364 1_545 S
C149 H128 0.952 . S
C149 C148 1.372 . S
C149 C150 1.389 . S
C150 H129 0.949 . S
C150 C149 1.389 . S
C150 C151 1.387 . S
C151 C150 1.387 . S
C151 C152 1.372 1_545 S
C152 H130 0.950 . S
C152 C151 1.372 1_565 S
C152 C153 1.379 . S
C153 H131 0.948 . S
C153 C148 1.364 1_565 S
C153 C152 1.379 . S
C154 C123 1.383 . S
C154 C141 1.479 . S
C154 C155 1.398 . S
C155 C120 1.382 . S
C155 H132 0.951 . S
C155 C154 1.398 . S
C156 C157 1.384 . S
C156 H169 0.947 . S
C156 C191 1.382 . S
C157 C156 1.384 . S
C157 C158 1.378 . S
C158 C157 1.378 . S
C158 C159 1.378 . S
C158 H170 0.952 . S
C159 C158 1.378 . S
C159 H171 0.950 . S
C159 C190 1.383 . S
H160 C179 0.947 . S
H161 C180 0.946 . S
H162 C182 0.953 . S
H163 C183 0.945 . S
H164 C185 0.952 . S
H165 C186 0.949 . S
H166 C188 0.950 . S
H167 C189 0.948 . S
H168 C191 0.951 . S
H169 C156 0.947 . S
H170 C158 0.952 . S
H171 C159 0.950 . S
N172 C175 1.382 . S
N172 C177 1.363 . S
N173 C175 1.371 . S
N173 C176 1.372 . S
N174 C176 1.361 . S
N174 C177 1.377 . S
C175 N172 1.382 . S
C175 N173 1.371 . S
C175 C178 1.480 . S
C176 N173 1.372 . S
C176 N174 1.361 . S
C176 C184 1.457 . S
C177 N172 1.363 . S
C177 N174 1.377 . S
C177 C190 1.479 . S
C178 C175 1.480 . S
C178 C179 1.383 . S
C178 C183 1.385 . S
C179 H160 0.947 . S
C179 C178 1.383 . S
C179 C180 1.388 . S
C180 H161 0.946 . S
C180 C179 1.388 . S
C180 C181 1.384 . S
C181 C180 1.384 . S
C181 C182 1.377 . S
C182 H162 0.953 . S
C182 C181 1.377 . S
C182 C183 1.369 . S
C183 H163 0.945 . S
C183 C178 1.385 . S
C183 C182 1.369 . S
C184 C176 1.457 . S
C184 C185 1.372 . S
C184 C189 1.364 . S
C185 H164 0.952 . S
C185 C184 1.372 . S
C185 C186 1.389 . S
C186 H165 0.949 . S
C186 C185 1.389 . S
C186 C187 1.387 . S
C187 C186 1.387 . S
C187 C188 1.372 . S
C188 H166 0.950 . S
C188 C187 1.372 . S
C188 C189 1.379 . S
C189 H167 0.948 . S
C189 C184 1.364 . S
C189 C188 1.379 . S
C190 C159 1.383 . S
C190 C177 1.479 . S
C190 C191 1.398 . S
C191 C156 1.382 . S
C191 H168 0.951 . S
C191 C190 1.398 . S
C192 C193 1.384 . S
C192 H205 0.947 . S
C192 C227 1.382 . S
C193 C192 1.384 . S
C193 C194 1.378 . S
C194 C193 1.378 . S
C194 C195 1.378 . S
C194 H206 0.952 . S
C195 C194 1.378 . S
C195 H207 0.950 1_655 S
C195 C226 1.383 1_655 S
H196 C215 0.947 . S
H197 C216 0.946 . S
H198 C218 0.953 . S
H199 C219 0.945 . S
H200 C221 0.952 . S
H201 C222 0.949 . S
H202 C224 0.950 1_655 S
H203 C225 0.948 1_655 S
H204 C227 0.951 . S
H205 C192 0.947 . S
H206 C194 0.952 . S
H207 C195 0.950 1_455 S
N208 C211 1.382 . S
N208 C213 1.363 . S
N209 C211 1.371 . S
N209 C212 1.372 . S
N210 C212 1.361 . S
N210 C213 1.377 . S
C211 N208 1.382 . S
C211 N209 1.371 . S
C211 C214 1.480 . S
C212 N209 1.372 . S
C212 N210 1.361 . S
C212 C220 1.457 . S
C213 N208 1.363 . S
C213 N210 1.377 . S
C213 C226 1.476 . S
C214 C211 1.480 . S
C214 C215 1.383 . S
C214 C219 1.385 . S
C215 H196 0.947 . S
C215 C214 1.383 . S
C215 C216 1.388 . S
C216 H197 0.946 . S
C216 C215 1.388 . S
C216 C217 1.384 . S
C217 C216 1.384 . S
C217 C218 1.377 . S
C218 H198 0.953 . S
C218 C217 1.377 . S
C218 C219 1.369 . S
C219 H199 0.945 . S
C219 C214 1.385 . S
C219 C218 1.369 . S
C220 C212 1.457 . S
C220 C221 1.372 . S
C220 C225 1.364 . S
C221 H200 0.952 . S
C221 C220 1.372 . S
C221 C222 1.389 . S
C222 H201 0.949 . S
C222 C221 1.389 . S
C222 C223 1.387 . S
C223 C222 1.387 . S
C223 C224 1.372 . S
C224 H202 0.950 1_455 S
C224 C223 1.372 . S
C224 C225 1.379 . S
C225 H203 0.948 1_455 S
C225 C220 1.364 . S
C225 C224 1.379 . S
C226 C195 1.383 1_455 S
C226 C213 1.476 . S
C226 C227 1.401 1_455 S
C227 C192 1.382 . S
C227 H204 0.951 . S
C227 C226 1.401 1_655 S
C228 C229 1.384 . S
C228 H241 0.947 . S
C228 C263 1.382 . S
C229 C228 1.384 . S
C229 C230 1.378 . S
C230 C229 1.378 . S
C230 C231 1.378 . S
C230 H242 0.952 . S
C231 C230 1.378 . S
C231 H243 0.950 . S
C231 C262 1.383 . S
H232 C251 0.947 . S
H233 C252 0.946 . S
H234 C254 0.953 . S
H235 C255 0.945 . S
H236 C257 0.952 . S
H237 C258 0.949 . S
H238 C260 0.950 . S
H239 C261 0.948 . S
H240 C263 0.951 . S
H241 C228 0.947 . S
H242 C230 0.952 . S
H243 C231 0.950 . S
N244 C247 1.382 1_455 S
N244 C249 1.363 . S
N245 C247 1.371 . S
N245 C248 1.372 1_655 S
N246 C248 1.361 . S
N246 C249 1.377 . S
C247 N244 1.382 1_655 S
C247 N245 1.371 . S
C247 C250 1.480 . S
C248 N245 1.372 1_455 S
C248 N246 1.361 . S
C248 C256 1.457 . S
C249 N244 1.363 . S
C249 N246 1.377 . S
C249 C262 1.479 . S
C250 C247 1.480 . S
C250 C251 1.383 . S
C250 C255 1.385 . S
C251 H232 0.947 . S
C251 C250 1.383 . S
C251 C252 1.388 . S
C252 H233 0.946 . S
C252 C251 1.388 . S
C252 C253 1.384 . S
C253 C252 1.384 . S
C253 C254 1.377 . S
C254 H234 0.953 . S
C254 C253 1.377 . S
C254 C255 1.369 . S
C255 H235 0.945 . S
C255 C250 1.385 . S
C255 C254 1.369 . S
C256 C248 1.457 . S
C256 C257 1.372 1_455 S
C256 C261 1.364 . S
C257 H236 0.952 . S
C257 C256 1.372 1_655 S
C257 C258 1.389 . S
C258 H237 0.949 . S
C258 C257 1.389 . S
C258 C259 1.374 1_655 S
C259 C258 1.374 1_455 S
C259 C260 1.387 . S
C260 H238 0.950 . S
C260 C259 1.387 . S
C260 C261 1.379 . S
C261 H239 0.948 . S
C261 C256 1.364 . S
C261 C260 1.379 . S
C262 C231 1.383 . S
C262 C249 1.479 . S
C262 C263 1.398 . S
C263 C228 1.382 . S
C263 H240 0.951 . S
C263 C262 1.398 . S
C264 C265 1.384 . S
C264 H277 0.947 . S
C264 C299 1.382 . S
C265 C264 1.384 . S
C265 C266 1.378 . S
C266 C265 1.378 . S
C266 C267 1.378 . S
C266 H278 0.952 . S
C267 C266 1.378 . S
C267 H279 0.950 . S
C267 C298 1.383 . S
H268 C287 0.947 . S
H269 C288 0.946 . S
H270 C290 0.953 . S
H271 C291 0.945 . S
H272 C293 0.952 . S
H273 C294 0.949 . S
H274 C296 0.950 . S
H275 C297 0.948 . S
H276 C299 0.951 . S
H277 C264 0.947 . S
H278 C266 0.952 . S
H279 C267 0.950 . S
N280 C283 1.382 1_545 S
N280 C285 1.363 . S
N281 C283 1.371 . S
N281 C284 1.372 1_565 S
N282 C284 1.361 . S
N282 C285 1.377 . S
C283 N280 1.382 1_565 S
C283 N281 1.371 . S
C283 C286 1.480 . S
C284 N281 1.372 1_545 S
C284 N282 1.361 . S
C284 C292 1.457 . S
C285 N280 1.363 . S
C285 N282 1.377 . S
C285 C298 1.479 . S
C286 C283 1.480 . S
C286 C287 1.383 . S
C286 C291 1.385 . S
C287 H268 0.947 . S
C287 C286 1.383 . S
C287 C288 1.388 . S
C288 H269 0.946 . S
C288 C287 1.388 . S
C288 C289 1.384 . S
C289 C288 1.384 . S
C289 C290 1.377 . S
C290 H270 0.953 . S
C290 C289 1.377 . S
C290 C291 1.369 . S
C291 H271 0.945 . S
C291 C286 1.385 . S
C291 C290 1.369 . S
C292 C284 1.457 . S
C292 C293 1.372 1_545 S
C292 C297 1.364 . S
C293 H272 0.952 . S
C293 C292 1.372 1_565 S
C293 C294 1.389 . S
C294 H273 0.949 . S
C294 C293 1.389 . S
C294 C295 1.387 . S
C295 C294 1.387 . S
C295 C296 1.372 1_565 S
C296 H274 0.950 . S
C296 C295 1.372 1_545 S
C296 C297 1.379 . S
C297 H275 0.948 . S
C297 C292 1.364 . S
C297 C296 1.379 . S
C298 C267 1.383 . S
C298 C285 1.479 . S
C298 C299 1.398 . S
C299 C264 1.382 . S
C299 H276 0.951 . S
C299 C298 1.398 . S
C300 C301 1.384 . S
C300 H313 0.947 . S
C300 C335 1.382 . S
C301 C300 1.384 . S
C301 C302 1.378 . S
C302 C301 1.378 . S
C302 C303 1.378 . S
C302 H314 0.952 . S
C303 C302 1.378 . S
C303 H315 0.950 . S
C303 C334 1.383 . S
H304 C323 0.947 . S
H305 C324 0.946 . S
H306 C326 0.953 . S
H307 C327 0.945 . S
H308 C329 0.952 . S
H309 C330 0.949 . S
H310 C332 0.950 . S
H311 C333 0.948 . S
H312 C335 0.951 . S
H313 C300 0.947 . S
H314 C302 0.952 . S
H315 C303 0.950 . S
N316 C319 1.382 . S
N316 C321 1.363 . S
N317 C319 1.371 . S
N317 C320 1.372 . S
N318 C320 1.361 . S
N318 C321 1.377 . S
C319 N316 1.382 . S
C319 N317 1.371 . S
C319 C322 1.480 . S
C320 N317 1.372 . S
C320 N318 1.361 . S
C320 C328 1.457 . S
C321 N316 1.363 . S
C321 N318 1.377 . S
C321 C334 1.479 . S
C322 C319 1.480 . S
C322 C323 1.383 . S
C322 C327 1.385 . S
C323 H304 0.947 . S
C323 C322 1.383 . S
C323 C324 1.388 . S
C324 H305 0.946 . S
C324 C323 1.388 . S
C324 C325 1.384 . S
C325 C324 1.384 . S
C325 C326 1.377 . S
C326 H306 0.953 . S
C326 C325 1.377 . S
C326 C327 1.369 . S
C327 H307 0.945 . S
C327 C322 1.385 . S
C327 C326 1.369 . S
C328 C320 1.457 . S
C328 C329 1.372 . S
C328 C333 1.364 . S
C329 H308 0.952 . S
C329 C328 1.372 . S
C329 C330 1.389 . S
C330 H309 0.949 . S
C330 C329 1.389 . S
C330 C331 1.387 . S
C331 C330 1.387 . S
C331 C332 1.372 . S
C332 H310 0.950 . S
C332 C331 1.372 . S
C332 C333 1.379 . S
C333 H311 0.948 . S
C333 C328 1.364 . S
C333 C332 1.379 . S
C334 C303 1.383 . S
C334 C321 1.479 . S
C334 C335 1.398 . S
C335 C300 1.382 . S
C335 H312 0.951 . S
C335 C334 1.398 . S
H336 C348 0.930 . S
H337 C350 0.930 . S
H338 C351 0.930 . S
H339 C355 0.959 . S
H340 C355 0.959 . S
H341 C355 0.961 . S
H342 C356 0.960 . S
H343 C356 0.961 . S
H344 C356 0.959 . S
H345 C359 0.929 . S
H346 C360 0.931 . S
H347 C362 0.930 . S
C348 H336 0.930 . S
C348 C349 1.399 . S
C348 C353 1.399 . S
C349 C348 1.399 . S
C349 C350 1.376 . S
C350 H337 0.930 . S
C350 C349 1.376 . S
C350 C351 1.388 . S
C351 H338 0.930 . S
C351 C350 1.388 . S
C351 C352 1.390 . S
C352 C351 1.390 . S
C352 C353 1.394 . S
C352 C358 1.465 . S
C353 C348 1.399 . S
C353 C352 1.394 . S
C353 C354 1.516 . S
C354 C353 1.516 . S
C354 C355 1.502 . S
C354 C356 1.561 . S
C354 C357 1.526 . S
C355 H339 0.959 . S
C355 H340 0.959 . S
C355 H341 0.961 . S
C355 C354 1.502 . S
C356 H342 0.960 . S
C356 H343 0.961 . S
C356 H344 0.959 . S
C356 C354 1.561 . S
C357 C354 1.526 . S
C357 C358 1.396 . S
C357 C362 1.390 . S
C358 C352 1.465 . S
C358 C357 1.396 . S
C358 C359 1.399 . S
C359 H345 0.929 . S
C359 C358 1.399 . S
C359 C360 1.385 . S
C360 H346 0.931 . S
C360 C359 1.385 . S
C360 C361 1.389 . S
C361 C360 1.389 . S
C361 C362 1.387 . S
C362 H347 0.930 . S
C362 C357 1.390 . S
C362 C361 1.387 . S
H363 C375 0.930 . S
H364 C377 0.930 . S
H365 C378 0.930 . S
H366 C382 0.959 . S
H367 C382 0.959 . S
H368 C382 0.961 . S
H369 C383 0.960 . S
H370 C383 0.961 . S
H371 C383 0.959 . S
H372 C386 0.929 . S
H373 C387 0.931 . S
H374 C389 0.930 . S
C375 H363 0.930 . S
C375 C376 1.399 . S
C375 C380 1.399 . S
C376 C375 1.399 . S
C376 C377 1.376 . S
C377 H364 0.930 . S
C377 C376 1.376 . S
C377 C378 1.388 . S
C378 H365 0.930 . S
C378 C377 1.388 . S
C378 C379 1.390 . S
C379 C378 1.390 . S
C379 C380 1.394 . S
C379 C385 1.465 . S
C380 C375 1.399 . S
C380 C379 1.394 . S
C380 C381 1.516 . S
C381 C380 1.516 . S
C381 C382 1.502 . S
C381 C383 1.561 . S
C381 C384 1.526 . S
C382 H366 0.959 . S
C382 H367 0.959 . S
C382 H368 0.961 . S
C382 C381 1.502 . S
C383 H369 0.960 . S
C383 H370 0.961 . S
C383 H371 0.959 . S
C383 C381 1.561 . S
C384 C381 1.526 . S
C384 C385 1.396 . S
C384 C389 1.390 . S
C385 C379 1.465 . S
C385 C384 1.396 . S
C385 C386 1.399 . S
C386 H372 0.929 . S
C386 C385 1.399 . S
C386 C387 1.385 . S
C387 H373 0.931 . S
C387 C386 1.385 . S
C387 C388 1.389 . S
C388 C387 1.389 . S
C388 C389 1.387 . S
C389 H374 0.930 . S
C389 C384 1.390 . S
C389 C388 1.387 . S
H390 C402 0.930 . S
H391 C404 0.930 . S
H392 C405 0.930 . S
H393 C409 0.959 . S
H394 C409 0.959 . S
H395 C409 0.961 . S
H396 C410 0.960 . S
H397 C410 0.961 . S
H398 C410 0.959 . S
H399 C413 0.929 . S
H400 C414 0.931 . S
H401 C416 0.930 . S
C402 H390 0.930 . S
C402 C403 1.399 . S
C402 C407 1.399 . S
C403 C402 1.399 . S
C403 C404 1.376 . S
C404 H391 0.930 . S
C404 C403 1.376 . S
C404 C405 1.388 . S
C405 H392 0.930 . S
C405 C404 1.388 . S
C405 C406 1.390 . S
C406 C405 1.390 . S
C406 C407 1.394 . S
C406 C412 1.465 . S
C407 C402 1.399 . S
C407 C406 1.394 . S
C407 C408 1.516 . S
C408 C407 1.516 . S
C408 C409 1.502 . S
C408 C410 1.561 . S
C408 C411 1.526 . S
C409 H393 0.959 . S
C409 H394 0.959 . S
C409 H395 0.961 . S
C409 C408 1.502 . S
C410 H396 0.960 . S
C410 H397 0.961 . S
C410 H398 0.959 . S
C410 C408 1.561 . S
C411 C408 1.526 . S
C411 C412 1.396 . S
C411 C416 1.390 . S
C412 C406 1.465 . S
C412 C411 1.396 . S
C412 C413 1.399 . S
C413 H399 0.929 . S
C413 C412 1.399 . S
C413 C414 1.385 . S
C414 H400 0.931 . S
C414 C413 1.385 . S
C414 C415 1.389 . S
C415 C414 1.389 . S
C415 C416 1.387 . S
C416 H401 0.930 . S
C416 C411 1.390 . S
C416 C415 1.387 . S
H417 C429 0.930 . S
H418 C431 0.930 . S
H419 C432 0.930 . S
H420 C436 0.959 . S
H421 C436 0.959 . S
H422 C436 0.961 . S
H423 C437 0.960 . S
H424 C437 0.961 . S
H425 C437 0.959 . S
H426 C440 0.929 . S
H427 C441 0.931 . S
H428 C443 0.930 . S
C429 H417 0.930 . S
C429 C430 1.399 . S
C429 C434 1.399 . S
C430 C429 1.399 . S
C430 C431 1.376 . S
C431 H418 0.930 . S
C431 C430 1.376 . S
C431 C432 1.388 . S
C432 H419 0.930 . S
C432 C431 1.388 . S
C432 C433 1.390 . S
C433 C432 1.390 . S
C433 C434 1.394 . S
C433 C439 1.465 . S
C434 C429 1.399 . S
C434 C433 1.394 . S
C434 C435 1.516 . S
C435 C434 1.516 . S
C435 C436 1.502 . S
C435 C437 1.561 . S
C435 C438 1.526 . S
C436 H420 0.959 . S
C436 H421 0.959 . S
C436 H422 0.961 . S
C436 C435 1.502 . S
C437 H423 0.960 . S
C437 H424 0.961 . S
C437 H425 0.959 . S
C437 C435 1.561 . S
C438 C435 1.526 . S
C438 C439 1.396 . S
C438 C443 1.390 . S
C439 C433 1.465 . S
C439 C438 1.396 . S
C439 C440 1.399 . S
C440 H426 0.929 . S
C440 C439 1.399 . S
C440 C441 1.385 . S
C441 H427 0.931 . S
C441 C440 1.385 . S
C441 C442 1.389 . S
C442 C441 1.389 . S
C442 C443 1.387 . S
C443 H428 0.930 . S
C443 C438 1.390 . S
C443 C442 1.387 . S
H444 C456 0.930 . S
H445 C458 0.930 . S
H446 C459 0.930 . S
H447 C463 0.959 . S
H448 C463 0.959 . S
H449 C463 0.961 . S
H450 C464 0.960 . S
H451 C464 0.961 . S
H452 C464 0.959 . S
H453 C467 0.929 . S
H454 C468 0.931 . S
H455 C470 0.930 . S
C456 H444 0.930 . S
C456 C457 1.399 . S
C456 C461 1.399 . S
C457 C456 1.399 . S
C457 C458 1.376 . S
C458 H445 0.930 . S
C458 C457 1.376 . S
C458 C459 1.388 . S
C459 H446 0.930 . S
C459 C458 1.388 . S
C459 C460 1.390 . S
C460 C459 1.390 . S
C460 C461 1.394 . S
C460 C466 1.465 . S
C461 C456 1.399 . S
C461 C460 1.394 . S
C461 C462 1.516 . S
C462 C461 1.516 . S
C462 C463 1.502 . S
C462 C464 1.561 . S
C462 C465 1.526 . S
C463 H447 0.959 . S
C463 H448 0.959 . S
C463 H449 0.961 . S
C463 C462 1.502 . S
C464 H450 0.960 . S
C464 H451 0.961 . S
C464 H452 0.959 . S
C464 C462 1.561 . S
C465 C462 1.526 . S
C465 C466 1.396 . S
C465 C470 1.390 . S
C466 C460 1.465 . S
C466 C465 1.396 . S
C466 C467 1.399 . S
C467 H453 0.929 . S
C467 C466 1.399 . S
C467 C468 1.385 . S
C468 H454 0.931 . S
C468 C467 1.385 . S
C468 C469 1.389 . S
C469 C468 1.389 . S
C469 C470 1.387 . S
C470 H455 0.930 . S
C470 C465 1.390 . S
C470 C469 1.387 . S
H471 C483 0.930 . S
H472 C485 0.930 . S
H473 C486 0.930 . S
H474 C490 0.959 . S
H475 C490 0.959 . S
H476 C490 0.961 . S
H477 C491 0.960 . S
H478 C491 0.961 . S
H479 C491 0.959 . S
H480 C494 0.929 . S
H481 C495 0.931 . S
H482 C497 0.930 . S
C483 H471 0.930 . S
C483 C484 1.399 . S
C483 C488 1.399 . S
C484 C483 1.399 . S
C484 C485 1.376 . S
C485 H472 0.930 . S
C485 C484 1.376 . S
C485 C486 1.388 . S
C486 H473 0.930 . S
C486 C485 1.388 . S
C486 C487 1.390 . S
C487 C486 1.390 . S
C487 C488 1.394 . S
C487 C493 1.465 . S
C488 C483 1.399 . S
C488 C487 1.394 . S
C488 C489 1.516 . S
C489 C488 1.516 . S
C489 C490 1.502 . S
C489 C491 1.561 . S
C489 C492 1.526 . S
C490 H474 0.959 . S
C490 H475 0.959 . S
C490 H476 0.961 . S
C490 C489 1.502 . S
C491 H477 0.960 . S
C491 H478 0.961 . S
C491 H479 0.959 . S
C491 C489 1.561 . S
C492 C489 1.526 . S
C492 C493 1.396 . S
C492 C497 1.390 . S
C493 C487 1.465 . S
C493 C492 1.396 . S
C493 C494 1.399 . S
C494 H480 0.929 . S
C494 C493 1.399 . S
C494 C495 1.385 . S
C495 H481 0.931 . S
C495 C494 1.385 . S
C495 C496 1.389 . S
C496 C495 1.389 . S
C496 C497 1.387 . S
C497 H482 0.930 . S
C497 C492 1.390 . S
C497 C496 1.387 . S
H498 C510 0.930 . S
H499 C512 0.930 . S
H500 C513 0.930 . S
H501 C517 0.959 . S
H502 C517 0.959 . S
H503 C517 0.961 . S
H504 C518 0.960 . S
H505 C518 0.961 . S
H506 C518 0.959 . S
H507 C521 0.929 . S
H508 C522 0.931 . S
H509 C524 0.930 . S
C510 H498 0.930 . S
C510 C511 1.399 . S
C510 C515 1.399 . S
C511 C510 1.399 . S
C511 C512 1.376 . S
C512 H499 0.930 . S
C512 C511 1.376 . S
C512 C513 1.388 . S
C513 H500 0.930 . S
C513 C512 1.388 . S
C513 C514 1.390 . S
C514 C513 1.390 . S
C514 C515 1.394 . S
C514 C520 1.465 . S
C515 C510 1.399 . S
C515 C514 1.394 . S
C515 C516 1.516 . S
C516 C515 1.516 . S
C516 C517 1.502 . S
C516 C518 1.561 . S
C516 C519 1.526 . S
C517 H501 0.959 . S
C517 H502 0.959 . S
C517 H503 0.961 . S
C517 C516 1.502 . S
C518 H504 0.960 . S
C518 H505 0.961 . S
C518 H506 0.959 . S
C518 C516 1.561 . S
C519 C516 1.526 . S
C519 C520 1.396 . S
C519 C524 1.390 . S
C520 C514 1.465 . S
C520 C519 1.396 . S
C520 C521 1.399 . S
C521 H507 0.929 . S
C521 C520 1.399 . S
C521 C522 1.385 . S
C522 H508 0.931 . S
C522 C521 1.385 . S
C522 C523 1.389 . S
C523 C522 1.389 . S
C523 C524 1.387 . S
C524 H509 0.930 . S
C524 C519 1.390 . S
C524 C523 1.387 . S
H525 C537 0.930 . S
H526 C539 0.930 . S
H527 C540 0.930 . S
H528 C544 0.959 . S
H529 C544 0.959 . S
H530 C544 0.961 . S
H531 C545 0.960 . S
H532 C545 0.961 . S
H533 C545 0.959 . S
H534 C548 0.929 . S
H535 C549 0.931 . S
H536 C551 0.930 . S
C537 H525 0.930 . S
C537 C538 1.399 . S
C537 C542 1.399 . S
C538 C537 1.399 . S
C538 C539 1.376 . S
C539 H526 0.930 . S
C539 C538 1.376 . S
C539 C540 1.388 . S
C540 H527 0.930 . S
C540 C539 1.388 . S
C540 C541 1.390 . S
C541 C540 1.390 . S
C541 C542 1.394 . S
C541 C547 1.465 . S
C542 C537 1.399 . S
C542 C541 1.394 . S
C542 C543 1.516 . S
C543 C542 1.516 . S
C543 C544 1.502 . S
C543 C545 1.561 . S
C543 C546 1.526 . S
C544 H528 0.959 . S
C544 H529 0.959 . S
C544 H530 0.961 . S
C544 C543 1.502 . S
C545 H531 0.960 . S
C545 H532 0.961 . S
C545 H533 0.959 . S
C545 C543 1.561 . S
C546 C543 1.526 . S
C546 C547 1.396 . S
C546 C551 1.390 . S
C547 C541 1.465 . S
C547 C546 1.396 . S
C547 C548 1.399 . S
C548 H534 0.929 . S
C548 C547 1.399 . S
C548 C549 1.385 . S
C549 H535 0.931 . S
C549 C548 1.385 . S
C549 C550 1.389 . S
C550 C549 1.389 . S
C550 C551 1.387 . S
C551 H536 0.930 . S
C551 C546 1.390 . S
C551 C550 1.387 . S
H552 C564 0.930 . S
H553 C566 0.930 . S
H554 C567 0.930 . S
H555 C571 0.959 . S
H556 C571 0.959 . S
H557 C571 0.961 . S
H558 C572 0.960 . S
H559 C572 0.961 . S
H560 C572 0.959 . S
H561 C575 0.929 . S
H562 C576 0.931 . S
H563 C578 0.930 . S
C564 H552 0.930 . S
C564 C565 1.399 . S
C564 C569 1.399 . S
C565 C564 1.399 . S
C565 C566 1.376 . S
C566 H553 0.930 . S
C566 C565 1.376 . S
C566 C567 1.388 . S
C567 H554 0.930 . S
C567 C566 1.388 . S
C567 C568 1.390 . S
C568 C567 1.390 . S
C568 C569 1.394 . S
C568 C574 1.465 . S
C569 C564 1.399 . S
C569 C568 1.394 . S
C569 C570 1.516 . S
C570 C569 1.516 . S
C570 C571 1.502 . S
C570 C572 1.561 . S
C570 C573 1.526 . S
C571 H555 0.959 . S
C571 H556 0.959 . S
C571 H557 0.961 . S
C571 C570 1.502 . S
C572 H558 0.960 . S
C572 H559 0.961 . S
C572 H560 0.959 . S
C572 C570 1.561 . S
C573 C570 1.526 . S
C573 C574 1.396 . S
C573 C578 1.390 . S
C574 C568 1.465 . S
C574 C573 1.396 . S
C574 C575 1.399 . S
C575 H561 0.929 . S
C575 C574 1.399 . S
C575 C576 1.385 . S
C576 H562 0.931 . S
C576 C575 1.385 . S
C576 C577 1.389 . S
C577 C576 1.389 . S
C577 C578 1.387 . S
C578 H563 0.930 . S
C578 C573 1.390 . S
C578 C577 1.387 . S
H579 C591 0.930 . S
H580 C593 0.930 . S
H581 C594 0.930 . S
H582 C598 0.959 . S
H583 C598 0.959 . S
H584 C598 0.961 . S
H585 C599 0.960 . S
H586 C599 0.961 . S
H587 C599 0.959 . S
H588 C602 0.929 . S
H589 C603 0.931 . S
H590 C605 0.930 . S
C591 H579 0.930 . S
C591 C592 1.399 . S
C591 C596 1.399 . S
C592 C591 1.399 . S
C592 C593 1.376 . S
C593 H580 0.930 . S
C593 C592 1.376 . S
C593 C594 1.388 . S
C594 H581 0.930 . S
C594 C593 1.388 . S
C594 C595 1.390 . S
C595 C594 1.390 . S
C595 C596 1.394 . S
C595 C601 1.465 . S
C596 C591 1.399 . S
C596 C595 1.394 . S
C596 C597 1.516 . S
C597 C596 1.516 . S
C597 C598 1.502 . S
C597 C599 1.561 . S
C597 C600 1.526 . S
C598 H582 0.959 . S
C598 H583 0.959 . S
C598 H584 0.961 . S
C598 C597 1.502 . S
C599 H585 0.960 . S
C599 H586 0.961 . S
C599 H587 0.959 . S
C599 C597 1.561 . S
C600 C597 1.526 . S
C600 C601 1.396 . S
C600 C605 1.390 . S
C601 C595 1.465 . S
C601 C600 1.396 . S
C601 C602 1.399 . S
C602 H588 0.929 . S
C602 C601 1.399 . S
C602 C603 1.385 . S
C603 H589 0.931 . S
C603 C602 1.385 . S
C603 C604 1.389 . S
C604 C603 1.389 . S
C604 C605 1.387 . S
C605 H590 0.930 . S
C605 C600 1.390 . S
C605 C604 1.387 . S
H606 C618 0.930 . S
H607 C620 0.930 . S
H608 C621 0.930 . S
H609 C625 0.959 . S
H610 C625 0.959 . S
H611 C625 0.961 . S
H612 C626 0.960 . S
H613 C626 0.961 . S
H614 C626 0.959 . S
H615 C629 0.929 . S
H616 C630 0.931 . S
H617 C632 0.930 . S
C618 H606 0.930 . S
C618 C619 1.399 . S
C618 C623 1.399 . S
C619 C618 1.399 . S
C619 C620 1.376 . S
C620 H607 0.930 . S
C620 C619 1.376 . S
C620 C621 1.388 . S
C621 H608 0.930 . S
C621 C620 1.388 . S
C621 C622 1.390 . S
C622 C621 1.390 . S
C622 C623 1.394 . S
C622 C628 1.465 . S
C623 C618 1.399 . S
C623 C622 1.394 . S
C623 C624 1.516 . S
C624 C623 1.516 . S
C624 C625 1.502 . S
C624 C626 1.561 . S
C624 C627 1.526 . S
C625 H609 0.959 . S
C625 H610 0.959 . S
C625 H611 0.961 . S
C625 C624 1.502 . S
C626 H612 0.960 . S
C626 H613 0.961 . S
C626 H614 0.959 . S
C626 C624 1.561 . S
C627 C624 1.526 . S
C627 C628 1.396 . S
C627 C632 1.390 . S
C628 C622 1.465 . S
C628 C627 1.396 . S
C628 C629 1.399 . S
C629 H615 0.929 . S
C629 C628 1.399 . S
C629 C630 1.385 . S
C630 H616 0.931 . S
C630 C629 1.385 . S
C630 C631 1.389 . S
C631 C630 1.389 . S
C631 C632 1.387 . S
C632 H617 0.930 . S
C632 C627 1.390 . S
C632 C631 1.387 . S
H633 C645 0.930 . S
H634 C647 0.930 . S
H635 C648 0.930 . S
H636 C652 0.959 . S
H637 C652 0.959 . S
H638 C652 0.961 . S
H639 C653 0.960 . S
H640 C653 0.961 . S
H641 C653 0.959 . S
H642 C656 0.929 . S
H643 C657 0.931 . S
H644 C659 0.930 . S
C645 H633 0.930 . S
C645 C646 1.399 . S
C645 C650 1.399 . S
C646 C645 1.399 . S
C646 C647 1.376 . S
C647 H634 0.930 . S
C647 C646 1.376 . S
C647 C648 1.388 . S
C648 H635 0.930 . S
C648 C647 1.388 . S
C648 C649 1.390 . S
C649 C648 1.390 . S
C649 C650 1.394 . S
C649 C655 1.465 . S
C650 C645 1.399 . S
C650 C649 1.394 . S
C650 C651 1.516 . S
C651 C650 1.516 . S
C651 C652 1.502 . S
C651 C653 1.561 . S
C651 C654 1.526 . S
C652 H636 0.959 . S
C652 H637 0.959 . S
C652 H638 0.961 . S
C652 C651 1.502 . S
C653 H639 0.960 . S
C653 H640 0.961 . S
C653 H641 0.959 . S
C653 C651 1.561 . S
C654 C651 1.526 . S
C654 C655 1.396 . S
C654 C659 1.390 . S
C655 C649 1.465 . S
C655 C654 1.396 . S
C655 C656 1.399 . S
C656 H642 0.929 . S
C656 C655 1.399 . S
C656 C657 1.385 . S
C657 H643 0.931 . S
C657 C656 1.385 . S
C657 C658 1.389 . S
C658 C657 1.389 . S
C658 C659 1.387 . S
C659 H644 0.930 . S
C659 C654 1.390 . S
C659 C658 1.387 . S
H660 C672 0.930 . S
H661 C674 0.930 . S
H662 C675 0.930 . S
H663 C679 0.959 . S
H664 C679 0.959 . S
H665 C679 0.961 . S
H666 C680 0.960 . S
H667 C680 0.961 . S
H668 C680 0.959 . S
H669 C683 0.929 . S
H670 C684 0.931 1_656 S
H671 C686 0.930 . S
C672 H660 0.930 . S
C672 C673 1.399 . S
C672 C677 1.399 . S
C673 C672 1.399 . S
C673 C674 1.376 1_455 S
C674 H661 0.930 . S
C674 C673 1.376 1_655 S
C674 C675 1.388 . S
C675 H662 0.930 . S
C675 C674 1.388 . S
C675 C676 1.390 1_655 S
C676 C675 1.390 1_455 S
C676 C677 1.394 . S
C676 C682 1.465 . S
C677 C672 1.399 . S
C677 C676 1.394 . S
C677 C678 1.516 . S
C678 C677 1.516 . S
C678 C679 1.502 . S
C678 C680 1.561 . S
C678 C681 1.526 . S
C679 H663 0.959 . S
C679 H664 0.959 . S
C679 H665 0.961 . S
C679 C678 1.502 . S
C680 H666 0.960 . S
C680 H667 0.961 . S
C680 H668 0.959 . S
C680 C678 1.561 . S
C681 C678 1.526 . S
C681 C682 1.396 . S
C681 C686 1.390 . S
C682 C676 1.465 . S
C682 C681 1.396 . S
C682 C683 1.399 1_455 S
C683 H669 0.929 . S
C683 C682 1.399 1_655 S
C683 C684 1.385 1_655 S
C684 H670 0.931 1_454 S
C684 C683 1.385 1_455 S
C684 C685 1.400 . S
C685 C684 1.400 . S
C685 C686 1.414 . S
C686 H671 0.930 . S
C686 C681 1.390 . S
C686 C685 1.414 . S
H687 C699 0.930 . S
H688 C701 0.930 . S
H689 C702 0.930 . S
H690 C706 0.959 . S
H691 C706 0.959 . S
H692 C706 0.961 . S
H693 C707 0.960 . S
H694 C707 0.961 . S
H695 C707 0.959 . S
H696 C710 0.929 . S
H697 C711 0.931 . S
H698 C713 0.930 1_565 S
C699 H687 0.930 . S
C699 C700 1.399 1_565 S
C699 C704 1.399 1_565 S
C700 C699 1.399 1_545 S
C700 C701 1.376 . S
C701 H688 0.930 . S
C701 C700 1.376 . S
C701 C702 1.388 . S
C702 H689 0.930 . S
C702 C701 1.388 . S
C702 C703 1.390 . S
C703 C702 1.390 . S
C703 C704 1.394 . S
C703 C709 1.465 . S
C704 C699 1.399 1_545 S
C704 C703 1.394 . S
C704 C705 1.516 1_545 S
C705 C704 1.516 1_565 S
C705 C706 1.502 . S
C705 C707 1.561 . S
C705 C708 1.526 1_565 S
C706 H690 0.959 . S
C706 H691 0.959 . S
C706 H692 0.961 . S
C706 C705 1.502 . S
C707 H693 0.960 . S
C707 H694 0.961 . S
C707 H695 0.959 . S
C707 C705 1.561 . S
C708 C705 1.526 1_545 S
C708 C709 1.396 . S
C708 C713 1.390 . S
C709 C703 1.465 . S
C709 C708 1.396 . S
C709 C710 1.399 . S
C710 H696 0.929 . S
C710 C709 1.399 . S
C710 C711 1.385 . S
C711 H697 0.931 . S
C711 C710 1.385 . S
C711 C712 1.389 . S
C712 C711 1.389 . S
C712 C713 1.387 . S
C713 H698 0.930 1_545 S
C713 C708 1.390 . S
C713 C712 1.387 . S
H714 C726 0.930 . S
H715 C728 0.930 . S
H716 C729 0.930 . S
H717 C733 0.959 . S
H718 C733 0.959 . S
H719 C733 0.961 . S
H720 C734 0.960 . S
H721 C734 0.961 . S
H722 C734 0.959 . S
H723 C737 0.929 . S
H724 C738 0.931 . S
H725 C740 0.930 . S
C726 H714 0.930 . S
C726 C727 1.399 . S
C726 C731 1.399 . S
C727 C726 1.399 . S
C727 C728 1.376 . S
C728 H715 0.930 . S
C728 C727 1.376 . S
C728 C729 1.388 . S
C729 H716 0.930 . S
C729 C728 1.388 . S
C729 C730 1.390 . S
C730 C729 1.390 . S
C730 C731 1.394 . S
C730 C736 1.465 . S
C731 C726 1.399 . S
C731 C730 1.394 . S
C731 C732 1.516 . S
C732 C731 1.516 . S
C732 C733 1.502 . S
C732 C734 1.561 . S
C732 C735 1.526 . S
C733 H717 0.959 . S
C733 H718 0.959 . S
C733 H719 0.961 . S
C733 C732 1.502 . S
C734 H720 0.960 . S
C734 H721 0.961 . S
C734 H722 0.959 . S
C734 C732 1.561 . S
C735 C732 1.526 . S
C735 C736 1.396 . S
C735 C740 1.390 . S
C736 C730 1.465 . S
C736 C735 1.396 . S
C736 C737 1.399 . S
C737 H723 0.929 . S
C737 C736 1.399 . S
C737 C738 1.385 . S
C738 H724 0.931 . S
C738 C737 1.385 . S
C738 C739 1.389 . S
C739 C738 1.389 . S
C739 C740 1.387 . S
C740 H725 0.930 . S
C740 C735 1.390 . S
C740 C739 1.387 . S
H741 C753 0.930 . S
H742 C755 0.930 . S
H743 C756 0.930 . S
H744 C760 0.959 . S
H745 C760 0.959 . S
H746 C760 0.961 . S
H747 C761 0.960 . S
H748 C761 0.961 . S
H749 C761 0.959 . S
H750 C764 0.929 . S
H751 C765 0.931 . S
H752 C767 0.930 . S
C753 H741 0.930 . S
C753 C754 1.399 1_565 S
C753 C758 1.399 . S
C754 C753 1.399 1_545 S
C754 C755 1.376 . S
C755 H742 0.930 . S
C755 C754 1.376 . S
C755 C756 1.388 . S
C756 H743 0.930 . S
C756 C755 1.388 . S
C756 C757 1.390 . S
C757 C756 1.390 . S
C757 C758 1.394 1_545 S
C757 C763 1.465 . S
C758 C753 1.399 . S
C758 C757 1.394 1_565 S
C758 C759 1.516 . S
C759 C758 1.516 . S
C759 C760 1.502 . S
C759 C761 1.561 . S
C759 C762 1.526 . S
C760 H744 0.959 . S
C760 H745 0.959 . S
C760 H746 0.961 . S
C760 C759 1.502 . S
C761 H747 0.960 . S
C761 H748 0.961 . S
C761 H749 0.959 . S
C761 C759 1.561 . S
C762 C759 1.526 . S
C762 C763 1.396 1_565 S
C762 C767 1.390 . S
C763 C757 1.465 . S
C763 C762 1.396 1_545 S
C763 C764 1.399 . S
C764 H750 0.929 . S
C764 C763 1.399 . S
C764 C765 1.385 . S
C765 H751 0.931 . S
C765 C764 1.385 . S
C765 C766 1.389 1_545 S
C766 C765 1.389 1_565 S
C766 C767 1.387 . S
C767 H752 0.930 . S
C767 C762 1.390 . S
C767 C766 1.387 . S
H768 C780 0.930 . S
H769 C782 0.930 . S
H770 C783 0.930 . S
H771 C787 0.959 . S
H772 C787 0.959 . S
H773 C787 0.961 . S
H774 C788 0.960 . S
H775 C788 0.961 . S
H776 C788 0.959 . S
H777 C791 0.929 . S
H778 C792 0.931 . S
H779 C794 0.930 . S
C780 H768 0.930 . S
C780 C781 1.399 . S
C780 C785 1.399 . S
C781 C780 1.399 . S
C781 C782 1.376 . S
C782 H769 0.930 . S
C782 C781 1.376 . S
C782 C783 1.388 . S
C783 H770 0.930 . S
C783 C782 1.388 . S
C783 C784 1.390 . S
C784 C783 1.390 . S
C784 C785 1.394 . S
C784 C790 1.465 . S
C785 C780 1.399 . S
C785 C784 1.394 . S
C785 C786 1.516 . S
C786 C785 1.516 . S
C786 C787 1.502 . S
C786 C788 1.561 . S
C786 C789 1.526 . S
C787 H771 0.959 . S
C787 H772 0.959 . S
C787 H773 0.961 . S
C787 C786 1.502 . S
C788 H774 0.960 . S
C788 H775 0.961 . S
C788 H776 0.959 . S
C788 C786 1.561 . S
C789 C786 1.526 . S
C789 C790 1.396 . S
C789 C794 1.390 . S
C790 C784 1.465 . S
C790 C789 1.396 . S
C790 C791 1.399 . S
C791 H777 0.929 . S
C791 C790 1.399 . S
C791 C792 1.385 . S
C792 H778 0.931 . S
C792 C791 1.385 . S
C792 C793 1.389 . S
C793 C792 1.389 . S
C793 C794 1.387 . S
C794 H779 0.930 . S
C794 C789 1.390 . S
C794 C793 1.387 . S
H795 C807 0.930 . S
H796 C809 0.930 . S
H797 C810 0.930 . S
H798 C814 0.959 . S
H799 C814 0.959 . S
H800 C814 0.961 . S
H801 C815 0.960 . S
H802 C815 0.961 . S
H803 C815 0.959 . S
H804 C818 0.929 . S
H805 C819 0.931 . S
H806 C821 0.930 . S
C807 H795 0.930 . S
C807 C808 1.399 . S
C807 C812 1.399 . S
C808 C807 1.399 . S
C808 C809 1.376 . S
C809 H796 0.930 . S
C809 C808 1.376 . S
C809 C810 1.388 . S
C810 H797 0.930 . S
C810 C809 1.388 . S
C810 C811 1.390 . S
C811 C810 1.390 . S
C811 C812 1.394 . S
C811 C817 1.465 . S
C812 C807 1.399 . S
C812 C811 1.394 . S
C812 C813 1.516 1_455 S
C813 C812 1.516 1_655 S
C813 C814 1.502 1_655 S
C813 C815 1.561 . S
C813 C816 1.526 . S
C814 H798 0.959 . S
C814 H799 0.959 . S
C814 H800 0.961 . S
C814 C813 1.502 1_455 S
C815 H801 0.960 . S
C815 H802 0.961 . S
C815 H803 0.959 . S
C815 C813 1.561 . S
C816 C813 1.526 . S
C816 C817 1.396 1_655 S
C816 C821 1.390 . S
C817 C811 1.465 . S
C817 C816 1.396 1_455 S
C817 C818 1.399 . S
C818 H804 0.929 . S
C818 C817 1.399 . S
C818 C819 1.385 . S
C819 H805 0.931 . S
C819 C818 1.385 . S
C819 C820 1.387 1_455 S
C820 C819 1.387 1_655 S
C820 C821 1.389 . S
C821 H806 0.930 . S
C821 C816 1.390 . S
C821 C820 1.389 . S
C349 C7 0.734 . S
C361 C325 0.700 . S
C376 C51 1.913 . S
C388 C253 1.808 . S
C403 C87 1.230 . S
C415 C289 1.254 . S
C430 C16 0.441 . S
C442 C301 0.382 . S
C469 C229 1.983 . S
C457 C42 2.041 . S
C496 C265 1.328 . S
C484 C96 1.315 . S
C511 C47 1.170 . S
C523 C181 1.182 . S
C538 C91 3.110 . S
C550 C193 3.070 . S
C565 C2 2.068 . S
C577 C121 2.042 . S
C604 C157 1.325 . S
C592 C56 1.293 . S
C631 C217 2.898 . S
C619 C82 2.982 . S
C646 C11 1.905 . S
C658 C145 1.872 . S
C685 C223 1.712 1_554 S
C673 C19 1.706 . S
C700 C50 1.373 . S
C712 C151 1.386 . S
C727 C99 1.483 . S
C739 C187 1.511 . S
C766 C295 1.459 . S
C754 C59 1.454 . S
C793 C331 1.126 1_556 S
C781 C90 1.116 . S
C808 C10 1.306 . S
C820 C259 1.352 1_655 S
