# Generated by pormake.
# Topology nom, (4,4)-cn, num edge types: 1
# Building blocks:
#     Node 0, Type 0, BuildingBlock: MUDLON_clean_linker_0, # of connection points: 4
#     Node 1, Type 0, BuildingBlock: MUDLON_clean_linker_0, # of connection points: 4
#     Node 2, Type 0, BuildingBlock: MUDLON_clean_linker_0, # of connection points: 4
#     Node 3, Type 0, BuildingBlock: MUDLON_clean_linker_0, # of connection points: 4
#     Node 4, Type 0, BuildingBlock: MUDLON_clean_linker_0, # of connection points: 4
#     Node 5, Type 0, BuildingBlock: MUDLON_clean_linker_0, # of connection points: 4
#     Node 6, Type 1, BuildingBlock: UXUYUI_clean_sbu_0, # of connection points: 4
#     Node 7, Type 1, BuildingBlock: UXUYUI_clean_sbu_0, # of connection points: 4
#     Node 8, Type 1, BuildingBlock: UXUYUI_clean_sbu_0, # of connection points: 4
#     Node 9, Type 1, BuildingBlock: UXUYUI_clean_sbu_0, # of connection points: 4
#     Node 10, Type 1, BuildingBlock: UXUYUI_clean_sbu_0, # of connection points: 4
#     Node 11, Type 1, BuildingBlock: UXUYUI_clean_sbu_0, # of connection points: 4
#     Edge 12, Type (0, 1), BuildingBlock: KIFKEQ_clean_linker_1, # of connection points: 2
#     Edge 13, Type (0, 1), BuildingBlock: KIFKEQ_clean_linker_1, # of connection points: 2
#     Edge 14, Type (0, 1), BuildingBlock: KIFKEQ_clean_linker_1, # of connection points: 2
#     Edge 15, Type (0, 1), BuildingBlock: KIFKEQ_clean_linker_1, # of connection points: 2
#     Edge 16, Type (0, 1), BuildingBlock: KIFKEQ_clean_linker_1, # of connection points: 2
#     Edge 17, Type (0, 1), BuildingBlock: KIFKEQ_clean_linker_1, # of connection points: 2
#     Edge 18, Type (0, 1), BuildingBlock: KIFKEQ_clean_linker_1, # of connection points: 2
#     Edge 19, Type (0, 1), BuildingBlock: KIFKEQ_clean_linker_1, # of connection points: 2
#     Edge 20, Type (0, 1), BuildingBlock: KIFKEQ_clean_linker_1, # of connection points: 2
#     Edge 21, Type (0, 1), BuildingBlock: KIFKEQ_clean_linker_1, # of connection points: 2
#     Edge 22, Type (0, 1), BuildingBlock: KIFKEQ_clean_linker_1, # of connection points: 2
#     Edge 23, Type (0, 1), BuildingBlock: KIFKEQ_clean_linker_1, # of connection points: 2
#     Edge 24, Type (0, 1), BuildingBlock: KIFKEQ_clean_linker_1, # of connection points: 2
#     Edge 25, Type (0, 1), BuildingBlock: KIFKEQ_clean_linker_1, # of connection points: 2
#     Edge 26, Type (0, 1), BuildingBlock: KIFKEQ_clean_linker_1, # of connection points: 2
#     Edge 27, Type (0, 1), BuildingBlock: KIFKEQ_clean_linker_1, # of connection points: 2
#     Edge 28, Type (0, 1), BuildingBlock: KIFKEQ_clean_linker_1, # of connection points: 2
#     Edge 29, Type (0, 1), BuildingBlock: KIFKEQ_clean_linker_1, # of connection points: 2
#     Edge 30, Type (0, 1), BuildingBlock: KIFKEQ_clean_linker_1, # of connection points: 2
#     Edge 31, Type (0, 1), BuildingBlock: KIFKEQ_clean_linker_1, # of connection points: 2
#     Edge 32, Type (0, 1), BuildingBlock: KIFKEQ_clean_linker_1, # of connection points: 2
#     Edge 33, Type (0, 1), BuildingBlock: KIFKEQ_clean_linker_1, # of connection points: 2
#     Edge 34, Type (0, 1), BuildingBlock: KIFKEQ_clean_linker_1, # of connection points: 2
#     Edge 35, Type (0, 1), BuildingBlock: KIFKEQ_clean_linker_1, # of connection points: 2
# Relax obj value: 0.038
# Max RMSD: 0.149
# Mean RMSD: 0.119
data_MOF--net-nom--node1-UXUYUI_clean_sbu_0--node2-MUDLON_clean_linker_0--edge1-KIFKEQ_clean_linker_1
_symmetry_space_group_name_H-M    P1
_symmetry_Int_Tables_number       1
_symmetry_cell_setting            triclinic
loop_
_symmetry_equiv_pos_as_xyz
'x, y, z'
_cell_length_a     71.434471
_cell_length_b     72.100739
_cell_length_c     72.070398
_cell_angle_alpha  90.313378
_cell_angle_beta   89.845442
_cell_angle_gamma 120.31427
loop_
_atom_site_label
_atom_site_type_symbol
_atom_site_fract_x
_atom_site_fract_y
_atom_site_fract_z
_atom_type_partial_charge
H0 H 0.1152 0.53278 0.3113 0.0
N1 N 0.09455 0.54001 0.33854 0.0
H2 H 0.14548 0.55964 0.29276 0.0
H3 H 0.10817 0.58296 0.33713 0.0
H4 H 0.13866 0.60987 0.31919 0.0
H5 H 0.08764 0.56407 0.36409 0.0
H6 H 0.10395 0.57418 0.39512 0.0
H7 H 0.11712 0.52526 0.35573 0.0
H8 H 0.13326 0.53501 0.38673 0.0
H9 H 0.0661 0.49864 0.3422 0.0
H10 H 0.07109 0.55883 0.32753 0.0
H11 H 0.02714 0.48007 0.33671 0.0
H12 H 0.03234 0.54027 0.3208 0.0
H13 H 0.90588 0.42186 0.30211 0.0
H14 H 0.88811 0.41313 0.27172 0.0
H15 H 0.92647 0.47975 0.25588 0.0
H16 H 0.94407 0.48841 0.28651 0.0
H17 H 0.92226 0.49094 0.31378 0.0
H18 H 0.89336 0.49121 0.33177 0.0
H19 H 0.88408 0.43559 0.36206 0.0
H20 H 0.91345 0.43591 0.3443 0.0
H21 H 0.96255 0.44789 0.30865 0.0
H22 H 1.00168 0.46809 0.31318 0.0
H23 H 0.99714 0.52241 0.33303 0.0
N24 N 0.93411 0.46037 0.31532 0.0
H25 H 0.9583 0.50259 0.32724 0.0
C26 C 0.10948 0.55578 0.32562 0.0
C27 C 0.11992 0.54955 0.31268 0.0
C28 C 0.13734 0.56494 0.30226 0.0
C29 C 0.14472 0.58696 0.30468 0.0
C30 C 0.13334 0.59308 0.31686 0.0
C31 C 0.11589 0.57765 0.32723 0.0
C32 C 0.10137 0.54402 0.35763 0.0
C33 C 0.09742 0.55754 0.36904 0.0
C34 C 0.10677 0.56333 0.38672 0.0
C35 C 0.11995 0.55544 0.39332 0.0
C36 C 0.12302 0.54117 0.38213 0.0
C37 C 0.11388 0.53561 0.36444 0.0
C38 C 0.0716 0.52999 0.33504 0.0
C39 C 0.05876 0.50779 0.33757 0.0
C40 C 0.03649 0.49719 0.33422 0.0
C41 C 0.02646 0.50853 0.32796 0.0
C42 C 0.03936 0.53096 0.3257 0.0
C43 C 0.06168 0.54163 0.32938 0.0
C44 C 0.92627 0.45566 0.2965 0.0
C45 C 0.91067 0.43448 0.29195 0.0
C46 C 0.90048 0.42958 0.27469 0.0
C47 C 0.90583 0.4458 0.26153 0.0
C48 C 0.92215 0.46695 0.26576 0.0
C49 C 0.93219 0.4719 0.2832 0.0
C50 C 0.92004 0.46339 0.3278 0.0
C51 C 0.91439 0.47917 0.32463 0.0
C52 C 0.89769 0.47916 0.33481 0.0
C53 C 0.88619 0.46327 0.34824 0.0
C54 C 0.8927 0.44821 0.35201 0.0
C55 C 0.90946 0.44832 0.34187 0.0
C56 C 0.9573 0.47343 0.31778 0.0
C57 C 0.97007 0.46422 0.31384 0.0
C58 C 0.99245 0.47578 0.31665 0.0
C59 C 0.00271 0.49685 0.32384 0.0
C60 C 0.98994 0.50631 0.32738 0.0
C61 C 0.96752 0.49482 0.32422 0.0
H62 H 0.50109 0.90741 0.49089 0.0
N63 N 0.49883 0.93932 0.47519 0.0
H64 H 0.47329 0.87807 0.50936 0.0
H65 H 0.46154 0.93678 0.48826 0.0
H66 H 0.43371 0.9077 0.50705 0.0
H67 H 0.46244 0.92876 0.45482 0.0
H68 H 0.45408 0.91267 0.42395 0.0
H69 H 0.52539 0.93441 0.4525 0.0
H70 H 0.51745 0.91883 0.42121 0.0
H71 H 0.53418 0.96346 0.49499 0.0
H72 H 0.48365 0.9659 0.46457 0.0
H73 H 0.55155 0.00197 0.50139 0.0
H74 H 0.50126 0.00456 0.47028 0.0
H75 H 0.61288 0.12708 0.51006 0.0
H76 H 0.62241 0.14459 0.54059 0.0
H77 H 0.55644 0.10369 0.5589 0.0
H78 H 0.54688 0.08656 0.52825 0.0
H79 H 0.54199 0.10819 0.50168 0.0
H80 H 0.53999 0.13655 0.485 0.0
H81 H 0.59547 0.14799 0.45207 0.0
H82 H 0.59686 0.11915 0.4685 0.0
H83 H 0.59073 0.07359 0.49026 0.0
H84 H 0.57166 0.03481 0.48487 0.0
H85 H 0.51041 0.03205 0.49363 0.0
N86 N 0.57388 0.09801 0.49798 0.0
H87 H 0.52968 0.07097 0.49839 0.0
C88 C 0.48343 0.92422 0.48822 0.0
C89 C 0.48658 0.90773 0.49471 0.0
C90 C 0.47069 0.89104 0.50531 0.0
C91 C 0.4512 0.89047 0.50967 0.0
C92 C 0.44841 0.90751 0.50375 0.0
C93 C 0.46438 0.92424 0.49312 0.0
C94 C 0.49457 0.93268 0.45602 0.0
C95 C 0.47467 0.92697 0.44751 0.0
C96 C 0.46994 0.91783 0.42976 0.0
C97 C 0.48502 0.91426 0.42013 0.0
C98 C 0.50531 0.92098 0.42836 0.0
C99 C 0.50998 0.93005 0.44614 0.0
C100 C 0.50783 0.96184 0.47919 0.0
C101 C 0.52688 0.97237 0.48968 0.0
C102 C 0.53685 0.9944 0.49318 0.0
C103 C 0.52799 0.00648 0.48614 0.0
C104 C 0.50848 0.99577 0.47601 0.0
C105 C 0.49844 0.97363 0.4726 0.0
C106 C 0.5793 0.10545 0.51687 0.0
C107 C 0.6006 0.12164 0.52078 0.0
C108 C 0.60597 0.13167 0.53813 0.0
C109 C 0.59012 0.12549 0.55202 0.0
C110 C 0.56897 0.1086 0.54844 0.0
C111 C 0.56351 0.09878 0.53093 0.0
C112 C 0.56958 0.11152 0.48622 0.0
C113 C 0.55326 0.11631 0.49046 0.0
C114 C 0.55232 0.13275 0.48106 0.0
C115 C 0.56773 0.14475 0.46732 0.0
C116 C 0.58319 0.13898 0.4624 0.0
C117 C 0.58406 0.12252 0.47177 0.0
C118 C 0.56173 0.07517 0.49476 0.0
C119 C 0.57318 0.06456 0.49096 0.0
C120 C 0.56224 0.04238 0.48804 0.0
C121 C 0.53946 0.03021 0.48898 0.0
C122 C 0.52793 0.04092 0.49265 0.0
C123 C 0.53895 0.06321 0.49549 0.0
H124 H 0.49866 0.61026 0.65664 0.0
N125 N 0.49434 0.57628 0.67441 0.0
H126 H 0.47173 0.61233 0.63722 0.0
H127 H 0.45591 0.54208 0.66273 0.0
H128 H 0.42865 0.54397 0.64344 0.0
H129 H 0.45867 0.54987 0.69532 0.0
H130 H 0.45025 0.55773 0.72611 0.0
H131 H 0.52032 0.60879 0.69648 0.0
H132 H 0.51233 0.61659 0.72768 0.0
H133 H 0.52958 0.58827 0.65427 0.0
H134 H 0.48032 0.53477 0.68511 0.0
H135 H 0.54789 0.56807 0.64782 0.0
H136 H 0.49902 0.51472 0.67953 0.0
H137 H 0.61345 0.51007 0.63847 0.0
H138 H 0.62256 0.5015 0.60801 0.0
H139 H 0.55492 0.46924 0.59262 0.0
H140 H 0.54592 0.47763 0.62315 0.0
H141 H 0.54568 0.45424 0.65044 0.0
H142 H 0.54864 0.42689 0.66794 0.0
H143 H 0.60126 0.47684 0.69988 0.0
H144 H 0.59865 0.50404 0.68175 0.0
H145 H 0.5896 0.53869 0.65865 0.0
H146 H 0.56918 0.55699 0.66397 0.0
H147 H 0.50922 0.49659 0.65718 0.0
N148 N 0.57431 0.49744 0.65196 0.0
H149 H 0.53001 0.47833 0.6527 0.0
C150 C 0.47923 0.57613 0.66117 0.0
C151 C 0.48357 0.59569 0.65347 0.0
C152 C 0.46819 0.5968 0.64237 0.0
C153 C 0.44803 0.57831 0.63886 0.0
C154 C 0.44397 0.55851 0.64606 0.0
C155 C 0.45952 0.55739 0.65704 0.0
C156 C 0.49016 0.57887 0.69354 0.0
C157 C 0.47061 0.5643 0.70234 0.0
C158 C 0.46585 0.56879 0.72006 0.0
C159 C 0.48053 0.5879 0.72935 0.0
C160 C 0.50049 0.60192 0.72081 0.0
C161 C 0.50519 0.59743 0.70308 0.0
C162 C 0.50385 0.56323 0.67035 0.0
C163 C 0.52279 0.57215 0.65969 0.0
C164 C 0.5333 0.56061 0.65618 0.0
C165 C 0.52519 0.53985 0.66343 0.0
C166 C 0.50572 0.53061 0.67366 0.0
C167 C 0.49507 0.54215 0.67701 0.0
C168 C 0.57912 0.49467 0.63307 0.0
C169 C 0.60068 0.5015 0.62838 0.0
C170 C 0.6058 0.49647 0.61107 0.0
C171 C 0.58942 0.48462 0.59802 0.0
C172 C 0.56788 0.47854 0.60239 0.0
C173 C 0.56272 0.48336 0.61984 0.0
C174 C 0.57219 0.48119 0.6647 0.0
C175 C 0.55749 0.45927 0.6615 0.0
C176 C 0.55918 0.44363 0.67159 0.0
C177 C 0.57547 0.44967 0.6851 0.0
C178 C 0.58887 0.47163 0.68928 0.0
C179 C 0.58728 0.4872 0.6791 0.0
C180 C 0.56139 0.5073 0.65514 0.0
C181 C 0.57205 0.52945 0.65835 0.0
C182 C 0.5603 0.53988 0.66123 0.0
C183 C 0.53748 0.52835 0.66076 0.0
C184 C 0.52675 0.50597 0.65774 0.0
C185 C 0.5386 0.49551 0.65502 0.0
H186 H 0.12633 0.60779 0.82872 0.0
N187 N 0.09508 0.57334 0.81192 0.0
H188 H 0.15535 0.60998 0.84822 0.0
H189 H 0.09757 0.53908 0.82499 0.0
H190 H 0.12665 0.54106 0.84447 0.0
H191 H 0.10347 0.54577 0.79215 0.0
H192 H 0.12046 0.55246 0.76164 0.0
H193 H 0.10284 0.60512 0.78895 0.0
H194 H 0.12005 0.61207 0.75833 0.0
H195 H 0.07237 0.58583 0.83201 0.0
H196 H 0.06648 0.53171 0.80131 0.0
H197 H 0.03362 0.56577 0.83888 0.0
H198 H 0.02749 0.5118 0.80729 0.0
H199 H 0.90481 0.50159 0.84982 0.0
H200 H 0.88862 0.49359 0.88063 0.0
H201 H 0.93438 0.47445 0.89788 0.0
H202 H 0.94933 0.48106 0.86667 0.0
H203 H 0.91967 0.4514 0.84145 0.0
H204 H 0.88976 0.42241 0.82414 0.0
H205 H 0.88923 0.46919 0.78717 0.0
H206 H 0.91842 0.49807 0.80522 0.0
H207 H 0.96154 0.5356 0.82979 0.0
H208 H 1.00044 0.55408 0.82361 0.0
H209 H 0.99965 0.49407 0.83004 0.0
N210 N 0.93528 0.49437 0.83678 0.0
H211 H 0.96043 0.47564 0.83539 0.0
C212 C 0.10994 0.57338 0.82538 0.0
C213 C 0.12611 0.59314 0.83246 0.0
C214 C 0.14261 0.59433 0.84361 0.0
C215 C 0.14334 0.57569 0.84784 0.0
C216 C 0.12663 0.55571 0.84129 0.0
C217 C 0.10998 0.55454 0.83022 0.0
C218 C 0.10193 0.57506 0.79287 0.0
C219 C 0.10662 0.56007 0.78477 0.0
C220 C 0.11649 0.56399 0.76735 0.0
C221 C 0.1218 0.5829 0.75765 0.0
C222 C 0.11603 0.59728 0.76537 0.0
C223 C 0.10624 0.59338 0.78284 0.0
C224 C 0.07227 0.56048 0.81596 0.0
C225 C 0.06262 0.56962 0.82667 0.0
C226 C 0.04043 0.55816 0.83044 0.0
C227 C 0.02725 0.53723 0.82339 0.0
C228 C 0.03709 0.52782 0.81302 0.0
C229 C 0.05943 0.53929 0.80943 0.0
C230 C 0.92836 0.49215 0.85588 0.0
C231 C 0.91148 0.49592 0.86036 0.0
C232 C 0.90234 0.49144 0.87808 0.0
C233 C 0.91011 0.48333 0.89192 0.0
C234 C 0.92763 0.48028 0.88757 0.0
C235 C 0.93648 0.48438 0.86969 0.0
C236 C 0.92098 0.47692 0.82474 0.0
C237 C 0.91333 0.45536 0.82944 0.0
C238 C 0.89625 0.43877 0.81944 0.0
C239 C 0.88673 0.44345 0.80444 0.0
C240 C 0.89571 0.465 0.79894 0.0
C241 C 0.91256 0.48153 0.80907 0.0
C242 C 0.95818 0.5044 0.83316 0.0
C243 C 0.96982 0.5265 0.82981 0.0
C244 C 0.99209 0.53702 0.82644 0.0
C245 C 0.00334 0.52565 0.82654 0.0
C246 C 0.99154 0.50333 0.82971 0.0
C247 C 0.96913 0.49277 0.83291 0.0
H248 H 0.53202 0.12908 0.99259 0.0
N249 N 0.53404 0.09725 0.97609 0.0
H250 H 0.56024 0.15854 0.01086 0.0
H251 H 0.57173 0.09999 0.98807 0.0
H252 H 0.60009 0.12931 0.00651 0.0
H253 H 0.56988 0.10716 0.95505 0.0
H254 H 0.57772 0.1229 0.9242 0.0
H255 H 0.50723 0.10228 0.954 0.0
H256 H 0.51464 0.11747 0.9227 0.0
H257 H 0.49937 0.07375 0.99677 0.0
H258 H 0.54838 0.07012 0.96465 0.0
H259 H 0.4819 0.03535 0.00332 0.0
H260 H 0.53058 0.03153 0.97045 0.0
H261 H 0.42043 0.91089 0.01458 0.0
H262 H 0.41293 0.89505 0.04545 0.0
H263 H 0.48026 0.93675 0.06033 0.0
H264 H 0.48771 0.95155 0.02911 0.0
H265 H 0.49026 0.92844 0.00245 0.0
H266 H 0.49108 0.89956 0.98524 0.0
H267 H 0.43388 0.88772 0.95495 0.0
H268 H 0.43366 0.91706 0.97191 0.0
H269 H 0.44171 0.96359 0.99356 0.0
H270 H 0.46081 0.00218 0.9876 0.0
H271 H 0.52214 0.00439 0.99342 0.0
N272 N 0.45856 0.93903 1.00038 0.0
H273 H 0.50278 0.96563 0.99865 0.0
C274 C 0.54975 0.11243 0.98897 0.0
C275 C 0.54668 0.12886 0.99593 0.0
C276 C 0.56281 0.14562 0.00641 0.0
C277 C 0.58248 0.14633 0.01011 0.0
C278 C 0.58522 0.12936 0.00372 0.0
C279 C 0.56898 0.11251 0.99327 0.0
C280 C 0.53794 0.10366 0.9569 0.0
C281 C 0.55759 0.10905 0.94803 0.0
C282 C 0.56202 0.11799 0.93028 0.0
C283 C 0.54689 0.12165 0.92099 0.0
C284 C 0.52682 0.11525 0.92958 0.0
C285 C 0.52246 0.10639 0.94736 0.0
C286 C 0.52495 0.07476 0.98009 0.0
C287 C 0.50629 0.06459 0.9911 0.0
C288 C 0.49626 0.04261 0.99468 0.0
C289 C 0.50462 0.0302 0.98719 0.0
C290 C 0.52374 0.04057 0.97653 0.0
C291 C 0.53387 0.06267 0.97306 0.0
C292 C 0.4545 0.93246 0.01952 0.0
C293 C 0.43346 0.91679 0.02464 0.0
C294 C 0.42922 0.90785 0.04237 0.0
C295 C 0.44598 0.91456 0.05551 0.0
C296 C 0.46699 0.9309 0.05053 0.0
C297 C 0.47126 0.93963 0.03268 0.0
C298 C 0.46188 0.92493 0.98836 0.0
C299 C 0.47832 0.92008 0.99171 0.0
C300 C 0.47859 0.90336 0.982 0.0
C301 C 0.46241 0.89114 0.96883 0.0
C302 C 0.44675 0.8969 0.96482 0.0
C303 C 0.44654 0.91363 0.9745 0.0
C304 C 0.47071 0.96173 0.99662 0.0
C305 C 0.45927 0.97245 0.99347 0.0
C306 C 0.47026 0.99454 0.99023 0.0
C307 C 0.49307 0.00652 0.99022 0.0
C308 C 0.50458 0.99568 0.99318 0.0
C309 C 0.49351 0.97348 0.99631 0.0
H310 H 0.53217 0.424 0.15641 0.0
N311 N 0.53519 0.45734 0.17474 0.0
H312 H 0.56017 0.42288 0.13755 0.0
H313 H 0.57396 0.49211 0.16459 0.0
H314 H 0.60232 0.49108 0.14607 0.0
H315 H 0.5703 0.48315 0.19661 0.0
H316 H 0.57725 0.47493 0.22761 0.0
H317 H 0.50779 0.4252 0.19628 0.0
H318 H 0.51415 0.41721 0.22784 0.0
H319 H 0.50125 0.44579 0.15303 0.0
H320 H 0.54822 0.49841 0.18645 0.0
H321 H 0.48322 0.46603 0.14593 0.0
H322 H 0.52974 0.51849 0.18021 0.0
H323 H 0.41822 0.52441 0.13374 0.0
H324 H 0.41132 0.53372 0.103 0.0
H325 H 0.47989 0.56507 0.09076 0.0
H326 H 0.48663 0.55645 0.1218 0.0
H327 H 0.48523 0.57953 0.14859 0.0
H328 H 0.48199 0.60682 0.16618 0.0
H329 H 0.42776 0.55677 0.19638 0.0
H330 H 0.43067 0.52963 0.17812 0.0
H331 H 0.44067 0.49492 0.15492 0.0
H332 H 0.46079 0.47654 0.16113 0.0
H333 H 0.52101 0.53718 0.15752 0.0
N334 N 0.45628 0.53633 0.14918 0.0
H335 H 0.50049 0.55549 0.15214 0.0
C336 C 0.55106 0.45801 0.162 0.0
C337 C 0.54731 0.43875 0.15388 0.0
C338 C 0.56327 0.43817 0.14311 0.0
C339 C 0.58345 0.45689 0.14043 0.0
C340 C 0.58697 0.47639 0.14807 0.0
C341 C 0.57081 0.477 0.15864 0.0
C342 C 0.53855 0.45458 0.194 0.0
C343 C 0.55786 0.46883 0.20332 0.0
C344 C 0.56176 0.46416 0.22121 0.0
C345 C 0.54636 0.44527 0.23024 0.0
C346 C 0.52658 0.43166 0.2212 0.0
C347 C 0.5228 0.43627 0.20324 0.0
C348 C 0.5258 0.47039 0.17043 0.0
C349 C 0.50759 0.46172 0.15888 0.0
C350 C 0.49723 0.47328 0.15499 0.0
C351 C 0.50476 0.4938 0.16276 0.0
C352 C 0.52351 0.50279 0.17393 0.0
C353 C 0.53403 0.49124 0.17765 0.0
C354 C 0.45282 0.53956 0.13006 0.0
C355 C 0.43167 0.53297 0.12426 0.0
C356 C 0.42779 0.53826 0.10664 0.0
C357 C 0.44505 0.55022 0.09433 0.0
C358 C 0.46623 0.55614 0.09994 0.0
C359 C 0.47011 0.55099 0.11767 0.0
C360 C 0.45793 0.55252 0.16192 0.0
C361 C 0.47295 0.57444 0.15926 0.0
C362 C 0.47112 0.59005 0.16941 0.0
C363 C 0.45434 0.584 0.18248 0.0
C364 C 0.44053 0.56201 0.18612 0.0
C365 C 0.44228 0.54646 0.17587 0.0
C366 C 0.46902 0.52643 0.15293 0.0
C367 C 0.45821 0.50419 0.15552 0.0
C368 C 0.46979 0.49373 0.1589 0.0
C369 C 0.49261 0.50531 0.15959 0.0
C370 C 0.50347 0.52776 0.1572 0.0
C371 C 0.49178 0.53825 0.15396 0.0
Li372 Li 0.63817 0.39896 0.42943 0.0
Li373 Li 0.63172 0.3658 0.4155 0.0
Li374 Li 0.66513 0.39903 0.40896 0.0
Li375 Li 0.63119 0.39281 0.39643 0.0
C376 C 0.6713 0.39468 0.44595 0.0
N377 N 0.70413 0.41574 0.47166 0.0
C378 C 0.67744 0.38303 0.45734 0.0
C379 C 0.68188 0.41705 0.44762 0.0
C380 C 0.69406 0.39397 0.47026 0.0
C381 C 0.69843 0.4274 0.4607 0.0
C382 C 0.59572 0.36584 0.43032 0.0
C383 C 0.55908 0.35078 0.44155 0.0
N384 N 0.56456 0.34402 0.45712 0.0
C385 C 0.60099 0.35873 0.44643 0.0
C386 C 0.57461 0.36184 0.42785 0.0
C387 C 0.58501 0.34774 0.45981 0.0
C388 C 0.62551 0.42529 0.44802 0.0
N389 N 0.63288 0.41143 0.4508 0.0
C390 C 0.63165 0.41515 0.48368 0.0
C391 C 0.63574 0.40605 0.46819 0.0
C392 C 0.62409 0.42956 0.48125 0.0
C393 C 0.62085 0.43451 0.46316 0.0
H394 H 0.62316 0.42908 0.43403 0.0
H395 H 0.64104 0.39456 0.4701 0.0
C396 C 0.63434 0.3295 0.42439 0.0
N397 N 0.62011 0.33576 0.41917 0.0
C398 C 0.62712 0.30786 0.42769 0.0
C399 C 0.59073 0.29944 0.42004 0.0
C400 C 0.59867 0.32126 0.4168 0.0
C401 C 0.60502 0.2925 0.42562 0.0
H402 H 0.6513 0.3414 0.4261 0.0
H403 H 0.5877 0.32661 0.41247 0.0
C404 C 0.66408 0.43538 0.39632 0.0
N405 N 0.68443 0.46788 0.3706 0.0
C406 C 0.67266 0.43194 0.38007 0.0
C407 C 0.66584 0.45533 0.39948 0.0
C408 C 0.68289 0.44857 0.36725 0.0
C409 C 0.67619 0.47157 0.38631 0.0
C410 C 0.63512 0.36086 0.37792 0.0
C411 C 0.64652 0.35524 0.36551 0.0
C412 C 0.61251 0.35053 0.3768 0.0
C413 C 0.6351 0.33934 0.35217 0.0
C414 C 0.60169 0.33471 0.36328 0.0
N415 N 0.61311 0.32949 0.35134 0.0
C416 C 0.70133 0.3965 0.39826 0.0
C417 C 0.71016 0.43172 0.40709 0.0
C418 C 0.72303 0.40357 0.39422 0.0
N419 N 0.69533 0.41057 0.40443 0.0
C420 C 0.73205 0.43952 0.40314 0.0
C421 C 0.73872 0.42538 0.39654 0.0
H422 H 0.68917 0.37976 0.39634 0.0
H423 H 0.705 0.44257 0.41216 0.0
C424 C 0.60108 0.40129 0.37861 0.0
N425 N 0.61811 0.39821 0.37569 0.0
C426 C 0.59143 0.40566 0.36369 0.0
C427 C 0.61714 0.40365 0.34312 0.0
C428 C 0.62619 0.39925 0.35839 0.0
C429 C 0.59947 0.40691 0.34562 0.0
H430 H 0.59501 0.40039 0.39254 0.0
H431 H 0.6398 0.3968 0.35642 0.0
O432 O 0.65515 0.38411 0.43316 0.0
O433 O 0.61105 0.37675 0.417 0.0
O434 O 0.65386 0.41935 0.40908 0.0
O435 O 0.64618 0.37639 0.39104 0.0
H436 H 0.66941 0.3657 0.45621 0.0
H437 H 0.67735 0.42635 0.43897 0.0
H438 H 0.69897 0.38516 0.47918 0.0
H439 H 0.70674 0.44469 0.46214 0.0
H440 H 0.54267 0.34758 0.43982 0.0
H441 H 0.6172 0.36159 0.44859 0.0
H442 H 0.57028 0.36724 0.41545 0.0
H443 H 0.58887 0.34215 0.47233 0.0
H444 H 0.634 0.41069 0.49744 0.0
H445 H 0.61505 0.44557 0.46076 0.0
H446 H 0.63867 0.30328 0.43219 0.0
H447 H 0.57362 0.28812 0.41807 0.0
H448 H 0.67145 0.41661 0.37738 0.0
H449 H 0.65925 0.45822 0.41199 0.0
H450 H 0.6896 0.44613 0.35462 0.0
H451 H 0.67767 0.4871 0.38858 0.0
H452 H 0.66403 0.36311 0.36618 0.0
H453 H 0.60338 0.35468 0.38622 0.0
H454 H 0.64372 0.33484 0.34248 0.0
H455 H 0.5842 0.3266 0.36226 0.0
H456 H 0.72738 0.39216 0.38895 0.0
H457 H 0.74364 0.4564 0.40532 0.0
H458 H 0.5777 0.4078 0.36627 0.0
H459 H 0.62415 0.40482 0.32954 0.0
Li460 Li 0.2631 0.64513 0.59185 0.0
Li461 Li 0.29025 0.63839 0.57722 0.0
Li462 Li 0.29047 0.67314 0.57111 0.0
Li463 Li 0.26289 0.63897 0.5576 0.0
C464 C 0.30255 0.67019 0.61204 0.0
N465 N 0.31791 0.68713 0.64693 0.0
C466 C 0.30777 0.65892 0.62474 0.0
C467 C 0.30563 0.69033 0.61697 0.0
C468 C 0.31535 0.66766 0.64235 0.0
C469 C 0.31328 0.69856 0.6347 0.0
C470 C 0.25467 0.59875 0.58114 0.0
C471 C 0.25715 0.56816 0.57089 0.0
N472 N 0.24832 0.55815 0.58723 0.0
C473 C 0.24545 0.5881 0.59776 0.0
C474 C 0.26041 0.58864 0.56753 0.0
C475 C 0.24243 0.5676 0.6006 0.0
C476 C 0.22677 0.64016 0.6123 0.0
N477 N 0.24524 0.63916 0.61336 0.0
C478 C 0.23725 0.62707 0.64475 0.0
C479 C 0.25056 0.63261 0.62912 0.0
C480 C 0.21818 0.62819 0.64418 0.0
C481 C 0.21305 0.63492 0.62766 0.0
H482 H 0.22251 0.64479 0.59946 0.0
H483 H 0.26475 0.63097 0.62937 0.0
C484 C 0.32633 0.63314 0.57042 0.0
N485 N 0.30862 0.62662 0.58142 0.0
C486 C 0.34093 0.62602 0.57383 0.0
C487 C 0.31861 0.60534 0.59964 0.0
C488 C 0.30456 0.61299 0.59582 0.0
C489 C 0.33722 0.61203 0.5887 0.0
H490 H 0.32935 0.64421 0.55921 0.0
H491 H 0.29069 0.60845 0.60467 0.0
C492 C 0.25294 0.67608 0.57406 0.0
N493 N 0.24215 0.70743 0.5801 0.0
C494 C 0.24213 0.68072 0.56034 0.0
C495 C 0.25797 0.68719 0.59094 0.0
C496 C 0.2369 0.69669 0.56362 0.0
C497 C 0.25245 0.70302 0.59371 0.0
C498 C 0.29661 0.65237 0.53482 0.0
C499 C 0.29846 0.66849 0.52297 0.0
C500 C 0.29651 0.63437 0.5274 0.0
C501 C 0.29976 0.66614 0.50384 0.0
C502 C 0.29784 0.63261 0.50819 0.0
N503 N 0.2994 0.64838 0.4969 0.0
C504 C 0.32904 0.71342 0.5738 0.0
C505 C 0.30184 0.71341 0.55505 0.0
C506 C 0.3434 0.73499 0.56965 0.0
N507 N 0.30871 0.70312 0.56648 0.0
C508 C 0.31566 0.73495 0.5505 0.0
C509 C 0.33684 0.74598 0.55768 0.0
H510 H 0.33424 0.70472 0.58255 0.0
H511 H 0.28583 0.70476 0.54901 0.0
C512 C 0.23187 0.60548 0.53426 0.0
N513 N 0.24458 0.6271 0.53642 0.0
C514 C 0.21776 0.597 0.51915 0.0
C515 C 0.22996 0.63319 0.50885 0.0
C516 C 0.24392 0.64095 0.52409 0.0
C517 C 0.21656 0.61093 0.50628 0.0
H518 H 0.23235 0.59479 0.54443 0.0
H519 H 0.25412 0.65807 0.52618 0.0
O520 O 0.2953 0.66193 0.59465 0.0
O521 O 0.25798 0.61893 0.57822 0.0
O522 O 0.25843 0.66067 0.57097 0.0
O523 O 0.29504 0.65427 0.55357 0.0
H524 H 0.30579 0.64347 0.62113 0.0
H525 H 0.3024 0.69967 0.60719 0.0
H526 H 0.31924 0.65899 0.65236 0.0
H527 H 0.31565 0.71408 0.63871 0.0
H528 H 0.26164 0.56021 0.56051 0.0
H529 H 0.24068 0.59555 0.60837 0.0
H530 H 0.26738 0.59657 0.55455 0.0
H531 H 0.2354 0.55921 0.61343 0.0
H532 H 0.2416 0.62141 0.65697 0.0
H533 H 0.1986 0.63615 0.62656 0.0
H534 H 0.35503 0.6315 0.56501 0.0
H535 H 0.31533 0.5949 0.61144 0.0
H536 H 0.23788 0.67215 0.54726 0.0
H537 H 0.26574 0.68338 0.60188 0.0
H538 H 0.22865 0.70052 0.55308 0.0
H539 H 0.25628 0.71174 0.60672 0.0
H540 H 0.29866 0.68257 0.52847 0.0
H541 H 0.2955 0.62194 0.53637 0.0
H542 H 0.30103 0.67842 0.4945 0.0
H543 H 0.29769 0.61872 0.50226 0.0
H544 H 0.35968 0.74274 0.57525 0.0
H545 H 0.30988 0.7428 0.5413 0.0
H546 H 0.20751 0.57974 0.51781 0.0
H547 H 0.22972 0.64449 0.49915 0.0
Li548 Li 0.66705 0.28501 0.74139 0.0
Li549 Li 0.63262 0.2585 0.75469 0.0
Li550 Li 0.63935 0.25962 0.72082 0.0
Li551 Li 0.6343 0.28736 0.73524 0.0
C552 C 0.67111 0.25108 0.74525 0.0
N553 N 0.70718 0.24798 0.75347 0.0
C554 C 0.67705 0.25111 0.76371 0.0
C555 C 0.68331 0.24916 0.73097 0.0
C556 C 0.6954 0.24962 0.76758 0.0
C557 C 0.70154 0.24769 0.73541 0.0
C558 C 0.63905 0.29536 0.77305 0.0
C559 C 0.6067 0.29049 0.78813 0.0
N560 N 0.61919 0.30655 0.80025 0.0
C561 C 0.65156 0.3118 0.78565 0.0
C562 C 0.61643 0.28459 0.77428 0.0
C563 C 0.64121 0.31723 0.79931 0.0
C564 C 0.71232 0.31209 0.73356 0.0
N565 N 0.69729 0.30195 0.74708 0.0
C566 C 0.72465 0.31795 0.77052 0.0
C567 C 0.70303 0.30457 0.7653 0.0
C568 C 0.74048 0.32895 0.75686 0.0
C569 C 0.7341 0.32566 0.73815 0.0
H570 H 0.70743 0.31011 0.71922 0.0
H571 H 0.69069 0.29659 0.77581 0.0
C572 C 0.60164 0.22075 0.77306 0.0
N573 N 0.61952 0.24044 0.77553 0.0
C574 C 0.59213 0.20704 0.78816 0.0
C575 C 0.61971 0.23412 0.80802 0.0
C576 C 0.62865 0.24729 0.79255 0.0
C577 C 0.60119 0.21366 0.80596 0.0
H578 H 0.59487 0.21566 0.75932 0.0
H579 H 0.64306 0.26292 0.79407 0.0
C580 C 0.66451 0.29576 0.69988 0.0
N581 N 0.67818 0.30405 0.66338 0.0
C582 C 0.65839 0.30753 0.68861 0.0
C583 C 0.67764 0.28826 0.69257 0.0
C584 C 0.66545 0.31154 0.6702 0.0
C585 C 0.68436 0.2926 0.6741 0.0
C586 C 0.59648 0.25044 0.7214 0.0
C587 C 0.59978 0.26323 0.70586 0.0
C588 C 0.5764 0.23183 0.72402 0.0
C589 C 0.58294 0.25719 0.69314 0.0
C590 C 0.55994 0.22631 0.71099 0.0
N591 N 0.56352 0.239 0.69595 0.0
C592 C 0.63132 0.22203 0.70185 0.0
C593 C 0.63003 0.24772 0.68235 0.0
C594 C 0.62676 0.20804 0.6868 0.0
N595 N 0.63306 0.24153 0.69935 0.0
C596 C 0.62593 0.23448 0.66691 0.0
C597 C 0.62431 0.21441 0.66906 0.0
H598 H 0.63349 0.21734 0.71555 0.0
H599 H 0.63082 0.26295 0.68066 0.0
C600 C 0.63993 0.32779 0.7284 0.0
N601 N 0.62437 0.30728 0.73225 0.0
C602 C 0.63429 0.34333 0.72478 0.0
C603 C 0.5967 0.31657 0.7299 0.0
C604 C 0.6031 0.30151 0.73346 0.0
C605 C 0.61237 0.33773 0.72517 0.0
H606 H 0.65675 0.33196 0.7278 0.0
H607 H 0.59105 0.28515 0.73683 0.0
O608 O 0.65346 0.25297 0.74118 0.0
O609 O 0.64902 0.28993 0.75962 0.0
O610 O 0.65756 0.29151 0.7179 0.0
O611 O 0.6128 0.25597 0.73399 0.0
H612 H 0.66776 0.25254 0.77491 0.0
H613 H 0.67871 0.24873 0.71663 0.0
H614 H 0.7003 0.24982 0.7818 0.0
H615 H 0.71118 0.24628 0.7245 0.0
H616 H 0.58922 0.2823 0.78924 0.0
H617 H 0.66909 0.32028 0.78487 0.0
H618 H 0.60647 0.27178 0.7647 0.0
H619 H 0.65069 0.32993 0.80915 0.0
H620 H 0.72876 0.32026 0.78513 0.0
H621 H 0.74579 0.33371 0.72716 0.0
H622 H 0.57776 0.1915 0.78594 0.0
H623 H 0.62748 0.23977 0.82139 0.0
H624 H 0.64817 0.3134 0.69396 0.0
H625 H 0.6824 0.27902 0.70103 0.0
H626 H 0.66078 0.32057 0.66132 0.0
H627 H 0.69445 0.28681 0.66826 0.0
H628 H 0.61519 0.27768 0.70363 0.0
H629 H 0.57353 0.22175 0.73599 0.0
H630 H 0.58531 0.26695 0.68105 0.0
H631 H 0.54431 0.21195 0.71284 0.0
H632 H 0.62556 0.19262 0.68894 0.0
H633 H 0.62381 0.23976 0.65344 0.0
H634 H 0.64698 0.35954 0.72162 0.0
H635 H 0.57963 0.31151 0.73032 0.0
Li636 Li 0.3904 0.63664 0.93042 0.0
Li637 Li 0.39653 0.66953 0.9157 0.0
Li638 Li 0.36243 0.6356 0.91017 0.0
Li639 Li 0.39657 0.64162 0.8965 0.0
C640 C 0.36126 0.64584 0.94946 0.0
N641 N 0.33632 0.63404 0.98129 0.0
C642 C 0.36501 0.66117 0.96313 0.0
C643 C 0.34474 0.62457 0.9519 0.0
C644 C 0.35226 0.65486 0.97915 0.0
C645 C 0.33232 0.61891 0.9681 0.0
C646 C 0.4331 0.66987 0.92974 0.0
C647 C 0.47019 0.68534 0.93987 0.0
N648 N 0.46533 0.69264 0.95556 0.0
C649 C 0.42848 0.67754 0.94595 0.0
C650 C 0.45411 0.67381 0.92665 0.0
C651 C 0.445 0.689 0.95884 0.0
C652 C 0.40271 0.60995 0.94809 0.0
N653 N 0.39637 0.62452 0.95151 0.0
C654 C 0.40077 0.62234 0.98414 0.0
C655 C 0.3954 0.63087 0.96911 0.0
C656 C 0.40755 0.60734 0.98108 0.0
C657 C 0.4084 0.60111 0.96271 0.0
H658 H 0.40364 0.60543 0.93392 0.0
H659 H 0.39082 0.64281 0.97154 0.0
C660 C 0.39414 0.70596 0.92481 0.0
N661 N 0.40814 0.69963 0.91895 0.0
C662 C 0.40146 0.72766 0.92811 0.0
C663 C 0.43749 0.73598 0.91909 0.0
C664 C 0.42944 0.7141 0.91589 0.0
C665 C 0.42344 0.74301 0.92537 0.0
H666 H 0.37728 0.69408 0.92712 0.0
H667 H 0.44022 0.70865 0.9111 0.0
C668 C 0.36084 0.59477 0.90824 0.0
N669 N 0.33311 0.55104 0.90429 0.0
C670 C 0.35678 0.58522 0.89067 0.0
C671 C 0.35116 0.58202 0.92384 0.0
C672 C 0.34259 0.5631 0.88894 0.0
C673 C 0.33709 0.55996 0.92155 0.0
C674 C 0.39126 0.6726 0.87801 0.0
C675 C 0.37911 0.67764 0.86607 0.0
C676 C 0.41379 0.68296 0.87599 0.0
C677 C 0.38972 0.693 0.85226 0.0
C678 C 0.42379 0.69823 0.86202 0.0
N679 N 0.41165 0.7029 0.85054 0.0
C680 C 0.32191 0.6329 0.91451 0.0
C681 C 0.32165 0.60805 0.89274 0.0
C682 C 0.30017 0.62593 0.91078 0.0
N683 N 0.33215 0.62384 0.9056 0.0
C684 C 0.29989 0.60058 0.88855 0.0
C685 C 0.28889 0.60968 0.89751 0.0
H686 H 0.33073 0.64587 0.92429 0.0
H687 H 0.33031 0.60169 0.88529 0.0
C688 C 0.42693 0.63421 0.87757 0.0
N689 N 0.40858 0.63526 0.87557 0.0
C690 C 0.43588 0.6294 0.86232 0.0
C691 C 0.4068 0.6268 0.8433 0.0
C692 C 0.39843 0.63165 0.85891 0.0
C693 C 0.4258 0.62563 0.84487 0.0
H694 H 0.4346 0.63712 0.89103 0.0
H695 H 0.38374 0.63242 0.85779 0.0
O696 O 0.37373 0.65179 0.93377 0.0
O697 O 0.41721 0.65852 0.91691 0.0
O698 O 0.37491 0.61636 0.9102 0.0
O699 O 0.38105 0.65763 0.89161 0.0
H700 H 0.37775 0.67772 0.96142 0.0
H701 H 0.34138 0.61264 0.94131 0.0
H702 H 0.35503 0.66652 0.98989 0.0
H703 H 0.31946 0.60249 0.97017 0.0
H704 H 0.48652 0.6885 0.93766 0.0
H705 H 0.41237 0.67476 0.94857 0.0
H706 H 0.45795 0.66801 0.91415 0.0
H707 H 0.44164 0.69502 0.97144 0.0
H708 H 0.39959 0.62747 0.99803 0.0
H709 H 0.41385 0.58989 0.9596 0.0
H710 H 0.39011 0.7323 0.93317 0.0
H711 H 0.45449 0.74728 0.9166 0.0
H712 H 0.36434 0.5948 0.87847 0.0
H713 H 0.3546 0.589 0.93761 0.0
H714 H 0.33915 0.55553 0.87541 0.0
H715 H 0.32942 0.54991 0.9335 0.0
H716 H 0.36166 0.66975 0.86747 0.0
H717 H 0.42347 0.67928 0.88509 0.0
H718 H 0.38052 0.69707 0.84292 0.0
H719 H 0.4412 0.70638 0.8603 0.0
H720 H 0.29235 0.63335 0.91808 0.0
H721 H 0.292 0.58837 0.87793 0.0
H722 H 0.45066 0.62891 0.86413 0.0
H723 H 0.39829 0.62368 0.83021 0.0
Li724 Li 0.74304 0.39885 0.07849 0.0
Li725 Li 0.77022 0.39215 0.09317 0.0
Li726 Li 0.77071 0.39871 0.05858 0.0
Li727 Li 0.74288 0.36435 0.07202 0.0
C728 C 0.77891 0.43833 0.08411 0.0
N729 N 0.78621 0.47876 0.09307 0.0
C730 C 0.78358 0.44578 0.10242 0.0
C731 C 0.77829 0.45155 0.07032 0.0
C732 C 0.78714 0.46624 0.10668 0.0
C733 C 0.78193 0.4719 0.07514 0.0
C734 C 0.73004 0.36382 0.11171 0.0
C735 C 0.72477 0.33477 0.13158 0.0
N736 N 0.71387 0.34028 0.14385 0.0
C737 C 0.71865 0.3691 0.12443 0.0
C738 C 0.73302 0.34645 0.11523 0.0
C739 C 0.71066 0.35705 0.14064 0.0
C740 C 0.70879 0.4068 0.07073 0.0
N741 N 0.72479 0.41064 0.08301 0.0
C742 C 0.71322 0.42926 0.10331 0.0
C743 C 0.72715 0.42152 0.09912 0.0
C744 C 0.69641 0.42534 0.09099 0.0
C745 C 0.69432 0.41402 0.07448 0.0
H746 H 0.70692 0.39768 0.05824 0.0
H747 H 0.73945 0.42365 0.10897 0.0
C748 C 0.80942 0.40421 0.1116 0.0
N749 N 0.78815 0.39773 0.11444 0.0
C750 C 0.82349 0.40926 0.12668 0.0
C751 C 0.79346 0.40068 0.14728 0.0
C752 C 0.78008 0.39614 0.13184 0.0
C753 C 0.81547 0.40739 0.14479 0.0
H754 H 0.81545 0.40558 0.0976 0.0
H755 H 0.76336 0.3917 0.13379 0.0
C756 C 0.73458 0.38549 0.03661 0.0
N757 N 0.72667 0.39009 0.99992 0.0
C758 C 0.72586 0.36776 0.02464 0.0
C759 C 0.73905 0.40549 0.02999 0.0
C760 C 0.72203 0.37043 0.00611 0.0
C761 C 0.735 0.40751 0.01137 0.0
C762 C 0.78246 0.36313 0.07131 0.0
C763 C 0.7898 0.35933 0.05451 0.0
C764 C 0.78349 0.35301 0.08743 0.0
C765 C 0.79753 0.34499 0.05404 0.0
C766 C 0.79136 0.3388 0.0864 0.0
N767 N 0.79813 0.33509 0.06986 0.0
C768 C 0.80763 0.4305 0.03958 0.0
C769 C 0.78458 0.39976 0.02156 0.0
C770 C 0.82209 0.43942 0.02474 0.0
N771 N 0.78931 0.41103 0.03772 0.0
C772 C 0.79832 0.40822 0.00628 0.0
C773 C 0.81755 0.42826 0.00773 0.0
H774 H 0.8112 0.43895 0.05271 0.0
H775 H 0.77027 0.38404 0.02057 0.0
C776 C 0.70512 0.32335 0.07538 0.0
N777 N 0.72479 0.33438 0.06694 0.0
C778 C 0.69095 0.30177 0.07098 0.0
C779 C 0.71746 0.30329 0.04921 0.0
C780 C 0.73109 0.32483 0.05402 0.0
C781 C 0.69697 0.29148 0.05761 0.0
H782 H 0.70019 0.33146 0.08521 0.0
H783 H 0.74645 0.33408 0.04704 0.0
O784 O 0.77533 0.41834 0.07969 0.0
O785 O 0.73806 0.37556 0.09584 0.0
O786 O 0.73857 0.38319 0.05475 0.0
O787 O 0.775 0.37726 0.07203 0.0
H788 H 0.78426 0.4358 0.11324 0.0
H789 H 0.77511 0.44619 0.05604 0.0
H790 H 0.79061 0.47216 0.12081 0.0
H791 H 0.7814 0.48228 0.06462 0.0
H792 H 0.72697 0.32129 0.13449 0.0
H793 H 0.71611 0.38245 0.12186 0.0
H794 H 0.7414 0.34188 0.10536 0.0
H795 H 0.7019 0.36101 0.15066 0.0
H796 H 0.7151 0.43753 0.11637 0.0
H797 H 0.68154 0.41065 0.06464 0.0
H798 H 0.84038 0.41438 0.12423 0.0
H799 H 0.78678 0.39942 0.16104 0.0
H800 H 0.72218 0.35213 0.02958 0.0
H801 H 0.74555 0.41929 0.03913 0.0
H802 H 0.71538 0.35688 0.99666 0.0
H803 H 0.73847 0.42292 0.00604 0.0
H804 H 0.78935 0.36722 0.04195 0.0
H805 H 0.77849 0.35623 0.10065 0.0
H806 H 0.80309 0.34175 0.04111 0.0
H807 H 0.79218 0.3308 0.09876 0.0
H808 H 0.83685 0.45467 0.02676 0.0
H809 H 0.7938 0.39908 0.99347 0.0
H810 H 0.67515 0.29346 0.07754 0.0
H811 H 0.72284 0.29604 0.03888 0.0
Li812 Li 0.39794 0.7757 0.25392 0.0
Li813 Li 0.36335 0.74881 0.24094 0.0
Li814 Li 0.3962 0.74687 0.23416 0.0
Li815 Li 0.39063 0.7743 0.22018 0.0
C816 C 0.39211 0.73908 0.27197 0.0
N817 N 0.41246 0.72823 0.29875 0.0
C818 C 0.37983 0.72262 0.28451 0.0
C819 C 0.41475 0.75005 0.27304 0.0
C820 C 0.39043 0.71737 0.29795 0.0
C821 C 0.42473 0.74431 0.28668 0.0
C822 C 0.3593 0.78318 0.24502 0.0
C823 C 0.32953 0.78764 0.23533 0.0
N824 N 0.324 0.78762 0.2534 0.0
C825 C 0.3535 0.78348 0.2635 0.0
C826 C 0.34738 0.7855 0.2308 0.0
C827 C 0.33553 0.78563 0.26746 0.0
C828 C 0.42907 0.81359 0.27224 0.0
N829 N 0.4112 0.79394 0.27474 0.0
C830 C 0.41117 0.80056 0.30725 0.0
C831 C 0.40215 0.78724 0.29178 0.0
C832 C 0.42966 0.82101 0.30516 0.0
C833 C 0.43865 0.82746 0.28734 0.0
H834 H 0.43579 0.81855 0.25848 0.0
H835 H 0.38775 0.77162 0.29331 0.0
C836 C 0.318 0.71956 0.23443 0.0
N837 N 0.33341 0.73148 0.24728 0.0
C838 C 0.29668 0.70534 0.23993 0.0
C839 C 0.3074 0.71611 0.27175 0.0
C840 C 0.3285 0.73006 0.26564 0.0
C841 C 0.2912 0.70322 0.25886 0.0
H842 H 0.32233 0.72044 0.21999 0.0
H843 H 0.34114 0.73942 0.2756 0.0
C844 C 0.43352 0.78351 0.22007 0.0
N845 N 0.46588 0.79437 0.19406 0.0
C846 C 0.4297 0.77063 0.20437 0.0
C847 C 0.45383 0.8019 0.22257 0.0
C848 C 0.44625 0.77638 0.19137 0.0
C849 C 0.46998 0.80713 0.20926 0.0
C850 C 0.36467 0.73792 0.19944 0.0
C851 C 0.37049 0.72635 0.18744 0.0
C852 C 0.35084 0.74498 0.19316 0.0
C853 C 0.36241 0.72213 0.16933 0.0
C854 C 0.34311 0.74044 0.17496 0.0
N855 N 0.34902 0.72921 0.16351 0.0
C856 C 0.39068 0.70667 0.22644 0.0
C857 C 0.42747 0.73284 0.23194 0.0
C858 C 0.39633 0.69115 0.22256 0.0
N859 N 0.40622 0.72711 0.23067 0.0
C860 C 0.43388 0.71779 0.22816 0.0
C861 C 0.41822 0.69669 0.22309 0.0
H862 H 0.37388 0.70253 0.22578 0.0
H863 H 0.4395 0.74917 0.23557 0.0
C864 C 0.39967 0.81231 0.20206 0.0
N865 N 0.39679 0.79242 0.19897 0.0
C866 C 0.40542 0.82693 0.1875 0.0
C867 C 0.40488 0.80024 0.16676 0.0
C868 C 0.39943 0.78627 0.18175 0.0
C869 C 0.40818 0.82101 0.16951 0.0
H870 H 0.39786 0.81695 0.21595 0.0
H871 H 0.39759 0.77063 0.17956 0.0
O872 O 0.3819 0.74434 0.25875 0.0
O873 O 0.37667 0.78081 0.24087 0.0
O874 O 0.4175 0.77828 0.23293 0.0
O875 O 0.37262 0.74239 0.21717 0.0
H876 H 0.36229 0.714 0.28385 0.0
H877 H 0.42453 0.76287 0.26349 0.0
H878 H 0.38113 0.70466 0.30776 0.0
H879 H 0.44222 0.75266 0.28767 0.0
H880 H 0.3201 0.78937 0.22446 0.0
H881 H 0.36264 0.78185 0.27466 0.0
H882 H 0.35193 0.78578 0.21644 0.0
H883 H 0.33074 0.7857 0.2817 0.0
H884 H 0.40346 0.79505 0.32064 0.0
H885 H 0.453 0.84298 0.2851 0.0
H886 H 0.28484 0.69546 0.22954 0.0
H887 H 0.3039 0.71518 0.28645 0.0
H888 H 0.41411 0.75634 0.20222 0.0
H889 H 0.45709 0.81205 0.23466 0.0
H890 H 0.44347 0.76655 0.17915 0.0
H891 H 0.48577 0.82133 0.21101 0.0
H892 H 0.38123 0.72081 0.19201 0.0
H893 H 0.34617 0.75392 0.20225 0.0
H894 H 0.36683 0.71326 0.15988 0.0
H895 H 0.33243 0.74586 0.16992 0.0
H896 H 0.38365 0.67498 0.21912 0.0
H897 H 0.45093 0.72279 0.22868 0.0
H898 H 0.40814 0.84285 0.19042 0.0
H899 H 0.40647 0.79473 0.15316 0.0
H900 H 0.15409 0.62556 0.2893 0.0
H901 H 0.18224 0.58601 0.30069 0.0
H902 H 0.18917 0.654 0.2779 0.0
H903 H 0.21687 0.61395 0.28868 0.0
H904 H 0.28067 0.67692 0.28894 0.0
H905 H 0.24491 0.64917 0.29903 0.0
H906 H 0.21594 0.66344 0.25281 0.0
H907 H 0.25185 0.69192 0.24305 0.0
C908 C 0.16768 0.62285 0.28922 0.0
C909 C 0.16532 0.6035 0.29594 0.0
C910 C 0.18773 0.63907 0.28254 0.0
C911 C 0.20586 0.63631 0.28253 0.0
C912 C 0.20332 0.61673 0.28876 0.0
C913 C 0.18334 0.60056 0.2954 0.0
C914 C 0.26669 0.67441 0.28106 0.0
C915 C 0.26916 0.68672 0.26521 0.0
C916 C 0.24618 0.65826 0.2867 0.0
C917 C 0.22757 0.65394 0.27663 0.0
C918 C 0.22994 0.66643 0.26092 0.0
C919 C 0.25053 0.68261 0.25524 0.0
H920 H 0.5623 0.17507 0.48556 0.0
H921 H 0.57693 0.1595 0.43145 0.0
H922 H 0.56882 0.2094 0.47389 0.0
H923 H 0.58367 0.1941 0.4198 0.0
H924 H 0.62366 0.26865 0.41614 0.0
H925 H 0.61192 0.23173 0.42484 0.0
H926 H 0.55611 0.22714 0.45267 0.0
H927 H 0.56821 0.26432 0.44442 0.0
C928 C 0.56641 0.17872 0.47105 0.0
C929 C 0.56913 0.16449 0.45947 0.0
C930 C 0.57021 0.19848 0.46436 0.0
C931 C 0.5769 0.20456 0.44594 0.0
C932 C 0.57887 0.19003 0.43415 0.0
C933 C 0.57499 0.17021 0.44082 0.0
C934 C 0.60888 0.25976 0.42411 0.0
C935 C 0.59696 0.26948 0.4297 0.0
C936 C 0.60201 0.23851 0.42891 0.0
C937 C 0.58308 0.22648 0.43947 0.0
C938 C 0.57086 0.23603 0.44467 0.0
C939 C 0.57769 0.25727 0.4398 0.0
H940 H 0.40538 0.56055 0.64834 0.0
H941 H 0.45207 0.60066 0.60708 0.0
H942 H 0.37832 0.56718 0.63434 0.0
H943 H 0.42489 0.607 0.59276 0.0
H944 H 0.38134 0.63702 0.58981 0.0
H945 H 0.40744 0.62692 0.59992 0.0
H946 H 0.35533 0.56172 0.60841 0.0
H947 H 0.32917 0.57202 0.59858 0.0
C948 C 0.4097 0.57038 0.636 0.0
C949 C 0.43088 0.58017 0.62887 0.0
C950 C 0.39417 0.57419 0.62794 0.0
C951 C 0.39943 0.58778 0.61247 0.0
C952 C 0.42039 0.59681 0.60488 0.0
C953 C 0.43595 0.59312 0.61302 0.0
C954 C 0.37549 0.62045 0.59355 0.0
C955 C 0.35318 0.60534 0.59344 0.0
C956 C 0.39047 0.61462 0.59932 0.0
C957 C 0.38353 0.59348 0.60503 0.0
C958 C 0.36124 0.57822 0.60442 0.0
C959 C 0.34624 0.5841 0.59875 0.0
H960 H 0.85183 0.44624 0.79294 0.0
H961 H 0.87524 0.40155 0.79645 0.0
H962 H 0.81786 0.41812 0.78006 0.0
H963 H 0.84077 0.37314 0.78381 0.0
H964 H 0.76551 0.32509 0.78366 0.0
H965 H 0.80185 0.35236 0.79383 0.0
H966 H 0.80318 0.39566 0.75199 0.0
H967 H 0.76678 0.36872 0.74217 0.0
C968 C 0.84994 0.43052 0.79065 0.0
C969 C 0.86644 0.42628 0.79562 0.0
C970 C 0.83036 0.41435 0.78331 0.0
C971 C 0.82664 0.39342 0.78085 0.0
C972 C 0.84311 0.38909 0.7857 0.0
C973 C 0.86283 0.40536 0.79295 0.0
C974 C 0.7736 0.34042 0.77663 0.0
C975 C 0.76321 0.34475 0.76216 0.0
C976 C 0.79449 0.35595 0.78233 0.0
C977 C 0.80534 0.37619 0.77376 0.0
C978 C 0.79516 0.3803 0.75899 0.0
C979 C 0.77437 0.36477 0.75324 0.0
H980 H 0.4687 0.86102 0.98607 0.0
H981 H 0.45134 0.87592 0.93311 0.0
H982 H 0.46168 0.82658 0.97387 0.0
H983 H 0.44411 0.84124 0.92093 0.0
H984 H 0.40432 0.76667 0.91721 0.0
H985 H 0.41631 0.80364 0.92627 0.0
H986 H 0.47344 0.80872 0.95167 0.0
H987 H 0.46109 0.77149 0.94309 0.0
C988 C 0.46387 0.85719 0.97168 0.0
C989 C 0.46054 0.87127 0.9606 0.0
C990 C 0.45979 0.83738 0.96469 0.0
C991 C 0.45221 0.8311 0.94645 0.0
C992 C 0.44961 0.84547 0.93514 0.0
C993 C 0.45376 0.86534 0.94212 0.0
C994 C 0.41944 0.77568 0.92473 0.0
C995 C 0.43166 0.76608 0.92955 0.0
C996 C 0.42645 0.79696 0.92973 0.0
C997 C 0.44582 0.80914 0.93973 0.0
C998 C 0.45834 0.79971 0.94413 0.0
C999 C 0.45136 0.77845 0.93906 0.0
H1000 H 0.58145 0.43706 0.10745 0.0
H1001 H 0.62517 0.47329 0.15201 0.0
H1002 H 0.60943 0.43161 0.09341 0.0
H1003 H 0.65293 0.46726 0.13846 0.0
H1004 H 0.70439 0.46416 0.1046 0.0
H1005 H 0.67794 0.47424 0.11432 0.0
H1006 H 0.6259 0.41097 0.09895 0.0
H1007 H 0.65236 0.40131 0.08871 0.0
C1008 C 0.59711 0.44392 0.11418 0.0
C1009 C 0.60113 0.45556 0.13082 0.0
C1010 C 0.61312 0.4407 0.10622 0.0
C1011 C 0.63345 0.44878 0.11487 0.0
C1012 C 0.63765 0.46104 0.13122 0.0
C1013 C 0.62171 0.46448 0.13904 0.0
C1014 C 0.68727 0.45251 0.10321 0.0
C1015 C 0.68043 0.43197 0.0959 0.0
C1016 C 0.6721 0.45823 0.10885 0.0
C1017 C 0.64971 0.44343 0.10751 0.0
C1018 C 0.64295 0.42298 0.09988 0.0
C1019 C 0.65812 0.41737 0.09406 0.0
H1020 H 0.45429 0.86747 0.53851 0.0
H1021 H 0.40775 0.86996 0.50199 0.0
H1022 H 0.42578 0.83353 0.55105 0.0
H1023 H 0.37906 0.83655 0.51514 0.0
H1024 H 0.3426 0.76322 0.52303 0.0
H1025 H 0.36909 0.79933 0.51311 0.0
H1026 H 0.39293 0.81581 0.56934 0.0
H1027 H 0.36639 0.77947 0.57926 0.0
C1028 C 0.43792 0.86091 0.53331 0.0
C1029 C 0.43338 0.87137 0.51911 0.0
C1030 C 0.42151 0.84156 0.54065 0.0
C1031 C 0.40013 0.83219 0.534 0.0
C1032 C 0.39542 0.84313 0.52037 0.0
C1033 C 0.41183 0.86246 0.51301 0.0
C1034 C 0.35324 0.77463 0.53335 0.0
C1035 C 0.35235 0.76844 0.55195 0.0
C1036 C 0.36845 0.79538 0.52767 0.0
C1037 C 0.38315 0.81053 0.54043 0.0
C1038 C 0.38204 0.80446 0.5591 0.0
C1039 C 0.36683 0.78365 0.56479 0.0
H1040 H 0.61507 0.45388 0.69135 0.0
H1041 H 0.54649 0.40858 0.69684 0.0
H1042 H 0.62319 0.42693 0.70226 0.0
H1043 H 0.55471 0.38117 0.70719 0.0
H1044 H 0.58122 0.34441 0.74121 0.0
H1045 H 0.57153 0.37135 0.73278 0.0
H1046 H 0.61937 0.394 0.68904 0.0
H1047 H 0.62891 0.36719 0.69729 0.0
C1048 C 0.60168 0.43826 0.69515 0.0
C1049 C 0.5801 0.43346 0.69326 0.0
C1050 C 0.60636 0.42268 0.70116 0.0
C1051 C 0.5896 0.40183 0.70539 0.0
C1052 C 0.56799 0.39712 0.70409 0.0
C1053 C 0.56328 0.41276 0.69802 0.0
C1054 C 0.58954 0.35505 0.72971 0.0
C1055 C 0.60602 0.35378 0.72006 0.0
C1056 C 0.58399 0.37048 0.7249 0.0
C1057 C 0.59485 0.38497 0.71038 0.0
C1058 C 0.61104 0.38342 0.70057 0.0
C1059 C 0.61654 0.36804 0.70533 0.0
H1060 H 0.16364 0.6001 0.87852 0.0
H1061 H 0.16625 0.55572 0.83959 0.0
H1062 H 0.19754 0.60664 0.89246 0.0
H1063 H 0.20024 0.56238 0.85338 0.0
H1064 H 0.25501 0.56905 0.8903 0.0
H1065 H 0.21828 0.55872 0.88046 0.0
H1066 H 0.23504 0.62525 0.88289 0.0
H1067 H 0.27154 0.6355 0.89272 0.0
C1068 C 0.1714 0.59164 0.87302 0.0
C1069 C 0.16235 0.57751 0.85787 0.0
C1070 C 0.19085 0.59543 0.88097 0.0
C1071 C 0.20176 0.58523 0.87391 0.0
C1072 C 0.19218 0.57035 0.8593 0.0
C1073 C 0.17268 0.56651 0.85138 0.0
C1074 C 0.25082 0.58145 0.88873 0.0
C1075 C 0.26622 0.6031 0.89233 0.0
C1076 C 0.22978 0.57553 0.8831 0.0
C1077 C 0.22367 0.59114 0.88094 0.0
C1078 C 0.23902 0.61274 0.88477 0.0
C1079 C 0.26 0.61864 0.8904 0.0
H1080 H 0.58021 0.16888 0.03994 0.0
H1081 H 0.62552 0.16749 0.00094 0.0
H1082 H 0.60893 0.20299 0.05233 0.0
H1083 H 0.65441 0.20119 0.01377 0.0
H1084 H 0.68931 0.27467 0.02248 0.0
H1085 H 0.66299 0.23837 0.01261 0.0
H1086 H 0.64305 0.22087 0.06953 0.0
H1087 H 0.66955 0.25732 0.07947 0.0
C1088 C 0.59637 0.17572 0.03417 0.0
C1089 C 0.60052 0.16553 0.01935 0.0
C1090 C 0.61289 0.19518 0.04139 0.0
C1091 C 0.63394 0.20492 0.03394 0.0
C1092 C 0.63829 0.19427 0.01965 0.0
C1093 C 0.62178 0.1748 0.01244 0.0
C1094 C 0.67961 0.26302 0.03296 0.0
C1095 C 0.68158 0.26895 0.05179 0.0
C1096 C 0.66449 0.24216 0.02729 0.0
C1097 C 0.65092 0.22668 0.04028 0.0
C1098 C 0.65308 0.23248 0.05914 0.0
C1099 C 0.66825 0.25337 0.06484 0.0
H1100 H 0.41483 0.58034 0.18793 0.0
H1101 H 0.48339 0.62473 0.19521 0.0
H1102 H 0.40691 0.6075 0.19896 0.0
H1103 H 0.47539 0.65237 0.20564 0.0
H1104 H 0.44872 0.68948 0.23943 0.0
H1105 H 0.45819 0.66231 0.23089 0.0
H1106 H 0.4116 0.64074 0.18619 0.0
H1107 H 0.40225 0.66775 0.19461 0.0
C1108 C 0.42824 0.5958 0.19213 0.0
C1109 C 0.44977 0.60029 0.19071 0.0
C1110 C 0.42369 0.6115 0.19821 0.0
C1111 C 0.44052 0.63218 0.20296 0.0
C1112 C 0.46206 0.63656 0.20213 0.0
C1113 C 0.46664 0.62079 0.19601 0.0
C1114 C 0.44064 0.67902 0.2277 0.0
C1115 C 0.42454 0.68062 0.21784 0.0
C1116 C 0.44606 0.66347 0.22282 0.0
C1117 C 0.43546 0.6492 0.20801 0.0
C1118 C 0.4197 0.65113 0.19796 0.0
C1119 C 0.41432 0.66662 0.2028 0.0
H1120 H 0.87241 0.45269 0.38432 0.0
H1121 H 0.85465 0.46854 0.33199 0.0
H1122 H 0.83793 0.44559 0.39762 0.0
H1123 H 0.82044 0.46166 0.34531 0.0
H1124 H 0.76668 0.46221 0.37802 0.0
H1125 H 0.80376 0.47407 0.3682 0.0
H1126 H 0.79963 0.41794 0.39348 0.0
H1127 H 0.76283 0.40643 0.40377 0.0
C1128 C 0.86124 0.45478 0.37569 0.0
C1129 C 0.86633 0.46116 0.35707 0.0
C1130 C 0.84148 0.45071 0.38331 0.0
C1131 C 0.82641 0.45299 0.37251 0.0
C1132 C 0.83181 0.46005 0.3541 0.0
C1133 C 0.85149 0.46404 0.34647 0.0
C1134 C 0.77382 0.4526 0.38176 0.0
C1135 C 0.76176 0.43331 0.3916 0.0
C1136 C 0.795 0.45929 0.37598 0.0
C1137 C 0.80462 0.4469 0.37998 0.0
C1138 C 0.79278 0.42796 0.3903 0.0
C1139 C 0.77159 0.42123 0.39602 0.0
H1140 H 0.12423 0.5315 0.42049 0.0
H1141 H 0.14247 0.59661 0.40642 0.0
H1142 H 0.14623 0.54442 0.44857 0.0
H1143 H 0.16485 0.60965 0.43423 0.0
H1144 H 0.19 0.62508 0.49342 0.0
H1145 H 0.16491 0.61111 0.4673 0.0
H1146 H 0.18367 0.56359 0.45702 0.0
H1147 H 0.20841 0.57734 0.48336 0.0
C1148 C 0.13293 0.54858 0.42344 0.0
C1149 C 0.13165 0.56304 0.41125 0.0
C1150 C 0.14563 0.55602 0.43948 0.0
C1151 C 0.1575 0.57812 0.44363 0.0
C1152 C 0.15573 0.59251 0.43164 0.0
C1153 C 0.1429 0.58504 0.41568 0.0
C1154 C 0.1888 0.6117 0.48551 0.0
C1155 C 0.20122 0.60234 0.49041 0.0
C1156 C 0.17443 0.60369 0.47053 0.0
C1157 C 0.17222 0.5862 0.46001 0.0
C1158 C 0.18461 0.57681 0.46499 0.0
C1159 C 0.19888 0.58473 0.48005 0.0
H1160 H 0.5833 0.11005 0.58751 0.0
H1161 H 0.60847 0.16857 0.55606 0.0
H1162 H 0.5926 0.13081 0.61641 0.0
H1163 H 0.61671 0.18926 0.58464 0.0
H1164 H 0.64759 0.22446 0.63717 0.0
H1165 H 0.64024 0.20221 0.60957 0.0
H1166 H 0.58347 0.15085 0.63624 0.0
H1167 H 0.59179 0.17292 0.66424 0.0
C1168 C 0.59068 0.12736 0.58685 0.0
C1169 C 0.59538 0.13777 0.56963 0.0
C1170 C 0.59591 0.13928 0.60337 0.0
C1171 C 0.60559 0.16183 0.60298 0.0
C1172 C 0.60988 0.17206 0.58562 0.0
C1173 C 0.60503 0.1602 0.56918 0.0
C1174 C 0.63364 0.20834 0.63709 0.0
C1175 C 0.62019 0.20038 0.65272 0.0
C1176 C 0.62928 0.1956 0.62124 0.0
C1177 C 0.61104 0.17473 0.62046 0.0
C1178 C 0.5978 0.16668 0.63632 0.0
C1179 C 0.60245 0.17933 0.65235 0.0
H1180 H 0.48814 0.62748 0.74034 0.0
H1181 H 0.45879 0.56171 0.75881 0.0
H1182 H 0.47649 0.63698 0.76877 0.0
H1183 H 0.44627 0.57106 0.78695 0.0
H1184 H 0.44351 0.59962 0.84306 0.0
H1185 H 0.45837 0.59115 0.81591 0.0
H1186 H 0.44285 0.63088 0.78211 0.0
H1187 H 0.42887 0.64003 0.80932 0.0
C1188 C 0.47939 0.61507 0.75054 0.0
C1189 C 0.47443 0.59381 0.74726 0.0
C1190 C 0.47243 0.62047 0.76675 0.0
C1191 C 0.46027 0.60476 0.78009 0.0
C1192 C 0.45572 0.5836 0.77703 0.0
C1193 C 0.46271 0.57818 0.7608 0.0
C1194 C 0.44353 0.60676 0.82987 0.0
C1195 C 0.43498 0.62051 0.82838 0.0
C1196 C 0.45182 0.60171 0.81427 0.0
C1197 C 0.45182 0.61033 0.79682 0.0
C1198 C 0.44337 0.62416 0.79537 0.0
C1199 C 0.43508 0.6292 0.81094 0.0
H1200 H 0.90411 0.44987 0.91417 0.0
H1201 H 0.89101 0.50217 0.91174 0.0
H1202 H 0.88455 0.43826 0.94321 0.0
H1203 H 0.86958 0.48925 0.93982 0.0
H1204 H 0.84357 0.47066 0.99774 0.0
H1205 H 0.86837 0.485 0.97167 0.0
H1206 H 0.84954 0.42039 0.95428 0.0
H1207 H 0.82649 0.40624 0.98124 0.0
C1208 C 0.8972 0.45903 0.91982 0.0
C1209 C 0.89915 0.47696 0.91039 0.0
C1210 C 0.88554 0.45207 0.9364 0.0
C1211 C 0.87507 0.46254 0.94387 0.0
C1212 C 0.87749 0.4808 0.93469 0.0
C1213 C 0.88953 0.48803 0.91831 0.0
C1214 C 0.84504 0.4595 0.9886 0.0
C1215 C 0.83282 0.43721 0.9917 0.0
C1216 C 0.85907 0.46775 0.9734 0.0
C1217 C 0.86101 0.45393 0.96067 0.0
C1218 C 0.84886 0.43166 0.96384 0.0
C1219 C 0.83518 0.42345 0.97921 0.0
H1220 H 0.47281 0.90498 0.07527 0.0
H1221 H 0.40947 0.89894 0.0773 0.0
H1222 H 0.46505 0.88494 0.10394 0.0
H1223 H 0.40104 0.87737 0.10516 0.0
H1224 H 0.39641 0.85129 0.16283 0.0
H1225 H 0.4072 0.87623 0.13702 0.0
H1226 H 0.44445 0.84946 0.11399 0.0
H1227 H 0.4351 0.82581 0.14043 0.0
C1228 C 0.45727 0.89956 0.08187 0.0
C1229 C 0.44175 0.90357 0.07381 0.0
C1230 C 0.45266 0.88769 0.0982 0.0
C1231 C 0.43227 0.87919 0.10682 0.0
C1232 C 0.41698 0.88373 0.09907 0.0
C1233 C 0.4217 0.89587 0.08286 0.0
C1234 C 0.40723 0.85099 0.15244 0.0
C1235 C 0.41477 0.83639 0.15376 0.0
C1236 C 0.41319 0.86512 0.13746 0.0
C1237 C 0.42668 0.8649 0.12329 0.0
C1238 C 0.43432 0.8504 0.12471 0.0
C1239 C 0.42859 0.83649 0.13978 0.0
H1240 H 0.56874 0.47147 0.25973 0.0
H1241 H 0.53599 0.40509 0.24188 0.0
H1242 H 0.58031 0.46171 0.28797 0.0
H1243 H 0.54641 0.39518 0.27055 0.0
H1244 H 0.59249 0.38958 0.31068 0.0
H1245 H 0.57849 0.39876 0.28375 0.0
H1246 H 0.56909 0.44342 0.31709 0.0
H1247 H 0.58429 0.43509 0.34387 0.0
C1248 C 0.56383 0.45477 0.26188 0.0
C1249 C 0.55154 0.43912 0.24841 0.0
C1250 C 0.57024 0.44912 0.27821 0.0
C1251 C 0.56443 0.42765 0.28152 0.0
C1252 C 0.5515 0.41192 0.26834 0.0
C1253 C 0.54523 0.41758 0.25198 0.0
C1254 C 0.58763 0.40151 0.31227 0.0
C1255 C 0.58969 0.41169 0.32945 0.0
C1256 C 0.57928 0.40655 0.29685 0.0
C1257 C 0.57258 0.42181 0.29821 0.0
C1258 C 0.5743 0.43176 0.31547 0.0
C1259 C 0.58277 0.42678 0.3309 0.0
H1260 H 0.49425 0.88357 0.40855 0.0
H1261 H 0.4619 0.91755 0.3912 0.0
H1262 H 0.48269 0.86234 0.38014 0.0
H1263 H 0.44946 0.89556 0.36311 0.0
H1264 H 0.44604 0.86454 0.30689 0.0
H1265 H 0.46126 0.88819 0.3338 0.0
H1266 H 0.44935 0.83383 0.36737 0.0
H1267 H 0.43504 0.8104 0.34035 0.0
C1268 C 0.48486 0.88669 0.39859 0.0
C1269 C 0.47902 0.9023 0.40219 0.0
C1270 C 0.47797 0.87428 0.3824 0.0
C1271 C 0.46498 0.8771 0.3694 0.0
C1272 C 0.45957 0.89307 0.37276 0.0
C1273 C 0.4665 0.90551 0.38896 0.0
C1274 C 0.44696 0.8577 0.31996 0.0
C1275 C 0.4393 0.83555 0.32145 0.0
C1276 C 0.45546 0.87122 0.33543 0.0
C1277 C 0.45652 0.86293 0.35276 0.0
C1278 C 0.44903 0.84082 0.3542 0.0
C1279 C 0.44056 0.82732 0.33874 0.0
H1280 H 0.57709 0.48756 0.56269 0.0
H1281 H 0.61336 0.46525 0.59382 0.0
H1282 H 0.58611 0.47576 0.53387 0.0
H1283 H 0.62166 0.45266 0.56534 0.0
H1284 H 0.65034 0.44932 0.51089 0.0
H1285 H 0.64253 0.46402 0.53838 0.0
H1286 H 0.57911 0.44525 0.51629 0.0
H1287 H 0.5875 0.43143 0.48841 0.0
C1288 C 0.58688 0.48 0.56333 0.0
C1289 C 0.5947 0.47749 0.58043 0.0
C1290 C 0.59198 0.47313 0.54686 0.0
C1291 C 0.60475 0.46332 0.54717 0.0
C1292 C 0.61229 0.46062 0.5644 0.0
C1293 C 0.60745 0.46775 0.58078 0.0
C1294 C 0.63478 0.44843 0.51194 0.0
C1295 C 0.61949 0.43918 0.4976 0.0
C1296 C 0.6302 0.45674 0.52774 0.0
C1297 C 0.61006 0.45566 0.52975 0.0
C1298 C 0.5949 0.44666 0.51519 0.0
C1299 C 0.59963 0.43864 0.49923 0.0
H1300 H 0.1572 0.57899 0.75075 0.0
H1301 H 0.11602 0.59966 0.72552 0.0
H1302 H 0.17986 0.58974 0.72306 0.0
H1303 H 0.13904 0.61083 0.69785 0.0
H1304 H 0.17363 0.60616 0.64468 0.0
H1305 H 0.14975 0.595 0.67166 0.0
H1306 H 0.20555 0.62427 0.70782 0.0
H1307 H 0.22947 0.63583 0.68092 0.0
C1308 C 0.15285 0.58563 0.7392 0.0
C1309 C 0.13477 0.58841 0.7403 0.0
C1310 C 0.16599 0.59202 0.72343 0.0
C1311 C 0.16132 0.60126 0.70833 0.0
C1312 C 0.14299 0.60366 0.70924 0.0
C1313 C 0.12991 0.59741 0.72511 0.0
C1314 C 0.18084 0.61051 0.65836 0.0
C1315 C 0.20352 0.62186 0.66059 0.0
C1316 C 0.16713 0.60404 0.67382 0.0
C1317 C 0.17577 0.60864 0.69185 0.0
C1318 C 0.19841 0.62017 0.69409 0.0
C1319 C 0.21211 0.62676 0.67866 0.0
H1320 H 0.53771 0.15239 0.90978 0.0
H1321 H 0.56933 0.11779 0.89163 0.0
H1322 H 0.54892 0.17328 0.88135 0.0
H1323 H 0.58146 0.13946 0.86355 0.0
H1324 H 0.58463 0.1701 0.8076 0.0
H1325 H 0.56955 0.14672 0.83449 0.0
H1326 H 0.58201 0.20149 0.86827 0.0
H1327 H 0.59613 0.22464 0.84126 0.0
C1328 C 0.54687 0.14906 0.89965 0.0
C1329 C 0.55261 0.13338 0.90303 0.0
C1330 C 0.55356 0.16128 0.88344 0.0
C1331 C 0.56626 0.1582 0.87022 0.0
C1332 C 0.57157 0.14216 0.87336 0.0
C1333 C 0.56482 0.12989 0.88957 0.0
C1334 C 0.58385 0.1771 0.8207 0.0
C1335 C 0.59162 0.19927 0.82225 0.0
C1336 C 0.57544 0.16373 0.83618 0.0
C1337 C 0.57458 0.17221 0.85357 0.0
C1338 C 0.58216 0.19435 0.85506 0.0
C1339 C 0.59054 0.20769 0.8396 0.0
H1340 H 0.41056 0.52837 0.07058 0.0
H1341 H 0.4703 0.58894 0.07716 0.0
H1342 H 0.40216 0.54198 0.04293 0.0
H1343 H 0.46261 0.60199 0.04886 0.0
H1344 H 0.42964 0.62848 0.01255 0.0
H1345 H 0.4391 0.61404 0.03891 0.0
H1346 H 0.41104 0.55227 0.01145 0.0
H1347 H 0.40029 0.56638 0.98554 0.0
C1348 C 0.42202 0.54452 0.06606 0.0
C1349 C 0.44103 0.55759 0.07626 0.0
C1350 C 0.41733 0.55224 0.05002 0.0
C1351 C 0.43162 0.57317 0.04367 0.0
C1352 C 0.45101 0.58594 0.0535 0.0
C1353 C 0.45561 0.57829 0.06961 0.0
C1354 C 0.42521 0.61173 0.01219 0.0
C1355 C 0.41402 0.59858 0.99692 0.0
C1356 C 0.43098 0.60352 0.02722 0.0
C1357 C 0.42593 0.58197 0.02734 0.0
C1358 C 0.41499 0.56887 0.01196 0.0
C1359 C 0.40906 0.57705 0.99697 0.0
H1360 H 0.86211 0.42409 0.25755 0.0
H1361 H 0.92151 0.45621 0.22605 0.0
H1362 H 0.84114 0.41508 0.22905 0.0
H1363 H 0.90057 0.44645 0.19721 0.0
H1364 H 0.85494 0.44337 0.15063 0.0
H1365 H 0.8774 0.45308 0.17851 0.0
H1366 H 0.83115 0.39234 0.20322 0.0
H1367 H 0.80844 0.38324 0.17569 0.0
C1368 C 0.87066 0.42899 0.24443 0.0
C1369 C 0.89341 0.4407 0.24397 0.0
C1370 C 0.85866 0.42372 0.22805 0.0
C1371 C 0.86909 0.42976 0.21071 0.0
C1372 C 0.89194 0.44169 0.21027 0.0
C1373 C 0.90397 0.44723 0.22676 0.0
C1374 C 0.84974 0.4321 0.16202 0.0
C1375 C 0.8299 0.41265 0.1611 0.0
C1376 C 0.86262 0.4376 0.17799 0.0
C1377 C 0.85605 0.42361 0.19328 0.0
C1378 C 0.8365 0.40381 0.19198 0.0
C1379 C 0.82352 0.39849 0.17617 0.0
loop_
_geom_bond_atom_site_label_1
_geom_bond_atom_site_label_2
_geom_bond_distance
_geom_bond_site_symmetry_2
_ccdc_geom_bond_type
H0 C27 0.929 . S
N1 C26 1.433 . S
N1 C32 1.435 . S
N1 C38 1.423 . S
H2 C28 0.930 . S
H3 C31 0.931 . S
H4 C30 0.929 . S
H5 C33 0.930 . S
H6 C34 0.932 . S
H7 C37 0.929 . S
H8 C36 0.931 . S
H9 C39 0.929 . S
H10 C43 0.932 . S
H11 C40 0.931 . S
H12 C42 0.929 . S
H13 C45 0.929 . S
H14 C46 0.930 . S
H15 C48 0.929 . S
H16 C49 0.931 . S
H17 C51 0.930 . S
H18 C52 0.932 . S
H19 C54 0.931 . S
H20 C55 0.929 . S
H21 C57 0.929 . S
H22 C58 0.931 1_455 S
H23 C60 0.929 . S
N24 C44 1.433 . S
N24 C50 1.435 . S
N24 C56 1.423 . S
H25 C61 0.932 . S
C26 N1 1.433 . S
C26 C27 1.363 . S
C26 C31 1.370 . S
C27 H0 0.929 . S
C27 C26 1.363 . S
C27 C28 1.385 . S
C28 H2 0.930 . S
C28 C27 1.385 . S
C28 C29 1.357 . S
C29 C28 1.357 . S
C29 C30 1.406 . S
C30 H4 0.929 . S
C30 C29 1.406 . S
C30 C31 1.391 . S
C31 H3 0.931 . S
C31 C26 1.370 . S
C31 C30 1.391 . S
C32 N1 1.435 . S
C32 C33 1.358 . S
C32 C37 1.371 . S
C33 H5 0.930 . S
C33 C32 1.358 . S
C33 C34 1.405 . S
C34 H6 0.932 . S
C34 C33 1.405 . S
C34 C35 1.383 . S
C35 C34 1.383 . S
C35 C36 1.393 . S
C36 H8 0.931 . S
C36 C35 1.393 . S
C36 C37 1.382 . S
C37 H7 0.929 . S
C37 C32 1.371 . S
C37 C36 1.382 . S
C38 N1 1.423 . S
C38 C39 1.362 . S
C38 C43 1.388 . S
C39 H9 0.929 . S
C39 C38 1.362 . S
C39 C40 1.376 . S
C40 H11 0.931 . S
C40 C39 1.376 . S
C40 C41 1.396 . S
C41 C40 1.396 . S
C41 C42 1.348 . S
C41 C59 1.472 . S
C42 H12 0.929 . S
C42 C41 1.348 . S
C42 C43 1.443 . S
C43 H10 0.932 . S
C43 C38 1.388 . S
C43 C42 1.443 . S
C44 N24 1.433 . S
C44 C45 1.363 . S
C44 C49 1.370 . S
C45 H13 0.929 . S
C45 C44 1.363 . S
C45 C46 1.385 . S
C46 H14 0.930 . S
C46 C45 1.385 . S
C46 C47 1.357 . S
C47 C46 1.357 . S
C47 C48 1.406 . S
C48 H15 0.929 . S
C48 C47 1.406 . S
C48 C49 1.391 . S
C49 H16 0.931 . S
C49 C44 1.370 . S
C49 C48 1.391 . S
C50 N24 1.435 . S
C50 C51 1.358 . S
C50 C55 1.371 . S
C51 H17 0.930 . S
C51 C50 1.358 . S
C51 C52 1.405 . S
C52 H18 0.932 . S
C52 C51 1.405 . S
C52 C53 1.383 . S
C53 C52 1.383 . S
C53 C54 1.393 . S
C54 H19 0.931 . S
C54 C53 1.393 . S
C54 C55 1.382 . S
C55 H20 0.929 . S
C55 C50 1.371 . S
C55 C54 1.382 . S
C56 N24 1.423 . S
C56 C57 1.362 . S
C56 C61 1.388 . S
C57 H21 0.929 . S
C57 C56 1.362 . S
C57 C58 1.376 . S
C58 H22 0.931 1_655 S
C58 C57 1.376 . S
C58 C59 1.396 1_655 S
C59 C41 1.472 . S
C59 C58 1.396 1_455 S
C59 C60 1.348 1_455 S
C60 H23 0.929 . S
C60 C59 1.348 1_655 S
C60 C61 1.443 . S
C61 H25 0.932 . S
C61 C56 1.388 . S
C61 C60 1.443 . S
H62 C89 0.929 . S
N63 C88 1.433 . S
N63 C94 1.435 . S
N63 C100 1.423 . S
H64 C90 0.930 . S
H65 C93 0.931 . S
H66 C92 0.929 . S
H67 C95 0.930 . S
H68 C96 0.932 . S
H69 C99 0.929 . S
H70 C98 0.931 . S
H71 C101 0.929 . S
H72 C105 0.932 . S
H73 C102 0.928 . S
H74 C104 0.929 . S
H75 C107 0.929 . S
H76 C108 0.930 . S
H77 C110 0.929 . S
H78 C111 0.931 . S
H79 C113 0.930 . S
H80 C114 0.932 . S
H81 C116 0.931 . S
H82 C117 0.929 . S
H83 C119 0.929 . S
H84 C120 0.931 . S
H85 C122 0.929 . S
N86 C106 1.433 . S
N86 C112 1.435 . S
N86 C118 1.423 . S
H87 C123 0.932 . S
C88 N63 1.433 . S
C88 C89 1.363 . S
C88 C93 1.370 . S
C89 H62 0.929 . S
C89 C88 1.363 . S
C89 C90 1.385 . S
C90 H64 0.930 . S
C90 C89 1.385 . S
C90 C91 1.357 . S
C91 C90 1.357 . S
C91 C92 1.406 . S
C92 H66 0.929 . S
C92 C91 1.406 . S
C92 C93 1.391 . S
C93 H65 0.931 . S
C93 C88 1.370 . S
C93 C92 1.391 . S
C94 N63 1.435 . S
C94 C95 1.358 . S
C94 C99 1.371 . S
C95 H67 0.930 . S
C95 C94 1.358 . S
C95 C96 1.405 . S
C96 H68 0.932 . S
C96 C95 1.405 . S
C96 C97 1.383 . S
C97 C96 1.383 . S
C97 C98 1.393 . S
C98 H70 0.931 . S
C98 C97 1.393 . S
C98 C99 1.382 . S
C99 H69 0.929 . S
C99 C94 1.371 . S
C99 C98 1.382 . S
C100 N63 1.423 . S
C100 C101 1.362 . S
C100 C105 1.388 . S
C101 H71 0.929 . S
C101 C100 1.362 . S
C101 C102 1.376 . S
C102 H73 0.928 . S
C102 C101 1.376 . S
C102 C103 1.396 1_565 S
C103 C102 1.396 1_545 S
C103 C104 1.348 . S
C103 C121 1.472 . S
C104 H74 0.929 . S
C104 C103 1.348 . S
C104 C105 1.443 1_545 S
C105 H72 0.932 . S
C105 C100 1.388 . S
C105 C104 1.443 1_565 S
C106 N86 1.433 . S
C106 C107 1.363 . S
C106 C111 1.370 . S
C107 H75 0.929 . S
C107 C106 1.363 . S
C107 C108 1.385 . S
C108 H76 0.930 . S
C108 C107 1.385 . S
C108 C109 1.357 . S
C109 C108 1.357 . S
C109 C110 1.406 . S
C110 H77 0.929 . S
C110 C109 1.406 . S
C110 C111 1.391 . S
C111 H78 0.931 . S
C111 C106 1.370 . S
C111 C110 1.391 . S
C112 N86 1.435 . S
C112 C113 1.358 . S
C112 C117 1.371 . S
C113 H79 0.930 . S
C113 C112 1.358 . S
C113 C114 1.405 . S
C114 H80 0.932 . S
C114 C113 1.405 . S
C114 C115 1.383 . S
C115 C114 1.383 . S
C115 C116 1.393 . S
C116 H81 0.931 . S
C116 C115 1.393 . S
C116 C117 1.382 . S
C117 H82 0.929 . S
C117 C112 1.371 . S
C117 C116 1.382 . S
C118 N86 1.423 . S
C118 C119 1.362 . S
C118 C123 1.388 . S
C119 H83 0.929 . S
C119 C118 1.362 . S
C119 C120 1.376 . S
C120 H84 0.931 . S
C120 C119 1.376 . S
C120 C121 1.396 . S
C121 C103 1.472 . S
C121 C120 1.396 . S
C121 C122 1.348 . S
C122 H85 0.929 . S
C122 C121 1.348 . S
C122 C123 1.443 . S
C123 H87 0.932 . S
C123 C118 1.388 . S
C123 C122 1.443 . S
H124 C151 0.929 . S
N125 C150 1.433 . S
N125 C156 1.435 . S
N125 C162 1.423 . S
H126 C152 0.930 . S
H127 C155 0.931 . S
H128 C154 0.929 . S
H129 C157 0.930 . S
H130 C158 0.932 . S
H131 C161 0.929 . S
H132 C160 0.931 . S
H133 C163 0.929 . S
H134 C167 0.932 . S
H135 C164 0.931 . S
H136 C166 0.929 . S
H137 C169 0.929 . S
H138 C170 0.930 . S
H139 C172 0.929 . S
H140 C173 0.931 . S
H141 C175 0.930 . S
H142 C176 0.932 . S
H143 C178 0.931 . S
H144 C179 0.929 . S
H145 C181 0.929 . S
H146 C182 0.931 . S
H147 C184 0.929 . S
N148 C168 1.433 . S
N148 C174 1.435 . S
N148 C180 1.423 . S
H149 C185 0.932 . S
C150 N125 1.433 . S
C150 C151 1.363 . S
C150 C155 1.370 . S
C151 H124 0.929 . S
C151 C150 1.363 . S
C151 C152 1.385 . S
C152 H126 0.930 . S
C152 C151 1.385 . S
C152 C153 1.357 . S
C153 C152 1.357 . S
C153 C154 1.406 . S
C154 H128 0.929 . S
C154 C153 1.406 . S
C154 C155 1.391 . S
C155 H127 0.931 . S
C155 C150 1.370 . S
C155 C154 1.391 . S
C156 N125 1.435 . S
C156 C157 1.358 . S
C156 C161 1.371 . S
C157 H129 0.930 . S
C157 C156 1.358 . S
C157 C158 1.405 . S
C158 H130 0.932 . S
C158 C157 1.405 . S
C158 C159 1.383 . S
C159 C158 1.383 . S
C159 C160 1.393 . S
C160 H132 0.931 . S
C160 C159 1.393 . S
C160 C161 1.382 . S
C161 H131 0.929 . S
C161 C156 1.371 . S
C161 C160 1.382 . S
C162 N125 1.423 . S
C162 C163 1.362 . S
C162 C167 1.388 . S
C163 H133 0.929 . S
C163 C162 1.362 . S
C163 C164 1.376 . S
C164 H135 0.931 . S
C164 C163 1.376 . S
C164 C165 1.396 . S
C165 C164 1.396 . S
C165 C166 1.348 . S
C165 C183 1.472 . S
C166 H136 0.929 . S
C166 C165 1.348 . S
C166 C167 1.443 . S
C167 H134 0.932 . S
C167 C162 1.388 . S
C167 C166 1.443 . S
C168 N148 1.433 . S
C168 C169 1.363 . S
C168 C173 1.370 . S
C169 H137 0.929 . S
C169 C168 1.363 . S
C169 C170 1.385 . S
C170 H138 0.930 . S
C170 C169 1.385 . S
C170 C171 1.357 . S
C171 C170 1.357 . S
C171 C172 1.406 . S
C172 H139 0.929 . S
C172 C171 1.406 . S
C172 C173 1.391 . S
C173 H140 0.931 . S
C173 C168 1.370 . S
C173 C172 1.391 . S
C174 N148 1.435 . S
C174 C175 1.358 . S
C174 C179 1.371 . S
C175 H141 0.930 . S
C175 C174 1.358 . S
C175 C176 1.405 . S
C176 H142 0.932 . S
C176 C175 1.405 . S
C176 C177 1.383 . S
C177 C176 1.383 . S
C177 C178 1.393 . S
C178 H143 0.931 . S
C178 C177 1.393 . S
C178 C179 1.382 . S
C179 H144 0.929 . S
C179 C174 1.371 . S
C179 C178 1.382 . S
C180 N148 1.423 . S
C180 C181 1.362 . S
C180 C185 1.388 . S
C181 H145 0.929 . S
C181 C180 1.362 . S
C181 C182 1.376 . S
C182 H146 0.931 . S
C182 C181 1.376 . S
C182 C183 1.396 . S
C183 C165 1.472 . S
C183 C182 1.396 . S
C183 C184 1.348 . S
C184 H147 0.929 . S
C184 C183 1.348 . S
C184 C185 1.443 . S
C185 H149 0.932 . S
C185 C180 1.388 . S
C185 C184 1.443 . S
H186 C213 0.929 . S
N187 C212 1.433 . S
N187 C218 1.435 . S
N187 C224 1.423 . S
H188 C214 0.930 . S
H189 C217 0.931 . S
H190 C216 0.929 . S
H191 C219 0.930 . S
H192 C220 0.932 . S
H193 C223 0.929 . S
H194 C222 0.931 . S
H195 C225 0.929 . S
H196 C229 0.932 . S
H197 C226 0.931 . S
H198 C228 0.929 . S
H199 C231 0.929 . S
H200 C232 0.930 . S
H201 C234 0.929 . S
H202 C235 0.931 . S
H203 C237 0.930 . S
H204 C238 0.932 . S
H205 C240 0.931 . S
H206 C241 0.929 . S
H207 C243 0.929 . S
H208 C244 0.931 1_455 S
H209 C246 0.929 . S
N210 C230 1.433 . S
N210 C236 1.435 . S
N210 C242 1.423 . S
H211 C247 0.932 . S
C212 N187 1.433 . S
C212 C213 1.363 . S
C212 C217 1.370 . S
C213 H186 0.929 . S
C213 C212 1.363 . S
C213 C214 1.385 . S
C214 H188 0.930 . S
C214 C213 1.385 . S
C214 C215 1.357 . S
C215 C214 1.357 . S
C215 C216 1.406 . S
C216 H190 0.929 . S
C216 C215 1.406 . S
C216 C217 1.391 . S
C217 H189 0.931 . S
C217 C212 1.370 . S
C217 C216 1.391 . S
C218 N187 1.435 . S
C218 C219 1.358 . S
C218 C223 1.371 . S
C219 H191 0.930 . S
C219 C218 1.358 . S
C219 C220 1.405 . S
C220 H192 0.932 . S
C220 C219 1.405 . S
C220 C221 1.383 . S
C221 C220 1.383 . S
C221 C222 1.393 . S
C222 H194 0.931 . S
C222 C221 1.393 . S
C222 C223 1.382 . S
C223 H193 0.929 . S
C223 C218 1.371 . S
C223 C222 1.382 . S
C224 N187 1.423 . S
C224 C225 1.362 . S
C224 C229 1.388 . S
C225 H195 0.929 . S
C225 C224 1.362 . S
C225 C226 1.376 . S
C226 H197 0.931 . S
C226 C225 1.376 . S
C226 C227 1.396 . S
C227 C226 1.396 . S
C227 C228 1.348 . S
C227 C245 1.472 . S
C228 H198 0.929 . S
C228 C227 1.348 . S
C228 C229 1.443 . S
C229 H196 0.932 . S
C229 C224 1.388 . S
C229 C228 1.443 . S
C230 N210 1.433 . S
C230 C231 1.363 . S
C230 C235 1.370 . S
C231 H199 0.929 . S
C231 C230 1.363 . S
C231 C232 1.385 . S
C232 H200 0.930 . S
C232 C231 1.385 . S
C232 C233 1.357 . S
C233 C232 1.357 . S
C233 C234 1.406 . S
C234 H201 0.929 . S
C234 C233 1.406 . S
C234 C235 1.391 . S
C235 H202 0.931 . S
C235 C230 1.370 . S
C235 C234 1.391 . S
C236 N210 1.435 . S
C236 C237 1.358 . S
C236 C241 1.371 . S
C237 H203 0.930 . S
C237 C236 1.358 . S
C237 C238 1.405 . S
C238 H204 0.932 . S
C238 C237 1.405 . S
C238 C239 1.383 . S
C239 C238 1.383 . S
C239 C240 1.393 . S
C240 H205 0.931 . S
C240 C239 1.393 . S
C240 C241 1.382 . S
C241 H206 0.929 . S
C241 C236 1.371 . S
C241 C240 1.382 . S
C242 N210 1.423 . S
C242 C243 1.362 . S
C242 C247 1.388 . S
C243 H207 0.929 . S
C243 C242 1.362 . S
C243 C244 1.376 . S
C244 H208 0.931 1_655 S
C244 C243 1.376 . S
C244 C245 1.396 1_655 S
C245 C227 1.472 . S
C245 C244 1.396 1_455 S
C245 C246 1.348 1_455 S
C246 H209 0.929 . S
C246 C245 1.348 1_655 S
C246 C247 1.443 . S
C247 H211 0.932 . S
C247 C242 1.388 . S
C247 C246 1.443 . S
H248 C275 0.929 . S
N249 C274 1.433 . S
N249 C280 1.435 . S
N249 C286 1.423 . S
H250 C276 0.934 . S
H251 C279 0.931 . S
H252 C278 0.929 . S
H253 C281 0.930 . S
H254 C282 0.932 . S
H255 C285 0.929 . S
H256 C284 0.931 . S
H257 C287 0.929 . S
H258 C291 0.932 . S
H259 C288 0.967 . S
H260 C290 0.929 . S
H261 C293 0.929 . S
H262 C294 0.930 . S
H263 C296 0.929 . S
H264 C297 0.931 . S
H265 C299 0.930 . S
H266 C300 0.932 . S
H267 C302 0.931 . S
H268 C303 0.929 . S
H269 C305 0.929 . S
H270 C306 0.931 1_545 S
H271 C308 0.929 . S
N272 C292 1.433 . S
N272 C298 1.435 1_554 S
N272 C304 1.423 . S
H273 C309 0.932 . S
C274 N249 1.433 . S
C274 C275 1.363 . S
C274 C279 1.420 . S
C275 H248 0.929 . S
C275 C274 1.363 . S
C275 C276 1.432 . S
C276 H250 0.934 . S
C276 C275 1.432 . S
C276 C277 1.309 1_556 S
C277 C276 1.309 1_554 S
C277 C278 1.406 . S
C278 H252 0.929 . S
C278 C277 1.406 . S
C278 C279 1.343 1_554 S
C279 H251 0.931 . S
C279 C274 1.420 . S
C279 C278 1.343 1_556 S
C280 N249 1.435 . S
C280 C281 1.358 . S
C280 C285 1.371 . S
C281 H253 0.930 . S
C281 C280 1.358 . S
C281 C282 1.405 . S
C282 H254 0.932 . S
C282 C281 1.405 . S
C282 C283 1.383 . S
C283 C282 1.383 . S
C283 C284 1.393 . S
C284 H256 0.931 . S
C284 C283 1.393 . S
C284 C285 1.382 . S
C285 H255 0.929 . S
C285 C280 1.371 . S
C285 C284 1.382 . S
C286 N249 1.423 . S
C286 C287 1.362 . S
C286 C291 1.388 . S
C287 H257 0.929 . S
C287 C286 1.362 . S
C287 C288 1.376 . S
C288 H259 0.967 . S
C288 C287 1.376 . S
C288 C289 1.396 . S
C289 C288 1.396 . S
C289 C290 1.348 . S
C289 C307 1.518 . S
C290 H260 0.929 . S
C290 C289 1.348 . S
C290 C291 1.443 . S
C291 H258 0.932 . S
C291 C286 1.388 . S
C291 C290 1.443 . S
C292 N272 1.433 . S
C292 C293 1.363 . S
C292 C297 1.370 . S
C293 H261 0.929 . S
C293 C292 1.363 . S
C293 C294 1.385 . S
C294 H262 0.930 . S
C294 C293 1.385 . S
C294 C295 1.357 . S
C295 C294 1.357 . S
C295 C296 1.406 . S
C296 H263 0.929 . S
C296 C295 1.406 . S
C296 C297 1.391 . S
C297 H264 0.931 . S
C297 C292 1.370 . S
C297 C296 1.391 . S
C298 N272 1.435 1_556 S
C298 C299 1.358 1_556 S
C298 C303 1.371 . S
C299 H265 0.930 . S
C299 C298 1.358 1_554 S
C299 C300 1.405 1_554 S
C300 H266 0.932 . S
C300 C299 1.405 1_556 S
C300 C301 1.383 . S
C301 C300 1.383 . S
C301 C302 1.393 . S
C302 H267 0.931 . S
C302 C301 1.393 . S
C302 C303 1.382 . S
C303 H268 0.929 . S
C303 C298 1.371 . S
C303 C302 1.382 . S
C304 N272 1.423 . S
C304 C305 1.362 . S
C304 C309 1.388 1_554 S
C305 H269 0.929 . S
C305 C304 1.362 . S
C305 C306 1.376 . S
C306 H270 0.931 1_565 S
C306 C305 1.376 . S
C306 C307 1.397 1_564 S
C307 C289 1.518 . S
C307 C306 1.397 1_546 S
C307 C308 1.299 1_545 S
C308 H271 0.929 . S
C308 C307 1.299 1_565 S
C308 C309 1.443 . S
C309 H273 0.932 . S
C309 C304 1.388 1_556 S
C309 C308 1.443 . S
H310 C337 0.929 . S
N311 C336 1.433 . S
N311 C342 1.435 . S
N311 C348 1.423 . S
H312 C338 0.930 . S
H313 C341 0.931 . S
H314 C340 0.929 . S
H315 C343 0.930 . S
H316 C344 0.932 . S
H317 C347 0.929 . S
H318 C346 0.931 . S
H319 C349 0.929 . S
H320 C353 0.932 . S
H321 C350 0.931 . S
H322 C352 0.929 . S
H323 C355 0.929 . S
H324 C356 0.930 . S
H325 C358 0.929 . S
H326 C359 0.931 . S
H327 C361 0.930 . S
H328 C362 0.932 . S
H329 C364 0.931 . S
H330 C365 0.929 . S
H331 C367 0.929 . S
H332 C368 0.931 . S
H333 C370 0.929 . S
N334 C354 1.433 . S
N334 C360 1.435 . S
N334 C366 1.423 . S
H335 C371 0.932 . S
C336 N311 1.433 . S
C336 C337 1.363 . S
C336 C341 1.370 . S
C337 H310 0.929 . S
C337 C336 1.363 . S
C337 C338 1.385 . S
C338 H312 0.930 . S
C338 C337 1.385 . S
C338 C339 1.357 . S
C339 C338 1.357 . S
C339 C340 1.406 . S
C340 H314 0.929 . S
C340 C339 1.406 . S
C340 C341 1.391 . S
C341 H313 0.931 . S
C341 C336 1.370 . S
C341 C340 1.391 . S
C342 N311 1.435 . S
C342 C343 1.358 . S
C342 C347 1.371 . S
C343 H315 0.930 . S
C343 C342 1.358 . S
C343 C344 1.405 . S
C344 H316 0.932 . S
C344 C343 1.405 . S
C344 C345 1.383 . S
C345 C344 1.383 . S
C345 C346 1.393 . S
C346 H318 0.931 . S
C346 C345 1.393 . S
C346 C347 1.382 . S
C347 H317 0.929 . S
C347 C342 1.371 . S
C347 C346 1.382 . S
C348 N311 1.423 . S
C348 C349 1.362 . S
C348 C353 1.388 . S
C349 H319 0.929 . S
C349 C348 1.362 . S
C349 C350 1.376 . S
C350 H321 0.931 . S
C350 C349 1.376 . S
C350 C351 1.396 . S
C351 C350 1.396 . S
C351 C352 1.348 . S
C351 C369 1.472 . S
C352 H322 0.929 . S
C352 C351 1.348 . S
C352 C353 1.443 . S
C353 H320 0.932 . S
C353 C348 1.388 . S
C353 C352 1.443 . S
C354 N334 1.433 . S
C354 C355 1.363 . S
C354 C359 1.370 . S
C355 H323 0.929 . S
C355 C354 1.363 . S
C355 C356 1.385 . S
C356 H324 0.930 . S
C356 C355 1.385 . S
C356 C357 1.357 . S
C357 C356 1.357 . S
C357 C358 1.406 . S
C358 H325 0.929 . S
C358 C357 1.406 . S
C358 C359 1.391 . S
C359 H326 0.931 . S
C359 C354 1.370 . S
C359 C358 1.391 . S
C360 N334 1.435 . S
C360 C361 1.358 . S
C360 C365 1.371 . S
C361 H327 0.930 . S
C361 C360 1.358 . S
C361 C362 1.405 . S
C362 H328 0.932 . S
C362 C361 1.405 . S
C362 C363 1.383 . S
C363 C362 1.383 . S
C363 C364 1.393 . S
C364 H329 0.931 . S
C364 C363 1.393 . S
C364 C365 1.382 . S
C365 H330 0.929 . S
C365 C360 1.371 . S
C365 C364 1.382 . S
C366 N334 1.423 . S
C366 C367 1.362 . S
C366 C371 1.388 . S
C367 H331 0.929 . S
C367 C366 1.362 . S
C367 C368 1.376 . S
C368 H332 0.931 . S
C368 C367 1.376 . S
C368 C369 1.396 . S
C369 C351 1.472 . S
C369 C368 1.396 . S
C369 C370 1.348 . S
C370 H333 0.929 . S
C370 C369 1.348 . S
C370 C371 1.443 . S
C371 H335 0.932 . S
C371 C366 1.388 . S
C371 C370 1.443 . S
Li372 N389 1.990 . S
Li372 O432 1.956 . S
Li372 O433 1.970 . S
Li372 O434 1.961 . S
Li373 N397 1.990 . S
Li373 O432 1.970 . S
Li373 O433 1.956 . S
Li373 O435 1.961 . S
Li374 N419 1.990 . S
Li374 O432 1.961 . S
Li374 O434 1.956 . S
Li374 O435 1.970 . S
Li375 N425 1.990 . S
Li375 O433 1.961 . S
Li375 O434 1.970 . S
Li375 O435 1.956 . S
C376 C378 1.348 . S
C376 C379 1.356 . S
C376 O432 1.325 . S
N377 C380 1.314 . S
N377 C381 1.279 . S
C378 C376 1.348 . S
C378 C380 1.353 . S
C378 H436 0.929 . S
C379 C376 1.356 . S
C379 C381 1.358 . S
C379 H437 0.930 . S
C380 N377 1.314 . S
C380 C378 1.353 . S
C380 H438 0.930 . S
C381 N377 1.279 . S
C381 C379 1.358 . S
C381 H439 0.930 . S
C382 C385 1.348 . S
C382 C386 1.356 . S
C382 O433 1.325 . S
C383 N384 1.279 . S
C383 C386 1.358 . S
C383 H440 0.930 . S
N384 C383 1.279 . S
N384 C387 1.314 . S
C385 C382 1.348 . S
C385 C387 1.353 . S
C385 H441 0.929 . S
C386 C382 1.356 . S
C386 C383 1.358 . S
C386 H442 0.930 . S
C387 N384 1.314 . S
C387 C385 1.353 . S
C387 H443 0.930 . S
C388 N389 1.314 . S
C388 C393 1.353 . S
C388 H394 0.930 . S
N389 Li372 1.990 . S
N389 C388 1.314 . S
N389 C391 1.279 . S
C390 C391 1.358 . S
C390 C392 1.356 . S
C390 H444 0.930 . S
C391 N389 1.279 . S
C391 C390 1.358 . S
C391 H395 0.930 . S
C392 C390 1.356 . S
C392 C393 1.348 . S
C393 C388 1.353 . S
C393 C392 1.348 . S
C393 H445 0.929 . S
H394 C388 0.930 . S
H395 C391 0.930 . S
C396 N397 1.314 . S
C396 C398 1.353 . S
C396 H402 0.930 . S
N397 Li373 1.990 . S
N397 C396 1.314 . S
N397 C400 1.279 . S
C398 C396 1.353 . S
C398 C401 1.348 . S
C398 H446 0.929 . S
C399 C400 1.358 . S
C399 C401 1.356 . S
C399 H447 0.930 . S
C400 N397 1.279 . S
C400 C399 1.358 . S
C400 H403 0.930 . S
C401 C398 1.348 . S
C401 C399 1.356 . S
H402 C396 0.930 . S
H403 C400 0.930 . S
C404 C406 1.348 . S
C404 C407 1.356 . S
C404 O434 1.325 . S
N405 C408 1.314 . S
N405 C409 1.279 . S
C406 C404 1.348 . S
C406 C408 1.353 . S
C406 H448 0.929 . S
C407 C404 1.356 . S
C407 C409 1.358 . S
C407 H449 0.930 . S
C408 N405 1.314 . S
C408 C406 1.353 . S
C408 H450 0.930 . S
C409 N405 1.279 . S
C409 C407 1.358 . S
C409 H451 0.930 . S
C410 C411 1.348 . S
C410 C412 1.356 . S
C410 O435 1.325 . S
C411 C410 1.348 . S
C411 C413 1.353 . S
C411 H452 0.929 . S
C412 C410 1.356 . S
C412 C414 1.358 . S
C412 H453 0.930 . S
C413 C411 1.353 . S
C413 N415 1.314 . S
C413 H454 0.930 . S
C414 C412 1.358 . S
C414 N415 1.279 . S
C414 H455 0.930 . S
N415 C413 1.314 . S
N415 C414 1.279 . S
C416 C418 1.353 . S
C416 N419 1.314 . S
C416 H422 0.930 . S
C417 N419 1.279 . S
C417 C420 1.358 . S
C417 H423 0.930 . S
C418 C416 1.353 . S
C418 C421 1.348 . S
C418 H456 0.929 . S
N419 Li374 1.990 . S
N419 C416 1.314 . S
N419 C417 1.279 . S
C420 C417 1.358 . S
C420 C421 1.356 . S
C420 H457 0.930 . S
C421 C418 1.348 . S
C421 C420 1.356 . S
H422 C416 0.930 . S
H423 C417 0.930 . S
C424 N425 1.314 . S
C424 C426 1.353 . S
C424 H430 0.930 . S
N425 Li375 1.990 . S
N425 C424 1.314 . S
N425 C428 1.279 . S
C426 C424 1.353 . S
C426 C429 1.348 . S
C426 H458 0.929 . S
C427 C428 1.358 . S
C427 C429 1.356 . S
C427 H459 0.930 . S
C428 N425 1.279 . S
C428 C427 1.358 . S
C428 H431 0.930 . S
C429 C426 1.348 . S
C429 C427 1.356 . S
H430 C424 0.930 . S
H431 C428 0.930 . S
O432 Li372 1.956 . S
O432 Li373 1.970 . S
O432 Li374 1.961 . S
O432 C376 1.325 . S
O433 Li372 1.970 . S
O433 Li373 1.956 . S
O433 Li375 1.961 . S
O433 C382 1.325 . S
O434 Li372 1.961 . S
O434 Li374 1.956 . S
O434 Li375 1.970 . S
O434 C404 1.325 . S
O435 Li373 1.961 . S
O435 Li374 1.970 . S
O435 Li375 1.956 . S
O435 C410 1.325 . S
H436 C378 0.929 . S
H437 C379 0.930 . S
H438 C380 0.930 . S
H439 C381 0.930 . S
H440 C383 0.930 . S
H441 C385 0.929 . S
H442 C386 0.930 . S
H443 C387 0.930 . S
H444 C390 0.930 . S
H445 C393 0.929 . S
H446 C398 0.929 . S
H447 C399 0.930 . S
H448 C406 0.929 . S
H449 C407 0.930 . S
H450 C408 0.930 . S
H451 C409 0.930 . S
H452 C411 0.929 . S
H453 C412 0.930 . S
H454 C413 0.930 . S
H455 C414 0.930 . S
H456 C418 0.929 . S
H457 C420 0.930 . S
H458 C426 0.929 . S
H459 C427 0.930 . S
Li460 N477 1.990 . S
Li460 O520 1.956 . S
Li460 O521 1.970 . S
Li460 O522 1.961 . S
Li461 N485 1.990 . S
Li461 O520 1.970 . S
Li461 O521 1.956 . S
Li461 O523 1.961 . S
Li462 N507 1.990 . S
Li462 O520 1.961 . S
Li462 O522 1.956 . S
Li462 O523 1.970 . S
Li463 N513 1.990 . S
Li463 O521 1.961 . S
Li463 O522 1.970 . S
Li463 O523 1.956 . S
C464 C466 1.348 . S
C464 C467 1.356 . S
C464 O520 1.325 . S
N465 C468 1.314 . S
N465 C469 1.279 . S
C466 C464 1.348 . S
C466 C468 1.353 . S
C466 H524 0.929 . S
C467 C464 1.356 . S
C467 C469 1.358 . S
C467 H525 0.930 . S
C468 N465 1.314 . S
C468 C466 1.353 . S
C468 H526 0.930 . S
C469 N465 1.279 . S
C469 C467 1.358 . S
C469 H527 0.930 . S
C470 C473 1.348 . S
C470 C474 1.356 . S
C470 O521 1.325 . S
C471 N472 1.279 . S
C471 C474 1.358 . S
C471 H528 0.930 . S
N472 C471 1.279 . S
N472 C475 1.314 . S
C473 C470 1.348 . S
C473 C475 1.353 . S
C473 H529 0.929 . S
C474 C470 1.356 . S
C474 C471 1.358 . S
C474 H530 0.930 . S
C475 N472 1.314 . S
C475 C473 1.353 . S
C475 H531 0.930 . S
C476 N477 1.314 . S
C476 C481 1.353 . S
C476 H482 0.930 . S
N477 Li460 1.990 . S
N477 C476 1.314 . S
N477 C479 1.279 . S
C478 C479 1.358 . S
C478 C480 1.356 . S
C478 H532 0.930 . S
C479 N477 1.279 . S
C479 C478 1.358 . S
C479 H483 0.930 . S
C480 C478 1.356 . S
C480 C481 1.348 . S
C481 C476 1.353 . S
C481 C480 1.348 . S
C481 H533 0.929 . S
H482 C476 0.930 . S
H483 C479 0.930 . S
C484 N485 1.314 . S
C484 C486 1.353 . S
C484 H490 0.930 . S
N485 Li461 1.990 . S
N485 C484 1.314 . S
N485 C488 1.279 . S
C486 C484 1.353 . S
C486 C489 1.348 . S
C486 H534 0.929 . S
C487 C488 1.358 . S
C487 C489 1.356 . S
C487 H535 0.930 . S
C488 N485 1.279 . S
C488 C487 1.358 . S
C488 H491 0.930 . S
C489 C486 1.348 . S
C489 C487 1.356 . S
H490 C484 0.930 . S
H491 C488 0.930 . S
C492 C494 1.348 . S
C492 C495 1.356 . S
C492 O522 1.325 . S
N493 C496 1.314 . S
N493 C497 1.279 . S
C494 C492 1.348 . S
C494 C496 1.353 . S
C494 H536 0.929 . S
C495 C492 1.356 . S
C495 C497 1.358 . S
C495 H537 0.930 . S
C496 N493 1.314 . S
C496 C494 1.353 . S
C496 H538 0.930 . S
C497 N493 1.279 . S
C497 C495 1.358 . S
C497 H539 0.930 . S
C498 C499 1.348 . S
C498 C500 1.356 . S
C498 O523 1.325 . S
C499 C498 1.348 . S
C499 C501 1.353 . S
C499 H540 0.929 . S
C500 C498 1.356 . S
C500 C502 1.358 . S
C500 H541 0.930 . S
C501 C499 1.353 . S
C501 N503 1.314 . S
C501 H542 0.930 . S
C502 C500 1.358 . S
C502 N503 1.279 . S
C502 H543 0.930 . S
N503 C501 1.314 . S
N503 C502 1.279 . S
C504 C506 1.353 . S
C504 N507 1.314 . S
C504 H510 0.930 . S
C505 N507 1.279 . S
C505 C508 1.358 . S
C505 H511 0.930 . S
C506 C504 1.353 . S
C506 C509 1.348 . S
C506 H544 0.929 . S
N507 Li462 1.990 . S
N507 C504 1.314 . S
N507 C505 1.279 . S
C508 C505 1.358 . S
C508 C509 1.356 . S
C508 H545 0.930 . S
C509 C506 1.348 . S
C509 C508 1.356 . S
H510 C504 0.930 . S
H511 C505 0.930 . S
C512 N513 1.314 . S
C512 C514 1.353 . S
C512 H518 0.930 . S
N513 Li463 1.990 . S
N513 C512 1.314 . S
N513 C516 1.279 . S
C514 C512 1.353 . S
C514 C517 1.348 . S
C514 H546 0.929 . S
C515 C516 1.358 . S
C515 C517 1.356 . S
C515 H547 0.930 . S
C516 N513 1.279 . S
C516 C515 1.358 . S
C516 H519 0.930 . S
C517 C514 1.348 . S
C517 C515 1.356 . S
H518 C512 0.930 . S
H519 C516 0.930 . S
O520 Li460 1.956 . S
O520 Li461 1.970 . S
O520 Li462 1.961 . S
O520 C464 1.325 . S
O521 Li460 1.970 . S
O521 Li461 1.956 . S
O521 Li463 1.961 . S
O521 C470 1.325 . S
O522 Li460 1.961 . S
O522 Li462 1.956 . S
O522 Li463 1.970 . S
O522 C492 1.325 . S
O523 Li461 1.961 . S
O523 Li462 1.970 . S
O523 Li463 1.956 . S
O523 C498 1.325 . S
H524 C466 0.929 . S
H525 C467 0.930 . S
H526 C468 0.930 . S
H527 C469 0.930 . S
H528 C471 0.930 . S
H529 C473 0.929 . S
H530 C474 0.930 . S
H531 C475 0.930 . S
H532 C478 0.930 . S
H533 C481 0.929 . S
H534 C486 0.929 . S
H535 C487 0.930 . S
H536 C494 0.929 . S
H537 C495 0.930 . S
H538 C496 0.930 . S
H539 C497 0.930 . S
H540 C499 0.929 . S
H541 C500 0.930 . S
H542 C501 0.930 . S
H543 C502 0.930 . S
H544 C506 0.929 . S
H545 C508 0.930 . S
H546 C514 0.929 . S
H547 C515 0.930 . S
Li548 N565 1.990 . S
Li548 O608 1.956 . S
Li548 O609 1.970 . S
Li548 O610 1.961 . S
Li549 N573 1.990 . S
Li549 O608 1.970 . S
Li549 O609 1.956 . S
Li549 O611 1.961 . S
Li550 N595 1.990 . S
Li550 O608 1.961 . S
Li550 O610 1.956 . S
Li550 O611 1.970 . S
Li551 N601 1.990 . S
Li551 O609 1.961 . S
Li551 O610 1.970 . S
Li551 O611 1.956 . S
C552 C554 1.348 . S
C552 C555 1.356 . S
C552 O608 1.325 . S
N553 C556 1.314 . S
N553 C557 1.279 . S
C554 C552 1.348 . S
C554 C556 1.353 . S
C554 H612 0.929 . S
C555 C552 1.356 . S
C555 C557 1.358 . S
C555 H613 0.930 . S
C556 N553 1.314 . S
C556 C554 1.353 . S
C556 H614 0.930 . S
C557 N553 1.279 . S
C557 C555 1.358 . S
C557 H615 0.930 . S
C558 C561 1.348 . S
C558 C562 1.356 . S
C558 O609 1.325 . S
C559 N560 1.279 . S
C559 C562 1.358 . S
C559 H616 0.930 . S
N560 C559 1.279 . S
N560 C563 1.314 . S
C561 C558 1.348 . S
C561 C563 1.353 . S
C561 H617 0.929 . S
C562 C558 1.356 . S
C562 C559 1.358 . S
C562 H618 0.930 . S
C563 N560 1.314 . S
C563 C561 1.353 . S
C563 H619 0.930 . S
C564 N565 1.314 . S
C564 C569 1.353 . S
C564 H570 0.930 . S
N565 Li548 1.990 . S
N565 C564 1.314 . S
N565 C567 1.279 . S
C566 C567 1.358 . S
C566 C568 1.356 . S
C566 H620 0.930 . S
C567 N565 1.279 . S
C567 C566 1.358 . S
C567 H571 0.930 . S
C568 C566 1.356 . S
C568 C569 1.348 . S
C569 C564 1.353 . S
C569 C568 1.348 . S
C569 H621 0.929 . S
H570 C564 0.930 . S
H571 C567 0.930 . S
C572 N573 1.314 . S
C572 C574 1.353 . S
C572 H578 0.930 . S
N573 Li549 1.990 . S
N573 C572 1.314 . S
N573 C576 1.279 . S
C574 C572 1.353 . S
C574 C577 1.348 . S
C574 H622 0.929 . S
C575 C576 1.358 . S
C575 C577 1.356 . S
C575 H623 0.930 . S
C576 N573 1.279 . S
C576 C575 1.358 . S
C576 H579 0.930 . S
C577 C574 1.348 . S
C577 C575 1.356 . S
H578 C572 0.930 . S
H579 C576 0.930 . S
C580 C582 1.348 . S
C580 C583 1.356 . S
C580 O610 1.325 . S
N581 C584 1.314 . S
N581 C585 1.279 . S
C582 C580 1.348 . S
C582 C584 1.353 . S
C582 H624 0.929 . S
C583 C580 1.356 . S
C583 C585 1.358 . S
C583 H625 0.930 . S
C584 N581 1.314 . S
C584 C582 1.353 . S
C584 H626 0.930 . S
C585 N581 1.279 . S
C585 C583 1.358 . S
C585 H627 0.930 . S
C586 C587 1.348 . S
C586 C588 1.356 . S
C586 O611 1.325 . S
C587 C586 1.348 . S
C587 C589 1.353 . S
C587 H628 0.929 . S
C588 C586 1.356 . S
C588 C590 1.358 . S
C588 H629 0.930 . S
C589 C587 1.353 . S
C589 N591 1.314 . S
C589 H630 0.930 . S
C590 C588 1.358 . S
C590 N591 1.279 . S
C590 H631 0.930 . S
N591 C589 1.314 . S
N591 C590 1.279 . S
C592 C594 1.353 . S
C592 N595 1.314 . S
C592 H598 0.930 . S
C593 N595 1.279 . S
C593 C596 1.358 . S
C593 H599 0.930 . S
C594 C592 1.353 . S
C594 C597 1.348 . S
C594 H632 0.929 . S
N595 Li550 1.990 . S
N595 C592 1.314 . S
N595 C593 1.279 . S
C596 C593 1.358 . S
C596 C597 1.356 . S
C596 H633 0.930 . S
C597 C594 1.348 . S
C597 C596 1.356 . S
H598 C592 0.930 . S
H599 C593 0.930 . S
C600 N601 1.314 . S
C600 C602 1.353 . S
C600 H606 0.930 . S
N601 Li551 1.990 . S
N601 C600 1.314 . S
N601 C604 1.279 . S
C602 C600 1.353 . S
C602 C605 1.348 . S
C602 H634 0.929 . S
C603 C604 1.358 . S
C603 C605 1.356 . S
C603 H635 0.930 . S
C604 N601 1.279 . S
C604 C603 1.358 . S
C604 H607 0.930 . S
C605 C602 1.348 . S
C605 C603 1.356 . S
H606 C600 0.930 . S
H607 C604 0.930 . S
O608 Li548 1.956 . S
O608 Li549 1.970 . S
O608 Li550 1.961 . S
O608 C552 1.325 . S
O609 Li548 1.970 . S
O609 Li549 1.956 . S
O609 Li551 1.961 . S
O609 C558 1.325 . S
O610 Li548 1.961 . S
O610 Li550 1.956 . S
O610 Li551 1.970 . S
O610 C580 1.325 . S
O611 Li549 1.961 . S
O611 Li550 1.970 . S
O611 Li551 1.956 . S
O611 C586 1.325 . S
H612 C554 0.929 . S
H613 C555 0.930 . S
H614 C556 0.930 . S
H615 C557 0.930 . S
H616 C559 0.930 . S
H617 C561 0.929 . S
H618 C562 0.930 . S
H619 C563 0.930 . S
H620 C566 0.930 . S
H621 C569 0.929 . S
H622 C574 0.929 . S
H623 C575 0.930 . S
H624 C582 0.929 . S
H625 C583 0.930 . S
H626 C584 0.930 . S
H627 C585 0.930 . S
H628 C587 0.929 . S
H629 C588 0.930 . S
H630 C589 0.930 . S
H631 C590 0.930 . S
H632 C594 0.929 . S
H633 C596 0.930 . S
H634 C602 0.929 . S
H635 C603 0.930 . S
Li636 N653 1.990 . S
Li636 O696 1.956 . S
Li636 O697 1.970 . S
Li636 O698 1.961 . S
Li637 N661 1.990 . S
Li637 O696 1.970 . S
Li637 O697 1.956 . S
Li637 O699 1.961 . S
Li638 N683 1.990 . S
Li638 O696 1.961 . S
Li638 O698 1.956 . S
Li638 O699 1.970 . S
Li639 N689 1.990 . S
Li639 O697 1.961 . S
Li639 O698 1.970 . S
Li639 O699 1.956 . S
C640 C642 1.348 . S
C640 C643 1.356 . S
C640 O696 1.325 . S
N641 C644 1.314 . S
N641 C645 1.279 . S
C642 C640 1.348 . S
C642 C644 1.353 . S
C642 H700 0.929 . S
C643 C640 1.356 . S
C643 C645 1.358 . S
C643 H701 0.930 . S
C644 N641 1.314 . S
C644 C642 1.353 . S
C644 H702 0.930 . S
C645 N641 1.279 . S
C645 C643 1.358 . S
C645 H703 0.930 . S
C646 C649 1.348 . S
C646 C650 1.356 . S
C646 O697 1.325 . S
C647 N648 1.279 . S
C647 C650 1.358 . S
C647 H704 0.930 . S
N648 C647 1.279 . S
N648 C651 1.314 . S
C649 C646 1.348 . S
C649 C651 1.353 . S
C649 H705 0.929 . S
C650 C646 1.356 . S
C650 C647 1.358 . S
C650 H706 0.930 . S
C651 N648 1.314 . S
C651 C649 1.353 . S
C651 H707 0.930 . S
C652 N653 1.314 . S
C652 C657 1.353 . S
C652 H658 0.930 . S
N653 Li636 1.990 . S
N653 C652 1.314 . S
N653 C655 1.279 . S
C654 C655 1.358 . S
C654 C656 1.356 . S
C654 H708 0.883 1_556 S
C655 N653 1.279 . S
C655 C654 1.358 . S
C655 H659 0.930 . S
C656 C654 1.356 . S
C656 C657 1.348 . S
C657 C652 1.353 . S
C657 C656 1.348 . S
C657 H709 0.929 . S
H658 C652 0.930 . S
H659 C655 0.930 . S
C660 N661 1.314 . S
C660 C662 1.353 . S
C660 H666 0.930 . S
N661 Li637 1.990 . S
N661 C660 1.314 . S
N661 C664 1.279 . S
C662 C660 1.353 . S
C662 C665 1.348 . S
C662 H710 0.929 . S
C663 C664 1.358 . S
C663 C665 1.356 . S
C663 H711 0.930 . S
C664 N661 1.279 . S
C664 C663 1.358 . S
C664 H667 0.930 . S
C665 C662 1.348 . S
C665 C663 1.356 . S
H666 C660 0.930 . S
H667 C664 0.930 . S
C668 C670 1.348 . S
C668 C671 1.356 . S
C668 O698 1.325 . S
N669 C672 1.314 . S
N669 C673 1.279 . S
C670 C668 1.348 . S
C670 C672 1.353 . S
C670 H712 0.929 . S
C671 C668 1.356 . S
C671 C673 1.358 . S
C671 H713 0.930 . S
C672 N669 1.314 . S
C672 C670 1.353 . S
C672 H714 0.930 . S
C673 N669 1.279 . S
C673 C671 1.358 . S
C673 H715 0.930 . S
C674 C675 1.348 . S
C674 C676 1.356 . S
C674 O699 1.325 . S
C675 C674 1.348 . S
C675 C677 1.353 . S
C675 H716 0.929 . S
C676 C674 1.356 . S
C676 C678 1.358 . S
C676 H717 0.930 . S
C677 C675 1.353 . S
C677 N679 1.314 . S
C677 H718 0.930 . S
C678 C676 1.358 . S
C678 N679 1.279 . S
C678 H719 0.930 . S
N679 C677 1.314 . S
N679 C678 1.279 . S
C680 C682 1.353 . S
C680 N683 1.314 . S
C680 H686 0.930 . S
C681 N683 1.279 . S
C681 C684 1.358 . S
C681 H687 0.930 . S
C682 C680 1.353 . S
C682 C685 1.348 . S
C682 H720 0.929 . S
N683 Li638 1.990 . S
N683 C680 1.314 . S
N683 C681 1.279 . S
C684 C681 1.358 . S
C684 C685 1.356 . S
C684 H721 0.930 . S
C685 C682 1.348 . S
C685 C684 1.356 . S
H686 C680 0.930 . S
H687 C681 0.930 . S
C688 N689 1.314 . S
C688 C690 1.353 . S
C688 H694 0.930 . S
N689 Li639 1.990 . S
N689 C688 1.314 . S
N689 C692 1.279 . S
C690 C688 1.353 . S
C690 C693 1.348 . S
C690 H722 0.929 . S
C691 C692 1.358 . S
C691 C693 1.356 . S
C691 H723 0.930 . S
C692 N689 1.279 . S
C692 C691 1.358 . S
C692 H695 0.930 . S
C693 C690 1.348 . S
C693 C691 1.356 . S
H694 C688 0.930 . S
H695 C692 0.930 . S
O696 Li636 1.956 . S
O696 Li637 1.970 . S
O696 Li638 1.961 . S
O696 C640 1.325 . S
O697 Li636 1.970 . S
O697 Li637 1.956 . S
O697 Li639 1.961 . S
O697 C646 1.325 . S
O698 Li636 1.961 . S
O698 Li638 1.956 . S
O698 Li639 1.970 . S
O698 C668 1.325 . S
O699 Li637 1.961 . S
O699 Li638 1.970 . S
O699 Li639 1.956 . S
O699 C674 1.325 . S
H700 C642 0.929 . S
H701 C643 0.930 . S
H702 C644 0.930 . S
H703 C645 0.930 . S
H704 C647 0.930 . S
H705 C649 0.929 . S
H706 C650 0.930 . S
H707 C651 0.930 . S
H708 C654 0.883 1_554 S
H709 C657 0.929 . S
H710 C662 0.929 . S
H711 C663 0.930 . S
H712 C670 0.929 . S
H713 C671 0.930 . S
H714 C672 0.930 . S
H715 C673 0.930 . S
H716 C675 0.929 . S
H717 C676 0.930 . S
H718 C677 0.930 . S
H719 C678 0.930 . S
H720 C682 0.929 . S
H721 C684 0.930 . S
H722 C690 0.929 . S
H723 C691 0.930 . S
Li724 N741 1.990 . S
Li724 O784 1.956 . S
Li724 O785 1.970 . S
Li724 O786 1.961 . S
Li725 N749 1.990 . S
Li725 O784 1.970 . S
Li725 O785 1.956 . S
Li725 O787 1.961 . S
Li726 N771 1.990 . S
Li726 O784 1.961 . S
Li726 O786 1.956 . S
Li726 O787 1.970 . S
Li727 N777 1.990 . S
Li727 O785 1.961 . S
Li727 O786 1.970 . S
Li727 O787 1.956 . S
C728 C730 1.348 . S
C728 C731 1.356 . S
C728 O784 1.325 . S
N729 C732 1.314 . S
N729 C733 1.279 . S
C730 C728 1.348 . S
C730 C732 1.353 . S
C730 H788 0.929 . S
C731 C728 1.356 . S
C731 C733 1.358 . S
C731 H789 0.930 . S
C732 N729 1.314 . S
C732 C730 1.353 . S
C732 H790 0.930 . S
C733 N729 1.279 . S
C733 C731 1.358 . S
C733 H791 0.930 . S
C734 C737 1.348 . S
C734 C738 1.356 . S
C734 O785 1.325 . S
C735 N736 1.279 . S
C735 C738 1.358 . S
C735 H792 0.930 . S
N736 C735 1.279 . S
N736 C739 1.314 . S
C737 C734 1.348 . S
C737 C739 1.353 . S
C737 H793 0.929 . S
C738 C734 1.356 . S
C738 C735 1.358 . S
C738 H794 0.930 . S
C739 N736 1.314 . S
C739 C737 1.353 . S
C739 H795 0.930 . S
C740 N741 1.314 . S
C740 C745 1.353 . S
C740 H746 0.930 . S
N741 Li724 1.990 . S
N741 C740 1.314 . S
N741 C743 1.279 . S
C742 C743 1.358 . S
C742 C744 1.356 . S
C742 H796 0.930 . S
C743 N741 1.279 . S
C743 C742 1.358 . S
C743 H747 0.930 . S
C744 C742 1.356 . S
C744 C745 1.348 . S
C745 C740 1.353 . S
C745 C744 1.348 . S
C745 H797 0.929 . S
H746 C740 0.930 . S
H747 C743 0.930 . S
C748 N749 1.314 . S
C748 C750 1.353 . S
C748 H754 0.930 . S
N749 Li725 1.990 . S
N749 C748 1.314 . S
N749 C752 1.279 . S
C750 C748 1.353 . S
C750 C753 1.348 . S
C750 H798 0.929 . S
C751 C752 1.358 . S
C751 C753 1.356 . S
C751 H799 0.930 . S
C752 N749 1.279 . S
C752 C751 1.358 . S
C752 H755 0.930 . S
C753 C750 1.348 . S
C753 C751 1.356 . S
H754 C748 0.930 . S
H755 C752 0.930 . S
C756 C758 1.348 . S
C756 C759 1.356 . S
C756 O786 1.325 . S
N757 C760 1.314 . S
N757 C761 1.279 . S
C758 C756 1.348 . S
C758 C760 1.353 . S
C758 H800 0.929 . S
C759 C756 1.356 . S
C759 C761 1.358 . S
C759 H801 0.930 . S
C760 N757 1.314 . S
C760 C758 1.353 . S
C760 H802 0.930 . S
C761 N757 1.279 . S
C761 C759 1.358 . S
C761 H803 0.930 . S
C762 C763 1.348 . S
C762 C764 1.356 . S
C762 O787 1.325 . S
C763 C762 1.348 . S
C763 C765 1.353 . S
C763 H804 0.929 . S
C764 C762 1.356 . S
C764 C766 1.358 . S
C764 H805 0.930 . S
C765 C763 1.353 . S
C765 N767 1.314 . S
C765 H806 0.930 . S
C766 C764 1.358 . S
C766 N767 1.279 . S
C766 H807 0.930 . S
N767 C765 1.314 . S
N767 C766 1.279 . S
C768 C770 1.353 . S
C768 N771 1.314 . S
C768 H774 0.930 . S
C769 N771 1.279 . S
C769 C772 1.358 . S
C769 H775 0.930 . S
C770 C768 1.353 . S
C770 C773 1.348 . S
C770 H808 0.929 . S
N771 Li726 1.990 . S
N771 C768 1.314 . S
N771 C769 1.279 . S
C772 C769 1.358 . S
C772 C773 1.356 . S
C772 H809 0.930 1_554 S
C773 C770 1.348 . S
C773 C772 1.356 . S
H774 C768 0.930 . S
H775 C769 0.930 . S
C776 N777 1.314 . S
C776 C778 1.353 . S
C776 H782 0.930 . S
N777 Li727 1.990 . S
N777 C776 1.314 . S
N777 C780 1.279 . S
C778 C776 1.353 . S
C778 C781 1.348 . S
C778 H810 0.929 . S
C779 C780 1.358 . S
C779 C781 1.356 . S
C779 H811 0.930 . S
C780 N777 1.279 . S
C780 C779 1.358 . S
C780 H783 0.930 . S
C781 C778 1.348 . S
C781 C779 1.356 . S
H782 C776 0.930 . S
H783 C780 0.930 . S
O784 Li724 1.956 . S
O784 Li725 1.970 . S
O784 Li726 1.961 . S
O784 C728 1.325 . S
O785 Li724 1.970 . S
O785 Li725 1.956 . S
O785 Li727 1.961 . S
O785 C734 1.325 . S
O786 Li724 1.961 . S
O786 Li726 1.956 . S
O786 Li727 1.970 . S
O786 C756 1.325 . S
O787 Li725 1.961 . S
O787 Li726 1.970 . S
O787 Li727 1.956 . S
O787 C762 1.325 . S
H788 C730 0.929 . S
H789 C731 0.930 . S
H790 C732 0.930 . S
H791 C733 0.930 . S
H792 C735 0.930 . S
H793 C737 0.929 . S
H794 C738 0.930 . S
H795 C739 0.930 . S
H796 C742 0.930 . S
H797 C745 0.929 . S
H798 C750 0.929 . S
H799 C751 0.930 . S
H800 C758 0.929 . S
H801 C759 0.930 . S
H802 C760 0.930 . S
H803 C761 0.930 . S
H804 C763 0.929 . S
H805 C764 0.930 . S
H806 C765 0.930 . S
H807 C766 0.930 . S
H808 C770 0.929 . S
H809 C772 0.930 1_556 S
H810 C778 0.929 . S
H811 C779 0.930 . S
Li812 N829 1.990 . S
Li812 O872 1.956 . S
Li812 O873 1.970 . S
Li812 O874 1.961 . S
Li813 N837 1.990 . S
Li813 O872 1.970 . S
Li813 O873 1.956 . S
Li813 O875 1.961 . S
Li814 N859 1.990 . S
Li814 O872 1.961 . S
Li814 O874 1.956 . S
Li814 O875 1.970 . S
Li815 N865 1.990 . S
Li815 O873 1.961 . S
Li815 O874 1.970 . S
Li815 O875 1.956 . S
C816 C818 1.348 . S
C816 C819 1.356 . S
C816 O872 1.325 . S
N817 C820 1.314 . S
N817 C821 1.279 . S
C818 C816 1.348 . S
C818 C820 1.353 . S
C818 H876 0.929 . S
C819 C816 1.356 . S
C819 C821 1.358 . S
C819 H877 0.930 . S
C820 N817 1.314 . S
C820 C818 1.353 . S
C820 H878 0.930 . S
C821 N817 1.279 . S
C821 C819 1.358 . S
C821 H879 0.930 . S
C822 C825 1.348 . S
C822 C826 1.356 . S
C822 O873 1.325 . S
C823 N824 1.279 . S
C823 C826 1.358 . S
C823 H880 0.930 . S
N824 C823 1.279 . S
N824 C827 1.314 . S
C825 C822 1.348 . S
C825 C827 1.353 . S
C825 H881 0.929 . S
C826 C822 1.356 . S
C826 C823 1.358 . S
C826 H882 0.930 . S
C827 N824 1.314 . S
C827 C825 1.353 . S
C827 H883 0.930 . S
C828 N829 1.314 . S
C828 C833 1.353 . S
C828 H834 0.930 . S
N829 Li812 1.990 . S
N829 C828 1.314 . S
N829 C831 1.279 . S
C830 C831 1.358 . S
C830 C832 1.356 . S
C830 H884 0.930 . S
C831 N829 1.279 . S
C831 C830 1.358 . S
C831 H835 0.930 . S
C832 C830 1.356 . S
C832 C833 1.348 . S
C833 C828 1.353 . S
C833 C832 1.348 . S
C833 H885 0.929 . S
H834 C828 0.930 . S
H835 C831 0.930 . S
C836 N837 1.314 . S
C836 C838 1.353 . S
C836 H842 0.930 . S
N837 Li813 1.990 . S
N837 C836 1.314 . S
N837 C840 1.279 . S
C838 C836 1.353 . S
C838 C841 1.348 . S
C838 H886 0.929 . S
C839 C840 1.358 . S
C839 C841 1.356 . S
C839 H887 0.930 . S
C840 N837 1.279 . S
C840 C839 1.358 . S
C840 H843 0.930 . S
C841 C838 1.348 . S
C841 C839 1.356 . S
H842 C836 0.930 . S
H843 C840 0.930 . S
C844 C846 1.348 . S
C844 C847 1.356 . S
C844 O874 1.325 . S
N845 C848 1.314 . S
N845 C849 1.279 . S
C846 C844 1.348 . S
C846 C848 1.353 . S
C846 H888 0.929 . S
C847 C844 1.356 . S
C847 C849 1.358 . S
C847 H889 0.930 . S
C848 N845 1.314 . S
C848 C846 1.353 . S
C848 H890 0.930 . S
C849 N845 1.279 . S
C849 C847 1.358 . S
C849 H891 0.930 . S
C850 C851 1.348 . S
C850 C852 1.356 . S
C850 O875 1.325 . S
C851 C850 1.348 . S
C851 C853 1.353 . S
C851 H892 0.929 . S
C852 C850 1.356 . S
C852 C854 1.358 . S
C852 H893 0.930 . S
C853 C851 1.353 . S
C853 N855 1.314 . S
C853 H894 0.930 . S
C854 C852 1.358 . S
C854 N855 1.279 . S
C854 H895 0.930 . S
N855 C853 1.314 . S
N855 C854 1.279 . S
C856 C858 1.353 . S
C856 N859 1.314 . S
C856 H862 0.930 . S
C857 N859 1.279 . S
C857 C860 1.358 . S
C857 H863 0.930 . S
C858 C856 1.353 . S
C858 C861 1.348 . S
C858 H896 0.929 . S
N859 Li814 1.990 . S
N859 C856 1.314 . S
N859 C857 1.279 . S
C860 C857 1.358 . S
C860 C861 1.356 . S
C860 H897 0.930 . S
C861 C858 1.348 . S
C861 C860 1.356 . S
H862 C856 0.930 . S
H863 C857 0.930 . S
C864 N865 1.314 . S
C864 C866 1.353 . S
C864 H870 0.930 . S
N865 Li815 1.990 . S
N865 C864 1.314 . S
N865 C868 1.279 . S
C866 C864 1.353 . S
C866 C869 1.348 . S
C866 H898 0.929 . S
C867 C868 1.358 . S
C867 C869 1.356 . S
C867 H899 0.930 . S
C868 N865 1.279 . S
C868 C867 1.358 . S
C868 H871 0.930 . S
C869 C866 1.348 . S
C869 C867 1.356 . S
H870 C864 0.930 . S
H871 C868 0.930 . S
O872 Li812 1.956 . S
O872 Li813 1.970 . S
O872 Li814 1.961 . S
O872 C816 1.325 . S
O873 Li812 1.970 . S
O873 Li813 1.956 . S
O873 Li815 1.961 . S
O873 C822 1.325 . S
O874 Li812 1.961 . S
O874 Li814 1.956 . S
O874 Li815 1.970 . S
O874 C844 1.325 . S
O875 Li813 1.961 . S
O875 Li814 1.970 . S
O875 Li815 1.956 . S
O875 C850 1.325 . S
H876 C818 0.929 . S
H877 C819 0.930 . S
H878 C820 0.930 . S
H879 C821 0.930 . S
H880 C823 0.930 . S
H881 C825 0.929 . S
H882 C826 0.930 . S
H883 C827 0.930 . S
H884 C830 0.930 . S
H885 C833 0.929 . S
H886 C838 0.929 . S
H887 C839 0.930 . S
H888 C846 0.929 . S
H889 C847 0.930 . S
H890 C848 0.930 . S
H891 C849 0.930 . S
H892 C851 0.929 . S
H893 C852 0.930 . S
H894 C853 0.930 . S
H895 C854 0.930 . S
H896 C858 0.929 . S
H897 C860 0.930 . S
H898 C866 0.929 . S
H899 C867 0.930 . S
H900 C908 0.950 . S
H901 C913 0.950 . S
H902 C910 0.950 . S
H903 C912 0.950 . S
H904 C914 0.950 . S
H905 C916 0.950 . S
H906 C918 0.950 . S
H907 C919 0.950 . S
C908 H900 0.950 . S
C908 C909 1.386 . S
C908 C910 1.391 . S
C909 C908 1.386 . S
C909 C913 1.393 . S
C910 H902 0.950 . S
C910 C908 1.391 . S
C910 C911 1.400 . S
C911 C910 1.400 . S
C911 C912 1.398 . S
C911 C917 1.491 . S
C912 H903 0.950 . S
C912 C911 1.398 . S
C912 C913 1.391 . S
C913 H901 0.950 . S
C913 C909 1.393 . S
C913 C912 1.391 . S
C914 H904 0.950 . S
C914 C915 1.386 . S
C914 C916 1.391 . S
C915 C914 1.386 . S
C915 C919 1.393 . S
C916 H905 0.950 . S
C916 C914 1.391 . S
C916 C917 1.400 . S
C917 C911 1.491 . S
C917 C916 1.400 . S
C917 C918 1.398 . S
C918 H906 0.950 . S
C918 C917 1.398 . S
C918 C919 1.391 . S
C919 H907 0.950 . S
C919 C915 1.393 . S
C919 C918 1.391 . S
H920 C928 0.950 . S
H921 C933 0.950 . S
H922 C930 0.950 . S
H923 C932 0.950 . S
H924 C934 0.950 . S
H925 C936 0.950 . S
H926 C938 0.950 . S
H927 C939 0.950 . S
C928 H920 0.950 . S
C928 C929 1.386 . S
C928 C930 1.391 . S
C929 C928 1.386 . S
C929 C933 1.393 . S
C930 H922 0.950 . S
C930 C928 1.391 . S
C930 C931 1.400 . S
C931 C930 1.400 . S
C931 C932 1.398 . S
C931 C937 1.491 . S
C932 H923 0.950 . S
C932 C931 1.398 . S
C932 C933 1.391 . S
C933 H921 0.950 . S
C933 C929 1.393 . S
C933 C932 1.391 . S
C934 H924 0.950 . S
C934 C935 1.386 . S
C934 C936 1.391 . S
C935 C934 1.386 . S
C935 C939 1.393 . S
C936 H925 0.950 . S
C936 C934 1.391 . S
C936 C937 1.400 . S
C937 C931 1.491 . S
C937 C936 1.400 . S
C937 C938 1.398 . S
C938 H926 0.950 . S
C938 C937 1.398 . S
C938 C939 1.391 . S
C939 H927 0.950 . S
C939 C935 1.393 . S
C939 C938 1.391 . S
H940 C948 0.950 . S
H941 C953 0.950 . S
H942 C950 0.950 . S
H943 C952 0.950 . S
H944 C954 0.950 . S
H945 C956 0.950 . S
H946 C958 0.950 . S
H947 C959 0.950 . S
C948 H940 0.950 . S
C948 C949 1.386 . S
C948 C950 1.391 . S
C949 C948 1.386 . S
C949 C953 1.393 . S
C950 H942 0.950 . S
C950 C948 1.391 . S
C950 C951 1.400 . S
C951 C950 1.400 . S
C951 C952 1.398 . S
C951 C957 1.491 . S
C952 H943 0.950 . S
C952 C951 1.398 . S
C952 C953 1.391 . S
C953 H941 0.950 . S
C953 C949 1.393 . S
C953 C952 1.391 . S
C954 H944 0.950 . S
C954 C955 1.386 . S
C954 C956 1.391 . S
C955 C954 1.386 . S
C955 C959 1.393 . S
C956 H945 0.950 . S
C956 C954 1.391 . S
C956 C957 1.400 . S
C957 C951 1.491 . S
C957 C956 1.400 . S
C957 C958 1.398 . S
C958 H946 0.950 . S
C958 C957 1.398 . S
C958 C959 1.391 . S
C959 H947 0.950 . S
C959 C955 1.393 . S
C959 C958 1.391 . S
H960 C968 0.950 . S
H961 C973 0.950 . S
H962 C970 0.950 . S
H963 C972 0.950 . S
H964 C974 0.950 . S
H965 C976 0.950 . S
H966 C978 0.950 . S
H967 C979 0.950 . S
C968 H960 0.950 . S
C968 C969 1.386 . S
C968 C970 1.391 . S
C969 C968 1.386 . S
C969 C973 1.393 . S
C970 H962 0.950 . S
C970 C968 1.391 . S
C970 C971 1.400 . S
C971 C970 1.400 . S
C971 C972 1.398 . S
C971 C977 1.491 . S
C972 H963 0.950 . S
C972 C971 1.398 . S
C972 C973 1.391 . S
C973 H961 0.950 . S
C973 C969 1.393 . S
C973 C972 1.391 . S
C974 H964 0.950 . S
C974 C975 1.386 . S
C974 C976 1.391 . S
C975 C974 1.386 . S
C975 C979 1.393 . S
C976 H965 0.950 . S
C976 C974 1.391 . S
C976 C977 1.400 . S
C977 C971 1.491 . S
C977 C976 1.400 . S
C977 C978 1.398 . S
C978 H966 0.950 . S
C978 C977 1.398 . S
C978 C979 1.391 . S
C979 H967 0.950 . S
C979 C975 1.393 . S
C979 C978 1.391 . S
H980 C988 0.950 . S
H981 C993 0.950 . S
H982 C990 0.950 . S
H983 C992 0.950 . S
H984 C994 0.950 . S
H985 C996 0.950 . S
H986 C998 0.950 . S
H987 C999 0.950 . S
C988 H980 0.950 . S
C988 C989 1.386 . S
C988 C990 1.391 . S
C989 C988 1.386 . S
C989 C993 1.393 . S
C990 H982 0.950 . S
C990 C988 1.391 . S
C990 C991 1.400 . S
C991 C990 1.400 . S
C991 C992 1.398 . S
C991 C997 1.491 . S
C992 H983 0.950 . S
C992 C991 1.398 . S
C992 C993 1.391 . S
C993 H981 0.950 . S
C993 C989 1.393 . S
C993 C992 1.391 . S
C994 H984 0.950 . S
C994 C995 1.386 . S
C994 C996 1.391 . S
C995 C994 1.386 . S
C995 C999 1.393 . S
C996 H985 0.950 . S
C996 C994 1.391 . S
C996 C997 1.400 . S
C997 C991 1.491 . S
C997 C996 1.400 . S
C997 C998 1.398 . S
C998 H986 0.950 . S
C998 C997 1.398 . S
C998 C999 1.391 . S
C999 H987 0.950 . S
C999 C995 1.393 . S
C999 C998 1.391 . S
H1000 C1008 0.950 . S
H1001 C1013 0.950 . S
H1002 C1010 0.950 . S
H1003 C1012 0.950 . S
H1004 C1014 0.950 . S
H1005 C1016 0.950 . S
H1006 C1018 0.950 . S
H1007 C1019 0.950 . S
C1008 H1000 0.950 . S
C1008 C1009 1.386 . S
C1008 C1010 1.391 . S
C1009 C1008 1.386 . S
C1009 C1013 1.393 . S
C1010 H1002 0.950 . S
C1010 C1008 1.391 . S
C1010 C1011 1.400 . S
C1011 C1010 1.400 . S
C1011 C1012 1.398 . S
C1011 C1017 1.491 . S
C1012 H1003 0.950 . S
C1012 C1011 1.398 . S
C1012 C1013 1.391 . S
C1013 H1001 0.950 . S
C1013 C1009 1.393 . S
C1013 C1012 1.391 . S
C1014 H1004 0.950 . S
C1014 C1015 1.386 . S
C1014 C1016 1.391 . S
C1015 C1014 1.386 . S
C1015 C1019 1.393 . S
C1016 H1005 0.950 . S
C1016 C1014 1.391 . S
C1016 C1017 1.400 . S
C1017 C1011 1.491 . S
C1017 C1016 1.400 . S
C1017 C1018 1.398 . S
C1018 H1006 0.950 . S
C1018 C1017 1.398 . S
C1018 C1019 1.391 . S
C1019 H1007 0.950 . S
C1019 C1015 1.393 . S
C1019 C1018 1.391 . S
H1020 C1028 0.950 . S
H1021 C1033 0.950 . S
H1022 C1030 0.950 . S
H1023 C1032 0.950 . S
H1024 C1034 0.950 . S
H1025 C1036 0.950 . S
H1026 C1038 0.950 . S
H1027 C1039 0.950 . S
C1028 H1020 0.950 . S
C1028 C1029 1.386 . S
C1028 C1030 1.391 . S
C1029 C1028 1.386 . S
C1029 C1033 1.393 . S
C1030 H1022 0.950 . S
C1030 C1028 1.391 . S
C1030 C1031 1.400 . S
C1031 C1030 1.400 . S
C1031 C1032 1.398 . S
C1031 C1037 1.491 . S
C1032 H1023 0.950 . S
C1032 C1031 1.398 . S
C1032 C1033 1.391 . S
C1033 H1021 0.950 . S
C1033 C1029 1.393 . S
C1033 C1032 1.391 . S
C1034 H1024 0.950 . S
C1034 C1035 1.386 . S
C1034 C1036 1.391 . S
C1035 C1034 1.386 . S
C1035 C1039 1.393 . S
C1036 H1025 0.950 . S
C1036 C1034 1.391 . S
C1036 C1037 1.400 . S
C1037 C1031 1.491 . S
C1037 C1036 1.400 . S
C1037 C1038 1.398 . S
C1038 H1026 0.950 . S
C1038 C1037 1.398 . S
C1038 C1039 1.391 . S
C1039 H1027 0.950 . S
C1039 C1035 1.393 . S
C1039 C1038 1.391 . S
H1040 C1048 0.950 . S
H1041 C1053 0.950 . S
H1042 C1050 0.950 . S
H1043 C1052 0.950 . S
H1044 C1054 0.950 . S
H1045 C1056 0.950 . S
H1046 C1058 0.950 . S
H1047 C1059 0.950 . S
C1048 H1040 0.950 . S
C1048 C1049 1.386 . S
C1048 C1050 1.391 . S
C1049 C1048 1.386 . S
C1049 C1053 1.393 . S
C1050 H1042 0.950 . S
C1050 C1048 1.391 . S
C1050 C1051 1.400 . S
C1051 C1050 1.400 . S
C1051 C1052 1.398 . S
C1051 C1057 1.491 . S
C1052 H1043 0.950 . S
C1052 C1051 1.398 . S
C1052 C1053 1.391 . S
C1053 H1041 0.950 . S
C1053 C1049 1.393 . S
C1053 C1052 1.391 . S
C1054 H1044 0.950 . S
C1054 C1055 1.386 . S
C1054 C1056 1.391 . S
C1055 C1054 1.386 . S
C1055 C1059 1.393 . S
C1056 H1045 0.950 . S
C1056 C1054 1.391 . S
C1056 C1057 1.400 . S
C1057 C1051 1.491 . S
C1057 C1056 1.400 . S
C1057 C1058 1.398 . S
C1058 H1046 0.950 . S
C1058 C1057 1.398 . S
C1058 C1059 1.391 . S
C1059 H1047 0.950 . S
C1059 C1055 1.393 . S
C1059 C1058 1.391 . S
H1060 C1068 0.950 . S
H1061 C1073 0.950 . S
H1062 C1070 0.950 . S
H1063 C1072 0.950 . S
H1064 C1074 0.950 . S
H1065 C1076 0.950 . S
H1066 C1078 0.950 . S
H1067 C1079 0.950 . S
C1068 H1060 0.950 . S
C1068 C1069 1.386 . S
C1068 C1070 1.391 . S
C1069 C1068 1.386 . S
C1069 C1073 1.393 . S
C1070 H1062 0.950 . S
C1070 C1068 1.391 . S
C1070 C1071 1.400 . S
C1071 C1070 1.400 . S
C1071 C1072 1.398 . S
C1071 C1077 1.491 . S
C1072 H1063 0.950 . S
C1072 C1071 1.398 . S
C1072 C1073 1.391 . S
C1073 H1061 0.950 . S
C1073 C1069 1.393 . S
C1073 C1072 1.391 . S
C1074 H1064 0.950 . S
C1074 C1075 1.386 . S
C1074 C1076 1.391 . S
C1075 C1074 1.386 . S
C1075 C1079 1.393 . S
C1076 H1065 0.950 . S
C1076 C1074 1.391 . S
C1076 C1077 1.400 . S
C1077 C1071 1.491 . S
C1077 C1076 1.400 . S
C1077 C1078 1.398 . S
C1078 H1066 0.950 . S
C1078 C1077 1.398 . S
C1078 C1079 1.391 . S
C1079 H1067 0.950 . S
C1079 C1075 1.393 . S
C1079 C1078 1.391 . S
H1080 C1088 0.950 . S
H1081 C1093 0.950 . S
H1082 C1090 0.950 . S
H1083 C1092 0.950 . S
H1084 C1094 0.950 . S
H1085 C1096 0.950 . S
H1086 C1098 0.950 . S
H1087 C1099 0.950 . S
C1088 H1080 0.950 . S
C1088 C1089 1.386 . S
C1088 C1090 1.391 . S
C1089 C1088 1.386 . S
C1089 C1093 1.393 . S
C1090 H1082 0.950 . S
C1090 C1088 1.391 . S
C1090 C1091 1.400 . S
C1091 C1090 1.400 . S
C1091 C1092 1.398 . S
C1091 C1097 1.491 . S
C1092 H1083 0.950 . S
C1092 C1091 1.398 . S
C1092 C1093 1.391 . S
C1093 H1081 0.950 . S
C1093 C1089 1.393 . S
C1093 C1092 1.391 . S
C1094 H1084 0.950 . S
C1094 C1095 1.386 . S
C1094 C1096 1.391 . S
C1095 C1094 1.386 . S
C1095 C1099 1.393 . S
C1096 H1085 0.950 . S
C1096 C1094 1.391 . S
C1096 C1097 1.400 . S
C1097 C1091 1.491 . S
C1097 C1096 1.400 . S
C1097 C1098 1.398 . S
C1098 H1086 0.950 . S
C1098 C1097 1.398 . S
C1098 C1099 1.391 . S
C1099 H1087 0.950 . S
C1099 C1095 1.393 . S
C1099 C1098 1.391 . S
H1100 C1108 0.950 . S
H1101 C1113 0.950 . S
H1102 C1110 0.950 . S
H1103 C1112 0.950 . S
H1104 C1114 0.950 . S
H1105 C1116 0.950 . S
H1106 C1118 0.950 . S
H1107 C1119 0.950 . S
C1108 H1100 0.950 . S
C1108 C1109 1.386 . S
C1108 C1110 1.391 . S
C1109 C1108 1.386 . S
C1109 C1113 1.393 . S
C1110 H1102 0.950 . S
C1110 C1108 1.391 . S
C1110 C1111 1.400 . S
C1111 C1110 1.400 . S
C1111 C1112 1.398 . S
C1111 C1117 1.491 . S
C1112 H1103 0.950 . S
C1112 C1111 1.398 . S
C1112 C1113 1.391 . S
C1113 H1101 0.950 . S
C1113 C1109 1.393 . S
C1113 C1112 1.391 . S
C1114 H1104 0.950 . S
C1114 C1115 1.386 . S
C1114 C1116 1.391 . S
C1115 C1114 1.386 . S
C1115 C1119 1.393 . S
C1116 H1105 0.950 . S
C1116 C1114 1.391 . S
C1116 C1117 1.400 . S
C1117 C1111 1.491 . S
C1117 C1116 1.400 . S
C1117 C1118 1.398 . S
C1118 H1106 0.950 . S
C1118 C1117 1.398 . S
C1118 C1119 1.391 . S
C1119 H1107 0.950 . S
C1119 C1115 1.393 . S
C1119 C1118 1.391 . S
H1120 C1128 0.950 . S
H1121 C1133 0.950 . S
H1122 C1130 0.950 . S
H1123 C1132 0.950 . S
H1124 C1134 0.950 . S
H1125 C1136 0.950 . S
H1126 C1138 0.950 . S
H1127 C1139 0.950 . S
C1128 H1120 0.950 . S
C1128 C1129 1.386 . S
C1128 C1130 1.391 . S
C1129 C1128 1.386 . S
C1129 C1133 1.393 . S
C1130 H1122 0.950 . S
C1130 C1128 1.391 . S
C1130 C1131 1.400 . S
C1131 C1130 1.400 . S
C1131 C1132 1.398 . S
C1131 C1137 1.491 . S
C1132 H1123 0.950 . S
C1132 C1131 1.398 . S
C1132 C1133 1.391 . S
C1133 H1121 0.950 . S
C1133 C1129 1.393 . S
C1133 C1132 1.391 . S
C1134 H1124 0.950 . S
C1134 C1135 1.386 . S
C1134 C1136 1.391 . S
C1135 C1134 1.386 . S
C1135 C1139 1.393 . S
C1136 H1125 0.950 . S
C1136 C1134 1.391 . S
C1136 C1137 1.400 . S
C1137 C1131 1.491 . S
C1137 C1136 1.400 . S
C1137 C1138 1.398 . S
C1138 H1126 0.950 . S
C1138 C1137 1.398 . S
C1138 C1139 1.391 . S
C1139 H1127 0.950 . S
C1139 C1135 1.393 . S
C1139 C1138 1.391 . S
H1140 C1148 0.950 . S
H1141 C1153 0.950 . S
H1142 C1150 0.950 . S
H1143 C1152 0.950 . S
H1144 C1154 0.950 . S
H1145 C1156 0.950 . S
H1146 C1158 0.950 . S
H1147 C1159 0.950 . S
C1148 H1140 0.950 . S
C1148 C1149 1.386 . S
C1148 C1150 1.391 . S
C1149 C1148 1.386 . S
C1149 C1153 1.393 . S
C1150 H1142 0.950 . S
C1150 C1148 1.391 . S
C1150 C1151 1.400 . S
C1151 C1150 1.400 . S
C1151 C1152 1.398 . S
C1151 C1157 1.491 . S
C1152 H1143 0.950 . S
C1152 C1151 1.398 . S
C1152 C1153 1.391 . S
C1153 H1141 0.950 . S
C1153 C1149 1.393 . S
C1153 C1152 1.391 . S
C1154 H1144 0.950 . S
C1154 C1155 1.386 . S
C1154 C1156 1.391 . S
C1155 C1154 1.386 . S
C1155 C1159 1.393 . S
C1156 H1145 0.950 . S
C1156 C1154 1.391 . S
C1156 C1157 1.400 . S
C1157 C1151 1.491 . S
C1157 C1156 1.400 . S
C1157 C1158 1.398 . S
C1158 H1146 0.950 . S
C1158 C1157 1.398 . S
C1158 C1159 1.391 . S
C1159 H1147 0.950 . S
C1159 C1155 1.393 . S
C1159 C1158 1.391 . S
H1160 C1168 0.950 . S
H1161 C1173 0.950 . S
H1162 C1170 0.950 . S
H1163 C1172 0.950 . S
H1164 C1174 0.950 . S
H1165 C1176 0.950 . S
H1166 C1178 0.950 . S
H1167 C1179 0.950 . S
C1168 H1160 0.950 . S
C1168 C1169 1.386 . S
C1168 C1170 1.391 . S
C1169 C1168 1.386 . S
C1169 C1173 1.393 . S
C1170 H1162 0.950 . S
C1170 C1168 1.391 . S
C1170 C1171 1.400 . S
C1171 C1170 1.400 . S
C1171 C1172 1.398 . S
C1171 C1177 1.491 . S
C1172 H1163 0.950 . S
C1172 C1171 1.398 . S
C1172 C1173 1.391 . S
C1173 H1161 0.950 . S
C1173 C1169 1.393 . S
C1173 C1172 1.391 . S
C1174 H1164 0.950 . S
C1174 C1175 1.386 . S
C1174 C1176 1.391 . S
C1175 C1174 1.386 . S
C1175 C1179 1.393 . S
C1176 H1165 0.950 . S
C1176 C1174 1.391 . S
C1176 C1177 1.400 . S
C1177 C1171 1.491 . S
C1177 C1176 1.400 . S
C1177 C1178 1.398 . S
C1178 H1166 0.950 . S
C1178 C1177 1.398 . S
C1178 C1179 1.391 . S
C1179 H1167 0.950 . S
C1179 C1175 1.393 . S
C1179 C1178 1.391 . S
H1180 C1188 0.950 . S
H1181 C1193 0.950 . S
H1182 C1190 0.950 . S
H1183 C1192 0.950 . S
H1184 C1194 0.950 . S
H1185 C1196 0.950 . S
H1186 C1198 0.950 . S
H1187 C1199 0.950 . S
C1188 H1180 0.950 . S
C1188 C1189 1.386 . S
C1188 C1190 1.391 . S
C1189 C1188 1.386 . S
C1189 C1193 1.393 . S
C1190 H1182 0.950 . S
C1190 C1188 1.391 . S
C1190 C1191 1.400 . S
C1191 C1190 1.400 . S
C1191 C1192 1.398 . S
C1191 C1197 1.491 . S
C1192 H1183 0.950 . S
C1192 C1191 1.398 . S
C1192 C1193 1.391 . S
C1193 H1181 0.950 . S
C1193 C1189 1.393 . S
C1193 C1192 1.391 . S
C1194 H1184 0.950 . S
C1194 C1195 1.386 . S
C1194 C1196 1.391 . S
C1195 C1194 1.386 . S
C1195 C1199 1.393 . S
C1196 H1185 0.950 . S
C1196 C1194 1.391 . S
C1196 C1197 1.400 . S
C1197 C1191 1.491 . S
C1197 C1196 1.400 . S
C1197 C1198 1.398 . S
C1198 H1186 0.950 . S
C1198 C1197 1.398 . S
C1198 C1199 1.391 . S
C1199 H1187 0.950 . S
C1199 C1195 1.393 . S
C1199 C1198 1.391 . S
H1200 C1208 0.950 . S
H1201 C1213 0.950 . S
H1202 C1210 0.950 . S
H1203 C1212 0.950 . S
H1204 C1214 0.950 . S
H1205 C1216 0.950 . S
H1206 C1218 0.950 . S
H1207 C1219 0.950 . S
C1208 H1200 0.950 . S
C1208 C1209 1.386 . S
C1208 C1210 1.391 . S
C1209 C1208 1.386 . S
C1209 C1213 1.393 . S
C1210 H1202 0.950 . S
C1210 C1208 1.391 . S
C1210 C1211 1.400 . S
C1211 C1210 1.400 . S
C1211 C1212 1.398 . S
C1211 C1217 1.491 . S
C1212 H1203 0.950 . S
C1212 C1211 1.398 . S
C1212 C1213 1.391 . S
C1213 H1201 0.950 . S
C1213 C1209 1.393 . S
C1213 C1212 1.391 . S
C1214 H1204 0.950 . S
C1214 C1215 1.386 . S
C1214 C1216 1.391 . S
C1215 C1214 1.386 . S
C1215 C1219 1.393 . S
C1216 H1205 0.950 . S
C1216 C1214 1.391 . S
C1216 C1217 1.400 . S
C1217 C1211 1.491 . S
C1217 C1216 1.400 . S
C1217 C1218 1.398 . S
C1218 H1206 0.950 . S
C1218 C1217 1.398 . S
C1218 C1219 1.391 . S
C1219 H1207 0.950 . S
C1219 C1215 1.393 . S
C1219 C1218 1.391 . S
H1220 C1228 0.950 . S
H1221 C1233 0.950 . S
H1222 C1230 0.950 . S
H1223 C1232 0.950 . S
H1224 C1234 0.950 . S
H1225 C1236 0.950 . S
H1226 C1238 0.950 . S
H1227 C1239 0.950 . S
C1228 H1220 0.950 . S
C1228 C1229 1.386 . S
C1228 C1230 1.391 . S
C1229 C1228 1.386 . S
C1229 C1233 1.393 . S
C1230 H1222 0.950 . S
C1230 C1228 1.391 . S
C1230 C1231 1.400 . S
C1231 C1230 1.400 . S
C1231 C1232 1.398 . S
C1231 C1237 1.491 . S
C1232 H1223 0.950 . S
C1232 C1231 1.398 . S
C1232 C1233 1.391 . S
C1233 H1221 0.950 . S
C1233 C1229 1.393 . S
C1233 C1232 1.391 . S
C1234 H1224 0.950 . S
C1234 C1235 1.386 . S
C1234 C1236 1.391 . S
C1235 C1234 1.386 . S
C1235 C1239 1.393 . S
C1236 H1225 0.950 . S
C1236 C1234 1.391 . S
C1236 C1237 1.400 . S
C1237 C1231 1.491 . S
C1237 C1236 1.400 . S
C1237 C1238 1.398 . S
C1238 H1226 0.950 . S
C1238 C1237 1.398 . S
C1238 C1239 1.391 . S
C1239 H1227 0.950 . S
C1239 C1235 1.393 . S
C1239 C1238 1.391 . S
H1240 C1248 0.950 . S
H1241 C1253 0.950 . S
H1242 C1250 0.950 . S
H1243 C1252 0.950 . S
H1244 C1254 0.950 . S
H1245 C1256 0.950 . S
H1246 C1258 0.950 . S
H1247 C1259 0.950 . S
C1248 H1240 0.950 . S
C1248 C1249 1.386 . S
C1248 C1250 1.391 . S
C1249 C1248 1.386 . S
C1249 C1253 1.393 . S
C1250 H1242 0.950 . S
C1250 C1248 1.391 . S
C1250 C1251 1.400 . S
C1251 C1250 1.400 . S
C1251 C1252 1.398 . S
C1251 C1257 1.491 . S
C1252 H1243 0.950 . S
C1252 C1251 1.398 . S
C1252 C1253 1.391 . S
C1253 H1241 0.950 . S
C1253 C1249 1.393 . S
C1253 C1252 1.391 . S
C1254 H1244 0.950 . S
C1254 C1255 1.386 . S
C1254 C1256 1.391 . S
C1255 C1254 1.386 . S
C1255 C1259 1.393 . S
C1256 H1245 0.950 . S
C1256 C1254 1.391 . S
C1256 C1257 1.400 . S
C1257 C1251 1.491 . S
C1257 C1256 1.400 . S
C1257 C1258 1.398 . S
C1258 H1246 0.950 . S
C1258 C1257 1.398 . S
C1258 C1259 1.391 . S
C1259 H1247 0.950 . S
C1259 C1255 1.393 . S
C1259 C1258 1.391 . S
H1260 C1268 0.950 . S
H1261 C1273 0.950 . S
H1262 C1270 0.950 . S
H1263 C1272 0.950 . S
H1264 C1274 0.950 . S
H1265 C1276 0.950 . S
H1266 C1278 0.950 . S
H1267 C1279 0.950 . S
C1268 H1260 0.950 . S
C1268 C1269 1.386 . S
C1268 C1270 1.391 . S
C1269 C1268 1.386 . S
C1269 C1273 1.393 . S
C1270 H1262 0.950 . S
C1270 C1268 1.391 . S
C1270 C1271 1.400 . S
C1271 C1270 1.400 . S
C1271 C1272 1.398 . S
C1271 C1277 1.491 . S
C1272 H1263 0.950 . S
C1272 C1271 1.398 . S
C1272 C1273 1.391 . S
C1273 H1261 0.950 . S
C1273 C1269 1.393 . S
C1273 C1272 1.391 . S
C1274 H1264 0.950 . S
C1274 C1275 1.386 . S
C1274 C1276 1.391 . S
C1275 C1274 1.386 . S
C1275 C1279 1.393 . S
C1276 H1265 0.950 . S
C1276 C1274 1.391 . S
C1276 C1277 1.400 . S
C1277 C1271 1.491 . S
C1277 C1276 1.400 . S
C1277 C1278 1.398 . S
C1278 H1266 0.950 . S
C1278 C1277 1.398 . S
C1278 C1279 1.391 . S
C1279 H1267 0.950 . S
C1279 C1275 1.393 . S
C1279 C1278 1.391 . S
H1280 C1288 0.950 . S
H1281 C1293 0.950 . S
H1282 C1290 0.950 . S
H1283 C1292 0.950 . S
H1284 C1294 0.950 . S
H1285 C1296 0.950 . S
H1286 C1298 0.950 . S
H1287 C1299 0.950 . S
C1288 H1280 0.950 . S
C1288 C1289 1.386 . S
C1288 C1290 1.391 . S
C1289 C1288 1.386 . S
C1289 C1293 1.393 . S
C1290 H1282 0.950 . S
C1290 C1288 1.391 . S
C1290 C1291 1.400 . S
C1291 C1290 1.400 . S
C1291 C1292 1.398 . S
C1291 C1297 1.491 . S
C1292 H1283 0.950 . S
C1292 C1291 1.398 . S
C1292 C1293 1.391 . S
C1293 H1281 0.950 . S
C1293 C1289 1.393 . S
C1293 C1292 1.391 . S
C1294 H1284 0.950 . S
C1294 C1295 1.386 . S
C1294 C1296 1.391 . S
C1295 C1294 1.386 . S
C1295 C1299 1.393 . S
C1296 H1285 0.950 . S
C1296 C1294 1.391 . S
C1296 C1297 1.400 . S
C1297 C1291 1.491 . S
C1297 C1296 1.400 . S
C1297 C1298 1.398 . S
C1298 H1286 0.950 . S
C1298 C1297 1.398 . S
C1298 C1299 1.391 . S
C1299 H1287 0.950 . S
C1299 C1295 1.393 . S
C1299 C1298 1.391 . S
H1300 C1308 0.950 . S
H1301 C1313 0.950 . S
H1302 C1310 0.950 . S
H1303 C1312 0.950 . S
H1304 C1314 0.950 . S
H1305 C1316 0.950 . S
H1306 C1318 0.950 . S
H1307 C1319 0.950 . S
C1308 H1300 0.950 . S
C1308 C1309 1.386 . S
C1308 C1310 1.391 . S
C1309 C1308 1.386 . S
C1309 C1313 1.393 . S
C1310 H1302 0.950 . S
C1310 C1308 1.391 . S
C1310 C1311 1.400 . S
C1311 C1310 1.400 . S
C1311 C1312 1.398 . S
C1311 C1317 1.491 . S
C1312 H1303 0.950 . S
C1312 C1311 1.398 . S
C1312 C1313 1.391 . S
C1313 H1301 0.950 . S
C1313 C1309 1.393 . S
C1313 C1312 1.391 . S
C1314 H1304 0.950 . S
C1314 C1315 1.386 . S
C1314 C1316 1.391 . S
C1315 C1314 1.386 . S
C1315 C1319 1.393 . S
C1316 H1305 0.950 . S
C1316 C1314 1.391 . S
C1316 C1317 1.400 . S
C1317 C1311 1.491 . S
C1317 C1316 1.400 . S
C1317 C1318 1.398 . S
C1318 H1306 0.950 . S
C1318 C1317 1.398 . S
C1318 C1319 1.391 . S
C1319 H1307 0.950 . S
C1319 C1315 1.393 . S
C1319 C1318 1.391 . S
H1320 C1328 0.950 . S
H1321 C1333 0.950 . S
H1322 C1330 0.950 . S
H1323 C1332 0.950 . S
H1324 C1334 0.950 . S
H1325 C1336 0.950 . S
H1326 C1338 0.950 . S
H1327 C1339 0.950 . S
C1328 H1320 0.950 . S
C1328 C1329 1.386 . S
C1328 C1330 1.391 . S
C1329 C1328 1.386 . S
C1329 C1333 1.393 . S
C1330 H1322 0.950 . S
C1330 C1328 1.391 . S
C1330 C1331 1.400 . S
C1331 C1330 1.400 . S
C1331 C1332 1.398 . S
C1331 C1337 1.491 . S
C1332 H1323 0.950 . S
C1332 C1331 1.398 . S
C1332 C1333 1.391 . S
C1333 H1321 0.950 . S
C1333 C1329 1.393 . S
C1333 C1332 1.391 . S
C1334 H1324 0.950 . S
C1334 C1335 1.386 . S
C1334 C1336 1.391 . S
C1335 C1334 1.386 . S
C1335 C1339 1.393 . S
C1336 H1325 0.950 . S
C1336 C1334 1.391 . S
C1336 C1337 1.400 . S
C1337 C1331 1.491 . S
C1337 C1336 1.400 . S
C1337 C1338 1.398 . S
C1338 H1326 0.950 . S
C1338 C1337 1.398 . S
C1338 C1339 1.391 . S
C1339 H1327 0.950 . S
C1339 C1335 1.393 . S
C1339 C1338 1.391 . S
H1340 C1348 0.950 . S
H1341 C1353 0.950 . S
H1342 C1350 0.950 . S
H1343 C1352 0.950 . S
H1344 C1354 0.950 . S
H1345 C1356 0.950 . S
H1346 C1358 0.950 . S
H1347 C1359 0.950 . S
C1348 H1340 0.950 . S
C1348 C1349 1.386 . S
C1348 C1350 1.391 . S
C1349 C1348 1.386 . S
C1349 C1353 1.393 . S
C1350 H1342 0.950 . S
C1350 C1348 1.391 . S
C1350 C1351 1.400 . S
C1351 C1350 1.400 . S
C1351 C1352 1.398 . S
C1351 C1357 1.491 . S
C1352 H1343 0.950 . S
C1352 C1351 1.398 . S
C1352 C1353 1.391 . S
C1353 H1341 0.950 . S
C1353 C1349 1.393 . S
C1353 C1352 1.391 . S
C1354 H1344 0.950 . S
C1354 C1355 1.386 . S
C1354 C1356 1.391 . S
C1355 C1354 1.386 . S
C1355 C1359 1.393 1_554 S
C1356 H1345 0.950 . S
C1356 C1354 1.391 . S
C1356 C1357 1.400 . S
C1357 C1351 1.491 . S
C1357 C1356 1.400 . S
C1357 C1358 1.398 . S
C1358 H1346 0.950 . S
C1358 C1357 1.398 . S
C1358 C1359 1.391 1_554 S
C1359 H1347 0.950 . S
C1359 C1355 1.393 1_556 S
C1359 C1358 1.391 1_556 S
H1360 C1368 0.950 . S
H1361 C1373 0.950 . S
H1362 C1370 0.950 . S
H1363 C1372 0.950 . S
H1364 C1374 0.950 . S
H1365 C1376 0.950 . S
H1366 C1378 0.950 . S
H1367 C1379 0.950 . S
C1368 H1360 0.950 . S
C1368 C1369 1.386 . S
C1368 C1370 1.391 . S
C1369 C1368 1.386 . S
C1369 C1373 1.393 . S
C1370 H1362 0.950 . S
C1370 C1368 1.391 . S
C1370 C1371 1.400 . S
C1371 C1370 1.400 . S
C1371 C1372 1.398 . S
C1371 C1377 1.491 . S
C1372 H1363 0.950 . S
C1372 C1371 1.398 . S
C1372 C1373 1.391 . S
C1373 H1361 0.950 . S
C1373 C1369 1.393 . S
C1373 C1372 1.391 . S
C1374 H1364 0.950 . S
C1374 C1375 1.386 . S
C1374 C1376 1.391 . S
C1375 C1374 1.386 . S
C1375 C1379 1.393 . S
C1376 H1365 0.950 . S
C1376 C1374 1.391 . S
C1376 C1377 1.400 . S
C1377 C1371 1.491 . S
C1377 C1376 1.400 . S
C1377 C1378 1.398 . S
C1378 H1366 0.950 . S
C1378 C1377 1.398 . S
C1378 C1379 1.391 . S
C1379 H1367 0.950 . S
C1379 C1375 1.393 . S
C1379 C1378 1.391 . S
C915 C841 1.720 . S
C909 C29 1.657 . S
C929 C115 1.622 . S
C935 C401 1.631 . S
C949 C153 1.621 . S
C955 C489 1.704 . S
C969 C239 1.642 . S
C975 C568 1.634 . S
C995 C665 1.662 . S
C989 C301 1.641 . S
C1009 C339 1.917 . S
C1015 C744 1.988 . S
C1029 C91 1.634 . S
C1035 C509 1.694 . S
C1049 C177 1.621 . S
C1055 C605 1.617 . S
C1069 C215 1.679 . S
C1075 C685 1.725 . S
C1095 C781 1.981 . S
C1089 C277 1.910 . S
C1115 C861 1.649 . S
C1109 C363 1.642 . S
C1135 C421 1.632 . S
C1129 C53 1.636 . S
C1149 C35 1.519 . S
C1155 C517 1.555 . S
C1169 C109 1.387 . S
C1175 C597 1.509 . S
C1195 C693 1.427 . S
C1189 C159 1.395 . S
C1209 C233 1.620 . S
C1215 C773 1.744 1_556 S
C1235 C869 1.568 . S
C1229 C295 1.437 . S
C1255 C429 1.347 . S
C1249 C345 1.333 . S
C1275 C832 1.428 . S
C1269 C97 1.398 . S
C1289 C171 1.386 . S
C1295 C392 1.508 . S
C1315 C480 1.565 . S
C1309 C221 1.535 . S
C1329 C283 1.320 . S
C1335 C577 1.350 . S
C1349 C357 1.400 . S
C1355 C656 1.554 1_554 S
C1369 C47 1.608 . S
C1375 C753 1.742 . S
