# Generated by pormake.
# Topology eea, (3,6)-cn, num edge types: 1
# Building blocks:
#     Node 0, Type 0, BuildingBlock: QEWDON_clean_linker_0, # of connection points: 3
#     Node 1, Type 0, BuildingBlock: QEWDON_clean_linker_0, # of connection points: 3
#     Node 2, Type 0, BuildingBlock: QEWDON_clean_linker_0, # of connection points: 3
#     Node 3, Type 0, BuildingBlock: QEWDON_clean_linker_0, # of connection points: 3
#     Node 4, Type 0, BuildingBlock: QEWDON_clean_linker_0, # of connection points: 3
#     Node 5, Type 0, BuildingBlock: QEWDON_clean_linker_0, # of connection points: 3
#     Node 6, Type 0, BuildingBlock: QEWDON_clean_linker_0, # of connection points: 3
#     Node 7, Type 0, BuildingBlock: QEWDON_clean_linker_0, # of connection points: 3
#     Node 8, Type 0, BuildingBlock: QEWDON_clean_linker_0, # of connection points: 3
#     Node 9, Type 0, BuildingBlock: QEWDON_clean_linker_0, # of connection points: 3
#     Node 10, Type 0, BuildingBlock: QEWDON_clean_linker_0, # of connection points: 3
#     Node 11, Type 0, BuildingBlock: QEWDON_clean_linker_0, # of connection points: 3
#     Node 12, Type 0, BuildingBlock: QEWDON_clean_linker_0, # of connection points: 3
#     Node 13, Type 0, BuildingBlock: QEWDON_clean_linker_0, # of connection points: 3
#     Node 14, Type 0, BuildingBlock: QEWDON_clean_linker_0, # of connection points: 3
#     Node 15, Type 0, BuildingBlock: QEWDON_clean_linker_0, # of connection points: 3
#     Node 16, Type 0, BuildingBlock: QEWDON_clean_linker_0, # of connection points: 3
#     Node 17, Type 0, BuildingBlock: QEWDON_clean_linker_0, # of connection points: 3
#     Node 18, Type 1, BuildingBlock: CUKXOW_clean_sbu_0, # of connection points: 6
#     Node 19, Type 1, BuildingBlock: CUKXOW_clean_sbu_0, # of connection points: 6
#     Node 20, Type 1, BuildingBlock: CUKXOW_clean_sbu_0, # of connection points: 6
#     Node 21, Type 1, BuildingBlock: CUKXOW_clean_sbu_0, # of connection points: 6
#     Node 22, Type 1, BuildingBlock: CUKXOW_clean_sbu_0, # of connection points: 6
#     Node 23, Type 1, BuildingBlock: CUKXOW_clean_sbu_0, # of connection points: 6
#     Node 24, Type 1, BuildingBlock: CUKXOW_clean_sbu_0, # of connection points: 6
#     Node 25, Type 1, BuildingBlock: CUKXOW_clean_sbu_0, # of connection points: 6
#     Node 26, Type 1, BuildingBlock: CUKXOW_clean_sbu_0, # of connection points: 6
#     Edge 27, Type (0, 1), BuildingBlock: ZUJKAS_clean_linker_0, # of connection points: 2
#     Edge 28, Type (0, 1), BuildingBlock: ZUJKAS_clean_linker_0, # of connection points: 2
#     Edge 29, Type (0, 1), BuildingBlock: ZUJKAS_clean_linker_0, # of connection points: 2
#     Edge 30, Type (0, 1), BuildingBlock: ZUJKAS_clean_linker_0, # of connection points: 2
#     Edge 31, Type (0, 1), BuildingBlock: ZUJKAS_clean_linker_0, # of connection points: 2
#     Edge 32, Type (0, 1), BuildingBlock: ZUJKAS_clean_linker_0, # of connection points: 2
#     Edge 33, Type (0, 1), BuildingBlock: ZUJKAS_clean_linker_0, # of connection points: 2
#     Edge 34, Type (0, 1), BuildingBlock: ZUJKAS_clean_linker_0, # of connection points: 2
#     Edge 35, Type (0, 1), BuildingBlock: ZUJKAS_clean_linker_0, # of connection points: 2
#     Edge 36, Type (0, 1), BuildingBlock: ZUJKAS_clean_linker_0, # of connection points: 2
#     Edge 37, Type (0, 1), BuildingBlock: ZUJKAS_clean_linker_0, # of connection points: 2
#     Edge 38, Type (0, 1), BuildingBlock: ZUJKAS_clean_linker_0, # of connection points: 2
#     Edge 39, Type (0, 1), BuildingBlock: ZUJKAS_clean_linker_0, # of connection points: 2
#     Edge 40, Type (0, 1), BuildingBlock: ZUJKAS_clean_linker_0, # of connection points: 2
#     Edge 41, Type (0, 1), BuildingBlock: ZUJKAS_clean_linker_0, # of connection points: 2
#     Edge 42, Type (0, 1), BuildingBlock: ZUJKAS_clean_linker_0, # of connection points: 2
#     Edge 43, Type (0, 1), BuildingBlock: ZUJKAS_clean_linker_0, # of connection points: 2
#     Edge 44, Type (0, 1), BuildingBlock: ZUJKAS_clean_linker_0, # of connection points: 2
#     Edge 45, Type (0, 1), BuildingBlock: ZUJKAS_clean_linker_0, # of connection points: 2
#     Edge 46, Type (0, 1), BuildingBlock: ZUJKAS_clean_linker_0, # of connection points: 2
#     Edge 47, Type (0, 1), BuildingBlock: ZUJKAS_clean_linker_0, # of connection points: 2
#     Edge 48, Type (0, 1), BuildingBlock: ZUJKAS_clean_linker_0, # of connection points: 2
#     Edge 49, Type (0, 1), BuildingBlock: ZUJKAS_clean_linker_0, # of connection points: 2
#     Edge 50, Type (0, 1), BuildingBlock: ZUJKAS_clean_linker_0, # of connection points: 2
#     Edge 51, Type (0, 1), BuildingBlock: ZUJKAS_clean_linker_0, # of connection points: 2
#     Edge 52, Type (0, 1), BuildingBlock: ZUJKAS_clean_linker_0, # of connection points: 2
#     Edge 53, Type (0, 1), BuildingBlock: ZUJKAS_clean_linker_0, # of connection points: 2
#     Edge 54, Type (0, 1), BuildingBlock: ZUJKAS_clean_linker_0, # of connection points: 2
#     Edge 55, Type (0, 1), BuildingBlock: ZUJKAS_clean_linker_0, # of connection points: 2
#     Edge 56, Type (0, 1), BuildingBlock: ZUJKAS_clean_linker_0, # of connection points: 2
#     Edge 57, Type (0, 1), BuildingBlock: ZUJKAS_clean_linker_0, # of connection points: 2
#     Edge 58, Type (0, 1), BuildingBlock: ZUJKAS_clean_linker_0, # of connection points: 2
#     Edge 59, Type (0, 1), BuildingBlock: ZUJKAS_clean_linker_0, # of connection points: 2
#     Edge 60, Type (0, 1), BuildingBlock: ZUJKAS_clean_linker_0, # of connection points: 2
#     Edge 61, Type (0, 1), BuildingBlock: ZUJKAS_clean_linker_0, # of connection points: 2
#     Edge 62, Type (0, 1), BuildingBlock: ZUJKAS_clean_linker_0, # of connection points: 2
#     Edge 63, Type (0, 1), BuildingBlock: ZUJKAS_clean_linker_0, # of connection points: 2
#     Edge 64, Type (0, 1), BuildingBlock: ZUJKAS_clean_linker_0, # of connection points: 2
#     Edge 65, Type (0, 1), BuildingBlock: ZUJKAS_clean_linker_0, # of connection points: 2
#     Edge 66, Type (0, 1), BuildingBlock: ZUJKAS_clean_linker_0, # of connection points: 2
#     Edge 67, Type (0, 1), BuildingBlock: ZUJKAS_clean_linker_0, # of connection points: 2
#     Edge 68, Type (0, 1), BuildingBlock: ZUJKAS_clean_linker_0, # of connection points: 2
#     Edge 69, Type (0, 1), BuildingBlock: ZUJKAS_clean_linker_0, # of connection points: 2
#     Edge 70, Type (0, 1), BuildingBlock: ZUJKAS_clean_linker_0, # of connection points: 2
#     Edge 71, Type (0, 1), BuildingBlock: ZUJKAS_clean_linker_0, # of connection points: 2
#     Edge 72, Type (0, 1), BuildingBlock: ZUJKAS_clean_linker_0, # of connection points: 2
#     Edge 73, Type (0, 1), BuildingBlock: ZUJKAS_clean_linker_0, # of connection points: 2
#     Edge 74, Type (0, 1), BuildingBlock: ZUJKAS_clean_linker_0, # of connection points: 2
#     Edge 75, Type (0, 1), BuildingBlock: ZUJKAS_clean_linker_0, # of connection points: 2
#     Edge 76, Type (0, 1), BuildingBlock: ZUJKAS_clean_linker_0, # of connection points: 2
#     Edge 77, Type (0, 1), BuildingBlock: ZUJKAS_clean_linker_0, # of connection points: 2
#     Edge 78, Type (0, 1), BuildingBlock: ZUJKAS_clean_linker_0, # of connection points: 2
#     Edge 79, Type (0, 1), BuildingBlock: ZUJKAS_clean_linker_0, # of connection points: 2
#     Edge 80, Type (0, 1), BuildingBlock: ZUJKAS_clean_linker_0, # of connection points: 2
# Relax obj value: 0.053
# Max RMSD: 0.210
# Mean RMSD: 0.129
data_MOF--net-eea--node1-CUKXOW_clean_sbu_0--node2-QEWDON_clean_linker_0--edge1-ZUJKAS_clean_linker_0
_symmetry_space_group_name_H-M    P1
_symmetry_Int_Tables_number       1
_symmetry_cell_setting            triclinic
loop_
_symmetry_equiv_pos_as_xyz
'x, y, z'
_cell_length_a     80.927771
_cell_length_b     77.417806
_cell_length_c     62.101472
_cell_angle_alpha  93.078887
_cell_angle_beta   93.235595
_cell_angle_gamma 119.85667
loop_
_atom_site_label
_atom_site_type_symbol
_atom_site_fract_x
_atom_site_fract_y
_atom_site_fract_z
_atom_type_partial_charge
H0 H 0.21976 0.12262 0.43585 0.0
C1 C 0.22003 0.10994 0.42796 0.0
C2 C 0.23145 0.10295 0.43766 0.0
C3 C 0.20783 0.09963 0.40903 0.0
H4 H 0.23962 0.08034 0.43547 0.0
C5 C 0.23106 0.08594 0.42783 0.0
C6 C 0.21917 0.07563 0.40875 0.0
C7 C 0.20772 0.0827 0.39942 0.0
C8 C 0.19369 0.10509 0.40042 0.0
H9 H 0.19847 0.07482 0.38471 0.0
C10 C 0.19901 0.12504 0.39721 0.0
C11 C 0.18531 0.12967 0.3886 0.0
C12 C 0.17449 0.08996 0.39541 0.0
H13 H 0.16993 0.07456 0.39806 0.0
C14 C 0.16088 0.09452 0.38727 0.0
H15 H 0.21382 0.13676 0.40082 0.0
C16 C 0.16619 0.11417 0.38386 0.0
H17 H 0.15522 0.11726 0.37774 0.0
H18 H 0.14612 0.08276 0.38363 0.0
H19 H 0.8914 0.10143 0.44919 0.0
C20 C 0.90341 0.1138 0.44284 0.0
C21 C 0.91019 0.13343 0.45203 0.0
C22 C 0.91236 0.10998 0.42597 0.0
H23 H 0.93141 0.1645 0.45118 0.0
C24 C 0.92602 0.14938 0.444 0.0
C25 C 0.93529 0.14591 0.42722 0.0
C26 C 0.92819 0.12617 0.41819 0.0
C27 C 0.90606 0.08905 0.41742 0.0
H28 H 0.93532 0.12332 0.4054 0.0
C29 C 0.88648 0.07432 0.41397 0.0
C30 C 0.8808 0.05443 0.40658 0.0
C31 C 0.91983 0.08357 0.4132 0.0
H32 H 0.93498 0.09435 0.41611 0.0
C33 C 0.91426 0.064 0.4056 0.0
H34 H 0.87568 0.07825 0.4172 0.0
C35 C 0.89492 0.04952 0.40231 0.0
H36 H 0.891 0.03444 0.39629 0.0
H37 H 0.92499 0.06 0.40238 0.0
H38 H 0.91767 0.79278 0.46193 0.0
C39 C 0.90531 0.7927 0.45407 0.0
C40 C 0.88718 0.78101 0.46141 0.0
C41 C 0.90774 0.80544 0.43775 0.0
H42 H 0.85741 0.77272 0.4575 0.0
C43 C 0.87135 0.78154 0.45167 0.0
C44 C 0.87348 0.79391 0.43509 0.0
C45 C 0.89173 0.80578 0.42823 0.0
C46 C 0.92709 0.81986 0.43187 0.0
H47 H 0.89355 0.81548 0.41552 0.0
C48 C 0.94 0.81365 0.42584 0.0
C49 C 0.95781 0.82755 0.41902 0.0
C50 C 0.93248 0.84015 0.43178 0.0
H51 H 0.92291 0.84534 0.43662 0.0
C52 C 0.95025 0.85398 0.42555 0.0
H53 H 0.93591 0.79801 0.42564 0.0
C54 C 0.9628 0.84774 0.4191 0.0
H55 H 0.97652 0.85877 0.41424 0.0
H56 H 0.95427 0.86957 0.4256 0.0
H57 H 0.11446 0.21013 0.56074 0.0
C58 C 0.10261 0.21044 0.56767 0.0
C59 C 0.09679 0.22381 0.56086 0.0
C60 C 0.09288 0.1971 0.58299 0.0
H61 H 0.07624 0.23361 0.56406 0.0
C62 C 0.08122 0.22387 0.56981 0.0
C63 C 0.07138 0.21066 0.58521 0.0
C64 C 0.07746 0.19749 0.59181 0.0
C65 C 0.09806 0.182 0.58909 0.0
H66 H 0.07017 0.18746 0.60394 0.0
C67 C 0.11725 0.18735 0.59467 0.0
C68 C 0.1218 0.17295 0.60124 0.0
C69 C 0.08356 0.16199 0.58963 0.0
H70 H 0.06871 0.1574 0.58512 0.0
C71 C 0.08804 0.14765 0.59577 0.0
H72 H 0.12851 0.20279 0.59461 0.0
C73 C 0.10699 0.15306 0.60161 0.0
H74 H 0.1101 0.1416 0.60626 0.0
H75 H 0.07677 0.13228 0.59604 0.0
H76 H 0.79359 0.9035 0.59254 0.0
C77 C 0.79339 0.89079 0.5993 0.0
C78 C 0.78077 0.87134 0.5895 0.0
C79 C 0.80619 0.89398 0.61733 0.0
H80 H 0.77165 0.84001 0.59025 0.0
C81 C 0.78086 0.85496 0.59816 0.0
C82 C 0.79364 0.85787 0.61613 0.0
C83 C 0.80606 0.87741 0.62572 0.0
C84 C 0.82064 0.91462 0.62657 0.0
H85 H 0.81575 0.87973 0.63978 0.0
C86 C 0.81568 0.92956 0.63012 0.0
C87 C 0.82958 0.94903 0.63896 0.0
C88 C 0.83971 0.91948 0.63171 0.0
H89 H 0.84404 0.90845 0.62879 0.0
C90 C 0.8535 0.93872 0.64026 0.0
H91 H 0.80098 0.9259 0.62651 0.0
C92 C 0.84854 0.95339 0.64386 0.0
H93 H 0.85966 0.96829 0.6502 0.0
H94 H 0.86816 0.94231 0.64398 0.0
H95 H 0.10541 0.88156 0.5822 0.0
C96 C 0.1179 0.89443 0.59071 0.0
C97 C 0.13619 0.90012 0.58428 0.0
C98 C 0.11557 0.90583 0.60737 0.0
H99 H 0.16625 0.92218 0.58949 0.0
C100 C 0.15225 0.9172 0.59503 0.0
C101 C 0.1502 0.92879 0.6117 0.0
C102 C 0.13182 0.92283 0.61792 0.0
C103 C 0.09613 0.9012 0.61245 0.0
H104 H 0.13012 0.93163 0.63085 0.0
C105 C 0.08166 0.88148 0.61489 0.0
C106 C 0.06317 0.87739 0.61911 0.0
C107 C 0.09188 0.91673 0.61433 0.0
H108 H 0.10261 0.93198 0.61221 0.0
C109 C 0.07364 0.91274 0.61855 0.0
H110 H 0.08475 0.86938 0.61346 0.0
C111 C 0.05937 0.89324 0.62092 0.0
H112 H 0.04538 0.8906 0.62444 0.0
H113 H 0.07054 0.92481 0.61996 0.0
H114 H 0.88599 0.45958 0.76876 0.0
C115 C 0.88572 0.44627 0.76189 0.0
C116 C 0.89778 0.44004 0.77166 0.0
C117 C 0.87276 0.43492 0.7438 0.0
H118 H 0.9055 0.41702 0.77074 0.0
C119 C 0.89693 0.42245 0.7628 0.0
C120 C 0.88416 0.41102 0.74467 0.0
C121 C 0.87229 0.4175 0.73518 0.0
C122 C 0.85859 0.44019 0.7348 0.0
H123 H 0.86248 0.40881 0.72109 0.0
C124 C 0.86398 0.45999 0.73073 0.0
C125 C 0.85031 0.46445 0.72165 0.0
C126 C 0.83933 0.42507 0.73018 0.0
H127 H 0.83469 0.40981 0.73352 0.0
C128 C 0.82577 0.42948 0.7215 0.0
H129 H 0.87881 0.47172 0.73403 0.0
C130 C 0.83117 0.44897 0.71721 0.0
H131 H 0.82026 0.45198 0.71067 0.0
H132 H 0.81097 0.41773 0.71812 0.0
H133 H 0.55537 0.4328 0.78006 0.0
C134 C 0.56747 0.44507 0.77371 0.0
C135 C 0.57463 0.46477 0.78295 0.0
C136 C 0.57621 0.44104 0.75677 0.0
H137 H 0.59612 0.49572 0.78188 0.0
C138 C 0.59049 0.48054 0.77473 0.0
C139 C 0.59947 0.47682 0.7578 0.0
C140 C 0.59212 0.45701 0.74888 0.0
C141 C 0.56958 0.42009 0.74817 0.0
H142 H 0.59909 0.45391 0.73607 0.0
C143 C 0.54995 0.40605 0.7432 0.0
C144 C 0.54392 0.38628 0.73485 0.0
C145 C 0.58309 0.41403 0.74499 0.0
H146 H 0.59824 0.42436 0.74902 0.0
C147 C 0.5772 0.39449 0.73696 0.0
H148 H 0.53944 0.41064 0.74531 0.0
C149 C 0.55781 0.3807 0.73191 0.0
H150 H 0.55367 0.36555 0.72599 0.0
H151 H 0.58773 0.38997 0.73473 0.0
H152 H 0.58638 0.13165 0.79755 0.0
C153 C 0.57386 0.13117 0.78961 0.0
C154 C 0.5556 0.11796 0.79584 0.0
C155 C 0.57609 0.14416 0.77361 0.0
H156 H 0.52552 0.10835 0.79112 0.0
C157 C 0.53952 0.1178 0.78574 0.0
C158 C 0.54146 0.13061 0.7697 0.0
C159 C 0.55977 0.14355 0.76358 0.0
C160 C 0.59542 0.15911 0.768 0.0
H161 H 0.56132 0.15324 0.75095 0.0
C162 C 0.60964 0.15395 0.76517 0.0
C163 C 0.6278 0.1682 0.75941 0.0
C164 C 0.59968 0.17879 0.76535 0.0
H165 H 0.5892 0.18334 0.76781 0.0
C166 C 0.61757 0.19292 0.75966 0.0
H167 H 0.60652 0.13886 0.76732 0.0
C168 C 0.63149 0.18769 0.75658 0.0
H169 H 0.64508 0.1989 0.75166 0.0
H170 H 0.62063 0.20798 0.75751 0.0
H171 H 0.78511 0.55951 0.89509 0.0
C172 C 0.77354 0.55903 0.9035 0.0
C173 C 0.76725 0.57265 0.89947 0.0
C174 C 0.76397 0.54372 0.91701 0.0
H175 H 0.74695 0.58186 0.9072 0.0
C176 C 0.75162 0.57116 0.90981 0.0
C177 C 0.74177 0.55587 0.92325 0.0
C178 C 0.74817 0.5423 0.92686 0.0
C179 C 0.76912 0.52791 0.91899 0.0
H180 H 0.74044 0.53014 0.93676 0.0
C181 C 0.78823 0.53273 0.92416 0.0
C182 C 0.79284 0.51745 0.92534 0.0
C183 C 0.75473 0.5077 0.9151 0.0
H184 H 0.73998 0.50359 0.91086 0.0
C185 C 0.75926 0.49258 0.91619 0.0
H186 H 0.79943 0.54826 0.92723 0.0
C187 C 0.77816 0.49737 0.92123 0.0
H188 H 0.78126 0.48533 0.92225 0.0
H189 H 0.74807 0.47707 0.91311 0.0
H190 H 0.45859 0.23405 0.92693 0.0
C191 C 0.45768 0.22123 0.93422 0.0
C192 C 0.44542 0.20193 0.924 0.0
C193 C 0.46929 0.22403 0.95329 0.0
H194 H 0.43546 0.17049 0.92467 0.0
C195 C 0.44473 0.18532 0.93286 0.0
C196 C 0.45637 0.18781 0.95178 0.0
C197 C 0.46838 0.20719 0.96204 0.0
C198 C 0.48347 0.24452 0.96318 0.0
H199 H 0.47755 0.20926 0.97651 0.0
C200 C 0.47855 0.25956 0.96603 0.0
C201 C 0.49219 0.27888 0.97557 0.0
C202 C 0.50227 0.24915 0.96968 0.0
H203 H 0.5066 0.23806 0.96732 0.0
C204 C 0.51583 0.26824 0.97889 0.0
H205 H 0.46404 0.25609 0.96133 0.0
C206 C 0.51088 0.283 0.98183 0.0
H207 H 0.52183 0.29778 0.98873 0.0
H208 H 0.53029 0.27165 0.98367 0.0
H209 H 0.77183 0.21493 0.91599 0.0
C210 C 0.78447 0.22787 0.92416 0.0
C211 C 0.80247 0.23404 0.91655 0.0
C212 C 0.78259 0.23886 0.94167 0.0
H213 H 0.8325 0.25647 0.92085 0.0
C214 C 0.81865 0.25125 0.92691 0.0
C215 C 0.81706 0.2623 0.94453 0.0
C216 C 0.79903 0.25585 0.95197 0.0
C217 C 0.76335 0.23391 0.94788 0.0
H218 H 0.79765 0.26455 0.96528 0.0
C219 C 0.74915 0.21406 0.95029 0.0
C220 C 0.73081 0.2097 0.95548 0.0
C221 C 0.75896 0.24928 0.95082 0.0
H222 H 0.76945 0.26463 0.94873 0.0
C223 C 0.74088 0.24502 0.95603 0.0
H224 H 0.75232 0.20207 0.94805 0.0
C225 C 0.72687 0.22539 0.95833 0.0
H226 H 0.71298 0.22251 0.9626 0.0
H227 H 0.73767 0.25697 0.95824 0.0
H228 H 0.55197 0.79155 0.10121 0.0
C229 C 0.55164 0.77815 0.09453 0.0
C230 C 0.56362 0.77192 0.10451 0.0
C231 C 0.53869 0.76671 0.07646 0.0
H232 H 0.57127 0.74885 0.10399 0.0
C233 C 0.56272 0.75423 0.09591 0.0
C234 C 0.54991 0.74266 0.07785 0.0
C235 C 0.53812 0.74914 0.06814 0.0
C236 C 0.52467 0.77206 0.06715 0.0
H237 H 0.52832 0.74035 0.05408 0.0
C238 C 0.53022 0.79186 0.06288 0.0
C239 C 0.51671 0.79638 0.05343 0.0
C240 C 0.5054 0.75702 0.06237 0.0
H241 H 0.50062 0.74176 0.06584 0.0
C242 C 0.49199 0.76149 0.05332 0.0
H243 H 0.54506 0.80356 0.06631 0.0
C244 C 0.49756 0.78097 0.04882 0.0
H245 H 0.48678 0.78403 0.04197 0.0
H246 H 0.47719 0.74979 0.04981 0.0
H247 H 0.22029 0.76885 0.10945 0.0
C248 C 0.23198 0.78074 0.10215 0.0
C249 C 0.23943 0.80076 0.11052 0.0
C250 C 0.2404 0.77589 0.08542 0.0
H251 H 0.26134 0.83139 0.1083 0.0
C252 C 0.25532 0.81598 0.10172 0.0
C253 C 0.26392 0.81141 0.08501 0.0
C254 C 0.25612 0.79138 0.07674 0.0
C255 C 0.23395 0.75467 0.07815 0.0
H256 H 0.26249 0.78779 0.0636 0.0
C257 C 0.21435 0.74003 0.07485 0.0
C258 C 0.2086 0.71994 0.0683 0.0
C259 C 0.24767 0.74892 0.07485 0.0
H260 H 0.26283 0.75968 0.07767 0.0
C261 C 0.24204 0.72914 0.0682 0.0
H262 H 0.20363 0.74422 0.07744 0.0
C263 C 0.22268 0.71475 0.0649 0.0
H264 H 0.21872 0.69953 0.0595 0.0
H265 H 0.25273 0.72493 0.06564 0.0
H266 H 0.25001 0.46263 0.13394 0.0
C267 C 0.23773 0.46244 0.12575 0.0
C268 C 0.21923 0.44954 0.13163 0.0
C269 C 0.24057 0.47622 0.11051 0.0
H270 H 0.18922 0.44007 0.12561 0.0
C271 C 0.20353 0.44997 0.12127 0.0
C272 C 0.20615 0.46369 0.10608 0.0
C273 C 0.22472 0.47675 0.1008 0.0
C274 C 0.26015 0.49144 0.10611 0.0
H275 H 0.2269 0.48748 0.08917 0.0
C276 C 0.27339 0.48596 0.09934 0.0
C277 C 0.29158 0.5007 0.09416 0.0
C278 C 0.26546 0.51175 0.10828 0.0
H279 H 0.25559 0.51633 0.11366 0.0
C280 C 0.28357 0.52637 0.10372 0.0
H281 H 0.26929 0.47029 0.09735 0.0
C282 C 0.29652 0.52093 0.09665 0.0
H283 H 0.31051 0.53262 0.09321 0.0
H284 H 0.28756 0.54199 0.10557 0.0
H285 H 0.45777 0.90053 0.23953 0.0
C286 C 0.44664 0.90118 0.24784 0.0
C287 C 0.44121 0.91526 0.24272 0.0
C288 C 0.43681 0.88697 0.26241 0.0
H289 H 0.42189 0.92618 0.24895 0.0
C290 C 0.42605 0.91528 0.25271 0.0
C291 C 0.41609 0.90126 0.26736 0.0
C292 C 0.42177 0.88737 0.2723 0.0
C293 C 0.44098 0.87059 0.26596 0.0
H294 H 0.41397 0.87632 0.28334 0.0
C295 C 0.45993 0.87425 0.2688 0.0
C296 C 0.46353 0.85849 0.2723 0.0
C297 C 0.42571 0.85092 0.26632 0.0
H298 H 0.411 0.84748 0.26366 0.0
C299 C 0.42918 0.83535 0.26988 0.0
H300 H 0.47179 0.88931 0.26834 0.0
C301 C 0.44788 0.83907 0.27298 0.0
H302 H 0.45004 0.82669 0.27619 0.0
H303 H 0.41729 0.82032 0.2703 0.0
H304 H 0.12592 0.5682 0.25826 0.0
C305 C 0.12542 0.55541 0.26518 0.0
C306 C 0.11401 0.53621 0.25417 0.0
C307 C 0.13714 0.55832 0.28422 0.0
H308 H 0.10544 0.50498 0.25424 0.0
C309 C 0.11426 0.51983 0.26256 0.0
C310 C 0.12576 0.52238 0.2816 0.0
C311 C 0.13686 0.5416 0.2925 0.0
C312 C 0.15098 0.57888 0.29444 0.0
H313 H 0.14587 0.54364 0.3071 0.0
C314 C 0.14611 0.59406 0.29611 0.0
C315 C 0.15974 0.61358 0.30509 0.0
C316 C 0.16962 0.58358 0.30201 0.0
H317 H 0.17406 0.57252 0.30051 0.0
C318 C 0.18297 0.60274 0.31122 0.0
H319 H 0.13189 0.59078 0.29026 0.0
C320 C 0.17812 0.61764 0.31276 0.0
H321 H 0.18879 0.63239 0.32006 0.0
H322 H 0.19722 0.60611 0.31703 0.0
H323 H 0.43773 0.55388 0.24615 0.0
C324 C 0.45038 0.56686 0.25424 0.0
C325 C 0.4685 0.57252 0.24721 0.0
C326 C 0.44844 0.57838 0.27113 0.0
H327 H 0.49861 0.5947 0.25173 0.0
C328 C 0.48473 0.58967 0.25764 0.0
C329 C 0.48307 0.60122 0.27466 0.0
C330 C 0.46489 0.59534 0.28139 0.0
C331 C 0.42922 0.57375 0.27715 0.0
H332 H 0.46352 0.60413 0.29462 0.0
C333 C 0.415 0.5541 0.28031 0.0
C334 C 0.39721 0.55032 0.28694 0.0
C335 C 0.42515 0.58936 0.28 0.0
H336 H 0.43564 0.60453 0.27727 0.0
C337 C 0.40747 0.58559 0.2862 0.0
H338 H 0.41799 0.54196 0.27836 0.0
C339 C 0.39362 0.56626 0.28976 0.0
H340 H 0.37998 0.56372 0.29457 0.0
H341 H 0.40451 0.59773 0.2883 0.0
Tb342 Tb 0.52355 0.01814 0.0142 0.0
C343 C 0.50949 0.97173 0.01351 0.0
Tb344 Tb 0.4798 0.98762 0.01218 0.0
O345 O 0.52359 0.02904 0.04787 0.0
O346 O 0.50374 1.00028 0.03529 0.0
O347 O 0.52398 0.99004 0.01146 0.0
C348 C 0.44489 0.96111 0.02171 0.0
O349 O 0.49155 0.9677 0.01499 0.0
C350 C 0.49267 1.00174 0.97548 0.0
C351 C 0.49403 0.03347 0.01296 0.0
O352 O 0.45292 0.95916 0.00488 0.0
O353 O 0.45652 0.97796 0.03307 0.0
O354 O 0.47514 0.99532 0.97977 0.0
O355 O 0.50128 0.99823 0.99057 0.0
O356 O 0.48093 0.01616 0.01931 0.0
O357 O 0.51085 0.03658 0.00754 0.0
C358 C 0.55903 0.04167 0.00364 0.0
O359 O 0.54343 0.03873 0.99308 0.0
O360 O 0.55471 0.03128 0.02034 0.0
C361 C 0.50821 0.01268 0.05142 0.0
Tb362 Tb 0.98924 0.50677 0.01352 0.0
C363 C 0.03289 0.53788 0.0192 0.0
Tb364 Tb 0.01712 0.4908 0.01859 0.0
O365 O 0.99708 0.51983 0.0472 0.0
O366 O 0.99801 0.49405 0.03784 0.0
O367 O 0.01591 0.53443 0.01082 0.0
C368 C 0.0448 0.48341 0.03223 0.0
O369 O 0.0359 0.52326 0.02483 0.0
C370 C 0.00421 0.49032 0.97884 0.0
C371 C 0.97341 0.45953 0.01362 0.0
O372 O 0.03457 0.48748 0.04462 0.0
O373 O 0.03935 0.48337 0.01217 0.0
O374 O 0.00896 0.47751 0.98508 0.0
O375 O 0.00837 0.50356 0.9942 0.0
O376 O 0.99064 0.46294 0.02088 0.0
O377 O 0.9701 0.47416 0.00871 0.0
C378 C 0.9619 0.51441 0.99911 0.0
O379 O 0.96987 0.50681 0.98734 0.0
O380 O 0.96935 0.51774 0.019 0.0
C381 C 1.00201 0.50712 0.05331 0.0
Tb382 Tb 0.48637 0.4982 0.01228 0.0
C383 C 0.49924 0.46628 0.00708 0.0
Tb384 Tb 0.52978 0.51316 0.01166 0.0
O385 O 0.48074 0.48605 0.97831 0.0
O386 O 0.50727 0.51045 0.99004 0.0
O387 O 0.4856 0.46973 0.01328 0.0
C388 C 0.56402 0.5213 0.99984 0.0
O389 O 0.51654 0.48086 0.00357 0.0
C390 C 0.51853 0.51397 0.05021 0.0
C391 C 0.51722 0.5451 0.01824 0.0
O392 O 0.55701 0.51362 0.01753 0.0
O393 O 0.55181 0.52448 0.98894 0.0
O394 O 0.53611 0.52502 0.04579 0.0
O395 O 0.50896 0.50151 0.03411 0.0
O396 O 0.53073 0.54171 0.01146 0.0
O397 O 0.49995 0.53045 0.02183 0.0
C398 C 0.45162 0.49051 0.02177 0.0
O399 O 0.46152 0.50225 0.00759 0.0
O400 O 0.46119 0.48287 0.03048 0.0
C401 C 0.49814 0.49796 0.97391 0.0
Tb402 Tb 0.19241 0.35167 0.34672 0.0
C403 C 0.17937 0.30686 0.352 0.0
Tb404 Tb 0.14913 0.32216 0.34851 0.0
O405 O 0.19852 0.3477 0.38028 0.0
O406 O 0.17215 0.34452 0.36966 0.0
O407 O 0.19302 0.32385 0.34559 0.0
C408 C 0.11483 0.29574 0.36017 0.0
O409 O 0.16218 0.30394 0.35583 0.0
C410 C 0.16021 0.3314 0.30987 0.0
C411 C 0.16207 0.36682 0.34302 0.0
O412 O 0.12147 0.29434 0.342 0.0
O413 O 0.12746 0.31202 0.37166 0.0
O414 O 0.14309 0.32624 0.31496 0.0
O415 O 0.16941 0.32935 0.32559 0.0
O416 O 0.14865 0.35001 0.34999 0.0
O417 O 0.17914 0.36962 0.3388 0.0
C418 C 0.22659 0.37876 0.33544 0.0
O419 O 0.21936 0.38015 0.35315 0.0
O420 O 0.21464 0.36202 0.32416 0.0
C421 C 0.18141 0.34253 0.38538 0.0
Tb422 Tb 0.6601 0.84245 0.34556 0.0
C423 C 0.70368 0.87377 0.35476 0.0
Tb424 Tb 0.6887 0.82696 0.34822 0.0
O425 O 0.66637 0.85373 0.37986 0.0
O426 O 0.67036 0.8302 0.369 0.0
O427 O 0.68685 0.87081 0.34651 0.0
C428 C 0.71576 0.81792 0.359 0.0
O429 O 0.70663 0.85881 0.35899 0.0
C430 C 0.67489 0.82693 0.30892 0.0
C431 C 0.64515 0.7956 0.34031 0.0
O432 O 0.71685 0.8301 0.34484 0.0
O433 O 0.69938 0.81073 0.36701 0.0
O434 O 0.68109 0.81501 0.31414 0.0
O435 O 0.6786 0.83944 0.32489 0.0
O436 O 0.66208 0.79882 0.34845 0.0
O437 O 0.6421 0.81039 0.33553 0.0
C438 C 0.63257 0.85047 0.33342 0.0
O439 O 0.63169 0.83882 0.34812 0.0
O440 O 0.64905 0.85775 0.3256 0.0
C441 C 0.67347 0.84254 0.385 0.0
Tb442 Tb 0.15626 0.83325 0.34396 0.0
C443 C 0.16883 0.80012 0.34536 0.0
Tb444 Tb 0.1991 0.84641 0.34797 0.0
O445 O 0.15668 0.83827 0.30944 0.0
O446 O 0.1756 0.83084 0.32433 0.0
O447 O 0.15499 0.80447 0.34784 0.0
C448 C 0.23501 0.85993 0.33824 0.0
O449 O 0.18663 0.81406 0.34254 0.0
C450 C 0.18363 0.84316 0.38469 0.0
C451 C 0.18655 0.87952 0.34631 0.0
O452 O 0.2284 0.85261 0.35622 0.0
O453 O 0.22145 0.85978 0.32589 0.0
O454 O 0.19863 0.8414 0.38252 0.0
O455 O 0.17978 0.84884 0.36754 0.0
O456 O 0.20036 0.87512 0.34406 0.0
O457 O 0.16872 0.86565 0.34913 0.0
C458 C 0.12035 0.82058 0.35321 0.0
O459 O 0.12731 0.82777 0.33533 0.0
O460 O 0.13353 0.82022 0.36575 0.0
C461 C 0.17168 0.83652 0.30722 0.0
Tb462 Tb 0.85608 0.68593 0.68049 0.0
C463 C 0.84294 0.63994 0.68196 0.0
Tb464 Tb 0.81247 0.65482 0.67932 0.0
O465 O 0.85677 0.69832 0.71355 0.0
O466 O 0.83644 0.66934 0.70243 0.0
O467 O 0.85723 0.65825 0.67959 0.0
C468 C 0.77824 0.62751 0.69001 0.0
O469 O 0.82487 0.63559 0.68298 0.0
C470 C 0.82506 0.66741 0.64202 0.0
C471 C 0.82564 0.70025 0.678 0.0
O472 O 0.78555 0.62628 0.67225 0.0
O473 O 0.79016 0.6441 0.70156 0.0
O474 O 0.80751 0.66107 0.64627 0.0
O475 O 0.83389 0.66472 0.65761 0.0
O476 O 0.81258 0.68297 0.68443 0.0
O477 O 0.84264 0.70357 0.67291 0.0
C478 C 0.89118 0.7096 0.66903 0.0
O479 O 0.87534 0.7063 0.65873 0.0
O480 O 0.88731 0.6995 0.68595 0.0
C481 C 0.84093 0.68274 0.71756 0.0
Tb482 Tb 0.32426 0.17231 0.67964 0.0
C483 C 0.36767 0.20425 0.68819 0.0
Tb484 Tb 0.35312 0.15747 0.68252 0.0
O485 O 0.33176 0.18467 0.71352 0.0
O486 O 0.33442 0.16009 0.70325 0.0
O487 O 0.35064 0.20096 0.68026 0.0
C488 C 0.38091 0.14959 0.69361 0.0
O489 O 0.37092 0.1895 0.69248 0.0
C490 C 0.33925 0.15709 0.64322 0.0
C491 C 0.30975 0.12541 0.67525 0.0
O492 O 0.38069 0.15963 0.67763 0.0
O493 O 0.36547 0.14395 0.70326 0.0
O494 O 0.34521 0.14501 0.64865 0.0
O495 O 0.34303 0.16981 0.65901 0.0
O496 O 0.32694 0.12896 0.68279 0.0
O497 O 0.30626 0.13999 0.67081 0.0
C498 C 0.29645 0.17988 0.66755 0.0
O499 O 0.2973 0.17141 0.68472 0.0
O500 O 0.31133 0.1842 0.65723 0.0
C501 C 0.33792 0.17277 0.71904 0.0
Tb502 Tb 0.82328 0.16741 0.68169 0.0
C503 C 0.83587 0.13561 0.67409 0.0
Tb504 Tb 0.86626 0.18259 0.67873 0.0
O505 O 0.81645 0.15507 0.64773 0.0
O506 O 0.8431 0.17986 0.65837 0.0
O507 O 0.8225 0.13891 0.68151 0.0
C508 C 0.90012 0.19078 0.66573 0.0
O509 O 0.85288 0.15032 0.66989 0.0
C510 C 0.8561 0.18282 0.71801 0.0
C511 C 0.85377 0.21435 0.68683 0.0
O512 O 0.89313 0.18213 0.68299 0.0
O513 O 0.8881 0.19491 0.65592 0.0
O514 O 0.87317 0.19491 0.7127 0.0
O515 O 0.84645 0.17023 0.70211 0.0
O516 O 0.86701 0.21104 0.67908 0.0
O517 O 0.83683 0.19963 0.69121 0.0
C518 C 0.78926 0.15985 0.6935 0.0
O519 O 0.79752 0.16986 0.67745 0.0
O520 O 0.80009 0.15394 0.70283 0.0
C521 C 0.83348 0.16727 0.64246 0.0
H522 H 0.29574 0.8095 0.07642 0.0
H523 H 0.3256 0.83578 0.06484 0.0
H524 H 0.30305 0.87585 0.06523 0.0
H525 H 0.27275 0.84934 0.07622 0.0
H526 H 0.32244 0.87652 0.02834 0.0
H527 H 0.36565 0.88472 0.10481 0.0
H528 H 0.35226 0.85952 0.09225 0.0
H529 H 0.33981 0.87162 0.10237 0.0
C530 C 0.29698 0.8238 0.07377 0.0
C531 C 0.28183 0.82731 0.07725 0.0
C532 C 0.31416 0.83888 0.06739 0.0
C533 C 0.31664 0.85784 0.06452 0.0
C534 C 0.30145 0.86133 0.06751 0.0
H535 H 0.42726 0.9641 0.05653 0.0
H536 H 0.39553 0.93972 0.06628 0.0
C537 C 0.28421 0.84623 0.07391 0.0
C538 C 0.33517 0.87399 0.05852 0.0
H539 H 0.38288 0.90109 0.07543 0.0
C540 C 0.33565 0.88199 0.03866 0.0
C541 C 0.35233 0.88128 0.07216 0.0
C542 C 0.35254 0.874 0.09419 0.0
C543 C 0.35297 0.89676 0.03182 0.0
C544 C 0.37024 0.90346 0.04509 0.0
C545 C 0.36965 0.89579 0.06518 0.0
C546 C 0.38911 0.91847 0.03855 0.0
C547 C 0.35259 0.90522 0.0106 0.0
C548 C 0.39609 0.91455 0.01981 0.0
C549 C 0.4142 0.92849 0.01419 0.0
C550 C 0.42566 0.94648 0.02732 0.0
C551 C 0.41869 0.95036 0.04609 0.0
C552 C 0.40059 0.93645 0.05168 0.0
H553 H 0.3381 0.90262 0.00539 0.0
H554 H 0.36295 0.92155 0.01176 0.0
H555 H 0.35663 0.89778 0.99786 0.0
H556 H 0.38765 0.90059 0.0097 0.0
H557 H 0.4193 0.9251 0.9997 0.0
H558 H 0.20407 0.49759 0.10287 0.0
H559 H 0.17629 0.50018 0.09013 0.0
H560 H 0.1432 0.43608 0.07578 0.0
H561 H 0.17087 0.43339 0.08898 0.0
H562 H 0.15577 0.49052 0.05188 0.0
H563 H 0.10869 0.44555 0.11266 0.0
H564 H 0.13393 0.45392 0.1145 0.0
H565 H 0.11729 0.43219 0.09673 0.0
C566 C 0.19091 0.48406 0.09685 0.0
C567 C 0.18962 0.46528 0.097 0.0
C568 C 0.17501 0.48555 0.08965 0.0
C569 C 0.15751 0.4683 0.0824 0.0
C570 C 0.15636 0.44956 0.08189 0.0
H571 H 0.0643 0.47084 0.00768 0.0
H572 H 0.09134 0.46671 0.01977 0.0
C573 C 0.17221 0.44804 0.08931 0.0
C574 C 0.14059 0.47004 0.07524 0.0
H575 H 0.09409 0.45418 0.08415 0.0
C576 C 0.1423 0.4826 0.05898 0.0
C577 C 0.12309 0.45999 0.08475 0.0
C578 C 0.12065 0.44732 0.10328 0.0
C579 C 0.127 0.48524 0.05182 0.0
C580 C 0.10926 0.47457 0.06072 0.0
C581 C 0.1076 0.46218 0.07715 0.0
C582 C 0.09235 0.4763 0.05347 0.0
C583 C 0.13019 0.49985 0.03518 0.0
C584 C 0.08335 0.48223 0.0685 0.0
C585 C 0.06765 0.48422 0.06166 0.0
C586 C 0.06073 0.48037 0.03967 0.0
C587 C 0.06947 0.47407 0.02471 0.0
C588 C 0.08502 0.47187 0.03158 0.0
H589 H 0.14563 0.51098 0.03498 0.0
H590 H 0.12489 0.49156 0.01885 0.0
H591 H 0.12239 0.50801 0.03831 0.0
H592 H 0.08866 0.48562 0.08549 0.0
H593 H 0.06113 0.48908 0.07353 0.0
H594 H 0.51685 0.70709 0.06687 0.0
H595 H 0.51336 0.67467 0.05532 0.0
H596 H 0.57478 0.70149 0.05949 0.0
H597 H 0.57837 0.73401 0.07135 0.0
H598 H 0.52486 0.6624 0.02036 0.0
H599 H 0.56012 0.6551 0.09589 0.0
H600 H 0.55334 0.67396 0.09403 0.0
H601 H 0.57476 0.67734 0.08309 0.0
C602 C 0.52963 0.70613 0.06518 0.0
C603 C 0.5479 0.72312 0.07006 0.0
C604 C 0.52761 0.68756 0.05865 0.0
C605 C 0.54379 0.68554 0.05687 0.0
C606 C 0.56207 0.70256 0.06127 0.0
H607 H 0.55205 0.57956 0.01918 0.0
H608 H 0.55922 0.61405 0.02739 0.0
C609 C 0.56412 0.72114 0.06797 0.0
C610 C 0.54136 0.66559 0.05028 0.0
H611 H 0.55099 0.62989 0.06707 0.0
C612 C 0.5306 0.65532 0.03057 0.0
C613 C 0.54885 0.65632 0.06361 0.0
C614 C 0.55976 0.66613 0.08542 0.0
C615 C 0.52708 0.63606 0.02389 0.0
C616 C 0.53439 0.62676 0.03731 0.0
C617 C 0.54546 0.63712 0.0568 0.0
C618 C 0.53 0.60593 0.03184 0.0
C619 C 0.51559 0.62579 0.00247 0.0
C620 C 0.51123 0.58995 0.03181 0.0
C621 C 0.50708 0.57024 0.02726 0.0
C622 C 0.52164 0.56609 0.02258 0.0
C623 C 0.54046 0.58218 0.02258 0.0
C624 C 0.54461 0.60191 0.02731 0.0
H625 H 0.51474 0.63652 0.99192 0.0
H626 H 0.5219 0.61791 0.99374 0.0
H627 H 0.5008 0.61448 0.00544 0.0
H628 H 0.49979 0.59273 0.03557 0.0
H629 H 0.49244 0.55826 0.02747 0.0
H630 H 0.829 0.27562 0.98745 0.0
H631 H 0.85616 0.30791 0.00271 0.0
H632 H 0.86997 0.32464 0.93818 0.0
H633 H 0.84312 0.2924 0.92291 0.0
H634 H 0.90166 0.33439 0.96459 0.0
H635 H 0.85763 0.36097 0.00456 0.0
H636 H 0.85452 0.33778 0.01295 0.0
H637 H 0.84726 0.33902 0.98544 0.0
C638 C 0.83784 0.28622 0.97656 0.0
C639 C 0.83393 0.28147 0.95399 0.0
C640 C 0.8533 0.30468 0.98528 0.0
C641 C 0.86492 0.31885 0.97158 0.0
C642 C 0.86121 0.31397 0.94907 0.0
H643 H 0.93773 0.44606 0.99328 0.0
H644 H 0.912 0.4115 0.98494 0.0
C645 C 0.8459 0.29549 0.94036 0.0
C646 C 0.88092 0.33883 0.98048 0.0
H647 H 0.89118 0.38203 0.01017 0.0
C648 C 0.8994 0.34479 0.97464 0.0
C649 C 0.8779 0.35246 0.9934 0.0
C650 C 0.85824 0.34736 0.99932 0.0
C651 C 0.91487 0.36406 0.98108 0.0
C652 C 0.91189 0.37762 0.99419 0.0
C653 C 0.89347 0.37156 1.00029 0.0
C654 C 0.92737 0.39858 1.00047 0.0
C655 C 0.93407 0.36996 0.97302 0.0
C656 C 0.94447 0.40289 0.0124 0.0
C657 C 0.95934 0.42271 0.01707 0.0
C658 C 0.95727 0.43861 0.01016 0.0
C659 C 0.93985 0.43424 0.9989 0.0
C660 C 0.92509 0.41445 0.9941 0.0
H661 H 0.9328 0.35971 0.95898 0.0
H662 H 0.94103 0.38545 0.96813 0.0
H663 H 0.94355 0.36934 0.9862 0.0
H664 H 0.94638 0.39092 0.01792 0.0
H665 H 0.97249 0.42553 0.02592 0.0
H666 H 0.73017 0.54574 0.96373 0.0
H667 H 0.70008 0.53963 0.97745 0.0
H668 H 0.68346 0.5544 0.91709 0.0
H669 H 0.71304 0.55979 0.90298 0.0
H670 H 0.68512 0.56496 0.98299 0.0
H671 H 0.63753 0.49986 0.924 0.0
H672 H 0.66304 0.50975 0.92801 0.0
H673 H 0.65351 0.52177 0.91151 0.0
C674 C 0.72004 0.54753 0.95332 0.0
C675 C 0.72402 0.5532 0.93222 0.0
C676 C 0.7029 0.54415 0.96123 0.0
C677 C 0.68938 0.54622 0.94816 0.0
C678 C 0.69351 0.55232 0.92731 0.0
H679 H 0.57846 0.53457 0.96171 0.0
H680 H 0.60926 0.54094 0.94995 0.0
C681 C 0.71058 0.55567 0.91938 0.0
C682 C 0.67099 0.54215 0.9563 0.0
H683 H 0.62245 0.51344 0.94532 0.0
C684 C 0.67141 0.55361 0.97486 0.0
C685 C 0.65311 0.5273 0.94568 0.0
C686 C 0.6517 0.51382 0.92632 0.0
C687 C 0.65444 0.55098 0.98274 0.0
C688 C 0.63659 0.53631 0.97194 0.0
C689 C 0.63616 0.52474 0.95351 0.0
C690 C 0.61814 0.53278 0.97938 0.0
C691 C 0.65574 0.56427 0.00222 0.0
C692 C 0.61284 0.52588 0.99973 0.0
C693 C 0.59525 0.52221 0.00646 0.0
C694 C 0.58267 0.52535 0.99292 0.0
C695 C 0.58795 0.53215 0.97252 0.0
C696 C 0.6055 0.53576 0.96578 0.0
H697 H 0.67022 0.57774 0.00545 0.0
H698 H 0.64503 0.56916 0.99997 0.0
H699 H 0.65272 0.55577 0.01672 0.0
H700 H 0.62221 0.52312 0.01031 0.0
H701 H 0.59146 0.51685 0.02221 0.0
H702 H 0.45686 0.17858 0.9938 0.0
H703 H 0.46091 0.15156 0.00717 0.0
H704 H 0.46226 0.1312 0.94162 0.0
H705 H 0.45806 0.15799 0.92817 0.0
H706 H 0.4409 0.10007 0.96528 0.0
H707 H 0.51144 0.15221 0.01068 0.0
H708 H 0.49222 0.15578 0.01841 0.0
H709 H 0.49978 0.16045 0.99162 0.0
C710 C 0.45799 0.16831 0.98225 0.0
C711 C 0.45722 0.17049 0.95993 0.0
C712 C 0.46036 0.15291 0.98991 0.0
C713 C 0.46226 0.13957 0.97543 0.0
C714 C 0.46087 0.14133 0.95311 0.0
H715 H 0.51486 0.06837 0.99455 0.0
H716 H 0.50607 0.09346 0.98702 0.0
C717 C 0.45838 0.15662 0.94543 0.0
C718 C 0.46617 0.12406 0.9834 0.0
H719 H 0.49902 0.11775 0.01373 0.0
C720 C 0.45355 0.1039 0.97597 0.0
C721 C 0.48282 0.12912 0.99714 0.0
C722 C 0.49745 0.15056 0.0048 0.0
C723 C 0.4572 0.08871 0.9817 0.0
C724 C 0.47375 0.09376 0.99561 0.0
C725 C 0.48625 0.11388 0.00324 0.0
C726 C 0.47912 0.07864 0.00119 0.0
C727 C 0.44371 0.06751 0.97212 0.0
C728 C 0.46706 0.06207 0.01205 0.0
C729 C 0.47201 0.04754 0.01634 0.0
C730 C 0.48924 0.04945 0.01005 0.0
C731 C 0.50152 0.06639 0.99974 0.0
C732 C 0.49651 0.08079 0.99538 0.0
H733 H 0.43434 0.0669 0.95796 0.0
H734 H 0.45175 0.06009 0.96693 0.0
H735 H 0.43439 0.05887 0.98455 0.0
H736 H 0.45375 0.06029 0.01711 0.0
H737 H 0.46226 0.03475 0.02438 0.0
H738 H 0.6937 0.19049 0.9381 0.0
H739 H 0.6676 0.15808 0.94613 0.0
H740 H 0.70727 0.14964 0.98722 0.0
H741 H 0.73357 0.18228 0.97932 0.0
H742 H 0.66347 0.11773 0.94195 0.0
H743 H 0.66545 0.14708 0.0266 0.0
H744 H 0.67651 0.16349 0.00579 0.0
H745 H 0.68746 0.15045 0.01732 0.0
C746 C 0.6969 0.18166 0.94871 0.0
C747 C 0.71562 0.18897 0.95825 0.0
C748 C 0.682 0.16313 0.95321 0.0
C749 C 0.68549 0.15161 0.96745 0.0
C750 C 0.70429 0.15843 0.97632 0.0
H751 H 0.59332 0.05044 0.02477 0.0
H752 H 0.62549 0.07488 0.01579 0.0
C753 C 0.71929 0.17697 0.97169 0.0
C754 C 0.66911 0.13307 0.97377 0.0
H755 H 0.6405 0.11472 0.01481 0.0
C756 C 0.65856 0.11692 0.95796 0.0
C757 C 0.66282 0.13205 0.9947 0.0
C758 C 0.67352 0.14917 0.01214 0.0
C759 C 0.64157 0.09995 0.96235 0.0
C760 C 0.6347 0.09938 0.98293 0.0
C761 C 0.64573 0.11517 0.99903 0.0
C762 C 0.61542 0.08347 0.98753 0.0
C763 C 0.63109 0.08288 0.94483 0.0
C764 C 0.5991 0.08025 0.97474 0.0
C765 C 0.58082 0.06632 0.97979 0.0
C766 C 0.57848 0.05549 0.9979 0.0
C767 C 0.59476 0.05857 0.01068 0.0
C768 C 0.61311 0.07251 0.00557 0.0
H769 H 0.64107 0.08235 0.93359 0.0
H770 H 0.62345 0.06827 0.95176 0.0
H771 H 0.62043 0.08508 0.93517 0.0
H772 H 0.60045 0.0889 0.96113 0.0
H773 H 0.56851 0.06433 0.96972 0.0
H774 H 0.81764 0.54224 0.95963 0.0
H775 H 0.84885 0.54622 0.972 0.0
H776 H 0.84375 0.50658 0.91731 0.0
H777 H 0.81266 0.50254 0.90492 0.0
H778 H 0.85297 0.5115 0.98126 0.0
H779 H 0.89947 0.55563 0.91936 0.0
H780 H 0.87774 0.55562 0.92471 0.0
H781 H 0.87653 0.5348 0.909 0.0
C782 C 0.82341 0.53475 0.95002 0.0
C783 C 0.81274 0.52205 0.93134 0.0
C784 C 0.84116 0.53696 0.95714 0.0
C785 C 0.84865 0.52681 0.94547 0.0
C786 C 0.83834 0.51474 0.92639 0.0
H787 H 0.94233 0.50358 0.95899 0.0
H788 H 0.91528 0.50773 0.94674 0.0
C789 C 0.82054 0.51235 0.91941 0.0
C790 C 0.86637 0.52733 0.95411 0.0
H791 H 0.91169 0.5404 0.94267 0.0
C792 C 0.86591 0.51803 0.97301 0.0
C793 C 0.8831 0.53564 0.94313 0.0
C794 C 0.88441 0.54614 0.923 0.0
C795 C 0.88155 0.51622 0.98088 0.0
C796 C 0.89834 0.52448 0.96987 0.0
C797 C 0.89887 0.53409 0.95113 0.0
C798 C 0.91524 0.52275 0.97716 0.0
C799 C 0.87959 0.50472 1.00037 0.0
C800 C 0.92448 0.53016 0.99817 0.0
C801 C 0.93976 0.52758 0.00527 0.0
C802 C 0.94629 0.51786 0.99134 0.0
C803 C 0.93751 0.51106 0.97008 0.0
C804 C 0.9221 0.51347 0.96306 0.0
H805 H 0.86434 0.49476 0.00306 0.0
H806 H 0.88648 0.49547 0.99856 0.0
H807 H 0.88666 0.51542 0.01503 0.0
H808 H 0.9198 0.53785 0.00916 0.0
H809 H 0.94642 0.53314 0.02167 0.0
H810 H 0.50301 0.30624 0.01078 0.0
H811 H 0.4985 0.33505 0.0147 0.0
H812 H 0.46538 0.31674 0.95243 0.0
H813 H 0.47059 0.28819 0.94795 0.0
H814 H 0.49208 0.35527 0.95539 0.0
H815 H 0.45417 0.3415 0.02924 0.0
H816 H 0.47571 0.34049 0.03393 0.0
H817 H 0.45674 0.32236 0.01448 0.0
C818 C 0.49469 0.30825 0.99792 0.0
C819 C 0.4873 0.29497 0.97895 0.0
C820 C 0.49187 0.32461 1.00034 0.0
C821 C 0.48133 0.32795 0.98403 0.0
C822 C 0.47344 0.3144 0.96532 0.0
H823 H 0.46464 0.43148 0.00671 0.0
H824 H 0.45808 0.39708 0.99943 0.0
C825 C 0.47633 0.29801 0.96283 0.0
C826 C 0.48018 0.34656 0.9858 0.0
H827 H 0.47124 0.37595 0.02068 0.0
C828 C 0.48721 0.35962 0.96951 0.0
C829 C 0.47353 0.35219 0.00401 0.0
C830 C 0.46442 0.33827 0.02127 0.0
C831 C 0.48877 0.37855 0.9715 0.0
C832 C 0.48361 0.38481 0.99054 0.0
C833 C 0.47554 0.37132 0.00626 0.0
C834 C 0.48742 0.40561 0.99493 0.0
C835 C 0.49608 0.39168 0.95319 0.0
C836 C 0.50612 0.42182 0.99528 0.0
C837 C 0.5099 0.44143 0.99932 0.0
C838 C 0.49509 0.44533 0.00344 0.0
C839 C 0.47639 0.42905 0.00359 0.0
C840 C 0.47261 0.40937 0.99941 0.0
H841 H 0.4932 0.38262 0.9375 0.0
H842 H 0.48943 0.40117 0.95165 0.0
H843 H 0.51181 0.4016 0.95636 0.0
H844 H 0.51789 0.41931 0.99252 0.0
H845 H 0.52451 0.45353 0.99928 0.0
H846 H 0.19198 0.68239 0.0815 0.0
H847 H 0.1591 0.65518 0.07271 0.0
H848 H 0.14552 0.69455 0.03913 0.0
H849 H 0.17877 0.72186 0.04737 0.0
H850 H 0.1242 0.65149 0.08186 0.0
H851 H 0.13006 0.64778 0.99296 0.0
H852 H 0.15077 0.66169 0.01237 0.0
H853 H 0.13528 0.67148 0.006 0.0
C854 C 0.18203 0.68528 0.0722 0.0
C855 C 0.18805 0.7042 0.06485 0.0
C856 C 0.1632 0.66975 0.0673 0.0
C857 C 0.14994 0.67274 0.05495 0.0
C858 C 0.15563 0.69183 0.04835 0.0
H859 H 0.03478 0.57239 0.00672 0.0
H860 H 0.0615 0.60684 0.01516 0.0
C861 C 0.17456 0.70746 0.05326 0.0
C862 C 0.13045 0.6555 0.04864 0.0
H863 H 0.10172 0.62304 0.00539 0.0
C864 C 0.11916 0.64544 0.06511 0.0
C865 C 0.12386 0.64765 0.02677 0.0
C866 C 0.13561 0.65756 0.00844 0.0
C867 C 0.10185 0.62733 0.06038 0.0
C868 C 0.09578 0.61897 0.03864 0.0
C869 C 0.10647 0.62953 0.02204 0.0
C870 C 0.07958 0.59834 0.03316 0.0
C871 C 0.09043 0.61697 0.07874 0.0
C872 C 0.08112 0.58223 0.04009 0.0
C873 C 0.06607 0.56266 0.0352 0.0
C874 C 0.04908 0.55873 0.02323 0.0
C875 C 0.04764 0.5749 0.01599 0.0
C876 C 0.06286 0.59457 0.0208 0.0
H877 H 0.09397 0.62761 0.0933 0.0
H878 H 0.07482 0.60954 0.07385 0.0
H879 H 0.09383 0.60533 0.08327 0.0
H880 H 0.09404 0.58482 0.04935 0.0
H881 H 0.06772 0.55064 0.04111 0.0
H882 H 0.31258 0.51501 0.05998 0.0
H883 H 0.33794 0.50936 0.04833 0.0
H884 H 0.32767 0.4689 0.09762 0.0
H885 H 0.30209 0.47451 0.10943 0.0
H886 H 0.37071 0.51848 0.07518 0.0
H887 H 0.33109 0.43822 0.04316 0.0
H888 H 0.31931 0.45261 0.04714 0.0
H889 H 0.32664 0.44388 0.06994 0.0
C890 C 0.31562 0.5048 0.06828 0.0
C891 C 0.30546 0.49535 0.08577 0.0
C892 C 0.33007 0.50153 0.06154 0.0
C893 C 0.33467 0.48866 0.07203 0.0
C894 C 0.32416 0.47865 0.08906 0.0
H895 H 0.43089 0.46862 0.05351 0.0
H896 H 0.40207 0.46702 0.06652 0.0
C897 C 0.30958 0.48189 0.09581 0.0
C898 C 0.35141 0.48711 0.06602 0.0
H899 H 0.36481 0.45521 0.04353 0.0
C900 C 0.36941 0.50463 0.06831 0.0
C901 C 0.34972 0.46899 0.05723 0.0
C902 C 0.33065 0.44984 0.05403 0.0
C903 C 0.38571 0.50461 0.06178 0.0
C904 C 0.38394 0.48666 0.05237 0.0
C905 C 0.36608 0.46897 0.05064 0.0
C906 C 0.40044 0.4863 0.04357 0.0
C907 C 0.40474 0.52385 0.06503 0.0
C908 C 0.40875 0.49726 0.02605 0.0
C909 C 0.42512 0.49818 0.01861 0.0
C910 C 0.43343 0.48807 0.02851 0.0
C911 C 0.42475 0.47654 0.04559 0.0
C912 C 0.40832 0.47561 0.05302 0.0
H913 H 0.40464 0.53477 0.07729 0.0
H914 H 0.41646 0.52099 0.07021 0.0
H915 H 0.40793 0.53076 0.04948 0.0
H916 H 0.40273 0.50539 0.01834 0.0
H917 H 0.43148 0.50712 0.00538 0.0
H918 H 0.50627 0.80766 0.0166 0.0
H919 H 0.51119 0.8406 0.01013 0.0
H920 H 0.54447 0.86495 0.07208 0.0
H921 H 0.53911 0.83167 0.07895 0.0
H922 H 0.51639 0.87418 0.06697 0.0
H923 H 0.55596 0.89167 0.99415 0.0
H924 H 0.53483 0.86741 0.99029 0.0
H925 H 0.55382 0.8722 0.01054 0.0
C926 C 0.51481 0.82006 0.02878 0.0
C927 C 0.52217 0.81702 0.04838 0.0
C928 C 0.51782 0.83897 0.02493 0.0
C929 C 0.52841 0.85535 0.04048 0.0
C930 C 0.53637 0.85255 0.05977 0.0
H931 H 0.54444 0.97365 0.01599 0.0
H932 H 0.55102 0.94675 0.02331 0.0
C933 C 0.53338 0.83357 0.06363 0.0
C934 C 0.52931 0.8747 0.03743 0.0
H935 H 0.53859 0.90909 1.00078 0.0
C936 C 0.52155 0.88199 0.05267 0.0
C937 C 0.53624 0.88508 0.01892 0.0
C938 C 0.54587 0.8788 0.00267 0.0
C939 C 0.5196 0.8987 0.04933 0.0
C940 C 0.52523 0.90817 0.03004 0.0
C941 C 0.53397 0.90161 0.01538 0.0
C942 C 0.52132 0.92429 0.02447 0.0
C943 C 0.51129 0.90592 0.0664 0.0
C944 C 0.50241 0.92043 0.02202 0.0
C945 C 0.49858 0.9357 0.01783 0.0
C946 C 0.5136 0.9552 0.01584 0.0
C947 C 0.53252 0.95885 0.01746 0.0
C948 C 0.53633 0.9435 0.02168 0.0
H949 H 0.51308 0.90115 0.08251 0.0
H950 H 0.51813 0.92248 0.06779 0.0
H951 H 0.49574 0.89942 0.06187 0.0
H952 H 0.49057 0.9056 0.02359 0.0
H953 H 0.48382 0.93224 0.01651 0.0
H954 H 0.9649 0.17787 0.45218 0.0
H955 H 0.99446 0.20457 0.44052 0.0
H956 H 0.97624 0.17793 0.37454 0.0
H957 H 0.94613 0.15182 0.38585 0.0
H958 H 0.02227 0.20179 0.42264 0.0
H959 H 0.99315 0.23514 0.36603 0.0
H960 H 0.97868 0.21758 0.3844 0.0
H961 H 0.98324 0.20882 0.35923 0.0
C962 C 0.96691 0.17793 0.43509 0.0
C963 C 0.95299 0.16269 0.41995 0.0
C964 C 0.98395 0.19314 0.42848 0.0
C965 C 0.98751 0.19347 0.4066 0.0
C966 C 0.97367 0.1783 0.39143 0.0
H967 H 0.08667 0.26184 0.33686 0.0
H968 H 0.05575 0.23721 0.34855 0.0
C969 C 0.95654 0.16319 0.39799 0.0
C970 C 0.00609 0.20909 0.39988 0.0
H971 H 0.02609 0.24495 0.36466 0.0
C972 C 0.02309 0.21133 0.41008 0.0
C973 C 0.00719 0.22158 0.38351 0.0
C974 C 0.9896 0.22082 0.37281 0.0
C975 C 0.04109 0.2254 0.40408 0.0
C976 C 0.04212 0.23759 0.38746 0.0
C977 C 0.0252 0.23546 0.37731 0.0
C978 C 0.06069 0.25264 0.3804 0.0
C979 C 0.05887 0.22692 0.41525 0.0
C980 C 0.07355 0.26955 0.39436 0.0
C981 C 0.09111 0.28367 0.38768 0.0
C982 C 0.09612 0.28103 0.36696 0.0
C983 C 0.08317 0.26418 0.35294 0.0
C984 C 0.06553 0.25014 0.35957 0.0
H985 H 0.05551 0.21387 0.42455 0.0
H986 H 0.069 0.22806 0.4033 0.0
H987 H 0.06621 0.24065 0.42672 0.0
H988 H 0.06997 0.27185 0.41041 0.0
H989 H 0.10081 0.29659 0.39875 0.0
H990 H 0.87239 0.8277 0.42691 0.0
H991 H 0.84478 0.83014 0.41313 0.0
H992 H 0.8093 0.76595 0.4092 0.0
H993 H 0.83698 0.76332 0.42267 0.0
H994 H 0.80493 0.7847 0.37158 0.0
H995 H 0.79931 0.81964 0.44928 0.0
H996 H 0.82268 0.83164 0.43969 0.0
H997 H 0.81262 0.80665 0.4476 0.0
C998 C 0.85877 0.81407 0.42288 0.0
C999 C 0.85686 0.7953 0.4259 0.0
C1000 C 0.84298 0.81552 0.4152 0.0
C1001 C 0.82498 0.79825 0.41042 0.0
C1002 C 0.82307 0.77945 0.41293 0.0
H1003 H 0.71608 0.79525 0.39091 0.0
H1004 H 0.74202 0.78918 0.4028 0.0
C1005 C 0.83885 0.77799 0.42072 0.0
C1006 C 0.80813 0.79986 0.40295 0.0
H1007 H 0.7798 0.81845 0.4186 0.0
C1008 C 0.79936 0.792 0.38185 0.0
C1009 C 0.80079 0.80918 0.41651 0.0
C1010 C 0.80919 0.81713 0.43961 0.0
C1011 C 0.78368 0.79365 0.37377 0.0
C1012 C 0.77675 0.80356 0.3871 0.0
C1013 C 0.78524 0.81099 0.40837 0.0
C1014 C 0.7608 0.80658 0.37927 0.0
C1015 C 0.77457 0.78466 0.35111 0.0
C1016 C 0.76284 0.81847 0.36221 0.0
C1017 C 0.74808 0.82198 0.35545 0.0
C1018 C 0.73107 0.81368 0.36567 0.0
C1019 C 0.72901 0.80174 0.38269 0.0
C1020 C 0.74381 0.79829 0.3895 0.0
H1021 H 0.77836 0.77341 0.3451 0.0
H1022 H 0.75874 0.77741 0.35042 0.0
H1023 H 0.77969 0.79669 0.34001 0.0
H1024 H 0.77598 0.82532 0.35438 0.0
H1025 H 0.75006 0.83134 0.34237 0.0
H1026 H 0.18672 0.04064 0.39376 0.0
H1027 H 0.18404 0.00906 0.38012 0.0
H1028 H 0.24546 0.03608 0.38908 0.0
H1029 H 0.24825 0.06779 0.40288 0.0
H1030 H 0.19864 0.99934 0.34534 0.0
H1031 H 0.22759 0.98717 0.42275 0.0
H1032 H 0.22068 0.00593 0.421 0.0
H1033 H 0.24312 0.01041 0.41211 0.0
C1034 C 0.19969 0.03995 0.39262 0.0
C1035 C 0.21771 0.05673 0.39947 0.0
C1036 C 0.19813 0.02186 0.38489 0.0
C1037 C 0.21452 0.0201 0.38388 0.0
C1038 C 0.23258 0.03695 0.39017 0.0
H1039 H 0.22233 0.91303 0.35008 0.0
H1040 H 0.23039 0.94795 0.35696 0.0
C1041 C 0.23416 0.05506 0.39802 0.0
C1042 C 0.21251 1.00052 0.37646 0.0
H1043 H 0.21982 0.96327 0.39307 0.0
C1044 C 0.20334 0.99149 0.35575 0.0
C1045 C 0.21869 0.99029 0.39004 0.0
C1046 C 0.22792 0.99881 0.41278 0.0
C1047 C 0.20002 0.97246 0.34833 0.0
C1048 C 0.20583 0.96208 0.36207 0.0
C1049 C 0.21544 0.9713 0.38255 0.0
C1050 C 0.20099 0.94115 0.35613 0.0
C1051 C 0.1903 0.96359 0.32584 0.0
C1052 C 0.18179 0.92577 0.35334 0.0
C1053 C 0.17713 0.90582 0.3495 0.0
C1054 C 0.19158 0.90082 0.34841 0.0
C1055 C 0.21082 0.91633 0.35072 0.0
C1056 C 0.21548 0.9363 0.35471 0.0
H1057 H 0.19158 0.97531 0.31537 0.0
H1058 H 0.19645 0.95511 0.31802 0.0
H1059 H 0.17485 0.9531 0.32691 0.0
H1060 H 0.17039 0.92914 0.35475 0.0
H1061 H 0.16216 0.89431 0.34782 0.0
H1062 H 0.51918 0.60803 0.28637 0.0
H1063 H 0.54754 0.63976 0.30065 0.0
H1064 H 0.51398 0.66895 0.29847 0.0
H1065 H 0.48567 0.6374 0.28431 0.0
H1066 H 0.56505 0.67472 0.28154 0.0
H1067 H 0.54069 0.68745 0.35924 0.0
H1068 H 0.52868 0.66356 0.34322 0.0
H1069 H 0.52403 0.68317 0.33647 0.0
C1070 C 0.51784 0.6212 0.28905 0.0
C1071 C 0.50013 0.62016 0.28436 0.0
C1072 C 0.53403 0.6393 0.29727 0.0
C1073 C 0.53281 0.65666 0.30101 0.0
C1074 C 0.51516 0.65565 0.29632 0.0
H1075 H 0.6077 0.78306 0.32743 0.0
H1076 H 0.58136 0.74875 0.31888 0.0
C1077 C 0.49898 0.63758 0.28819 0.0
C1078 C 0.55016 0.67611 0.30866 0.0
H1079 H 0.56769 0.71585 0.34716 0.0
C1080 C 0.56575 0.6836 0.29606 0.0
C1081 C 0.55106 0.68766 0.32762 0.0
C1082 C 0.5353 0.67997 0.34254 0.0
C1083 C 0.58188 0.70266 0.30143 0.0
C1084 C 0.58248 0.71444 0.31998 0.0
C1085 C 0.56712 0.70679 0.33288 0.0
C1086 C 0.59856 0.73512 0.32571 0.0
C1087 C 0.59788 0.7104 0.28682 0.0
C1088 C 0.61692 0.73878 0.33263 0.0
C1089 C 0.63205 0.75842 0.33763 0.0
C1090 C 0.62908 0.77473 0.33574 0.0
C1091 C 0.61056 0.77091 0.32901 0.0
C1092 C 0.59546 0.7513 0.32415 0.0
H1093 H 0.59383 0.70084 0.27127 0.0
H1094 H 0.60212 0.7259 0.28327 0.0
H1095 H 0.61057 0.71077 0.29514 0.0
H1096 H 0.61953 0.72645 0.33415 0.0
H1097 H 0.6461 0.76079 0.34276 0.0
H1098 H 0.3875 0.90458 0.24585 0.0
H1099 H 0.35803 0.90016 0.25945 0.0
H1100 H 0.3754 0.88946 0.3219 0.0
H1101 H 0.40529 0.89458 0.30865 0.0
H1102 H 0.33025 0.86571 0.27467 0.0
H1103 H 0.35826 0.92949 0.33815 0.0
H1104 H 0.3726 0.92812 0.3176 0.0
H1105 H 0.36885 0.914 0.3407 0.0
C1106 C 0.38531 0.90179 0.26264 0.0
C1107 C 0.39884 0.90003 0.27618 0.0
C1108 C 0.36836 0.8991 0.27034 0.0
C1109 C 0.36459 0.89469 0.29175 0.0
C1110 C 0.37816 0.89321 0.30543 0.0
H1111 H 0.2644 0.8602 0.36238 0.0
H1112 H 0.29608 0.86898 0.35124 0.0
C1113 C 0.39514 0.89592 0.29776 0.0
C1114 C 0.34592 0.89036 0.29924 0.0
H1115 H 0.32521 0.90517 0.33696 0.0
C1116 C 0.32915 0.87442 0.28821 0.0
C1117 C 0.34452 0.90166 0.31699 0.0
C1118 C 0.36199 0.91939 0.32896 0.0
C1119 C 0.31102 0.86929 0.2946 0.0
C1120 C 0.3096 0.88064 0.31228 0.0
C1121 C 0.32636 0.89652 0.3234 0.0
C1122 C 0.29079 0.87622 0.31935 0.0
C1123 C 0.29356 0.85151 0.28263 0.0
C1124 C 0.2775 0.87778 0.30527 0.0
C1125 C 0.25945 0.87277 0.31158 0.0
C1126 C 0.25443 0.86623 0.33213 0.0
C1127 C 0.26791 0.86517 0.34643 0.0
C1128 C 0.28599 0.87019 0.3401 0.0
H1129 H 0.29732 0.84149 0.27333 0.0
H1130 H 0.28303 0.84269 0.29402 0.0
H1131 H 0.28658 0.85686 0.271 0.0
H1132 H 0.28104 0.88274 0.28933 0.0
H1133 H 0.24934 0.87379 0.30027 0.0
H1134 H 0.12602 0.51216 0.32324 0.0
H1135 H 0.13054 0.48518 0.33577 0.0
H1136 H 0.13371 0.4672 0.26989 0.0
H1137 H 0.12912 0.49401 0.25727 0.0
H1138 H 0.11157 0.43511 0.2923 0.0
H1139 H 0.18139 0.48615 0.33972 0.0
H1140 H 0.16201 0.48952 0.34724 0.0
H1141 H 0.17013 0.4949 0.32076 0.0
C1142 C 0.1277 0.50246 0.31144 0.0
C1143 C 0.12726 0.50527 0.28926 0.0
C1144 C 0.13033 0.48708 0.31863 0.0
C1145 C 0.13279 0.47438 0.3038 0.0
C1146 C 0.13187 0.47684 0.28163 0.0
H1147 H 0.18373 0.40113 0.32384 0.0
H1148 H 0.17578 0.4267 0.3153 0.0
C1149 C 0.12916 0.49212 0.27443 0.0
C1150 C 0.13658 0.45865 0.31127 0.0
H1151 H 0.16872 0.45148 0.34186 0.0
C1152 C 0.12403 0.43866 0.30321 0.0
C1153 C 0.15298 0.46336 0.32528 0.0
C1154 C 0.16752 0.48465 0.33363 0.0
C1155 C 0.12744 0.42326 0.30869 0.0
C1156 C 0.14368 0.42794 0.32295 0.0
C1157 C 0.15619 0.44791 0.33109 0.0
C1158 C 0.14848 0.41248 0.32879 0.0
C1159 C 0.11397 0.40224 0.29859 0.0
C1160 C 0.1359 0.3961 0.33953 0.0
C1161 C 0.14037 0.38136 0.3444 0.0
C1162 C 0.15761 0.38283 0.3388 0.0
C1163 C 0.17035 0.3995 0.32846 0.0
C1164 C 0.16583 0.41416 0.32354 0.0
H1165 H 0.10507 0.402 0.28415 0.0
H1166 H 0.12199 0.39471 0.29369 0.0
H1167 H 0.1042 0.39345 0.31061 0.0
H1168 H 0.12261 0.3947 0.34413 0.0
H1169 H 0.13027 0.3688 0.35248 0.0
H1170 H 0.3774 0.53983 0.32244 0.0
H1171 H 0.3504 0.50725 0.32829 0.0
H1172 H 0.3559 0.48226 0.26719 0.0
H1173 H 0.38307 0.51508 0.26118 0.0
H1174 H 0.31794 0.47529 0.27369 0.0
H1175 H 0.34897 0.45502 0.34295 0.0
H1176 H 0.35302 0.48005 0.34647 0.0
H1177 H 0.36355 0.47333 0.32521 0.0
C1178 C 0.37299 0.52734 0.31035 0.0
C1179 C 0.38228 0.52998 0.29132 0.0
C1180 C 0.35766 0.50871 0.31378 0.0
C1181 C 0.35126 0.4923 0.29827 0.0
C1182 C 0.36072 0.49473 0.27942 0.0
H1183 H 0.2425 0.37813 0.29798 0.0
H1184 H 0.27322 0.40404 0.28713 0.0
C1185 C 0.37625 0.51341 0.27605 0.0
C1186 C 0.33387 0.47315 0.30133 0.0
H1187 H 0.31474 0.43788 0.33721 0.0
C1188 C 0.31726 0.46684 0.28732 0.0
C1189 C 0.33307 0.46224 0.31917 0.0
C1190 C 0.35065 0.46787 0.33422 0.0
C1191 C 0.29959 0.45057 0.2914 0.0
C1192 C 0.29865 0.44014 0.30976 0.0
C1193 C 0.31546 0.44595 0.32321 0.0
C1194 C 0.28022 0.42407 0.31618 0.0
C1195 C 0.28193 0.44537 0.2767 0.0
C1196 C 0.27416 0.42651 0.3363 0.0
C1197 C 0.25677 0.4117 0.34257 0.0
C1198 C 0.24513 0.39413 0.32888 0.0
C1199 C 0.25123 0.39156 0.30883 0.0
C1200 C 0.26869 0.4064 0.30256 0.0
H1201 H 0.28439 0.45746 0.26621 0.0
H1202 H 0.27774 0.43158 0.26604 0.0
H1203 H 0.26977 0.44247 0.28628 0.0
H1204 H 0.28283 0.44001 0.34707 0.0
H1205 H 0.25239 0.41405 0.35811 0.0
H1206 H 0.477 0.83437 0.25732 0.0
H1207 H 0.50801 0.83752 0.26696 0.0
H1208 H 0.52683 0.89427 0.30333 0.0
H1209 H 0.49524 0.89057 0.29494 0.0
H1210 H 0.5437 0.86297 0.26058 0.0
H1211 H 0.53648 0.86488 0.34895 0.0
H1212 H 0.51702 0.85943 0.32905 0.0
H1213 H 0.53582 0.88486 0.33632 0.0
C1214 C 0.48763 0.84746 0.26756 0.0
C1215 C 0.4834 0.86198 0.27578 0.0
C1216 C 0.50548 0.84934 0.27287 0.0
C1217 C 0.51965 0.86588 0.28633 0.0
C1218 C 0.51595 0.88107 0.29343 0.0
H1219 H 0.63416 0.87832 0.30708 0.0
H1220 H 0.60808 0.88434 0.29562 0.0
C1221 C 0.49795 0.87908 0.28835 0.0
C1222 C 0.53787 0.86658 0.29341 0.0
H1223 H 0.56503 0.86762 0.33816 0.0
C1224 C 0.54843 0.8641 0.27755 0.0
C1225 C 0.54391 0.86777 0.31557 0.0
C1226 C 0.53265 0.86919 0.33347 0.0
C1227 C 0.56453 0.86228 0.28318 0.0
C1228 C 0.57067 0.86367 0.30534 0.0
C1229 C 0.5604 0.86667 0.32119 0.0
C1230 C 0.58684 0.86066 0.31254 0.0
C1231 C 0.57421 0.85795 0.26529 0.0
C1232 C 0.58382 0.84584 0.32647 0.0
C1233 C 0.59876 0.84271 0.33338 0.0
C1234 C 0.61702 0.85423 0.32638 0.0
C1235 C 0.62015 0.86914 0.31257 0.0
C1236 C 0.60523 0.87248 0.30589 0.0
H1237 H 0.56479 0.85205 0.24984 0.0
H1238 H 0.58728 0.872 0.26239 0.0
H1239 H 0.5785 0.84694 0.26974 0.0
H1240 H 0.56979 0.83654 0.33186 0.0
H1241 H 0.59596 0.8311 0.34402 0.0
H1242 H 0.12796 0.61298 0.31952 0.0
H1243 H 0.12259 0.64147 0.32489 0.0
H1244 H 0.17644 0.67973 0.29982 0.0
H1245 H 0.18164 0.65148 0.29402 0.0
H1246 H 0.14582 0.67668 0.35148 0.0
H1247 H 0.14081 0.69408 0.26708 0.0
H1248 H 0.13818 0.67044 0.27365 0.0
H1249 H 0.16163 0.692 0.27319 0.0
C1250 C 0.13842 0.62739 0.31474 0.0
C1251 C 0.15525 0.63002 0.30641 0.0
C1252 C 0.13539 0.64366 0.31792 0.0
C1253 C 0.149 0.66268 0.3125 0.0
C1254 C 0.16555 0.66514 0.30372 0.0
H1255 H 0.19257 0.78567 0.33635 0.0
H1256 H 0.18429 0.75091 0.32917 0.0
C1257 C 0.1686 0.64901 0.30062 0.0
C1258 C 0.14689 0.68045 0.31737 0.0
H1259 H 0.15061 0.72141 0.29489 0.0
C1260 C 0.14638 0.68623 0.33906 0.0
C1261 C 0.14754 0.69288 0.30115 0.0
C1262 C 0.14686 0.68692 0.27744 0.0
C1263 C 0.14784 0.70476 0.34506 0.0
C1264 C 0.14981 0.71771 0.32899 0.0
C1265 C 0.14923 0.71146 0.3072 0.0
C1266 C 0.15452 0.73859 0.3346 0.0
C1267 C 0.14838 0.71096 0.36865 0.0
C1268 C 0.14048 0.74316 0.34025 0.0
C1269 C 0.14514 0.76315 0.34433 0.0
C1270 C 0.16392 0.77885 0.34285 0.0
C1271 C 0.17796 0.77406 0.33767 0.0
C1272 C 0.17328 0.75417 0.3335 0.0
H1273 H 0.14713 0.69935 0.37928 0.0
H1274 H 0.16199 0.72508 0.37377 0.0
H1275 H 0.13647 0.7139 0.37097 0.0
H1276 H 0.12589 0.73129 0.34109 0.0
H1277 H 0.13396 0.76629 0.34826 0.0
H1278 H 0.85055 0.05628 0.38675 0.0
H1279 H 0.81719 0.02898 0.37934 0.0
H1280 H 0.83168 0.98948 0.41119 0.0
H1281 H 0.8647 0.01662 0.41902 0.0
H1282 H 0.80465 0.99262 0.35494 0.0
H1283 H 0.78336 0.9794 0.43817 0.0
H1284 H 0.80414 1.00206 0.43197 0.0
H1285 H 0.80545 0.97978 0.43518 0.0
C1286 C 0.8465 0.04187 0.39253 0.0
C1287 C 0.86027 0.03858 0.40342 0.0
C1288 C 0.82748 0.02628 0.38819 0.0
C1289 C 0.82188 0.00726 0.39497 0.0
C1290 C 0.83555 0.00411 0.40618 0.0
H1291 H 0.73848 0.88541 0.37624 0.0
H1292 H 0.76522 0.91926 0.38537 0.0
C1293 C 0.85449 0.01959 0.41043 0.0
C1294 C 0.80219 0.99018 0.38913 0.0
H1295 H 0.765 0.95184 0.41073 0.0
C1296 C 0.79575 0.98392 0.36711 0.0
C1297 C 0.79058 0.9789 0.40503 0.0
C1298 C 0.79615 0.9855 0.42891 0.0
C1299 C 0.77861 0.96595 0.3606 0.0
C1300 C 0.7676 0.9541 0.37655 0.0
C1301 C 0.77354 0.9609 0.39854 0.0
C1302 C 0.75096 0.93372 0.37086 0.0
C1303 C 0.77294 0.95916 0.33678 0.0
C1304 C 0.73397 0.93062 0.35974 0.0
C1305 C 0.71851 0.91115 0.35445 0.0
C1306 C 0.71985 0.8945 0.36016 0.0
C1307 C 0.73691 0.8978 0.37142 0.0
C1308 C 0.75224 0.91718 0.37676 0.0
H1309 H 0.78431 0.96878 0.3266 0.0
H1310 H 0.76969 0.94348 0.33352 0.0
H1311 H 0.75979 0.95962 0.33179 0.0
H1312 H 0.73264 0.94323 0.35526 0.0
H1313 H 0.70557 0.90917 0.34585 0.0
H1314 H 0.97532 0.83624 0.38188 0.0
H1315 H 1.00063 0.83009 0.37108 0.0
H1316 H 0.99663 0.79938 0.42821 0.0
H1317 H 0.97094 0.80529 0.43895 0.0
H1318 H 0.03501 0.84511 0.39514 0.0
H1319 H 0.99968 0.76229 0.38121 0.0
H1320 H 0.9863 0.77522 0.38265 0.0
H1321 H 0.9969 0.77172 0.40701 0.0
C1322 C 0.97965 0.82792 0.39199 0.0
C1323 C 0.97128 0.82135 0.41132 0.0
C1324 C 0.99408 0.82439 0.38579 0.0
C1325 C 1.0005 0.81422 0.39878 0.0
C1326 C 0.99168 0.80695 0.41773 0.0
H1327 H 0.10521 0.80796 0.39138 0.0
H1328 H 0.0753 0.80456 0.40307 0.0
C1329 C 0.97706 0.81037 0.42388 0.0
C1330 C 0.01754 0.81301 0.39329 0.0
H1331 H 0.03328 0.7807 0.37922 0.0
C1332 C 0.03459 0.83101 0.39167 0.0
C1333 C 0.01703 0.7946 0.38891 0.0
C1334 C 0.99898 0.77482 0.38984 0.0
C1335 C 0.05105 0.83113 0.38554 0.0
C1336 C 0.05045 0.81277 0.38077 0.0
C1337 C 0.0336 0.79473 0.38286 0.0
C1338 C 0.06716 0.81232 0.37292 0.0
C1339 C 0.06901 0.8509 0.3841 0.0
C1340 C 0.07218 0.81736 0.35196 0.0
C1341 C 0.08915 0.81925 0.34525 0.0
C1342 C 0.1014 0.81618 0.35942 0.0
C1343 C 0.09599 0.81037 0.38012 0.0
C1344 C 0.07894 0.8084 0.38681 0.0
H1345 H 0.06815 0.86365 0.39188 0.0
H1346 H 0.08167 0.85083 0.3919 0.0
H1347 H 0.07128 0.85333 0.36681 0.0
H1348 H 0.06323 0.82041 0.34103 0.0
H1349 H 0.09298 0.82375 0.32921 0.0
H1350 H 0.20892 0.16467 0.41433 0.0
H1351 H 0.21415 0.19816 0.40903 0.0
H1352 H 0.17805 0.17489 0.34873 0.0
H1353 H 0.17348 0.14179 0.35342 0.0
H1354 H 0.20873 0.21159 0.34577 0.0
H1355 H 0.17292 0.21203 0.41949 0.0
H1356 H 0.19375 0.20958 0.42397 0.0
H1357 H 0.17274 0.18996 0.40827 0.0
C1358 C 0.20242 0.1668 0.39976 0.0
C1359 C 0.1905 0.15048 0.3845 0.0
C1360 C 0.20524 0.1859 0.39686 0.0
C1361 C 0.1961 0.18894 0.37873 0.0
C1362 C 0.18511 0.1729 0.36294 0.0
H1363 H 0.15393 0.2685 0.35965 0.0
H1364 H 0.16041 0.24164 0.36647 0.0
C1365 C 0.18237 0.15392 0.36575 0.0
C1366 C 0.19693 0.20838 0.37649 0.0
H1367 H 0.18282 0.23958 0.39906 0.0
C1368 C 0.20326 0.21785 0.35752 0.0
C1369 C 0.18956 0.21639 0.39172 0.0
C1370 C 0.1817 0.20643 0.41193 0.0
C1371 C 0.2019 0.23474 0.35306 0.0
C1372 C 0.19438 0.24264 0.36822 0.0
C1373 C 0.18863 0.23354 0.3875 0.0
C1374 C 0.19085 0.25926 0.36372 0.0
C1375 C 0.20763 0.24334 0.33168 0.0
C1376 C 0.20582 0.27819 0.35991 0.0
C1377 C 0.20212 0.29363 0.35576 0.0
C1378 C 0.18341 0.29047 0.35561 0.0
C1379 C 0.16852 0.27151 0.3596 0.0
C1380 C 0.1722 0.25611 0.36357 0.0
H1381 H 0.20891 0.23284 0.3199 0.0
H1382 H 0.19708 0.24707 0.32439 0.0
H1383 H 0.22175 0.2573 0.33438 0.0
H1384 H 0.22039 0.28112 0.3604 0.0
H1385 H 0.21396 0.3081 0.353 0.0
H1386 H 0.62958 0.50873 0.78223 0.0
H1387 H 0.65899 0.53516 0.76992 0.0
H1388 H 0.63951 0.50821 0.70417 0.0
H1389 H 0.60958 0.48233 0.71614 0.0
H1390 H 0.6862 0.5316 0.75099 0.0
H1391 H 0.65665 0.56565 0.69584 0.0
H1392 H 0.6425 0.54831 0.71457 0.0
H1393 H 0.64642 0.53926 0.68917 0.0
C1394 C 0.63129 0.50867 0.76506 0.0
C1395 C 0.61709 0.49341 0.75017 0.0
C1396 C 0.64823 0.52371 0.75808 0.0
C1397 C 0.65138 0.52386 0.73608 0.0
C1398 C 0.63725 0.50869 0.72116 0.0
H1399 H 0.75054 0.59369 0.66602 0.0
H1400 H 0.71965 0.56841 0.67724 0.0
C1401 C 0.62024 0.49372 0.72809 0.0
C1402 C 0.66986 0.53931 0.72898 0.0
H1403 H 0.68953 0.57555 0.69411 0.0
C1404 C 0.68691 0.54129 0.73866 0.0
C1405 C 0.6708 0.55196 0.71285 0.0
C1406 C 0.65313 0.55136 0.70265 0.0
C1407 C 0.70482 0.55536 0.73247 0.0
C1408 C 0.70572 0.56783 0.71623 0.0
C1409 C 0.68873 0.56587 0.70649 0.0
C1410 C 0.72424 0.58319 0.70938 0.0
C1411 C 0.72268 0.55663 0.74309 0.0
C1412 C 0.73688 0.59993 0.72368 0.0
C1413 C 0.7544 0.6144 0.71728 0.0
C1414 C 0.75959 0.61232 0.69649 0.0
C1415 C 0.74688 0.59561 0.68215 0.0
C1416 C 0.72927 0.58121 0.68851 0.0
H1417 H 0.71937 0.54344 0.75212 0.0
H1418 H 0.73257 0.55782 0.73082 0.0
H1419 H 0.73024 0.57025 0.7547 0.0
H1420 H 0.73316 0.60183 0.73978 0.0
H1421 H 0.76394 0.62716 0.72864 0.0
H1422 H 0.53904 0.16371 0.76183 0.0
H1423 H 0.5109 0.16503 0.7478 0.0
H1424 H 0.47728 0.10063 0.74289 0.0
H1425 H 0.50556 0.09912 0.75643 0.0
H1426 H 0.47145 0.11825 0.70615 0.0
H1427 H 0.46552 0.15333 0.78345 0.0
H1428 H 0.48872 0.16638 0.77359 0.0
H1429 H 0.47994 0.14159 0.78174 0.0
C1430 C 0.52574 0.1498 0.7575 0.0
C1431 C 0.52452 0.1313 0.76029 0.0
C1432 C 0.50963 0.1506 0.7497 0.0
C1433 C 0.49197 0.13295 0.74464 0.0
C1434 C 0.49077 0.11443 0.74686 0.0
H1435 H 0.38267 0.12912 0.72709 0.0
H1436 H 0.40891 0.12349 0.73873 0.0
C1437 C 0.50689 0.1136 0.7547 0.0
C1438 C 0.47475 0.1339 0.73724 0.0
H1439 H 0.446 0.15201 0.75263 0.0
C1440 C 0.46579 0.12553 0.71632 0.0
C1441 C 0.46727 0.14315 0.75068 0.0
C1442 C 0.47572 0.15147 0.7737 0.0
C1443 C 0.44981 0.12664 0.70825 0.0
C1444 C 0.44281 0.13662 0.7214 0.0
C1445 C 0.45149 0.14452 0.74251 0.0
C1446 C 0.42659 0.13918 0.71359 0.0
C1447 C 0.44045 0.11696 0.68585 0.0
C1448 C 0.42787 0.14996 0.69567 0.0
C1449 C 0.41289 0.15315 0.68898 0.0
C1450 C 0.39646 0.14573 0.70021 0.0
C1451 C 0.39517 0.13494 0.71811 0.0
C1452 C 0.41013 0.13173 0.72478 0.0
H1453 H 0.44403 0.1054 0.68042 0.0
H1454 H 0.42464 0.10991 0.68524 0.0
H1455 H 0.44563 0.12854 0.67422 0.0
H1456 H 0.44061 0.15624 0.68711 0.0
H1457 H 0.41427 0.16163 0.6752 0.0
H1458 H 0.91278 0.40259 0.73828 0.0
H1459 H 0.90936 0.37021 0.72608 0.0
H1460 H 0.84792 0.34322 0.72136 0.0
H1461 H 0.85122 0.37544 0.73333 0.0
H1462 H 0.89245 0.33529 0.74486 0.0
H1463 H 0.85556 0.32392 0.66314 0.0
H1464 H 0.86716 0.34777 0.67922 0.0
H1465 H 0.84347 0.32862 0.684 0.0
C1466 C 0.89855 0.38975 0.73453 0.0
C1467 C 0.88227 0.39162 0.73657 0.0
C1468 C 0.89662 0.37128 0.72751 0.0
C1469 C 0.87838 0.35436 0.72238 0.0
C1470 C 0.86213 0.35617 0.72458 0.0
H1471 H 0.82916 0.22725 0.69776 0.0
H1472 H 0.83639 0.2617 0.7058 0.0
C1473 C 0.86405 0.37462 0.73146 0.0
C1474 C 0.87625 0.33456 0.71574 0.0
H1475 H 0.85441 0.295 0.67681 0.0
C1476 C 0.88435 0.32659 0.72985 0.0
C1477 C 0.86571 0.32323 0.69612 0.0
C1478 C 0.85765 0.3314 0.67965 0.0
C1479 C 0.88159 0.30731 0.72522 0.0
C1480 C 0.87055 0.29579 0.70596 0.0
C1481 C 0.86278 0.30388 0.69163 0.0
C1482 C 0.86636 0.27502 0.70075 0.0
C1483 C 0.88996 0.2991 0.74125 0.0
C1484 C 0.88081 0.27116 0.69504 0.0
C1485 C 0.87672 0.25146 0.6903 0.0
C1486 C 0.85811 0.23528 0.69129 0.0
C1487 C 0.84366 0.2393 0.6969 0.0
C1488 C 0.84774 0.25898 0.70147 0.0
H1489 H 0.89576 0.30874 0.75682 0.0
H1490 H 0.87895 0.28382 0.74457 0.0
H1491 H 0.90177 0.298 0.73427 0.0
H1492 H 0.89524 0.28338 0.69423 0.0
H1493 H 0.8882 0.24893 0.68607 0.0
H1494 H 0.18652 0.93651 0.62417 0.0
H1495 H 0.21445 0.96872 0.63818 0.0
H1496 H 0.17986 0.99669 0.63429 0.0
H1497 H 0.15201 0.9647 0.62037 0.0
H1498 H 0.23142 0.00341 0.61829 0.0
H1499 H 0.20619 0.01651 0.69518 0.0
H1500 H 0.1947 0.99239 0.67963 0.0
H1501 H 0.18949 0.01146 0.67217 0.0
C1502 C 0.18487 0.94951 0.62643 0.0
C1503 C 0.167 0.94799 0.62134 0.0
C1504 C 0.20081 0.96788 0.63449 0.0
C1505 C 0.19917 0.98505 0.63767 0.0
C1506 C 0.18136 0.98355 0.63258 0.0
H1507 H 0.27201 0.11207 0.66291 0.0
H1508 H 0.24607 0.0775 0.65478 0.0
C1509 C 0.16543 0.96523 0.6246 0.0
C1510 C 0.21624 0.00478 0.6451 0.0
H1511 H 0.23291 0.04499 0.68283 0.0
C1512 C 0.23187 0.01239 0.63257 0.0
C1513 C 0.21681 0.01649 0.66376 0.0
C1514 C 0.20098 0.00872 0.67858 0.0
C1515 C 0.24772 0.0317 0.63768 0.0
C1516 C 0.248 0.0436 0.65594 0.0
C1517 C 0.23259 0.03584 0.66877 0.0
C1518 C 0.26382 0.06446 0.66148 0.0
C1519 C 0.26373 0.03953 0.62309 0.0
C1520 C 0.28236 0.06857 0.66823 0.0
C1521 C 0.29727 0.08835 0.67297 0.0
C1522 C 0.29388 0.10439 0.67102 0.0
C1523 C 0.27519 0.10014 0.66453 0.0
C1524 C 0.26031 0.08037 0.6599 0.0
H1525 H 0.25973 0.02993 0.60757 0.0
H1526 H 0.26787 0.05498 0.61947 0.0
H1527 H 0.27645 0.03999 0.63144 0.0
H1528 H 0.2853 0.05647 0.6698 0.0
H1529 H 0.31146 0.09105 0.67795 0.0
H1530 H 0.06608 0.2421 0.59734 0.0
H1531 H 0.03756 0.24051 0.61095 0.0
H1532 H 0.00967 0.17612 0.60639 0.0
H1533 H 0.03772 0.17751 0.59204 0.0
H1534 H 0.98655 0.1895 0.58939 0.0
H1535 H 0.01981 0.22794 0.67133 0.0
H1536 H 0.03172 0.24186 0.64936 0.0
H1537 H 0.03124 0.21883 0.65352 0.0
C1538 C 0.05383 0.2276 0.59913 0.0
C1539 C 0.05425 0.20994 0.59376 0.0
C1540 C 0.03763 0.22673 0.60714 0.0
C1541 C 0.02162 0.20821 0.61003 0.0
C1542 C 0.02193 0.19058 0.60446 0.0
H1543 H 0.92539 0.18089 0.68378 0.0
H1544 H 0.95505 0.18586 0.66984 0.0
C1545 C 0.03805 0.19142 0.59643 0.0
C1546 C 0.00427 0.20699 0.61832 0.0
H1547 H 0.98784 0.22004 0.66221 0.0
C1548 C 0.98682 0.1962 0.6053 0.0
C1549 C 0.00465 0.21557 0.63918 0.0
C1550 C 0.0228 0.22655 0.65428 0.0
C1551 C 0.96972 0.1937 0.61255 0.0
C1552 C 0.97013 0.20259 0.63324 0.0
C1553 C 0.98758 0.21338 0.64628 0.0
C1554 C 0.95249 0.20025 0.64193 0.0
C1555 C 0.95131 0.18115 0.59816 0.0
C1556 C 0.94138 0.20698 0.63105 0.0
C1557 C 0.92439 0.20403 0.6389 0.0
C1558 C 0.91837 0.19452 0.65791 0.0
C1559 C 0.92972 0.18824 0.66908 0.0
C1560 C 0.94666 0.1911 0.66116 0.0
H1561 H 0.95266 0.17124 0.58564 0.0
H1562 H 0.93935 0.17175 0.60778 0.0
H1563 H 0.94757 0.19118 0.5897 0.0
H1564 H 0.94581 0.21446 0.61645 0.0
H1565 H 0.91593 0.20909 0.63004 0.0
H1566 H 0.82598 0.85637 0.62726 0.0
H1567 H 0.82841 0.82837 0.64003 0.0
H1568 H 0.76685 0.79263 0.63599 0.0
H1569 H 0.7643 0.82067 0.62298 0.0
H1570 H 0.81597 0.80854 0.6761 0.0
H1571 H 0.7806 0.75621 0.60171 0.0
H1572 H 0.78819 0.78247 0.60239 0.0
H1573 H 0.76652 0.76553 0.61365 0.0
C1574 C 0.81294 0.8426 0.62922 0.0
C1575 C 0.79493 0.84076 0.62412 0.0
C1576 C 0.81436 0.82658 0.63645 0.0
C1577 C 0.79783 0.8083 0.63873 0.0
C1578 C 0.7798 0.80644 0.63391 0.0
H1579 H 0.79041 0.69737 0.67801 0.0
H1580 H 0.78236 0.72321 0.6704 0.0
C1581 C 0.77836 0.82247 0.62653 0.0
C1582 C 0.7997 0.79141 0.6463 0.0
H1583 H 0.7901 0.74397 0.63108 0.0
C1584 C 0.81024 0.79439 0.66629 0.0
C1585 C 0.79217 0.77291 0.63352 0.0
C1586 C 0.78137 0.76906 0.61154 0.0
C1587 C 0.81368 0.77954 0.67368 0.0
C1588 C 0.80653 0.76127 0.66068 0.0
C1589 C 0.79551 0.758 0.64102 0.0
C1590 C 0.81144 0.74592 0.6665 0.0
C1591 C 0.82503 0.78353 0.6953 0.0
C1592 C 0.83043 0.75013 0.66679 0.0
C1593 C 0.83507 0.73543 0.67101 0.0
C1594 C 0.8208 0.71616 0.67507 0.0
C1595 C 0.80179 0.71207 0.6751 0.0
C1596 C 0.79714 0.72679 0.67069 0.0
H1597 H 0.82526 0.79583 0.70564 0.0
H1598 H 0.81904 0.76988 0.70413 0.0
H1599 H 0.84002 0.78796 0.69264 0.0
H1600 H 0.84164 0.76471 0.66328 0.0
H1601 H 0.84985 0.73913 0.6708 0.0
H1602 H 0.02622 0.85831 0.60107 0.0
H1603 H 0.99975 0.82619 0.60921 0.0
H1604 H 0.03858 0.81774 0.6518 0.0
H1605 H 0.06521 0.85011 0.64389 0.0
H1606 H 0.9948 0.78592 0.60583 0.0
H1607 H 0.99685 0.81579 0.69022 0.0
H1608 H 0.00853 0.83199 0.66946 0.0
H1609 H 0.0188 0.81852 0.68153 0.0
C1610 C 0.02915 0.84955 0.61208 0.0
C1611 C 0.04774 0.85681 0.62203 0.0
C1612 C 0.01404 0.83117 0.61662 0.0
C1613 C 0.01718 0.81974 0.63131 0.0
C1614 C 0.03585 0.82648 0.64059 0.0
H1615 H 0.92582 0.71895 0.68958 0.0
H1616 H 0.95769 0.74355 0.68002 0.0
C1617 C 0.05105 0.84487 0.63594 0.0
C1618 C 1.0006 0.80136 0.63763 0.0
H1619 H 0.97213 0.78319 0.67882 0.0
C1620 C 0.98994 0.78519 0.62185 0.0
C1621 C 0.99435 0.80045 0.65857 0.0
C1622 C 0.00509 0.8176 0.67597 0.0
C1623 C 0.97294 0.76827 0.62633 0.0
C1624 C 0.9662 0.76775 0.64698 0.0
C1625 C 0.97728 0.7836 0.663 0.0
C1626 C 0.94707 0.7517 0.65185 0.0
C1627 C 0.96236 0.75116 0.60886 0.0
C1628 C 0.93053 0.74816 0.63926 0.0
C1629 C 0.91241 0.73411 0.64462 0.0
C1630 C 0.91045 0.72351 0.66287 0.0
C1631 C 0.92696 0.7269 0.67541 0.0
C1632 C 0.94514 0.74094 0.66997 0.0
H1633 H 0.97225 0.75066 0.59746 0.0
H1634 H 0.95487 0.73656 0.61584 0.0
H1635 H 0.95157 0.75327 0.59937 0.0
H1636 H 0.93158 0.75664 0.62557 0.0
H1637 H 0.8999 0.73185 0.63472 0.0
H1638 H 0.15409 0.1961 0.58119 0.0
H1639 H 0.18671 0.20281 0.59122 0.0
H1640 H 0.16718 0.1687 0.64629 0.0
H1641 H 0.13476 0.16219 0.63659 0.0
H1642 H 0.20309 0.20664 0.6545 0.0
H1643 H 0.20129 0.15813 0.58371 0.0
H1644 H 0.19558 0.17727 0.57833 0.0
H1645 H 0.17981 0.15665 0.59263 0.0
C1646 C 0.15684 0.19026 0.59558 0.0
C1647 C 0.14185 0.17844 0.60798 0.0
C1648 C 0.17541 0.19398 0.60119 0.0
C1649 C 0.17925 0.18601 0.61932 0.0
C1650 C 0.16447 0.17487 0.63216 0.0
H1651 H 0.26444 0.17036 0.68768 0.0
H1652 H 0.23751 0.17453 0.67535 0.0
C1653 C 0.14595 0.17107 0.62653 0.0
C1654 C 0.19845 0.18856 0.62475 0.0
H1655 H 0.22845 0.17223 0.60888 0.0
C1656 C 0.20876 0.19931 0.64443 0.0
C1657 C 0.20581 0.17905 0.61152 0.0
C1658 C 0.19507 0.167 0.59041 0.0
C1659 C 0.2261 0.20045 0.65149 0.0
C1660 C 0.23303 0.19015 0.63875 0.0
C1661 C 0.22308 0.18006 0.61865 0.0
C1662 C 0.24982 0.18851 0.64658 0.0
C1663 C 0.23677 0.2126 0.67257 0.0
C1664 C 0.2655 0.19452 0.63425 0.0
C1665 C 0.28084 0.19197 0.64119 0.0
C1666 C 0.28066 0.18326 0.66051 0.0
C1667 C 0.26499 0.17726 0.67282 0.0
C1668 C 0.24967 0.17978 0.66587 0.0
H1669 H 0.23325 0.2245 0.67651 0.0
H1670 H 0.23252 0.20265 0.68588 0.0
H1671 H 0.25249 0.21966 0.67205 0.0
H1672 H 0.26581 0.20111 0.61921 0.0
H1673 H 0.29272 0.19661 0.63134 0.0
H1674 H 0.84191 0.97695 0.67386 0.0
H1675 H 0.83714 0.00555 0.67856 0.0
H1676 H 0.80095 0.98586 0.61831 0.0
H1677 H 0.80639 0.95753 0.61299 0.0
H1678 H 0.82727 0.02447 0.61988 0.0
H1679 H 0.79336 0.01158 0.69651 0.0
H1680 H 0.81515 0.01087 0.69962 0.0
H1681 H 0.79543 0.99237 0.6812 0.0
C1682 C 0.83286 0.97862 0.66161 0.0
C1683 C 0.82466 0.96501 0.64295 0.0
C1684 C 0.82991 0.99485 0.6645 0.0
C1685 C 0.81843 0.99773 0.64898 0.0
C1686 C 0.80975 0.98387 0.6306 0.0
H1687 H 0.80166 0.10073 0.67529 0.0
H1688 H 0.79508 0.06639 0.66747 0.0
C1689 C 0.81277 0.96761 0.62764 0.0
C1690 C 0.81707 0.0162 0.65112 0.0
H1691 H 0.80955 0.04586 0.68726 0.0
C1692 C 0.82307 0.02898 0.63447 0.0
C1693 C 0.81128 0.022 0.66996 0.0
C1694 C 0.80324 0.00835 0.68771 0.0
C1695 C 0.82448 0.04782 0.63666 0.0
C1696 C 0.82023 0.0543 0.65626 0.0
C1697 C 0.81315 0.04107 0.67239 0.0
C1698 C 0.82402 0.07507 0.66077 0.0
C1699 C 0.83066 0.06065 0.61798 0.0
C1700 C 0.84254 0.09134 0.66 0.0
C1701 C 0.84632 0.11093 0.66434 0.0
C1702 C 0.83173 0.11471 0.66988 0.0
C1703 C 0.81324 0.09837 0.67107 0.0
C1704 C 0.80944 0.07873 0.66658 0.0
H1705 H 0.82702 0.05136 0.60229 0.0
H1706 H 0.82385 0.07003 0.61713 0.0
H1707 H 0.84642 0.07066 0.62012 0.0
H1708 H 0.85416 0.0889 0.65619 0.0
H1709 H 0.86077 0.12309 0.66346 0.0
H1710 H 0.52768 0.35872 0.69955 0.0
H1711 H 0.49467 0.33154 0.6925 0.0
H1712 H 0.48009 0.3527 0.75002 0.0
H1713 H 0.51349 0.37962 0.7577 0.0
H1714 H 0.46744 0.31357 0.74897 0.0
H1715 H 0.44594 0.32864 0.66949 0.0
H1716 H 0.46779 0.32811 0.66873 0.0
H1717 H 0.46715 0.34707 0.68622 0.0
C1718 C 0.51746 0.35769 0.71068 0.0
C1719 C 0.52329 0.37127 0.72931 0.0
C1720 C 0.49848 0.34228 0.70644 0.0
C1721 C 0.48477 0.34022 0.72052 0.0
C1722 C 0.49038 0.35409 0.73881 0.0
H1723 H 0.3671 0.2394 0.68592 0.0
H1724 H 0.39386 0.2736 0.69536 0.0
C1725 C 0.50945 0.36953 0.74312 0.0
C1726 C 0.46517 0.32244 0.71714 0.0
H1727 H 0.42823 0.29418 0.6782 0.0
C1728 C 0.45871 0.30953 0.73363 0.0
C1729 C 0.45355 0.31726 0.69729 0.0
C1730 C 0.45889 0.33114 0.67954 0.0
C1731 C 0.44159 0.29106 0.73033 0.0
C1732 C 0.43085 0.28512 0.70981 0.0
C1733 C 0.43663 0.29857 0.6938 0.0
C1734 C 0.41446 0.26452 0.70421 0.0
C1735 C 0.43534 0.27796 0.74879 0.0
C1736 C 0.41725 0.24811 0.70561 0.0
C1737 C 0.40207 0.22865 0.7003 0.0
C1738 C 0.38373 0.2251 0.6932 0.0
C1739 C 0.38102 0.24158 0.69136 0.0
C1740 C 0.39628 0.26113 0.69677 0.0
H1741 H 0.44101 0.28701 0.76472 0.0
H1742 H 0.41949 0.26896 0.7482 0.0
H1743 H 0.44104 0.26756 0.74772 0.0
H1744 H 0.43126 0.25036 0.7107 0.0
H1745 H 0.40481 0.2164 0.70176 0.0
H1746 H 0.62337 0.13316 0.73999 0.0
H1747 H 0.6485 0.12571 0.73181 0.0
H1748 H 0.69137 0.18426 0.76095 0.0
H1749 H 0.66642 0.19128 0.77045 0.0
H1750 H 0.67488 0.14296 0.70571 0.0
H1751 H 0.71174 0.15188 0.78635 0.0
H1752 H 0.68872 0.15029 0.78297 0.0
H1753 H 0.71045 0.17388 0.78209 0.0
C1754 C 0.63811 0.14423 0.74524 0.0
C1755 C 0.64283 0.16286 0.75584 0.0
C1756 C 0.65249 0.14 0.74039 0.0
C1757 C 0.67186 0.1543 0.74603 0.0
C1758 C 0.67656 0.17275 0.75692 0.0
H1759 H 0.76875 0.17672 0.67921 0.0
H1760 H 0.73912 0.17265 0.69194 0.0
C1761 C 0.66223 0.17689 0.76199 0.0
C1762 C 0.68726 0.15079 0.7389 0.0
H1763 H 0.73074 0.15664 0.75599 0.0
C1764 C 0.68693 0.1456 0.71679 0.0
C1765 C 0.70284 0.15378 0.75334 0.0
C1766 C 0.70333 0.15753 0.77753 0.0
C1767 C 0.70219 0.14444 0.70858 0.0
C1768 C 0.71855 0.14929 0.72273 0.0
C1769 C 0.7184 0.15332 0.74502 0.0
C1770 C 0.73629 0.15125 0.71465 0.0
C1771 C 0.70057 0.13809 0.68479 0.0
C1772 C 0.74501 0.14116 0.7237 0.0
C1773 C 0.76222 0.14384 0.71674 0.0
C1774 C 0.77092 0.15657 0.70056 0.0
C1775 C 0.7622 0.16663 0.69152 0.0
C1776 C 0.74517 0.16416 0.69866 0.0
H1777 H 0.68538 0.12816 0.67832 0.0
H1778 H 0.7065 0.15153 0.67566 0.0
H1779 H 0.70855 0.13011 0.68173 0.0
H1780 H 0.73854 0.13126 0.73619 0.0
H1781 H 0.76873 0.13599 0.72404 0.0
H1782 H 0.87334 0.49975 0.747 0.0
H1783 H 0.87843 0.53302 0.74065 0.0
H1784 H 0.84378 0.50881 0.6795 0.0
H1785 H 0.83917 0.47583 0.68538 0.0
H1786 H 0.87554 0.54658 0.67761 0.0
H1787 H 0.83484 0.54475 0.74761 0.0
H1788 H 0.85558 0.54242 0.75361 0.0
H1789 H 0.83538 0.523 0.73668 0.0
C1790 C 0.86715 0.50163 0.73201 0.0
C1791 C 0.85559 0.4851 0.71685 0.0
C1792 C 0.86992 0.5206 0.7285 0.0
C1793 C 0.86115 0.52329 0.7098 0.0
C1794 C 0.85057 0.50706 0.6941 0.0
H1795 H 0.81747 0.60026 0.68389 0.0
H1796 H 0.82434 0.57367 0.69067 0.0
C1797 C 0.84782 0.48818 0.69758 0.0
C1798 C 0.86169 0.54249 0.70702 0.0
H1799 H 0.84506 0.57229 0.72714 0.0
C1800 C 0.8691 0.55238 0.68857 0.0
C1801 C 0.85305 0.54986 0.72121 0.0
C1802 C 0.84411 0.53943 0.74081 0.0
C1803 C 0.86768 0.56914 0.68363 0.0
C1804 C 0.85881 0.57631 0.69768 0.0
C1805 C 0.85191 0.56678 0.71644 0.0
C1806 C 0.8551 0.59264 0.69246 0.0
C1807 C 0.87487 0.57846 0.66294 0.0
C1808 C 0.87014 0.61218 0.69103 0.0
C1809 C 0.86626 0.62753 0.68704 0.0
C1810 C 0.84726 0.6236 0.68457 0.0
C1811 C 0.83228 0.60391 0.68574 0.0
C1812 C 0.83617 0.58865 0.68966 0.0
H1813 H 0.87792 0.56883 0.6519 0.0
H1814 H 0.86426 0.58139 0.65426 0.0
H1815 H 0.88832 0.593 0.6669 0.0
H1816 H 0.88488 0.61567 0.69348 0.0
H1817 H 0.87816 0.64252 0.6864 0.0
H1818 H 0.42347 0.924 0.20992 0.0
H1819 H 0.43798 0.94505 0.18081 0.0
H1820 H 0.49389 0.95851 0.20758 0.0
H1821 H 0.4794 0.93725 0.23683 0.0
H1822 H 0.46521 0.9851 0.18049 0.0
H1823 H 0.49075 0.93581 0.14583 0.0
H1824 H 0.4742 0.92833 0.16635 0.0
H1825 H 0.49928 0.94541 0.17363 0.0
C1826 C 0.43889 0.93163 0.20981 0.0
C1827 C 0.4503 0.92892 0.22568 0.0
C1828 C 0.44716 0.94365 0.19312 0.0
C1829 C 0.46699 0.95318 0.19187 0.0
C1830 C 0.47852 0.95099 0.20801 0.0
H1831 H 0.52118 0.03523 0.09085 0.0
H1832 H 0.5125 0.02311 0.12667 0.0
C1833 C 0.47023 0.93886 0.2247 0.0
C1834 C 0.47527 0.96463 0.17308 0.0
H1835 H 0.49734 0.96422 0.12797 0.0
C1836 C 0.4724 0.98069 0.16908 0.0
C1837 C 0.4845 0.9587 0.15815 0.0
C1838 C 0.48726 0.94103 0.16102 0.0
C1839 C 0.4781 0.99067 0.15026 0.0
C1840 C 0.48712 0.98457 0.13525 0.0
C1841 C 0.49048 0.96891 0.13958 0.0
C1842 C 0.49159 0.9928 0.11395 0.0
C1843 C 0.47367 0.00703 0.1461 0.0
C1844 C 0.48272 0.97984 0.09502 0.0
C1845 C 0.48774 0.98664 0.07477 0.0
C1846 C 0.50169 0.00661 0.07293 0.0
C1847 C 0.51025 0.01981 0.09182 0.0
C1848 C 0.50527 0.01292 0.11224 0.0
H1849 H 0.46366 0.0075 0.15733 0.0
H1850 H 0.48714 0.0217 0.14835 0.0
H1851 H 0.46731 0.00495 0.12918 0.0
H1852 H 0.47216 0.96426 0.09594 0.0
H1853 H 0.48113 0.97599 0.06058 0.0
H1854 H 0.09133 0.55226 0.24417 0.0
H1855 H 0.07208 0.54691 0.20989 0.0
H1856 H 0.09133 0.50821 0.18304 0.0
H1857 H 0.11084 0.51374 0.21703 0.0
H1858 H 0.09293 0.53726 0.15544 0.0
H1859 H 0.02201 0.49436 0.18734 0.0
H1860 H 0.0383 0.51803 0.2023 0.0
H1861 H 0.04387 0.49828 0.20155 0.0
C1862 C 0.09152 0.54269 0.23092 0.0
C1863 C 0.10247 0.53329 0.23337 0.0
C1864 C 0.0804 0.53952 0.21143 0.0
C1865 C 0.08008 0.52694 0.19406 0.0
C1866 C 0.09127 0.51785 0.19631 0.0
H1867 H 0.00623 0.47855 0.0727 0.0
H1868 H 0.02548 0.483 0.10683 0.0
C1869 C 0.1023 0.52093 0.21579 0.0
C1870 C 0.06823 0.52336 0.17342 0.0
H1871 H 0.02202 0.50311 0.15129 0.0
C1872 C 0.07743 0.52978 0.15451 0.0
C1873 C 0.04801 0.51337 0.17224 0.0
C1874 C 0.03738 0.50543 0.19187 0.0
C1875 C 0.06692 0.52684 0.13453 0.0
C1876 C 0.04676 0.51728 0.1335 0.0
C1877 C 0.03752 0.51053 0.15226 0.0
C1878 C 0.03508 0.5145 0.11305 0.0
C1879 C 0.07733 0.53388 0.11458 0.0
C1880 C 0.03406 0.53071 0.10549 0.0
C1881 C 0.02305 0.52818 0.08616 0.0
C1882 C 0.01305 0.50944 0.07402 0.0
C1883 C 0.01397 0.49318 0.0817 0.0
C1884 C 0.02487 0.49568 0.10115 0.0
H1885 H 0.09278 0.53882 0.11754 0.0
H1886 H 0.07077 0.52172 0.10113 0.0
H1887 H 0.07597 0.54662 0.10925 0.0
H1888 H 0.04179 0.54531 0.11455 0.0
H1889 H 0.02261 0.54097 0.08055 0.0
H1890 H 0.49677 0.56348 0.24127 0.0
H1891 H 0.50263 0.55025 0.20775 0.0
H1892 H 0.45047 0.54306 0.17613 0.0
H1893 H 0.44499 0.55723 0.20922 0.0
H1894 H 0.48283 0.51514 0.18156 0.0
H1895 H 0.48995 0.57868 0.13742 0.0
H1896 H 0.48906 0.57859 0.16637 0.0
H1897 H 0.46739 0.56491 0.14846 0.0
C1898 C 0.48655 0.55912 0.22717 0.0
C1899 C 0.47056 0.56173 0.22788 0.0
C1900 C 0.48985 0.55142 0.20807 0.0
C1901 C 0.47723 0.54611 0.1893 0.0
C1902 C 0.46065 0.54753 0.19028 0.0
H1903 H 0.4838 0.51004 0.05632 0.0
H1904 H 0.47244 0.51548 0.09029 0.0
C1905 C 0.4574 0.55538 0.20934 0.0
C1906 C 0.4819 0.53991 0.16854 0.0
H1907 H 0.49138 0.55287 0.11705 0.0
C1908 C 0.48468 0.52337 0.16744 0.0
C1909 C 0.48443 0.55075 0.15016 0.0
C1910 C 0.48274 0.56933 0.15064 0.0
C1911 C 0.48979 0.51731 0.14842 0.0
C1912 C 0.4923 0.52816 0.13012 0.0
C1913 C 0.48933 0.54454 0.13111 0.0
C1914 C 0.49854 0.52318 0.10991 0.0
C1915 C 0.49233 0.49928 0.14795 0.0
C1916 C 0.51698 0.52579 0.10963 0.0
C1917 C 0.52334 0.52247 0.09019 0.0
C1918 C 0.51129 0.51628 0.07079 0.0
C1919 C 0.4929 0.51372 0.07113 0.0
C1920 C 0.48657 0.51717 0.0905 0.0
H1921 H 0.48579 0.49001 0.16145 0.0
H1922 H 0.48589 0.48982 0.13234 0.0
H1923 H 0.50784 0.50434 0.14949 0.0
H1924 H 0.52661 0.53086 0.12435 0.0
H1925 H 0.53772 0.52486 0.09029 0.0
H1926 H 0.9343 0.44807 0.78306 0.0
H1927 H 0.95253 0.46098 0.8186 0.0
H1928 H 0.90783 0.46975 0.84202 0.0
H1929 H 0.8891 0.45602 0.80681 0.0
H1930 H 0.96679 0.49638 0.84505 0.0
H1931 H 0.91094 0.43205 0.88321 0.0
H1932 H 0.91098 0.43278 0.85424 0.0
H1933 H 0.90268 0.44671 0.8698 0.0
C1934 C 0.92834 0.45277 0.79576 0.0
C1935 C 0.9101 0.45071 0.79215 0.0
C1936 C 0.93885 0.4603 0.81602 0.0
C1937 C 0.93137 0.46596 0.83308 0.0
C1938 C 0.91371 0.4651 0.82919 0.0
H1939 H 0.99796 0.51828 0.96053 0.0
H1940 H 0.97995 0.51406 0.92554 0.0
C1941 C 0.90312 0.45746 0.80895 0.0
C1942 C 0.94156 0.4715 0.85518 0.0
H1943 H 0.93775 0.45605 0.90607 0.0
C1944 C 0.96042 0.48768 0.85846 0.0
C1945 C 0.93328 0.45996 0.87258 0.0
C1946 C 0.91343 0.4418 0.86984 0.0
C1947 C 0.97131 0.49244 0.87859 0.0
C1948 C 0.963 0.48087 0.89595 0.0
C1949 C 0.94403 0.46496 0.89277 0.0
C1950 C 0.97409 0.48391 0.91705 0.0
C1951 C 0.99185 0.50925 0.88085 0.0
C1952 C 0.97649 0.46828 0.92404 0.0
C1953 C 0.98646 0.47056 0.94404 0.0
C1954 C 0.99416 0.48848 0.95753 0.0
C1955 C 0.99196 0.50423 0.9505 0.0
C1956 C 0.98187 0.50191 0.93046 0.0
H1957 H 0.99723 0.51384 0.86486 0.0
H1958 H 0.99293 0.52243 0.89026 0.0
H1959 H 1.00127 0.50483 0.88969 0.0
H1960 H 0.97061 0.45427 0.91397 0.0
H1961 H 0.98794 0.45817 0.94904 0.0
H1962 H 0.56638 0.49477 0.79026 0.0
H1963 H 0.55425 0.5024 0.82258 0.0
H1964 H 0.55171 0.45152 0.85074 0.0
H1965 H 0.5642 0.44405 0.81876 0.0
H1966 H 0.51966 0.47806 0.84077 0.0
H1967 H 0.58314 0.49831 0.898 0.0
H1968 H 0.5837 0.49675 0.86895 0.0
H1969 H 0.57345 0.47437 0.88273 0.0
C1970 C 0.56333 0.48528 0.8034 0.0
C1971 C 0.5663 0.46884 0.80197 0.0
C1972 C 0.55635 0.48961 0.82179 0.0
C1973 C 0.55238 0.47771 0.83917 0.0
C1974 C 0.555 0.46109 0.83765 0.0
H1975 H 0.48365 0.46544 0.94463 0.0
H1976 H 0.49706 0.46169 0.9115 0.0
C1977 C 0.56191 0.45671 0.81925 0.0
C1978 C 0.54519 0.48243 0.85877 0.0
H1979 H 0.55528 0.49411 0.91353 0.0
C1980 C 0.52749 0.48168 0.85666 0.0
C1981 C 0.55557 0.48745 0.87943 0.0
C1982 C 0.57511 0.48947 0.88248 0.0
C1983 C 0.51959 0.48521 0.87479 0.0
C1984 C 0.52958 0.48935 0.89557 0.0
C1985 C 0.54757 0.49073 0.8976 0.0
C1986 C 0.52138 0.49181 0.91547 0.0
C1987 C 0.50066 0.48455 0.87153 0.0
C1988 C 0.53077 0.50988 0.92887 0.0
C1989 C 0.5231 0.51204 0.9478 0.0
C1990 C 0.50612 0.49606 0.95376 0.0
C1991 C 0.49674 0.47801 0.94033 0.0
C1992 C 0.50435 0.47587 0.9214 0.0
H1993 H 0.49749 0.48662 0.85453 0.0
H1994 H 0.48906 0.46976 0.8753 0.0
H1995 H 0.50048 0.49627 0.88247 0.0
H1996 H 0.54393 0.52235 0.92457 0.0
H1997 H 0.53033 0.52625 0.95762 0.0
H1998 H 0.5778 0.12812 0.83452 0.0
H1999 H 0.57188 0.10815 0.86542 0.0
H2000 H 0.52147 0.05958 0.82929 0.0
H2001 H 0.52773 0.07908 0.79808 0.0
H2002 H 0.54119 0.09522 0.88791 0.0
H2003 H 0.54568 0.02995 0.85541 0.0
H2004 H 0.55458 0.05259 0.84192 0.0
H2005 H 0.52951 0.034 0.83838 0.0
C2006 C 0.56577 0.11297 0.83293 0.0
C2007 C 0.55323 0.10519 0.81382 0.0
C2008 C 0.56233 0.10163 0.85067 0.0
C2009 C 0.54636 0.08228 0.8496 0.0
C2010 C 0.53411 0.0743 0.83036 0.0
H2011 H 0.47859 0.01956 0.94975 0.0
H2012 H 0.49348 0.03973 0.92002 0.0
C2013 C 0.53757 0.08558 0.81261 0.0
C2014 C 0.54145 0.07112 0.86915 0.0
H2015 H 0.52852 0.02554 0.88708 0.0
C2016 C 0.53869 0.08009 0.88782 0.0
C2017 C 0.53845 0.05149 0.86919 0.0
C2018 C 0.54241 0.04153 0.85022 0.0
C2019 C 0.53216 0.06962 0.90612 0.0
C2020 C 0.52788 0.04952 0.90556 0.0
C2021 C 0.53153 0.04086 0.88734 0.0
C2022 C 0.51884 0.037 0.92335 0.0
C2023 C 0.5298 0.08017 0.92585 0.0
C2024 C 0.52785 0.02819 0.93458 0.0
C2025 C 0.51922 0.01644 0.9514 0.0
C2026 C 0.50151 0.01339 0.95723 0.0
C2027 C 0.49232 0.0218 0.94564 0.0
C2028 C 0.50089 0.03347 0.92882 0.0
H2029 H 0.53898 0.09668 0.92623 0.0
H2030 H 0.51469 0.07661 0.92544 0.0
H2031 H 0.53339 0.07526 0.94102 0.0
H2032 H 0.54162 0.03056 0.93046 0.0
H2033 H 0.52641 0.00979 0.95987 0.0
H2034 H 0.10722 0.214 0.52303 0.0
H2035 H 0.12194 0.2354 0.49409 0.0
H2036 H 0.1218 0.28447 0.53018 0.0
H2037 H 0.10741 0.26328 0.55943 0.0
H2038 H 0.10684 0.25576 0.46981 0.0
H2039 H 0.17775 0.30794 0.51468 0.0
H2040 H 0.1614 0.28391 0.5236 0.0
H2041 H 0.15731 0.30454 0.52798 0.0
C2042 C 0.11058 0.22943 0.52497 0.0
C2043 C 0.10627 0.23699 0.54359 0.0
C2044 C 0.11885 0.24158 0.50835 0.0
C2045 C 0.1231 0.26154 0.5101 0.0
C2046 C 0.11884 0.26917 0.52865 0.0
H2047 H 0.14988 0.33825 0.40371 0.0
H2048 H 0.135 0.31859 0.43396 0.0
C2049 C 0.1105 0.257 0.54526 0.0
C2050 C 0.13165 0.27423 0.49228 0.0
H2051 H 0.17192 0.3156 0.47971 0.0
C2052 C 0.12106 0.26885 0.47193 0.0
C2053 C 0.15024 0.2912 0.49512 0.0
C2054 C 0.16246 0.29723 0.51645 0.0
C2055 C 0.12858 0.28006 0.4543 0.0
C2056 C 0.14709 0.29721 0.45722 0.0
C2057 C 0.15768 0.30253 0.47757 0.0
C2058 C 0.15607 0.3094 0.43916 0.0
C2059 C 0.11672 0.27324 0.43267 0.0
C2060 C 0.17308 0.31118 0.43246 0.0
C2061 C 0.18151 0.32231 0.41522 0.0
C2062 C 0.17305 0.33185 0.40438 0.0
C2063 C 0.15635 0.33057 0.41147 0.0
C2064 C 0.14789 0.3194 0.42873 0.0
H2065 H 0.10537 0.25724 0.43166 0.0
H2066 H 0.10963 0.28223 0.43053 0.0
H2067 H 0.12576 0.27541 0.41913 0.0
H2068 H 0.17968 0.30367 0.44037 0.0
H2069 H 0.19441 0.32308 0.41006 0.0
H2070 H 0.79071 0.8923 0.55388 0.0
H2071 H 0.77074 0.8866 0.52029 0.0
H2072 H 0.72292 0.83757 0.54578 0.0
H2073 H 0.74296 0.84306 0.57943 0.0
H2074 H 0.7268 0.82777 0.50475 0.0
H2075 H 0.72954 0.90076 0.50922 0.0
H2076 H 0.75293 0.90349 0.511 0.0
H2077 H 0.73746 0.89228 0.53198 0.0
C2078 C 0.77586 0.88049 0.55247 0.0
C2079 C 0.76836 0.86824 0.56939 0.0
C2080 C 0.76445 0.87727 0.53326 0.0
C2081 C 0.74521 0.86191 0.53065 0.0
C2082 C 0.73769 0.84958 0.54748 0.0
H2083 H 0.66578 0.85339 0.42375 0.0
H2084 H 0.68189 0.85668 0.45964 0.0
C2085 C 0.74915 0.85271 0.56666 0.0
C2086 C 0.7332 0.85829 0.51006 0.0
H2087 H 0.71809 0.88119 0.47497 0.0
C2088 C 0.72476 0.83939 0.49832 0.0
C2089 C 0.73028 0.87336 0.50181 0.0
C2090 C 0.73786 0.89354 0.51427 0.0
C2091 C 0.71391 0.83532 0.47829 0.0
C2092 C 0.71183 0.85072 0.46952 0.0
C2093 C 0.71985 0.86944 0.48155 0.0
C2094 C 0.70152 0.84783 0.44786 0.0
C2095 C 0.70462 0.81449 0.4669 0.0
C2096 C 0.70729 0.84197 0.42925 0.0
C2097 C 0.69793 0.83988 0.40883 0.0
C2098 C 0.68281 0.84379 0.40658 0.0
C2099 C 0.67728 0.85004 0.4251 0.0
C2100 C 0.68648 0.85194 0.44557 0.0
H2101 H 0.70252 0.80325 0.47846 0.0
H2102 H 0.69053 0.81016 0.45825 0.0
H2103 H 0.71403 0.81396 0.45487 0.0
H2104 H 0.71932 0.83947 0.43044 0.0
H2105 H 0.70308 0.83609 0.39476 0.0
H2106 H 0.16321 0.88905 0.57952 0.0
H2107 H 0.16931 0.87559 0.54613 0.0
H2108 H 0.12074 0.87425 0.51203 0.0
H2109 H 0.11466 0.88788 0.54516 0.0
H2110 H 0.14151 0.83838 0.51426 0.0
H2111 H 0.17123 0.9128 0.48191 0.0
H2112 H 0.16967 0.90983 0.5105 0.0
H2113 H 0.14854 0.90311 0.49303 0.0
C2114 C 0.15372 0.88569 0.56494 0.0
C2115 C 0.13849 0.88959 0.56496 0.0
C2116 C 0.15717 0.87792 0.54596 0.0
C2117 C 0.14553 0.87407 0.52667 0.0
C2118 C 0.12988 0.87717 0.5268 0.0
H2119 H 0.15665 0.85344 0.39175 0.0
H2120 H 0.14616 0.85855 0.4264 0.0
C2121 C 0.12636 0.88484 0.54577 0.0
C2122 C 0.15055 0.86825 0.50604 0.0
H2123 H 0.16867 0.88635 0.45873 0.0
C2124 C 0.14748 0.84881 0.50208 0.0
C2125 C 0.15832 0.88195 0.49028 0.0
C2126 C 0.1623 0.90316 0.49406 0.0
C2127 C 0.15164 0.84257 0.48243 0.0
C2128 C 0.15945 0.85632 0.46664 0.0
C2129 C 0.16262 0.8758 0.47079 0.0
C2130 C 0.16442 0.85099 0.4456 0.0
C2131 C 0.14716 0.82121 0.47855 0.0
C2132 C 0.17804 0.84481 0.4448 0.0
C2133 C 0.18387 0.84158 0.42489 0.0
C2134 C 0.17634 0.84473 0.40553 0.0
C2135 C 0.16253 0.85063 0.40636 0.0
C2136 C 0.15659 0.85367 0.42618 0.0
H2137 H 0.13648 0.81134 0.48925 0.0
H2138 H 0.1416 0.81522 0.46143 0.0
H2139 H 0.16045 0.82061 0.48208 0.0
H2140 H 0.18463 0.8431 0.45958 0.0
H2141 H 0.19465 0.83718 0.42472 0.0
H2142 H 0.60029 0.7804 0.11578 0.0
H2143 H 0.61882 0.79405 0.15112 0.0
H2144 H 0.57377 0.80212 0.17466 0.0
H2145 H 0.55484 0.78784 0.13959 0.0
H2146 H 0.63241 0.83037 0.17703 0.0
H2147 H 0.57877 0.76526 0.21634 0.0
H2148 H 0.57865 0.76554 0.18731 0.0
H2149 H 0.56963 0.77898 0.20244 0.0
C2150 C 0.59434 0.78513 0.12845 0.0
C2151 C 0.57598 0.78279 0.12492 0.0
C2152 C 0.605 0.79306 0.14859 0.0
C2153 C 0.59753 0.79879 0.16562 0.0
C2154 C 0.57967 0.79749 0.16183 0.0
H2155 H 0.6653 0.85328 0.29233 0.0
H2156 H 0.64579 0.84814 0.25819 0.0
C2157 C 0.56896 0.78952 0.14169 0.0
C2158 C 0.60799 0.80489 0.1876 0.0
H2159 H 0.60565 0.78987 0.2386 0.0
C2160 C 0.62652 0.82166 0.19057 0.0
C2161 C 0.60032 0.79334 0.20516 0.0
C2162 C 0.58082 0.77468 0.20273 0.0
C2163 C 0.63771 0.82699 0.21057 0.0
C2164 C 0.63007 0.81534 0.22806 0.0
C2165 C 0.6114 0.79884 0.22519 0.0
C2166 C 0.64172 0.81882 0.24886 0.0
C2167 C 0.6579 0.84449 0.21256 0.0
C2168 C 0.64559 0.80395 0.2551 0.0
C2169 C 0.65646 0.80676 0.27459 0.0
C2170 C 0.66359 0.82446 0.28833 0.0
C2171 C 0.65972 0.83939 0.28216 0.0
C2172 C 0.6488 0.83656 0.26257 0.0
H2173 H 0.66279 0.8496 0.19653 0.0
H2174 H 0.65858 0.85718 0.22256 0.0
H2175 H 0.66796 0.84053 0.22072 0.0
H2176 H 0.64026 0.79014 0.24479 0.0
H2177 H 0.65917 0.79497 0.27896 0.0
H2178 H 0.2017 0.78524 0.11784 0.0
H2179 H 0.18887 0.7927 0.14962 0.0
H2180 H 0.24625 0.8345 0.17769 0.0
H2181 H 0.25916 0.82706 0.1462 0.0
H2182 H 0.19555 0.78748 0.19232 0.0
H2183 H 0.21942 0.86717 0.18351 0.0
H2184 H 0.21898 0.85048 0.16173 0.0
H2185 H 0.23842 0.86158 0.18285 0.0
C2186 C 0.21158 0.79605 0.13077 0.0
C2187 C 0.23145 0.80567 0.12939 0.0
C2188 C 0.20423 0.80036 0.14886 0.0
C2189 C 0.2166 0.81443 0.16583 0.0
C2190 C 0.23642 0.824 0.16452 0.0
H2191 H 0.19776 0.82504 0.29964 0.0
H2192 H 0.20819 0.82023 0.26478 0.0
C2193 C 0.24378 0.81972 0.14649 0.0
C2194 C 0.20891 0.81831 0.18549 0.0
H2195 H 0.20909 0.85552 0.21788 0.0
C2196 C 0.19836 0.80232 0.19781 0.0
C2197 C 0.21239 0.83764 0.1925 0.0
C2198 C 0.22276 0.85517 0.17936 0.0
C2199 C 0.19176 0.80526 0.21732 0.0
C2200 C 0.19606 0.82476 0.22486 0.0
C2201 C 0.20602 0.84063 0.21219 0.0
C2202 C 0.1906 0.82894 0.24607 0.0
C2203 C 0.1802 0.78743 0.22968 0.0
C2204 C 0.17782 0.83619 0.24721 0.0
C2205 C 0.17196 0.83914 0.26719 0.0
C2206 C 0.1789 0.835 0.28631 0.0
C2207 C 0.19217 0.82837 0.28518 0.0
C2208 C 0.19802 0.82545 0.26526 0.0
H2209 H 0.17385 0.77315 0.21912 0.0
H2210 H 0.18968 0.78693 0.24295 0.0
H2211 H 0.16851 0.78853 0.237 0.0
H2212 H 0.17203 0.8391 0.23259 0.0
H2213 H 0.16175 0.84431 0.26764 0.0
H2214 H 0.23602 0.42694 0.14065 0.0
H2215 H 0.22995 0.40519 0.17023 0.0
H2216 H 0.18978 0.42156 0.19283 0.0
H2217 H 0.19602 0.44354 0.16396 0.0
H2218 H 0.23021 0.41758 0.22107 0.0
H2219 H 0.16208 0.35666 0.17783 0.0
H2220 H 0.18149 0.37458 0.16378 0.0
H2221 H 0.16633 0.38174 0.1769 0.0
C2222 C 0.22605 0.42604 0.15207 0.0
C2223 C 0.21627 0.43673 0.14971 0.0
C2224 C 0.2226 0.41361 0.16889 0.0
C2225 C 0.20932 0.41172 0.18352 0.0
C2226 C 0.19995 0.42272 0.18155 0.0
H2227 H 0.14702 0.3506 0.28522 0.0
H2228 H 0.16107 0.36925 0.25431 0.0
C2229 C 0.20342 0.43513 0.16489 0.0
C2230 C 0.20445 0.39778 0.20056 0.0
H2231 H 0.1672 0.35499 0.21546 0.0
C2232 C 0.21663 0.40367 0.2198 0.0
C2233 C 0.18672 0.37974 0.19873 0.0
C2234 C 0.17339 0.37263 0.17816 0.0
C2235 C 0.21098 0.39245 0.23782 0.0
C2236 C 0.19279 0.37485 0.23629 0.0
C2237 C 0.18108 0.36853 0.21663 0.0
C2238 C 0.18478 0.36367 0.25529 0.0
C2239 C 0.22404 0.40006 0.25864 0.0
C2240 C 0.19335 0.35416 0.26599 0.0
C2241 C 0.18528 0.34344 0.2837 0.0
C2242 C 0.16856 0.34209 0.29088 0.0
C2243 C 0.15989 0.35136 0.27996 0.0
C2244 C 0.16794 0.36207 0.26236 0.0
H2245 H 0.23582 0.41574 0.25836 0.0
H2246 H 0.21588 0.39926 0.2727 0.0
H2247 H 0.23053 0.39055 0.26112 0.0
H2248 H 0.20611 0.35483 0.26052 0.0
H2249 H 0.19197 0.33602 0.2916 0.0
H2250 H 0.80518 0.59494 0.89205 0.0
H2251 H 0.81861 0.61708 0.8633 0.0
H2252 H 0.76231 0.60583 0.84132 0.0
H2253 H 0.74869 0.58308 0.86925 0.0
H2254 H 0.78082 0.60127 0.80848 0.0
H2255 H 0.82856 0.67343 0.85757 0.0
H2256 H 0.83273 0.65354 0.86421 0.0
H2257 H 0.8103 0.65189 0.869 0.0
C2258 C 0.79566 0.59721 0.88112 0.0
C2259 C 0.77585 0.58729 0.88309 0.0
C2260 C 0.8034 0.61008 0.86486 0.0
C2261 C 0.79151 0.61339 0.85038 0.0
C2262 C 0.77179 0.60366 0.85244 0.0
H2263 H 0.80659 0.67309 0.73183 0.0
H2264 H 0.79444 0.65767 0.76525 0.0
C2265 C 0.76405 0.59077 0.86858 0.0
C2266 C 0.79929 0.62587 0.83213 0.0
H2267 H 0.83179 0.67267 0.81969 0.0
C2268 C 0.79186 0.61693 0.81094 0.0
C2269 C 0.81374 0.64628 0.83538 0.0
C2270 C 0.8217 0.65694 0.85777 0.0
C2271 C 0.7987 0.62768 0.79289 0.0
C2272 C 0.81318 0.64808 0.79612 0.0
C2273 C 0.82064 0.65707 0.81729 0.0
C2274 C 0.82113 0.66002 0.77757 0.0
C2275 C 0.79066 0.61693 0.77051 0.0
C2276 C 0.84041 0.66747 0.77404 0.0
C2277 C 0.84733 0.67632 0.75502 0.0
C2278 C 0.83504 0.67786 0.73938 0.0
C2279 C 0.81615 0.67167 0.74356 0.0
C2280 C 0.80924 0.66288 0.76259 0.0
H2281 H 0.78329 0.60042 0.77079 0.0
H2282 H 0.78003 0.62079 0.76381 0.0
H2283 H 0.80211 0.6215 0.7594 0.0
H2284 H 0.84984 0.6655 0.78544 0.0
H2285 H 0.86193 0.68088 0.75196 0.0
H2286 H 0.40702 0.18687 0.91642 0.0
H2287 H 0.38867 0.18169 0.88147 0.0
H2288 H 0.4407 0.20451 0.84969 0.0
H2289 H 0.45907 0.21069 0.88483 0.0
H2290 H 0.42071 0.21873 0.8336 0.0
H2291 H 0.37182 0.13754 0.83522 0.0
H2292 H 0.36995 0.15137 0.8581 0.0
H2293 H 0.39214 0.15172 0.855 0.0
C2294 C 0.41443 0.19081 0.90191 0.0
C2295 C 0.43435 0.19915 0.90312 0.0
C2296 C 0.40396 0.18765 0.88193 0.0
C2297 C 0.41319 0.19221 0.86277 0.0
C2298 C 0.4332 0.20075 0.86415 0.0
H2299 H 0.34948 0.14766 0.73465 0.0
H2300 H 0.36904 0.15294 0.76858 0.0
C2301 C 0.44369 0.20428 0.88417 0.0
C2302 C 0.40216 0.1886 0.84136 0.0
H2303 H 0.36315 0.15342 0.80845 0.0
C2304 C 0.40821 0.20439 0.82805 0.0
C2305 C 0.38607 0.16977 0.83379 0.0
C2306 C 0.37975 0.1516 0.84618 0.0
C2307 C 0.39852 0.202 0.80765 0.0
C2308 C 0.3817 0.18356 0.80071 0.0
C2309 C 0.37584 0.16766 0.81383 0.0
C2310 C 0.37001 0.18043 0.77992 0.0
C2311 C 0.4068 0.21918 0.79361 0.0
C2312 C 0.36367 0.19382 0.77505 0.0
C2313 C 0.35319 0.19121 0.75527 0.0
C2314 C 0.34836 0.17485 0.74019 0.0
C2315 C 0.35376 0.16085 0.74552 0.0
C2316 C 0.36467 0.16372 0.76509 0.0
H2317 H 0.4225 0.22889 0.79766 0.0
H2318 H 0.40409 0.21379 0.77614 0.0
H2319 H 0.4002 0.22858 0.79649 0.0
H2320 H 0.36682 0.20634 0.78652 0.0
H2321 H 0.34892 0.20206 0.75179 0.0
H2322 H 0.83068 0.22524 0.90933 0.0
H2323 H 0.83633 0.21286 0.87509 0.0
H2324 H 0.78409 0.20652 0.84477 0.0
H2325 H 0.77873 0.21969 0.87871 0.0
H2326 H 0.81586 0.1781 0.8474 0.0
H2327 H 0.82443 0.24433 0.80759 0.0
H2328 H 0.82356 0.24301 0.83644 0.0
H2329 H 0.80188 0.23007 0.81851 0.0
C2330 C 0.82037 0.22119 0.89539 0.0
C2331 C 0.80439 0.22374 0.89671 0.0
C2332 C 0.82355 0.21398 0.87587 0.0
C2333 C 0.81084 0.20915 0.85727 0.0
C2334 C 0.79429 0.21054 0.85882 0.0
H2335 H 0.82324 0.15596 0.73455 0.0
H2336 H 0.81057 0.16107 0.76782 0.0
C2337 C 0.79113 0.21785 0.87833 0.0
C2338 C 0.81556 0.20376 0.83611 0.0
H2339 H 0.82692 0.2199 0.78606 0.0
C2340 C 0.81816 0.18715 0.83391 0.0
C2341 C 0.81881 0.21577 0.81866 0.0
C2342 C 0.81721 0.2344 0.82038 0.0
C2343 C 0.82411 0.18231 0.8148 0.0
C2344 C 0.82723 0.19425 0.79731 0.0
C2345 C 0.82439 0.2107 0.79943 0.0
C2346 C 0.83462 0.19079 0.77716 0.0
C2347 C 0.82767 0.16493 0.81378 0.0
C2348 C 0.85212 0.20591 0.77114 0.0
C2349 C 0.85914 0.20314 0.75202 0.0
C2350 C 0.84875 0.18524 0.73847 0.0
C2351 C 0.83132 0.17003 0.74453 0.0
C2352 C 0.82422 0.17283 0.76367 0.0
H2353 H 0.82888 0.16025 0.83013 0.0
H2354 H 0.81555 0.15197 0.80391 0.0
H2355 H 0.84097 0.16877 0.80604 0.0
H2356 H 0.86037 0.21989 0.78129 0.0
H2357 H 0.87261 0.21513 0.74772 0.0
H2358 H 0.23159 0.08419 0.47339 0.0
H2359 H 0.25049 0.0991 0.50834 0.0
H2360 H 0.27542 0.15764 0.48527 0.0
H2361 H 0.25635 0.14274 0.45007 0.0
H2362 H 0.30191 0.14426 0.50579 0.0
H2363 H 0.24425 0.13709 0.55557 0.0
H2364 H 0.23844 0.11541 0.5376 0.0
H2365 H 0.24277 0.1381 0.52654 0.0
C2366 C 0.24109 0.10024 0.47575 0.0
C2367 C 0.24261 0.11231 0.45898 0.0
C2368 C 0.25175 0.10874 0.49576 0.0
C2369 C 0.2642 0.12945 0.4994 0.0
C2370 C 0.26576 0.14162 0.48277 0.0
H2371 H 0.33108 0.18435 0.62638 0.0
H2372 H 0.31333 0.18051 0.59127 0.0
C2373 C 0.25488 0.13313 0.46274 0.0
C2374 C 0.27619 0.13799 0.5203 0.0
H2375 H 0.27326 0.14291 0.57474 0.0
C2376 C 0.29575 0.14434 0.52084 0.0
C2377 C 0.2681 0.13811 0.53986 0.0
C2378 C 0.24726 0.13197 0.53999 0.0
C2379 C 0.30722 0.14977 0.54061 0.0
C2380 C 0.29888 0.14883 0.56021 0.0
C2381 C 0.27957 0.14354 0.55963 0.0
C2382 C 0.30955 0.15144 0.58141 0.0
C2383 C 0.32805 0.15585 0.54051 0.0
C2384 C 0.31307 0.1363 0.58746 0.0
C2385 C 0.32279 0.13828 0.60756 0.0
C2386 C 0.32918 0.15546 0.62197 0.0
C2387 C 0.32584 0.17074 0.61582 0.0
C2388 C 0.3159 0.16866 0.59573 0.0
H2389 H 0.3332 0.15961 0.52426 0.0
H2390 H 0.33703 0.16895 0.55249 0.0
H2391 H 0.33001 0.14331 0.54521 0.0
H2392 H 0.30816 0.12286 0.57666 0.0
H2393 H 0.32517 0.12626 0.61187 0.0
H2394 H 0.90137 0.16306 0.45898 0.0
H2395 H 0.88861 0.1703 0.49094 0.0
H2396 H 0.88623 0.11956 0.51927 0.0
H2397 H 0.89942 0.11252 0.4877 0.0
H2398 H 0.85389 0.14578 0.50891 0.0
H2399 H 0.91714 0.16622 0.56655 0.0
H2400 H 0.91793 0.16474 0.53755 0.0
H2401 H 0.9076 0.14233 0.55129 0.0
C2402 C 0.89823 0.15352 0.47208 0.0
C2403 C 0.90147 0.13726 0.47083 0.0
C2404 C 0.89086 0.15761 0.49026 0.0
C2405 C 0.88676 0.14564 0.50759 0.0
C2406 C 0.8896 0.12918 0.50622 0.0
H2407 H 0.81832 0.13446 0.61341 0.0
H2408 H 0.83124 0.13021 0.58008 0.0
C2409 C 0.89693 0.12504 0.48805 0.0
C2410 C 0.87939 0.15028 0.52708 0.0
H2411 H 0.88938 0.1623 0.5818 0.0
C2412 C 0.86167 0.14949 0.52483 0.0
C2413 C 0.88971 0.15539 0.54778 0.0
C2414 C 0.90924 0.15742 0.55099 0.0
C2415 C 0.85373 0.15312 0.54287 0.0
C2416 C 0.86372 0.15746 0.56368 0.0
C2417 C 0.88168 0.1588 0.56584 0.0
C2418 C 0.85562 0.16028 0.58349 0.0
C2419 C 0.83479 0.15243 0.53948 0.0
C2420 C 0.86518 0.17852 0.59659 0.0
C2421 C 0.85779 0.18096 0.61562 0.0
C2422 C 0.84093 0.16512 0.62198 0.0
C2423 C 0.83132 0.14694 0.6088 0.0
C2424 C 0.83865 0.14451 0.58975 0.0
H2425 H 0.83153 0.15417 0.52238 0.0
H2426 H 0.82322 0.13774 0.54356 0.0
H2427 H 0.83466 0.16433 0.55015 0.0
H2428 H 0.8783 0.19087 0.59204 0.0
H2429 H 0.8652 0.19527 0.62527 0.0
H2430 H 0.87039 0.78236 0.49757 0.0
H2431 H 0.86453 0.76199 0.5281 0.0
H2432 H 0.89233 0.73286 0.49857 0.0
H2433 H 0.89845 0.75347 0.46787 0.0
H2434 H 0.85191 0.70728 0.51267 0.0
H2435 H 0.9055 0.76374 0.57634 0.0
H2436 H 0.89223 0.77202 0.5599 0.0
H2437 H 0.90832 0.76564 0.54773 0.0
C2438 C 0.87535 0.77169 0.49764 0.0
C2439 C 0.88477 0.76937 0.48034 0.0
C2440 C 0.87211 0.76018 0.51513 0.0
C2441 C 0.87812 0.74606 0.51561 0.0
C2442 C 0.88772 0.74381 0.4985 0.0
H2443 H 0.85954 0.67601 0.62808 0.0
H2444 H 0.87407 0.69404 0.59672 0.0
C2445 C 0.89122 0.75556 0.48106 0.0
C2446 C 0.87313 0.73292 0.53344 0.0
H2447 H 0.88018 0.7341 0.58835 0.0
C2448 C 0.85829 0.713 0.52917 0.0
C2449 C 0.88156 0.74045 0.55488 0.0
C2450 C 0.8979 0.7616 0.56009 0.0
C2451 C 0.85097 0.70069 0.54604 0.0
C2452 C 0.85867 0.70858 0.56763 0.0
C2453 C 0.87422 0.72816 0.57176 0.0
C2454 C 0.84987 0.69725 0.58623 0.0
C2455 C 0.83475 0.67949 0.54073 0.0
C2456 C 0.83157 0.69328 0.59073 0.0
C2457 C 0.82343 0.68334 0.60876 0.0
C2458 C 0.83348 0.67724 0.6226 0.0
C2459 C 0.85167 0.6809 0.61787 0.0
C2460 C 0.85991 0.69106 0.59993 0.0
H2461 H 0.83361 0.67421 0.52342 0.0
H2462 H 0.83662 0.66917 0.55102 0.0
H2463 H 0.82107 0.67875 0.54397 0.0
H2464 H 0.82371 0.69817 0.58047 0.0
H2465 H 0.8094 0.6807 0.61206 0.0
loop_
_geom_bond_atom_site_label_1
_geom_bond_atom_site_label_2
_geom_bond_distance
_geom_bond_site_symmetry_2
_ccdc_geom_bond_type
H0 C1 0.949 . S
C1 H0 0.949 . S
C1 C2 1.395 . S
C1 C3 1.391 . S
C2 C1 1.395 . S
C2 C5 1.390 . S
C3 C1 1.391 . S
C3 C7 1.387 . S
C3 C8 1.491 . S
H4 C5 0.950 . S
C5 C2 1.390 . S
C5 H4 0.950 . S
C5 C6 1.378 . S
C6 C5 1.378 . S
C6 C7 1.409 . S
C7 C3 1.387 . S
C7 C6 1.409 . S
C7 H9 0.951 . S
C8 C3 1.491 . S
C8 C10 1.382 . S
C8 C12 1.404 . S
H9 C7 0.951 . S
C10 C8 1.382 . S
C10 C11 1.390 . S
C10 H15 0.949 . S
C11 C10 1.390 . S
C11 C16 1.399 . S
C12 C8 1.404 . S
C12 H13 0.950 . S
C12 C14 1.375 . S
H13 C12 0.950 . S
C14 C12 1.375 . S
C14 C16 1.382 . S
C14 H18 0.950 . S
H15 C10 0.949 . S
C16 C11 1.399 . S
C16 C14 1.382 . S
C16 H17 0.952 . S
H17 C16 0.952 . S
H18 C14 0.950 . S
H19 C20 0.949 . S
C20 H19 0.949 . S
C20 C21 1.395 . S
C20 C22 1.391 . S
C21 C20 1.395 . S
C21 C24 1.390 . S
C22 C20 1.391 . S
C22 C26 1.387 . S
C22 C27 1.491 . S
H23 C24 0.950 . S
C24 C21 1.390 . S
C24 H23 0.950 . S
C24 C25 1.378 . S
C25 C24 1.378 . S
C25 C26 1.409 . S
C26 C22 1.387 . S
C26 C25 1.409 . S
C26 H28 0.951 . S
C27 C22 1.491 . S
C27 C29 1.382 . S
C27 C31 1.404 . S
H28 C26 0.951 . S
C29 C27 1.382 . S
C29 C30 1.390 . S
C29 H34 0.949 . S
C30 C29 1.390 . S
C30 C35 1.399 . S
C31 C27 1.404 . S
C31 H32 0.950 . S
C31 C33 1.375 . S
H32 C31 0.950 . S
C33 C31 1.375 . S
C33 C35 1.382 . S
C33 H37 0.950 . S
H34 C29 0.949 . S
C35 C30 1.399 . S
C35 C33 1.382 . S
C35 H36 0.952 . S
H36 C35 0.952 . S
H37 C33 0.950 . S
H38 C39 0.949 . S
C39 H38 0.949 . S
C39 C40 1.395 . S
C39 C41 1.391 . S
C40 C39 1.395 . S
C40 C43 1.390 . S
C41 C39 1.391 . S
C41 C45 1.387 . S
C41 C46 1.491 . S
H42 C43 0.950 . S
C43 C40 1.390 . S
C43 H42 0.950 . S
C43 C44 1.378 . S
C44 C43 1.378 . S
C44 C45 1.409 . S
C45 C41 1.387 . S
C45 C44 1.409 . S
C45 H47 0.951 . S
C46 C41 1.491 . S
C46 C48 1.382 . S
C46 C50 1.404 . S
H47 C45 0.951 . S
C48 C46 1.382 . S
C48 C49 1.390 . S
C48 H53 0.949 . S
C49 C48 1.390 . S
C49 C54 1.399 . S
C50 C46 1.404 . S
C50 H51 0.950 . S
C50 C52 1.375 . S
H51 C50 0.950 . S
C52 C50 1.375 . S
C52 C54 1.382 . S
C52 H56 0.950 . S
H53 C48 0.949 . S
C54 C49 1.399 . S
C54 C52 1.382 . S
C54 H55 0.952 . S
H55 C54 0.952 . S
H56 C52 0.950 . S
H57 C58 0.949 . S
C58 H57 0.949 . S
C58 C59 1.395 . S
C58 C60 1.391 . S
C59 C58 1.395 . S
C59 C62 1.390 . S
C60 C58 1.391 . S
C60 C64 1.387 . S
C60 C65 1.491 . S
H61 C62 0.950 . S
C62 C59 1.390 . S
C62 H61 0.950 . S
C62 C63 1.378 . S
C63 C62 1.378 . S
C63 C64 1.409 . S
C64 C60 1.387 . S
C64 C63 1.409 . S
C64 H66 0.951 . S
C65 C60 1.491 . S
C65 C67 1.382 . S
C65 C69 1.404 . S
H66 C64 0.951 . S
C67 C65 1.382 . S
C67 C68 1.390 . S
C67 H72 0.949 . S
C68 C67 1.390 . S
C68 C73 1.399 . S
C69 C65 1.404 . S
C69 H70 0.950 . S
C69 C71 1.375 . S
H70 C69 0.950 . S
C71 C69 1.375 . S
C71 C73 1.382 . S
C71 H75 0.950 . S
H72 C67 0.949 . S
C73 C68 1.399 . S
C73 C71 1.382 . S
C73 H74 0.952 . S
H74 C73 0.952 . S
H75 C71 0.950 . S
H76 C77 0.949 . S
C77 H76 0.949 . S
C77 C78 1.395 . S
C77 C79 1.391 . S
C78 C77 1.395 . S
C78 C81 1.390 . S
C79 C77 1.391 . S
C79 C83 1.387 . S
C79 C84 1.491 . S
H80 C81 0.950 . S
C81 C78 1.390 . S
C81 H80 0.950 . S
C81 C82 1.378 . S
C82 C81 1.378 . S
C82 C83 1.409 . S
C83 C79 1.387 . S
C83 C82 1.409 . S
C83 H85 0.951 . S
C84 C79 1.491 . S
C84 C86 1.382 . S
C84 C88 1.404 . S
H85 C83 0.951 . S
C86 C84 1.382 . S
C86 C87 1.390 . S
C86 H91 0.949 . S
C87 C86 1.390 . S
C87 C92 1.399 . S
C88 C84 1.404 . S
C88 H89 0.950 . S
C88 C90 1.375 . S
H89 C88 0.950 . S
C90 C88 1.375 . S
C90 C92 1.382 . S
C90 H94 0.950 . S
H91 C86 0.949 . S
C92 C87 1.399 . S
C92 C90 1.382 . S
C92 H93 0.952 . S
H93 C92 0.952 . S
H94 C90 0.950 . S
H95 C96 0.949 . S
C96 H95 0.949 . S
C96 C97 1.395 . S
C96 C98 1.391 . S
C97 C96 1.395 . S
C97 C100 1.390 . S
C98 C96 1.391 . S
C98 C102 1.387 . S
C98 C103 1.491 . S
H99 C100 0.950 . S
C100 C97 1.390 . S
C100 H99 0.950 . S
C100 C101 1.378 . S
C101 C100 1.378 . S
C101 C102 1.409 . S
C102 C98 1.387 . S
C102 C101 1.409 . S
C102 H104 0.951 . S
C103 C98 1.491 . S
C103 C105 1.382 . S
C103 C107 1.404 . S
H104 C102 0.951 . S
C105 C103 1.382 . S
C105 C106 1.390 . S
C105 H110 0.949 . S
C106 C105 1.390 . S
C106 C111 1.399 . S
C107 C103 1.404 . S
C107 H108 0.950 . S
C107 C109 1.375 . S
H108 C107 0.950 . S
C109 C107 1.375 . S
C109 C111 1.382 . S
C109 H113 0.950 . S
H110 C105 0.949 . S
C111 C106 1.399 . S
C111 C109 1.382 . S
C111 H112 0.952 . S
H112 C111 0.952 . S
H113 C109 0.950 . S
H114 C115 0.949 . S
C115 H114 0.949 . S
C115 C116 1.395 . S
C115 C117 1.391 . S
C116 C115 1.395 . S
C116 C119 1.390 . S
C117 C115 1.391 . S
C117 C121 1.387 . S
C117 C122 1.491 . S
H118 C119 0.950 . S
C119 C116 1.390 . S
C119 H118 0.950 . S
C119 C120 1.378 . S
C120 C119 1.378 . S
C120 C121 1.409 . S
C121 C117 1.387 . S
C121 C120 1.409 . S
C121 H123 0.951 . S
C122 C117 1.491 . S
C122 C124 1.382 . S
C122 C126 1.404 . S
H123 C121 0.951 . S
C124 C122 1.382 . S
C124 C125 1.390 . S
C124 H129 0.949 . S
C125 C124 1.390 . S
C125 C130 1.399 . S
C126 C122 1.404 . S
C126 H127 0.950 . S
C126 C128 1.375 . S
H127 C126 0.950 . S
C128 C126 1.375 . S
C128 C130 1.382 . S
C128 H132 0.950 . S
H129 C124 0.949 . S
C130 C125 1.399 . S
C130 C128 1.382 . S
C130 H131 0.952 . S
H131 C130 0.952 . S
H132 C128 0.950 . S
H133 C134 0.949 . S
C134 H133 0.949 . S
C134 C135 1.395 . S
C134 C136 1.391 . S
C135 C134 1.395 . S
C135 C138 1.390 . S
C136 C134 1.391 . S
C136 C140 1.387 . S
C136 C141 1.491 . S
H137 C138 0.950 . S
C138 C135 1.390 . S
C138 H137 0.950 . S
C138 C139 1.378 . S
C139 C138 1.378 . S
C139 C140 1.409 . S
C140 C136 1.387 . S
C140 C139 1.409 . S
C140 H142 0.951 . S
C141 C136 1.491 . S
C141 C143 1.382 . S
C141 C145 1.404 . S
H142 C140 0.951 . S
C143 C141 1.382 . S
C143 C144 1.390 . S
C143 H148 0.949 . S
C144 C143 1.390 . S
C144 C149 1.399 . S
C145 C141 1.404 . S
C145 H146 0.950 . S
C145 C147 1.375 . S
H146 C145 0.950 . S
C147 C145 1.375 . S
C147 C149 1.382 . S
C147 H151 0.950 . S
H148 C143 0.949 . S
C149 C144 1.399 . S
C149 C147 1.382 . S
C149 H150 0.952 . S
H150 C149 0.952 . S
H151 C147 0.950 . S
H152 C153 0.949 . S
C153 H152 0.949 . S
C153 C154 1.395 . S
C153 C155 1.391 . S
C154 C153 1.395 . S
C154 C157 1.390 . S
C155 C153 1.391 . S
C155 C159 1.387 . S
C155 C160 1.491 . S
H156 C157 0.950 . S
C157 C154 1.390 . S
C157 H156 0.950 . S
C157 C158 1.378 . S
C158 C157 1.378 . S
C158 C159 1.409 . S
C159 C155 1.387 . S
C159 C158 1.409 . S
C159 H161 0.951 . S
C160 C155 1.491 . S
C160 C162 1.382 . S
C160 C164 1.404 . S
H161 C159 0.951 . S
C162 C160 1.382 . S
C162 C163 1.390 . S
C162 H167 0.949 . S
C163 C162 1.390 . S
C163 C168 1.399 . S
C164 C160 1.404 . S
C164 H165 0.950 . S
C164 C166 1.375 . S
H165 C164 0.950 . S
C166 C164 1.375 . S
C166 C168 1.382 . S
C166 H170 0.950 . S
H167 C162 0.949 . S
C168 C163 1.399 . S
C168 C166 1.382 . S
C168 H169 0.952 . S
H169 C168 0.952 . S
H170 C166 0.950 . S
H171 C172 0.949 . S
C172 H171 0.949 . S
C172 C173 1.395 . S
C172 C174 1.391 . S
C173 C172 1.395 . S
C173 C176 1.390 . S
C174 C172 1.391 . S
C174 C178 1.387 . S
C174 C179 1.491 . S
H175 C176 0.950 . S
C176 C173 1.390 . S
C176 H175 0.950 . S
C176 C177 1.378 . S
C177 C176 1.378 . S
C177 C178 1.409 . S
C178 C174 1.387 . S
C178 C177 1.409 . S
C178 H180 0.951 . S
C179 C174 1.491 . S
C179 C181 1.382 . S
C179 C183 1.404 . S
H180 C178 0.951 . S
C181 C179 1.382 . S
C181 C182 1.390 . S
C181 H186 0.949 . S
C182 C181 1.390 . S
C182 C187 1.399 . S
C183 C179 1.404 . S
C183 H184 0.950 . S
C183 C185 1.375 . S
H184 C183 0.950 . S
C185 C183 1.375 . S
C185 C187 1.382 . S
C185 H189 0.950 . S
H186 C181 0.949 . S
C187 C182 1.399 . S
C187 C185 1.382 . S
C187 H188 0.952 . S
H188 C187 0.952 . S
H189 C185 0.950 . S
H190 C191 0.949 . S
C191 H190 0.949 . S
C191 C192 1.395 . S
C191 C193 1.391 . S
C192 C191 1.395 . S
C192 C195 1.390 . S
C193 C191 1.391 . S
C193 C197 1.387 . S
C193 C198 1.491 . S
H194 C195 0.950 . S
C195 C192 1.390 . S
C195 H194 0.950 . S
C195 C196 1.378 . S
C196 C195 1.378 . S
C196 C197 1.409 . S
C197 C193 1.387 . S
C197 C196 1.409 . S
C197 H199 0.961 . S
C198 C193 1.491 . S
C198 C200 1.382 . S
C198 C202 1.404 . S
H199 C197 0.961 . S
C200 C198 1.382 . S
C200 C201 1.390 . S
C200 H205 0.949 . S
C201 C200 1.390 . S
C201 C206 1.399 1_556 S
C202 C198 1.404 . S
C202 H203 0.950 . S
C202 C204 1.375 1_556 S
H203 C202 0.950 . S
C204 C202 1.375 1_554 S
C204 C206 1.382 . S
C204 H208 0.950 . S
H205 C200 0.949 . S
C206 C201 1.399 1_554 S
C206 C204 1.382 . S
C206 H207 0.952 . S
H207 C206 0.952 . S
H208 C204 0.950 . S
H209 C210 0.949 . S
C210 H209 0.949 . S
C210 C211 1.395 . S
C210 C212 1.391 . S
C211 C210 1.395 . S
C211 C214 1.390 . S
C212 C210 1.391 . S
C212 C216 1.387 . S
C212 C217 1.491 . S
H213 C214 0.950 . S
C214 C211 1.390 . S
C214 H213 0.950 . S
C214 C215 1.378 . S
C215 C214 1.378 . S
C215 C216 1.409 . S
C216 C212 1.387 . S
C216 C215 1.409 . S
C216 H218 0.951 . S
C217 C212 1.491 . S
C217 C219 1.382 . S
C217 C221 1.404 . S
H218 C216 0.951 . S
C219 C217 1.382 . S
C219 C220 1.390 . S
C219 H224 0.949 . S
C220 C219 1.390 . S
C220 C225 1.399 . S
C221 C217 1.404 . S
C221 H222 0.950 . S
C221 C223 1.375 . S
H222 C221 0.950 . S
C223 C221 1.375 . S
C223 C225 1.382 . S
C223 H227 0.950 . S
H224 C219 0.949 . S
C225 C220 1.399 . S
C225 C223 1.382 . S
C225 H226 0.952 . S
H226 C225 0.952 . S
H227 C223 0.950 . S
H228 C229 0.949 . S
C229 H228 0.949 . S
C229 C230 1.395 . S
C229 C231 1.391 . S
C230 C229 1.395 . S
C230 C233 1.390 . S
C231 C229 1.391 . S
C231 C235 1.387 . S
C231 C236 1.491 . S
H232 C233 0.950 . S
C233 C230 1.390 . S
C233 H232 0.950 . S
C233 C234 1.378 . S
C234 C233 1.378 . S
C234 C235 1.409 . S
C235 C231 1.387 . S
C235 C234 1.409 . S
C235 H237 0.951 . S
C236 C231 1.491 . S
C236 C238 1.382 . S
C236 C240 1.404 . S
H237 C235 0.951 . S
C238 C236 1.382 . S
C238 C239 1.390 . S
C238 H243 0.949 . S
C239 C238 1.390 . S
C239 C244 1.399 . S
C240 C236 1.404 . S
C240 H241 0.950 . S
C240 C242 1.375 . S
H241 C240 0.950 . S
C242 C240 1.375 . S
C242 C244 1.382 . S
C242 H246 0.950 . S
H243 C238 0.949 . S
C244 C239 1.399 . S
C244 C242 1.382 . S
C244 H245 0.952 . S
H245 C244 0.952 . S
H246 C242 0.950 . S
H247 C248 0.949 . S
C248 H247 0.949 . S
C248 C249 1.395 . S
C248 C250 1.391 . S
C249 C248 1.395 . S
C249 C252 1.390 . S
C250 C248 1.391 . S
C250 C254 1.387 . S
C250 C255 1.491 . S
H251 C252 0.950 . S
C252 C249 1.390 . S
C252 H251 0.950 . S
C252 C253 1.378 . S
C253 C252 1.378 . S
C253 C254 1.409 . S
C254 C250 1.387 . S
C254 C253 1.409 . S
C254 H256 0.951 . S
C255 C250 1.491 . S
C255 C257 1.382 . S
C255 C259 1.404 . S
H256 C254 0.951 . S
C257 C255 1.382 . S
C257 C258 1.390 . S
C257 H262 0.949 . S
C258 C257 1.390 . S
C258 C263 1.399 . S
C259 C255 1.404 . S
C259 H260 0.950 . S
C259 C261 1.375 . S
H260 C259 0.950 . S
C261 C259 1.375 . S
C261 C263 1.382 . S
C261 H265 0.950 . S
H262 C257 0.949 . S
C263 C258 1.399 . S
C263 C261 1.382 . S
C263 H264 0.952 . S
H264 C263 0.952 . S
H265 C261 0.950 . S
H266 C267 0.949 . S
C267 H266 0.949 . S
C267 C268 1.395 . S
C267 C269 1.391 . S
C268 C267 1.395 . S
C268 C271 1.390 . S
C269 C267 1.391 . S
C269 C273 1.387 . S
C269 C274 1.491 . S
H270 C271 0.950 . S
C271 C268 1.390 . S
C271 H270 0.950 . S
C271 C272 1.378 . S
C272 C271 1.378 . S
C272 C273 1.409 . S
C273 C269 1.387 . S
C273 C272 1.409 . S
C273 H275 0.951 . S
C274 C269 1.491 . S
C274 C276 1.382 . S
C274 C278 1.404 . S
H275 C273 0.951 . S
C276 C274 1.382 . S
C276 C277 1.390 . S
C276 H281 0.949 . S
C277 C276 1.390 . S
C277 C282 1.399 . S
C278 C274 1.404 . S
C278 H279 0.950 . S
C278 C280 1.375 . S
H279 C278 0.950 . S
C280 C278 1.375 . S
C280 C282 1.382 . S
C280 H284 0.950 . S
H281 C276 0.949 . S
C282 C277 1.399 . S
C282 C280 1.382 . S
C282 H283 0.952 . S
H283 C282 0.952 . S
H284 C280 0.950 . S
H285 C286 0.949 . S
C286 H285 0.949 . S
C286 C287 1.395 . S
C286 C288 1.391 . S
C287 C286 1.395 . S
C287 C290 1.390 . S
C288 C286 1.391 . S
C288 C292 1.387 . S
C288 C293 1.491 . S
H289 C290 0.950 . S
C290 C287 1.390 . S
C290 H289 0.950 . S
C290 C291 1.378 . S
C291 C290 1.378 . S
C291 C292 1.409 . S
C292 C288 1.387 . S
C292 C291 1.409 . S
C292 H294 0.951 . S
C293 C288 1.491 . S
C293 C295 1.382 . S
C293 C297 1.404 . S
H294 C292 0.951 . S
C295 C293 1.382 . S
C295 C296 1.390 . S
C295 H300 0.949 . S
C296 C295 1.390 . S
C296 C301 1.399 . S
C297 C293 1.404 . S
C297 H298 0.950 . S
C297 C299 1.375 . S
H298 C297 0.950 . S
C299 C297 1.375 . S
C299 C301 1.382 . S
C299 H303 0.950 . S
H300 C295 0.949 . S
C301 C296 1.399 . S
C301 C299 1.382 . S
C301 H302 0.952 . S
H302 C301 0.952 . S
H303 C299 0.950 . S
H304 C305 0.949 . S
C305 H304 0.949 . S
C305 C306 1.395 . S
C305 C307 1.391 . S
C306 C305 1.395 . S
C306 C309 1.390 . S
C307 C305 1.391 . S
C307 C311 1.387 . S
C307 C312 1.491 . S
H308 C309 0.950 . S
C309 C306 1.390 . S
C309 H308 0.950 . S
C309 C310 1.378 . S
C310 C309 1.378 . S
C310 C311 1.409 . S
C311 C307 1.387 . S
C311 C310 1.409 . S
C311 H313 0.951 . S
C312 C307 1.491 . S
C312 C314 1.382 . S
C312 C316 1.404 . S
H313 C311 0.951 . S
C314 C312 1.382 . S
C314 C315 1.390 . S
C314 H319 0.949 . S
C315 C314 1.390 . S
C315 C320 1.399 . S
C316 C312 1.404 . S
C316 H317 0.950 . S
C316 C318 1.375 . S
H317 C316 0.950 . S
C318 C316 1.375 . S
C318 C320 1.382 . S
C318 H322 0.950 . S
H319 C314 0.949 . S
C320 C315 1.399 . S
C320 C318 1.382 . S
C320 H321 0.952 . S
H321 C320 0.952 . S
H322 C318 0.950 . S
H323 C324 0.949 . S
C324 H323 0.949 . S
C324 C325 1.395 . S
C324 C326 1.391 . S
C325 C324 1.395 . S
C325 C328 1.390 . S
C326 C324 1.391 . S
C326 C330 1.387 . S
C326 C331 1.491 . S
H327 C328 0.950 . S
C328 C325 1.390 . S
C328 H327 0.950 . S
C328 C329 1.378 . S
C329 C328 1.378 . S
C329 C330 1.409 . S
C330 C326 1.387 . S
C330 C329 1.409 . S
C330 H332 0.951 . S
C331 C326 1.491 . S
C331 C333 1.382 . S
C331 C335 1.404 . S
H332 C330 0.951 . S
C333 C331 1.382 . S
C333 C334 1.390 . S
C333 H338 0.949 . S
C334 C333 1.390 . S
C334 C339 1.399 . S
C335 C331 1.404 . S
C335 H336 0.950 . S
C335 C337 1.375 . S
H336 C335 0.950 . S
C337 C335 1.375 . S
C337 C339 1.382 . S
C337 H341 0.950 . S
H338 C333 0.949 . S
C339 C334 1.399 . S
C339 C337 1.382 . S
C339 H340 0.952 . S
H340 C339 0.952 . S
H341 C337 0.950 . S
Tb342 O345 2.453 . S
Tb342 O346 2.596 1_545 S
Tb342 O347 2.374 1_545 S
Tb342 O355 2.343 1_554 S
Tb342 O357 2.353 . S
Tb342 O359 2.427 . S
Tb342 O360 2.513 . S
C343 O347 1.251 . S
C343 O349 1.263 1_554 S
Tb344 O346 2.343 1_556 S
Tb344 O349 2.353 . S
Tb344 O352 2.427 1_556 S
Tb344 O353 2.513 1_556 S
Tb344 O354 2.453 . S
Tb344 O355 2.596 1_565 S
Tb344 O356 2.374 1_566 S
O345 Tb342 2.453 . S
O345 C361 1.245 1_545 S
O346 Tb342 2.596 1_565 S
O346 Tb344 2.343 1_554 S
O346 C361 1.259 . S
O347 Tb342 2.374 1_565 S
O347 C343 1.251 . S
C348 O352 1.275 . S
C348 O353 1.246 . S
O349 C343 1.263 1_556 S
O349 Tb344 2.353 . S
C350 O354 1.245 1_545 S
C350 O355 1.259 . S
C351 O356 1.250 . S
C351 O357 1.263 . S
O352 Tb344 2.427 1_554 S
O352 C348 1.275 . S
O353 Tb344 2.513 1_554 S
O353 C348 1.246 . S
O354 Tb344 2.453 . S
O354 C350 1.245 1_565 S
O355 Tb342 2.343 1_556 S
O355 Tb344 2.596 1_545 S
O355 C350 1.259 . S
O356 Tb344 2.374 1_544 S
O356 C351 1.250 . S
O357 Tb342 2.353 . S
O357 C351 1.263 . S
C358 O359 1.275 . S
C358 O360 1.246 . S
O359 Tb342 2.427 . S
O359 C358 1.275 . S
O360 Tb342 2.513 . S
O360 C358 1.246 . S
C361 O345 1.245 1_565 S
C361 O346 1.259 . S
Tb362 O365 2.453 . S
Tb362 O366 2.596 1_655 S
Tb362 O367 2.374 1_655 S
Tb362 O375 2.343 1_554 S
Tb362 O377 2.353 . S
Tb362 O379 2.427 . S
Tb362 O380 2.513 1_554 S
C363 O367 1.251 . S
C363 O369 1.263 . S
Tb364 O366 2.343 1_556 S
Tb364 O369 2.353 1_556 S
Tb364 O372 2.427 1_556 S
Tb364 O373 2.513 1_556 S
Tb364 O374 2.453 . S
Tb364 O375 2.596 1_455 S
Tb364 O376 2.374 1_456 S
O365 Tb362 2.453 . S
O365 C381 1.245 1_655 S
O366 Tb362 2.596 1_455 S
O366 Tb364 2.343 1_554 S
O366 C381 1.259 . S
O367 Tb362 2.374 1_455 S
O367 C363 1.251 . S
C368 O372 1.275 . S
C368 O373 1.246 . S
O369 C363 1.263 . S
O369 Tb364 2.353 1_554 S
C370 O374 1.245 1_655 S
C370 O375 1.259 . S
C371 O376 1.250 . S
C371 O377 1.263 . S
O372 Tb364 2.427 1_554 S
O372 C368 1.275 . S
O373 Tb364 2.513 1_554 S
O373 C368 1.246 . S
O374 Tb364 2.453 . S
O374 C370 1.245 1_455 S
O375 Tb362 2.343 1_556 S
O375 Tb364 2.596 1_655 S
O375 C370 1.259 . S
O376 Tb364 2.374 1_654 S
O376 C371 1.250 . S
O377 Tb362 2.353 . S
O377 C371 1.263 . S
C378 O379 1.275 1_556 S
C378 O380 1.246 . S
O379 Tb362 2.427 . S
O379 C378 1.275 1_554 S
O380 Tb362 2.513 1_556 S
O380 C378 1.246 . S
C381 O365 1.245 1_455 S
C381 O366 1.259 . S
Tb382 O385 2.453 1_554 S
Tb382 O386 2.596 1_554 S
Tb382 O387 2.374 . S
Tb382 O395 2.343 . S
Tb382 O397 2.353 . S
Tb382 O399 2.427 . S
Tb382 O400 2.513 . S
C383 O387 1.251 . S
C383 O389 1.263 . S
Tb384 O386 2.343 1_554 S
Tb384 O389 2.353 . S
Tb384 O392 2.427 . S
Tb384 O393 2.513 . S
Tb384 O394 2.453 . S
Tb384 O395 2.596 . S
Tb384 O396 2.374 . S
O385 Tb382 2.453 1_556 S
O385 C401 1.245 . S
O386 Tb382 2.596 1_556 S
O386 Tb384 2.343 1_556 S
O386 C401 1.259 . S
O387 Tb382 2.374 . S
O387 C383 1.251 . S
C388 O392 1.275 . S
C388 O393 1.246 . S
O389 C383 1.263 . S
O389 Tb384 2.353 . S
C390 O394 1.245 . S
C390 O395 1.259 . S
C391 O396 1.250 . S
C391 O397 1.263 . S
O392 Tb384 2.427 . S
O392 C388 1.275 . S
O393 Tb384 2.513 . S
O393 C388 1.246 . S
O394 Tb384 2.453 . S
O394 C390 1.245 . S
O395 Tb382 2.343 . S
O395 Tb384 2.596 . S
O395 C390 1.259 . S
O396 Tb384 2.374 . S
O396 C391 1.250 . S
O397 Tb382 2.353 . S
O397 C391 1.263 . S
C398 O399 1.275 . S
C398 O400 1.246 . S
O399 Tb382 2.427 . S
O399 C398 1.275 . S
O400 Tb382 2.513 . S
O400 C398 1.246 . S
C401 O385 1.245 . S
C401 O386 1.259 . S
Tb402 O405 2.453 . S
Tb402 O406 2.596 . S
Tb402 O407 2.374 . S
Tb402 O415 2.343 . S
Tb402 O417 2.353 . S
Tb402 O419 2.427 . S
Tb402 O420 2.513 . S
C403 O407 1.251 . S
C403 O409 1.263 . S
Tb404 O406 2.343 . S
Tb404 O409 2.353 . S
Tb404 O412 2.427 . S
Tb404 O413 2.513 . S
Tb404 O414 2.453 . S
Tb404 O415 2.596 . S
Tb404 O416 2.374 . S
O405 Tb402 2.453 . S
O405 C421 1.245 . S
O406 Tb402 2.596 . S
O406 Tb404 2.343 . S
O406 C421 1.259 . S
O407 Tb402 2.374 . S
O407 C403 1.251 . S
C408 O412 1.275 . S
C408 O413 1.246 . S
O409 C403 1.263 . S
O409 Tb404 2.353 . S
C410 O414 1.245 . S
C410 O415 1.259 . S
C411 O416 1.250 . S
C411 O417 1.263 . S
O412 Tb404 2.427 . S
O412 C408 1.275 . S
O413 Tb404 2.513 . S
O413 C408 1.246 . S
O414 Tb404 2.453 . S
O414 C410 1.245 . S
O415 Tb402 2.343 . S
O415 Tb404 2.596 . S
O415 C410 1.259 . S
O416 Tb404 2.374 . S
O416 C411 1.250 . S
O417 Tb402 2.353 . S
O417 C411 1.263 . S
C418 O419 1.275 . S
C418 O420 1.246 . S
O419 Tb402 2.427 . S
O419 C418 1.275 . S
O420 Tb402 2.513 . S
O420 C418 1.246 . S
C421 O405 1.245 . S
C421 O406 1.259 . S
Tb422 O425 2.453 . S
Tb422 O426 2.596 . S
Tb422 O427 2.374 . S
Tb422 O435 2.343 . S
Tb422 O437 2.353 . S
Tb422 O439 2.427 . S
Tb422 O440 2.513 . S
C423 O427 1.251 . S
C423 O429 1.263 . S
Tb424 O426 2.343 . S
Tb424 O429 2.353 . S
Tb424 O432 2.427 . S
Tb424 O433 2.513 . S
Tb424 O434 2.453 . S
Tb424 O435 2.596 . S
Tb424 O436 2.374 . S
O425 Tb422 2.453 . S
O425 C441 1.245 . S
O426 Tb422 2.596 . S
O426 Tb424 2.343 . S
O426 C441 1.259 . S
O427 Tb422 2.374 . S
O427 C423 1.251 . S
C428 O432 1.275 . S
C428 O433 1.246 . S
O429 C423 1.263 . S
O429 Tb424 2.353 . S
C430 O434 1.245 . S
C430 O435 1.259 . S
C431 O436 1.250 . S
C431 O437 1.263 . S
O432 Tb424 2.427 . S
O432 C428 1.275 . S
O433 Tb424 2.513 . S
O433 C428 1.246 . S
O434 Tb424 2.453 . S
O434 C430 1.245 . S
O435 Tb422 2.343 . S
O435 Tb424 2.596 . S
O435 C430 1.259 . S
O436 Tb424 2.374 . S
O436 C431 1.250 . S
O437 Tb422 2.353 . S
O437 C431 1.263 . S
C438 O439 1.275 . S
C438 O440 1.246 . S
O439 Tb422 2.427 . S
O439 C438 1.275 . S
O440 Tb422 2.513 . S
O440 C438 1.246 . S
C441 O425 1.245 . S
C441 O426 1.259 . S
Tb442 O445 2.453 . S
Tb442 O446 2.596 . S
Tb442 O447 2.374 . S
Tb442 O455 2.343 . S
Tb442 O457 2.353 . S
Tb442 O459 2.427 . S
Tb442 O460 2.513 . S
C443 O447 1.251 . S
C443 O449 1.263 . S
Tb444 O446 2.343 . S
Tb444 O449 2.353 . S
Tb444 O452 2.427 . S
Tb444 O453 2.513 . S
Tb444 O454 2.453 . S
Tb444 O455 2.596 . S
Tb444 O456 2.374 . S
O445 Tb442 2.453 . S
O445 C461 1.245 . S
O446 Tb442 2.596 . S
O446 Tb444 2.343 . S
O446 C461 1.259 . S
O447 Tb442 2.374 . S
O447 C443 1.251 . S
C448 O452 1.275 . S
C448 O453 1.246 . S
O449 C443 1.263 . S
O449 Tb444 2.353 . S
C450 O454 1.245 . S
C450 O455 1.259 . S
C451 O456 1.250 . S
C451 O457 1.263 . S
O452 Tb444 2.427 . S
O452 C448 1.275 . S
O453 Tb444 2.513 . S
O453 C448 1.246 . S
O454 Tb444 2.453 . S
O454 C450 1.245 . S
O455 Tb442 2.343 . S
O455 Tb444 2.596 . S
O455 C450 1.259 . S
O456 Tb444 2.374 . S
O456 C451 1.250 . S
O457 Tb442 2.353 . S
O457 C451 1.263 . S
C458 O459 1.275 . S
C458 O460 1.246 . S
O459 Tb442 2.427 . S
O459 C458 1.275 . S
O460 Tb442 2.513 . S
O460 C458 1.246 . S
C461 O445 1.245 . S
C461 O446 1.259 . S
Tb462 O465 2.453 . S
Tb462 O466 2.596 . S
Tb462 O467 2.374 . S
Tb462 O475 2.343 . S
Tb462 O477 2.353 . S
Tb462 O479 2.427 . S
Tb462 O480 2.513 . S
C463 O467 1.251 . S
C463 O469 1.263 . S
Tb464 O466 2.343 . S
Tb464 O469 2.353 . S
Tb464 O472 2.427 . S
Tb464 O473 2.513 . S
Tb464 O474 2.453 . S
Tb464 O475 2.596 . S
Tb464 O476 2.374 . S
O465 Tb462 2.453 . S
O465 C481 1.245 . S
O466 Tb462 2.596 . S
O466 Tb464 2.343 . S
O466 C481 1.259 . S
O467 Tb462 2.374 . S
O467 C463 1.251 . S
C468 O472 1.275 . S
C468 O473 1.246 . S
O469 C463 1.263 . S
O469 Tb464 2.353 . S
C470 O474 1.245 . S
C470 O475 1.259 . S
C471 O476 1.250 . S
C471 O477 1.263 . S
O472 Tb464 2.427 . S
O472 C468 1.275 . S
O473 Tb464 2.513 . S
O473 C468 1.246 . S
O474 Tb464 2.453 . S
O474 C470 1.245 . S
O475 Tb462 2.343 . S
O475 Tb464 2.596 . S
O475 C470 1.259 . S
O476 Tb464 2.374 . S
O476 C471 1.250 . S
O477 Tb462 2.353 . S
O477 C471 1.263 . S
C478 O479 1.275 . S
C478 O480 1.246 . S
O479 Tb462 2.427 . S
O479 C478 1.275 . S
O480 Tb462 2.513 . S
O480 C478 1.246 . S
C481 O465 1.245 . S
C481 O466 1.259 . S
Tb482 O485 2.453 . S
Tb482 O486 2.596 . S
Tb482 O487 2.374 . S
Tb482 O495 2.343 . S
Tb482 O497 2.353 . S
Tb482 O499 2.427 . S
Tb482 O500 2.513 . S
C483 O487 1.251 . S
C483 O489 1.263 . S
Tb484 O486 2.343 . S
Tb484 O489 2.353 . S
Tb484 O492 2.427 . S
Tb484 O493 2.513 . S
Tb484 O494 2.453 . S
Tb484 O495 2.596 . S
Tb484 O496 2.374 . S
O485 Tb482 2.453 . S
O485 C501 1.245 . S
O486 Tb482 2.596 . S
O486 Tb484 2.343 . S
O486 C501 1.259 . S
O487 Tb482 2.374 . S
O487 C483 1.251 . S
C488 O492 1.275 . S
C488 O493 1.246 . S
O489 C483 1.263 . S
O489 Tb484 2.353 . S
C490 O494 1.245 . S
C490 O495 1.259 . S
C491 O496 1.250 . S
C491 O497 1.263 . S
O492 Tb484 2.427 . S
O492 C488 1.275 . S
O493 Tb484 2.513 . S
O493 C488 1.246 . S
O494 Tb484 2.453 . S
O494 C490 1.245 . S
O495 Tb482 2.343 . S
O495 Tb484 2.596 . S
O495 C490 1.259 . S
O496 Tb484 2.374 . S
O496 C491 1.250 . S
O497 Tb482 2.353 . S
O497 C491 1.263 . S
C498 O499 1.275 . S
C498 O500 1.246 . S
O499 Tb482 2.427 . S
O499 C498 1.275 . S
O500 Tb482 2.513 . S
O500 C498 1.246 . S
C501 O485 1.245 . S
C501 O486 1.259 . S
Tb502 O505 2.453 . S
Tb502 O506 2.596 . S
Tb502 O507 2.374 . S
Tb502 O515 2.343 . S
Tb502 O517 2.353 . S
Tb502 O519 2.427 . S
Tb502 O520 2.513 . S
C503 O507 1.251 . S
C503 O509 1.263 . S
Tb504 O506 2.343 . S
Tb504 O509 2.353 . S
Tb504 O512 2.427 . S
Tb504 O513 2.513 . S
Tb504 O514 2.453 . S
Tb504 O515 2.596 . S
Tb504 O516 2.374 . S
O505 Tb502 2.453 . S
O505 C521 1.245 . S
O506 Tb502 2.596 . S
O506 Tb504 2.343 . S
O506 C521 1.259 . S
O507 Tb502 2.374 . S
O507 C503 1.251 . S
C508 O512 1.275 . S
C508 O513 1.246 . S
O509 C503 1.263 . S
O509 Tb504 2.353 . S
C510 O514 1.245 . S
C510 O515 1.259 . S
C511 O516 1.250 . S
C511 O517 1.263 . S
O512 Tb504 2.427 . S
O512 C508 1.275 . S
O513 Tb504 2.513 . S
O513 C508 1.246 . S
O514 Tb504 2.453 . S
O514 C510 1.245 . S
O515 Tb502 2.343 . S
O515 Tb504 2.596 . S
O515 C510 1.259 . S
O516 Tb504 2.374 . S
O516 C511 1.250 . S
O517 Tb502 2.353 . S
O517 C511 1.263 . S
C518 O519 1.275 . S
C518 O520 1.246 . S
O519 Tb502 2.427 . S
O519 C518 1.275 . S
O520 Tb502 2.513 . S
O520 C518 1.246 . S
C521 O505 1.245 . S
C521 O506 1.259 . S
H522 C530 0.929 . S
H523 C532 0.930 . S
H524 C534 0.930 . S
H525 C537 0.929 . S
H526 C540 0.930 . S
H527 C542 0.960 . S
H528 C542 0.960 . S
H529 C542 0.960 . S
C530 H522 0.929 . S
C530 C531 1.377 . S
C530 C532 1.384 . S
C531 C530 1.377 . S
C531 C537 1.390 . S
C532 H523 0.930 . S
C532 C530 1.384 . S
C532 C533 1.372 . S
C533 C532 1.372 . S
C533 C534 1.400 . S
C533 C538 1.490 . S
C534 H524 0.930 . S
C534 C533 1.400 . S
C534 C537 1.386 . S
H535 C551 0.930 . S
H536 C552 0.931 . S
C537 H525 0.929 . S
C537 C531 1.390 . S
C537 C534 1.386 . S
C538 C533 1.490 . S
C538 C540 1.395 . S
C538 C541 1.403 . S
H539 C545 0.930 . S
C540 H526 0.930 . S
C540 C538 1.395 . S
C540 C543 1.403 . S
C541 C538 1.403 . S
C541 C542 1.524 . S
C541 C545 1.400 . S
C542 H527 0.960 . S
C542 H528 0.960 . S
C542 H529 0.960 . S
C542 C541 1.524 . S
C543 C540 1.403 . S
C543 C544 1.392 . S
C543 C547 1.495 1_554 S
C544 C543 1.392 . S
C544 C545 1.385 . S
C544 C546 1.478 . S
C545 H539 0.930 . S
C545 C541 1.400 . S
C545 C544 1.385 . S
C546 C544 1.478 . S
C546 C548 1.381 . S
C546 C552 1.383 . S
C547 C543 1.495 1_556 S
C547 H553 0.959 . S
C547 H554 0.961 . S
C547 H555 0.960 . S
C548 C546 1.381 . S
C548 C549 1.394 . S
C548 H556 0.930 . S
C549 C548 1.394 . S
C549 C550 1.383 . S
C549 H557 0.929 . S
C550 C549 1.383 . S
C550 C551 1.377 . S
C551 H535 0.930 . S
C551 C550 1.377 . S
C551 C552 1.379 . S
C552 H536 0.931 . S
C552 C546 1.383 . S
C552 C551 1.379 . S
H553 C547 0.959 . S
H554 C547 0.961 . S
H555 C547 0.960 . S
H556 C548 0.930 . S
H557 C549 0.929 . S
H558 C566 0.929 . S
H559 C568 0.930 . S
H560 C570 0.930 . S
H561 C573 0.929 . S
H562 C576 0.930 . S
H563 C578 0.960 . S
H564 C578 0.960 . S
H565 C578 0.960 . S
C566 H558 0.929 . S
C566 C567 1.377 . S
C566 C568 1.384 . S
C567 C566 1.377 . S
C567 C573 1.390 . S
C568 H559 0.930 . S
C568 C566 1.384 . S
C568 C569 1.372 . S
C569 C568 1.372 . S
C569 C570 1.400 . S
C569 C574 1.490 . S
C570 H560 0.930 . S
C570 C569 1.400 . S
C570 C573 1.386 . S
H571 C587 0.930 . S
H572 C588 0.931 . S
C573 H561 0.929 . S
C573 C567 1.390 . S
C573 C570 1.386 . S
C574 C569 1.490 . S
C574 C576 1.395 . S
C574 C577 1.403 . S
H575 C581 0.930 . S
C576 H562 0.930 . S
C576 C574 1.395 . S
C576 C579 1.403 . S
C577 C574 1.403 . S
C577 C578 1.524 . S
C577 C581 1.400 . S
C578 H563 0.960 . S
C578 H564 0.960 . S
C578 H565 0.960 . S
C578 C577 1.524 . S
C579 C576 1.403 . S
C579 C580 1.392 . S
C579 C583 1.495 . S
C580 C579 1.392 . S
C580 C581 1.385 . S
C580 C582 1.478 . S
C581 H575 0.930 . S
C581 C577 1.400 . S
C581 C580 1.385 . S
C582 C580 1.478 . S
C582 C584 1.381 . S
C582 C588 1.383 . S
C583 C579 1.495 . S
C583 H589 0.959 . S
C583 H590 0.961 . S
C583 H591 0.960 . S
C584 C582 1.381 . S
C584 C585 1.394 . S
C584 H592 0.930 . S
C585 C584 1.394 . S
C585 C586 1.383 . S
C585 H593 0.929 . S
C586 C585 1.383 . S
C586 C587 1.377 . S
C587 H571 0.930 . S
C587 C586 1.377 . S
C587 C588 1.379 . S
C588 H572 0.931 . S
C588 C582 1.383 . S
C588 C587 1.379 . S
H589 C583 0.959 . S
H590 C583 0.961 . S
H591 C583 0.960 . S
H592 C584 0.930 . S
H593 C585 0.929 . S
H594 C602 0.929 . S
H595 C604 0.930 . S
H596 C606 0.930 . S
H597 C609 0.929 . S
H598 C612 0.930 . S
H599 C614 0.960 . S
H600 C614 0.960 . S
H601 C614 0.960 . S
C602 H594 0.929 . S
C602 C603 1.377 . S
C602 C604 1.384 . S
C603 C602 1.377 . S
C603 C609 1.390 . S
C604 H595 0.930 . S
C604 C602 1.384 . S
C604 C605 1.372 . S
C605 C604 1.372 . S
C605 C606 1.400 . S
C605 C610 1.490 . S
C606 H596 0.930 . S
C606 C605 1.400 . S
C606 C609 1.386 . S
H607 C623 0.930 . S
H608 C624 0.931 . S
C609 H597 0.929 . S
C609 C603 1.390 . S
C609 C606 1.386 . S
C610 C605 1.490 . S
C610 C612 1.395 . S
C610 C613 1.403 . S
H611 C617 0.930 . S
C612 H598 0.930 . S
C612 C610 1.395 . S
C612 C615 1.403 . S
C613 C610 1.403 . S
C613 C614 1.524 . S
C613 C617 1.400 . S
C614 H599 0.960 . S
C614 H600 0.960 . S
C614 H601 0.960 . S
C614 C613 1.524 . S
C615 C612 1.403 . S
C615 C616 1.392 . S
C615 C619 1.495 . S
C616 C615 1.392 . S
C616 C617 1.385 . S
C616 C618 1.478 . S
C617 H611 0.930 . S
C617 C613 1.400 . S
C617 C616 1.385 . S
C618 C616 1.478 . S
C618 C620 1.381 . S
C618 C624 1.383 . S
C619 C615 1.495 . S
C619 H625 0.959 . S
C619 H626 0.961 1_554 S
C619 H627 0.960 . S
C620 C618 1.381 . S
C620 C621 1.394 . S
C620 H628 0.930 . S
C621 C620 1.394 . S
C621 C622 1.383 . S
C621 H629 0.929 . S
C622 C621 1.383 . S
C622 C623 1.377 . S
C623 H607 0.930 . S
C623 C622 1.377 . S
C623 C624 1.379 . S
C624 H608 0.931 . S
C624 C618 1.383 . S
C624 C623 1.379 . S
H625 C619 0.959 . S
H626 C619 0.961 1_556 S
H627 C619 0.960 . S
H628 C620 0.930 . S
H629 C621 0.929 . S
H630 C638 0.929 . S
H631 C640 0.929 1_554 S
H632 C642 0.930 . S
H633 C645 0.929 . S
H634 C648 0.930 . S
H635 C650 0.960 . S
H636 C650 0.950 1_554 S
H637 C650 0.960 . S
C638 H630 0.929 . S
C638 C639 1.377 . S
C638 C640 1.384 . S
C639 C638 1.377 . S
C639 C645 1.390 . S
C640 H631 0.929 1_556 S
C640 C638 1.384 . S
C640 C641 1.372 . S
C641 C640 1.372 . S
C641 C642 1.400 . S
C641 C646 1.490 . S
C642 H632 0.930 . S
C642 C641 1.400 . S
C642 C645 1.386 . S
H643 C659 0.930 . S
H644 C660 0.931 . S
C645 H633 0.929 . S
C645 C639 1.390 . S
C645 C642 1.386 . S
C646 C641 1.490 . S
C646 C648 1.395 . S
C646 C649 1.403 . S
H647 C653 0.930 . S
C648 H634 0.930 . S
C648 C646 1.395 . S
C648 C651 1.403 . S
C649 C646 1.403 . S
C649 C650 1.524 . S
C649 C653 1.400 . S
C650 H635 0.960 . S
C650 H636 0.950 1_556 S
C650 H637 0.960 . S
C650 C649 1.524 . S
C651 C648 1.403 . S
C651 C652 1.392 . S
C651 C655 1.495 . S
C652 C651 1.392 . S
C652 C653 1.385 . S
C652 C654 1.478 . S
C653 H647 0.930 . S
C653 C649 1.400 . S
C653 C652 1.385 . S
C654 C652 1.478 . S
C654 C656 1.381 1_556 S
C654 C660 1.383 . S
C655 C651 1.495 . S
C655 H661 0.959 . S
C655 H662 0.961 . S
C655 H663 0.960 . S
C656 C654 1.381 1_554 S
C656 C657 1.394 . S
C656 H664 0.930 . S
C657 C656 1.394 . S
C657 C658 1.374 1_554 S
C657 H665 0.929 . S
C658 C657 1.374 1_556 S
C658 C659 1.388 . S
C659 H643 0.930 . S
C659 C658 1.388 . S
C659 C660 1.379 . S
C660 H644 0.931 . S
C660 C654 1.383 . S
C660 C659 1.379 . S
H661 C655 0.959 . S
H662 C655 0.961 . S
H663 C655 0.960 . S
H664 C656 0.930 . S
H665 C657 0.929 . S
H666 C674 0.929 . S
H667 C676 0.930 . S
H668 C678 0.930 . S
H669 C681 0.929 . S
H670 C684 0.930 . S
H671 C686 0.960 . S
H672 C686 0.960 . S
H673 C686 0.960 . S
C674 H666 0.929 . S
C674 C675 1.377 . S
C674 C676 1.384 . S
C675 C674 1.377 . S
C675 C681 1.390 . S
C676 H667 0.930 . S
C676 C674 1.384 . S
C676 C677 1.372 . S
C677 C676 1.372 . S
C677 C678 1.400 . S
C677 C682 1.490 . S
C678 H668 0.930 . S
C678 C677 1.400 . S
C678 C681 1.386 . S
H679 C695 0.930 . S
H680 C696 0.931 . S
C681 H669 0.929 . S
C681 C675 1.390 . S
C681 C678 1.386 . S
C682 C677 1.490 . S
C682 C684 1.395 . S
C682 C685 1.403 . S
H683 C689 0.930 . S
C684 H670 0.930 . S
C684 C682 1.395 . S
C684 C687 1.403 . S
C685 C682 1.403 . S
C685 C686 1.524 . S
C685 C689 1.400 . S
C686 H671 0.960 . S
C686 H672 0.960 . S
C686 H673 0.960 . S
C686 C685 1.524 . S
C687 C684 1.403 . S
C687 C688 1.392 . S
C687 C691 1.495 . S
C688 C687 1.392 . S
C688 C689 1.385 . S
C688 C690 1.478 . S
C689 H683 0.930 . S
C689 C685 1.400 . S
C689 C688 1.385 . S
C690 C688 1.478 . S
C690 C692 1.381 1_556 S
C690 C696 1.383 . S
C691 C687 1.495 . S
C691 H697 0.959 . S
C691 H698 0.961 . S
C691 H699 0.960 1_556 S
C692 C690 1.381 1_554 S
C692 C693 1.394 . S
C692 H700 0.930 . S
C693 C692 1.394 . S
C693 C694 1.383 1_554 S
C693 H701 0.929 . S
C694 C693 1.383 1_556 S
C694 C695 1.377 . S
C695 H679 0.930 . S
C695 C694 1.377 . S
C695 C696 1.379 . S
C696 H680 0.931 . S
C696 C690 1.383 . S
C696 C695 1.379 . S
H697 C691 0.959 . S
H698 C691 0.961 . S
H699 C691 0.960 1_554 S
H700 C692 0.930 . S
H701 C693 0.929 . S
H702 C710 0.929 1_554 S
H703 C712 0.927 1_554 S
H704 C714 0.930 . S
H705 C717 0.929 . S
H706 C720 0.930 . S
H707 C722 0.960 . S
H708 C722 0.960 . S
H709 C722 0.960 1_556 S
C710 H702 0.929 1_556 S
C710 C711 1.377 . S
C710 C712 1.385 . S
C711 C710 1.377 . S
C711 C717 1.390 . S
C712 H703 0.927 1_556 S
C712 C710 1.385 . S
C712 C713 1.374 . S
C713 C712 1.374 . S
C713 C714 1.400 . S
C713 C718 1.490 . S
C714 H704 0.930 . S
C714 C713 1.400 . S
C714 C717 1.386 . S
H715 C731 0.930 . S
H716 C732 0.931 . S
C717 H705 0.929 . S
C717 C711 1.390 . S
C717 C714 1.386 . S
C718 C713 1.490 . S
C718 C720 1.395 . S
C718 C721 1.402 . S
H719 C725 0.930 . S
C720 H706 0.930 . S
C720 C718 1.395 . S
C720 C723 1.403 . S
C721 C718 1.402 . S
C721 C722 1.524 1_556 S
C721 C725 1.400 1_556 S
C722 H707 0.960 . S
C722 H708 0.960 . S
C722 H709 0.960 1_554 S
C722 C721 1.524 1_554 S
C723 C720 1.403 . S
C723 C724 1.392 . S
C723 C727 1.495 . S
C724 C723 1.392 . S
C724 C725 1.385 1_556 S
C724 C726 1.487 . S
C725 H719 0.930 . S
C725 C721 1.400 1_554 S
C725 C724 1.385 1_554 S
C726 C724 1.487 . S
C726 C728 1.339 1_556 S
C726 C732 1.415 . S
C727 C723 1.495 . S
C727 H733 0.959 . S
C727 H734 0.961 . S
C727 H735 0.960 . S
C728 C726 1.339 1_554 S
C728 C729 1.394 . S
C728 H736 0.930 . S
C729 C728 1.394 . S
C729 C730 1.383 . S
C729 H737 0.929 . S
C730 C729 1.383 . S
C730 C731 1.377 1_554 S
C731 H715 0.930 . S
C731 C730 1.377 1_556 S
C731 C732 1.379 . S
C732 H716 0.931 . S
C732 C726 1.415 . S
C732 C731 1.379 . S
H733 C727 0.959 . S
H734 C727 0.961 . S
H735 C727 0.960 . S
H736 C728 0.930 . S
H737 C729 0.929 . S
H738 C746 0.929 . S
H739 C748 0.930 . S
H740 C750 0.930 1_554 S
H741 C753 0.929 1_554 S
H742 C756 0.930 . S
H743 C758 0.960 . S
H744 C758 0.960 . S
H745 C758 0.960 . S
C746 H738 0.929 . S
C746 C747 1.377 . S
C746 C748 1.384 . S
C747 C746 1.377 . S
C747 C753 1.390 . S
C748 H739 0.930 . S
C748 C746 1.384 . S
C748 C749 1.372 . S
C749 C748 1.372 . S
C749 C750 1.400 . S
C749 C754 1.490 . S
C750 H740 0.930 1_556 S
C750 C749 1.400 . S
C750 C753 1.386 . S
H751 C767 0.930 . S
H752 C768 0.931 . S
C753 H741 0.929 1_556 S
C753 C747 1.390 . S
C753 C750 1.386 . S
C754 C749 1.490 . S
C754 C756 1.395 . S
C754 C757 1.403 . S
H755 C761 0.930 1_554 S
C756 H742 0.930 . S
C756 C754 1.395 . S
C756 C759 1.403 . S
C757 C754 1.403 . S
C757 C758 1.524 1_556 S
C757 C761 1.400 . S
C758 H743 0.960 . S
C758 H744 0.960 . S
C758 H745 0.960 . S
C758 C757 1.524 1_554 S
C759 C756 1.403 . S
C759 C760 1.392 . S
C759 C763 1.495 . S
C760 C759 1.392 . S
C760 C761 1.385 . S
C760 C762 1.478 . S
C761 H755 0.930 1_556 S
C761 C757 1.400 . S
C761 C760 1.385 . S
C762 C760 1.478 . S
C762 C764 1.381 . S
C762 C768 1.383 1_556 S
C763 C759 1.495 . S
C763 H769 0.959 . S
C763 H770 0.961 . S
C763 H771 0.960 . S
C764 C762 1.381 . S
C764 C765 1.394 . S
C764 H772 0.930 . S
C765 C764 1.394 . S
C765 C766 1.383 . S
C765 H773 0.929 . S
C766 C765 1.383 . S
C766 C767 1.377 1_556 S
C767 H751 0.930 . S
C767 C766 1.377 1_554 S
C767 C768 1.379 . S
C768 H752 0.931 . S
C768 C762 1.383 1_554 S
C768 C767 1.379 . S
H769 C763 0.959 . S
H770 C763 0.961 . S
H771 C763 0.960 . S
H772 C764 0.930 . S
H773 C765 0.929 . S
H774 C782 0.929 . S
H775 C784 0.930 . S
H776 C786 0.930 . S
H777 C789 0.929 . S
H778 C792 0.930 . S
H779 C794 0.960 . S
H780 C794 0.960 . S
H781 C794 0.960 . S
C782 H774 0.929 . S
C782 C783 1.377 . S
C782 C784 1.384 . S
C783 C782 1.377 . S
C783 C789 1.390 . S
C784 H775 0.930 . S
C784 C782 1.384 . S
C784 C785 1.372 . S
C785 C784 1.372 . S
C785 C786 1.400 . S
C785 C790 1.490 . S
C786 H776 0.930 . S
C786 C785 1.400 . S
C786 C789 1.386 . S
H787 C803 0.930 . S
H788 C804 0.931 . S
C789 H777 0.929 . S
C789 C783 1.390 . S
C789 C786 1.386 . S
C790 C785 1.490 . S
C790 C792 1.395 . S
C790 C793 1.403 . S
H791 C797 0.930 . S
C792 H778 0.930 . S
C792 C790 1.395 . S
C792 C795 1.403 . S
C793 C790 1.403 . S
C793 C794 1.524 . S
C793 C797 1.400 . S
C794 H779 0.960 . S
C794 H780 0.960 . S
C794 H781 0.960 . S
C794 C793 1.524 . S
C795 C792 1.403 . S
C795 C796 1.392 . S
C795 C799 1.495 1_556 S
C796 C795 1.392 . S
C796 C797 1.385 . S
C796 C798 1.478 . S
C797 H791 0.930 . S
C797 C793 1.400 . S
C797 C796 1.385 . S
C798 C796 1.478 . S
C798 C800 1.381 . S
C798 C804 1.383 . S
C799 C795 1.495 1_554 S
C799 H805 0.959 . S
C799 H806 0.961 . S
C799 H807 0.960 . S
C800 C798 1.381 . S
C800 C801 1.393 1_556 S
C800 H808 0.930 1_556 S
C801 C800 1.393 1_554 S
C801 C802 1.372 1_554 S
C801 H809 0.942 . S
C802 C801 1.372 1_556 S
C802 C803 1.377 . S
C803 H787 0.930 . S
C803 C802 1.377 . S
C803 C804 1.379 . S
C804 H788 0.931 . S
C804 C798 1.383 . S
C804 C803 1.379 . S
H805 C799 0.959 . S
H806 C799 0.961 . S
H807 C799 0.960 . S
H808 C800 0.930 1_554 S
H809 C801 0.942 . S
H810 C818 0.929 . S
H811 C820 0.930 . S
H812 C822 0.930 . S
H813 C825 0.929 . S
H814 C828 0.930 . S
H815 C830 0.965 . S
H816 C830 0.960 . S
H817 C830 0.960 1_556 S
C818 H810 0.929 . S
C818 C819 1.355 1_554 S
C818 C820 1.384 . S
C819 C818 1.355 1_556 S
C819 C825 1.413 . S
C820 H811 0.930 . S
C820 C818 1.384 . S
C820 C821 1.372 . S
C821 C820 1.372 . S
C821 C822 1.400 1_554 S
C821 C826 1.490 . S
C822 H812 0.930 . S
C822 C821 1.400 1_556 S
C822 C825 1.386 . S
H823 C839 0.930 . S
H824 C840 0.931 . S
C825 H813 0.929 . S
C825 C819 1.413 . S
C825 C822 1.386 . S
C826 C821 1.490 . S
C826 C828 1.395 . S
C826 C829 1.403 . S
H827 C833 0.930 . S
C828 H814 0.930 . S
C828 C826 1.395 . S
C828 C831 1.403 . S
C829 C826 1.403 . S
C829 C830 1.524 . S
C829 C833 1.400 . S
C830 H815 0.965 . S
C830 H816 0.960 . S
C830 H817 0.960 1_554 S
C830 C829 1.524 . S
C831 C828 1.403 . S
C831 C832 1.392 . S
C831 C835 1.495 . S
C832 C831 1.392 . S
C832 C833 1.385 . S
C832 C834 1.478 . S
C833 H827 0.930 . S
C833 C829 1.400 . S
C833 C832 1.385 . S
C834 C832 1.478 . S
C834 C836 1.381 . S
C834 C840 1.383 1_554 S
C835 C831 1.495 . S
C835 H841 0.959 . S
C835 H842 0.956 . S
C835 H843 0.960 . S
C836 C834 1.381 . S
C836 C837 1.394 . S
C836 H844 0.930 . S
C837 C836 1.394 . S
C837 C838 1.383 . S
C837 H845 0.929 . S
C838 C837 1.383 . S
C838 C839 1.377 1_554 S
C839 H823 0.930 . S
C839 C838 1.377 1_556 S
C839 C840 1.379 . S
C840 H824 0.931 . S
C840 C834 1.383 1_556 S
C840 C839 1.379 . S
H841 C835 0.959 . S
H842 C835 0.956 . S
H843 C835 0.960 . S
H844 C836 0.930 . S
H845 C837 0.929 . S
H846 C854 0.929 . S
H847 C856 0.930 . S
H848 C858 0.930 . S
H849 C861 0.929 . S
H850 C864 0.930 . S
H851 C866 0.960 . S
H852 C866 0.960 . S
H853 C866 0.960 1_554 S
C854 H846 0.929 . S
C854 C855 1.377 . S
C854 C856 1.384 . S
C855 C854 1.377 . S
C855 C861 1.390 . S
C856 H847 0.930 . S
C856 C854 1.384 . S
C856 C857 1.372 . S
C857 C856 1.372 . S
C857 C858 1.400 . S
C857 C862 1.490 . S
C858 H848 0.930 . S
C858 C857 1.400 . S
C858 C861 1.386 . S
H859 C875 0.930 . S
H860 C876 0.931 . S
C861 H849 0.929 . S
C861 C855 1.390 . S
C861 C858 1.386 . S
C862 C857 1.490 . S
C862 C864 1.395 . S
C862 C865 1.403 . S
H863 C869 0.930 . S
C864 H850 0.930 . S
C864 C862 1.395 . S
C864 C867 1.403 . S
C865 C862 1.403 . S
C865 C866 1.524 1_554 S
C865 C869 1.400 . S
C866 H851 0.960 . S
C866 H852 0.960 . S
C866 H853 0.960 1_556 S
C866 C865 1.524 1_556 S
C867 C864 1.403 . S
C867 C868 1.392 . S
C867 C871 1.495 . S
C868 C867 1.392 . S
C868 C869 1.385 . S
C868 C870 1.478 . S
C869 H863 0.930 . S
C869 C865 1.400 . S
C869 C868 1.385 . S
C870 C868 1.478 . S
C870 C872 1.381 . S
C870 C876 1.383 . S
C871 C867 1.495 . S
C871 H877 0.959 . S
C871 H878 0.961 . S
C871 H879 0.960 . S
C872 C870 1.381 . S
C872 C873 1.394 . S
C872 H880 0.930 . S
C873 C872 1.394 . S
C873 C874 1.383 . S
C873 H881 0.929 . S
C874 C873 1.383 . S
C874 C875 1.377 . S
C875 H859 0.930 . S
C875 C874 1.377 . S
C875 C876 1.379 . S
C876 H860 0.931 . S
C876 C870 1.383 . S
C876 C875 1.379 . S
H877 C871 0.959 . S
H878 C871 0.961 . S
H879 C871 0.960 . S
H880 C872 0.930 . S
H881 C873 0.929 . S
H882 C890 0.929 . S
H883 C892 0.930 . S
H884 C894 0.930 . S
H885 C897 0.929 . S
H886 C900 0.930 . S
H887 C902 0.960 . S
H888 C902 0.960 . S
H889 C902 0.960 . S
C890 H882 0.929 . S
C890 C891 1.377 . S
C890 C892 1.384 . S
C891 C890 1.377 . S
C891 C897 1.390 . S
C892 H883 0.930 . S
C892 C890 1.384 . S
C892 C893 1.372 . S
C893 C892 1.372 . S
C893 C894 1.400 . S
C893 C898 1.490 . S
C894 H884 0.930 . S
C894 C893 1.400 . S
C894 C897 1.386 . S
H895 C911 0.930 . S
H896 C912 0.931 . S
C897 H885 0.929 . S
C897 C891 1.390 . S
C897 C894 1.386 . S
C898 C893 1.490 . S
C898 C900 1.395 . S
C898 C901 1.403 . S
H899 C905 0.930 . S
C900 H886 0.930 . S
C900 C898 1.395 . S
C900 C903 1.403 . S
C901 C898 1.403 . S
C901 C902 1.524 . S
C901 C905 1.400 . S
C902 H887 0.960 . S
C902 H888 0.960 . S
C902 H889 0.960 . S
C902 C901 1.524 . S
C903 C900 1.403 . S
C903 C904 1.392 . S
C903 C907 1.495 . S
C904 C903 1.392 . S
C904 C905 1.385 . S
C904 C906 1.478 . S
C905 H899 0.930 . S
C905 C901 1.400 . S
C905 C904 1.385 . S
C906 C904 1.478 . S
C906 C908 1.381 . S
C906 C912 1.383 . S
C907 C903 1.495 . S
C907 H913 0.959 . S
C907 H914 0.961 . S
C907 H915 0.960 . S
C908 C906 1.381 . S
C908 C909 1.394 . S
C908 H916 0.930 . S
C909 C908 1.394 . S
C909 C910 1.383 . S
C909 H917 0.929 . S
C910 C909 1.383 . S
C910 C911 1.377 . S
C911 H895 0.930 . S
C911 C910 1.377 . S
C911 C912 1.379 . S
C912 H896 0.931 . S
C912 C906 1.383 . S
C912 C911 1.379 . S
H913 C907 0.959 . S
H914 C907 0.961 . S
H915 C907 0.960 . S
H916 C908 0.930 . S
H917 C909 0.929 . S
H918 C926 0.929 . S
H919 C928 0.930 . S
H920 C930 0.930 . S
H921 C933 0.929 . S
H922 C936 0.930 . S
H923 C938 0.960 . S
H924 C938 0.960 . S
H925 C938 0.960 . S
C926 H918 0.929 . S
C926 C927 1.377 . S
C926 C928 1.384 . S
C927 C926 1.377 . S
C927 C933 1.390 . S
C928 H919 0.930 . S
C928 C926 1.384 . S
C928 C929 1.372 . S
C929 C928 1.372 . S
C929 C930 1.400 . S
C929 C934 1.490 . S
C930 H920 0.930 . S
C930 C929 1.400 . S
C930 C933 1.386 . S
H931 C947 0.930 . S
H932 C948 0.931 . S
C933 H921 0.929 . S
C933 C927 1.390 . S
C933 C930 1.386 . S
C934 C929 1.490 . S
C934 C936 1.395 . S
C934 C937 1.403 . S
H935 C941 0.930 . S
C936 H922 0.930 . S
C936 C934 1.395 . S
C936 C939 1.403 . S
C937 C934 1.403 . S
C937 C938 1.524 . S
C937 C941 1.400 . S
C938 H923 0.960 . S
C938 H924 0.960 . S
C938 H925 0.960 . S
C938 C937 1.524 . S
C939 C936 1.403 . S
C939 C940 1.392 . S
C939 C943 1.495 . S
C940 C939 1.392 . S
C940 C941 1.385 . S
C940 C942 1.478 . S
C941 H935 0.930 . S
C941 C937 1.400 . S
C941 C940 1.385 . S
C942 C940 1.478 . S
C942 C944 1.381 . S
C942 C948 1.383 . S
C943 C939 1.495 . S
C943 H949 0.959 . S
C943 H950 0.961 . S
C943 H951 0.960 . S
C944 C942 1.381 . S
C944 C945 1.395 . S
C944 H952 0.930 1_554 S
C945 C944 1.395 . S
C945 C946 1.388 . S
C945 H953 0.923 1_554 S
C946 C945 1.388 . S
C946 C947 1.377 . S
C947 H931 0.930 . S
C947 C946 1.377 . S
C947 C948 1.379 . S
C948 H932 0.931 . S
C948 C942 1.383 . S
C948 C947 1.379 . S
H949 C943 0.959 . S
H950 C943 0.961 . S
H951 C943 0.960 . S
H952 C944 0.930 1_556 S
H953 C945 0.923 1_556 S
H954 C962 0.929 . S
H955 C964 0.930 . S
H956 C966 0.930 . S
H957 C969 0.929 . S
H958 C972 0.930 . S
H959 C974 0.960 . S
H960 C974 0.960 . S
H961 C974 0.960 . S
C962 H954 0.929 . S
C962 C963 1.377 . S
C962 C964 1.384 . S
C963 C962 1.377 . S
C963 C969 1.390 . S
C964 H955 0.930 . S
C964 C962 1.384 . S
C964 C965 1.372 . S
C965 C964 1.372 . S
C965 C966 1.400 . S
C965 C970 1.490 . S
C966 H956 0.930 . S
C966 C965 1.400 . S
C966 C969 1.386 . S
H967 C983 0.930 . S
H968 C984 0.931 . S
C969 H957 0.929 . S
C969 C963 1.390 . S
C969 C966 1.386 . S
C970 C965 1.490 . S
C970 C972 1.395 . S
C970 C973 1.403 . S
H971 C977 0.939 1_455 S
C972 H958 0.930 . S
C972 C970 1.395 . S
C972 C975 1.403 1_655 S
C973 C970 1.403 . S
C973 C974 1.524 . S
C973 C977 1.423 . S
C974 H959 0.960 . S
C974 H960 0.960 . S
C974 H961 0.960 . S
C974 C973 1.524 . S
C975 C972 1.403 1_455 S
C975 C976 1.392 . S
C975 C979 1.495 . S
C976 C975 1.392 . S
C976 C977 1.354 1_455 S
C976 C978 1.478 . S
C977 H971 0.939 1_655 S
C977 C973 1.423 . S
C977 C976 1.354 1_655 S
C978 C976 1.478 . S
C978 C980 1.381 . S
C978 C984 1.383 . S
C979 C975 1.495 . S
C979 H985 0.959 . S
C979 H986 0.961 . S
C979 H987 0.960 . S
C980 C978 1.381 . S
C980 C981 1.394 . S
C980 H988 0.930 . S
C981 C980 1.394 . S
C981 C982 1.383 . S
C981 H989 0.929 . S
C982 C981 1.383 . S
C982 C983 1.377 . S
C983 H967 0.930 . S
C983 C982 1.377 . S
C983 C984 1.379 . S
C984 H968 0.931 . S
C984 C978 1.383 . S
C984 C983 1.379 . S
H985 C979 0.959 . S
H986 C979 0.961 . S
H987 C979 0.960 . S
H988 C980 0.930 . S
H989 C981 0.929 . S
H990 C998 0.929 . S
H991 C1000 0.930 . S
H992 C1002 0.930 . S
H993 C1005 0.929 . S
H994 C1008 0.930 . S
H995 C1010 0.960 . S
H996 C1010 0.960 . S
H997 C1010 0.960 . S
C998 H990 0.929 . S
C998 C999 1.377 . S
C998 C1000 1.384 . S
C999 C998 1.377 . S
C999 C1005 1.390 . S
C1000 H991 0.930 . S
C1000 C998 1.384 . S
C1000 C1001 1.372 . S
C1001 C1000 1.372 . S
C1001 C1002 1.400 . S
C1001 C1006 1.490 . S
C1002 H992 0.930 . S
C1002 C1001 1.400 . S
C1002 C1005 1.386 . S
H1003 C1019 0.930 . S
H1004 C1020 0.931 . S
C1005 H993 0.929 . S
C1005 C999 1.390 . S
C1005 C1002 1.386 . S
C1006 C1001 1.490 . S
C1006 C1008 1.395 . S
C1006 C1009 1.403 . S
H1007 C1013 0.930 . S
C1008 H994 0.930 . S
C1008 C1006 1.395 . S
C1008 C1011 1.403 . S
C1009 C1006 1.403 . S
C1009 C1010 1.524 . S
C1009 C1013 1.400 . S
C1010 H995 0.960 . S
C1010 H996 0.960 . S
C1010 H997 0.960 . S
C1010 C1009 1.524 . S
C1011 C1008 1.403 . S
C1011 C1012 1.392 . S
C1011 C1015 1.495 . S
C1012 C1011 1.392 . S
C1012 C1013 1.385 . S
C1012 C1014 1.478 . S
C1013 H1007 0.930 . S
C1013 C1009 1.400 . S
C1013 C1012 1.385 . S
C1014 C1012 1.478 . S
C1014 C1016 1.381 . S
C1014 C1020 1.383 . S
C1015 C1011 1.495 . S
C1015 H1021 0.959 . S
C1015 H1022 0.961 . S
C1015 H1023 0.960 . S
C1016 C1014 1.381 . S
C1016 C1017 1.394 . S
C1016 H1024 0.930 . S
C1017 C1016 1.394 . S
C1017 C1018 1.383 . S
C1017 H1025 0.929 . S
C1018 C1017 1.383 . S
C1018 C1019 1.377 . S
C1019 H1003 0.930 . S
C1019 C1018 1.377 . S
C1019 C1020 1.379 . S
C1020 H1004 0.931 . S
C1020 C1014 1.383 . S
C1020 C1019 1.379 . S
H1021 C1015 0.959 . S
H1022 C1015 0.961 . S
H1023 C1015 0.960 . S
H1024 C1016 0.930 . S
H1025 C1017 0.929 . S
H1026 C1034 0.929 . S
H1027 C1036 0.930 . S
H1028 C1038 0.930 . S
H1029 C1041 0.929 . S
H1030 C1044 0.930 . S
H1031 C1046 0.960 . S
H1032 C1046 0.960 . S
H1033 C1046 0.960 . S
C1034 H1026 0.929 . S
C1034 C1035 1.377 . S
C1034 C1036 1.384 . S
C1035 C1034 1.377 . S
C1035 C1041 1.390 . S
C1036 H1027 0.930 . S
C1036 C1034 1.384 . S
C1036 C1037 1.372 . S
C1037 C1036 1.372 . S
C1037 C1038 1.400 . S
C1037 C1042 1.490 . S
C1038 H1028 0.930 . S
C1038 C1037 1.400 . S
C1038 C1041 1.386 . S
H1039 C1055 0.930 . S
H1040 C1056 0.931 . S
C1041 H1029 0.929 . S
C1041 C1035 1.390 . S
C1041 C1038 1.386 . S
C1042 C1037 1.490 . S
C1042 C1044 1.395 . S
C1042 C1045 1.403 . S
H1043 C1049 0.930 . S
C1044 H1030 0.930 . S
C1044 C1042 1.395 . S
C1044 C1047 1.403 1_545 S
C1045 C1042 1.403 . S
C1045 C1046 1.524 . S
C1045 C1049 1.400 1_545 S
C1046 H1031 0.960 . S
C1046 H1032 0.960 . S
C1046 H1033 0.960 . S
C1046 C1045 1.524 . S
C1047 C1044 1.403 1_565 S
C1047 C1048 1.392 . S
C1047 C1051 1.495 . S
C1048 C1047 1.392 . S
C1048 C1049 1.385 . S
C1048 C1050 1.478 . S
C1049 H1043 0.930 . S
C1049 C1045 1.400 1_565 S
C1049 C1048 1.385 . S
C1050 C1048 1.478 . S
C1050 C1052 1.381 . S
C1050 C1056 1.383 . S
C1051 C1047 1.495 . S
C1051 H1057 0.959 . S
C1051 H1058 0.961 . S
C1051 H1059 0.960 . S
C1052 C1050 1.381 . S
C1052 C1053 1.394 . S
C1052 H1060 0.930 . S
C1053 C1052 1.394 . S
C1053 C1054 1.383 . S
C1053 H1061 0.929 . S
C1054 C1053 1.383 . S
C1054 C1055 1.377 . S
C1055 H1039 0.930 . S
C1055 C1054 1.377 . S
C1055 C1056 1.379 . S
C1056 H1040 0.931 . S
C1056 C1050 1.383 . S
C1056 C1055 1.379 . S
H1057 C1051 0.959 . S
H1058 C1051 0.961 . S
H1059 C1051 0.960 . S
H1060 C1052 0.930 . S
H1061 C1053 0.929 . S
H1062 C1070 0.929 . S
H1063 C1072 0.930 . S
H1064 C1074 0.930 . S
H1065 C1077 0.929 . S
H1066 C1080 0.930 . S
H1067 C1082 0.960 . S
H1068 C1082 0.960 . S
H1069 C1082 0.960 . S
C1070 H1062 0.929 . S
C1070 C1071 1.377 . S
C1070 C1072 1.384 . S
C1071 C1070 1.377 . S
C1071 C1077 1.390 . S
C1072 H1063 0.930 . S
C1072 C1070 1.384 . S
C1072 C1073 1.372 . S
C1073 C1072 1.372 . S
C1073 C1074 1.400 . S
C1073 C1078 1.490 . S
C1074 H1064 0.930 . S
C1074 C1073 1.400 . S
C1074 C1077 1.386 . S
H1075 C1091 0.930 . S
H1076 C1092 0.931 . S
C1077 H1065 0.929 . S
C1077 C1071 1.390 . S
C1077 C1074 1.386 . S
C1078 C1073 1.490 . S
C1078 C1080 1.395 . S
C1078 C1081 1.403 . S
H1079 C1085 0.930 . S
C1080 H1066 0.930 . S
C1080 C1078 1.395 . S
C1080 C1083 1.403 . S
C1081 C1078 1.403 . S
C1081 C1082 1.524 . S
C1081 C1085 1.400 . S
C1082 H1067 0.960 . S
C1082 H1068 0.960 . S
C1082 H1069 0.960 . S
C1082 C1081 1.524 . S
C1083 C1080 1.403 . S
C1083 C1084 1.392 . S
C1083 C1087 1.495 . S
C1084 C1083 1.392 . S
C1084 C1085 1.385 . S
C1084 C1086 1.478 . S
C1085 H1079 0.930 . S
C1085 C1081 1.400 . S
C1085 C1084 1.385 . S
C1086 C1084 1.478 . S
C1086 C1088 1.381 . S
C1086 C1092 1.383 . S
C1087 C1083 1.495 . S
C1087 H1093 0.959 . S
C1087 H1094 0.961 . S
C1087 H1095 0.960 . S
C1088 C1086 1.381 . S
C1088 C1089 1.394 . S
C1088 H1096 0.930 . S
C1089 C1088 1.394 . S
C1089 C1090 1.383 . S
C1089 H1097 0.929 . S
C1090 C1089 1.383 . S
C1090 C1091 1.377 . S
C1091 H1075 0.930 . S
C1091 C1090 1.377 . S
C1091 C1092 1.379 . S
C1092 H1076 0.931 . S
C1092 C1086 1.383 . S
C1092 C1091 1.379 . S
H1093 C1087 0.959 . S
H1094 C1087 0.961 . S
H1095 C1087 0.960 . S
H1096 C1088 0.930 . S
H1097 C1089 0.929 . S
H1098 C1106 0.929 . S
H1099 C1108 0.930 . S
H1100 C1110 0.930 . S
H1101 C1113 0.929 . S
H1102 C1116 0.930 . S
H1103 C1118 0.960 . S
H1104 C1118 0.960 . S
H1105 C1118 0.960 . S
C1106 H1098 0.929 . S
C1106 C1107 1.377 . S
C1106 C1108 1.384 . S
C1107 C1106 1.377 . S
C1107 C1113 1.390 . S
C1108 H1099 0.930 . S
C1108 C1106 1.384 . S
C1108 C1109 1.372 . S
C1109 C1108 1.372 . S
C1109 C1110 1.400 . S
C1109 C1114 1.490 . S
C1110 H1100 0.930 . S
C1110 C1109 1.400 . S
C1110 C1113 1.386 . S
H1111 C1127 0.930 . S
H1112 C1128 0.931 . S
C1113 H1101 0.929 . S
C1113 C1107 1.390 . S
C1113 C1110 1.386 . S
C1114 C1109 1.490 . S
C1114 C1116 1.395 . S
C1114 C1117 1.403 . S
H1115 C1121 0.930 . S
C1116 H1102 0.930 . S
C1116 C1114 1.395 . S
C1116 C1119 1.403 . S
C1117 C1114 1.403 . S
C1117 C1118 1.524 . S
C1117 C1121 1.400 . S
C1118 H1103 0.960 . S
C1118 H1104 0.960 . S
C1118 H1105 0.960 . S
C1118 C1117 1.524 . S
C1119 C1116 1.403 . S
C1119 C1120 1.392 . S
C1119 C1123 1.495 . S
C1120 C1119 1.392 . S
C1120 C1121 1.385 . S
C1120 C1122 1.478 . S
C1121 H1115 0.930 . S
C1121 C1117 1.400 . S
C1121 C1120 1.385 . S
C1122 C1120 1.478 . S
C1122 C1124 1.381 . S
C1122 C1128 1.383 . S
C1123 C1119 1.495 . S
C1123 H1129 0.959 . S
C1123 H1130 0.961 . S
C1123 H1131 0.960 . S
C1124 C1122 1.381 . S
C1124 C1125 1.394 . S
C1124 H1132 0.930 . S
C1125 C1124 1.394 . S
C1125 C1126 1.383 . S
C1125 H1133 0.929 . S
C1126 C1125 1.383 . S
C1126 C1127 1.377 . S
C1127 H1111 0.930 . S
C1127 C1126 1.377 . S
C1127 C1128 1.379 . S
C1128 H1112 0.931 . S
C1128 C1122 1.383 . S
C1128 C1127 1.379 . S
H1129 C1123 0.959 . S
H1130 C1123 0.961 . S
H1131 C1123 0.960 . S
H1132 C1124 0.930 . S
H1133 C1125 0.929 . S
H1134 C1142 0.929 . S
H1135 C1144 0.930 . S
H1136 C1146 0.930 . S
H1137 C1149 0.929 . S
H1138 C1152 0.930 . S
H1139 C1154 0.960 . S
H1140 C1154 0.960 . S
H1141 C1154 0.960 . S
C1142 H1134 0.929 . S
C1142 C1143 1.377 . S
C1142 C1144 1.384 . S
C1143 C1142 1.377 . S
C1143 C1149 1.390 . S
C1144 H1135 0.930 . S
C1144 C1142 1.384 . S
C1144 C1145 1.372 . S
C1145 C1144 1.372 . S
C1145 C1146 1.400 . S
C1145 C1150 1.490 . S
C1146 H1136 0.930 . S
C1146 C1145 1.400 . S
C1146 C1149 1.386 . S
H1147 C1163 0.930 . S
H1148 C1164 0.931 . S
C1149 H1137 0.929 . S
C1149 C1143 1.390 . S
C1149 C1146 1.386 . S
C1150 C1145 1.490 . S
C1150 C1152 1.395 . S
C1150 C1153 1.403 . S
H1151 C1157 0.930 . S
C1152 H1138 0.930 . S
C1152 C1150 1.395 . S
C1152 C1155 1.403 . S
C1153 C1150 1.403 . S
C1153 C1154 1.524 . S
C1153 C1157 1.400 . S
C1154 H1139 0.960 . S
C1154 H1140 0.960 . S
C1154 H1141 0.960 . S
C1154 C1153 1.524 . S
C1155 C1152 1.403 . S
C1155 C1156 1.392 . S
C1155 C1159 1.495 . S
C1156 C1155 1.392 . S
C1156 C1157 1.385 . S
C1156 C1158 1.478 . S
C1157 H1151 0.930 . S
C1157 C1153 1.400 . S
C1157 C1156 1.385 . S
C1158 C1156 1.478 . S
C1158 C1160 1.381 . S
C1158 C1164 1.383 . S
C1159 C1155 1.495 . S
C1159 H1165 0.959 . S
C1159 H1166 0.961 . S
C1159 H1167 0.960 . S
C1160 C1158 1.381 . S
C1160 C1161 1.394 . S
C1160 H1168 0.930 . S
C1161 C1160 1.394 . S
C1161 C1162 1.383 . S
C1161 H1169 0.929 . S
C1162 C1161 1.383 . S
C1162 C1163 1.377 . S
C1163 H1147 0.930 . S
C1163 C1162 1.377 . S
C1163 C1164 1.379 . S
C1164 H1148 0.931 . S
C1164 C1158 1.383 . S
C1164 C1163 1.379 . S
H1165 C1159 0.959 . S
H1166 C1159 0.961 . S
H1167 C1159 0.960 . S
H1168 C1160 0.930 . S
H1169 C1161 0.929 . S
H1170 C1178 0.929 . S
H1171 C1180 0.930 . S
H1172 C1182 0.930 . S
H1173 C1185 0.929 . S
H1174 C1188 0.930 . S
H1175 C1190 0.960 . S
H1176 C1190 0.960 . S
H1177 C1190 0.960 . S
C1178 H1170 0.929 . S
C1178 C1179 1.377 . S
C1178 C1180 1.384 . S
C1179 C1178 1.377 . S
C1179 C1185 1.390 . S
C1180 H1171 0.930 . S
C1180 C1178 1.384 . S
C1180 C1181 1.372 . S
C1181 C1180 1.372 . S
C1181 C1182 1.400 . S
C1181 C1186 1.490 . S
C1182 H1172 0.930 . S
C1182 C1181 1.400 . S
C1182 C1185 1.386 . S
H1183 C1199 0.930 . S
H1184 C1200 0.931 . S
C1185 H1173 0.929 . S
C1185 C1179 1.390 . S
C1185 C1182 1.386 . S
C1186 C1181 1.490 . S
C1186 C1188 1.395 . S
C1186 C1189 1.403 . S
H1187 C1193 0.930 . S
C1188 H1174 0.930 . S
C1188 C1186 1.395 . S
C1188 C1191 1.403 . S
C1189 C1186 1.403 . S
C1189 C1190 1.524 . S
C1189 C1193 1.400 . S
C1190 H1175 0.960 . S
C1190 H1176 0.960 . S
C1190 H1177 0.960 . S
C1190 C1189 1.524 . S
C1191 C1188 1.403 . S
C1191 C1192 1.392 . S
C1191 C1195 1.495 . S
C1192 C1191 1.392 . S
C1192 C1193 1.385 . S
C1192 C1194 1.478 . S
C1193 H1187 0.930 . S
C1193 C1189 1.400 . S
C1193 C1192 1.385 . S
C1194 C1192 1.478 . S
C1194 C1196 1.381 . S
C1194 C1200 1.383 . S
C1195 C1191 1.495 . S
C1195 H1201 0.959 . S
C1195 H1202 0.961 . S
C1195 H1203 0.960 . S
C1196 C1194 1.381 . S
C1196 C1197 1.394 . S
C1196 H1204 0.930 . S
C1197 C1196 1.394 . S
C1197 C1198 1.383 . S
C1197 H1205 0.929 . S
C1198 C1197 1.383 . S
C1198 C1199 1.377 . S
C1199 H1183 0.930 . S
C1199 C1198 1.377 . S
C1199 C1200 1.379 . S
C1200 H1184 0.931 . S
C1200 C1194 1.383 . S
C1200 C1199 1.379 . S
H1201 C1195 0.959 . S
H1202 C1195 0.961 . S
H1203 C1195 0.960 . S
H1204 C1196 0.930 . S
H1205 C1197 0.929 . S
H1206 C1214 0.929 . S
H1207 C1216 0.930 . S
H1208 C1218 0.930 . S
H1209 C1221 0.929 . S
H1210 C1224 0.930 . S
H1211 C1226 0.960 . S
H1212 C1226 0.960 . S
H1213 C1226 0.960 . S
C1214 H1206 0.929 . S
C1214 C1215 1.377 . S
C1214 C1216 1.384 . S
C1215 C1214 1.377 . S
C1215 C1221 1.390 . S
C1216 H1207 0.930 . S
C1216 C1214 1.384 . S
C1216 C1217 1.372 . S
C1217 C1216 1.372 . S
C1217 C1218 1.400 . S
C1217 C1222 1.490 . S
C1218 H1208 0.930 . S
C1218 C1217 1.400 . S
C1218 C1221 1.386 . S
H1219 C1235 0.930 . S
H1220 C1236 0.931 . S
C1221 H1209 0.929 . S
C1221 C1215 1.390 . S
C1221 C1218 1.386 . S
C1222 C1217 1.490 . S
C1222 C1224 1.395 . S
C1222 C1225 1.403 . S
H1223 C1229 0.930 . S
C1224 H1210 0.930 . S
C1224 C1222 1.395 . S
C1224 C1227 1.403 . S
C1225 C1222 1.403 . S
C1225 C1226 1.524 . S
C1225 C1229 1.400 . S
C1226 H1211 0.960 . S
C1226 H1212 0.960 . S
C1226 H1213 0.960 . S
C1226 C1225 1.524 . S
C1227 C1224 1.403 . S
C1227 C1228 1.392 . S
C1227 C1231 1.495 . S
C1228 C1227 1.392 . S
C1228 C1229 1.385 . S
C1228 C1230 1.478 . S
C1229 H1223 0.930 . S
C1229 C1225 1.400 . S
C1229 C1228 1.385 . S
C1230 C1228 1.478 . S
C1230 C1232 1.381 . S
C1230 C1236 1.383 . S
C1231 C1227 1.495 . S
C1231 H1237 0.959 . S
C1231 H1238 0.961 . S
C1231 H1239 0.960 . S
C1232 C1230 1.381 . S
C1232 C1233 1.394 . S
C1232 H1240 0.930 . S
C1233 C1232 1.394 . S
C1233 C1234 1.383 . S
C1233 H1241 0.929 . S
C1234 C1233 1.383 . S
C1234 C1235 1.377 . S
C1235 H1219 0.930 . S
C1235 C1234 1.377 . S
C1235 C1236 1.379 . S
C1236 H1220 0.931 . S
C1236 C1230 1.383 . S
C1236 C1235 1.379 . S
H1237 C1231 0.959 . S
H1238 C1231 0.961 . S
H1239 C1231 0.960 . S
H1240 C1232 0.930 . S
H1241 C1233 0.929 . S
H1242 C1250 0.929 . S
H1243 C1252 0.930 . S
H1244 C1254 0.930 . S
H1245 C1257 0.929 . S
H1246 C1260 0.930 . S
H1247 C1262 0.960 . S
H1248 C1262 0.960 . S
H1249 C1262 0.960 . S
C1250 H1242 0.929 . S
C1250 C1251 1.377 . S
C1250 C1252 1.384 . S
C1251 C1250 1.377 . S
C1251 C1257 1.390 . S
C1252 H1243 0.930 . S
C1252 C1250 1.384 . S
C1252 C1253 1.372 . S
C1253 C1252 1.372 . S
C1253 C1254 1.400 . S
C1253 C1258 1.490 . S
C1254 H1244 0.930 . S
C1254 C1253 1.400 . S
C1254 C1257 1.386 . S
H1255 C1271 0.930 . S
H1256 C1272 0.931 . S
C1257 H1245 0.929 . S
C1257 C1251 1.390 . S
C1257 C1254 1.386 . S
C1258 C1253 1.490 . S
C1258 C1260 1.395 . S
C1258 C1261 1.403 . S
H1259 C1265 0.930 . S
C1260 H1246 0.930 . S
C1260 C1258 1.395 . S
C1260 C1263 1.403 . S
C1261 C1258 1.403 . S
C1261 C1262 1.524 . S
C1261 C1265 1.400 . S
C1262 H1247 0.960 . S
C1262 H1248 0.960 . S
C1262 H1249 0.960 . S
C1262 C1261 1.524 . S
C1263 C1260 1.403 . S
C1263 C1264 1.392 . S
C1263 C1267 1.495 . S
C1264 C1263 1.392 . S
C1264 C1265 1.385 . S
C1264 C1266 1.478 . S
C1265 H1259 0.930 . S
C1265 C1261 1.400 . S
C1265 C1264 1.385 . S
C1266 C1264 1.478 . S
C1266 C1268 1.381 . S
C1266 C1272 1.383 . S
C1267 C1263 1.495 . S
C1267 H1273 0.959 . S
C1267 H1274 0.961 . S
C1267 H1275 0.960 . S
C1268 C1266 1.381 . S
C1268 C1269 1.394 . S
C1268 H1276 0.930 . S
C1269 C1268 1.394 . S
C1269 C1270 1.383 . S
C1269 H1277 0.929 . S
C1270 C1269 1.383 . S
C1270 C1271 1.377 . S
C1271 H1255 0.930 . S
C1271 C1270 1.377 . S
C1271 C1272 1.379 . S
C1272 H1256 0.931 . S
C1272 C1266 1.383 . S
C1272 C1271 1.379 . S
H1273 C1267 0.959 . S
H1274 C1267 0.961 . S
H1275 C1267 0.960 . S
H1276 C1268 0.930 . S
H1277 C1269 0.929 . S
H1278 C1286 0.929 . S
H1279 C1288 0.930 1_565 S
H1280 C1290 0.930 . S
H1281 C1293 0.929 . S
H1282 C1296 0.930 . S
H1283 C1298 0.960 . S
H1284 C1298 0.960 . S
H1285 C1298 0.960 . S
C1286 H1278 0.929 . S
C1286 C1287 1.377 . S
C1286 C1288 1.384 . S
C1287 C1286 1.377 . S
C1287 C1293 1.390 . S
C1288 H1279 0.930 1_545 S
C1288 C1286 1.384 . S
C1288 C1289 1.372 1_545 S
C1289 C1288 1.372 1_565 S
C1289 C1290 1.400 . S
C1289 C1294 1.490 . S
C1290 H1280 0.930 . S
C1290 C1289 1.400 . S
C1290 C1293 1.386 1_565 S
H1291 C1307 0.930 . S
H1292 C1308 0.931 . S
C1293 H1281 0.929 . S
C1293 C1287 1.390 . S
C1293 C1290 1.386 1_545 S
C1294 C1289 1.490 . S
C1294 C1296 1.395 . S
C1294 C1297 1.403 . S
H1295 C1301 0.930 . S
C1296 H1282 0.930 . S
C1296 C1294 1.395 . S
C1296 C1299 1.403 . S
C1297 C1294 1.403 . S
C1297 C1298 1.524 . S
C1297 C1301 1.400 . S
C1298 H1283 0.960 . S
C1298 H1284 0.960 . S
C1298 H1285 0.960 . S
C1298 C1297 1.524 . S
C1299 C1296 1.403 . S
C1299 C1300 1.392 . S
C1299 C1303 1.495 . S
C1300 C1299 1.392 . S
C1300 C1301 1.385 . S
C1300 C1302 1.478 . S
C1301 H1295 0.930 . S
C1301 C1297 1.400 . S
C1301 C1300 1.385 . S
C1302 C1300 1.478 . S
C1302 C1304 1.381 . S
C1302 C1308 1.383 . S
C1303 C1299 1.495 . S
C1303 H1309 0.959 . S
C1303 H1310 0.961 . S
C1303 H1311 0.960 . S
C1304 C1302 1.381 . S
C1304 C1305 1.394 . S
C1304 H1312 0.930 . S
C1305 C1304 1.394 . S
C1305 C1306 1.383 . S
C1305 H1313 0.929 . S
C1306 C1305 1.383 . S
C1306 C1307 1.377 . S
C1307 H1291 0.930 . S
C1307 C1306 1.377 . S
C1307 C1308 1.379 . S
C1308 H1292 0.931 . S
C1308 C1302 1.383 . S
C1308 C1307 1.379 . S
H1309 C1303 0.959 . S
H1310 C1303 0.961 . S
H1311 C1303 0.960 . S
H1312 C1304 0.930 . S
H1313 C1305 0.929 . S
H1314 C1322 0.929 . S
H1315 C1324 0.930 . S
H1316 C1326 0.930 . S
H1317 C1329 0.929 . S
H1318 C1332 0.930 . S
H1319 C1334 0.960 . S
H1320 C1334 0.960 . S
H1321 C1334 0.960 . S
C1322 H1314 0.929 . S
C1322 C1323 1.377 . S
C1322 C1324 1.384 1_655 S
C1323 C1322 1.377 . S
C1323 C1329 1.390 . S
C1324 H1315 0.930 . S
C1324 C1322 1.384 1_455 S
C1324 C1325 1.372 . S
C1325 C1324 1.372 . S
C1325 C1326 1.400 . S
C1325 C1330 1.490 . S
C1326 H1316 0.930 . S
C1326 C1325 1.400 . S
C1326 C1329 1.386 1_455 S
H1327 C1343 0.930 . S
H1328 C1344 0.931 . S
C1329 H1317 0.929 . S
C1329 C1323 1.390 . S
C1329 C1326 1.386 1_655 S
C1330 C1325 1.490 . S
C1330 C1332 1.395 . S
C1330 C1333 1.403 . S
H1331 C1337 0.930 . S
C1332 H1318 0.930 . S
C1332 C1330 1.395 . S
C1332 C1335 1.403 . S
C1333 C1330 1.403 . S
C1333 C1334 1.524 . S
C1333 C1337 1.400 . S
C1334 H1319 0.960 . S
C1334 H1320 0.960 . S
C1334 H1321 0.960 . S
C1334 C1333 1.524 . S
C1335 C1332 1.403 . S
C1335 C1336 1.392 . S
C1335 C1339 1.495 . S
C1336 C1335 1.392 . S
C1336 C1337 1.385 . S
C1336 C1338 1.478 . S
C1337 H1331 0.930 . S
C1337 C1333 1.400 . S
C1337 C1336 1.385 . S
C1338 C1336 1.478 . S
C1338 C1340 1.381 . S
C1338 C1344 1.383 . S
C1339 C1335 1.495 . S
C1339 H1345 0.959 . S
C1339 H1346 0.961 . S
C1339 H1347 0.960 . S
C1340 C1338 1.381 . S
C1340 C1341 1.394 . S
C1340 H1348 0.930 . S
C1341 C1340 1.394 . S
C1341 C1342 1.383 . S
C1341 H1349 0.929 . S
C1342 C1341 1.383 . S
C1342 C1343 1.377 . S
C1343 H1327 0.930 . S
C1343 C1342 1.377 . S
C1343 C1344 1.379 . S
C1344 H1328 0.931 . S
C1344 C1338 1.383 . S
C1344 C1343 1.379 . S
H1345 C1339 0.959 . S
H1346 C1339 0.961 . S
H1347 C1339 0.960 . S
H1348 C1340 0.930 . S
H1349 C1341 0.929 . S
H1350 C1358 0.929 . S
H1351 C1360 0.930 . S
H1352 C1362 0.930 . S
H1353 C1365 0.929 . S
H1354 C1368 0.930 . S
H1355 C1370 0.960 . S
H1356 C1370 0.960 . S
H1357 C1370 0.960 . S
C1358 H1350 0.929 . S
C1358 C1359 1.377 . S
C1358 C1360 1.384 . S
C1359 C1358 1.377 . S
C1359 C1365 1.390 . S
C1360 H1351 0.930 . S
C1360 C1358 1.384 . S
C1360 C1361 1.372 . S
C1361 C1360 1.372 . S
C1361 C1362 1.400 . S
C1361 C1366 1.490 . S
C1362 H1352 0.930 . S
C1362 C1361 1.400 . S
C1362 C1365 1.386 . S
H1363 C1379 0.930 . S
H1364 C1380 0.931 . S
C1365 H1353 0.929 . S
C1365 C1359 1.390 . S
C1365 C1362 1.386 . S
C1366 C1361 1.490 . S
C1366 C1368 1.395 . S
C1366 C1369 1.403 . S
H1367 C1373 0.930 . S
C1368 H1354 0.930 . S
C1368 C1366 1.395 . S
C1368 C1371 1.403 . S
C1369 C1366 1.403 . S
C1369 C1370 1.524 . S
C1369 C1373 1.400 . S
C1370 H1355 0.960 . S
C1370 H1356 0.960 . S
C1370 H1357 0.960 . S
C1370 C1369 1.524 . S
C1371 C1368 1.403 . S
C1371 C1372 1.392 . S
C1371 C1375 1.495 . S
C1372 C1371 1.392 . S
C1372 C1373 1.385 . S
C1372 C1374 1.478 . S
C1373 H1367 0.930 . S
C1373 C1369 1.400 . S
C1373 C1372 1.385 . S
C1374 C1372 1.478 . S
C1374 C1376 1.381 . S
C1374 C1380 1.383 . S
C1375 C1371 1.495 . S
C1375 H1381 0.959 . S
C1375 H1382 0.961 . S
C1375 H1383 0.960 . S
C1376 C1374 1.381 . S
C1376 C1377 1.394 . S
C1376 H1384 0.930 . S
C1377 C1376 1.394 . S
C1377 C1378 1.383 . S
C1377 H1385 0.929 . S
C1378 C1377 1.383 . S
C1378 C1379 1.377 . S
C1379 H1363 0.930 . S
C1379 C1378 1.377 . S
C1379 C1380 1.379 . S
C1380 H1364 0.931 . S
C1380 C1374 1.383 . S
C1380 C1379 1.379 . S
H1381 C1375 0.959 . S
H1382 C1375 0.961 . S
H1383 C1375 0.960 . S
H1384 C1376 0.930 . S
H1385 C1377 0.929 . S
H1386 C1394 0.929 . S
H1387 C1396 0.930 . S
H1388 C1398 0.930 . S
H1389 C1401 0.929 . S
H1390 C1404 0.930 . S
H1391 C1406 0.960 . S
H1392 C1406 0.960 . S
H1393 C1406 0.960 . S
C1394 H1386 0.929 . S
C1394 C1395 1.377 . S
C1394 C1396 1.384 . S
C1395 C1394 1.377 . S
C1395 C1401 1.390 . S
C1396 H1387 0.930 . S
C1396 C1394 1.384 . S
C1396 C1397 1.372 . S
C1397 C1396 1.372 . S
C1397 C1398 1.400 . S
C1397 C1402 1.490 . S
C1398 H1388 0.930 . S
C1398 C1397 1.400 . S
C1398 C1401 1.386 . S
H1399 C1415 0.930 . S
H1400 C1416 0.931 . S
C1401 H1389 0.929 . S
C1401 C1395 1.390 . S
C1401 C1398 1.386 . S
C1402 C1397 1.490 . S
C1402 C1404 1.395 . S
C1402 C1405 1.403 . S
H1403 C1409 0.930 . S
C1404 H1390 0.930 . S
C1404 C1402 1.395 . S
C1404 C1407 1.403 . S
C1405 C1402 1.403 . S
C1405 C1406 1.524 . S
C1405 C1409 1.400 . S
C1406 H1391 0.960 . S
C1406 H1392 0.960 . S
C1406 H1393 0.960 . S
C1406 C1405 1.524 . S
C1407 C1404 1.403 . S
C1407 C1408 1.392 . S
C1407 C1411 1.495 . S
C1408 C1407 1.392 . S
C1408 C1409 1.385 . S
C1408 C1410 1.478 . S
C1409 H1403 0.930 . S
C1409 C1405 1.400 . S
C1409 C1408 1.385 . S
C1410 C1408 1.478 . S
C1410 C1412 1.381 . S
C1410 C1416 1.383 . S
C1411 C1407 1.495 . S
C1411 H1417 0.959 . S
C1411 H1418 0.961 . S
C1411 H1419 0.960 . S
C1412 C1410 1.381 . S
C1412 C1413 1.394 . S
C1412 H1420 0.930 . S
C1413 C1412 1.394 . S
C1413 C1414 1.383 . S
C1413 H1421 0.929 . S
C1414 C1413 1.383 . S
C1414 C1415 1.377 . S
C1415 H1399 0.930 . S
C1415 C1414 1.377 . S
C1415 C1416 1.379 . S
C1416 H1400 0.931 . S
C1416 C1410 1.383 . S
C1416 C1415 1.379 . S
H1417 C1411 0.959 . S
H1418 C1411 0.961 . S
H1419 C1411 0.960 . S
H1420 C1412 0.930 . S
H1421 C1413 0.929 . S
H1422 C1430 0.929 . S
H1423 C1432 0.930 . S
H1424 C1434 0.930 . S
H1425 C1437 0.929 . S
H1426 C1440 0.930 . S
H1427 C1442 0.960 . S
H1428 C1442 0.960 . S
H1429 C1442 0.960 . S
C1430 H1422 0.929 . S
C1430 C1431 1.377 . S
C1430 C1432 1.384 . S
C1431 C1430 1.377 . S
C1431 C1437 1.390 . S
C1432 H1423 0.930 . S
C1432 C1430 1.384 . S
C1432 C1433 1.372 . S
C1433 C1432 1.372 . S
C1433 C1434 1.400 . S
C1433 C1438 1.490 . S
C1434 H1424 0.930 . S
C1434 C1433 1.400 . S
C1434 C1437 1.386 . S
H1435 C1451 0.930 . S
H1436 C1452 0.931 . S
C1437 H1425 0.929 . S
C1437 C1431 1.390 . S
C1437 C1434 1.386 . S
C1438 C1433 1.490 . S
C1438 C1440 1.395 . S
C1438 C1441 1.403 . S
H1439 C1445 0.930 . S
C1440 H1426 0.930 . S
C1440 C1438 1.395 . S
C1440 C1443 1.403 . S
C1441 C1438 1.403 . S
C1441 C1442 1.524 . S
C1441 C1445 1.400 . S
C1442 H1427 0.960 . S
C1442 H1428 0.960 . S
C1442 H1429 0.960 . S
C1442 C1441 1.524 . S
C1443 C1440 1.403 . S
C1443 C1444 1.392 . S
C1443 C1447 1.495 . S
C1444 C1443 1.392 . S
C1444 C1445 1.385 . S
C1444 C1446 1.478 . S
C1445 H1439 0.930 . S
C1445 C1441 1.400 . S
C1445 C1444 1.385 . S
C1446 C1444 1.478 . S
C1446 C1448 1.381 . S
C1446 C1452 1.383 . S
C1447 C1443 1.495 . S
C1447 H1453 0.959 . S
C1447 H1454 0.961 . S
C1447 H1455 0.960 . S
C1448 C1446 1.381 . S
C1448 C1449 1.394 . S
C1448 H1456 0.930 . S
C1449 C1448 1.394 . S
C1449 C1450 1.383 . S
C1449 H1457 0.929 . S
C1450 C1449 1.383 . S
C1450 C1451 1.377 . S
C1451 H1435 0.930 . S
C1451 C1450 1.377 . S
C1451 C1452 1.379 . S
C1452 H1436 0.931 . S
C1452 C1446 1.383 . S
C1452 C1451 1.379 . S
H1453 C1447 0.959 . S
H1454 C1447 0.961 . S
H1455 C1447 0.960 . S
H1456 C1448 0.930 . S
H1457 C1449 0.929 . S
H1458 C1466 0.929 . S
H1459 C1468 0.930 . S
H1460 C1470 0.930 . S
H1461 C1473 0.929 . S
H1462 C1476 0.930 . S
H1463 C1478 0.960 . S
H1464 C1478 0.960 . S
H1465 C1478 0.960 . S
C1466 H1458 0.929 . S
C1466 C1467 1.377 . S
C1466 C1468 1.384 . S
C1467 C1466 1.377 . S
C1467 C1473 1.390 . S
C1468 H1459 0.930 . S
C1468 C1466 1.384 . S
C1468 C1469 1.372 . S
C1469 C1468 1.372 . S
C1469 C1470 1.400 . S
C1469 C1474 1.490 . S
C1470 H1460 0.930 . S
C1470 C1469 1.400 . S
C1470 C1473 1.386 . S
H1471 C1487 0.930 . S
H1472 C1488 0.931 . S
C1473 H1461 0.929 . S
C1473 C1467 1.390 . S
C1473 C1470 1.386 . S
C1474 C1469 1.490 . S
C1474 C1476 1.395 . S
C1474 C1477 1.403 . S
H1475 C1481 0.930 . S
C1476 H1462 0.930 . S
C1476 C1474 1.395 . S
C1476 C1479 1.403 . S
C1477 C1474 1.403 . S
C1477 C1478 1.524 . S
C1477 C1481 1.400 . S
C1478 H1463 0.960 . S
C1478 H1464 0.960 . S
C1478 H1465 0.960 . S
C1478 C1477 1.524 . S
C1479 C1476 1.403 . S
C1479 C1480 1.392 . S
C1479 C1483 1.495 . S
C1480 C1479 1.392 . S
C1480 C1481 1.385 . S
C1480 C1482 1.478 . S
C1481 H1475 0.930 . S
C1481 C1477 1.400 . S
C1481 C1480 1.385 . S
C1482 C1480 1.478 . S
C1482 C1484 1.381 . S
C1482 C1488 1.383 . S
C1483 C1479 1.495 . S
C1483 H1489 0.959 . S
C1483 H1490 0.961 . S
C1483 H1491 0.960 . S
C1484 C1482 1.381 . S
C1484 C1485 1.394 . S
C1484 H1492 0.930 . S
C1485 C1484 1.394 . S
C1485 C1486 1.383 . S
C1485 H1493 0.929 . S
C1486 C1485 1.383 . S
C1486 C1487 1.377 . S
C1487 H1471 0.930 . S
C1487 C1486 1.377 . S
C1487 C1488 1.379 . S
C1488 H1472 0.931 . S
C1488 C1482 1.383 . S
C1488 C1487 1.379 . S
H1489 C1483 0.959 . S
H1490 C1483 0.961 . S
H1491 C1483 0.960 . S
H1492 C1484 0.930 . S
H1493 C1485 0.929 . S
H1494 C1502 0.929 . S
H1495 C1504 0.930 . S
H1496 C1506 0.930 . S
H1497 C1509 0.929 . S
H1498 C1512 0.930 . S
H1499 C1514 0.960 1_545 S
H1500 C1514 0.960 . S
H1501 C1514 0.960 . S
C1502 H1494 0.929 . S
C1502 C1503 1.377 . S
C1502 C1504 1.384 . S
C1503 C1502 1.377 . S
C1503 C1509 1.390 . S
C1504 H1495 0.930 . S
C1504 C1502 1.384 . S
C1504 C1505 1.372 . S
C1505 C1504 1.372 . S
C1505 C1506 1.400 . S
C1505 C1510 1.490 . S
C1506 H1496 0.930 . S
C1506 C1505 1.400 . S
C1506 C1509 1.386 . S
H1507 C1523 0.930 . S
H1508 C1524 0.931 . S
C1509 H1497 0.929 . S
C1509 C1503 1.390 . S
C1509 C1506 1.386 . S
C1510 C1505 1.490 . S
C1510 C1512 1.395 . S
C1510 C1513 1.438 . S
H1511 C1517 0.930 . S
C1512 H1498 0.930 . S
C1512 C1510 1.395 . S
C1512 C1515 1.403 1_565 S
C1513 C1510 1.438 . S
C1513 C1514 1.508 . S
C1513 C1517 1.381 1_565 S
C1514 H1499 0.960 1_565 S
C1514 H1500 0.960 . S
C1514 H1501 0.960 . S
C1514 C1513 1.508 . S
C1515 C1512 1.403 1_545 S
C1515 C1516 1.392 . S
C1515 C1519 1.495 . S
C1516 C1515 1.392 . S
C1516 C1517 1.385 . S
C1516 C1518 1.478 . S
C1517 H1511 0.930 . S
C1517 C1513 1.381 1_545 S
C1517 C1516 1.385 . S
C1518 C1516 1.478 . S
C1518 C1520 1.381 . S
C1518 C1524 1.383 . S
C1519 C1515 1.495 . S
C1519 H1525 0.959 1_545 S
C1519 H1526 0.961 . S
C1519 H1527 0.960 . S
C1520 C1518 1.381 . S
C1520 C1521 1.394 . S
C1520 H1528 0.930 . S
C1521 C1520 1.394 . S
C1521 C1522 1.383 . S
C1521 H1529 0.929 . S
C1522 C1521 1.383 . S
C1522 C1523 1.377 . S
C1523 H1507 0.930 . S
C1523 C1522 1.377 . S
C1523 C1524 1.379 . S
C1524 H1508 0.931 . S
C1524 C1518 1.383 . S
C1524 C1523 1.379 . S
H1525 C1519 0.959 1_565 S
H1526 C1519 0.961 . S
H1527 C1519 0.960 . S
H1528 C1520 0.930 . S
H1529 C1521 0.929 . S
H1530 C1538 0.929 . S
H1531 C1540 0.930 . S
H1532 C1542 0.930 . S
H1533 C1545 0.929 . S
H1534 C1548 0.930 . S
H1535 C1550 0.960 . S
H1536 C1550 0.960 . S
H1537 C1550 0.960 . S
C1538 H1530 0.929 . S
C1538 C1539 1.377 . S
C1538 C1540 1.384 . S
C1539 C1538 1.377 . S
C1539 C1545 1.390 . S
C1540 H1531 0.930 . S
C1540 C1538 1.384 . S
C1540 C1541 1.372 . S
C1541 C1540 1.372 . S
C1541 C1542 1.400 . S
C1541 C1546 1.490 . S
C1542 H1532 0.930 . S
C1542 C1541 1.400 . S
C1542 C1545 1.386 . S
H1543 C1559 0.930 . S
H1544 C1560 0.931 . S
C1545 H1533 0.929 . S
C1545 C1539 1.390 . S
C1545 C1542 1.386 . S
C1546 C1541 1.490 . S
C1546 C1548 1.395 . S
C1546 C1549 1.403 . S
H1547 C1553 0.913 1_655 S
C1548 H1534 0.930 . S
C1548 C1546 1.395 . S
C1548 C1551 1.403 1_455 S
C1549 C1546 1.403 . S
C1549 C1550 1.524 . S
C1549 C1553 1.400 . S
C1550 H1535 0.960 . S
C1550 H1536 0.960 . S
C1550 H1537 0.960 . S
C1550 C1549 1.524 . S
C1551 C1548 1.403 1_655 S
C1551 C1552 1.392 . S
C1551 C1555 1.495 . S
C1552 C1551 1.392 . S
C1552 C1553 1.385 1_655 S
C1552 C1554 1.478 . S
C1553 H1547 0.913 1_455 S
C1553 C1549 1.400 . S
C1553 C1552 1.385 1_455 S
C1554 C1552 1.478 . S
C1554 C1556 1.381 . S
C1554 C1560 1.383 . S
C1555 C1551 1.495 . S
C1555 H1561 0.959 . S
C1555 H1562 0.961 . S
C1555 H1563 0.960 . S
C1556 C1554 1.381 . S
C1556 C1557 1.394 . S
C1556 H1564 0.930 . S
C1557 C1556 1.394 . S
C1557 C1558 1.383 . S
C1557 H1565 0.929 . S
C1558 C1557 1.383 . S
C1558 C1559 1.377 . S
C1559 H1543 0.930 . S
C1559 C1558 1.377 . S
C1559 C1560 1.379 . S
C1560 H1544 0.931 . S
C1560 C1554 1.383 . S
C1560 C1559 1.379 . S
H1561 C1555 0.959 . S
H1562 C1555 0.961 . S
H1563 C1555 0.960 . S
H1564 C1556 0.930 . S
H1565 C1557 0.929 . S
H1566 C1574 0.929 . S
H1567 C1576 0.930 . S
H1568 C1578 0.930 . S
H1569 C1581 0.929 . S
H1570 C1584 0.930 . S
H1571 C1586 0.960 . S
H1572 C1586 0.960 . S
H1573 C1586 0.960 . S
C1574 H1566 0.929 . S
C1574 C1575 1.377 . S
C1574 C1576 1.384 . S
C1575 C1574 1.377 . S
C1575 C1581 1.390 . S
C1576 H1567 0.930 . S
C1576 C1574 1.384 . S
C1576 C1577 1.372 . S
C1577 C1576 1.372 . S
C1577 C1578 1.400 . S
C1577 C1582 1.490 . S
C1578 H1568 0.930 . S
C1578 C1577 1.400 . S
C1578 C1581 1.386 . S
H1579 C1595 0.930 . S
H1580 C1596 0.931 . S
C1581 H1569 0.929 . S
C1581 C1575 1.390 . S
C1581 C1578 1.386 . S
C1582 C1577 1.490 . S
C1582 C1584 1.395 . S
C1582 C1585 1.403 . S
H1583 C1589 0.930 . S
C1584 H1570 0.930 . S
C1584 C1582 1.395 . S
C1584 C1587 1.403 . S
C1585 C1582 1.403 . S
C1585 C1586 1.524 . S
C1585 C1589 1.400 . S
C1586 H1571 0.960 . S
C1586 H1572 0.960 . S
C1586 H1573 0.960 . S
C1586 C1585 1.524 . S
C1587 C1584 1.403 . S
C1587 C1588 1.392 . S
C1587 C1591 1.495 . S
C1588 C1587 1.392 . S
C1588 C1589 1.385 . S
C1588 C1590 1.478 . S
C1589 H1583 0.930 . S
C1589 C1585 1.400 . S
C1589 C1588 1.385 . S
C1590 C1588 1.478 . S
C1590 C1592 1.381 . S
C1590 C1596 1.383 . S
C1591 C1587 1.495 . S
C1591 H1597 0.959 . S
C1591 H1598 0.961 . S
C1591 H1599 0.960 . S
C1592 C1590 1.381 . S
C1592 C1593 1.394 . S
C1592 H1600 0.930 . S
C1593 C1592 1.394 . S
C1593 C1594 1.383 . S
C1593 H1601 0.929 . S
C1594 C1593 1.383 . S
C1594 C1595 1.377 . S
C1595 H1579 0.930 . S
C1595 C1594 1.377 . S
C1595 C1596 1.379 . S
C1596 H1580 0.931 . S
C1596 C1590 1.383 . S
C1596 C1595 1.379 . S
H1597 C1591 0.959 . S
H1598 C1591 0.961 . S
H1599 C1591 0.960 . S
H1600 C1592 0.930 . S
H1601 C1593 0.929 . S
H1602 C1610 0.929 . S
H1603 C1612 0.926 . S
H1604 C1614 0.930 . S
H1605 C1617 0.929 . S
H1606 C1620 0.930 . S
H1607 C1622 0.960 . S
H1608 C1622 0.960 . S
H1609 C1622 0.960 . S
C1610 H1602 0.929 . S
C1610 C1611 1.377 . S
C1610 C1612 1.384 . S
C1611 C1610 1.377 . S
C1611 C1617 1.390 . S
C1612 H1603 0.926 . S
C1612 C1610 1.384 . S
C1612 C1613 1.372 . S
C1613 C1612 1.372 . S
C1613 C1614 1.400 . S
C1613 C1618 1.490 1_455 S
C1614 H1604 0.930 . S
C1614 C1613 1.400 . S
C1614 C1617 1.386 . S
H1615 C1631 0.930 . S
H1616 C1632 0.931 . S
C1617 H1605 0.929 . S
C1617 C1611 1.390 . S
C1617 C1614 1.386 . S
C1618 C1613 1.490 1_655 S
C1618 C1620 1.395 . S
C1618 C1621 1.403 . S
H1619 C1625 0.930 . S
C1620 H1606 0.930 . S
C1620 C1618 1.395 . S
C1620 C1623 1.403 . S
C1621 C1618 1.403 . S
C1621 C1622 1.524 . S
C1621 C1625 1.400 . S
C1622 H1607 0.960 . S
C1622 H1608 0.960 . S
C1622 H1609 0.960 . S
C1622 C1621 1.524 . S
C1623 C1620 1.403 . S
C1623 C1624 1.392 . S
C1623 C1627 1.495 . S
C1624 C1623 1.392 . S
C1624 C1625 1.385 . S
C1624 C1626 1.478 . S
C1625 H1619 0.930 . S
C1625 C1621 1.400 . S
C1625 C1624 1.385 . S
C1626 C1624 1.478 . S
C1626 C1628 1.381 . S
C1626 C1632 1.383 . S
C1627 C1623 1.495 . S
C1627 H1633 0.959 . S
C1627 H1634 0.961 . S
C1627 H1635 0.960 . S
C1628 C1626 1.381 . S
C1628 C1629 1.394 . S
C1628 H1636 0.930 . S
C1629 C1628 1.394 . S
C1629 C1630 1.383 . S
C1629 H1637 0.929 . S
C1630 C1629 1.383 . S
C1630 C1631 1.377 . S
C1631 H1615 0.930 . S
C1631 C1630 1.377 . S
C1631 C1632 1.379 . S
C1632 H1616 0.931 . S
C1632 C1626 1.383 . S
C1632 C1631 1.379 . S
H1633 C1627 0.959 . S
H1634 C1627 0.961 . S
H1635 C1627 0.960 . S
H1636 C1628 0.930 . S
H1637 C1629 0.929 . S
H1638 C1646 0.929 . S
H1639 C1648 0.930 . S
H1640 C1650 0.930 . S
H1641 C1653 0.929 . S
H1642 C1656 0.930 . S
H1643 C1658 0.960 . S
H1644 C1658 0.960 . S
H1645 C1658 0.960 . S
C1646 H1638 0.929 . S
C1646 C1647 1.377 . S
C1646 C1648 1.384 . S
C1647 C1646 1.377 . S
C1647 C1653 1.390 . S
C1648 H1639 0.930 . S
C1648 C1646 1.384 . S
C1648 C1649 1.372 . S
C1649 C1648 1.372 . S
C1649 C1650 1.400 . S
C1649 C1654 1.490 . S
C1650 H1640 0.930 . S
C1650 C1649 1.400 . S
C1650 C1653 1.386 . S
H1651 C1667 0.930 . S
H1652 C1668 0.931 . S
C1653 H1641 0.929 . S
C1653 C1647 1.390 . S
C1653 C1650 1.386 . S
C1654 C1649 1.490 . S
C1654 C1656 1.395 . S
C1654 C1657 1.403 . S
H1655 C1661 0.930 . S
C1656 H1642 0.930 . S
C1656 C1654 1.395 . S
C1656 C1659 1.403 . S
C1657 C1654 1.403 . S
C1657 C1658 1.524 . S
C1657 C1661 1.400 . S
C1658 H1643 0.960 . S
C1658 H1644 0.960 . S
C1658 H1645 0.960 . S
C1658 C1657 1.524 . S
C1659 C1656 1.403 . S
C1659 C1660 1.392 . S
C1659 C1663 1.495 . S
C1660 C1659 1.392 . S
C1660 C1661 1.385 . S
C1660 C1662 1.478 . S
C1661 H1655 0.930 . S
C1661 C1657 1.400 . S
C1661 C1660 1.385 . S
C1662 C1660 1.478 . S
C1662 C1664 1.381 . S
C1662 C1668 1.383 . S
C1663 C1659 1.495 . S
C1663 H1669 0.959 . S
C1663 H1670 0.961 . S
C1663 H1671 0.960 . S
C1664 C1662 1.381 . S
C1664 C1665 1.394 . S
C1664 H1672 0.930 . S
C1665 C1664 1.394 . S
C1665 C1666 1.383 . S
C1665 H1673 0.929 . S
C1666 C1665 1.383 . S
C1666 C1667 1.377 . S
C1667 H1651 0.930 . S
C1667 C1666 1.377 . S
C1667 C1668 1.379 . S
C1668 H1652 0.931 . S
C1668 C1662 1.383 . S
C1668 C1667 1.379 . S
H1669 C1663 0.959 . S
H1670 C1663 0.961 . S
H1671 C1663 0.960 . S
H1672 C1664 0.930 . S
H1673 C1665 0.929 . S
H1674 C1682 0.929 . S
H1675 C1684 0.930 . S
H1676 C1686 0.938 . S
H1677 C1689 0.929 . S
H1678 C1692 0.930 . S
H1679 C1694 0.960 . S
H1680 C1694 0.960 . S
H1681 C1694 0.960 . S
C1682 H1674 0.929 . S
C1682 C1683 1.377 . S
C1682 C1684 1.384 1_565 S
C1683 C1682 1.377 . S
C1683 C1689 1.390 . S
C1684 H1675 0.930 . S
C1684 C1682 1.384 1_545 S
C1684 C1685 1.372 . S
C1685 C1684 1.372 . S
C1685 C1686 1.404 . S
C1685 C1690 1.490 . S
C1686 H1676 0.938 . S
C1686 C1685 1.404 . S
C1686 C1689 1.374 1_545 S
H1687 C1703 0.930 . S
H1688 C1704 0.931 . S
C1689 H1677 0.929 . S
C1689 C1683 1.390 . S
C1689 C1686 1.374 1_565 S
C1690 C1685 1.490 . S
C1690 C1692 1.395 . S
C1690 C1693 1.403 . S
H1691 C1697 0.930 . S
C1692 H1678 0.930 . S
C1692 C1690 1.395 . S
C1692 C1695 1.403 . S
C1693 C1690 1.403 . S
C1693 C1694 1.524 . S
C1693 C1697 1.400 . S
C1694 H1679 0.960 . S
C1694 H1680 0.960 . S
C1694 H1681 0.960 . S
C1694 C1693 1.524 . S
C1695 C1692 1.403 . S
C1695 C1696 1.392 . S
C1695 C1699 1.495 . S
C1696 C1695 1.392 . S
C1696 C1697 1.385 . S
C1696 C1698 1.478 . S
C1697 H1691 0.930 . S
C1697 C1693 1.400 . S
C1697 C1696 1.385 . S
C1698 C1696 1.478 . S
C1698 C1700 1.381 . S
C1698 C1704 1.383 . S
C1699 C1695 1.495 . S
C1699 H1705 0.959 . S
C1699 H1706 0.961 . S
C1699 H1707 0.960 . S
C1700 C1698 1.381 . S
C1700 C1701 1.394 . S
C1700 H1708 0.930 . S
C1701 C1700 1.394 . S
C1701 C1702 1.383 . S
C1701 H1709 0.929 . S
C1702 C1701 1.383 . S
C1702 C1703 1.377 . S
C1703 H1687 0.930 . S
C1703 C1702 1.377 . S
C1703 C1704 1.379 . S
C1704 H1688 0.931 . S
C1704 C1698 1.383 . S
C1704 C1703 1.379 . S
H1705 C1699 0.959 . S
H1706 C1699 0.961 . S
H1707 C1699 0.960 . S
H1708 C1700 0.930 . S
H1709 C1701 0.929 . S
H1710 C1718 0.929 . S
H1711 C1720 0.930 . S
H1712 C1722 0.930 . S
H1713 C1725 0.929 . S
H1714 C1728 0.930 . S
H1715 C1730 0.960 . S
H1716 C1730 0.960 . S
H1717 C1730 0.960 . S
C1718 H1710 0.929 . S
C1718 C1719 1.377 . S
C1718 C1720 1.384 . S
C1719 C1718 1.377 . S
C1719 C1725 1.390 . S
C1720 H1711 0.930 . S
C1720 C1718 1.384 . S
C1720 C1721 1.372 . S
C1721 C1720 1.372 . S
C1721 C1722 1.400 . S
C1721 C1726 1.490 . S
C1722 H1712 0.930 . S
C1722 C1721 1.400 . S
C1722 C1725 1.386 . S
H1723 C1739 0.930 . S
H1724 C1740 0.931 . S
C1725 H1713 0.929 . S
C1725 C1719 1.390 . S
C1725 C1722 1.386 . S
C1726 C1721 1.490 . S
C1726 C1728 1.395 . S
C1726 C1729 1.403 . S
H1727 C1733 0.930 . S
C1728 H1714 0.930 . S
C1728 C1726 1.395 . S
C1728 C1731 1.403 . S
C1729 C1726 1.403 . S
C1729 C1730 1.524 . S
C1729 C1733 1.400 . S
C1730 H1715 0.960 . S
C1730 H1716 0.960 . S
C1730 H1717 0.960 . S
C1730 C1729 1.524 . S
C1731 C1728 1.403 . S
C1731 C1732 1.392 . S
C1731 C1735 1.495 . S
C1732 C1731 1.392 . S
C1732 C1733 1.385 . S
C1732 C1734 1.478 . S
C1733 H1727 0.930 . S
C1733 C1729 1.400 . S
C1733 C1732 1.385 . S
C1734 C1732 1.478 . S
C1734 C1736 1.381 . S
C1734 C1740 1.383 . S
C1735 C1731 1.495 . S
C1735 H1741 0.959 . S
C1735 H1742 0.961 . S
C1735 H1743 0.960 . S
C1736 C1734 1.381 . S
C1736 C1737 1.394 . S
C1736 H1744 0.930 . S
C1737 C1736 1.394 . S
C1737 C1738 1.383 . S
C1737 H1745 0.929 . S
C1738 C1737 1.383 . S
C1738 C1739 1.377 . S
C1739 H1723 0.930 . S
C1739 C1738 1.377 . S
C1739 C1740 1.379 . S
C1740 H1724 0.931 . S
C1740 C1734 1.383 . S
C1740 C1739 1.379 . S
H1741 C1735 0.959 . S
H1742 C1735 0.961 . S
H1743 C1735 0.960 . S
H1744 C1736 0.930 . S
H1745 C1737 0.929 . S
H1746 C1754 0.929 . S
H1747 C1756 0.930 . S
H1748 C1758 0.930 . S
H1749 C1761 0.929 . S
H1750 C1764 0.930 . S
H1751 C1766 0.960 . S
H1752 C1766 0.960 . S
H1753 C1766 0.960 . S
C1754 H1746 0.929 . S
C1754 C1755 1.377 . S
C1754 C1756 1.384 . S
C1755 C1754 1.377 . S
C1755 C1761 1.390 . S
C1756 H1747 0.930 . S
C1756 C1754 1.384 . S
C1756 C1757 1.372 . S
C1757 C1756 1.372 . S
C1757 C1758 1.400 . S
C1757 C1762 1.490 . S
C1758 H1748 0.930 . S
C1758 C1757 1.400 . S
C1758 C1761 1.386 . S
H1759 C1775 0.930 . S
H1760 C1776 0.931 . S
C1761 H1749 0.929 . S
C1761 C1755 1.390 . S
C1761 C1758 1.386 . S
C1762 C1757 1.490 . S
C1762 C1764 1.395 . S
C1762 C1765 1.403 . S
H1763 C1769 0.930 . S
C1764 H1750 0.930 . S
C1764 C1762 1.395 . S
C1764 C1767 1.403 . S
C1765 C1762 1.403 . S
C1765 C1766 1.524 . S
C1765 C1769 1.400 . S
C1766 H1751 0.960 . S
C1766 H1752 0.960 . S
C1766 H1753 0.960 . S
C1766 C1765 1.524 . S
C1767 C1764 1.403 . S
C1767 C1768 1.392 . S
C1767 C1771 1.495 . S
C1768 C1767 1.392 . S
C1768 C1769 1.385 . S
C1768 C1770 1.478 . S
C1769 H1763 0.930 . S
C1769 C1765 1.400 . S
C1769 C1768 1.385 . S
C1770 C1768 1.478 . S
C1770 C1772 1.381 . S
C1770 C1776 1.383 . S
C1771 C1767 1.495 . S
C1771 H1777 0.959 . S
C1771 H1778 0.961 . S
C1771 H1779 0.960 . S
C1772 C1770 1.381 . S
C1772 C1773 1.394 . S
C1772 H1780 0.930 . S
C1773 C1772 1.394 . S
C1773 C1774 1.383 . S
C1773 H1781 0.929 . S
C1774 C1773 1.383 . S
C1774 C1775 1.377 . S
C1775 H1759 0.930 . S
C1775 C1774 1.377 . S
C1775 C1776 1.379 . S
C1776 H1760 0.931 . S
C1776 C1770 1.383 . S
C1776 C1775 1.379 . S
H1777 C1771 0.959 . S
H1778 C1771 0.961 . S
H1779 C1771 0.960 . S
H1780 C1772 0.930 . S
H1781 C1773 0.929 . S
H1782 C1790 0.929 . S
H1783 C1792 0.930 . S
H1784 C1794 0.930 . S
H1785 C1797 0.929 . S
H1786 C1800 0.930 . S
H1787 C1802 0.960 . S
H1788 C1802 0.960 . S
H1789 C1802 0.960 . S
C1790 H1782 0.929 . S
C1790 C1791 1.377 . S
C1790 C1792 1.384 . S
C1791 C1790 1.377 . S
C1791 C1797 1.390 . S
C1792 H1783 0.930 . S
C1792 C1790 1.384 . S
C1792 C1793 1.372 . S
C1793 C1792 1.372 . S
C1793 C1794 1.400 . S
C1793 C1798 1.490 . S
C1794 H1784 0.930 . S
C1794 C1793 1.400 . S
C1794 C1797 1.386 . S
H1795 C1811 0.930 . S
H1796 C1812 0.931 . S
C1797 H1785 0.929 . S
C1797 C1791 1.390 . S
C1797 C1794 1.386 . S
C1798 C1793 1.490 . S
C1798 C1800 1.395 . S
C1798 C1801 1.403 . S
H1799 C1805 0.930 . S
C1800 H1786 0.930 . S
C1800 C1798 1.395 . S
C1800 C1803 1.403 . S
C1801 C1798 1.403 . S
C1801 C1802 1.524 . S
C1801 C1805 1.400 . S
C1802 H1787 0.960 . S
C1802 H1788 0.960 . S
C1802 H1789 0.960 . S
C1802 C1801 1.524 . S
C1803 C1800 1.403 . S
C1803 C1804 1.392 . S
C1803 C1807 1.495 . S
C1804 C1803 1.392 . S
C1804 C1805 1.385 . S
C1804 C1806 1.478 . S
C1805 H1799 0.930 . S
C1805 C1801 1.400 . S
C1805 C1804 1.385 . S
C1806 C1804 1.478 . S
C1806 C1808 1.381 . S
C1806 C1812 1.383 . S
C1807 C1803 1.495 . S
C1807 H1813 0.959 . S
C1807 H1814 0.961 . S
C1807 H1815 0.960 . S
C1808 C1806 1.381 . S
C1808 C1809 1.394 . S
C1808 H1816 0.930 . S
C1809 C1808 1.394 . S
C1809 C1810 1.383 . S
C1809 H1817 0.929 . S
C1810 C1809 1.383 . S
C1810 C1811 1.377 . S
C1811 H1795 0.930 . S
C1811 C1810 1.377 . S
C1811 C1812 1.379 . S
C1812 H1796 0.931 . S
C1812 C1806 1.383 . S
C1812 C1811 1.379 . S
H1813 C1807 0.959 . S
H1814 C1807 0.961 . S
H1815 C1807 0.960 . S
H1816 C1808 0.930 . S
H1817 C1809 0.929 . S
H1818 C1826 0.929 . S
H1819 C1828 0.930 . S
H1820 C1830 0.930 . S
H1821 C1833 0.929 . S
H1822 C1836 0.930 . S
H1823 C1838 0.960 . S
H1824 C1838 0.960 . S
H1825 C1838 0.960 . S
C1826 H1818 0.929 . S
C1826 C1827 1.377 . S
C1826 C1828 1.384 . S
C1827 C1826 1.377 . S
C1827 C1833 1.390 . S
C1828 H1819 0.930 . S
C1828 C1826 1.384 . S
C1828 C1829 1.372 . S
C1829 C1828 1.372 . S
C1829 C1830 1.400 . S
C1829 C1834 1.490 . S
C1830 H1820 0.930 . S
C1830 C1829 1.400 . S
C1830 C1833 1.386 . S
H1831 C1847 0.908 1_545 S
H1832 C1848 0.931 . S
C1833 H1821 0.929 . S
C1833 C1827 1.390 . S
C1833 C1830 1.386 . S
C1834 C1829 1.490 . S
C1834 C1836 1.395 . S
C1834 C1837 1.403 . S
H1835 C1841 0.930 . S
C1836 H1822 0.930 . S
C1836 C1834 1.395 . S
C1836 C1839 1.403 . S
C1837 C1834 1.403 . S
C1837 C1838 1.524 . S
C1837 C1841 1.400 . S
C1838 H1823 0.960 . S
C1838 H1824 0.960 . S
C1838 H1825 0.960 . S
C1838 C1837 1.524 . S
C1839 C1836 1.403 . S
C1839 C1840 1.392 . S
C1839 C1843 1.495 . S
C1840 C1839 1.392 . S
C1840 C1841 1.385 . S
C1840 C1842 1.478 . S
C1841 H1835 0.930 . S
C1841 C1837 1.400 . S
C1841 C1840 1.385 . S
C1842 C1840 1.478 . S
C1842 C1844 1.381 . S
C1842 C1848 1.383 . S
C1843 C1839 1.495 . S
C1843 H1849 0.959 . S
C1843 H1850 0.961 . S
C1843 H1851 0.960 . S
C1844 C1842 1.381 . S
C1844 C1845 1.394 . S
C1844 H1852 0.930 . S
C1845 C1844 1.394 . S
C1845 C1846 1.383 . S
C1845 H1853 0.929 . S
C1846 C1845 1.383 . S
C1846 C1847 1.377 . S
C1847 H1831 0.908 1_565 S
C1847 C1846 1.377 . S
C1847 C1848 1.379 . S
C1848 H1832 0.931 . S
C1848 C1842 1.383 . S
C1848 C1847 1.379 . S
H1849 C1843 0.959 . S
H1850 C1843 0.961 . S
H1851 C1843 0.960 . S
H1852 C1844 0.930 . S
H1853 C1845 0.929 . S
H1854 C1862 0.929 . S
H1855 C1864 0.930 . S
H1856 C1866 0.930 . S
H1857 C1869 0.929 . S
H1858 C1872 0.930 . S
H1859 C1874 0.960 . S
H1860 C1874 0.960 . S
H1861 C1874 0.960 . S
C1862 H1854 0.929 . S
C1862 C1863 1.377 . S
C1862 C1864 1.384 . S
C1863 C1862 1.377 . S
C1863 C1869 1.390 . S
C1864 H1855 0.930 . S
C1864 C1862 1.384 . S
C1864 C1865 1.372 . S
C1865 C1864 1.372 . S
C1865 C1866 1.400 . S
C1865 C1870 1.490 . S
C1866 H1856 0.930 . S
C1866 C1865 1.400 . S
C1866 C1869 1.386 . S
H1867 C1883 0.930 . S
H1868 C1884 0.931 . S
C1869 H1857 0.929 . S
C1869 C1863 1.390 . S
C1869 C1866 1.386 . S
C1870 C1865 1.490 . S
C1870 C1872 1.395 . S
C1870 C1873 1.403 . S
H1871 C1877 0.930 . S
C1872 H1858 0.930 . S
C1872 C1870 1.395 . S
C1872 C1875 1.403 . S
C1873 C1870 1.403 . S
C1873 C1874 1.524 . S
C1873 C1877 1.400 . S
C1874 H1859 0.960 . S
C1874 H1860 0.960 . S
C1874 H1861 0.960 . S
C1874 C1873 1.524 . S
C1875 C1872 1.403 . S
C1875 C1876 1.392 . S
C1875 C1879 1.495 . S
C1876 C1875 1.392 . S
C1876 C1877 1.385 . S
C1876 C1878 1.478 . S
C1877 H1871 0.930 . S
C1877 C1873 1.400 . S
C1877 C1876 1.385 . S
C1878 C1876 1.478 . S
C1878 C1880 1.381 . S
C1878 C1884 1.383 . S
C1879 C1875 1.495 . S
C1879 H1885 0.959 . S
C1879 H1886 0.961 . S
C1879 H1887 0.960 . S
C1880 C1878 1.381 . S
C1880 C1881 1.394 . S
C1880 H1888 0.930 . S
C1881 C1880 1.394 . S
C1881 C1882 1.383 . S
C1881 H1889 0.929 . S
C1882 C1881 1.383 . S
C1882 C1883 1.377 . S
C1883 H1867 0.930 . S
C1883 C1882 1.377 . S
C1883 C1884 1.379 . S
C1884 H1868 0.931 . S
C1884 C1878 1.383 . S
C1884 C1883 1.379 . S
H1885 C1879 0.959 . S
H1886 C1879 0.961 . S
H1887 C1879 0.960 . S
H1888 C1880 0.930 . S
H1889 C1881 0.929 . S
H1890 C1898 0.929 . S
H1891 C1900 0.930 . S
H1892 C1902 0.930 . S
H1893 C1905 0.929 . S
H1894 C1908 0.930 . S
H1895 C1910 0.960 . S
H1896 C1910 0.960 . S
H1897 C1910 0.960 . S
C1898 H1890 0.929 . S
C1898 C1899 1.377 . S
C1898 C1900 1.384 . S
C1899 C1898 1.377 . S
C1899 C1905 1.390 . S
C1900 H1891 0.930 . S
C1900 C1898 1.384 . S
C1900 C1901 1.372 . S
C1901 C1900 1.372 . S
C1901 C1902 1.400 . S
C1901 C1906 1.490 . S
C1902 H1892 0.930 . S
C1902 C1901 1.400 . S
C1902 C1905 1.386 . S
H1903 C1919 0.930 . S
H1904 C1920 0.931 . S
C1905 H1893 0.929 . S
C1905 C1899 1.390 . S
C1905 C1902 1.386 . S
C1906 C1901 1.490 . S
C1906 C1908 1.395 . S
C1906 C1909 1.403 . S
H1907 C1913 0.930 . S
C1908 H1894 0.930 . S
C1908 C1906 1.395 . S
C1908 C1911 1.403 . S
C1909 C1906 1.403 . S
C1909 C1910 1.524 . S
C1909 C1913 1.400 . S
C1910 H1895 0.960 . S
C1910 H1896 0.960 . S
C1910 H1897 0.960 . S
C1910 C1909 1.524 . S
C1911 C1908 1.403 . S
C1911 C1912 1.392 . S
C1911 C1915 1.495 . S
C1912 C1911 1.392 . S
C1912 C1913 1.385 . S
C1912 C1914 1.478 . S
C1913 H1907 0.930 . S
C1913 C1909 1.400 . S
C1913 C1912 1.385 . S
C1914 C1912 1.478 . S
C1914 C1916 1.381 . S
C1914 C1920 1.383 . S
C1915 C1911 1.495 . S
C1915 H1921 0.959 . S
C1915 H1922 0.961 . S
C1915 H1923 0.960 . S
C1916 C1914 1.381 . S
C1916 C1917 1.394 . S
C1916 H1924 0.930 . S
C1917 C1916 1.394 . S
C1917 C1918 1.383 . S
C1917 H1925 0.929 . S
C1918 C1917 1.383 . S
C1918 C1919 1.377 . S
C1919 H1903 0.930 . S
C1919 C1918 1.377 . S
C1919 C1920 1.379 . S
C1920 H1904 0.931 . S
C1920 C1914 1.383 . S
C1920 C1919 1.379 . S
H1921 C1915 0.959 . S
H1922 C1915 0.961 . S
H1923 C1915 0.960 . S
H1924 C1916 0.930 . S
H1925 C1917 0.929 . S
H1926 C1934 0.929 . S
H1927 C1936 0.930 . S
H1928 C1938 0.930 . S
H1929 C1941 0.929 . S
H1930 C1944 0.930 . S
H1931 C1946 0.960 . S
H1932 C1946 0.960 . S
H1933 C1946 0.960 . S
C1934 H1926 0.929 . S
C1934 C1935 1.377 . S
C1934 C1936 1.384 . S
C1935 C1934 1.377 . S
C1935 C1941 1.390 . S
C1936 H1927 0.930 . S
C1936 C1934 1.384 . S
C1936 C1937 1.372 . S
C1937 C1936 1.372 . S
C1937 C1938 1.400 . S
C1937 C1942 1.490 . S
C1938 H1928 0.930 . S
C1938 C1937 1.400 . S
C1938 C1941 1.386 . S
H1939 C1955 0.930 . S
H1940 C1956 0.931 . S
C1941 H1929 0.929 . S
C1941 C1935 1.390 . S
C1941 C1938 1.386 . S
C1942 C1937 1.490 . S
C1942 C1944 1.395 . S
C1942 C1945 1.403 . S
H1943 C1949 0.930 . S
C1944 H1930 0.930 . S
C1944 C1942 1.395 . S
C1944 C1947 1.403 . S
C1945 C1942 1.403 . S
C1945 C1946 1.524 . S
C1945 C1949 1.400 . S
C1946 H1931 0.960 . S
C1946 H1932 0.960 . S
C1946 H1933 0.960 . S
C1946 C1945 1.524 . S
C1947 C1944 1.403 . S
C1947 C1948 1.392 . S
C1947 C1951 1.495 . S
C1948 C1947 1.392 . S
C1948 C1949 1.385 . S
C1948 C1950 1.478 . S
C1949 H1943 0.930 . S
C1949 C1945 1.400 . S
C1949 C1948 1.385 . S
C1950 C1948 1.478 . S
C1950 C1952 1.381 . S
C1950 C1956 1.383 . S
C1951 C1947 1.495 . S
C1951 H1957 0.959 1_655 S
C1951 H1958 0.958 . S
C1951 H1959 0.984 . S
C1952 C1950 1.381 . S
C1952 C1953 1.394 . S
C1952 H1960 0.930 . S
C1953 C1952 1.394 . S
C1953 C1954 1.383 . S
C1953 H1961 0.929 . S
C1954 C1953 1.383 . S
C1954 C1955 1.377 . S
C1955 H1939 0.930 . S
C1955 C1954 1.377 . S
C1955 C1956 1.379 . S
C1956 H1940 0.931 . S
C1956 C1950 1.383 . S
C1956 C1955 1.379 . S
H1957 C1951 0.959 1_455 S
H1958 C1951 0.958 . S
H1959 C1951 0.984 . S
H1960 C1952 0.930 . S
H1961 C1953 0.929 . S
H1962 C1970 0.929 . S
H1963 C1972 0.930 . S
H1964 C1974 0.930 . S
H1965 C1977 0.929 . S
H1966 C1980 0.930 . S
H1967 C1982 0.960 . S
H1968 C1982 0.960 . S
H1969 C1982 0.960 . S
C1970 H1962 0.929 . S
C1970 C1971 1.377 . S
C1970 C1972 1.384 . S
C1971 C1970 1.377 . S
C1971 C1977 1.390 . S
C1972 H1963 0.930 . S
C1972 C1970 1.384 . S
C1972 C1973 1.372 . S
C1973 C1972 1.372 . S
C1973 C1974 1.400 . S
C1973 C1978 1.490 . S
C1974 H1964 0.930 . S
C1974 C1973 1.400 . S
C1974 C1977 1.386 . S
H1975 C1991 0.930 . S
H1976 C1992 0.931 . S
C1977 H1965 0.929 . S
C1977 C1971 1.390 . S
C1977 C1974 1.386 . S
C1978 C1973 1.490 . S
C1978 C1980 1.395 . S
C1978 C1981 1.403 . S
H1979 C1985 0.930 . S
C1980 H1966 0.930 . S
C1980 C1978 1.395 . S
C1980 C1983 1.403 . S
C1981 C1978 1.403 . S
C1981 C1982 1.524 . S
C1981 C1985 1.400 . S
C1982 H1967 0.960 . S
C1982 H1968 0.960 . S
C1982 H1969 0.960 . S
C1982 C1981 1.524 . S
C1983 C1980 1.403 . S
C1983 C1984 1.392 . S
C1983 C1987 1.495 . S
C1984 C1983 1.392 . S
C1984 C1985 1.385 . S
C1984 C1986 1.478 . S
C1985 H1979 0.930 . S
C1985 C1981 1.400 . S
C1985 C1984 1.385 . S
C1986 C1984 1.478 . S
C1986 C1988 1.381 . S
C1986 C1992 1.383 . S
C1987 C1983 1.495 . S
C1987 H1993 0.959 . S
C1987 H1994 0.961 . S
C1987 H1995 0.960 . S
C1988 C1986 1.381 . S
C1988 C1989 1.394 . S
C1988 H1996 0.930 . S
C1989 C1988 1.394 . S
C1989 C1990 1.383 . S
C1989 H1997 0.929 . S
C1990 C1989 1.383 . S
C1990 C1991 1.377 . S
C1991 H1975 0.930 . S
C1991 C1990 1.377 . S
C1991 C1992 1.379 . S
C1992 H1976 0.931 . S
C1992 C1986 1.383 . S
C1992 C1991 1.379 . S
H1993 C1987 0.959 . S
H1994 C1987 0.961 . S
H1995 C1987 0.960 . S
H1996 C1988 0.930 . S
H1997 C1989 0.929 . S
H1998 C2006 0.929 . S
H1999 C2008 0.930 . S
H2000 C2010 0.930 . S
H2001 C2013 0.929 . S
H2002 C2016 0.930 . S
H2003 C2018 0.960 . S
H2004 C2018 0.960 . S
H2005 C2018 0.960 . S
C2006 H1998 0.929 . S
C2006 C2007 1.377 . S
C2006 C2008 1.384 . S
C2007 C2006 1.377 . S
C2007 C2013 1.390 . S
C2008 H1999 0.930 . S
C2008 C2006 1.384 . S
C2008 C2009 1.372 . S
C2009 C2008 1.372 . S
C2009 C2010 1.400 . S
C2009 C2014 1.490 . S
C2010 H2000 0.930 . S
C2010 C2009 1.400 . S
C2010 C2013 1.386 . S
H2011 C2027 0.930 . S
H2012 C2028 0.931 . S
C2013 H2001 0.929 . S
C2013 C2007 1.390 . S
C2013 C2010 1.386 . S
C2014 C2009 1.490 . S
C2014 C2016 1.395 . S
C2014 C2017 1.403 . S
H2015 C2021 0.930 . S
C2016 H2002 0.930 . S
C2016 C2014 1.395 . S
C2016 C2019 1.403 . S
C2017 C2014 1.403 . S
C2017 C2018 1.524 . S
C2017 C2021 1.400 . S
C2018 H2003 0.960 . S
C2018 H2004 0.960 . S
C2018 H2005 0.960 . S
C2018 C2017 1.524 . S
C2019 C2016 1.403 . S
C2019 C2020 1.392 . S
C2019 C2023 1.495 . S
C2020 C2019 1.392 . S
C2020 C2021 1.385 . S
C2020 C2022 1.478 . S
C2021 H2015 0.930 . S
C2021 C2017 1.400 . S
C2021 C2020 1.385 . S
C2022 C2020 1.478 . S
C2022 C2024 1.381 . S
C2022 C2028 1.383 . S
C2023 C2019 1.495 . S
C2023 H2029 0.959 . S
C2023 H2030 0.961 . S
C2023 H2031 0.960 . S
C2024 C2022 1.381 . S
C2024 C2025 1.394 . S
C2024 H2032 0.930 . S
C2025 C2024 1.394 . S
C2025 C2026 1.383 . S
C2025 H2033 0.929 . S
C2026 C2025 1.383 . S
C2026 C2027 1.377 . S
C2027 H2011 0.930 . S
C2027 C2026 1.377 . S
C2027 C2028 1.379 . S
C2028 H2012 0.931 . S
C2028 C2022 1.383 . S
C2028 C2027 1.379 . S
H2029 C2023 0.959 . S
H2030 C2023 0.961 . S
H2031 C2023 0.960 . S
H2032 C2024 0.930 . S
H2033 C2025 0.929 . S
H2034 C2042 0.929 . S
H2035 C2044 0.930 . S
H2036 C2046 0.930 . S
H2037 C2049 0.929 . S
H2038 C2052 0.930 . S
H2039 C2054 0.960 . S
H2040 C2054 0.960 . S
H2041 C2054 0.960 . S
C2042 H2034 0.929 . S
C2042 C2043 1.377 . S
C2042 C2044 1.384 . S
C2043 C2042 1.377 . S
C2043 C2049 1.390 . S
C2044 H2035 0.930 . S
C2044 C2042 1.384 . S
C2044 C2045 1.372 . S
C2045 C2044 1.372 . S
C2045 C2046 1.400 . S
C2045 C2050 1.490 . S
C2046 H2036 0.930 . S
C2046 C2045 1.400 . S
C2046 C2049 1.386 . S
H2047 C2063 0.930 . S
H2048 C2064 0.931 . S
C2049 H2037 0.929 . S
C2049 C2043 1.390 . S
C2049 C2046 1.386 . S
C2050 C2045 1.490 . S
C2050 C2052 1.395 . S
C2050 C2053 1.403 . S
H2051 C2057 0.930 . S
C2052 H2038 0.930 . S
C2052 C2050 1.395 . S
C2052 C2055 1.403 . S
C2053 C2050 1.403 . S
C2053 C2054 1.524 . S
C2053 C2057 1.400 . S
C2054 H2039 0.960 . S
C2054 H2040 0.960 . S
C2054 H2041 0.960 . S
C2054 C2053 1.524 . S
C2055 C2052 1.403 . S
C2055 C2056 1.392 . S
C2055 C2059 1.495 . S
C2056 C2055 1.392 . S
C2056 C2057 1.385 . S
C2056 C2058 1.478 . S
C2057 H2051 0.930 . S
C2057 C2053 1.400 . S
C2057 C2056 1.385 . S
C2058 C2056 1.478 . S
C2058 C2060 1.381 . S
C2058 C2064 1.383 . S
C2059 C2055 1.495 . S
C2059 H2065 0.959 . S
C2059 H2066 0.961 . S
C2059 H2067 0.960 . S
C2060 C2058 1.381 . S
C2060 C2061 1.394 . S
C2060 H2068 0.930 . S
C2061 C2060 1.394 . S
C2061 C2062 1.383 . S
C2061 H2069 0.929 . S
C2062 C2061 1.383 . S
C2062 C2063 1.377 . S
C2063 H2047 0.930 . S
C2063 C2062 1.377 . S
C2063 C2064 1.379 . S
C2064 H2048 0.931 . S
C2064 C2058 1.383 . S
C2064 C2063 1.379 . S
H2065 C2059 0.959 . S
H2066 C2059 0.961 . S
H2067 C2059 0.960 . S
H2068 C2060 0.930 . S
H2069 C2061 0.929 . S
H2070 C2078 0.929 . S
H2071 C2080 0.930 . S
H2072 C2082 0.930 . S
H2073 C2085 0.929 . S
H2074 C2088 0.930 . S
H2075 C2090 0.960 . S
H2076 C2090 0.960 . S
H2077 C2090 0.960 . S
C2078 H2070 0.929 . S
C2078 C2079 1.377 . S
C2078 C2080 1.384 . S
C2079 C2078 1.377 . S
C2079 C2085 1.390 . S
C2080 H2071 0.930 . S
C2080 C2078 1.384 . S
C2080 C2081 1.372 . S
C2081 C2080 1.372 . S
C2081 C2082 1.400 . S
C2081 C2086 1.490 . S
C2082 H2072 0.930 . S
C2082 C2081 1.400 . S
C2082 C2085 1.386 . S
H2083 C2099 0.930 . S
H2084 C2100 0.931 . S
C2085 H2073 0.929 . S
C2085 C2079 1.390 . S
C2085 C2082 1.386 . S
C2086 C2081 1.490 . S
C2086 C2088 1.395 . S
C2086 C2089 1.403 . S
H2087 C2093 0.930 . S
C2088 H2074 0.930 . S
C2088 C2086 1.395 . S
C2088 C2091 1.403 . S
C2089 C2086 1.403 . S
C2089 C2090 1.524 . S
C2089 C2093 1.400 . S
C2090 H2075 0.960 . S
C2090 H2076 0.960 . S
C2090 H2077 0.960 . S
C2090 C2089 1.524 . S
C2091 C2088 1.403 . S
C2091 C2092 1.392 . S
C2091 C2095 1.495 . S
C2092 C2091 1.392 . S
C2092 C2093 1.385 . S
C2092 C2094 1.478 . S
C2093 H2087 0.930 . S
C2093 C2089 1.400 . S
C2093 C2092 1.385 . S
C2094 C2092 1.478 . S
C2094 C2096 1.381 . S
C2094 C2100 1.383 . S
C2095 C2091 1.495 . S
C2095 H2101 0.959 . S
C2095 H2102 0.961 . S
C2095 H2103 0.960 . S
C2096 C2094 1.381 . S
C2096 C2097 1.394 . S
C2096 H2104 0.930 . S
C2097 C2096 1.394 . S
C2097 C2098 1.383 . S
C2097 H2105 0.929 . S
C2098 C2097 1.383 . S
C2098 C2099 1.377 . S
C2099 H2083 0.930 . S
C2099 C2098 1.377 . S
C2099 C2100 1.379 . S
C2100 H2084 0.931 . S
C2100 C2094 1.383 . S
C2100 C2099 1.379 . S
H2101 C2095 0.959 . S
H2102 C2095 0.961 . S
H2103 C2095 0.960 . S
H2104 C2096 0.930 . S
H2105 C2097 0.929 . S
H2106 C2114 0.929 . S
H2107 C2116 0.930 . S
H2108 C2118 0.930 . S
H2109 C2121 0.929 . S
H2110 C2124 0.930 . S
H2111 C2126 0.960 . S
H2112 C2126 0.960 . S
H2113 C2126 0.960 . S
C2114 H2106 0.929 . S
C2114 C2115 1.377 . S
C2114 C2116 1.384 . S
C2115 C2114 1.377 . S
C2115 C2121 1.390 . S
C2116 H2107 0.930 . S
C2116 C2114 1.384 . S
C2116 C2117 1.372 . S
C2117 C2116 1.372 . S
C2117 C2118 1.400 . S
C2117 C2122 1.490 . S
C2118 H2108 0.930 . S
C2118 C2117 1.400 . S
C2118 C2121 1.386 . S
H2119 C2135 0.930 . S
H2120 C2136 0.931 . S
C2121 H2109 0.929 . S
C2121 C2115 1.390 . S
C2121 C2118 1.386 . S
C2122 C2117 1.490 . S
C2122 C2124 1.395 . S
C2122 C2125 1.403 . S
H2123 C2129 0.930 . S
C2124 H2110 0.930 . S
C2124 C2122 1.395 . S
C2124 C2127 1.403 . S
C2125 C2122 1.403 . S
C2125 C2126 1.524 . S
C2125 C2129 1.400 . S
C2126 H2111 0.960 . S
C2126 H2112 0.960 . S
C2126 H2113 0.960 . S
C2126 C2125 1.524 . S
C2127 C2124 1.403 . S
C2127 C2128 1.392 . S
C2127 C2131 1.495 . S
C2128 C2127 1.392 . S
C2128 C2129 1.385 . S
C2128 C2130 1.478 . S
C2129 H2123 0.930 . S
C2129 C2125 1.400 . S
C2129 C2128 1.385 . S
C2130 C2128 1.478 . S
C2130 C2132 1.381 . S
C2130 C2136 1.383 . S
C2131 C2127 1.495 . S
C2131 H2137 0.959 . S
C2131 H2138 0.961 . S
C2131 H2139 0.960 . S
C2132 C2130 1.381 . S
C2132 C2133 1.394 . S
C2132 H2140 0.930 . S
C2133 C2132 1.394 . S
C2133 C2134 1.383 . S
C2133 H2141 0.929 . S
C2134 C2133 1.383 . S
C2134 C2135 1.377 . S
C2135 H2119 0.930 . S
C2135 C2134 1.377 . S
C2135 C2136 1.379 . S
C2136 H2120 0.931 . S
C2136 C2130 1.383 . S
C2136 C2135 1.379 . S
H2137 C2131 0.959 . S
H2138 C2131 0.961 . S
H2139 C2131 0.960 . S
H2140 C2132 0.930 . S
H2141 C2133 0.929 . S
H2142 C2150 0.929 . S
H2143 C2152 0.930 . S
H2144 C2154 0.930 . S
H2145 C2157 0.929 . S
H2146 C2160 0.930 . S
H2147 C2162 0.960 . S
H2148 C2162 0.960 . S
H2149 C2162 0.960 . S
C2150 H2142 0.929 . S
C2150 C2151 1.377 . S
C2150 C2152 1.384 . S
C2151 C2150 1.377 . S
C2151 C2157 1.390 . S
C2152 H2143 0.930 . S
C2152 C2150 1.384 . S
C2152 C2153 1.372 . S
C2153 C2152 1.372 . S
C2153 C2154 1.400 . S
C2153 C2158 1.490 . S
C2154 H2144 0.930 . S
C2154 C2153 1.400 . S
C2154 C2157 1.386 . S
H2155 C2171 0.930 . S
H2156 C2172 0.931 . S
C2157 H2145 0.929 . S
C2157 C2151 1.390 . S
C2157 C2154 1.386 . S
C2158 C2153 1.490 . S
C2158 C2160 1.395 . S
C2158 C2161 1.403 . S
H2159 C2165 0.930 . S
C2160 H2146 0.930 . S
C2160 C2158 1.395 . S
C2160 C2163 1.403 . S
C2161 C2158 1.403 . S
C2161 C2162 1.524 . S
C2161 C2165 1.400 . S
C2162 H2147 0.960 . S
C2162 H2148 0.960 . S
C2162 H2149 0.960 . S
C2162 C2161 1.524 . S
C2163 C2160 1.403 . S
C2163 C2164 1.392 . S
C2163 C2167 1.495 . S
C2164 C2163 1.392 . S
C2164 C2165 1.385 . S
C2164 C2166 1.478 . S
C2165 H2159 0.930 . S
C2165 C2161 1.400 . S
C2165 C2164 1.385 . S
C2166 C2164 1.478 . S
C2166 C2168 1.381 . S
C2166 C2172 1.383 . S
C2167 C2163 1.495 . S
C2167 H2173 0.959 . S
C2167 H2174 0.961 . S
C2167 H2175 0.960 . S
C2168 C2166 1.381 . S
C2168 C2169 1.394 . S
C2168 H2176 0.930 . S
C2169 C2168 1.394 . S
C2169 C2170 1.383 . S
C2169 H2177 0.929 . S
C2170 C2169 1.383 . S
C2170 C2171 1.377 . S
C2171 H2155 0.930 . S
C2171 C2170 1.377 . S
C2171 C2172 1.379 . S
C2172 H2156 0.931 . S
C2172 C2166 1.383 . S
C2172 C2171 1.379 . S
H2173 C2167 0.959 . S
H2174 C2167 0.961 . S
H2175 C2167 0.960 . S
H2176 C2168 0.930 . S
H2177 C2169 0.929 . S
H2178 C2186 0.929 . S
H2179 C2188 0.930 . S
H2180 C2190 0.930 . S
H2181 C2193 0.929 . S
H2182 C2196 0.930 . S
H2183 C2198 0.960 . S
H2184 C2198 0.960 . S
H2185 C2198 0.960 . S
C2186 H2178 0.929 . S
C2186 C2187 1.377 . S
C2186 C2188 1.384 . S
C2187 C2186 1.377 . S
C2187 C2193 1.390 . S
C2188 H2179 0.930 . S
C2188 C2186 1.384 . S
C2188 C2189 1.372 . S
C2189 C2188 1.372 . S
C2189 C2190 1.400 . S
C2189 C2194 1.490 . S
C2190 H2180 0.930 . S
C2190 C2189 1.400 . S
C2190 C2193 1.386 . S
H2191 C2207 0.930 . S
H2192 C2208 0.931 . S
C2193 H2181 0.929 . S
C2193 C2187 1.390 . S
C2193 C2190 1.386 . S
C2194 C2189 1.490 . S
C2194 C2196 1.395 . S
C2194 C2197 1.403 . S
H2195 C2201 0.930 . S
C2196 H2182 0.930 . S
C2196 C2194 1.395 . S
C2196 C2199 1.403 . S
C2197 C2194 1.403 . S
C2197 C2198 1.524 . S
C2197 C2201 1.400 . S
C2198 H2183 0.960 . S
C2198 H2184 0.960 . S
C2198 H2185 0.960 . S
C2198 C2197 1.524 . S
C2199 C2196 1.403 . S
C2199 C2200 1.392 . S
C2199 C2203 1.495 . S
C2200 C2199 1.392 . S
C2200 C2201 1.385 . S
C2200 C2202 1.478 . S
C2201 H2195 0.930 . S
C2201 C2197 1.400 . S
C2201 C2200 1.385 . S
C2202 C2200 1.478 . S
C2202 C2204 1.381 . S
C2202 C2208 1.383 . S
C2203 C2199 1.495 . S
C2203 H2209 0.959 . S
C2203 H2210 0.961 . S
C2203 H2211 0.960 . S
C2204 C2202 1.381 . S
C2204 C2205 1.394 . S
C2204 H2212 0.930 . S
C2205 C2204 1.394 . S
C2205 C2206 1.383 . S
C2205 H2213 0.929 . S
C2206 C2205 1.383 . S
C2206 C2207 1.377 . S
C2207 H2191 0.930 . S
C2207 C2206 1.377 . S
C2207 C2208 1.379 . S
C2208 H2192 0.931 . S
C2208 C2202 1.383 . S
C2208 C2207 1.379 . S
H2209 C2203 0.959 . S
H2210 C2203 0.961 . S
H2211 C2203 0.960 . S
H2212 C2204 0.930 . S
H2213 C2205 0.929 . S
H2214 C2222 0.929 . S
H2215 C2224 0.930 . S
H2216 C2226 0.930 . S
H2217 C2229 0.929 . S
H2218 C2232 0.930 . S
H2219 C2234 0.960 . S
H2220 C2234 0.960 . S
H2221 C2234 0.960 . S
C2222 H2214 0.929 . S
C2222 C2223 1.377 . S
C2222 C2224 1.384 . S
C2223 C2222 1.377 . S
C2223 C2229 1.390 . S
C2224 H2215 0.930 . S
C2224 C2222 1.384 . S
C2224 C2225 1.372 . S
C2225 C2224 1.372 . S
C2225 C2226 1.400 . S
C2225 C2230 1.490 . S
C2226 H2216 0.930 . S
C2226 C2225 1.400 . S
C2226 C2229 1.386 . S
H2227 C2243 0.930 . S
H2228 C2244 0.931 . S
C2229 H2217 0.929 . S
C2229 C2223 1.390 . S
C2229 C2226 1.386 . S
C2230 C2225 1.490 . S
C2230 C2232 1.395 . S
C2230 C2233 1.403 . S
H2231 C2237 0.930 . S
C2232 H2218 0.930 . S
C2232 C2230 1.395 . S
C2232 C2235 1.403 . S
C2233 C2230 1.403 . S
C2233 C2234 1.524 . S
C2233 C2237 1.400 . S
C2234 H2219 0.960 . S
C2234 H2220 0.960 . S
C2234 H2221 0.960 . S
C2234 C2233 1.524 . S
C2235 C2232 1.403 . S
C2235 C2236 1.392 . S
C2235 C2239 1.495 . S
C2236 C2235 1.392 . S
C2236 C2237 1.385 . S
C2236 C2238 1.478 . S
C2237 H2231 0.930 . S
C2237 C2233 1.400 . S
C2237 C2236 1.385 . S
C2238 C2236 1.478 . S
C2238 C2240 1.381 . S
C2238 C2244 1.383 . S
C2239 C2235 1.495 . S
C2239 H2245 0.959 . S
C2239 H2246 0.961 . S
C2239 H2247 0.960 . S
C2240 C2238 1.381 . S
C2240 C2241 1.394 . S
C2240 H2248 0.930 . S
C2241 C2240 1.394 . S
C2241 C2242 1.383 . S
C2241 H2249 0.929 . S
C2242 C2241 1.383 . S
C2242 C2243 1.377 . S
C2243 H2227 0.930 . S
C2243 C2242 1.377 . S
C2243 C2244 1.379 . S
C2244 H2228 0.931 . S
C2244 C2238 1.383 . S
C2244 C2243 1.379 . S
H2245 C2239 0.959 . S
H2246 C2239 0.961 . S
H2247 C2239 0.960 . S
H2248 C2240 0.930 . S
H2249 C2241 0.929 . S
H2250 C2258 0.929 . S
H2251 C2260 0.930 . S
H2252 C2262 0.930 . S
H2253 C2265 0.929 . S
H2254 C2268 0.930 . S
H2255 C2270 0.960 . S
H2256 C2270 0.960 . S
H2257 C2270 0.960 . S
C2258 H2250 0.929 . S
C2258 C2259 1.377 . S
C2258 C2260 1.384 . S
C2259 C2258 1.377 . S
C2259 C2265 1.390 . S
C2260 H2251 0.930 . S
C2260 C2258 1.384 . S
C2260 C2261 1.372 . S
C2261 C2260 1.372 . S
C2261 C2262 1.400 . S
C2261 C2266 1.490 . S
C2262 H2252 0.930 . S
C2262 C2261 1.400 . S
C2262 C2265 1.386 . S
H2263 C2279 0.930 . S
H2264 C2280 0.931 . S
C2265 H2253 0.929 . S
C2265 C2259 1.390 . S
C2265 C2262 1.386 . S
C2266 C2261 1.490 . S
C2266 C2268 1.395 . S
C2266 C2269 1.403 . S
H2267 C2273 0.930 . S
C2268 H2254 0.930 . S
C2268 C2266 1.395 . S
C2268 C2271 1.403 . S
C2269 C2266 1.403 . S
C2269 C2270 1.524 . S
C2269 C2273 1.400 . S
C2270 H2255 0.960 . S
C2270 H2256 0.960 . S
C2270 H2257 0.960 . S
C2270 C2269 1.524 . S
C2271 C2268 1.403 . S
C2271 C2272 1.392 . S
C2271 C2275 1.495 . S
C2272 C2271 1.392 . S
C2272 C2273 1.385 . S
C2272 C2274 1.478 . S
C2273 H2267 0.930 . S
C2273 C2269 1.400 . S
C2273 C2272 1.385 . S
C2274 C2272 1.478 . S
C2274 C2276 1.381 . S
C2274 C2280 1.383 . S
C2275 C2271 1.495 . S
C2275 H2281 0.959 . S
C2275 H2282 0.961 . S
C2275 H2283 0.960 . S
C2276 C2274 1.381 . S
C2276 C2277 1.394 . S
C2276 H2284 0.930 . S
C2277 C2276 1.394 . S
C2277 C2278 1.383 . S
C2277 H2285 0.929 . S
C2278 C2277 1.383 . S
C2278 C2279 1.377 . S
C2279 H2263 0.930 . S
C2279 C2278 1.377 . S
C2279 C2280 1.379 . S
C2280 H2264 0.931 . S
C2280 C2274 1.383 . S
C2280 C2279 1.379 . S
H2281 C2275 0.959 . S
H2282 C2275 0.961 . S
H2283 C2275 0.960 . S
H2284 C2276 0.930 . S
H2285 C2277 0.929 . S
H2286 C2294 0.929 . S
H2287 C2296 0.930 . S
H2288 C2298 0.930 . S
H2289 C2301 0.929 . S
H2290 C2304 0.930 . S
H2291 C2306 0.960 . S
H2292 C2306 0.960 . S
H2293 C2306 0.960 . S
C2294 H2286 0.929 . S
C2294 C2295 1.377 . S
C2294 C2296 1.384 . S
C2295 C2294 1.377 . S
C2295 C2301 1.390 . S
C2296 H2287 0.930 . S
C2296 C2294 1.384 . S
C2296 C2297 1.372 . S
C2297 C2296 1.372 . S
C2297 C2298 1.400 . S
C2297 C2302 1.490 . S
C2298 H2288 0.930 . S
C2298 C2297 1.400 . S
C2298 C2301 1.386 . S
H2299 C2315 0.930 . S
H2300 C2316 0.931 . S
C2301 H2289 0.929 . S
C2301 C2295 1.390 . S
C2301 C2298 1.386 . S
C2302 C2297 1.490 . S
C2302 C2304 1.395 . S
C2302 C2305 1.403 . S
H2303 C2309 0.930 . S
C2304 H2290 0.930 . S
C2304 C2302 1.395 . S
C2304 C2307 1.403 . S
C2305 C2302 1.403 . S
C2305 C2306 1.524 . S
C2305 C2309 1.400 . S
C2306 H2291 0.960 . S
C2306 H2292 0.960 . S
C2306 H2293 0.960 . S
C2306 C2305 1.524 . S
C2307 C2304 1.403 . S
C2307 C2308 1.392 . S
C2307 C2311 1.495 . S
C2308 C2307 1.392 . S
C2308 C2309 1.385 . S
C2308 C2310 1.478 . S
C2309 H2303 0.930 . S
C2309 C2305 1.400 . S
C2309 C2308 1.385 . S
C2310 C2308 1.478 . S
C2310 C2312 1.381 . S
C2310 C2316 1.383 . S
C2311 C2307 1.495 . S
C2311 H2317 0.959 . S
C2311 H2318 0.961 . S
C2311 H2319 0.960 . S
C2312 C2310 1.381 . S
C2312 C2313 1.394 . S
C2312 H2320 0.930 . S
C2313 C2312 1.394 . S
C2313 C2314 1.383 . S
C2313 H2321 0.929 . S
C2314 C2313 1.383 . S
C2314 C2315 1.377 . S
C2315 H2299 0.930 . S
C2315 C2314 1.377 . S
C2315 C2316 1.379 . S
C2316 H2300 0.931 . S
C2316 C2310 1.383 . S
C2316 C2315 1.379 . S
H2317 C2311 0.959 . S
H2318 C2311 0.961 . S
H2319 C2311 0.960 . S
H2320 C2312 0.930 . S
H2321 C2313 0.929 . S
H2322 C2330 0.929 . S
H2323 C2332 0.930 . S
H2324 C2334 0.930 . S
H2325 C2337 0.929 . S
H2326 C2340 0.930 . S
H2327 C2342 0.960 . S
H2328 C2342 0.960 . S
H2329 C2342 0.960 . S
C2330 H2322 0.929 . S
C2330 C2331 1.377 . S
C2330 C2332 1.384 . S
C2331 C2330 1.377 . S
C2331 C2337 1.390 . S
C2332 H2323 0.930 . S
C2332 C2330 1.384 . S
C2332 C2333 1.372 . S
C2333 C2332 1.372 . S
C2333 C2334 1.400 . S
C2333 C2338 1.490 . S
C2334 H2324 0.930 . S
C2334 C2333 1.400 . S
C2334 C2337 1.386 . S
H2335 C2351 0.930 . S
H2336 C2352 0.931 . S
C2337 H2325 0.929 . S
C2337 C2331 1.390 . S
C2337 C2334 1.386 . S
C2338 C2333 1.490 . S
C2338 C2340 1.395 . S
C2338 C2341 1.403 . S
H2339 C2345 0.930 . S
C2340 H2326 0.930 . S
C2340 C2338 1.395 . S
C2340 C2343 1.403 . S
C2341 C2338 1.403 . S
C2341 C2342 1.524 . S
C2341 C2345 1.400 . S
C2342 H2327 0.960 . S
C2342 H2328 0.960 . S
C2342 H2329 0.960 . S
C2342 C2341 1.524 . S
C2343 C2340 1.403 . S
C2343 C2344 1.392 . S
C2343 C2347 1.495 . S
C2344 C2343 1.392 . S
C2344 C2345 1.385 . S
C2344 C2346 1.478 . S
C2345 H2339 0.930 . S
C2345 C2341 1.400 . S
C2345 C2344 1.385 . S
C2346 C2344 1.478 . S
C2346 C2348 1.381 . S
C2346 C2352 1.383 . S
C2347 C2343 1.495 . S
C2347 H2353 0.959 . S
C2347 H2354 0.961 . S
C2347 H2355 0.960 . S
C2348 C2346 1.381 . S
C2348 C2349 1.394 . S
C2348 H2356 0.930 . S
C2349 C2348 1.394 . S
C2349 C2350 1.383 . S
C2349 H2357 0.929 . S
C2350 C2349 1.383 . S
C2350 C2351 1.377 . S
C2351 H2335 0.930 . S
C2351 C2350 1.377 . S
C2351 C2352 1.379 . S
C2352 H2336 0.931 . S
C2352 C2346 1.383 . S
C2352 C2351 1.379 . S
H2353 C2347 0.959 . S
H2354 C2347 0.961 . S
H2355 C2347 0.960 . S
H2356 C2348 0.930 . S
H2357 C2349 0.929 . S
H2358 C2366 0.929 . S
H2359 C2368 0.930 . S
H2360 C2370 0.930 . S
H2361 C2373 0.929 . S
H2362 C2376 0.930 . S
H2363 C2378 0.960 . S
H2364 C2378 0.960 . S
H2365 C2378 0.960 . S
C2366 H2358 0.929 . S
C2366 C2367 1.377 . S
C2366 C2368 1.384 . S
C2367 C2366 1.377 . S
C2367 C2373 1.390 . S
C2368 H2359 0.930 . S
C2368 C2366 1.384 . S
C2368 C2369 1.372 . S
C2369 C2368 1.372 . S
C2369 C2370 1.400 . S
C2369 C2374 1.490 . S
C2370 H2360 0.930 . S
C2370 C2369 1.400 . S
C2370 C2373 1.386 . S
H2371 C2387 0.930 . S
H2372 C2388 0.931 . S
C2373 H2361 0.929 . S
C2373 C2367 1.390 . S
C2373 C2370 1.386 . S
C2374 C2369 1.490 . S
C2374 C2376 1.395 . S
C2374 C2377 1.403 . S
H2375 C2381 0.930 . S
C2376 H2362 0.930 . S
C2376 C2374 1.395 . S
C2376 C2379 1.403 . S
C2377 C2374 1.403 . S
C2377 C2378 1.524 . S
C2377 C2381 1.400 . S
C2378 H2363 0.960 . S
C2378 H2364 0.960 . S
C2378 H2365 0.960 . S
C2378 C2377 1.524 . S
C2379 C2376 1.403 . S
C2379 C2380 1.392 . S
C2379 C2383 1.495 . S
C2380 C2379 1.392 . S
C2380 C2381 1.385 . S
C2380 C2382 1.478 . S
C2381 H2375 0.930 . S
C2381 C2377 1.400 . S
C2381 C2380 1.385 . S
C2382 C2380 1.478 . S
C2382 C2384 1.381 . S
C2382 C2388 1.383 . S
C2383 C2379 1.495 . S
C2383 H2389 0.959 . S
C2383 H2390 0.961 . S
C2383 H2391 0.960 . S
C2384 C2382 1.381 . S
C2384 C2385 1.394 . S
C2384 H2392 0.930 . S
C2385 C2384 1.394 . S
C2385 C2386 1.383 . S
C2385 H2393 0.929 . S
C2386 C2385 1.383 . S
C2386 C2387 1.377 . S
C2387 H2371 0.930 . S
C2387 C2386 1.377 . S
C2387 C2388 1.379 . S
C2388 H2372 0.931 . S
C2388 C2382 1.383 . S
C2388 C2387 1.379 . S
H2389 C2383 0.959 . S
H2390 C2383 0.961 . S
H2391 C2383 0.960 . S
H2392 C2384 0.930 . S
H2393 C2385 0.929 . S
H2394 C2402 0.929 . S
H2395 C2404 0.930 . S
H2396 C2406 0.930 . S
H2397 C2409 0.929 . S
H2398 C2412 0.930 . S
H2399 C2414 0.960 . S
H2400 C2414 0.960 . S
H2401 C2414 0.960 . S
C2402 H2394 0.929 . S
C2402 C2403 1.377 . S
C2402 C2404 1.384 . S
C2403 C2402 1.377 . S
C2403 C2409 1.390 . S
C2404 H2395 0.930 . S
C2404 C2402 1.384 . S
C2404 C2405 1.372 . S
C2405 C2404 1.372 . S
C2405 C2406 1.400 . S
C2405 C2410 1.490 . S
C2406 H2396 0.930 . S
C2406 C2405 1.400 . S
C2406 C2409 1.386 . S
H2407 C2423 0.930 . S
H2408 C2424 0.931 . S
C2409 H2397 0.929 . S
C2409 C2403 1.390 . S
C2409 C2406 1.386 . S
C2410 C2405 1.490 . S
C2410 C2412 1.395 . S
C2410 C2413 1.403 . S
H2411 C2417 0.930 . S
C2412 H2398 0.930 . S
C2412 C2410 1.395 . S
C2412 C2415 1.403 . S
C2413 C2410 1.403 . S
C2413 C2414 1.524 . S
C2413 C2417 1.400 . S
C2414 H2399 0.960 . S
C2414 H2400 0.960 . S
C2414 H2401 0.960 . S
C2414 C2413 1.524 . S
C2415 C2412 1.403 . S
C2415 C2416 1.392 . S
C2415 C2419 1.495 . S
C2416 C2415 1.392 . S
C2416 C2417 1.385 . S
C2416 C2418 1.478 . S
C2417 H2411 0.930 . S
C2417 C2413 1.400 . S
C2417 C2416 1.385 . S
C2418 C2416 1.478 . S
C2418 C2420 1.381 . S
C2418 C2424 1.383 . S
C2419 C2415 1.495 . S
C2419 H2425 0.959 . S
C2419 H2426 0.961 . S
C2419 H2427 0.960 . S
C2420 C2418 1.381 . S
C2420 C2421 1.394 . S
C2420 H2428 0.930 . S
C2421 C2420 1.394 . S
C2421 C2422 1.383 . S
C2421 H2429 0.929 . S
C2422 C2421 1.383 . S
C2422 C2423 1.377 . S
C2423 H2407 0.930 . S
C2423 C2422 1.377 . S
C2423 C2424 1.379 . S
C2424 H2408 0.931 . S
C2424 C2418 1.383 . S
C2424 C2423 1.379 . S
H2425 C2419 0.959 . S
H2426 C2419 0.961 . S
H2427 C2419 0.960 . S
H2428 C2420 0.930 . S
H2429 C2421 0.929 . S
H2430 C2438 0.929 . S
H2431 C2440 0.930 . S
H2432 C2442 0.930 . S
H2433 C2445 0.929 . S
H2434 C2448 0.930 . S
H2435 C2450 0.960 . S
H2436 C2450 0.960 . S
H2437 C2450 0.960 . S
C2438 H2430 0.929 . S
C2438 C2439 1.377 . S
C2438 C2440 1.384 . S
C2439 C2438 1.377 . S
C2439 C2445 1.390 . S
C2440 H2431 0.930 . S
C2440 C2438 1.384 . S
C2440 C2441 1.372 . S
C2441 C2440 1.372 . S
C2441 C2442 1.400 . S
C2441 C2446 1.490 . S
C2442 H2432 0.930 . S
C2442 C2441 1.400 . S
C2442 C2445 1.386 . S
H2443 C2459 0.930 . S
H2444 C2460 0.931 . S
C2445 H2433 0.929 . S
C2445 C2439 1.390 . S
C2445 C2442 1.386 . S
C2446 C2441 1.490 . S
C2446 C2448 1.395 . S
C2446 C2449 1.403 . S
H2447 C2453 0.930 . S
C2448 H2434 0.930 . S
C2448 C2446 1.395 . S
C2448 C2451 1.403 . S
C2449 C2446 1.403 . S
C2449 C2450 1.524 . S
C2449 C2453 1.400 . S
C2450 H2435 0.960 . S
C2450 H2436 0.960 . S
C2450 H2437 0.960 . S
C2450 C2449 1.524 . S
C2451 C2448 1.403 . S
C2451 C2452 1.392 . S
C2451 C2455 1.495 . S
C2452 C2451 1.392 . S
C2452 C2453 1.385 . S
C2452 C2454 1.478 . S
C2453 H2447 0.930 . S
C2453 C2449 1.400 . S
C2453 C2452 1.385 . S
C2454 C2452 1.478 . S
C2454 C2456 1.381 . S
C2454 C2460 1.383 . S
C2455 C2451 1.495 . S
C2455 H2461 0.959 . S
C2455 H2462 0.961 . S
C2455 H2463 0.960 . S
C2456 C2454 1.381 . S
C2456 C2457 1.394 . S
C2456 H2464 0.930 . S
C2457 C2456 1.394 . S
C2457 C2458 1.383 . S
C2457 H2465 0.929 . S
C2458 C2457 1.383 . S
C2458 C2459 1.377 . S
C2459 H2443 0.930 . S
C2459 C2458 1.377 . S
C2459 C2460 1.379 . S
C2460 H2444 0.931 . S
C2460 C2454 1.383 . S
C2460 C2459 1.379 . S
H2461 C2455 0.959 . S
H2462 C2455 0.961 . S
H2463 C2455 0.960 . S
H2464 C2456 0.930 . S
H2465 C2457 0.929 . S
C531 C253 1.605 . S
C550 C348 1.573 . S
C567 C272 1.572 . S
C586 C368 1.531 . S
C603 C234 1.527 . S
C622 C391 1.535 . S
C639 C215 1.404 . S
C658 C371 1.405 1_556 S
C694 C388 1.435 1_556 S
C675 C177 1.457 . S
C711 C196 1.457 . S
C730 C351 1.460 . S
C766 C358 1.592 1_556 S
C747 C220 1.494 . S
C802 C378 1.430 . S
C783 C182 1.406 . S
C819 C201 1.554 . S
C838 C383 1.650 . S
C855 C258 1.397 . S
C874 C363 1.501 . S
C891 C277 1.337 . S
C910 C398 1.425 . S
C946 C343 1.602 . S
C927 C239 1.487 . S
C982 C408 1.587 . S
C963 C25 1.605 . S
C999 C44 1.573 . S
C1018 C428 1.529 . S
C1035 C6 1.528 . S
C1054 C451 1.531 . S
C1071 C329 1.403 . S
C1090 C431 1.413 . S
C1107 C291 1.456 . S
C1126 C448 1.449 . S
C1143 C310 1.456 . S
C1162 C411 1.457 . S
C1179 C334 1.498 . S
C1198 C418 1.609 . S
C1215 C296 1.394 . S
C1234 C438 1.470 . S
C1270 C443 1.624 . S
C1251 C315 1.554 . S
C1287 C30 1.409 . S
C1306 C423 1.474 . S
C1342 C458 1.425 . S
C1323 C49 1.337 . S
C1359 C11 1.482 . S
C1378 C403 1.576 . S
C1414 C468 1.598 . S
C1395 C139 1.606 . S
C1431 C158 1.573 . S
C1450 C488 1.529 . S
C1486 C511 1.551 . S
C1467 C120 1.532 . S
C1522 C491 1.410 . S
C1503 C101 1.403 . S
C1558 C508 1.453 . S
C1539 C63 1.457 . S
C1575 C82 1.451 . S
C1594 C471 1.456 . S
C1611 C106 1.492 . S
C1630 C478 1.602 . S
C1647 C68 1.400 . S
C1666 C498 1.426 . S
C1702 C503 1.649 . S
C1683 C87 1.554 . S
C1719 C144 1.403 . S
C1738 C483 1.499 . S
C1755 C163 1.345 . S
C1774 C518 1.387 . S
C1791 C125 1.482 . S
C1810 C463 1.576 . S
C1827 C287 1.358 . S
C1846 C361 1.310 . S
C1882 C381 1.793 . S
C1863 C306 1.871 . S
C1899 C325 1.564 . S
C1918 C390 1.534 . S
C1935 C116 1.787 . S
C1954 C370 1.727 . S
C1971 C135 1.695 . S
C1990 C401 1.595 . S
C2026 C350 1.314 . S
C2007 C154 1.310 . S
C2043 C59 1.361 . S
C2062 C421 1.332 . S
C2079 C78 1.871 . S
C2098 C441 1.802 . S
C2115 C97 1.562 . S
C2134 C450 1.517 . S
C2151 C230 1.789 . S
C2170 C430 1.737 . S
C2206 C461 1.632 . S
C2187 C249 1.700 . S
C2223 C268 1.308 . S
C2242 C410 1.314 . S
C2259 C173 1.361 . S
C2278 C481 1.319 . S
C2295 C192 1.868 . S
C2314 C501 1.754 . S
C2350 C510 1.518 . S
C2331 C211 1.562 . S
C2367 C2 1.788 . S
C2386 C490 1.728 . S
C2403 C21 1.695 . S
C2422 C521 1.592 . S
C2439 C40 1.306 . S
C2458 C470 1.278 . S
