# Generated by pormake.
# Topology pth, (4,4)-cn, num edge types: 1
# Building blocks:
#     Node 0, Type 0, BuildingBlock: TATPOV_clean_sbu_0, # of connection points: 4
#     Node 1, Type 0, BuildingBlock: TATPOV_clean_sbu_0, # of connection points: 4
#     Node 2, Type 0, BuildingBlock: TATPOV_clean_sbu_0, # of connection points: 4
#     Node 3, Type 1, BuildingBlock: MUDLON_clean_linker_0, # of connection points: 4
#     Node 4, Type 1, BuildingBlock: MUDLON_clean_linker_0, # of connection points: 4
#     Node 5, Type 1, BuildingBlock: MUDLON_clean_linker_0, # of connection points: 4
#     Edge 6, Type (0, 1), BuildingBlock: ZUJKAS_clean_linker_0, # of connection points: 2
#     Edge 7, Type (0, 1), BuildingBlock: ZUJKAS_clean_linker_0, # of connection points: 2
#     Edge 8, Type (0, 1), BuildingBlock: ZUJKAS_clean_linker_0, # of connection points: 2
#     Edge 9, Type (0, 1), BuildingBlock: ZUJKAS_clean_linker_0, # of connection points: 2
#     Edge 10, Type (0, 1), BuildingBlock: ZUJKAS_clean_linker_0, # of connection points: 2
#     Edge 11, Type (0, 1), BuildingBlock: ZUJKAS_clean_linker_0, # of connection points: 2
#     Edge 12, Type (0, 1), BuildingBlock: ZUJKAS_clean_linker_0, # of connection points: 2
#     Edge 13, Type (0, 1), BuildingBlock: ZUJKAS_clean_linker_0, # of connection points: 2
#     Edge 14, Type (0, 1), BuildingBlock: ZUJKAS_clean_linker_0, # of connection points: 2
#     Edge 15, Type (0, 1), BuildingBlock: ZUJKAS_clean_linker_0, # of connection points: 2
#     Edge 16, Type (0, 1), BuildingBlock: ZUJKAS_clean_linker_0, # of connection points: 2
#     Edge 17, Type (0, 1), BuildingBlock: ZUJKAS_clean_linker_0, # of connection points: 2
# Relax obj value: 0.052
# Max RMSD: 0.165
# Mean RMSD: 0.112
data_MOF--net-pth--node1-TATPOV_clean_sbu_0--node2-MUDLON_clean_linker_0--edge1-ZUJKAS_clean_linker_0
_symmetry_space_group_name_H-M    P1
_symmetry_Int_Tables_number       1
_symmetry_cell_setting            triclinic
loop_
_symmetry_equiv_pos_as_xyz
'x, y, z'
_cell_length_a     41.326489
_cell_length_b     41.023518
_cell_length_c     81.040651
_cell_angle_alpha  92.382692
_cell_angle_beta   92.207654
_cell_angle_gamma 120.78914
loop_
_atom_site_label
_atom_site_type_symbol
_atom_site_fract_x
_atom_site_fract_y
_atom_site_fract_z
_atom_type_partial_charge
Zn0 Zn 0.10485 0.99421 0.01707 0.0
Zn1 Zn 0.08551 0.03964 0.03353 0.0
O2 O 0.09435 0.01181 0.05215 0.0
O3 O 0.11146 0.97568 0.0389 0.0
O4 O 0.07325 0.07574 0.04539 0.0
O5 O 0.14874 0.03977 0.00802 0.0
O6 O 0.13211 0.07613 0.02137 0.0
C7 C 0.10457 0.98729 0.05229 0.0
C8 C 0.02922 0.97754 0.00775 0.0
O9 O 0.0377 0.00486 0.01845 0.0
O10 O 0.05309 0.96776 0.0048 0.0
C11 C 0.04981 0.06548 0.05655 0.0
O12 O 0.03283 0.03005 0.0606 0.0
C13 C 0.15408 0.07248 0.01185 0.0
Zn14 Zn 0.09031 0.08511 0.34098 0.0
Zn15 Zn 0.03494 0.06582 0.36163 0.0
O16 O 0.08177 0.0821 0.37752 0.0
O17 O 0.12728 0.09824 0.36063 0.0
O18 O 0.99364 0.05585 0.37671 0.0
O19 O 0.08207 0.12516 0.33168 0.0
O20 O 0.03532 0.10727 0.34795 0.0
C21 C 0.11633 0.09408 0.37518 0.0
C22 C 0.03017 0.00593 0.33644 0.0
O23 O 0.0165 0.01476 0.34847 0.0
O24 O 0.06073 0.03096 0.33088 0.0
C25 C 0.97116 0.02427 0.38252 0.0
O26 O 0.97461 0.99467 0.37906 0.0
C27 C 0.0552 0.12827 0.33684 0.0
Zn28 Zn 0.05141 0.93834 0.71208 0.0
Zn29 Zn 0.01785 0.9663 0.69301 0.0
O30 O 0.0466 0.95284 0.67648 0.0
O31 O 0.07505 0.93088 0.69204 0.0
O32 O 0.98937 0.98372 0.67871 0.0
O33 O 0.00122 0.89636 0.71858 0.0
O34 O 0.97482 0.9223 0.70439 0.0
C35 C 0.06849 0.93962 0.67801 0.0
C36 C 0.07521 0.01718 0.72109 0.0
O37 O 0.05348 0.01307 0.70858 0.0
O38 O 0.07818 0.9894 0.72538 0.0
C39 C 0.96631 0.99144 0.68518 0.0
O40 O 0.96259 0.98906 0.70119 0.0
C41 C 0.97204 0.89699 0.7138 0.0
H42 H 0.9518 0.63864 0.21156 0.0
N43 N 0.0234 0.65025 0.21251 0.0
H44 H 0.92603 0.66119 0.23288 0.0
H45 H 0.05316 0.67825 0.24308 0.0
H46 H 0.02735 0.70033 0.26459 0.0
H47 H 0.08786 0.71641 0.21203 0.0
H48 H 0.1026 0.76724 0.19349 0.0
H49 H 0.97885 0.64662 0.18574 0.0
H50 H 0.99338 0.69692 0.1671 0.0
H51 H 0.96967 0.58451 0.22587 0.0
H52 H 0.04282 0.62522 0.18537 0.0
H53 H 0.9486 0.51989 0.21626 0.0
H54 H 0.02046 0.55994 0.17551 0.0
H55 H 0.89666 0.3146 0.19754 0.0
H56 H 0.90684 0.28928 0.22278 0.0
H57 H 0.0139 0.3936 0.23369 0.0
H58 H 0.00416 0.41806 0.20839 0.0
H59 H 0.01489 0.38839 0.18286 0.0
H60 H 0.0324 0.3556 0.16269 0.0
H61 H 0.92153 0.30425 0.13742 0.0
H62 H 0.90435 0.33806 0.1576 0.0
H63 H 0.89755 0.40391 0.19073 0.0
H64 H 0.91266 0.46978 0.195 0.0
H65 H 0.028 0.50907 0.18407 0.0
N66 N 0.94463 0.37963 0.1849 0.0
H67 H 0.01247 0.44376 0.17932 0.0
C68 C 0.00476 0.65734 0.2257 0.0
C69 C 0.9683 0.65175 0.22315 0.0
C70 C 0.95354 0.66449 0.23535 0.0
C71 C 0.97474 0.68261 0.25035 0.0
C72 C 0.01016 0.68605 0.25323 0.0
C73 C 0.02504 0.67365 0.24097 0.0
C74 C 0.03242 0.67783 0.2003 0.0
C75 C 0.06738 0.71193 0.2021 0.0
C76 C 0.07571 0.74085 0.19151 0.0
C77 C 0.04903 0.7362 0.17891 0.0
C78 C 0.01425 0.70164 0.17688 0.0
C79 C 0.00597 0.67276 0.18747 0.0
C80 C 0.00681 0.61089 0.20595 0.0
C81 C 0.98037 0.58007 0.21455 0.0
C82 C 0.96812 0.54258 0.20903 0.0
C83 C 0.98236 0.53458 0.19496 0.0
C84 C 0.00882 0.56503 0.18639 0.0
C85 C 0.02125 0.60256 0.19194 0.0
C86 C 0.94941 0.36809 0.20098 0.0
C87 C 0.92197 0.33217 0.20556 0.0
C88 C 0.92778 0.31787 0.22002 0.0
C89 C 0.96131 0.33937 0.23019 0.0
C90 C 0.98801 0.37613 0.22599 0.0
C91 C 0.98227 0.3903 0.21152 0.0
C92 C 0.95807 0.36572 0.17175 0.0
C93 C 0.99453 0.37089 0.1728 0.0
C94 C 0.00445 0.35175 0.16132 0.0
C95 C 0.9782 0.32691 0.14858 0.0
C96 C 0.9425 0.32337 0.14702 0.0
C97 C 0.9326 0.3426 0.15853 0.0
C98 C 0.95362 0.41859 0.18475 0.0
C99 C 0.92584 0.42683 0.18889 0.0
C100 C 0.93465 0.46446 0.19148 0.0
C101 C 0.97167 0.49476 0.19007 0.0
C102 C -0.0009 0.48651 0.1851 0.0
C103 C 0.9902 0.44886 0.18243 0.0
H104 H 0.74376 0.13556 0.55191 0.0
N105 N 0.68262 0.08486 0.53344 0.0
H106 H 0.77467 0.1238 0.57533 0.0
H107 H 0.65392 0.01821 0.54871 0.0
H108 H 0.68405 0.00624 0.57226 0.0
H109 H 0.65727 0.01341 0.51937 0.0
H110 H 0.68498 0.99734 0.49663 0.0
H111 H 0.7332 0.13272 0.51402 0.0
H112 H 0.76061 0.11704 0.49098 0.0
H113 H 0.67554 0.14536 0.53457 0.0
H114 H 0.61068 0.0229 0.5314 0.0
H115 H 0.61739 0.14721 0.53462 0.0
H116 H 0.55232 0.02424 0.53219 0.0
H117 H 0.42851 0.12802 0.5606 0.0
H118 H 0.37834 0.09641 0.57948 0.0
H119 H 0.35561 0.98706 0.55916 0.0
H120 H 0.40623 0.01911 0.5404 0.0
H121 H 0.3957 0.03816 0.5143 0.0
H122 H 0.35802 0.04385 0.49207 0.0
H123 H 0.4182 0.16568 0.50287 0.0
H124 H 0.45565 0.15956 0.5254 0.0
H125 H 0.51236 0.14004 0.55309 0.0
H126 H 0.56922 0.13598 0.55243 0.0
H127 H 0.51073 0.03859 0.51693 0.0
N128 N 0.44638 0.09566 0.53659 0.0
H129 H 0.45363 0.04205 0.51826 0.0
C130 C 0.69665 0.07794 0.54859 0.0
C131 C 0.7303 0.10748 0.55655 0.0
C132 C 0.74781 0.10068 0.56994 0.0
C133 C 0.73193 0.06399 0.57562 0.0
C134 C 0.69729 0.03469 0.56804 0.0
C135 C 0.67982 0.04157 0.55462 0.0
C136 C 0.69343 0.07438 0.5184 0.0
C137 C 0.67928 0.03616 0.51305 0.0
C138 C 0.69512 0.02701 0.5 0.0
C139 C 0.72536 0.05593 0.49215 0.0
C140 C 0.73785 0.0941 0.49697 0.0
C141 C 0.72205 0.10315 0.50999 0.0
C142 C 0.64751 0.0842 0.53317 0.0
C143 C 0.64865 0.11889 0.534 0.0
C144 C 0.61538 0.1198 0.53415 0.0
C145 C 0.58006 0.08586 0.53362 0.0
C146 C 0.57895 0.05093 0.53251 0.0
C147 C 0.6124 0.0501 0.53223 0.0
C148 C 0.42092 0.07602 0.5491 0.0
C149 C 0.41324 0.09728 0.56053 0.0
C150 C 0.38464 0.07915 0.57129 0.0
C151 C 0.36291 0.03922 0.57073 0.0
C152 C 0.37165 0.01786 0.55972 0.0
C153 C 0.40062 0.03612 0.54904 0.0
C154 C 0.42874 0.09861 0.52151 0.0
C155 C 0.40162 0.06622 0.51166 0.0
C156 C 0.37997 0.06952 0.49891 0.0
C157 C 0.38486 0.10519 0.49579 0.0
C158 C 0.41335 0.13773 0.50512 0.0
C159 C 0.43504 0.13438 0.51785 0.0
C160 C 0.47898 0.09181 0.53563 0.0
C161 C 0.51193 0.11784 0.54519 0.0
C162 C 0.54443 0.11558 0.54469 0.0
C163 C 0.5448 0.08722 0.53446 0.0
C164 C 0.51144 0.06065 0.52503 0.0
C165 C 0.47874 0.0628 0.52566 0.0
H166 H 0.63632 0.75194 0.87604 0.0
N167 N 0.61528 0.68146 0.86517 0.0
H168 H 0.68069 0.79007 0.89955 0.0
H169 H 0.64348 0.65496 0.88953 0.0
H170 H 0.68635 0.69224 0.91302 0.0
H171 H 0.68401 0.68775 0.8618 0.0
H172 H 0.72075 0.7066 0.83758 0.0
H173 H 0.59744 0.7 0.83657 0.0
H174 H 0.63403 0.71841 0.81195 0.0
H175 H 0.54083 0.64754 0.86653 0.0
H176 H 0.63059 0.62374 0.86269 0.0
H177 H 0.49448 0.57923 0.86429 0.0
H178 H 0.58534 0.55616 0.8616 0.0
H179 H 0.3711 0.39094 0.87415 0.0
H180 H 0.34655 0.35892 0.89922 0.0
H181 H 0.43887 0.33824 0.90427 0.0
H182 H 0.46332 0.37034 0.87882 0.0
H183 H 0.42938 0.34675 0.8381 0.0
H184 H 0.3828 0.31242 0.81469 0.0
H185 H 0.33155 0.37945 0.82489 0.0
H186 H 0.37923 0.41474 0.84792 0.0
H187 H 0.42469 0.45471 0.87582 0.0
H188 H 0.46896 0.52285 0.87766 0.0
H189 H 0.53944 0.50601 0.84442 0.0
N190 N 0.43345 0.39994 0.85922 0.0
H191 H 0.49616 0.43742 0.8437 0.0
C192 C 0.63637 0.70058 0.88074 0.0
C193 C 0.64664 0.73859 0.88426 0.0
C194 C 0.67193 0.7603 0.89773 0.0
C195 C 0.68745 0.74431 0.90805 0.0
C196 C 0.67555 0.70565 0.9051 0.0
C197 C 0.65052 0.68407 0.89159 0.0
C198 C 0.63789 0.69268 0.85103 0.0
C199 C 0.67277 0.69435 0.85102 0.0
C200 C 0.69367 0.70485 0.83707 0.0
C201 C 0.68022 0.71381 0.8228 0.0
C202 C 0.6453 0.71199 0.8228 0.0
C203 C 0.62435 0.70143 0.83679 0.0
C204 C 0.58915 0.64095 0.86496 0.0
C205 C 0.55054 0.62757 0.8655 0.0
C206 C 0.52416 0.58849 0.86429 0.0
C207 C 0.53601 0.56191 0.86272 0.0
C208 C 0.57489 0.57553 0.86241 0.0
C209 C 0.60105 0.61448 0.86326 0.0
C210 C 0.41921 0.38302 0.87455 0.0
C211 C 0.38635 0.37986 0.88062 0.0
C212 C 0.37243 0.36173 0.89509 0.0
C213 C 0.39084 0.34616 0.90375 0.0
C214 C 0.42395 0.34976 0.89779 0.0
C215 C 0.438 0.36815 0.88334 0.0
C216 C 0.4074 0.38273 0.84485 0.0
C217 C 0.40844 0.35436 0.8351 0.0
C218 C 0.38199 0.33498 0.82175 0.0
C219 C 0.35363 0.34333 0.81806 0.0
C220 C 0.35307 0.37243 0.82758 0.0
C221 C 0.38011 0.3924 0.84076 0.0
C222 C 0.45762 0.44071 0.8599 0.0
C223 C 0.44979 0.46546 0.86907 0.0
C224 C 0.47507 0.50475 0.86994 0.0
C225 C 0.5082 0.5202 0.86135 0.0
C226 C 0.51494 0.4953 0.85163 0.0
C227 C 0.49007 0.45606 0.85105 0.0
H228 H 0.07653 0.13943 0.04968 0.0
H229 H 0.06447 0.18553 0.06387 0.0
H230 H 0.99425 0.10112 0.09677 0.0
H231 H 0.00556 0.05455 0.08246 0.0
H232 H 0.96237 0.14134 0.08495 0.0
H233 H 0.11068 0.23941 0.10938 0.0
H234 H 0.1049 0.22963 0.08732 0.0
H235 H 0.09431 0.19191 0.10064 0.0
C236 C 0.05854 0.13064 0.05995 0.0
C237 C 0.04219 0.09334 0.065 0.0
C238 C 0.05183 0.15711 0.06809 0.0
C239 C 0.02898 0.14695 0.08154 0.0
C240 C 0.01212 0.10959 0.08645 0.0
H241 H 0.01342 0.28901 0.15792 0.0
H242 H 0.02561 0.2467 0.14074 0.0
C243 C 0.01867 0.08304 0.07827 0.0
C244 C 0.02249 0.17514 0.09051 0.0
H245 H 0.06747 0.26012 0.11358 0.0
C246 C 0.98532 0.16736 0.0912 0.0
C247 C 0.05249 0.20886 0.09878 0.0
C248 C 0.09281 0.2179 0.09916 0.0
C249 C 0.97729 0.19237 0.09996 0.0
C250 C 0.00736 0.2264 0.10799 0.0
C251 C 0.04453 0.2342 0.10727 0.0
C252 C 0.00072 0.25318 0.11807 0.0
C253 C 0.93663 0.18156 0.10097 0.0
C254 C 0.98319 0.2714 0.11097 0.0
C255 C 0.97621 0.29576 0.12078 0.0
C256 C 0.98703 0.30261 0.13783 0.0
C257 C 0.00525 0.28485 0.14479 0.0
C258 C 0.01207 0.26047 0.13501 0.0
H259 H 0.91683 0.15083 0.0975 0.0
H260 H 0.93139 0.18823 0.11365 0.0
H261 H 0.9302 0.19806 0.09231 0.0
H262 H 0.97492 0.26679 0.09784 0.0
H263 H 0.96252 0.30935 0.11502 0.0
H264 H 0.91898 0.96202 0.3978 0.0
H265 H 0.86929 0.9575 0.41487 0.0
H266 H 0.90573 0.07468 0.40776 0.0
H267 H 0.95502 0.07942 0.39066 0.0
H268 H 0.8781 0.00011 0.4441 0.0
H269 H 0.79182 0.02049 0.39637 0.0
H270 H 0.82671 0.00835 0.39125 0.0
H271 H 0.84082 0.05686 0.39711 0.0
C272 C 0.91626 0.98675 0.3998 0.0
C273 C 0.94094 0.02105 0.39283 0.0
C274 C 0.88784 0.98409 0.40952 0.0
C275 C 0.88339 0.01554 0.41231 0.0
C276 C 0.90807 0.04979 0.40543 0.0
H277 H 0.80146 0.09051 0.49015 0.0
H278 H 0.83575 0.07521 0.47049 0.0
C279 C 0.93647 0.05252 0.39577 0.0
C280 C 0.85449 0.01359 0.42316 0.0
H281 H 0.78273 0.03183 0.42473 0.0
C282 C 0.85684 0.00644 0.43981 0.0
C283 C 0.82637 0.02123 0.4175 0.0
C284 C 0.82096 0.02677 0.39953 0.0
C285 C 0.83328 0.00896 0.45116 0.0
C286 C 0.8071 0.0194 0.44574 0.0
C287 C 0.80317 0.0243 0.4289 0.0
C288 C 0.78568 0.02817 0.45756 0.0
C289 C 0.83708 0.00108 0.46893 0.0
C290 C 0.74604 0.00744 0.45651 0.0
C291 C 0.72623 0.01639 0.46768 0.0
C292 C 0.74579 0.04656 0.47992 0.0
C293 C 0.78549 0.06745 0.48075 0.0
C294 C 0.80518 0.05842 0.46966 0.0
H295 H 0.84944 0.98269 0.47001 0.0
H296 H 0.85616 0.02837 0.47624 0.0
H297 H 0.8093 0.98712 0.47444 0.0
H298 H 0.7305 0.98421 0.44714 0.0
H299 H 0.69565 -4e-05 0.46666 0.0
H300 H 0.95313 0.832 0.72892 0.0
H301 H 0.8964 0.79317 0.7434 0.0
H302 H 0.85234 0.86379 0.72889 0.0
H303 H 0.90862 0.90221 0.71397 0.0
H304 H 0.87862 0.82175 0.76948 0.0
H305 H 0.75882 0.75902 0.72176 0.0
H306 H 0.80729 0.77971 0.71659 0.0
H307 H 0.78849 0.80969 0.7215 0.0
C308 C 0.93101 0.83879 0.7285 0.0
C309 C 0.93545 0.87032 0.72039 0.0
C310 C 0.89858 0.81653 0.73677 0.0
C311 C 0.87001 0.8254 0.73715 0.0
C312 C 0.87361 0.85588 0.72847 0.0
H313 H 0.69303 0.77175 0.80335 0.0
H314 H 0.73633 0.79587 0.78115 0.0
C315 C 0.90593 0.87797 0.72002 0.0
C316 C 0.83905 0.80579 0.7483 0.0
H317 H 0.74314 0.75611 0.75003 0.0
C318 C 0.84901 0.80704 0.76517 0.0
C319 C 0.80043 0.78692 0.74268 0.0
C320 C 0.78805 0.78339 0.72462 0.0
C321 C 0.8215 0.79043 0.77662 0.0
C322 C 0.78296 0.77178 0.77104 0.0
C323 C 0.7728 0.77045 0.7542 0.0
C324 C 0.75313 0.75405 0.78275 0.0
C325 C 0.83383 0.7936 0.79469 0.0
C326 C 0.74763 0.72196 0.79061 0.0
C327 C 0.72291 0.70807 0.80323 0.0
C328 C 0.70327 0.72605 0.80821 0.0
C329 C 0.70754 0.75713 0.79974 0.0
C330 C 0.73228 0.77099 0.78708 0.0
H331 H 0.86433 0.81487 0.79736 0.0
H332 H 0.81726 0.80165 0.80257 0.0
H333 H 0.82868 0.76558 0.79824 0.0
H334 H 0.76329 0.70835 0.78729 0.0
H335 H 0.71966 0.68362 0.8093 0.0
H336 H 0.12853 0.93731 0.05684 0.0
H337 H 0.12197 0.90143 0.08101 0.0
H338 H 0.07584 0.96064 0.10693 0.0
H339 H 0.0822 0.99695 0.0827 0.0
H340 H 0.13438 0.94596 0.12572 0.0
H341 H 0.00882 0.82056 0.09283 0.0
H342 H 0.05007 0.84469 0.08126 0.0
H343 H 0.02582 0.86866 0.08733 0.0
C344 C 0.11745 0.9432 0.06773 0.0
C345 C 0.10547 0.96972 0.06776 0.0
C346 C 0.11378 0.92266 0.08153 0.0
C347 C 0.09811 0.92822 0.09561 0.0
C348 C 0.08797 0.95604 0.09611 0.0
H349 H 0.0014 0.7603 0.16873 0.0
H350 H 0.01379 0.81005 0.15 0.0
C351 C 0.09161 0.97668 0.08226 0.0
C352 C 0.08959 0.90262 0.10915 0.0
H353 H 0.03263 0.81017 0.11779 0.0
C354 C 0.11199 0.91634 0.12411 0.0
C355 C 0.06009 0.86419 0.10698 0.0
C356 C 0.03454 0.84852 0.0913 0.0
C357 C 0.10627 0.89206 0.13685 0.0
C358 C 0.0777 0.8532 0.13439 0.0
C359 C 0.05463 0.83992 0.1196 0.0
C360 C 0.07151 0.82537 0.14677 0.0
C361 C 0.13069 0.90817 0.15281 0.0
C362 C 0.09985 0.81744 0.15111 0.0
C363 C 0.09278 0.78883 0.16173 0.0
C364 C 0.05711 0.76745 0.16807 0.0
C365 C 0.02897 0.77584 0.16384 0.0
C366 C 0.03608 0.80445 0.15326 0.0
H367 H 0.14373 0.93954 0.15448 0.0
H368 H 0.11412 0.89514 0.16362 0.0
H369 H 0.15379 0.90188 0.1526 0.0
H370 H 0.1271 0.83262 0.14592 0.0
H371 H 0.11488 0.78274 0.16459 0.0
H372 H 0.10261 0.08116 0.40789 0.0
H373 H 0.1476 0.08824 0.43042 0.0
H374 H 0.23621 0.12869 0.39662 0.0
H375 H 0.19195 0.12231 0.37422 0.0
H376 H 0.18734 0.05089 0.43149 0.0
H377 H 0.28625 0.20669 0.43593 0.0
H378 H 0.23993 0.18452 0.42529 0.0
H379 H 0.27859 0.18588 0.41518 0.0
C380 C 0.13181 0.09215 0.40533 0.0
C381 C 0.14366 0.1012 0.38925 0.0
C382 C 0.15744 0.09609 0.4182 0.0
C383 C 0.19535 0.10949 0.41523 0.0
C384 C 0.20731 0.11912 0.39928 0.0
H385 H 0.35748 0.06808 0.46502 0.0
H386 H 0.31055 0.06955 0.44619 0.0
C387 C 0.18182 0.11518 0.38644 0.0
C388 C 0.22198 0.11086 0.42841 0.0
H389 H 0.30901 0.16924 0.44817 0.0
C390 C 0.21375 0.07684 0.4353 0.0
C391 C 0.25623 0.14482 0.43347 0.0
C392 C 0.26565 0.18262 0.42721 0.0
C393 C 0.23951 0.07558 0.44666 0.0
C394 C 0.27468 0.10912 0.451 0.0
C395 C 0.28228 0.14344 0.44461 0.0
C396 C 0.30397 0.10912 0.46214 0.0
C397 C 0.22879 0.03837 0.45394 0.0
C398 C 0.31677 0.1319 0.47706 0.0
C399 C 0.34369 0.13126 0.48779 0.0
C400 C 0.35846 0.10795 0.48376 0.0
C401 C 0.34626 0.08591 0.46859 0.0
C402 C 0.31939 0.08663 0.45784 0.0
H403 H 0.1977 0.0186 0.45301 0.0
H404 H 0.24163 0.02441 0.44703 0.0
H405 H 0.23927 0.04299 0.46716 0.0
H406 H 0.30533 0.14956 0.48057 0.0
H407 H 0.35209 0.14819 0.49948 0.0
H408 H 0.0941 0.08724 0.71073 0.0
H409 H 0.14011 0.14954 0.72454 0.0
H410 H 0.15506 0.09429 0.76579 0.0
H411 H 0.11019 0.03223 0.75195 0.0
H412 H 0.14634 0.18732 0.75465 0.0
H413 H 0.26141 0.15633 0.75097 0.0
H414 H 0.21599 0.12705 0.73982 0.0
H415 H 0.22255 0.1208 0.76132 0.0
C416 C 0.10696 0.08844 0.72281 0.0
C417 C 0.09901 0.05484 0.73014 0.0
C418 C 0.13322 0.12402 0.73067 0.0
C419 C 0.1517 0.12645 0.74598 0.0
C420 C 0.14195 0.09301 0.75375 0.0
H421 H 0.27791 0.3054 0.82114 0.0
H422 H 0.22854 0.25748 0.80137 0.0
C423 C 0.11615 0.05756 0.74586 0.0
C424 C 0.18227 0.16362 0.75365 0.0
H425 H 0.27342 0.2084 0.76978 0.0
C426 C 0.1743 0.19223 0.7578 0.0
C427 C 0.21904 0.17038 0.75733 0.0
C428 C 0.23041 0.14217 0.75196 0.0
C429 C 0.20166 0.22671 0.76632 0.0
C430 C 0.23752 0.23218 0.77115 0.0
C431 C 0.24589 0.20422 0.76626 0.0
C432 C 0.26624 0.26536 0.78205 0.0
C433 C 0.19182 0.25683 0.77 0.0
C434 C 0.30399 0.28577 0.77788 0.0
C435 C 0.33232 0.31248 0.78933 0.0
C436 C 0.32335 0.31962 0.80508 0.0
C437 C 0.28542 0.30076 0.80896 0.0
C438 C 0.25716 0.27354 0.79762 0.0
H439 H 0.17043 0.2547 0.76058 0.0
H440 H 0.17944 0.25262 0.78219 0.0
H441 H 0.2171 0.28588 0.77038 0.0
H442 H 0.31174 0.27993 0.76597 0.0
H443 H 0.3614 0.32675 0.78607 0.0
H444 H 0.91305 0.00739 0.69508 0.0
H445 H 0.87218 0.02086 0.67769 0.0
H446 H 0.92444 0.01036 0.63435 0.0
H447 H 0.96576 0.99727 0.65165 0.0
H448 H 0.91567 0.07402 0.63564 0.0
H449 H 0.7822 0.94148 0.64672 0.0
H450 H 0.80963 0.96969 0.66511 0.0
H451 H 0.82812 0.94791 0.65181 0.0
C452 C 0.91595 0.00801 0.68185 0.0
C453 C 0.94256 0.00105 0.67474 0.0
C454 C 0.8924 0.0155 0.67193 0.0
C455 C 0.89489 0.01599 0.65472 0.0
C456 C 0.92195 0.0099 0.64762 0.0
H457 H 0.74017 0.00204 0.5765 0.0
H458 H 0.77869 0.99108 0.59654 0.0
C459 C 0.94552 0.0024 0.65752 0.0
C460 C 0.86938 0.02296 0.64407 0.0
H461 H 0.77674 0.98631 0.63124 0.0
C462 C 0.88529 0.05493 0.63469 0.0
C463 C 0.8298 0.99773 0.64275 0.0
C464 C 0.81132 0.96207 0.65201 0.0
C465 C 0.86265 0.06244 0.62404 0.0
C466 C 0.82301 0.03757 0.62293 0.0
C467 C 0.8071 0.00552 0.63226 0.0
C468 C 0.79779 0.04338 0.61153 0.0
C469 C 0.88139 0.09638 0.61374 0.0
C470 C 0.795 0.07597 0.61358 0.0
C471 C 0.7728 0.08224 0.60219 0.0
C472 C 0.75283 0.05591 0.58859 0.0
C473 C 0.75476 0.02267 0.58693 0.0
C474 C 0.77695 0.01645 0.59831 0.0
H475 H 0.91215 0.1076 0.6133 0.0
H476 H 0.86831 0.08893 0.60088 0.0
H477 H 0.87772 0.11944 0.61921 0.0
H478 H 0.81029 0.09673 0.6239 0.0
H479 H 0.77145 0.10782 0.60397 0.0
H480 H 0.00187 0.91667 0.98515 0.0
H481 H 0.9388 0.88016 0.97126 0.0
H482 H 0.90675 0.95274 0.99663 0.0
H483 H 0.97018 0.98985 0.01065 0.0
H484 H 0.86843 0.84158 0.98746 0.0
H485 H 0.87752 0.95138 0.94647 0.0
H486 H 0.91906 0.954 0.95604 0.0
H487 H 0.89007 0.96491 0.96823 0.0
C488 C 0.98158 0.92512 0.98776 0.0
C489 C 0.99116 0.95629 -0.001 0.0
C490 C 0.9455 0.90413 0.97982 0.0
C491 C 0.91828 0.91392 0.98286 0.0
C492 C 0.92758 0.94504 0.994 0.0
H493 H 0.69353 0.80146 0.92943 0.0
H494 H 0.74621 0.84298 0.94966 0.0
C495 C 0.96378 0.96611 0.00202 0.0
C496 C 0.88006 0.89075 0.97445 0.0
H497 H 0.82229 0.89102 0.94327 0.0
C498 C 0.8581 0.85246 0.97793 0.0
C499 C 0.86661 0.9052 0.96215 0.0
C500 C 0.88947 0.94605 0.95785 0.0
C501 C 0.82352 0.82782 0.96902 0.0
C502 C 0.81101 0.84172 0.9561 0.0
C503 C 0.83205 0.88047 0.95316 0.0
C504 C 0.77823 0.81583 0.9445 0.0
C505 C 0.80098 0.78697 0.97337 0.0
C506 C 0.77905 0.78719 0.9348 0.0
C507 C 0.74929 0.76369 0.92323 0.0
C508 C 0.71802 0.76839 0.92103 0.0
C509 C 0.71725 0.79719 0.93077 0.0
C510 C 0.7472 0.82081 0.94237 0.0
H511 H 0.80764 0.78395 0.98643 0.0
H512 H 0.77017 0.77557 0.97146 0.0
H513 H 0.8082 0.7694 0.9653 0.0
H514 H 0.8032 0.78355 0.93592 0.0
H515 H 0.75135 0.74252 0.91566 0.0
H516 H 0.97149 0.94153 0.34812 0.0
H517 H 0.94694 0.87527 0.33771 0.0
H518 H 0.02309 0.91451 0.29854 0.0
H519 H 0.04774 0.98022 0.30873 0.0
H520 H 0.91656 0.83607 0.30312 0.0
H521 H 0.04871 0.84484 0.32663 0.0
H522 H 0.03418 0.8771 0.33424 0.0
H523 H 0.05647 0.8843 0.31501 0.0
C524 C 0.98264 0.936 0.33717 0.0
C525 C 0.01193 0.96613 0.32938 0.0
C526 C 0.96858 0.8982 0.33126 0.0
C527 C 0.98368 0.89021 0.31754 0.0
C528 C 0.01148 0.92022 0.30929 0.0
H529 H 0.94784 0.72886 0.2431 0.0
H530 H 0.94004 0.77107 0.26235 0.0
C531 C 0.02553 0.95777 0.31515 0.0
C532 C 0.97246 0.8508 0.31208 0.0
H533 H 0.01143 0.79619 0.3052 0.0
C534 C 0.93686 0.82681 0.30385 0.0
C535 C 0.99869 0.83853 0.31342 0.0
C536 C 0.03654 0.86237 0.32295 0.0
C537 C 0.92796 0.79192 0.29576 0.0
C538 C 0.95573 0.78143 0.29569 0.0
C539 C 0.99014 0.80418 0.30509 0.0
C540 C 0.95218 0.75011 0.28443 0.0
C541 C 0.8893 0.76721 0.28707 0.0
C542 C 0.9614 0.72395 0.29036 0.0
C543 C 0.96657 0.70017 0.2793 0.0
C544 C 0.96236 0.702 0.26213 0.0
C545 C 0.95069 0.72637 0.25626 0.0
C546 C 0.94597 0.75042 0.2673 0.0
H547 H 0.86779 0.77039 0.29358 0.0
H548 H 0.88946 0.7763 0.27435 0.0
H549 H 0.88078 0.73672 0.28625 0.0
H550 H 0.96652 0.72331 0.30352 0.0
H551 H 0.97535 0.68147 0.28414 0.0
H552 H 0.06469 0.95903 0.64628 0.0
H553 H 0.1064 0.96529 0.62443 0.0
H554 H 0.16262 0.92497 0.65624 0.0
H555 H 0.12068 0.91769 0.67787 0.0
H556 H 0.18053 0.01333 0.62723 0.0
H557 H 0.15472 0.86874 0.61313 0.0
H558 H 0.12264 0.87733 0.62441 0.0
H559 H 0.16397 0.8816 0.63495 0.0
C560 C 0.08531 0.95059 0.64847 0.0
C561 C 0.08944 0.93804 0.66387 0.0
C562 C 0.10915 0.95421 0.63597 0.0
C563 C 0.1374 0.94521 0.63862 0.0
C564 C 0.14048 0.93119 0.65372 0.0
H565 H 0.35865 0.05585 0.60328 0.0
H566 H 0.30195 0.03044 0.61876 0.0
C567 C 0.1166 0.92736 0.66616 0.0
C568 C 0.16667 0.95497 0.62659 0.0
H569 H 0.21546 0.92077 0.6064 0.0
C570 C 0.18772 0.9929 0.62246 0.0
C571 C 0.17588 0.92829 0.62022 0.0
C572 C 0.15281 0.88665 0.62327 0.0
C573 C 0.21878 0.00526 0.61279 0.0
C574 C 0.22963 0.9792 0.60742 0.0
C575 C 0.20752 0.94086 0.61082 0.0
C576 C 0.26432 0.99166 0.59855 0.0
C577 C 0.23981 0.04624 0.60848 0.0
C578 C 0.26219 0.97688 0.58236 0.0
C579 C 0.29462 0.99117 0.57353 0.0
C580 C 0.32967 0.02042 0.58079 0.0
C581 C 0.33194 0.03376 0.59729 0.0
C582 C 0.29959 0.01936 0.60612 0.0
H583 H 0.22189 0.05915 0.60928 0.0
H584 H 0.2648 0.06288 0.61737 0.0
H585 H 0.24976 0.04882 0.5958 0.0
H586 H 0.23524 0.95532 0.57635 0.0
H587 H 0.29195 0.98053 0.56079 0.0
H588 H 0.20755 0.07484 0.99233 0.0
H589 H 0.25457 0.12883 0.97832 0.0
H590 H 0.21751 0.20024 0.00074 0.0
H591 H 0.16991 0.14614 0.01475 0.0
H592 H 0.21941 0.20188 0.96659 0.0
H593 H 0.35432 0.22431 0.99457 0.0
H594 H 0.32173 0.17576 0.98733 0.0
H595 H 0.31005 0.19734 0.00403 0.0
C596 C 0.20966 0.10212 0.9945 0.0
C597 C 0.18483 0.10612 0.00462 0.0
C598 C 0.23682 0.13305 0.98658 0.0
C599 C 0.23989 0.16865 0.98869 0.0
C600 C 0.21577 0.17304 -0.00093 0.0
H601 H 0.36116 0.36519 0.92943 0.0
H602 H 0.32736 0.32592 0.95191 0.0
C603 C 0.18859 0.14209 0.00705 0.0
C604 C 0.26563 0.20001 0.97872 0.0
H605 H 0.35725 0.25187 0.96869 0.0
C606 C 0.24965 0.21334 0.96723 0.0
C607 C 0.305 0.21467 0.97955 0.0
C608 C 0.32388 0.20256 0.99215 0.0
C609 C 0.27172 0.23968 0.956 0.0
C610 C 0.31096 0.2536 0.95652 0.0
C611 C 0.32715 0.24111 0.96833 0.0
C612 C 0.33505 0.27933 0.94421 0.0
C613 C 0.25254 0.251 0.94315 0.0
C614 C 0.35191 0.26678 0.9329 0.0
C615 C 0.37132 0.28916 0.92011 0.0
C616 C 0.37419 0.32451 0.91842 0.0
C617 C 0.3588 0.33778 0.93026 0.0
C618 C 0.33953 0.31543 0.94309 0.0
H619 H 0.22139 0.23164 0.94219 0.0
H620 H 0.25872 0.28019 0.94661 0.0
H621 H 0.26324 0.25104 0.93079 0.0
H622 H 0.34878 0.23899 0.93359 0.0
H623 H 0.38262 0.27805 0.91112 0.0
H624 H 0.09578 0.18146 0.31525 0.0
H625 H 0.07745 0.22065 0.30041 0.0
H626 H 0.97472 0.17393 0.32579 0.0
H627 H 0.99309 0.1348 0.34095 0.0
H628 H 0.0118 0.18917 0.27947 0.0
H629 H 0.0139 0.28903 0.32872 0.0
H630 H 0.03785 0.26297 0.33162 0.0
H631 H 0.98753 0.23938 0.33247 0.0
C632 C 0.06952 0.17984 0.31789 0.0
C633 C 0.04578 0.15481 0.32922 0.0
C634 C 0.05913 0.20232 0.3094 0.0
C635 C 0.02487 0.20034 0.31208 0.0
C636 C 0.00159 0.17634 0.32376 0.0
H637 H 0.91373 0.2946 0.25312 0.0
H638 H 0.92713 0.26095 0.2742 0.0
C639 C 0.01205 0.15386 0.33233 0.0
C640 C 0.01228 0.22081 0.30146 0.0
H641 H 0.99216 0.2919 0.30163 0.0
C642 C 0.00744 0.21158 0.28433 0.0
C643 C 0.0063 0.24976 0.30788 0.0
C644 C 0.01188 0.26121 0.32616 0.0
C645 C 0.99737 0.23092 0.27339 0.0
C646 C 0.99239 0.26053 0.27973 0.0
C647 C 0.99613 0.26917 0.29688 0.0
C648 C 0.98522 0.28385 0.26847 0.0
C649 C 0.99239 0.21977 0.25507 0.0
C650 C 0.01375 0.30835 0.25863 0.0
C651 C 0.00621 0.32732 0.24659 0.0
C652 C 0.96996 0.32223 0.2442 0.0
C653 C 0.9418 0.29876 0.25456 0.0
C654 C 0.94944 0.27977 0.26665 0.0
H655 H 0.98921 0.19142 0.25253 0.0
H656 H 0.96728 0.21929 0.24934 0.0
H657 H 0.01757 0.24107 0.24901 0.0
H658 H 0.04156 0.31183 0.25992 0.0
H659 H 0.02841 0.34474 0.2387 0.0
loop_
_geom_bond_atom_site_label_1
_geom_bond_atom_site_label_2
_geom_bond_distance
_geom_bond_site_symmetry_2
_ccdc_geom_bond_type
Zn0 O3 2.031 1_545 S
Zn0 O5 2.049 . S
Zn0 O10 2.068 1_545 S
Zn1 O2 1.962 . S
Zn1 O4 1.986 . S
Zn1 O6 1.996 . S
Zn1 O9 1.943 . S
O2 Zn1 1.962 . S
O2 C7 1.278 . S
O3 Zn0 2.031 1_565 S
O3 C7 1.262 1_565 S
O4 Zn1 1.986 . S
O4 C11 1.262 . S
O5 Zn0 2.049 . S
O5 C13 1.260 . S
O6 Zn1 1.996 . S
O6 C13 1.257 . S
C7 O2 1.278 . S
C7 O3 1.262 1_545 S
C8 O9 1.249 . S
C8 O10 1.269 1_545 S
O9 Zn1 1.943 . S
O9 C8 1.249 . S
O10 Zn0 2.068 1_565 S
O10 C8 1.269 1_565 S
C11 O4 1.262 . S
C11 O12 1.232 . S
O12 C11 1.232 . S
C13 O5 1.260 . S
C13 O6 1.257 . S
Zn14 O17 2.031 . S
Zn14 O19 2.049 . S
Zn14 O24 2.067 . S
Zn15 O16 1.962 . S
Zn15 O18 1.986 1_455 S
Zn15 O20 1.996 . S
Zn15 O23 1.943 1_455 S
O16 Zn15 1.962 . S
O16 C21 1.254 . S
O17 Zn14 2.031 . S
O17 C21 1.269 . S
O18 Zn15 1.986 1_655 S
O18 C25 1.262 . S
O19 Zn14 2.049 . S
O19 C27 1.260 . S
O20 Zn15 1.996 . S
O20 C27 1.257 . S
C21 O16 1.254 . S
C21 O17 1.269 . S
C22 O23 1.249 1_455 S
C22 O24 1.270 . S
O23 Zn15 1.943 1_655 S
O23 C22 1.249 1_655 S
O24 Zn14 2.067 . S
O24 C22 1.270 . S
C25 O18 1.262 . S
C25 O26 1.232 . S
O26 C25 1.232 . S
C27 O19 1.260 . S
C27 O20 1.257 . S
Zn28 O31 2.031 1_565 S
Zn28 O33 2.049 . S
Zn28 O38 2.067 1_565 S
Zn29 O30 1.962 1_545 S
Zn29 O32 2.001 1_445 S
Zn29 O34 1.996 1_445 S
Zn29 O37 1.943 . S
O30 Zn29 1.962 1_565 S
O30 C35 1.254 . S
O31 Zn28 2.031 1_545 S
O31 C35 1.269 1_545 S
O32 Zn29 2.001 1_665 S
O32 C39 1.238 1_565 S
O33 Zn28 2.049 . S
O33 C41 1.260 1_455 S
O34 Zn29 1.996 1_665 S
O34 C41 1.257 . S
C35 O30 1.254 . S
C35 O31 1.269 1_565 S
C36 O37 1.249 . S
C36 O38 1.270 . S
O37 Zn29 1.943 . S
O37 C36 1.249 . S
O38 Zn28 2.067 1_545 S
O38 C36 1.270 . S
C39 O32 1.238 1_545 S
C39 O40 1.232 . S
O40 C39 1.232 . S
C41 O33 1.260 1_655 S
C41 O34 1.257 . S
H42 C69 0.929 1_655 S
N43 C68 1.433 . S
N43 C74 1.435 . S
N43 C80 1.423 . S
H44 C70 0.930 1_655 S
H45 C73 0.931 . S
H46 C72 0.929 . S
H47 C75 0.930 . S
H48 C76 0.932 . S
H49 C79 0.929 1_655 S
H50 C78 0.931 1_655 S
H51 C81 0.929 . S
H52 C85 0.932 . S
H53 C82 0.931 . S
H54 C84 0.929 . S
H55 C87 0.929 1_655 S
H56 C88 0.930 1_655 S
H57 C90 0.929 . S
H58 C91 0.931 . S
H59 C93 0.930 . S
H60 C94 0.932 . S
H61 C96 0.931 1_655 S
H62 C97 0.929 1_655 S
H63 C99 0.929 . S
H64 C100 0.931 . S
H65 C102 0.929 . S
N66 C86 1.433 . S
N66 C92 1.435 . S
N66 C98 1.423 . S
H67 C103 0.932 . S
C68 N43 1.433 . S
C68 C69 1.363 . S
C68 C73 1.370 . S
C69 H42 0.929 1_455 S
C69 C68 1.363 . S
C69 C70 1.385 . S
C70 H44 0.930 1_455 S
C70 C69 1.385 . S
C70 C71 1.357 . S
C71 C70 1.357 . S
C71 C72 1.406 . S
C72 H46 0.929 . S
C72 C71 1.406 . S
C72 C73 1.391 . S
C73 H45 0.931 . S
C73 C68 1.370 . S
C73 C72 1.391 . S
C74 N43 1.435 . S
C74 C75 1.358 . S
C74 C79 1.371 . S
C75 H47 0.930 . S
C75 C74 1.358 . S
C75 C76 1.405 . S
C76 H48 0.932 . S
C76 C75 1.405 . S
C76 C77 1.383 . S
C77 C76 1.383 . S
C77 C78 1.393 . S
C78 H50 0.931 1_455 S
C78 C77 1.393 . S
C78 C79 1.382 . S
C79 H49 0.929 1_455 S
C79 C74 1.371 . S
C79 C78 1.382 . S
C80 N43 1.423 . S
C80 C81 1.362 1_455 S
C80 C85 1.388 . S
C81 H51 0.929 . S
C81 C80 1.362 1_655 S
C81 C82 1.376 . S
C82 H53 0.931 . S
C82 C81 1.376 . S
C82 C83 1.396 1_655 S
C83 C82 1.396 1_455 S
C83 C84 1.348 . S
C83 C101 1.472 . S
C84 H54 0.929 . S
C84 C83 1.348 . S
C84 C85 1.443 . S
C85 H52 0.932 . S
C85 C80 1.388 . S
C85 C84 1.443 . S
C86 N66 1.433 . S
C86 C87 1.363 . S
C86 C91 1.370 . S
C87 H55 0.929 1_455 S
C87 C86 1.363 . S
C87 C88 1.385 . S
C88 H56 0.930 1_455 S
C88 C87 1.385 . S
C88 C89 1.357 . S
C89 C88 1.357 . S
C89 C90 1.406 . S
C90 H57 0.929 . S
C90 C89 1.406 . S
C90 C91 1.391 . S
C91 H58 0.931 . S
C91 C86 1.370 . S
C91 C90 1.391 . S
C92 N66 1.435 . S
C92 C93 1.358 . S
C92 C97 1.371 . S
C93 H59 0.930 . S
C93 C92 1.358 . S
C93 C94 1.405 . S
C94 H60 0.932 . S
C94 C93 1.405 . S
C94 C95 1.383 . S
C95 C94 1.383 . S
C95 C96 1.393 . S
C96 H61 0.931 1_455 S
C96 C95 1.393 . S
C96 C97 1.382 . S
C97 H62 0.929 1_455 S
C97 C92 1.371 . S
C97 C96 1.382 . S
C98 N66 1.423 . S
C98 C99 1.362 1_455 S
C98 C103 1.388 . S
C99 H63 0.929 . S
C99 C98 1.362 1_655 S
C99 C100 1.376 . S
C100 H64 0.931 . S
C100 C99 1.376 . S
C100 C101 1.396 1_655 S
C101 C83 1.472 . S
C101 C100 1.396 1_455 S
C101 C102 1.348 . S
C102 H65 0.929 . S
C102 C101 1.348 . S
C102 C103 1.443 . S
C103 H67 0.932 . S
C103 C98 1.388 . S
C103 C102 1.443 . S
H104 C131 0.929 . S
N105 C130 1.433 . S
N105 C136 1.435 . S
N105 C142 1.423 . S
H106 C132 0.930 . S
H107 C135 0.931 . S
H108 C134 0.929 1_565 S
H109 C137 0.930 . S
H110 C138 0.932 1_565 S
H111 C141 0.929 . S
H112 C140 0.931 . S
H113 C143 0.929 . S
H114 C147 0.932 . S
H115 C144 0.931 . S
H116 C146 0.929 . S
H117 C149 0.929 . S
H118 C150 0.930 . S
H119 C152 0.929 1_565 S
H120 C153 0.931 . S
H121 C155 0.930 . S
H122 C156 0.932 1_565 S
H123 C158 0.931 . S
H124 C159 0.929 . S
H125 C161 0.929 . S
H126 C162 0.931 . S
H127 C164 0.929 . S
N128 C148 1.433 . S
N128 C154 1.435 . S
N128 C160 1.423 . S
H129 C165 0.932 . S
C130 N105 1.433 . S
C130 C131 1.363 . S
C130 C135 1.370 . S
C131 H104 0.929 . S
C131 C130 1.363 . S
C131 C132 1.385 . S
C132 H106 0.930 . S
C132 C131 1.385 . S
C132 C133 1.357 . S
C133 C132 1.357 . S
C133 C134 1.406 . S
C134 H108 0.929 1_545 S
C134 C133 1.406 . S
C134 C135 1.391 . S
C135 H107 0.931 . S
C135 C130 1.370 . S
C135 C134 1.391 . S
C136 N105 1.435 . S
C136 C137 1.358 . S
C136 C141 1.371 . S
C137 H109 0.930 . S
C137 C136 1.358 . S
C137 C138 1.405 . S
C138 H110 0.932 1_545 S
C138 C137 1.405 . S
C138 C139 1.383 . S
C139 C138 1.383 . S
C139 C140 1.393 . S
C140 H112 0.931 . S
C140 C139 1.393 . S
C140 C141 1.382 . S
C141 H111 0.929 . S
C141 C136 1.371 . S
C141 C140 1.382 . S
C142 N105 1.423 . S
C142 C143 1.362 . S
C142 C147 1.388 . S
C143 H113 0.929 . S
C143 C142 1.362 . S
C143 C144 1.376 . S
C144 H115 0.931 . S
C144 C143 1.376 . S
C144 C145 1.396 . S
C145 C144 1.396 . S
C145 C146 1.348 . S
C145 C163 1.472 . S
C146 H116 0.929 . S
C146 C145 1.348 . S
C146 C147 1.443 . S
C147 H114 0.932 . S
C147 C142 1.388 . S
C147 C146 1.443 . S
C148 N128 1.433 . S
C148 C149 1.363 . S
C148 C153 1.370 . S
C149 H117 0.929 . S
C149 C148 1.363 . S
C149 C150 1.385 . S
C150 H118 0.930 . S
C150 C149 1.385 . S
C150 C151 1.357 . S
C151 C150 1.357 . S
C151 C152 1.406 . S
C152 H119 0.929 1_545 S
C152 C151 1.406 . S
C152 C153 1.391 . S
C153 H120 0.931 . S
C153 C148 1.370 . S
C153 C152 1.391 . S
C154 N128 1.435 . S
C154 C155 1.358 . S
C154 C159 1.371 . S
C155 H121 0.930 . S
C155 C154 1.358 . S
C155 C156 1.405 . S
C156 H122 0.932 1_545 S
C156 C155 1.405 . S
C156 C157 1.383 . S
C157 C156 1.383 . S
C157 C158 1.393 . S
C158 H123 0.931 . S
C158 C157 1.393 . S
C158 C159 1.382 . S
C159 H124 0.929 . S
C159 C154 1.371 . S
C159 C158 1.382 . S
C160 N128 1.423 . S
C160 C161 1.362 . S
C160 C165 1.388 . S
C161 H125 0.929 . S
C161 C160 1.362 . S
C161 C162 1.376 . S
C162 H126 0.931 . S
C162 C161 1.376 . S
C162 C163 1.396 . S
C163 C145 1.472 . S
C163 C162 1.396 . S
C163 C164 1.348 . S
C164 H127 0.929 . S
C164 C163 1.348 . S
C164 C165 1.443 . S
C165 H129 0.932 . S
C165 C160 1.388 . S
C165 C164 1.443 . S
H166 C193 0.929 . S
N167 C192 1.433 . S
N167 C198 1.435 . S
N167 C204 1.423 . S
H168 C194 0.930 . S
H169 C197 0.931 . S
H170 C196 0.929 . S
H171 C199 0.930 . S
H172 C200 0.932 . S
H173 C203 0.929 . S
H174 C202 0.931 . S
H175 C205 0.929 . S
H176 C209 0.932 . S
H177 C206 0.931 . S
H178 C208 0.929 . S
H179 C211 0.929 . S
H180 C212 0.930 . S
H181 C214 0.929 . S
H182 C215 0.931 . S
H183 C217 0.930 . S
H184 C218 0.932 . S
H185 C220 0.931 . S
H186 C221 0.929 . S
H187 C223 0.929 . S
H188 C224 0.931 . S
H189 C226 0.929 . S
N190 C210 1.433 . S
N190 C216 1.435 . S
N190 C222 1.423 . S
H191 C227 0.932 . S
C192 N167 1.433 . S
C192 C193 1.363 . S
C192 C197 1.370 . S
C193 H166 0.929 . S
C193 C192 1.363 . S
C193 C194 1.385 . S
C194 H168 0.930 . S
C194 C193 1.385 . S
C194 C195 1.357 . S
C195 C194 1.357 . S
C195 C196 1.406 . S
C196 H170 0.929 . S
C196 C195 1.406 . S
C196 C197 1.391 . S
C197 H169 0.931 . S
C197 C192 1.370 . S
C197 C196 1.391 . S
C198 N167 1.435 . S
C198 C199 1.358 . S
C198 C203 1.371 . S
C199 H171 0.930 . S
C199 C198 1.358 . S
C199 C200 1.405 . S
C200 H172 0.932 . S
C200 C199 1.405 . S
C200 C201 1.383 . S
C201 C200 1.383 . S
C201 C202 1.393 . S
C202 H174 0.931 . S
C202 C201 1.393 . S
C202 C203 1.382 . S
C203 H173 0.929 . S
C203 C198 1.371 . S
C203 C202 1.382 . S
C204 N167 1.423 . S
C204 C205 1.362 . S
C204 C209 1.388 . S
C205 H175 0.929 . S
C205 C204 1.362 . S
C205 C206 1.376 . S
C206 H177 0.931 . S
C206 C205 1.376 . S
C206 C207 1.396 . S
C207 C206 1.396 . S
C207 C208 1.348 . S
C207 C225 1.472 . S
C208 H178 0.929 . S
C208 C207 1.348 . S
C208 C209 1.443 . S
C209 H176 0.932 . S
C209 C204 1.388 . S
C209 C208 1.443 . S
C210 N190 1.433 . S
C210 C211 1.363 . S
C210 C215 1.370 . S
C211 H179 0.929 . S
C211 C210 1.363 . S
C211 C212 1.385 . S
C212 H180 0.930 . S
C212 C211 1.385 . S
C212 C213 1.357 . S
C213 C212 1.357 . S
C213 C214 1.406 . S
C214 H181 0.929 . S
C214 C213 1.406 . S
C214 C215 1.391 . S
C215 H182 0.931 . S
C215 C210 1.370 . S
C215 C214 1.391 . S
C216 N190 1.435 . S
C216 C217 1.358 . S
C216 C221 1.371 . S
C217 H183 0.930 . S
C217 C216 1.358 . S
C217 C218 1.405 . S
C218 H184 0.932 . S
C218 C217 1.405 . S
C218 C219 1.383 . S
C219 C218 1.383 . S
C219 C220 1.393 . S
C220 H185 0.931 . S
C220 C219 1.393 . S
C220 C221 1.382 . S
C221 H186 0.929 . S
C221 C216 1.371 . S
C221 C220 1.382 . S
C222 N190 1.423 . S
C222 C223 1.362 . S
C222 C227 1.388 . S
C223 H187 0.929 . S
C223 C222 1.362 . S
C223 C224 1.376 . S
C224 H188 0.931 . S
C224 C223 1.376 . S
C224 C225 1.396 . S
C225 C207 1.472 . S
C225 C224 1.396 . S
C225 C226 1.348 . S
C226 H189 0.929 . S
C226 C225 1.348 . S
C226 C227 1.443 . S
C227 H191 0.932 . S
C227 C222 1.388 . S
C227 C226 1.443 . S
H228 C236 0.929 . S
H229 C238 0.930 . S
H230 C240 0.930 . S
H231 C243 0.929 . S
H232 C246 0.930 1_655 S
H233 C248 0.960 . S
H234 C248 0.960 . S
H235 C248 0.960 . S
C236 H228 0.929 . S
C236 C237 1.377 . S
C236 C238 1.384 . S
C237 C236 1.377 . S
C237 C243 1.390 . S
C238 H229 0.930 . S
C238 C236 1.384 . S
C238 C239 1.372 . S
C239 C238 1.372 . S
C239 C240 1.400 . S
C239 C244 1.490 . S
C240 H230 0.930 . S
C240 C239 1.400 . S
C240 C243 1.386 . S
H241 C257 0.930 . S
H242 C258 0.931 . S
C243 H231 0.929 . S
C243 C237 1.390 . S
C243 C240 1.386 . S
C244 C239 1.490 . S
C244 C246 1.395 . S
C244 C247 1.403 . S
H245 C251 0.930 . S
C246 H232 0.930 1_455 S
C246 C244 1.395 . S
C246 C249 1.403 . S
C247 C244 1.403 . S
C247 C248 1.524 . S
C247 C251 1.400 . S
C248 H233 0.960 . S
C248 H234 0.960 . S
C248 H235 0.960 . S
C248 C247 1.524 . S
C249 C246 1.403 . S
C249 C250 1.392 . S
C249 C253 1.495 1_455 S
C250 C249 1.392 . S
C250 C251 1.385 . S
C250 C252 1.478 . S
C251 H245 0.930 . S
C251 C247 1.400 . S
C251 C250 1.385 . S
C252 C250 1.478 . S
C252 C254 1.381 . S
C252 C258 1.383 . S
C253 C249 1.495 1_655 S
C253 H259 0.959 . S
C253 H260 0.961 . S
C253 H261 0.960 . S
C254 C252 1.381 . S
C254 C255 1.394 . S
C254 H262 0.930 . S
C255 C254 1.394 . S
C255 C256 1.383 . S
C255 H263 0.929 . S
C256 C255 1.383 . S
C256 C257 1.377 . S
C257 H241 0.930 . S
C257 C256 1.377 . S
C257 C258 1.379 . S
C258 H242 0.931 . S
C258 C252 1.383 . S
C258 C257 1.379 . S
H259 C253 0.959 . S
H260 C253 0.961 . S
H261 C253 0.960 . S
H262 C254 0.930 . S
H263 C255 0.929 . S
H264 C272 0.929 1_565 S
H265 C274 0.930 1_565 S
H266 C276 0.930 . S
H267 C279 0.929 . S
H268 C282 0.930 . S
H269 C284 0.960 . S
H270 C284 0.960 1_565 S
H271 C284 0.960 . S
C272 H264 0.929 1_545 S
C272 C273 1.377 . S
C272 C274 1.384 . S
C273 C272 1.377 . S
C273 C279 1.390 . S
C274 H265 0.930 1_545 S
C274 C272 1.384 . S
C274 C275 1.372 . S
C275 C274 1.372 . S
C275 C276 1.400 . S
C275 C280 1.490 . S
C276 H266 0.930 . S
C276 C275 1.400 . S
C276 C279 1.386 . S
H277 C293 0.930 . S
H278 C294 0.931 . S
C279 H267 0.929 . S
C279 C273 1.390 . S
C279 C276 1.386 . S
C280 C275 1.490 . S
C280 C282 1.395 . S
C280 C283 1.403 . S
H281 C287 0.930 . S
C282 H268 0.930 . S
C282 C280 1.395 . S
C282 C285 1.403 . S
C283 C280 1.403 . S
C283 C284 1.524 . S
C283 C287 1.400 . S
C284 H269 0.960 . S
C284 H270 0.960 1_545 S
C284 H271 0.960 . S
C284 C283 1.524 . S
C285 C282 1.403 . S
C285 C286 1.392 . S
C285 C289 1.495 . S
C286 C285 1.392 . S
C286 C287 1.385 . S
C286 C288 1.478 . S
C287 H281 0.930 . S
C287 C283 1.400 . S
C287 C286 1.385 . S
C288 C286 1.478 . S
C288 C290 1.381 . S
C288 C294 1.383 . S
C289 C285 1.495 . S
C289 H295 0.959 . S
C289 H296 0.961 . S
C289 H297 0.960 . S
C290 C288 1.381 . S
C290 C291 1.394 . S
C290 H298 0.930 1_545 S
C291 C290 1.394 . S
C291 C292 1.383 . S
C291 H299 0.929 1_545 S
C292 C291 1.383 . S
C292 C293 1.377 . S
C293 H277 0.930 . S
C293 C292 1.377 . S
C293 C294 1.379 . S
C294 H278 0.931 . S
C294 C288 1.383 . S
C294 C293 1.379 . S
H295 C289 0.959 . S
H296 C289 0.961 . S
H297 C289 0.960 . S
H298 C290 0.930 1_565 S
H299 C291 0.929 1_565 S
H300 C308 0.929 . S
H301 C310 0.930 . S
H302 C312 0.930 . S
H303 C315 0.929 . S
H304 C318 0.930 . S
H305 C320 0.960 . S
H306 C320 0.960 . S
H307 C320 0.960 . S
C308 H300 0.929 . S
C308 C309 1.377 . S
C308 C310 1.384 . S
C309 C308 1.377 . S
C309 C315 1.390 . S
C310 H301 0.930 . S
C310 C308 1.384 . S
C310 C311 1.372 . S
C311 C310 1.372 . S
C311 C312 1.400 . S
C311 C316 1.490 . S
C312 H302 0.930 . S
C312 C311 1.400 . S
C312 C315 1.386 . S
H313 C329 0.930 . S
H314 C330 0.931 . S
C315 H303 0.929 . S
C315 C309 1.390 . S
C315 C312 1.386 . S
C316 C311 1.490 . S
C316 C318 1.395 . S
C316 C319 1.403 . S
H317 C323 0.930 . S
C318 H304 0.930 . S
C318 C316 1.395 . S
C318 C321 1.403 . S
C319 C316 1.403 . S
C319 C320 1.524 . S
C319 C323 1.400 . S
C320 H305 0.960 . S
C320 H306 0.960 . S
C320 H307 0.960 . S
C320 C319 1.524 . S
C321 C318 1.403 . S
C321 C322 1.392 . S
C321 C325 1.495 . S
C322 C321 1.392 . S
C322 C323 1.385 . S
C322 C324 1.478 . S
C323 H317 0.930 . S
C323 C319 1.400 . S
C323 C322 1.385 . S
C324 C322 1.478 . S
C324 C326 1.381 . S
C324 C330 1.383 . S
C325 C321 1.495 . S
C325 H331 0.959 . S
C325 H332 0.961 . S
C325 H333 0.960 . S
C326 C324 1.381 . S
C326 C327 1.394 . S
C326 H334 0.930 . S
C327 C326 1.394 . S
C327 C328 1.383 . S
C327 H335 0.929 . S
C328 C327 1.383 . S
C328 C329 1.377 . S
C329 H313 0.930 . S
C329 C328 1.377 . S
C329 C330 1.379 . S
C330 H314 0.931 . S
C330 C324 1.383 . S
C330 C329 1.379 . S
H331 C325 0.959 . S
H332 C325 0.961 . S
H333 C325 0.960 . S
H334 C326 0.930 . S
H335 C327 0.929 . S
H336 C344 0.929 . S
H337 C346 0.930 . S
H338 C348 0.930 . S
H339 C351 0.929 . S
H340 C354 0.930 . S
H341 C356 0.958 1_655 S
H342 C356 0.971 . S
H343 C356 0.941 1_655 S
C344 H336 0.929 . S
C344 C345 1.377 . S
C344 C346 1.384 . S
C345 C344 1.377 . S
C345 C351 1.390 . S
C346 H337 0.930 . S
C346 C344 1.384 . S
C346 C347 1.372 . S
C347 C346 1.372 . S
C347 C348 1.400 . S
C347 C352 1.490 . S
C348 H338 0.930 . S
C348 C347 1.400 . S
C348 C351 1.386 . S
H349 C365 0.930 1_655 S
H350 C366 0.962 . S
C351 H339 0.929 . S
C351 C345 1.390 . S
C351 C348 1.386 . S
C352 C347 1.490 . S
C352 C354 1.395 . S
C352 C355 1.403 . S
H353 C359 0.930 . S
C354 H340 0.930 . S
C354 C352 1.395 . S
C354 C357 1.403 . S
C355 C352 1.403 . S
C355 C356 1.535 . S
C355 C359 1.400 . S
C356 H341 0.958 1_455 S
C356 H342 0.971 . S
C356 H343 0.941 1_455 S
C356 C355 1.535 . S
C357 C354 1.403 . S
C357 C358 1.392 . S
C357 C361 1.495 . S
C358 C357 1.392 . S
C358 C359 1.385 . S
C358 C360 1.478 . S
C359 H353 0.930 . S
C359 C355 1.400 . S
C359 C358 1.385 . S
C360 C358 1.478 . S
C360 C362 1.381 . S
C360 C366 1.383 . S
C361 C357 1.495 . S
C361 H367 0.959 . S
C361 H368 0.961 . S
C361 H369 0.960 . S
C362 C360 1.381 . S
C362 C363 1.394 . S
C362 H370 0.930 . S
C363 C362 1.394 . S
C363 C364 1.383 . S
C363 H371 0.929 . S
C364 C363 1.383 . S
C364 C365 1.377 . S
C365 H349 0.930 1_455 S
C365 C364 1.377 . S
C365 C366 1.379 . S
C366 H350 0.962 . S
C366 C360 1.383 . S
C366 C365 1.379 . S
H367 C361 0.959 . S
H368 C361 0.961 . S
H369 C361 0.960 . S
H370 C362 0.930 . S
H371 C363 0.929 . S
H372 C380 0.929 . S
H373 C382 0.930 . S
H374 C384 0.930 . S
H375 C387 0.929 . S
H376 C390 0.930 . S
H377 C392 0.960 . S
H378 C392 0.960 . S
H379 C392 0.960 . S
C380 H372 0.929 . S
C380 C381 1.377 . S
C380 C382 1.384 . S
C381 C380 1.377 . S
C381 C387 1.390 . S
C382 H373 0.930 . S
C382 C380 1.384 . S
C382 C383 1.372 . S
C383 C382 1.372 . S
C383 C384 1.400 . S
C383 C388 1.490 . S
C384 H374 0.930 . S
C384 C383 1.400 . S
C384 C387 1.386 . S
H385 C401 0.930 1_565 S
H386 C402 0.931 1_565 S
C387 H375 0.929 . S
C387 C381 1.390 . S
C387 C384 1.386 . S
C388 C383 1.490 . S
C388 C390 1.395 . S
C388 C391 1.403 . S
H389 C395 0.930 . S
C390 H376 0.930 . S
C390 C388 1.395 . S
C390 C393 1.403 . S
C391 C388 1.403 . S
C391 C392 1.524 . S
C391 C395 1.400 . S
C392 H377 0.960 . S
C392 H378 0.960 . S
C392 H379 0.960 . S
C392 C391 1.524 . S
C393 C390 1.403 . S
C393 C394 1.392 . S
C393 C397 1.495 . S
C394 C393 1.392 . S
C394 C395 1.385 . S
C394 C396 1.478 . S
C395 H389 0.930 . S
C395 C391 1.400 . S
C395 C394 1.385 . S
C396 C394 1.478 . S
C396 C398 1.381 . S
C396 C402 1.383 . S
C397 C393 1.495 . S
C397 H403 0.959 . S
C397 H404 0.961 . S
C397 H405 0.960 . S
C398 C396 1.381 . S
C398 C399 1.394 . S
C398 H406 0.930 . S
C399 C398 1.394 . S
C399 C400 1.383 . S
C399 H407 0.929 . S
C400 C399 1.383 . S
C400 C401 1.377 . S
C401 H385 0.930 1_545 S
C401 C400 1.377 . S
C401 C402 1.379 . S
C402 H386 0.931 1_545 S
C402 C396 1.383 . S
C402 C401 1.379 . S
H403 C397 0.959 . S
H404 C397 0.961 . S
H405 C397 0.960 . S
H406 C398 0.930 . S
H407 C399 0.929 . S
H408 C416 0.929 . S
H409 C418 0.930 . S
H410 C420 0.930 . S
H411 C423 0.929 . S
H412 C426 0.930 . S
H413 C428 0.960 . S
H414 C428 0.960 . S
H415 C428 0.960 . S
C416 H408 0.929 . S
C416 C417 1.377 . S
C416 C418 1.384 . S
C417 C416 1.377 . S
C417 C423 1.390 . S
C418 H409 0.930 . S
C418 C416 1.384 . S
C418 C419 1.372 . S
C419 C418 1.372 . S
C419 C420 1.400 . S
C419 C424 1.490 . S
C420 H410 0.930 . S
C420 C419 1.400 . S
C420 C423 1.386 . S
H421 C437 0.930 . S
H422 C438 0.931 . S
C423 H411 0.929 . S
C423 C417 1.390 . S
C423 C420 1.386 . S
C424 C419 1.490 . S
C424 C426 1.395 . S
C424 C427 1.403 . S
H425 C431 0.930 . S
C426 H412 0.930 . S
C426 C424 1.395 . S
C426 C429 1.403 . S
C427 C424 1.403 . S
C427 C428 1.524 . S
C427 C431 1.400 . S
C428 H413 0.960 . S
C428 H414 0.960 . S
C428 H415 0.960 . S
C428 C427 1.524 . S
C429 C426 1.403 . S
C429 C430 1.392 . S
C429 C433 1.495 . S
C430 C429 1.392 . S
C430 C431 1.385 . S
C430 C432 1.478 . S
C431 H425 0.930 . S
C431 C427 1.400 . S
C431 C430 1.385 . S
C432 C430 1.478 . S
C432 C434 1.381 . S
C432 C438 1.383 . S
C433 C429 1.495 . S
C433 H439 0.959 . S
C433 H440 0.961 . S
C433 H441 0.960 . S
C434 C432 1.381 . S
C434 C435 1.394 . S
C434 H442 0.930 . S
C435 C434 1.394 . S
C435 C436 1.383 . S
C435 H443 0.929 . S
C436 C435 1.383 . S
C436 C437 1.377 . S
C437 H421 0.930 . S
C437 C436 1.377 . S
C437 C438 1.379 . S
C438 H422 0.931 . S
C438 C432 1.383 . S
C438 C437 1.379 . S
H439 C433 0.959 . S
H440 C433 0.961 . S
H441 C433 0.960 . S
H442 C434 0.930 . S
H443 C435 0.929 . S
H444 C452 0.929 . S
H445 C454 0.930 . S
H446 C456 0.930 1_565 S
H447 C459 0.929 1_565 S
H448 C462 0.930 . S
H449 C464 0.960 . S
H450 C464 0.960 . S
H451 C464 0.960 . S
C452 H444 0.929 . S
C452 C453 1.377 . S
C452 C454 1.384 . S
C453 C452 1.377 . S
C453 C459 1.390 . S
C454 H445 0.930 . S
C454 C452 1.384 . S
C454 C455 1.372 . S
C455 C454 1.372 . S
C455 C456 1.400 . S
C455 C460 1.490 . S
C456 H446 0.930 1_545 S
C456 C455 1.400 . S
C456 C459 1.386 . S
H457 C473 0.930 1_565 S
H458 C474 0.931 1_565 S
C459 H447 0.929 1_545 S
C459 C453 1.390 . S
C459 C456 1.386 . S
C460 C455 1.490 . S
C460 C462 1.395 . S
C460 C463 1.403 1_545 S
H461 C467 0.918 1_565 S
C462 H448 0.930 . S
C462 C460 1.395 . S
C462 C465 1.403 . S
C463 C460 1.403 1_565 S
C463 C464 1.524 . S
C463 C467 1.383 1_565 S
C464 H449 0.960 . S
C464 H450 0.960 . S
C464 H451 0.960 . S
C464 C463 1.524 . S
C465 C462 1.403 . S
C465 C466 1.392 . S
C465 C469 1.495 . S
C466 C465 1.392 . S
C466 C467 1.414 . S
C466 C468 1.478 . S
C467 H461 0.918 1_545 S
C467 C463 1.383 1_545 S
C467 C466 1.414 . S
C468 C466 1.478 . S
C468 C470 1.381 . S
C468 C474 1.383 . S
C469 C465 1.495 . S
C469 H475 0.959 . S
C469 H476 0.961 . S
C469 H477 0.960 . S
C470 C468 1.381 . S
C470 C471 1.394 . S
C470 H478 0.930 . S
C471 C470 1.394 . S
C471 C472 1.383 . S
C471 H479 0.929 . S
C472 C471 1.383 . S
C472 C473 1.377 . S
C473 H457 0.930 1_545 S
C473 C472 1.377 . S
C473 C474 1.379 . S
C474 H458 0.931 1_545 S
C474 C468 1.383 . S
C474 C473 1.379 . S
H475 C469 0.959 . S
H476 C469 0.961 . S
H477 C469 0.960 . S
H478 C470 0.930 . S
H479 C471 0.929 . S
H480 C488 0.929 1_455 S
H481 C490 0.930 . S
H482 C492 0.932 . S
H483 C495 0.929 . S
H484 C498 0.930 . S
H485 C500 0.960 . S
H486 C500 0.960 . S
H487 C500 0.960 . S
C488 H480 0.929 1_655 S
C488 C489 1.377 1_556 S
C488 C490 1.384 . S
C489 C488 1.377 1_554 S
C489 C495 1.390 . S
C490 H481 0.930 . S
C490 C488 1.384 . S
C490 C491 1.372 . S
C491 C490 1.372 . S
C491 C492 1.395 1_556 S
C491 C496 1.490 . S
C492 H482 0.932 . S
C492 C491 1.395 1_554 S
C492 C495 1.388 . S
H493 C509 0.930 . S
H494 C510 0.931 . S
C495 H483 0.929 . S
C495 C489 1.390 . S
C495 C492 1.388 . S
C496 C491 1.490 . S
C496 C498 1.395 . S
C496 C499 1.403 . S
H497 C503 0.930 . S
C498 H484 0.930 . S
C498 C496 1.395 . S
C498 C501 1.403 . S
C499 C496 1.403 . S
C499 C500 1.524 . S
C499 C503 1.400 . S
C500 H485 0.960 . S
C500 H486 0.960 . S
C500 H487 0.960 . S
C500 C499 1.524 . S
C501 C498 1.403 . S
C501 C502 1.392 . S
C501 C505 1.495 . S
C502 C501 1.392 . S
C502 C503 1.385 . S
C502 C504 1.478 . S
C503 H497 0.930 . S
C503 C499 1.400 . S
C503 C502 1.385 . S
C504 C502 1.478 . S
C504 C506 1.381 . S
C504 C510 1.383 . S
C505 C501 1.495 . S
C505 H511 0.959 . S
C505 H512 0.961 . S
C505 H513 0.960 . S
C506 C504 1.381 . S
C506 C507 1.394 . S
C506 H514 0.930 . S
C507 C506 1.394 . S
C507 C508 1.383 . S
C507 H515 0.929 . S
C508 C507 1.383 . S
C508 C509 1.377 . S
C509 H493 0.930 . S
C509 C508 1.377 . S
C509 C510 1.379 . S
C510 H494 0.931 . S
C510 C504 1.383 . S
C510 C509 1.379 . S
H511 C505 0.959 . S
H512 C505 0.961 . S
H513 C505 0.960 . S
H514 C506 0.930 . S
H515 C507 0.929 . S
H516 C524 0.925 1_655 S
H517 C526 0.918 . S
H518 C528 0.930 . S
H519 C531 0.929 . S
H520 C534 0.930 . S
H521 C536 0.960 . S
H522 C536 0.960 . S
H523 C536 0.960 . S
C524 H516 0.925 1_455 S
C524 C525 1.364 . S
C524 C526 1.403 . S
C525 C524 1.364 . S
C525 C531 1.390 . S
C526 H517 0.918 . S
C526 C524 1.403 . S
C526 C527 1.372 . S
C527 C526 1.372 . S
C527 C528 1.400 . S
C527 C532 1.490 . S
C528 H518 0.930 . S
C528 C527 1.400 . S
C528 C531 1.386 . S
H529 C545 0.930 . S
H530 C546 0.931 . S
C531 H519 0.929 . S
C531 C525 1.390 . S
C531 C528 1.386 . S
C532 C527 1.490 . S
C532 C534 1.395 1_455 S
C532 C535 1.403 . S
H533 C539 0.930 . S
C534 H520 0.930 . S
C534 C532 1.395 1_655 S
C534 C537 1.403 . S
C535 C532 1.403 . S
C535 C536 1.524 . S
C535 C539 1.400 . S
C536 H521 0.960 . S
C536 H522 0.960 . S
C536 H523 0.960 . S
C536 C535 1.524 . S
C537 C534 1.403 . S
C537 C538 1.392 1_655 S
C537 C541 1.495 . S
C538 C537 1.392 1_455 S
C538 C539 1.385 . S
C538 C540 1.478 . S
C539 H533 0.930 . S
C539 C535 1.400 . S
C539 C538 1.385 . S
C540 C538 1.478 . S
C540 C542 1.381 . S
C540 C546 1.383 . S
C541 C537 1.495 . S
C541 H547 0.959 . S
C541 H548 0.961 . S
C541 H549 0.960 . S
C542 C540 1.381 . S
C542 C543 1.394 . S
C542 H550 0.930 . S
C543 C542 1.394 . S
C543 C544 1.383 . S
C543 H551 0.929 . S
C544 C543 1.383 . S
C544 C545 1.377 . S
C545 H529 0.930 . S
C545 C544 1.377 . S
C545 C546 1.379 . S
C546 H530 0.931 . S
C546 C540 1.383 . S
C546 C545 1.379 . S
H547 C541 0.959 . S
H548 C541 0.961 . S
H549 C541 0.960 . S
H550 C542 0.930 . S
H551 C543 0.929 . S
H552 C560 0.929 . S
H553 C562 0.930 . S
H554 C564 0.930 . S
H555 C567 0.929 . S
H556 C570 0.930 . S
H557 C572 0.960 . S
H558 C572 0.960 . S
H559 C572 0.960 1_545 S
C560 H552 0.929 . S
C560 C561 1.377 1_565 S
C560 C562 1.384 . S
C561 C560 1.377 1_545 S
C561 C567 1.390 . S
C562 H553 0.930 . S
C562 C560 1.384 . S
C562 C563 1.372 1_565 S
C563 C562 1.372 1_545 S
C563 C564 1.400 . S
C563 C568 1.490 . S
C564 H554 0.930 . S
C564 C563 1.400 . S
C564 C567 1.386 . S
H565 C581 0.930 . S
H566 C582 0.931 . S
C567 H555 0.929 . S
C567 C561 1.390 . S
C567 C564 1.386 . S
C568 C563 1.490 . S
C568 C570 1.395 . S
C568 C571 1.403 . S
H569 C575 0.930 . S
C570 H556 0.930 . S
C570 C568 1.395 . S
C570 C573 1.403 . S
C571 C568 1.403 . S
C571 C572 1.524 1_545 S
C571 C575 1.400 . S
C572 H557 0.960 . S
C572 H558 0.960 . S
C572 H559 0.960 1_565 S
C572 C571 1.524 1_565 S
C573 C570 1.403 . S
C573 C574 1.392 . S
C573 C577 1.495 . S
C574 C573 1.392 . S
C574 C575 1.385 . S
C574 C576 1.478 . S
C575 H569 0.930 . S
C575 C571 1.400 . S
C575 C574 1.385 . S
C576 C574 1.478 . S
C576 C578 1.381 1_545 S
C576 C582 1.383 . S
C577 C573 1.495 . S
C577 H583 0.959 . S
C577 H584 0.961 . S
C577 H585 0.960 . S
C578 C576 1.381 1_565 S
C578 C579 1.394 . S
C578 H586 0.930 . S
C579 C578 1.394 . S
C579 C580 1.383 1_565 S
C579 H587 0.929 . S
C580 C579 1.383 1_545 S
C580 C581 1.377 . S
C581 H565 0.930 . S
C581 C580 1.377 . S
C581 C582 1.379 . S
C582 H566 0.931 . S
C582 C576 1.383 . S
C582 C581 1.379 . S
H583 C577 0.959 . S
H584 C577 0.961 . S
H585 C577 0.960 . S
H586 C578 0.930 . S
H587 C579 0.929 . S
H588 C596 0.929 . S
H589 C598 0.930 . S
H590 C600 0.941 . S
H591 C603 0.929 . S
H592 C606 0.930 . S
H593 C608 0.960 . S
H594 C608 0.960 . S
H595 C608 0.960 1_554 S
C596 H588 0.929 . S
C596 C597 1.377 1_556 S
C596 C598 1.384 . S
C597 C596 1.377 1_554 S
C597 C603 1.390 . S
C598 H589 0.930 . S
C598 C596 1.384 . S
C598 C599 1.372 . S
C599 C598 1.372 . S
C599 C600 1.370 1_556 S
C599 C604 1.490 . S
C600 H590 0.941 . S
C600 C599 1.370 1_554 S
C600 C603 1.405 . S
H601 C617 0.930 . S
H602 C618 0.931 . S
C603 H591 0.929 . S
C603 C597 1.390 . S
C603 C600 1.405 . S
C604 C599 1.490 . S
C604 C606 1.395 . S
C604 C607 1.403 . S
H605 C611 0.930 . S
C606 H592 0.930 . S
C606 C604 1.395 . S
C606 C609 1.403 . S
C607 C604 1.403 . S
C607 C608 1.524 . S
C607 C611 1.400 . S
C608 H593 0.960 . S
C608 H594 0.960 . S
C608 H595 0.960 1_556 S
C608 C607 1.524 . S
C609 C606 1.403 . S
C609 C610 1.392 . S
C609 C613 1.495 . S
C610 C609 1.392 . S
C610 C611 1.385 . S
C610 C612 1.478 . S
C611 H605 0.930 . S
C611 C607 1.400 . S
C611 C610 1.385 . S
C612 C610 1.478 . S
C612 C614 1.381 . S
C612 C618 1.383 . S
C613 C609 1.495 . S
C613 H619 0.959 . S
C613 H620 0.961 . S
C613 H621 0.960 . S
C614 C612 1.381 . S
C614 C615 1.394 . S
C614 H622 0.930 . S
C615 C614 1.394 . S
C615 C616 1.383 . S
C615 H623 0.929 . S
C616 C615 1.383 . S
C616 C617 1.377 . S
C617 H601 0.930 . S
C617 C616 1.377 . S
C617 C618 1.379 . S
C618 H602 0.931 . S
C618 C612 1.383 . S
C618 C617 1.379 . S
H619 C613 0.959 . S
H620 C613 0.961 . S
H621 C613 0.960 . S
H622 C614 0.930 . S
H623 C615 0.929 . S
H624 C632 0.929 . S
H625 C634 0.930 . S
H626 C636 0.930 . S
H627 C639 0.929 . S
H628 C642 0.930 . S
H629 C644 0.960 . S
H630 C644 0.960 . S
H631 C644 0.960 . S
C632 H624 0.929 . S
C632 C633 1.377 . S
C632 C634 1.384 . S
C633 C632 1.377 . S
C633 C639 1.390 1_455 S
C634 H625 0.930 . S
C634 C632 1.384 . S
C634 C635 1.372 . S
C635 C634 1.372 . S
C635 C636 1.400 1_455 S
C635 C640 1.490 . S
C636 H626 0.930 . S
C636 C635 1.400 1_655 S
C636 C639 1.386 . S
H637 C653 0.935 . S
H638 C654 0.931 1_655 S
C639 H627 0.929 . S
C639 C633 1.390 1_655 S
C639 C636 1.386 . S
C640 C635 1.490 . S
C640 C642 1.395 . S
C640 C643 1.403 . S
H641 C647 0.930 1_655 S
C642 H628 0.930 . S
C642 C640 1.395 . S
C642 C645 1.403 . S
C643 C640 1.403 . S
C643 C644 1.524 1_455 S
C643 C647 1.400 . S
C644 H629 0.960 . S
C644 H630 0.960 . S
C644 H631 0.960 . S
C644 C643 1.524 1_655 S
C645 C642 1.403 . S
C645 C646 1.392 . S
C645 C649 1.495 . S
C646 C645 1.392 . S
C646 C647 1.385 . S
C646 C648 1.478 . S
C647 H641 0.930 1_455 S
C647 C643 1.400 . S
C647 C646 1.385 . S
C648 C646 1.478 . S
C648 C650 1.381 . S
C648 C654 1.383 . S
C649 C645 1.495 . S
C649 H655 0.959 . S
C649 H656 0.961 . S
C649 H657 0.960 . S
C650 C648 1.381 . S
C650 C651 1.394 . S
C650 H658 0.930 . S
C651 C650 1.394 . S
C651 C652 1.383 . S
C651 H659 0.929 . S
C652 C651 1.383 . S
C652 C653 1.375 1_455 S
C653 H637 0.935 . S
C653 C652 1.375 1_655 S
C653 C654 1.376 1_655 S
C654 H638 0.931 1_455 S
C654 C648 1.383 . S
C654 C653 1.376 1_455 S
H655 C649 0.959 . S
H656 C649 0.961 . S
H657 C649 0.960 . S
H658 C650 0.930 . S
H659 C651 0.929 . S
C256 C95 1.148 . S
C237 C11 1.151 . S
C273 C25 1.223 . S
C292 C139 1.199 . S
C309 C41 1.253 . S
C328 C201 1.287 . S
C345 C7 1.148 1_565 S
C364 C77 1.149 . S
C400 C157 1.210 . S
C381 C21 1.240 . S
C417 C36 1.247 . S
C436 C219 1.300 . S
C472 C133 1.472 . S
C453 C39 1.599 . S
C489 C8 1.605 1_665 S
C508 C195 1.561 . S
C544 C71 1.606 . S
C525 C22 1.664 1_565 S
C580 C151 1.472 . S
C561 C35 1.597 1_545 S
C616 C213 1.521 . S
C597 C13 1.592 . S
C633 C27 1.659 . S
C652 C89 1.581 . S
