# Generated by pormake.
# Topology anh, (6,3)-cn, num edge types: 1
# Building blocks:
#     Node 0, Type 0, BuildingBlock: VOLQOD_clean_sbu_1, # of connection points: 6
#     Node 1, Type 0, BuildingBlock: VOLQOD_clean_sbu_1, # of connection points: 6
#     Node 2, Type 0, BuildingBlock: VOLQOD_clean_sbu_1, # of connection points: 6
#     Node 3, Type 1, BuildingBlock: VETTIZ_charged_linker_0, # of connection points: 3
#     Node 4, Type 1, BuildingBlock: VETTIZ_charged_linker_0, # of connection points: 3
#     Node 5, Type 1, BuildingBlock: VETTIZ_charged_linker_0, # of connection points: 3
#     Node 6, Type 1, BuildingBlock: VETTIZ_charged_linker_0, # of connection points: 3
#     Node 7, Type 1, BuildingBlock: VETTIZ_charged_linker_0, # of connection points: 3
#     Node 8, Type 1, BuildingBlock: VETTIZ_charged_linker_0, # of connection points: 3
#     Edge 9, Type (0, 1), None
#     Edge 10, Type (0, 1), None
#     Edge 11, Type (0, 1), None
#     Edge 12, Type (0, 1), None
#     Edge 13, Type (0, 1), None
#     Edge 14, Type (0, 1), None
#     Edge 15, Type (0, 1), None
#     Edge 16, Type (0, 1), None
#     Edge 17, Type (0, 1), None
#     Edge 18, Type (0, 1), None
#     Edge 19, Type (0, 1), None
#     Edge 20, Type (0, 1), None
#     Edge 21, Type (0, 1), None
#     Edge 22, Type (0, 1), None
#     Edge 23, Type (0, 1), None
#     Edge 24, Type (0, 1), None
#     Edge 25, Type (0, 1), None
#     Edge 26, Type (0, 1), None
# Relax obj value: 0.168
# Max RMSD: 0.231
# Mean RMSD: 0.116
data_MOF--net-anh--node1-VOLQOD_clean_sbu_1--node2-VETTIZ_charged_linker_0--edge1-none
_symmetry_space_group_name_H-M    P1
_symmetry_Int_Tables_number       1
_symmetry_cell_setting            triclinic
loop_
_symmetry_equiv_pos_as_xyz
'x, y, z'
_cell_length_a     19.363268
_cell_length_b     19.244487
_cell_length_c     42.220631
_cell_angle_alpha  89.914501
_cell_angle_beta   89.89057
_cell_angle_gamma 120.4985
loop_
_atom_site_label
_atom_site_type_symbol
_atom_site_fract_x
_atom_site_fract_y
_atom_site_fract_z
_atom_type_partial_charge
O0 O 0.97629 0.54517 0.22691 0.0
Zn1 Zn 0.98005 0.56332 0.18019 0.0
O2 O 0.98752 0.47895 0.15821 0.0
Zn3 Zn 0.88883 0.41006 0.13559 0.0
Zn4 Zn 0.00911 0.41393 0.1877 0.0
Zn5 Zn 0.07369 0.53138 0.1281 0.0
O6 O 0.90865 0.41088 0.08878 0.0
O7 O 0.03365 0.51412 0.08373 0.0
O8 O 0.8859 0.57194 0.1649 0.0
O9 O 0.81782 0.45668 0.13847 0.0
O10 O 0.82846 0.29717 0.15338 0.0
O11 O 0.91279 0.30216 0.19009 0.0
O12 O 0.10739 0.40653 0.17521 0.0
O13 O 0.0808 0.66946 0.17449 0.0
O14 O 0.1382 0.47983 0.13118 0.0
O15 O 0.14967 0.64928 0.13746 0.0
C16 C 1e-05 0.50625 0.24368 0.0
C17 C 0.96803 0.45987 0.07178 0.0
C18 C 0.84602 0.26409 0.17562 0.0
C19 C 0.82446 0.52123 0.14944 0.0
C20 C 0.14907 0.4349 0.15008 0.0
C21 C 0.14343 0.69509 0.1575 0.0
O22 O 0.02005 0.45835 0.23158 0.0
O23 O 0.41688 0.00932 0.41895 0.0
Zn24 Zn 0.39333 0.01376 0.46495 0.0
O25 O 0.47189 0.0051 0.49076 0.0
Zn26 Zn 0.53841 0.10399 0.51341 0.0
Zn27 Zn 0.54051 0.98161 0.46473 0.0
Zn28 Zn 0.41516 0.9207 0.52162 0.0
O29 O 0.53712 0.0849 0.56002 0.0
O30 O 0.42641 0.96457 0.56538 0.0
O31 O 0.3878 0.11412 0.47535 0.0
O32 O 0.49009 0.17249 0.50899 0.0
O33 O 0.65153 0.16639 0.49668 0.0
O34 O 0.65084 0.07879 0.46246 0.0
O35 O 0.54952 0.88808 0.48204 0.0
O36 O 0.28518 0.91494 0.47088 0.0
O37 O 0.46749 0.85542 0.52351 0.0
O38 O 0.29949 0.846 0.50988 0.0
C39 C 0.45681 0.98234 0.40493 0.0
C40 C 0.48368 0.02886 0.57712 0.0
C41 C 0.68676 0.14736 0.47593 0.0
C42 C 0.43267 0.17136 0.49401 0.0
C43 C 0.51717 0.84647 0.50689 0.0
C44 C 0.25675 0.8528 0.48862 0.0
O45 O 0.5019 0.96318 0.41985 0.0
O46 O 0.43468 0.45866 0.75653 0.0
Zn47 Zn 0.42041 0.44013 0.8033 0.0
O48 O 0.51246 0.52558 0.82504 0.0
Zn49 Zn 0.48138 0.59339 0.84754 0.0
Zn50 Zn 0.59955 0.59143 0.7955 0.0
Zn51 Zn 0.54699 0.47435 0.85517 0.0
O52 O 0.50065 0.59328 0.89426 0.0
O53 O 0.52387 0.49162 0.89947 0.0
O54 O 0.3164 0.42957 0.81873 0.0
O55 O 0.36313 0.54524 0.84474 0.0
O56 O 0.53289 0.70603 0.82963 0.0
O57 O 0.61405 0.70255 0.79327 0.0
O58 O 0.70613 0.59977 0.8078 0.0
O59 O 0.41701 0.33531 0.80884 0.0
O60 O 0.66361 0.52722 0.85203 0.0
O61 O 0.50641 0.35674 0.84585 0.0
C62 C 0.4973 0.4987 0.73958 0.0
C63 C 0.51181 0.54527 0.91133 0.0
C64 C 0.58409 0.73965 0.80747 0.0
C65 C 0.30518 0.48009 0.83396 0.0
C66 C 0.71963 0.57206 0.833 0.0
C67 C 0.45478 0.31064 0.82567 0.0
O68 O 0.5656 0.54733 0.7515 0.0
C69 C 0.70993 0.13806 0.17273 0.0
C70 C 0.78251 0.18657 0.18901 0.0
C71 C 0.78956 0.16698 0.22057 0.0
C72 C 0.64923 0.06544 0.22138 0.0
C73 C 0.6441 0.07678 0.18935 0.0
C74 C 0.56082 0.02002 0.17683 0.0
H75 H 0.16822 0.77264 0.21313 0.0
C76 C 0.568 0.01152 0.23357 0.0
C77 C 0.51546 0.98393 0.20768 0.0
H78 H 0.28368 0.78723 0.12358 0.0
H79 H 0.41077 0.89345 0.14485 0.0
H80 H 0.28954 0.75446 0.2505 0.0
H81 H 0.27148 0.96501 0.23361 0.0
H82 H 0.30913 0.97514 0.27218 0.0
H83 H 0.21102 0.89103 0.26281 0.0
H84 H 0.21289 0.76896 0.2677 0.0
H85 H 0.30811 0.80594 0.28663 0.0
C86 C 0.56382 0.95576 0.15561 0.0
C87 C 0.5288 0.06846 0.15932 0.0
C88 C 0.5205 -0.0022 0.35231 0.0
C89 C 0.45112 0.97346 0.37044 0.0
C90 C 0.37648 0.94175 0.35533 0.0
C91 C 0.37078 0.93275 0.32239 0.0
C92 C 0.44064 0.95684 0.30445 0.0
C93 C 0.51412 0.99071 0.31936 0.0
C94 C 0.58268 0.02144 0.29624 0.0
C95 C 0.53763 -0.00199 0.26498 0.0
C96 C 0.45472 0.95838 0.27009 0.0
C97 C 0.6268 0.97427 0.30173 0.0
C98 C 0.63665 0.11438 0.30041 0.0
C99 C 0.21991 0.80033 0.19754 0.0
C100 C 0.21564 0.77189 0.16657 0.0
C101 C 0.28532 0.80829 0.1475 0.0
C102 C 0.35892 0.8689 0.1599 0.0
C103 C 0.36291 0.89159 0.19176 0.0
C104 C 0.29396 0.8573 0.20998 0.0
C105 C 0.31071 0.87776 0.24448 0.0
C106 C 0.40137 0.92677 0.24417 0.0
C107 C 0.43155 0.93745 0.21317 0.0
C108 C 0.27848 0.79807 0.26357 0.0
C109 C 0.2734 0.92945 0.25405 0.0
H110 H 0.73115 0.09709 0.26119 0.0
H111 H 0.70366 0.15007 0.14817 0.0
H112 H 0.53278 0.11716 0.17475 0.0
H113 H 0.46538 0.02989 0.15235 0.0
H114 H 0.564 0.09658 0.13743 0.0
H115 H 0.62277 0.95896 0.1568 0.0
H116 H 0.55334 0.96342 0.13031 0.0
H117 H 0.51894 0.89349 0.16311 0.0
H118 H 0.57883 0.02448 0.36346 0.0
H119 H 0.32247 0.92295 0.36908 0.0
H120 H 0.31222 0.90734 0.31218 0.0
H121 H 0.58308 0.90882 0.30496 0.0
H122 H 0.66464 -0.00396 0.32331 0.0
H123 H 0.66476 0.97849 0.28139 0.0
H124 H 0.60937 0.13978 0.31643 0.0
H125 H 0.64643 0.14737 0.27778 0.0
H126 H 0.69584 0.13094 0.31066 0.0
H127 H 0.84491 0.20193 0.23357 0.0
C128 C 0.7232 0.10687 0.23683 0.0
C129 C 0.5201 0.71851 0.50371 0.0
C130 C 0.54127 0.79107 0.51928 0.0
C131 C 0.57017 0.80332 0.55049 0.0
C132 C 0.54143 0.66619 0.55274 0.0
C133 C 0.52058 0.65636 0.52103 0.0
C134 C 0.49272 0.57159 0.50997 0.0
H135 H 0.38798 0.19002 0.5511 0.0
C136 C 0.51902 0.58701 0.56605 0.0
C137 C 0.4902 0.5309 0.54125 0.0
H138 H 0.44314 0.29472 0.45753 0.0
H139 H 0.45637 0.41896 0.47839 0.0
H140 H 0.52711 0.32529 0.582 0.0
H141 H 0.28518 0.27772 0.57714 0.0
H142 H 0.32177 0.32173 0.61432 0.0
H143 H 0.3145 0.22667 0.60478 0.0
H144 H 0.4453 0.2455 0.60366 0.0
H145 H 0.50248 0.34516 0.61964 0.0
C146 C 0.55661 0.57426 0.48696 0.0
C147 C 0.40838 0.53521 0.49518 0.0
C148 C 0.52508 0.55623 0.68528 0.0
C149 C 0.49035 0.48845 0.70518 0.0
C150 C 0.44722 0.41078 0.692 0.0
C151 C 0.44013 0.40064 0.65912 0.0
C152 C 0.47561 0.46901 0.63935 0.0
C153 C 0.51544 0.54515 0.65253 0.0
C154 C 0.54081 0.6106 0.6281 0.0
C155 C 0.51248 0.56095 0.59792 0.0
C156 C 0.47603 0.47849 0.60468 0.0
C157 C 0.63334 0.6637 0.62895 0.0
C158 C 0.49597 0.65708 0.63488 0.0
C159 C 0.39953 0.23871 0.53498 0.0
C160 C 0.41366 0.23325 0.50281 0.0
C161 C 0.43082 0.29783 0.48236 0.0
C162 C 0.4402 0.37007 0.49461 0.0
C163 C 0.43344 0.37721 0.52751 0.0
C164 C 0.41154 0.31137 0.547 0.0
C165 C 0.41649 0.33179 0.58155 0.0
C166 C 0.45005 0.4218 0.57969 0.0
C167 C 0.45794 0.44786 0.5481 0.0
C168 C 0.47544 0.3107 0.59782 0.0
C169 C 0.33036 0.28699 0.59544 0.0
H170 H 0.59089 0.75329 0.5913 0.0
H171 H 0.49766 0.70835 0.47968 0.0
H172 H 0.36788 0.54418 0.51118 0.0
H173 H 0.37976 0.46968 0.49112 0.0
H174 H 0.41124 0.56439 0.47211 0.0
H175 H 0.61521 0.63134 0.48915 0.0
H176 H 0.53738 0.56942 0.46189 0.0
H177 H 0.5701 0.52585 0.49204 0.0
H178 H 0.55645 0.61659 0.69506 0.0
H179 H 0.41987 0.35795 0.70717 0.0
H180 H 0.40754 0.34004 0.65035 0.0
H181 H 0.66117 0.62556 0.63099 0.0
H182 H 0.65319 0.70512 0.64958 0.0
H183 H 0.65864 0.69964 0.60711 0.0
H184 H 0.44501 0.62409 0.65165 0.0
H185 H 0.46822 0.6651 0.61332 0.0
H186 H 0.53652 0.71719 0.64544 0.0
H187 H 0.58708 0.85932 0.56264 0.0
C188 C 0.57107 0.74142 0.56722 0.0
C189 C 0.1787 0.4848 0.83378 0.0
C190 C 0.22603 0.45581 0.84682 0.0
C191 C 0.20701 0.41885 0.87679 0.0
C192 C 0.10298 0.45169 0.88286 0.0
C193 C 0.1161 0.48069 0.85212 0.0
C194 C 0.05857 0.5083 0.8428 0.0
H195 H 0.77906 0.59819 0.89107 0.0
C196 C 0.04301 0.46681 0.8975 0.0
C197 C 0.01542 0.4988 0.87409 0.0
H198 H 0.83637 0.57292 0.79453 0.0
H199 H 0.94265 0.55033 0.8133 0.0
H200 H 0.75478 0.44737 0.90894 0.0
H201 H 0.96545 0.67842 0.9247 0.0
H202 H 0.9412 0.62309 0.96032 0.0
H203 H 0.86968 0.6451 0.9429 0.0
H204 H 0.76243 0.50747 0.94262 0.0
H205 H 0.79604 0.43538 0.94388 0.0
C206 C 0.00127 0.45034 0.81712 0.0
C207 C 0.10675 0.59737 0.83202 0.0
C208 C 0.00727 0.44569 0.01721 0.0
C209 C 0.95829 0.45969 0.03753 0.0
C210 C 0.90426 0.4807 0.025 0.0
C211 C 0.90124 0.49107 -0.00762 0.0
C212 C 0.95187 0.47885 0.97214 0.0
C213 C 0.00202 0.45424 0.98451 0.0
C214 C 0.04822 0.44008 0.95915 0.0
C215 C 0.01916 0.46293 0.92959 0.0
C216 C 0.96431 0.48707 0.93758 0.0
C217 C 0.02264 0.34944 0.95956 0.0
C218 C 0.13867 0.49829 0.96526 0.0
C219 C 0.8165 0.59086 0.87384 0.0
C220 C 0.79985 0.58736 0.84143 0.0
C221 C 0.84877 0.57646 0.81966 0.0
C222 C 0.90876 0.56139 0.83064 0.0
C223 C 0.91778 0.55551 0.86351 0.0
C224 C 0.87224 0.57103 0.88438 0.0
C225 C 0.87823 0.54926 0.91792 0.0
C226 C 0.93519 0.51799 0.91403 0.0
C227 C 0.95984 0.5233 0.88235 0.0
C228 C 0.79377 0.48189 0.9292 0.0
C229 C 0.91513 0.62763 0.93776 0.0
H230 H 0.1359 0.39054 0.91808 0.0
H231 H 0.19263 0.51328 0.81067 0.0
H232 H 0.15316 0.63437 0.84987 0.0
H233 H 0.06873 0.62442 0.82913 0.0
H234 H 0.13746 0.60317 0.80909 0.0
H235 H -0.00322 0.3904 0.81819 0.0
H236 H 0.02221 0.47507 0.79294 0.0
H237 H 0.93898 0.43705 0.82037 0.0
H238 H 0.04882 0.42889 0.02662 0.0
H239 H 0.8666 0.49217 0.04059 0.0
H240 H 0.86056 0.50957 0.98436 0.0
H241 H 0.96408 0.31177 0.97174 0.0
H242 H 0.06748 0.3396 0.972 0.0
H243 H 0.01332 0.32393 0.93537 0.0
H244 H 0.15073 0.56045 0.96969 0.0
H245 H 0.17716 0.5032 0.94514 0.0
H246 H 0.15894 0.47894 0.98637 0.0
H247 H 0.24361 0.39692 0.88716 0.0
C248 C 0.1455 0.41643 0.89488 0.0
C249 C 0.81108 0.28518 0.47834 0.0
C250 C 0.76513 0.21006 0.46314 0.0
C251 C 0.78914 0.19871 0.43297 0.0
C252 C 0.89063 0.33947 0.43066 0.0
C253 C 0.87464 0.34904 0.46173 0.0
C254 C 0.92983 0.4343 0.47312 0.0
H255 H 0.18774 0.82295 0.43106 0.0
C256 C 0.94655 0.4193 0.41746 0.0
C257 C 0.97057 0.47563 0.4421 0.0
H258 H 0.15702 0.71776 0.52429 0.0
H259 H 0.05187 0.58854 0.50394 0.0
H260 H 0.20606 0.69375 0.39957 0.0
H261 H -0.00153 0.71934 0.4067 0.0
H262 H -0.00735 0.67582 0.36955 0.0
H263 H 0.07629 0.77506 0.37823 0.0
H264 H 0.19676 0.77039 0.37903 0.0
H265 H 0.16023 0.6724 0.36218 0.0
C266 C -0.01009 0.43358 0.49725 0.0
C267 C 0.87999 0.46933 0.48693 0.0
C268 C 0.97735 0.44998 0.29809 0.0
C269 C 0.00448 0.51704 0.27806 0.0
C270 C 0.03462 0.59431 0.29113 0.0
C271 C 0.03916 0.60487 0.324 0.0
C272 C 0.01225 0.53725 0.34387 0.0
C273 C 0.98001 0.46125 0.33084 0.0
C274 C 0.94561 0.39568 0.35546 0.0
C275 C 0.96481 0.44543 0.38554 0.0
C276 C 0.00571 0.52803 0.37856 0.0
C277 C -0.00756 0.35022 0.35408 0.0
C278 C 0.8539 0.34128 0.34954 0.0
C279 C 0.15662 0.77316 0.44751 0.0
C280 C 0.18029 0.78075 0.47934 0.0
C281 C 0.13967 0.71346 0.49967 0.0
C282 C 0.0797 0.63858 0.48785 0.0
C283 C 0.06194 0.6308 0.45536 0.0
C284 C 0.10012 0.69761 0.4358 0.0
C285 C 0.08431 0.67626 0.40132 0.0
C286 C 0.03396 0.58524 0.40339 0.0
C287 C 0.01835 0.55913 0.43504 0.0
C288 C 0.16569 0.7048 0.38437 0.0
C289 C 0.03592 0.71377 0.38799 0.0
H290 H 0.86482 0.25171 0.39329 0.0
H291 H 0.79569 0.29475 0.50196 0.0
H292 H 0.83425 0.46361 0.46958 0.0
H293 H 0.91787 0.53396 0.49283 0.0
H294 H 0.84857 0.43697 0.50895 0.0
H295 H 0.98533 0.37366 0.49882 0.0
H296 H 0.97944 0.44866 0.52151 0.0
H297 H 0.05302 0.47661 0.49043 0.0
H298 H 0.95182 0.38973 0.28845 0.0
H299 H 0.05558 0.6466 0.27587 0.0
H300 H 0.06345 0.66519 0.33266 0.0
H301 H 0.0579 0.39343 0.35159 0.0
H302 H 0.97315 0.30867 0.33349 0.0
H303 H 0.98557 0.31546 0.3759 0.0
H304 H 0.83149 0.36667 0.33127 0.0
H305 H 0.81798 0.33485 0.37097 0.0
H306 H 0.83828 0.28027 0.34123 0.0
H307 H 0.75632 0.14129 0.42092 0.0
C308 C 0.85148 0.26309 0.41667 0.0
C309 C 0.57252 0.86456 0.80958 0.0
C310 C 0.59665 0.8159 0.79359 0.0
C311 C 0.62222 0.83395 0.76181 0.0
C312 C 0.58243 0.93403 0.76036 0.0
C313 C 0.56729 0.9246 0.79253 0.0
C314 C 0.54407 0.98377 0.80488 0.0
H315 H 0.41457 0.24252 0.76817 0.0
C316 C 0.55833 0.98999 0.74811 0.0
C317 C 0.5371 0.02105 0.77404 0.0
H318 H 0.49701 0.21427 0.85973 0.0
H319 H 0.51955 0.10979 0.83805 0.0
H320 H 0.55537 0.26758 0.73591 0.0
H321 H 0.32663 0.04959 0.74307 0.0
H322 H 0.35849 0.05918 0.70345 0.0
H323 H 0.34418 0.13657 0.72074 0.0
H324 H 0.47403 0.24866 0.71023 0.0
H325 H 0.54465 0.21709 0.70019 0.0
C326 C 0.61304 0.04659 0.82593 0.0
C327 C 0.46289 0.93747 0.82241 0.0
C328 C 0.51843 -0.00139 0.6296 0.0
C329 C 0.48871 0.0384 0.61136 0.0
C330 C 0.46417 0.08772 0.62597 0.0
C331 C 0.46846 0.09689 0.65888 0.0
C332 C 0.49827 0.05666 0.67714 0.0
C333 C 0.52314 0.00896 0.66245 0.0
C334 C 0.55408 0.97178 0.68555 0.0
C335 C 0.54337 0.00504 0.71669 0.0
C336 C 0.51001 0.05377 0.7115 0.0
C337 C 0.64364 0.00302 0.67793 0.0
C338 C 0.4992 0.87901 0.68323 0.0
C339 C 0.43476 0.21222 0.78408 0.0
C340 C 0.4527 0.2358 0.81583 0.0
C341 C 0.48212 0.19669 0.83521 0.0
C342 C 0.49624 0.13719 0.82254 0.0
C343 C 0.48322 0.1189 0.79005 0.0
C344 C 0.45317 0.15671 0.77152 0.0
C345 C 0.45452 0.14075 0.73687 0.0
C346 C 0.4913 0.0878 0.73743 0.0
C347 C 0.5059 0.07287 0.76859 0.0
C348 C 0.50933 0.22236 0.71968 0.0
C349 C 0.36664 0.09455 0.72512 0.0
H350 H 0.63227 0.90109 0.72072 0.0
H351 H 0.55538 0.85407 0.83433 0.0
H352 H 0.41723 0.88897 0.80709 0.0
H353 H 0.43937 0.97707 0.82906 0.0
H354 H 0.46861 0.90916 0.84443 0.0
H355 H 0.67086 0.04973 0.82057 0.0
H356 H 0.60006 0.03158 0.85148 0.0
H357 H 0.62505 0.10859 0.82179 0.0
H358 H 0.53817 0.9609 0.61848 0.0
H359 H 0.44097 0.1184 0.61189 0.0
H360 H 0.44825 0.13482 0.66873 0.0
H361 H 0.67099 0.05928 0.66351 0.0
H362 H 0.65099 0.95763 0.66445 0.0
H363 H 0.68085 0.01961 0.69961 0.0
H364 H 0.43502 0.8618 0.68434 0.0
H365 H 0.50787 0.84575 0.70253 0.0
H366 H 0.50915 0.85642 0.66047 0.0
H367 H 0.64263 0.79894 0.74899 0.0
C368 C 0.61515 0.89264 0.74518 0.0
C369 C 0.69362 0.51718 0.14932 0.0
C370 C 0.77014 0.54534 0.13632 0.0
C371 C 0.78908 0.58204 0.10629 0.0
C372 C 0.65256 0.55079 0.10015 0.0
C373 C 0.63581 0.52187 0.1309 0.0
C374 C 0.55054 0.49501 0.14016 0.0
H375 H 0.18251 0.40976 0.09187 0.0
C376 C 0.57789 0.53667 0.08548 0.0
C377 C 0.51778 0.50517 0.10886 0.0
H378 H 0.26399 0.43263 0.18841 0.0
H379 H 0.39276 0.45422 0.16958 0.0
H380 H 0.31141 0.56009 0.07431 0.0
H381 H 0.28647 0.32814 0.05795 0.0
H382 H 0.31884 0.38387 0.02243 0.0
H383 H 0.22534 0.36277 0.03993 0.0
H384 H 0.2588 0.501 0.04041 0.0
H385 H 0.36537 0.57225 0.03944 0.0
C386 C 0.55195 0.55307 0.16591 0.0
C387 C 0.50804 0.4058 0.15081 0.0
C388 C 0.5649 0.55867 0.96583 0.0
C389 C 0.50224 0.54576 0.94555 0.0
C390 C 0.42732 0.52611 0.95812 0.0
C391 C 0.4136 0.51583 0.99073 0.0
C392 C 0.47603 0.52682 0.01091 0.0
C393 C 0.55084 0.55031 -0.00148 0.0
C394 C 0.61084 0.56347 0.02385 0.0
C395 C 0.55855 0.54117 0.05341 0.0
C396 C 0.47971 0.51821 0.04543 0.0
C397 C 0.67763 0.65377 0.0235 0.0
C398 C 0.64141 0.50429 0.01768 0.0
C399 C 0.22699 0.4164 0.10908 0.0
C400 C 0.21371 0.41959 0.1415 0.0
C401 C 0.27306 0.42944 0.16326 0.0
C402 C 0.34806 0.44388 0.15226 0.0
C403 C 0.36329 0.45005 0.11939 0.0
C404 C 0.30255 0.43551 0.09853 0.0
C405 C 0.33093 0.4575 0.06503 0.0
C406 C 0.41916 0.48769 0.06894 0.0
C407 C 0.43788 0.4817 0.10058 0.0
C408 C 0.31559 0.52574 0.05395 0.0
C409 C 0.28818 0.37944 0.04503 0.0
H410 H 0.74766 0.61088 0.06492 0.0
H411 H 0.67835 0.48894 0.17248 0.0
H412 H 0.5172 0.36872 0.13297 0.0
H413 H 0.44271 0.37909 0.15354 0.0
H414 H 0.53222 0.39955 0.17379 0.0
H415 H 0.6085 0.61256 0.16508 0.0
H416 H 0.54678 0.5278 0.19005 0.0
H417 H 0.50384 0.5674 0.16252 0.0
H418 H 0.62319 0.5745 0.95639 0.0
H419 H 0.37845 0.51551 0.94256 0.0
H420 H 0.35444 0.49828 -0.00123 0.0
H421 H 0.658 0.69214 0.01133 0.0
H422 H 0.73223 0.66283 0.01107 0.0
H423 H 0.69408 0.67914 0.04771 0.0
H424 H 0.59021 0.44248 0.0132 0.0
H425 H 0.67437 0.49866 0.0378 0.0
H426 H 0.6814 0.52325 -0.0034 0.0
H427 H 0.84785 0.60339 0.09599 0.0
C428 C 0.73066 0.58514 0.08814 0.0
loop_
_geom_bond_atom_site_label_1
_geom_bond_atom_site_label_2
_geom_bond_distance
_geom_bond_site_symmetry_2
_ccdc_geom_bond_type
O0 Zn1 1.953 . S
O0 C16 1.225 1_655 S
Zn1 O0 1.953 . S
Zn1 O2 1.949 1_655 S
Zn1 O8 1.919 . S
Zn1 O13 1.924 1_655 S
O2 Zn1 1.949 1_455 S
O2 Zn3 1.923 1_455 S
O2 Zn4 1.950 . S
O2 Zn5 1.945 . S
Zn3 O2 1.923 1_655 S
Zn3 O6 1.933 . S
Zn3 O9 1.941 . S
Zn3 O10 1.965 . S
Zn4 O2 1.950 . S
Zn4 O11 1.938 1_455 S
Zn4 O12 1.906 . S
Zn4 O22 1.953 . S
Zn5 O2 1.945 . S
Zn5 O7 1.932 . S
Zn5 O14 1.977 . S
Zn5 O15 1.910 . S
O6 Zn3 1.933 . S
O6 C17 1.226 1_655 S
O7 Zn5 1.932 . S
O7 C17 1.307 . S
O8 Zn1 1.919 . S
O8 C19 1.253 . S
O9 Zn3 1.941 . S
O9 C19 1.283 . S
O10 Zn3 1.965 . S
O10 C18 1.303 . S
O11 Zn4 1.938 1_655 S
O11 C18 1.247 . S
O12 Zn4 1.906 . S
O12 C20 1.304 . S
O13 Zn1 1.924 1_455 S
O13 C21 1.311 . S
O14 Zn5 1.977 . S
O14 C20 1.272 . S
O15 Zn5 1.910 . S
O15 C21 1.231 . S
C16 O0 1.225 1_455 S
C16 O22 1.298 . S
C17 O6 1.226 1_455 S
C17 O7 1.307 . S
C18 O10 1.303 . S
C18 O11 1.247 . S
C19 O8 1.253 . S
C19 O9 1.283 . S
C20 O12 1.304 . S
C20 O14 1.272 . S
C21 O13 1.311 . S
C21 O15 1.231 . S
O22 Zn4 1.953 . S
O22 C16 1.298 . S
O23 Zn24 1.953 . S
O23 C39 1.225 . S
Zn24 O23 1.953 . S
Zn24 O25 1.949 . S
Zn24 O31 1.919 . S
Zn24 O36 1.924 1_545 S
O25 Zn24 1.949 . S
O25 Zn26 1.923 . S
O25 Zn27 1.950 1_545 S
O25 Zn28 1.945 1_545 S
Zn26 O25 1.923 . S
Zn26 O29 1.933 . S
Zn26 O32 1.941 . S
Zn26 O33 1.965 . S
Zn27 O25 1.950 1_565 S
Zn27 O34 1.938 1_565 S
Zn27 O35 1.906 . S
Zn27 O45 1.953 . S
Zn28 O25 1.945 1_565 S
Zn28 O30 1.932 . S
Zn28 O37 1.977 . S
Zn28 O38 1.910 . S
O29 Zn26 1.933 . S
O29 C40 1.226 . S
O30 Zn28 1.932 . S
O30 C40 1.307 1_565 S
O31 Zn24 1.919 . S
O31 C42 1.253 . S
O32 Zn26 1.941 . S
O32 C42 1.283 . S
O33 Zn26 1.965 . S
O33 C41 1.303 . S
O34 Zn27 1.938 1_545 S
O34 C41 1.247 . S
O35 Zn27 1.906 . S
O35 C43 1.304 . S
O36 Zn24 1.924 1_565 S
O36 C44 1.311 . S
O37 Zn28 1.977 . S
O37 C43 1.272 . S
O38 Zn28 1.910 . S
O38 C44 1.231 . S
C39 O23 1.225 . S
C39 O45 1.298 1_545 S
C40 O29 1.226 . S
C40 O30 1.307 1_545 S
C41 O33 1.303 . S
C41 O34 1.247 . S
C42 O31 1.253 . S
C42 O32 1.283 . S
C43 O35 1.304 . S
C43 O37 1.272 . S
C44 O36 1.311 . S
C44 O38 1.231 . S
O45 Zn27 1.953 . S
O45 C39 1.298 1_565 S
O46 Zn47 1.953 . S
O46 C62 1.225 . S
Zn47 O46 1.953 . S
Zn47 O48 1.949 . S
Zn47 O54 1.919 . S
Zn47 O59 1.924 . S
O48 Zn47 1.949 . S
O48 Zn49 1.923 . S
O48 Zn50 1.950 . S
O48 Zn51 1.945 . S
Zn49 O48 1.923 . S
Zn49 O52 1.933 . S
Zn49 O55 1.941 . S
Zn49 O56 1.965 . S
Zn50 O48 1.950 . S
Zn50 O57 1.938 . S
Zn50 O58 1.906 . S
Zn50 O68 1.953 . S
Zn51 O48 1.945 . S
Zn51 O53 1.932 . S
Zn51 O60 1.977 . S
Zn51 O61 1.910 . S
O52 Zn49 1.933 . S
O52 C63 1.226 . S
O53 Zn51 1.932 . S
O53 C63 1.307 . S
O54 Zn47 1.919 . S
O54 C65 1.253 . S
O55 Zn49 1.941 . S
O55 C65 1.283 . S
O56 Zn49 1.965 . S
O56 C64 1.303 . S
O57 Zn50 1.938 . S
O57 C64 1.247 . S
O58 Zn50 1.906 . S
O58 C66 1.304 . S
O59 Zn47 1.924 . S
O59 C67 1.311 . S
O60 Zn51 1.977 . S
O60 C66 1.272 . S
O61 Zn51 1.910 . S
O61 C67 1.231 . S
C62 O46 1.225 . S
C62 O68 1.298 . S
C63 O52 1.226 . S
C63 O53 1.307 . S
C64 O56 1.303 . S
C64 O57 1.247 . S
C65 O54 1.253 . S
C65 O55 1.283 . S
C66 O58 1.304 . S
C66 O60 1.272 . S
C67 O59 1.311 . S
C67 O61 1.231 . S
O68 Zn50 1.953 . S
O68 C62 1.298 . S
C69 C70 1.391 . S
C69 C73 1.391 . S
C69 H111 0.948 . S
C70 C69 1.391 . S
C70 C71 1.391 . S
C71 C70 1.391 . S
C71 H127 0.947 . S
C71 C128 1.392 . S
C72 C73 1.391 . S
C72 C76 1.397 . S
C72 C128 1.419 . S
C73 C69 1.391 . S
C73 C72 1.391 . S
C73 C74 1.399 . S
C74 C73 1.399 . S
C74 C77 1.396 . S
C74 C86 1.453 . S
C74 C87 1.684 . S
H75 C99 0.948 . S
C76 C72 1.397 . S
C76 C77 1.394 . S
C76 C95 1.723 . S
C77 C74 1.396 . S
C77 C76 1.394 . S
C77 C107 1.723 1_545 S
H78 C101 0.947 . S
H79 C102 0.948 . S
H80 C108 0.982 . S
H81 C109 0.979 . S
H82 C109 0.980 . S
H83 C109 0.983 . S
H84 C108 0.979 . S
H85 C108 0.977 . S
C86 C74 1.453 . S
C86 H115 0.982 . S
C86 H116 0.979 . S
C86 H117 0.977 1_545 S
C87 C74 1.684 . S
C87 H112 0.979 . S
C87 H113 0.980 . S
C87 H114 0.983 . S
C88 C89 1.391 . S
C88 C93 1.391 . S
C88 H118 0.948 . S
C89 C88 1.391 . S
C89 C90 1.391 1_545 S
C90 C89 1.391 1_565 S
C90 C91 1.392 . S
C90 H119 0.947 . S
C91 C90 1.392 . S
C91 C92 1.419 . S
C91 H120 0.948 . S
C92 C91 1.419 . S
C92 C93 1.391 1_565 S
C92 C96 1.397 . S
C93 C88 1.391 . S
C93 C92 1.391 1_545 S
C93 C94 1.399 . S
C94 C93 1.399 . S
C94 C95 1.396 . S
C94 C97 1.453 . S
C94 C98 1.684 . S
C95 C76 1.723 . S
C95 C94 1.396 . S
C95 C96 1.394 1_545 S
C96 C92 1.397 . S
C96 C95 1.394 1_565 S
C96 C106 1.723 . S
C97 C94 1.453 . S
C97 H121 0.982 . S
C97 H122 0.979 . S
C97 H123 0.977 . S
C98 C94 1.684 . S
C98 H124 0.979 . S
C98 H125 0.980 . S
C98 H126 0.983 . S
C99 H75 0.948 . S
C99 C100 1.391 . S
C99 C104 1.391 . S
C100 C99 1.391 . S
C100 C101 1.391 . S
C101 H78 0.947 . S
C101 C100 1.391 . S
C101 C102 1.392 . S
C102 H79 0.948 . S
C102 C101 1.392 . S
C102 C103 1.419 . S
C103 C102 1.419 . S
C103 C104 1.391 . S
C103 C107 1.397 . S
C104 C99 1.391 . S
C104 C103 1.391 . S
C104 C105 1.399 . S
C105 C104 1.399 . S
C105 C106 1.396 . S
C105 C108 1.453 . S
C105 C109 1.684 . S
C106 C96 1.723 . S
C106 C105 1.396 . S
C106 C107 1.394 . S
C107 C77 1.723 1_565 S
C107 C103 1.397 . S
C107 C106 1.394 . S
C108 H80 0.982 . S
C108 H84 0.979 . S
C108 H85 0.977 . S
C108 C105 1.453 . S
C109 H81 0.979 . S
C109 H82 0.980 . S
C109 H83 0.983 . S
C109 C105 1.684 . S
H110 C128 0.948 . S
H111 C69 0.948 . S
H112 C87 0.979 . S
H113 C87 0.980 . S
H114 C87 0.983 . S
H115 C86 0.982 . S
H116 C86 0.979 . S
H117 C86 0.977 1_565 S
H118 C88 0.948 . S
H119 C90 0.947 . S
H120 C91 0.948 . S
H121 C97 0.982 . S
H122 C97 0.979 . S
H123 C97 0.977 . S
H124 C98 0.979 . S
H125 C98 0.980 . S
H126 C98 0.983 . S
H127 C71 0.947 . S
C128 C71 1.392 . S
C128 C72 1.419 . S
C128 H110 0.948 . S
C129 C130 1.391 . S
C129 C133 1.391 . S
C129 H171 0.948 . S
C130 C129 1.391 . S
C130 C131 1.391 . S
C131 C130 1.391 . S
C131 H187 0.947 . S
C131 C188 1.392 . S
C132 C133 1.391 . S
C132 C136 1.397 . S
C132 C188 1.419 . S
C133 C129 1.391 . S
C133 C132 1.391 . S
C133 C134 1.399 . S
C134 C133 1.399 . S
C134 C137 1.396 . S
C134 C146 1.453 . S
C134 C147 1.684 . S
H135 C159 0.948 . S
C136 C132 1.397 . S
C136 C137 1.394 . S
C136 C155 1.723 . S
C137 C134 1.396 . S
C137 C136 1.394 . S
C137 C167 1.723 . S
H138 C161 0.947 . S
H139 C162 0.948 . S
H140 C168 0.982 . S
H141 C169 0.979 . S
H142 C169 0.980 . S
H143 C169 0.983 . S
H144 C168 0.979 . S
H145 C168 0.977 . S
C146 C134 1.453 . S
C146 H175 0.982 . S
C146 H176 0.979 . S
C146 H177 0.977 . S
C147 C134 1.684 . S
C147 H172 0.979 . S
C147 H173 0.980 . S
C147 H174 0.983 . S
C148 C149 1.391 . S
C148 C153 1.391 . S
C148 H178 0.948 . S
C149 C148 1.391 . S
C149 C150 1.391 . S
C150 C149 1.391 . S
C150 C151 1.392 . S
C150 H179 0.947 . S
C151 C150 1.392 . S
C151 C152 1.419 . S
C151 H180 0.948 . S
C152 C151 1.419 . S
C152 C153 1.391 . S
C152 C156 1.397 . S
C153 C148 1.391 . S
C153 C152 1.391 . S
C153 C154 1.399 . S
C154 C153 1.399 . S
C154 C155 1.396 . S
C154 C157 1.453 . S
C154 C158 1.684 . S
C155 C136 1.723 . S
C155 C154 1.396 . S
C155 C156 1.394 . S
C156 C152 1.397 . S
C156 C155 1.394 . S
C156 C166 1.723 . S
C157 C154 1.453 . S
C157 H181 0.982 . S
C157 H182 0.979 . S
C157 H183 0.977 . S
C158 C154 1.684 . S
C158 H184 0.979 . S
C158 H185 0.980 . S
C158 H186 0.983 . S
C159 H135 0.948 . S
C159 C160 1.391 . S
C159 C164 1.391 . S
C160 C159 1.391 . S
C160 C161 1.391 . S
C161 H138 0.947 . S
C161 C160 1.391 . S
C161 C162 1.392 . S
C162 H139 0.948 . S
C162 C161 1.392 . S
C162 C163 1.419 . S
C163 C162 1.419 . S
C163 C164 1.391 . S
C163 C167 1.397 . S
C164 C159 1.391 . S
C164 C163 1.391 . S
C164 C165 1.399 . S
C165 C164 1.399 . S
C165 C166 1.396 . S
C165 C168 1.453 . S
C165 C169 1.684 . S
C166 C156 1.723 . S
C166 C165 1.396 . S
C166 C167 1.394 . S
C167 C137 1.723 . S
C167 C163 1.397 . S
C167 C166 1.394 . S
C168 H140 0.982 . S
C168 H144 0.979 . S
C168 H145 0.977 . S
C168 C165 1.453 . S
C169 H141 0.979 . S
C169 H142 0.980 . S
C169 H143 0.983 . S
C169 C165 1.684 . S
H170 C188 0.948 . S
H171 C129 0.948 . S
H172 C147 0.979 . S
H173 C147 0.980 . S
H174 C147 0.983 . S
H175 C146 0.982 . S
H176 C146 0.979 . S
H177 C146 0.977 . S
H178 C148 0.948 . S
H179 C150 0.947 . S
H180 C151 0.948 . S
H181 C157 0.982 . S
H182 C157 0.979 . S
H183 C157 0.977 . S
H184 C158 0.979 . S
H185 C158 0.980 . S
H186 C158 0.983 . S
H187 C131 0.947 . S
C188 C131 1.392 . S
C188 C132 1.419 . S
C188 H170 0.948 . S
C189 C190 1.391 . S
C189 C193 1.391 . S
C189 H231 0.948 . S
C190 C189 1.391 . S
C190 C191 1.391 . S
C191 C190 1.391 . S
C191 H247 0.947 . S
C191 C248 1.392 . S
C192 C193 1.391 . S
C192 C196 1.397 . S
C192 C248 1.419 . S
C193 C189 1.391 . S
C193 C192 1.391 . S
C193 C194 1.399 . S
C194 C193 1.399 . S
C194 C197 1.396 . S
C194 C206 1.453 . S
C194 C207 1.684 . S
H195 C219 0.948 . S
C196 C192 1.397 . S
C196 C197 1.394 . S
C196 C215 1.723 . S
C197 C194 1.396 . S
C197 C196 1.394 . S
C197 C227 1.723 1_455 S
H198 C221 0.947 . S
H199 C222 0.948 . S
H200 C228 0.982 . S
H201 C229 0.979 . S
H202 C229 0.980 . S
H203 C229 0.983 . S
H204 C228 0.979 . S
H205 C228 0.977 . S
C206 C194 1.453 . S
C206 H235 0.982 . S
C206 H236 0.979 . S
C206 H237 0.977 1_455 S
C207 C194 1.684 . S
C207 H232 0.979 . S
C207 H233 0.980 . S
C207 H234 0.983 . S
C208 C209 1.391 . S
C208 C213 1.391 1_554 S
C208 H238 0.948 . S
C209 C208 1.391 . S
C209 C210 1.391 1_455 S
C210 C209 1.391 1_655 S
C210 C211 1.392 1_554 S
C210 H239 0.947 . S
C211 C210 1.392 1_556 S
C211 C212 1.426 . S
C211 H240 0.948 . S
C212 C211 1.426 . S
C212 C213 1.384 1_655 S
C212 C216 1.396 1_655 S
C213 C208 1.391 1_556 S
C213 C212 1.384 1_455 S
C213 C214 1.399 . S
C214 C213 1.399 . S
C214 C215 1.396 . S
C214 C217 1.453 . S
C214 C218 1.684 . S
C215 C196 1.723 . S
C215 C214 1.396 . S
C215 C216 1.394 . S
C216 C212 1.396 1_455 S
C216 C215 1.394 . S
C216 C226 1.723 1_455 S
C217 C214 1.453 . S
C217 H241 0.982 . S
C217 H242 0.979 . S
C217 H243 0.977 . S
C218 C214 1.684 . S
C218 H244 0.979 . S
C218 H245 0.980 . S
C218 H246 0.983 . S
C219 H195 0.948 . S
C219 C220 1.391 . S
C219 C224 1.391 . S
C220 C219 1.391 . S
C220 C221 1.391 . S
C221 H198 0.947 . S
C221 C220 1.391 . S
C221 C222 1.392 . S
C222 H199 0.948 . S
C222 C221 1.392 . S
C222 C223 1.419 . S
C223 C222 1.419 . S
C223 C224 1.391 . S
C223 C227 1.397 . S
C224 C219 1.391 . S
C224 C223 1.391 . S
C224 C225 1.399 . S
C225 C224 1.399 . S
C225 C226 1.396 . S
C225 C228 1.453 . S
C225 C229 1.684 . S
C226 C216 1.723 1_655 S
C226 C225 1.396 . S
C226 C227 1.394 . S
C227 C197 1.723 1_655 S
C227 C223 1.397 . S
C227 C226 1.394 . S
C228 H200 0.982 . S
C228 H204 0.979 . S
C228 H205 0.977 . S
C228 C225 1.453 . S
C229 H201 0.979 . S
C229 H202 0.980 . S
C229 H203 0.983 . S
C229 C225 1.684 . S
H230 C248 0.948 . S
H231 C189 0.948 . S
H232 C207 0.979 . S
H233 C207 0.980 . S
H234 C207 0.983 . S
H235 C206 0.982 . S
H236 C206 0.979 . S
H237 C206 0.977 1_655 S
H238 C208 0.948 . S
H239 C210 0.947 . S
H240 C211 0.948 . S
H241 C217 0.982 . S
H242 C217 0.979 . S
H243 C217 0.977 . S
H244 C218 0.979 . S
H245 C218 0.980 . S
H246 C218 0.983 . S
H247 C191 0.947 . S
C248 C191 1.392 . S
C248 C192 1.419 . S
C248 H230 0.948 . S
C249 C250 1.391 . S
C249 C253 1.391 . S
C249 H291 0.948 . S
C250 C249 1.391 . S
C250 C251 1.391 . S
C251 C250 1.391 . S
C251 H307 0.947 . S
C251 C308 1.392 . S
C252 C253 1.391 . S
C252 C256 1.397 . S
C252 C308 1.419 . S
C253 C249 1.391 . S
C253 C252 1.391 . S
C253 C254 1.399 . S
C254 C253 1.399 . S
C254 C257 1.396 . S
C254 C266 1.453 . S
C254 C267 1.684 . S
H255 C279 0.948 . S
C256 C252 1.397 . S
C256 C257 1.394 . S
C256 C275 1.723 . S
C257 C254 1.396 . S
C257 C256 1.394 . S
C257 C287 1.723 1_655 S
H258 C281 0.947 . S
H259 C282 0.948 . S
H260 C288 0.982 . S
H261 C289 0.979 . S
H262 C289 0.980 . S
H263 C289 0.983 . S
H264 C288 0.979 . S
H265 C288 0.977 . S
C266 C254 1.453 . S
C266 H295 0.982 1_655 S
C266 H296 0.979 . S
C266 H297 0.977 1_655 S
C267 C254 1.684 . S
C267 H292 0.979 . S
C267 H293 0.980 . S
C267 H294 0.983 . S
C268 C269 1.391 1_655 S
C268 C273 1.391 . S
C268 H298 0.948 . S
C269 C268 1.391 1_455 S
C269 C270 1.391 . S
C270 C269 1.391 . S
C270 C271 1.392 . S
C270 H299 0.947 . S
C271 C270 1.392 . S
C271 C272 1.419 . S
C271 H300 0.948 . S
C272 C271 1.419 . S
C272 C273 1.391 1_455 S
C272 C276 1.397 . S
C273 C268 1.391 . S
C273 C272 1.391 1_655 S
C273 C274 1.399 . S
C274 C273 1.399 . S
C274 C275 1.396 . S
C274 C277 1.453 . S
C274 C278 1.684 . S
C275 C256 1.723 . S
C275 C274 1.396 . S
C275 C276 1.394 1_655 S
C276 C272 1.397 . S
C276 C275 1.394 1_455 S
C276 C286 1.723 . S
C277 C274 1.453 . S
C277 H301 0.982 . S
C277 H302 0.979 . S
C277 H303 0.977 . S
C278 C274 1.684 . S
C278 H304 0.979 . S
C278 H305 0.980 . S
C278 H306 0.983 . S
C279 H255 0.948 . S
C279 C280 1.391 . S
C279 C284 1.391 . S
C280 C279 1.391 . S
C280 C281 1.391 . S
C281 H258 0.947 . S
C281 C280 1.391 . S
C281 C282 1.392 . S
C282 H259 0.948 . S
C282 C281 1.392 . S
C282 C283 1.419 . S
C283 C282 1.419 . S
C283 C284 1.391 . S
C283 C287 1.397 . S
C284 C279 1.391 . S
C284 C283 1.391 . S
C284 C285 1.399 . S
C285 C284 1.399 . S
C285 C286 1.396 . S
C285 C288 1.453 . S
C285 C289 1.684 . S
C286 C276 1.723 . S
C286 C285 1.396 . S
C286 C287 1.394 . S
C287 C257 1.723 1_455 S
C287 C283 1.397 . S
C287 C286 1.394 . S
C288 H260 0.982 . S
C288 H264 0.979 . S
C288 H265 0.977 . S
C288 C285 1.453 . S
C289 H261 0.979 . S
C289 H262 0.980 . S
C289 H263 0.983 . S
C289 C285 1.684 . S
H290 C308 0.948 . S
H291 C249 0.948 . S
H292 C267 0.979 . S
H293 C267 0.980 . S
H294 C267 0.983 . S
H295 C266 0.982 1_455 S
H296 C266 0.979 . S
H297 C266 0.977 1_455 S
H298 C268 0.948 . S
H299 C270 0.947 . S
H300 C271 0.948 . S
H301 C277 0.982 . S
H302 C277 0.979 . S
H303 C277 0.977 . S
H304 C278 0.979 . S
H305 C278 0.980 . S
H306 C278 0.983 . S
H307 C251 0.947 . S
C308 C251 1.392 . S
C308 C252 1.419 . S
C308 H290 0.948 . S
C309 C310 1.391 . S
C309 C313 1.391 . S
C309 H351 0.948 . S
C310 C309 1.391 . S
C310 C311 1.391 . S
C311 C310 1.391 . S
C311 H367 0.947 . S
C311 C368 1.392 . S
C312 C313 1.391 . S
C312 C316 1.397 . S
C312 C368 1.419 . S
C313 C309 1.391 . S
C313 C312 1.391 . S
C313 C314 1.399 . S
C314 C313 1.399 . S
C314 C317 1.396 . S
C314 C326 1.453 . S
C314 C327 1.684 . S
H315 C339 0.948 . S
C316 C312 1.397 . S
C316 C317 1.394 . S
C316 C335 1.723 . S
C317 C314 1.396 . S
C317 C316 1.394 . S
C317 C347 1.723 1_565 S
H318 C341 0.947 . S
H319 C342 0.948 . S
H320 C348 0.982 . S
H321 C349 0.979 . S
H322 C349 0.980 . S
H323 C349 0.983 . S
H324 C348 0.979 . S
H325 C348 0.977 . S
C326 C314 1.453 . S
C326 H355 0.982 1_565 S
C326 H356 0.979 . S
C326 H357 0.977 1_565 S
C327 C314 1.684 . S
C327 H352 0.979 . S
C327 H353 0.980 . S
C327 H354 0.983 . S
C328 C329 1.391 1_565 S
C328 C333 1.391 . S
C328 H358 0.948 . S
C329 C328 1.391 1_545 S
C329 C330 1.391 . S
C330 C329 1.391 . S
C330 C331 1.392 . S
C330 H359 0.947 . S
C331 C330 1.392 . S
C331 C332 1.419 . S
C331 H360 0.948 . S
C332 C331 1.419 . S
C332 C333 1.391 1_545 S
C332 C336 1.397 . S
C333 C328 1.391 . S
C333 C332 1.391 1_565 S
C333 C334 1.399 . S
C334 C333 1.399 . S
C334 C335 1.396 . S
C334 C337 1.453 . S
C334 C338 1.684 . S
C335 C316 1.723 . S
C335 C334 1.396 . S
C335 C336 1.394 1_565 S
C336 C332 1.397 . S
C336 C335 1.394 1_545 S
C336 C346 1.723 . S
C337 C334 1.453 . S
C337 H361 0.982 . S
C337 H362 0.979 . S
C337 H363 0.977 . S
C338 C334 1.684 . S
C338 H364 0.979 . S
C338 H365 0.980 . S
C338 H366 0.983 . S
C339 H315 0.948 . S
C339 C340 1.391 . S
C339 C344 1.391 . S
C340 C339 1.391 . S
C340 C341 1.391 . S
C341 H318 0.947 . S
C341 C340 1.391 . S
C341 C342 1.392 . S
C342 H319 0.948 . S
C342 C341 1.392 . S
C342 C343 1.419 . S
C343 C342 1.419 . S
C343 C344 1.391 . S
C343 C347 1.397 . S
C344 C339 1.391 . S
C344 C343 1.391 . S
C344 C345 1.399 . S
C345 C344 1.399 . S
C345 C346 1.396 . S
C345 C348 1.453 . S
C345 C349 1.684 . S
C346 C336 1.723 . S
C346 C345 1.396 . S
C346 C347 1.394 . S
C347 C317 1.723 1_545 S
C347 C343 1.397 . S
C347 C346 1.394 . S
C348 H320 0.982 . S
C348 H324 0.979 . S
C348 H325 0.977 . S
C348 C345 1.453 . S
C349 H321 0.979 . S
C349 H322 0.980 . S
C349 H323 0.983 . S
C349 C345 1.684 . S
H350 C368 0.948 . S
H351 C309 0.948 . S
H352 C327 0.979 . S
H353 C327 0.980 . S
H354 C327 0.983 . S
H355 C326 0.982 1_545 S
H356 C326 0.979 . S
H357 C326 0.977 1_545 S
H358 C328 0.948 . S
H359 C330 0.947 . S
H360 C331 0.948 . S
H361 C337 0.982 . S
H362 C337 0.979 . S
H363 C337 0.977 . S
H364 C338 0.979 . S
H365 C338 0.980 . S
H366 C338 0.983 . S
H367 C311 0.947 . S
C368 C311 1.392 . S
C368 C312 1.419 . S
C368 H350 0.948 . S
C369 C370 1.391 . S
C369 C373 1.391 . S
C369 H411 0.948 . S
C370 C369 1.391 . S
C370 C371 1.391 . S
C371 C370 1.391 . S
C371 H427 0.947 . S
C371 C428 1.392 . S
C372 C373 1.391 . S
C372 C376 1.397 . S
C372 C428 1.419 . S
C373 C369 1.391 . S
C373 C372 1.391 . S
C373 C374 1.399 . S
C374 C373 1.399 . S
C374 C377 1.396 . S
C374 C386 1.453 . S
C374 C387 1.684 . S
H375 C399 0.948 . S
C376 C372 1.397 . S
C376 C377 1.394 . S
C376 C395 1.723 . S
C377 C374 1.396 . S
C377 C376 1.394 . S
C377 C407 1.723 . S
H378 C401 0.947 . S
H379 C402 0.948 . S
H380 C408 0.982 . S
H381 C409 0.979 . S
H382 C409 0.980 . S
H383 C409 0.983 . S
H384 C408 0.979 . S
H385 C408 0.977 . S
C386 C374 1.453 . S
C386 H415 0.982 . S
C386 H416 0.979 . S
C386 H417 0.977 . S
C387 C374 1.684 . S
C387 H412 0.979 . S
C387 H413 0.980 . S
C387 H414 0.983 . S
C388 C389 1.391 . S
C388 C393 1.391 1_556 S
C388 H418 0.948 . S
C389 C388 1.391 . S
C389 C390 1.391 . S
C390 C389 1.391 . S
C390 C391 1.392 1_556 S
C390 H419 0.947 . S
C391 C390 1.392 1_554 S
C391 C392 1.419 . S
C391 H420 0.948 . S
C392 C391 1.419 . S
C392 C393 1.391 . S
C392 C396 1.397 . S
C393 C388 1.391 1_554 S
C393 C392 1.391 . S
C393 C394 1.399 . S
C394 C393 1.399 . S
C394 C395 1.396 . S
C394 C397 1.453 . S
C394 C398 1.684 . S
C395 C376 1.723 . S
C395 C394 1.396 . S
C395 C396 1.394 . S
C396 C392 1.397 . S
C396 C395 1.394 . S
C396 C406 1.723 . S
C397 C394 1.453 . S
C397 H421 0.982 . S
C397 H422 0.979 . S
C397 H423 0.977 . S
C398 C394 1.684 . S
C398 H424 0.979 . S
C398 H425 0.980 . S
C398 H426 0.983 . S
C399 H375 0.948 . S
C399 C400 1.391 . S
C399 C404 1.391 . S
C400 C399 1.391 . S
C400 C401 1.391 . S
C401 H378 0.947 . S
C401 C400 1.391 . S
C401 C402 1.392 . S
C402 H379 0.948 . S
C402 C401 1.392 . S
C402 C403 1.419 . S
C403 C402 1.419 . S
C403 C404 1.391 . S
C403 C407 1.397 . S
C404 C399 1.391 . S
C404 C403 1.391 . S
C404 C405 1.399 . S
C405 C404 1.399 . S
C405 C406 1.396 . S
C405 C408 1.453 . S
C405 C409 1.684 . S
C406 C396 1.723 . S
C406 C405 1.396 . S
C406 C407 1.394 . S
C407 C377 1.723 . S
C407 C403 1.397 . S
C407 C406 1.394 . S
C408 H380 0.982 . S
C408 H384 0.979 . S
C408 H385 0.977 . S
C408 C405 1.453 . S
C409 H381 0.979 . S
C409 H382 0.980 . S
C409 H383 0.983 . S
C409 C405 1.684 . S
H410 C428 0.948 . S
H411 C369 0.948 . S
H412 C387 0.979 . S
H413 C387 0.980 . S
H414 C387 0.983 . S
H415 C386 0.982 . S
H416 C386 0.979 . S
H417 C386 0.977 . S
H418 C388 0.948 . S
H419 C390 0.947 . S
H420 C391 0.948 . S
H421 C397 0.982 . S
H422 C397 0.979 . S
H423 C397 0.977 . S
H424 C398 0.979 . S
H425 C398 0.980 . S
H426 C398 0.983 . S
H427 C371 0.947 . S
C428 C371 1.392 . S
C428 C372 1.419 . S
C428 H410 0.948 . S
C20 C400 1.405 . S
C41 C250 1.708 . S
C64 C310 1.828 . S
C19 C370 1.575 . S
C280 C44 1.610 . S
C340 C67 1.566 . S
C43 C130 1.338 . S
C66 C220 1.412 . S
C21 C100 1.610 . S
C160 C42 1.509 . S
C190 C65 1.573 . S
C18 C70 1.720 . S
C209 C17 1.464 . S
C39 C89 1.423 . S
C62 C149 1.448 . S
C329 C40 1.417 . S
C389 C63 1.465 . S
C16 C269 1.424 . S
