# Generated by pormake.
# Topology eea, (3,6)-cn, num edge types: 1
# Building blocks:
#     Node 0, Type 0, BuildingBlock: QEWDON_clean_linker_0, # of connection points: 3
#     Node 1, Type 0, BuildingBlock: QEWDON_clean_linker_0, # of connection points: 3
#     Node 2, Type 0, BuildingBlock: QEWDON_clean_linker_0, # of connection points: 3
#     Node 3, Type 0, BuildingBlock: QEWDON_clean_linker_0, # of connection points: 3
#     Node 4, Type 0, BuildingBlock: QEWDON_clean_linker_0, # of connection points: 3
#     Node 5, Type 0, BuildingBlock: QEWDON_clean_linker_0, # of connection points: 3
#     Node 6, Type 0, BuildingBlock: QEWDON_clean_linker_0, # of connection points: 3
#     Node 7, Type 0, BuildingBlock: QEWDON_clean_linker_0, # of connection points: 3
#     Node 8, Type 0, BuildingBlock: QEWDON_clean_linker_0, # of connection points: 3
#     Node 9, Type 0, BuildingBlock: QEWDON_clean_linker_0, # of connection points: 3
#     Node 10, Type 0, BuildingBlock: QEWDON_clean_linker_0, # of connection points: 3
#     Node 11, Type 0, BuildingBlock: QEWDON_clean_linker_0, # of connection points: 3
#     Node 12, Type 0, BuildingBlock: QEWDON_clean_linker_0, # of connection points: 3
#     Node 13, Type 0, BuildingBlock: QEWDON_clean_linker_0, # of connection points: 3
#     Node 14, Type 0, BuildingBlock: QEWDON_clean_linker_0, # of connection points: 3
#     Node 15, Type 0, BuildingBlock: QEWDON_clean_linker_0, # of connection points: 3
#     Node 16, Type 0, BuildingBlock: QEWDON_clean_linker_0, # of connection points: 3
#     Node 17, Type 0, BuildingBlock: QEWDON_clean_linker_0, # of connection points: 3
#     Node 18, Type 1, BuildingBlock: KUMBUR_clean_sbu_0, # of connection points: 6
#     Node 19, Type 1, BuildingBlock: KUMBUR_clean_sbu_0, # of connection points: 6
#     Node 20, Type 1, BuildingBlock: KUMBUR_clean_sbu_0, # of connection points: 6
#     Node 21, Type 1, BuildingBlock: KUMBUR_clean_sbu_0, # of connection points: 6
#     Node 22, Type 1, BuildingBlock: KUMBUR_clean_sbu_0, # of connection points: 6
#     Node 23, Type 1, BuildingBlock: KUMBUR_clean_sbu_0, # of connection points: 6
#     Node 24, Type 1, BuildingBlock: KUMBUR_clean_sbu_0, # of connection points: 6
#     Node 25, Type 1, BuildingBlock: KUMBUR_clean_sbu_0, # of connection points: 6
#     Node 26, Type 1, BuildingBlock: KUMBUR_clean_sbu_0, # of connection points: 6
#     Edge 27, Type (0, 1), BuildingBlock: OJICUG_clean_linker_0, # of connection points: 2
#     Edge 28, Type (0, 1), BuildingBlock: OJICUG_clean_linker_0, # of connection points: 2
#     Edge 29, Type (0, 1), BuildingBlock: OJICUG_clean_linker_0, # of connection points: 2
#     Edge 30, Type (0, 1), BuildingBlock: OJICUG_clean_linker_0, # of connection points: 2
#     Edge 31, Type (0, 1), BuildingBlock: OJICUG_clean_linker_0, # of connection points: 2
#     Edge 32, Type (0, 1), BuildingBlock: OJICUG_clean_linker_0, # of connection points: 2
#     Edge 33, Type (0, 1), BuildingBlock: OJICUG_clean_linker_0, # of connection points: 2
#     Edge 34, Type (0, 1), BuildingBlock: OJICUG_clean_linker_0, # of connection points: 2
#     Edge 35, Type (0, 1), BuildingBlock: OJICUG_clean_linker_0, # of connection points: 2
#     Edge 36, Type (0, 1), BuildingBlock: OJICUG_clean_linker_0, # of connection points: 2
#     Edge 37, Type (0, 1), BuildingBlock: OJICUG_clean_linker_0, # of connection points: 2
#     Edge 38, Type (0, 1), BuildingBlock: OJICUG_clean_linker_0, # of connection points: 2
#     Edge 39, Type (0, 1), BuildingBlock: OJICUG_clean_linker_0, # of connection points: 2
#     Edge 40, Type (0, 1), BuildingBlock: OJICUG_clean_linker_0, # of connection points: 2
#     Edge 41, Type (0, 1), BuildingBlock: OJICUG_clean_linker_0, # of connection points: 2
#     Edge 42, Type (0, 1), BuildingBlock: OJICUG_clean_linker_0, # of connection points: 2
#     Edge 43, Type (0, 1), BuildingBlock: OJICUG_clean_linker_0, # of connection points: 2
#     Edge 44, Type (0, 1), BuildingBlock: OJICUG_clean_linker_0, # of connection points: 2
#     Edge 45, Type (0, 1), BuildingBlock: OJICUG_clean_linker_0, # of connection points: 2
#     Edge 46, Type (0, 1), BuildingBlock: OJICUG_clean_linker_0, # of connection points: 2
#     Edge 47, Type (0, 1), BuildingBlock: OJICUG_clean_linker_0, # of connection points: 2
#     Edge 48, Type (0, 1), BuildingBlock: OJICUG_clean_linker_0, # of connection points: 2
#     Edge 49, Type (0, 1), BuildingBlock: OJICUG_clean_linker_0, # of connection points: 2
#     Edge 50, Type (0, 1), BuildingBlock: OJICUG_clean_linker_0, # of connection points: 2
#     Edge 51, Type (0, 1), BuildingBlock: OJICUG_clean_linker_0, # of connection points: 2
#     Edge 52, Type (0, 1), BuildingBlock: OJICUG_clean_linker_0, # of connection points: 2
#     Edge 53, Type (0, 1), BuildingBlock: OJICUG_clean_linker_0, # of connection points: 2
#     Edge 54, Type (0, 1), BuildingBlock: OJICUG_clean_linker_0, # of connection points: 2
#     Edge 55, Type (0, 1), BuildingBlock: OJICUG_clean_linker_0, # of connection points: 2
#     Edge 56, Type (0, 1), BuildingBlock: OJICUG_clean_linker_0, # of connection points: 2
#     Edge 57, Type (0, 1), BuildingBlock: OJICUG_clean_linker_0, # of connection points: 2
#     Edge 58, Type (0, 1), BuildingBlock: OJICUG_clean_linker_0, # of connection points: 2
#     Edge 59, Type (0, 1), BuildingBlock: OJICUG_clean_linker_0, # of connection points: 2
#     Edge 60, Type (0, 1), BuildingBlock: OJICUG_clean_linker_0, # of connection points: 2
#     Edge 61, Type (0, 1), BuildingBlock: OJICUG_clean_linker_0, # of connection points: 2
#     Edge 62, Type (0, 1), BuildingBlock: OJICUG_clean_linker_0, # of connection points: 2
#     Edge 63, Type (0, 1), BuildingBlock: OJICUG_clean_linker_0, # of connection points: 2
#     Edge 64, Type (0, 1), BuildingBlock: OJICUG_clean_linker_0, # of connection points: 2
#     Edge 65, Type (0, 1), BuildingBlock: OJICUG_clean_linker_0, # of connection points: 2
#     Edge 66, Type (0, 1), BuildingBlock: OJICUG_clean_linker_0, # of connection points: 2
#     Edge 67, Type (0, 1), BuildingBlock: OJICUG_clean_linker_0, # of connection points: 2
#     Edge 68, Type (0, 1), BuildingBlock: OJICUG_clean_linker_0, # of connection points: 2
#     Edge 69, Type (0, 1), BuildingBlock: OJICUG_clean_linker_0, # of connection points: 2
#     Edge 70, Type (0, 1), BuildingBlock: OJICUG_clean_linker_0, # of connection points: 2
#     Edge 71, Type (0, 1), BuildingBlock: OJICUG_clean_linker_0, # of connection points: 2
#     Edge 72, Type (0, 1), BuildingBlock: OJICUG_clean_linker_0, # of connection points: 2
#     Edge 73, Type (0, 1), BuildingBlock: OJICUG_clean_linker_0, # of connection points: 2
#     Edge 74, Type (0, 1), BuildingBlock: OJICUG_clean_linker_0, # of connection points: 2
#     Edge 75, Type (0, 1), BuildingBlock: OJICUG_clean_linker_0, # of connection points: 2
#     Edge 76, Type (0, 1), BuildingBlock: OJICUG_clean_linker_0, # of connection points: 2
#     Edge 77, Type (0, 1), BuildingBlock: OJICUG_clean_linker_0, # of connection points: 2
#     Edge 78, Type (0, 1), BuildingBlock: OJICUG_clean_linker_0, # of connection points: 2
#     Edge 79, Type (0, 1), BuildingBlock: OJICUG_clean_linker_0, # of connection points: 2
#     Edge 80, Type (0, 1), BuildingBlock: OJICUG_clean_linker_0, # of connection points: 2
# Relax obj value: 0.047
# Max RMSD: 0.225
# Mean RMSD: 0.160
data_MOF--net-eea--node1-KUMBUR_clean_sbu_0--node2-QEWDON_clean_linker_0--edge1-OJICUG_clean_linker_0
_symmetry_space_group_name_H-M    P1
_symmetry_Int_Tables_number       1
_symmetry_cell_setting            triclinic
loop_
_symmetry_equiv_pos_as_xyz
'x, y, z'
_cell_length_a     41.580723
_cell_length_b     43.35168
_cell_length_c     49.970138
_cell_angle_alpha  89.774875
_cell_angle_beta   89.482195
_cell_angle_gamma 119.99167
loop_
_atom_site_label
_atom_site_type_symbol
_atom_site_fract_x
_atom_site_fract_y
_atom_site_fract_z
_atom_type_partial_charge
H0 H 0.24107 0.13152 0.43888 0.0
C1 C 0.24051 0.10897 0.42911 0.0
C2 C 0.26096 0.09416 0.43975 0.0
C3 C 0.21755 0.09337 0.40702 0.0
H4 H 0.27308 0.05163 0.43724 0.0
C5 C 0.25833 0.06354 0.4281 0.0
C6 C 0.23667 0.04827 0.40521 0.0
C7 C 0.21699 0.06409 0.39461 0.0
C8 C 0.19124 0.10512 0.39848 0.0
H9 H 0.20065 0.05361 0.37675 0.0
C10 C 0.20267 0.14147 0.39509 0.0
C11 C 0.17668 0.15178 0.38815 0.0
C12 C 0.15369 0.07947 0.39464 0.0
H13 H 0.14403 0.05136 0.39744 0.0
C14 C 0.128 0.08981 0.38779 0.0
H15 H 0.23152 0.16157 0.39777 0.0
C16 C 0.13936 0.12579 0.38465 0.0
H17 H 0.11908 0.13339 0.37921 0.0
H18 H 0.09916 0.06988 0.38501 0.0
H19 H 0.90042 0.09961 0.43188 0.0
C20 C 0.92305 0.12253 0.42189 0.0
C21 C 0.93529 0.15665 0.43221 0.0
C22 C 0.94105 0.11754 0.39978 0.0
H23 H 0.97546 0.21239 0.42815 0.0
C24 C 0.96574 0.18612 0.41997 0.0
C25 C 0.98396 0.18199 0.39753 0.0
C26 C 0.97139 0.14752 0.38761 0.0
C27 C 0.92965 0.0808 0.39072 0.0
H28 H 0.98508 0.14402 0.37029 0.0
C29 C 0.8918 0.05411 0.38973 0.0
C30 C 0.88167 0.01883 0.38336 0.0
C31 C 0.95691 0.07168 0.3845 0.0
H32 H 0.98617 0.09133 0.38543 0.0
C33 C 0.94679 0.03677 0.37788 0.0
H34 H 0.8703 0.06058 0.39419 0.0
C35 C 0.90944 0.01042 0.3775 0.0
H36 H 0.90214 0.98343 0.37241 0.0
H37 H 0.96802 0.03003 0.37331 0.0
H38 H 0.93485 0.79213 0.43211 0.0
C39 C 0.91152 0.79288 0.42338 0.0
C40 C 0.87632 0.77389 0.43602 0.0
C41 C 0.9165 0.81275 0.39964 0.0
H42 H 0.81969 0.76278 0.43547 0.0
C43 C 0.84635 0.77592 0.42516 0.0
C44 C 0.85025 0.79511 0.40154 0.0
C45 C 0.88517 0.81293 0.38873 0.0
C46 C 0.95418 0.83451 0.38651 0.0
H47 H 0.88756 0.82657 0.36999 0.0
C48 C 0.98214 0.82469 0.38738 0.0
C49 C 1.01727 0.84624 0.37474 0.0
C50 C 0.96251 0.86633 0.37302 0.0
H51 H 0.94305 0.876 0.37277 0.0
C52 C 0.99631 0.88672 0.35978 0.0
H53 H 0.97685 0.80073 0.39793 0.0
C54 C 0.02323 0.87672 0.36041 0.0
H55 H 0.04907 0.89328 0.34968 0.0
H56 H 1.00183 0.91071 0.34915 0.0
H57 H 0.15175 0.22054 0.60865 0.0
C58 C 0.12835 0.22174 0.6171 0.0
C59 C 0.11368 0.23996 0.60279 0.0
C60 C 0.11205 0.20401 0.64152 0.0
H61 H 0.07047 0.2537 0.60205 0.0
C62 C 0.08206 0.23999 0.61302 0.0
C63 C 0.06516 0.22259 0.63722 0.0
C64 C 0.08071 0.20533 0.65149 0.0
C65 C 0.12624 0.18278 0.65616 0.0
H66 H 0.06834 0.1933 0.67065 0.0
C67 C 0.16404 0.19129 0.65485 0.0
C68 C 0.17611 0.17032 0.66875 0.0
C69 C 0.10111 0.15276 0.67147 0.0
H70 H 0.07175 0.14391 0.67219 0.0
C71 C 0.11311 0.13305 0.68596 0.0
H72 H 0.18391 0.21381 0.64294 0.0
C73 C 0.15012 0.14183 0.68485 0.0
H74 H 0.15823 0.1259 0.69664 0.0
H75 H 0.09344 0.11051 0.69798 0.0
H76 H 0.80306 0.92184 0.60104 0.0
C77 C 0.80356 0.9 0.6113 0.0
C78 C 0.77906 0.86486 0.60357 0.0
C79 C 0.83045 0.90737 0.63083 0.0
H80 H 0.76096 0.80969 0.61085 0.0
C81 C 0.78078 0.8368 0.61629 0.0
C82 C 0.80781 0.84343 0.63568 0.0
C83 C 0.83254 0.87898 0.64281 0.0
C84 C 0.85821 0.94493 0.63692 0.0
H85 H 0.85409 0.8848 0.65724 0.0
C86 C 0.84722 0.97059 0.64069 0.0
C87 C 0.87394 0.00661 0.64434 0.0
C88 C 0.89621 0.95573 0.63751 0.0
H89 H 0.90552 0.93672 0.63435 0.0
C90 C 0.92272 0.99144 0.6413 0.0
H91 H 0.81802 0.96268 0.64049 0.0
C92 C 0.91174 0.01681 0.6445 0.0
H93 H 0.93274 0.04441 0.64744 0.0
H94 H 0.95191 0.99953 0.64153 0.0
H95 H 0.11189 0.87578 0.60219 0.0
C96 C 0.1337 0.89926 0.61176 0.0
C97 C 0.17041 0.91441 0.60223 0.0
C98 C 0.12451 0.91618 0.63186 0.0
H99 H 0.22673 0.95605 0.60711 0.0
C100 C 0.19838 0.94553 0.61406 0.0
C101 C 0.19006 0.96312 0.63427 0.0
C102 C 0.15275 0.94808 0.64291 0.0
C103 C 0.08485 0.90371 0.63821 0.0
H104 H 0.14516 0.96176 0.65754 0.0
C105 C 0.05955 0.86801 0.64568 0.0
C106 C 0.02141 0.85646 0.64998 0.0
C107 C 0.07184 0.92778 0.63519 0.0
H108 H 0.09056 0.95516 0.62918 0.0
C109 C 0.03439 0.91656 0.63882 0.0
H110 H 0.06985 0.8497 0.64847 0.0
C111 C 1.00937 0.88131 0.64578 0.0
H112 H 0.98035 0.87364 0.6474 0.0
H113 H 0.02455 0.93519 0.63581 0.0
H114 H 0.90734 0.46998 0.77172 0.0
C115 C 0.90667 0.44793 0.76106 0.0
C116 C 0.92958 0.43465 0.76929 0.0
C117 C 0.88088 0.43109 0.74056 0.0
H118 H 0.94671 0.39629 0.76221 0.0
C119 C 0.92798 0.40549 0.75609 0.0
C120 C 0.90229 0.38797 0.73563 0.0
C121 C 0.8788 0.40111 0.72798 0.0
C122 C 0.85374 0.44276 0.73425 0.0
H123 H 0.85812 0.3875 0.71278 0.0
C124 C 0.86527 0.47915 0.73081 0.0
C125 C 0.83897 0.49004 0.7268 0.0
C126 C 0.81567 0.41747 0.73308 0.0
H127 H 0.80597 0.38937 0.73598 0.0
C128 C 0.7896 0.42825 0.729 0.0
H129 H 0.89454 0.49896 0.7315 0.0
C130 C 0.80109 0.46432 0.72605 0.0
H131 H 0.78041 0.47216 0.72282 0.0
H132 H 0.76034 0.4086 0.72831 0.0
H133 H 0.56793 0.43815 0.76807 0.0
C134 C 0.59072 0.46109 0.75823 0.0
C135 C 0.60324 0.49515 0.76881 0.0
C136 C 0.60878 0.45617 0.73611 0.0
H137 H 0.64367 0.55088 0.76497 0.0
C138 C 0.63382 0.52465 0.75666 0.0
C139 C 0.65202 0.52062 0.73417 0.0
C140 C 0.63935 0.48619 0.72411 0.0
C141 C 0.59747 0.41944 0.72698 0.0
H142 H 0.65315 0.48277 0.70683 0.0
C143 C 0.55963 0.39271 0.72546 0.0
C144 C 0.54971 0.35751 0.71882 0.0
C145 C 0.62489 0.4104 0.72115 0.0
H146 H 0.65411 0.43004 0.7225 0.0
C147 C 0.615 0.3756 0.71436 0.0
H148 H 0.53802 0.39911 0.72963 0.0
C149 C 0.57769 0.34926 0.71336 0.0
H150 H 0.57061 0.32238 0.70808 0.0
H151 H 0.63637 0.36895 0.71009 0.0
H152 H 0.59774 0.12561 0.76842 0.0
C153 C 0.57544 0.1271 0.75855 0.0
C154 C 0.5387 0.1064 0.76819 0.0
C155 C 0.58386 0.151 0.73695 0.0
H156 H 0.48232 0.09488 0.76343 0.0
C157 C 0.51038 0.10944 0.75541 0.0
C158 C 0.51772 0.13218 0.73324 0.0
C159 C 0.55478 0.15333 0.72435 0.0
C160 C 0.62335 0.17726 0.73029 0.0
H161 H 0.56113 0.17182 0.70781 0.0
C162 C 0.6501 0.16701 0.72425 0.0
C163 C 0.68805 0.19311 0.71993 0.0
C164 C 0.63473 0.21358 0.73183 0.0
H165 H 0.61494 0.22213 0.73668 0.0
C166 C 0.67188 0.23926 0.7284 0.0
H167 H 0.6411 0.13896 0.72258 0.0
C168 C 0.69827 0.22927 0.72293 0.0
H169 H 0.72693 0.25032 0.72151 0.0
H170 H 0.68041 0.26717 0.73041 0.0
H171 H 0.81393 0.55223 0.9436 0.0
C172 C 0.7909 0.55352 0.95266 0.0
C173 C 0.7765 0.57266 0.93936 0.0
C174 C 0.77486 0.53504 0.97685 0.0
H175 H 0.7339 0.58721 0.94013 0.0
C176 C 0.7453 0.57279 0.95035 0.0
C177 C 0.72864 0.5546 0.97439 0.0
C178 C 0.74395 0.53637 0.98765 0.0
C179 C 0.78894 0.51299 0.99029 0.0
H180 H 0.73176 0.52356 1.00665 0.0
C181 C 0.82671 0.52158 0.98849 0.0
C182 C 0.83871 0.49962 1.00085 0.0
C183 C 0.76378 0.48207 1.0047 0.0
H184 H 0.73446 0.47338 1.00579 0.0
C185 C 0.77569 0.4612 0.01765 0.0
H186 H 0.84661 0.54493 0.97733 0.0
C187 C 0.81265 0.46987 0.0159 0.0
H188 H 0.82068 0.45291 0.02635 0.0
H189 H 0.75599 0.43782 0.02892 0.0
H190 H 0.47146 0.25395 0.93606 0.0
C191 C 0.47125 0.23183 0.94642 0.0
C192 C 0.44996 0.19725 0.93641 0.0
C193 C 0.49395 0.23837 0.9687 0.0
H194 H 0.43624 0.14272 0.94036 0.0
C195 C 0.45171 0.169 0.94889 0.0
C196 C 0.47339 0.1746 0.97188 0.0
C197 C 0.49397 0.20958 0.98176 0.0
C198 C 0.52022 0.27557 0.97676 0.0
H199 H 0.51038 0.21486 0.99961 0.0
C200 C 0.50895 0.30128 0.97847 0.0
C201 C 0.53503 0.33698 0.98401 0.0
C202 C 0.55765 0.28601 0.98123 0.0
H203 H 0.56721 0.26696 0.97971 0.0
C204 C 0.58343 0.32139 0.98683 0.0
H205 H 0.48018 0.29366 0.97529 0.0
C206 C 0.5723 0.34682 0.98805 0.0
H207 H 0.59271 0.37416 0.9925 0.0
H208 H 0.61221 0.32918 0.99004 0.0
H209 H 0.77575 0.20543 0.93303 0.0
C210 C 0.79736 0.22839 0.94323 0.0
C211 C 0.83361 0.24601 0.93258 0.0
C212 C 0.78814 0.24228 0.9654 0.0
H213 H 0.88837 0.29118 0.93564 0.0
C214 C 0.86096 0.27725 0.94475 0.0
C215 C 0.85294 0.29096 0.96781 0.0
C216 C 0.81621 0.27281 0.97804 0.0
C217 C 0.74849 0.22943 0.97197 0.0
H218 H 0.80875 0.28275 0.99546 0.0
C219 C 0.72262 0.19315 0.97743 0.0
C220 C 0.68451 0.18184 0.98162 0.0
C221 C 0.73604 0.2541 0.97069 0.0
H222 H 0.75522 0.28193 0.96618 0.0
C223 C 0.69862 0.24306 0.97396 0.0
H224 H 0.73234 0.17423 0.97881 0.0
C225 C 0.67307 0.20737 0.97899 0.0
H226 H 0.64409 0.19992 0.98052 0.0
H227 H 0.68925 0.26221 0.97223 0.0
H228 H 0.5762 0.80368 0.11155 0.0
C229 C 0.57491 0.78136 0.10088 0.0
C230 C 0.59888 0.76871 0.10782 0.0
C231 C 0.5471 0.76327 0.08192 0.0
H232 H 0.61599 0.73056 0.09961 0.0
C233 C 0.59642 0.73918 0.09455 0.0
C234 C 0.56868 0.72043 0.07559 0.0
C235 C 0.54404 0.73281 0.06947 0.0
C236 C 0.51847 0.77349 0.07745 0.0
H237 H 0.52156 0.71819 0.05568 0.0
C238 C 0.52818 0.80857 0.07002 0.0
C239 C 0.50024 0.81714 0.06502 0.0
C240 C 0.48082 0.74761 0.08072 0.0
H241 H 0.47276 0.72064 0.08676 0.0
C242 C 0.45323 0.75632 0.07656 0.0
H243 H 0.55713 0.82858 0.06708 0.0
C244 C 0.46278 0.79074 0.06866 0.0
H245 H 0.44078 0.79674 0.06522 0.0
H246 H 0.42431 0.73624 0.07924 0.0
H247 H 0.22819 0.76699 0.09932 0.0
C248 C 0.25081 0.79028 0.08969 0.0
C249 C 0.26339 0.82395 0.10103 0.0
C250 C 0.26863 0.78619 0.06705 0.0
H251 H 0.30396 0.87971 0.09829 0.0
C252 C 0.29393 0.85387 0.08926 0.0
C253 C 0.31194 0.8507 0.0663 0.0
C254 C 0.29895 0.81667 0.05532 0.0
C255 C 0.25741 0.74984 0.05702 0.0
H256 H 0.31242 0.81388 0.03759 0.0
C257 C 0.21964 0.72285 0.05587 0.0
C258 C 0.20993 0.68811 0.04803 0.0
C259 C 0.28492 0.74144 0.04978 0.0
H260 H 0.31411 0.76123 0.05087 0.0
C261 C 0.27518 0.70708 0.04183 0.0
H262 H 0.19793 0.72871 0.06111 0.0
C263 C 0.23796 0.68051 0.04106 0.0
H264 H 0.23096 0.65397 0.03485 0.0
H265 H 0.29663 0.70094 0.03644 0.0
H266 H 0.26382 0.45978 0.0962 0.0
C267 C 0.24025 0.46012 0.08752 0.0
C268 C 0.20492 0.44006 0.09985 0.0
C269 C 0.24498 0.48046 0.06406 0.0
H270 H 0.1479 0.42786 0.09921 0.0
C271 C 0.17465 0.44166 0.08906 0.0
C272 C 0.17836 0.46119 0.06568 0.0
C273 C 0.21333 0.47985 0.05309 0.0
C274 C 0.28255 0.5033 0.05107 0.0
H275 H 0.21552 0.49359 0.03444 0.0
C276 C 0.31126 0.49451 0.05161 0.0
C277 C 0.34589 0.51655 0.03845 0.0
C278 C 0.28979 0.53489 0.03769 0.0
H279 H 0.2698 0.54393 0.03782 0.0
C280 C 0.323 0.55568 0.02389 0.0
H281 H 0.30684 0.47088 0.06222 0.0
C282 C 0.3505 0.54643 0.02391 0.0
H283 H 0.37568 0.56311 0.01252 0.0
H284 H 0.32756 0.57932 0.01319 0.0
H285 H 0.48432 0.88422 0.27305 0.0
C286 C 0.46095 0.88464 0.28247 0.0
C287 C 0.44735 0.90559 0.27119 0.0
C288 C 0.4429 0.86201 0.30446 0.0
H289 H 0.40524 0.92049 0.27402 0.0
C290 C 0.41586 0.90452 0.28281 0.0
C291 C 0.39751 0.88266 0.30524 0.0
C292 C 0.41119 0.86124 0.31578 0.0
C293 C 0.45404 0.83561 0.31279 0.0
H294 H 0.39709 0.84378 0.33271 0.0
C295 C 0.49171 0.84531 0.31675 0.0
C296 C 0.50202 0.81899 0.32131 0.0
C297 C 0.42666 0.79953 0.31415 0.0
H298 H 0.39773 0.79124 0.31089 0.0
C299 C 0.43635 0.77351 0.31815 0.0
H300 H 0.5125 0.87327 0.31632 0.0
C301 C 0.47341 0.78292 0.32114 0.0
H302 H 0.47915 0.7613 0.32276 0.0
H303 H 0.41502 0.74568 0.31827 0.0
H304 H 0.1344 0.58155 0.26556 0.0
C305 C 0.1349 0.55944 0.27536 0.0
C306 C 0.1131 0.52482 0.2655 0.0
C307 C 0.15901 0.56601 0.29672 0.0
H308 H 0.10022 0.47043 0.26861 0.0
C309 C 0.11599 0.49669 0.27712 0.0
C310 C 0.13924 0.50245 0.29919 0.0
C311 C 0.15988 0.53735 0.30913 0.0
C312 C 0.18592 0.60306 0.30453 0.0
H313 H 0.1772 0.5428 0.32649 0.0
C314 C 0.17477 0.62855 0.30824 0.0
C315 C 0.20118 0.6639 0.31432 0.0
C316 C 0.22364 0.61339 0.30726 0.0
H317 H 0.23305 0.59442 0.30421 0.0
C318 C 0.24979 0.6485 0.31328 0.0
H319 H 0.14579 0.62099 0.30643 0.0
C320 C 0.23869 0.67372 0.31669 0.0
H321 H 0.25931 0.70087 0.32147 0.0
H322 H 0.27876 0.65622 0.3152 0.0
H323 H 0.43897 0.53959 0.27582 0.0
C324 C 0.4625 0.56212 0.28489 0.0
C325 C 0.49717 0.57803 0.27157 0.0
C326 C 0.45787 0.57633 0.309 0.0
H327 H 0.55417 0.62018 0.27243 0.0
C328 C 0.52741 0.60834 0.28255 0.0
C329 C 0.52363 0.62309 0.30653 0.0
C330 C 0.48899 0.60635 0.31982 0.0
C331 C 0.42046 0.56171 0.32222 0.0
H332 H 0.48602 0.61744 0.3384 0.0
C333 C 0.3933 0.52505 0.3214 0.0
C334 C 0.35811 0.51229 0.33376 0.0
C335 C 0.41144 0.58508 0.33553 0.0
H336 H 0.43048 0.61351 0.33571 0.0
C337 C 0.3774 0.57237 0.34857 0.0
H338 H 0.39924 0.50661 0.31094 0.0
C339 C 0.35106 0.53637 0.34787 0.0
H340 H 0.32485 0.52746 0.35823 0.0
H341 H 0.3712 0.59066 0.35901 0.0
Tb342 Tb 0.49361 0.99099 0.98583 0.0
C343 C 0.56675 0.09929 0.07593 0.0
C344 C 0.63124 0.11522 0.07215 0.0
C345 C 0.61501 0.15795 0.0897 0.0
C346 C 0.59321 0.09058 0.06875 0.0
C347 C 0.57715 0.13276 0.08705 0.0
C348 C 0.64203 0.1492 0.08223 0.0
C349 C 0.51206 0.11272 0.09407 0.0
N350 N 0.53062 0.07415 0.07313 0.0
C351 C 0.50322 0.07983 0.08307 0.0
C352 C 0.5492 0.1395 0.09578 0.0
Tb353 Tb 0.51851 0.02126 0.05436 0.0
N354 N 0.58152 0.0575 0.05905 0.0
C355 C 0.6067 0.04665 0.0539 0.0
C356 C 0.65715 0.10477 0.06566 0.0
C357 C 0.64477 0.07019 0.05677 0.0
H358 H 0.47442 0.05927 0.08174 0.0
H359 H 0.66455 0.06164 0.05206 0.0
H360 H 0.67112 0.16863 0.08477 0.0
H361 H 0.49023 0.11738 0.10127 0.0
H362 H 0.59789 0.02016 0.04687 0.0
H363 H 0.34552 0.94089 0.98296 0.0
H364 H 0.68664 0.12293 0.06787 0.0
H365 H 0.54397 0.95827 0.96019 0.0
H366 H 0.41103 0.98644 0.98844 0.0
H367 H 0.53337 0.9012 0.94169 0.0
H368 H 0.62363 0.18397 0.09799 0.0
H369 H 0.32856 0.87943 0.97061 0.0
H370 H 0.34942 0.83636 0.95679 0.0
H371 H 0.55601 0.1649 0.10443 0.0
H372 H 0.40066 0.82562 0.94509 0.0
N373 N 0.43161 0.95116 0.98019 0.0
C374 C 0.40436 0.95987 0.98302 0.0
C375 C 0.35751 0.89934 0.97309 0.0
C376 C 0.38561 0.89114 0.9685 0.0
C377 C 0.36699 0.93403 0.97995 0.0
C378 C 0.4228 0.91801 0.97217 0.0
H379 H 0.46946 0.84994 0.93881 0.0
N380 N 0.4867 0.93919 0.96841 0.0
C381 C 0.51007 0.90378 0.94855 0.0
C382 C 0.45139 0.91183 0.96582 0.0
C383 C 0.51598 0.93609 0.95899 0.0
C384 C 0.47395 0.87488 0.947 0.0
C385 C 0.44398 0.87883 0.95532 0.0
O386 O 0.52489 0.01138 0.9502 0.0
O387 O 0.53392 0.02955 0.01256 0.0
O388 O 0.51043 0.06127 0.03335 0.0
O389 O 0.47519 0.02924 0.99652 0.0
O390 O 0.55437 0.0152 0.98127 0.0
O391 O 0.47266 0.00961 0.95526 0.0
O392 O 0.48839 1.00426 0.09083 0.0
O393 O 0.4774 0.98366 0.02759 0.0
O394 O 0.49668 0.94912 1.00773 0.0
O395 O 0.53297 0.97968 0.04431 0.0
O396 O 0.45863 1.00042 0.05881 0.0
O397 O 0.53515 0.99699 0.08341 0.0
C398 C 0.56404 0.03661 1.00116 0.0
C399 C 0.49034 1.00327 0.91115 0.0
C400 C 0.49589 0.01367 0.86252 0.0
C401 C 0.50375 0.02687 0.88898 0.0
C402 C 0.47543 0.9765 0.85892 0.0
C403 C 0.46869 0.96664 0.90668 0.0
C404 C 0.46167 0.95334 0.88081 0.0
C405 C 0.48912 0.05729 0.01254 0.0
C406 C 0.50006 0.01672 0.93878 0.0
C407 C 0.40699 0.85135 0.95281 0.0
C408 C 0.37783 0.85747 0.95948 0.0
C409 C 0.44805 0.97934 0.03871 0.0
C410 C 0.5233 0.00567 0.12835 0.0
C411 C 0.50503 0.98296 0.15039 0.0
C412 C 0.51787 0.99376 0.17669 0.0
C413 C 0.54879 0.02786 0.18048 0.0
C414 C 0.55432 0.03928 0.13279 0.0
C415 C 0.5668 0.05035 0.15868 0.0
C416 C 0.51682 0.95122 0.02872 0.0
C417 C 0.51021 0.99388 0.10088 0.0
H418 H 0.5197 0.05528 0.89241 0.0
H419 H 0.46991 0.9651 0.83911 0.0
H420 H 0.45731 0.94819 0.92312 0.0
H421 H 0.44548 0.92489 0.8777 0.0
H422 H 0.4814 0.95674 0.14698 0.0
H423 H 0.55896 0.03733 0.20038 0.0
H424 H 0.5691 0.05692 0.11629 0.0
H425 H 0.59065 0.07646 0.16187 0.0
Tb426 Tb 0.0386 0.50165 0.98498 0.0
C427 C 0.91481 0.45244 0.06862 0.0
C428 C 0.89866 0.4988 0.06875 0.0
C429 C 0.85174 0.43788 0.07985 0.0
C430 C 0.92473 0.4875 0.0644 0.0
C431 C 0.87844 0.42727 0.07694 0.0
C432 C 0.8619 0.47366 0.07588 0.0
C433 C 0.89881 0.38424 0.0819 0.0
N434 N 0.94166 0.44358 0.06632 0.0
C435 C 0.93462 0.41037 0.07398 0.0
C436 C 0.87044 0.39259 0.08306 0.0
Tb437 Tb 0.99913 0.48763 0.05211 0.0
N438 N 0.96065 0.51095 0.05793 0.0
C439 C 0.97281 0.54669 0.05714 0.0
C440 C 0.91068 0.53515 0.06683 0.0
C441 C 0.94806 0.55925 0.06145 0.0
H442 H 0.9564 0.4037 0.07303 0.0
H443 H 0.9578 0.58751 0.06034 0.0
H444 H 0.84136 0.48174 0.07899 0.0
H445 H 0.89314 0.35774 0.08718 0.0
H446 H 1.00143 0.56585 0.05274 0.0
H447 H 0.09689 0.41451 0.98217 0.0
H448 H 0.89155 0.54494 0.07004 0.0
H449 H 0.07119 0.58184 0.95793 0.0
H450 H 0.04682 0.42889 0.98572 0.0
H451 H 0.13173 0.63161 0.94247 0.0
H452 H 0.82353 0.41889 0.08598 0.0
H453 H 0.16171 0.46243 0.97405 0.0
H454 H 0.20622 0.52713 0.96356 0.0
H455 H 0.84281 0.37242 0.08946 0.0
H456 H 0.21582 0.58666 0.95262 0.0
N457 N 0.08277 0.48484 0.98055 0.0
C458 C 0.07483 0.45019 0.98206 0.0
C459 C 0.13979 0.46897 0.97562 0.0
C460 C 0.14735 0.50399 0.97207 0.0
C461 C 0.10323 0.44185 0.98009 0.0
C462 C 0.1178 0.51101 0.97447 0.0
H463 H 0.18794 0.62577 0.9441 0.0
N464 N 0.09323 0.54873 0.96915 0.0
C465 C 0.1298 0.60727 0.94995 0.0
C466 C 0.12328 0.54429 0.9685 0.0
C467 C 0.09554 0.579 0.95864 0.0
C468 C 0.16149 0.60393 0.95099 0.0
C469 C 0.15832 0.57181 0.95975 0.0
O470 O 1.01842 0.51131 0.94934 0.0
O471 O 0.996 0.49916 0.01093 0.0
O472 O 0.95946 0.44404 0.02714 0.0
O473 O 0.99898 0.44455 0.99345 0.0
O474 O 1.01121 0.53397 0.98022 0.0
O475 O 0.02399 0.46485 0.9536 0.0
O476 O 1.01176 0.47043 0.08794 0.0
O477 O 0.04293 0.49051 0.02673 0.0
O478 O 0.07718 0.54832 1.00732 0.0
O479 O 0.04306 0.54413 0.0462 0.0
O480 O 0.02062 0.45089 0.05493 0.0
O481 O 0.02024 0.52356 0.08399 0.0
C482 C 0.98868 0.52126 1.00031 0.0
C483 C 0.0321 0.49001 0.91025 0.0
C484 C 0.02314 0.48686 0.86195 0.0
C485 C 1.00844 0.47931 0.88817 0.0
C486 C 0.06183 0.5054 0.85806 0.0
C487 C 0.07065 0.50771 0.90597 0.0
C488 C 0.08541 0.51553 0.88001 0.0
C489 C 0.96709 0.42863 1.00715 0.0
C490 C 1.01606 0.48367 0.93744 0.0
C491 C 0.1885 0.56574 0.95894 0.0
C492 C 0.18303 0.53185 0.96514 0.0
C493 C 0.04611 0.46539 0.03681 0.0
C494 C 1.00664 0.49769 0.1272 0.0
C495 C 0.02955 0.50252 0.14909 0.0
C496 C 1.01653 0.50091 0.17545 0.0
C497 C 0.98002 0.4941 0.17954 0.0
C498 C 0.97036 0.49098 0.13168 0.0
C499 C 0.95714 0.48912 0.15775 0.0
C500 C 0.07189 0.56161 0.02958 0.0
C501 C 0.02146 0.50035 0.09997 0.0
H502 H 0.9786 0.46547 0.89139 0.0
H503 H 0.07378 0.51128 0.83805 0.0
H504 H 0.08935 0.51553 0.92256 0.0
H505 H 0.1152 0.52935 0.87689 0.0
H506 H 0.05778 0.50822 0.14553 0.0
H507 H 0.96905 0.49233 0.19958 0.0
H508 H 0.95239 0.48741 0.11512 0.0
H509 H 0.92908 0.48387 0.16109 0.0
Tb510 Tb 0.54209 0.51357 0.05245 0.0
C511 C 0.47834 0.56794 0.96683 0.0
C512 C 0.41326 0.52325 0.9673 0.0
C513 C 0.43227 0.58441 0.95515 0.0
C514 C 0.45073 0.5334 0.97154 0.0
C515 C 0.46966 0.59369 0.95773 0.0
C516 C 0.40407 0.54919 0.95994 0.0
C517 C 0.53538 0.63427 0.95133 0.0
N518 N 0.51396 0.5755 0.96912 0.0
C519 C 0.54249 0.60774 0.96051 0.0
C520 C 0.49882 0.62744 0.95041 0.0
Tb521 Tb 0.52325 0.53083 0.98476 0.0
N522 N 0.46098 0.50919 0.97812 0.0
C523 C 0.43507 0.47367 0.97866 0.0
C524 C 0.38643 0.48718 0.9694 0.0
C525 C 0.39751 0.46221 0.97453 0.0
H526 H 0.57086 0.61337 0.96146 0.0
H527 H 0.37708 0.43413 0.97561 0.0
H528 H 0.37539 0.54203 0.95698 0.0
H529 H 0.55809 0.66 0.94513 0.0
H530 H 0.44285 0.45391 0.98293 0.0
H531 H 0.69034 0.60229 0.06034 0.0
H532 H 0.35732 0.47824 0.9663 0.0
H533 H 0.48952 0.43119 0.07548 0.0
H534 H 0.62542 0.58713 0.05457 0.0
H535 H 0.49789 0.38124 0.09038 0.0
H536 H 0.42495 0.60392 0.94854 0.0
H537 H 0.70547 0.55476 0.069 0.0
H538 H 0.68272 0.48989 0.07837 0.0
H539 H 0.49335 0.64798 0.94324 0.0
H540 H 0.6301 0.4294 0.08665 0.0
N541 N 0.60347 0.53115 0.05902 0.0
C542 C 0.63133 0.56597 0.05841 0.0
C543 C 0.6768 0.54788 0.06645 0.0
C544 C 0.648 0.51257 0.0689 0.0
C545 C 0.66835 0.57477 0.06166 0.0
C546 C 0.61122 0.50509 0.06524 0.0
H547 H 0.56089 0.38869 0.09167 0.0
N548 N 0.54707 0.46609 0.06752 0.0
C549 C 0.52176 0.40636 0.08444 0.0
C550 C 0.5819 0.47125 0.0697 0.0
C551 C 0.51712 0.43472 0.07606 0.0
C552 C 0.55736 0.41063 0.08505 0.0
C553 C 0.58809 0.44365 0.07818 0.0
O554 O 0.50844 0.50121 0.08706 0.0
O555 O 0.50447 0.51782 0.02556 0.0
O556 O 0.52898 0.57504 1.00934 0.0
O557 O 0.56167 0.57064 0.04565 0.0
O558 O 0.48092 0.48026 0.05453 0.0
O559 O 0.56219 0.54839 0.08523 0.0
O560 O 0.55602 0.54709 0.94945 0.0
O561 O 0.56182 0.52706 0.0114 0.0
O562 O 0.53586 0.46918 0.02872 0.0
O563 O 0.50697 0.47405 0.99014 0.0
O564 O 0.58324 0.56736 0.98385 0.0
O565 O 0.50807 0.49473 0.95301 0.0
C566 C 0.47334 0.49482 0.03498 0.0
C567 C 0.53999 0.52141 0.12779 0.0
C568 C 0.53157 0.52464 0.17602 0.0
C569 C 0.52689 0.53282 0.14951 0.0
C570 C 0.54961 0.505 0.18044 0.0
C571 C 0.55845 0.5024 0.13276 0.0
C572 C 0.56309 0.49415 0.15893 0.0
C573 C 0.54865 0.58792 0.03144 0.0
C574 C 0.53315 0.52856 0.10017 0.0
C575 C 0.62468 0.45035 0.08047 0.0
C576 C 0.65463 0.48479 0.07578 0.0
C577 C 0.59209 0.55239 1.00234 0.0
C578 C 0.52389 0.52031 0.90974 0.0
C579 C 0.54212 0.51498 0.88792 0.0
C580 C 0.53119 0.51615 0.86146 0.0
C581 C 0.50209 0.52325 0.85725 0.0
C582 C 0.49494 0.52729 0.90502 0.0
C583 C 0.48423 0.52887 0.8789 0.0
C584 C 0.51775 0.45652 1.00621 0.0
C585 C 0.53459 0.51739 0.93725 0.0
H586 H 0.51268 0.54762 0.14576 0.0
H587 H 0.554 0.49868 0.20059 0.0
H588 H 0.56923 0.49386 0.11651 0.0
H589 H 0.57731 0.47938 0.16256 0.0
H590 H 0.56421 0.50915 0.89157 0.0
H591 H 0.49334 0.52477 0.83717 0.0
H592 H 0.48038 0.53118 0.92146 0.0
H593 H 0.46188 0.53432 0.87543 0.0
Tb594 Tb 0.16647 0.32116 0.31623 0.0
C595 C 0.23261 0.43473 0.40195 0.0
C596 C 0.29727 0.45103 0.40296 0.0
C597 C 0.27936 0.4952 0.4132 0.0
C598 C 0.25976 0.42583 0.39821 0.0
C599 C 0.24186 0.46926 0.41005 0.0
C600 C 0.30705 0.48605 0.40975 0.0
C601 C 0.17624 0.44871 0.41412 0.0
N602 N 0.19681 0.40869 0.39927 0.0
C603 C 0.16854 0.41473 0.40635 0.0
C604 C 0.21308 0.47624 0.41564 0.0
Tb605 Tb 0.18675 0.35453 0.3846 0.0
N606 N 0.249 0.39165 0.39189 0.0
C607 C 0.27436 0.38031 0.39192 0.0
C608 C 0.32352 0.4399 0.40183 0.0
C609 C 0.31188 0.40421 0.39681 0.0
H610 H 0.13998 0.39363 0.40501 0.0
H611 H 0.33186 0.39514 0.39636 0.0
H612 H 0.33579 0.50595 0.41308 0.0
H613 H 0.15377 0.45361 0.41896 0.0
H614 H 0.26619 0.35301 0.38777 0.0
H615 H 1.01784 0.26655 0.3102 0.0
H616 H 0.35261 0.45838 0.40543 0.0
H617 H 0.21894 0.29107 0.29031 0.0
H618 H 0.08269 0.31395 0.31539 0.0
H619 H 0.21093 0.23403 0.27377 0.0
H620 H 0.28714 0.52203 0.41913 0.0
H621 H 1.0031 0.20486 0.30089 0.0
H622 H 0.02631 0.16258 0.29008 0.0
H623 H 0.21899 0.50246 0.42187 0.0
H624 H 0.07919 0.15364 0.27996 0.0
N625 N 0.10507 0.27954 0.31004 0.0
C626 C 0.07699 0.2873 0.31127 0.0
C627 C 0.03176 0.2256 0.30323 0.0
C628 C 0.06076 0.21834 0.30002 0.0
C629 C 0.03998 0.26041 0.30836 0.0
C630 C 0.0975 0.24631 0.30341 0.0
H631 H 0.14834 0.18045 0.27319 0.0
N632 N 0.16161 0.26969 0.29978 0.0
C633 C 0.18707 0.2356 0.28072 0.0
C634 C 0.12693 0.24117 0.29795 0.0
C635 C 0.1915 0.26789 0.29004 0.0
C636 C 0.15171 0.20537 0.28052 0.0
C637 C 0.12095 0.2081 0.28866 0.0
O638 O 0.19988 0.34346 0.2817 0.0
O639 O 0.20462 0.3595 0.34374 0.0
O640 O 0.18298 0.39403 0.35966 0.0
O641 O 0.14596 0.35842 0.32495 0.0
O642 O 0.22765 0.3467 0.31339 0.0
O643 O 0.14602 0.33847 0.28444 0.0
O644 O 0.15493 0.34059 0.42034 0.0
O645 O 0.14787 0.31497 0.35762 0.0
O646 O 0.17399 0.28232 0.33888 0.0
O647 O 0.20272 0.31354 0.37798 0.0
O648 O 0.12675 0.33347 0.38618 0.0
O649 O 0.20042 0.33062 0.4158 0.0
C650 C 0.23564 0.36691 0.33392 0.0
C651 C 0.16794 0.3348 0.24125 0.0
C652 C 0.17308 0.34692 0.19288 0.0
C653 C 0.17902 0.35918 0.21958 0.0
C654 C 0.15694 0.31006 0.18846 0.0
C655 C 0.15087 0.29827 0.23605 0.0
C656 C 0.14577 0.28605 0.20985 0.0
C657 C 0.16052 0.38802 0.33927 0.0
C658 C 0.17498 0.34752 0.26915 0.0
C659 C 0.08445 0.17945 0.28673 0.0
C660 C 0.05435 0.18454 0.29247 0.0
C661 C 0.11776 0.31082 0.36719 0.0
C662 C 0.18653 0.3409 0.45961 0.0
C663 C 0.17022 0.31667 0.48115 0.0
C664 C 0.18193 0.32731 0.50767 0.0
C665 C 0.21003 0.36268 0.51212 0.0
C666 C 0.21446 0.37592 0.46466 0.0
C667 C 0.22606 0.3867 0.49078 0.0
C668 C 0.19198 0.28626 0.36146 0.0
C669 C 0.17488 0.32906 0.43196 0.0
H670 H 0.19153 0.3874 0.22355 0.0
H671 H 0.15282 0.29964 0.16835 0.0
H672 H 0.14159 0.2791 0.25217 0.0
H673 H 0.13301 0.25778 0.20611 0.0
H674 H 0.14888 0.28949 0.47719 0.0
H675 H 0.21927 0.37202 0.5322 0.0
H676 H 0.22741 0.39487 0.44846 0.0
H677 H 0.24757 0.41384 0.49451 0.0
Tb678 Tb 0.70885 0.83473 0.32223 0.0
C679 C 0.58585 0.78622 0.40815 0.0
C680 C 0.56753 0.8308 0.40367 0.0
C681 C 0.5229 0.77149 0.42001 0.0
C682 C 0.59439 0.82017 0.4011 0.0
C683 C 0.55035 0.76167 0.41842 0.0
C684 C 0.53147 0.80602 0.41259 0.0
C685 C 0.57309 0.7212 0.42733 0.0
N686 N 0.61324 0.77805 0.40652 0.0
C687 C 0.60789 0.74663 0.4171 0.0
C688 C 0.54398 0.72854 0.42762 0.0
Tb689 Tb 0.66945 0.82091 0.38942 0.0
N690 N 0.62956 0.84317 0.39266 0.0
C691 C 0.64031 0.87822 0.38818 0.0
C692 C 0.57793 0.86612 0.39768 0.0
C693 C 0.61462 0.89003 0.39023 0.0
H694 H 0.63025 0.74072 0.41684 0.0
H695 H 0.62315 0.91758 0.38596 0.0
H696 H 0.51032 0.81354 0.41442 0.0
H697 H 0.56876 0.696 0.43498 0.0
H698 H 0.66835 0.89721 0.38215 0.0
H699 H 0.7684 0.74865 0.31886 0.0
H700 H 0.55811 0.87534 0.39926 0.0
H701 H 0.74103 0.91574 0.29671 0.0
H702 H 0.71789 0.76233 0.32291 0.0
H703 H 0.80155 0.96612 0.28173 0.0
H704 H 0.49531 0.7529 0.42756 0.0
H705 H 0.83294 0.79706 0.31061 0.0
H706 H 0.87693 0.86193 0.30054 0.0
H707 H 0.5171 0.70891 0.43567 0.0
H708 H 0.88608 0.92148 0.29042 0.0
N709 N 0.75331 0.81839 0.31776 0.0
C710 C 0.74577 0.78386 0.31918 0.0
C711 C 0.81083 0.8033 0.31236 0.0
C712 C 0.818 0.83825 0.30908 0.0
C713 C 0.77442 0.77591 0.31692 0.0
C714 C 0.78822 0.8449 0.3117 0.0
H715 H 0.85791 0.9605 0.28283 0.0
N716 N 0.76334 0.8826 0.30717 0.0
C717 C 0.79971 0.94164 0.28876 0.0
C718 C 0.79347 0.87828 0.30617 0.0
C719 C 0.76549 0.91306 0.29716 0.0
C720 C 0.83149 0.9384 0.2895 0.0
C721 C 0.82847 0.90613 0.29768 0.0
O722 O 0.68986 0.84535 0.28642 0.0
O723 O 0.66399 0.82902 0.34758 0.0
O724 O 0.63282 0.7723 0.36722 0.0
O725 O 0.66986 0.77765 0.32974 0.0
O726 O 0.67937 0.86491 0.31728 0.0
O727 O 0.69642 0.7993 0.29014 0.0
O728 O 0.68376 0.80748 0.42633 0.0
O729 O 0.71354 0.82435 0.36406 0.0
O730 O 0.74712 0.88107 0.34483 0.0
O731 O 0.71222 0.87758 0.38289 0.0
O732 O 0.69334 0.78629 0.39356 0.0
O733 O 0.69059 0.8595 0.41951 0.0
C734 C 0.65526 0.84978 0.33625 0.0
C735 C 0.70462 0.82541 0.24707 0.0
C736 C 0.69553 0.82257 0.1988 0.0
C737 C 0.68093 0.81431 0.22502 0.0
C738 C 0.73418 0.84228 0.19486 0.0
C739 C 0.74317 0.84432 0.24276 0.0
C740 C 0.75784 0.85287 0.21678 0.0
C741 C 0.64 0.75939 0.34529 0.0
C742 C 0.68835 0.81824 0.2742 0.0
C743 C 0.8588 0.90031 0.29656 0.0
C744 C 0.85358 0.8664 0.3023 0.0
C745 C 0.71788 0.80019 0.37473 0.0
C746 C 0.67702 0.837 0.46373 0.0
C747 C 0.69841 0.84075 0.48634 0.0
C748 C 0.68491 0.84126 0.51221 0.0
C749 C 0.64943 0.83745 0.5151 0.0
C750 C 0.64182 0.8335 0.46707 0.0
C751 C 0.62805 0.83351 0.49263 0.0
C752 C 0.74133 0.89481 0.36656 0.0
C753 C 0.69246 0.83801 0.4369 0.0
H754 H 0.6511 0.79958 0.22827 0.0
H755 H 0.74605 0.84875 0.17484 0.0
H756 H 0.76193 0.85258 0.25933 0.0
H757 H 0.78762 0.86763 0.21364 0.0
H758 H 0.72592 0.84416 0.48372 0.0
H759 H 0.63815 0.83734 0.53475 0.0
H760 H 0.62516 0.8312 0.45 0.0
H761 H 0.60081 0.83071 0.49502 0.0
Tb762 Tb 0.21346 0.84275 0.38653 0.0
C763 C 0.14356 0.89287 0.30371 0.0
C764 C 0.07884 0.84713 0.30424 0.0
C765 C 0.09625 0.90843 0.29394 0.0
C766 C 0.11658 0.85791 0.30794 0.0
C767 C 0.1339 0.91849 0.2961 0.0
C768 C 0.06874 0.87274 0.29792 0.0
C769 C 0.19932 0.96095 0.2906 0.0
N770 N 0.17951 0.90125 0.30549 0.0
C771 C 0.20743 0.93443 0.29793 0.0
C772 C 0.16239 0.95309 0.29002 0.0
Tb773 Tb 0.19022 0.85669 0.31927 0.0
N774 N 0.12763 0.83405 0.31372 0.0
C775 C 0.10224 0.79839 0.31423 0.0
C776 C 0.05262 0.81084 0.30592 0.0
C777 C 0.06448 0.78632 0.31042 0.0
H778 H 0.23605 0.94075 0.29854 0.0
H779 H 0.0445 0.7581 0.3113 0.0
H780 H 0.03984 0.86506 0.29537 0.0
H781 H 0.22153 0.98742 0.28538 0.0
H782 H 0.11061 0.77895 0.318 0.0
H783 H 0.36232 0.93077 0.38978 0.0
H784 H 0.02335 0.80143 0.30315 0.0
H785 H 0.16199 0.76237 0.41317 0.0
H786 H 0.29726 0.91589 0.38575 0.0
H787 H 0.17066 0.7131 0.42932 0.0
H788 H 0.08817 0.92777 0.2884 0.0
H789 H 0.37742 0.88327 0.39862 0.0
H790 H 0.35466 0.81879 0.40965 0.0
H791 H 0.15616 0.9736 0.28414 0.0
H792 H 0.30218 0.75915 0.42062 0.0
N793 N 0.27511 0.86003 0.39132 0.0
C794 C 0.30314 0.89473 0.38969 0.0
C795 C 0.34868 0.8765 0.39681 0.0
C796 C 0.31981 0.84142 0.40044 0.0
C797 C 0.34025 0.90338 0.39193 0.0
C798 C 0.28294 0.83409 0.39773 0.0
H799 H 0.2333 0.71963 0.42864 0.0
N800 N 0.21896 0.796 0.40264 0.0
C801 C 0.19425 0.73754 0.42197 0.0
C802 C 0.25371 0.80075 0.40371 0.0
C803 C 0.18945 0.76554 0.41287 0.0
C804 C 0.22963 0.74127 0.42146 0.0
C805 C 0.26007 0.77349 0.41279 0.0
O806 O 0.18218 0.83288 0.42211 0.0
O807 O 0.17375 0.84466 0.36044 0.0
O808 O 0.19444 0.89941 0.34448 0.0
O809 O 0.23342 0.8997 0.37784 0.0
O810 O 0.15233 0.80964 0.39098 0.0
O811 O 0.23569 0.87997 0.41775 0.0
O812 O 0.22068 0.87367 0.28301 0.0
O813 O 0.23051 0.85404 0.3448 0.0
O814 O 0.20504 0.79671 0.36379 0.0
O815 O 0.17482 0.80041 0.32546 0.0
O816 O 0.25028 0.89309 0.31629 0.0
O817 O 0.17423 0.82041 0.2876 0.0
C818 C 0.14316 0.82221 0.37097 0.0
C819 C 0.2167 0.85555 0.46137 0.0
C820 C 0.21053 0.8604 0.50965 0.0
C821 C 0.2041 0.86718 0.4832 0.0
C822 C 0.22973 0.84184 0.51395 0.0
C823 C 0.23648 0.83774 0.46614 0.0
C824 C 0.2428 0.83082 0.49228 0.0
C825 C 0.21773 0.91507 0.36435 0.0
C826 C 0.20781 0.86104 0.4339 0.0
C827 C 0.29665 0.77987 0.41401 0.0
C828 C 0.32652 0.81382 0.40778 0.0
C829 C 0.26023 0.87883 0.33463 0.0
C830 C 0.18686 0.84569 0.24417 0.0
C831 C 0.20452 0.84087 0.22176 0.0
C832 C 0.19229 0.84171 0.19567 0.0
C833 C 0.16233 0.84779 0.19244 0.0
C834 C 0.15707 0.8517 0.24044 0.0
C835 C 0.14496 0.85282 0.21469 0.0
C836 C 0.18611 0.78338 0.34161 0.0
C837 C 0.19938 0.84355 0.27122 0.0
H838 H 0.18888 0.88105 0.47961 0.0
H839 H 0.23531 0.83655 0.53407 0.0
H840 H 0.24696 0.8291 0.44976 0.0
H841 H 0.25797 0.81692 0.49576 0.0
H842 H 0.22729 0.83581 0.22468 0.0
H843 H 0.15257 0.84906 0.17267 0.0
H844 H 0.14301 0.8553 0.25736 0.0
H845 H 0.12197 0.85754 0.21197 0.0
Tb846 Tb 0.83654 0.66241 0.65483 0.0
C847 C 0.89638 0.77283 0.74546 0.0
C848 C 0.96197 0.79257 0.74439 0.0
C849 C 0.94079 0.83237 0.76041 0.0
C850 C 0.92481 0.76634 0.73968 0.0
C851 C 0.9038 0.80554 0.75657 0.0
C852 C 0.96987 0.82592 0.75426 0.0
C853 C 0.83764 0.78139 0.76153 0.0
N854 N 0.86119 0.74612 0.74163 0.0
C855 C 0.83178 0.74943 0.75043 0.0
C856 C 0.87382 0.80979 0.76426 0.0
Tb857 Tb 0.85386 0.69465 0.72329 0.0
N858 N 0.91584 0.73372 0.73033 0.0
C859 C 0.94291 0.72483 0.72703 0.0
C860 C 0.98989 0.78421 0.73958 0.0
C861 C 0.98025 0.75003 0.73117 0.0
H862 H 0.8037 0.7277 0.74824 0.0
H863 H 1.00157 0.74305 0.72783 0.0
H864 H 0.99825 0.84655 0.75781 0.0
H865 H 0.81424 0.78412 0.7679 0.0
H866 H 0.93625 0.69869 0.72042 0.0
H867 H 0.68848 0.60929 0.6456 0.0
H868 H 1.01881 0.80364 0.74284 0.0
H869 H 0.88948 0.63086 0.63218 0.0
H870 H 0.75328 0.65626 0.65199 0.0
H871 H 0.88125 0.5731 0.61707 0.0
H872 H 0.94715 0.85784 0.76868 0.0
H873 H 0.67347 0.54739 0.63688 0.0
H874 H 0.69632 0.50445 0.62779 0.0
H875 H 0.8783 0.83449 0.77292 0.0
H876 H 0.74901 0.49449 0.61995 0.0
N877 N 0.77529 0.62138 0.6477 0.0
C878 C 0.74743 0.6295 0.6481 0.0
C879 C 0.70209 0.56794 0.63969 0.0
C880 C 0.73092 0.56026 0.63754 0.0
C881 C 0.71048 0.60287 0.64451 0.0
C882 C 0.76763 0.58797 0.6415 0.0
H883 H 0.81826 0.52019 0.61538 0.0
N884 N 0.83184 0.61041 0.63982 0.0
C885 C 0.85732 0.57525 0.62291 0.0
C886 C 0.79701 0.58224 0.63733 0.0
C887 C 0.86189 0.60792 0.63139 0.0
C888 C 0.82173 0.5454 0.62207 0.0
C889 C 0.79092 0.54885 0.62878 0.0
O890 O 0.87067 0.68246 0.62039 0.0
O891 O 0.87301 0.70279 0.68222 0.0
O892 O 0.84511 0.73306 0.70041 0.0
O893 O 0.81662 0.70034 0.66187 0.0
O894 O 0.89753 0.68849 0.65354 0.0
O895 O 0.81719 0.67859 0.62172 0.0
O896 O 0.82077 0.67605 0.75845 0.0
O897 O 0.81632 0.6551 0.69571 0.0
O898 O 0.84226 0.62323 0.67837 0.0
O899 O 0.87222 0.65537 0.71659 0.0
O900 O 0.79367 0.67235 0.72401 0.0
O901 O 0.86955 0.6714 0.75373 0.0
C902 C 0.90438 0.71068 0.67264 0.0
C903 C 0.83975 0.673 0.57928 0.0
C904 C 0.84477 0.68374 0.53073 0.0
C905 C 0.85051 0.69673 0.55722 0.0
C906 C 0.82912 0.64683 0.52689 0.0
C907 C 0.82331 0.63637 0.57465 0.0
C908 C 0.81836 0.62344 0.54867 0.0
C909 C 0.82708 0.72839 0.67761 0.0
C910 C 0.84637 0.68656 0.60697 0.0
C911 C 0.75436 0.52053 0.62619 0.0
C912 C 0.72437 0.52621 0.63062 0.0
C913 C 0.78566 0.65028 0.70471 0.0
C914 C 0.85276 0.67751 0.79782 0.0
C915 C 0.83524 0.65276 0.81892 0.0
C916 C 0.84599 0.66262 0.8457 0.0
C917 C 0.87406 0.69774 0.85092 0.0
C918 C 0.88079 0.71221 0.80366 0.0
C919 C 0.89122 0.72227 0.83005 0.0
C920 C 0.86074 0.62749 0.70066 0.0
C921 C 0.84255 0.66654 0.76981 0.0
H922 H 0.8626 0.72503 0.56069 0.0
H923 H 0.8251 0.6359 0.50695 0.0
H924 H 0.81437 0.61766 0.59103 0.0
H925 H 0.80602 0.59511 0.54538 0.0
H926 H 0.81388 0.62577 0.81443 0.0
H927 H 0.88254 0.70642 0.87123 0.0
H928 H 0.89489 0.73147 0.78786 0.0
H929 H 0.91281 0.74919 0.83434 0.0
Tb930 Tb 0.37696 0.17446 0.65327 0.0
C931 C 0.25527 0.11973 0.73951 0.0
C932 C 0.23517 0.16324 0.73849 0.0
C933 C 0.19178 0.10222 0.75211 0.0
C934 C 0.2627 0.15382 0.73414 0.0
C935 C 0.22013 0.09375 0.74941 0.0
C936 C 0.19931 0.13698 0.74667 0.0
C937 C 0.2453 0.05486 0.75669 0.0
N938 N 0.28369 0.11303 0.73728 0.0
C939 C 0.27967 0.08159 0.74674 0.0
C940 C 0.21518 0.0607 0.75754 0.0
Tb941 Tb 0.33905 0.15818 0.72087 0.0
N942 N 0.29794 0.17846 0.727 0.0
C943 C 0.30814 0.21375 0.72588 0.0
C944 C 0.24498 0.199 0.73575 0.0
C945 C 0.28182 0.22445 0.72995 0.0
H946 H 0.30271 0.07672 0.74593 0.0
H947 H 0.28993 0.25232 0.72839 0.0
H948 H 0.17763 0.14357 0.74978 0.0
H949 H 0.24204 0.02974 0.76356 0.0
H950 H 0.33633 0.23385 0.72117 0.0
H951 H 0.43287 0.08568 0.64548 0.0
H952 H 0.22465 0.20735 0.73887 0.0
H953 H 0.41057 0.25636 0.62926 0.0
H954 H 0.38365 0.10087 0.65119 0.0
H955 H 0.47138 0.30625 0.6143 0.0
H956 H 0.16442 0.08253 0.75936 0.0
H957 H 0.49783 0.13322 0.63726 0.0
H958 H 0.54299 0.19811 0.62807 0.0
H959 H 0.18864 0.04004 0.76535 0.0
H960 H 0.55358 0.25852 0.61946 0.0
N961 N 0.42023 0.15688 0.64702 0.0
C962 C 0.41172 0.12204 0.64748 0.0
C963 C 0.47629 0.14013 0.63976 0.0
C964 C 0.48439 0.17546 0.6374 0.0
C965 C 0.43964 0.11322 0.64428 0.0
C966 C 0.45531 0.18294 0.64094 0.0
H967 H 0.52679 0.29902 0.61373 0.0
N968 N 0.43174 0.22179 0.63801 0.0
C969 C 0.46899 0.28127 0.62059 0.0
C970 C 0.46133 0.21672 0.63621 0.0
C971 C 0.43459 0.25295 0.62899 0.0
C972 C 0.50024 0.27713 0.62039 0.0
C973 C 0.49648 0.24427 0.62768 0.0
O974 O 0.35855 0.18689 0.6179 0.0
O975 O 0.33394 0.16989 0.67988 0.0
O976 O 0.29946 0.11263 0.69714 0.0
O977 O 0.33687 0.11726 0.66029 0.0
O978 O 0.34949 0.20678 0.65041 0.0
O979 O 0.36044 0.13832 0.62139 0.0
O980 O 0.35569 0.14377 0.75631 0.0
O981 O 0.38253 0.16239 0.69442 0.0
O982 O 0.41616 0.21975 0.67659 0.0
O983 O 0.38121 0.21527 0.71494 0.0
O984 O 0.36209 0.12257 0.72237 0.0
O985 O 0.35932 0.19486 0.75233 0.0
C986 C 0.32639 0.19227 0.67001 0.0
C987 C 0.36879 0.16374 0.57823 0.0
C988 C 0.35757 0.15523 0.53027 0.0
C989 C 0.34413 0.14932 0.55683 0.0
C990 C 0.39602 0.17562 0.5254 0.0
C991 C 0.40709 0.18354 0.573 0.0
C992 C 0.42059 0.18948 0.5467 0.0
C993 C 0.30598 0.09964 0.675 0.0
C994 C 0.35385 0.15849 0.60568 0.0
C995 C 0.52619 0.23761 0.62567 0.0
C996 C 0.52016 0.20322 0.63056 0.0
C997 C 0.38665 0.13745 0.70368 0.0
C998 C 0.3479 0.16944 0.79561 0.0
C999 C 0.37066 0.17449 0.81769 0.0
C1000 C 0.35705 0.17233 0.84396 0.0
C1001 C 0.32013 0.16443 0.84779 0.0
C1002 C 0.31128 0.16187 0.79991 0.0
C1003 C 0.29745 0.15917 0.82587 0.0
C1004 C 0.41052 0.23288 0.69878 0.0
C1005 C 0.36309 0.17312 0.76833 0.0
H1006 H 0.31449 0.13401 0.56081 0.0
H1007 H 0.40707 0.18033 0.50515 0.0
H1008 H 0.42656 0.1945 0.5891 0.0
H1009 H 0.4502 0.20488 0.54282 0.0
H1010 H 0.39917 0.18094 0.81437 0.0
H1011 H 0.30874 0.16214 0.86775 0.0
H1012 H 0.2935 0.1584 0.7833 0.0
H1013 H 0.26911 0.15322 0.829 0.0
Tb1014 Tb 0.87959 0.18323 0.71448 0.0
C1015 C 0.81194 0.23216 0.62629 0.0
C1016 C 0.74683 0.1877 0.62918 0.0
C1017 C 0.76545 0.24721 0.61269 0.0
C1018 C 0.7845 0.19815 0.63283 0.0
C1019 C 0.80293 0.2569 0.61545 0.0
C1020 C 0.73741 0.21265 0.61961 0.0
C1021 C 0.86852 0.29749 0.60856 0.0
N1022 N 0.84766 0.24026 0.6291 0.0
C1023 C 0.87597 0.27195 0.61945 0.0
C1024 C 0.83185 0.29015 0.60693 0.0
Tb1025 Tb 0.85753 0.19695 0.64689 0.0
N1026 N 0.7949 0.17493 0.64184 0.0
C1027 C 0.76874 0.13988 0.64589 0.0
C1028 C 0.7199 0.15236 0.63474 0.0
C1029 C 0.73096 0.12825 0.64283 0.0
H1030 H 0.90442 0.27793 0.62079 0.0
H1031 H 0.7104 0.10069 0.64675 0.0
H1032 H 0.70862 0.20524 0.6169 0.0
H1033 H 0.89108 0.32283 0.60152 0.0
H1034 H 0.77654 0.12079 0.65229 0.0
H1035 H 0.02819 0.27199 0.71932 0.0
H1036 H 0.69064 0.14326 0.63233 0.0
H1037 H 0.82766 0.10168 0.73923 0.0
H1038 H 0.9631 0.25675 0.71436 0.0
H1039 H 0.83648 0.05228 0.75493 0.0
H1040 H 0.75789 0.26593 0.60465 0.0
H1041 H 0.04346 0.2247 0.72858 0.0
H1042 H 0.0209 0.16016 0.73915 0.0
H1043 H 0.82613 0.30992 0.59844 0.0
H1044 H 0.9685 0.10005 0.74893 0.0
N1045 N 0.9412 0.20093 0.71992 0.0
C1046 C 0.96909 0.23571 0.71849 0.0
C1047 C 1.01472 0.21778 0.7264 0.0
C1048 C 0.98595 0.18258 0.72966 0.0
C1049 C 1.0062 0.24455 0.72127 0.0
C1050 C 0.94907 0.17503 0.72645 0.0
H1051 H 0.89947 0.05967 0.7554 0.0
N1052 N 0.88493 0.13617 0.73006 0.0
C1053 C 0.86016 0.07714 0.74829 0.0
C1054 C 0.91984 0.14136 0.73177 0.0
C1055 C 0.85526 0.10518 0.73946 0.0
C1056 C 0.89575 0.08136 0.74843 0.0
C1057 C 0.92627 0.11406 0.74065 0.0
O1058 O 0.84822 0.17203 0.75017 0.0
O1059 O 0.84077 0.18719 0.68843 0.0
O1060 O 0.86625 0.24359 0.66968 0.0
O1061 O 0.89886 0.23998 0.70644 0.0
O1062 O 0.8186 0.15075 0.71833 0.0
O1063 O 0.90157 0.21951 0.74622 0.0
O1064 O 0.88871 0.21035 0.61088 0.0
O1065 O 0.89736 0.19451 0.67298 0.0
O1066 O 0.87292 0.13805 0.69152 0.0
O1067 O 0.84126 0.14048 0.65382 0.0
O1068 O 0.91756 0.23307 0.64404 0.0
O1069 O 0.84016 0.15873 0.61653 0.0
C1070 C 0.81011 0.16523 0.69922 0.0
C1071 C 0.8827 0.19424 0.78957 0.0
C1072 C 0.87618 0.19786 0.83794 0.0
C1073 C 0.86932 0.20472 0.81163 0.0
C1074 C 0.89662 0.18045 0.84185 0.0
C1075 C 0.90366 0.17753 0.79398 0.0
C1076 C 0.91043 0.17056 0.81997 0.0
C1077 C 0.88595 0.25695 0.69171 0.0
C1078 C 0.8737 0.20006 0.76223 0.0
C1079 C 0.96292 0.12079 0.74246 0.0
C1080 C 0.99275 0.15502 0.73691 0.0
C1081 C 0.92722 0.21924 0.66288 0.0
C1082 C 0.85452 0.18153 0.57237 0.0
C1083 C 0.87332 0.17693 0.55059 0.0
C1084 C 0.86174 0.17696 0.52416 0.0
C1085 C 0.83144 0.18226 0.5199 0.0
C1086 C 0.82424 0.18652 0.5676 0.0
C1087 C 0.81294 0.18707 0.5415 0.0
C1088 C 0.85358 0.12409 0.66968 0.0
C1089 C 0.8662 0.18003 0.59986 0.0
H1090 H 0.85319 0.21775 0.80834 0.0
H1091 H 0.90256 0.17513 0.86186 0.0
H1092 H 0.91478 0.16985 0.77745 0.0
H1093 H 0.92653 0.15754 0.82316 0.0
H1094 H 0.89637 0.1725 0.55429 0.0
H1095 H 0.82219 0.18293 0.49982 0.0
H1096 H 0.80909 0.1896 0.58398 0.0
H1097 H 0.7896 0.19104 0.538 0.0
C1098 C 0.37673 0.88122 0.04605 0.0
C1099 C 0.34533 0.88286 0.05489 0.0
H1100 H 0.43396 0.91042 0.03377 0.0
C1101 C 0.34722 0.9162 0.05484 0.0
H1102 H 0.37653 0.85615 0.04602 0.0
C1103 C 0.38025 0.94724 0.04803 0.0
C1104 C 0.412 0.94575 0.04044 0.0
H1105 H 0.32345 0.91851 0.06089 0.0
H1106 H 0.38133 0.97268 0.04945 0.0
C1107 C 0.40976 0.91237 0.03896 0.0
C1108 C 0.11053 0.43099 0.0546 0.0
C1109 C 0.14547 0.4622 0.05489 0.0
H1110 H 0.05209 0.40784 0.04828 0.0
C1111 C 0.148 0.49449 0.04664 0.0
H1112 H 0.1076 0.40561 0.06044 0.0
C1113 C 0.11601 0.4957 0.03956 0.0
C1114 C 0.08103 0.46453 0.04016 0.0
H1115 H 0.17443 0.51907 0.04683 0.0
H1116 H 0.11846 0.52113 0.03455 0.0
C1117 C 0.07875 0.4322 0.04749 0.0
C1118 C 0.55018 0.67618 0.03774 0.0
C1119 C 0.56416 0.68684 0.0637 0.0
H1120 H 0.53329 0.63643 1.00756 0.0
C1121 C 0.57318 0.66461 0.0786 0.0
H1122 H 0.54314 0.6925 0.02543 0.0
C1123 C 0.56913 0.63327 0.06777 0.0
C1124 C 0.55491 0.62249 0.04195 0.0
H1125 H 0.58273 0.67084 0.09899 0.0
H1126 H 0.57638 0.61709 0.08006 0.0
C1127 C 0.54511 0.64417 0.0272 0.0
C1128 C 0.92033 0.33608 0.9773 0.0
C1129 C 0.88227 0.32526 0.97987 0.0
H1130 H 0.97671 0.37715 0.98335 0.0
C1131 C 0.87279 0.34838 0.99311 0.0
H1132 H 0.92922 0.31893 0.9682 0.0
C1133 C 0.90028 0.3812 1.00293 0.0
C1134 C 0.93809 0.39251 0.99897 0.0
H1135 H 0.84418 0.3419 0.99528 0.0
H1136 H 0.89182 0.39827 0.01277 0.0
C1137 C 0.9478 0.36946 0.98627 0.0
C1138 C 0.66324 0.52224 0.99356 0.0
C1139 C 0.69478 0.55426 0.98516 0.0
H1140 H 0.60565 0.49619 1.00543 0.0
C1141 C 0.69284 0.58571 0.98529 0.0
H1142 H 0.6637 0.49748 0.9935 0.0
C1143 C 0.65987 0.58498 0.99243 0.0
C1144 C 0.62794 0.55287 0.99974 0.0
H1145 H 0.71667 0.61086 0.97927 0.0
H1146 H 0.65897 0.60952 0.99144 0.0
C1147 C 0.63001 0.52148 1.00052 0.0
C1148 C 0.4467 0.10885 0.98246 0.0
C1149 C 0.47583 0.14441 0.9847 0.0
H1150 H 0.42826 0.05352 0.98911 0.0
C1151 C 0.50798 0.15062 0.99849 0.0
H1152 H 0.42085 0.10255 0.973 0.0
C1153 C 0.51116 0.12237 1.00906 0.0
C1154 C 0.48306 0.08703 1.00518 0.0
H1155 H 0.53155 0.17716 1.00042 0.0
H1156 H 0.53653 0.1283 0.01912 0.0
C1157 C 0.4506 0.08054 0.99207 0.0
C1158 C 0.65816 0.11451 0.97901 0.0
C1159 C 0.65607 0.14403 0.98866 0.0
H1160 H 0.63099 0.05735 0.97589 0.0
C1161 C 0.62477 0.1372 1.00418 0.0
H1162 H 0.68155 0.11837 0.96681 0.0
C1163 C 0.59548 0.10268 1.0081 0.0
C1164 C 0.59708 0.07317 0.99857 0.0
H1165 H 0.62221 0.15862 0.01305 0.0
H1166 H 0.5715 0.09949 0.01864 0.0
C1167 C 0.62903 0.07947 0.98404 0.0
C1168 C 0.90892 0.54099 0.99781 0.0
C1169 C 0.87772 0.50636 0.99811 0.0
H1170 H 0.96871 0.5729 0.99814 0.0
C1171 C 0.88397 0.47732 0.99684 0.0
H1172 H 0.90543 0.5641 0.99855 0.0
C1173 C 0.91986 0.48246 0.99729 0.0
C1174 C 0.95082 0.5167 0.999 0.0
H1175 H 0.86102 0.45027 0.99557 0.0
H1176 H 0.92325 0.45946 0.99589 0.0
C1177 C 0.94517 0.54608 0.99783 0.0
C1178 C 0.5013 0.36302 1.00788 0.0
C1179 C 0.5239 0.36432 0.98638 0.0
H1180 H 0.48103 0.39166 0.03082 0.0
C1181 C 0.53981 0.39423 0.96927 0.0
H1182 H 0.48908 0.34033 0.02144 0.0
C1183 C 0.53473 0.42322 0.97438 0.0
C1184 C 0.51432 0.42292 0.99697 0.0
H1185 H 0.55754 0.39579 0.95268 0.0
H1186 H 0.54899 0.44685 0.96185 0.0
C1187 C 0.49684 0.39232 0.01328 0.0
C1188 C 0.14999 0.65665 0.02367 0.0
C1189 C 0.17076 0.65932 0.04639 0.0
H1190 H 0.1013 0.6235 1.00094 0.0
C1191 C 0.15609 0.63141 0.06533 0.0
H1192 H 0.16101 0.67769 1.00867 0.0
C1193 C 0.12192 0.60053 0.06097 0.0
C1194 C 0.10237 0.59691 0.03736 0.0
H1195 H 0.17197 0.63279 0.08282 0.0
H1196 H 0.11212 0.57852 0.07509 0.0
C1197 C 0.1161 0.62561 0.01916 0.0
C1198 C 0.41457 0.53894 0.03971 0.0
C1199 C 0.37797 0.50983 0.03973 0.0
H1200 H 0.47247 0.55705 0.03817 0.0
C1201 C 0.37313 0.47524 0.0399 0.0
H1202 H 0.4199 0.56602 0.04094 0.0
C1203 C 0.40409 0.4702 0.03882 0.0
C1204 C 0.44033 0.49957 0.03665 0.0
H1205 H 0.34555 0.45209 0.04005 0.0
H1206 H 0.39967 0.44337 0.03864 0.0
C1207 C 0.4451 0.53388 0.03801 0.0
C1208 C 0.49008 0.85411 0.03183 0.0
C1209 C 0.50905 0.85256 0.05435 0.0
H1210 H 0.4774 0.88569 1.0065 0.0
C1211 C 0.5337 0.88444 0.06727 0.0
H1212 H 0.47118 0.83005 0.02129 0.0
C1213 C 0.53763 0.91707 0.05852 0.0
C1214 C 0.51722 0.91825 0.03657 0.0
H1215 H 0.54861 0.88391 0.08476 0.0
H1216 H 0.5557 0.94107 0.0694 0.0
C1217 C 0.49403 0.88634 0.02314 0.0
C1218 C 1.01747 0.24646 0.38348 0.0
C1219 C 1.01686 0.21379 0.38539 0.0
H1220 H 0.05004 0.30261 0.37595 0.0
C1221 C 0.04895 0.21265 0.37767 0.0
H1222 H 0.9931 0.24824 0.38863 0.0
C1223 C 0.08149 0.24389 0.36992 0.0
C1224 C 0.08241 0.27674 0.3696 0.0
H1225 H 0.0496 0.18804 0.37904 0.0
H1226 H 0.10634 0.24261 0.36558 0.0
C1227 C 0.04994 0.27756 0.37597 0.0
C1228 C 0.78244 0.76535 0.39061 0.0
C1229 C 0.81748 0.79644 0.3908 0.0
H1230 H 0.72391 0.7425 0.38502 0.0
C1231 C 0.82006 0.82886 0.38286 0.0
H1232 H 0.77945 0.73988 0.39626 0.0
C1233 C 0.78798 0.83031 0.3763 0.0
C1234 C 0.7529 0.79923 0.37709 0.0
H1235 H 0.84658 0.85335 0.38298 0.0
H1236 H 0.79045 0.85583 0.37164 0.0
C1237 C 0.75063 0.76679 0.38404 0.0
C1238 C 0.26139 0.00626 0.39604 0.0
C1239 C 0.23312 0.01502 0.39325 0.0
H1240 H 0.27844 0.96757 0.38962 0.0
C1241 C 0.20074 0.991 0.37951 0.0
H1242 H 0.28731 0.0242 0.4056 0.0
C1243 C 0.19675 0.95951 0.36907 0.0
C1244 C 0.22413 0.95015 0.37314 0.0
H1245 H 0.17768 0.99567 0.37731 0.0
H1246 H 0.17141 0.94188 0.35866 0.0
C1247 C 0.25661 0.9739 0.38657 0.0
C1248 C 0.56041 0.66363 0.34454 0.0
C1249 C 0.55508 0.6571 0.31686 0.0
H1250 H 0.59139 0.70078 0.37525 0.0
C1251 C 0.57913 0.68418 0.29894 0.0
H1252 H 0.54308 0.6433 0.35905 0.0
C1253 C 0.60725 0.71682 0.30836 0.0
C1254 C 0.61178 0.72363 0.33594 0.0
H1255 H 0.57562 0.68071 0.27752 0.0
H1256 H 0.62463 0.73722 0.29389 0.0
C1257 C 0.58822 0.69662 0.35393 0.0
C1258 C 0.3317 0.8492 0.32434 0.0
C1259 C 0.36335 0.88156 0.31653 0.0
H1260 H 0.27404 0.8227 0.33629 0.0
C1261 C 0.36122 0.91294 0.31767 0.0
H1262 H 0.33208 0.82444 0.32356 0.0
C1263 C 0.32803 0.91182 0.32476 0.0
C1264 C 0.29613 0.87947 0.33153 0.0
H1265 H 0.38507 0.93846 0.31242 0.0
H1266 H 0.32706 0.93634 0.32441 0.0
C1267 C 0.29837 0.84815 0.33165 0.0
C1268 C 0.17638 0.47997 0.32414 0.0
C1269 C 0.14345 0.47273 0.31099 0.0
H1270 H 0.2066 0.45928 0.3445 0.0
C1271 C 0.11525 0.43678 0.30868 0.0
H1272 H 0.19948 0.50677 0.32594 0.0
C1273 C 0.12062 0.40918 0.31797 0.0
C1274 C 0.15359 0.41682 0.33082 0.0
H1275 H 0.08893 0.4296 0.29964 0.0
H1276 H 0.09882 0.38185 0.31525 0.0
C1277 C 0.18091 0.45248 0.33451 0.0
C1278 C 0.3344 0.44568 0.33329 0.0
C1279 C 0.32776 0.47448 0.33154 0.0
H1280 H 0.31014 0.38859 0.33532 0.0
C1281 C 0.291 0.46702 0.32835 0.0
H1282 H 0.36238 0.45037 0.33545 0.0
C1283 C 0.26162 0.43212 0.32879 0.0
C1284 C 0.26781 0.40355 0.33271 0.0
H1285 H 0.28479 0.48827 0.32548 0.0
H1286 H 0.23403 0.42751 0.32548 0.0
C1287 C 0.30458 0.41039 0.33347 0.0
C1288 C 0.57262 0.86092 0.31735 0.0
C1289 C 0.54186 0.82815 0.3258 0.0
H1290 H 0.63219 0.89364 0.31455 0.0
C1291 C 0.54965 0.80328 0.33816 0.0
H1292 H 0.56871 0.88089 0.30727 0.0
C1293 C 0.58599 0.81 0.34079 0.0
C1294 C 0.61644 0.8429 0.33329 0.0
H1295 H 0.52791 0.77826 0.34623 0.0
H1296 H 0.58992 0.78928 0.34924 0.0
C1297 C 0.60932 0.86823 0.32123 0.0
C1298 C 0.20087 0.71904 0.30069 0.0
C1299 C 0.19019 0.69087 0.31901 0.0
H1300 H 0.20678 0.77043 0.29345 0.0
C1301 C 0.17352 0.6912 0.34343 0.0
H1302 H 0.21407 0.71929 0.28183 0.0
C1303 C 0.16977 0.72051 0.35018 0.0
C1304 C 0.18225 0.74956 0.33247 0.0
H1305 H 0.16536 0.66977 0.35787 0.0
H1306 H 0.1582 0.72097 0.36954 0.0
C1307 C 0.19655 0.74808 0.30727 0.0
C1308 C 0.82871 0.96138 0.40037 0.0
C1309 C 0.8423 0.99034 0.3824 0.0
H1310 H 0.78476 0.90844 0.4098 0.0
C1311 C 0.81968 0.98955 0.36144 0.0
H1312 H 0.84589 0.96139 0.41654 0.0
C1313 C 0.78499 0.9592 0.35746 0.0
C1314 C 0.77224 0.92955 0.37463 0.0
H1315 H 0.8298 0.01144 0.34721 0.0
H1316 H 0.76886 0.95825 0.34027 0.0
C1317 C 0.79375 0.93131 0.39665 0.0
C1318 C 0.08541 0.86707 0.37808 0.0
C1319 C 0.04865 0.83854 0.37642 0.0
H1320 H 0.14308 0.88392 0.3784 0.0
C1321 C 0.04312 0.80373 0.37508 0.0
H1322 H 0.09109 0.89414 0.38057 0.0
C1323 C 0.07372 0.79809 0.37385 0.0
C1324 C 0.11027 0.82714 0.37308 0.0
H1325 H 1.01534 0.781 0.37404 0.0
H1326 H 0.06884 0.77116 0.37239 0.0
C1327 C 0.11555 0.8614 0.37645 0.0
C1328 C 0.17667 0.20685 0.402 0.0
C1329 C 0.18788 0.18944 0.38376 0.0
H1330 H 0.17024 0.25221 0.40928 0.0
C1331 C 0.20494 0.20632 0.35951 0.0
H1332 H 0.16309 0.19397 0.42069 0.0
C1333 C 0.20862 0.2393 0.35286 0.0
C1334 C 0.19561 0.25586 0.37048 0.0
H1335 H 0.21348 0.1931 0.34511 0.0
H1336 H 0.22061 0.25132 0.33367 0.0
C1337 C 0.18087 0.24007 0.39552 0.0
C1338 C 0.71735 0.55173 0.71475 0.0
C1339 C 0.68494 0.55252 0.72209 0.0
H1340 H 0.77496 0.58216 0.70324 0.0
C1341 C 0.68521 0.585 0.71988 0.0
H1342 H 0.71824 0.52726 0.71634 0.0
C1343 C 0.71761 0.61627 0.71246 0.0
C1344 C 0.75044 0.61586 0.70655 0.0
H1345 H 0.66062 0.58653 0.72479 0.0
H1346 H 0.71739 0.64116 0.71227 0.0
C1347 C 0.74987 0.58317 0.70716 0.0
C1348 C 0.45169 0.10276 0.71779 0.0
C1349 C 0.48616 0.13413 0.72067 0.0
H1350 H 0.39359 0.07961 0.71013 0.0
C1351 C 0.4886 0.16693 0.71419 0.0
H1352 H 0.44882 0.07697 0.72202 0.0
C1353 C 0.4567 0.16832 0.70685 0.0
C1354 C 0.42195 0.13691 0.70573 0.0
H1355 H 0.51461 0.19163 0.71628 0.0
H1356 H 0.45888 0.19399 0.70347 0.0
C1357 C 0.42002 0.10419 0.7108 0.0
C1358 C 0.88878 0.34593 0.69676 0.0
C1359 C 0.89871 0.35483 0.7237 0.0
H1360 H 0.87655 0.30804 0.66557 0.0
C1361 C 0.9048 0.33137 0.73954 0.0
H1362 H 0.88412 0.36334 0.6838 0.0
C1363 C 0.90184 0.30047 0.72877 0.0
C1364 C 0.89168 0.29139 0.70198 0.0
H1365 H 0.91117 0.33631 0.76058 0.0
H1366 H 0.90653 0.28322 0.74187 0.0
C1367 C 0.8849 0.31436 0.68614 0.0
C1368 C 0.21809 0.00855 0.67143 0.0
C1369 C 0.21995 0.99797 0.64509 0.0
H1370 H 0.2427 0.04885 0.70114 0.0
C1371 C 0.25062 0.02142 0.62894 0.0
H1372 H 0.19538 0.99143 0.68477 0.0
C1373 C 0.27871 0.05373 0.63892 0.0
C1374 C 0.27671 0.06431 0.66515 0.0
H1375 H 0.25287 0.01535 0.60827 0.0
H1376 H 0.30162 0.07077 0.62569 0.0
C1377 C 0.24575 0.04146 0.68112 0.0
C1378 C 0.99938 0.19002 0.6557 0.0
C1379 C 0.03078 0.22201 0.64708 0.0
H1380 H 0.94164 0.16368 0.6672 0.0
C1381 C 0.02824 0.25314 0.64614 0.0
H1382 H 1.00028 0.16549 0.65641 0.0
C1383 C 0.99492 0.25212 0.65261 0.0
C1384 C 0.96325 0.22006 0.66037 0.0
H1385 H 0.05191 0.27826 0.63987 0.0
H1386 H 0.99363 0.27641 0.65093 0.0
C1387 C 0.96581 0.18897 0.66199 0.0
C1388 C 0.80373 0.78371 0.63138 0.0
C1389 C 0.8114 0.81338 0.64717 0.0
H1390 H 0.80176 0.73378 0.6286 0.0
C1391 C 0.82335 0.81429 0.6736 0.0
H1392 H 0.79553 0.78223 0.61072 0.0
C1393 C 0.82807 0.78662 0.6837 0.0
C1394 C 0.82017 0.75697 0.66786 0.0
H1395 H 0.82915 0.83637 0.68657 0.0
H1396 H 0.83824 0.78874 0.7038 0.0
C1397 C 0.80764 0.75582 0.64165 0.0
C1398 C 0.96143 0.81184 0.67284 0.0
C1399 C 0.99361 0.81888 0.65827 0.0
H1400 H 0.908 0.77345 0.68718 0.0
C1401 C 0.99737 0.78954 0.6506 0.0
H1402 H 0.95756 0.83321 0.68021 0.0
C1403 C 0.96919 0.75448 0.65652 0.0
C1404 C 0.93634 0.74778 0.66988 0.0
H1405 H 0.02132 0.7934 0.63914 0.0
H1406 H 0.97254 0.73251 0.64979 0.0
C1407 C 0.93291 0.77705 0.67765 0.0
C1408 C 0.22138 0.14771 0.66763 0.0
C1409 C 0.21512 0.17681 0.66667 0.0
H1410 H 0.2605 0.12971 0.66943 0.0
C1411 C 0.24634 0.21134 0.66491 0.0
H1412 H 0.19841 0.12059 0.66772 0.0
C1413 C 0.28258 0.21644 0.66542 0.0
C1414 C 0.28831 0.18726 0.66854 0.0
H1415 H 0.24289 0.23447 0.66401 0.0
H1416 H 0.30611 0.24326 0.66449 0.0
C1417 C 0.25727 0.15287 0.66869 0.0
C1418 C 0.84162 0.03209 0.67093 0.0
C1419 C 0.86291 0.03384 0.6484 0.0
H1420 H 0.82135 0.05965 0.6952 0.0
C1421 C 0.87665 0.06352 0.63114 0.0
H1422 H 0.83095 0.00952 0.68456 0.0
C1423 C 0.8706 0.09176 0.63696 0.0
C1424 C 0.85138 0.09099 0.66039 0.0
H1425 H 0.89319 0.0654 0.61368 0.0
H1426 H 0.88309 0.11519 0.62413 0.0
C1427 C 0.83625 0.06069 0.67704 0.0
C1428 C 0.49611 0.29966 0.73472 0.0
C1429 C 0.51042 0.3289 0.71697 0.0
H1430 H 0.4521 0.24637 0.74318 0.0
C1431 C 0.48891 0.32804 0.69519 0.0
H1432 H 0.51245 0.29965 0.75149 0.0
C1433 C 0.45472 0.29747 0.69028 0.0
C1434 C 0.44131 0.26757 0.70729 0.0
H1435 H 0.49959 0.35011 0.68108 0.0
H1436 H 0.43944 0.29666 0.67263 0.0
C1437 C 0.46162 0.26934 0.73006 0.0
C1438 C 0.74987 0.20862 0.6986 0.0
C1439 C 0.71755 0.18381 0.7127 0.0
H1440 H 0.80427 0.22362 0.68509 0.0
C1441 C 0.71523 0.15148 0.72072 0.0
H1442 H 0.75288 0.23327 0.69086 0.0
C1443 C 0.74464 0.14492 0.7154 0.0
C1444 C 0.77735 0.17058 0.70223 0.0
H1445 H 0.6913 0.13161 0.73184 0.0
H1446 H 0.74218 0.12007 0.72221 0.0
C1447 C 0.77956 0.20266 0.69443 0.0
C1448 C 0.87284 0.54704 0.70069 0.0
C1449 C 0.85051 0.52801 0.72279 0.0
H1450 H 0.89424 0.59443 0.67649 0.0
C1451 C 0.83604 0.54427 0.73947 0.0
H1452 H 0.88408 0.5349 0.68749 0.0
C1453 C 0.84235 0.57838 0.73344 0.0
C1454 C 0.86259 0.5964 0.71036 0.0
H1455 H 0.81867 0.53001 0.75659 0.0
H1456 H 0.82927 0.58963 0.74577 0.0
C1457 C 0.87851 0.5809 0.69436 0.0
C1458 C 0.50415 0.94717 0.24401 0.0
C1459 C 0.46527 0.92758 0.24666 0.0
H1460 H 0.55107 0.98275 0.21986 0.0
C1461 C 0.4437 0.92898 0.22562 0.0
H1462 H 0.52163 0.94683 0.25982 0.0
C1463 C 0.46062 0.94982 0.20269 0.0
C1464 C 0.49953 0.9699 0.20029 0.0
H1465 H 0.41367 0.91378 0.22678 0.0
H1466 H 0.44322 0.95078 0.18709 0.0
C1467 C 0.52103 0.96803 0.22117 0.0
C1468 C 0.06562 0.53398 0.24169 0.0
C1469 C 0.08817 0.51835 0.24248 0.0
H1470 H 0.02549 0.54085 0.21992 0.0
C1471 C 0.08692 0.49683 0.22109 0.0
H1472 H 0.06581 0.55053 0.25795 0.0
C1473 C 0.06371 0.49116 0.19935 0.0
C1474 C 0.04109 0.50674 0.19859 0.0
H1475 H 0.10426 0.48473 0.22098 0.0
H1476 H 0.06323 0.47431 0.18323 0.0
C1477 C 0.04227 0.52816 0.22003 0.0
C1478 C 0.52048 0.58627 0.22408 0.0
C1479 C 0.50227 0.56347 0.24601 0.0
H1480 H 0.54356 0.59173 0.18462 0.0
C1481 C 0.49113 0.52721 0.24391 0.0
H1482 H 0.52909 0.61431 0.22509 0.0
C1483 C 0.49967 0.51436 0.22083 0.0
C1484 C 0.51899 0.53741 0.19925 0.0
H1485 H 0.47715 0.50908 0.26051 0.0
H1486 H 0.49173 0.48647 0.22004 0.0
C1487 C 0.52852 0.57332 0.20087 0.0
C1488 C 0.97978 0.48502 0.79507 0.0
C1489 C 0.95284 0.44884 0.7933 0.0
H1490 H 0.0237 0.52546 0.81832 0.0
C1491 C 0.9483 0.42565 0.81455 0.0
H1492 H 0.98367 0.50332 0.77889 0.0
C1493 C 0.97057 0.43828 0.83711 0.0
C1494 C 0.99822 0.47424 0.83866 0.0
H1495 H 0.92746 0.39767 0.81366 0.0
H1496 H 0.9668 0.41975 0.85309 0.0
C1497 C 1.00262 0.49756 0.81749 0.0
C1498 C 0.60602 0.5216 0.8141 0.0
C1499 C 0.58484 0.49988 0.79289 0.0
H1500 H 0.60573 0.54359 0.85243 0.0
C1501 C 0.54592 0.48284 0.79478 0.0
H1502 H 0.63605 0.53476 0.81337 0.0
C1503 C 0.5286 0.48791 0.81711 0.0
C1504 C 0.54975 0.50986 0.83821 0.0
H1505 H 0.52885 0.46605 0.77875 0.0
H1506 H 0.49855 0.47452 0.81789 0.0
C1507 C 0.58866 0.52638 0.83657 0.0
C1508 C 0.55245 0.09219 0.8146 0.0
C1509 C 0.52928 0.08236 0.7921 0.0
H1510 H 0.5605 0.07841 0.85433 0.0
C1511 C 0.49559 0.04984 0.79308 0.0
H1512 H 0.57842 0.11721 0.81476 0.0
C1513 C 0.48482 0.02828 0.81595 0.0
C1514 C 0.50779 0.03789 0.83852 0.0
H1515 H 0.47717 0.04095 0.77611 0.0
H1516 H 0.45804 1.0041 0.81593 0.0
C1517 C 0.54186 0.07019 0.83752 0.0
C1518 C 0.1096 0.25839 0.55549 0.0
C1519 C 0.13141 0.25953 0.57729 0.0
H1520 H 0.10824 0.27868 0.51657 0.0
C1521 C 0.17019 0.2812 0.5751 0.0
H1522 H 0.07968 0.24159 0.55631 0.0
C1523 C 0.18658 0.30231 0.55222 0.0
C1524 C 0.16467 0.30221 0.53085 0.0
H1525 H 0.18784 0.28286 0.59149 0.0
H1526 H 0.2165 0.31913 0.55143 0.0
C1527 C 0.12601 0.27939 0.53256 0.0
C1528 C 0.7334 0.87562 0.57849 0.0
C1529 C 0.75352 0.85765 0.58085 0.0
H1530 H 0.69604 0.8846 0.55492 0.0
C1531 C 0.75038 0.83376 0.56072 0.0
H1532 H 0.73518 0.8941 0.59373 0.0
C1533 C 0.72798 0.82828 0.53854 0.0
C1534 C 0.70806 0.84644 0.53607 0.0
H1535 H 0.76592 0.81985 0.5618 0.0
H1536 H 0.72619 0.80977 0.52333 0.0
C1537 C 0.7108 0.86998 0.55638 0.0
C1538 C 0.19835 0.92243 0.55643 0.0
C1539 C 0.17935 0.89985 0.57828 0.0
H1540 H 0.22259 0.92746 0.51747 0.0
C1541 C 0.16922 0.86378 0.57699 0.0
H1542 H 0.20611 0.95029 0.55681 0.0
C1543 C 0.17901 0.8508 0.55457 0.0
C1544 C 0.19835 0.87351 0.53282 0.0
H1545 H 0.15449 0.84586 0.59355 0.0
H1546 H 0.17148 0.823 0.5542 0.0
C1547 C 0.2075 0.90934 0.53385 0.0
C1548 C 0.62046 0.76027 0.15206 0.0
C1549 C 0.62354 0.7833 0.1311 0.0
H1550 H 0.6407 0.75485 0.19 0.0
C1551 C 0.64996 0.81966 0.13267 0.0
H1552 H 0.60001 0.73215 0.15137 0.0
C1553 C 0.67359 0.8326 0.15467 0.0
C1554 C 0.67045 0.80944 0.17562 0.0
H1555 H 0.6527 0.83785 0.11672 0.0
H1556 H 0.6941 0.86067 0.15544 0.0
C1557 C 0.6435 0.77325 0.17419 0.0
C1558 C 0.26661 0.84917 0.14687 0.0
C1559 C 0.24521 0.82781 0.1256 0.0
H1560 H 0.26676 0.87025 0.18563 0.0
C1561 C 0.2063 0.81037 0.12787 0.0
H1562 H 0.29665 0.86262 0.14587 0.0
C1563 C 0.1892 0.81467 0.15067 0.0
C1564 C 0.21058 0.8363 0.17183 0.0
H1565 H 0.18905 0.79385 0.1118 0.0
H1566 H 0.15915 0.80092 0.15176 0.0
C1567 C 0.2495 0.85325 0.16976 0.0
C1568 C 0.22286 0.42737 0.14542 0.0
C1569 C 0.19839 0.41649 0.12365 0.0
H1570 H 0.23416 0.4142 0.18449 0.0
C1571 C 0.16604 0.38285 0.12505 0.0
H1572 H 0.2479 0.45322 0.14511 0.0
C1573 C 0.15791 0.36098 0.14757 0.0
C1574 C 0.18211 0.37163 0.16943 0.0
H1575 H 0.14673 0.37326 0.10861 0.0
H1576 H 0.13225 0.33565 0.14788 0.0
C1577 C 0.21473 0.40522 0.16813 0.0
C1578 C 0.77267 0.59321 0.8927 0.0
C1579 C 0.7943 0.59314 0.91422 0.0
H1580 H 0.77191 0.61493 0.85419 0.0
C1581 C 0.83314 0.61422 0.91207 0.0
H1582 H 0.74269 0.5769 0.89351 0.0
C1583 C 0.84983 0.63585 0.88951 0.0
C1584 C 0.82818 0.63689 0.8684 0.0
H1585 H 0.85066 0.61497 0.92826 0.0
H1586 H 0.87981 0.65221 0.88876 0.0
C1587 C 0.78941 0.61472 0.87002 0.0
C1588 C 0.4038 0.20633 0.91077 0.0
C1589 C 0.42643 0.19088 0.91255 0.0
H1590 H 0.36437 0.21272 0.8877 0.0
C1591 C 0.42646 0.16954 0.89144 0.0
H1592 H 0.40306 0.22275 0.92677 0.0
C1593 C 0.40425 0.16376 0.86902 0.0
C1594 C 0.38132 0.17894 0.8674 0.0
H1595 H 0.44392 0.15759 0.89213 0.0
H1596 H 0.40461 0.147 0.85314 0.0
C1597 C 0.38142 0.20034 0.8885 0.0
C1598 C 0.86046 0.2565 0.88609 0.0
C1599 C 0.84262 0.23308 0.90776 0.0
H1600 H 0.88458 0.26351 0.84684 0.0
C1601 C 0.83418 0.19751 0.90576 0.0
H1602 H 0.86693 0.28398 0.88704 0.0
C1603 C 0.84455 0.1859 0.88289 0.0
C1604 C 0.86294 0.20949 0.8614 0.0
H1605 H 0.82044 0.17896 0.92218 0.0
H1606 H 0.83838 0.15851 0.88204 0.0
C1607 C 0.87027 0.24475 0.86305 0.0
C1608 C 0.28133 0.08881 0.48573 0.0
C1609 C 0.28449 0.11011 0.46348 0.0
H1610 H 0.30183 0.08659 0.52449 0.0
C1611 C 0.31097 0.14657 0.4637 0.0
H1612 H 0.26093 0.06066 0.4861 0.0
C1613 C 0.33457 0.16129 0.48548 0.0
C1614 C 0.33166 0.13993 0.50763 0.0
H1615 H 0.31398 0.1635 0.44673 0.0
H1616 H 0.35511 0.1894 0.48504 0.0
C1617 C 0.30451 0.10365 0.50771 0.0
C1618 C 0.87763 0.14364 0.45793 0.0
C1619 C 0.91658 0.16143 0.45606 0.0
H1620 H 0.82988 0.13443 0.4809 0.0
C1621 C 0.93745 0.18383 0.47707 0.0
H1622 H 0.86079 0.12634 0.44204 0.0
C1623 C 0.91973 0.18851 0.49935 0.0
C1624 C 0.88077 0.17113 0.50101 0.0
H1625 H 0.96751 0.19758 0.47636 0.0
H1626 H 0.93654 0.20624 0.51506 0.0
C1627 C 0.85994 0.14852 0.48009 0.0
C1628 C 0.83715 0.71766 0.46224 0.0
C1629 C 0.86971 0.75108 0.46029 0.0
H1630 H 0.8034 0.67122 0.4859 0.0
C1631 C 0.89439 0.76255 0.48193 0.0
H1632 H 0.81766 0.7077 0.44592 0.0
C1633 C 0.88633 0.74114 0.50506 0.0
C1634 C 0.85358 0.70773 0.50689 0.0
H1635 H 0.91957 0.78826 0.48118 0.0
H1636 H 0.90591 0.75053 0.52132 0.0
C1637 C 0.82913 0.69649 0.48517 0.0
loop_
_geom_bond_atom_site_label_1
_geom_bond_atom_site_label_2
_geom_bond_distance
_geom_bond_site_symmetry_2
_ccdc_geom_bond_type
H0 C1 0.949 . S
C1 H0 0.949 . S
C1 C2 1.395 . S
C1 C3 1.391 . S
C2 C1 1.395 . S
C2 C5 1.390 . S
C3 C1 1.391 . S
C3 C7 1.387 . S
C3 C8 1.491 . S
H4 C5 0.950 . S
C5 C2 1.390 . S
C5 H4 0.950 . S
C5 C6 1.378 . S
C6 C5 1.378 . S
C6 C7 1.409 . S
C7 C3 1.387 . S
C7 C6 1.409 . S
C7 H9 0.951 . S
C8 C3 1.491 . S
C8 C10 1.382 . S
C8 C12 1.404 . S
H9 C7 0.951 . S
C10 C8 1.382 . S
C10 C11 1.390 . S
C10 H15 0.949 . S
C11 C10 1.390 . S
C11 C16 1.399 . S
C12 C8 1.404 . S
C12 H13 0.950 . S
C12 C14 1.375 . S
H13 C12 0.950 . S
C14 C12 1.375 . S
C14 C16 1.382 . S
C14 H18 0.950 . S
H15 C10 0.949 . S
C16 C11 1.399 . S
C16 C14 1.382 . S
C16 H17 0.952 . S
H17 C16 0.952 . S
H18 C14 0.950 . S
H19 C20 0.949 . S
C20 H19 0.949 . S
C20 C21 1.395 . S
C20 C22 1.391 . S
C21 C20 1.395 . S
C21 C24 1.390 . S
C22 C20 1.391 . S
C22 C26 1.387 . S
C22 C27 1.491 . S
H23 C24 0.950 . S
C24 C21 1.390 . S
C24 H23 0.950 . S
C24 C25 1.378 . S
C25 C24 1.378 . S
C25 C26 1.409 . S
C26 C22 1.387 . S
C26 C25 1.409 . S
C26 H28 0.951 . S
C27 C22 1.491 . S
C27 C29 1.382 . S
C27 C31 1.404 . S
H28 C26 0.951 . S
C29 C27 1.382 . S
C29 C30 1.390 1_545 S
C29 H34 0.949 . S
C30 C29 1.390 1_565 S
C30 C35 1.399 . S
C31 C27 1.404 . S
C31 H32 0.950 . S
C31 C33 1.375 . S
H32 C31 0.950 . S
C33 C31 1.375 . S
C33 C35 1.382 1_545 S
C33 H37 0.950 . S
H34 C29 0.949 . S
C35 C30 1.399 . S
C35 C33 1.382 1_565 S
C35 H36 0.952 . S
H36 C35 0.952 . S
H37 C33 0.950 . S
H38 C39 0.949 . S
C39 H38 0.949 . S
C39 C40 1.395 . S
C39 C41 1.391 . S
C40 C39 1.395 . S
C40 C43 1.390 . S
C41 C39 1.391 . S
C41 C45 1.387 . S
C41 C46 1.491 . S
H42 C43 0.950 . S
C43 C40 1.390 . S
C43 H42 0.950 . S
C43 C44 1.378 . S
C44 C43 1.378 . S
C44 C45 1.409 . S
C45 C41 1.387 . S
C45 C44 1.409 . S
C45 H47 0.951 . S
C46 C41 1.491 . S
C46 C48 1.382 . S
C46 C50 1.404 . S
H47 C45 0.951 . S
C48 C46 1.382 . S
C48 C49 1.390 1_655 S
C48 H53 0.949 . S
C49 C48 1.390 1_455 S
C49 C54 1.399 . S
C50 C46 1.404 . S
C50 H51 0.950 . S
C50 C52 1.375 1_655 S
H51 C50 0.950 . S
C52 C50 1.375 1_455 S
C52 C54 1.382 . S
C52 H56 0.950 . S
H53 C48 0.949 . S
C54 C49 1.399 . S
C54 C52 1.382 . S
C54 H55 0.952 . S
H55 C54 0.952 . S
H56 C52 0.950 . S
H57 C58 0.949 . S
C58 H57 0.949 . S
C58 C59 1.395 . S
C58 C60 1.391 . S
C59 C58 1.395 . S
C59 C62 1.390 . S
C60 C58 1.391 . S
C60 C64 1.387 . S
C60 C65 1.491 . S
H61 C62 0.950 . S
C62 C59 1.390 . S
C62 H61 0.950 . S
C62 C63 1.378 . S
C63 C62 1.378 . S
C63 C64 1.409 . S
C64 C60 1.387 . S
C64 C63 1.409 . S
C64 H66 0.951 . S
C65 C60 1.491 . S
C65 C67 1.382 . S
C65 C69 1.404 . S
H66 C64 0.951 . S
C67 C65 1.382 . S
C67 C68 1.390 . S
C67 H72 0.949 . S
C68 C67 1.390 . S
C68 C73 1.399 . S
C69 C65 1.404 . S
C69 H70 0.950 . S
C69 C71 1.375 . S
H70 C69 0.950 . S
C71 C69 1.375 . S
C71 C73 1.382 . S
C71 H75 0.950 . S
H72 C67 0.949 . S
C73 C68 1.399 . S
C73 C71 1.382 . S
C73 H74 0.952 . S
H74 C73 0.952 . S
H75 C71 0.950 . S
H76 C77 0.949 . S
C77 H76 0.949 . S
C77 C78 1.395 . S
C77 C79 1.391 . S
C78 C77 1.395 . S
C78 C81 1.390 . S
C79 C77 1.391 . S
C79 C83 1.387 . S
C79 C84 1.491 . S
H80 C81 0.950 . S
C81 C78 1.390 . S
C81 H80 0.950 . S
C81 C82 1.378 . S
C82 C81 1.378 . S
C82 C83 1.409 . S
C83 C79 1.387 . S
C83 C82 1.409 . S
C83 H85 0.951 . S
C84 C79 1.491 . S
C84 C86 1.382 . S
C84 C88 1.404 . S
H85 C83 0.951 . S
C86 C84 1.382 . S
C86 C87 1.390 1_565 S
C86 H91 0.949 . S
C87 C86 1.390 1_545 S
C87 C92 1.399 . S
C88 C84 1.404 . S
C88 H89 0.950 . S
C88 C90 1.375 . S
H89 C88 0.950 . S
C90 C88 1.375 . S
C90 C92 1.382 1_565 S
C90 H94 0.950 1_565 S
H91 C86 0.949 . S
C92 C87 1.399 . S
C92 C90 1.382 1_545 S
C92 H93 0.952 . S
H93 C92 0.952 . S
H94 C90 0.950 1_545 S
H95 C96 0.949 . S
C96 H95 0.949 . S
C96 C97 1.395 . S
C96 C98 1.391 . S
C97 C96 1.395 . S
C97 C100 1.390 . S
C98 C96 1.391 . S
C98 C102 1.387 . S
C98 C103 1.491 . S
H99 C100 0.950 . S
C100 C97 1.390 . S
C100 H99 0.950 . S
C100 C101 1.378 . S
C101 C100 1.378 . S
C101 C102 1.409 . S
C102 C98 1.387 . S
C102 C101 1.409 . S
C102 H104 0.951 . S
C103 C98 1.491 . S
C103 C105 1.382 . S
C103 C107 1.404 . S
H104 C102 0.951 . S
C105 C103 1.382 . S
C105 C106 1.390 1_455 S
C105 H110 0.949 . S
C106 C105 1.390 1_655 S
C106 C111 1.399 . S
C107 C103 1.404 . S
C107 H108 0.950 . S
C107 C109 1.372 . S
H108 C107 0.950 . S
C109 C107 1.372 . S
C109 C111 1.383 1_455 S
C109 H113 0.952 1_455 S
H110 C105 0.949 . S
C111 C106 1.399 . S
C111 C109 1.383 1_655 S
C111 H112 0.952 . S
H112 C111 0.952 . S
H113 C109 0.952 1_655 S
H114 C115 0.949 . S
C115 H114 0.949 . S
C115 C116 1.395 . S
C115 C117 1.391 . S
C116 C115 1.395 . S
C116 C119 1.390 . S
C117 C115 1.391 . S
C117 C121 1.387 . S
C117 C122 1.491 . S
H118 C119 0.950 . S
C119 C116 1.390 . S
C119 H118 0.950 . S
C119 C120 1.378 . S
C120 C119 1.378 . S
C120 C121 1.409 . S
C121 C117 1.387 . S
C121 C120 1.409 . S
C121 H123 0.951 . S
C122 C117 1.491 . S
C122 C124 1.382 . S
C122 C126 1.404 . S
H123 C121 0.951 . S
C124 C122 1.382 . S
C124 C125 1.390 . S
C124 H129 0.949 . S
C125 C124 1.390 . S
C125 C130 1.399 . S
C126 C122 1.404 . S
C126 H127 0.950 . S
C126 C128 1.375 . S
H127 C126 0.950 . S
C128 C126 1.375 . S
C128 C130 1.382 . S
C128 H132 0.950 . S
H129 C124 0.949 . S
C130 C125 1.399 . S
C130 C128 1.382 . S
C130 H131 0.952 . S
H131 C130 0.952 . S
H132 C128 0.950 . S
H133 C134 0.949 . S
C134 H133 0.949 . S
C134 C135 1.395 . S
C134 C136 1.391 . S
C135 C134 1.395 . S
C135 C138 1.390 . S
C136 C134 1.391 . S
C136 C140 1.387 . S
C136 C141 1.491 . S
H137 C138 0.950 . S
C138 C135 1.390 . S
C138 H137 0.950 . S
C138 C139 1.378 . S
C139 C138 1.378 . S
C139 C140 1.409 . S
C140 C136 1.387 . S
C140 C139 1.409 . S
C140 H142 0.951 . S
C141 C136 1.491 . S
C141 C143 1.382 . S
C141 C145 1.404 . S
H142 C140 0.951 . S
C143 C141 1.382 . S
C143 C144 1.390 . S
C143 H148 0.949 . S
C144 C143 1.390 . S
C144 C149 1.399 . S
C145 C141 1.404 . S
C145 H146 0.950 . S
C145 C147 1.375 . S
H146 C145 0.950 . S
C147 C145 1.375 . S
C147 C149 1.382 . S
C147 H151 0.950 . S
H148 C143 0.949 . S
C149 C144 1.399 . S
C149 C147 1.382 . S
C149 H150 0.952 . S
H150 C149 0.952 . S
H151 C147 0.950 . S
H152 C153 0.949 . S
C153 H152 0.949 . S
C153 C154 1.395 . S
C153 C155 1.391 . S
C154 C153 1.395 . S
C154 C157 1.390 . S
C155 C153 1.391 . S
C155 C159 1.387 . S
C155 C160 1.491 . S
H156 C157 0.950 . S
C157 C154 1.390 . S
C157 H156 0.950 . S
C157 C158 1.378 . S
C158 C157 1.378 . S
C158 C159 1.409 . S
C159 C155 1.387 . S
C159 C158 1.409 . S
C159 H161 0.951 . S
C160 C155 1.491 . S
C160 C162 1.382 . S
C160 C164 1.404 . S
H161 C159 0.951 . S
C162 C160 1.382 . S
C162 C163 1.390 . S
C162 H167 0.949 . S
C163 C162 1.390 . S
C163 C168 1.399 . S
C164 C160 1.404 . S
C164 H165 0.950 . S
C164 C166 1.375 . S
H165 C164 0.950 . S
C166 C164 1.375 . S
C166 C168 1.382 . S
C166 H170 0.950 . S
H167 C162 0.949 . S
C168 C163 1.399 . S
C168 C166 1.382 . S
C168 H169 0.952 . S
H169 C168 0.952 . S
H170 C166 0.950 . S
H171 C172 0.949 . S
C172 H171 0.949 . S
C172 C173 1.395 . S
C172 C174 1.391 . S
C173 C172 1.395 . S
C173 C176 1.390 . S
C174 C172 1.391 . S
C174 C178 1.387 . S
C174 C179 1.491 . S
H175 C176 0.950 . S
C176 C173 1.390 . S
C176 H175 0.950 . S
C176 C177 1.378 . S
C177 C176 1.378 . S
C177 C178 1.409 . S
C178 C174 1.387 . S
C178 C177 1.409 . S
C178 H180 0.951 . S
C179 C174 1.491 . S
C179 C181 1.382 . S
C179 C183 1.404 . S
H180 C178 0.951 . S
C181 C179 1.382 . S
C181 C182 1.390 . S
C181 H186 0.949 . S
C182 C181 1.390 . S
C182 C187 1.399 . S
C183 C179 1.404 . S
C183 H184 0.950 . S
C183 C185 1.375 . S
H184 C183 0.950 . S
C185 C183 1.375 . S
C185 C187 1.382 . S
C185 H189 0.950 1_556 S
H186 C181 0.949 . S
C187 C182 1.399 . S
C187 C185 1.382 . S
C187 H188 0.952 1_556 S
H188 C187 0.952 1_554 S
H189 C185 0.950 1_554 S
H190 C191 0.949 . S
C191 H190 0.949 . S
C191 C192 1.395 . S
C191 C193 1.391 . S
C192 C191 1.395 . S
C192 C195 1.390 . S
C193 C191 1.391 . S
C193 C197 1.387 . S
C193 C198 1.491 . S
H194 C195 0.950 . S
C195 C192 1.390 . S
C195 H194 0.950 . S
C195 C196 1.378 . S
C196 C195 1.378 . S
C196 C197 1.409 . S
C197 C193 1.387 . S
C197 C196 1.409 . S
C197 H199 0.975 . S
C198 C193 1.491 . S
C198 C200 1.382 . S
C198 C202 1.404 . S
H199 C197 0.975 . S
C200 C198 1.382 . S
C200 C201 1.390 . S
C200 H205 0.949 . S
C201 C200 1.390 . S
C201 C206 1.399 1_556 S
C202 C198 1.404 . S
C202 H203 0.954 . S
C202 C204 1.375 1_556 S
H203 C202 0.954 . S
C204 C202 1.375 1_554 S
C204 C206 1.382 . S
C204 H208 0.950 . S
H205 C200 0.949 . S
C206 C201 1.399 1_554 S
C206 C204 1.382 . S
C206 H207 0.952 . S
H207 C206 0.952 . S
H208 C204 0.950 . S
H209 C210 0.949 . S
C210 H209 0.949 . S
C210 C211 1.395 . S
C210 C212 1.391 . S
C211 C210 1.395 . S
C211 C214 1.390 . S
C212 C210 1.391 . S
C212 C216 1.387 . S
C212 C217 1.491 . S
H213 C214 0.950 . S
C214 C211 1.390 . S
C214 H213 0.950 . S
C214 C215 1.378 . S
C215 C214 1.378 . S
C215 C216 1.409 . S
C216 C212 1.387 . S
C216 C215 1.409 . S
C216 H218 0.951 . S
C217 C212 1.491 . S
C217 C219 1.382 . S
C217 C221 1.404 . S
H218 C216 0.951 . S
C219 C217 1.382 . S
C219 C220 1.390 . S
C219 H224 0.949 . S
C220 C219 1.390 . S
C220 C225 1.390 1_556 S
C221 C217 1.404 . S
C221 H222 0.950 . S
C221 C223 1.375 1_556 S
H222 C221 0.950 . S
C223 C221 1.375 1_554 S
C223 C225 1.384 . S
C223 H227 0.950 . S
H224 C219 0.949 . S
C225 C220 1.390 1_554 S
C225 C223 1.384 . S
C225 H226 0.959 . S
H226 C225 0.959 . S
H227 C223 0.950 . S
H228 C229 0.949 . S
C229 H228 0.949 . S
C229 C230 1.395 . S
C229 C231 1.391 . S
C230 C229 1.395 . S
C230 C233 1.390 . S
C231 C229 1.391 . S
C231 C235 1.387 . S
C231 C236 1.491 . S
H232 C233 0.950 . S
C233 C230 1.390 . S
C233 H232 0.950 . S
C233 C234 1.378 . S
C234 C233 1.378 . S
C234 C235 1.409 . S
C235 C231 1.387 . S
C235 C234 1.409 . S
C235 H237 0.951 . S
C236 C231 1.491 . S
C236 C238 1.382 . S
C236 C240 1.404 . S
H237 C235 0.951 . S
C238 C236 1.382 . S
C238 C239 1.390 . S
C238 H243 0.949 . S
C239 C238 1.390 . S
C239 C244 1.399 . S
C240 C236 1.404 . S
C240 H241 0.950 . S
C240 C242 1.375 . S
H241 C240 0.950 . S
C242 C240 1.375 . S
C242 C244 1.382 . S
C242 H246 0.950 . S
H243 C238 0.949 . S
C244 C239 1.399 . S
C244 C242 1.382 . S
C244 H245 0.952 . S
H245 C244 0.952 . S
H246 C242 0.950 . S
H247 C248 0.949 . S
C248 H247 0.949 . S
C248 C249 1.395 . S
C248 C250 1.391 . S
C249 C248 1.395 . S
C249 C252 1.390 . S
C250 C248 1.391 . S
C250 C254 1.387 . S
C250 C255 1.491 . S
H251 C252 0.950 . S
C252 C249 1.390 . S
C252 H251 0.950 . S
C252 C253 1.378 . S
C253 C252 1.378 . S
C253 C254 1.409 . S
C254 C250 1.387 . S
C254 C253 1.409 . S
C254 H256 0.951 . S
C255 C250 1.491 . S
C255 C257 1.382 . S
C255 C259 1.404 . S
H256 C254 0.951 . S
C257 C255 1.382 . S
C257 C258 1.390 . S
C257 H262 0.949 . S
C258 C257 1.390 . S
C258 C263 1.399 . S
C259 C255 1.404 . S
C259 H260 0.950 . S
C259 C261 1.375 . S
H260 C259 0.950 . S
C261 C259 1.375 . S
C261 C263 1.382 . S
C261 H265 0.950 . S
H262 C257 0.949 . S
C263 C258 1.399 . S
C263 C261 1.382 . S
C263 H264 0.952 . S
H264 C263 0.952 . S
H265 C261 0.950 . S
H266 C267 0.949 . S
C267 H266 0.949 . S
C267 C268 1.395 . S
C267 C269 1.391 . S
C268 C267 1.395 . S
C268 C271 1.390 . S
C269 C267 1.391 . S
C269 C273 1.387 . S
C269 C274 1.491 . S
H270 C271 0.950 . S
C271 C268 1.390 . S
C271 H270 0.950 . S
C271 C272 1.378 . S
C272 C271 1.378 . S
C272 C273 1.409 . S
C273 C269 1.387 . S
C273 C272 1.409 . S
C273 H275 0.951 . S
C274 C269 1.491 . S
C274 C276 1.382 . S
C274 C278 1.404 . S
H275 C273 0.951 . S
C276 C274 1.382 . S
C276 C277 1.390 . S
C276 H281 0.949 . S
C277 C276 1.390 . S
C277 C282 1.399 . S
C278 C274 1.404 . S
C278 H279 0.950 . S
C278 C280 1.375 . S
H279 C278 0.950 . S
C280 C278 1.375 . S
C280 C282 1.382 . S
C280 H284 0.950 . S
H281 C276 0.949 . S
C282 C277 1.399 . S
C282 C280 1.382 . S
C282 H283 0.952 . S
H283 C282 0.952 . S
H284 C280 0.950 . S
H285 C286 0.949 . S
C286 H285 0.949 . S
C286 C287 1.395 . S
C286 C288 1.391 . S
C287 C286 1.395 . S
C287 C290 1.390 . S
C288 C286 1.391 . S
C288 C292 1.387 . S
C288 C293 1.491 . S
H289 C290 0.950 . S
C290 C287 1.390 . S
C290 H289 0.950 . S
C290 C291 1.378 . S
C291 C290 1.378 . S
C291 C292 1.409 . S
C292 C288 1.387 . S
C292 C291 1.409 . S
C292 H294 0.951 . S
C293 C288 1.491 . S
C293 C295 1.382 . S
C293 C297 1.404 . S
H294 C292 0.951 . S
C295 C293 1.382 . S
C295 C296 1.390 . S
C295 H300 0.949 . S
C296 C295 1.390 . S
C296 C301 1.399 . S
C297 C293 1.404 . S
C297 H298 0.950 . S
C297 C299 1.375 . S
H298 C297 0.950 . S
C299 C297 1.375 . S
C299 C301 1.382 . S
C299 H303 0.950 . S
H300 C295 0.949 . S
C301 C296 1.399 . S
C301 C299 1.382 . S
C301 H302 0.952 . S
H302 C301 0.952 . S
H303 C299 0.950 . S
H304 C305 0.949 . S
C305 H304 0.949 . S
C305 C306 1.395 . S
C305 C307 1.391 . S
C306 C305 1.395 . S
C306 C309 1.390 . S
C307 C305 1.391 . S
C307 C311 1.387 . S
C307 C312 1.491 . S
H308 C309 0.950 . S
C309 C306 1.390 . S
C309 H308 0.950 . S
C309 C310 1.378 . S
C310 C309 1.378 . S
C310 C311 1.409 . S
C311 C307 1.387 . S
C311 C310 1.409 . S
C311 H313 0.951 . S
C312 C307 1.491 . S
C312 C314 1.382 . S
C312 C316 1.404 . S
H313 C311 0.951 . S
C314 C312 1.382 . S
C314 C315 1.390 . S
C314 H319 0.949 . S
C315 C314 1.390 . S
C315 C320 1.399 . S
C316 C312 1.404 . S
C316 H317 0.950 . S
C316 C318 1.375 . S
H317 C316 0.950 . S
C318 C316 1.375 . S
C318 C320 1.382 . S
C318 H322 0.950 . S
H319 C314 0.949 . S
C320 C315 1.399 . S
C320 C318 1.382 . S
C320 H321 0.952 . S
H321 C320 0.952 . S
H322 C318 0.950 . S
H323 C324 0.949 . S
C324 H323 0.949 . S
C324 C325 1.395 . S
C324 C326 1.391 . S
C325 C324 1.395 . S
C325 C328 1.390 . S
C326 C324 1.391 . S
C326 C330 1.387 . S
C326 C331 1.491 . S
H327 C328 0.950 . S
C328 C325 1.390 . S
C328 H327 0.950 . S
C328 C329 1.378 . S
C329 C328 1.378 . S
C329 C330 1.409 . S
C330 C326 1.387 . S
C330 C329 1.409 . S
C330 H332 0.951 . S
C331 C326 1.491 . S
C331 C333 1.382 . S
C331 C335 1.404 . S
H332 C330 0.951 . S
C333 C331 1.382 . S
C333 C334 1.390 . S
C333 H338 0.949 . S
C334 C333 1.390 . S
C334 C339 1.399 . S
C335 C331 1.404 . S
C335 H336 0.950 . S
C335 C337 1.375 . S
H336 C335 0.950 . S
C337 C335 1.375 . S
C337 C339 1.382 . S
C337 H341 0.950 . S
H338 C333 0.949 . S
C339 C334 1.399 . S
C339 C337 1.382 . S
C339 H340 0.952 . S
H340 C339 0.952 . S
H341 C337 0.950 . S
Tb342 N373 2.660 . S
Tb342 N380 2.600 . S
Tb342 O386 2.546 . S
Tb342 O387 2.610 1_566 S
Tb342 O389 2.320 1_565 S
Tb342 O390 2.552 1_565 S
Tb342 O391 2.413 1_565 S
Tb342 O393 2.362 1_556 S
Tb342 O394 2.421 . S
Tb342 C406 2.833 1_565 S
C343 C346 1.432 . S
C343 C347 1.414 . S
C343 N350 1.359 . S
C344 C346 1.417 . S
C344 C348 1.432 . S
C344 C356 1.410 . S
C345 C347 1.444 . S
C345 C348 1.317 . S
C345 H368 0.929 . S
C346 C343 1.432 . S
C346 C344 1.417 . S
C346 N354 1.360 . S
C347 C343 1.414 . S
C347 C345 1.444 . S
C347 C352 1.385 . S
C348 C344 1.432 . S
C348 C345 1.317 . S
C348 H360 0.930 . S
C349 C351 1.392 . S
C349 C352 1.370 . S
C349 H361 0.931 . S
N350 C343 1.359 . S
N350 C351 1.327 . S
N350 Tb353 2.600 . S
C351 C349 1.392 . S
C351 N350 1.327 . S
C351 H358 0.930 . S
C352 C347 1.385 . S
C352 C349 1.370 . S
C352 H371 0.930 . S
Tb353 N350 2.600 . S
Tb353 N354 2.660 . S
Tb353 O387 2.362 . S
Tb353 O388 2.421 . S
Tb353 O392 2.546 . S
Tb353 O393 2.610 1_545 S
Tb353 O395 2.320 1_545 S
Tb353 O396 2.552 1_545 S
Tb353 O397 2.413 1_545 S
Tb353 C417 2.833 1_545 S
N354 C346 1.360 . S
N354 Tb353 2.660 . S
N354 C355 1.305 . S
C355 N354 1.305 . S
C355 C357 1.407 . S
C355 H362 0.930 . S
C356 C344 1.410 . S
C356 C357 1.345 . S
C356 H364 0.930 . S
C357 C355 1.407 . S
C357 C356 1.345 . S
C357 H359 0.930 . S
H358 C351 0.930 . S
H359 C357 0.930 . S
H360 C348 0.930 . S
H361 C349 0.931 . S
H362 C355 0.930 . S
H363 C377 0.930 . S
H364 C356 0.930 . S
H365 C383 0.930 . S
H366 C374 0.930 . S
H367 C381 0.931 . S
H368 C345 0.929 . S
H369 C375 0.930 . S
H370 C408 0.930 . S
H371 C352 0.930 . S
H372 C407 0.929 . S
N373 Tb342 2.660 . S
N373 C374 1.305 . S
N373 C378 1.360 . S
C374 H366 0.930 . S
C374 N373 1.305 . S
C374 C377 1.407 . S
C375 H369 0.930 . S
C375 C376 1.410 . S
C375 C377 1.345 . S
C376 C375 1.410 . S
C376 C378 1.417 . S
C376 C408 1.432 . S
C377 H363 0.930 . S
C377 C374 1.407 . S
C377 C375 1.345 . S
C378 N373 1.360 . S
C378 C376 1.417 . S
C378 C382 1.432 . S
H379 C384 0.930 . S
N380 Tb342 2.600 . S
N380 C382 1.359 . S
N380 C383 1.327 . S
C381 H367 0.931 . S
C381 C383 1.392 . S
C381 C384 1.370 . S
C382 C378 1.432 . S
C382 N380 1.359 . S
C382 C385 1.414 . S
C383 H365 0.930 . S
C383 N380 1.327 . S
C383 C381 1.392 . S
C384 H379 0.930 . S
C384 C381 1.370 . S
C384 C385 1.385 . S
C385 C382 1.414 . S
C385 C384 1.385 . S
C385 C407 1.444 . S
O386 Tb342 2.546 . S
O386 C406 1.251 1_565 S
O387 Tb342 2.610 1_544 S
O387 Tb353 2.362 . S
O387 C398 1.283 1_554 S
O388 Tb353 2.421 . S
O388 C405 1.262 . S
O389 Tb342 2.320 1_545 S
O389 C405 1.260 1_556 S
O390 Tb342 2.552 1_545 S
O390 C398 1.243 . S
O391 Tb342 2.413 1_545 S
O391 C406 1.256 . S
O392 Tb353 2.546 . S
O392 C417 1.251 1_545 S
O393 Tb342 2.362 1_554 S
O393 Tb353 2.610 1_565 S
O393 C409 1.283 . S
O394 Tb342 2.421 . S
O394 C416 1.262 1_556 S
O395 Tb353 2.320 1_565 S
O395 C416 1.260 . S
O396 Tb353 2.552 1_565 S
O396 C409 1.243 . S
O397 Tb353 2.413 1_565 S
O397 C417 1.256 . S
C398 O387 1.283 1_556 S
C398 O390 1.243 . S
C399 C401 1.382 . S
C399 C403 1.393 1_545 S
C399 C406 1.500 . S
C400 C401 1.400 . S
C400 C402 1.384 . S
C401 C399 1.382 . S
C401 C400 1.400 . S
C401 H418 0.930 . S
C402 C400 1.384 . S
C402 C404 1.392 . S
C402 H419 0.931 . S
C403 C399 1.393 1_565 S
C403 C404 1.401 1_565 S
C403 H420 0.930 . S
C404 C402 1.392 . S
C404 C403 1.401 1_545 S
C404 H421 0.930 1_545 S
C405 O388 1.262 . S
C405 O389 1.260 1_554 S
C406 Tb342 2.833 1_545 S
C406 O386 1.251 1_545 S
C406 O391 1.256 . S
C406 C399 1.500 . S
C407 H372 0.929 . S
C407 C385 1.444 . S
C407 C408 1.317 . S
C408 H370 0.930 . S
C408 C376 1.432 . S
C408 C407 1.317 . S
C409 O393 1.283 . S
C409 O396 1.243 . S
C410 C411 1.382 . S
C410 C414 1.393 1_565 S
C410 C417 1.500 . S
C411 C410 1.382 . S
C411 C412 1.400 . S
C411 H422 0.930 . S
C412 C411 1.400 . S
C412 C413 1.384 . S
C413 C412 1.384 . S
C413 C415 1.392 . S
C413 H423 0.931 . S
C414 C410 1.393 1_545 S
C414 C415 1.401 1_545 S
C414 H424 0.930 . S
C415 C413 1.392 . S
C415 C414 1.401 1_565 S
C415 H425 0.930 1_565 S
C416 O394 1.262 1_554 S
C416 O395 1.260 . S
C417 Tb353 2.833 1_565 S
C417 O392 1.251 1_565 S
C417 O397 1.256 . S
C417 C410 1.500 . S
H418 C401 0.930 . S
H419 C402 0.931 . S
H420 C403 0.930 . S
H421 C404 0.930 1_565 S
H422 C411 0.930 . S
H423 C413 0.931 . S
H424 C414 0.930 . S
H425 C415 0.930 1_545 S
Tb426 N457 2.660 . S
Tb426 N464 2.600 . S
Tb426 O470 2.546 . S
Tb426 O471 2.610 1_456 S
Tb426 O473 2.320 1_455 S
Tb426 O474 2.552 1_455 S
Tb426 O475 2.413 1_455 S
Tb426 O477 2.362 1_556 S
Tb426 O478 2.421 . S
Tb426 C490 2.833 . S
C427 C430 1.432 . S
C427 C431 1.414 . S
C427 N434 1.359 . S
C428 C430 1.417 . S
C428 C432 1.432 . S
C428 C440 1.410 . S
C429 C431 1.444 . S
C429 C432 1.317 . S
C429 H452 0.929 . S
C430 C427 1.432 . S
C430 C428 1.417 . S
C430 N438 1.360 . S
C431 C427 1.414 . S
C431 C429 1.444 . S
C431 C436 1.385 . S
C432 C428 1.432 . S
C432 C429 1.317 . S
C432 H444 0.930 . S
C433 C435 1.392 . S
C433 C436 1.370 . S
C433 H445 0.931 . S
N434 C427 1.359 . S
N434 C435 1.327 . S
N434 Tb437 2.600 . S
C435 C433 1.392 . S
C435 N434 1.327 . S
C435 H442 0.930 . S
C436 C431 1.385 . S
C436 C433 1.370 . S
C436 H455 0.930 . S
Tb437 N434 2.600 . S
Tb437 N438 2.660 . S
Tb437 O471 2.362 . S
Tb437 O472 2.421 . S
Tb437 O476 2.546 . S
Tb437 O477 2.610 1_655 S
Tb437 O479 2.320 1_655 S
Tb437 O480 2.552 1_655 S
Tb437 O481 2.413 1_655 S
Tb437 C501 2.833 1_655 S
N438 C430 1.360 . S
N438 Tb437 2.660 . S
N438 C439 1.305 . S
C439 N438 1.305 . S
C439 C441 1.407 . S
C439 H446 0.930 . S
C440 C428 1.410 . S
C440 C441 1.345 . S
C440 H448 0.930 . S
C441 C439 1.407 . S
C441 C440 1.345 . S
C441 H443 0.930 . S
H442 C435 0.930 . S
H443 C441 0.930 . S
H444 C432 0.930 . S
H445 C433 0.931 . S
H446 C439 0.930 . S
H447 C461 0.930 . S
H448 C440 0.930 . S
H449 C467 0.930 . S
H450 C458 0.930 . S
H451 C465 0.931 . S
H452 C429 0.929 . S
H453 C459 0.930 . S
H454 C492 0.930 . S
H455 C436 0.930 . S
H456 C491 0.929 . S
N457 Tb426 2.660 . S
N457 C458 1.305 . S
N457 C462 1.360 . S
C458 H450 0.930 . S
C458 N457 1.305 . S
C458 C461 1.407 . S
C459 H453 0.930 . S
C459 C460 1.410 . S
C459 C461 1.345 . S
C460 C459 1.410 . S
C460 C462 1.417 . S
C460 C492 1.432 . S
C461 H447 0.930 . S
C461 C458 1.407 . S
C461 C459 1.345 . S
C462 N457 1.360 . S
C462 C460 1.417 . S
C462 C466 1.432 . S
H463 C468 0.930 . S
N464 Tb426 2.600 . S
N464 C466 1.359 . S
N464 C467 1.327 . S
C465 H451 0.931 . S
C465 C467 1.392 . S
C465 C468 1.370 . S
C466 C462 1.432 . S
C466 N464 1.359 . S
C466 C469 1.414 . S
C467 H449 0.930 . S
C467 N464 1.327 . S
C467 C465 1.392 . S
C468 H463 0.930 . S
C468 C465 1.370 . S
C468 C469 1.385 . S
C469 C466 1.414 . S
C469 C468 1.385 . S
C469 C491 1.444 . S
O470 Tb426 2.546 . S
O470 C490 1.251 . S
O471 Tb426 2.610 1_654 S
O471 Tb437 2.362 . S
O471 C482 1.283 1_554 S
O472 Tb437 2.421 . S
O472 C489 1.256 1_554 S
O473 Tb426 2.320 1_655 S
O473 C489 1.264 . S
O474 Tb426 2.552 1_655 S
O474 C482 1.243 . S
O475 Tb426 2.413 1_655 S
O475 C490 1.256 1_655 S
O476 Tb437 2.546 . S
O476 C501 1.251 1_655 S
O477 Tb426 2.362 1_554 S
O477 Tb437 2.610 1_455 S
O477 C493 1.283 . S
O478 Tb426 2.421 . S
O478 C500 1.262 1_556 S
O479 Tb437 2.320 1_455 S
O479 C500 1.260 . S
O480 Tb437 2.552 1_455 S
O480 C493 1.243 . S
O481 Tb437 2.413 1_455 S
O481 C501 1.256 . S
C482 O471 1.283 1_556 S
C482 O474 1.243 . S
C483 C485 1.382 . S
C483 C487 1.393 1_655 S
C483 C490 1.500 1_655 S
C484 C485 1.400 . S
C484 C486 1.384 . S
C485 C483 1.382 . S
C485 C484 1.400 . S
C485 H502 0.930 . S
C486 C484 1.384 . S
C486 C488 1.392 1_655 S
C486 H503 0.931 . S
C487 C483 1.393 1_455 S
C487 C488 1.401 . S
C487 H504 0.930 . S
C488 C486 1.392 1_455 S
C488 C487 1.401 . S
C488 H505 0.930 . S
C489 O472 1.256 1_556 S
C489 O473 1.264 . S
C490 Tb426 2.833 . S
C490 O470 1.251 . S
C490 O475 1.256 1_455 S
C490 C483 1.500 1_455 S
C491 H456 0.929 . S
C491 C469 1.444 . S
C491 C492 1.317 . S
C492 H454 0.930 . S
C492 C460 1.432 . S
C492 C491 1.317 . S
C493 O477 1.283 . S
C493 O480 1.243 . S
C494 C495 1.382 . S
C494 C498 1.393 1_455 S
C494 C501 1.500 . S
C495 C494 1.382 . S
C495 C496 1.400 . S
C495 H506 0.930 . S
C496 C495 1.400 . S
C496 C497 1.384 . S
C497 C496 1.384 . S
C497 C499 1.392 . S
C497 H507 0.931 . S
C498 C494 1.393 1_655 S
C498 C499 1.401 1_655 S
C498 H508 0.930 . S
C499 C497 1.392 . S
C499 C498 1.401 1_455 S
C499 H509 0.930 1_455 S
C500 O478 1.262 1_554 S
C500 O479 1.260 . S
C501 Tb437 2.833 1_455 S
C501 O476 1.251 1_455 S
C501 O481 1.256 . S
C501 C494 1.500 . S
H502 C485 0.930 . S
H503 C486 0.931 . S
H504 C487 0.930 . S
H505 C488 0.930 . S
H506 C495 0.930 . S
H507 C497 0.931 . S
H508 C498 0.930 . S
H509 C499 0.930 1_655 S
Tb510 N541 2.660 . S
Tb510 N548 2.600 . S
Tb510 O554 2.546 . S
Tb510 O555 2.610 . S
Tb510 O557 2.320 . S
Tb510 O558 2.552 . S
Tb510 O559 2.413 . S
Tb510 O561 2.362 . S
Tb510 O562 2.421 . S
Tb510 C574 2.833 . S
C511 C514 1.432 . S
C511 C515 1.414 . S
C511 N518 1.359 . S
C512 C514 1.417 . S
C512 C516 1.432 . S
C512 C524 1.410 . S
C513 C515 1.444 . S
C513 C516 1.317 . S
C513 H536 0.929 . S
C514 C511 1.432 . S
C514 C512 1.417 . S
C514 N522 1.360 . S
C515 C511 1.414 . S
C515 C513 1.444 . S
C515 C520 1.385 . S
C516 C512 1.432 . S
C516 C513 1.317 . S
C516 H528 0.930 . S
C517 C519 1.392 . S
C517 C520 1.370 . S
C517 H529 0.931 . S
N518 C511 1.359 . S
N518 C519 1.327 . S
N518 Tb521 2.600 . S
C519 C517 1.392 . S
C519 N518 1.327 . S
C519 H526 0.930 . S
C520 C515 1.385 . S
C520 C517 1.370 . S
C520 H539 0.930 . S
Tb521 N518 2.600 . S
Tb521 N522 2.660 . S
Tb521 O555 2.362 1_556 S
Tb521 O556 2.421 . S
Tb521 O560 2.546 . S
Tb521 O561 2.610 1_556 S
Tb521 O563 2.320 . S
Tb521 O564 2.552 . S
Tb521 O565 2.413 . S
Tb521 C585 2.833 . S
N522 C514 1.360 . S
N522 Tb521 2.660 . S
N522 C523 1.305 . S
C523 N522 1.305 . S
C523 C525 1.407 . S
C523 H530 0.930 . S
C524 C512 1.410 . S
C524 C525 1.345 . S
C524 H532 0.930 . S
C525 C523 1.407 . S
C525 C524 1.345 . S
C525 H527 0.930 . S
H526 C519 0.930 . S
H527 C525 0.930 . S
H528 C516 0.930 . S
H529 C517 0.931 . S
H530 C523 0.930 . S
H531 C545 0.930 . S
H532 C524 0.930 . S
H533 C551 0.930 . S
H534 C542 0.930 . S
H535 C549 0.931 . S
H536 C513 0.929 . S
H537 C543 0.930 . S
H538 C576 0.930 . S
H539 C520 0.930 . S
H540 C575 0.929 . S
N541 Tb510 2.660 . S
N541 C542 1.305 . S
N541 C546 1.360 . S
C542 H534 0.930 . S
C542 N541 1.305 . S
C542 C545 1.407 . S
C543 H537 0.930 . S
C543 C544 1.410 . S
C543 C545 1.345 . S
C544 C543 1.410 . S
C544 C546 1.417 . S
C544 C576 1.432 . S
C545 H531 0.930 . S
C545 C542 1.407 . S
C545 C543 1.345 . S
C546 N541 1.360 . S
C546 C544 1.417 . S
C546 C550 1.432 . S
H547 C552 0.930 . S
N548 Tb510 2.600 . S
N548 C550 1.359 . S
N548 C551 1.327 . S
C549 H535 0.931 . S
C549 C551 1.392 . S
C549 C552 1.370 . S
C550 C546 1.432 . S
C550 N548 1.359 . S
C550 C553 1.414 . S
C551 H533 0.930 . S
C551 N548 1.327 . S
C551 C549 1.392 . S
C552 H547 0.930 . S
C552 C549 1.370 . S
C552 C553 1.385 . S
C553 C550 1.414 . S
C553 C552 1.385 . S
C553 C575 1.444 . S
O554 Tb510 2.546 . S
O554 C574 1.251 . S
O555 Tb510 2.610 . S
O555 Tb521 2.362 1_554 S
O555 C566 1.283 . S
O556 Tb521 2.421 . S
O556 C573 1.262 1_556 S
O557 Tb510 2.320 . S
O557 C573 1.260 . S
O558 Tb510 2.552 . S
O558 C566 1.243 . S
O559 Tb510 2.413 . S
O559 C574 1.256 . S
O560 Tb521 2.546 . S
O560 C585 1.251 . S
O561 Tb510 2.362 . S
O561 Tb521 2.610 1_554 S
O561 C577 1.283 1_554 S
O562 Tb510 2.421 . S
O562 C584 1.262 . S
O563 Tb521 2.320 . S
O563 C584 1.260 1_556 S
O564 Tb521 2.552 . S
O564 C577 1.243 . S
O565 Tb521 2.413 . S
O565 C585 1.256 . S
C566 O555 1.283 . S
C566 O558 1.243 . S
C567 C569 1.382 . S
C567 C571 1.393 . S
C567 C574 1.500 . S
C568 C569 1.400 . S
C568 C570 1.384 . S
C569 C567 1.382 . S
C569 C568 1.400 . S
C569 H586 0.930 . S
C570 C568 1.384 . S
C570 C572 1.392 . S
C570 H587 0.931 . S
C571 C567 1.393 . S
C571 C572 1.401 . S
C571 H588 0.930 . S
C572 C570 1.392 . S
C572 C571 1.401 . S
C572 H589 0.930 . S
C573 O556 1.262 1_554 S
C573 O557 1.260 . S
C574 Tb510 2.833 . S
C574 O554 1.251 . S
C574 O559 1.256 . S
C574 C567 1.500 . S
C575 H540 0.929 . S
C575 C553 1.444 . S
C575 C576 1.317 . S
C576 H538 0.930 . S
C576 C544 1.432 . S
C576 C575 1.317 . S
C577 O561 1.283 1_556 S
C577 O564 1.243 . S
C578 C579 1.382 . S
C578 C582 1.393 . S
C578 C585 1.500 . S
C579 C578 1.382 . S
C579 C580 1.400 . S
C579 H590 0.930 . S
C580 C579 1.400 . S
C580 C581 1.384 . S
C581 C580 1.384 . S
C581 C583 1.392 . S
C581 H591 0.931 . S
C582 C578 1.393 . S
C582 C583 1.401 . S
C582 H592 0.930 . S
C583 C581 1.392 . S
C583 C582 1.401 . S
C583 H593 0.930 . S
C584 O562 1.262 . S
C584 O563 1.260 1_554 S
C585 Tb521 2.833 . S
C585 O560 1.251 . S
C585 O565 1.256 . S
C585 C578 1.500 . S
H586 C569 0.930 . S
H587 C570 0.931 . S
H588 C571 0.930 . S
H589 C572 0.930 . S
H590 C579 0.930 . S
H591 C581 0.931 . S
H592 C582 0.930 . S
H593 C583 0.930 . S
Tb594 N625 2.660 . S
Tb594 N632 2.600 . S
Tb594 O638 2.546 . S
Tb594 O639 2.610 . S
Tb594 O641 2.320 . S
Tb594 O642 2.552 . S
Tb594 O643 2.413 . S
Tb594 O645 2.362 . S
Tb594 O646 2.421 . S
Tb594 C658 2.833 . S
C595 C598 1.432 . S
C595 C599 1.414 . S
C595 N602 1.359 . S
C596 C598 1.417 . S
C596 C600 1.432 . S
C596 C608 1.410 . S
C597 C599 1.444 . S
C597 C600 1.317 . S
C597 H620 0.929 . S
C598 C595 1.432 . S
C598 C596 1.417 . S
C598 N606 1.360 . S
C599 C595 1.414 . S
C599 C597 1.444 . S
C599 C604 1.385 . S
C600 C596 1.432 . S
C600 C597 1.317 . S
C600 H612 0.930 . S
C601 C603 1.392 . S
C601 C604 1.370 . S
C601 H613 0.931 . S
N602 C595 1.359 . S
N602 C603 1.327 . S
N602 Tb605 2.600 . S
C603 C601 1.392 . S
C603 N602 1.327 . S
C603 H610 0.930 . S
C604 C599 1.385 . S
C604 C601 1.370 . S
C604 H623 0.930 . S
Tb605 N602 2.600 . S
Tb605 N606 2.660 . S
Tb605 O639 2.362 . S
Tb605 O640 2.421 . S
Tb605 O644 2.546 . S
Tb605 O645 2.610 . S
Tb605 O647 2.320 . S
Tb605 O648 2.552 . S
Tb605 O649 2.413 . S
Tb605 C669 2.833 . S
N606 C598 1.360 . S
N606 Tb605 2.660 . S
N606 C607 1.305 . S
C607 N606 1.305 . S
C607 C609 1.407 . S
C607 H614 0.930 . S
C608 C596 1.410 . S
C608 C609 1.345 . S
C608 H616 0.930 . S
C609 C607 1.407 . S
C609 C608 1.345 . S
C609 H611 0.930 . S
H610 C603 0.930 . S
H611 C609 0.930 . S
H612 C600 0.930 . S
H613 C601 0.931 . S
H614 C607 0.930 . S
H615 C629 0.930 . S
H616 C608 0.930 . S
H617 C635 0.930 . S
H618 C626 0.930 . S
H619 C633 0.931 . S
H620 C597 0.929 . S
H621 C627 0.930 . S
H622 C660 0.930 . S
H623 C604 0.930 . S
H624 C659 0.929 . S
N625 Tb594 2.660 . S
N625 C626 1.305 . S
N625 C630 1.360 . S
C626 H618 0.930 . S
C626 N625 1.305 . S
C626 C629 1.407 1_455 S
C627 H621 0.930 . S
C627 C628 1.410 . S
C627 C629 1.345 . S
C628 C627 1.410 . S
C628 C630 1.417 1_655 S
C628 C660 1.432 . S
C629 H615 0.930 . S
C629 C626 1.407 1_655 S
C629 C627 1.345 . S
C630 N625 1.360 . S
C630 C628 1.417 1_455 S
C630 C634 1.432 . S
H631 C636 0.930 . S
N632 Tb594 2.600 . S
N632 C634 1.359 . S
N632 C635 1.327 . S
C633 H619 0.931 . S
C633 C635 1.392 . S
C633 C636 1.370 . S
C634 C630 1.432 . S
C634 N632 1.359 . S
C634 C637 1.414 . S
C635 H617 0.930 . S
C635 N632 1.327 . S
C635 C633 1.392 . S
C636 H631 0.930 . S
C636 C633 1.370 . S
C636 C637 1.385 . S
C637 C634 1.414 . S
C637 C636 1.385 . S
C637 C659 1.444 1_455 S
O638 Tb594 2.546 . S
O638 C658 1.251 . S
O639 Tb594 2.610 . S
O639 Tb605 2.362 . S
O639 C650 1.283 . S
O640 Tb605 2.421 . S
O640 C657 1.262 . S
O641 Tb594 2.320 . S
O641 C657 1.260 . S
O642 Tb594 2.552 . S
O642 C650 1.243 . S
O643 Tb594 2.413 . S
O643 C658 1.256 . S
O644 Tb605 2.546 . S
O644 C669 1.251 . S
O645 Tb594 2.362 . S
O645 Tb605 2.610 . S
O645 C661 1.283 . S
O646 Tb594 2.421 . S
O646 C668 1.262 . S
O647 Tb605 2.320 . S
O647 C668 1.260 . S
O648 Tb605 2.552 . S
O648 C661 1.243 . S
O649 Tb605 2.413 . S
O649 C669 1.256 . S
C650 O639 1.283 . S
C650 O642 1.243 . S
C651 C653 1.382 . S
C651 C655 1.393 . S
C651 C658 1.500 . S
C652 C653 1.400 . S
C652 C654 1.384 . S
C653 C651 1.382 . S
C653 C652 1.400 . S
C653 H670 0.930 . S
C654 C652 1.384 . S
C654 C656 1.392 . S
C654 H671 0.931 . S
C655 C651 1.393 . S
C655 C656 1.401 . S
C655 H672 0.930 . S
C656 C654 1.392 . S
C656 C655 1.401 . S
C656 H673 0.930 . S
C657 O640 1.262 . S
C657 O641 1.260 . S
C658 Tb594 2.833 . S
C658 O638 1.251 . S
C658 O643 1.256 . S
C658 C651 1.500 . S
C659 H624 0.929 . S
C659 C637 1.444 1_655 S
C659 C660 1.317 . S
C660 H622 0.930 . S
C660 C628 1.432 . S
C660 C659 1.317 . S
C661 O645 1.283 . S
C661 O648 1.243 . S
C662 C663 1.382 . S
C662 C666 1.393 . S
C662 C669 1.500 . S
C663 C662 1.382 . S
C663 C664 1.400 . S
C663 H674 0.930 . S
C664 C663 1.400 . S
C664 C665 1.384 . S
C665 C664 1.384 . S
C665 C667 1.392 . S
C665 H675 0.931 . S
C666 C662 1.393 . S
C666 C667 1.401 . S
C666 H676 0.930 . S
C667 C665 1.392 . S
C667 C666 1.401 . S
C667 H677 0.930 . S
C668 O646 1.262 . S
C668 O647 1.260 . S
C669 Tb605 2.833 . S
C669 O644 1.251 . S
C669 O649 1.256 . S
C669 C662 1.500 . S
H670 C653 0.930 . S
H671 C654 0.931 . S
H672 C655 0.930 . S
H673 C656 0.930 . S
H674 C663 0.930 . S
H675 C665 0.931 . S
H676 C666 0.930 . S
H677 C667 0.930 . S
Tb678 N709 2.660 . S
Tb678 N716 2.600 . S
Tb678 O722 2.546 . S
Tb678 O723 2.610 . S
Tb678 O725 2.320 . S
Tb678 O726 2.552 . S
Tb678 O727 2.413 . S
Tb678 O729 2.362 . S
Tb678 O730 2.421 . S
Tb678 C742 2.833 . S
C679 C682 1.432 . S
C679 C683 1.414 . S
C679 N686 1.359 . S
C680 C682 1.417 . S
C680 C684 1.432 . S
C680 C692 1.410 . S
C681 C683 1.444 . S
C681 C684 1.317 . S
C681 H704 0.929 . S
C682 C679 1.432 . S
C682 C680 1.417 . S
C682 N690 1.360 . S
C683 C679 1.414 . S
C683 C681 1.444 . S
C683 C688 1.385 . S
C684 C680 1.432 . S
C684 C681 1.317 . S
C684 H696 0.930 . S
C685 C687 1.392 . S
C685 C688 1.370 . S
C685 H697 0.931 . S
N686 C679 1.359 . S
N686 C687 1.327 . S
N686 Tb689 2.600 . S
C687 C685 1.392 . S
C687 N686 1.327 . S
C687 H694 0.930 . S
C688 C683 1.385 . S
C688 C685 1.370 . S
C688 H707 0.930 . S
Tb689 N686 2.600 . S
Tb689 N690 2.660 . S
Tb689 O723 2.362 . S
Tb689 O724 2.421 . S
Tb689 O728 2.546 . S
Tb689 O729 2.610 . S
Tb689 O731 2.320 . S
Tb689 O732 2.552 . S
Tb689 O733 2.413 . S
Tb689 C753 2.833 . S
N690 C682 1.360 . S
N690 Tb689 2.660 . S
N690 C691 1.305 . S
C691 N690 1.305 . S
C691 C693 1.407 . S
C691 H698 0.930 . S
C692 C680 1.410 . S
C692 C693 1.345 . S
C692 H700 0.930 . S
C693 C691 1.407 . S
C693 C692 1.345 . S
C693 H695 0.930 . S
H694 C687 0.930 . S
H695 C693 0.930 . S
H696 C684 0.930 . S
H697 C685 0.931 . S
H698 C691 0.930 . S
H699 C713 0.930 . S
H700 C692 0.930 . S
H701 C719 0.930 . S
H702 C710 0.930 . S
H703 C717 0.931 . S
H704 C681 0.929 . S
H705 C711 0.930 . S
H706 C744 0.930 . S
H707 C688 0.930 . S
H708 C743 0.929 . S
N709 Tb678 2.660 . S
N709 C710 1.305 . S
N709 C714 1.360 . S
C710 H702 0.930 . S
C710 N709 1.305 . S
C710 C713 1.407 . S
C711 H705 0.930 . S
C711 C712 1.410 . S
C711 C713 1.345 . S
C712 C711 1.410 . S
C712 C714 1.417 . S
C712 C744 1.432 . S
C713 H699 0.930 . S
C713 C710 1.407 . S
C713 C711 1.345 . S
C714 N709 1.360 . S
C714 C712 1.417 . S
C714 C718 1.432 . S
H715 C720 0.930 . S
N716 Tb678 2.600 . S
N716 C718 1.359 . S
N716 C719 1.327 . S
C717 H703 0.931 . S
C717 C719 1.392 . S
C717 C720 1.370 . S
C718 C714 1.432 . S
C718 N716 1.359 . S
C718 C721 1.414 . S
C719 H701 0.930 . S
C719 N716 1.327 . S
C719 C717 1.392 . S
C720 H715 0.930 . S
C720 C717 1.370 . S
C720 C721 1.385 . S
C721 C718 1.414 . S
C721 C720 1.385 . S
C721 C743 1.444 . S
O722 Tb678 2.546 . S
O722 C742 1.251 . S
O723 Tb678 2.610 . S
O723 Tb689 2.362 . S
O723 C734 1.283 . S
O724 Tb689 2.421 . S
O724 C741 1.262 . S
O725 Tb678 2.320 . S
O725 C741 1.260 . S
O726 Tb678 2.552 . S
O726 C734 1.243 . S
O727 Tb678 2.413 . S
O727 C742 1.256 . S
O728 Tb689 2.546 . S
O728 C753 1.251 . S
O729 Tb678 2.362 . S
O729 Tb689 2.610 . S
O729 C745 1.283 . S
O730 Tb678 2.421 . S
O730 C752 1.262 . S
O731 Tb689 2.320 . S
O731 C752 1.260 . S
O732 Tb689 2.552 . S
O732 C745 1.243 . S
O733 Tb689 2.413 . S
O733 C753 1.256 . S
C734 O723 1.283 . S
C734 O726 1.243 . S
C735 C737 1.382 . S
C735 C739 1.393 . S
C735 C742 1.500 . S
C736 C737 1.400 . S
C736 C738 1.384 . S
C737 C735 1.382 . S
C737 C736 1.400 . S
C737 H754 0.930 . S
C738 C736 1.384 . S
C738 C740 1.392 . S
C738 H755 0.931 . S
C739 C735 1.393 . S
C739 C740 1.401 . S
C739 H756 0.930 . S
C740 C738 1.392 . S
C740 C739 1.401 . S
C740 H757 0.930 . S
C741 O724 1.262 . S
C741 O725 1.260 . S
C742 Tb678 2.833 . S
C742 O722 1.251 . S
C742 O727 1.256 . S
C742 C735 1.500 . S
C743 H708 0.929 . S
C743 C721 1.444 . S
C743 C744 1.317 . S
C744 H706 0.930 . S
C744 C712 1.432 . S
C744 C743 1.317 . S
C745 O729 1.283 . S
C745 O732 1.243 . S
C746 C747 1.382 . S
C746 C750 1.393 . S
C746 C753 1.500 . S
C747 C746 1.382 . S
C747 C748 1.400 . S
C747 H758 0.930 . S
C748 C747 1.400 . S
C748 C749 1.384 . S
C749 C748 1.384 . S
C749 C751 1.392 . S
C749 H759 0.931 . S
C750 C746 1.393 . S
C750 C751 1.401 . S
C750 H760 0.930 . S
C751 C749 1.392 . S
C751 C750 1.401 . S
C751 H761 0.930 . S
C752 O730 1.262 . S
C752 O731 1.260 . S
C753 Tb689 2.833 . S
C753 O728 1.251 . S
C753 O733 1.256 . S
C753 C746 1.500 . S
H754 C737 0.930 . S
H755 C738 0.931 . S
H756 C739 0.930 . S
H757 C740 0.930 . S
H758 C747 0.930 . S
H759 C749 0.931 . S
H760 C750 0.930 . S
H761 C751 0.930 . S
Tb762 N793 2.660 . S
Tb762 N800 2.600 . S
Tb762 O806 2.546 . S
Tb762 O807 2.610 . S
Tb762 O809 2.320 . S
Tb762 O810 2.552 . S
Tb762 O811 2.413 . S
Tb762 O813 2.362 . S
Tb762 O814 2.421 . S
Tb762 C826 2.833 . S
C763 C766 1.432 . S
C763 C767 1.414 . S
C763 N770 1.359 . S
C764 C766 1.417 . S
C764 C768 1.432 . S
C764 C776 1.410 . S
C765 C767 1.444 . S
C765 C768 1.317 . S
C765 H788 0.929 . S
C766 C763 1.432 . S
C766 C764 1.417 . S
C766 N774 1.360 . S
C767 C763 1.414 . S
C767 C765 1.444 . S
C767 C772 1.385 . S
C768 C764 1.432 . S
C768 C765 1.317 . S
C768 H780 0.930 . S
C769 C771 1.392 . S
C769 C772 1.370 . S
C769 H781 0.935 . S
N770 C763 1.359 . S
N770 C771 1.327 . S
N770 Tb773 2.600 . S
C771 C769 1.392 . S
C771 N770 1.327 . S
C771 H778 0.930 . S
C772 C767 1.385 . S
C772 C769 1.370 . S
C772 H791 0.930 . S
Tb773 N770 2.600 . S
Tb773 N774 2.660 . S
Tb773 O807 2.362 . S
Tb773 O808 2.421 . S
Tb773 O812 2.546 . S
Tb773 O813 2.610 . S
Tb773 O815 2.320 . S
Tb773 O816 2.552 . S
Tb773 O817 2.413 . S
Tb773 C837 2.833 . S
N774 C766 1.360 . S
N774 Tb773 2.660 . S
N774 C775 1.305 . S
C775 N774 1.305 . S
C775 C777 1.407 . S
C775 H782 0.930 . S
C776 C764 1.410 . S
C776 C777 1.345 . S
C776 H784 0.930 . S
C777 C775 1.407 . S
C777 C776 1.345 . S
C777 H779 0.930 . S
H778 C771 0.930 . S
H779 C777 0.930 . S
H780 C768 0.930 . S
H781 C769 0.935 . S
H782 C775 0.930 . S
H783 C797 0.930 . S
H784 C776 0.930 . S
H785 C803 0.930 . S
H786 C794 0.930 . S
H787 C801 0.931 . S
H788 C765 0.929 . S
H789 C795 0.930 . S
H790 C828 0.930 . S
H791 C772 0.930 . S
H792 C827 0.929 . S
N793 Tb762 2.660 . S
N793 C794 1.305 . S
N793 C798 1.360 . S
C794 H786 0.930 . S
C794 N793 1.305 . S
C794 C797 1.407 . S
C795 H789 0.930 . S
C795 C796 1.410 . S
C795 C797 1.345 . S
C796 C795 1.410 . S
C796 C798 1.417 . S
C796 C828 1.432 . S
C797 H783 0.930 . S
C797 C794 1.407 . S
C797 C795 1.345 . S
C798 N793 1.360 . S
C798 C796 1.417 . S
C798 C802 1.432 . S
H799 C804 0.930 . S
N800 Tb762 2.600 . S
N800 C802 1.359 . S
N800 C803 1.327 . S
C801 H787 0.931 . S
C801 C803 1.392 . S
C801 C804 1.370 . S
C802 C798 1.432 . S
C802 N800 1.359 . S
C802 C805 1.414 . S
C803 H785 0.930 . S
C803 N800 1.327 . S
C803 C801 1.392 . S
C804 H799 0.930 . S
C804 C801 1.370 . S
C804 C805 1.385 . S
C805 C802 1.414 . S
C805 C804 1.385 . S
C805 C827 1.444 . S
O806 Tb762 2.546 . S
O806 C826 1.251 . S
O807 Tb762 2.610 . S
O807 Tb773 2.362 . S
O807 C818 1.283 . S
O808 Tb773 2.421 . S
O808 C825 1.262 . S
O809 Tb762 2.320 . S
O809 C825 1.260 . S
O810 Tb762 2.552 . S
O810 C818 1.243 . S
O811 Tb762 2.413 . S
O811 C826 1.256 . S
O812 Tb773 2.546 . S
O812 C837 1.251 . S
O813 Tb762 2.362 . S
O813 Tb773 2.610 . S
O813 C829 1.283 . S
O814 Tb762 2.421 . S
O814 C836 1.262 . S
O815 Tb773 2.320 . S
O815 C836 1.260 . S
O816 Tb773 2.552 . S
O816 C829 1.243 . S
O817 Tb773 2.413 . S
O817 C837 1.256 . S
C818 O807 1.283 . S
C818 O810 1.243 . S
C819 C821 1.382 . S
C819 C823 1.393 . S
C819 C826 1.500 . S
C820 C821 1.400 . S
C820 C822 1.384 . S
C821 C819 1.382 . S
C821 C820 1.400 . S
C821 H838 0.930 . S
C822 C820 1.384 . S
C822 C824 1.392 . S
C822 H839 0.931 . S
C823 C819 1.393 . S
C823 C824 1.401 . S
C823 H840 0.930 . S
C824 C822 1.392 . S
C824 C823 1.401 . S
C824 H841 0.930 . S
C825 O808 1.262 . S
C825 O809 1.260 . S
C826 Tb762 2.833 . S
C826 O806 1.251 . S
C826 O811 1.256 . S
C826 C819 1.500 . S
C827 H792 0.929 . S
C827 C805 1.444 . S
C827 C828 1.317 . S
C828 H790 0.930 . S
C828 C796 1.432 . S
C828 C827 1.317 . S
C829 O813 1.283 . S
C829 O816 1.243 . S
C830 C831 1.382 . S
C830 C834 1.393 . S
C830 C837 1.500 . S
C831 C830 1.382 . S
C831 C832 1.400 . S
C831 H842 0.930 . S
C832 C831 1.400 . S
C832 C833 1.384 . S
C833 C832 1.384 . S
C833 C835 1.392 . S
C833 H843 0.931 . S
C834 C830 1.393 . S
C834 C835 1.401 . S
C834 H844 0.930 . S
C835 C833 1.392 . S
C835 C834 1.401 . S
C835 H845 0.930 . S
C836 O814 1.262 . S
C836 O815 1.260 . S
C837 Tb773 2.833 . S
C837 O812 1.251 . S
C837 O817 1.256 . S
C837 C830 1.500 . S
H838 C821 0.930 . S
H839 C822 0.931 . S
H840 C823 0.930 . S
H841 C824 0.930 . S
H842 C831 0.930 . S
H843 C833 0.931 . S
H844 C834 0.930 . S
H845 C835 0.930 . S
Tb846 N877 2.660 . S
Tb846 N884 2.600 . S
Tb846 O890 2.546 . S
Tb846 O891 2.610 . S
Tb846 O893 2.320 . S
Tb846 O894 2.552 . S
Tb846 O895 2.413 . S
Tb846 O897 2.362 . S
Tb846 O898 2.421 . S
Tb846 C910 2.833 . S
C847 C850 1.432 . S
C847 C851 1.414 . S
C847 N854 1.359 . S
C848 C850 1.417 . S
C848 C852 1.432 . S
C848 C860 1.410 . S
C849 C851 1.444 . S
C849 C852 1.317 . S
C849 H872 0.929 . S
C850 C847 1.432 . S
C850 C848 1.417 . S
C850 N858 1.360 . S
C851 C847 1.414 . S
C851 C849 1.444 . S
C851 C856 1.385 . S
C852 C848 1.432 . S
C852 C849 1.317 . S
C852 H864 0.930 . S
C853 C855 1.392 . S
C853 C856 1.370 . S
C853 H865 0.931 . S
N854 C847 1.359 . S
N854 C855 1.327 . S
N854 Tb857 2.600 . S
C855 C853 1.392 . S
C855 N854 1.327 . S
C855 H862 0.930 . S
C856 C851 1.385 . S
C856 C853 1.370 . S
C856 H875 0.930 . S
Tb857 N854 2.600 . S
Tb857 N858 2.660 . S
Tb857 O891 2.362 . S
Tb857 O892 2.421 . S
Tb857 O896 2.546 . S
Tb857 O897 2.610 . S
Tb857 O899 2.320 . S
Tb857 O900 2.552 . S
Tb857 O901 2.413 . S
Tb857 C921 2.833 . S
N858 C850 1.360 . S
N858 Tb857 2.660 . S
N858 C859 1.305 . S
C859 N858 1.305 . S
C859 C861 1.407 . S
C859 H866 0.930 . S
C860 C848 1.410 . S
C860 C861 1.345 . S
C860 H868 0.930 . S
C861 C859 1.407 . S
C861 C860 1.345 . S
C861 H863 0.930 . S
H862 C855 0.930 . S
H863 C861 0.930 . S
H864 C852 0.930 . S
H865 C853 0.931 . S
H866 C859 0.930 . S
H867 C881 0.930 . S
H868 C860 0.930 . S
H869 C887 0.930 . S
H870 C878 0.930 . S
H871 C885 0.931 . S
H872 C849 0.929 . S
H873 C879 0.930 . S
H874 C912 0.930 . S
H875 C856 0.930 . S
H876 C911 0.929 . S
N877 Tb846 2.660 . S
N877 C878 1.305 . S
N877 C882 1.360 . S
C878 H870 0.930 . S
C878 N877 1.305 . S
C878 C881 1.407 . S
C879 H873 0.930 . S
C879 C880 1.410 . S
C879 C881 1.345 . S
C880 C879 1.410 . S
C880 C882 1.417 . S
C880 C912 1.432 . S
C881 H867 0.930 . S
C881 C878 1.407 . S
C881 C879 1.345 . S
C882 N877 1.360 . S
C882 C880 1.417 . S
C882 C886 1.432 . S
H883 C888 0.930 . S
N884 Tb846 2.600 . S
N884 C886 1.359 . S
N884 C887 1.327 . S
C885 H871 0.931 . S
C885 C887 1.392 . S
C885 C888 1.370 . S
C886 C882 1.432 . S
C886 N884 1.359 . S
C886 C889 1.414 . S
C887 H869 0.930 . S
C887 N884 1.327 . S
C887 C885 1.392 . S
C888 H883 0.930 . S
C888 C885 1.370 . S
C888 C889 1.385 . S
C889 C886 1.414 . S
C889 C888 1.385 . S
C889 C911 1.444 . S
O890 Tb846 2.546 . S
O890 C910 1.251 . S
O891 Tb846 2.610 . S
O891 Tb857 2.362 . S
O891 C902 1.283 . S
O892 Tb857 2.421 . S
O892 C909 1.262 . S
O893 Tb846 2.320 . S
O893 C909 1.260 . S
O894 Tb846 2.552 . S
O894 C902 1.243 . S
O895 Tb846 2.413 . S
O895 C910 1.256 . S
O896 Tb857 2.546 . S
O896 C921 1.251 . S
O897 Tb846 2.362 . S
O897 Tb857 2.610 . S
O897 C913 1.283 . S
O898 Tb846 2.421 . S
O898 C920 1.262 . S
O899 Tb857 2.320 . S
O899 C920 1.260 . S
O900 Tb857 2.552 . S
O900 C913 1.243 . S
O901 Tb857 2.413 . S
O901 C921 1.256 . S
C902 O891 1.283 . S
C902 O894 1.243 . S
C903 C905 1.382 . S
C903 C907 1.393 . S
C903 C910 1.500 . S
C904 C905 1.400 . S
C904 C906 1.384 . S
C905 C903 1.382 . S
C905 C904 1.400 . S
C905 H922 0.930 . S
C906 C904 1.384 . S
C906 C908 1.392 . S
C906 H923 0.931 . S
C907 C903 1.393 . S
C907 C908 1.401 . S
C907 H924 0.930 . S
C908 C906 1.392 . S
C908 C907 1.401 . S
C908 H925 0.930 . S
C909 O892 1.262 . S
C909 O893 1.260 . S
C910 Tb846 2.833 . S
C910 O890 1.251 . S
C910 O895 1.256 . S
C910 C903 1.500 . S
C911 H876 0.929 . S
C911 C889 1.444 . S
C911 C912 1.317 . S
C912 H874 0.930 . S
C912 C880 1.432 . S
C912 C911 1.317 . S
C913 O897 1.283 . S
C913 O900 1.243 . S
C914 C915 1.382 . S
C914 C918 1.393 . S
C914 C921 1.500 . S
C915 C914 1.382 . S
C915 C916 1.400 . S
C915 H926 0.930 . S
C916 C915 1.400 . S
C916 C917 1.384 . S
C917 C916 1.384 . S
C917 C919 1.392 . S
C917 H927 0.931 . S
C918 C914 1.393 . S
C918 C919 1.401 . S
C918 H928 0.930 . S
C919 C917 1.392 . S
C919 C918 1.401 . S
C919 H929 0.930 . S
C920 O898 1.262 . S
C920 O899 1.260 . S
C921 Tb857 2.833 . S
C921 O896 1.251 . S
C921 O901 1.256 . S
C921 C914 1.500 . S
H922 C905 0.930 . S
H923 C906 0.931 . S
H924 C907 0.930 . S
H925 C908 0.930 . S
H926 C915 0.930 . S
H927 C917 0.931 . S
H928 C918 0.930 . S
H929 C919 0.930 . S
Tb930 N961 2.660 . S
Tb930 N968 2.600 . S
Tb930 O974 2.546 . S
Tb930 O975 2.610 . S
Tb930 O977 2.320 . S
Tb930 O978 2.552 . S
Tb930 O979 2.413 . S
Tb930 O981 2.362 . S
Tb930 O982 2.421 . S
Tb930 C994 2.833 . S
C931 C934 1.432 . S
C931 C935 1.414 . S
C931 N938 1.359 . S
C932 C934 1.417 . S
C932 C936 1.432 . S
C932 C944 1.410 . S
C933 C935 1.444 . S
C933 C936 1.317 . S
C933 H956 0.929 . S
C934 C931 1.432 . S
C934 C932 1.417 . S
C934 N942 1.360 . S
C935 C931 1.414 . S
C935 C933 1.444 . S
C935 C940 1.385 . S
C936 C932 1.432 . S
C936 C933 1.317 . S
C936 H948 0.930 . S
C937 C939 1.392 . S
C937 C940 1.370 . S
C937 H949 0.931 . S
N938 C931 1.359 . S
N938 C939 1.327 . S
N938 Tb941 2.600 . S
C939 C937 1.392 . S
C939 N938 1.327 . S
C939 H946 0.930 . S
C940 C935 1.385 . S
C940 C937 1.370 . S
C940 H959 0.930 . S
Tb941 N938 2.600 . S
Tb941 N942 2.660 . S
Tb941 O975 2.362 . S
Tb941 O976 2.421 . S
Tb941 O980 2.546 . S
Tb941 O981 2.610 . S
Tb941 O983 2.320 . S
Tb941 O984 2.552 . S
Tb941 O985 2.413 . S
Tb941 C1005 2.833 . S
N942 C934 1.360 . S
N942 Tb941 2.660 . S
N942 C943 1.305 . S
C943 N942 1.305 . S
C943 C945 1.407 . S
C943 H950 0.930 . S
C944 C932 1.410 . S
C944 C945 1.345 . S
C944 H952 0.930 . S
C945 C943 1.407 . S
C945 C944 1.345 . S
C945 H947 0.930 . S
H946 C939 0.930 . S
H947 C945 0.930 . S
H948 C936 0.930 . S
H949 C937 0.931 . S
H950 C943 0.930 . S
H951 C965 0.930 . S
H952 C944 0.930 . S
H953 C971 0.930 . S
H954 C962 0.930 . S
H955 C969 0.931 . S
H956 C933 0.929 . S
H957 C963 0.930 . S
H958 C996 0.930 . S
H959 C940 0.930 . S
H960 C995 0.929 . S
N961 Tb930 2.660 . S
N961 C962 1.305 . S
N961 C966 1.360 . S
C962 H954 0.930 . S
C962 N961 1.305 . S
C962 C965 1.407 . S
C963 H957 0.930 . S
C963 C964 1.410 . S
C963 C965 1.345 . S
C964 C963 1.410 . S
C964 C966 1.417 . S
C964 C996 1.432 . S
C965 H951 0.930 . S
C965 C962 1.407 . S
C965 C963 1.345 . S
C966 N961 1.360 . S
C966 C964 1.417 . S
C966 C970 1.432 . S
H967 C972 0.930 . S
N968 Tb930 2.600 . S
N968 C970 1.359 . S
N968 C971 1.327 . S
C969 H955 0.931 . S
C969 C971 1.392 . S
C969 C972 1.370 . S
C970 C966 1.432 . S
C970 N968 1.359 . S
C970 C973 1.414 . S
C971 H953 0.930 . S
C971 N968 1.327 . S
C971 C969 1.392 . S
C972 H967 0.930 . S
C972 C969 1.370 . S
C972 C973 1.385 . S
C973 C970 1.414 . S
C973 C972 1.385 . S
C973 C995 1.444 . S
O974 Tb930 2.546 . S
O974 C994 1.251 . S
O975 Tb930 2.610 . S
O975 Tb941 2.362 . S
O975 C986 1.283 . S
O976 Tb941 2.421 . S
O976 C993 1.262 . S
O977 Tb930 2.320 . S
O977 C993 1.260 . S
O978 Tb930 2.552 . S
O978 C986 1.243 . S
O979 Tb930 2.413 . S
O979 C994 1.256 . S
O980 Tb941 2.546 . S
O980 C1005 1.251 . S
O981 Tb930 2.362 . S
O981 Tb941 2.610 . S
O981 C997 1.283 . S
O982 Tb930 2.421 . S
O982 C1004 1.262 . S
O983 Tb941 2.320 . S
O983 C1004 1.260 . S
O984 Tb941 2.552 . S
O984 C997 1.243 . S
O985 Tb941 2.413 . S
O985 C1005 1.256 . S
C986 O975 1.283 . S
C986 O978 1.243 . S
C987 C989 1.382 . S
C987 C991 1.393 . S
C987 C994 1.500 . S
C988 C989 1.400 . S
C988 C990 1.384 . S
C989 C987 1.382 . S
C989 C988 1.400 . S
C989 H1006 0.930 . S
C990 C988 1.384 . S
C990 C992 1.392 . S
C990 H1007 0.931 . S
C991 C987 1.393 . S
C991 C992 1.401 . S
C991 H1008 0.930 . S
C992 C990 1.392 . S
C992 C991 1.401 . S
C992 H1009 0.930 . S
C993 O976 1.262 . S
C993 O977 1.260 . S
C994 Tb930 2.833 . S
C994 O974 1.251 . S
C994 O979 1.256 . S
C994 C987 1.500 . S
C995 H960 0.929 . S
C995 C973 1.444 . S
C995 C996 1.317 . S
C996 H958 0.930 . S
C996 C964 1.432 . S
C996 C995 1.317 . S
C997 O981 1.283 . S
C997 O984 1.243 . S
C998 C999 1.382 . S
C998 C1002 1.393 . S
C998 C1005 1.500 . S
C999 C998 1.382 . S
C999 C1000 1.400 . S
C999 H1010 0.930 . S
C1000 C999 1.400 . S
C1000 C1001 1.384 . S
C1001 C1000 1.384 . S
C1001 C1003 1.392 . S
C1001 H1011 0.931 . S
C1002 C998 1.393 . S
C1002 C1003 1.401 . S
C1002 H1012 0.930 . S
C1003 C1001 1.392 . S
C1003 C1002 1.401 . S
C1003 H1013 0.930 . S
C1004 O982 1.262 . S
C1004 O983 1.260 . S
C1005 Tb941 2.833 . S
C1005 O980 1.251 . S
C1005 O985 1.256 . S
C1005 C998 1.500 . S
H1006 C989 0.930 . S
H1007 C990 0.931 . S
H1008 C991 0.930 . S
H1009 C992 0.930 . S
H1010 C999 0.930 . S
H1011 C1001 0.931 . S
H1012 C1002 0.930 . S
H1013 C1003 0.930 . S
Tb1014 N1045 2.660 . S
Tb1014 N1052 2.600 . S
Tb1014 O1058 2.546 . S
Tb1014 O1059 2.610 . S
Tb1014 O1061 2.320 . S
Tb1014 O1062 2.552 . S
Tb1014 O1063 2.413 . S
Tb1014 O1065 2.362 . S
Tb1014 O1066 2.421 . S
Tb1014 C1078 2.833 . S
C1015 C1018 1.432 . S
C1015 C1019 1.414 . S
C1015 N1022 1.359 . S
C1016 C1018 1.417 . S
C1016 C1020 1.432 . S
C1016 C1028 1.410 . S
C1017 C1019 1.444 . S
C1017 C1020 1.317 . S
C1017 H1040 0.929 . S
C1018 C1015 1.432 . S
C1018 C1016 1.417 . S
C1018 N1026 1.360 . S
C1019 C1015 1.414 . S
C1019 C1017 1.444 . S
C1019 C1024 1.385 . S
C1020 C1016 1.432 . S
C1020 C1017 1.317 . S
C1020 H1032 0.930 . S
C1021 C1023 1.392 . S
C1021 C1024 1.370 . S
C1021 H1033 0.931 . S
N1022 C1015 1.359 . S
N1022 C1023 1.327 . S
N1022 Tb1025 2.600 . S
C1023 C1021 1.392 . S
C1023 N1022 1.327 . S
C1023 H1030 0.930 . S
C1024 C1019 1.385 . S
C1024 C1021 1.370 . S
C1024 H1043 0.930 . S
Tb1025 N1022 2.600 . S
Tb1025 N1026 2.660 . S
Tb1025 O1059 2.362 . S
Tb1025 O1060 2.421 . S
Tb1025 O1064 2.546 . S
Tb1025 O1065 2.610 . S
Tb1025 O1067 2.320 . S
Tb1025 O1068 2.552 . S
Tb1025 O1069 2.413 . S
Tb1025 C1089 2.833 . S
N1026 C1018 1.360 . S
N1026 Tb1025 2.660 . S
N1026 C1027 1.305 . S
C1027 N1026 1.305 . S
C1027 C1029 1.407 . S
C1027 H1034 0.930 . S
C1028 C1016 1.410 . S
C1028 C1029 1.345 . S
C1028 H1036 0.930 . S
C1029 C1027 1.407 . S
C1029 C1028 1.345 . S
C1029 H1031 0.930 . S
H1030 C1023 0.930 . S
H1031 C1029 0.930 . S
H1032 C1020 0.930 . S
H1033 C1021 0.931 . S
H1034 C1027 0.930 . S
H1035 C1049 0.930 . S
H1036 C1028 0.930 . S
H1037 C1055 0.930 . S
H1038 C1046 0.930 . S
H1039 C1053 0.931 . S
H1040 C1017 0.929 . S
H1041 C1047 0.930 . S
H1042 C1080 0.930 . S
H1043 C1024 0.930 . S
H1044 C1079 0.929 . S
N1045 Tb1014 2.660 . S
N1045 C1046 1.305 . S
N1045 C1050 1.360 . S
C1046 H1038 0.930 . S
C1046 N1045 1.305 . S
C1046 C1049 1.407 1_655 S
C1047 H1041 0.930 . S
C1047 C1048 1.410 . S
C1047 C1049 1.345 . S
C1048 C1047 1.410 . S
C1048 C1050 1.417 1_455 S
C1048 C1080 1.432 . S
C1049 H1035 0.930 . S
C1049 C1046 1.407 1_455 S
C1049 C1047 1.345 . S
C1050 N1045 1.360 . S
C1050 C1048 1.417 1_655 S
C1050 C1054 1.432 . S
H1051 C1056 0.930 . S
N1052 Tb1014 2.600 . S
N1052 C1054 1.359 . S
N1052 C1055 1.327 . S
C1053 H1039 0.931 . S
C1053 C1055 1.392 . S
C1053 C1056 1.370 . S
C1054 C1050 1.432 . S
C1054 N1052 1.359 . S
C1054 C1057 1.414 . S
C1055 H1037 0.930 . S
C1055 N1052 1.327 . S
C1055 C1053 1.392 . S
C1056 H1051 0.930 . S
C1056 C1053 1.370 . S
C1056 C1057 1.385 . S
C1057 C1054 1.414 . S
C1057 C1056 1.385 . S
C1057 C1079 1.444 1_655 S
O1058 Tb1014 2.546 . S
O1058 C1078 1.251 . S
O1059 Tb1014 2.610 . S
O1059 Tb1025 2.362 . S
O1059 C1070 1.283 . S
O1060 Tb1025 2.421 . S
O1060 C1077 1.262 . S
O1061 Tb1014 2.320 . S
O1061 C1077 1.260 . S
O1062 Tb1014 2.552 . S
O1062 C1070 1.243 . S
O1063 Tb1014 2.413 . S
O1063 C1078 1.256 . S
O1064 Tb1025 2.546 . S
O1064 C1089 1.251 . S
O1065 Tb1014 2.362 . S
O1065 Tb1025 2.610 . S
O1065 C1081 1.283 . S
O1066 Tb1014 2.421 . S
O1066 C1088 1.262 . S
O1067 Tb1025 2.320 . S
O1067 C1088 1.260 . S
O1068 Tb1025 2.552 . S
O1068 C1081 1.243 . S
O1069 Tb1025 2.413 . S
O1069 C1089 1.256 . S
C1070 O1059 1.283 . S
C1070 O1062 1.243 . S
C1071 C1073 1.382 . S
C1071 C1075 1.393 . S
C1071 C1078 1.500 . S
C1072 C1073 1.400 . S
C1072 C1074 1.384 . S
C1073 C1071 1.382 . S
C1073 C1072 1.400 . S
C1073 H1090 0.930 . S
C1074 C1072 1.384 . S
C1074 C1076 1.392 . S
C1074 H1091 0.931 . S
C1075 C1071 1.393 . S
C1075 C1076 1.401 . S
C1075 H1092 0.930 . S
C1076 C1074 1.392 . S
C1076 C1075 1.401 . S
C1076 H1093 0.930 . S
C1077 O1060 1.262 . S
C1077 O1061 1.260 . S
C1078 Tb1014 2.833 . S
C1078 O1058 1.251 . S
C1078 O1063 1.256 . S
C1078 C1071 1.500 . S
C1079 H1044 0.929 . S
C1079 C1057 1.444 1_455 S
C1079 C1080 1.317 . S
C1080 H1042 0.930 . S
C1080 C1048 1.432 . S
C1080 C1079 1.317 . S
C1081 O1065 1.283 . S
C1081 O1068 1.243 . S
C1082 C1083 1.382 . S
C1082 C1086 1.393 . S
C1082 C1089 1.500 . S
C1083 C1082 1.382 . S
C1083 C1084 1.400 . S
C1083 H1094 0.930 . S
C1084 C1083 1.400 . S
C1084 C1085 1.384 . S
C1085 C1084 1.384 . S
C1085 C1087 1.392 . S
C1085 H1095 0.931 . S
C1086 C1082 1.393 . S
C1086 C1087 1.401 . S
C1086 H1096 0.930 . S
C1087 C1085 1.392 . S
C1087 C1086 1.401 . S
C1087 H1097 0.930 . S
C1088 O1066 1.262 . S
C1088 O1067 1.260 . S
C1089 Tb1025 2.833 . S
C1089 O1064 1.251 . S
C1089 O1069 1.256 . S
C1089 C1082 1.500 . S
H1090 C1073 0.930 . S
H1091 C1074 0.931 . S
H1092 C1075 0.930 . S
H1093 C1076 0.930 . S
H1094 C1083 0.930 . S
H1095 C1085 0.931 . S
H1096 C1086 0.930 . S
H1097 C1087 0.930 . S
C1098 C1099 1.387 . S
C1098 H1102 0.950 . S
C1098 C1107 1.390 . S
C1099 C1098 1.387 . S
C1099 C1101 1.387 . S
H1100 C1107 0.950 . S
C1101 C1099 1.387 . S
C1101 C1103 1.390 . S
C1101 H1105 0.950 . S
H1102 C1098 0.950 . S
C1103 C1101 1.390 . S
C1103 C1104 1.387 . S
C1103 H1106 0.950 . S
C1104 C1103 1.387 . S
C1104 C1107 1.387 . S
H1105 C1101 0.950 . S
H1106 C1103 0.950 . S
C1107 C1098 1.390 . S
C1107 H1100 0.950 . S
C1107 C1104 1.387 . S
C1108 C1109 1.387 . S
C1108 H1112 0.950 . S
C1108 C1117 1.390 . S
C1109 C1108 1.387 . S
C1109 C1111 1.387 . S
H1110 C1117 0.950 . S
C1111 C1109 1.387 . S
C1111 C1113 1.390 . S
C1111 H1115 0.950 . S
H1112 C1108 0.950 . S
C1113 C1111 1.390 . S
C1113 C1114 1.387 . S
C1113 H1116 0.950 . S
C1114 C1113 1.387 . S
C1114 C1117 1.387 . S
H1115 C1111 0.950 . S
H1116 C1113 0.950 . S
C1117 C1108 1.390 . S
C1117 H1110 0.950 . S
C1117 C1114 1.387 . S
C1118 C1119 1.387 . S
C1118 H1122 0.950 . S
C1118 C1127 1.390 . S
C1119 C1118 1.387 . S
C1119 C1121 1.387 . S
H1120 C1127 0.950 1_556 S
C1121 C1119 1.387 . S
C1121 C1123 1.390 . S
C1121 H1125 0.950 . S
H1122 C1118 0.950 . S
C1123 C1121 1.390 . S
C1123 C1124 1.387 . S
C1123 H1126 0.950 . S
C1124 C1123 1.387 . S
C1124 C1127 1.387 . S
H1125 C1121 0.950 . S
H1126 C1123 0.950 . S
C1127 C1118 1.390 . S
C1127 H1120 0.950 1_554 S
C1127 C1124 1.387 . S
C1128 C1129 1.387 . S
C1128 H1132 0.950 . S
C1128 C1137 1.390 . S
C1129 C1128 1.387 . S
C1129 C1131 1.390 1_556 S
H1130 C1137 0.950 . S
C1131 C1129 1.390 1_554 S
C1131 C1133 1.389 . S
C1131 H1135 0.948 . S
H1132 C1128 0.950 . S
C1133 C1131 1.389 . S
C1133 C1134 1.387 1_554 S
C1133 H1136 0.950 . S
C1134 C1133 1.387 1_556 S
C1134 C1137 1.387 . S
H1135 C1131 0.948 . S
H1136 C1133 0.950 . S
C1137 C1128 1.390 . S
C1137 H1130 0.950 . S
C1137 C1134 1.387 . S
C1138 C1139 1.387 . S
C1138 H1142 0.950 1_556 S
C1138 C1147 1.390 1_556 S
C1139 C1138 1.387 . S
C1139 C1141 1.387 . S
H1140 C1147 0.950 . S
C1141 C1139 1.387 . S
C1141 C1143 1.390 . S
C1141 H1145 0.950 . S
H1142 C1138 0.950 1_554 S
C1143 C1141 1.390 . S
C1143 C1144 1.387 . S
C1143 H1146 0.950 . S
C1144 C1143 1.387 . S
C1144 C1147 1.387 1_556 S
H1145 C1141 0.950 . S
H1146 C1143 0.950 . S
C1147 C1138 1.390 1_554 S
C1147 H1140 0.950 . S
C1147 C1144 1.387 1_554 S
C1148 C1149 1.387 . S
C1148 H1152 0.950 . S
C1148 C1157 1.390 . S
C1149 C1148 1.387 . S
C1149 C1151 1.387 . S
H1150 C1157 0.950 . S
C1151 C1149 1.387 . S
C1151 C1153 1.390 . S
C1151 H1155 0.950 . S
H1152 C1148 0.950 . S
C1153 C1151 1.390 . S
C1153 C1154 1.387 . S
C1153 H1156 0.950 . S
C1154 C1153 1.387 . S
C1154 C1157 1.387 . S
H1155 C1151 0.950 . S
H1156 C1153 0.950 . S
C1157 C1148 1.390 . S
C1157 H1150 0.950 . S
C1157 C1154 1.387 . S
C1158 C1159 1.387 . S
C1158 H1162 0.950 . S
C1158 C1167 1.390 . S
C1159 C1158 1.387 . S
C1159 C1161 1.387 1_556 S
H1160 C1167 0.950 . S
C1161 C1159 1.387 1_554 S
C1161 C1163 1.390 . S
C1161 H1165 0.950 . S
H1162 C1158 0.950 . S
C1163 C1161 1.390 . S
C1163 C1164 1.387 1_554 S
C1163 H1166 0.950 . S
C1164 C1163 1.387 1_556 S
C1164 C1167 1.387 . S
H1165 C1161 0.950 . S
H1166 C1163 0.950 . S
C1167 C1158 1.390 . S
C1167 H1160 0.950 . S
C1167 C1164 1.387 . S
C1168 C1169 1.387 1_554 S
C1168 H1172 0.950 . S
C1168 C1177 1.390 . S
C1169 C1168 1.387 1_556 S
C1169 C1171 1.387 . S
H1170 C1177 0.950 . S
C1171 C1169 1.387 . S
C1171 C1173 1.390 . S
C1171 H1175 0.950 . S
H1172 C1168 0.950 . S
C1173 C1171 1.390 . S
C1173 C1174 1.387 . S
C1173 H1176 0.950 . S
C1174 C1173 1.387 . S
C1174 C1177 1.387 1_556 S
H1175 C1171 0.950 . S
H1176 C1173 0.950 . S
C1177 C1168 1.390 . S
C1177 H1170 0.950 . S
C1177 C1174 1.387 1_554 S
C1178 C1179 1.387 1_554 S
C1178 H1182 0.950 . S
C1178 C1187 1.390 . S
C1179 C1178 1.387 1_556 S
C1179 C1181 1.387 . S
H1180 C1187 0.950 . S
C1181 C1179 1.387 . S
C1181 C1183 1.390 . S
C1181 H1185 0.950 . S
H1182 C1178 0.950 . S
C1183 C1181 1.390 . S
C1183 C1184 1.387 . S
C1183 H1186 0.950 . S
C1184 C1183 1.387 . S
C1184 C1187 1.387 1_556 S
H1185 C1181 0.950 . S
H1186 C1183 0.950 . S
C1187 C1178 1.390 . S
C1187 H1180 0.950 . S
C1187 C1184 1.387 1_554 S
C1188 C1189 1.387 . S
C1188 H1192 0.950 1_554 S
C1188 C1197 1.390 . S
C1189 C1188 1.387 . S
C1189 C1191 1.387 . S
H1190 C1197 0.950 1_556 S
C1191 C1189 1.387 . S
C1191 C1193 1.390 . S
C1191 H1195 0.950 . S
H1192 C1188 0.950 1_556 S
C1193 C1191 1.390 . S
C1193 C1194 1.387 . S
C1193 H1196 0.950 . S
C1194 C1193 1.387 . S
C1194 C1197 1.387 . S
H1195 C1191 0.950 . S
H1196 C1193 0.950 . S
C1197 C1188 1.390 . S
C1197 H1190 0.950 1_554 S
C1197 C1194 1.387 . S
C1198 C1199 1.387 . S
C1198 H1202 0.950 . S
C1198 C1207 1.390 . S
C1199 C1198 1.387 . S
C1199 C1201 1.387 . S
H1200 C1207 0.950 . S
C1201 C1199 1.387 . S
C1201 C1203 1.390 . S
C1201 H1205 0.950 1_554 S
H1202 C1198 0.950 . S
C1203 C1201 1.390 . S
C1203 C1204 1.387 . S
C1203 H1206 0.950 1_554 S
C1204 C1203 1.387 . S
C1204 C1207 1.387 . S
H1205 C1201 0.950 1_556 S
H1206 C1203 0.950 1_556 S
C1207 C1198 1.390 . S
C1207 H1200 0.950 . S
C1207 C1204 1.387 . S
C1208 C1209 1.387 . S
C1208 H1212 0.950 1_554 S
C1208 C1217 1.390 . S
C1209 C1208 1.387 . S
C1209 C1211 1.387 . S
H1210 C1217 0.950 1_556 S
C1211 C1209 1.387 . S
C1211 C1213 1.390 . S
C1211 H1215 0.950 . S
H1212 C1208 0.950 1_556 S
C1213 C1211 1.390 . S
C1213 C1214 1.387 . S
C1213 H1216 0.950 . S
C1214 C1213 1.387 . S
C1214 C1217 1.387 . S
H1215 C1211 0.950 . S
H1216 C1213 0.950 . S
C1217 C1208 1.390 . S
C1217 H1210 0.950 1_554 S
C1217 C1214 1.387 . S
C1218 C1219 1.387 . S
C1218 H1222 0.950 . S
C1218 C1227 1.390 1_655 S
C1219 C1218 1.387 . S
C1219 C1221 1.387 . S
H1220 C1227 0.950 . S
C1221 C1219 1.387 . S
C1221 C1223 1.390 1_655 S
C1221 H1225 0.950 . S
H1222 C1218 0.950 . S
C1223 C1221 1.390 1_455 S
C1223 C1224 1.387 . S
C1223 H1226 0.950 . S
C1224 C1223 1.387 . S
C1224 C1227 1.387 . S
H1225 C1221 0.950 . S
H1226 C1223 0.950 . S
C1227 C1218 1.390 1_455 S
C1227 H1220 0.950 . S
C1227 C1224 1.387 . S
C1228 C1229 1.387 . S
C1228 H1232 0.950 . S
C1228 C1237 1.390 . S
C1229 C1228 1.387 . S
C1229 C1231 1.387 . S
H1230 C1237 0.950 . S
C1231 C1229 1.387 . S
C1231 C1233 1.390 . S
C1231 H1235 0.950 . S
H1232 C1228 0.950 . S
C1233 C1231 1.390 . S
C1233 C1234 1.387 . S
C1233 H1236 0.950 . S
C1234 C1233 1.387 . S
C1234 C1237 1.387 . S
H1235 C1231 0.950 . S
H1236 C1233 0.950 . S
C1237 C1228 1.390 . S
C1237 H1230 0.950 . S
C1237 C1234 1.387 . S
C1238 C1239 1.387 . S
C1238 H1242 0.950 . S
C1238 C1247 1.390 . S
C1239 C1238 1.387 . S
C1239 C1241 1.387 . S
H1240 C1247 0.950 . S
C1241 C1239 1.387 . S
C1241 C1243 1.390 1_545 S
C1241 H1245 0.941 . S
H1242 C1238 0.950 . S
C1243 C1241 1.390 1_565 S
C1243 C1244 1.387 . S
C1243 H1246 0.950 . S
C1244 C1243 1.387 . S
C1244 C1247 1.387 1_565 S
H1245 C1241 0.941 . S
H1246 C1243 0.950 . S
C1247 C1238 1.390 . S
C1247 H1240 0.950 . S
C1247 C1244 1.387 1_545 S
C1248 C1249 1.387 . S
C1248 H1252 0.950 . S
C1248 C1257 1.390 . S
C1249 C1248 1.387 . S
C1249 C1251 1.387 . S
H1250 C1257 0.950 . S
C1251 C1249 1.387 . S
C1251 C1253 1.390 . S
C1251 H1255 0.950 . S
H1252 C1248 0.950 . S
C1253 C1251 1.390 . S
C1253 C1254 1.387 . S
C1253 H1256 0.950 . S
C1254 C1253 1.387 . S
C1254 C1257 1.387 . S
H1255 C1251 0.950 . S
H1256 C1253 0.950 . S
C1257 C1248 1.390 . S
C1257 H1250 0.950 . S
C1257 C1254 1.387 . S
C1258 C1259 1.387 . S
C1258 H1262 0.950 . S
C1258 C1267 1.390 . S
C1259 C1258 1.387 . S
C1259 C1261 1.387 . S
H1260 C1267 0.950 . S
C1261 C1259 1.387 . S
C1261 C1263 1.390 . S
C1261 H1265 0.950 . S
H1262 C1258 0.950 . S
C1263 C1261 1.390 . S
C1263 C1264 1.387 . S
C1263 H1266 0.950 . S
C1264 C1263 1.387 . S
C1264 C1267 1.387 . S
H1265 C1261 0.950 . S
H1266 C1263 0.950 . S
C1267 C1258 1.390 . S
C1267 H1260 0.950 . S
C1267 C1264 1.387 . S
C1268 C1269 1.387 . S
C1268 H1272 0.950 . S
C1268 C1277 1.390 . S
C1269 C1268 1.387 . S
C1269 C1271 1.387 . S
H1270 C1277 0.950 . S
C1271 C1269 1.387 . S
C1271 C1273 1.390 . S
C1271 H1275 0.950 . S
H1272 C1268 0.950 . S
C1273 C1271 1.390 . S
C1273 C1274 1.387 . S
C1273 H1276 0.950 . S
C1274 C1273 1.387 . S
C1274 C1277 1.387 . S
H1275 C1271 0.950 . S
H1276 C1273 0.950 . S
C1277 C1268 1.390 . S
C1277 H1270 0.950 . S
C1277 C1274 1.387 . S
C1278 C1279 1.387 . S
C1278 H1282 0.950 . S
C1278 C1287 1.390 . S
C1279 C1278 1.387 . S
C1279 C1281 1.387 . S
H1280 C1287 0.950 . S
C1281 C1279 1.387 . S
C1281 C1283 1.390 . S
C1281 H1285 0.950 . S
H1282 C1278 0.950 . S
C1283 C1281 1.390 . S
C1283 C1284 1.387 . S
C1283 H1286 0.950 . S
C1284 C1283 1.387 . S
C1284 C1287 1.387 . S
H1285 C1281 0.950 . S
H1286 C1283 0.950 . S
C1287 C1278 1.390 . S
C1287 H1280 0.950 . S
C1287 C1284 1.387 . S
C1288 C1289 1.387 . S
C1288 H1292 0.950 . S
C1288 C1297 1.390 . S
C1289 C1288 1.387 . S
C1289 C1291 1.387 . S
H1290 C1297 0.950 . S
C1291 C1289 1.387 . S
C1291 C1293 1.390 . S
C1291 H1295 0.950 . S
H1292 C1288 0.950 . S
C1293 C1291 1.390 . S
C1293 C1294 1.387 . S
C1293 H1296 0.950 . S
C1294 C1293 1.387 . S
C1294 C1297 1.387 . S
H1295 C1291 0.950 . S
H1296 C1293 0.950 . S
C1297 C1288 1.390 . S
C1297 H1290 0.950 . S
C1297 C1294 1.387 . S
C1298 C1299 1.387 . S
C1298 H1302 0.950 . S
C1298 C1307 1.390 . S
C1299 C1298 1.387 . S
C1299 C1301 1.387 . S
H1300 C1307 0.950 . S
C1301 C1299 1.387 . S
C1301 C1303 1.390 . S
C1301 H1305 0.950 . S
H1302 C1298 0.950 . S
C1303 C1301 1.390 . S
C1303 C1304 1.387 . S
C1303 H1306 0.950 . S
C1304 C1303 1.387 . S
C1304 C1307 1.387 . S
H1305 C1301 0.950 . S
H1306 C1303 0.950 . S
C1307 C1298 1.390 . S
C1307 H1300 0.950 . S
C1307 C1304 1.387 . S
C1308 C1309 1.387 . S
C1308 H1312 0.950 . S
C1308 C1317 1.390 . S
C1309 C1308 1.387 . S
C1309 C1311 1.387 . S
H1310 C1317 0.950 . S
C1311 C1309 1.387 . S
C1311 C1313 1.390 . S
C1311 H1315 0.950 . S
H1312 C1308 0.950 . S
C1313 C1311 1.390 . S
C1313 C1314 1.387 . S
C1313 H1316 0.950 . S
C1314 C1313 1.387 . S
C1314 C1317 1.387 . S
H1315 C1311 0.950 . S
H1316 C1313 0.950 . S
C1317 C1308 1.390 . S
C1317 H1310 0.950 . S
C1317 C1314 1.387 . S
C1318 C1319 1.387 . S
C1318 H1322 0.950 . S
C1318 C1327 1.390 . S
C1319 C1318 1.387 . S
C1319 C1321 1.387 . S
H1320 C1327 0.950 . S
C1321 C1319 1.387 . S
C1321 C1323 1.390 . S
C1321 H1325 0.950 . S
H1322 C1318 0.950 . S
C1323 C1321 1.390 . S
C1323 C1324 1.387 . S
C1323 H1326 0.950 . S
C1324 C1323 1.387 . S
C1324 C1327 1.387 . S
H1325 C1321 0.950 . S
H1326 C1323 0.950 . S
C1327 C1318 1.390 . S
C1327 H1320 0.950 . S
C1327 C1324 1.387 . S
C1328 C1329 1.387 . S
C1328 H1332 0.950 . S
C1328 C1337 1.390 . S
C1329 C1328 1.387 . S
C1329 C1331 1.387 . S
H1330 C1337 0.950 . S
C1331 C1329 1.387 . S
C1331 C1333 1.390 . S
C1331 H1335 0.950 . S
H1332 C1328 0.950 . S
C1333 C1331 1.390 . S
C1333 C1334 1.387 . S
C1333 H1336 0.950 . S
C1334 C1333 1.387 . S
C1334 C1337 1.387 . S
H1335 C1331 0.950 . S
H1336 C1333 0.950 . S
C1337 C1328 1.390 . S
C1337 H1330 0.950 . S
C1337 C1334 1.387 . S
C1338 C1339 1.387 . S
C1338 H1342 0.950 . S
C1338 C1347 1.390 . S
C1339 C1338 1.387 . S
C1339 C1341 1.387 . S
H1340 C1347 0.950 . S
C1341 C1339 1.387 . S
C1341 C1343 1.390 . S
C1341 H1345 0.950 . S
H1342 C1338 0.950 . S
C1343 C1341 1.390 . S
C1343 C1344 1.387 . S
C1343 H1346 0.950 . S
C1344 C1343 1.387 . S
C1344 C1347 1.387 . S
H1345 C1341 0.950 . S
H1346 C1343 0.950 . S
C1347 C1338 1.390 . S
C1347 H1340 0.950 . S
C1347 C1344 1.387 . S
C1348 C1349 1.387 . S
C1348 H1352 0.950 . S
C1348 C1357 1.390 . S
C1349 C1348 1.387 . S
C1349 C1351 1.387 . S
H1350 C1357 0.950 . S
C1351 C1349 1.387 . S
C1351 C1353 1.390 . S
C1351 H1355 0.950 . S
H1352 C1348 0.950 . S
C1353 C1351 1.390 . S
C1353 C1354 1.387 . S
C1353 H1356 0.950 . S
C1354 C1353 1.387 . S
C1354 C1357 1.387 . S
H1355 C1351 0.950 . S
H1356 C1353 0.950 . S
C1357 C1348 1.390 . S
C1357 H1350 0.950 . S
C1357 C1354 1.387 . S
C1358 C1359 1.387 . S
C1358 H1362 0.950 . S
C1358 C1367 1.390 . S
C1359 C1358 1.387 . S
C1359 C1361 1.387 . S
H1360 C1367 0.950 . S
C1361 C1359 1.387 . S
C1361 C1363 1.390 . S
C1361 H1365 0.950 . S
H1362 C1358 0.950 . S
C1363 C1361 1.390 . S
C1363 C1364 1.387 . S
C1363 H1366 0.950 . S
C1364 C1363 1.387 . S
C1364 C1367 1.387 . S
H1365 C1361 0.950 . S
H1366 C1363 0.950 . S
C1367 C1358 1.390 . S
C1367 H1360 0.950 . S
C1367 C1364 1.387 . S
C1368 C1369 1.387 . S
C1368 H1372 0.950 . S
C1368 C1377 1.390 1_565 S
C1369 C1368 1.387 . S
C1369 C1371 1.387 . S
H1370 C1377 0.950 . S
C1371 C1369 1.387 . S
C1371 C1373 1.390 1_565 S
C1371 H1375 0.950 . S
H1372 C1368 0.950 . S
C1373 C1371 1.390 1_545 S
C1373 C1374 1.387 . S
C1373 H1376 0.950 . S
C1374 C1373 1.387 . S
C1374 C1377 1.387 . S
H1375 C1371 0.950 . S
H1376 C1373 0.950 . S
C1377 C1368 1.390 1_545 S
C1377 H1370 0.950 . S
C1377 C1374 1.387 . S
C1378 C1379 1.386 . S
C1378 H1382 0.948 1_455 S
C1378 C1387 1.393 1_455 S
C1379 C1378 1.386 . S
C1379 C1381 1.387 . S
H1380 C1387 0.950 . S
C1381 C1379 1.387 . S
C1381 C1383 1.390 . S
C1381 H1385 0.950 . S
H1382 C1378 0.948 1_655 S
C1383 C1381 1.390 . S
C1383 C1384 1.387 1_455 S
C1383 H1386 0.950 . S
C1384 C1383 1.387 1_655 S
C1384 C1387 1.387 . S
H1385 C1381 0.950 . S
H1386 C1383 0.950 . S
C1387 C1378 1.393 1_655 S
C1387 H1380 0.950 . S
C1387 C1384 1.387 . S
C1388 C1389 1.387 . S
C1388 H1392 0.950 . S
C1388 C1397 1.390 . S
C1389 C1388 1.387 . S
C1389 C1391 1.387 . S
H1390 C1397 0.950 . S
C1391 C1389 1.387 . S
C1391 C1393 1.390 . S
C1391 H1395 0.950 . S
H1392 C1388 0.950 . S
C1393 C1391 1.390 . S
C1393 C1394 1.387 . S
C1393 H1396 0.950 . S
C1394 C1393 1.387 . S
C1394 C1397 1.387 . S
H1395 C1391 0.950 . S
H1396 C1393 0.950 . S
C1397 C1388 1.390 . S
C1397 H1390 0.950 . S
C1397 C1394 1.387 . S
C1398 C1399 1.387 . S
C1398 H1402 0.950 . S
C1398 C1407 1.390 . S
C1399 C1398 1.387 . S
C1399 C1401 1.387 . S
H1400 C1407 0.950 . S
C1401 C1399 1.387 . S
C1401 C1403 1.390 . S
C1401 H1405 0.950 . S
H1402 C1398 0.950 . S
C1403 C1401 1.390 . S
C1403 C1404 1.387 . S
C1403 H1406 0.950 . S
C1404 C1403 1.387 . S
C1404 C1407 1.387 . S
H1405 C1401 0.950 . S
H1406 C1403 0.950 . S
C1407 C1398 1.390 . S
C1407 H1400 0.950 . S
C1407 C1404 1.387 . S
C1408 C1409 1.387 . S
C1408 H1412 0.950 . S
C1408 C1417 1.390 . S
C1409 C1408 1.387 . S
C1409 C1411 1.387 . S
H1410 C1417 0.950 . S
C1411 C1409 1.387 . S
C1411 C1413 1.390 . S
C1411 H1415 0.950 . S
H1412 C1408 0.950 . S
C1413 C1411 1.390 . S
C1413 C1414 1.387 . S
C1413 H1416 0.950 . S
C1414 C1413 1.387 . S
C1414 C1417 1.387 . S
H1415 C1411 0.950 . S
H1416 C1413 0.950 . S
C1417 C1408 1.390 . S
C1417 H1410 0.950 . S
C1417 C1414 1.387 . S
C1418 C1419 1.387 . S
C1418 H1422 0.950 . S
C1418 C1427 1.390 . S
C1419 C1418 1.387 . S
C1419 C1421 1.387 . S
H1420 C1427 0.950 . S
C1421 C1419 1.387 . S
C1421 C1423 1.390 . S
C1421 H1425 0.950 . S
H1422 C1418 0.950 . S
C1423 C1421 1.390 . S
C1423 C1424 1.387 . S
C1423 H1426 0.950 . S
C1424 C1423 1.387 . S
C1424 C1427 1.387 . S
H1425 C1421 0.950 . S
H1426 C1423 0.950 . S
C1427 C1418 1.390 . S
C1427 H1420 0.950 . S
C1427 C1424 1.387 . S
C1428 C1429 1.387 . S
C1428 H1432 0.950 . S
C1428 C1437 1.390 . S
C1429 C1428 1.387 . S
C1429 C1431 1.387 . S
H1430 C1437 0.950 . S
C1431 C1429 1.387 . S
C1431 C1433 1.390 . S
C1431 H1435 0.950 . S
H1432 C1428 0.950 . S
C1433 C1431 1.390 . S
C1433 C1434 1.387 . S
C1433 H1436 0.950 . S
C1434 C1433 1.387 . S
C1434 C1437 1.387 . S
H1435 C1431 0.950 . S
H1436 C1433 0.950 . S
C1437 C1428 1.390 . S
C1437 H1430 0.950 . S
C1437 C1434 1.387 . S
C1438 C1439 1.387 . S
C1438 H1442 0.950 . S
C1438 C1447 1.390 . S
C1439 C1438 1.387 . S
C1439 C1441 1.387 . S
H1440 C1447 0.950 . S
C1441 C1439 1.387 . S
C1441 C1443 1.390 . S
C1441 H1445 0.950 . S
H1442 C1438 0.950 . S
C1443 C1441 1.390 . S
C1443 C1444 1.387 . S
C1443 H1446 0.950 . S
C1444 C1443 1.387 . S
C1444 C1447 1.387 . S
H1445 C1441 0.950 . S
H1446 C1443 0.950 . S
C1447 C1438 1.390 . S
C1447 H1440 0.950 . S
C1447 C1444 1.387 . S
C1448 C1449 1.387 . S
C1448 H1452 0.950 . S
C1448 C1457 1.390 . S
C1449 C1448 1.387 . S
C1449 C1451 1.387 . S
H1450 C1457 0.950 . S
C1451 C1449 1.387 . S
C1451 C1453 1.390 . S
C1451 H1455 0.950 . S
H1452 C1448 0.950 . S
C1453 C1451 1.390 . S
C1453 C1454 1.387 . S
C1453 H1456 0.950 . S
C1454 C1453 1.387 . S
C1454 C1457 1.387 . S
H1455 C1451 0.950 . S
H1456 C1453 0.950 . S
C1457 C1448 1.390 . S
C1457 H1450 0.950 . S
C1457 C1454 1.387 . S
C1458 C1459 1.387 . S
C1458 H1462 0.950 . S
C1458 C1467 1.390 . S
C1459 C1458 1.387 . S
C1459 C1461 1.387 . S
H1460 C1467 0.950 . S
C1461 C1459 1.387 . S
C1461 C1463 1.390 . S
C1461 H1465 0.950 . S
H1462 C1458 0.950 . S
C1463 C1461 1.390 . S
C1463 C1464 1.387 . S
C1463 H1466 0.950 . S
C1464 C1463 1.387 . S
C1464 C1467 1.387 . S
H1465 C1461 0.950 . S
H1466 C1463 0.950 . S
C1467 C1458 1.390 . S
C1467 H1460 0.950 . S
C1467 C1464 1.387 . S
C1468 C1469 1.387 . S
C1468 H1472 0.950 . S
C1468 C1477 1.390 . S
C1469 C1468 1.387 . S
C1469 C1471 1.387 . S
H1470 C1477 0.950 . S
C1471 C1469 1.387 . S
C1471 C1473 1.390 . S
C1471 H1475 0.950 . S
H1472 C1468 0.950 . S
C1473 C1471 1.390 . S
C1473 C1474 1.387 . S
C1473 H1476 0.950 . S
C1474 C1473 1.387 . S
C1474 C1477 1.387 . S
H1475 C1471 0.950 . S
H1476 C1473 0.950 . S
C1477 C1468 1.390 . S
C1477 H1470 0.950 . S
C1477 C1474 1.387 . S
C1478 C1479 1.387 . S
C1478 H1482 0.950 . S
C1478 C1487 1.390 . S
C1479 C1478 1.387 . S
C1479 C1481 1.387 . S
H1480 C1487 0.950 . S
C1481 C1479 1.387 . S
C1481 C1483 1.390 . S
C1481 H1485 0.950 . S
H1482 C1478 0.950 . S
C1483 C1481 1.390 . S
C1483 C1484 1.387 . S
C1483 H1486 0.950 . S
C1484 C1483 1.387 . S
C1484 C1487 1.387 . S
H1485 C1481 0.950 . S
H1486 C1483 0.950 . S
C1487 C1478 1.390 . S
C1487 H1480 0.950 . S
C1487 C1484 1.387 . S
C1488 C1489 1.387 . S
C1488 H1492 0.950 . S
C1488 C1497 1.390 . S
C1489 C1488 1.387 . S
C1489 C1491 1.387 . S
H1490 C1497 0.950 . S
C1491 C1489 1.387 . S
C1491 C1493 1.390 . S
C1491 H1495 0.950 . S
H1492 C1488 0.950 . S
C1493 C1491 1.390 . S
C1493 C1494 1.387 . S
C1493 H1496 0.950 . S
C1494 C1493 1.387 . S
C1494 C1497 1.387 . S
H1495 C1491 0.950 . S
H1496 C1493 0.950 . S
C1497 C1488 1.390 . S
C1497 H1490 0.950 . S
C1497 C1494 1.387 . S
C1498 C1499 1.387 . S
C1498 H1502 0.950 . S
C1498 C1507 1.390 . S
C1499 C1498 1.387 . S
C1499 C1501 1.387 . S
H1500 C1507 0.950 . S
C1501 C1499 1.387 . S
C1501 C1503 1.390 . S
C1501 H1505 0.950 . S
H1502 C1498 0.950 . S
C1503 C1501 1.390 . S
C1503 C1504 1.387 . S
C1503 H1506 0.950 . S
C1504 C1503 1.387 . S
C1504 C1507 1.387 . S
H1505 C1501 0.950 . S
H1506 C1503 0.950 . S
C1507 C1498 1.390 . S
C1507 H1500 0.950 . S
C1507 C1504 1.387 . S
C1508 C1509 1.387 . S
C1508 H1512 0.950 . S
C1508 C1517 1.390 . S
C1509 C1508 1.387 . S
C1509 C1511 1.387 . S
H1510 C1517 0.950 . S
C1511 C1509 1.387 . S
C1511 C1513 1.390 . S
C1511 H1515 0.950 . S
H1512 C1508 0.950 . S
C1513 C1511 1.390 . S
C1513 C1514 1.387 . S
C1513 H1516 0.950 . S
C1514 C1513 1.387 . S
C1514 C1517 1.387 . S
H1515 C1511 0.950 . S
H1516 C1513 0.950 . S
C1517 C1508 1.390 . S
C1517 H1510 0.950 . S
C1517 C1514 1.387 . S
C1518 C1519 1.387 . S
C1518 H1522 0.950 . S
C1518 C1527 1.390 . S
C1519 C1518 1.387 . S
C1519 C1521 1.387 . S
H1520 C1527 0.950 . S
C1521 C1519 1.387 . S
C1521 C1523 1.390 . S
C1521 H1525 0.950 . S
H1522 C1518 0.950 . S
C1523 C1521 1.390 . S
C1523 C1524 1.387 . S
C1523 H1526 0.950 . S
C1524 C1523 1.387 . S
C1524 C1527 1.387 . S
H1525 C1521 0.950 . S
H1526 C1523 0.950 . S
C1527 C1518 1.390 . S
C1527 H1520 0.950 . S
C1527 C1524 1.387 . S
C1528 C1529 1.387 . S
C1528 H1532 0.950 . S
C1528 C1537 1.390 . S
C1529 C1528 1.387 . S
C1529 C1531 1.387 . S
H1530 C1537 0.950 . S
C1531 C1529 1.387 . S
C1531 C1533 1.390 . S
C1531 H1535 0.950 . S
H1532 C1528 0.950 . S
C1533 C1531 1.390 . S
C1533 C1534 1.387 . S
C1533 H1536 0.950 . S
C1534 C1533 1.387 . S
C1534 C1537 1.387 . S
H1535 C1531 0.950 . S
H1536 C1533 0.950 . S
C1537 C1528 1.390 . S
C1537 H1530 0.950 . S
C1537 C1534 1.387 . S
C1538 C1539 1.387 . S
C1538 H1542 0.950 . S
C1538 C1547 1.390 . S
C1539 C1538 1.387 . S
C1539 C1541 1.387 . S
H1540 C1547 0.950 . S
C1541 C1539 1.387 . S
C1541 C1543 1.390 . S
C1541 H1545 0.950 . S
H1542 C1538 0.950 . S
C1543 C1541 1.390 . S
C1543 C1544 1.387 . S
C1543 H1546 0.950 . S
C1544 C1543 1.387 . S
C1544 C1547 1.387 . S
H1545 C1541 0.950 . S
H1546 C1543 0.950 . S
C1547 C1538 1.390 . S
C1547 H1540 0.950 . S
C1547 C1544 1.387 . S
C1548 C1549 1.387 . S
C1548 H1552 0.950 . S
C1548 C1557 1.390 . S
C1549 C1548 1.387 . S
C1549 C1551 1.387 . S
H1550 C1557 0.950 . S
C1551 C1549 1.387 . S
C1551 C1553 1.390 . S
C1551 H1555 0.950 . S
H1552 C1548 0.950 . S
C1553 C1551 1.390 . S
C1553 C1554 1.387 . S
C1553 H1556 0.950 . S
C1554 C1553 1.387 . S
C1554 C1557 1.387 . S
H1555 C1551 0.950 . S
H1556 C1553 0.950 . S
C1557 C1548 1.390 . S
C1557 H1550 0.950 . S
C1557 C1554 1.387 . S
C1558 C1559 1.387 . S
C1558 H1562 0.950 . S
C1558 C1567 1.390 . S
C1559 C1558 1.387 . S
C1559 C1561 1.387 . S
H1560 C1567 0.950 . S
C1561 C1559 1.387 . S
C1561 C1563 1.390 . S
C1561 H1565 0.950 . S
H1562 C1558 0.950 . S
C1563 C1561 1.390 . S
C1563 C1564 1.387 . S
C1563 H1566 0.950 . S
C1564 C1563 1.387 . S
C1564 C1567 1.387 . S
H1565 C1561 0.950 . S
H1566 C1563 0.950 . S
C1567 C1558 1.390 . S
C1567 H1560 0.950 . S
C1567 C1564 1.387 . S
C1568 C1569 1.387 . S
C1568 H1572 0.950 . S
C1568 C1577 1.390 . S
C1569 C1568 1.387 . S
C1569 C1571 1.387 . S
H1570 C1577 0.950 . S
C1571 C1569 1.387 . S
C1571 C1573 1.390 . S
C1571 H1575 0.950 . S
H1572 C1568 0.950 . S
C1573 C1571 1.390 . S
C1573 C1574 1.387 . S
C1573 H1576 0.950 . S
C1574 C1573 1.387 . S
C1574 C1577 1.387 . S
H1575 C1571 0.950 . S
H1576 C1573 0.950 . S
C1577 C1568 1.390 . S
C1577 H1570 0.950 . S
C1577 C1574 1.387 . S
C1578 C1579 1.387 . S
C1578 H1582 0.950 . S
C1578 C1587 1.390 . S
C1579 C1578 1.387 . S
C1579 C1581 1.387 . S
H1580 C1587 0.950 . S
C1581 C1579 1.387 . S
C1581 C1583 1.390 . S
C1581 H1585 0.950 . S
H1582 C1578 0.950 . S
C1583 C1581 1.390 . S
C1583 C1584 1.387 . S
C1583 H1586 0.950 . S
C1584 C1583 1.387 . S
C1584 C1587 1.387 . S
H1585 C1581 0.950 . S
H1586 C1583 0.950 . S
C1587 C1578 1.390 . S
C1587 H1580 0.950 . S
C1587 C1584 1.387 . S
C1588 C1589 1.387 . S
C1588 H1592 0.950 . S
C1588 C1597 1.390 . S
C1589 C1588 1.387 . S
C1589 C1591 1.387 . S
H1590 C1597 0.950 . S
C1591 C1589 1.387 . S
C1591 C1593 1.390 . S
C1591 H1595 0.950 . S
H1592 C1588 0.950 . S
C1593 C1591 1.390 . S
C1593 C1594 1.387 . S
C1593 H1596 0.950 . S
C1594 C1593 1.387 . S
C1594 C1597 1.387 . S
H1595 C1591 0.950 . S
H1596 C1593 0.950 . S
C1597 C1588 1.390 . S
C1597 H1590 0.950 . S
C1597 C1594 1.387 . S
C1598 C1599 1.387 . S
C1598 H1602 0.950 . S
C1598 C1607 1.390 . S
C1599 C1598 1.387 . S
C1599 C1601 1.387 . S
H1600 C1607 0.950 . S
C1601 C1599 1.387 . S
C1601 C1603 1.390 . S
C1601 H1605 0.950 . S
H1602 C1598 0.950 . S
C1603 C1601 1.390 . S
C1603 C1604 1.387 . S
C1603 H1606 0.950 . S
C1604 C1603 1.387 . S
C1604 C1607 1.387 . S
H1605 C1601 0.950 . S
H1606 C1603 0.950 . S
C1607 C1598 1.390 . S
C1607 H1600 0.950 . S
C1607 C1604 1.387 . S
C1608 C1609 1.387 . S
C1608 H1612 0.950 . S
C1608 C1617 1.390 . S
C1609 C1608 1.387 . S
C1609 C1611 1.387 . S
H1610 C1617 0.950 . S
C1611 C1609 1.387 . S
C1611 C1613 1.390 . S
C1611 H1615 0.950 . S
H1612 C1608 0.950 . S
C1613 C1611 1.390 . S
C1613 C1614 1.387 . S
C1613 H1616 0.950 . S
C1614 C1613 1.387 . S
C1614 C1617 1.387 . S
H1615 C1611 0.950 . S
H1616 C1613 0.950 . S
C1617 C1608 1.390 . S
C1617 H1610 0.950 . S
C1617 C1614 1.387 . S
C1618 C1619 1.387 . S
C1618 H1622 0.950 . S
C1618 C1627 1.390 . S
C1619 C1618 1.387 . S
C1619 C1621 1.387 . S
H1620 C1627 0.950 . S
C1621 C1619 1.387 . S
C1621 C1623 1.390 . S
C1621 H1625 0.950 . S
H1622 C1618 0.950 . S
C1623 C1621 1.390 . S
C1623 C1624 1.387 . S
C1623 H1626 0.950 . S
C1624 C1623 1.387 . S
C1624 C1627 1.387 . S
H1625 C1621 0.950 . S
H1626 C1623 0.950 . S
C1627 C1618 1.390 . S
C1627 H1620 0.950 . S
C1627 C1624 1.387 . S
C1628 C1629 1.387 . S
C1628 H1632 0.950 . S
C1628 C1637 1.390 . S
C1629 C1628 1.387 . S
C1629 C1631 1.387 . S
H1630 C1637 0.950 . S
C1631 C1629 1.387 . S
C1631 C1633 1.390 . S
C1631 H1635 0.950 . S
H1632 C1628 0.950 . S
C1633 C1631 1.390 . S
C1633 C1634 1.387 . S
C1633 H1636 0.950 . S
C1634 C1633 1.387 . S
C1634 C1637 1.387 . S
H1635 C1631 0.950 . S
H1636 C1633 0.950 . S
C1637 C1628 1.390 . S
C1637 H1630 0.950 . S
C1637 C1634 1.387 . S
C1099 C253 1.504 . S
C1104 C409 1.443 . S
C1109 C272 1.540 . S
C1114 C493 1.478 . S
C1119 C234 1.495 . S
C1124 C573 1.508 . S
C1129 C215 1.496 . S
C1134 C489 1.513 . S
C1144 C577 1.443 . S
C1139 C177 1.512 . S
C1149 C196 1.466 . S
C1154 C405 1.478 1_556 S
C1164 C398 1.501 . S
C1159 C220 1.467 . S
C1174 C482 1.526 . S
C1169 C182 1.497 . S
C1179 C201 1.479 . S
C1184 C584 1.510 1_556 S
C1189 C258 1.459 . S
C1194 C500 1.488 . S
C1199 C277 1.451 . S
C1204 C566 1.478 . S
C1214 C416 1.470 . S
C1209 C239 1.437 . S
C1224 C661 1.442 . S
C1219 C25 1.505 . S
C1229 C44 1.540 . S
C1234 C745 1.478 . S
C1239 C6 1.495 . S
C1244 C825 1.508 . S
C1249 C329 1.498 . S
C1254 C741 1.512 . S
C1259 C291 1.511 . S
C1264 C829 1.444 . S
C1269 C310 1.466 . S
C1274 C657 1.477 . S
C1279 C334 1.471 . S
C1284 C650 1.504 . S
C1289 C296 1.493 . S
C1294 C734 1.524 . S
C1304 C836 1.507 . S
C1299 C315 1.475 . S
C1309 C30 1.457 . S
C1314 C752 1.487 . S
C1324 C818 1.477 . S
C1319 C49 1.450 . S
C1329 C11 1.433 . S
C1334 C668 1.467 . S
C1344 C913 1.442 . S
C1339 C139 1.505 . S
C1349 C158 1.541 . S
C1354 C997 1.478 . S
C1364 C1077 1.508 . S
C1359 C120 1.495 . S
C1374 C993 1.511 . S
C1369 C101 1.497 . S
C1384 C1081 1.444 . S
C1379 C63 1.511 . S
C1389 C82 1.465 . S
C1394 C909 1.478 . S
C1399 C106 1.470 . S
C1404 C902 1.503 . S
C1409 C68 1.493 . S
C1414 C986 1.523 . S
C1424 C1088 1.510 . S
C1419 C87 1.479 . S
C1429 C144 1.455 . S
C1434 C1004 1.485 . S
C1439 C163 1.454 . S
C1444 C1070 1.480 . S
C1449 C125 1.437 . S
C1454 C920 1.470 . S
C1459 C287 1.656 . S
C1464 C412 1.563 . S
C1474 C496 1.580 . S
C1469 C306 1.707 . S
C1479 C325 1.654 . S
C1484 C568 1.443 . S
C1489 C116 1.665 . S
C1494 C484 1.439 . S
C1499 C135 1.668 . S
C1504 C580 1.545 . S
C1514 C400 1.428 . S
C1509 C154 1.615 . S
C1519 C59 1.659 . S
C1524 C664 1.562 . S
C1529 C78 1.707 . S
C1534 C748 1.580 . S
C1539 C97 1.654 . S
C1544 C820 1.442 . S
C1549 C230 1.665 . S
C1554 C736 1.434 . S
C1564 C832 1.545 . S
C1559 C249 1.668 . S
C1569 C268 1.615 . S
C1574 C652 1.428 . S
C1579 C173 1.659 . S
C1584 C916 1.562 . S
C1589 C192 1.707 . S
C1594 C1000 1.580 . S
C1604 C1072 1.442 . S
C1599 C211 1.654 . S
C1609 C2 1.665 . S
C1614 C988 1.434 . S
C1619 C21 1.665 . S
C1624 C1084 1.547 . S
C1629 C40 1.613 . S
C1634 C904 1.423 . S
