# Generated by pormake.
# Topology nom, (4,4)-cn, num edge types: 1
# Building blocks:
#     Node 0, Type 0, BuildingBlock: NAHDIM_clean_linker_0, # of connection points: 4
#     Node 1, Type 0, BuildingBlock: NAHDIM_clean_linker_0, # of connection points: 4
#     Node 2, Type 0, BuildingBlock: NAHDIM_clean_linker_0, # of connection points: 4
#     Node 3, Type 0, BuildingBlock: NAHDIM_clean_linker_0, # of connection points: 4
#     Node 4, Type 0, BuildingBlock: NAHDIM_clean_linker_0, # of connection points: 4
#     Node 5, Type 0, BuildingBlock: NAHDIM_clean_linker_0, # of connection points: 4
#     Node 6, Type 1, BuildingBlock: CEKHIL_clean_sbu_0, # of connection points: 4
#     Node 7, Type 1, BuildingBlock: CEKHIL_clean_sbu_0, # of connection points: 4
#     Node 8, Type 1, BuildingBlock: CEKHIL_clean_sbu_0, # of connection points: 4
#     Node 9, Type 1, BuildingBlock: CEKHIL_clean_sbu_0, # of connection points: 4
#     Node 10, Type 1, BuildingBlock: CEKHIL_clean_sbu_0, # of connection points: 4
#     Node 11, Type 1, BuildingBlock: CEKHIL_clean_sbu_0, # of connection points: 4
#     Edge 12, Type (0, 1), BuildingBlock: XUDNAN_clean_linker_2, # of connection points: 2
#     Edge 13, Type (0, 1), BuildingBlock: XUDNAN_clean_linker_2, # of connection points: 2
#     Edge 14, Type (0, 1), BuildingBlock: XUDNAN_clean_linker_2, # of connection points: 2
#     Edge 15, Type (0, 1), BuildingBlock: XUDNAN_clean_linker_2, # of connection points: 2
#     Edge 16, Type (0, 1), BuildingBlock: XUDNAN_clean_linker_2, # of connection points: 2
#     Edge 17, Type (0, 1), BuildingBlock: XUDNAN_clean_linker_2, # of connection points: 2
#     Edge 18, Type (0, 1), BuildingBlock: XUDNAN_clean_linker_2, # of connection points: 2
#     Edge 19, Type (0, 1), BuildingBlock: XUDNAN_clean_linker_2, # of connection points: 2
#     Edge 20, Type (0, 1), BuildingBlock: XUDNAN_clean_linker_2, # of connection points: 2
#     Edge 21, Type (0, 1), BuildingBlock: XUDNAN_clean_linker_2, # of connection points: 2
#     Edge 22, Type (0, 1), BuildingBlock: XUDNAN_clean_linker_2, # of connection points: 2
#     Edge 23, Type (0, 1), BuildingBlock: XUDNAN_clean_linker_2, # of connection points: 2
#     Edge 24, Type (0, 1), BuildingBlock: XUDNAN_clean_linker_2, # of connection points: 2
#     Edge 25, Type (0, 1), BuildingBlock: XUDNAN_clean_linker_2, # of connection points: 2
#     Edge 26, Type (0, 1), BuildingBlock: XUDNAN_clean_linker_2, # of connection points: 2
#     Edge 27, Type (0, 1), BuildingBlock: XUDNAN_clean_linker_2, # of connection points: 2
#     Edge 28, Type (0, 1), BuildingBlock: XUDNAN_clean_linker_2, # of connection points: 2
#     Edge 29, Type (0, 1), BuildingBlock: XUDNAN_clean_linker_2, # of connection points: 2
#     Edge 30, Type (0, 1), BuildingBlock: XUDNAN_clean_linker_2, # of connection points: 2
#     Edge 31, Type (0, 1), BuildingBlock: XUDNAN_clean_linker_2, # of connection points: 2
#     Edge 32, Type (0, 1), BuildingBlock: XUDNAN_clean_linker_2, # of connection points: 2
#     Edge 33, Type (0, 1), BuildingBlock: XUDNAN_clean_linker_2, # of connection points: 2
#     Edge 34, Type (0, 1), BuildingBlock: XUDNAN_clean_linker_2, # of connection points: 2
#     Edge 35, Type (0, 1), BuildingBlock: XUDNAN_clean_linker_2, # of connection points: 2
# Relax obj value: 0.044
# Max RMSD: 0.128
# Mean RMSD: 0.097
data_MOF--net-nom--node1-CEKHIL_clean_sbu_0--node2-NAHDIM_clean_linker_0--edge1-XUDNAN_clean_linker_2
_symmetry_space_group_name_H-M    P1
_symmetry_Int_Tables_number       1
_symmetry_cell_setting            triclinic
loop_
_symmetry_equiv_pos_as_xyz
'x, y, z'
_cell_length_a     58.541984
_cell_length_b     57.851618
_cell_length_c     70.189957
_cell_angle_alpha  90.128903
_cell_angle_beta   90.101351
_cell_angle_gamma 121.17672
loop_
_atom_site_label
_atom_site_type_symbol
_atom_site_fract_x
_atom_site_fract_y
_atom_site_fract_z
_atom_type_partial_charge
C0 C 0.16785 0.61251 0.23944 0.0
C1 C 0.17749 0.61366 0.25997 0.0
C2 C 0.1343 0.5951 0.27636 0.0
C3 C 0.12364 0.56779 0.27152 0.0
C4 C 0.09673 0.5485 0.27517 0.0
C5 C 0.08015 0.55676 0.28363 0.0
C6 C 0.09094 0.58427 0.28854 0.0
C7 C 0.11799 0.60293 0.28514 0.0
C8 C 0.08598 0.51932 0.26993 0.0
C9 C 0.0739 0.59419 0.29717 0.0
C10 C 0.90373 0.49209 0.19052 0.0
C11 C 0.92134 0.50316 0.2075 0.0
C12 C 0.95517 0.49956 0.22536 0.0
C13 C 0.96108 0.52067 0.23822 0.0
C14 C 0.97821 0.52606 0.25379 0.0
C15 C 0.98895 0.50943 0.25704 0.0
C16 C 0.98316 0.48822 0.24414 0.0
C17 C 0.96658 0.48378 0.22833 0.0
C18 C 0.9848 0.54961 0.26675 0.0
C19 C 0.99433 0.47014 0.24716 0.0
C20 C 0.88168 0.45926 0.36027 0.0
C21 C 0.90047 0.48691 0.3607 0.0
C22 C 0.92749 0.49683 0.35683 0.0
C23 C 0.93603 0.47849 0.35282 0.0
C24 C 0.91722 0.45041 0.35257 0.0
C25 C 0.89019 0.44106 0.35606 0.0
C26 C 0.94688 0.52695 0.35719 0.0
C27 C 0.92573 0.43029 0.34861 0.0
C28 C 0.07066 0.57818 0.44698 0.0
C29 C 0.09008 0.57471 0.43433 0.0
C30 C 0.06119 0.54003 0.41089 0.0
C31 C 0.05438 0.55651 0.4006 0.0
C32 C 0.03764 0.54658 0.38458 0.0
C33 C 0.02737 0.51958 0.37862 0.0
C34 C 0.03397 0.50284 0.38893 0.0
C35 C 0.05082 0.51331 0.40494 0.0
C36 C 0.03105 0.56507 0.37393 0.0
C37 C 0.02337 0.47398 0.38291 0.0
C38 C 0.05139 0.53696 0.28695 0.0
C39 C 0.03391 0.52965 0.27145 0.0
C40 C 0.00624 0.51435 0.27395 0.0
C41 C 0.99558 0.5063 0.29249 0.0
C42 C 0.96788 0.49201 0.29568 0.0
C43 C 0.95767 0.48614 0.31409 0.0
C44 C 0.97473 0.49357 0.33 0.0
C45 C 0.96465 0.48887 0.3488 0.0
C46 C 0.98221 0.49641 0.36428 0.0
C47 C 0.00978 0.5091 0.36156 0.0
C48 C 0.02024 0.51422 0.34287 0.0
C49 C 0.04788 0.52733 0.33961 0.0
C50 C 0.05812 0.53418 0.32126 0.0
C51 C 0.0411 0.52808 0.30546 0.0
C52 C 0.01311 0.51334 0.3083 0.0
C53 C 0.00266 0.50666 0.32705 0.0
C54 C 0.83073 0.40886 0.38048 0.0
C55 C 0.83367 0.42544 0.3626 0.0
O56 O 0.16 0.61465 0.27276 0.0
O57 O 0.07748 0.54893 0.42652 0.0
O58 O 0.85585 0.45124 0.36419 0.0
O59 O 0.93877 0.4939 0.21003 0.0
H60 H 0.17894 0.59557 0.26287 0.0
H61 H 0.14817 0.59386 0.23706 0.0
H62 H 0.16585 0.63025 0.23648 0.0
H63 H 0.18217 0.61235 0.22915 0.0
H64 H 0.13613 0.56135 0.26494 0.0
H65 H 0.12645 0.62401 0.28889 0.0
H66 H 0.07162 0.51354 0.25794 0.0
H67 H 0.10204 0.51561 0.26558 0.0
H68 H 0.07503 0.50604 0.28217 0.0
H69 H 0.08409 0.61659 0.297 0.0
H70 H 0.05465 0.58567 0.28939 0.0
H71 H 0.06935 0.58742 0.31219 0.0
H72 H 0.93085 0.52544 0.20919 0.0
H73 H 0.9095 0.51007 0.18114 0.0
H74 H 0.91303 0.48349 0.18096 0.0
H75 H 0.86464 0.46814 0.20229 0.0
H76 H 0.95268 0.53329 0.2362 0.0
H77 H 0.96204 0.4676 0.21837 0.0
H78 H 0.975 0.54195 0.28075 0.0
H79 H 0.00667 0.56203 0.26929 0.0
H80 H 0.97796 0.5628 0.26079 0.0
H81 H 0.98662 0.45348 0.23653 0.0
H82 H 0.01644 0.48227 0.24614 0.0
H83 H 0.98925 0.4613 0.26167 0.0
H84 H 0.83584 0.41503 0.34999 0.0
H85 H 0.89381 0.5008 0.36399 0.0
H86 H 0.87602 0.41956 0.35562 0.0
H87 H 0.95978 0.53338 0.34435 0.0
H88 H 0.93657 0.53853 0.35789 0.0
H89 H 0.96 0.53219 0.36989 0.0
H90 H 0.90908 0.40908 0.35039 0.0
H91 H 0.93328 0.43288 0.33381 0.0
H92 H 0.94231 0.43404 0.35833 0.0
H93 H 0.09689 0.58997 0.42277 0.0
H94 H 0.0616 0.56213 0.45797 0.0
H95 H 0.08122 0.59825 0.45413 0.0
H96 H 0.05422 0.57695 0.43829 0.0
H97 H 0.06186 0.57715 0.40489 0.0
H98 H 0.05603 0.50065 0.4129 0.0
H99 H 0.03932 0.56844 0.3593 0.0
H100 H 0.00909 0.55553 0.37262 0.0
H101 H 0.03926 0.58501 0.38105 0.0
H102 H 0.03086 0.46373 0.39214 0.0
H103 H 0.00121 0.46252 0.38343 0.0
H104 H 0.02923 0.47343 0.36795 0.0
H105 H 0.04192 0.53693 0.25733 0.0
H106 H 0.95378 0.48578 0.28401 0.0
H107 H 0.93621 0.47583 0.31568 0.0
H108 H 0.97439 0.49333 0.37866 0.0
H109 H 0.06195 0.53289 0.35126 0.0
H110 H 0.07959 0.54467 0.31961 0.0
H111 H 0.82961 0.41913 0.39352 0.0
H112 H 0.81236 0.38852 0.37942 0.0
H113 H 0.84801 0.40609 0.38205 0.0
C114 C 0.39466 0.86235 0.5756 0.0
C115 C 0.40329 0.85429 0.55739 0.0
C116 C 0.41765 0.89156 0.53528 0.0
C117 C 0.44469 0.89994 0.53306 0.0
C118 C 0.46334 0.92643 0.52745 0.0
C119 C 0.45469 0.94476 0.52388 0.0
C120 C 0.42725 0.93595 0.52522 0.0
C121 C 0.409 0.90927 0.5307 0.0
C122 C 0.49236 0.93499 0.52564 0.0
C123 C 0.41732 0.95493 0.52139 0.0
C124 C 0.55013 0.05668 0.62818 0.0
C125 C 0.54419 0.07602 0.61737 0.0
C126 C 0.54258 0.06491 0.58358 0.0
C127 C 0.51679 0.05852 0.57844 0.0
C128 C 0.50453 0.04352 0.56185 0.0
C129 C 0.51836 0.03468 0.55028 0.0
C130 C 0.54447 0.04129 0.55542 0.0
C131 C 0.55641 0.05679 0.57186 0.0
C132 C 0.47686 0.03721 0.55662 0.0
C133 C 0.55966 0.03182 0.54366 0.0
C134 C 0.58084 0.14736 0.45295 0.0
C135 C 0.55441 0.13737 0.45854 0.0
C136 C 0.53612 0.10944 0.45932 0.0
C137 C 0.54484 0.09127 0.45503 0.0
C138 C 0.57133 0.10145 0.4487 0.0
C139 C 0.58888 0.12948 0.4474 0.0
C140 C 0.50773 0.09945 0.46522 0.0
C141 C 0.58139 0.08282 0.44389 0.0
C142 C 0.42548 0.89666 0.39712 0.0
C143 C 0.45179 0.91548 0.38688 0.0
C144 C 0.46693 0.96073 0.39847 0.0
C145 C 0.45384 0.9739 0.40451 0.0
C146 C 0.46431 0.99293 0.4194 0.0
C147 C 0.48867 0.99915 0.42812 0.0
C148 C 0.50281 0.98711 0.42121 0.0
C149 C 0.49179 0.96804 0.40641 0.0
C150 C 0.44893 0.00567 0.4263 0.0
C151 C 0.52921 0.99386 0.42981 0.0
C152 C 0.4745 0.97353 0.5199 0.0
C153 C 0.48714 0.99055 0.53548 0.0
C154 C 0.50536 0.01809 0.53301 0.0
C155 C 0.51095 0.0292 0.51448 0.0
C156 C 0.52867 0.05694 0.5115 0.0
C157 C 0.53414 0.06764 0.49321 0.0
C158 C 0.52185 0.05108 0.47716 0.0
C159 C 0.52693 0.06187 0.45851 0.0
C160 C 0.51532 0.0446 0.44284 0.0
C161 C 0.49854 0.01673 0.4453 0.0
C162 C 0.49235 0.00575 0.46387 0.0
C163 C 0.47478 0.97793 0.46688 0.0
C164 C 0.46885 0.96731 0.4852 0.0
C165 C 0.48045 0.98406 0.50122 0.0
C166 C 0.49852 0.01208 0.49852 0.0
C167 C 0.50418 0.02299 0.47984 0.0
C168 C 0.6338 0.20239 0.47439 0.0
C169 C 0.60463 0.19091 0.46869 0.0
O170 O 0.39949 0.86659 0.5418 0.0
O171 O 0.4551 0.94092 0.38511 0.0
O172 O 0.59897 0.1742 0.45298 0.0
O173 O 0.55513 0.07982 0.5993 0.0
H174 H 0.42475 0.86118 0.55927 0.0
H175 H 0.40772 0.88444 0.57804 0.0
H176 H 0.37371 0.85755 0.57445 0.0
H177 H 0.39649 0.85167 0.5881 0.0
H178 H 0.45128 0.88585 0.53563 0.0
H179 H 0.38799 0.90239 0.53212 0.0
H180 H 0.50416 0.95013 0.53686 0.0
H181 H 0.4955 0.91771 0.5271 0.0
H182 H 0.5002 0.94475 0.51162 0.0
H183 H 0.39544 0.94511 0.52352 0.0
H184 H 0.42767 0.97278 0.53096 0.0
H185 H 0.42209 0.96236 0.50651 0.0
H186 H 0.52218 0.06676 0.61666 0.0
H187 H 0.54003 0.05116 0.64223 0.0
H188 H 0.54265 0.03772 0.61987 0.0
H189 H 0.57199 0.06604 0.63036 0.0
H190 H 0.50644 0.06572 0.5871 0.0
H191 H 0.57647 0.06219 0.57587 0.0
H192 H 0.46264 0.0151 0.55768 0.0
H193 H 0.46984 0.0477 0.56606 0.0
H194 H 0.47652 0.04317 0.54164 0.0
H195 H 0.57861 0.03636 0.55063 0.0
H196 H 0.54718 0.00971 0.54111 0.0
H197 H 0.56447 0.04191 0.52957 0.0
H198 H 0.59206 0.17921 0.48107 0.0
H199 H 0.5482 0.15147 0.46234 0.0
H200 H 0.60931 0.13758 0.44285 0.0
H201 H 0.50499 0.09285 0.48031 0.0
H202 H 0.50273 0.11547 0.46395 0.0
H203 H 0.49347 0.08182 0.45641 0.0
H204 H 0.60319 0.09404 0.44101 0.0
H205 H 0.57714 0.0685 0.45577 0.0
H206 H 0.57079 0.07074 0.43106 0.0
H207 H 0.46803 0.91638 0.39572 0.0
H208 H 0.4223 0.87604 0.39831 0.0
H209 H 0.4261 0.9044 0.41173 0.0
H210 H 0.40833 0.89546 0.38937 0.0
H211 H 0.43486 0.96843 0.39804 0.0
H212 H 0.50256 0.95878 0.40111 0.0
H213 H 0.4429 0.99985 0.44134 0.0
H214 H 0.46188 0.02802 0.42587 0.0
H215 H 0.43075 0.99942 0.4176 0.0
H216 H 0.53864 0.98429 0.42192 0.0
H217 H 0.54315 0.01608 0.42995 0.0
H218 H 0.52616 0.98684 0.44481 0.0
H219 H 0.48269 0.98222 0.54976 0.0
H220 H 0.53854 0.07072 0.52329 0.0
H221 H 0.54816 0.08911 0.49184 0.0
H222 H 0.51971 0.05289 0.42855 0.0
H223 H 0.46526 0.96404 0.4551 0.0
H224 H 0.45513 0.94578 0.48666 0.0
H225 H 0.64733 0.21466 0.46263 0.0
H226 H 0.63883 0.21524 0.48734 0.0
H227 H 0.63718 0.1856 0.4776 0.0
C228 C 0.53075 0.38993 0.73348 0.0
C229 C 0.55968 0.40789 0.72681 0.0
C230 C 0.55474 0.43297 0.70164 0.0
C231 C 0.57196 0.46033 0.70595 0.0
C232 C 0.56501 0.4795 0.70127 0.0
C233 C 0.54009 0.47089 0.69242 0.0
C234 C 0.52296 0.44322 0.68767 0.0
C235 C 0.53084 0.42468 0.69202 0.0
C236 C 0.58398 0.5088 0.70624 0.0
C237 C 0.49588 0.43296 0.67871 0.0
C238 C 0.433 0.5248 0.7939 0.0
C239 C 0.4385 0.5157 0.77563 0.0
C240 C 0.47507 0.52473 0.75424 0.0
C241 C 0.45872 0.50495 0.74073 0.0
C242 C 0.46965 0.50061 0.72432 0.0
C243 C 0.49741 0.51701 0.72092 0.0
C244 C 0.51388 0.53723 0.7343 0.0
C245 C 0.50248 0.54066 0.75086 0.0
C246 C 0.45145 0.47833 0.71067 0.0
C247 C 0.54352 0.55514 0.73111 0.0
C248 C 0.43529 0.5661 0.62645 0.0
C249 C 0.42631 0.53847 0.62754 0.0
C250 C 0.44448 0.52955 0.6279 0.0
C251 C 0.47221 0.54866 0.62693 0.0
C252 C 0.48123 0.57637 0.62455 0.0
C253 C 0.46256 0.58473 0.62421 0.0
C254 C 0.43404 0.49973 0.62989 0.0
C255 C 0.5106 0.59715 0.62309 0.0
C256 C 0.51047 0.46279 0.52776 0.0
C257 C 0.53293 0.46335 0.53946 0.0
C258 C 0.53895 0.49456 0.56557 0.0
C259 C 0.5151 0.47674 0.57518 0.0
C260 C 0.50742 0.48506 0.5915 0.0
C261 C 0.52395 0.51168 0.59849 0.0
C262 C 0.54796 0.52965 0.58894 0.0
C263 C 0.55514 0.52082 0.57261 0.0
C264 C 0.48162 0.46534 0.60131 0.0
C265 C 0.56604 0.55814 0.59606 0.0
C266 C 0.5309 0.49025 0.68953 0.0
C267 C 0.52115 0.49707 0.70541 0.0
C268 C 0.50919 0.51252 0.70358 0.0
C269 C 0.50657 0.52127 0.68534 0.0
C270 C 0.49391 0.53611 0.68286 0.0
C271 C 0.48933 0.54253 0.66473 0.0
C272 C 0.49782 0.53494 0.6484 0.0
C273 C 0.49153 0.53962 0.62989 0.0
C274 C 0.50108 0.53269 0.61395 0.0
C275 C 0.51623 0.52044 0.616 0.0
C276 C 0.52182 0.51465 0.63441 0.0
C277 C 0.5361 0.50143 0.63699 0.0
C278 C 0.53966 0.49395 0.65509 0.0
C279 C 0.52925 0.49959 0.67128 0.0
C280 C 0.51638 0.5145 0.66913 0.0
C281 C 0.51234 0.52172 0.65064 0.0
C282 C 0.40775 0.5845 0.65851 0.0
C283 C 0.3976 0.56645 0.64071 0.0
O284 O 0.56021 0.41413 0.70771 0.0
O285 O 0.54699 0.48745 0.54953 0.0
O286 O 0.41816 0.57529 0.62759 0.0
O287 O 0.46525 0.52886 0.77064 0.0
H288 H 0.56911 0.42684 0.73544 0.0
H289 H 0.51992 0.40094 0.73213 0.0
H290 H 0.52022 0.37119 0.72474 0.0
H291 H 0.53021 0.38438 0.74869 0.0
H292 H 0.5906 0.46653 0.71325 0.0
H293 H 0.51775 0.40341 0.6888 0.0
H294 H 0.57593 0.51445 0.71853 0.0
H295 H 0.60413 0.51283 0.71012 0.0
H296 H 0.58586 0.52193 0.69408 0.0
H297 H 0.48356 0.41053 0.67853 0.0
H298 H 0.48484 0.44086 0.68652 0.0
H299 H 0.49842 0.44018 0.6638 0.0
H300 H 0.42791 0.49331 0.77394 0.0
H301 H 0.42439 0.5066 0.80348 0.0
H302 H 0.45263 0.53605 0.80179 0.0
H303 H 0.41094 0.54318 0.78557 0.0
H304 H 0.4374 0.49258 0.74292 0.0
H305 H 0.51497 0.55592 0.76127 0.0
H306 H 0.44907 0.48732 0.69743 0.0
H307 H 0.46022 0.46596 0.7067 0.0
H308 H 0.43132 0.4648 0.71679 0.0
H309 H 0.55314 0.57158 0.74189 0.0
H310 H 0.55302 0.5428 0.73182 0.0
H311 H 0.54736 0.56427 0.7167 0.0
H312 H 0.39097 0.54573 0.6458 0.0
H313 H 0.40512 0.5238 0.62817 0.0
H314 H 0.46926 0.60598 0.62293 0.0
H315 H 0.43996 0.49582 0.644 0.0
H316 H 0.41194 0.4873 0.62865 0.0
H317 H 0.44295 0.4931 0.61881 0.0
H318 H 0.51439 0.61781 0.62066 0.0
H319 H 0.52087 0.5972 0.63643 0.0
H320 H 0.51953 0.59176 0.61123 0.0
H321 H 0.52422 0.44611 0.54958 0.0
H322 H 0.49932 0.44354 0.51963 0.0
H323 H 0.49609 0.46427 0.53719 0.0
H324 H 0.51877 0.47996 0.51761 0.0
H325 H 0.50223 0.4563 0.5701 0.0
H326 H 0.57348 0.53447 0.56517 0.0
H327 H 0.4859 0.46146 0.61598 0.0
H328 H 0.46874 0.47413 0.60249 0.0
H329 H 0.47038 0.44574 0.59361 0.0
H330 H 0.58426 0.56955 0.58721 0.0
H331 H 0.55505 0.56906 0.59603 0.0
H332 H 0.57211 0.55773 0.61099 0.0
H333 H 0.52202 0.48942 0.71933 0.0
H334 H 0.48678 0.54233 0.6949 0.0
H335 H 0.47885 0.55336 0.66367 0.0
H336 H 0.49582 0.53594 0.5998 0.0
H337 H 0.5442 0.49619 0.62502 0.0
H338 H 0.55035 0.48333 0.65622 0.0
H339 H 0.41795 0.60622 0.65469 0.0
H340 H 0.39098 0.57948 0.66836 0.0
H341 H 0.42244 0.58115 0.66613 0.0
C342 C 0.20286 0.5565 0.87766 0.0
C343 C 0.17957 0.5586 0.87202 0.0
C344 C 0.13086 0.53226 0.87316 0.0
C345 C 0.12679 0.55192 0.8648 0.0
C346 C 0.10105 0.54587 0.85976 0.0
C347 C 0.07905 0.51936 0.86251 0.0
C348 C 0.08314 0.4995 0.87081 0.0
C349 C 0.10898 0.50638 0.87629 0.0
C350 C 0.09737 0.56789 0.85163 0.0
C351 C 0.06024 0.47098 0.87388 0.0
C352 C 0.89877 0.48941 0.92288 0.0
C353 C 0.91426 0.47661 0.93034 0.0
C354 C 0.95738 0.49676 0.91426 0.0
C355 C 0.95619 0.47375 0.90657 0.0
C356 C 0.97297 0.47602 0.8915 0.0
C357 C 0.99123 0.50183 0.88396 0.0
C358 C 0.99292 0.5251 0.89203 0.0
C359 C 0.97614 0.52225 0.90726 0.0
C360 C 0.97126 0.45085 0.88366 0.0
C361 C 0.01228 0.55293 0.88445 0.0
C362 C 0.89025 0.46247 0.78044 0.0
C363 C 0.8957 0.44344 0.78804 0.0
C364 C 0.92214 0.44993 0.79078 0.0
C365 C 0.94345 0.47629 0.7864 0.0
C366 C 0.93791 0.49521 0.7782 0.0
C367 C 0.9113 0.4878 0.77499 0.0
C368 C 0.92721 0.42873 0.79868 0.0
C369 C 0.95999 0.52348 0.77332 0.0
C370 C 0.12731 0.51645 0.72582 0.0
C371 C 0.11139 0.52906 0.71873 0.0
C372 C 0.06756 0.50642 0.73376 0.0
C373 C 0.04964 0.48034 0.74027 0.0
C374 C 0.0324 0.47598 0.75556 0.0
C375 C 0.03274 0.49829 0.7642 0.0
C376 C 0.05008 0.52465 0.75711 0.0
C377 C 0.06735 0.52844 0.74198 0.0
C378 C 0.01407 0.44761 0.76266 0.0
C379 C 0.05031 0.54881 0.76551 0.0
C380 C 0.05171 0.51253 0.85709 0.0
C381 C 0.03461 0.51079 0.87164 0.0
C382 C 0.00859 0.50441 0.86768 0.0
C383 C 0.99935 0.50003 0.84862 0.0
C384 C 0.97353 0.4943 0.84409 0.0
C385 C 0.96441 0.48948 0.82536 0.0
C386 C 0.98071 0.4901 0.81041 0.0
C387 C 0.97134 0.4845 0.79137 0.0
C388 C 0.98858 0.48682 0.77673 0.0
C389 C 0.01496 0.49419 0.78058 0.0
C390 C 0.02423 0.49844 0.79966 0.0
C391 C 0.05014 0.50439 0.80419 0.0
C392 C 0.0591 0.50871 0.82299 0.0
C393 C 0.04266 0.50768 0.83796 0.0
C394 C 0.01639 0.50149 0.83373 0.0
C395 C 0.0071 0.49664 0.81459 0.0
C396 C 0.82874 0.45699 0.7927 0.0
C397 C 0.84382 0.44205 0.79031 0.0
O398 O 0.1554 0.53746 0.87853 0.0
O399 O 0.08438 0.50963 0.7193 0.0
O400 O 0.86493 0.45697 0.778 0.0
O401 O 0.94142 0.49517 0.92883 0.0
H402 H 0.18229 0.57896 0.87424 0.0
H403 H 0.19608 0.54167 0.88981 0.0
H404 H 0.21708 0.55015 0.85134 0.0
H405 H 0.21533 0.57467 0.88702 0.0
H406 H 0.14349 0.57214 0.86243 0.0
H407 H 0.1123 0.49138 0.88279 0.0
H408 H 0.08074 0.56822 0.85894 0.0
H409 H 0.11573 0.58817 0.853 0.0
H410 H 0.09212 0.56382 0.8363 0.0
H411 H 0.06719 0.45716 0.87817 0.0
H412 H 0.04705 0.47094 0.88525 0.0
H413 H 0.04809 0.46303 0.86067 0.0
H414 H 0.90833 0.45832 0.92156 0.0
H415 H 0.90393 0.50788 0.93119 0.0
H416 H 0.90385 0.49511 0.90769 0.0
H417 H 0.87692 0.47486 0.92386 0.0
H418 H 0.94259 0.45406 0.91255 0.0
H419 H 0.97722 0.53992 0.91355 0.0
H420 H 0.99139 0.45336 0.88351 0.0
H421 H 0.95761 0.43259 0.89208 0.0
H422 H 0.96393 0.44756 0.86873 0.0
H423 H 0.01004 0.56884 0.89154 0.0
H424 H 0.03304 0.55762 0.88667 0.0
H425 H 0.00924 0.55354 0.86888 0.0
H426 H 0.85139 0.44096 0.80466 0.0
H427 H 0.87934 0.42349 0.79172 0.0
H428 H 0.90677 0.50215 0.76885 0.0
H429 H 0.93283 0.43308 0.81395 0.0
H430 H 0.90925 0.40812 0.79757 0.0
H431 H 0.94398 0.42905 0.79107 0.0
H432 H 0.95219 0.53651 0.76882 0.0
H433 H 0.9734 0.53299 0.7858 0.0
H434 H 0.97217 0.52262 0.76155 0.0
H435 H 0.11638 0.54602 0.7287 0.0
H436 H 0.1491 0.53134 0.7251 0.0
H437 H 0.12214 0.51022 0.74092 0.0
H438 H 0.12237 0.4982 0.71733 0.0
H439 H 0.04965 0.46342 0.73362 0.0
H440 H 0.08035 0.54856 0.73644 0.0
H441 H 0.01729 0.44661 0.77816 0.0
H442 H 0.99299 0.44197 0.76063 0.0
H443 H 0.01724 0.4326 0.75511 0.0
H444 H 0.06341 0.56764 0.75744 0.0
H445 H 0.02974 0.5452 0.7657 0.0
H446 H 0.05749 0.55183 0.78047 0.0
H447 H 0.04161 0.51429 0.88629 0.0
H448 H 0.96004 0.49345 0.85498 0.0
H449 H 0.94436 0.48524 0.82277 0.0
H450 H 0.98145 0.48309 0.76212 0.0
H451 H 0.06373 0.50561 0.79325 0.0
H452 H 0.07915 0.51298 0.82562 0.0
H453 H 0.81268 0.44698 0.80349 0.0
H454 H 0.84273 0.47801 0.79762 0.0
H455 H 0.81977 0.45777 0.77892 0.0
C456 C 0.4979 0.86431 0.90942 0.0
C457 C 0.4753 0.85486 0.92393 0.0
C458 C 0.49151 0.88952 0.94806 0.0
C459 C 0.47136 0.89561 0.94979 0.0
C460 C 0.47751 0.92158 0.95522 0.0
C461 C 0.50443 0.94186 0.95875 0.0
C462 C 0.52474 0.93553 0.95731 0.0
C463 C 0.51789 0.90919 0.95232 0.0
C464 C 0.45531 0.92746 0.95693 0.0
C465 C 0.55374 0.9567 0.96057 0.0
C466 C 0.50606 0.04478 0.8551 0.0
C467 C 0.53182 0.0645 0.86569 0.0
C468 C 0.52519 0.05686 0.89991 0.0
C469 C 0.54648 0.05348 0.90493 0.0
C470 C 0.5456 0.03987 0.9217 0.0
C471 C 0.52292 0.0294 0.93365 0.0
C472 C 0.50172 0.03339 0.92882 0.0
C473 C 0.50337 0.0475 0.91213 0.0
C474 C 0.56882 0.03649 0.9266 0.0
C475 C 0.47715 0.02234 0.94111 0.0
C476 C 0.58125 0.14346 0.03277 0.0
C477 C 0.59727 0.13461 0.02472 0.0
C478 C 0.58776 0.10692 0.02282 0.0
C479 C 0.56133 0.08779 0.02855 0.0
C480 C 0.54543 0.09679 0.03716 0.0
C481 C 0.55584 0.12462 0.03947 0.0
C482 C 0.60585 0.09818 0.01444 0.0
C483 C 0.51723 0.07709 0.04346 0.0
C484 C 0.54118 0.90724 0.09011 0.0
C485 C 0.52174 0.91744 0.09121 0.0
C486 C 0.53669 0.96338 0.08253 0.0
C487 C 0.56116 0.98283 0.07483 0.0
C488 C 0.5624 0.00026 0.06043 0.0
C489 C 0.5386 0.99862 0.05413 0.0
C490 C 0.514 0.98017 0.06292 0.0
C491 C 0.51327 0.96241 0.07684 0.0
C492 C 0.589 0.01968 0.05147 0.0
C493 C 0.48839 0.97862 0.0572 0.0
C494 C 0.51153 0.96996 0.96313 0.0
C495 C 0.51305 0.98625 0.94792 0.0
C496 C 0.52098 0.01332 0.95072 0.0
C497 C 0.52762 0.02463 0.96925 0.0
C498 C 0.53603 0.05187 0.97258 0.0
C499 C 0.54292 0.06289 0.99082 0.0
C500 C 0.54207 0.04721 0.00642 0.0
C501 C 0.55009 0.05852 0.02489 0.0
C502 C 0.54834 0.04216 0.04015 0.0
C503 C 0.53921 0.01475 0.03745 0.0
C504 C 0.53174 0.00326 0.01899 0.0
C505 C 0.52317 0.97595 0.01564 0.0
C506 C 0.5161 0.96489 0.99743 0.0
C507 C 0.51774 0.98079 0.98179 0.0
C508 C 0.52603 0.00828 0.98483 0.0
C509 C 0.53315 0.01956 0.00345 0.0
C510 C 0.58103 0.1992 0.01593 0.0
C511 C 0.59911 0.18763 0.01866 0.0
O512 O 0.48593 0.86496 0.9418 0.0
O513 O 0.53586 0.94497 0.09486 0.0
O514 O 0.58988 0.17012 0.03403 0.0
O515 O 0.52544 0.0696 0.88363 0.0
H516 H 0.46242 0.86278 0.91925 0.0
H517 H 0.50923 0.88671 0.90855 0.0
H518 H 0.51191 0.85767 0.91366 0.0
H519 H 0.48964 0.85604 0.89506 0.0
H520 H 0.45087 0.88003 0.9468 0.0
H521 H 0.53322 0.90411 0.95098 0.0
H522 H 0.45712 0.9413 0.94531 0.0
H523 H 0.43525 0.90882 0.95598 0.0
H524 H 0.45696 0.93776 0.97068 0.0
H525 H 0.56726 0.94927 0.95678 0.0
H526 H 0.55932 0.975 0.95201 0.0
H527 H 0.55696 0.96278 0.9758 0.0
H528 H 0.54406 0.05491 0.86677 0.0
H529 H 0.51067 0.04022 0.84071 0.0
H530 H 0.49501 0.02555 0.86314 0.0
H531 H 0.49303 0.0534 0.85358 0.0
H532 H 0.56391 0.06172 0.89587 0.0
H533 H 0.48724 0.05062 0.90824 0.0
H534 H 0.56241 0.0148 0.92554 0.0
H535 H 0.58608 0.04818 0.91695 0.0
H536 H 0.57539 0.04307 0.94151 0.0
H537 H 0.46177 0.02583 0.9348 0.0
H538 H 0.46829 0.00029 0.94321 0.0
H539 H 0.48274 0.03209 0.95536 0.0
H540 H 0.5979 0.17654 0.0053 0.0
H541 H 0.6172 0.14942 0.01997 0.0
H542 H 0.5438 0.13182 0.04584 0.0
H543 H 0.59957 0.09117 0.99957 0.0
H544 H 0.62704 0.11497 0.01423 0.0
H545 H 0.60443 0.0811 0.02265 0.0
H546 H 0.50674 0.08744 0.04839 0.0
H547 H 0.50566 0.06323 0.03154 0.0
H548 H 0.51755 0.06459 0.0553 0.0
H549 H 0.51193 0.91318 0.07692 0.0
H550 H 0.53008 0.88497 0.08804 0.0
H551 H 0.55479 0.91676 0.0778 0.0
H552 H 0.55358 0.91251 0.10321 0.0
H553 H 0.57912 0.98343 0.07949 0.0
H554 H 0.49444 0.94755 0.08318 0.0
H555 H 0.58781 0.01654 0.0358 0.0
H556 H 0.59409 0.04075 0.05413 0.0
H557 H 0.60536 0.01729 0.0572 0.0
H558 H 0.47212 0.96688 0.06758 0.0
H559 H 0.49155 0.99921 0.05593 0.0
H560 H 0.48184 0.96865 0.04306 0.0
H561 H 0.50839 0.97782 0.93362 0.0
H562 H 0.53744 0.06501 0.96109 0.0
H563 H 0.54913 0.08395 0.9925 0.0
H564 H 0.55453 0.05096 0.05426 0.0
H565 H 0.52191 0.96277 0.02703 0.0
H566 H 0.50955 0.94373 0.99575 0.0
H567 H 0.58146 0.21064 0.02881 0.0
H568 H 0.58756 0.21287 0.00341 0.0
H569 H 0.56016 0.18251 0.01341 0.0
C570 C 0.64832 0.46765 0.08518 0.0
C571 C 0.6226 0.46683 0.08415 0.0
C572 C 0.59067 0.46427 0.10724 0.0
C573 C 0.56459 0.44554 0.11287 0.0
C574 C 0.54732 0.45407 0.11914 0.0
C575 C 0.55665 0.48202 0.12006 0.0
C576 C 0.58352 0.50107 0.11543 0.0
C577 C 0.60028 0.49198 0.10915 0.0
C578 C 0.519 0.43328 0.12444 0.0
C579 C 0.59443 0.53105 0.11685 0.0
C580 C 0.4527 0.54901 0.0257 0.0
C581 C 0.46099 0.53235 0.03641 0.0
C582 C 0.47281 0.52674 0.06835 0.0
C583 C 0.50039 0.54212 0.07146 0.0
C584 C 0.51241 0.53533 0.08593 0.0
C585 C 0.49647 0.5123 0.09733 0.0
C586 C 0.46873 0.49593 0.09356 0.0
C587 C 0.45714 0.50371 0.07933 0.0
C588 C 0.54208 0.55321 0.0893 0.0
C589 C 0.45122 0.47068 0.1049 0.0
C590 C 0.45739 0.57767 0.19985 0.0
C591 C 0.48289 0.59235 0.19182 0.0
C592 C 0.49809 0.58025 0.18881 0.0
C593 C 0.48717 0.55269 0.19354 0.0
C594 C 0.46166 0.53808 0.20213 0.0
C595 C 0.44727 0.55096 0.20546 0.0
C596 C 0.52565 0.59685 0.18038 0.0
C597 C 0.44938 0.50873 0.20741 0.0
C598 C 0.61677 0.48998 0.25002 0.0
C599 C 0.58848 0.48012 0.25723 0.0
C600 C 0.57042 0.50687 0.24546 0.0
C601 C 0.58157 0.53287 0.23803 0.0
C602 C 0.56845 0.53844 0.22361 0.0
C603 C 0.54328 0.51755 0.2169 0.0
C604 C 0.53115 0.49163 0.2253 0.0
C605 C 0.54493 0.48654 0.23944 0.0
C606 C 0.5818 0.56638 0.21513 0.0
C607 C 0.50388 0.46915 0.21904 0.0
C608 C 0.53822 0.49151 0.1252 0.0
C609 C 0.5243 0.49517 0.11045 0.0
C610 C 0.50864 0.50654 0.1139 0.0
C611 C 0.50649 0.51423 0.13268 0.0
C612 C 0.4914 0.52627 0.13667 0.0
C613 C 0.48958 0.53397 0.15512 0.0
C614 C 0.50322 0.53048 0.17029 0.0
C615 C 0.5021 0.53898 0.18903 0.0
C616 C 0.51545 0.53464 0.20385 0.0
C617 C 0.53024 0.52231 0.20046 0.0
C618 C 0.5322 0.51438 0.18173 0.0
C619 C 0.54765 0.50275 0.17772 0.0
C620 C 0.54953 0.49509 0.15925 0.0
C621 C 0.53598 0.4987 0.14408 0.0
C622 C 0.52014 0.5102 0.14781 0.0
C623 C 0.51846 0.5183 0.16663 0.0
C624 C 0.40703 0.5805 0.1817 0.0
C625 C 0.43572 0.60096 0.18809 0.0
O626 O 0.60595 0.45517 0.09973 0.0
O627 O 0.58469 0.50184 0.2583 0.0
O628 O 0.44231 0.58897 0.20245 0.0
O629 O 0.46093 0.53531 0.05601 0.0
H630 H 0.62355 0.48538 0.07863 0.0
H631 H 0.66408 0.4898 0.0854 0.0
H632 H 0.65125 0.46425 0.10059 0.0
H633 H 0.64526 0.44124 0.06276 0.0
H634 H 0.55751 0.42418 0.11169 0.0
H635 H 0.62086 0.50654 0.10562 0.0
H636 H 0.50497 0.43486 0.11464 0.0
H637 H 0.51512 0.41235 0.12375 0.0
H638 H 0.51474 0.43727 0.1391 0.0
H639 H 0.61591 0.54324 0.11303 0.0
H640 H 0.58304 0.53665 0.10721 0.0
H641 H 0.59191 0.53637 0.13159 0.0
H642 H 0.45161 0.51086 0.03178 0.0
H643 H 0.48779 0.57713 0.01047 0.0
H644 H 0.43353 0.53387 0.01835 0.0
H645 H 0.4426 0.55558 0.03623 0.0
H646 H 0.51249 0.55996 0.063 0.0
H647 H 0.43578 0.49201 0.07685 0.0
H648 H 0.55206 0.54201 0.08531 0.0
H649 H 0.551 0.57205 0.08077 0.0
H650 H 0.54628 0.55871 0.10461 0.0
H651 H 0.43139 0.45778 0.09807 0.0
H652 H 0.46102 0.45871 0.1066 0.0
H653 H 0.44809 0.47636 0.11935 0.0
H654 H 0.44891 0.6055 0.17549 0.0
H655 H 0.49093 0.61331 0.18803 0.0
H656 H 0.42765 0.53998 0.2119 0.0
H657 H 0.52525 0.59053 0.16539 0.0
H658 H 0.5329 0.6188 0.18053 0.0
H659 H 0.54008 0.59347 0.18832 0.0
H660 H 0.42846 0.49962 0.2124 0.0
H661 H 0.44968 0.49699 0.19497 0.0
H662 H 0.46133 0.50686 0.21894 0.0
H663 H 0.57491 0.46505 0.24645 0.0
H664 H 0.62118 0.47348 0.25071 0.0
H665 H 0.61845 0.49646 0.23494 0.0
H666 H 0.6319 0.50763 0.25841 0.0
H667 H 0.60108 0.54854 0.24303 0.0
H668 H 0.53583 0.46665 0.24574 0.0
H669 H 0.58419 0.5652 0.19952 0.0
H670 H 0.56902 0.57514 0.21731 0.0
H671 H 0.60173 0.5802 0.22155 0.0
H672 H 0.49582 0.45133 0.22858 0.0
H673 H 0.48966 0.47643 0.21868 0.0
H674 H 0.50514 0.46264 0.20439 0.0
H675 H 0.52638 0.48991 0.09597 0.0
H676 H 0.48079 0.52991 0.12558 0.0
H677 H 0.47746 0.54288 0.15729 0.0
H678 H 0.5143 0.54093 0.21821 0.0
H679 H 0.55863 0.49957 0.18878 0.0
H680 H 0.56177 0.48632 0.15701 0.0
H681 H 0.39249 0.57831 0.19277 0.0
H682 H 0.40225 0.58663 0.168 0.0
H683 H 0.40476 0.56042 0.17929 0.0
Co684 Co 0.62642 0.39146 0.40371 0.0
O685 O 0.64424 0.38419 0.38381 0.0
O686 O 0.66101 0.42348 0.39877 0.0
C687 C 0.61459 0.35376 0.42029 0.0
O688 O 0.614 0.40587 0.42542 0.0
Co689 Co 0.56601 0.35328 0.41002 0.0
O690 O 0.57373 0.37224 0.43488 0.0
C691 C 0.58457 0.39139 0.37781 0.0
C692 C 0.66395 0.40876 0.38609 0.0
C693 C 0.59447 0.39552 0.43732 0.0
O694 O 0.60867 0.40245 0.38408 0.0
O695 O 0.56493 0.3704 0.38542 0.0
O696 O 0.63814 0.37506 0.42244 0.0
O697 O 0.59972 0.35494 0.40717 0.0
Co698 Co 0.24264 0.61998 0.57327 0.0
O699 O 0.26538 0.62192 0.59366 0.0
O700 O 0.24217 0.58624 0.575 0.0
C701 C 0.27322 0.6605 0.56128 0.0
O702 O 0.21849 0.61142 0.54993 0.0
Co703 Co 0.2245 0.66104 0.57 0.0
O704 O 0.21886 0.6495 0.54298 0.0
C705 C 0.19875 0.6172 0.59828 0.0
C706 C 0.25966 0.59794 0.58862 0.0
C707 C 0.21432 0.62619 0.53844 0.0
O708 O 0.21162 0.60654 0.59145 0.0
O709 O 0.20209 0.63966 0.59232 0.0
O710 O 0.27365 0.63892 0.55694 0.0
O711 O 0.25531 0.65733 0.57352 0.0
Co712 Co 0.63938 0.25424 0.74574 0.0
O713 O 0.64421 0.28437 0.73067 0.0
O714 O 0.61058 0.26043 0.75041 0.0
C715 C 0.68208 0.27597 0.75618 0.0
O716 O 0.62762 0.22364 0.76468 0.0
Co717 Co 0.66925 0.22431 0.74003 0.0
O718 O 0.65259 0.20466 0.76397 0.0
C719 C 0.62723 0.21624 0.71283 0.0
C720 C 0.62277 0.28078 0.7389 0.0
C721 C 0.63403 0.20705 0.77126 0.0
O722 O 0.61948 0.22837 0.72413 0.0
O723 O 0.648 0.21477 0.71578 0.0
O724 O 0.66424 0.27929 0.7646 0.0
O725 O 0.67392 0.26011 0.74149 0.0
Co726 Co 0.39061 0.61765 0.9086 0.0
O727 O 0.36637 0.61904 0.89092 0.0
O728 O 0.35563 0.58518 0.91072 0.0
C729 C 0.40709 0.66037 0.91913 0.0
O730 O 0.40971 0.60965 0.92955 0.0
Co731 Co 0.45078 0.65417 0.90425 0.0
O732 O 0.45232 0.64389 0.93094 0.0
C733 C 0.42192 0.60803 0.87828 0.0
C734 C 0.34821 0.59586 0.89762 0.0
C735 C 0.43263 0.62254 0.9378 0.0
O736 O 0.40115 0.59986 0.88874 0.0
O737 O 0.44364 0.63058 0.88113 0.0
O738 O 0.38532 0.64036 0.92613 0.0
O739 O 0.41761 0.6543 0.90522 0.0
Co740 Co 0.77608 0.39825 0.07253 0.0
O741 O 0.74502 0.39525 0.08459 0.0
O742 O 0.77579 0.43109 0.06894 0.0
C743 C 0.75398 0.3577 0.05806 0.0
O744 O 0.80964 0.40919 0.05732 0.0
Co745 Co 0.79757 0.36118 0.08069 0.0
O746 O 0.81702 0.3749 0.05618 0.0
C747 C 0.80881 0.40458 0.1081 0.0
C748 C 0.75331 0.41936 0.07814 0.0
C749 C 0.82144 0.39763 0.05031 0.0
O750 O 0.79734 0.41283 0.09669 0.0
O751 O 0.80988 0.38335 0.10488 0.0
O752 O 0.75483 0.37859 0.05052 0.0
O753 O 0.76507 0.36125 0.07467 0.0
Co754 Co 0.40521 0.78227 0.23327 0.0
O755 O 0.4013 0.75492 0.21561 0.0
O756 O 0.43651 0.77916 0.23416 0.0
C757 C 0.36434 0.75731 0.24606 0.0
O758 O 0.41602 0.81083 0.25404 0.0
Co759 Co 0.36938 0.80704 0.23165 0.0
O760 O 0.38589 0.82364 0.2565 0.0
C761 C 0.40976 0.81994 0.20196 0.0
C762 C 0.4243 0.75973 0.22178 0.0
C763 C 0.40657 0.82388 0.26249 0.0
O764 O 0.42099 0.81038 0.21248 0.0
O765 O 0.38756 0.81797 0.20623 0.0
O766 O 0.38371 0.75424 0.25176 0.0
O767 O 0.36959 0.77364 0.23199 0.0
H768 H 0.22566 0.6191 0.25137 0.0
H769 H 0.19114 0.66489 0.27243 0.0
H770 H 0.23598 0.70596 0.27382 0.0
H771 H 0.28816 0.65342 0.27816 0.0
H772 H 0.3076 0.65295 0.25843 0.0
H773 H 0.27307 0.62666 0.26069 0.0
H774 H 0.26353 0.63706 0.22669 0.0
H775 H 0.29801 0.66337 0.22434 0.0
H776 H 0.27207 0.67097 0.22094 0.0
H777 H 0.28391 0.74294 0.26997 0.0
H778 H 0.33172 0.77273 0.26161 0.0
H779 H 0.3352 0.70279 0.24412 0.0
C780 C 0.22768 0.63766 0.25671 0.0
C781 C 0.20502 0.63857 0.26236 0.0
C782 C 0.20826 0.66348 0.26853 0.0
C783 C 0.23365 0.68696 0.26931 0.0
C784 C 0.25556 0.68531 0.26366 0.0
C785 C 0.25283 0.6613 0.25746 0.0
C786 C 0.27925 0.66536 0.25081 0.0
C787 C 0.2875 0.6486 0.26275 0.0
C788 C 0.27814 0.6588 0.22944 0.0
C789 C 0.29734 0.69531 0.25453 0.0
C790 C 0.28326 0.70654 0.26174 0.0
C791 C 0.29525 0.73432 0.26466 0.0
C792 C 0.32229 0.75105 0.2599 0.0
C793 C 0.33693 0.73978 0.25273 0.0
C794 C 0.32444 0.71163 0.25021 0.0
H795 H 0.60371 0.2129 0.43359 0.0
H796 H 0.59637 0.22129 0.49434 0.0
H797 H 0.59387 0.26206 0.48847 0.0
H798 H 0.64482 0.28078 0.42343 0.0
H799 H 0.62968 0.27987 0.40084 0.0
H800 H 0.62825 0.24999 0.40965 0.0
H801 H 0.57664 0.2234 0.40687 0.0
H802 H 0.5779 0.25322 0.39794 0.0
H803 H 0.55794 0.23615 0.41854 0.0
H804 H 0.59855 0.3051 0.47633 0.0
H805 H 0.60671 0.34559 0.45838 0.0
H806 H 0.6071 0.30711 0.40551 0.0
C807 C 0.60081 0.22283 0.44562 0.0
C808 C 0.59979 0.21369 0.46445 0.0
C809 C 0.59677 0.22778 0.47982 0.0
C810 C 0.59535 0.25091 0.47662 0.0
C811 C 0.59663 0.2595 0.45792 0.0
C812 C 0.59888 0.24567 0.44266 0.0
C813 C 0.60106 0.25981 0.42403 0.0
C814 C 0.62752 0.2681 0.4139 0.0
C815 C 0.57694 0.24209 0.41108 0.0
C816 C 0.60055 0.2842 0.43125 0.0
C817 C 0.59802 0.28369 0.45086 0.0
C818 C 0.5998 0.30539 0.46095 0.0
C819 C 0.60446 0.32824 0.45071 0.0
C820 C 0.60678 0.32886 0.43068 0.0
C821 C 0.60446 0.30652 0.42082 0.0
H822 H 0.38933 0.60909 0.63377 0.0
H823 H 0.35257 0.52252 0.62604 0.0
H824 H 0.31275 0.52039 0.61191 0.0
H825 H 0.33016 0.60744 0.64832 0.0
H826 H 0.33857 0.63837 0.63633 0.0
H827 H 0.36466 0.63322 0.64476 0.0
H828 H 0.38469 0.64179 0.61079 0.0
H829 H 0.35876 0.64716 0.60227 0.0
H830 H 0.3638 0.62207 0.59109 0.0
H831 H 0.27669 0.52811 0.5985 0.0
H832 H 0.24784 0.5452 0.58735 0.0
H833 H 0.30763 0.62572 0.60645 0.0
C834 C 0.37289 0.5896 0.62931 0.0
C835 C 0.37378 0.5658 0.63154 0.0
C836 C 0.35206 0.54091 0.62483 0.0
C837 C 0.3294 0.53951 0.61677 0.0
C838 C 0.32878 0.5632 0.61547 0.0
C839 C 0.34999 0.58776 0.62157 0.0
C840 C 0.34425 0.61021 0.61899 0.0
C841 C 0.34441 0.62305 0.63825 0.0
C842 C 0.36405 0.63156 0.60495 0.0
C843 C 0.31643 0.59443 0.61062 0.0
C844 C 0.30787 0.56741 0.60845 0.0
C845 C 0.28311 0.5492 0.60028 0.0
C846 C 0.26684 0.55902 0.59404 0.0
C847 C 0.27531 0.58663 0.59633 0.0
C848 C 0.30032 0.60436 0.60487 0.0
H849 H 0.8013 0.40081 0.80881 0.0
H850 H 0.8435 0.41917 0.75499 0.0
H851 H 0.81 0.37407 0.74287 0.0
H852 H 0.7742 0.32618 0.8091 0.0
H853 H 0.74271 0.31919 0.81869 0.0
H854 H 0.77301 0.35027 0.82477 0.0
H855 H 0.75211 0.37765 0.81276 0.0
H856 H 0.72186 0.34676 0.80674 0.0
H857 H 0.73908 0.37227 0.78881 0.0
H858 H 0.76957 0.32909 0.7353 0.0
H859 H 0.72327 0.29096 0.73146 0.0
H860 H 0.70526 0.30387 0.78901 0.0
C861 C 0.80379 0.39509 0.79462 0.0
C862 C 0.82517 0.41352 0.78298 0.0
C863 C 0.82752 0.40546 0.76434 0.0
C864 C 0.80862 0.37975 0.75733 0.0
C865 C 0.78738 0.36239 0.76904 0.0
C866 C 0.78477 0.36983 0.78725 0.0
C867 C 0.75821 0.34927 0.79592 0.0
C868 C 0.76229 0.33541 0.81314 0.0
C869 C 0.74186 0.36227 0.80136 0.0
C870 C 0.74572 0.3298 0.77939 0.0
C871 C 0.76325 0.33716 0.76428 0.0
C872 C 0.75578 0.32297 0.7471 0.0
C873 C 0.72945 0.30128 0.74508 0.0
C874 C 0.71077 0.29454 0.75997 0.0
C875 C 0.71924 0.30853 0.77748 0.0
H876 H 0.48828 0.81918 0.93952 0.0
H877 H 0.4258 0.82198 0.90825 0.0
H878 H 0.40026 0.77221 0.90597 0.0
H879 H 0.48774 0.76813 0.91285 0.0
H880 H 0.49308 0.75149 0.93254 0.0
H881 H 0.50504 0.78704 0.93393 0.0
H882 H 0.47851 0.77949 0.96512 0.0
H883 H 0.46657 0.74386 0.96391 0.0
H884 H 0.44316 0.75517 0.96547 0.0
H885 H 0.38275 0.72294 0.90538 0.0
H886 H 0.375 0.67669 0.90541 0.0
H887 H 0.44957 0.70529 0.93567 0.0
C888 C 0.46894 0.80919 0.93258 0.0
C889 C 0.45873 0.82435 0.92436 0.0
C890 C 0.43371 0.81071 0.91493 0.0
C891 C 0.41908 0.78248 0.91358 0.0
C892 C 0.42978 0.76817 0.92168 0.0
C893 C 0.4541 0.78097 0.93103 0.0
C894 C 0.46176 0.76083 0.93741 0.0
C895 C 0.48849 0.76726 0.92865 0.0
C896 C 0.46255 0.75978 0.95927 0.0
C897 C 0.43857 0.73489 0.92936 0.0
C898 C 0.42005 0.73958 0.92078 0.0
C899 C 0.39697 0.71897 0.91218 0.0
C900 C 0.39274 0.69285 0.91227 0.0
C901 C 0.41168 0.68773 0.92059 0.0
C902 C 0.43485 0.70891 0.92928 0.0
H903 H 0.60398 0.40481 0.09061 0.0
H904 H 0.64095 0.48512 0.04389 0.0
H905 H 0.69319 0.49161 0.04899 0.0
H906 H 0.67618 0.43455 0.12135 0.0
H907 H 0.67312 0.40193 0.12215 0.0
H908 H 0.64358 0.40424 0.12122 0.0
H909 H 0.62738 0.37388 0.091 0.0
H910 H 0.65653 0.37109 0.09235 0.0
H911 H 0.64941 0.38312 0.0708 0.0
H912 H 0.73315 0.48405 0.06 0.0
H913 H 0.76376 0.46699 0.06263 0.0
H914 H 0.70494 0.39894 0.09568 0.0
C915 C 0.62055 0.42133 0.0832 0.0
C916 C 0.61771 0.44786 0.06998 0.0
C917 C 0.64378 0.47165 0.05291 0.0
C918 C 0.67637 0.47686 0.05725 0.0
C919 C 0.68068 0.4563 0.07413 0.0
C920 C 0.65428 0.42916 0.08605 0.0
C921 C 0.66495 0.41265 0.09415 0.0
C922 C 0.66442 0.41339 0.11601 0.0
C923 C 0.64862 0.38348 0.08662 0.0
C924 C 0.69394 0.42749 0.08671 0.0
C925 C 0.70224 0.45144 0.07645 0.0
C926 C 0.72733 0.46594 0.06811 0.0
C927 C 0.74459 0.45608 0.06968 0.0
C928 C 0.73661 0.43165 0.07932 0.0
C929 C 0.71141 0.41775 0.0883 0.0
H930 H 0.34881 0.82041 0.55255 0.0
H931 H 0.42257 0.81997 0.55618 0.0
H932 H 0.39706 0.77022 0.55357 0.0
H933 H 0.31152 0.76526 0.582 0.0
H934 H 0.28068 0.75156 0.56882 0.0
H935 H 0.30482 0.78718 0.56795 0.0
H936 H 0.30578 0.78478 0.53111 0.0
H937 H 0.2816 0.74904 0.53187 0.0
H938 H 0.31303 0.76121 0.51996 0.0
H939 H 0.36378 0.72082 0.55248 0.0
H940 H 0.32475 0.67478 0.55618 0.0
H941 H 0.27228 0.70692 0.556 0.0
C942 C 0.35956 0.80982 0.55258 0.0
C943 C 0.38765 0.824 0.5546 0.0
C944 C 0.40107 0.80948 0.5546 0.0
C945 C 0.38677 0.78126 0.55303 0.0
C946 C 0.35908 0.76787 0.55144 0.0
C947 C 0.34556 0.78161 0.55129 0.0
C948 C 0.3156 0.76224 0.55117 0.0
C949 C 0.30239 0.76684 0.56853 0.0
C950 C 0.30327 0.76446 0.53241 0.0
C951 C 0.31441 0.7355 0.55233 0.0
C952 C 0.33972 0.73921 0.55176 0.0
C953 C 0.34386 0.71763 0.55279 0.0
C954 C 0.32159 0.69157 0.55483 0.0
C955 C 0.29564 0.68747 0.55634 0.0
C956 C 0.29198 0.70965 0.55484 0.0
H957 H 0.56062 0.36858 0.70457 0.0
H958 H 0.59117 0.41364 0.75734 0.0
H959 H 0.61195 0.38708 0.76525 0.0
H960 H 0.54395 0.30522 0.72283 0.0
H961 H 0.5539 0.29418 0.7021 0.0
H962 H 0.54314 0.31808 0.69963 0.0
H963 H 0.58759 0.35175 0.68296 0.0
H964 H 0.59842 0.32784 0.6852 0.0
H965 H 0.61882 0.36157 0.6946 0.0
H966 H 0.62601 0.35369 0.76885 0.0
H967 H 0.63503 0.31647 0.76709 0.0
H968 H 0.59703 0.2934 0.71158 0.0
C969 C 0.57227 0.37326 0.71754 0.0
C970 C 0.57484 0.39359 0.73017 0.0
C971 C 0.58946 0.39856 0.74732 0.0
C972 C 0.60124 0.38353 0.75195 0.0
C973 C 0.59821 0.36357 0.73928 0.0
C974 C 0.58433 0.35852 0.72234 0.0
C975 C 0.58333 0.33517 0.71164 0.0
C976 C 0.55436 0.31178 0.7089 0.0
C977 C 0.59792 0.34466 0.69246 0.0
C978 C 0.59839 0.3276 0.72541 0.0
C979 C 0.60672 0.34431 0.74126 0.0
C980 C 0.61989 0.34069 0.75642 0.0
C981 C 0.62482 0.31951 0.75535 0.0
C982 C 0.61676 0.3024 0.73922 0.0
C983 C 0.6035 0.30648 0.72398 0.0
H984 H 0.22183 0.60424 0.84815 0.0
H985 H 0.16325 0.50085 0.85739 0.0
H986 H 0.21007 0.50264 0.87331 0.0
H987 H 0.28795 0.60142 0.8379 0.0
H988 H 0.31015 0.63262 0.85015 0.0
H989 H 0.27927 0.62701 0.84025 0.0
H990 H 0.26596 0.63611 0.87349 0.0
H991 H 0.29694 0.64173 0.8832 0.0
H992 H 0.26571 0.61677 0.89368 0.0
H993 H 0.26112 0.52261 0.8895 0.0
H994 H 0.30779 0.54282 0.90079 0.0
H995 H 0.32595 0.62098 0.88009 0.0
C996 C 0.21968 0.58504 0.85175 0.0
C997 C 0.18639 0.55339 0.85411 0.0
C998 C 0.1825 0.51941 0.85776 0.0
C999 C 0.21121 0.52095 0.86853 0.0
C1000 C 0.24163 0.55278 0.87128 0.0
C1001 C 0.24625 0.5832 0.86274 0.0
C1002 C 0.2746 0.6045 0.86645 0.0
C1003 C 0.28882 0.61712 0.84757 0.0
C1004 C 0.27587 0.62604 0.88001 0.0
C1005 C 0.28566 0.58827 0.87598 0.0
C1006 C 0.26762 0.56043 0.87862 0.0
C1007 C 0.27529 0.54394 0.88748 0.0
C1008 C 0.30174 0.55553 0.89387 0.0
C1009 C 0.32029 0.58329 0.89109 0.0
C1010 C 0.31206 0.59957 0.8821 0.0
H1011 H 0.62499 0.21223 0.05258 0.0
H1012 H 0.63667 0.2155 0.99145 0.0
H1013 H 0.68106 0.2568 0.99533 0.0
H1014 H 0.6522 0.28013 0.05989 0.0
H1015 H 0.66827 0.28218 0.08229 0.0
H1016 H 0.63926 0.25088 0.07504 0.0
H1017 H 0.66563 0.22639 0.07853 0.0
H1018 H 0.69479 0.25768 0.08588 0.0
H1019 H 0.69669 0.23901 0.06598 0.0
H1020 H 0.72007 0.30124 0.0052 0.0
H1021 H 0.75239 0.34462 0.02073 0.0
H1022 H 0.71754 0.3112 0.07569 0.0
C1023 C 0.6373 0.2211 0.0401 0.0
C1024 C 0.62768 0.21033 0.02172 0.0
C1025 C 0.64396 0.22313 0.00566 0.0
C1026 C 0.66916 0.24657 0.00773 0.0
C1027 C 0.67795 0.25685 0.026 0.0
C1028 C 0.66269 0.24433 0.04195 0.0
C1029 C 0.6759 0.26064 0.05982 0.0
C1030 C 0.65783 0.26895 0.06983 0.0
C1031 C 0.68372 0.24499 0.07335 0.0
C1032 C 0.70037 0.28482 0.05133 0.0
C1033 C 0.70123 0.28217 0.0318 0.0
C1034 C 0.72011 0.30324 0.02053 0.0
C1035 C 0.73831 0.32777 0.02942 0.0
C1036 C 0.73772 0.33081 0.04936 0.0
C1037 C 0.71893 0.30891 0.06048 0.0
H1038 H 0.41007 0.62788 0.17569 0.0
H1039 H 0.47141 0.63624 0.21499 0.0
H1040 H 0.47826 0.67999 0.22582 0.0
H1041 H 0.44126 0.69846 0.16336 0.0
H1042 H 0.40998 0.69742 0.16234 0.0
H1043 H 0.41108 0.66758 0.15681 0.0
H1044 H 0.37525 0.6407 0.18252 0.0
H1045 H 0.37381 0.67031 0.18796 0.0
H1046 H 0.38082 0.65346 0.2066 0.0
H1047 H 0.47684 0.72211 0.23346 0.0
H1048 H 0.46546 0.75734 0.23838 0.0
H1049 H 0.40456 0.72029 0.19446 0.0
C1050 C 0.42477 0.63849 0.18673 0.0
C1051 C 0.43939 0.62772 0.19499 0.0
C1052 C 0.45922 0.6434 0.20884 0.0
C1053 C 0.46347 0.66845 0.21498 0.0
C1054 C 0.44809 0.67792 0.20692 0.0
C1055 C 0.42912 0.66335 0.19311 0.0
C1056 C 0.41436 0.67731 0.18725 0.0
C1057 C 0.41949 0.68569 0.16619 0.0
C1058 C 0.38429 0.65938 0.19134 0.0
C1059 C 0.42754 0.70173 0.20025 0.0
C1060 C 0.44726 0.70201 0.21128 0.0
C1061 C 0.46157 0.72219 0.2248 0.0
C1062 C 0.45504 0.74218 0.22744 0.0
C1063 C 0.43419 0.74161 0.21676 0.0
C1064 C 0.42072 0.7214 0.20275 0.0
H1065 H 0.81483 0.45064 0.38574 0.0
H1066 H 0.79649 0.40359 0.33373 0.0
H1067 H 0.75379 0.40225 0.33106 0.0
H1068 H 0.75238 0.41375 0.40493 0.0
H1069 H 0.75187 0.44161 0.41604 0.0
H1070 H 0.78318 0.4438 0.41176 0.0
H1071 H 0.79957 0.48793 0.39267 0.0
H1072 H 0.76814 0.48578 0.39685 0.0
H1073 H 0.78003 0.4881 0.37285 0.0
H1074 H 0.71077 0.39943 0.33662 0.0
H1075 H 0.66959 0.39363 0.35073 0.0
H1076 H 0.71481 0.44225 0.39934 0.0
C1077 C 0.80208 0.44066 0.37355 0.0
C1078 C 0.80901 0.42733 0.35988 0.0
C1079 C 0.79166 0.41408 0.34428 0.0
C1080 C 0.76744 0.41334 0.3426 0.0
C1081 C 0.76085 0.42603 0.35659 0.0
C1082 C 0.77768 0.43951 0.37177 0.0
C1083 C 0.7644 0.44843 0.38612 0.0
C1084 C 0.76286 0.43615 0.40587 0.0
C1085 C 0.7789 0.47941 0.38718 0.0
C1086 C 0.737 0.43664 0.37714 0.0
C1087 C 0.73564 0.42436 0.35988 0.0
C1088 C 0.71173 0.40951 0.34987 0.0
C1089 C 0.68844 0.4063 0.35799 0.0
C1090 C 0.6892 0.41786 0.37594 0.0
C1091 C 0.71391 0.43399 0.38531 0.0
H1092 H 0.09293 0.55025 0.46761 0.0
H1093 H 0.14252 0.61188 0.4265 0.0
H1094 H 0.18194 0.6259 0.44678 0.0
H1095 H 0.12043 0.58983 0.50693 0.0
H1096 H 0.11892 0.56418 0.52233 0.0
H1097 H 0.09575 0.55473 0.50286 0.0
H1098 H 0.1107 0.52272 0.4898 0.0
H1099 H 0.13398 0.53207 0.50932 0.0
H1100 H 0.14556 0.53577 0.48511 0.0
H1101 H 0.21361 0.63922 0.47351 0.0
H1102 H 0.2357 0.65049 0.505 0.0
H1103 H 0.16673 0.58062 0.52947 0.0
C1104 C 0.1122 0.56626 0.4627 0.0
C1105 C 0.11458 0.58015 0.44554 0.0
C1106 C 0.14016 0.60101 0.4396 0.0
C1107 C 0.16272 0.60904 0.45099 0.0
C1108 C 0.1595 0.59587 0.46825 0.0
C1109 C 0.13494 0.57475 0.47405 0.0
C1110 C 0.13636 0.56632 0.49427 0.0
C1111 C 0.11671 0.56894 0.50736 0.0
C1112 C 0.13136 0.53751 0.49464 0.0
C1113 C 0.16514 0.58698 0.49927 0.0
C1114 C 0.17823 0.60346 0.48387 0.0
C1115 C 0.20389 0.626 0.4855 0.0
C1116 C 0.21627 0.63229 0.50341 0.0
C1117 C 0.20308 0.61602 0.51939 0.0
C1118 C 0.17751 0.59271 0.51724 0.0
H1119 H 0.53294 0.08496 0.65376 0.0
H1120 H 0.58165 0.12811 0.60477 0.0
H1121 H 0.60204 0.17049 0.62297 0.0
H1122 H 0.52506 0.14015 0.67342 0.0
H1123 H 0.52853 0.13208 0.69764 0.0
H1124 H 0.51402 0.10577 0.67983 0.0
H1125 H 0.54901 0.09249 0.68768 0.0
H1126 H 0.5634 0.11852 0.70558 0.0
H1127 H 0.58403 0.11792 0.68678 0.0
H1128 H 0.6218 0.20689 0.64734 0.0
H1129 H 0.64101 0.23385 0.67674 0.0
H1130 H 0.58089 0.16769 0.71037 0.0
C1131 C 0.54769 0.10336 0.64677 0.0
C1132 C 0.55576 0.10288 0.62785 0.0
C1133 C 0.57505 0.12757 0.61924 0.0
C1134 C 0.58671 0.15193 0.62945 0.0
C1135 C 0.5789 0.15145 0.64824 0.0
C1136 C 0.55988 0.12779 0.65686 0.0
C1137 C 0.55743 0.13215 0.67788 0.0
C1138 C 0.5296 0.12725 0.68245 0.0
C1139 C 0.56386 0.11422 0.6902 0.0
C1140 C 0.5787 0.16178 0.67987 0.0
C1141 C 0.59045 0.17265 0.66249 0.0
C1142 C 0.61235 0.19885 0.66094 0.0
C1143 C 0.62308 0.21404 0.67765 0.0
C1144 C 0.61183 0.20299 0.69556 0.0
C1145 C 0.58905 0.17683 0.69668 0.0
H1146 H 0.46581 0.57874 0.76979 0.0
H1147 H 0.37842 0.48547 0.77284 0.0
H1148 H 0.3705 0.49986 0.81085 0.0
H1149 H 0.48137 0.58169 0.82639 0.0
H1150 H 0.4926 0.61697 0.82927 0.0
H1151 H 0.49523 0.6043 0.80639 0.0
H1152 H 0.46797 0.62322 0.79088 0.0
H1153 H 0.46572 0.63607 0.81374 0.0
H1154 H 0.43575 0.61376 0.80054 0.0
H1155 H 0.378 0.52689 0.84444 0.0
H1156 H 0.3832 0.55544 0.87202 0.0
H1157 H 0.45607 0.62132 0.84788 0.0
C1158 C 0.44772 0.56424 0.77707 0.0
C1159 C 0.42566 0.52856 0.76848 0.0
C1160 C 0.39202 0.50518 0.77888 0.0
C1161 C 0.3882 0.51352 0.80286 0.0
C1162 C 0.41319 0.54469 0.81334 0.0
C1163 C 0.44106 0.56943 0.80113 0.0
C1164 C 0.45465 0.59364 0.81397 0.0
C1165 C 0.48262 0.5995 0.81932 0.0
C1166 C 0.4561 0.61811 0.80421 0.0
C1167 C 0.43606 0.58439 0.83152 0.0
C1168 C 0.41391 0.55781 0.83089 0.0
C1169 C 0.39504 0.54729 0.84533 0.0
C1170 C 0.39816 0.56373 0.86092 0.0
C1171 C 0.42009 0.59059 0.8621 0.0
C1172 C 0.43928 0.60075 0.84735 0.0
H1173 H 0.87475 0.42745 0.94379 0.0
H1174 H 0.93565 0.5074 0.96301 0.0
H1175 H 0.9208 0.49435 0.99625 0.0
H1176 H 0.82473 0.42111 0.97515 0.0
H1177 H 0.81018 0.38542 0.97911 0.0
H1178 H 0.82713 0.40027 0.9571 0.0
H1179 H 0.85824 0.38142 0.9627 0.0
H1180 H 0.84136 0.36649 0.98476 0.0
H1181 H 0.87704 0.38929 0.98459 0.0
H1182 H 0.89673 0.47414 0.02681 0.0
H1183 H 0.86543 0.44772 0.05275 0.0
H1184 H 0.82106 0.38034 0.01406 0.0
C1185 C 0.88534 0.44195 0.95507 0.0
C1186 C 0.90685 0.46816 0.95089 0.0
C1187 C 0.91959 0.48699 0.96594 0.0
C1188 C 0.91124 0.47978 0.98484 0.0
C1189 C 0.89001 0.45374 0.98846 0.0
C1190 C 0.87723 0.4351 0.97401 0.0
C1191 C 0.85382 0.40905 0.98156 0.0
C1192 C 0.82741 0.40366 0.9727 0.0
C1193 C 0.85788 0.38515 0.97821 0.0
C1194 C 0.85544 0.41594 0.00254 0.0
C1195 C 0.87638 0.44189 0.00619 0.0
C1196 C 0.8806 0.45363 0.0242 0.0
C1197 C 0.86279 0.43856 0.03881 0.0
C1198 C 0.84139 0.41195 0.03537 0.0
C1199 C 0.83784 0.40038 0.0171 0.0
H1200 H 0.52839 0.91126 0.12978 0.0
H1201 H 0.46741 0.89072 0.08673 0.0
H1202 H 0.43245 0.86459 0.11056 0.0
H1203 H 0.49638 0.84673 0.15209 0.0
H1204 H 0.50644 0.85986 0.17593 0.0
H1205 H 0.52676 0.87873 0.15594 0.0
H1206 H 0.52405 0.92025 0.16636 0.0
H1207 H 0.50382 0.90154 0.18644 0.0
H1208 H 0.49182 0.91657 0.1698 0.0
H1209 H 0.40425 0.84034 0.13865 0.0
H1210 H 0.38427 0.81827 0.16923 0.0
H1211 H 0.46338 0.85158 0.19373 0.0
C1212 C 0.50769 0.90123 0.12537 0.0
C1213 C 0.50061 0.90269 0.1063 0.0
C1214 C 0.47327 0.88967 0.1012 0.0
C1215 C 0.45329 0.87482 0.11463 0.0
C1216 C 0.46096 0.87315 0.13312 0.0
C1217 C 0.48747 0.88594 0.13853 0.0
C1218 C 0.49024 0.88007 0.15919 0.0
C1219 C 0.50588 0.86547 0.16088 0.0
C1220 C 0.50325 0.90616 0.17115 0.0
C1221 C 0.46115 0.86163 0.16443 0.0
C1222 C 0.44463 0.85829 0.14924 0.0
C1223 C 0.41696 0.84276 0.15064 0.0
C1224 C 0.40582 0.83035 0.16807 0.0
C1225 C 0.4223 0.83317 0.18378 0.0
C1226 C 0.45034 0.84888 0.18187 0.0
H1227 H 0.62271 0.48921 0.28834 0.0
H1228 H 0.54027 0.43931 0.26973 0.0
H1229 H 0.52941 0.41367 0.29975 0.0
H1230 H 0.62777 0.43614 0.30766 0.0
H1231 H 0.64893 0.45552 0.32734 0.0
H1232 H 0.64961 0.47221 0.30556 0.0
H1233 H 0.63876 0.50398 0.32432 0.0
H1234 H 0.63812 0.48742 0.3462 0.0
H1235 H 0.60965 0.48967 0.33934 0.0
H1236 H 0.52821 0.39115 0.33041 0.0
H1237 H 0.53669 0.37302 0.35952 0.0
H1238 H 0.62044 0.43637 0.35745 0.0
C1239 C 0.60233 0.47299 0.29047 0.0
C1240 C 0.5824 0.46593 0.27636 0.0
C1241 C 0.55592 0.44487 0.28017 0.0
C1242 C 0.54955 0.43022 0.2972 0.0
C1243 C 0.56986 0.43698 0.31039 0.0
C1244 C 0.59571 0.45788 0.30726 0.0
C1245 C 0.61419 0.45982 0.32315 0.0
C1246 C 0.63643 0.45567 0.31546 0.0
C1247 C 0.62586 0.48683 0.33389 0.0
C1248 C 0.59478 0.43636 0.33548 0.0
C1249 C 0.56926 0.4237 0.32799 0.0
C1250 C 0.54808 0.40101 0.3365 0.0
C1251 C 0.55315 0.39083 0.35303 0.0
C1252 C 0.57926 0.40319 0.36084 0.0
C1253 C 0.60024 0.42644 0.35195 0.0
H1254 H 0.4219 0.9111 0.35507 0.0
H1255 H 0.48128 0.89343 0.37527 0.0
H1256 H 0.47886 0.87128 0.34458 0.0
H1257 H 0.38128 0.84918 0.33208 0.0
H1258 H 0.3724 0.86282 0.31229 0.0
H1259 H 0.38106 0.88005 0.33491 0.0
H1260 H 0.41787 0.92378 0.31869 0.0
H1261 H 0.40926 0.90669 0.29597 0.0
H1262 H 0.44311 0.92279 0.30466 0.0
H1263 H 0.46763 0.84822 0.31267 0.0
H1264 H 0.44781 0.82517 0.28216 0.0
H1265 H 0.39497 0.85704 0.28303 0.0
C1266 C 0.43474 0.90301 0.35285 0.0
C1267 C 0.45201 0.90424 0.36744 0.0
C1268 C 0.46815 0.89298 0.36419 0.0
C1269 C 0.46692 0.88037 0.34682 0.0
C1270 C 0.44941 0.87916 0.33283 0.0
C1271 C 0.43364 0.89022 0.33563 0.0
C1272 C 0.41522 0.8846 0.31881 0.0
C1273 C 0.38575 0.86818 0.32489 0.0
C1274 C 0.42176 0.91104 0.30895 0.0
C1275 C 0.42259 0.86804 0.30635 0.0
C1276 C 0.4426 0.86545 0.31457 0.0
C1277 C 0.45211 0.85031 0.30601 0.0
C1278 C 0.44069 0.83726 0.28867 0.0
C1279 C 0.4198 0.83923 0.28013 0.0
C1280 C 0.41093 0.85512 0.2891 0.0
H1281 H 0.53084 0.41646 0.52994 0.0
H1282 H 0.57478 0.50224 0.51784 0.0
H1283 H 0.60028 0.49494 0.4929 0.0
H1284 H 0.58644 0.40391 0.51983 0.0
H1285 H 0.56371 0.37153 0.50919 0.0
H1286 H 0.55252 0.38428 0.52819 0.0
H1287 H 0.5139 0.37876 0.50672 0.0
H1288 H 0.52499 0.36615 0.48769 0.0
H1289 H 0.52151 0.39496 0.48376 0.0
H1290 H 0.61732 0.4773 0.46687 0.0
H1291 H 0.62248 0.45081 0.44129 0.0
H1292 H 0.5663 0.37666 0.47029 0.0
C1293 C 0.54649 0.43382 0.52249 0.0
C1294 C 0.55139 0.46 0.52619 0.0
C1295 C 0.57125 0.48211 0.51559 0.0
C1296 C 0.5858 0.47814 0.5014 0.0
C1297 C 0.58022 0.45195 0.49797 0.0
C1298 C 0.56107 0.43018 0.5083 0.0
C1299 C 0.55675 0.40376 0.50062 0.0
C1300 C 0.56537 0.39007 0.51533 0.0
C1301 C 0.52757 0.38482 0.49432 0.0
C1302 C 0.5755 0.41388 0.48379 0.0
C1303 C 0.58938 0.44176 0.48272 0.0
C1304 C 0.60682 0.45549 0.46773 0.0
C1305 C 0.60966 0.4403 0.45328 0.0
C1306 C 0.59473 0.4117 0.45378 0.0
C1307 C 0.57796 0.3985 0.46949 0.0
H1308 H 0.1429 0.52395 0.6901 0.0
H1309 H 0.09684 0.56179 0.70213 0.0
H1310 H 0.11073 0.58538 0.67121 0.0
H1311 H 0.19784 0.58083 0.67048 0.0
H1312 H 0.2044 0.56257 0.65263 0.0
H1313 H 0.18835 0.54622 0.67455 0.0
H1314 H 0.14872 0.50799 0.65554 0.0
H1315 H 0.16471 0.52423 0.63352 0.0
H1316 H 0.13124 0.51644 0.63841 0.0
H1317 H 0.133 0.60811 0.64059 0.0
H1318 H 0.16167 0.6281 0.61242 0.0
H1319 H 0.19354 0.5757 0.62066 0.0
C1320 C 0.13537 0.5369 0.68636 0.0
C1321 C 0.11885 0.54119 0.69884 0.0
C1322 C 0.10958 0.55832 0.6929 0.0
C1323 C 0.11732 0.57174 0.67535 0.0
C1324 C 0.13422 0.5677 0.66374 0.0
C1325 C 0.14302 0.5506 0.66894 0.0
C1326 C 0.16243 0.55109 0.65443 0.0
C1327 C 0.18987 0.56076 0.66357 0.0
C1328 C 0.15109 0.52328 0.64491 0.0
C1329 C 0.1637 0.57169 0.64051 0.0
C1330 C 0.14707 0.58081 0.64604 0.0
C1331 C 0.14587 0.6009 0.636 0.0
C1332 C 0.16234 0.6122 0.62003 0.0
C1333 C 0.17987 0.60347 0.61423 0.0
C1334 C 0.18016 0.58263 0.62452 0.0
H1335 H 0.56987 0.07687 0.83833 0.0
H1336 H 0.52705 0.10969 0.86681 0.0
H1337 H 0.55028 0.15057 0.84682 0.0
H1338 H 0.63302 0.14021 0.83198 0.0
H1339 H 0.63865 0.13109 0.80864 0.0
H1340 H 0.6199 0.10521 0.82602 0.0
H1341 H 0.58034 0.08117 0.80227 0.0
H1342 H 0.59893 0.107 0.78485 0.0
H1343 H 0.56634 0.09973 0.79207 0.0
H1344 H 0.57642 0.18672 0.82278 0.0
H1345 H 0.60356 0.21577 0.79626 0.0
H1346 H 0.62951 0.1595 0.78319 0.0
C1347 C 0.56582 0.09294 0.84059 0.0
C1348 C 0.54728 0.09048 0.85451 0.0
C1349 C 0.54172 0.11147 0.8566 0.0
C1350 C 0.55473 0.1347 0.84526 0.0
C1351 C 0.57301 0.13651 0.83175 0.0
C1352 C 0.57854 0.11619 0.82934 0.0
C1353 C 0.59801 0.12255 0.81315 0.0
C1354 C 0.62394 0.12491 0.82039 0.0
C1355 C 0.58513 0.10135 0.79714 0.0
C1356 C 0.60265 0.14968 0.80687 0.0
C1357 C 0.58798 0.15731 0.81777 0.0
C1358 C 0.58813 0.18105 0.81423 0.0
C1359 C 0.60357 0.19738 0.79908 0.0
C1360 C 0.61877 0.18999 0.78767 0.0
C1361 C 0.6184 0.16589 0.79178 0.0
H1362 H 0.47386 0.52266 0.996 0.0
H1363 H 0.50101 0.59099 0.05164 0.0
H1364 H 0.47738 0.6163 0.03036 0.0
H1365 H 0.48802 0.57673 0.9587 0.0
H1366 H 0.46115 0.55588 0.94248 0.0
H1367 H 0.47311 0.54054 0.95881 0.0
H1368 H 0.42492 0.51039 0.97166 0.0
H1369 H 0.4132 0.52628 0.95553 0.0
H1370 H 0.40735 0.52608 0.98074 0.0
H1371 H 0.45515 0.62998 0.0019 0.0
H1372 H 0.44364 0.64576 0.97273 0.0
H1373 H 0.43275 0.57602 0.94183 0.0
C1374 C 0.47501 0.54026 0.00239 0.0
C1375 C 0.48527 0.55046 0.02777 0.0
C1376 C 0.49248 0.58374 0.03766 0.0
C1377 C 0.47619 0.59818 0.025 0.0
C1378 C 0.45953 0.58373 0.00295 0.0
C1379 C 0.45956 0.55686 0.99168 0.0
C1380 C 0.44856 0.55461 0.97205 0.0
C1381 C 0.46891 0.5571 0.95714 0.0
C1382 C 0.42193 0.52775 0.96987 0.0
C1383 C 0.44437 0.57885 0.97137 0.0
C1384 C 0.45024 0.5942 0.98825 0.0
C1385 C 0.44979 0.61802 0.98897 0.0
C1386 C 0.44331 0.62686 0.97241 0.0
C1387 C 0.43691 0.61168 0.95543 0.0
C1388 C 0.43701 0.58737 0.95499 0.0
H1389 H 0.89395 0.4402 0.21286 0.0
H1390 H 0.88535 0.52476 0.21586 0.0
H1391 H 0.85688 0.5075 0.17988 0.0
H1392 H 0.89924 0.441 0.15595 0.0
H1393 H 0.87887 0.40494 0.15272 0.0
H1394 H 0.89618 0.41865 0.17496 0.0
H1395 H 0.85124 0.39173 0.19303 0.0
H1396 H 0.83414 0.37814 0.17073 0.0
H1397 H 0.82377 0.3958 0.18629 0.0
H1398 H 0.83512 0.48013 0.14662 0.0
H1399 H 0.8129 0.45211 0.11846 0.0
H1400 H 0.83432 0.39419 0.13693 0.0
C1401 C 0.88623 0.45225 0.2073 0.0
C1402 C 0.897 0.48688 0.21669 0.0
C1403 C 0.88058 0.50583 0.20928 0.0
C1404 C 0.86447 0.4959 0.18644 0.0
C1405 C 0.86065 0.46674 0.17462 0.0
C1406 C 0.86993 0.44522 0.18454 0.0
C1407 C 0.86094 0.42207 0.17092 0.0
C1408 C 0.88524 0.42164 0.16318 0.0
C1409 C 0.84136 0.39536 0.18083 0.0
C1410 C 0.84702 0.42892 0.15504 0.0
C1411 C 0.84716 0.45317 0.15738 0.0
C1412 C 0.83492 0.4615 0.14444 0.0
C1413 C 0.82229 0.44535 0.12849 0.0
C1414 C 0.82189 0.42094 0.12546 0.0
C1415 C 0.83439 0.41279 0.13892 0.0
loop_
_geom_bond_atom_site_label_1
_geom_bond_atom_site_label_2
_geom_bond_distance
_geom_bond_site_symmetry_2
_ccdc_geom_bond_type
C0 C1 1.560 . S
C0 H61 0.959 . S
C0 H62 0.959 . S
C0 H63 0.960 . S
C1 C0 1.560 . S
C1 O56 1.426 . S
C1 H60 0.980 . S
C2 C3 1.407 . S
C2 C7 1.418 . S
C2 O56 1.334 . S
C3 C2 1.407 . S
C3 C4 1.360 . S
C3 H64 0.929 . S
C4 C3 1.360 . S
C4 C5 1.401 . S
C4 C8 1.527 . S
C5 C4 1.401 . S
C5 C6 1.405 . S
C5 C38 1.587 . S
C6 C5 1.405 . S
C6 C7 1.332 . S
C6 C9 1.496 . S
C7 C2 1.418 . S
C7 C6 1.332 . S
C7 H65 0.929 . S
C8 C4 1.527 . S
C8 H66 0.959 . S
C8 H67 0.961 . S
C8 H68 0.961 . S
C9 C6 1.496 . S
C9 H69 0.960 . S
C9 H70 0.960 . S
C9 H71 0.961 . S
C10 C11 1.517 . S
C10 H73 0.961 . S
C10 H74 0.960 . S
C10 H75 0.959 . S
C11 C10 1.517 . S
C11 O59 1.468 . S
C11 H72 0.980 . S
C12 C13 1.349 . S
C12 C17 1.367 . S
C12 O59 1.408 . S
C13 C12 1.349 . S
C13 C14 1.407 . S
C13 H76 0.930 . S
C14 C13 1.407 . S
C14 C15 1.449 . S
C14 C18 1.526 . S
C15 C14 1.449 . S
C15 C16 1.384 . S
C15 C40 1.553 1_655 S
C16 C15 1.384 . S
C16 C17 1.364 . S
C16 C19 1.450 . S
C17 C12 1.367 . S
C17 C16 1.364 . S
C17 H77 0.931 . S
C18 C14 1.526 . S
C18 H78 0.928 1_655 S
C18 H79 0.959 1_655 S
C18 H80 1.004 . S
C19 C16 1.450 . S
C19 H81 0.960 . S
C19 H82 0.960 1_655 S
C19 H83 0.960 . S
C20 C21 1.309 . S
C20 C25 1.304 . S
C20 O58 1.435 . S
C21 C20 1.309 . S
C21 C22 1.476 . S
C21 H85 0.930 . S
C22 C21 1.476 . S
C22 C23 1.400 . S
C22 C26 1.567 . S
C23 C22 1.400 . S
C23 C24 1.373 . S
C23 C45 1.432 . S
C24 C23 1.373 . S
C24 C25 1.339 . S
C24 C27 1.530 . S
C25 C20 1.304 . S
C25 C24 1.339 . S
C25 H86 0.930 . S
C26 C22 1.567 . S
C26 H87 0.961 . S
C26 H88 0.960 . S
C26 H89 0.958 . S
C27 C24 1.530 . S
C27 H90 0.961 . S
C27 H91 0.960 . S
C27 H92 0.960 . S
C28 C29 1.530 . S
C28 H94 0.961 . S
C28 H95 0.961 . S
C28 H96 0.959 . S
C29 C28 1.530 . S
C29 O57 1.412 . S
C29 H93 0.980 . S
C30 C31 1.288 . S
C30 C35 1.377 . S
C30 O57 1.393 . S
C31 C30 1.288 . S
C31 C32 1.369 . S
C31 H97 0.932 . S
C32 C31 1.369 . S
C32 C33 1.398 . S
C32 C36 1.527 . S
C33 C32 1.398 . S
C33 C34 1.380 . S
C33 C47 1.497 . S
C34 C33 1.380 . S
C34 C35 1.383 . S
C34 C37 1.603 . S
C35 C30 1.377 . S
C35 C34 1.383 . S
C35 H98 0.929 . S
C36 C32 1.527 . S
C36 H99 0.961 . S
C36 H100 0.959 . S
C36 H101 0.959 . S
C37 C34 1.603 . S
C37 H102 0.960 . S
C37 H103 0.962 . S
C37 H104 0.961 . S
C38 C5 1.587 . S
C38 C39 1.360 . S
C38 C51 1.412 . S
C39 C38 1.360 . S
C39 C40 1.365 . S
C39 H105 0.929 . S
C40 C15 1.553 1_455 S
C40 C39 1.365 . S
C40 C41 1.404 . S
C41 C40 1.404 . S
C41 C42 1.395 1_455 S
C41 C52 1.451 . S
C42 C41 1.395 1_655 S
C42 C43 1.322 . S
C42 H106 0.930 . S
C43 C42 1.322 . S
C43 C44 1.459 . S
C43 H107 0.929 . S
C44 C43 1.459 . S
C44 C45 1.445 . S
C44 C53 1.395 1_655 S
C45 C23 1.432 . S
C45 C44 1.445 . S
C45 C46 1.370 . S
C46 C45 1.370 . S
C46 C47 1.438 1_655 S
C46 H108 0.930 . S
C47 C33 1.497 . S
C47 C46 1.438 1_455 S
C47 C48 1.360 . S
C48 C47 1.360 . S
C48 C49 1.401 . S
C48 C53 1.446 . S
C49 C48 1.401 . S
C49 C50 1.347 . S
C49 H109 0.929 . S
C50 C49 1.347 . S
C50 C51 1.455 . S
C50 H110 0.930 . S
C51 C38 1.412 . S
C51 C50 1.455 . S
C51 C52 1.331 . S
C52 C41 1.451 . S
C52 C51 1.331 . S
C52 C53 1.497 . S
C53 C44 1.395 1_455 S
C53 C48 1.446 . S
C53 C52 1.497 . S
C54 C55 1.582 . S
C54 H111 0.962 . S
C54 H112 0.959 . S
C54 H113 0.958 . S
C55 C54 1.582 . S
C55 O58 1.458 . S
C55 H84 0.980 . S
O56 C1 1.426 . S
O56 C2 1.334 . S
O57 C29 1.412 . S
O57 C30 1.393 . S
O58 C20 1.435 . S
O58 C55 1.458 . S
O59 C11 1.468 . S
O59 C12 1.408 . S
H60 C1 0.980 . S
H61 C0 0.959 . S
H62 C0 0.959 . S
H63 C0 0.960 . S
H64 C3 0.929 . S
H65 C7 0.929 . S
H66 C8 0.959 . S
H67 C8 0.961 . S
H68 C8 0.961 . S
H69 C9 0.960 . S
H70 C9 0.960 . S
H71 C9 0.961 . S
H72 C11 0.980 . S
H73 C10 0.961 . S
H74 C10 0.960 . S
H75 C10 0.959 . S
H76 C13 0.930 . S
H77 C17 0.931 . S
H78 C18 0.928 1_455 S
H79 C18 0.959 1_455 S
H80 C18 1.004 . S
H81 C19 0.960 . S
H82 C19 0.960 1_455 S
H83 C19 0.960 . S
H84 C55 0.980 . S
H85 C21 0.930 . S
H86 C25 0.930 . S
H87 C26 0.961 . S
H88 C26 0.960 . S
H89 C26 0.958 . S
H90 C27 0.961 . S
H91 C27 0.960 . S
H92 C27 0.960 . S
H93 C29 0.980 . S
H94 C28 0.961 . S
H95 C28 0.961 . S
H96 C28 0.959 . S
H97 C31 0.932 . S
H98 C35 0.929 . S
H99 C36 0.961 . S
H100 C36 0.959 . S
H101 C36 0.959 . S
H102 C37 0.960 . S
H103 C37 0.962 . S
H104 C37 0.961 . S
H105 C39 0.929 . S
H106 C42 0.930 . S
H107 C43 0.929 . S
H108 C46 0.930 . S
H109 C49 0.929 . S
H110 C50 0.930 . S
H111 C54 0.962 . S
H112 C54 0.959 . S
H113 C54 0.958 . S
C114 C115 1.560 . S
C114 H175 0.959 . S
C114 H176 0.959 . S
C114 H177 0.960 . S
C115 C114 1.560 . S
C115 O170 1.426 . S
C115 H174 0.980 . S
C116 C117 1.407 . S
C116 C121 1.418 . S
C116 O170 1.334 . S
C117 C116 1.407 . S
C117 C118 1.360 . S
C117 H178 0.929 . S
C118 C117 1.360 . S
C118 C119 1.401 . S
C118 C122 1.527 . S
C119 C118 1.401 . S
C119 C120 1.405 . S
C119 C152 1.587 . S
C120 C119 1.405 . S
C120 C121 1.332 . S
C120 C123 1.496 . S
C121 C116 1.418 . S
C121 C120 1.332 . S
C121 H179 0.929 . S
C122 C118 1.527 . S
C122 H180 0.959 . S
C122 H181 0.961 . S
C122 H182 0.961 . S
C123 C120 1.496 . S
C123 H183 0.960 . S
C123 H184 0.960 . S
C123 H185 0.961 . S
C124 C125 1.517 . S
C124 H187 0.961 . S
C124 H188 0.960 . S
C124 H189 0.959 . S
C125 C124 1.517 . S
C125 O173 1.468 . S
C125 H186 0.980 . S
C126 C127 1.349 . S
C126 C131 1.367 . S
C126 O173 1.408 . S
C127 C126 1.349 . S
C127 C128 1.407 . S
C127 H190 0.930 . S
C128 C127 1.407 . S
C128 C129 1.449 . S
C128 C132 1.535 . S
C129 C128 1.449 . S
C129 C130 1.384 . S
C129 C154 1.553 . S
C130 C129 1.384 . S
C130 C131 1.364 . S
C130 C133 1.450 . S
C131 C126 1.367 . S
C131 C130 1.364 . S
C131 H191 0.931 . S
C132 C128 1.535 . S
C132 H192 0.959 . S
C132 H193 0.961 . S
C132 H194 0.959 . S
C133 C130 1.450 . S
C133 H195 0.960 . S
C133 H196 0.960 . S
C133 H197 0.960 . S
C134 C135 1.309 . S
C134 C139 1.304 . S
C134 O172 1.435 . S
C135 C134 1.309 . S
C135 C136 1.476 . S
C135 H199 0.930 . S
C136 C135 1.476 . S
C136 C137 1.400 . S
C136 C140 1.567 . S
C137 C136 1.400 . S
C137 C138 1.373 . S
C137 C159 1.432 . S
C138 C137 1.373 . S
C138 C139 1.339 . S
C138 C141 1.530 . S
C139 C134 1.304 . S
C139 C138 1.339 . S
C139 H200 0.930 . S
C140 C136 1.567 . S
C140 H201 0.961 . S
C140 H202 0.960 . S
C140 H203 0.958 . S
C141 C138 1.530 . S
C141 H204 0.961 . S
C141 H205 0.960 . S
C141 H206 0.960 . S
C142 C143 1.530 . S
C142 H208 0.961 . S
C142 H209 0.961 . S
C142 H210 0.959 . S
C143 C142 1.530 . S
C143 O171 1.412 . S
C143 H207 0.980 . S
C144 C145 1.288 . S
C144 C149 1.377 . S
C144 O171 1.393 . S
C145 C144 1.288 . S
C145 C146 1.369 . S
C145 H211 0.932 . S
C146 C145 1.369 . S
C146 C147 1.398 . S
C146 C150 1.527 1_565 S
C147 C146 1.398 . S
C147 C148 1.380 . S
C147 C161 1.497 1_565 S
C148 C147 1.380 . S
C148 C149 1.383 . S
C148 C151 1.603 . S
C149 C144 1.377 . S
C149 C148 1.383 . S
C149 H212 0.929 . S
C150 C146 1.527 1_545 S
C150 H213 0.961 . S
C150 H214 0.959 . S
C150 H215 0.959 1_545 S
C151 C148 1.603 . S
C151 H216 0.960 . S
C151 H217 0.962 . S
C151 H218 0.961 . S
C152 C119 1.587 . S
C152 C153 1.360 . S
C152 C165 1.412 . S
C153 C152 1.360 . S
C153 C154 1.365 1_565 S
C153 H219 0.929 . S
C154 C129 1.553 . S
C154 C153 1.365 1_545 S
C154 C155 1.404 . S
C155 C154 1.404 . S
C155 C156 1.395 . S
C155 C166 1.451 . S
C156 C155 1.395 . S
C156 C157 1.322 . S
C156 H220 0.930 . S
C157 C156 1.322 . S
C157 C158 1.459 . S
C157 H221 0.929 . S
C158 C157 1.459 . S
C158 C159 1.445 . S
C158 C167 1.395 . S
C159 C137 1.432 . S
C159 C158 1.445 . S
C159 C160 1.370 . S
C160 C159 1.370 . S
C160 C161 1.438 . S
C160 H222 0.930 . S
C161 C147 1.497 1_545 S
C161 C160 1.438 . S
C161 C162 1.360 1_545 S
C162 C161 1.360 1_565 S
C162 C163 1.400 . S
C162 C167 1.446 1_565 S
C163 C162 1.400 . S
C163 C164 1.347 . S
C163 H223 0.929 . S
C164 C163 1.347 . S
C164 C165 1.455 . S
C164 H224 0.930 . S
C165 C152 1.412 . S
C165 C164 1.455 . S
C165 C166 1.331 1_565 S
C166 C155 1.451 . S
C166 C165 1.331 1_545 S
C166 C167 1.497 . S
C167 C158 1.395 . S
C167 C162 1.446 1_545 S
C167 C166 1.497 . S
C168 C169 1.582 . S
C168 H225 0.962 . S
C168 H226 0.959 . S
C168 H227 0.958 . S
C169 C168 1.582 . S
C169 O172 1.458 . S
C169 H198 0.980 . S
O170 C115 1.426 . S
O170 C116 1.334 . S
O171 C143 1.412 . S
O171 C144 1.393 . S
O172 C134 1.435 . S
O172 C169 1.458 . S
O173 C125 1.468 . S
O173 C126 1.408 . S
H174 C115 0.980 . S
H175 C114 0.959 . S
H176 C114 0.959 . S
H177 C114 0.960 . S
H178 C117 0.929 . S
H179 C121 0.929 . S
H180 C122 0.959 . S
H181 C122 0.961 . S
H182 C122 0.961 . S
H183 C123 0.960 . S
H184 C123 0.960 . S
H185 C123 0.961 . S
H186 C125 0.980 . S
H187 C124 0.961 . S
H188 C124 0.960 . S
H189 C124 0.959 . S
H190 C127 0.930 . S
H191 C131 0.931 . S
H192 C132 0.959 . S
H193 C132 0.961 . S
H194 C132 0.959 . S
H195 C133 0.960 . S
H196 C133 0.960 . S
H197 C133 0.960 . S
H198 C169 0.980 . S
H199 C135 0.930 . S
H200 C139 0.930 . S
H201 C140 0.961 . S
H202 C140 0.960 . S
H203 C140 0.958 . S
H204 C141 0.961 . S
H205 C141 0.960 . S
H206 C141 0.960 . S
H207 C143 0.980 . S
H208 C142 0.961 . S
H209 C142 0.961 . S
H210 C142 0.959 . S
H211 C145 0.932 . S
H212 C149 0.929 . S
H213 C150 0.961 . S
H214 C150 0.959 . S
H215 C150 0.959 1_565 S
H216 C151 0.960 . S
H217 C151 0.962 . S
H218 C151 0.961 . S
H219 C153 0.929 . S
H220 C156 0.930 . S
H221 C157 0.929 . S
H222 C160 0.930 . S
H223 C163 0.929 . S
H224 C164 0.930 . S
H225 C168 0.962 . S
H226 C168 0.959 . S
H227 C168 0.958 . S
C228 C229 1.560 . S
C228 H289 0.959 . S
C228 H290 0.959 . S
C228 H291 0.960 . S
C229 C228 1.560 . S
C229 O284 1.426 . S
C229 H288 0.980 . S
C230 C231 1.407 . S
C230 C235 1.418 . S
C230 O284 1.334 . S
C231 C230 1.407 . S
C231 C232 1.360 . S
C231 H292 0.929 . S
C232 C231 1.360 . S
C232 C233 1.401 . S
C232 C236 1.527 . S
C233 C232 1.401 . S
C233 C234 1.405 . S
C233 C266 1.587 . S
C234 C233 1.405 . S
C234 C235 1.332 . S
C234 C237 1.496 . S
C235 C230 1.418 . S
C235 C234 1.332 . S
C235 H293 0.929 . S
C236 C232 1.527 . S
C236 H294 0.959 . S
C236 H295 0.961 . S
C236 H296 0.961 . S
C237 C234 1.496 . S
C237 H297 0.960 . S
C237 H298 0.960 . S
C237 H299 0.961 . S
C238 C239 1.517 . S
C238 H301 0.961 . S
C238 H302 0.960 . S
C238 H303 0.959 . S
C239 C238 1.517 . S
C239 O287 1.468 . S
C239 H300 0.980 . S
C240 C241 1.349 . S
C240 C245 1.367 . S
C240 O287 1.408 . S
C241 C240 1.349 . S
C241 C242 1.407 . S
C241 H304 0.930 . S
C242 C241 1.407 . S
C242 C243 1.449 . S
C242 C246 1.535 . S
C243 C242 1.449 . S
C243 C244 1.384 . S
C243 C268 1.553 . S
C244 C243 1.384 . S
C244 C245 1.364 . S
C244 C247 1.450 . S
C245 C240 1.367 . S
C245 C244 1.364 . S
C245 H305 0.931 . S
C246 C242 1.535 . S
C246 H306 0.959 . S
C246 H307 0.961 . S
C246 H308 0.959 . S
C247 C244 1.450 . S
C247 H309 0.960 . S
C247 H310 0.960 . S
C247 H311 0.960 . S
C248 C249 1.309 . S
C248 C253 1.304 . S
C248 O286 1.435 . S
C249 C248 1.309 . S
C249 C250 1.476 . S
C249 H313 0.930 . S
C250 C249 1.476 . S
C250 C251 1.400 . S
C250 C254 1.567 . S
C251 C250 1.400 . S
C251 C252 1.373 . S
C251 C273 1.432 . S
C252 C251 1.373 . S
C252 C253 1.339 . S
C252 C255 1.530 . S
C253 C248 1.304 . S
C253 C252 1.339 . S
C253 H314 0.930 . S
C254 C250 1.567 . S
C254 H315 0.961 . S
C254 H316 0.960 . S
C254 H317 0.958 . S
C255 C252 1.530 . S
C255 H318 0.961 . S
C255 H319 0.960 . S
C255 H320 0.960 . S
C256 C257 1.530 . S
C256 H322 0.961 . S
C256 H323 0.961 . S
C256 H324 0.959 . S
C257 C256 1.530 . S
C257 O285 1.412 . S
C257 H321 0.980 . S
C258 C259 1.288 . S
C258 C263 1.377 . S
C258 O285 1.393 . S
C259 C258 1.288 . S
C259 C260 1.369 . S
C259 H325 0.932 . S
C260 C259 1.369 . S
C260 C261 1.398 . S
C260 C264 1.527 . S
C261 C260 1.398 . S
C261 C262 1.380 . S
C261 C275 1.497 . S
C262 C261 1.380 . S
C262 C263 1.383 . S
C262 C265 1.603 . S
C263 C258 1.377 . S
C263 C262 1.383 . S
C263 H326 0.929 . S
C264 C260 1.527 . S
C264 H327 0.961 . S
C264 H328 0.959 . S
C264 H329 0.959 . S
C265 C262 1.603 . S
C265 H330 0.960 . S
C265 H331 0.962 . S
C265 H332 0.961 . S
C266 C233 1.587 . S
C266 C267 1.360 . S
C266 C279 1.412 . S
C267 C266 1.360 . S
C267 C268 1.365 . S
C267 H333 0.929 . S
C268 C243 1.553 . S
C268 C267 1.365 . S
C268 C269 1.404 . S
C269 C268 1.404 . S
C269 C270 1.395 . S
C269 C280 1.451 . S
C270 C269 1.395 . S
C270 C271 1.322 . S
C270 H334 0.930 . S
C271 C270 1.322 . S
C271 C272 1.459 . S
C271 H335 0.929 . S
C272 C271 1.459 . S
C272 C273 1.445 . S
C272 C281 1.395 . S
C273 C251 1.432 . S
C273 C272 1.445 . S
C273 C274 1.370 . S
C274 C273 1.370 . S
C274 C275 1.438 . S
C274 H336 0.930 . S
C275 C261 1.497 . S
C275 C274 1.438 . S
C275 C276 1.360 . S
C276 C275 1.360 . S
C276 C277 1.401 . S
C276 C281 1.446 . S
C277 C276 1.401 . S
C277 C278 1.347 . S
C277 H337 0.929 . S
C278 C277 1.347 . S
C278 C279 1.455 . S
C278 H338 0.930 . S
C279 C266 1.412 . S
C279 C278 1.455 . S
C279 C280 1.331 . S
C280 C269 1.451 . S
C280 C279 1.331 . S
C280 C281 1.497 . S
C281 C272 1.395 . S
C281 C276 1.446 . S
C281 C280 1.497 . S
C282 C283 1.582 . S
C282 H339 0.962 . S
C282 H340 0.959 . S
C282 H341 0.958 . S
C283 C282 1.582 . S
C283 O286 1.458 . S
C283 H312 0.980 . S
O284 C229 1.426 . S
O284 C230 1.334 . S
O285 C257 1.412 . S
O285 C258 1.393 . S
O286 C248 1.435 . S
O286 C283 1.458 . S
O287 C239 1.468 . S
O287 C240 1.408 . S
H288 C229 0.980 . S
H289 C228 0.959 . S
H290 C228 0.959 . S
H291 C228 0.960 . S
H292 C231 0.929 . S
H293 C235 0.929 . S
H294 C236 0.959 . S
H295 C236 0.961 . S
H296 C236 0.961 . S
H297 C237 0.960 . S
H298 C237 0.960 . S
H299 C237 0.961 . S
H300 C239 0.980 . S
H301 C238 0.961 . S
H302 C238 0.960 . S
H303 C238 0.959 . S
H304 C241 0.930 . S
H305 C245 0.931 . S
H306 C246 0.959 . S
H307 C246 0.961 . S
H308 C246 0.959 . S
H309 C247 0.960 . S
H310 C247 0.960 . S
H311 C247 0.960 . S
H312 C283 0.980 . S
H313 C249 0.930 . S
H314 C253 0.930 . S
H315 C254 0.961 . S
H316 C254 0.960 . S
H317 C254 0.958 . S
H318 C255 0.961 . S
H319 C255 0.960 . S
H320 C255 0.960 . S
H321 C257 0.980 . S
H322 C256 0.961 . S
H323 C256 0.961 . S
H324 C256 0.959 . S
H325 C259 0.932 . S
H326 C263 0.929 . S
H327 C264 0.961 . S
H328 C264 0.959 . S
H329 C264 0.959 . S
H330 C265 0.960 . S
H331 C265 0.962 . S
H332 C265 0.961 . S
H333 C267 0.929 . S
H334 C270 0.930 . S
H335 C271 0.929 . S
H336 C274 0.930 . S
H337 C277 0.929 . S
H338 C278 0.930 . S
H339 C282 0.962 . S
H340 C282 0.959 . S
H341 C282 0.958 . S
C342 C343 1.560 . S
C342 H403 0.959 . S
C342 H404 0.959 . S
C342 H405 0.960 . S
C343 C342 1.560 . S
C343 O398 1.426 . S
C343 H402 0.980 . S
C344 C345 1.407 . S
C344 C349 1.418 . S
C344 O398 1.334 . S
C345 C344 1.407 . S
C345 C346 1.360 . S
C345 H406 0.929 . S
C346 C345 1.360 . S
C346 C347 1.401 . S
C346 C350 1.527 . S
C347 C346 1.401 . S
C347 C348 1.405 . S
C347 C380 1.587 . S
C348 C347 1.405 . S
C348 C349 1.332 . S
C348 C351 1.496 . S
C349 C344 1.418 . S
C349 C348 1.332 . S
C349 H407 0.929 . S
C350 C346 1.527 . S
C350 H408 0.959 . S
C350 H409 0.961 . S
C350 H410 0.961 . S
C351 C348 1.496 . S
C351 H411 0.960 . S
C351 H412 0.960 . S
C351 H413 0.961 . S
C352 C353 1.517 . S
C352 H415 0.961 . S
C352 H416 0.960 . S
C352 H417 0.959 . S
C353 C352 1.517 . S
C353 O401 1.468 . S
C353 H414 0.980 . S
C354 C355 1.349 . S
C354 C359 1.367 . S
C354 O401 1.408 . S
C355 C354 1.349 . S
C355 C356 1.407 . S
C355 H418 0.930 . S
C356 C355 1.407 . S
C356 C357 1.449 . S
C356 C360 1.535 . S
C357 C356 1.449 . S
C357 C358 1.384 . S
C357 C382 1.553 1_655 S
C358 C357 1.384 . S
C358 C359 1.364 . S
C358 C361 1.450 . S
C359 C354 1.367 . S
C359 C358 1.364 . S
C359 H419 0.931 . S
C360 C356 1.535 . S
C360 H420 0.959 1_655 S
C360 H421 0.961 1_655 S
C360 H422 0.959 . S
C361 C358 1.450 . S
C361 H423 0.960 . S
C361 H424 0.960 1_655 S
C361 H425 0.960 . S
C362 C363 1.309 . S
C362 C367 1.304 . S
C362 O400 1.435 . S
C363 C362 1.309 . S
C363 C364 1.476 . S
C363 H427 0.930 . S
C364 C363 1.476 . S
C364 C365 1.400 . S
C364 C368 1.567 . S
C365 C364 1.400 . S
C365 C366 1.373 . S
C365 C387 1.432 . S
C366 C365 1.373 . S
C366 C367 1.339 . S
C366 C369 1.530 . S
C367 C362 1.304 . S
C367 C366 1.339 . S
C367 H428 0.930 . S
C368 C364 1.567 . S
C368 H429 0.961 . S
C368 H430 0.960 . S
C368 H431 0.958 . S
C369 C366 1.530 . S
C369 H432 0.961 . S
C369 H433 0.960 . S
C369 H434 0.960 . S
C370 C371 1.530 . S
C370 H436 0.961 . S
C370 H437 0.961 . S
C370 H438 0.959 . S
C371 C370 1.530 . S
C371 O399 1.412 . S
C371 H435 0.980 . S
C372 C373 1.288 . S
C372 C377 1.377 . S
C372 O399 1.393 . S
C373 C372 1.288 . S
C373 C374 1.369 . S
C373 H439 0.932 . S
C374 C373 1.369 . S
C374 C375 1.398 . S
C374 C378 1.527 . S
C375 C374 1.398 . S
C375 C376 1.380 . S
C375 C389 1.497 . S
C376 C375 1.380 . S
C376 C377 1.383 . S
C376 C379 1.603 . S
C377 C372 1.377 . S
C377 C376 1.383 . S
C377 H440 0.929 . S
C378 C374 1.527 . S
C378 H441 0.961 . S
C378 H442 0.959 1_455 S
C378 H443 0.959 . S
C379 C376 1.603 . S
C379 H444 0.960 . S
C379 H445 0.962 . S
C379 H446 0.961 . S
C380 C347 1.587 . S
C380 C381 1.360 . S
C380 C393 1.412 . S
C381 C380 1.360 . S
C381 C382 1.365 . S
C381 H447 0.929 . S
C382 C357 1.553 1_455 S
C382 C381 1.365 . S
C382 C383 1.404 . S
C383 C382 1.404 . S
C383 C384 1.395 1_455 S
C383 C394 1.451 . S
C384 C383 1.395 1_655 S
C384 C385 1.322 . S
C384 H448 0.930 . S
C385 C384 1.322 . S
C385 C386 1.459 . S
C385 H449 0.929 . S
C386 C385 1.459 . S
C386 C387 1.445 . S
C386 C395 1.395 1_655 S
C387 C365 1.432 . S
C387 C386 1.445 . S
C387 C388 1.370 . S
C388 C387 1.370 . S
C388 C389 1.438 1_655 S
C388 H450 0.930 . S
C389 C375 1.497 . S
C389 C388 1.438 1_455 S
C389 C390 1.360 . S
C390 C389 1.360 . S
C390 C391 1.401 . S
C390 C395 1.446 . S
C391 C390 1.401 . S
C391 C392 1.347 . S
C391 H451 0.929 . S
C392 C391 1.347 . S
C392 C393 1.455 . S
C392 H452 0.930 . S
C393 C380 1.412 . S
C393 C392 1.455 . S
C393 C394 1.331 . S
C394 C383 1.451 . S
C394 C393 1.331 . S
C394 C395 1.497 . S
C395 C386 1.395 1_455 S
C395 C390 1.446 . S
C395 C394 1.497 . S
C396 C397 1.582 . S
C396 H453 0.962 . S
C396 H454 0.959 . S
C396 H455 0.958 . S
C397 C396 1.582 . S
C397 O400 1.458 . S
C397 H426 0.980 . S
O398 C343 1.426 . S
O398 C344 1.334 . S
O399 C371 1.412 . S
O399 C372 1.393 . S
O400 C362 1.435 . S
O400 C397 1.458 . S
O401 C353 1.468 . S
O401 C354 1.408 . S
H402 C343 0.980 . S
H403 C342 0.959 . S
H404 C342 0.959 . S
H405 C342 0.960 . S
H406 C345 0.929 . S
H407 C349 0.929 . S
H408 C350 0.959 . S
H409 C350 0.961 . S
H410 C350 0.961 . S
H411 C351 0.960 . S
H412 C351 0.960 . S
H413 C351 0.961 . S
H414 C353 0.980 . S
H415 C352 0.961 . S
H416 C352 0.960 . S
H417 C352 0.959 . S
H418 C355 0.930 . S
H419 C359 0.931 . S
H420 C360 0.959 1_455 S
H421 C360 0.961 1_455 S
H422 C360 0.959 . S
H423 C361 0.960 . S
H424 C361 0.960 1_455 S
H425 C361 0.960 . S
H426 C397 0.980 . S
H427 C363 0.930 . S
H428 C367 0.930 . S
H429 C368 0.961 . S
H430 C368 0.960 . S
H431 C368 0.958 . S
H432 C369 0.961 . S
H433 C369 0.960 . S
H434 C369 0.960 . S
H435 C371 0.980 . S
H436 C370 0.961 . S
H437 C370 0.961 . S
H438 C370 0.959 . S
H439 C373 0.932 . S
H440 C377 0.929 . S
H441 C378 0.961 . S
H442 C378 0.959 1_655 S
H443 C378 0.959 . S
H444 C379 0.960 . S
H445 C379 0.962 . S
H446 C379 0.961 . S
H447 C381 0.929 . S
H448 C384 0.930 . S
H449 C385 0.929 . S
H450 C388 0.930 . S
H451 C391 0.929 . S
H452 C392 0.930 . S
H453 C396 0.962 . S
H454 C396 0.959 . S
H455 C396 0.958 . S
C456 C457 1.560 . S
C456 H517 0.959 . S
C456 H518 0.959 . S
C456 H519 0.960 . S
C457 C456 1.560 . S
C457 O512 1.426 . S
C457 H516 0.980 . S
C458 C459 1.407 . S
C458 C463 1.418 . S
C458 O512 1.334 . S
C459 C458 1.407 . S
C459 C460 1.360 . S
C459 H520 0.929 . S
C460 C459 1.360 . S
C460 C461 1.401 . S
C460 C464 1.527 . S
C461 C460 1.401 . S
C461 C462 1.405 . S
C461 C494 1.587 . S
C462 C461 1.405 . S
C462 C463 1.332 . S
C462 C465 1.496 . S
C463 C458 1.418 . S
C463 C462 1.332 . S
C463 H521 0.929 . S
C464 C460 1.527 . S
C464 H522 0.959 . S
C464 H523 0.961 . S
C464 H524 0.961 . S
C465 C462 1.496 . S
C465 H525 0.960 . S
C465 H526 0.960 . S
C465 H527 0.961 . S
C466 C467 1.517 . S
C466 H529 0.961 . S
C466 H530 0.960 . S
C466 H531 0.959 . S
C467 C466 1.517 . S
C467 O515 1.468 . S
C467 H528 0.980 . S
C468 C469 1.349 . S
C468 C473 1.367 . S
C468 O515 1.408 . S
C469 C468 1.349 . S
C469 C470 1.407 . S
C469 H532 0.930 . S
C470 C469 1.407 . S
C470 C471 1.449 . S
C470 C474 1.535 . S
C471 C470 1.449 . S
C471 C472 1.384 . S
C471 C496 1.553 . S
C472 C471 1.384 . S
C472 C473 1.364 . S
C472 C475 1.450 . S
C473 C468 1.367 . S
C473 C472 1.364 . S
C473 H533 0.931 . S
C474 C470 1.535 . S
C474 H534 0.959 . S
C474 H535 0.961 . S
C474 H536 0.959 . S
C475 C472 1.450 . S
C475 H537 0.960 . S
C475 H538 0.960 . S
C475 H539 0.960 . S
C476 C477 1.309 . S
C476 C481 1.304 . S
C476 O514 1.435 . S
C477 C476 1.309 . S
C477 C478 1.476 . S
C477 H541 0.930 . S
C478 C477 1.476 . S
C478 C479 1.400 . S
C478 C482 1.567 . S
C479 C478 1.400 . S
C479 C480 1.373 . S
C479 C501 1.432 . S
C480 C479 1.373 . S
C480 C481 1.339 . S
C480 C483 1.530 . S
C481 C476 1.304 . S
C481 C480 1.339 . S
C481 H542 0.930 . S
C482 C478 1.567 . S
C482 H543 0.961 . S
C482 H544 0.960 . S
C482 H545 0.958 . S
C483 C480 1.530 . S
C483 H546 0.961 . S
C483 H547 0.960 . S
C483 H548 0.960 . S
C484 C485 1.530 . S
C484 H550 0.961 . S
C484 H551 0.961 . S
C484 H552 0.959 . S
C485 C484 1.530 . S
C485 O513 1.412 . S
C485 H549 0.980 . S
C486 C487 1.288 . S
C486 C491 1.377 . S
C486 O513 1.393 . S
C487 C486 1.288 . S
C487 C488 1.369 . S
C487 H553 0.932 . S
C488 C487 1.369 . S
C488 C489 1.398 . S
C488 C492 1.527 1_565 S
C489 C488 1.398 . S
C489 C490 1.380 . S
C489 C503 1.497 1_565 S
C490 C489 1.380 . S
C490 C491 1.383 . S
C490 C493 1.603 . S
C491 C486 1.377 . S
C491 C490 1.383 . S
C491 H554 0.929 . S
C492 C488 1.527 1_545 S
C492 H555 0.963 . S
C492 H556 0.959 . S
C492 H557 0.959 1_545 S
C493 C490 1.603 . S
C493 H558 0.960 . S
C493 H559 0.962 . S
C493 H560 0.961 . S
C494 C461 1.587 . S
C494 C495 1.360 . S
C494 C507 1.412 . S
C495 C494 1.360 . S
C495 C496 1.365 1_565 S
C495 H561 0.929 . S
C496 C471 1.553 . S
C496 C495 1.365 1_545 S
C496 C497 1.404 . S
C497 C496 1.404 . S
C497 C498 1.395 . S
C497 C508 1.441 1_545 S
C498 C497 1.395 . S
C498 C499 1.322 . S
C498 H562 0.930 . S
C499 C498 1.322 . S
C499 C500 1.459 . S
C499 H563 0.929 . S
C500 C499 1.459 . S
C500 C501 1.445 1_556 S
C500 C509 1.395 . S
C501 C479 1.432 . S
C501 C500 1.445 1_554 S
C501 C502 1.370 . S
C502 C501 1.370 . S
C502 C503 1.438 . S
C502 H564 0.930 . S
C503 C489 1.497 1_545 S
C503 C502 1.438 . S
C503 C504 1.360 1_545 S
C504 C503 1.360 1_565 S
C504 C505 1.401 . S
C504 C509 1.446 1_564 S
C505 C504 1.401 . S
C505 C506 1.347 1_554 S
C505 H565 0.929 . S
C506 C505 1.347 1_556 S
C506 C507 1.455 . S
C506 H566 0.930 . S
C507 C494 1.412 . S
C507 C506 1.455 . S
C507 C508 1.345 . S
C508 C497 1.441 1_565 S
C508 C507 1.345 . S
C508 C509 1.492 1_565 S
C509 C500 1.395 . S
C509 C504 1.446 1_546 S
C509 C508 1.492 1_545 S
C510 C511 1.582 . S
C510 H567 0.962 . S
C510 H568 0.959 . S
C510 H569 0.958 . S
C511 C510 1.582 . S
C511 O514 1.458 . S
C511 H540 0.980 . S
O512 C457 1.426 . S
O512 C458 1.334 . S
O513 C485 1.412 . S
O513 C486 1.393 . S
O514 C476 1.435 . S
O514 C511 1.458 . S
O515 C467 1.468 . S
O515 C468 1.408 . S
H516 C457 0.980 . S
H517 C456 0.959 . S
H518 C456 0.959 . S
H519 C456 0.960 . S
H520 C459 0.929 . S
H521 C463 0.929 . S
H522 C464 0.959 . S
H523 C464 0.961 . S
H524 C464 0.961 . S
H525 C465 0.960 . S
H526 C465 0.960 . S
H527 C465 0.961 . S
H528 C467 0.980 . S
H529 C466 0.961 . S
H530 C466 0.960 . S
H531 C466 0.959 . S
H532 C469 0.930 . S
H533 C473 0.931 . S
H534 C474 0.959 . S
H535 C474 0.961 . S
H536 C474 0.959 . S
H537 C475 0.960 . S
H538 C475 0.960 . S
H539 C475 0.960 . S
H540 C511 0.980 . S
H541 C477 0.930 . S
H542 C481 0.930 . S
H543 C482 0.961 . S
H544 C482 0.960 . S
H545 C482 0.958 . S
H546 C483 0.961 . S
H547 C483 0.960 . S
H548 C483 0.960 . S
H549 C485 0.980 . S
H550 C484 0.961 . S
H551 C484 0.961 . S
H552 C484 0.959 . S
H553 C487 0.932 . S
H554 C491 0.929 . S
H555 C492 0.963 . S
H556 C492 0.959 . S
H557 C492 0.959 1_565 S
H558 C493 0.960 . S
H559 C493 0.962 . S
H560 C493 0.961 . S
H561 C495 0.929 . S
H562 C498 0.930 . S
H563 C499 0.929 . S
H564 C502 0.930 . S
H565 C505 0.929 . S
H566 C506 0.930 . S
H567 C510 0.962 . S
H568 C510 0.959 . S
H569 C510 0.958 . S
C570 C571 1.560 . S
C570 H631 0.959 . S
C570 H632 0.959 . S
C570 H633 0.960 . S
C571 C570 1.560 . S
C571 O626 1.426 . S
C571 H630 0.980 . S
C572 C573 1.407 . S
C572 C577 1.418 . S
C572 O626 1.334 . S
C573 C572 1.407 . S
C573 C574 1.360 . S
C573 H634 0.929 . S
C574 C573 1.360 . S
C574 C575 1.401 . S
C574 C578 1.527 . S
C575 C574 1.401 . S
C575 C576 1.405 . S
C575 C608 1.587 . S
C576 C575 1.405 . S
C576 C577 1.332 . S
C576 C579 1.496 . S
C577 C572 1.418 . S
C577 C576 1.332 . S
C577 H635 0.929 . S
C578 C574 1.527 . S
C578 H636 0.959 . S
C578 H637 0.961 . S
C578 H638 0.961 . S
C579 C576 1.496 . S
C579 H639 0.960 . S
C579 H640 0.960 . S
C579 H641 0.961 . S
C580 C581 1.517 . S
C580 H643 0.961 . S
C580 H644 0.960 . S
C580 H645 0.959 . S
C581 C580 1.517 . S
C581 O629 1.468 . S
C581 H642 0.980 . S
C582 C583 1.349 . S
C582 C587 1.367 . S
C582 O629 1.408 . S
C583 C582 1.349 . S
C583 C584 1.407 . S
C583 H646 0.930 . S
C584 C583 1.407 . S
C584 C585 1.449 . S
C584 C588 1.535 . S
C585 C584 1.449 . S
C585 C586 1.384 . S
C585 C610 1.553 . S
C586 C585 1.384 . S
C586 C587 1.364 . S
C586 C589 1.450 . S
C587 C582 1.367 . S
C587 C586 1.364 . S
C587 H647 0.931 . S
C588 C584 1.535 . S
C588 H648 0.959 . S
C588 H649 0.961 . S
C588 H650 0.959 . S
C589 C586 1.450 . S
C589 H651 0.960 . S
C589 H652 0.960 . S
C589 H653 0.960 . S
C590 C591 1.309 . S
C590 C595 1.304 . S
C590 O628 1.435 . S
C591 C590 1.309 . S
C591 C592 1.476 . S
C591 H655 0.930 . S
C592 C591 1.476 . S
C592 C593 1.400 . S
C592 C596 1.567 . S
C593 C592 1.400 . S
C593 C594 1.373 . S
C593 C615 1.432 . S
C594 C593 1.373 . S
C594 C595 1.339 . S
C594 C597 1.530 . S
C595 C590 1.304 . S
C595 C594 1.339 . S
C595 H656 0.930 . S
C596 C592 1.567 . S
C596 H657 0.961 . S
C596 H658 0.960 . S
C596 H659 0.958 . S
C597 C594 1.530 . S
C597 H660 0.961 . S
C597 H661 0.960 . S
C597 H662 0.960 . S
C598 C599 1.530 . S
C598 H664 0.961 . S
C598 H665 0.961 . S
C598 H666 0.959 . S
C599 C598 1.530 . S
C599 O627 1.412 . S
C599 H663 0.980 . S
C600 C601 1.288 . S
C600 C605 1.377 . S
C600 O627 1.393 . S
C601 C600 1.288 . S
C601 C602 1.369 . S
C601 H667 0.932 . S
C602 C601 1.369 . S
C602 C603 1.398 . S
C602 C606 1.527 . S
C603 C602 1.398 . S
C603 C604 1.380 . S
C603 C617 1.497 . S
C604 C603 1.380 . S
C604 C605 1.383 . S
C604 C607 1.603 . S
C605 C600 1.377 . S
C605 C604 1.383 . S
C605 H668 0.929 . S
C606 C602 1.527 . S
C606 H669 0.961 . S
C606 H670 0.959 . S
C606 H671 0.959 . S
C607 C604 1.603 . S
C607 H672 0.960 . S
C607 H673 0.962 . S
C607 H674 0.961 . S
C608 C575 1.587 . S
C608 C609 1.360 . S
C608 C621 1.412 . S
C609 C608 1.360 . S
C609 C610 1.365 . S
C609 H675 0.929 . S
C610 C585 1.553 . S
C610 C609 1.365 . S
C610 C611 1.404 . S
C611 C610 1.404 . S
C611 C612 1.395 . S
C611 C622 1.451 . S
C612 C611 1.395 . S
C612 C613 1.322 . S
C612 H676 0.930 . S
C613 C612 1.322 . S
C613 C614 1.459 . S
C613 H677 0.929 . S
C614 C613 1.459 . S
C614 C615 1.445 . S
C614 C623 1.395 . S
C615 C593 1.432 . S
C615 C614 1.445 . S
C615 C616 1.370 . S
C616 C615 1.370 . S
C616 C617 1.438 . S
C616 H678 0.930 . S
C617 C603 1.497 . S
C617 C616 1.438 . S
C617 C618 1.360 . S
C618 C617 1.360 . S
C618 C619 1.401 . S
C618 C623 1.446 . S
C619 C618 1.401 . S
C619 C620 1.347 . S
C619 H679 0.929 . S
C620 C619 1.347 . S
C620 C621 1.455 . S
C620 H680 0.930 . S
C621 C608 1.412 . S
C621 C620 1.455 . S
C621 C622 1.331 . S
C622 C611 1.451 . S
C622 C621 1.331 . S
C622 C623 1.497 . S
C623 C614 1.395 . S
C623 C618 1.446 . S
C623 C622 1.497 . S
C624 C625 1.582 . S
C624 H681 0.962 . S
C624 H682 0.959 . S
C624 H683 0.958 . S
C625 C624 1.582 . S
C625 O628 1.458 . S
C625 H654 0.980 . S
O626 C571 1.426 . S
O626 C572 1.334 . S
O627 C599 1.412 . S
O627 C600 1.393 . S
O628 C590 1.435 . S
O628 C625 1.458 . S
O629 C581 1.468 . S
O629 C582 1.408 . S
H630 C571 0.980 . S
H631 C570 0.959 . S
H632 C570 0.959 . S
H633 C570 0.960 . S
H634 C573 0.929 . S
H635 C577 0.929 . S
H636 C578 0.959 . S
H637 C578 0.961 . S
H638 C578 0.961 . S
H639 C579 0.960 . S
H640 C579 0.960 . S
H641 C579 0.961 . S
H642 C581 0.980 . S
H643 C580 0.961 . S
H644 C580 0.960 . S
H645 C580 0.959 . S
H646 C583 0.930 . S
H647 C587 0.931 . S
H648 C588 0.959 . S
H649 C588 0.961 . S
H650 C588 0.959 . S
H651 C589 0.960 . S
H652 C589 0.960 . S
H653 C589 0.960 . S
H654 C625 0.980 . S
H655 C591 0.930 . S
H656 C595 0.930 . S
H657 C596 0.961 . S
H658 C596 0.960 . S
H659 C596 0.958 . S
H660 C597 0.961 . S
H661 C597 0.960 . S
H662 C597 0.960 . S
H663 C599 0.980 . S
H664 C598 0.961 . S
H665 C598 0.961 . S
H666 C598 0.959 . S
H667 C601 0.932 . S
H668 C605 0.929 . S
H669 C606 0.961 . S
H670 C606 0.959 . S
H671 C606 0.959 . S
H672 C607 0.960 . S
H673 C607 0.962 . S
H674 C607 0.961 . S
H675 C609 0.929 . S
H676 C612 0.930 . S
H677 C613 0.929 . S
H678 C616 0.930 . S
H679 C619 0.929 . S
H680 C620 0.930 . S
H681 C624 0.962 . S
H682 C624 0.959 . S
H683 C624 0.958 . S
Co684 O685 2.216 . S
Co684 O686 2.091 . S
Co684 O688 2.004 . S
Co684 O694 2.021 . S
Co684 O696 2.137 . S
Co684 O697 2.244 . S
O685 Co684 2.216 . S
O685 C692 1.247 . S
O686 Co684 2.091 . S
O686 C692 1.261 . S
C687 O696 1.247 . S
C687 O697 1.272 . S
O688 Co684 2.004 . S
O688 C693 1.259 . S
Co689 O690 2.061 . S
Co689 O695 2.052 . S
Co689 O697 2.135 . S
O690 Co689 2.061 . S
O690 C693 1.235 . S
C691 O694 1.238 . S
C691 O695 1.241 . S
C692 O685 1.247 . S
C692 O686 1.261 . S
C693 O688 1.259 . S
C693 O690 1.235 . S
O694 Co684 2.021 . S
O694 C691 1.238 . S
O695 Co689 2.052 . S
O695 C691 1.241 . S
O696 Co684 2.137 . S
O696 C687 1.247 . S
O697 Co684 2.244 . S
O697 C687 1.272 . S
O697 Co689 2.135 . S
Co698 O699 2.216 . S
Co698 O700 2.091 . S
Co698 O702 2.004 . S
Co698 O708 2.021 . S
Co698 O710 2.137 . S
Co698 O711 2.244 . S
O699 Co698 2.216 . S
O699 C706 1.247 . S
O700 Co698 2.091 . S
O700 C706 1.261 . S
C701 O710 1.247 . S
C701 O711 1.272 . S
O702 Co698 2.004 . S
O702 C707 1.259 . S
Co703 O704 2.061 . S
Co703 O709 2.052 . S
Co703 O711 2.135 . S
O704 Co703 2.061 . S
O704 C707 1.235 . S
C705 O708 1.238 . S
C705 O709 1.241 . S
C706 O699 1.247 . S
C706 O700 1.261 . S
C707 O702 1.259 . S
C707 O704 1.235 . S
O708 Co698 2.021 . S
O708 C705 1.238 . S
O709 Co703 2.052 . S
O709 C705 1.241 . S
O710 Co698 2.137 . S
O710 C701 1.247 . S
O711 Co698 2.244 . S
O711 C701 1.272 . S
O711 Co703 2.135 . S
Co712 O713 2.216 . S
Co712 O714 2.091 . S
Co712 O716 2.004 . S
Co712 O722 2.021 . S
Co712 O724 2.137 . S
Co712 O725 2.244 . S
O713 Co712 2.216 . S
O713 C720 1.247 . S
O714 Co712 2.091 . S
O714 C720 1.261 . S
C715 O724 1.247 . S
C715 O725 1.272 . S
O716 Co712 2.004 . S
O716 C721 1.259 . S
Co717 O718 2.061 . S
Co717 O723 2.052 . S
Co717 O725 2.135 . S
O718 Co717 2.061 . S
O718 C721 1.235 . S
C719 O722 1.238 . S
C719 O723 1.241 . S
C720 O713 1.247 . S
C720 O714 1.261 . S
C721 O716 1.259 . S
C721 O718 1.235 . S
O722 Co712 2.021 . S
O722 C719 1.238 . S
O723 Co717 2.052 . S
O723 C719 1.241 . S
O724 Co712 2.137 . S
O724 C715 1.247 . S
O725 Co712 2.244 . S
O725 C715 1.272 . S
O725 Co717 2.135 . S
Co726 O727 2.216 . S
Co726 O728 2.091 . S
Co726 O730 2.004 . S
Co726 O736 2.021 . S
Co726 O738 2.137 . S
Co726 O739 2.244 . S
O727 Co726 2.216 . S
O727 C734 1.247 . S
O728 Co726 2.091 . S
O728 C734 1.261 . S
C729 O738 1.247 . S
C729 O739 1.272 . S
O730 Co726 2.004 . S
O730 C735 1.259 . S
Co731 O732 2.061 . S
Co731 O737 2.052 . S
Co731 O739 2.135 . S
O732 Co731 2.061 . S
O732 C735 1.235 . S
C733 O736 1.238 . S
C733 O737 1.241 . S
C734 O727 1.247 . S
C734 O728 1.261 . S
C735 O730 1.259 . S
C735 O732 1.235 . S
O736 Co726 2.021 . S
O736 C733 1.238 . S
O737 Co731 2.052 . S
O737 C733 1.241 . S
O738 Co726 2.137 . S
O738 C729 1.247 . S
O739 Co726 2.244 . S
O739 C729 1.272 . S
O739 Co731 2.135 . S
Co740 O741 2.216 . S
Co740 O742 2.091 . S
Co740 O744 2.004 . S
Co740 O750 2.021 . S
Co740 O752 2.137 . S
Co740 O753 2.244 . S
O741 Co740 2.216 . S
O741 C748 1.247 . S
O742 Co740 2.091 . S
O742 C748 1.261 . S
C743 O752 1.247 . S
C743 O753 1.272 . S
O744 Co740 2.004 . S
O744 C749 1.259 . S
Co745 O746 2.061 . S
Co745 O751 2.052 . S
Co745 O753 2.135 . S
O746 Co745 2.061 . S
O746 C749 1.235 . S
C747 O750 1.238 . S
C747 O751 1.241 . S
C748 O741 1.247 . S
C748 O742 1.261 . S
C749 O744 1.259 . S
C749 O746 1.235 . S
O750 Co740 2.021 . S
O750 C747 1.238 . S
O751 Co745 2.052 . S
O751 C747 1.241 . S
O752 Co740 2.137 . S
O752 C743 1.247 . S
O753 Co740 2.244 . S
O753 C743 1.272 . S
O753 Co745 2.135 . S
Co754 O755 2.216 . S
Co754 O756 2.091 . S
Co754 O758 2.004 . S
Co754 O764 2.021 . S
Co754 O766 2.137 . S
Co754 O767 2.244 . S
O755 Co754 2.216 . S
O755 C762 1.247 . S
O756 Co754 2.091 . S
O756 C762 1.261 . S
C757 O766 1.247 . S
C757 O767 1.272 . S
O758 Co754 2.004 . S
O758 C763 1.259 . S
Co759 O760 2.061 . S
Co759 O765 2.052 . S
Co759 O767 2.135 . S
O760 Co759 2.061 . S
O760 C763 1.235 . S
C761 O764 1.238 . S
C761 O765 1.241 . S
C762 O755 1.247 . S
C762 O756 1.261 . S
C763 O758 1.259 . S
C763 O760 1.235 . S
O764 Co754 2.021 . S
O764 C761 1.238 . S
O765 Co759 2.052 . S
O765 C761 1.241 . S
O766 Co754 2.137 . S
O766 C757 1.247 . S
O767 Co754 2.244 . S
O767 C757 1.272 . S
O767 Co759 2.135 . S
H768 C780 0.930 . S
H769 C782 0.930 . S
H770 C783 0.930 . S
H771 C787 0.959 . S
H772 C787 0.959 . S
H773 C787 0.961 . S
H774 C788 0.960 . S
H775 C788 0.961 . S
H776 C788 0.959 . S
H777 C791 0.929 . S
H778 C792 0.931 . S
H779 C794 0.930 . S
C780 H768 0.930 . S
C780 C781 1.399 . S
C780 C785 1.399 . S
C781 C780 1.399 . S
C781 C782 1.376 . S
C782 H769 0.930 . S
C782 C781 1.376 . S
C782 C783 1.388 . S
C783 H770 0.930 . S
C783 C782 1.388 . S
C783 C784 1.390 . S
C784 C783 1.390 . S
C784 C785 1.394 . S
C784 C790 1.465 . S
C785 C780 1.399 . S
C785 C784 1.394 . S
C785 C786 1.516 . S
C786 C785 1.516 . S
C786 C787 1.502 . S
C786 C788 1.561 . S
C786 C789 1.526 . S
C787 H771 0.959 . S
C787 H772 0.959 . S
C787 H773 0.961 . S
C787 C786 1.502 . S
C788 H774 0.960 . S
C788 H775 0.961 . S
C788 H776 0.959 . S
C788 C786 1.561 . S
C789 C786 1.526 . S
C789 C790 1.396 . S
C789 C794 1.390 . S
C790 C784 1.465 . S
C790 C789 1.396 . S
C790 C791 1.399 . S
C791 H777 0.929 . S
C791 C790 1.399 . S
C791 C792 1.385 . S
C792 H778 0.931 . S
C792 C791 1.385 . S
C792 C793 1.389 . S
C793 C792 1.389 . S
C793 C794 1.387 . S
C794 H779 0.930 . S
C794 C789 1.390 . S
C794 C793 1.387 . S
H795 C807 0.930 . S
H796 C809 0.930 . S
H797 C810 0.930 . S
H798 C814 0.959 . S
H799 C814 0.959 . S
H800 C814 0.961 . S
H801 C815 0.960 . S
H802 C815 0.961 . S
H803 C815 0.959 . S
H804 C818 0.929 . S
H805 C819 0.931 . S
H806 C821 0.930 . S
C807 H795 0.930 . S
C807 C808 1.399 . S
C807 C812 1.399 . S
C808 C807 1.399 . S
C808 C809 1.376 . S
C809 H796 0.930 . S
C809 C808 1.376 . S
C809 C810 1.388 . S
C810 H797 0.930 . S
C810 C809 1.388 . S
C810 C811 1.390 . S
C811 C810 1.390 . S
C811 C812 1.394 . S
C811 C817 1.465 . S
C812 C807 1.399 . S
C812 C811 1.394 . S
C812 C813 1.516 . S
C813 C812 1.516 . S
C813 C814 1.502 . S
C813 C815 1.561 . S
C813 C816 1.526 . S
C814 H798 0.959 . S
C814 H799 0.959 . S
C814 H800 0.961 . S
C814 C813 1.502 . S
C815 H801 0.960 . S
C815 H802 0.961 . S
C815 H803 0.959 . S
C815 C813 1.561 . S
C816 C813 1.526 . S
C816 C817 1.396 . S
C816 C821 1.390 . S
C817 C811 1.465 . S
C817 C816 1.396 . S
C817 C818 1.399 . S
C818 H804 0.929 . S
C818 C817 1.399 . S
C818 C819 1.385 . S
C819 H805 0.931 . S
C819 C818 1.385 . S
C819 C820 1.389 . S
C820 C819 1.389 . S
C820 C821 1.387 . S
C821 H806 0.930 . S
C821 C816 1.390 . S
C821 C820 1.387 . S
H822 C834 0.930 . S
H823 C836 0.930 . S
H824 C837 0.930 . S
H825 C841 0.959 . S
H826 C841 0.959 . S
H827 C841 0.961 . S
H828 C842 0.960 . S
H829 C842 0.961 . S
H830 C842 0.959 . S
H831 C845 0.929 . S
H832 C846 0.931 . S
H833 C848 0.930 . S
C834 H822 0.930 . S
C834 C835 1.399 . S
C834 C839 1.399 . S
C835 C834 1.399 . S
C835 C836 1.376 . S
C836 H823 0.930 . S
C836 C835 1.376 . S
C836 C837 1.388 . S
C837 H824 0.930 . S
C837 C836 1.388 . S
C837 C838 1.390 . S
C838 C837 1.390 . S
C838 C839 1.394 . S
C838 C844 1.465 . S
C839 C834 1.399 . S
C839 C838 1.394 . S
C839 C840 1.516 . S
C840 C839 1.516 . S
C840 C841 1.502 . S
C840 C842 1.561 . S
C840 C843 1.526 . S
C841 H825 0.959 . S
C841 H826 0.959 . S
C841 H827 0.961 . S
C841 C840 1.502 . S
C842 H828 0.960 . S
C842 H829 0.961 . S
C842 H830 0.959 . S
C842 C840 1.561 . S
C843 C840 1.526 . S
C843 C844 1.396 . S
C843 C848 1.390 . S
C844 C838 1.465 . S
C844 C843 1.396 . S
C844 C845 1.399 . S
C845 H831 0.929 . S
C845 C844 1.399 . S
C845 C846 1.385 . S
C846 H832 0.931 . S
C846 C845 1.385 . S
C846 C847 1.389 . S
C847 C846 1.389 . S
C847 C848 1.387 . S
C848 H833 0.930 . S
C848 C843 1.390 . S
C848 C847 1.387 . S
H849 C861 0.930 . S
H850 C863 0.930 . S
H851 C864 0.930 . S
H852 C868 0.959 . S
H853 C868 0.959 . S
H854 C868 0.961 . S
H855 C869 0.960 . S
H856 C869 0.961 . S
H857 C869 0.959 . S
H858 C872 0.929 . S
H859 C873 0.931 . S
H860 C875 0.930 . S
C861 H849 0.930 . S
C861 C862 1.399 . S
C861 C866 1.399 . S
C862 C861 1.399 . S
C862 C863 1.376 . S
C863 H850 0.930 . S
C863 C862 1.376 . S
C863 C864 1.388 . S
C864 H851 0.930 . S
C864 C863 1.388 . S
C864 C865 1.390 . S
C865 C864 1.390 . S
C865 C866 1.394 . S
C865 C871 1.465 . S
C866 C861 1.399 . S
C866 C865 1.394 . S
C866 C867 1.516 . S
C867 C866 1.516 . S
C867 C868 1.502 . S
C867 C869 1.561 . S
C867 C870 1.526 . S
C868 H852 0.959 . S
C868 H853 0.959 . S
C868 H854 0.961 . S
C868 C867 1.502 . S
C869 H855 0.960 . S
C869 H856 0.961 . S
C869 H857 0.959 . S
C869 C867 1.561 . S
C870 C867 1.526 . S
C870 C871 1.396 . S
C870 C875 1.390 . S
C871 C865 1.465 . S
C871 C870 1.396 . S
C871 C872 1.399 . S
C872 H858 0.929 . S
C872 C871 1.399 . S
C872 C873 1.385 . S
C873 H859 0.931 . S
C873 C872 1.385 . S
C873 C874 1.389 . S
C874 C873 1.389 . S
C874 C875 1.387 . S
C875 H860 0.930 . S
C875 C870 1.390 . S
C875 C874 1.387 . S
H876 C888 0.930 . S
H877 C890 0.930 . S
H878 C891 0.930 . S
H879 C895 0.959 . S
H880 C895 0.959 . S
H881 C895 0.961 . S
H882 C896 0.960 . S
H883 C896 0.961 . S
H884 C896 0.959 . S
H885 C899 0.929 . S
H886 C900 0.931 . S
H887 C902 0.930 . S
C888 H876 0.930 . S
C888 C889 1.399 . S
C888 C893 1.399 . S
C889 C888 1.399 . S
C889 C890 1.376 . S
C890 H877 0.930 . S
C890 C889 1.376 . S
C890 C891 1.388 . S
C891 H878 0.930 . S
C891 C890 1.388 . S
C891 C892 1.390 . S
C892 C891 1.390 . S
C892 C893 1.394 . S
C892 C898 1.465 . S
C893 C888 1.399 . S
C893 C892 1.394 . S
C893 C894 1.516 . S
C894 C893 1.516 . S
C894 C895 1.502 . S
C894 C896 1.561 . S
C894 C897 1.526 . S
C895 H879 0.959 . S
C895 H880 0.959 . S
C895 H881 0.961 . S
C895 C894 1.502 . S
C896 H882 0.960 . S
C896 H883 0.961 . S
C896 H884 0.959 . S
C896 C894 1.561 . S
C897 C894 1.526 . S
C897 C898 1.396 . S
C897 C902 1.390 . S
C898 C892 1.465 . S
C898 C897 1.396 . S
C898 C899 1.399 . S
C899 H885 0.929 . S
C899 C898 1.399 . S
C899 C900 1.385 . S
C900 H886 0.931 . S
C900 C899 1.385 . S
C900 C901 1.389 . S
C901 C900 1.389 . S
C901 C902 1.387 . S
C902 H887 0.930 . S
C902 C897 1.390 . S
C902 C901 1.387 . S
H903 C915 0.930 . S
H904 C917 0.930 . S
H905 C918 0.930 . S
H906 C922 0.959 . S
H907 C922 0.959 . S
H908 C922 0.961 . S
H909 C923 0.960 . S
H910 C923 0.961 . S
H911 C923 0.959 . S
H912 C926 0.929 . S
H913 C927 0.931 . S
H914 C929 0.930 . S
C915 H903 0.930 . S
C915 C916 1.399 . S
C915 C920 1.399 . S
C916 C915 1.399 . S
C916 C917 1.376 . S
C917 H904 0.930 . S
C917 C916 1.376 . S
C917 C918 1.388 . S
C918 H905 0.930 . S
C918 C917 1.388 . S
C918 C919 1.390 . S
C919 C918 1.390 . S
C919 C920 1.394 . S
C919 C925 1.465 . S
C920 C915 1.399 . S
C920 C919 1.394 . S
C920 C921 1.516 . S
C921 C920 1.516 . S
C921 C922 1.502 . S
C921 C923 1.561 . S
C921 C924 1.526 . S
C922 H906 0.959 . S
C922 H907 0.959 . S
C922 H908 0.961 . S
C922 C921 1.502 . S
C923 H909 0.960 . S
C923 H910 0.961 . S
C923 H911 0.959 . S
C923 C921 1.561 . S
C924 C921 1.526 . S
C924 C925 1.396 . S
C924 C929 1.390 . S
C925 C919 1.465 . S
C925 C924 1.396 . S
C925 C926 1.399 . S
C926 H912 0.929 . S
C926 C925 1.399 . S
C926 C927 1.385 . S
C927 H913 0.931 . S
C927 C926 1.385 . S
C927 C928 1.389 . S
C928 C927 1.389 . S
C928 C929 1.387 . S
C929 H914 0.930 . S
C929 C924 1.390 . S
C929 C928 1.387 . S
H930 C942 0.930 . S
H931 C944 0.930 . S
H932 C945 0.930 . S
H933 C949 0.959 . S
H934 C949 0.959 . S
H935 C949 0.961 . S
H936 C950 0.960 . S
H937 C950 0.961 . S
H938 C950 0.959 . S
H939 C953 0.929 . S
H940 C954 0.931 . S
H941 C956 0.930 . S
C942 H930 0.930 . S
C942 C943 1.399 . S
C942 C947 1.399 . S
C943 C942 1.399 . S
C943 C944 1.376 . S
C944 H931 0.930 . S
C944 C943 1.376 . S
C944 C945 1.388 . S
C945 H932 0.930 . S
C945 C944 1.388 . S
C945 C946 1.390 . S
C946 C945 1.390 . S
C946 C947 1.394 . S
C946 C952 1.465 . S
C947 C942 1.399 . S
C947 C946 1.394 . S
C947 C948 1.516 . S
C948 C947 1.516 . S
C948 C949 1.502 . S
C948 C950 1.561 . S
C948 C951 1.526 . S
C949 H933 0.959 . S
C949 H934 0.959 . S
C949 H935 0.961 . S
C949 C948 1.502 . S
C950 H936 0.960 . S
C950 H937 0.961 . S
C950 H938 0.959 . S
C950 C948 1.561 . S
C951 C948 1.526 . S
C951 C952 1.396 . S
C951 C956 1.390 . S
C952 C946 1.465 . S
C952 C951 1.396 . S
C952 C953 1.399 . S
C953 H939 0.929 . S
C953 C952 1.399 . S
C953 C954 1.385 . S
C954 H940 0.931 . S
C954 C953 1.385 . S
C954 C955 1.389 . S
C955 C954 1.389 . S
C955 C956 1.387 . S
C956 H941 0.930 . S
C956 C951 1.390 . S
C956 C955 1.387 . S
H957 C969 0.930 . S
H958 C971 0.930 . S
H959 C972 0.930 . S
H960 C976 0.959 . S
H961 C976 0.959 . S
H962 C976 0.961 . S
H963 C977 0.960 . S
H964 C977 0.961 . S
H965 C977 0.959 . S
H966 C980 0.929 . S
H967 C981 0.931 . S
H968 C983 0.930 . S
C969 H957 0.930 . S
C969 C970 1.399 . S
C969 C974 1.399 . S
C970 C969 1.399 . S
C970 C971 1.376 . S
C971 H958 0.930 . S
C971 C970 1.376 . S
C971 C972 1.388 . S
C972 H959 0.930 . S
C972 C971 1.388 . S
C972 C973 1.390 . S
C973 C972 1.390 . S
C973 C974 1.394 . S
C973 C979 1.465 . S
C974 C969 1.399 . S
C974 C973 1.394 . S
C974 C975 1.516 . S
C975 C974 1.516 . S
C975 C976 1.502 . S
C975 C977 1.561 . S
C975 C978 1.526 . S
C976 H960 0.959 . S
C976 H961 0.959 . S
C976 H962 0.961 . S
C976 C975 1.502 . S
C977 H963 0.960 . S
C977 H964 0.961 . S
C977 H965 0.959 . S
C977 C975 1.561 . S
C978 C975 1.526 . S
C978 C979 1.396 . S
C978 C983 1.390 . S
C979 C973 1.465 . S
C979 C978 1.396 . S
C979 C980 1.399 . S
C980 H966 0.929 . S
C980 C979 1.399 . S
C980 C981 1.385 . S
C981 H967 0.931 . S
C981 C980 1.385 . S
C981 C982 1.389 . S
C982 C981 1.389 . S
C982 C983 1.387 . S
C983 H968 0.930 . S
C983 C978 1.390 . S
C983 C982 1.387 . S
H984 C996 0.930 . S
H985 C998 0.930 . S
H986 C999 0.930 . S
H987 C1003 0.959 . S
H988 C1003 0.959 . S
H989 C1003 0.961 . S
H990 C1004 0.960 . S
H991 C1004 0.961 . S
H992 C1004 0.959 . S
H993 C1007 0.929 . S
H994 C1008 0.931 . S
H995 C1010 0.930 . S
C996 H984 0.930 . S
C996 C997 1.399 . S
C996 C1001 1.399 . S
C997 C996 1.399 . S
C997 C998 1.376 . S
C998 H985 0.930 . S
C998 C997 1.376 . S
C998 C999 1.388 . S
C999 H986 0.930 . S
C999 C998 1.388 . S
C999 C1000 1.390 . S
C1000 C999 1.390 . S
C1000 C1001 1.394 . S
C1000 C1006 1.465 . S
C1001 C996 1.399 . S
C1001 C1000 1.394 . S
C1001 C1002 1.516 . S
C1002 C1001 1.516 . S
C1002 C1003 1.502 . S
C1002 C1004 1.561 . S
C1002 C1005 1.526 . S
C1003 H987 0.959 . S
C1003 H988 0.959 . S
C1003 H989 0.961 . S
C1003 C1002 1.502 . S
C1004 H990 0.960 . S
C1004 H991 0.961 . S
C1004 H992 0.959 . S
C1004 C1002 1.561 . S
C1005 C1002 1.526 . S
C1005 C1006 1.396 . S
C1005 C1010 1.390 . S
C1006 C1000 1.465 . S
C1006 C1005 1.396 . S
C1006 C1007 1.399 . S
C1007 H993 0.929 . S
C1007 C1006 1.399 . S
C1007 C1008 1.385 . S
C1008 H994 0.931 . S
C1008 C1007 1.385 . S
C1008 C1009 1.389 . S
C1009 C1008 1.389 . S
C1009 C1010 1.387 . S
C1010 H995 0.930 . S
C1010 C1005 1.390 . S
C1010 C1009 1.387 . S
H1011 C1023 0.930 . S
H1012 C1025 0.930 . S
H1013 C1026 0.930 . S
H1014 C1030 0.959 . S
H1015 C1030 0.959 . S
H1016 C1030 0.961 . S
H1017 C1031 0.960 . S
H1018 C1031 0.961 . S
H1019 C1031 0.959 . S
H1020 C1034 0.929 . S
H1021 C1035 0.931 . S
H1022 C1037 0.930 . S
C1023 H1011 0.930 . S
C1023 C1024 1.399 . S
C1023 C1028 1.399 . S
C1024 C1023 1.399 . S
C1024 C1025 1.376 . S
C1025 H1012 0.930 . S
C1025 C1024 1.376 . S
C1025 C1026 1.388 . S
C1026 H1013 0.930 . S
C1026 C1025 1.388 . S
C1026 C1027 1.390 . S
C1027 C1026 1.390 . S
C1027 C1028 1.394 . S
C1027 C1033 1.465 . S
C1028 C1023 1.399 . S
C1028 C1027 1.394 . S
C1028 C1029 1.516 . S
C1029 C1028 1.516 . S
C1029 C1030 1.502 . S
C1029 C1031 1.561 . S
C1029 C1032 1.526 . S
C1030 H1014 0.959 . S
C1030 H1015 0.959 . S
C1030 H1016 0.961 . S
C1030 C1029 1.502 . S
C1031 H1017 0.960 . S
C1031 H1018 0.961 . S
C1031 H1019 0.959 . S
C1031 C1029 1.561 . S
C1032 C1029 1.526 . S
C1032 C1033 1.396 . S
C1032 C1037 1.390 . S
C1033 C1027 1.465 . S
C1033 C1032 1.396 . S
C1033 C1034 1.399 . S
C1034 H1020 0.929 . S
C1034 C1033 1.399 . S
C1034 C1035 1.385 . S
C1035 H1021 0.931 . S
C1035 C1034 1.385 . S
C1035 C1036 1.389 . S
C1036 C1035 1.389 . S
C1036 C1037 1.387 . S
C1037 H1022 0.930 . S
C1037 C1032 1.390 . S
C1037 C1036 1.387 . S
H1038 C1050 0.930 . S
H1039 C1052 0.930 . S
H1040 C1053 0.930 . S
H1041 C1057 0.959 . S
H1042 C1057 0.959 . S
H1043 C1057 0.961 . S
H1044 C1058 0.960 . S
H1045 C1058 0.961 . S
H1046 C1058 0.959 . S
H1047 C1061 0.929 . S
H1048 C1062 0.931 . S
H1049 C1064 0.930 . S
C1050 H1038 0.930 . S
C1050 C1051 1.399 . S
C1050 C1055 1.399 . S
C1051 C1050 1.399 . S
C1051 C1052 1.376 . S
C1052 H1039 0.930 . S
C1052 C1051 1.376 . S
C1052 C1053 1.388 . S
C1053 H1040 0.930 . S
C1053 C1052 1.388 . S
C1053 C1054 1.390 . S
C1054 C1053 1.390 . S
C1054 C1055 1.394 . S
C1054 C1060 1.465 . S
C1055 C1050 1.399 . S
C1055 C1054 1.394 . S
C1055 C1056 1.516 . S
C1056 C1055 1.516 . S
C1056 C1057 1.502 . S
C1056 C1058 1.561 . S
C1056 C1059 1.526 . S
C1057 H1041 0.959 . S
C1057 H1042 0.959 . S
C1057 H1043 0.961 . S
C1057 C1056 1.502 . S
C1058 H1044 0.960 . S
C1058 H1045 0.961 . S
C1058 H1046 0.959 . S
C1058 C1056 1.561 . S
C1059 C1056 1.526 . S
C1059 C1060 1.396 . S
C1059 C1064 1.390 . S
C1060 C1054 1.465 . S
C1060 C1059 1.396 . S
C1060 C1061 1.399 . S
C1061 H1047 0.929 . S
C1061 C1060 1.399 . S
C1061 C1062 1.385 . S
C1062 H1048 0.931 . S
C1062 C1061 1.385 . S
C1062 C1063 1.389 . S
C1063 C1062 1.389 . S
C1063 C1064 1.387 . S
C1064 H1049 0.930 . S
C1064 C1059 1.390 . S
C1064 C1063 1.387 . S
H1065 C1077 0.930 . S
H1066 C1079 0.930 . S
H1067 C1080 0.930 . S
H1068 C1084 0.959 . S
H1069 C1084 0.959 . S
H1070 C1084 0.961 . S
H1071 C1085 0.960 . S
H1072 C1085 0.961 . S
H1073 C1085 0.959 . S
H1074 C1088 0.929 . S
H1075 C1089 0.931 . S
H1076 C1091 0.930 . S
C1077 H1065 0.930 . S
C1077 C1078 1.399 . S
C1077 C1082 1.399 . S
C1078 C1077 1.399 . S
C1078 C1079 1.376 . S
C1079 H1066 0.930 . S
C1079 C1078 1.376 . S
C1079 C1080 1.388 . S
C1080 H1067 0.930 . S
C1080 C1079 1.388 . S
C1080 C1081 1.390 . S
C1081 C1080 1.390 . S
C1081 C1082 1.394 . S
C1081 C1087 1.465 . S
C1082 C1077 1.399 . S
C1082 C1081 1.394 . S
C1082 C1083 1.516 . S
C1083 C1082 1.516 . S
C1083 C1084 1.502 . S
C1083 C1085 1.561 . S
C1083 C1086 1.526 . S
C1084 H1068 0.959 . S
C1084 H1069 0.959 . S
C1084 H1070 0.961 . S
C1084 C1083 1.502 . S
C1085 H1071 0.960 . S
C1085 H1072 0.961 . S
C1085 H1073 0.959 . S
C1085 C1083 1.561 . S
C1086 C1083 1.526 . S
C1086 C1087 1.396 . S
C1086 C1091 1.390 . S
C1087 C1081 1.465 . S
C1087 C1086 1.396 . S
C1087 C1088 1.399 . S
C1088 H1074 0.929 . S
C1088 C1087 1.399 . S
C1088 C1089 1.385 . S
C1089 H1075 0.931 . S
C1089 C1088 1.385 . S
C1089 C1090 1.389 . S
C1090 C1089 1.389 . S
C1090 C1091 1.387 . S
C1091 H1076 0.930 . S
C1091 C1086 1.390 . S
C1091 C1090 1.387 . S
H1092 C1104 0.930 . S
H1093 C1106 0.930 . S
H1094 C1107 0.930 . S
H1095 C1111 0.959 . S
H1096 C1111 0.959 . S
H1097 C1111 0.961 . S
H1098 C1112 0.960 . S
H1099 C1112 0.961 . S
H1100 C1112 0.959 . S
H1101 C1115 0.929 . S
H1102 C1116 0.931 . S
H1103 C1118 0.930 . S
C1104 H1092 0.930 . S
C1104 C1105 1.399 . S
C1104 C1109 1.399 . S
C1105 C1104 1.399 . S
C1105 C1106 1.376 . S
C1106 H1093 0.930 . S
C1106 C1105 1.376 . S
C1106 C1107 1.388 . S
C1107 H1094 0.930 . S
C1107 C1106 1.388 . S
C1107 C1108 1.390 . S
C1108 C1107 1.390 . S
C1108 C1109 1.394 . S
C1108 C1114 1.465 . S
C1109 C1104 1.399 . S
C1109 C1108 1.394 . S
C1109 C1110 1.516 . S
C1110 C1109 1.516 . S
C1110 C1111 1.502 . S
C1110 C1112 1.561 . S
C1110 C1113 1.526 . S
C1111 H1095 0.959 . S
C1111 H1096 0.959 . S
C1111 H1097 0.961 . S
C1111 C1110 1.502 . S
C1112 H1098 0.960 . S
C1112 H1099 0.961 . S
C1112 H1100 0.959 . S
C1112 C1110 1.561 . S
C1113 C1110 1.526 . S
C1113 C1114 1.396 . S
C1113 C1118 1.390 . S
C1114 C1108 1.465 . S
C1114 C1113 1.396 . S
C1114 C1115 1.399 . S
C1115 H1101 0.929 . S
C1115 C1114 1.399 . S
C1115 C1116 1.385 . S
C1116 H1102 0.931 . S
C1116 C1115 1.385 . S
C1116 C1117 1.389 . S
C1117 C1116 1.389 . S
C1117 C1118 1.387 . S
C1118 H1103 0.930 . S
C1118 C1113 1.390 . S
C1118 C1117 1.387 . S
H1119 C1131 0.930 . S
H1120 C1133 0.930 . S
H1121 C1134 0.930 . S
H1122 C1138 0.959 . S
H1123 C1138 0.959 . S
H1124 C1138 0.961 . S
H1125 C1139 0.960 . S
H1126 C1139 0.961 . S
H1127 C1139 0.959 . S
H1128 C1142 0.929 . S
H1129 C1143 0.931 . S
H1130 C1145 0.930 . S
C1131 H1119 0.930 . S
C1131 C1132 1.399 . S
C1131 C1136 1.399 . S
C1132 C1131 1.399 . S
C1132 C1133 1.376 . S
C1133 H1120 0.930 . S
C1133 C1132 1.376 . S
C1133 C1134 1.388 . S
C1134 H1121 0.930 . S
C1134 C1133 1.388 . S
C1134 C1135 1.390 . S
C1135 C1134 1.390 . S
C1135 C1136 1.394 . S
C1135 C1141 1.465 . S
C1136 C1131 1.399 . S
C1136 C1135 1.394 . S
C1136 C1137 1.516 . S
C1137 C1136 1.516 . S
C1137 C1138 1.502 . S
C1137 C1139 1.561 . S
C1137 C1140 1.526 . S
C1138 H1122 0.959 . S
C1138 H1123 0.959 . S
C1138 H1124 0.961 . S
C1138 C1137 1.502 . S
C1139 H1125 0.960 . S
C1139 H1126 0.961 . S
C1139 H1127 0.959 . S
C1139 C1137 1.561 . S
C1140 C1137 1.526 . S
C1140 C1141 1.396 . S
C1140 C1145 1.390 . S
C1141 C1135 1.465 . S
C1141 C1140 1.396 . S
C1141 C1142 1.399 . S
C1142 H1128 0.929 . S
C1142 C1141 1.399 . S
C1142 C1143 1.385 . S
C1143 H1129 0.931 . S
C1143 C1142 1.385 . S
C1143 C1144 1.389 . S
C1144 C1143 1.389 . S
C1144 C1145 1.387 . S
C1145 H1130 0.930 . S
C1145 C1140 1.390 . S
C1145 C1144 1.387 . S
H1146 C1158 0.930 . S
H1147 C1160 0.930 . S
H1148 C1161 0.930 . S
H1149 C1165 0.959 . S
H1150 C1165 0.959 . S
H1151 C1165 0.961 . S
H1152 C1166 0.960 . S
H1153 C1166 0.961 . S
H1154 C1166 0.959 . S
H1155 C1169 0.929 . S
H1156 C1170 0.931 . S
H1157 C1172 0.930 . S
C1158 H1146 0.930 . S
C1158 C1159 1.399 . S
C1158 C1163 1.399 . S
C1159 C1158 1.399 . S
C1159 C1160 1.376 . S
C1160 H1147 0.930 . S
C1160 C1159 1.376 . S
C1160 C1161 1.388 . S
C1161 H1148 0.930 . S
C1161 C1160 1.388 . S
C1161 C1162 1.390 . S
C1162 C1161 1.390 . S
C1162 C1163 1.394 . S
C1162 C1168 1.465 . S
C1163 C1158 1.399 . S
C1163 C1162 1.394 . S
C1163 C1164 1.516 . S
C1164 C1163 1.516 . S
C1164 C1165 1.502 . S
C1164 C1166 1.561 . S
C1164 C1167 1.526 . S
C1165 H1149 0.959 . S
C1165 H1150 0.959 . S
C1165 H1151 0.961 . S
C1165 C1164 1.502 . S
C1166 H1152 0.960 . S
C1166 H1153 0.961 . S
C1166 H1154 0.959 . S
C1166 C1164 1.561 . S
C1167 C1164 1.526 . S
C1167 C1168 1.396 . S
C1167 C1172 1.390 . S
C1168 C1162 1.465 . S
C1168 C1167 1.396 . S
C1168 C1169 1.399 . S
C1169 H1155 0.929 . S
C1169 C1168 1.399 . S
C1169 C1170 1.385 . S
C1170 H1156 0.931 . S
C1170 C1169 1.385 . S
C1170 C1171 1.389 . S
C1171 C1170 1.389 . S
C1171 C1172 1.387 . S
C1172 H1157 0.930 . S
C1172 C1167 1.390 . S
C1172 C1171 1.387 . S
H1173 C1185 0.930 . S
H1174 C1187 0.930 . S
H1175 C1188 0.930 . S
H1176 C1192 0.959 . S
H1177 C1192 0.959 . S
H1178 C1192 0.961 . S
H1179 C1193 0.960 . S
H1180 C1193 0.961 . S
H1181 C1193 0.959 . S
H1182 C1196 0.929 . S
H1183 C1197 0.931 . S
H1184 C1199 0.930 . S
C1185 H1173 0.930 . S
C1185 C1186 1.399 . S
C1185 C1190 1.399 . S
C1186 C1185 1.399 . S
C1186 C1187 1.376 . S
C1187 H1174 0.930 . S
C1187 C1186 1.376 . S
C1187 C1188 1.388 . S
C1188 H1175 0.930 . S
C1188 C1187 1.388 . S
C1188 C1189 1.390 . S
C1189 C1188 1.390 . S
C1189 C1190 1.394 . S
C1189 C1195 1.465 . S
C1190 C1185 1.399 . S
C1190 C1189 1.394 . S
C1190 C1191 1.516 . S
C1191 C1190 1.516 . S
C1191 C1192 1.502 . S
C1191 C1193 1.561 . S
C1191 C1194 1.526 . S
C1192 H1176 0.959 . S
C1192 H1177 0.959 . S
C1192 H1178 0.961 . S
C1192 C1191 1.502 . S
C1193 H1179 0.960 . S
C1193 H1180 0.961 . S
C1193 H1181 0.959 . S
C1193 C1191 1.561 . S
C1194 C1191 1.526 . S
C1194 C1195 1.396 . S
C1194 C1199 1.390 1_556 S
C1195 C1189 1.465 . S
C1195 C1194 1.396 . S
C1195 C1196 1.399 1_556 S
C1196 H1182 0.929 . S
C1196 C1195 1.399 1_554 S
C1196 C1197 1.385 . S
C1197 H1183 0.931 . S
C1197 C1196 1.385 . S
C1197 C1198 1.389 . S
C1198 C1197 1.389 . S
C1198 C1199 1.387 . S
C1199 H1184 0.930 . S
C1199 C1194 1.390 1_554 S
C1199 C1198 1.387 . S
H1200 C1212 0.930 . S
H1201 C1214 0.930 . S
H1202 C1215 0.930 . S
H1203 C1219 0.959 . S
H1204 C1219 0.959 . S
H1205 C1219 0.961 . S
H1206 C1220 0.960 . S
H1207 C1220 0.961 . S
H1208 C1220 0.959 . S
H1209 C1223 0.929 . S
H1210 C1224 0.931 . S
H1211 C1226 0.930 . S
C1212 H1200 0.930 . S
C1212 C1213 1.399 . S
C1212 C1217 1.399 . S
C1213 C1212 1.399 . S
C1213 C1214 1.376 . S
C1214 H1201 0.930 . S
C1214 C1213 1.376 . S
C1214 C1215 1.388 . S
C1215 H1202 0.930 . S
C1215 C1214 1.388 . S
C1215 C1216 1.390 . S
C1216 C1215 1.390 . S
C1216 C1217 1.394 . S
C1216 C1222 1.465 . S
C1217 C1212 1.399 . S
C1217 C1216 1.394 . S
C1217 C1218 1.516 . S
C1218 C1217 1.516 . S
C1218 C1219 1.502 . S
C1218 C1220 1.561 . S
C1218 C1221 1.526 . S
C1219 H1203 0.959 . S
C1219 H1204 0.959 . S
C1219 H1205 0.961 . S
C1219 C1218 1.502 . S
C1220 H1206 0.960 . S
C1220 H1207 0.961 . S
C1220 H1208 0.959 . S
C1220 C1218 1.561 . S
C1221 C1218 1.526 . S
C1221 C1222 1.396 . S
C1221 C1226 1.390 . S
C1222 C1216 1.465 . S
C1222 C1221 1.396 . S
C1222 C1223 1.399 . S
C1223 H1209 0.929 . S
C1223 C1222 1.399 . S
C1223 C1224 1.385 . S
C1224 H1210 0.931 . S
C1224 C1223 1.385 . S
C1224 C1225 1.389 . S
C1225 C1224 1.389 . S
C1225 C1226 1.387 . S
C1226 H1211 0.930 . S
C1226 C1221 1.390 . S
C1226 C1225 1.387 . S
H1227 C1239 0.930 . S
H1228 C1241 0.930 . S
H1229 C1242 0.930 . S
H1230 C1246 0.959 . S
H1231 C1246 0.959 . S
H1232 C1246 0.961 . S
H1233 C1247 0.960 . S
H1234 C1247 0.961 . S
H1235 C1247 0.959 . S
H1236 C1250 0.929 . S
H1237 C1251 0.931 . S
H1238 C1253 0.930 . S
C1239 H1227 0.930 . S
C1239 C1240 1.399 . S
C1239 C1244 1.399 . S
C1240 C1239 1.399 . S
C1240 C1241 1.376 . S
C1241 H1228 0.930 . S
C1241 C1240 1.376 . S
C1241 C1242 1.388 . S
C1242 H1229 0.930 . S
C1242 C1241 1.388 . S
C1242 C1243 1.390 . S
C1243 C1242 1.390 . S
C1243 C1244 1.394 . S
C1243 C1249 1.465 . S
C1244 C1239 1.399 . S
C1244 C1243 1.394 . S
C1244 C1245 1.516 . S
C1245 C1244 1.516 . S
C1245 C1246 1.502 . S
C1245 C1247 1.561 . S
C1245 C1248 1.526 . S
C1246 H1230 0.959 . S
C1246 H1231 0.959 . S
C1246 H1232 0.961 . S
C1246 C1245 1.502 . S
C1247 H1233 0.960 . S
C1247 H1234 0.961 . S
C1247 H1235 0.959 . S
C1247 C1245 1.561 . S
C1248 C1245 1.526 . S
C1248 C1249 1.396 . S
C1248 C1253 1.390 . S
C1249 C1243 1.465 . S
C1249 C1248 1.396 . S
C1249 C1250 1.399 . S
C1250 H1236 0.929 . S
C1250 C1249 1.399 . S
C1250 C1251 1.385 . S
C1251 H1237 0.931 . S
C1251 C1250 1.385 . S
C1251 C1252 1.389 . S
C1252 C1251 1.389 . S
C1252 C1253 1.387 . S
C1253 H1238 0.930 . S
C1253 C1248 1.390 . S
C1253 C1252 1.387 . S
H1254 C1266 0.930 . S
H1255 C1268 0.930 . S
H1256 C1269 0.930 . S
H1257 C1273 0.959 . S
H1258 C1273 0.959 . S
H1259 C1273 0.961 . S
H1260 C1274 0.960 . S
H1261 C1274 0.961 . S
H1262 C1274 0.959 . S
H1263 C1277 0.929 . S
H1264 C1278 0.931 . S
H1265 C1280 0.930 . S
C1266 H1254 0.930 . S
C1266 C1267 1.399 . S
C1266 C1271 1.399 . S
C1267 C1266 1.399 . S
C1267 C1268 1.376 . S
C1268 H1255 0.930 . S
C1268 C1267 1.376 . S
C1268 C1269 1.388 . S
C1269 H1256 0.930 . S
C1269 C1268 1.388 . S
C1269 C1270 1.390 . S
C1270 C1269 1.390 . S
C1270 C1271 1.394 . S
C1270 C1276 1.465 . S
C1271 C1266 1.399 . S
C1271 C1270 1.394 . S
C1271 C1272 1.516 . S
C1272 C1271 1.516 . S
C1272 C1273 1.502 . S
C1272 C1274 1.561 . S
C1272 C1275 1.526 . S
C1273 H1257 0.959 . S
C1273 H1258 0.959 . S
C1273 H1259 0.961 . S
C1273 C1272 1.502 . S
C1274 H1260 0.960 . S
C1274 H1261 0.961 . S
C1274 H1262 0.959 . S
C1274 C1272 1.561 . S
C1275 C1272 1.526 . S
C1275 C1276 1.396 . S
C1275 C1280 1.390 . S
C1276 C1270 1.465 . S
C1276 C1275 1.396 . S
C1276 C1277 1.399 . S
C1277 H1263 0.929 . S
C1277 C1276 1.399 . S
C1277 C1278 1.385 . S
C1278 H1264 0.931 . S
C1278 C1277 1.385 . S
C1278 C1279 1.389 . S
C1279 C1278 1.389 . S
C1279 C1280 1.387 . S
C1280 H1265 0.930 . S
C1280 C1275 1.390 . S
C1280 C1279 1.387 . S
H1281 C1293 0.930 . S
H1282 C1295 0.930 . S
H1283 C1296 0.930 . S
H1284 C1300 0.959 . S
H1285 C1300 0.959 . S
H1286 C1300 0.961 . S
H1287 C1301 0.960 . S
H1288 C1301 0.961 . S
H1289 C1301 0.959 . S
H1290 C1304 0.929 . S
H1291 C1305 0.931 . S
H1292 C1307 0.930 . S
C1293 H1281 0.930 . S
C1293 C1294 1.399 . S
C1293 C1298 1.399 . S
C1294 C1293 1.399 . S
C1294 C1295 1.376 . S
C1295 H1282 0.930 . S
C1295 C1294 1.376 . S
C1295 C1296 1.388 . S
C1296 H1283 0.930 . S
C1296 C1295 1.388 . S
C1296 C1297 1.390 . S
C1297 C1296 1.390 . S
C1297 C1298 1.394 . S
C1297 C1303 1.465 . S
C1298 C1293 1.399 . S
C1298 C1297 1.394 . S
C1298 C1299 1.516 . S
C1299 C1298 1.516 . S
C1299 C1300 1.502 . S
C1299 C1301 1.561 . S
C1299 C1302 1.526 . S
C1300 H1284 0.959 . S
C1300 H1285 0.959 . S
C1300 H1286 0.961 . S
C1300 C1299 1.502 . S
C1301 H1287 0.960 . S
C1301 H1288 0.961 . S
C1301 H1289 0.959 . S
C1301 C1299 1.561 . S
C1302 C1299 1.526 . S
C1302 C1303 1.396 . S
C1302 C1307 1.390 . S
C1303 C1297 1.465 . S
C1303 C1302 1.396 . S
C1303 C1304 1.399 . S
C1304 H1290 0.929 . S
C1304 C1303 1.399 . S
C1304 C1305 1.385 . S
C1305 H1291 0.931 . S
C1305 C1304 1.385 . S
C1305 C1306 1.389 . S
C1306 C1305 1.389 . S
C1306 C1307 1.387 . S
C1307 H1292 0.930 . S
C1307 C1302 1.390 . S
C1307 C1306 1.387 . S
H1308 C1320 0.930 . S
H1309 C1322 0.930 . S
H1310 C1323 0.930 . S
H1311 C1327 0.959 . S
H1312 C1327 0.959 . S
H1313 C1327 0.961 . S
H1314 C1328 0.960 . S
H1315 C1328 0.961 . S
H1316 C1328 0.959 . S
H1317 C1331 0.929 . S
H1318 C1332 0.931 . S
H1319 C1334 0.930 . S
C1320 H1308 0.930 . S
C1320 C1321 1.399 . S
C1320 C1325 1.399 . S
C1321 C1320 1.399 . S
C1321 C1322 1.376 . S
C1322 H1309 0.930 . S
C1322 C1321 1.376 . S
C1322 C1323 1.388 . S
C1323 H1310 0.930 . S
C1323 C1322 1.388 . S
C1323 C1324 1.390 . S
C1324 C1323 1.390 . S
C1324 C1325 1.394 . S
C1324 C1330 1.465 . S
C1325 C1320 1.399 . S
C1325 C1324 1.394 . S
C1325 C1326 1.516 . S
C1326 C1325 1.516 . S
C1326 C1327 1.502 . S
C1326 C1328 1.561 . S
C1326 C1329 1.526 . S
C1327 H1311 0.959 . S
C1327 H1312 0.959 . S
C1327 H1313 0.961 . S
C1327 C1326 1.502 . S
C1328 H1314 0.960 . S
C1328 H1315 0.961 . S
C1328 H1316 0.959 . S
C1328 C1326 1.561 . S
C1329 C1326 1.526 . S
C1329 C1330 1.396 . S
C1329 C1334 1.390 . S
C1330 C1324 1.465 . S
C1330 C1329 1.396 . S
C1330 C1331 1.399 . S
C1331 H1317 0.929 . S
C1331 C1330 1.399 . S
C1331 C1332 1.385 . S
C1332 H1318 0.931 . S
C1332 C1331 1.385 . S
C1332 C1333 1.389 . S
C1333 C1332 1.389 . S
C1333 C1334 1.387 . S
C1334 H1319 0.930 . S
C1334 C1329 1.390 . S
C1334 C1333 1.387 . S
H1335 C1347 0.930 . S
H1336 C1349 0.930 . S
H1337 C1350 0.930 . S
H1338 C1354 0.959 . S
H1339 C1354 0.959 . S
H1340 C1354 0.961 . S
H1341 C1355 0.960 . S
H1342 C1355 0.961 . S
H1343 C1355 0.959 . S
H1344 C1358 0.929 . S
H1345 C1359 0.931 . S
H1346 C1361 0.930 . S
C1347 H1335 0.930 . S
C1347 C1348 1.399 . S
C1347 C1352 1.399 . S
C1348 C1347 1.399 . S
C1348 C1349 1.376 . S
C1349 H1336 0.930 . S
C1349 C1348 1.376 . S
C1349 C1350 1.388 . S
C1350 H1337 0.930 . S
C1350 C1349 1.388 . S
C1350 C1351 1.390 . S
C1351 C1350 1.390 . S
C1351 C1352 1.394 . S
C1351 C1357 1.465 . S
C1352 C1347 1.399 . S
C1352 C1351 1.394 . S
C1352 C1353 1.516 . S
C1353 C1352 1.516 . S
C1353 C1354 1.502 . S
C1353 C1355 1.561 . S
C1353 C1356 1.526 . S
C1354 H1338 0.959 . S
C1354 H1339 0.959 . S
C1354 H1340 0.961 . S
C1354 C1353 1.502 . S
C1355 H1341 0.960 . S
C1355 H1342 0.961 . S
C1355 H1343 0.959 . S
C1355 C1353 1.561 . S
C1356 C1353 1.526 . S
C1356 C1357 1.396 . S
C1356 C1361 1.390 . S
C1357 C1351 1.465 . S
C1357 C1356 1.396 . S
C1357 C1358 1.399 . S
C1358 H1344 0.929 . S
C1358 C1357 1.399 . S
C1358 C1359 1.385 . S
C1359 H1345 0.931 . S
C1359 C1358 1.385 . S
C1359 C1360 1.389 . S
C1360 C1359 1.389 . S
C1360 C1361 1.387 . S
C1361 H1346 0.930 . S
C1361 C1356 1.390 . S
C1361 C1360 1.387 . S
H1362 C1374 0.930 . S
H1363 C1376 0.930 . S
H1364 C1377 0.930 . S
H1365 C1381 0.959 . S
H1366 C1381 0.959 . S
H1367 C1381 0.961 . S
H1368 C1382 0.960 . S
H1369 C1382 0.961 . S
H1370 C1382 0.959 . S
H1371 C1385 0.929 . S
H1372 C1386 0.931 . S
H1373 C1388 0.930 . S
C1374 H1362 0.930 . S
C1374 C1375 1.399 . S
C1374 C1379 1.399 . S
C1375 C1374 1.399 . S
C1375 C1376 1.376 . S
C1376 H1363 0.930 . S
C1376 C1375 1.376 . S
C1376 C1377 1.388 . S
C1377 H1364 0.930 . S
C1377 C1376 1.388 . S
C1377 C1378 1.390 . S
C1378 C1377 1.390 . S
C1378 C1379 1.394 . S
C1378 C1384 1.465 1_554 S
C1379 C1374 1.399 . S
C1379 C1378 1.394 . S
C1379 C1380 1.516 1_554 S
C1380 C1379 1.516 1_556 S
C1380 C1381 1.502 . S
C1380 C1382 1.561 . S
C1380 C1383 1.526 . S
C1381 H1365 0.959 . S
C1381 H1366 0.959 . S
C1381 H1367 0.961 . S
C1381 C1380 1.502 . S
C1382 H1368 0.960 . S
C1382 H1369 0.961 . S
C1382 H1370 0.959 . S
C1382 C1380 1.561 . S
C1383 C1380 1.526 . S
C1383 C1384 1.396 . S
C1383 C1388 1.390 . S
C1384 C1378 1.465 1_556 S
C1384 C1383 1.396 . S
C1384 C1385 1.399 . S
C1385 H1371 0.929 . S
C1385 C1384 1.399 . S
C1385 C1386 1.385 . S
C1386 H1372 0.931 . S
C1386 C1385 1.385 . S
C1386 C1387 1.389 . S
C1387 C1386 1.389 . S
C1387 C1388 1.387 . S
C1388 H1373 0.930 . S
C1388 C1383 1.390 . S
C1388 C1387 1.387 . S
H1389 C1401 0.930 . S
H1390 C1403 0.930 . S
H1391 C1404 0.930 . S
H1392 C1408 0.959 . S
H1393 C1408 0.959 . S
H1394 C1408 0.961 . S
H1395 C1409 0.960 . S
H1396 C1409 0.961 . S
H1397 C1409 0.959 . S
H1398 C1412 0.929 . S
H1399 C1413 0.931 . S
H1400 C1415 0.930 . S
C1401 H1389 0.930 . S
C1401 C1402 1.399 . S
C1401 C1406 1.399 . S
C1402 C1401 1.399 . S
C1402 C1403 1.376 . S
C1403 H1390 0.930 . S
C1403 C1402 1.376 . S
C1403 C1404 1.388 . S
C1404 H1391 0.930 . S
C1404 C1403 1.388 . S
C1404 C1405 1.390 . S
C1405 C1404 1.390 . S
C1405 C1406 1.394 . S
C1405 C1411 1.465 . S
C1406 C1401 1.399 . S
C1406 C1405 1.394 . S
C1406 C1407 1.516 . S
C1407 C1406 1.516 . S
C1407 C1408 1.502 . S
C1407 C1409 1.561 . S
C1407 C1410 1.526 . S
C1408 H1392 0.959 . S
C1408 H1393 0.959 . S
C1408 H1394 0.961 . S
C1408 C1407 1.502 . S
C1409 H1395 0.960 . S
C1409 H1396 0.961 . S
C1409 H1397 0.959 . S
C1409 C1407 1.561 . S
C1410 C1407 1.526 . S
C1410 C1411 1.396 . S
C1410 C1415 1.390 . S
C1411 C1405 1.465 . S
C1411 C1410 1.396 . S
C1411 C1412 1.399 . S
C1412 H1398 0.929 . S
C1412 C1411 1.399 . S
C1412 C1413 1.385 . S
C1413 H1399 0.931 . S
C1413 C1412 1.385 . S
C1413 C1414 1.389 . S
C1414 C1413 1.389 . S
C1414 C1415 1.387 . S
C1415 H1400 0.930 . S
C1415 C1410 1.390 . S
C1415 C1414 1.387 . S
C793 C757 1.692 . S
C781 C1 1.256 . S
C808 C169 1.512 . S
C820 C687 1.812 . S
C835 C283 1.571 . S
C847 C706 1.812 . S
C862 C397 1.352 . S
C874 C715 1.646 . S
C901 C729 1.495 . S
C889 C457 1.143 . S
C916 C571 1.113 . S
C928 C748 1.585 . S
C943 C115 1.254 . S
C955 C701 1.631 . S
C970 C229 1.178 . S
C982 C720 1.525 . S
C997 C343 1.048 . S
C1009 C734 1.530 . S
C1036 C743 1.610 . S
C1024 C511 1.314 . S
C1063 C762 1.782 . S
C1051 C625 1.541 . S
C1090 C692 1.791 . S
C1078 C55 1.442 . S
C1105 C29 1.076 . S
C1117 C707 1.415 . S
C1132 C125 0.944 . S
C1144 C719 1.495 . S
C1171 C733 1.478 . S
C1159 C239 1.026 . S
C1186 C353 0.845 . S
C1198 C749 1.459 . S
C1225 C761 1.340 . S
C1213 C485 1.116 . S
C1252 C691 1.400 . S
C1240 C599 1.233 . S
C1279 C763 1.458 . S
C1267 C143 1.230 . S
C1294 C257 1.235 . S
C1306 C693 1.471 . S
C1333 C705 1.342 . S
C1321 C371 1.194 . S
C1348 C467 0.949 . S
C1360 C721 1.456 . S
C1375 C581 1.038 . S
C1387 C735 1.468 . S
C1402 C11 1.061 . S
C1414 C747 1.539 . S
