# Generated by pormake.
# Topology zzz, (3,6)-cn, num edge types: 1
# Building blocks:
#     Node 0, Type 0, BuildingBlock: BETDAH_clean_linker_0, # of connection points: 3
#     Node 1, Type 0, BuildingBlock: BETDAH_clean_linker_0, # of connection points: 3
#     Node 2, Type 0, BuildingBlock: BETDAH_clean_linker_0, # of connection points: 3
#     Node 3, Type 0, BuildingBlock: BETDAH_clean_linker_0, # of connection points: 3
#     Node 4, Type 0, BuildingBlock: BETDAH_clean_linker_0, # of connection points: 3
#     Node 5, Type 0, BuildingBlock: BETDAH_clean_linker_0, # of connection points: 3
#     Node 6, Type 0, BuildingBlock: BETDAH_clean_linker_0, # of connection points: 3
#     Node 7, Type 0, BuildingBlock: BETDAH_clean_linker_0, # of connection points: 3
#     Node 8, Type 1, BuildingBlock: KUMBOL_clean_sbu_0, # of connection points: 6
#     Node 9, Type 1, BuildingBlock: KUMBOL_clean_sbu_0, # of connection points: 6
#     Node 10, Type 1, BuildingBlock: KUMBOL_clean_sbu_0, # of connection points: 6
#     Node 11, Type 1, BuildingBlock: KUMBOL_clean_sbu_0, # of connection points: 6
#     Edge 12, Type (0, 1), BuildingBlock: CIFDUS_clean_linker_0, # of connection points: 2
#     Edge 13, Type (0, 1), BuildingBlock: CIFDUS_clean_linker_0, # of connection points: 2
#     Edge 14, Type (0, 1), BuildingBlock: CIFDUS_clean_linker_0, # of connection points: 2
#     Edge 15, Type (0, 1), BuildingBlock: CIFDUS_clean_linker_0, # of connection points: 2
#     Edge 16, Type (0, 1), BuildingBlock: CIFDUS_clean_linker_0, # of connection points: 2
#     Edge 17, Type (0, 1), BuildingBlock: CIFDUS_clean_linker_0, # of connection points: 2
#     Edge 18, Type (0, 1), BuildingBlock: CIFDUS_clean_linker_0, # of connection points: 2
#     Edge 19, Type (0, 1), BuildingBlock: CIFDUS_clean_linker_0, # of connection points: 2
#     Edge 20, Type (0, 1), BuildingBlock: CIFDUS_clean_linker_0, # of connection points: 2
#     Edge 21, Type (0, 1), BuildingBlock: CIFDUS_clean_linker_0, # of connection points: 2
#     Edge 22, Type (0, 1), BuildingBlock: CIFDUS_clean_linker_0, # of connection points: 2
#     Edge 23, Type (0, 1), BuildingBlock: CIFDUS_clean_linker_0, # of connection points: 2
#     Edge 24, Type (0, 1), BuildingBlock: CIFDUS_clean_linker_0, # of connection points: 2
#     Edge 25, Type (0, 1), BuildingBlock: CIFDUS_clean_linker_0, # of connection points: 2
#     Edge 26, Type (0, 1), BuildingBlock: CIFDUS_clean_linker_0, # of connection points: 2
#     Edge 27, Type (0, 1), BuildingBlock: CIFDUS_clean_linker_0, # of connection points: 2
#     Edge 28, Type (0, 1), BuildingBlock: CIFDUS_clean_linker_0, # of connection points: 2
#     Edge 29, Type (0, 1), BuildingBlock: CIFDUS_clean_linker_0, # of connection points: 2
#     Edge 30, Type (0, 1), BuildingBlock: CIFDUS_clean_linker_0, # of connection points: 2
#     Edge 31, Type (0, 1), BuildingBlock: CIFDUS_clean_linker_0, # of connection points: 2
#     Edge 32, Type (0, 1), BuildingBlock: CIFDUS_clean_linker_0, # of connection points: 2
#     Edge 33, Type (0, 1), BuildingBlock: CIFDUS_clean_linker_0, # of connection points: 2
#     Edge 34, Type (0, 1), BuildingBlock: CIFDUS_clean_linker_0, # of connection points: 2
#     Edge 35, Type (0, 1), BuildingBlock: CIFDUS_clean_linker_0, # of connection points: 2
# Relax obj value: 0.196
# Max RMSD: 0.171
# Mean RMSD: 0.118
data_MOF--net-zzz--node1-KUMBOL_clean_sbu_0--node2-BETDAH_clean_linker_0--edge1-CIFDUS_clean_linker_0
_symmetry_space_group_name_H-M    P1
_symmetry_Int_Tables_number       1
_symmetry_cell_setting            triclinic
loop_
_symmetry_equiv_pos_as_xyz
'x, y, z'
_cell_length_a     43.991416
_cell_length_b     43.94402
_cell_length_c     12.97748
_cell_angle_alpha  92.0659
_cell_angle_beta   89.697783
_cell_angle_gamma 89.769141
loop_
_atom_site_label
_atom_site_type_symbol
_atom_site_fract_x
_atom_site_fract_y
_atom_site_fract_z
_atom_type_partial_charge
H0 H 0.83188 0.57398 0.30262 0.0
H1 H 0.74389 0.56335 0.16537 0.0
H2 H 0.7583 0.54021 0.48288 0.0
C3 C 0.80786 0.56916 0.31116 0.0
C4 C 0.79775 0.55795 0.4045 0.0
C5 C 0.78881 0.57115 0.22508 0.0
C6 C 0.75826 0.56254 0.23273 0.0
C7 C 0.74672 0.552 0.32634 0.0
C8 C 0.76678 0.54925 0.41174 0.0
N9 N 0.7155 0.54331 0.33625 0.0
C10 C 0.69345 0.54222 0.2578 0.0
H11 H 1.01299 0.85196 0.2231 0.0
H12 H 1.00807 0.75765 0.13357 0.0
H13 H 0.99909 0.78545 0.45537 0.0
C14 C 1.01014 0.82863 0.24563 0.0
C15 C 1.0064 0.82241 0.35031 0.0
C16 C 1.01093 0.80538 0.16871 0.0
C17 C 1.00723 0.77514 0.1945 0.0
C18 C 1.00272 0.76735 0.29704 0.0
C19 C 1.0022 0.79121 0.37561 0.0
N20 N 0.99931 0.7358 0.321 0.0
C21 C 0.99863 0.71143 0.24649 0.0
H22 H 0.71362 0.98043 0.21647 0.0
H23 H 0.81003 0.97434 0.1665 0.0
H24 H 0.77435 1.01894 0.44311 0.0
C25 C 0.7366 0.98327 0.24499 0.0
C26 C 0.74063 0.99809 0.34155 0.0
C27 C 0.76151 0.97583 0.17992 0.0
C28 C 0.79102 0.9808 0.21605 0.0
C29 C 0.79618 0.9972 0.30868 0.0
C30 C 0.77077 1.0056 0.37247 0.0
N31 N 0.82633 1.00744 0.33325 0.0
C32 C 0.85112 1.00578 0.26358 0.0
H33 H 0.57735 0.72374 0.31023 0.0
H34 H 0.5672 0.81127 0.17771 0.0
H35 H 0.52015 0.79121 0.46015 0.0
C36 C 0.56904 0.74701 0.31622 0.0
C37 C 0.54913 0.75503 0.39731 0.0
C38 C 0.5754 0.76688 0.23623 0.0
C39 C 0.56277 0.79625 0.2404 0.0
C40 C 0.54311 0.8055 0.32162 0.0
C41 C 0.53602 0.78457 0.39928 0.0
N42 N 0.52916 0.835 0.32441 0.0
C43 C 0.53294 0.8571 0.24976 0.0
H44 H 0.21475 0.47822 0.13265 0.0
H45 H 0.30298 0.48689 0.26872 0.0
H46 H 0.28221 0.53313 0.98902 0.0
C47 C 0.23805 0.48601 0.12763 0.0
C48 C 0.2458 0.50532 0.04815 0.0
C49 C 0.25832 0.47949 0.20747 0.0
C50 C 0.28779 0.49143 0.20568 0.0
C51 C 0.29697 0.5105 0.12659 0.0
C52 C 0.27563 0.51775 0.04848 0.0
N53 N 0.32684 0.52356 0.12672 0.0
C54 C 0.34935 0.519 0.20173 0.0
H55 H 0.06799 0.22519 0.15003 0.0
H56 H 0.0676 0.32158 0.22245 0.0
H57 H 0.01889 0.28579 0.95869 0.0
C58 C 0.06245 0.24823 0.12971 0.0
C59 C 0.04488 0.25224 0.04092 0.0
C60 C 0.06939 0.2729 0.19866 0.0
C61 C 0.06114 0.30246 0.17246 0.0
C62 C 0.04184 0.3074 0.08964 0.0
C63 C 0.03395 0.28218 0.0229 0.0
N64 N 0.02873 0.337 0.07688 0.0
C65 C 0.02913 0.36152 0.15066 0.0
H66 H 0.35064 0.05155 0.13677 0.0
H67 H 0.25818 0.05548 0.24413 0.0
H68 H 0.27757 0.04368 0.91889 0.0
C69 C 0.32655 0.05289 0.11973 0.0
C70 C 0.31712 0.04883 0.01719 0.0
C71 C 0.3054 0.05461 0.20139 0.0
C72 C 0.2742 0.05445 0.18039 0.0
C73 C 0.2637 0.0511 0.07883 0.0
C74 C 0.28538 0.04785 0.99712 0.0
N75 N 0.23176 0.04931 0.05799 0.0
C76 C 0.20841 0.04827 0.13273 0.0
H77 H 0.46812 0.34327 0.07105 0.0
H78 H 0.47965 0.25827 0.21726 0.0
H79 H 0.51227 0.26902 0.90579 0.0
C80 C 0.47441 0.31937 0.06491 0.0
C81 C 0.48971 0.30857 0.97625 0.0
C82 C 0.4711 0.30166 0.15195 0.0
C83 C 0.48144 0.27146 0.14858 0.0
C84 C 0.49543 0.259 0.05859 0.0
C85 C 0.50013 0.27795 0.9732 0.0
N86 N 0.50612 0.22815 0.0537 0.0
C87 C 0.50628 0.20834 0.13637 0.0
Gd88 Gd 0.9982 0.04865 0.58441 0.0
Gd89 Gd 0.05346 0.02892 0.77436 0.0
C90 C 0.06895 0.07963 0.08981 0.0
C91 C 0.12336 0.08768 0.08697 0.0
C92 C 0.09795 0.06367 0.93887 0.0
C93 C 0.07055 0.0656 0.98979 0.0
C94 C 0.12464 0.07523 0.98602 0.0
C95 C 0.09558 0.08959 0.13929 0.0
C96 C 0.04051 0.08534 0.13435 0.0
C97 C 1.01471 0.08006 0.07547 0.0
N98 N 0.04514 0.05721 0.93686 0.0
C99 C 1.01757 0.06724 0.97579 0.0
H100 H 0.99742 0.06713 0.93022 0.0
C101 C 0.12468 0.05265 0.78421 0.0
N102 N 0.09813 0.05268 0.84008 0.0
C103 C 0.15166 0.06361 0.82768 0.0
C104 C 0.15173 0.07476 0.92939 0.0
H105 H 0.12557 0.04373 0.7058 0.0
H106 H 0.09473 0.10009 0.21614 0.0
H107 H 0.02822 0.02512 0.35053 0.0
H108 H 0.03832 0.09597 0.21073 0.0
H109 H 0.99258 0.08683 0.10536 0.0
H110 H 0.14358 0.09662 0.12426 0.0
H111 H 0.92546 0.0621 0.65851 0.0
H112 H 0.98586 0.94127 0.25906 0.0
H113 H 0.02512 0.98043 0.23255 0.0
H114 H 0.89737 0.94051 0.4748 0.0
H115 H 0.17245 0.0633 0.78265 0.0
H116 H 0.17264 0.08339 0.96285 0.0
H117 H 0.93868 0.92566 0.35405 0.0
H118 H 0.87716 0.0336 0.66926 0.0
N119 N 0.99304 1.01037 0.4512 0.0
C120 C 0.98749 0.96066 0.3127 0.0
C121 C 1.00968 0.98269 0.2976 0.0
C122 C 0.96632 0.96514 0.39256 0.0
C123 C 0.9695 0.99084 0.45997 0.0
C124 C 1.01174 1.00782 0.36662 0.0
N125 N 0.94935 0.02576 0.58114 0.0
C126 C 0.9467 0.99884 0.52822 0.0
C127 C 0.89669 0.02329 0.6306 0.0
C128 C 0.89476 0.99394 0.5861 0.0
C129 C 0.92403 0.03932 0.62456 0.0
C130 C 0.91964 0.9818 0.53071 0.0
H131 H 0.87349 0.98166 0.5897 0.0
O132 O 0.96632 0.07889 0.51009 0.0
O133 O 0.0313 0.06771 0.70097 0.0
O134 O 1.00839 1.0177 0.85435 0.0
O135 O 0.97383 0.03518 0.73271 0.0
O136 O 0.98839 0.08613 0.70676 0.0
O137 O 1.01394 0.08222 0.47775 0.0
O138 O 0.08827 1.00399 0.68899 0.0
O139 O 0.02888 1.01212 0.63254 0.0
O140 O 0.04546 0.04141 0.51191 0.0
O141 O 0.07362 0.05844 0.6495 0.0
O142 O 0.0268 0.98454 0.75687 0.0
O143 O 0.08053 0.99447 0.84943 0.0
C144 C 1.01526 0.08835 0.74531 0.0
C145 C 0.91767 0.95436 0.47216 0.0
C146 C 0.94115 0.94593 0.4033 0.0
C147 C 0.98792 0.09621 0.47776 0.0
C148 C 0.9883 0.12794 0.51991 0.0
C149 C 0.96437 0.13954 0.58201 0.0
C150 C 1.01516 0.14478 0.51294 0.0
C151 C 0.01955 0.1718 0.57282 0.0
C152 C 0.96809 0.16654 0.64031 0.0
C153 C 0.99562 0.1822 0.63782 0.0
C154 C 0.98009 0.0236 0.8236 0.0
C155 C 0.01982 0.98623 0.66041 0.0
C156 C 0.09435 0.98601 0.76336 0.0
C157 C 0.09421 0.95354 0.73115 0.0
C158 C 0.11175 0.9434 0.64578 0.0
C159 C 0.07404 0.93339 0.77623 0.0
C160 C 0.07015 0.90377 0.73433 0.0
C161 C 0.10857 0.91371 0.60513 0.0
C162 C 0.0877 0.89395 0.64866 0.0
C163 C 0.07139 0.05199 0.54939 0.0
H164 H 0.94332 0.12709 0.58947 0.0
H165 H 0.03264 0.13634 0.46025 0.0
H166 H 0.94986 0.17491 0.69016 0.0
H167 H 0.99786 0.20246 0.68686 0.0
H168 H 0.12729 0.95874 0.60886 0.0
H169 H 0.06102 0.9409 0.84359 0.0
H170 H 0.1219 0.90617 0.53861 0.0
H171 H 0.08512 0.8712 0.61507 0.0
Gd172 Gd 0.51349 0.99519 0.55379 0.0
Gd173 Gd 0.53664 0.05044 0.75075 0.0
C174 C 0.46696 0.09057 0.98646 0.0
C175 C 0.46871 0.14441 0.95214 0.0
C176 C 0.50058 0.1083 0.85341 0.0
C177 C 0.48898 0.08457 0.90823 0.0
C178 C 0.49093 0.13857 0.87609 0.0
C179 C 0.45668 0.12043 1.00694 0.0
C180 C 0.45556 0.0664 0.04149 0.0
C181 C 0.46592 0.03708 0.01808 0.0
N182 N 0.49874 0.05569 0.88438 0.0
C183 C 0.48751 0.03209 0.93993 0.0
H184 H 0.49344 1.00878 0.92323 0.0
C185 C 0.53613 0.12544 0.73186 0.0
N186 N 0.52192 0.10204 0.77991 0.0
C187 C 0.5272 0.15565 0.75117 0.0
C188 C 0.50425 0.16224 0.82289 0.0
H189 H 0.55478 0.12078 0.6789 0.0
H190 H 0.43952 0.12524 0.06556 0.0
H191 H 0.48951 0.02995 0.33351 0.0
H192 H 0.43866 0.07012 0.10177 0.0
H193 H 0.45704 1.0181 0.05967 0.0
H194 H 0.46091 0.16744 0.96996 0.0
H195 H 0.55478 0.93195 0.60676 0.0
H196 H 0.56508 0.03537 0.1285 0.0
H197 H 0.5123 0.04921 0.17636 0.0
H198 H 0.63347 0.96134 0.25594 0.0
H199 H 0.53829 0.17383 0.71153 0.0
H200 H 0.49747 0.18571 0.83837 0.0
H201 H 0.61044 1.00255 0.1595 0.0
H202 H 0.60044 0.90533 0.54525 0.0
N203 N 0.5307 1.00996 0.38734 0.0
C204 C 0.55562 0.02793 0.20061 0.0
C205 C 0.52583 0.03569 0.22713 0.0
C206 C 0.57175 1.00825 0.26266 0.0
C207 C 0.55829 0.99914 0.35591 0.0
C208 C 0.51327 0.02531 0.31848 0.0
N209 N 0.55721 0.96711 0.4974 0.0
C210 C 0.57139 0.97619 0.4105 0.0
C211 C 0.59282 0.92553 0.50742 0.0
C212 C 0.60876 0.93595 0.4228 0.0
C213 C 0.56693 0.94123 0.54326 0.0
C214 C 0.59801 0.9614 0.37258 0.0
H215 H 0.62895 0.92386 0.39567 0.0
O216 O 0.49895 0.94827 0.529 0.0
O217 O 0.49609 0.03047 0.67069 0.0
O218 O 0.53553 1.00421 0.82536 0.0
O219 O 0.52534 0.96844 0.69355 0.0
O220 O 0.47425 0.98933 0.66433 0.0
O221 O 0.47628 0.98419 0.45014 0.0
O222 O 0.56923 0.08066 0.82724 0.0
O223 O 0.55398 1.01517 0.63389 0.0
O224 O 0.49801 0.04279 0.50792 0.0
O225 O 0.52693 0.07671 0.60662 0.0
O226 O 0.57102 0.05879 0.62502 0.0
O227 O 0.57225 0.03237 0.84673 0.0
C228 C 0.47377 1.01603 0.70742 0.0
C229 C 0.61264 0.97195 0.28449 0.0
C230 C 0.59965 0.99554 0.23 0.0
C231 C 0.47476 0.9561 0.47901 0.0
C232 C 0.44531 0.94646 0.52328 0.0
C233 C 0.44363 0.92193 0.5898 0.0
C234 C 0.41944 0.9646 0.51072 0.0
C235 C 0.39269 0.95979 0.56737 0.0
C236 C 0.41678 0.91639 0.64424 0.0
C237 C 0.39143 0.93532 0.63376 0.0
C238 C 0.53161 0.97572 0.79083 0.0
C239 C 0.574 0.03112 0.58968 0.0
C240 C 0.5865 0.05825 0.85311 0.0
C241 C 0.61781 0.05772 0.81146 0.0
C242 C 0.62797 0.07965 0.74298 0.0
C243 C 0.63626 0.03251 0.82928 0.0
C244 C 0.66385 0.02782 0.77549 0.0
C245 C 0.65555 0.07557 0.69051 0.0
C246 C 0.67325 0.04968 0.7055 0.0
C247 C 0.50972 0.07028 0.52577 0.0
H248 H 0.46327 0.90758 0.60195 0.0
H249 H 0.42028 0.98294 0.45712 0.0
H250 H 0.41578 0.89763 0.69593 0.0
H251 H 0.37097 0.93091 0.67745 0.0
H252 H 0.61417 0.09937 0.72692 0.0
H253 H 0.62872 1.01644 0.88533 0.0
H254 H 0.66292 0.0922 0.63628 0.0
H255 H 0.69416 0.04681 0.66188 0.0
Gd256 Gd 0.4934 0.54631 0.79965 0.0
Gd257 Gd 0.55505 0.5217 0.63122 0.0
C258 C 0.64488 0.49081 0.77814 0.0
C259 C 0.68118 0.52482 0.70169 0.0
C260 C 0.62721 0.52907 0.66254 0.0
C261 C 0.62091 0.50468 0.72399 0.0
C262 C 0.65749 0.53915 0.65014 0.0
C263 C 0.67488 0.50081 0.76585 0.0
C264 C 0.63807 0.46783 0.84574 0.0
C265 C 0.60796 0.45998 0.86182 0.0
N266 N 0.59148 0.49561 0.73539 0.0
C267 C 0.58499 0.47446 0.80801 0.0
H268 H 0.56226 0.46966 0.83219 0.0
C269 C 0.6097 0.56607 0.54911 0.0
N270 N 0.60389 0.54313 0.61522 0.0
C271 C 0.63921 0.57668 0.53441 0.0
C272 C 0.66323 0.56327 0.5856 0.0
H273 H 0.59155 0.57644 0.50679 0.0
H274 H 0.69338 0.49029 0.80661 0.0
H275 H 0.45891 0.5957 0.64008 0.0
H276 H 0.65578 0.45685 0.8889 0.0
H277 H 0.60225 0.44336 0.9183 0.0
H278 H 0.70448 0.53229 0.693 0.0
H279 H 0.4786 0.49785 0.98722 0.0
H280 H 0.36996 0.56318 0.57219 0.0
H281 H 0.41095 0.60059 0.54873 0.0
H282 H 0.35727 0.48124 0.80123 0.0
H283 H 0.64342 0.59504 0.48286 0.0
H284 H 0.68615 0.57148 0.57387 0.0
H285 H 0.35034 0.51821 0.66524 0.0
H286 H 0.4373 0.46411 0.04257 0.0
N287 N 0.44665 0.55485 0.71434 0.0
C288 C 0.39121 0.56075 0.61296 0.0
C289 C 0.41426 0.58193 0.59978 0.0
C290 C 0.39544 0.53742 0.68184 0.0
C291 C 0.42366 0.53519 0.73255 0.0
C292 C 0.44176 0.57887 0.65212 0.0
N293 N 0.4544 0.514 0.85833 0.0
C294 C 0.4276 0.51421 0.80765 0.0
C295 C 0.4343 0.47791 0.97591 0.0
C296 C 0.40727 0.47647 0.92016 0.0
C297 C 0.45756 0.49717 0.94471 0.0
C298 C 0.40344 0.4951 0.8359 0.0
H299 H 0.38924 0.46158 0.94446 0.0
O300 O 0.4791 0.55847 0.95615 0.0
O301 O 0.544 0.54334 0.78303 0.0
O302 O 0.53569 0.47695 0.68438 0.0
O303 O 0.49322 0.49402 0.78033 0.0
O304 O 0.52618 0.52834 0.91824 0.0
O305 O 0.49198 0.59371 0.85484 0.0
O306 O 0.55237 0.5374 0.47471 0.0
O307 O 0.50663 0.53838 0.63661 0.0
O308 O 0.50693 0.58658 0.70179 0.0
O309 O 0.55635 0.57342 0.65657 0.0
O310 O 0.51452 0.49835 0.55436 0.0
O311 O 0.57971 0.49772 0.50806 0.0
C312 C 0.55105 0.53363 0.87009 0.0
C313 C 0.37593 0.49602 0.78174 0.0
C314 C 0.37198 0.51708 0.70442 0.0
C315 C 0.48781 0.5864 0.94993 0.0
C316 C 0.51098 0.59619 0.02574 0.0
C317 C 0.50862 0.58688 0.12784 0.0
C318 C 0.53654 0.61293 0.99569 0.0
C319 C 0.55895 0.62154 0.06776 0.0
C320 C 0.53136 0.59418 0.19869 0.0
C321 C 0.55631 0.61136 0.16928 0.0
C322 C 0.51099 0.47187 0.74079 0.0
C323 C 0.49405 0.51838 0.57869 0.0
C324 C 0.56679 0.51352 0.43669 0.0
C325 C 0.55017 0.49605 0.35636 0.0
C326 C 0.54002 0.5104 0.26811 0.0
C327 C 0.5407 0.46624 0.37446 0.0
C328 C 0.52033 0.45122 0.30789 0.0
C329 C 0.52 0.49543 0.20046 0.0
C330 C 0.50993 0.46607 0.22045 0.0
C331 C 0.53417 0.59387 0.66614 0.0
H332 H 0.48933 0.57367 0.15258 0.0
H333 H 0.5387 0.61992 0.91679 0.0
H334 H 0.52927 0.58712 0.27749 0.0
H335 H 0.57255 0.61807 0.22812 0.0
H336 H 0.54711 0.53335 0.25286 0.0
H337 H 0.54801 0.45511 0.44334 0.0
H338 H 0.51211 0.50676 0.13291 0.0
H339 H 0.49453 0.4548 0.16671 0.0
Gd340 Gd 1.00982 0.50433 0.79369 0.0
Gd341 Gd 0.03663 0.56361 0.63297 0.0
C342 C 0.03038 0.66212 0.76487 0.0
C343 C 0.99164 0.68402 0.6572 0.0
C344 C 1.00768 0.63133 0.62808 0.0
C345 C 0.02767 0.63406 0.709 0.0
C346 C 0.99022 0.65659 0.59862 0.0
C347 C 1.01161 0.68674 0.74062 0.0
C348 C 0.05262 0.66497 0.84094 0.0
C349 C 0.07226 0.64068 0.85673 0.0
N350 N 0.04585 0.60993 0.72873 0.0
C351 C 0.06875 0.61338 0.79928 0.0
H352 H 0.08424 0.59522 0.81481 0.0
C353 C 0.99112 0.60238 0.48262 0.0
N354 N 1.00696 0.60456 0.57332 0.0
C355 C 0.97369 0.62681 0.44957 0.0
C356 C 0.97279 0.6539 0.5089 0.0
H357 H 0.99123 0.58128 0.43766 0.0
H358 H 1.01313 0.70829 0.78354 0.0
H359 H 0.96014 0.49391 0.58104 0.0
H360 H 0.05536 0.68606 0.88578 0.0
H361 H 0.09 0.64283 0.91396 0.0
H362 H 0.97811 0.70354 0.63671 0.0
H363 H 0.06311 0.46894 0.9321 0.0
H364 H 0.94637 0.39956 0.53034 0.0
H365 H 0.93431 0.45274 0.49249 0.0
H366 H 1.01821 0.35329 0.74904 0.0
H367 H 0.96079 0.62462 0.37892 0.0
H368 H 0.95926 0.67283 0.48334 0.0
H369 H 0.97789 0.36296 0.62453 0.0
H370 H 0.08003 0.41725 0.96594 0.0
N371 N 0.98458 0.46619 0.68636 0.0
C372 C 0.95719 0.41792 0.57424 0.0
C373 C 0.95015 0.44784 0.55331 0.0
C374 C 0.97915 0.41202 0.64797 0.0
C375 C 0.99286 0.4368 0.70288 0.0
C376 C 0.96438 0.47159 0.60833 0.0
N377 N 0.03027 0.45524 0.81869 0.0
C378 C 1.0163 0.43126 0.77066 0.0
C379 C 0.06227 0.4208 0.91016 0.0
C380 C 0.04882 0.39604 0.85895 0.0
C381 C 0.05254 0.45023 0.88988 0.0
C382 C 0.02557 0.401 0.7885 0.0
H383 H 0.05638 0.37319 0.87495 0.0
O384 O 0.02477 0.50844 0.95226 0.0
O385 O 0.02696 0.55272 0.79488 0.0
O386 O 0.07675 0.54911 0.73221 0.0
O387 O 0.06168 0.50113 0.77892 0.0
O388 O 0.98525 0.54613 0.8612 0.0
O389 O 0.98336 0.48377 0.91432 0.0
O390 O 0.05042 0.57721 0.48034 0.0
O391 O 0.03248 0.51304 0.64526 0.0
O392 O 0.96594 0.52315 0.72863 0.0
O393 O 0.98408 0.56387 0.63432 0.0
O394 O 1.01825 0.53067 0.50952 0.0
O395 O 0.08419 0.56232 0.58568 0.0
C396 C 1.00592 0.56612 0.84644 0.0
C397 C 1.01135 0.37656 0.73619 0.0
C398 C 0.9883 0.38206 0.66579 0.0
C399 C 1.00018 0.49596 0.98761 0.0
C400 C 0.98449 0.51429 0.06863 0.0
C401 C 0.99928 0.52073 0.162 0.0
C402 C 0.95678 0.52878 0.04826 0.0
C403 C 0.94461 0.55084 0.11775 0.0
C404 C 0.98698 0.54196 0.233 0.0
C405 C 0.95996 0.5572 0.21103 0.0
C406 C 0.08291 0.5223 0.771 0.0
C407 C 0.02289 0.50577 0.55597 0.0
C408 C 0.07769 0.56667 0.48991 0.0
C409 C 0.08674 0.54258 0.41346 0.0
C410 C 0.07601 0.54347 0.31186 0.0
C411 C 0.10452 0.51763 0.44252 0.0
C412 C 0.1128 0.49447 0.37003 0.0
C413 C 0.08292 0.51994 0.24071 0.0
C414 C 0.10116 0.49566 0.26914 0.0
C415 C 0.96147 0.54673 0.66884 0.0
H416 H 0.02058 0.50967 0.17909 0.0
H417 H 0.94534 0.52387 0.97592 0.0
H418 H 0.99868 0.54669 0.3047 0.0
H419 H 0.95081 0.57342 0.26794 0.0
H420 H 0.06205 0.56226 0.28761 0.0
H421 H 0.11259 0.5166 0.52103 0.0
H422 H 0.07483 0.52093 0.16227 0.0
H423 H 0.1075 0.47883 0.20985 0.0
H424 H 0.19626 0.07904 0.31577 0.0
H425 H 0.16009 1.01183 0.10063 0.0
H426 H 0.11418 1.00759 0.20696 0.0
H427 H 0.0841 0.02265 0.36275 0.0
H428 H 0.12047 0.08934 0.57994 0.0
H429 H 0.16595 0.09412 0.47245 0.0
C430 C 0.17835 0.06338 0.29268 0.0
C431 C 0.18171 0.04562 0.20044 0.0
C432 C 0.15182 0.06103 0.35484 0.0
C433 C 0.15823 0.02553 0.1715 0.0
C434 C 0.13188 0.02318 0.23231 0.0
C435 C 0.10181 0.03846 0.38625 0.0
C436 C 0.09856 0.05565 0.47996 0.0
C437 C 0.12832 0.04082 0.32423 0.0
C438 C 0.12219 0.07566 0.50901 0.0
C439 C 0.14833 0.07843 0.44726 0.0
H440 H 0.46858 0.16155 0.18047 0.0
H441 H 0.55119 0.20613 0.2761 0.0
H442 H 0.55904 0.1682 0.40758 0.0
H443 H 0.54363 0.12101 0.49074 0.0
H444 H 0.4615 0.07542 0.39321 0.0
H445 H 0.45265 0.11428 0.26616 0.0
C446 C 0.4883 0.16279 0.22998 0.0
C447 C 0.50937 0.18652 0.21834 0.0
C448 C 0.49289 0.14047 0.3046 0.0
C449 C 0.53464 0.18814 0.28375 0.0
C450 C 0.53917 0.16637 0.35875 0.0
C451 C 0.52355 0.11973 0.44281 0.0
C452 C 0.50333 0.09505 0.45205 0.0
C453 C 0.5186 0.14226 0.36947 0.0
C454 C 0.4777 0.09378 0.38755 0.0
C455 C 0.47253 0.11616 0.3149 0.0
H456 H 0.39757 0.55611 0.24143 0.0
H457 H 0.35606 0.47251 0.3316 0.0
H458 H 0.39666 0.46498 0.45728 0.0
H459 H 0.44476 0.48192 0.54137 0.0
H460 H 0.48605 0.56564 0.45165 0.0
H461 H 0.44548 0.57319 0.32608 0.0
C462 C 0.39743 0.53629 0.28884 0.0
C463 C 0.3737 0.51492 0.27729 0.0
C464 C 0.42101 0.53211 0.36126 0.0
C465 C 0.37393 0.48933 0.33905 0.0
C466 C 0.39722 0.485 0.41096 0.0
C467 C 0.44459 0.50196 0.495 0.0
C468 C 0.46794 0.52368 0.50816 0.0
C469 C 0.42094 0.50621 0.42293 0.0
C470 C 0.46792 0.54908 0.4453 0.0
C471 C 0.44476 0.55329 0.37297 0.0
H472 H 0.05406 0.37498 0.34268 0.0
H473 H 0.99656 0.41104 0.10805 0.0
H474 H 0.9887 0.45766 0.21331 0.0
H475 H 0.99845 0.48908 0.37078 0.0
H476 H 0.05694 0.45502 0.60552 0.0
H477 H 0.06407 0.4073 0.50321 0.0
C478 C 0.03992 0.39314 0.31468 0.0
C479 C 0.02585 0.38938 0.21699 0.0
C480 C 0.03567 0.42045 0.37611 0.0
C481 C 1.00763 0.4132 0.18237 0.0
C482 C 1.00319 0.44001 0.24268 0.0
C483 C 1.01278 0.47123 0.39979 0.0
C484 C 0.02669 0.47569 0.49716 0.0
C485 C 1.0171 0.44401 0.33948 0.0
C486 C 0.04535 0.45219 0.53245 0.0
C487 C 0.04961 0.42488 0.47321 0.0
H488 H 0.86157 0.04264 0.10429 0.0
H489 H 0.89829 0.96568 0.25734 0.0
H490 H 0.94195 0.96389 0.13794 0.0
H491 H 0.97019 0.98476 0.9873 0.0
H492 H 0.93176 0.06182 0.83699 0.0
H493 H 0.88887 0.06277 0.95515 0.0
C494 C 0.87917 0.02549 0.11146 0.0
C495 C 0.87686 1.00452 0.19056 0.0
C496 C 0.90405 0.02445 0.0415 0.0
C497 C 0.89977 0.98234 0.1982 0.0
C498 C 0.92473 0.98129 0.12949 0.0
C499 C 0.95234 1.00161 0.98013 0.0
C500 C 0.95406 0.02255 0.89979 0.0
C501 C 0.92727 1.0023 0.05044 0.0
C502 C 0.93071 0.04448 0.89387 0.0
C503 C 0.90617 0.04539 0.96295 0.0
H504 H 0.52988 0.85323 0.04082 0.0
H505 H 0.53969 0.91698 0.29815 0.0
H506 H 0.5404 0.95934 0.18027 0.0
H507 H 0.53889 0.97872 1.00327 0.0
H508 H 0.52641 0.91445 0.74737 0.0
H509 H 0.52719 0.87253 0.86417 0.0
C510 C 0.53256 0.87642 0.07077 0.0
C511 C 0.535 0.88194 0.17793 0.0
C512 C 0.53307 0.90083 1.00238 0.0
C513 C 0.53809 0.9121 0.21589 0.0
C514 C 0.53864 0.93639 0.14843 0.0
C515 C 0.53649 0.95557 0.97267 0.0
C516 C 0.53304 0.95018 0.86518 0.0
C517 C 0.53624 0.93113 0.04129 0.0
C518 C 0.52964 0.91976 0.82859 0.0
C519 C 0.5299 0.89552 0.8958 0.0
H520 H 0.67861 0.56945 0.07597 0.0
H521 H 0.64767 0.50423 0.29301 0.0
H522 H 0.60179 0.49514 0.19135 0.0
H523 H 0.56938 0.50639 0.04334 0.0
H524 H 0.59881 0.57179 0.82522 0.0
H525 H 0.64583 0.58018 0.92336 0.0
C526 C 0.66179 0.55324 0.10058 0.0
C527 C 0.66666 0.53741 0.1921 0.0
C528 C 0.635 0.54822 0.0414 0.0
C529 C 0.64458 0.5166 0.22302 0.0
C530 C 0.61821 0.51147 0.16499 0.0
C531 C 0.58613 0.52243 0.01703 0.0
C532 C 0.58068 0.538 0.92568 0.0
C533 C 0.61303 0.52723 0.07445 0.0
C534 C 0.60261 0.55891 0.89358 0.0
C535 C 0.62948 0.56387 0.95037 0.0
H536 H 0.03618 0.66184 0.21432 0.0
H537 H 0.956 0.70518 0.09835 0.0
H538 H 0.95115 0.66473 0.96421 0.0
H539 H 0.96949 0.61639 0.8788 0.0
H540 H 0.04987 0.57316 0.99323 0.0
H541 H 0.05469 0.61343 0.12807 0.0
C542 C 1.01768 0.66242 0.15953 0.0
C543 C 0.99644 0.68668 0.16668 0.0
C544 C 1.0151 0.63891 0.08163 0.0
C545 C 0.97263 0.68691 0.09494 0.0
C546 C 0.96986 0.6637 0.01797 0.0
C547 C 0.98827 0.61605 0.93254 0.0
C548 C 1.00989 0.59219 0.92338 0.0
C549 C 0.99095 0.63955 1.01017 0.0
C550 C 0.03349 0.59165 0.99608 0.0
C551 C 0.03613 0.61466 0.07382 0.0
H552 H 0.10504 0.2273 0.27697 0.0
H553 H 0.05049 0.30554 0.37289 0.0
H554 H 0.03851 0.28246 0.53241 0.0
H555 H 0.0257 0.2338 0.60067 0.0
H556 H 0.07787 0.15373 0.50948 0.0
H557 H 0.10802 0.18377 0.39288 0.0
C558 C 0.0913 0.2397 0.33413 0.0
C559 C 0.0768 0.267 0.30827 0.0
C560 C 0.08266 0.22544 0.42469 0.0
C561 C 0.06113 0.28386 0.3868 0.0
C562 C 0.05378 0.27047 0.47895 0.0
C563 C 0.04438 0.22273 0.55957 0.0
C564 C 0.04705 0.19081 0.55465 0.0
C565 C 0.0615 0.24004 0.49237 0.0
C566 C 0.07312 0.17787 0.50631 0.0
C567 C 0.09069 0.19508 0.44015 0.0
H568 H 0.28661 1.0107 0.3248 0.0
H569 H 0.3492 0.08566 0.31058 0.0
H570 H 0.37767 0.06598 0.45568 0.0
H571 H 0.39152 0.02119 0.55218 0.0
H572 H 0.33373 0.9421 0.53936 0.0
H573 H 0.29558 0.97021 0.44533 0.0
C574 C 0.30572 0.02339 0.35643 0.0
C575 C 0.31612 0.04933 0.30692 0.0
C576 C 0.32297 1.01088 0.43483 0.0
C577 C 0.34106 0.06549 0.34746 0.0
C578 C 0.35737 0.05414 0.42983 0.0
C579 C 0.37022 1.01039 0.53062 0.0
C580 C 0.36591 0.97931 0.54863 0.0
C581 C 0.34967 0.02582 0.46903 0.0
C582 C 0.3378 0.96586 0.52485 0.0
C583 C 0.31615 0.98182 0.46976 0.0
H584 H 0.5107 0.31091 0.30467 0.0
H585 H 0.41943 0.33254 0.21542 0.0
H586 H 0.42609 0.3852 0.27731 0.0
H587 H 0.46344 0.42687 0.29839 0.0
H588 H 0.5568 0.40479 0.36529 0.0
H589 H 0.54421 0.35102 0.36952 0.0
C590 C 0.49167 0.32673 0.3049 0.0
C591 C 0.46532 0.31863 0.25031 0.0
C592 C 0.49687 0.35749 0.33067 0.0
C593 C 0.44031 0.3387 0.25466 0.0
C594 C 0.44449 0.36909 0.28695 0.0
C595 C 0.48084 0.41025 0.31544 0.0
C596 C 0.51115 0.4196 0.32811 0.0
C597 C 0.47362 0.37917 0.31503 0.0
C598 C 0.53336 0.3981 0.35381 0.0
C599 C 0.52619 0.3673 0.35634 0.0
H600 H 0.22386 0.42839 0.22608 0.0
H601 H 0.26275 0.5029 0.404 0.0
H602 H 0.21718 0.50686 0.50987 0.0
H603 H 0.16227 0.50502 0.49198 0.0
H604 H 0.12093 0.4349 0.29854 0.0
H605 H 0.17098 0.41328 0.25918 0.0
C606 C 0.22293 0.44422 0.29216 0.0
C607 C 0.24541 0.46682 0.30257 0.0
C608 C 0.1954 0.44831 0.34598 0.0
C609 C 0.24506 0.48612 0.39129 0.0
C610 C 0.21861 0.48884 0.45075 0.0
C611 C 0.16373 0.48407 0.44552 0.0
C612 C 0.13808 0.47297 0.39175 0.0
C613 C 0.19263 0.47262 0.41981 0.0
C614 C 0.14063 0.44507 0.33551 0.0
C615 C 0.16929 0.43265 0.31305 0.0
H616 H 0.98445 0.84847 0.05662 0.0
H617 H 0.05407 0.77913 0.04289 0.0
H618 H 0.07486 0.8002 0.8859 0.0
H619 H 0.07994 0.84486 0.77931 0.0
H620 H 1.01334 0.91705 0.80835 0.0
H621 H 0.98433 0.88822 0.93037 0.0
C622 C 1.00376 0.83767 0.01764 0.0
C623 C 1.01824 0.81293 0.06182 0.0
C624 C 1.0163 0.85064 0.93058 0.0
C625 C 0.04276 0.79845 1.01018 0.0
C626 C 0.05479 0.81062 0.92103 0.0
C627 C 0.05851 0.85374 0.80951 0.0
C628 C 0.04893 0.88311 0.78539 0.0
C629 C 0.04278 0.83772 0.88419 0.0
C630 C 0.0212 0.89447 0.82556 0.0
C631 C 1.00472 0.87812 0.89626 0.0
H632 H 0.71751 0.9424 0.07862 0.0
H633 H 0.79442 1.00079 0.02519 0.0
H634 H 0.77334 1.01517 0.8631 0.0
H635 H 0.72575 0.02624 0.77887 0.0
H636 H 0.64738 0.96981 0.82965 0.0
H637 H 0.67634 0.93986 0.94977 0.0
C638 C 0.73016 0.95736 0.02952 0.0
C639 C 0.75656 0.97172 0.06714 0.0
C640 C 0.7171 0.96702 0.93788 0.0
C641 C 0.77357 0.98983 1.00041 0.0
C642 C 0.76133 0.99853 0.90744 0.0
C643 C 0.71519 1.00655 0.81173 0.0
C644 C 0.68377 1.0019 0.80236 0.0
C645 C 0.73182 0.98967 0.88136 0.0
C646 C 0.67108 0.97533 0.84217 0.0
C647 C 0.68765 0.95803 0.91048 0.0
H648 H 0.62632 0.73147 0.21065 0.0
H649 H 0.55323 0.77123 0.04132 0.0
H650 H 0.54934 0.72531 0.93284 0.0
H651 H 0.55024 0.67032 0.94759 0.0
H652 H 0.61812 0.62821 0.13521 0.0
H653 H 0.64056 0.67795 0.17444 0.0
C654 C 0.61079 0.73059 0.14591 0.0
C655 C 0.58848 0.75349 0.13903 0.0
C656 C 0.60657 0.70286 0.09105 0.0
C657 C 0.56972 0.75323 0.05167 0.0
C658 C 0.56702 0.72659 0.99069 0.0
C659 C 0.5709 0.67155 0.99262 0.0
C660 C 0.58115 0.64591 0.0448 0.0
C661 C 0.58267 0.70032 0.01889 0.0
C662 C 0.60868 0.648 0.0993 0.0
C663 C 0.62154 0.67647 0.12179 0.0
H664 H 0.82261 0.61955 0.16877 0.0
H665 H 0.79063 0.5322 0.05751 0.0
H666 H 0.84083 0.5198 0.98784 0.0
H667 H 0.89498 0.52567 0.02431 0.0
H668 H 0.92832 0.6105 0.15774 0.0
H669 H 0.87686 0.63156 0.15796 0.0
C670 C 0.82632 0.59864 0.12331 0.0
C671 C 0.80394 0.57585 0.12485 0.0
C672 C 0.85612 0.59032 0.09512 0.0
C673 C 0.80805 0.54956 0.06157 0.0
C674 C 0.83709 0.54206 0.02448 0.0
C675 C 0.89137 0.54918 0.0497 0.0
C676 C 0.91529 0.56605 0.095 0.0
C677 C 0.86171 0.56088 0.05147 0.0
C678 C 0.91002 0.59655 0.1269 0.0
C679 C 0.88066 0.60875 0.12585 0.0
H680 H 0.08017 0.2046 0.96034 0.0
H681 H 0.98715 0.23534 0.98372 0.0
H682 H 0.97005 0.18705 0.9039 0.0
H683 H 0.98112 0.13524 0.83012 0.0
H684 H 0.0742 0.10676 0.78732 0.0
H685 H 0.09148 0.15397 0.87411 0.0
C686 C 0.05615 0.20092 0.94692 0.0
C687 C 0.03505 0.22411 0.97822 0.0
C688 C 0.04639 0.17297 0.89907 0.0
C689 C 1.00404 0.21851 0.95969 0.0
C690 C 0.99419 0.19059 0.91493 0.0
C691 C 1.00524 0.1393 0.83958 0.0
C692 C 0.02624 0.11675 0.80324 0.0
C693 C 1.01509 0.1675 0.88491 0.0
C694 C 0.05737 0.12292 0.81622 0.0
C695 C 0.06729 0.1503 0.86495 0.0
H696 H 0.35987 0.08468 0.92146 0.0
H697 H 0.32976 0.99194 0.94284 0.0
H698 H 0.37544 0.97386 0.85089 0.0
H699 H 0.42615 0.98384 0.77868 0.0
H700 H 0.45378 0.07613 0.73116 0.0
H701 H 0.40738 0.09501 0.8194 0.0
C702 C 0.36291 0.06059 0.9032 0.0
C703 C 0.34101 0.03969 0.93836 0.0
C704 C 0.38933 0.05026 0.84833 0.0
C705 C 0.34574 1.00854 0.91531 0.0
C706 C 0.37213 0.99815 0.86371 0.0
C707 C 0.42208 1.00816 0.78721 0.0
C708 C 0.44464 0.02858 0.75417 0.0
C709 C 0.39446 1.01871 0.83231 0.0
C710 C 0.43795 0.0599 0.76158 0.0
C711 C 0.41108 0.07066 0.8107 0.0
H712 H 0.45198 0.35018 0.89179 0.0
H713 H 0.54549 0.32073 0.88936 0.0
H714 H 0.56037 0.36763 0.80535 0.0
H715 H 0.54753 0.42044 0.75491 0.0
H716 H 0.45397 0.45004 0.76936 0.0
H717 H 0.43858 0.40023 0.82694 0.0
C718 C 0.47557 0.35364 0.87072 0.0
C719 C 0.49754 0.33174 0.89751 0.0
C720 C 0.48411 0.38131 0.82699 0.0
C721 C 0.52797 0.33678 0.86894 0.0
C722 C 0.53655 0.36394 0.82226 0.0
C723 C 0.52375 0.41596 0.76982 0.0
C724 C 0.50207 0.43965 0.76106 0.0
C725 C 0.51498 0.38695 0.80449 0.0
C726 C 0.47132 0.43287 0.77895 0.0
C727 C 0.46243 0.40417 0.8111 0.0
H728 H 0.20512 0.4675 0.94931 0.0
H729 H 0.22865 0.56235 0.98434 0.0
H730 H 0.18144 0.5763 0.89688 0.0
H731 H 0.13047 0.56158 0.82506 0.0
H732 H 0.10804 0.46618 0.79476 0.0
H733 H 0.15704 0.45274 0.86655 0.0
C734 C 0.20023 0.49129 0.93666 0.0
C735 C 0.22077 0.51378 0.97429 0.0
C736 C 0.17259 0.49916 0.88872 0.0
C737 C 0.21379 0.5444 0.95577 0.0
C738 C 0.18644 0.55242 0.9067 0.0
C739 C 0.13637 0.53784 0.83323 0.0
C740 C 0.11476 0.51502 0.80621 0.0
C741 C 0.16518 0.53004 0.87508 0.0
C742 C 0.12337 0.48441 0.81716 0.0
C743 C 0.15171 0.4766 0.85769 0.0
H744 H 0.04388 0.8726 0.35211 0.0
H745 H 0.97005 0.83422 0.52368 0.0
H746 H 0.96669 0.88137 0.63131 0.0
H747 H 0.98313 0.93527 0.67134 0.0
H748 H 0.05699 0.97229 0.49694 0.0
H749 H 0.06078 0.92486 0.3933 0.0
C750 C 0.02681 0.87435 0.41259 0.0
C751 C 1.00697 0.8494 0.4278 0.0
C752 C 0.02451 0.90189 0.47257 0.0
C753 C 0.9858 0.85249 0.50941 0.0
C754 C 0.98363 0.87977 0.57043 0.0
C755 C 1.00008 0.93288 0.61068 0.0
C756 C 0.01955 0.95777 0.59172 0.0
C757 C 1.00254 0.90491 0.55181 0.0
C758 C 0.04128 0.95406 0.51241 0.0
C759 C 0.04367 0.92667 0.4536 0.0
H760 H 0.70438 0.97124 0.4882 0.0
H761 H 0.71194 0.05134 0.30839 0.0
H762 H 0.66096 0.06769 0.36365 0.0
H763 H 0.61289 0.05843 0.45757 0.0
H764 H 0.6066 0.9813 0.65134 0.0
H765 H 0.65762 0.96452 0.59626 0.0
C766 C 0.69515 0.99266 0.46334 0.0
C767 C 0.71249 1.01038 0.39565 0.0
C768 C 0.66546 1.00202 0.49575 0.0
C769 C 0.69962 0.03766 0.36231 0.0
C770 C 0.6702 0.04682 0.39293 0.0
C771 C 0.62259 0.03778 0.48704 0.0
C772 C 0.60502 0.02026 0.55436 0.0
C773 C 0.65265 0.02901 0.45833 0.0
C774 C 0.61869 0.99432 0.59508 0.0
C775 C 0.64819 0.98497 0.56464 0.0
H776 H 0.5869 0.71685 0.49819 0.0
H777 H 0.49191 0.73666 0.45635 0.0
H778 H 0.47834 0.68956 0.54172 0.0
H779 H 0.49391 0.63957 0.61214 0.0
H780 H 0.58947 0.62096 0.65133 0.0
H781 H 0.60216 0.67012 0.5827 0.0
C782 C 0.56316 0.71119 0.50938 0.0
C783 C 0.5405 0.73051 0.4704 0.0
C784 C 0.55559 0.6837 0.55641 0.0
C785 C 0.50989 0.72264 0.48629 0.0
C786 C 0.50213 0.69539 0.53411 0.0
C787 C 0.51748 0.6464 0.60685 0.0
C788 C 0.54069 0.62586 0.63489 0.0
C789 C 0.52481 0.67523 0.56705 0.0
C790 C 0.57107 0.63555 0.6278 0.0
C791 C 0.57842 0.66393 0.58912 0.0
H792 H 0.84034 0.59845 0.47571 0.0
H793 H 0.81055 0.50616 0.51118 0.0
H794 H 0.85758 0.49486 0.60406 0.0
H795 H 0.91024 0.50972 0.65669 0.0
H796 H 0.93947 0.60202 0.6149 0.0
H797 H 0.89022 0.61452 0.54225 0.0
C798 C 0.84377 0.57598 0.50572 0.0
C799 C 0.82162 0.55322 0.48594 0.0
C800 C 0.8714 0.56937 0.55561 0.0
C801 C 0.82671 0.5243 0.52595 0.0
C802 C 0.85395 0.51771 0.57787 0.0
C803 C 0.90585 0.53263 0.6323 0.0
C804 C 0.92945 0.55458 0.6377 0.0
C805 C 0.87698 0.53979 0.59021 0.0
C806 C 0.92262 0.58425 0.60758 0.0
C807 C 0.89415 0.59155 0.56705 0.0
loop_
_geom_bond_atom_site_label_1
_geom_bond_atom_site_label_2
_geom_bond_distance
_geom_bond_site_symmetry_2
_ccdc_geom_bond_type
H0 C3 0.929 . S
H1 C6 0.929 . S
H2 C8 0.930 . S
C3 H0 0.929 . S
C3 C4 1.398 . S
C3 C5 1.396 . S
C4 C3 1.398 . S
C4 C8 1.407 . S
C5 C3 1.396 . S
C5 C6 1.394 . S
C6 H1 0.929 . S
C6 C5 1.394 . S
C6 C7 1.382 . S
C7 C6 1.382 . S
C7 C8 1.392 . S
C7 N9 1.420 . S
C8 H2 0.930 . S
C8 C4 1.407 . S
C8 C7 1.392 . S
N9 C7 1.420 . S
N9 C10 1.244 . S
C10 N9 1.244 . S
H11 C14 0.929 . S
H12 C17 0.929 . S
H13 C19 0.930 . S
C14 H11 0.929 . S
C14 C15 1.398 . S
C14 C16 1.396 . S
C15 C14 1.398 . S
C15 C19 1.407 . S
C16 C14 1.396 . S
C16 C17 1.394 . S
C17 H12 0.929 . S
C17 C16 1.394 . S
C17 C18 1.382 . S
C18 C17 1.382 . S
C18 C19 1.392 . S
C18 N20 1.420 . S
C19 H13 0.930 . S
C19 C15 1.407 . S
C19 C18 1.392 . S
N20 C18 1.420 . S
N20 C21 1.244 . S
C21 N20 1.244 . S
H22 C25 0.929 . S
H23 C28 0.929 . S
H24 C30 0.930 . S
C25 H22 0.929 . S
C25 C26 1.398 . S
C25 C27 1.396 . S
C26 C25 1.398 . S
C26 C30 1.407 . S
C27 C25 1.396 . S
C27 C28 1.394 . S
C28 H23 0.929 . S
C28 C27 1.394 . S
C28 C29 1.382 . S
C29 C28 1.382 . S
C29 C30 1.392 . S
C29 N31 1.420 . S
C30 H24 0.930 . S
C30 C26 1.407 . S
C30 C29 1.392 . S
N31 C29 1.420 . S
N31 C32 1.244 . S
C32 N31 1.244 . S
H33 C36 0.929 . S
H34 C39 0.929 . S
H35 C41 0.930 . S
C36 H33 0.929 . S
C36 C37 1.398 . S
C36 C38 1.396 . S
C37 C36 1.398 . S
C37 C41 1.407 . S
C38 C36 1.396 . S
C38 C39 1.394 . S
C39 H34 0.929 . S
C39 C38 1.394 . S
C39 C40 1.382 . S
C40 C39 1.382 . S
C40 C41 1.392 . S
C40 N42 1.420 . S
C41 H35 0.930 . S
C41 C37 1.407 . S
C41 C40 1.392 . S
N42 C40 1.420 . S
N42 C43 1.244 . S
C43 N42 1.244 . S
H44 C47 0.929 . S
H45 C50 0.929 . S
H46 C52 0.930 . S
C47 H44 0.929 . S
C47 C48 1.398 . S
C47 C49 1.396 1_556 S
C48 C47 1.398 . S
C48 C52 1.407 . S
C49 C47 1.396 1_554 S
C49 C50 1.394 . S
C50 H45 0.929 . S
C50 C49 1.394 . S
C50 C51 1.382 . S
C51 C50 1.382 . S
C51 C52 1.392 1_554 S
C51 N53 1.420 . S
C52 H46 0.930 . S
C52 C48 1.407 . S
C52 C51 1.392 1_556 S
N53 C51 1.420 . S
N53 C54 1.244 . S
C54 N53 1.244 . S
H55 C58 0.929 . S
H56 C61 0.929 . S
H57 C63 0.930 . S
C58 H55 0.929 . S
C58 C59 1.398 . S
C58 C60 1.396 1_556 S
C59 C58 1.398 . S
C59 C63 1.407 . S
C60 C58 1.396 1_554 S
C60 C61 1.394 . S
C61 H56 0.929 . S
C61 C60 1.394 . S
C61 C62 1.382 . S
C62 C61 1.382 . S
C62 C63 1.392 1_554 S
C62 N64 1.420 . S
C63 H57 0.930 . S
C63 C59 1.407 . S
C63 C62 1.392 1_556 S
N64 C62 1.420 . S
N64 C65 1.244 . S
C65 N64 1.244 . S
H66 C69 0.929 . S
H67 C72 0.929 . S
H68 C74 0.930 . S
C69 H66 0.929 . S
C69 C70 1.398 . S
C69 C71 1.396 1_556 S
C70 C69 1.398 . S
C70 C74 1.407 . S
C71 C69 1.396 1_554 S
C71 C72 1.394 . S
C72 H67 0.929 . S
C72 C71 1.394 . S
C72 C73 1.382 . S
C73 C72 1.382 . S
C73 C74 1.392 1_554 S
C73 N75 1.420 . S
C74 H68 0.930 . S
C74 C70 1.407 . S
C74 C73 1.392 1_556 S
N75 C73 1.420 . S
N75 C76 1.244 . S
C76 N75 1.244 . S
H77 C80 0.929 . S
H78 C83 0.929 . S
H79 C85 0.930 . S
C80 H77 0.929 . S
C80 C81 1.398 . S
C80 C82 1.396 1_556 S
C81 C80 1.398 . S
C81 C85 1.407 . S
C82 C80 1.396 1_554 S
C82 C83 1.394 . S
C83 H78 0.929 . S
C83 C82 1.394 . S
C83 C84 1.382 . S
C84 C83 1.382 . S
C84 C85 1.392 1_554 S
C84 N86 1.420 . S
C85 H79 0.930 . S
C85 C81 1.407 . S
C85 C84 1.392 1_556 S
N86 C84 1.420 . S
N86 C87 1.244 . S
C87 N86 1.244 . S
Gd88 N119 2.661 1_545 S
Gd88 N125 2.601 . S
Gd88 O132 2.545 . S
Gd88 O133 2.606 1_655 S
Gd88 O135 2.429 . S
Gd88 O136 2.545 1_655 S
Gd88 O137 2.412 . S
Gd88 O139 2.362 1_545 S
Gd88 O140 2.324 1_655 S
Gd88 C147 2.828 . S
Gd89 N98 2.661 1_565 S
Gd89 N102 2.601 1_565 S
Gd89 O133 2.362 1_565 S
Gd89 O134 2.324 1_455 S
Gd89 O138 2.545 . S
Gd89 O139 2.606 1_455 S
Gd89 O141 2.429 . S
Gd89 O142 2.545 . S
Gd89 O143 2.412 . S
Gd89 C156 2.828 . S
C90 C93 1.417 1_554 S
C90 C95 1.431 . S
C90 C96 1.412 . S
C91 C94 1.437 1_554 S
C91 C95 1.317 . S
C91 H110 0.929 . S
C92 C93 1.426 . S
C92 C94 1.413 . S
C92 N102 1.359 . S
C93 C90 1.417 1_556 S
C93 C92 1.426 . S
C93 N98 1.350 . S
C94 C91 1.437 1_556 S
C94 C92 1.413 . S
C94 C104 1.391 . S
C95 C90 1.431 . S
C95 C91 1.317 . S
C95 H106 0.930 . S
C96 C90 1.412 . S
C96 C97 1.355 . S
C96 H108 0.930 . S
C97 C96 1.355 . S
C97 C99 1.402 1_554 S
C97 H109 0.930 1_455 S
N98 Gd89 2.661 1_545 S
N98 C93 1.350 . S
N98 C99 1.307 . S
C99 C97 1.402 1_556 S
C99 N98 1.307 . S
C99 H100 0.930 1_455 S
H100 C99 0.930 1_655 S
C101 N102 1.334 1_565 S
C101 C103 1.394 . S
C101 H105 0.930 . S
N102 Gd89 2.601 1_545 S
N102 C92 1.359 . S
N102 C101 1.334 1_545 S
C103 C101 1.394 . S
C103 C104 1.359 1_565 S
C103 H115 0.930 . S
C104 C94 1.391 . S
C104 C103 1.359 1_545 S
C104 H116 0.929 . S
H105 C101 0.930 . S
H106 C95 0.930 . S
H107 C124 0.930 . S
H108 C96 0.930 . S
H109 C97 0.930 1_655 S
H110 C91 0.929 . S
H111 C129 0.930 . S
H112 C120 0.930 . S
H113 C121 0.930 . S
H114 C145 0.929 . S
H115 C103 0.930 . S
H116 C104 0.929 . S
H117 C146 0.930 . S
H118 C127 0.930 . S
N119 Gd88 2.661 1_565 S
N119 C123 1.350 . S
N119 C124 1.307 1_655 S
C120 H112 0.930 . S
C120 C121 1.355 1_655 S
C120 C122 1.412 . S
C121 H113 0.930 . S
C121 C120 1.355 1_455 S
C121 C124 1.402 . S
C122 C120 1.412 . S
C122 C123 1.417 . S
C122 C146 1.431 . S
C123 N119 1.350 . S
C123 C122 1.417 . S
C123 C126 1.426 1_565 S
C124 H107 0.930 . S
C124 N119 1.307 1_455 S
C124 C121 1.402 . S
N125 Gd88 2.601 . S
N125 C126 1.359 . S
N125 C129 1.334 . S
C126 C123 1.426 1_545 S
C126 N125 1.359 . S
C126 C130 1.413 1_545 S
C127 H118 0.930 . S
C127 C128 1.359 . S
C127 C129 1.394 . S
C128 C127 1.359 . S
C128 C130 1.391 1_545 S
C128 H131 0.929 . S
C129 H111 0.930 . S
C129 N125 1.334 . S
C129 C127 1.394 . S
C130 C126 1.413 1_565 S
C130 C128 1.391 1_565 S
C130 C145 1.437 . S
H131 C128 0.929 . S
O132 Gd88 2.545 . S
O132 C147 1.258 . S
O133 Gd88 2.606 1_455 S
O133 Gd89 2.362 1_545 S
O133 C144 1.284 . S
O134 Gd89 2.324 1_655 S
O134 C154 1.254 1_565 S
O135 Gd88 2.429 . S
O135 C154 1.268 . S
O136 Gd88 2.545 1_455 S
O136 C144 1.250 . S
O137 Gd88 2.412 . S
O137 C147 1.252 . S
O138 Gd89 2.545 . S
O138 C156 1.258 . S
O139 Gd88 2.362 1_565 S
O139 Gd89 2.606 1_655 S
O139 C155 1.284 . S
O140 Gd88 2.324 1_455 S
O140 C163 1.254 . S
O141 Gd89 2.429 . S
O141 C163 1.268 1_565 S
O142 Gd89 2.545 . S
O142 C155 1.250 1_455 S
O143 Gd89 2.412 . S
O143 C156 1.252 . S
C144 O133 1.284 . S
C144 O136 1.250 . S
C145 H114 0.929 . S
C145 C130 1.437 . S
C145 C146 1.317 . S
C146 H117 0.930 . S
C146 C122 1.431 . S
C146 C145 1.317 . S
C147 Gd88 2.828 . S
C147 O132 1.258 . S
C147 O137 1.252 . S
C147 C148 1.497 . S
C148 C147 1.497 . S
C148 C149 1.395 . S
C148 C150 1.380 . S
C149 C148 1.395 . S
C149 C152 1.398 . S
C149 H164 0.930 . S
C150 C148 1.380 . S
C150 C151 1.391 . S
C150 H165 0.930 1_655 S
C151 C150 1.391 . S
C151 C153 1.387 . S
C152 C149 1.398 . S
C152 C153 1.380 . S
C152 H166 0.930 . S
C153 C151 1.387 . S
C153 C152 1.380 . S
C153 H167 0.930 . S
C154 O134 1.254 1_545 S
C154 O135 1.268 . S
C155 O139 1.284 . S
C155 O142 1.250 1_655 S
C156 Gd89 2.828 . S
C156 O138 1.258 . S
C156 O143 1.252 . S
C156 C157 1.497 . S
C157 C156 1.497 . S
C157 C158 1.395 . S
C157 C159 1.380 1_556 S
C158 C157 1.395 . S
C158 C161 1.398 1_556 S
C158 H168 0.930 . S
C159 C157 1.380 1_554 S
C159 C160 1.391 . S
C159 H169 0.930 1_554 S
C160 C159 1.391 . S
C160 C162 1.387 . S
C161 C158 1.398 1_554 S
C161 C162 1.380 . S
C161 H170 0.930 . S
C162 C160 1.387 . S
C162 C161 1.380 . S
C162 H171 0.930 . S
C163 O140 1.254 . S
C163 O141 1.268 1_545 S
H164 C149 0.930 . S
H165 C150 0.930 1_455 S
H166 C152 0.930 . S
H167 C153 0.930 . S
H168 C158 0.930 . S
H169 C159 0.930 1_556 S
H170 C161 0.930 . S
H171 C162 0.930 . S
Gd172 N203 2.661 . S
Gd172 N209 2.601 . S
Gd172 O216 2.545 . S
Gd172 O217 2.606 1_565 S
Gd172 O219 2.429 . S
Gd172 O220 2.545 1_565 S
Gd172 O221 2.412 . S
Gd172 O223 2.362 . S
Gd172 O224 2.324 1_565 S
Gd172 C231 2.828 . S
Gd173 N182 2.661 . S
Gd173 N186 2.601 . S
Gd173 O217 2.362 . S
Gd173 O218 2.324 1_545 S
Gd173 O222 2.545 . S
Gd173 O223 2.606 1_545 S
Gd173 O225 2.429 . S
Gd173 O226 2.545 . S
Gd173 O227 2.412 . S
Gd173 C240 2.828 . S
C174 C177 1.417 1_554 S
C174 C179 1.431 . S
C174 C180 1.412 . S
C175 C178 1.437 1_554 S
C175 C179 1.317 . S
C175 H194 0.929 . S
C176 C177 1.426 . S
C176 C178 1.413 . S
C176 N186 1.359 . S
C177 C174 1.417 1_556 S
C177 C176 1.426 . S
C177 N182 1.350 . S
C178 C175 1.437 1_556 S
C178 C176 1.413 . S
C178 C188 1.391 . S
C179 C174 1.431 . S
C179 C175 1.317 . S
C179 H190 0.930 . S
C180 C174 1.412 . S
C180 C181 1.355 . S
C180 H192 0.930 . S
C181 C180 1.355 . S
C181 C183 1.402 1_554 S
C181 H193 0.930 1_545 S
N182 Gd173 2.661 . S
N182 C177 1.350 . S
N182 C183 1.307 . S
C183 C181 1.402 1_556 S
C183 N182 1.307 . S
C183 H184 0.930 1_545 S
H184 C183 0.930 1_565 S
C185 N186 1.334 . S
C185 C187 1.394 . S
C185 H189 0.930 . S
N186 Gd173 2.601 . S
N186 C176 1.359 . S
N186 C185 1.334 . S
C187 C185 1.394 . S
C187 C188 1.359 . S
C187 H199 0.930 . S
C188 C178 1.391 . S
C188 C187 1.359 . S
C188 H200 0.929 . S
H189 C185 0.930 . S
H190 C179 0.930 . S
H191 C208 0.930 . S
H192 C180 0.930 . S
H193 C181 0.930 1_565 S
H194 C175 0.929 . S
H195 C213 0.930 . S
H196 C204 0.930 . S
H197 C205 0.930 . S
H198 C229 0.929 . S
H199 C187 0.930 . S
H200 C188 0.929 . S
H201 C230 0.930 . S
H202 C211 0.930 . S
N203 Gd172 2.661 . S
N203 C207 1.350 . S
N203 C208 1.307 1_565 S
C204 H196 0.930 . S
C204 C205 1.355 1_565 S
C204 C206 1.412 . S
C205 H197 0.930 . S
C205 C204 1.355 1_545 S
C205 C208 1.402 . S
C206 C204 1.412 . S
C206 C207 1.417 . S
C206 C230 1.431 . S
C207 N203 1.350 . S
C207 C206 1.417 . S
C207 C210 1.426 . S
C208 H191 0.930 . S
C208 N203 1.307 1_545 S
C208 C205 1.402 . S
N209 Gd172 2.601 . S
N209 C210 1.359 . S
N209 C213 1.334 . S
C210 C207 1.426 . S
C210 N209 1.359 . S
C210 C214 1.413 . S
C211 H202 0.930 . S
C211 C212 1.359 . S
C211 C213 1.394 . S
C212 C211 1.359 . S
C212 C214 1.391 . S
C212 H215 0.929 . S
C213 H195 0.930 . S
C213 N209 1.334 . S
C213 C211 1.394 . S
C214 C210 1.413 . S
C214 C212 1.391 . S
C214 C229 1.437 . S
H215 C212 0.929 . S
O216 Gd172 2.545 . S
O216 C231 1.258 . S
O217 Gd172 2.606 1_545 S
O217 Gd173 2.362 . S
O217 C228 1.284 . S
O218 Gd173 2.324 1_565 S
O218 C238 1.254 . S
O219 Gd172 2.429 . S
O219 C238 1.268 . S
O220 Gd172 2.545 1_545 S
O220 C228 1.250 . S
O221 Gd172 2.412 . S
O221 C231 1.252 . S
O222 Gd173 2.545 . S
O222 C240 1.258 . S
O223 Gd172 2.362 . S
O223 Gd173 2.606 1_565 S
O223 C239 1.284 . S
O224 Gd172 2.324 1_545 S
O224 C247 1.254 . S
O225 Gd173 2.429 . S
O225 C247 1.268 . S
O226 Gd173 2.545 . S
O226 C239 1.250 1_545 S
O227 Gd173 2.412 . S
O227 C240 1.252 . S
C228 O217 1.284 . S
C228 O220 1.250 . S
C229 H198 0.929 . S
C229 C214 1.437 . S
C229 C230 1.317 . S
C230 H201 0.930 . S
C230 C206 1.431 . S
C230 C229 1.317 . S
C231 Gd172 2.828 . S
C231 O216 1.258 . S
C231 O221 1.252 . S
C231 C232 1.497 . S
C232 C231 1.497 . S
C232 C233 1.395 . S
C232 C234 1.380 . S
C233 C232 1.395 . S
C233 C236 1.398 . S
C233 H248 0.930 . S
C234 C232 1.380 . S
C234 C235 1.391 . S
C234 H249 0.930 1_565 S
C235 C234 1.391 . S
C235 C237 1.387 . S
C236 C233 1.398 . S
C236 C237 1.380 . S
C236 H250 0.930 . S
C237 C235 1.387 . S
C237 C236 1.380 . S
C237 H251 0.930 . S
C238 O218 1.254 . S
C238 O219 1.268 . S
C239 O223 1.284 . S
C239 O226 1.250 1_565 S
C240 Gd173 2.828 . S
C240 O222 1.258 . S
C240 O227 1.252 . S
C240 C241 1.497 . S
C241 C240 1.497 . S
C241 C242 1.395 . S
C241 C243 1.380 1_556 S
C242 C241 1.395 . S
C242 C245 1.398 1_556 S
C242 H252 0.930 . S
C243 C241 1.380 1_554 S
C243 C244 1.391 . S
C243 H253 0.930 1_554 S
C244 C243 1.391 . S
C244 C246 1.387 . S
C245 C242 1.398 1_554 S
C245 C246 1.380 . S
C245 H254 0.930 . S
C246 C244 1.387 . S
C246 C245 1.380 . S
C246 H255 0.930 . S
C247 O224 1.254 . S
C247 O225 1.268 . S
H248 C233 0.930 . S
H249 C234 0.930 1_545 S
H250 C236 0.930 . S
H251 C237 0.930 . S
H252 C242 0.930 . S
H253 C243 0.930 1_556 S
H254 C245 0.930 . S
H255 C246 0.930 . S
Gd256 N287 2.661 . S
Gd256 N293 2.601 . S
Gd256 O300 2.545 . S
Gd256 O301 2.606 . S
Gd256 O303 2.429 . S
Gd256 O304 2.545 . S
Gd256 O305 2.412 . S
Gd256 O307 2.362 . S
Gd256 O308 2.324 . S
Gd256 C315 2.828 . S
Gd257 N266 2.661 . S
Gd257 N270 2.601 . S
Gd257 O301 2.362 . S
Gd257 O302 2.324 . S
Gd257 O306 2.545 . S
Gd257 O307 2.606 . S
Gd257 O309 2.429 . S
Gd257 O310 2.545 . S
Gd257 O311 2.412 . S
Gd257 C324 2.828 . S
C258 C261 1.417 . S
C258 C263 1.431 . S
C258 C264 1.412 . S
C259 C262 1.437 . S
C259 C263 1.317 . S
C259 H278 0.929 . S
C260 C261 1.426 . S
C260 C262 1.413 . S
C260 N270 1.359 . S
C261 C258 1.417 . S
C261 C260 1.426 . S
C261 N266 1.350 . S
C262 C259 1.437 . S
C262 C260 1.413 . S
C262 C272 1.391 . S
C263 C258 1.431 . S
C263 C259 1.317 . S
C263 H274 0.930 . S
C264 C258 1.412 . S
C264 C265 1.355 . S
C264 H276 0.930 . S
C265 C264 1.355 . S
C265 C267 1.402 . S
C265 H277 0.930 . S
N266 Gd257 2.661 . S
N266 C261 1.350 . S
N266 C267 1.307 . S
C267 C265 1.402 . S
C267 N266 1.307 . S
C267 H268 0.930 . S
H268 C267 0.930 . S
C269 N270 1.334 . S
C269 C271 1.394 . S
C269 H273 0.930 . S
N270 Gd257 2.601 . S
N270 C260 1.359 . S
N270 C269 1.334 . S
C271 C269 1.394 . S
C271 C272 1.359 . S
C271 H283 0.930 . S
C272 C262 1.391 . S
C272 C271 1.359 . S
C272 H284 0.929 . S
H273 C269 0.930 . S
H274 C263 0.930 . S
H275 C292 0.930 . S
H276 C264 0.930 . S
H277 C265 0.930 . S
H278 C259 0.929 . S
H279 C297 0.930 . S
H280 C288 0.930 . S
H281 C289 0.930 . S
H282 C313 0.929 . S
H283 C271 0.930 . S
H284 C272 0.929 . S
H285 C314 0.930 . S
H286 C295 0.930 1_554 S
N287 Gd256 2.661 . S
N287 C291 1.350 . S
N287 C292 1.307 . S
C288 H280 0.930 . S
C288 C289 1.355 . S
C288 C290 1.412 . S
C289 H281 0.930 . S
C289 C288 1.355 . S
C289 C292 1.402 . S
C290 C288 1.412 . S
C290 C291 1.417 . S
C290 C314 1.431 . S
C291 N287 1.350 . S
C291 C290 1.417 . S
C291 C294 1.426 . S
C292 H275 0.930 . S
C292 N287 1.307 . S
C292 C289 1.402 . S
N293 Gd256 2.601 . S
N293 C294 1.359 . S
N293 C297 1.334 . S
C294 C291 1.426 . S
C294 N293 1.359 . S
C294 C298 1.413 . S
C295 H286 0.930 1_556 S
C295 C296 1.359 . S
C295 C297 1.394 . S
C296 C295 1.359 . S
C296 C298 1.391 . S
C296 H299 0.929 . S
C297 H279 0.930 . S
C297 N293 1.334 . S
C297 C295 1.394 . S
C298 C294 1.413 . S
C298 C296 1.391 . S
C298 C313 1.437 . S
H299 C296 0.929 . S
O300 Gd256 2.545 . S
O300 C315 1.258 . S
O301 Gd256 2.606 . S
O301 Gd257 2.362 . S
O301 C312 1.284 . S
O302 Gd257 2.324 . S
O302 C322 1.254 . S
O303 Gd256 2.429 . S
O303 C322 1.268 . S
O304 Gd256 2.545 . S
O304 C312 1.250 . S
O305 Gd256 2.412 . S
O305 C315 1.252 . S
O306 Gd257 2.545 . S
O306 C324 1.258 . S
O307 Gd256 2.362 . S
O307 Gd257 2.606 . S
O307 C323 1.284 . S
O308 Gd256 2.324 . S
O308 C331 1.254 . S
O309 Gd257 2.429 . S
O309 C331 1.268 . S
O310 Gd257 2.545 . S
O310 C323 1.250 . S
O311 Gd257 2.412 . S
O311 C324 1.252 . S
C312 O301 1.284 . S
C312 O304 1.250 . S
C313 H282 0.929 . S
C313 C298 1.437 . S
C313 C314 1.317 . S
C314 H285 0.930 . S
C314 C290 1.431 . S
C314 C313 1.317 . S
C315 Gd256 2.828 . S
C315 O300 1.258 . S
C315 O305 1.252 . S
C315 C316 1.497 1_556 S
C316 C315 1.497 1_554 S
C316 C317 1.395 . S
C316 C318 1.380 . S
C317 C316 1.395 . S
C317 C320 1.398 . S
C317 H332 0.930 . S
C318 C316 1.380 . S
C318 C319 1.391 . S
C318 H333 0.930 1_554 S
C319 C318 1.391 . S
C319 C321 1.387 . S
C320 C317 1.398 . S
C320 C321 1.380 . S
C320 H334 0.930 . S
C321 C319 1.387 . S
C321 C320 1.380 . S
C321 H335 0.930 . S
C322 O302 1.254 . S
C322 O303 1.268 . S
C323 O307 1.284 . S
C323 O310 1.250 . S
C324 Gd257 2.828 . S
C324 O306 1.258 . S
C324 O311 1.252 . S
C324 C325 1.497 . S
C325 C324 1.497 . S
C325 C326 1.395 . S
C325 C327 1.380 . S
C326 C325 1.395 . S
C326 C329 1.398 . S
C326 H336 0.930 . S
C327 C325 1.380 . S
C327 C328 1.391 . S
C327 H337 0.930 . S
C328 C327 1.391 . S
C328 C330 1.387 . S
C329 C326 1.398 . S
C329 C330 1.380 . S
C329 H338 0.930 . S
C330 C328 1.387 . S
C330 C329 1.380 . S
C330 H339 0.930 . S
C331 O308 1.254 . S
C331 O309 1.268 . S
H332 C317 0.930 . S
H333 C318 0.930 1_556 S
H334 C320 0.930 . S
H335 C321 0.930 . S
H336 C326 0.930 . S
H337 C327 0.930 . S
H338 C329 0.930 . S
H339 C330 0.930 . S
Gd340 N371 2.661 . S
Gd340 N377 2.601 . S
Gd340 O384 2.545 . S
Gd340 O385 2.606 1_655 S
Gd340 O387 2.429 1_655 S
Gd340 O388 2.545 . S
Gd340 O389 2.412 . S
Gd340 O391 2.362 1_655 S
Gd340 O392 2.324 . S
Gd340 C399 2.828 . S
Gd341 N350 2.661 . S
Gd341 N354 2.601 . S
Gd341 O385 2.362 . S
Gd341 O386 2.324 . S
Gd341 O390 2.545 . S
Gd341 O391 2.606 . S
Gd341 O393 2.429 1_455 S
Gd341 O394 2.545 . S
Gd341 O395 2.412 . S
Gd341 C408 2.828 . S
C342 C345 1.417 . S
C342 C347 1.431 . S
C342 C348 1.412 . S
C343 C346 1.437 . S
C343 C347 1.317 . S
C343 H362 0.929 . S
C344 C345 1.426 . S
C344 C346 1.413 . S
C344 N354 1.359 . S
C345 C342 1.417 . S
C345 C344 1.426 . S
C345 N350 1.350 . S
C346 C343 1.437 . S
C346 C344 1.413 . S
C346 C356 1.391 . S
C347 C342 1.431 . S
C347 C343 1.317 . S
C347 H358 0.930 . S
C348 C342 1.412 . S
C348 C349 1.355 . S
C348 H360 0.930 . S
C349 C348 1.355 . S
C349 C351 1.402 . S
C349 H361 0.930 . S
N350 Gd341 2.661 . S
N350 C345 1.350 . S
N350 C351 1.307 . S
C351 C349 1.402 . S
C351 N350 1.307 . S
C351 H352 0.930 . S
H352 C351 0.930 . S
C353 N354 1.334 1_655 S
C353 C355 1.394 . S
C353 H357 0.930 . S
N354 Gd341 2.601 . S
N354 C344 1.359 . S
N354 C353 1.334 1_455 S
C355 C353 1.394 . S
C355 C356 1.359 1_655 S
C355 H367 0.930 . S
C356 C346 1.391 . S
C356 C355 1.359 1_455 S
C356 H368 0.929 . S
H357 C353 0.930 . S
H358 C347 0.930 . S
H359 C376 0.930 . S
H360 C348 0.930 . S
H361 C349 0.930 . S
H362 C343 0.929 . S
H363 C381 0.930 . S
H364 C372 0.930 . S
H365 C373 0.930 . S
H366 C397 0.929 . S
H367 C355 0.930 . S
H368 C356 0.929 . S
H369 C398 0.930 . S
H370 C379 0.930 1_554 S
N371 Gd340 2.661 . S
N371 C375 1.350 . S
N371 C376 1.307 . S
C372 H364 0.930 . S
C372 C373 1.355 . S
C372 C374 1.412 . S
C373 H365 0.930 . S
C373 C372 1.355 . S
C373 C376 1.402 . S
C374 C372 1.412 . S
C374 C375 1.417 . S
C374 C398 1.431 . S
C375 N371 1.350 . S
C375 C374 1.417 . S
C375 C378 1.426 . S
C376 H359 0.930 . S
C376 N371 1.307 . S
C376 C373 1.402 . S
N377 Gd340 2.601 . S
N377 C378 1.359 . S
N377 C381 1.334 1_655 S
C378 C375 1.426 . S
C378 N377 1.359 . S
C378 C382 1.413 . S
C379 H370 0.930 1_556 S
C379 C380 1.359 . S
C379 C381 1.394 . S
C380 C379 1.359 . S
C380 C382 1.391 1_455 S
C380 H383 0.929 . S
C381 H363 0.930 . S
C381 N377 1.334 1_455 S
C381 C379 1.394 . S
C382 C378 1.413 . S
C382 C380 1.391 1_655 S
C382 C397 1.437 . S
H383 C380 0.929 . S
O384 Gd340 2.545 . S
O384 C399 1.258 . S
O385 Gd340 2.606 1_455 S
O385 Gd341 2.362 . S
O385 C396 1.284 1_455 S
O386 Gd341 2.324 . S
O386 C406 1.254 . S
O387 Gd340 2.429 1_455 S
O387 C406 1.268 . S
O388 Gd340 2.545 . S
O388 C396 1.250 . S
O389 Gd340 2.412 . S
O389 C399 1.252 . S
O390 Gd341 2.545 . S
O390 C408 1.258 . S
O391 Gd340 2.362 1_455 S
O391 Gd341 2.606 . S
O391 C407 1.284 . S
O392 Gd340 2.324 . S
O392 C415 1.254 . S
O393 Gd341 2.429 1_655 S
O393 C415 1.268 . S
O394 Gd341 2.545 . S
O394 C407 1.250 . S
O395 Gd341 2.412 . S
O395 C408 1.252 . S
C396 O385 1.284 1_655 S
C396 O388 1.250 . S
C397 H366 0.929 . S
C397 C382 1.437 . S
C397 C398 1.317 . S
C398 H369 0.930 . S
C398 C374 1.431 . S
C398 C397 1.317 . S
C399 Gd340 2.828 . S
C399 O384 1.258 . S
C399 O389 1.252 . S
C399 C400 1.497 1_556 S
C400 C399 1.497 1_554 S
C400 C401 1.395 . S
C400 C402 1.380 . S
C401 C400 1.395 . S
C401 C404 1.398 . S
C401 H416 0.930 . S
C402 C400 1.380 . S
C402 C403 1.391 . S
C402 H417 0.930 1_554 S
C403 C402 1.391 . S
C403 C405 1.387 . S
C404 C401 1.398 . S
C404 C405 1.380 . S
C404 H418 0.930 . S
C405 C403 1.387 . S
C405 C404 1.380 . S
C405 H419 0.930 . S
C406 O386 1.254 . S
C406 O387 1.268 . S
C407 O391 1.284 . S
C407 O394 1.250 . S
C408 Gd341 2.828 . S
C408 O390 1.258 . S
C408 O395 1.252 . S
C408 C409 1.497 . S
C409 C408 1.497 . S
C409 C410 1.395 . S
C409 C411 1.380 . S
C410 C409 1.395 . S
C410 C413 1.398 . S
C410 H420 0.930 . S
C411 C409 1.380 . S
C411 C412 1.391 . S
C411 H421 0.930 . S
C412 C411 1.391 . S
C412 C414 1.387 . S
C413 C410 1.398 . S
C413 C414 1.380 . S
C413 H422 0.930 . S
C414 C412 1.387 . S
C414 C413 1.380 . S
C414 H423 0.930 . S
C415 O392 1.254 . S
C415 O393 1.268 . S
H416 C401 0.930 . S
H417 C402 0.930 1_556 S
H418 C404 0.930 . S
H419 C405 0.930 . S
H420 C410 0.930 . S
H421 C411 0.930 . S
H422 C413 0.930 . S
H423 C414 0.930 . S
H424 C430 0.930 . S
H425 C433 0.930 . S
H426 C434 0.930 . S
H427 C435 0.930 . S
H428 C438 0.930 . S
H429 C439 0.930 . S
C430 H424 0.930 . S
C430 C431 1.355 . S
C430 C432 1.415 . S
C431 C430 1.355 . S
C431 C433 1.419 . S
C432 C430 1.415 . S
C432 C437 1.425 . S
C432 C439 1.409 . S
C433 H425 0.930 . S
C433 C431 1.419 . S
C433 C434 1.362 . S
C434 H426 0.930 . S
C434 C433 1.362 . S
C434 C437 1.409 . S
C435 H427 0.930 . S
C435 C436 1.355 . S
C435 C437 1.415 . S
C436 C435 1.355 . S
C436 C438 1.419 . S
C437 C432 1.425 . S
C437 C434 1.409 . S
C437 C435 1.415 . S
C438 H428 0.930 . S
C438 C436 1.419 . S
C438 C439 1.362 . S
C439 H429 0.930 . S
C439 C432 1.409 . S
C439 C438 1.362 . S
H440 C446 0.930 . S
H441 C449 0.930 . S
H442 C450 0.930 . S
H443 C451 0.930 . S
H444 C454 0.930 . S
H445 C455 0.930 . S
C446 H440 0.930 . S
C446 C447 1.355 . S
C446 C448 1.415 . S
C447 C446 1.355 . S
C447 C449 1.419 . S
C448 C446 1.415 . S
C448 C453 1.425 . S
C448 C455 1.409 . S
C449 H441 0.930 . S
C449 C447 1.419 . S
C449 C450 1.362 . S
C450 H442 0.930 . S
C450 C449 1.362 . S
C450 C453 1.409 . S
C451 H443 0.930 . S
C451 C452 1.355 . S
C451 C453 1.415 . S
C452 C451 1.355 . S
C452 C454 1.419 . S
C453 C448 1.425 . S
C453 C450 1.409 . S
C453 C451 1.415 . S
C454 H444 0.930 . S
C454 C452 1.419 . S
C454 C455 1.362 . S
C455 H445 0.930 . S
C455 C448 1.409 . S
C455 C454 1.362 . S
H456 C462 0.930 . S
H457 C465 0.930 . S
H458 C466 0.930 . S
H459 C467 0.930 . S
H460 C470 0.930 . S
H461 C471 0.930 . S
C462 H456 0.930 . S
C462 C463 1.355 . S
C462 C464 1.415 . S
C463 C462 1.355 . S
C463 C465 1.419 . S
C464 C462 1.415 . S
C464 C469 1.425 . S
C464 C471 1.409 . S
C465 H457 0.930 . S
C465 C463 1.419 . S
C465 C466 1.362 . S
C466 H458 0.930 . S
C466 C465 1.362 . S
C466 C469 1.409 . S
C467 H459 0.930 . S
C467 C468 1.355 . S
C467 C469 1.415 . S
C468 C467 1.355 . S
C468 C470 1.419 . S
C469 C464 1.425 . S
C469 C466 1.409 . S
C469 C467 1.415 . S
C470 H460 0.930 . S
C470 C468 1.419 . S
C470 C471 1.362 . S
C471 H461 0.930 . S
C471 C464 1.409 . S
C471 C470 1.362 . S
H472 C478 0.930 . S
H473 C481 0.930 . S
H474 C482 0.930 . S
H475 C483 0.930 . S
H476 C486 0.930 1_655 S
H477 C487 0.930 1_655 S
C478 H472 0.930 . S
C478 C479 1.355 . S
C478 C480 1.415 . S
C479 C478 1.355 . S
C479 C481 1.419 . S
C480 C478 1.415 . S
C480 C485 1.425 . S
C480 C487 1.409 . S
C481 H473 0.930 . S
C481 C479 1.419 . S
C481 C482 1.362 . S
C482 H474 0.930 . S
C482 C481 1.362 . S
C482 C485 1.409 . S
C483 H475 0.930 . S
C483 C484 1.355 . S
C483 C485 1.415 . S
C484 C483 1.355 . S
C484 C486 1.419 . S
C485 C480 1.425 . S
C485 C482 1.409 . S
C485 C483 1.415 . S
C486 H476 0.930 1_455 S
C486 C484 1.419 . S
C486 C487 1.362 . S
C487 H477 0.930 1_455 S
C487 C480 1.409 . S
C487 C486 1.362 . S
H488 C494 0.930 . S
H489 C497 0.930 . S
H490 C498 0.930 . S
H491 C499 0.930 . S
H492 C502 0.930 . S
H493 C503 0.930 1_545 S
C494 H488 0.930 . S
C494 C495 1.355 . S
C494 C496 1.415 . S
C495 C494 1.355 . S
C495 C497 1.419 . S
C496 C494 1.415 . S
C496 C501 1.425 . S
C496 C503 1.409 1_554 S
C497 H489 0.930 . S
C497 C495 1.419 . S
C497 C498 1.362 . S
C498 H490 0.930 . S
C498 C497 1.362 . S
C498 C501 1.409 . S
C499 H491 0.930 . S
C499 C500 1.355 . S
C499 C501 1.415 1_556 S
C500 C499 1.355 . S
C500 C502 1.419 1_565 S
C501 C496 1.425 . S
C501 C498 1.409 . S
C501 C499 1.415 1_554 S
C502 H492 0.930 . S
C502 C500 1.419 1_545 S
C502 C503 1.362 1_545 S
C503 H493 0.930 1_565 S
C503 C496 1.409 1_556 S
C503 C502 1.362 1_565 S
H504 C510 0.930 . S
H505 C513 0.930 . S
H506 C514 0.930 1_556 S
H507 C515 0.930 . S
H508 C518 0.930 . S
H509 C519 0.930 . S
C510 H504 0.930 . S
C510 C511 1.355 . S
C510 C512 1.415 . S
C511 C510 1.355 . S
C511 C513 1.419 . S
C512 C510 1.415 . S
C512 C517 1.425 . S
C512 C519 1.409 . S
C513 H505 0.930 . S
C513 C511 1.419 . S
C513 C514 1.362 . S
C514 H506 0.930 1_554 S
C514 C513 1.362 . S
C514 C517 1.409 . S
C515 H507 0.930 . S
C515 C516 1.355 . S
C515 C517 1.415 1_556 S
C516 C515 1.355 . S
C516 C518 1.419 . S
C517 C512 1.425 . S
C517 C514 1.409 . S
C517 C515 1.415 1_554 S
C518 H508 0.930 . S
C518 C516 1.419 . S
C518 C519 1.362 1_556 S
C519 H509 0.930 . S
C519 C512 1.409 . S
C519 C518 1.362 1_554 S
H520 C526 0.930 . S
H521 C529 0.930 . S
H522 C530 0.930 . S
H523 C531 0.930 . S
H524 C534 0.930 . S
H525 C535 0.930 . S
C526 H520 0.930 . S
C526 C527 1.355 . S
C526 C528 1.415 . S
C527 C526 1.355 . S
C527 C529 1.419 . S
C528 C526 1.415 . S
C528 C533 1.425 . S
C528 C535 1.409 1_554 S
C529 H521 0.930 . S
C529 C527 1.419 . S
C529 C530 1.362 . S
C530 H522 0.930 . S
C530 C529 1.362 . S
C530 C533 1.409 . S
C531 H523 0.930 . S
C531 C532 1.355 . S
C531 C533 1.415 1_556 S
C532 C531 1.355 . S
C532 C534 1.419 . S
C533 C528 1.425 . S
C533 C530 1.409 . S
C533 C531 1.415 1_554 S
C534 H524 0.930 . S
C534 C532 1.419 . S
C534 C535 1.362 . S
C535 H525 0.930 . S
C535 C528 1.409 1_556 S
C535 C534 1.362 . S
H536 C542 0.930 . S
H537 C545 0.930 . S
H538 C546 0.930 1_556 S
H539 C547 0.930 . S
H540 C550 0.930 . S
H541 C551 0.930 . S
C542 H536 0.930 . S
C542 C543 1.355 . S
C542 C544 1.415 . S
C543 C542 1.355 . S
C543 C545 1.419 . S
C544 C542 1.415 . S
C544 C549 1.425 1_554 S
C544 C551 1.409 . S
C545 H537 0.930 . S
C545 C543 1.419 . S
C545 C546 1.362 . S
C546 H538 0.930 1_554 S
C546 C545 1.362 . S
C546 C549 1.409 1_554 S
C547 H539 0.930 . S
C547 C548 1.355 . S
C547 C549 1.415 . S
C548 C547 1.355 . S
C548 C550 1.419 . S
C549 C544 1.425 1_556 S
C549 C546 1.409 1_556 S
C549 C547 1.415 . S
C550 H540 0.930 . S
C550 C548 1.419 . S
C550 C551 1.362 1_556 S
C551 H541 0.930 . S
C551 C544 1.409 . S
C551 C550 1.362 1_554 S
H552 C558 0.930 . S
H553 C561 0.930 1_556 S
H554 C562 0.930 1_655 S
H555 C563 0.930 . S
H556 C566 0.930 . S
H557 C567 0.930 . S
C558 H552 0.930 . S
C558 C559 1.355 . S
C558 C560 1.415 . S
C559 C558 1.355 . S
C559 C561 1.419 . S
C560 C558 1.415 . S
C560 C565 1.425 . S
C560 C567 1.409 . S
C561 H553 0.930 1_554 S
C561 C559 1.419 . S
C561 C562 1.362 . S
C562 H554 0.930 1_455 S
C562 C561 1.362 . S
C562 C565 1.409 . S
C563 H555 0.930 . S
C563 C564 1.355 1_655 S
C563 C565 1.415 1_655 S
C564 C563 1.355 1_455 S
C564 C566 1.419 . S
C565 C560 1.425 . S
C565 C562 1.409 . S
C565 C563 1.415 1_455 S
C566 H556 0.930 . S
C566 C564 1.419 . S
C566 C567 1.362 . S
C567 H557 0.930 . S
C567 C560 1.409 . S
C567 C566 1.362 . S
H568 C574 0.930 . S
H569 C577 0.930 . S
H570 C578 0.930 . S
H571 C579 0.930 . S
H572 C582 0.930 . S
H573 C583 0.930 . S
C574 H568 0.930 . S
C574 C575 1.355 . S
C574 C576 1.415 . S
C575 C574 1.355 . S
C575 C577 1.419 . S
C576 C574 1.415 . S
C576 C581 1.425 . S
C576 C583 1.409 1_545 S
C577 H569 0.930 . S
C577 C575 1.419 . S
C577 C578 1.362 . S
C578 H570 0.930 . S
C578 C577 1.362 . S
C578 C581 1.409 . S
C579 H571 0.930 . S
C579 C580 1.355 . S
C579 C581 1.415 . S
C580 C579 1.355 . S
C580 C582 1.419 1_545 S
C581 C576 1.425 . S
C581 C578 1.409 . S
C581 C579 1.415 . S
C582 H572 0.930 . S
C582 C580 1.419 1_565 S
C582 C583 1.362 . S
C583 H573 0.930 . S
C583 C576 1.409 1_565 S
C583 C582 1.362 . S
H584 C590 0.930 . S
H585 C593 0.930 . S
H586 C594 0.930 . S
H587 C595 0.930 . S
H588 C598 0.930 . S
H589 C599 0.930 . S
C590 H584 0.930 . S
C590 C591 1.355 . S
C590 C592 1.415 . S
C591 C590 1.355 . S
C591 C593 1.419 . S
C592 C590 1.415 . S
C592 C597 1.425 . S
C592 C599 1.409 . S
C593 H585 0.930 . S
C593 C591 1.419 . S
C593 C594 1.362 . S
C594 H586 0.930 . S
C594 C593 1.362 . S
C594 C597 1.409 . S
C595 H587 0.930 . S
C595 C596 1.355 . S
C595 C597 1.415 . S
C596 C595 1.355 . S
C596 C598 1.419 . S
C597 C592 1.425 . S
C597 C594 1.409 . S
C597 C595 1.415 . S
C598 H588 0.930 . S
C598 C596 1.419 . S
C598 C599 1.362 . S
C599 H589 0.930 . S
C599 C592 1.409 . S
C599 C598 1.362 . S
H600 C606 0.930 . S
H601 C609 0.930 . S
H602 C610 0.930 . S
H603 C611 0.930 . S
H604 C614 0.930 . S
H605 C615 0.930 . S
C606 H600 0.930 . S
C606 C607 1.355 . S
C606 C608 1.415 . S
C607 C606 1.355 . S
C607 C609 1.419 . S
C608 C606 1.415 . S
C608 C613 1.425 . S
C608 C615 1.409 . S
C609 H601 0.930 . S
C609 C607 1.419 . S
C609 C610 1.362 . S
C610 H602 0.930 . S
C610 C609 1.362 . S
C610 C613 1.409 . S
C611 H603 0.930 . S
C611 C612 1.355 . S
C611 C613 1.415 . S
C612 C611 1.355 . S
C612 C614 1.419 . S
C613 C608 1.425 . S
C613 C610 1.409 . S
C613 C611 1.415 . S
C614 H604 0.930 . S
C614 C612 1.419 . S
C614 C615 1.362 . S
C615 H605 0.930 . S
C615 C608 1.409 . S
C615 C614 1.362 . S
H616 C622 0.930 . S
H617 C625 0.930 . S
H618 C626 0.930 . S
H619 C627 0.930 . S
H620 C630 0.930 1_556 S
H621 C631 0.930 . S
C622 H616 0.930 . S
C622 C623 1.355 . S
C622 C624 1.415 . S
C623 C622 1.355 . S
C623 C625 1.419 . S
C624 C622 1.415 . S
C624 C629 1.425 . S
C624 C631 1.409 . S
C625 H617 0.930 . S
C625 C623 1.419 . S
C625 C626 1.362 1_655 S
C626 H618 0.930 . S
C626 C625 1.362 1_455 S
C626 C629 1.409 1_455 S
C627 H619 0.930 . S
C627 C628 1.355 . S
C627 C629 1.415 1_455 S
C628 C627 1.355 . S
C628 C630 1.419 1_455 S
C629 C624 1.425 . S
C629 C626 1.409 1_655 S
C629 C627 1.415 1_655 S
C630 H620 0.930 1_554 S
C630 C628 1.419 1_655 S
C630 C631 1.362 . S
C631 H621 0.930 . S
C631 C624 1.409 . S
C631 C630 1.362 . S
H632 C638 0.930 . S
H633 C641 0.925 1_545 S
H634 C642 0.930 . S
H635 C643 0.930 . S
H636 C646 0.930 . S
H637 C647 0.930 . S
C638 H632 0.930 . S
C638 C639 1.355 . S
C638 C640 1.415 . S
C639 C638 1.355 . S
C639 C641 1.419 . S
C640 C638 1.415 . S
C640 C645 1.425 1_565 S
C640 C647 1.409 . S
C641 H633 0.925 1_565 S
C641 C639 1.419 . S
C641 C642 1.362 1_565 S
C642 H634 0.930 . S
C642 C641 1.362 1_545 S
C642 C645 1.409 . S
C643 H635 0.930 . S
C643 C644 1.355 . S
C643 C645 1.415 . S
C644 C643 1.355 . S
C644 C646 1.419 1_545 S
C645 C640 1.425 1_545 S
C645 C642 1.409 . S
C645 C643 1.415 . S
C646 H636 0.930 . S
C646 C644 1.419 1_565 S
C646 C647 1.362 . S
C647 H637 0.930 . S
C647 C640 1.409 . S
C647 C646 1.362 . S
H648 C654 0.930 . S
H649 C657 0.930 . S
H650 C658 0.930 . S
H651 C659 0.930 . S
H652 C662 0.930 1_556 S
H653 C663 0.930 1_556 S
C654 H648 0.930 . S
C654 C655 1.355 . S
C654 C656 1.415 . S
C655 C654 1.355 . S
C655 C657 1.419 . S
C656 C654 1.415 . S
C656 C661 1.425 . S
C656 C663 1.409 . S
C657 H649 0.930 . S
C657 C655 1.419 . S
C657 C658 1.362 . S
C658 H650 0.930 . S
C658 C657 1.362 . S
C658 C661 1.409 . S
C659 H651 0.930 . S
C659 C660 1.355 . S
C659 C661 1.415 . S
C660 C659 1.355 . S
C660 C662 1.419 . S
C661 C656 1.425 . S
C661 C658 1.409 . S
C661 C659 1.415 . S
C662 H652 0.930 1_554 S
C662 C660 1.419 . S
C662 C663 1.362 . S
C663 H653 0.930 1_554 S
C663 C656 1.409 . S
C663 C662 1.362 . S
H664 C670 0.930 . S
H665 C673 0.930 . S
H666 C674 0.930 . S
H667 C675 0.930 . S
H668 C678 0.930 . S
H669 C679 0.930 . S
C670 H664 0.930 . S
C670 C671 1.355 . S
C670 C672 1.415 . S
C671 C670 1.355 . S
C671 C673 1.419 . S
C672 C670 1.415 . S
C672 C677 1.425 . S
C672 C679 1.409 . S
C673 H665 0.930 . S
C673 C671 1.419 . S
C673 C674 1.362 . S
C674 H666 0.930 . S
C674 C673 1.362 . S
C674 C677 1.409 . S
C675 H667 0.930 . S
C675 C676 1.355 . S
C675 C677 1.415 . S
C676 C675 1.355 . S
C676 C678 1.419 . S
C677 C672 1.425 . S
C677 C674 1.409 . S
C677 C675 1.415 . S
C678 H668 0.930 . S
C678 C676 1.419 . S
C678 C679 1.362 . S
C679 H669 0.930 . S
C679 C672 1.409 . S
C679 C678 1.362 . S
H680 C686 0.930 . S
H681 C689 0.930 . S
H682 C690 0.930 1_655 S
H683 C691 0.930 . S
H684 C694 0.930 . S
H685 C695 0.930 . S
C686 H680 0.930 . S
C686 C687 1.355 . S
C686 C688 1.415 . S
C687 C686 1.355 . S
C687 C689 1.419 . S
C688 C686 1.415 . S
C688 C693 1.425 . S
C688 C695 1.409 . S
C689 H681 0.930 . S
C689 C687 1.419 . S
C689 C690 1.362 . S
C690 H682 0.930 1_455 S
C690 C689 1.362 . S
C690 C693 1.409 . S
C691 H683 0.930 . S
C691 C692 1.355 . S
C691 C693 1.415 . S
C692 C691 1.355 . S
C692 C694 1.419 . S
C693 C688 1.425 . S
C693 C690 1.409 . S
C693 C691 1.415 . S
C694 H684 0.930 . S
C694 C692 1.419 . S
C694 C695 1.362 . S
C695 H685 0.930 . S
C695 C688 1.409 . S
C695 C694 1.362 . S
H696 C702 0.930 . S
H697 C705 0.930 . S
H698 C706 0.930 . S
H699 C707 0.930 . S
H700 C710 0.930 . S
H701 C711 0.930 . S
C702 H696 0.930 . S
C702 C703 1.355 . S
C702 C704 1.415 . S
C703 C702 1.355 . S
C703 C705 1.419 . S
C704 C702 1.415 . S
C704 C709 1.425 . S
C704 C711 1.409 . S
C705 H697 0.930 . S
C705 C703 1.419 . S
C705 C706 1.362 . S
C706 H698 0.930 . S
C706 C705 1.362 . S
C706 C709 1.409 . S
C707 H699 0.930 . S
C707 C708 1.355 . S
C707 C709 1.415 . S
C708 C707 1.355 . S
C708 C710 1.419 . S
C709 C704 1.425 . S
C709 C706 1.409 . S
C709 C707 1.415 . S
C710 H700 0.930 . S
C710 C708 1.419 . S
C710 C711 1.362 . S
C711 H701 0.930 . S
C711 C704 1.409 . S
C711 C710 1.362 . S
H712 C718 0.930 . S
H713 C721 0.930 . S
H714 C722 0.930 . S
H715 C723 0.930 . S
H716 C726 0.930 . S
H717 C727 0.930 1_554 S
C718 H712 0.930 . S
C718 C719 1.355 . S
C718 C720 1.415 . S
C719 C718 1.355 . S
C719 C721 1.419 . S
C720 C718 1.415 . S
C720 C725 1.425 . S
C720 C727 1.409 . S
C721 H713 0.930 . S
C721 C719 1.419 . S
C721 C722 1.362 . S
C722 H714 0.930 . S
C722 C721 1.362 . S
C722 C725 1.409 . S
C723 H715 0.930 . S
C723 C724 1.355 . S
C723 C725 1.415 . S
C724 C723 1.355 . S
C724 C726 1.419 . S
C725 C720 1.425 . S
C725 C722 1.409 . S
C725 C723 1.415 . S
C726 H716 0.930 . S
C726 C724 1.419 . S
C726 C727 1.362 . S
C727 H717 0.930 1_556 S
C727 C720 1.409 . S
C727 C726 1.362 . S
H728 C734 0.930 . S
H729 C737 0.930 . S
H730 C738 0.930 . S
H731 C739 0.930 . S
H732 C742 0.930 . S
H733 C743 0.930 . S
C734 H728 0.930 . S
C734 C735 1.355 . S
C734 C736 1.415 . S
C735 C734 1.355 . S
C735 C737 1.419 . S
C736 C734 1.415 . S
C736 C741 1.425 . S
C736 C743 1.409 . S
C737 H729 0.930 . S
C737 C735 1.419 . S
C737 C738 1.362 . S
C738 H730 0.930 . S
C738 C737 1.362 . S
C738 C741 1.409 . S
C739 H731 0.930 . S
C739 C740 1.355 . S
C739 C741 1.415 . S
C740 C739 1.355 . S
C740 C742 1.419 . S
C741 C736 1.425 . S
C741 C738 1.409 . S
C741 C739 1.415 . S
C742 H732 0.930 . S
C742 C740 1.419 . S
C742 C743 1.362 . S
C743 H733 0.930 . S
C743 C736 1.409 . S
C743 C742 1.362 . S
H744 C750 0.923 1_455 S
H745 C753 0.930 . S
H746 C754 0.930 . S
H747 C755 0.930 . S
H748 C758 0.930 . S
H749 C759 0.930 . S
C750 H744 0.923 1_655 S
C750 C751 1.355 . S
C750 C752 1.415 . S
C751 C750 1.355 . S
C751 C753 1.419 . S
C752 C750 1.415 . S
C752 C757 1.425 . S
C752 C759 1.409 1_655 S
C753 H745 0.930 . S
C753 C751 1.419 . S
C753 C754 1.362 . S
C754 H746 0.930 . S
C754 C753 1.362 . S
C754 C757 1.409 . S
C755 H747 0.930 . S
C755 C756 1.355 . S
C755 C757 1.415 . S
C756 C755 1.355 . S
C756 C758 1.419 1_655 S
C757 C752 1.425 . S
C757 C754 1.409 . S
C757 C755 1.415 . S
C758 H748 0.930 . S
C758 C756 1.419 1_455 S
C758 C759 1.362 . S
C759 H749 0.930 . S
C759 C752 1.409 1_455 S
C759 C758 1.362 . S
H760 C766 0.930 . S
H761 C769 0.931 1_545 S
H762 C770 0.930 . S
H763 C771 0.929 1_545 S
H764 C774 0.930 . S
H765 C775 0.930 . S
C766 H760 0.930 . S
C766 C767 1.355 . S
C766 C768 1.415 . S
C767 C766 1.355 . S
C767 C769 1.418 . S
C768 C766 1.415 . S
C768 C773 1.425 . S
C768 C775 1.409 . S
C769 H761 0.931 1_565 S
C769 C767 1.418 . S
C769 C770 1.363 1_565 S
C770 H762 0.930 . S
C770 C769 1.363 1_545 S
C770 C773 1.409 1_545 S
C771 H763 0.929 1_565 S
C771 C772 1.355 . S
C771 C773 1.415 . S
C772 C771 1.355 . S
C772 C774 1.419 . S
C773 C768 1.425 . S
C773 C770 1.409 1_565 S
C773 C771 1.415 . S
C774 H764 0.930 . S
C774 C772 1.419 . S
C774 C775 1.362 . S
C775 H765 0.930 . S
C775 C768 1.409 . S
C775 C774 1.362 . S
H776 C782 0.930 . S
H777 C785 0.930 . S
H778 C786 0.930 . S
H779 C787 0.930 . S
H780 C790 0.930 . S
H781 C791 0.930 . S
C782 H776 0.930 . S
C782 C783 1.355 . S
C782 C784 1.415 . S
C783 C782 1.355 . S
C783 C785 1.419 . S
C784 C782 1.415 . S
C784 C789 1.425 . S
C784 C791 1.409 . S
C785 H777 0.930 . S
C785 C783 1.419 . S
C785 C786 1.362 . S
C786 H778 0.930 . S
C786 C785 1.362 . S
C786 C789 1.409 . S
C787 H779 0.930 . S
C787 C788 1.355 . S
C787 C789 1.415 . S
C788 C787 1.355 . S
C788 C790 1.419 . S
C789 C784 1.425 . S
C789 C786 1.409 . S
C789 C787 1.415 . S
C790 H780 0.930 . S
C790 C788 1.419 . S
C790 C791 1.362 . S
C791 H781 0.930 . S
C791 C784 1.409 . S
C791 C790 1.362 . S
H792 C798 0.930 . S
H793 C801 0.930 . S
H794 C802 0.930 . S
H795 C803 0.930 . S
H796 C806 0.930 . S
H797 C807 0.930 . S
C798 H792 0.930 . S
C798 C799 1.355 . S
C798 C800 1.415 . S
C799 C798 1.355 . S
C799 C801 1.419 . S
C800 C798 1.415 . S
C800 C805 1.425 . S
C800 C807 1.409 . S
C801 H793 0.930 . S
C801 C799 1.419 . S
C801 C802 1.362 . S
C802 H794 0.930 . S
C802 C801 1.362 . S
C802 C805 1.409 . S
C803 H795 0.930 . S
C803 C804 1.355 . S
C803 C805 1.415 . S
C804 C803 1.355 . S
C804 C806 1.419 . S
C805 C800 1.425 . S
C805 C802 1.409 . S
C805 C803 1.415 . S
C806 H796 0.930 . S
C806 C804 1.419 . S
C806 C807 1.362 . S
C807 H797 0.930 . S
C807 C800 1.409 . S
C807 C806 1.362 . S
C431 C76 1.919 . S
C436 C163 2.017 . S
C452 C247 2.008 . S
C447 C87 1.879 . S
C468 C323 1.948 . S
C463 C54 1.993 . S
C484 C407 1.968 . S
C479 C65 2.008 . S
C500 C154 1.992 1_565 S
C495 C32 1.934 . S
C511 C43 1.892 . S
C516 C238 1.970 . S
C527 C10 2.030 . S
C532 C312 1.984 . S
C543 C21 1.943 . S
C548 C396 1.889 . S
C564 C151 0.774 1_455 S
C559 C60 0.663 . S
C580 C235 0.677 1_545 S
C575 C71 0.794 . S
C596 C328 0.683 . S
C591 C82 0.729 . S
C607 C49 0.737 . S
C612 C412 0.685 . S
C623 C16 0.681 . S
C628 C160 0.796 . S
C644 C244 0.753 . S
C639 C27 0.709 . S
C660 C319 0.741 . S
C655 C38 0.601 . S
C671 C5 0.781 . S
C676 C403 0.657 . S
C687 C59 2.030 . S
C692 C144 2.138 . S
C703 C70 1.977 . S
C708 C228 2.087 . S
C724 C322 2.136 . S
C719 C81 1.972 . S
C740 C406 2.163 . S
C735 C48 1.997 . S
C751 C15 2.059 . S
C756 C155 2.110 . S
C772 C239 2.096 . S
C767 C26 1.971 . S
C788 C331 2.149 . S
C783 C37 1.875 . S
C799 C4 1.941 . S
C804 C415 2.188 . S
