# Generated by pormake.
# Topology dag, (6,3)-cn, num edge types: 1
# Building blocks:
#     Node 0, Type 0, BuildingBlock: MIDCAF_clean_sbu_0, # of connection points: 6
#     Node 1, Type 0, BuildingBlock: MIDCAF_clean_sbu_0, # of connection points: 6
#     Node 2, Type 0, BuildingBlock: MIDCAF_clean_sbu_0, # of connection points: 6
#     Node 3, Type 0, BuildingBlock: MIDCAF_clean_sbu_0, # of connection points: 6
#     Node 4, Type 1, BuildingBlock: MIDCAF_clean_linker_0, # of connection points: 3
#     Node 5, Type 1, BuildingBlock: MIDCAF_clean_linker_0, # of connection points: 3
#     Node 6, Type 1, BuildingBlock: MIDCAF_clean_linker_0, # of connection points: 3
#     Node 7, Type 1, BuildingBlock: MIDCAF_clean_linker_0, # of connection points: 3
#     Node 8, Type 1, BuildingBlock: MIDCAF_clean_linker_0, # of connection points: 3
#     Node 9, Type 1, BuildingBlock: MIDCAF_clean_linker_0, # of connection points: 3
#     Node 10, Type 1, BuildingBlock: MIDCAF_clean_linker_0, # of connection points: 3
#     Node 11, Type 1, BuildingBlock: MIDCAF_clean_linker_0, # of connection points: 3
#     Edge 12, Type (0, 1), BuildingBlock: MIFKUJ_clean_linker_0, # of connection points: 2
#     Edge 13, Type (0, 1), BuildingBlock: MIFKUJ_clean_linker_0, # of connection points: 2
#     Edge 14, Type (0, 1), BuildingBlock: MIFKUJ_clean_linker_0, # of connection points: 2
#     Edge 15, Type (0, 1), BuildingBlock: MIFKUJ_clean_linker_0, # of connection points: 2
#     Edge 16, Type (0, 1), BuildingBlock: MIFKUJ_clean_linker_0, # of connection points: 2
#     Edge 17, Type (0, 1), BuildingBlock: MIFKUJ_clean_linker_0, # of connection points: 2
#     Edge 18, Type (0, 1), BuildingBlock: MIFKUJ_clean_linker_0, # of connection points: 2
#     Edge 19, Type (0, 1), BuildingBlock: MIFKUJ_clean_linker_0, # of connection points: 2
#     Edge 20, Type (0, 1), BuildingBlock: MIFKUJ_clean_linker_0, # of connection points: 2
#     Edge 21, Type (0, 1), BuildingBlock: MIFKUJ_clean_linker_0, # of connection points: 2
#     Edge 22, Type (0, 1), BuildingBlock: MIFKUJ_clean_linker_0, # of connection points: 2
#     Edge 23, Type (0, 1), BuildingBlock: MIFKUJ_clean_linker_0, # of connection points: 2
#     Edge 24, Type (0, 1), BuildingBlock: MIFKUJ_clean_linker_0, # of connection points: 2
#     Edge 25, Type (0, 1), BuildingBlock: MIFKUJ_clean_linker_0, # of connection points: 2
#     Edge 26, Type (0, 1), BuildingBlock: MIFKUJ_clean_linker_0, # of connection points: 2
#     Edge 27, Type (0, 1), BuildingBlock: MIFKUJ_clean_linker_0, # of connection points: 2
#     Edge 28, Type (0, 1), BuildingBlock: MIFKUJ_clean_linker_0, # of connection points: 2
#     Edge 29, Type (0, 1), BuildingBlock: MIFKUJ_clean_linker_0, # of connection points: 2
#     Edge 30, Type (0, 1), BuildingBlock: MIFKUJ_clean_linker_0, # of connection points: 2
#     Edge 31, Type (0, 1), BuildingBlock: MIFKUJ_clean_linker_0, # of connection points: 2
#     Edge 32, Type (0, 1), BuildingBlock: MIFKUJ_clean_linker_0, # of connection points: 2
#     Edge 33, Type (0, 1), BuildingBlock: MIFKUJ_clean_linker_0, # of connection points: 2
#     Edge 34, Type (0, 1), BuildingBlock: MIFKUJ_clean_linker_0, # of connection points: 2
#     Edge 35, Type (0, 1), BuildingBlock: MIFKUJ_clean_linker_0, # of connection points: 2
# Relax obj value: 0.310
# Max RMSD: 0.192
# Mean RMSD: 0.181
data_MOF--net-dag--node1-MIDCAF_clean_sbu_0--node2-MIDCAF_clean_linker_0--edge1-MIFKUJ_clean_linker_0
_symmetry_space_group_name_H-M    P1
_symmetry_Int_Tables_number       1
_symmetry_cell_setting            triclinic
loop_
_symmetry_equiv_pos_as_xyz
'x, y, z'
_cell_length_a     59.811503
_cell_length_b     61.158428
_cell_length_c     45.679071
_cell_angle_alpha  85.811619
_cell_angle_beta   90.122993
_cell_angle_gamma 89.878009
loop_
_atom_site_label
_atom_site_type_symbol
_atom_site_fract_x
_atom_site_fract_y
_atom_site_fract_z
_atom_type_partial_charge
Zn0 Zn 0.19947 0.83752 0.04803 0.0
Zn1 Zn 0.14493 0.84866 0.96116 0.0
Zn2 Zn 0.17065 0.84154 0.00408 0.0
C3 C 0.15758 0.88918 0.9717 0.0
C4 C 0.11983 0.82503 0.0022 0.0
O5 O 0.19531 0.81556 0.99468 0.0
O6 O 0.21716 0.81331 0.03401 0.0
C7 C 0.20276 0.88023 0.02717 0.0
O8 O 0.17138 0.87696 0.98738 0.0
O9 O 0.14086 0.88069 0.96014 0.0
O10 O 0.12003 0.8297 0.97488 0.0
O11 O 0.13664 0.82995 0.01817 0.0
O12 O 0.21308 0.86681 0.04459 0.0
O13 O 0.18636 0.87376 0.01152 0.0
O14 O 0.15079 0.83073 0.04312 0.0
O15 O 0.17607 0.83142 0.07856 0.0
C16 C 0.15611 0.8286 0.07057 0.0
O17 O 0.18322 0.82164 0.96903 0.0
O18 O 0.1649 0.83748 0.93111 0.0
C19 C 0.21192 0.80682 0.00934 0.0
C20 C 0.17966 0.82419 0.94115 0.0
Zn21 Zn 0.64473 0.61775 0.55076 0.0
Zn22 Zn 0.61627 0.67094 0.65228 0.0
Zn23 Zn 0.6383 0.64427 0.58183 0.0
C24 C 0.61755 0.6224 0.64726 0.0
C25 C 0.60859 0.67905 0.58163 0.0
O26 O 0.67122 0.65395 0.56411 0.0
O27 O 0.66368 0.63894 0.52296 0.0
C28 C 0.67635 0.61344 0.5921 0.0
O29 O 0.62571 0.6259 0.62125 0.0
O30 O 0.61265 0.63804 0.66342 0.0
O31 O 0.61533 0.67265 0.60718 0.0
O32 O 0.61618 0.66836 0.56089 0.0
O33 O 0.66072 0.6009 0.58497 0.0
O34 O 0.67349 0.63419 0.58714 0.0
O35 O 0.6143 0.64754 0.54464 0.0
O36 O 0.61353 0.61241 0.53747 0.0
C37 C 0.60521 0.63137 0.53268 0.0
O38 O 0.66821 0.66236 0.59354 0.0
O39 O 0.64037 0.66844 0.62151 0.0
C40 C 0.6748 0.65277 0.53634 0.0
C41 C 0.66096 0.67121 0.61621 0.0
Zn42 Zn 0.81661 0.17903 0.99388 0.0
Zn43 Zn 0.87178 0.15365 0.12147 0.0
Zn44 Zn 0.85039 0.16605 0.07374 0.0
C45 C 0.90418 0.17129 0.08439 0.0
C46 C 0.84904 0.11729 0.09847 0.0
O47 O 0.82609 0.19146 0.08125 0.0
O48 O 0.82401 0.18574 0.03557 0.0
C49 C 0.86609 0.18357 0.01795 0.0
O50 O 0.88649 0.17407 0.06837 0.0
O51 O 0.90289 0.1618 0.10981 0.0
O52 O 0.86207 0.12278 0.11848 0.0
O53 O 0.842 0.13154 0.07856 0.0
O54 O 0.84506 0.18151 0.01765 0.0
O55 O 0.87533 0.17907 0.04278 0.0
O56 O 0.83246 0.14007 0.04806 0.0
O57 O 0.81294 0.14628 0.00505 0.0
C58 C 0.82044 0.13347 0.02644 0.0
O59 O 0.8349 0.18466 0.10839 0.0
O60 O 0.85491 0.17309 0.14725 0.0
C61 C 0.8163 0.19561 0.05673 0.0
C62 C 0.83939 0.18501 0.13595 0.0
Zn63 Zn 0.32301 0.34266 0.57128 0.0
Zn64 Zn 0.35929 0.35506 0.4804 0.0
Zn65 Zn 0.34292 0.34205 0.52359 0.0
C66 C 0.39327 0.34178 0.51422 0.0
C67 C 0.31574 0.36836 0.47933 0.0
O68 O 0.31049 0.32678 0.51425 0.0
O69 O 0.29415 0.33026 0.55716 0.0
C70 C 0.36076 0.31311 0.57677 0.0
O71 O 0.37718 0.32894 0.52272 0.0
O72 O 0.38864 0.3596 0.49965 0.0
O73 O 0.3345 0.3777 0.47548 0.0
O74 O 0.31524 0.34892 0.49216 0.0
O75 O 0.34496 0.32115 0.59097 0.0
O76 O 0.36355 0.31896 0.54954 0.0
O77 O 0.34492 0.37578 0.53142 0.0
O78 O 0.32664 0.37554 0.57304 0.0
C79 C 0.33694 0.38603 0.55229 0.0
O80 O 0.32521 0.32573 0.48863 0.0
O81 O 0.3545 0.3265 0.45965 0.0
C82 C 0.2936 0.32368 0.53155 0.0
C83 C 0.33558 0.31844 0.46653 0.0
C84 C 0.14143 0.20147 0.05647 0.0
C85 C 0.12909 0.21733 0.07033 0.0
C86 C 0.13903 0.2275 0.09377 0.0
C87 C 0.16021 0.22099 0.10421 0.0
H88 H 0.19676 0.21628 0.18231 0.0
H89 H 0.21033 0.22838 0.22889 0.0
H90 H 0.27409 0.1977 0.21506 0.0
H91 H 0.26052 0.18527 0.16851 0.0
H92 H 0.24536 0.13474 0.13562 0.0
H93 H 0.25296 0.09823 0.11956 0.0
H94 H 0.22214 0.11674 0.03582 0.0
H95 H 0.21465 0.15319 0.05164 0.0
H96 H 0.17115 0.18221 0.05609 0.0
H97 H 0.1343 0.19307 0.03861 0.0
H98 H 0.13016 0.24006 0.10463 0.0
H99 H 0.16699 0.22858 0.12299 0.0
N100 N 0.20111 0.20215 0.13004 0.0
N101 N 0.22878 0.17473 0.13171 0.0
N102 N 0.20275 0.17752 0.09323 0.0
C103 C 0.2192 0.19227 0.14351 0.0
C104 C 0.22064 0.16732 0.10644 0.0
C105 C 0.19287 0.19493 0.10473 0.0
C106 C 0.22757 0.19983 0.17163 0.0
C107 C 0.21369 0.2121 0.18913 0.0
C108 C 0.22137 0.2189 0.21592 0.0
C109 C 0.24321 0.2139 0.22558 0.0
C110 C 0.25719 0.20181 0.20805 0.0
C111 C 0.24938 0.19466 0.18148 0.0
C112 C 0.22911 0.14679 0.09508 0.0
C113 C 0.24067 0.13121 0.11355 0.0
C114 C 0.2449 0.11025 0.10443 0.0
C115 C 0.23789 0.10457 0.07658 0.0
C116 C 0.22781 0.12065 0.05736 0.0
C117 C 0.2234 0.1415 0.06654 0.0
C118 C 0.17196 0.20421 0.09136 0.0
C119 C 0.1626 0.19507 0.06676 0.0
C120 C 0.32697 0.63261 0.54569 0.0
C121 C 0.31119 0.61824 0.55928 0.0
C122 C 0.29556 0.6266 0.57857 0.0
C123 C 0.29632 0.64857 0.58511 0.0
H124 H 0.27744 0.68863 0.64992 0.0
H125 H 0.26068 0.69897 0.69555 0.0
H126 H 0.29676 0.76021 0.68773 0.0
H127 H 0.31314 0.75023 0.642 0.0
H128 H 0.34797 0.75997 0.59181 0.0
H129 H 0.3831 0.77812 0.57832 0.0
H130 H 0.39894 0.72616 0.52248 0.0
H131 H 0.3638 0.70856 0.53499 0.0
H132 H 0.34049 0.66493 0.54176 0.0
H133 H 0.33946 0.62673 0.53102 0.0
H134 H 0.2829 0.61608 0.589 0.0
H135 H 0.28438 0.65431 0.60062 0.0
N136 N 0.30387 0.69198 0.60509 0.0
N137 N 0.3231 0.72546 0.60125 0.0
N138 N 0.33048 0.69899 0.56805 0.0
C139 C 0.30769 0.71206 0.61505 0.0
C140 C 0.33449 0.7191 0.57762 0.0
C141 C 0.31516 0.68536 0.58148 0.0
C142 C 0.29664 0.71859 0.64214 0.0
C143 C 0.28172 0.70437 0.65781 0.0
C144 C 0.27224 0.71019 0.68412 0.0
C145 C 0.27742 0.73039 0.69531 0.0
C146 C 0.2922 0.74465 0.67955 0.0
C147 C 0.30166 0.73885 0.6533 0.0
C148 C 0.35326 0.7325 0.56506 0.0
C149 C 0.35869 0.75272 0.57605 0.0
C150 C 0.37885 0.76314 0.56835 0.0
C151 C 0.39403 0.75349 0.54964 0.0
C152 C 0.38764 0.73429 0.53669 0.0
C153 C 0.36747 0.72398 0.54419 0.0
C154 C 0.31266 0.66272 0.57234 0.0
C155 C 0.32764 0.65458 0.55204 0.0
C156 C 0.83676 0.81028 0.39143 0.0
C157 C 0.84308 0.78809 0.39359 0.0
C158 C 0.86274 0.78181 0.37968 0.0
C159 C 0.87589 0.79747 0.36397 0.0
H160 H 0.93246 0.80638 0.30889 0.0
H161 H 0.96673 0.79833 0.2825 0.0
H162 H 0.98505 0.86668 0.27953 0.0
H163 H 0.95079 0.87483 0.30554 0.0
H164 H 0.90693 0.91117 0.31131 0.0
H165 H 0.89235 0.94369 0.28376 0.0
H166 H 0.829 0.91102 0.27395 0.0
H167 H 0.84332 0.87898 0.30304 0.0
H168 H 0.84428 0.84282 0.37419 0.0
H169 H 0.82152 0.81553 0.40165 0.0
H170 H 0.86802 0.7648 0.38111 0.0
H171 H 0.89095 0.79211 0.35345 0.0
N172 N 0.90417 0.83152 0.3361 0.0
N173 N 0.90771 0.86685 0.31306 0.0
N174 N 0.87414 0.85633 0.3363 0.0
C175 C 0.91666 0.84682 0.32055 0.0
C176 C 0.88647 0.87169 0.32071 0.0
C177 C 0.88301 0.8363 0.34446 0.0
C178 C 0.93887 0.84127 0.30906 0.0
C179 C 0.94403 0.8196 0.30314 0.0
C180 C 0.96353 0.815 0.28791 0.0
C181 C 0.9784 0.83191 0.27889 0.0
C182 C 0.97391 0.85333 0.28638 0.0
C183 C 0.95425 0.858 0.30113 0.0
C184 C 0.87633 0.89252 0.30898 0.0
C185 C 0.88973 0.91118 0.30381 0.0
C186 C 0.8814 0.92972 0.28779 0.0
C187 C 0.85968 0.9298 0.27587 0.0
C188 C 0.84577 0.91163 0.28281 0.0
C189 C 0.85398 0.89321 0.29944 0.0
C190 C 0.86944 0.81967 0.36156 0.0
C191 C 0.84973 0.82588 0.3755 0.0
C192 C 0.62264 0.32596 0.95307 0.0
C193 C 0.61855 0.30549 0.96808 0.0
C194 C 0.59963 0.29354 0.9604 0.0
C195 C 0.58602 0.30116 0.93689 0.0
H196 H 0.55917 0.29695 0.80679 0.0
H197 H 0.52993 0.27893 0.77981 0.0
H198 H 0.48244 0.29144 0.84767 0.0
H199 H 0.51206 0.30892 0.87515 0.0
H200 H 0.55754 0.36695 0.79727 0.0
H201 H 0.56707 0.40048 0.76838 0.0
H202 H 0.61644 0.41538 0.83312 0.0
H203 H 0.60659 0.38192 0.86257 0.0
H204 H 0.61334 0.34901 0.91778 0.0
H205 H 0.6372 0.33549 0.95819 0.0
H206 H 0.59584 0.27785 0.97183 0.0
H207 H 0.57214 0.29108 0.93083 0.0
N208 N 0.56338 0.31377 0.88215 0.0
N209 N 0.55989 0.3374 0.83954 0.0
N210 N 0.58464 0.34608 0.87666 0.0
C211 C 0.55393 0.31878 0.85546 0.0
C212 C 0.57508 0.35128 0.85005 0.0
C213 C 0.57893 0.32736 0.89286 0.0
C214 C 0.53772 0.30411 0.84295 0.0
C215 C 0.54266 0.29509 0.81637 0.0
C216 C 0.526 0.28473 0.80106 0.0
C217 C 0.50402 0.28378 0.81177 0.0
C218 C 0.49934 0.29187 0.83915 0.0
C219 C 0.51619 0.30178 0.85482 0.0
C220 C 0.58127 0.37167 0.83235 0.0
C221 C 0.57048 0.37728 0.80544 0.0
C222 C 0.57605 0.39648 0.78869 0.0
C223 C 0.5926 0.41056 0.79835 0.0
C224 C 0.60347 0.40497 0.8252 0.0
C225 C 0.59787 0.38573 0.84202 0.0
C226 C 0.59103 0.32093 0.92056 0.0
C227 C 0.60902 0.33362 0.92964 0.0
C228 C 0.63749 0.35217 0.49564 0.0
C229 C 0.62641 0.33482 0.48328 0.0
C230 C 0.63735 0.32353 0.46175 0.0
C231 C 0.65857 0.33014 0.4518 0.0
H232 H 0.6987 0.32744 0.38101 0.0
H233 H 0.71349 0.31081 0.33858 0.0
H234 H 0.77451 0.34781 0.34491 0.0
H235 H 0.75978 0.36446 0.38804 0.0
H236 H 0.75827 0.40562 0.43418 0.0
H237 H 0.77347 0.43785 0.45615 0.0
H238 H 0.72097 0.43317 0.52114 0.0
H239 H 0.70643 0.40114 0.50021 0.0
H240 H 0.66649 0.37243 0.49551 0.0
H241 H 0.62952 0.36101 0.5125 0.0
H242 H 0.62911 0.3102 0.45171 0.0
H243 H 0.66627 0.3215 0.43456 0.0
N244 N 0.69982 0.34823 0.42702 0.0
N245 N 0.72949 0.37339 0.42741 0.0
N246 N 0.70144 0.37317 0.46328 0.0
C247 C 0.71906 0.35653 0.41495 0.0
C248 C 0.72068 0.38178 0.45173 0.0
C249 C 0.69092 0.35642 0.4512 0.0
C250 C 0.72809 0.34725 0.3882 0.0
C251 C 0.71526 0.33219 0.37345 0.0
C252 C 0.72365 0.32276 0.34883 0.0
C253 C 0.74513 0.32804 0.33824 0.0
C254 C 0.75793 0.34331 0.35265 0.0
C255 C 0.74945 0.3529 0.37731 0.0
C256 C 0.73107 0.4007 0.4653 0.0
C257 C 0.75018 0.41137 0.45337 0.0
C258 C 0.75884 0.4299 0.46589 0.0
C259 C 0.74861 0.43807 0.49063 0.0
C260 C 0.72972 0.42715 0.50262 0.0
C261 C 0.72118 0.40876 0.49028 0.0
C262 C 0.66932 0.34807 0.46337 0.0
C263 C 0.65872 0.35867 0.48589 0.0
C264 C 0.13873 0.17334 0.64148 0.0
C265 C 0.12581 0.18721 0.62218 0.0
C266 C 0.10277 0.18917 0.62773 0.0
C267 C 0.09305 0.17789 0.65228 0.0
H268 H 0.04192 0.185 0.71868 0.0
H269 H 0.0083 0.19684 0.74379 0.0
H270 H 0.00945 0.13657 0.79942 0.0
H271 H 0.04207 0.12458 0.77411 0.0
H272 H 0.08141 0.09011 0.76899 0.0
H273 H 0.10127 0.06225 0.7998 0.0
H274 H 0.16424 0.09243 0.7749 0.0
H275 H 0.14429 0.12039 0.74337 0.0
H276 H 0.13965 0.15169 0.68027 0.0
H277 H 0.1566 0.17179 0.63846 0.0
H278 H 0.09223 0.1995 0.61321 0.0
H279 H 0.07531 0.17989 0.65601 0.0
N280 N 0.07554 0.1582 0.70787 0.0
N281 N 0.07831 0.13079 0.74631 0.0
N282 N 0.10779 0.1361 0.71303 0.0
C283 C 0.06656 0.14734 0.73211 0.0
C284 C 0.09885 0.12509 0.73705 0.0
C285 C 0.09613 0.15251 0.69807 0.0
C286 C 0.04485 0.15391 0.74448 0.0
C287 C 0.03469 0.17416 0.73591 0.0
C288 C 0.01554 0.18101 0.75045 0.0
C289 C 0.00613 0.16769 0.77367 0.0
C290 C 0.0159 0.14715 0.78136 0.0
C291 C 0.03488 0.14035 0.76694 0.0
C292 C 0.11131 0.10742 0.7538 0.0
C293 C 0.0995 0.09074 0.76983 0.0
C294 C 0.11085 0.07473 0.78736 0.0
C295 C 0.13424 0.07524 0.78966 0.0
C296 C 0.14617 0.09177 0.77348 0.0
C297 C 0.13479 0.10762 0.75537 0.0
C298 C 0.10611 0.16425 0.67168 0.0
C299 C 0.129 0.16193 0.66575 0.0
C300 C 0.34491 0.65278 0.16339 0.0
C301 C 0.33229 0.64209 0.14264 0.0
C302 C 0.32937 0.61929 0.14689 0.0
C303 C 0.33776 0.60766 0.17195 0.0
H304 H 0.31537 0.55695 0.22855 0.0
H305 H 0.29512 0.52375 0.24561 0.0
H306 H 0.33899 0.51556 0.32087 0.0
H307 H 0.35936 0.54822 0.30383 0.0
H308 H 0.40326 0.5766 0.30355 0.0
H309 H 0.4328 0.58781 0.33573 0.0
H310 H 0.42643 0.6546 0.29909 0.0
H311 H 0.3966 0.64334 0.26631 0.0
H312 H 0.36257 0.64984 0.20445 0.0
H313 H 0.34734 0.67036 0.16097 0.0
H314 H 0.32024 0.61042 0.13106 0.0
H315 H 0.33471 0.59018 0.17473 0.0
N316 N 0.34567 0.58722 0.22966 0.0
N317 N 0.36809 0.58297 0.27163 0.0
N318 N 0.37304 0.61358 0.23819 0.0
C319 C 0.35131 0.57559 0.25499 0.0
C320 C 0.37907 0.60185 0.26351 0.0
C321 C 0.35643 0.60615 0.22102 0.0
C322 C 0.33909 0.55527 0.26475 0.0
C323 C 0.32077 0.54799 0.24866 0.0
C324 C 0.30908 0.52904 0.25847 0.0
C325 C 0.31556 0.51694 0.28443 0.0
C326 C 0.33383 0.52426 0.30045 0.0
C327 C 0.34545 0.54313 0.29074 0.0
C328 C 0.39752 0.60908 0.2823 0.0
C329 C 0.40809 0.5937 0.30219 0.0
C330 C 0.42514 0.60008 0.32057 0.0
C331 C 0.43196 0.62205 0.31985 0.0
C332 C 0.42141 0.63756 0.30013 0.0
C333 C 0.40447 0.63108 0.28128 0.0
C334 C 0.34955 0.61845 0.1933 0.0
C335 C 0.35356 0.64105 0.18841 0.0
C336 C 0.81112 0.89304 0.98021 0.0
C337 C 0.80255 0.9087 0.95908 0.0
C338 C 0.79548 0.90174 0.93185 0.0
C339 C 0.79803 0.87978 0.92544 0.0
H340 H 0.78891 0.83265 0.86014 0.0
H341 H 0.77183 0.81527 0.8189 0.0
H342 H 0.79065 0.75162 0.85831 0.0
H343 H 0.80798 0.76881 0.89919 0.0
H344 H 0.86708 0.7827 0.92681 0.0
H345 H 0.902 0.77087 0.95038 0.0
H346 H 0.88196 0.80086 0.02912 0.0
H347 H 0.84762 0.8137 0.00478 0.0
H348 H 0.82094 0.85983 0.99049 0.0
H349 H 0.81619 0.89771 0.00166 0.0
H350 H 0.78886 0.91342 0.91506 0.0
H351 H 0.79326 0.87507 0.9039 0.0
N352 N 0.80407 0.83284 0.91508 0.0
N353 N 0.8264 0.80133 0.92428 0.0
N354 N 0.82919 0.83039 0.95468 0.0
C355 C 0.8103 0.8124 0.90806 0.0
C356 C 0.83587 0.81026 0.94765 0.0
C357 C 0.81341 0.84185 0.9386 0.0
C358 C 0.79982 0.80213 0.88297 0.0
C359 C 0.78941 0.81495 0.85999 0.0
C360 C 0.77976 0.80504 0.83631 0.0
C361 C 0.77993 0.78212 0.83547 0.0
C362 C 0.7902 0.76932 0.85849 0.0
C363 C 0.8002 0.77921 0.88183 0.0
C364 C 0.85478 0.79939 0.9638 0.0
C365 C 0.86996 0.78637 0.94935 0.0
C366 C 0.88999 0.77949 0.963 0.0
C367 C 0.89508 0.78514 0.99163 0.0
C368 C 0.87897 0.79671 0.00681 0.0
C369 C 0.85918 0.80395 0.99294 0.0
C370 C 0.80777 0.86442 0.94611 0.0
C371 C 0.81375 0.87125 0.9738 0.0
H372 H 0.24495 0.89631 0.02816 0.0
H373 H 0.25622 0.93462 0.03106 0.0
H374 H 0.18689 0.95434 0.0277 0.0
H375 H 0.17561 0.91605 0.02518 0.0
H376 H 0.21407 0.98218 0.99351 0.0
H377 H 0.21374 0.94653 0.09247 0.0
H378 H 0.22623 0.91842 0.1305 0.0
H379 H 0.2942 0.93963 0.11838 0.0
H380 H 0.28211 0.96771 0.07998 0.0
H381 H 0.22563 0.06832 0.11055 0.0
H382 H 0.22368 0.03064 0.09687 0.0
H383 H 0.25001 0.0507 0.01117 0.0
H384 H 0.25145 0.08877 0.02468 0.0
H385 H 0.2517 0.00221 0.08434 0.0
H386 H 0.22852 0.01524 0.95954 0.0
H387 H 0.20632 0.03971 0.92535 0.0
H388 H 0.16944 0.06256 0.99769 0.0
H389 H 0.19111 0.03796 0.03225 0.0
C390 C 0.23218 0.90892 0.02769 0.0
C391 C 0.20944 0.9034 0.02594 0.0
C392 C 0.23863 0.93072 0.02935 0.0
C393 C 0.2224 0.94727 0.02966 0.0
C394 C 0.19969 0.94182 0.02724 0.0
C395 C 0.19325 0.92 0.02569 0.0
C396 C 0.22872 0.97015 0.0343 0.0
C397 C 0.22187 0.98675 0.01353 0.0
C398 C 0.23981 0.97579 0.06001 0.0
C399 C 0.24706 0.95902 0.08315 0.0
C400 C 0.23137 0.94508 0.09777 0.0
C401 C 0.23837 0.92918 0.11941 0.0
C402 C 0.261 0.92719 0.12678 0.0
C403 C 0.27668 0.94116 0.11259 0.0
C404 C 0.26976 0.95707 0.0909 0.0
C405 C 0.23132 0.06468 0.08893 0.0
C406 C 0.23881 0.08147 0.06874 0.0
C407 C 0.23012 0.04311 0.08106 0.0
C408 C 0.23653 0.03777 0.05289 0.0
C409 C 0.24458 0.05444 0.03286 0.0
C410 C 0.24552 0.07615 0.04063 0.0
C411 C 0.23463 0.01471 0.04488 0.0
C412 C 0.24318 0.99796 0.06455 0.0
C413 C 0.22371 0.00895 0.01894 0.0
C414 C 0.21188 0.02514 0.99858 0.0
C415 C 0.21586 0.02568 0.96819 0.0
C416 C 0.20328 0.03949 0.94872 0.0
C417 C 0.18661 0.05282 0.95936 0.0
C418 C 0.18251 0.05239 0.9895 0.0
C419 C 0.19501 0.03857 0.00906 0.0
H420 H 0.17678 0.06337 0.94423 0.0
H421 H 0.26639 0.91488 0.14355 0.0
H422 H 0.59263 0.69745 0.52933 0.0
H423 H 0.55928 0.72044 0.52172 0.0
H424 H 0.55163 0.72184 0.61549 0.0
H425 H 0.5844 0.69826 0.6232 0.0
H426 H 0.51479 0.70802 0.59095 0.0
H427 H 0.56514 0.76824 0.57137 0.0
H428 H 0.59675 0.78795 0.54712 0.0
H429 H 0.5643 0.78542 0.4635 0.0
H430 H 0.53262 0.76541 0.48719 0.0
H431 H 0.41998 0.76758 0.59371 0.0
H432 H 0.46054 0.76706 0.59552 0.0
H433 H 0.46298 0.7537 0.50425 0.0
H434 H 0.42213 0.75503 0.50179 0.0
H435 H 0.50309 0.77631 0.52703 0.0
H436 H 0.4564 0.71194 0.54493 0.0
H437 H 0.42412 0.69241 0.56778 0.0
H438 H 0.45051 0.70195 0.65341 0.0
H439 H 0.48272 0.72201 0.63099 0.0
C440 C 0.58393 0.70286 0.54829 0.0
C441 C 0.59074 0.69562 0.57685 0.0
C442 C 0.56504 0.71619 0.54391 0.0
C443 C 0.55296 0.72285 0.56805 0.0
C444 C 0.56066 0.71681 0.59656 0.0
C445 C 0.57939 0.70334 0.60093 0.0
C446 C 0.53088 0.73369 0.56384 0.0
C447 C 0.51241 0.72319 0.57744 0.0
C448 C 0.52759 0.75306 0.54534 0.0
C449 C 0.54658 0.76516 0.53104 0.0
C450 C 0.56482 0.77173 0.54778 0.0
C451 C 0.58274 0.78299 0.53414 0.0
C452 C 0.58256 0.78789 0.50378 0.0
C453 C 0.56443 0.7816 0.48701 0.0
C454 C 0.54647 0.77032 0.50054 0.0
C455 C 0.429 0.76573 0.57352 0.0
C456 C 0.41774 0.76073 0.54777 0.0
C457 C 0.45229 0.76539 0.57465 0.0
C458 C 0.46464 0.75984 0.55021 0.0
C459 C 0.45368 0.75789 0.52339 0.0
C460 C 0.43032 0.75838 0.52215 0.0
C461 C 0.48742 0.7508 0.55467 0.0
C462 C 0.50577 0.76135 0.54086 0.0
C463 C 0.49077 0.73131 0.57278 0.0
C464 C 0.47181 0.71867 0.58631 0.0
C465 C 0.45523 0.71 0.56863 0.0
C466 C 0.43695 0.69884 0.5815 0.0
C467 C 0.43524 0.69598 0.61204 0.0
C468 C 0.45185 0.70422 0.62976 0.0
C469 C 0.47011 0.71549 0.61699 0.0
H470 H 0.42107 0.68735 0.62197 0.0
H471 H 0.59645 0.79661 0.49326 0.0
H472 H 0.8763 0.08249 0.09789 0.0
H473 H 0.86771 0.04542 0.11709 0.0
H474 H 0.7981 0.06302 0.1238 0.0
H475 H 0.80687 0.10051 0.10418 0.0
H476 H 0.81364 0.0494 0.17499 0.0
H477 H 0.81418 0.01362 0.08401 0.0
H478 H 0.8274 0.00465 0.03529 0.0
H479 H 0.89233 0.98883 0.07072 0.0
H480 H 0.87942 0.99731 0.11992 0.0
H481 H 0.81775 0.94836 0.26736 0.0
H482 H 0.80631 0.97604 0.22869 0.0
H483 H 0.87417 0.9797 0.19686 0.0
H484 H 0.88535 0.95134 0.2338 0.0
H485 H 0.84709 0.9783 0.15276 0.0
H486 H 0.84958 0.01876 0.24076 0.0
H487 H 0.83811 0.02681 0.2907 0.0
H488 H 0.77011 0.03511 0.26156 0.0
H489 H 0.78116 0.02686 0.21149 0.0
C490 C 0.85899 0.07812 0.10206 0.0
C491 C 0.84223 0.0942 0.09961 0.0
C492 C 0.85401 0.05682 0.1129 0.0
C493 C 0.83215 0.05121 0.12171 0.0
C494 C 0.815 0.06686 0.1168 0.0
C495 C 0.81999 0.08823 0.10555 0.0
C496 C 0.82867 0.03109 0.14147 0.0
C497 C 0.82027 0.03363 0.16977 0.0
C498 C 0.83776 0.01061 0.13513 0.0
C499 C 0.84588 0.00634 0.10549 0.0
C500 C 0.83135 0.00854 0.0813 0.0
C501 C 0.83876 0.00345 0.05363 0.0
C502 C 0.86072 0.99642 0.04976 0.0
C503 C 0.87533 0.99433 0.07369 0.0
C504 C 0.86794 -0.00086 0.10151 0.0
C505 C 0.83019 0.95498 0.25199 0.0
C506 C 0.85254 0.9477 0.25397 0.0
C507 C 0.82365 0.97093 0.23004 0.0
C508 C 0.8394 0.98005 0.20993 0.0
C509 C 0.86167 0.97289 0.21204 0.0
C510 C 0.86813 0.95686 0.2336 0.0
C511 C 0.83321 0.99708 0.18647 0.0
C512 C 0.83972 0.99386 0.15761 0.0
C513 C 0.82276 0.01703 0.19246 0.0
C514 C 0.81613 0.02189 0.22254 0.0
C515 C 0.83215 0.02212 0.24508 0.0
C516 C 0.82573 0.02675 0.27339 0.0
C517 C 0.80338 0.03138 0.27933 0.0
C518 C 0.7874 0.03145 0.25695 0.0
C519 C 0.79373 0.0268 0.22861 0.0
H520 H 0.79844 0.03498 0.30125 0.0
H521 H 0.86634 0.9924 0.0283 0.0
H522 H 0.35229 0.27574 0.6103 0.0
H523 H 0.3767 0.25873 0.64867 0.0
H524 H 0.42937 0.30366 0.62106 0.0
H525 H 0.40519 0.32017 0.58227 0.0
H526 H 0.447 0.26569 0.64447 0.0
H527 H 0.39047 0.31772 0.67053 0.0
H528 H 0.35182 0.33148 0.67372 0.0
H529 H 0.33312 0.27289 0.72535 0.0
H530 H 0.37164 0.25866 0.72208 0.0
H531 H 0.46838 0.30876 0.7949 0.0
H532 H 0.44272 0.3033 0.75467 0.0
H533 H 0.4724 0.23994 0.74393 0.0
H534 H 0.49917 0.24613 0.78331 0.0
H535 H 0.41191 0.27857 0.74007 0.0
H536 H 0.47153 0.22976 0.67138 0.0
H537 H 0.51184 0.22216 0.66628 0.0
H538 H 0.52759 0.28446 0.69878 0.0
H539 H 0.4874 0.29248 0.70379 0.0
C540 C 0.36944 0.28125 0.61168 0.0
C541 C 0.37705 0.29904 0.59325 0.0
C542 C 0.38332 0.27163 0.63365 0.0
C543 C 0.40473 0.2802 0.63811 0.0
C544 C 0.413 0.29669 0.61797 0.0
C545 C 0.39922 0.30606 0.59568 0.0
C546 C 0.41686 0.27488 0.66614 0.0
C547 C 0.43929 0.26822 0.66544 0.0
C548 C 0.40689 0.27843 0.6935 0.0
C549 C 0.38381 0.28703 0.69576 0.0
C550 C 0.37807 0.30773 0.68241 0.0
C551 C 0.3562 0.31561 0.68424 0.0
C552 C 0.34 0.30304 0.69965 0.0
C553 C 0.34567 0.28259 0.71335 0.0
C554 C 0.36751 0.2746 0.71152 0.0
C555 C 0.46908 0.29346 0.78439 0.0
C556 C 0.48573 0.27789 0.79205 0.0
C557 C 0.45441 0.29031 0.76134 0.0
C558 C 0.45585 0.27138 0.74575 0.0
C559 C 0.47132 0.25494 0.75506 0.0
C560 C 0.48645 0.25837 0.77768 0.0
C561 C 0.4424 0.27013 0.71847 0.0
C562 C 0.41959 0.27545 0.71928 0.0
C563 C 0.45231 0.26619 0.69115 0.0
C564 C 0.4765 0.26157 0.68828 0.0
C565 C 0.48362 0.24181 0.67744 0.0
C566 C 0.50643 0.23744 0.67455 0.0
C567 C 0.52226 0.25279 0.6823 0.0
C568 C 0.51532 0.27256 0.69289 0.0
C569 C 0.49253 0.277 0.6958 0.0
H570 H 0.53992 0.24938 0.68003 0.0
H571 H 0.32308 0.30916 0.70105 0.0
H572 H 0.71521 0.62846 0.56707 0.0
H573 H 0.7459 0.60451 0.5542 0.0
H574 H 0.71836 0.55189 0.61079 0.0
H575 H 0.68747 0.57558 0.62326 0.0
H576 H 0.7669 0.54864 0.60094 0.0
H577 H 0.69453 0.55904 0.54648 0.0
H578 H 0.6672 0.58369 0.52026 0.0
H579 H 0.71899 0.60953 0.46271 0.0
H580 H 0.74662 0.58508 0.4888 0.0
H581 H 0.7504 0.44682 0.54853 0.0
H582 H 0.75435 0.48233 0.5682 0.0
H583 H 0.76999 0.51144 0.48173 0.0
H584 H 0.76415 0.476 0.46143 0.0
H585 H 0.74002 0.53402 0.50141 0.0
H586 H 0.80812 0.51107 0.5442 0.0
H587 H 0.83583 0.48696 0.57037 0.0
H588 H 0.79651 0.48632 0.64894 0.0
H589 H 0.76837 0.51015 0.62318 0.0
C590 C 0.71642 0.61222 0.57813 0.0
C591 C 0.69881 0.60369 0.59577 0.0
C592 C 0.73399 0.59852 0.57069 0.0
C593 C 0.73416 0.57633 0.58112 0.0
C594 C 0.71854 0.56894 0.60245 0.0
C595 C 0.70085 0.58249 0.60956 0.0
C596 C 0.74591 0.55976 0.56462 0.0
C597 C 0.76136 0.54544 0.57905 0.0
C598 C 0.73921 0.5561 0.53568 0.0
C599 C 0.72258 0.57036 0.51958 0.0
C600 C 0.70004 0.56999 0.52823 0.0
C601 C 0.68452 0.5839 0.51341 0.0
C602 C 0.69134 0.59808 0.48975 0.0
C603 C 0.71372 0.59846 0.48096 0.0
C604 C 0.72931 0.58459 0.49573 0.0
C605 C 0.75485 0.46071 0.53363 0.0
C606 C 0.75638 0.45858 0.50324 0.0
C607 C 0.75759 0.48108 0.54508 0.0
C608 C 0.76265 0.49979 0.52661 0.0
C609 C 0.76604 0.49734 0.49654 0.0
C610 C 0.76287 0.47697 0.48494 0.0
C611 C 0.7607 0.522 0.53799 0.0
C612 C 0.74673 0.53742 0.52269 0.0
C613 C 0.76919 0.52675 0.56588 0.0
C614 C 0.78607 0.51242 0.58167 0.0
C615 C 0.80529 0.5057 0.56701 0.0
C616 C 0.8211 0.49208 0.58179 0.0
C617 C 0.81793 0.48511 0.6113 0.0
C618 C 0.79896 0.49177 0.6261 0.0
C619 C 0.78309 0.50538 0.61142 0.0
H620 H 0.83018 0.47456 0.62269 0.0
H621 H 0.67926 0.60874 0.47822 0.0
H622 H 0.90962 0.17285 0.00863 0.0
H623 H 0.93089 0.17856 0.96324 0.0
H624 H 0.87357 0.21001 0.92056 0.0
H625 H 0.85206 0.20378 0.96596 0.0
H626 H 0.88895 0.1836 0.88659 0.0
H627 H 0.92248 0.238 0.93883 0.0
H628 H 0.94146 0.25648 0.97805 0.0
H629 H -0.00079 0.2156 0.96999 0.0
H630 H 0.98034 0.19631 0.93143 0.0
H631 H -0.00116 0.20897 0.79178 0.0
H632 H 0.97102 0.21987 0.82711 0.0
H633 H 0.94426 0.1542 0.83307 0.0
H634 H 0.97078 0.14375 0.79639 0.0
H635 H 0.96801 0.2076 0.88062 0.0
H636 H 0.89264 0.15054 0.85615 0.0
H637 H 0.8728 0.13815 0.81301 0.0
H638 H 0.89622 0.19459 0.76063 0.0
H639 H 0.91595 0.20751 0.80353 0.0
C640 C 0.90169 0.18135 0.98973 0.0
C641 C 0.87925 0.18805 0.99087 0.0
C642 C 0.9139 0.18467 0.96376 0.0
C643 C 0.90401 0.19503 0.93845 0.0
C644 C 0.88163 0.20201 0.93974 0.0
C645 C 0.86934 0.19845 0.96566 0.0
C646 C 0.91644 0.19688 0.91017 0.0
C647 C 0.90619 0.18904 0.88529 0.0
C648 C 0.93873 0.20468 0.908 0.0
C649 C 0.94986 0.21557 0.93223 0.0
C650 C 0.93909 0.2327 0.94567 0.0
C651 C 0.94987 0.24336 0.96777 0.0
C652 C 0.97155 0.23725 0.97644 0.0
C653 C 0.98245 0.22038 0.96315 0.0
C654 C 0.97168 0.20952 0.94123 0.0
C655 C 0.98651 0.19708 0.79983 0.0
C656 C 0.98721 0.17541 0.79141 0.0
C657 C 0.97076 0.20327 0.82031 0.0
C658 C 0.95543 0.18792 0.83284 0.0
C659 C 0.95554 0.16655 0.82347 0.0
C660 C 0.97101 0.16046 0.80274 0.0
C661 C 0.94082 0.19335 0.85767 0.0
C662 C 0.95066 0.20252 0.88189 0.0
C663 C 0.91794 0.18751 0.85894 0.0
C664 C 0.90589 0.17994 0.83308 0.0
C665 C 0.89345 0.1604 0.83549 0.0
C666 C 0.88225 0.15325 0.81105 0.0
C667 C 0.88328 0.16555 0.78408 0.0
C668 C 0.89548 0.18505 0.78151 0.0
C669 C 0.90671 0.19227 0.80587 0.0
H670 H 0.87461 0.15998 0.76519 0.0
H671 H 0.97988 0.24556 0.99351 0.0
H672 H 0.28065 0.35005 0.45065 0.0
H673 H 0.2572 0.37007 0.41346 0.0
H674 H 0.28428 0.43117 0.43951 0.0
H675 H 0.3067 0.4114 0.47678 0.0
H676 H 0.24697 0.43991 0.41364 0.0
H677 H 0.31387 0.39337 0.39188 0.0
H678 H 0.33109 0.35671 0.39023 0.0
H679 H 0.27635 0.33631 0.33768 0.0
H680 H 0.2587 0.37262 0.33962 0.0
H681 H 0.33347 0.47841 0.307 0.0
H682 H 0.31417 0.44802 0.33298 0.0
H683 H 0.25058 0.4788 0.31165 0.0
H684 H 0.27011 0.51008 0.28667 0.0
H685 H 0.28533 0.41765 0.32436 0.0
H686 H 0.21632 0.46766 0.37028 0.0
H687 H 0.20581 0.50606 0.37708 0.0
H688 H 0.27505 0.52279 0.38638 0.0
H689 H 0.28587 0.48447 0.37987 0.0
C690 C 0.28065 0.36777 0.44928 0.0
C691 C 0.29598 0.37923 0.46569 0.0
C692 C 0.26733 0.37923 0.42795 0.0
C693 C 0.26966 0.4021 0.42277 0.0
C694 C 0.28232 0.41354 0.44257 0.0
C695 C 0.29536 0.4022 0.46382 0.0
C696 C 0.26419 0.41376 0.39391 0.0
C697 C 0.25465 0.43478 0.39374 0.0
C698 C 0.27405 0.40715 0.36774 0.0
C699 C 0.28489 0.38552 0.36614 0.0
C700 C 0.30556 0.38099 0.38002 0.0
C701 C 0.31535 0.36027 0.37913 0.0
C702 C 0.30481 0.34413 0.36395 0.0
C703 C 0.28449 0.34872 0.34957 0.0
C704 C 0.27454 0.36934 0.35063 0.0
C705 C 0.31536 0.4787 0.30767 0.0
C706 C 0.30335 0.49689 0.29543 0.0
C707 C 0.30428 0.46113 0.3222 0.0
C708 C 0.28087 0.46118 0.32467 0.0
C709 C 0.26865 0.47851 0.3104 0.0
C710 C 0.27983 0.49631 0.29599 0.0
C711 C 0.27025 0.44442 0.34533 0.0
C712 C 0.27637 0.42239 0.34355 0.0
C713 C 0.25817 0.4504 0.37018 0.0
C714 C 0.25186 0.47337 0.3742 0.0
C715 C 0.22925 0.47958 0.37378 0.0
C716 C 0.22325 0.5013 0.37759 0.0
C717 C 0.23976 0.51687 0.38204 0.0
C718 C 0.26229 0.51074 0.38283 0.0
C719 C 0.26836 0.48903 0.37908 0.0
H720 H 0.23508 0.53368 0.38495 0.0
H721 H 0.31244 0.32811 0.36326 0.0
H722 H 0.08814 0.83905 0.03964 0.0
H723 H 0.05151 0.82184 0.04966 0.0
H724 H 0.07055 0.76771 0.99968 0.0
H725 H 0.10707 0.78466 0.98993 0.0
H726 H 0.03393 0.78902 0.97783 0.0
H727 H 0.05956 0.75823 0.06838 0.0
H728 H 0.07656 0.75456 0.11762 0.0
H729 H 0.0252 0.79538 0.15007 0.0
H730 H 0.00823 0.79994 0.10092 0.0
H731 H 0.92316 0.74992 0.98547 0.0
H732 H 0.96292 0.74744 0.99802 0.0
H733 H 0.95848 0.80844 0.03929 0.0
H734 H 0.9192 0.81165 0.02586 0.0
H735 H 0.98884 0.77554 0.06834 0.0
H736 H 0.97116 0.81247 0.97201 0.0
H737 H 0.95356 0.8135 0.92304 0.0
H738 H 0.99108 0.75657 0.90296 0.0
H739 H 0.00863 0.75501 0.95206 0.0
C740 C 0.08471 0.8231 0.0318 0.0
C741 C 0.10035 0.81296 0.01434 0.0
C742 C 0.06387 0.81329 0.03755 0.0
C743 C 0.05835 0.79351 0.02546 0.0
C744 C 0.07451 0.78289 0.00935 0.0
C745 C 0.09532 0.79256 0.00382 0.0
C746 C 0.03479 0.78603 0.02517 0.0
C747 C 0.02428 0.78557 0.99772 0.0
C748 C 0.02211 0.78172 0.05109 0.0
C749 C 0.03277 0.77973 0.08064 0.0
C750 C 0.05208 0.7668 0.08583 0.0
C751 C 0.06167 0.76447 0.11384 0.0
C752 C 0.05203 0.77483 0.13697 0.0
C753 C 0.03274 0.78747 0.13214 0.0
C754 C 0.02312 0.78994 0.10418 0.0
C755 C 0.93054 0.76272 0.99747 0.0
C756 C 0.91791 0.78116 0.00418 0.0
C757 C 0.95321 0.76112 0.00494 0.0
C758 C 0.9636 0.77782 0.01947 0.0
C759 C 0.95071 0.79529 0.02831 0.0
C760 C 0.92814 0.79705 0.02058 0.0
C761 C 0.98828 0.77911 0.02119 0.0
C762 C -0.00115 0.77857 0.0487 0.0
C763 C 0.00123 0.7823 0.99541 0.0
C764 C 0.99099 0.78347 0.96577 0.0
C765 C 0.97553 0.80008 0.95721 0.0
C766 C 0.96558 0.80078 0.92944 0.0
C767 C 0.97115 0.78507 0.90993 0.0
C768 C 0.98675 0.76869 0.91812 0.0
C769 C 0.9967 0.7679 0.94591 0.0
H770 H 0.96343 0.78563 0.88844 0.0
H771 H 0.05946 0.77302 0.15864 0.0
H772 H 0.78213 0.11506 0.00818 0.0
H773 H 0.77635 0.07705 0.99687 0.0
H774 H 0.8428 0.06062 0.0284 0.0
H775 H 0.84909 0.09905 0.03791 0.0
H776 H 0.8362 0.04596 0.97636 0.0
H777 H 0.79315 0.04554 0.06546 0.0
H778 H 0.76346 0.05719 0.09836 0.0
H779 H 0.7135 0.04133 0.03586 0.0
H780 H 0.74283 0.02976 0.0024 0.0
H781 H 0.83499 0.93141 0.98585 0.0
H782 H 0.83484 0.96984 0.99656 0.0
H783 H 0.76989 0.97836 0.95608 0.0
H784 H 0.76963 0.93946 0.94592 0.0
H785 H 0.77275 0.99798 0.00841 0.0
H786 H 0.8149 0.99744 0.92029 0.0
H787 H 0.84398 0.98497 0.88715 0.0
H788 H 0.89505 0.00316 0.94688 0.0
H789 H 0.86628 0.0155 0.98057 0.0
C790 C 0.79536 0.10323 0.01316 0.0
C791 C 0.81588 0.10987 0.02463 0.0
C792 C 0.79199 0.08148 0.00681 0.0
C793 C 0.80904 0.06587 0.01203 0.0
C794 C 0.82936 0.07236 0.02428 0.0
C795 C 0.83282 0.09422 0.03024 0.0
C796 C 0.80636 0.04324 0.00267 0.0
C797 C 0.82247 0.03539 0.9837 0.0
C798 C 0.78785 0.02978 0.01113 0.0
C799 C 0.77025 0.03688 0.0313 0.0
C800 C 0.77586 0.04461 0.05864 0.0
C801 C 0.7591 0.0512 0.0774 0.0
C802 C 0.73665 0.05003 0.06919 0.0
C803 C 0.7309 0.04224 0.04219 0.0
C804 C 0.74759 0.03564 0.02333 0.0
C805 C 0.82053 0.94134 0.97944 0.0
C806 C 0.80226 0.9323 0.96512 0.0
C807 C 0.82058 0.9634 0.98533 0.0
C808 C 0.80248 0.97705 0.9768 0.0
C809 C 0.78408 0.96813 0.96272 0.0
C810 C 0.78403 0.94596 0.95675 0.0
C811 C 0.80297 0.00056 0.98293 0.0
C812 C 0.78637 0.00865 0.00097 0.0
C813 C 0.82097 0.01433 0.97357 0.0
C814 C 0.83838 0.00716 0.95316 0.0
C815 C 0.83232 -0.00138 0.9265 0.0
C816 C 0.84876 0.99161 0.90757 0.0
C817 C 0.87135 0.9932 0.91495 0.0
C818 C 0.87755 0.00189 0.94122 0.0
C819 C 0.86117 0.00891 0.96023 0.0
H820 H 0.88405 0.98776 0.90026 0.0
H821 H 0.72371 0.05514 0.08376 0.0
H822 H 0.41176 0.30115 0.53004 0.0
H823 H 0.45187 0.29164 0.53011 0.0
H824 H 0.46811 0.35936 0.50716 0.0
H825 H 0.42873 0.36903 0.50783 0.0
H826 H 0.48442 0.32626 0.46763 0.0
H827 H 0.48027 0.34505 0.56909 0.0
H828 H 0.46659 0.34075 0.62005 0.0
H829 H 0.49019 0.27422 0.62774 0.0
H830 H 0.50367 0.27803 0.57673 0.0
H831 H 0.59238 0.36391 0.48648 0.0
H832 H 0.55295 0.3562 0.49615 0.0
H833 H 0.56734 0.28697 0.50696 0.0
H834 H 0.60716 0.2946 0.49699 0.0
H835 H 0.53543 0.30971 0.55223 0.0
H836 H 0.54583 0.29494 0.45095 0.0
H837 H 0.5609 0.30268 0.40107 0.0
H838 H 0.52584 0.36418 0.39334 0.0
H839 H 0.51085 0.35697 0.44339 0.0
C840 C 0.42397 0.31402 0.52568 0.0
C841 C 0.41707 0.33581 0.51873 0.0
C842 C 0.44679 0.30856 0.52561 0.0
C843 C 0.4628 0.32481 0.5183 0.0
C844 C 0.45595 0.34659 0.5126 0.0
C845 C 0.4334 0.35206 0.51301 0.0
C846 C 0.48667 0.31948 0.51447 0.0
C847 C 0.49555 0.32233 0.48607 0.0
C848 C 0.50106 0.3141 0.5385 0.0
C849 C 0.49265 0.31171 0.56899 0.0
C850 C 0.48226 0.32941 0.58155 0.0
C851 C 0.47464 0.32711 0.6105 0.0
C852 C 0.4775 0.30723 0.62717 0.0
C853 C 0.48796 0.28961 0.6149 0.0
C854 C 0.49559 0.29183 0.58595 0.0
C855 C 0.58726 0.34706 0.49136 0.0
C856 C 0.60283 0.32985 0.49107 0.0
C857 C 0.56475 0.34269 0.49679 0.0
C858 C 0.55735 0.32105 0.50225 0.0
C859 C 0.57285 0.30378 0.50286 0.0
C860 C 0.59546 0.30814 0.49701 0.0
C861 C 0.53313 0.31695 0.50546 0.0
C862 C 0.5242 0.31261 0.53366 0.0
C863 C 0.51862 0.32116 0.48126 0.0
C864 C 0.52733 0.32545 0.45099 0.0
C865 C 0.54147 0.31019 0.4387 0.0
C866 C 0.54997 0.31447 0.41038 0.0
C867 C 0.54435 0.33393 0.39406 0.0
C868 C 0.53017 0.34912 0.40601 0.0
C869 C 0.52165 0.34492 0.43433 0.0
H870 H 0.55096 0.33722 0.37215 0.0
H871 H 0.47155 0.30553 0.64955 0.0
H872 H 0.19782 0.90921 0.96101 0.0
H873 H 0.20388 0.94666 0.93955 0.0
H874 H 0.13279 0.95871 0.94167 0.0
H875 H 0.12686 0.92173 0.96401 0.0
H876 H 0.1898 0.95932 0.88772 0.0
H877 H 0.12165 0.01599 0.93853 0.0
H878 H 0.1063 0.02277 0.98697 0.0
H879 H 0.16317 0.99105 0.02905 0.0
H880 H 0.1788 0.98421 0.98083 0.0
H881 H 0.1299 0.03101 0.79147 0.0
H882 H 0.14465 0.00397 0.82861 0.0
H883 H 0.1786 0.05527 0.87103 0.0
H884 H 0.16383 0.08252 0.83356 0.0
H885 H 0.15276 0.02896 0.90905 0.0
H886 H 0.21011 0.01913 0.84032 0.0
H887 H 0.22645 0.01446 0.79166 0.0
H888 H 0.19145 0.95356 0.78726 0.0
H889 H 0.17464 0.958 0.8357 0.0
C890 C 0.18363 0.92018 0.95792 0.0
C891 C 0.1619 0.91269 0.96438 0.0
C892 C 0.18707 0.94151 0.94549 0.0
C893 C 0.1688 0.95558 0.93904 0.0
C894 C 0.14721 0.9484 0.9469 0.0
C895 C 0.1438 0.92718 0.95945 0.0
C896 C 0.17166 0.97619 0.92009 0.0
C897 C 0.18192 0.9746 0.89267 0.0
C898 C 0.16166 0.99634 0.92663 0.0
C899 C 0.15167 -0.00032 0.95587 0.0
C900 C 0.13103 0.01056 0.95804 0.0
C901 C 0.12217 0.01438 0.98552 0.0
C902 C 0.13375 0.00739 0.0111 0.0
C903 C 0.15415 0.99645 0.00925 0.0
C904 C 0.16302 0.9926 0.98183 0.0
C905 C 0.14083 0.03645 0.80842 0.0
C906 C 0.14575 0.05878 0.80972 0.0
C907 C 0.14933 0.02102 0.82953 0.0
C908 C 0.16284 0.02762 0.85244 0.0
C909 C 0.16831 0.04986 0.8534 0.0
C910 C 0.15999 0.06534 0.83198 0.0
C911 C 0.16939 0.01128 0.87648 0.0
C912 C 0.16093 0.01371 0.90467 0.0
C913 C 0.18084 0.99184 0.87074 0.0
C914 C 0.19108 0.98894 0.84167 0.0
C915 C 0.2058 0.00479 0.82892 0.0
C916 C 0.21516 0.00218 0.80137 0.0
C917 C 0.20998 0.98373 0.78637 0.0
C918 C 0.19547 0.96783 0.79892 0.0
C919 C 0.18605 0.97037 0.82646 0.0
H920 H 0.21723 0.98174 0.76504 0.0
H921 H 0.12691 0.01042 0.03234 0.0
H922 H 0.59621 0.60739 0.48653 0.0
H923 H 0.56615 0.61267 0.45057 0.0
H924 H 0.54154 0.66776 0.49488 0.0
H925 H 0.57166 0.6622 0.53151 0.0
H926 H 0.50765 0.63863 0.47905 0.0
H927 H 0.56748 0.67872 0.43293 0.0
H928 H 0.6062 0.6854 0.41623 0.0
H929 H 0.60158 0.63184 0.36078 0.0
H930 H 0.56294 0.6246 0.37748 0.0
H931 H 0.4321 0.65588 0.35611 0.0
H932 H 0.46081 0.6639 0.39242 0.0
H933 H 0.5009 0.61033 0.36517 0.0
H934 H 0.47243 0.60234 0.32904 0.0
H935 H 0.52602 0.64699 0.37293 0.0
H936 H 0.46915 0.60345 0.42516 0.0
H937 H 0.4311 0.59511 0.44339 0.0
H938 H 0.4305 0.65463 0.48778 0.0
H939 H 0.46848 0.66344 0.46951 0.0
C940 C 0.5844 0.62063 0.48871 0.0
C941 C 0.5865 0.63467 0.51156 0.0
C942 C 0.5673 0.6237 0.46801 0.0
C943 C 0.55183 0.64083 0.46973 0.0
C944 C 0.55347 0.6546 0.49296 0.0
C945 C 0.57079 0.6516 0.51364 0.0
C946 C 0.53394 0.64385 0.4472 0.0
C947 C 0.51157 0.64102 0.45586 0.0
C948 C 0.53913 0.64666 0.41694 0.0
C949 C 0.56233 0.65104 0.4066 0.0
C950 C 0.57476 0.66826 0.41732 0.0
C951 C 0.5967 0.67216 0.40784 0.0
C952 C 0.60635 0.65903 0.38749 0.0
C953 C 0.59408 0.642 0.37654 0.0
C954 C 0.57214 0.63801 0.38598 0.0
C955 C 0.4472 0.64605 0.35766 0.0
C956 C 0.45001 0.62842 0.33989 0.0
C957 C 0.46349 0.65055 0.3785 0.0
C958 C 0.4829 0.63759 0.38166 0.0
C959 C 0.48605 0.62052 0.36315 0.0
C960 C 0.46974 0.6159 0.34261 0.0
C961 C 0.4998 0.64113 0.40472 0.0
C962 C 0.52201 0.64516 0.39613 0.0
C963 C 0.49444 0.63939 0.435 0.0
C964 C 0.47151 0.63426 0.44562 0.0
C965 C 0.4608 0.61488 0.43853 0.0
C966 C 0.43928 0.61003 0.44894 0.0
C967 C 0.42835 0.62437 0.46664 0.0
C968 C 0.43895 0.64357 0.474 0.0
C969 C 0.46048 0.64849 0.46364 0.0
H970 H 0.41171 0.62056 0.47472 0.0
H971 H 0.62334 0.66208 0.38017 0.0
H972 H 0.32608 0.41233 0.59581 0.0
H973 H 0.32263 0.45216 0.59209 0.0
H974 H 0.34541 0.45455 0.50238 0.0
H975 H 0.34933 0.41455 0.50607 0.0
H976 H 0.36226 0.48853 0.53125 0.0
H977 H 0.29113 0.45782 0.51459 0.0
H978 H 0.25921 0.43288 0.52388 0.0
H979 H 0.24675 0.46081 0.60587 0.0
H980 H 0.27886 0.4857 0.5973 0.0
H981 H 0.31994 0.59852 0.50829 0.0
H982 H 0.32472 0.55932 0.50241 0.0
H983 H 0.30905 0.54487 0.59386 0.0
H984 H 0.30482 0.58391 0.60019 0.0
H985 H 0.28759 0.51723 0.55658 0.0
H986 H 0.36219 0.5463 0.57228 0.0
H987 H 0.39348 0.57146 0.55977 0.0
H988 H 0.39795 0.54691 0.47428 0.0
H989 H 0.36647 0.52178 0.48617 0.0
C990 C 0.33064 0.4213 0.57538 0.0
C991 C 0.33775 0.41025 0.55114 0.0
C992 C 0.32859 0.44407 0.57326 0.0
C993 C 0.33331 0.45625 0.54676 0.0
C994 C 0.34156 0.44543 0.52297 0.0
C995 C 0.34378 0.42258 0.52513 0.0
C996 C 0.32849 0.48009 0.54379 0.0
C997 C 0.34586 0.49482 0.53631 0.0
C998 C 0.30703 0.48828 0.55024 0.0
C999 C 0.28752 0.47353 0.55539 0.0
C1000 C 0.28168 0.45856 0.5347 0.0
C1001 C 0.26354 0.44444 0.53982 0.0
C1002 C 0.25098 0.44524 0.56547 0.0
C1003 C 0.2565 0.46021 0.58602 0.0
C1004 C 0.27466 0.47434 0.58102 0.0
C1005 C 0.31756 0.58701 0.52718 0.0
C1006 C 0.31207 0.59441 0.55476 0.0
C1007 C 0.32022 0.56463 0.52373 0.0
C1008 C 0.31742 0.54926 0.54777 0.0
C1009 C 0.31122 0.5565 0.57503 0.0
C1010 C 0.30869 0.57884 0.57855 0.0
C1011 C 0.32152 0.52563 0.545 0.0
C1012 C 0.30394 0.51093 0.55125 0.0
C1013 C 0.34265 0.51754 0.53689 0.0
C1014 C 0.36184 0.53234 0.53 0.0
C1015 C 0.36976 0.54637 0.55075 0.0
C1016 C 0.38754 0.56061 0.54378 0.0
C1017 C 0.39765 0.56084 0.51621 0.0
C1018 C 0.39008 0.54674 0.49561 0.0
C1019 C 0.37228 0.53249 0.50246 0.0
H1020 H 0.41139 0.5719 0.51083 0.0
H1021 H 0.23694 0.43429 0.56941 0.0
H1022 H 0.1173 0.8053 0.06791 0.0
H1023 H 0.08621 0.80447 0.10305 0.0
H1024 H 0.12678 0.83933 0.16227 0.0
H1025 H 0.15675 0.84223 0.12588 0.0
H1026 H 0.10301 0.80136 0.1883 0.0
H1027 H 0.09353 0.86614 0.12476 0.0
H1028 H 0.08843 0.88823 0.07806 0.0
H1029 H 0.02487 0.85777 0.06564 0.0
H1030 H 0.0299 0.83497 0.11183 0.0
H1031 H 0.02198 0.84422 0.28497 0.0
H1032 H 0.05262 0.8401 0.2501 0.0
H1033 H 0.00802 0.80703 0.1937 0.0
H1034 H 0.9775 0.81084 0.22856 0.0
H1035 H 0.03314 0.84315 0.1656 0.0
H1036 H 0.04416 0.77681 0.2274 0.0
H1037 H 0.04923 0.75525 0.27472 0.0
H1038 H 0.10891 0.79131 0.29123 0.0
H1039 H 0.10401 0.8133 0.24417 0.0
C1040 C 0.1191 0.81349 0.08787 0.0
C1041 C 0.13879 0.82487 0.09338 0.0
C1042 C 0.10166 0.81251 0.10826 0.0
C1043 C 0.10417 0.82207 0.13506 0.0
C1044 C 0.12451 0.83199 0.14159 0.0
C1045 C 0.1416 0.83357 0.12081 0.0
C1046 C 0.08545 0.82239 0.15606 0.0
C1047 C 0.08777 0.81058 0.18339 0.0
C1048 C 0.06553 0.83432 0.14937 0.0
C1049 C 0.06251 0.84811 0.1214 0.0
C1050 C 0.07873 0.86366 0.11177 0.0
C1051 C 0.07578 0.87646 0.08542 0.0
C1052 C 0.05644 0.87425 0.06872 0.0
C1053 C 0.03994 0.85936 0.07847 0.0
C1054 C 0.04291 0.84636 0.10466 0.0
C1055 C 0.01885 0.83586 0.26527 0.0
C1056 C 0.99747 0.82773 0.25947 0.0
C1057 C 0.03631 0.8335 0.24544 0.0
C1058 C 0.03254 0.82325 0.21937 0.0
C1059 C 0.01126 0.81495 0.2137 0.0
C1060 C 0.99391 0.81699 0.23372 0.0
C1061 C 0.05063 0.8219 0.19757 0.0
C1062 C 0.04829 0.83373 0.17025 0.0
C1063 C 0.07054 0.81009 0.20419 0.0
C1064 C 0.07359 0.79684 0.23242 0.0
C1065 C 0.05825 0.78027 0.24125 0.0
C1066 C 0.06112 0.76794 0.26799 0.0
C1067 C 0.07934 0.77195 0.28601 0.0
C1068 C 0.09478 0.78825 0.27727 0.0
C1069 C 0.09198 0.80063 0.25055 0.0
H1070 H 0.08153 0.76239 0.30671 0.0
H1071 H 0.05417 0.8842 0.04835 0.0
H1072 H 0.61183 0.60834 0.70478 0.0
H1073 H 0.61001 0.57062 0.72603 0.0
H1074 H 0.61598 0.54683 0.63984 0.0
H1075 H 0.61816 0.58469 0.6182 0.0
H1076 H 0.58119 0.52631 0.67766 0.0
H1077 H 0.65919 0.54185 0.67688 0.0
H1078 H 0.69288 0.56376 0.68501 0.0
H1079 H 0.67991 0.55957 0.77768 0.0
H1080 H 0.6459 0.53793 0.77004 0.0
H1081 H 0.59697 0.41683 0.73865 0.0
H1082 H 0.6033 0.45138 0.70945 0.0
H1083 H 0.60699 0.48547 0.78871 0.0
H1084 H 0.60042 0.45106 0.81806 0.0
H1085 H 0.63931 0.49916 0.74919 0.0
H1086 H 0.5596 0.48655 0.74905 0.0
H1087 H 0.52537 0.46542 0.74081 0.0
H1088 H 0.5415 0.4644 0.64936 0.0
H1089 H 0.57602 0.48528 0.65716 0.0
C1090 C 0.61262 0.59514 0.69024 0.0
C1091 C 0.61516 0.59953 0.65977 0.0
C1092 C 0.61167 0.57361 0.70246 0.0
C1093 C 0.61302 0.55604 0.68449 0.0
C1094 C 0.61496 0.56024 0.65401 0.0
C1095 C 0.61624 0.58185 0.64174 0.0
C1096 C 0.61262 0.53333 0.69795 0.0
C1097 C 0.5941 0.52014 0.69284 0.0
C1098 C 0.62932 0.52557 0.71807 0.0
C1099 C 0.64987 0.53842 0.72285 0.0
C1100 C 0.66341 0.54576 0.69897 0.0
C1101 C 0.68259 0.5581 0.70349 0.0
C1102 C 0.68851 0.56309 0.73184 0.0
C1103 C 0.67529 0.5557 0.75573 0.0
C1104 C 0.65607 0.54338 0.75132 0.0
C1105 C 0.59907 0.4317 0.74987 0.0
C1106 C 0.59801 0.43123 0.78069 0.0
C1107 C 0.60276 0.45139 0.73316 0.0
C1108 C 0.60537 0.471 0.74691 0.0
C1109 C 0.60506 0.4705 0.77767 0.0
C1110 C 0.60136 0.45081 0.79442 0.0
C1111 C 0.60766 0.4922 0.72931 0.0
C1112 C 0.62654 0.50515 0.73369 0.0
C1113 C 0.59128 0.49973 0.70848 0.0
C1114 C 0.57051 0.48725 0.70375 0.0
C1115 C 0.55594 0.48166 0.72723 0.0
C1116 C 0.53648 0.46976 0.72263 0.0
C1117 C 0.5313 0.46351 0.69459 0.0
C1118 C 0.54556 0.46921 0.67108 0.0
C1119 C 0.56507 0.48109 0.67557 0.0
H1120 H 0.51622 0.45431 0.69107 0.0
H1121 H 0.70337 0.57265 0.73531 0.0
H1122 H 0.91238 0.2067 0.04591 0.0
H1123 H 0.94894 0.22091 0.02964 0.0
H1124 H 0.98149 0.16867 0.08227 0.0
H1125 H 0.94512 0.15451 0.09873 0.0
H1126 H 0.98339 0.23544 0.06349 0.0
H1127 H 0.02787 0.1519 0.04363 0.0
H1128 H 0.01799 0.11645 0.02484 0.0
H1129 H 0.96168 0.14618 0.97896 0.0
H1130 H 0.97125 0.1818 0.99717 0.0
H1131 H 0.09418 0.22335 0.10737 0.0
H1132 H 0.05452 0.22369 0.09576 0.0
H1133 H 0.06963 0.21937 0.00408 0.0
H1134 H 0.10966 0.21953 0.01545 0.0
H1135 H 0.04137 0.18781 0.02351 0.0
H1136 H 0.04308 0.26456 0.02461 0.0
H1137 H 0.05295 0.30053 0.042 0.0
H1138 H 0.0163 0.28528 0.12157 0.0
H1139 H 0.00647 0.24909 0.10488 0.0
C1140 C 0.92736 0.19811 0.05367 0.0
C1141 C 0.92599 0.17941 0.07338 0.0
C1142 C 0.94819 0.20629 0.04442 0.0
C1143 C 0.96786 0.19564 0.0544 0.0
C1144 C 0.96646 0.17691 0.07396 0.0
C1145 C 0.94572 0.16891 0.08346 0.0
C1146 C 0.99009 0.20443 0.0458 0.0
C1147 C 0.99605 0.22517 0.05444 0.0
C1148 C 0.00631 0.19124 0.03299 0.0
C1149 C 0.00044 0.16973 0.0217 0.0
C1150 C 0.01351 0.15099 0.02929 0.0
C1151 C 0.0079 0.13079 0.01881 0.0
C1152 C 0.98925 0.12906 0.00067 0.0
C1153 C 0.97615 0.14753 0.99299 0.0
C1154 C 0.98168 0.16775 0.0034 0.0
C1155 C 0.08921 0.22326 0.08457 0.0
C1156 C 0.1052 0.22131 0.06238 0.0
C1157 C 0.06643 0.22341 0.07795 0.0
C1158 C 0.05909 0.22166 0.04902 0.0
C1159 C 0.07495 0.22073 0.02656 0.0
C1160 C 0.0978 0.22071 0.03314 0.0
C1161 C 0.035 0.21809 0.0433 0.0
C1162 C 0.02863 0.19833 0.03187 0.0
C1163 C 0.01837 0.23222 0.05331 0.0
C1164 C 0.02407 0.25405 0.06348 0.0
C1165 C 0.03722 0.26882 0.04589 0.0
C1166 C 0.0428 0.28926 0.05562 0.0
C1167 C 0.03526 0.29518 0.08288 0.0
C1168 C 0.0221 0.28068 0.10044 0.0
C1169 C 0.01648 0.26021 0.09082 0.0
H1170 H 0.03961 0.31101 0.09038 0.0
H1171 H 0.98493 0.1134 0.99261 0.0
H1172 H 0.19464 0.76724 0.99877 0.0
H1173 H 0.2155 0.73269 0.00382 0.0
H1174 H 0.27722 0.76869 0.00781 0.0
H1175 H 0.25645 0.80313 0.00174 0.0
H1176 H 0.28398 0.72657 0.98884 0.0
H1177 H 0.2473 0.76218 0.06808 0.0
H1178 H 0.21433 0.77811 0.09106 0.0
H1179 H 0.17998 0.71659 0.08975 0.0
H1180 H 0.21266 0.70043 0.06628 0.0
H1181 H 0.34797 0.67768 0.10836 0.0
H1182 H 0.3273 0.70041 0.07115 0.0
H1183 H 0.2703 0.65761 0.08311 0.0
H1184 H 0.29039 0.63545 0.12104 0.0
H1185 H 0.25852 0.69837 0.08778 0.0
H1186 H 0.30096 0.66077 0.01896 0.0
H1187 H 0.33469 0.6463 0.99615 0.0
H1188 H 0.35947 0.71176 0.97843 0.0
H1189 H 0.32606 0.72663 0.00155 0.0
C1190 C 0.21274 0.76772 0.9987 0.0
C1191 C 0.22402 0.78773 0.99975 0.0
C1192 C 0.22466 0.74799 0.00184 0.0
C1193 C 0.24785 0.74817 0.00692 0.0
C1194 C 0.25935 0.76816 0.00402 0.0
C1195 C 0.24747 0.78785 0.00059 0.0
C1196 C 0.25903 0.72895 0.02229 0.0
C1197 C 0.27844 0.72026 0.0104 0.0
C1198 C 0.25168 0.72068 0.05039 0.0
C1199 C 0.23228 0.73019 0.06516 0.0
C1200 C 0.23267 0.7521 0.07259 0.0
C1201 C 0.21404 0.76117 0.08567 0.0
C1202 C 0.19505 0.74838 0.09179 0.0
C1203 C 0.19469 0.72648 0.08493 0.0
C1204 C 0.21324 0.71736 0.07173 0.0
C1205 C 0.33108 0.67305 0.10297 0.0
C1206 C 0.32086 0.65475 0.11782 0.0
C1207 C 0.31938 0.68589 0.08138 0.0
C1208 C 0.2973 0.68059 0.07411 0.0
C1209 C 0.28736 0.66194 0.08821 0.0
C1210 C 0.29897 0.64919 0.10981 0.0
C1211 C 0.28369 0.69581 0.05446 0.0
C1212 C 0.26386 0.70404 0.06583 0.0
C1213 C 0.29087 0.70369 0.02608 0.0
C1214 C 0.31106 0.69481 0.01226 0.0
C1215 C 0.31369 0.67208 0.01046 0.0
C1216 C 0.33275 0.66381 0.99741 0.0
C1217 C 0.34924 0.6781 0.98591 0.0
C1218 C 0.34669 0.7007 0.98738 0.0
C1219 C 0.32768 0.70907 0.00043 0.0
H1220 H 0.36397 0.67165 0.97581 0.0
H1221 H 0.18064 0.75544 0.1019 0.0
H1222 H 0.70161 0.69125 0.60566 0.0
H1223 H 0.72376 0.7114 0.63995 0.0
H1224 H 0.67597 0.69424 0.70848 0.0
H1225 H 0.65339 0.6753 0.67401 0.0
H1226 H 0.68507 0.73409 0.71122 0.0
H1227 H 0.73069 0.66997 0.70287 0.0
H1228 H 0.75245 0.64318 0.67677 0.0
H1229 H 0.79666 0.6943 0.64345 0.0
H1230 H 0.77496 0.72146 0.66905 0.0
H1231 H 0.74961 0.74889 0.8393 0.0
H1232 H 0.73153 0.73122 0.79901 0.0
H1233 H 0.7681 0.77313 0.73611 0.0
H1234 H 0.78597 0.79122 0.77645 0.0
H1235 H 0.76656 0.72386 0.72751 0.0
H1236 H 0.72007 0.78724 0.74055 0.0
H1237 H 0.69804 0.8118 0.76987 0.0
H1238 H 0.65501 0.75832 0.79833 0.0
H1239 H 0.67702 0.73335 0.76952 0.0
C1240 C 0.6959 0.6918 0.62802 0.0
C1241 C 0.67561 0.68195 0.63699 0.0
C1242 C 0.70865 0.7032 0.64773 0.0
C1243 C 0.70166 0.70434 0.67701 0.0
C1244 C 0.68168 0.6939 0.68603 0.0
C1245 C 0.66876 0.683 0.66625 0.0
C1246 C 0.71454 0.71682 0.69828 0.0
C1247 C 0.70286 0.7316 0.71485 0.0
C1248 C 0.73789 0.7141 0.7028 0.0
C1249 C 0.75106 0.69778 0.68761 0.0
C1250 C 0.74496 0.67552 0.68981 0.0
C1251 C 0.75729 0.66027 0.67513 0.0
C1252 C 0.77588 0.66705 0.65839 0.0
C1253 C 0.78223 0.68908 0.65638 0.0
C1254 C 0.76993 0.70441 0.67099 0.0
C1255 C 0.75384 0.75428 0.81688 0.0
C1256 C 0.76914 0.77143 0.81095 0.0
C1257 C 0.74352 0.7442 0.79393 0.0
C1258 C 0.74854 0.75086 0.76465 0.0
C1259 C 0.76409 0.76774 0.7586 0.0
C1260 C 0.77413 0.77813 0.78159 0.0
C1261 C 0.7369 0.74055 0.74052 0.0
C1262 C 0.74881 0.7263 0.72352 0.0
C1263 C 0.71368 0.74336 0.73596 0.0
C1264 C 0.70032 0.75839 0.7531 0.0
C1265 C 0.70603 0.78067 0.75327 0.0
C1266 C 0.69352 0.79468 0.76976 0.0
C1267 C 0.67517 0.78661 0.78601 0.0
C1268 C 0.66925 0.76454 0.78575 0.0
C1269 C 0.68172 0.75046 0.76933 0.0
H1270 H 0.6655 0.79748 0.79876 0.0
H1271 H 0.7854 0.65521 0.64702 0.0
H1272 H 0.79717 0.20249 0.12834 0.0
H1273 H 0.7785 0.22835 0.15906 0.0
H1274 H 0.83584 0.22644 0.21667 0.0
H1275 H 0.85454 0.20111 0.18603 0.0
H1276 H 0.79804 0.22198 0.24715 0.0
H1277 H 0.82538 0.26836 0.1648 0.0
H1278 H 0.82814 0.28097 0.11245 0.0
H1279 H 0.7579 0.29559 0.11012 0.0
H1280 H 0.75466 0.2828 0.1624 0.0
H1281 H 0.78713 0.31104 0.33294 0.0
H1282 H 0.80084 0.2884 0.29483 0.0
H1283 H 0.73766 0.29575 0.24948 0.0
H1284 H 0.72398 0.31889 0.28722 0.0
H1285 H 0.77365 0.29673 0.21094 0.0
H1286 H 0.74596 0.25102 0.29212 0.0
H1287 H 0.7422 0.23787 0.3442 0.0
H1288 H 0.81212 0.22181 0.34802 0.0
H1289 H 0.81637 0.23518 0.29606 0.0
C1290 C 0.80587 0.20792 0.14728 0.0
C1291 C 0.82745 0.20009 0.15448 0.0
C1292 C 0.79514 0.22254 0.16492 0.0
C1293 C 0.80585 0.22946 0.19006 0.0
C1294 C 0.82724 0.22133 0.19742 0.0
C1295 C 0.83791 0.20682 0.17987 0.0
C1296 C 0.79501 0.24492 0.20926 0.0
C1297 C 0.79288 0.23838 0.23921 0.0
C1298 C 0.78758 0.26609 0.19875 0.0
C1299 C 0.78967 0.27416 0.16742 0.0
C1300 C 0.81046 0.27403 0.15308 0.0
C1301 C 0.81214 0.28129 0.12342 0.0
C1302 C 0.7932 0.28901 0.10795 0.0
C1303 C 0.77256 0.28957 0.12213 0.0
C1304 C 0.77078 0.28228 0.15176 0.0
C1305 C 0.77632 0.30827 0.31454 0.0
C1306 C 0.75439 0.3166 0.31327 0.0
C1307 C 0.78411 0.29519 0.29288 0.0
C1308 C 0.77013 0.29011 0.26958 0.0
C1309 C 0.74867 0.29937 0.26734 0.0
C1310 C 0.74084 0.31244 0.28905 0.0
C1311 C 0.77745 0.27394 0.24884 0.0
C1312 C 0.77872 0.28028 0.21872 0.0
C1313 C 0.78404 0.25249 0.25906 0.0
C1314 C 0.78152 0.24428 0.29027 0.0
C1315 C 0.76057 0.24483 0.30413 0.0
C1316 C 0.75834 0.23732 0.33362 0.0
C1317 C 0.77692 0.22905 0.34943 0.0
C1318 C 0.79775 0.22824 0.33576 0.0
C1319 C 0.80008 0.23576 0.30628 0.0
H1320 H 0.77516 0.22324 0.37226 0.0
H1321 H 0.79452 0.29458 0.08498 0.0
H1322 H 0.29021 0.28303 0.51171 0.0
H1323 H 0.25588 0.2613 0.51053 0.0
H1324 H 0.21714 0.31829 0.5292 0.0
H1325 H 0.25153 0.3396 0.53168 0.0
H1326 H 0.21191 0.28752 0.57012 0.0
H1327 H 0.21001 0.29019 0.46551 0.0
H1328 H 0.22515 0.28671 0.41592 0.0
H1329 H 0.23612 0.21789 0.43625 0.0
H1330 H 0.22146 0.22099 0.48621 0.0
H1331 H 0.11617 0.22961 0.60221 0.0
H1332 H 0.13878 0.25386 0.56973 0.0
H1333 H 0.18394 0.20057 0.55595 0.0
H1334 H 0.16063 0.17575 0.58704 0.0
H1335 H 0.18281 0.23103 0.50747 0.0
H1336 H 0.19279 0.22999 0.61265 0.0
H1337 H 0.18009 0.23246 0.66364 0.0
H1338 H 0.15669 0.29812 0.64213 0.0
H1339 H 0.16895 0.29588 0.59085 0.0
C1340 C 0.27424 0.291 0.51447 0.0
C1341 C 0.27331 0.3128 0.52204 0.0
C1342 C 0.25461 0.27864 0.51367 0.0
C1343 C 0.23388 0.28812 0.51999 0.0
C1344 C 0.23292 0.31059 0.52445 0.0
C1345 C 0.25252 0.32276 0.52585 0.0
C1346 C 0.21427 0.27406 0.52786 0.0
C1347 C 0.20518 0.27565 0.55593 0.0
C1348 C 0.2061 0.25787 0.50995 0.0
C1349 C 0.2147 0.25586 0.47975 0.0
C1350 C 0.21578 0.27432 0.45952 0.0
C1351 C 0.22424 0.27241 0.4313 0.0
C1352 C 0.23154 0.25209 0.42292 0.0
C1353 C 0.23037 0.23361 0.44274 0.0
C1354 C 0.22198 0.23544 0.47102 0.0
C1355 C 0.13036 0.22273 0.59141 0.0
C1356 C 0.13685 0.20078 0.59793 0.0
C1357 C 0.14335 0.2367 0.57287 0.0
C1358 C 0.16333 0.22913 0.56099 0.0
C1359 C 0.16868 0.20679 0.56505 0.0
C1360 C 0.15551 0.19271 0.58327 0.0
C1361 C 0.18041 0.245 0.54931 0.0
C1362 C 0.18924 0.24345 0.52101 0.0
C1363 C 0.1887 0.26122 0.567 0.0
C1364 C 0.18153 0.26268 0.59788 0.0
C1365 C 0.18479 0.24489 0.61876 0.0
C1366 C 0.17769 0.24625 0.64771 0.0
C1367 C 0.16753 0.26541 0.6561 0.0
C1368 C 0.16451 0.28327 0.63558 0.0
C1369 C 0.17153 0.28197 0.60658 0.0
H1370 H 0.16204 0.26644 0.67852 0.0
H1371 H 0.23817 0.25066 0.4011 0.0
H1372 H 0.69404 0.64648 0.48323 0.0
H1373 H 0.72449 0.66759 0.45931 0.0
H1374 H 0.72682 0.70894 0.53183 0.0
H1375 H 0.6964 0.68796 0.5557 0.0
H1376 H 0.72631 0.73224 0.4776 0.0
H1377 H 0.76716 0.67218 0.52693 0.0
H1378 H 0.77445 0.63298 0.53987 0.0
H1379 H 0.78501 0.62252 0.44899 0.0
H1380 H 0.77778 0.66175 0.43551 0.0
H1381 H 0.82486 0.79045 0.44787 0.0
H1382 H 0.79819 0.76514 0.47255 0.0
H1383 H 0.80201 0.72349 0.40043 0.0
H1384 H 0.82903 0.74867 0.3758 0.0
H1385 H 0.79918 0.69934 0.45274 0.0
H1386 H 0.75981 0.75977 0.40349 0.0
H1387 H 0.75131 0.79873 0.39035 0.0
H1388 H 0.73607 0.80815 0.48039 0.0
H1389 H 0.74482 0.7693 0.49415 0.0
C1390 C 0.70115 0.65995 0.49416 0.0
C1391 C 0.6931 0.66536 0.5216 0.0
C1392 C 0.71856 0.67197 0.4805 0.0
C1393 C 0.72801 0.68967 0.49398 0.0
C1394 C 0.7198 0.69525 0.52117 0.0
C1395 C 0.70256 0.68315 0.53489 0.0
C1396 C 0.74613 0.70276 0.47949 0.0
C1397 C 0.74235 0.72514 0.47248 0.0
C1398 C 0.76676 0.69327 0.47214 0.0
C1399 C 0.77179 0.66984 0.4802 0.0
C1400 C 0.77097 0.6615 0.50969 0.0
C1401 C 0.77509 0.63928 0.51713 0.0
C1402 C 0.78007 0.62523 0.49525 0.0
C1403 C 0.78112 0.63342 0.46591 0.0
C1404 C 0.7771 0.65566 0.45836 0.0
C1405 C 0.82012 0.77582 0.43739 0.0
C1406 C 0.82877 0.77163 0.40979 0.0
C1407 C 0.80492 0.76137 0.45149 0.0
C1408 C 0.7978 0.74267 0.43803 0.0
C1409 C 0.80724 0.73787 0.41114 0.0
C1410 C 0.82265 0.75224 0.39712 0.0
C1411 C 0.77949 0.72899 0.45122 0.0
C1412 C 0.78317 0.70648 0.45785 0.0
C1413 C 0.75865 0.73834 0.45814 0.0
C1414 C 0.75317 0.76167 0.44989 0.0
C1415 C 0.7548 0.77019 0.42052 0.0
C1416 C 0.74992 0.79224 0.41296 0.0
C1417 C 0.74321 0.80592 0.43453 0.0
C1418 C 0.7413 0.79754 0.46371 0.0
C1419 C 0.7462 0.7755 0.4714 0.0
H1420 H 0.73943 0.82299 0.42863 0.0
H1421 H 0.78319 0.60802 0.50105 0.0
H1422 H 0.80436 0.23019 0.08832 0.0
H1423 H 0.77041 0.25279 0.08203 0.0
H1424 H 0.74952 0.21488 0.01082 0.0
H1425 H 0.78294 0.19224 0.01728 0.0
H1426 H 0.74606 0.25755 0.99601 0.0
H1427 H 0.7279 0.208 0.08027 0.0
H1428 H 0.7335 0.19161 0.13067 0.0
H1429 H 0.72436 0.25463 0.16457 0.0
H1430 H 0.71939 0.27157 0.11423 0.0
H1431 H 0.63364 0.2634 0.97114 0.0
H1432 H 0.66671 0.24872 0.99678 0.0
H1433 H 0.67627 0.31002 0.03594 0.0
H1434 H 0.64275 0.32498 0.01045 0.0
H1435 H 0.68762 0.26328 0.07211 0.0
H1436 H 0.70458 0.3123 0.98637 0.0
H1437 H 0.69763 0.32706 0.93546 0.0
H1438 H 0.70812 0.26314 0.90474 0.0
H1439 H 0.71471 0.24793 0.95558 0.0
C1440 C 0.79229 0.22654 0.07168 0.0
C1441 C 0.79611 0.20937 0.05344 0.0
C1442 C 0.77304 0.23953 0.06798 0.0
C1443 C 0.75746 0.2355 0.04599 0.0
C1444 C 0.76139 0.21837 0.02781 0.0
C1445 C 0.78052 0.20547 0.03147 0.0
C1446 C 0.73709 0.2491 0.0411 0.0
C1447 C 0.73339 0.25886 0.01276 0.0
C1448 C 0.72077 0.25132 0.06315 0.0
C1449 C 0.7236 0.24111 0.09342 0.0
C1450 C 0.72735 0.21843 0.09842 0.0
C1451 C 0.73042 0.20904 0.12698 0.0
C1452 C 0.72941 0.22211 0.15078 0.0
C1453 C 0.72527 0.24458 0.14608 0.0
C1454 C 0.72237 0.25409 0.11753 0.0
C1455 C 0.64217 0.27356 0.98605 0.0
C1456 C 0.63563 0.29544 0.98856 0.0
C1457 C 0.66113 0.26513 0.00066 0.0
C1458 C 0.67388 0.27834 0.0181 0.0
C1459 C 0.6665 0.29959 0.02265 0.0
C1460 C 0.64752 0.30814 0.00786 0.0
C1461 C 0.69659 0.27099 0.02693 0.0
C1462 C 0.70067 0.26244 0.05578 0.0
C1463 C 0.71339 0.26978 0.00543 0.0
C1464 C 0.70995 0.27896 0.97478 0.0
C1465 C 0.70523 0.30137 0.96877 0.0
C1466 C 0.70137 0.30982 0.93994 0.0
C1467 C 0.70239 0.29604 0.91688 0.0
C1468 C 0.70732 0.27379 0.92262 0.0
C1469 C 0.71113 0.26525 0.95144 0.0
H1470 H 0.69939 0.30261 0.89457 0.0
H1471 H 0.73178 0.21482 0.17288 0.0
H1472 H 0.29068 0.31279 0.46005 0.0
H1473 H 0.27157 0.2919 0.42383 0.0
H1474 H 0.3352 0.27036 0.39228 0.0
H1475 H 0.35452 0.29191 0.42785 0.0
H1476 H 0.28262 0.2992 0.3587 0.0
H1477 H 0.31942 0.21154 0.38072 0.0
H1478 H 0.33295 0.18733 0.42259 0.0
H1479 H 0.29233 0.22196 0.48139 0.0
H1480 H 0.2784 0.24616 0.43996 0.0
H1481 H 0.28185 0.23596 0.23472 0.0
H1482 H 0.29453 0.25088 0.28029 0.0
H1483 H 0.23612 0.22442 0.32511 0.0
H1484 H 0.22314 0.20973 0.27939 0.0
H1485 H 0.28038 0.21827 0.35661 0.0
H1486 H 0.23179 0.27328 0.30886 0.0
H1487 H 0.21843 0.29772 0.2671 0.0
H1488 H 0.2826 0.32906 0.26105 0.0
H1489 H 0.29645 0.30453 0.30245 0.0
C1490 C 0.30061 0.30343 0.44565 0.0
C1491 C 0.32409 0.30402 0.44674 0.0
C1492 C 0.28966 0.29154 0.42497 0.0
C1493 C 0.30201 0.2795 0.40564 0.0
C1494 C 0.32543 0.27942 0.40727 0.0
C1495 C 0.33641 0.29176 0.4275 0.0
C1496 C 0.2906 0.26844 0.38212 0.0
C1497 C 0.28209 0.28154 0.35824 0.0
C1498 C 0.28968 0.24535 0.38194 0.0
C1499 C 0.29796 0.23081 0.40713 0.0
C1500 C 0.3133 0.21395 0.40255 0.0
C1501 C 0.32107 0.20022 0.42625 0.0
C1502 C 0.31356 0.20313 0.45465 0.0
C1503 C 0.29822 0.21976 0.45941 0.0
C1504 C 0.29042 0.23352 0.4358 0.0
C1505 C 0.27185 0.23313 0.25437 0.0
C1506 C 0.2515 0.22176 0.25356 0.0
C1507 C 0.27907 0.24168 0.28031 0.0
C1508 C 0.26623 0.23873 0.30597 0.0
C1509 C 0.24626 0.22679 0.30551 0.0
C1510 C 0.23882 0.21856 0.27942 0.0
C1511 C 0.2732 0.24916 0.33275 0.0
C1512 C 0.28088 0.23596 0.35716 0.0
C1513 C 0.27348 0.27222 0.33349 0.0
C1514 C 0.2652 0.28693 0.30856 0.0
C1515 C 0.24311 0.28523 0.29843 0.0
C1516 C 0.23544 0.29913 0.27486 0.0
C1517 C 0.24967 0.3149 0.26138 0.0
C1518 C 0.2716 0.31681 0.27146 0.0
C1519 C 0.27937 0.30291 0.29496 0.0
H1520 H 0.24369 0.32566 0.24317 0.0
H1521 H 0.31959 0.19249 0.47295 0.0
H1522 H 0.19285 0.78125 0.94681 0.0
H1523 H 0.21054 0.76033 0.90911 0.0
H1524 H 0.21118 0.81866 0.84993 0.0
H1525 H 0.19393 0.83942 0.88757 0.0
H1526 H 0.19193 0.78392 0.82573 0.0
H1527 H 0.25861 0.79814 0.88288 0.0
H1528 H 0.28099 0.79573 0.92842 0.0
H1529 H 0.27852 0.72544 0.93144 0.0
H1530 H 0.25577 0.72744 0.88617 0.0
H1531 H 0.26106 0.77049 0.70705 0.0
H1532 H 0.24498 0.78135 0.75275 0.0
H1533 H 0.25413 0.71568 0.79221 0.0
H1534 H 0.27105 0.70479 0.74657 0.0
H1535 H 0.26571 0.74659 0.83016 0.0
H1536 H 0.20303 0.73146 0.7713 0.0
H1537 H 0.17956 0.73254 0.72679 0.0
H1538 H 0.17268 0.80233 0.72844 0.0
H1539 H 0.19639 0.80173 0.77274 0.0
C1540 C 0.19759 0.78965 0.92617 0.0
C1541 C 0.19247 0.81194 0.92025 0.0
C1542 C 0.2074 0.77769 0.90453 0.0
C1543 C 0.21216 0.78798 0.87673 0.0
C1544 C 0.20755 0.81039 0.87118 0.0
C1545 C 0.19776 0.82224 0.89269 0.0
C1546 C 0.22077 0.7755 0.85256 0.0
C1547 C 0.20812 0.77586 0.82663 0.0
C1548 C 0.24139 0.7641 0.8543 0.0
C1549 C 0.25531 0.76294 0.88129 0.0
C1550 C 0.26269 0.78217 0.89337 0.0
C1551 C 0.27546 0.78088 0.91912 0.0
C1552 C 0.28116 0.76045 0.93281 0.0
C1553 C 0.27408 0.74126 0.92081 0.0
C1554 C 0.26126 0.74246 0.89511 0.0
C1555 C 0.25989 0.75837 0.7255 0.0
C1556 C 0.26733 0.73676 0.72314 0.0
C1557 C 0.25051 0.76456 0.75155 0.0
C1558 C 0.2481 0.74925 0.77576 0.0
C1559 C 0.25576 0.72772 0.77373 0.0
C1560 C 0.26521 0.72148 0.74757 0.0
C1561 C 0.23732 0.75601 0.80288 0.0
C1562 C 0.2494 0.75439 0.82938 0.0
C1563 C 0.216 0.76608 0.80187 0.0
C1564 C 0.20162 0.76655 0.77527 0.0
C1565 C 0.19664 0.74706 0.76207 0.0
C1566 C 0.18328 0.74759 0.73688 0.0
C1567 C 0.17466 0.7675 0.72477 0.0
C1568 C 0.17937 0.78692 0.73785 0.0
C1569 C 0.19275 0.7865 0.76303 0.0
H1570 H 0.16432 0.76787 0.70527 0.0
H1571 H 0.29114 0.7595 0.95265 0.0
loop_
_geom_bond_atom_site_label_1
_geom_bond_atom_site_label_2
_geom_bond_distance
_geom_bond_site_symmetry_2
_ccdc_geom_bond_type
Zn0 O6 1.920 . S
Zn0 O12 1.898 . S
Zn0 O15 1.905 . S
Zn1 O9 1.905 . S
Zn1 O10 1.898 . S
Zn1 O18 1.920 . S
Zn2 O5 2.080 . S
Zn2 O8 2.114 1_554 S
Zn2 O11 2.120 1_554 S
Zn2 O13 2.120 . S
Zn2 O14 2.114 . S
Zn2 O17 2.080 1_554 S
C3 O8 1.166 . S
C3 O9 1.182 . S
C4 O10 1.167 . S
C4 O11 1.299 . S
O5 Zn2 2.080 . S
O5 C19 1.305 . S
O6 Zn0 1.920 . S
O6 C19 1.234 . S
C7 O12 1.167 . S
C7 O13 1.299 . S
O8 Zn2 2.114 1_556 S
O8 C3 1.166 . S
O9 Zn1 1.905 . S
O9 C3 1.182 . S
O10 Zn1 1.898 . S
O10 C4 1.167 . S
O11 Zn2 2.120 1_556 S
O11 C4 1.299 . S
O12 Zn0 1.898 . S
O12 C7 1.167 . S
O13 Zn2 2.120 . S
O13 C7 1.299 . S
O14 Zn2 2.114 . S
O14 C16 1.166 . S
O15 Zn0 1.905 . S
O15 C16 1.182 . S
C16 O14 1.166 . S
C16 O15 1.182 . S
O17 Zn2 2.080 1_556 S
O17 C20 1.305 . S
O18 Zn1 1.920 . S
O18 C20 1.234 . S
C19 O5 1.305 . S
C19 O6 1.234 . S
C20 O17 1.305 . S
C20 O18 1.234 . S
Zn21 O27 1.920 . S
Zn21 O33 1.898 . S
Zn21 O36 1.905 . S
Zn22 O30 1.905 . S
Zn22 O31 1.898 . S
Zn22 O39 1.920 . S
Zn23 O26 2.080 . S
Zn23 O29 2.114 . S
Zn23 O32 2.120 . S
Zn23 O34 2.120 . S
Zn23 O35 2.114 . S
Zn23 O38 2.080 . S
C24 O29 1.166 . S
C24 O30 1.182 . S
C25 O31 1.167 . S
C25 O32 1.299 . S
O26 Zn23 2.080 . S
O26 C40 1.305 . S
O27 Zn21 1.920 . S
O27 C40 1.234 . S
C28 O33 1.167 . S
C28 O34 1.299 . S
O29 Zn23 2.114 . S
O29 C24 1.166 . S
O30 Zn22 1.905 . S
O30 C24 1.182 . S
O31 Zn22 1.898 . S
O31 C25 1.167 . S
O32 Zn23 2.120 . S
O32 C25 1.299 . S
O33 Zn21 1.898 . S
O33 C28 1.167 . S
O34 Zn23 2.120 . S
O34 C28 1.299 . S
O35 Zn23 2.114 . S
O35 C37 1.166 . S
O36 Zn21 1.905 . S
O36 C37 1.182 . S
C37 O35 1.166 . S
C37 O36 1.182 . S
O38 Zn23 2.080 . S
O38 C41 1.305 . S
O39 Zn22 1.920 . S
O39 C41 1.234 . S
C40 O26 1.305 . S
C40 O27 1.234 . S
C41 O38 1.305 . S
C41 O39 1.234 . S
Zn42 O48 1.920 1_556 S
Zn42 O54 1.898 . S
Zn42 O57 1.905 1_556 S
Zn43 O51 1.905 . S
Zn43 O52 1.898 . S
Zn43 O60 1.920 . S
Zn44 O47 2.080 . S
Zn44 O50 2.114 . S
Zn44 O53 2.120 . S
Zn44 O55 2.120 . S
Zn44 O56 2.114 . S
Zn44 O59 2.080 . S
C45 O50 1.166 . S
C45 O51 1.182 . S
C46 O52 1.167 . S
C46 O53 1.299 . S
O47 Zn44 2.080 . S
O47 C61 1.305 . S
O48 Zn42 1.920 1_554 S
O48 C61 1.234 . S
C49 O54 1.166 1_554 S
C49 O55 1.300 . S
O50 Zn44 2.114 . S
O50 C45 1.166 . S
O51 Zn43 1.905 . S
O51 C45 1.182 . S
O52 Zn43 1.898 . S
O52 C46 1.167 . S
O53 Zn44 2.120 . S
O53 C46 1.299 . S
O54 Zn42 1.898 . S
O54 C49 1.166 1_556 S
O55 Zn44 2.120 . S
O55 C49 1.300 . S
O56 Zn44 2.114 . S
O56 C58 1.166 . S
O57 Zn42 1.905 1_554 S
O57 C58 1.182 . S
C58 O56 1.166 . S
C58 O57 1.182 . S
O59 Zn44 2.080 . S
O59 C62 1.305 . S
O60 Zn43 1.920 . S
O60 C62 1.234 . S
C61 O47 1.305 . S
C61 O48 1.234 . S
C62 O59 1.305 . S
C62 O60 1.234 . S
Zn63 O69 1.920 . S
Zn63 O75 1.898 . S
Zn63 O78 1.905 . S
Zn64 O72 1.905 . S
Zn64 O73 1.898 . S
Zn64 O81 1.920 . S
Zn65 O68 2.080 . S
Zn65 O71 2.114 . S
Zn65 O74 2.120 . S
Zn65 O76 2.120 . S
Zn65 O77 2.114 . S
Zn65 O80 2.080 . S
C66 O71 1.166 . S
C66 O72 1.182 . S
C67 O73 1.167 . S
C67 O74 1.299 . S
O68 Zn65 2.080 . S
O68 C82 1.305 . S
O69 Zn63 1.920 . S
O69 C82 1.234 . S
C70 O75 1.167 . S
C70 O76 1.299 . S
O71 Zn65 2.114 . S
O71 C66 1.166 . S
O72 Zn64 1.905 . S
O72 C66 1.182 . S
O73 Zn64 1.898 . S
O73 C67 1.167 . S
O74 Zn65 2.120 . S
O74 C67 1.299 . S
O75 Zn63 1.898 . S
O75 C70 1.167 . S
O76 Zn65 2.120 . S
O76 C70 1.299 . S
O77 Zn65 2.114 . S
O77 C79 1.166 . S
O78 Zn63 1.905 . S
O78 C79 1.182 . S
C79 O77 1.166 . S
C79 O78 1.182 . S
O80 Zn65 2.080 . S
O80 C83 1.305 . S
O81 Zn64 1.920 . S
O81 C83 1.234 . S
C82 O68 1.305 . S
C82 O69 1.234 . S
C83 O80 1.305 . S
C83 O81 1.234 . S
C84 C85 1.384 . S
C84 H97 0.947 . S
C84 C119 1.382 . S
C85 C84 1.384 . S
C85 C86 1.378 . S
C86 C85 1.378 . S
C86 C87 1.378 . S
C86 H98 0.952 . S
C87 C86 1.378 . S
C87 H99 0.950 . S
C87 C118 1.383 . S
H88 C107 0.947 . S
H89 C108 0.946 . S
H90 C110 0.953 . S
H91 C111 0.945 . S
H92 C113 0.952 . S
H93 C114 0.949 . S
H94 C116 0.950 . S
H95 C117 0.948 . S
H96 C119 0.951 . S
H97 C84 0.947 . S
H98 C86 0.952 . S
H99 C87 0.950 . S
N100 C103 1.382 . S
N100 C105 1.363 . S
N101 C103 1.371 . S
N101 C104 1.372 . S
N102 C104 1.361 . S
N102 C105 1.377 . S
C103 N100 1.382 . S
C103 N101 1.371 . S
C103 C106 1.480 . S
C104 N101 1.372 . S
C104 N102 1.361 . S
C104 C112 1.457 . S
C105 N100 1.363 . S
C105 N102 1.377 . S
C105 C118 1.479 . S
C106 C103 1.480 . S
C106 C107 1.383 . S
C106 C111 1.385 . S
C107 H88 0.947 . S
C107 C106 1.383 . S
C107 C108 1.388 . S
C108 H89 0.946 . S
C108 C107 1.388 . S
C108 C109 1.384 . S
C109 C108 1.384 . S
C109 C110 1.377 . S
C110 H90 0.953 . S
C110 C109 1.377 . S
C110 C111 1.369 . S
C111 H91 0.945 . S
C111 C106 1.385 . S
C111 C110 1.369 . S
C112 C104 1.457 . S
C112 C113 1.372 . S
C112 C117 1.364 . S
C113 H92 0.952 . S
C113 C112 1.372 . S
C113 C114 1.389 . S
C114 H93 0.949 . S
C114 C113 1.389 . S
C114 C115 1.387 . S
C115 C114 1.387 . S
C115 C116 1.372 . S
C116 H94 0.950 . S
C116 C115 1.372 . S
C116 C117 1.379 . S
C117 H95 0.948 . S
C117 C112 1.364 . S
C117 C116 1.379 . S
C118 C87 1.383 . S
C118 C105 1.479 . S
C118 C119 1.398 . S
C119 C84 1.382 . S
C119 H96 0.951 . S
C119 C118 1.398 . S
C120 C121 1.384 . S
C120 H133 0.947 . S
C120 C155 1.382 . S
C121 C120 1.384 . S
C121 C122 1.378 . S
C122 C121 1.378 . S
C122 C123 1.378 . S
C122 H134 0.952 . S
C123 C122 1.378 . S
C123 H135 0.950 . S
C123 C154 1.383 . S
H124 C143 0.947 . S
H125 C144 0.946 . S
H126 C146 0.953 . S
H127 C147 0.945 . S
H128 C149 0.952 . S
H129 C150 0.949 . S
H130 C152 0.950 . S
H131 C153 0.948 . S
H132 C155 0.951 . S
H133 C120 0.947 . S
H134 C122 0.952 . S
H135 C123 0.950 . S
N136 C139 1.382 . S
N136 C141 1.363 . S
N137 C139 1.371 . S
N137 C140 1.372 . S
N138 C140 1.361 . S
N138 C141 1.377 . S
C139 N136 1.382 . S
C139 N137 1.371 . S
C139 C142 1.480 . S
C140 N137 1.372 . S
C140 N138 1.361 . S
C140 C148 1.457 . S
C141 N136 1.363 . S
C141 N138 1.377 . S
C141 C154 1.479 . S
C142 C139 1.480 . S
C142 C143 1.383 . S
C142 C147 1.385 . S
C143 H124 0.947 . S
C143 C142 1.383 . S
C143 C144 1.388 . S
C144 H125 0.946 . S
C144 C143 1.388 . S
C144 C145 1.384 . S
C145 C144 1.384 . S
C145 C146 1.377 . S
C146 H126 0.953 . S
C146 C145 1.377 . S
C146 C147 1.369 . S
C147 H127 0.945 . S
C147 C142 1.385 . S
C147 C146 1.369 . S
C148 C140 1.457 . S
C148 C149 1.372 . S
C148 C153 1.364 . S
C149 H128 0.952 . S
C149 C148 1.372 . S
C149 C150 1.389 . S
C150 H129 0.949 . S
C150 C149 1.389 . S
C150 C151 1.387 . S
C151 C150 1.387 . S
C151 C152 1.372 . S
C152 H130 0.950 . S
C152 C151 1.372 . S
C152 C153 1.379 . S
C153 H131 0.948 . S
C153 C148 1.364 . S
C153 C152 1.379 . S
C154 C123 1.383 . S
C154 C141 1.479 . S
C154 C155 1.398 . S
C155 C120 1.382 . S
C155 H132 0.951 . S
C155 C154 1.398 . S
C156 C157 1.384 . S
C156 H169 0.947 . S
C156 C191 1.382 . S
C157 C156 1.384 . S
C157 C158 1.378 . S
C158 C157 1.378 . S
C158 C159 1.378 . S
C158 H170 0.952 . S
C159 C158 1.378 . S
C159 H171 0.950 . S
C159 C190 1.383 . S
H160 C179 0.947 . S
H161 C180 0.946 . S
H162 C182 0.953 . S
H163 C183 0.945 . S
H164 C185 0.952 . S
H165 C186 0.949 . S
H166 C188 0.950 . S
H167 C189 0.948 . S
H168 C191 0.951 . S
H169 C156 0.947 . S
H170 C158 0.952 . S
H171 C159 0.950 . S
N172 C175 1.382 . S
N172 C177 1.363 . S
N173 C175 1.371 . S
N173 C176 1.372 . S
N174 C176 1.361 . S
N174 C177 1.377 . S
C175 N172 1.382 . S
C175 N173 1.371 . S
C175 C178 1.480 . S
C176 N173 1.372 . S
C176 N174 1.361 . S
C176 C184 1.457 . S
C177 N172 1.363 . S
C177 N174 1.377 . S
C177 C190 1.479 . S
C178 C175 1.480 . S
C178 C179 1.383 . S
C178 C183 1.385 . S
C179 H160 0.947 . S
C179 C178 1.383 . S
C179 C180 1.388 . S
C180 H161 0.946 . S
C180 C179 1.388 . S
C180 C181 1.384 . S
C181 C180 1.384 . S
C181 C182 1.377 . S
C182 H162 0.953 . S
C182 C181 1.377 . S
C182 C183 1.369 . S
C183 H163 0.945 . S
C183 C178 1.385 . S
C183 C182 1.369 . S
C184 C176 1.457 . S
C184 C185 1.372 . S
C184 C189 1.364 . S
C185 H164 0.952 . S
C185 C184 1.372 . S
C185 C186 1.389 . S
C186 H165 0.949 . S
C186 C185 1.389 . S
C186 C187 1.387 . S
C187 C186 1.387 . S
C187 C188 1.372 . S
C188 H166 0.950 . S
C188 C187 1.372 . S
C188 C189 1.379 . S
C189 H167 0.948 . S
C189 C184 1.364 . S
C189 C188 1.379 . S
C190 C159 1.383 . S
C190 C177 1.479 . S
C190 C191 1.398 . S
C191 C156 1.382 . S
C191 H168 0.951 . S
C191 C190 1.398 . S
C192 C193 1.384 . S
C192 H205 0.947 . S
C192 C227 1.382 . S
C193 C192 1.384 . S
C193 C194 1.378 . S
C194 C193 1.378 . S
C194 C195 1.378 . S
C194 H206 0.952 . S
C195 C194 1.378 . S
C195 H207 0.950 . S
C195 C226 1.383 . S
H196 C215 0.947 . S
H197 C216 0.946 . S
H198 C218 0.953 . S
H199 C219 0.945 . S
H200 C221 0.952 . S
H201 C222 0.949 . S
H202 C224 0.950 . S
H203 C225 0.948 . S
H204 C227 0.951 . S
H205 C192 0.947 . S
H206 C194 0.952 . S
H207 C195 0.950 . S
N208 C211 1.382 . S
N208 C213 1.363 . S
N209 C211 1.371 . S
N209 C212 1.372 . S
N210 C212 1.361 . S
N210 C213 1.377 . S
C211 N208 1.382 . S
C211 N209 1.371 . S
C211 C214 1.480 . S
C212 N209 1.372 . S
C212 N210 1.361 . S
C212 C220 1.457 . S
C213 N208 1.363 . S
C213 N210 1.377 . S
C213 C226 1.479 . S
C214 C211 1.480 . S
C214 C215 1.383 . S
C214 C219 1.385 . S
C215 H196 0.947 . S
C215 C214 1.383 . S
C215 C216 1.388 . S
C216 H197 0.946 . S
C216 C215 1.388 . S
C216 C217 1.384 . S
C217 C216 1.384 . S
C217 C218 1.377 . S
C218 H198 0.953 . S
C218 C217 1.377 . S
C218 C219 1.369 . S
C219 H199 0.945 . S
C219 C214 1.385 . S
C219 C218 1.369 . S
C220 C212 1.457 . S
C220 C221 1.372 . S
C220 C225 1.364 . S
C221 H200 0.952 . S
C221 C220 1.372 . S
C221 C222 1.389 . S
C222 H201 0.949 . S
C222 C221 1.389 . S
C222 C223 1.387 . S
C223 C222 1.387 . S
C223 C224 1.372 . S
C224 H202 0.950 . S
C224 C223 1.372 . S
C224 C225 1.379 . S
C225 H203 0.948 . S
C225 C220 1.364 . S
C225 C224 1.379 . S
C226 C195 1.383 . S
C226 C213 1.479 . S
C226 C227 1.398 . S
C227 C192 1.382 . S
C227 H204 0.951 . S
C227 C226 1.398 . S
C228 C229 1.384 . S
C228 H241 0.947 . S
C228 C263 1.382 . S
C229 C228 1.384 . S
C229 C230 1.378 . S
C230 C229 1.378 . S
C230 C231 1.378 . S
C230 H242 0.952 . S
C231 C230 1.378 . S
C231 H243 0.950 . S
C231 C262 1.383 . S
H232 C251 0.947 . S
H233 C252 0.946 . S
H234 C254 0.953 . S
H235 C255 0.945 . S
H236 C257 0.952 . S
H237 C258 0.949 . S
H238 C260 0.950 . S
H239 C261 0.948 . S
H240 C263 0.951 . S
H241 C228 0.947 . S
H242 C230 0.952 . S
H243 C231 0.950 . S
N244 C247 1.382 . S
N244 C249 1.363 . S
N245 C247 1.371 . S
N245 C248 1.372 . S
N246 C248 1.361 . S
N246 C249 1.377 . S
C247 N244 1.382 . S
C247 N245 1.371 . S
C247 C250 1.480 . S
C248 N245 1.372 . S
C248 N246 1.361 . S
C248 C256 1.457 . S
C249 N244 1.363 . S
C249 N246 1.377 . S
C249 C262 1.479 . S
C250 C247 1.480 . S
C250 C251 1.383 . S
C250 C255 1.385 . S
C251 H232 0.947 . S
C251 C250 1.383 . S
C251 C252 1.388 . S
C252 H233 0.946 . S
C252 C251 1.388 . S
C252 C253 1.384 . S
C253 C252 1.384 . S
C253 C254 1.377 . S
C254 H234 0.953 . S
C254 C253 1.377 . S
C254 C255 1.369 . S
C255 H235 0.945 . S
C255 C250 1.385 . S
C255 C254 1.369 . S
C256 C248 1.457 . S
C256 C257 1.372 . S
C256 C261 1.364 . S
C257 H236 0.952 . S
C257 C256 1.372 . S
C257 C258 1.389 . S
C258 H237 0.949 . S
C258 C257 1.389 . S
C258 C259 1.387 . S
C259 C258 1.387 . S
C259 C260 1.372 . S
C260 H238 0.950 . S
C260 C259 1.372 . S
C260 C261 1.379 . S
C261 H239 0.948 . S
C261 C256 1.364 . S
C261 C260 1.379 . S
C262 C231 1.383 . S
C262 C249 1.479 . S
C262 C263 1.398 . S
C263 C228 1.382 . S
C263 H240 0.951 . S
C263 C262 1.398 . S
C264 C265 1.384 . S
C264 H277 0.947 . S
C264 C299 1.382 . S
C265 C264 1.384 . S
C265 C266 1.378 . S
C266 C265 1.378 . S
C266 C267 1.378 . S
C266 H278 0.952 . S
C267 C266 1.378 . S
C267 H279 0.950 . S
C267 C298 1.383 . S
H268 C287 0.947 . S
H269 C288 0.950 . S
H270 C290 0.953 . S
H271 C291 0.945 . S
H272 C293 0.952 . S
H273 C294 0.949 . S
H274 C296 0.950 . S
H275 C297 0.948 . S
H276 C299 0.951 . S
H277 C264 0.947 . S
H278 C266 0.952 . S
H279 C267 0.950 . S
N280 C283 1.382 . S
N280 C285 1.363 . S
N281 C283 1.371 . S
N281 C284 1.372 . S
N282 C284 1.361 . S
N282 C285 1.377 . S
C283 N280 1.382 . S
C283 N281 1.371 . S
C283 C286 1.480 . S
C284 N281 1.372 . S
C284 N282 1.361 . S
C284 C292 1.457 . S
C285 N280 1.363 . S
C285 N282 1.377 . S
C285 C298 1.479 . S
C286 C283 1.480 . S
C286 C287 1.383 . S
C286 C291 1.385 . S
C287 H268 0.947 . S
C287 C286 1.383 . S
C287 C288 1.379 1_455 S
C288 H269 0.950 . S
C288 C287 1.379 1_655 S
C288 C289 1.389 . S
C289 C288 1.389 . S
C289 C290 1.377 . S
C290 H270 0.953 . S
C290 C289 1.377 . S
C290 C291 1.369 1_655 S
C291 H271 0.945 . S
C291 C286 1.385 . S
C291 C290 1.369 1_455 S
C292 C284 1.457 . S
C292 C293 1.372 . S
C292 C297 1.364 . S
C293 H272 0.952 . S
C293 C292 1.372 . S
C293 C294 1.389 . S
C294 H273 0.949 . S
C294 C293 1.389 . S
C294 C295 1.387 . S
C295 C294 1.387 . S
C295 C296 1.372 . S
C296 H274 0.950 . S
C296 C295 1.372 . S
C296 C297 1.379 . S
C297 H275 0.948 . S
C297 C292 1.364 . S
C297 C296 1.379 . S
C298 C267 1.383 . S
C298 C285 1.479 . S
C298 C299 1.398 . S
C299 C264 1.382 . S
C299 H276 0.951 . S
C299 C298 1.398 . S
C300 C301 1.384 . S
C300 H313 0.947 . S
C300 C335 1.382 . S
C301 C300 1.384 . S
C301 C302 1.378 . S
C302 C301 1.378 . S
C302 C303 1.378 . S
C302 H314 0.952 . S
C303 C302 1.378 . S
C303 H315 0.950 . S
C303 C334 1.383 . S
H304 C323 0.947 . S
H305 C324 0.946 . S
H306 C326 0.953 . S
H307 C327 0.945 . S
H308 C329 0.952 . S
H309 C330 0.949 . S
H310 C332 0.950 . S
H311 C333 0.948 . S
H312 C335 0.951 . S
H313 C300 0.947 . S
H314 C302 0.952 . S
H315 C303 0.950 . S
N316 C319 1.382 . S
N316 C321 1.363 . S
N317 C319 1.371 . S
N317 C320 1.372 . S
N318 C320 1.361 . S
N318 C321 1.377 . S
C319 N316 1.382 . S
C319 N317 1.371 . S
C319 C322 1.480 . S
C320 N317 1.372 . S
C320 N318 1.361 . S
C320 C328 1.457 . S
C321 N316 1.363 . S
C321 N318 1.377 . S
C321 C334 1.479 . S
C322 C319 1.480 . S
C322 C323 1.383 . S
C322 C327 1.385 . S
C323 H304 0.947 . S
C323 C322 1.383 . S
C323 C324 1.388 . S
C324 H305 0.946 . S
C324 C323 1.388 . S
C324 C325 1.384 . S
C325 C324 1.384 . S
C325 C326 1.377 . S
C326 H306 0.953 . S
C326 C325 1.377 . S
C326 C327 1.369 . S
C327 H307 0.945 . S
C327 C322 1.385 . S
C327 C326 1.369 . S
C328 C320 1.457 . S
C328 C329 1.372 . S
C328 C333 1.364 . S
C329 H308 0.952 . S
C329 C328 1.372 . S
C329 C330 1.389 . S
C330 H309 0.949 . S
C330 C329 1.389 . S
C330 C331 1.387 . S
C331 C330 1.387 . S
C331 C332 1.372 . S
C332 H310 0.950 . S
C332 C331 1.372 . S
C332 C333 1.379 . S
C333 H311 0.948 . S
C333 C328 1.364 . S
C333 C332 1.379 . S
C334 C303 1.383 . S
C334 C321 1.479 . S
C334 C335 1.398 . S
C335 C300 1.382 . S
C335 H312 0.951 . S
C335 C334 1.398 . S
C336 C337 1.384 . S
C336 H349 0.947 . S
C336 C371 1.382 . S
C337 C336 1.384 . S
C337 C338 1.378 . S
C338 C337 1.378 . S
C338 C339 1.378 . S
C338 H350 0.952 . S
C339 C338 1.378 . S
C339 H351 0.950 . S
C339 C370 1.383 . S
H340 C359 0.947 . S
H341 C360 0.946 . S
H342 C362 0.953 . S
H343 C363 0.945 . S
H344 C365 0.952 . S
H345 C366 0.949 . S
H346 C368 0.950 . S
H347 C369 0.948 . S
H348 C371 0.951 . S
H349 C336 0.947 . S
H350 C338 0.952 . S
H351 C339 0.950 . S
N352 C355 1.382 . S
N352 C357 1.363 . S
N353 C355 1.371 . S
N353 C356 1.372 . S
N354 C356 1.361 . S
N354 C357 1.377 . S
C355 N352 1.382 . S
C355 N353 1.371 . S
C355 C358 1.480 . S
C356 N353 1.372 . S
C356 N354 1.361 . S
C356 C364 1.457 . S
C357 N352 1.363 . S
C357 N354 1.377 . S
C357 C370 1.479 . S
C358 C355 1.480 . S
C358 C359 1.383 . S
C358 C363 1.385 . S
C359 H340 0.947 . S
C359 C358 1.383 . S
C359 C360 1.388 . S
C360 H341 0.946 . S
C360 C359 1.388 . S
C360 C361 1.384 . S
C361 C360 1.384 . S
C361 C362 1.377 . S
C362 H342 0.953 . S
C362 C361 1.377 . S
C362 C363 1.369 . S
C363 H343 0.945 . S
C363 C358 1.385 . S
C363 C362 1.369 . S
C364 C356 1.457 . S
C364 C365 1.372 . S
C364 C369 1.364 . S
C365 H344 0.952 . S
C365 C364 1.372 . S
C365 C366 1.389 . S
C366 H345 0.949 . S
C366 C365 1.389 . S
C366 C367 1.387 . S
C367 C366 1.387 . S
C367 C368 1.372 . S
C368 H346 0.950 . S
C368 C367 1.372 . S
C368 C369 1.379 . S
C369 H347 0.948 . S
C369 C364 1.364 . S
C369 C368 1.379 . S
C370 C339 1.383 . S
C370 C357 1.479 . S
C370 C371 1.398 . S
C371 C336 1.382 . S
C371 H348 0.951 . S
C371 C370 1.398 . S
H372 C390 0.951 . S
H373 C392 0.951 . S
H374 C394 0.950 . S
H375 C395 0.950 . S
H376 C397 0.950 . S
H377 C400 0.950 . S
H378 C401 0.950 . S
H379 C403 0.950 . S
H380 C404 0.950 . S
H381 C405 0.951 . S
H382 C407 0.951 . S
H383 C409 0.950 . S
H384 C410 0.950 . S
H385 C412 0.950 . S
H386 C415 0.950 . S
H387 C416 0.950 . S
H388 C418 0.950 . S
H389 C419 0.950 . S
C390 H372 0.951 . S
C390 C391 1.366 . S
C390 C392 1.388 . S
C391 C390 1.366 . S
C391 C395 1.385 . S
C392 H373 0.951 . S
C392 C390 1.388 . S
C392 C393 1.366 . S
C393 C392 1.366 . S
C393 C394 1.414 . S
C393 C396 1.499 . S
C394 H374 0.950 . S
C394 C393 1.414 . S
C394 C395 1.374 . S
C395 H375 0.950 . S
C395 C391 1.385 . S
C395 C394 1.374 . S
C396 C393 1.499 . S
C396 C397 1.373 . S
C396 C398 1.389 . S
C397 H376 0.950 . S
C397 C396 1.373 . S
C397 C413 1.377 . S
C398 C396 1.389 . S
C398 C399 1.524 . S
C398 C412 1.377 . S
C399 C398 1.524 . S
C399 C400 1.397 . S
C399 C404 1.363 . S
C400 H377 0.950 . S
C400 C399 1.397 . S
C400 C401 1.334 . S
C401 H378 0.950 . S
C401 C400 1.334 . S
C401 C402 1.287 . S
C402 C401 1.287 . S
C402 C403 1.524 . S
C402 H421 0.913 . S
C403 H379 0.950 . S
C403 C402 1.524 . S
C403 C404 1.415 . S
C404 H380 0.950 . S
C404 C399 1.363 . S
C404 C403 1.415 . S
C405 H381 0.951 . S
C405 C406 1.366 . S
C405 C407 1.388 . S
C406 C405 1.366 . S
C406 C410 1.385 . S
C407 H382 0.951 . S
C407 C405 1.388 . S
C407 C408 1.366 . S
C408 C407 1.366 . S
C408 C409 1.414 . S
C408 C411 1.499 1_545 S
C409 H383 0.950 . S
C409 C408 1.414 . S
C409 C410 1.374 . S
C410 H384 0.950 . S
C410 C406 1.385 . S
C410 C409 1.374 . S
C411 C408 1.499 1_565 S
C411 C412 1.373 . S
C411 C413 1.389 . S
C412 H385 0.950 . S
C412 C398 1.377 . S
C412 C411 1.373 . S
C413 C397 1.377 . S
C413 C411 1.389 . S
C413 C414 1.524 1_565 S
C414 C413 1.524 1_545 S
C414 C415 1.397 . S
C414 C419 1.363 . S
C415 H386 0.950 . S
C415 C414 1.397 . S
C415 C416 1.334 . S
C416 H387 0.950 . S
C416 C415 1.334 . S
C416 C417 1.287 . S
C417 C416 1.287 . S
C417 C418 1.524 . S
C417 H420 0.999 . S
C418 H388 0.950 . S
C418 C417 1.524 . S
C418 C419 1.415 . S
C419 H389 0.950 . S
C419 C414 1.363 . S
C419 C418 1.415 . S
H420 C417 0.999 . S
H421 C402 0.913 . S
H422 C440 0.951 . S
H423 C442 0.951 . S
H424 C444 0.950 . S
H425 C445 0.950 . S
H426 C447 0.950 . S
H427 C450 0.950 . S
H428 C451 0.950 . S
H429 C453 0.950 . S
H430 C454 0.950 . S
H431 C455 0.951 . S
H432 C457 0.951 . S
H433 C459 0.950 . S
H434 C460 0.950 . S
H435 C462 0.950 . S
H436 C465 0.950 . S
H437 C466 0.950 . S
H438 C468 0.950 . S
H439 C469 0.950 . S
C440 H422 0.951 . S
C440 C441 1.366 . S
C440 C442 1.388 . S
C441 C440 1.366 . S
C441 C445 1.385 . S
C442 H423 0.951 . S
C442 C440 1.388 . S
C442 C443 1.366 . S
C443 C442 1.366 . S
C443 C444 1.414 . S
C443 C446 1.499 . S
C444 H424 0.950 . S
C444 C443 1.414 . S
C444 C445 1.374 . S
C445 H425 0.950 . S
C445 C441 1.385 . S
C445 C444 1.374 . S
C446 C443 1.499 . S
C446 C447 1.373 . S
C446 C448 1.389 . S
C447 H426 0.950 . S
C447 C446 1.373 . S
C447 C463 1.377 . S
C448 C446 1.389 . S
C448 C449 1.524 . S
C448 C462 1.377 . S
C449 C448 1.524 . S
C449 C450 1.397 . S
C449 C454 1.363 . S
C450 H427 0.950 . S
C450 C449 1.397 . S
C450 C451 1.334 . S
C451 H428 0.950 . S
C451 C450 1.334 . S
C451 C452 1.287 . S
C452 C451 1.287 . S
C452 C453 1.524 . S
C452 H471 0.913 . S
C453 H429 0.950 . S
C453 C452 1.524 . S
C453 C454 1.415 . S
C454 H430 0.950 . S
C454 C449 1.363 . S
C454 C453 1.415 . S
C455 H431 0.951 . S
C455 C456 1.366 . S
C455 C457 1.388 . S
C456 C455 1.366 . S
C456 C460 1.385 . S
C457 H432 0.951 . S
C457 C455 1.388 . S
C457 C458 1.366 . S
C458 C457 1.366 . S
C458 C459 1.414 . S
C458 C461 1.499 . S
C459 H433 0.950 . S
C459 C458 1.414 . S
C459 C460 1.374 . S
C460 H434 0.950 . S
C460 C456 1.385 . S
C460 C459 1.374 . S
C461 C458 1.499 . S
C461 C462 1.373 . S
C461 C463 1.389 . S
C462 H435 0.950 . S
C462 C448 1.377 . S
C462 C461 1.373 . S
C463 C447 1.377 . S
C463 C461 1.389 . S
C463 C464 1.524 . S
C464 C463 1.524 . S
C464 C465 1.397 . S
C464 C469 1.363 . S
C465 H436 0.950 . S
C465 C464 1.397 . S
C465 C466 1.334 . S
C466 H437 0.950 . S
C466 C465 1.334 . S
C466 C467 1.287 . S
C467 C466 1.287 . S
C467 C468 1.524 . S
C467 H470 0.999 . S
C468 H438 0.950 . S
C468 C467 1.524 . S
C468 C469 1.415 . S
C469 H439 0.950 . S
C469 C464 1.363 . S
C469 C468 1.415 . S
H470 C467 0.999 . S
H471 C452 0.913 . S
H472 C490 0.951 . S
H473 C492 0.951 . S
H474 C494 0.950 . S
H475 C495 0.950 . S
H476 C497 0.950 . S
H477 C500 0.950 . S
H478 C501 0.950 . S
H479 C503 0.956 . S
H480 C504 0.950 . S
H481 C505 0.951 . S
H482 C507 0.951 . S
H483 C509 0.950 . S
H484 C510 0.950 . S
H485 C512 0.950 . S
H486 C515 0.950 . S
H487 C516 0.950 . S
H488 C518 0.950 . S
H489 C519 0.950 . S
C490 H472 0.951 . S
C490 C491 1.366 . S
C490 C492 1.388 . S
C491 C490 1.366 . S
C491 C495 1.385 . S
C492 H473 0.951 . S
C492 C490 1.388 . S
C492 C493 1.366 . S
C493 C492 1.366 . S
C493 C494 1.414 . S
C493 C496 1.499 . S
C494 H474 0.950 . S
C494 C493 1.414 . S
C494 C495 1.374 . S
C495 H475 0.950 . S
C495 C491 1.385 . S
C495 C494 1.374 . S
C496 C493 1.499 . S
C496 C497 1.373 . S
C496 C498 1.389 . S
C497 H476 0.950 . S
C497 C496 1.373 . S
C497 C513 1.377 . S
C498 C496 1.389 . S
C498 C499 1.524 . S
C498 C512 1.377 . S
C499 C498 1.524 . S
C499 C500 1.397 . S
C499 C504 1.363 . S
C500 H477 0.950 . S
C500 C499 1.397 . S
C500 C501 1.334 . S
C501 H478 0.950 . S
C501 C500 1.334 . S
C501 C502 1.287 . S
C502 C501 1.287 . S
C502 C503 1.524 . S
C502 H521 0.913 . S
C503 H479 0.956 . S
C503 C502 1.524 . S
C503 C504 1.415 . S
C504 H480 0.950 . S
C504 C499 1.363 . S
C504 C503 1.415 . S
C505 H481 0.951 . S
C505 C506 1.366 . S
C505 C507 1.388 1_565 S
C506 C505 1.366 . S
C506 C510 1.385 . S
C507 H482 0.951 . S
C507 C505 1.388 1_545 S
C507 C508 1.366 . S
C508 C507 1.366 . S
C508 C509 1.414 1_545 S
C508 C511 1.499 . S
C509 H483 0.950 . S
C509 C508 1.414 1_565 S
C509 C510 1.374 . S
C510 H484 0.950 . S
C510 C506 1.385 . S
C510 C509 1.374 . S
C511 C508 1.499 . S
C511 C512 1.373 . S
C511 C513 1.389 . S
C512 H485 0.950 . S
C512 C498 1.377 . S
C512 C511 1.373 . S
C513 C497 1.377 . S
C513 C511 1.389 . S
C513 C514 1.524 . S
C514 C513 1.524 . S
C514 C515 1.397 . S
C514 C519 1.363 . S
C515 H486 0.950 . S
C515 C514 1.397 . S
C515 C516 1.334 . S
C516 H487 0.950 . S
C516 C515 1.334 . S
C516 C517 1.287 . S
C517 C516 1.287 . S
C517 C518 1.524 . S
C517 H520 0.999 . S
C518 H488 0.950 . S
C518 C517 1.524 . S
C518 C519 1.415 . S
C519 H489 0.950 . S
C519 C514 1.363 . S
C519 C518 1.415 . S
H520 C517 0.999 . S
H521 C502 0.913 . S
H522 C540 0.951 . S
H523 C542 0.951 . S
H524 C544 0.950 . S
H525 C545 0.950 . S
H526 C547 0.950 . S
H527 C550 0.950 . S
H528 C551 0.950 . S
H529 C553 0.950 . S
H530 C554 0.950 . S
H531 C555 0.951 . S
H532 C557 0.951 . S
H533 C559 0.950 . S
H534 C560 0.950 . S
H535 C562 0.950 . S
H536 C565 0.950 . S
H537 C566 0.950 . S
H538 C568 0.950 . S
H539 C569 0.950 . S
C540 H522 0.951 . S
C540 C541 1.366 . S
C540 C542 1.388 . S
C541 C540 1.366 . S
C541 C545 1.385 . S
C542 H523 0.951 . S
C542 C540 1.388 . S
C542 C543 1.366 . S
C543 C542 1.366 . S
C543 C544 1.414 . S
C543 C546 1.499 . S
C544 H524 0.950 . S
C544 C543 1.414 . S
C544 C545 1.374 . S
C545 H525 0.950 . S
C545 C541 1.385 . S
C545 C544 1.374 . S
C546 C543 1.499 . S
C546 C547 1.373 . S
C546 C548 1.389 . S
C547 H526 0.950 . S
C547 C546 1.373 . S
C547 C563 1.377 . S
C548 C546 1.389 . S
C548 C549 1.524 . S
C548 C562 1.377 . S
C549 C548 1.524 . S
C549 C550 1.397 . S
C549 C554 1.363 . S
C550 H527 0.950 . S
C550 C549 1.397 . S
C550 C551 1.334 . S
C551 H528 0.950 . S
C551 C550 1.334 . S
C551 C552 1.287 . S
C552 C551 1.287 . S
C552 C553 1.524 . S
C552 H571 0.913 . S
C553 H529 0.950 . S
C553 C552 1.524 . S
C553 C554 1.415 . S
C554 H530 0.950 . S
C554 C549 1.363 . S
C554 C553 1.415 . S
C555 H531 0.951 . S
C555 C556 1.366 . S
C555 C557 1.388 . S
C556 C555 1.366 . S
C556 C560 1.385 . S
C557 H532 0.951 . S
C557 C555 1.388 . S
C557 C558 1.366 . S
C558 C557 1.366 . S
C558 C559 1.414 . S
C558 C561 1.499 . S
C559 H533 0.950 . S
C559 C558 1.414 . S
C559 C560 1.374 . S
C560 H534 0.950 . S
C560 C556 1.385 . S
C560 C559 1.374 . S
C561 C558 1.499 . S
C561 C562 1.373 . S
C561 C563 1.389 . S
C562 H535 0.950 . S
C562 C548 1.377 . S
C562 C561 1.373 . S
C563 C547 1.377 . S
C563 C561 1.389 . S
C563 C564 1.524 . S
C564 C563 1.524 . S
C564 C565 1.397 . S
C564 C569 1.363 . S
C565 H536 0.950 . S
C565 C564 1.397 . S
C565 C566 1.334 . S
C566 H537 0.950 . S
C566 C565 1.334 . S
C566 C567 1.287 . S
C567 C566 1.287 . S
C567 C568 1.524 . S
C567 H570 0.999 . S
C568 H538 0.950 . S
C568 C567 1.524 . S
C568 C569 1.415 . S
C569 H539 0.950 . S
C569 C564 1.363 . S
C569 C568 1.415 . S
H570 C567 0.999 . S
H571 C552 0.913 . S
H572 C590 0.951 . S
H573 C592 0.951 . S
H574 C594 0.950 . S
H575 C595 0.950 . S
H576 C597 0.950 . S
H577 C600 0.950 . S
H578 C601 0.950 . S
H579 C603 0.950 . S
H580 C604 0.950 . S
H581 C605 0.951 . S
H582 C607 0.951 . S
H583 C609 0.950 . S
H584 C610 0.950 . S
H585 C612 0.950 . S
H586 C615 0.950 . S
H587 C616 0.950 . S
H588 C618 0.950 . S
H589 C619 0.950 . S
C590 H572 0.951 . S
C590 C591 1.366 . S
C590 C592 1.388 . S
C591 C590 1.366 . S
C591 C595 1.385 . S
C592 H573 0.951 . S
C592 C590 1.388 . S
C592 C593 1.366 . S
C593 C592 1.366 . S
C593 C594 1.414 . S
C593 C596 1.499 . S
C594 H574 0.950 . S
C594 C593 1.414 . S
C594 C595 1.374 . S
C595 H575 0.950 . S
C595 C591 1.385 . S
C595 C594 1.374 . S
C596 C593 1.499 . S
C596 C597 1.373 . S
C596 C598 1.389 . S
C597 H576 0.950 . S
C597 C596 1.373 . S
C597 C613 1.377 . S
C598 C596 1.389 . S
C598 C599 1.524 . S
C598 C612 1.377 . S
C599 C598 1.524 . S
C599 C600 1.397 . S
C599 C604 1.363 . S
C600 H577 0.950 . S
C600 C599 1.397 . S
C600 C601 1.334 . S
C601 H578 0.950 . S
C601 C600 1.334 . S
C601 C602 1.287 . S
C602 C601 1.287 . S
C602 C603 1.524 . S
C602 H621 0.913 . S
C603 H579 0.950 . S
C603 C602 1.524 . S
C603 C604 1.415 . S
C604 H580 0.950 . S
C604 C599 1.363 . S
C604 C603 1.415 . S
C605 H581 0.951 . S
C605 C606 1.366 . S
C605 C607 1.388 . S
C606 C605 1.366 . S
C606 C610 1.385 . S
C607 H582 0.951 . S
C607 C605 1.388 . S
C607 C608 1.366 . S
C608 C607 1.366 . S
C608 C609 1.414 . S
C608 C611 1.499 . S
C609 H583 0.950 . S
C609 C608 1.414 . S
C609 C610 1.374 . S
C610 H584 0.950 . S
C610 C606 1.385 . S
C610 C609 1.374 . S
C611 C608 1.499 . S
C611 C612 1.373 . S
C611 C613 1.389 . S
C612 H585 0.950 . S
C612 C598 1.377 . S
C612 C611 1.373 . S
C613 C597 1.377 . S
C613 C611 1.389 . S
C613 C614 1.524 . S
C614 C613 1.524 . S
C614 C615 1.397 . S
C614 C619 1.363 . S
C615 H586 0.950 . S
C615 C614 1.397 . S
C615 C616 1.334 . S
C616 H587 0.950 . S
C616 C615 1.334 . S
C616 C617 1.287 . S
C617 C616 1.287 . S
C617 C618 1.524 . S
C617 H620 0.999 . S
C618 H588 0.950 . S
C618 C617 1.524 . S
C618 C619 1.415 . S
C619 H589 0.950 . S
C619 C614 1.363 . S
C619 C618 1.415 . S
H620 C617 0.999 . S
H621 C602 0.913 . S
H622 C640 0.951 . S
H623 C642 0.951 . S
H624 C644 0.950 . S
H625 C645 0.950 . S
H626 C647 0.950 . S
H627 C650 0.950 . S
H628 C651 0.950 1_554 S
H629 C653 0.950 . S
H630 C654 0.950 . S
H631 C655 0.951 . S
H632 C657 0.951 . S
H633 C659 0.950 . S
H634 C660 0.950 . S
H635 C662 0.950 . S
H636 C665 0.950 . S
H637 C666 0.950 . S
H638 C668 0.950 . S
H639 C669 0.950 . S
C640 H622 0.951 . S
C640 C641 1.383 . S
C640 C642 1.388 . S
C641 C640 1.383 . S
C641 C645 1.400 . S
C642 H623 0.951 . S
C642 C640 1.388 . S
C642 C643 1.366 . S
C643 C642 1.366 . S
C643 C644 1.414 . S
C643 C646 1.499 . S
C644 H624 0.950 . S
C644 C643 1.414 . S
C644 C645 1.374 . S
C645 H625 0.950 . S
C645 C641 1.400 . S
C645 C644 1.374 . S
C646 C643 1.499 . S
C646 C647 1.373 . S
C646 C648 1.389 . S
C647 H626 0.950 . S
C647 C646 1.373 . S
C647 C663 1.377 . S
C648 C646 1.389 . S
C648 C649 1.524 . S
C648 C662 1.377 . S
C649 C648 1.524 . S
C649 C650 1.397 . S
C649 C654 1.363 . S
C650 H627 0.950 . S
C650 C649 1.397 . S
C650 C651 1.334 . S
C651 H628 0.950 1_556 S
C651 C650 1.334 . S
C651 C652 1.287 . S
C652 C651 1.287 . S
C652 C653 1.524 . S
C652 H671 0.913 1_556 S
C653 H629 0.950 . S
C653 C652 1.524 . S
C653 C654 1.415 . S
C654 H630 0.950 . S
C654 C649 1.363 . S
C654 C653 1.415 . S
C655 H631 0.951 . S
C655 C656 1.366 . S
C655 C657 1.388 . S
C656 C655 1.366 . S
C656 C660 1.385 . S
C657 H632 0.951 . S
C657 C655 1.388 . S
C657 C658 1.366 . S
C658 C657 1.366 . S
C658 C659 1.414 . S
C658 C661 1.499 . S
C659 H633 0.950 . S
C659 C658 1.414 . S
C659 C660 1.374 . S
C660 H634 0.950 . S
C660 C656 1.385 . S
C660 C659 1.374 . S
C661 C658 1.499 . S
C661 C662 1.373 . S
C661 C663 1.389 . S
C662 H635 0.950 . S
C662 C648 1.377 . S
C662 C661 1.373 . S
C663 C647 1.377 . S
C663 C661 1.389 . S
C663 C664 1.524 . S
C664 C663 1.524 . S
C664 C665 1.397 . S
C664 C669 1.363 . S
C665 H636 0.950 . S
C665 C664 1.397 . S
C665 C666 1.334 . S
C666 H637 0.950 . S
C666 C665 1.334 . S
C666 C667 1.287 . S
C667 C666 1.287 . S
C667 C668 1.524 . S
C667 H670 0.999 . S
C668 H638 0.950 . S
C668 C667 1.524 . S
C668 C669 1.415 . S
C669 H639 0.950 . S
C669 C664 1.363 . S
C669 C668 1.415 . S
H670 C667 0.999 . S
H671 C652 0.913 1_554 S
H672 C690 0.951 . S
H673 C692 0.951 . S
H674 C694 0.950 . S
H675 C695 0.950 . S
H676 C697 0.950 . S
H677 C700 0.950 . S
H678 C701 0.950 . S
H679 C703 0.950 . S
H680 C704 0.950 . S
H681 C705 0.951 . S
H682 C707 0.951 . S
H683 C709 0.950 . S
H684 C710 0.950 . S
H685 C712 0.950 . S
H686 C715 0.950 . S
H687 C716 0.950 . S
H688 C718 0.950 . S
H689 C719 0.950 . S
C690 H672 0.951 . S
C690 C691 1.366 . S
C690 C692 1.388 . S
C691 C690 1.366 . S
C691 C695 1.385 . S
C692 H673 0.951 . S
C692 C690 1.388 . S
C692 C693 1.366 . S
C693 C692 1.366 . S
C693 C694 1.414 . S
C693 C696 1.499 . S
C694 H674 0.950 . S
C694 C693 1.414 . S
C694 C695 1.374 . S
C695 H675 0.950 . S
C695 C691 1.385 . S
C695 C694 1.374 . S
C696 C693 1.499 . S
C696 C697 1.373 . S
C696 C698 1.389 . S
C697 H676 0.950 . S
C697 C696 1.373 . S
C697 C713 1.377 . S
C698 C696 1.389 . S
C698 C699 1.524 . S
C698 C712 1.377 . S
C699 C698 1.524 . S
C699 C700 1.397 . S
C699 C704 1.363 . S
C700 H677 0.950 . S
C700 C699 1.397 . S
C700 C701 1.334 . S
C701 H678 0.950 . S
C701 C700 1.334 . S
C701 C702 1.287 . S
C702 C701 1.287 . S
C702 C703 1.524 . S
C702 H721 0.913 . S
C703 H679 0.950 . S
C703 C702 1.524 . S
C703 C704 1.415 . S
C704 H680 0.950 . S
C704 C699 1.363 . S
C704 C703 1.415 . S
C705 H681 0.951 . S
C705 C706 1.366 . S
C705 C707 1.388 . S
C706 C705 1.366 . S
C706 C710 1.385 . S
C707 H682 0.951 . S
C707 C705 1.388 . S
C707 C708 1.366 . S
C708 C707 1.366 . S
C708 C709 1.414 . S
C708 C711 1.499 . S
C709 H683 0.950 . S
C709 C708 1.414 . S
C709 C710 1.374 . S
C710 H684 0.950 . S
C710 C706 1.385 . S
C710 C709 1.374 . S
C711 C708 1.499 . S
C711 C712 1.373 . S
C711 C713 1.389 . S
C712 H685 0.950 . S
C712 C698 1.377 . S
C712 C711 1.373 . S
C713 C697 1.377 . S
C713 C711 1.389 . S
C713 C714 1.524 . S
C714 C713 1.524 . S
C714 C715 1.397 . S
C714 C719 1.363 . S
C715 H686 0.950 . S
C715 C714 1.397 . S
C715 C716 1.334 . S
C716 H687 0.950 . S
C716 C715 1.334 . S
C716 C717 1.287 . S
C717 C716 1.287 . S
C717 C718 1.524 . S
C717 H720 0.999 . S
C718 H688 0.950 . S
C718 C717 1.524 . S
C718 C719 1.415 . S
C719 H689 0.950 . S
C719 C714 1.363 . S
C719 C718 1.415 . S
H720 C717 0.999 . S
H721 C702 0.913 . S
H722 C740 0.951 1_554 S
H723 C742 0.951 1_554 S
H724 C744 0.950 . S
H725 C745 0.950 . S
H726 C747 0.950 . S
H727 C750 0.950 . S
H728 C751 0.950 . S
H729 C753 0.950 . S
H730 C754 0.950 . S
H731 C755 0.951 . S
H732 C757 0.951 . S
H733 C759 0.950 . S
H734 C760 0.950 . S
H735 C762 0.950 1_554 S
H736 C765 0.950 . S
H737 C766 0.950 . S
H738 C768 0.950 . S
H739 C769 0.950 . S
C740 H722 0.951 1_556 S
C740 C741 1.366 . S
C740 C742 1.388 . S
C741 C740 1.366 . S
C741 C745 1.385 . S
C742 H723 0.951 1_556 S
C742 C740 1.388 . S
C742 C743 1.366 . S
C743 C742 1.366 . S
C743 C744 1.414 . S
C743 C746 1.499 . S
C744 H724 0.950 . S
C744 C743 1.414 . S
C744 C745 1.374 . S
C745 H725 0.950 . S
C745 C741 1.385 . S
C745 C744 1.374 . S
C746 C743 1.499 . S
C746 C747 1.373 . S
C746 C748 1.389 . S
C747 H726 0.950 . S
C747 C746 1.373 . S
C747 C763 1.377 . S
C748 C746 1.389 . S
C748 C749 1.524 1_556 S
C748 C762 1.377 1_455 S
C749 C748 1.524 1_554 S
C749 C750 1.397 . S
C749 C754 1.363 . S
C750 H727 0.950 . S
C750 C749 1.397 . S
C750 C751 1.334 . S
C751 H728 0.950 . S
C751 C750 1.334 . S
C751 C752 1.287 . S
C752 C751 1.287 . S
C752 C753 1.524 . S
C752 H771 0.913 . S
C753 H729 0.950 . S
C753 C752 1.524 . S
C753 C754 1.415 . S
C754 H730 0.950 . S
C754 C749 1.363 . S
C754 C753 1.415 . S
C755 H731 0.951 . S
C755 C756 1.366 . S
C755 C757 1.388 . S
C756 C755 1.366 . S
C756 C760 1.385 . S
C757 H732 0.951 . S
C757 C755 1.388 . S
C757 C758 1.366 . S
C758 C757 1.366 . S
C758 C759 1.414 . S
C758 C761 1.499 . S
C759 H733 0.950 . S
C759 C758 1.414 . S
C759 C760 1.374 . S
C760 H734 0.950 . S
C760 C756 1.385 . S
C760 C759 1.374 . S
C761 C758 1.499 . S
C761 C762 1.373 . S
C761 C763 1.389 1_655 S
C762 H735 0.950 1_556 S
C762 C748 1.377 1_655 S
C762 C761 1.373 . S
C763 C747 1.377 . S
C763 C761 1.389 1_455 S
C763 C764 1.524 1_455 S
C764 C763 1.524 1_655 S
C764 C765 1.397 . S
C764 C769 1.363 1_655 S
C765 H736 0.950 . S
C765 C764 1.397 . S
C765 C766 1.334 . S
C766 H737 0.950 . S
C766 C765 1.334 . S
C766 C767 1.287 . S
C767 C766 1.287 . S
C767 C768 1.524 1_655 S
C767 H770 0.999 . S
C768 H738 0.950 . S
C768 C767 1.524 1_455 S
C768 C769 1.415 . S
C769 H739 0.950 . S
C769 C764 1.363 1_455 S
C769 C768 1.415 . S
H770 C767 0.999 . S
H771 C752 0.913 . S
H772 C790 0.951 . S
H773 C792 0.951 . S
H774 C794 0.950 . S
H775 C795 0.950 . S
H776 C797 0.950 . S
H777 C800 0.950 . S
H778 C801 0.950 . S
H779 C803 0.950 . S
H780 C804 0.950 . S
H781 C805 0.951 . S
H782 C807 0.951 . S
H783 C809 0.950 . S
H784 C810 0.950 . S
H785 C812 0.950 . S
H786 C815 0.950 . S
H787 C816 0.950 . S
H788 C818 0.950 . S
H789 C819 0.950 . S
C790 H772 0.951 . S
C790 C791 1.366 . S
C790 C792 1.388 . S
C791 C790 1.366 . S
C791 C795 1.385 . S
C792 H773 0.951 . S
C792 C790 1.388 . S
C792 C793 1.366 . S
C793 C792 1.366 . S
C793 C794 1.414 . S
C793 C796 1.499 . S
C794 H774 0.950 . S
C794 C793 1.414 . S
C794 C795 1.374 . S
C795 H775 0.950 . S
C795 C791 1.385 . S
C795 C794 1.374 . S
C796 C793 1.499 . S
C796 C797 1.373 1_554 S
C796 C798 1.389 . S
C797 H776 0.950 . S
C797 C796 1.373 1_556 S
C797 C813 1.377 1_545 S
C798 C796 1.389 . S
C798 C799 1.524 . S
C798 C812 1.377 1_545 S
C799 C798 1.524 . S
C799 C800 1.397 . S
C799 C804 1.363 . S
C800 H777 0.950 . S
C800 C799 1.397 . S
C800 C801 1.334 . S
C801 H778 0.950 . S
C801 C800 1.334 . S
C801 C802 1.287 . S
C802 C801 1.287 . S
C802 C803 1.524 . S
C802 H821 0.913 . S
C803 H779 0.950 . S
C803 C802 1.524 . S
C803 C804 1.415 . S
C804 H780 0.950 . S
C804 C799 1.363 . S
C804 C803 1.415 . S
C805 H781 0.951 . S
C805 C806 1.366 . S
C805 C807 1.388 . S
C806 C805 1.366 . S
C806 C810 1.385 . S
C807 H782 0.951 . S
C807 C805 1.388 . S
C807 C808 1.366 . S
C808 C807 1.366 . S
C808 C809 1.414 . S
C808 C811 1.499 . S
C809 H783 0.950 . S
C809 C808 1.414 . S
C809 C810 1.374 . S
C810 H784 0.950 . S
C810 C806 1.385 . S
C810 C809 1.374 . S
C811 C808 1.499 . S
C811 C812 1.373 1_556 S
C811 C813 1.389 . S
C812 H785 0.950 . S
C812 C798 1.377 1_565 S
C812 C811 1.373 1_554 S
C813 C797 1.377 1_565 S
C813 C811 1.389 . S
C813 C814 1.524 . S
C814 C813 1.524 . S
C814 C815 1.397 . S
C814 C819 1.363 . S
C815 H786 0.950 . S
C815 C814 1.397 . S
C815 C816 1.334 . S
C816 H787 0.950 . S
C816 C815 1.334 . S
C816 C817 1.287 . S
C817 C816 1.287 . S
C817 C818 1.524 . S
C817 H820 0.999 . S
C818 H788 0.950 . S
C818 C817 1.524 . S
C818 C819 1.415 . S
C819 H789 0.950 . S
C819 C814 1.363 . S
C819 C818 1.415 . S
H820 C817 0.999 . S
H821 C802 0.913 . S
H822 C840 0.951 . S
H823 C842 0.951 . S
H824 C844 0.950 . S
H825 C845 0.950 . S
H826 C847 0.950 . S
H827 C850 0.950 . S
H828 C851 0.950 . S
H829 C853 0.950 . S
H830 C854 0.950 . S
H831 C855 0.951 . S
H832 C857 0.951 . S
H833 C859 0.950 . S
H834 C860 0.950 . S
H835 C862 0.950 . S
H836 C865 0.950 . S
H837 C866 0.950 . S
H838 C868 0.950 . S
H839 C869 0.950 . S
C840 H822 0.951 . S
C840 C841 1.366 . S
C840 C842 1.388 . S
C841 C840 1.366 . S
C841 C845 1.385 . S
C842 H823 0.951 . S
C842 C840 1.388 . S
C842 C843 1.366 . S
C843 C842 1.366 . S
C843 C844 1.414 . S
C843 C846 1.499 . S
C844 H824 0.950 . S
C844 C843 1.414 . S
C844 C845 1.374 . S
C845 H825 0.950 . S
C845 C841 1.385 . S
C845 C844 1.374 . S
C846 C843 1.499 . S
C846 C847 1.373 . S
C846 C848 1.389 . S
C847 H826 0.950 . S
C847 C846 1.373 . S
C847 C863 1.377 . S
C848 C846 1.389 . S
C848 C849 1.524 . S
C848 C862 1.377 . S
C849 C848 1.524 . S
C849 C850 1.397 . S
C849 C854 1.363 . S
C850 H827 0.950 . S
C850 C849 1.397 . S
C850 C851 1.334 . S
C851 H828 0.950 . S
C851 C850 1.334 . S
C851 C852 1.287 . S
C852 C851 1.287 . S
C852 C853 1.524 . S
C852 H871 0.913 . S
C853 H829 0.950 . S
C853 C852 1.524 . S
C853 C854 1.415 . S
C854 H830 0.950 . S
C854 C849 1.363 . S
C854 C853 1.415 . S
C855 H831 0.951 . S
C855 C856 1.366 . S
C855 C857 1.388 . S
C856 C855 1.366 . S
C856 C860 1.385 . S
C857 H832 0.951 . S
C857 C855 1.388 . S
C857 C858 1.366 . S
C858 C857 1.366 . S
C858 C859 1.414 . S
C858 C861 1.499 . S
C859 H833 0.950 . S
C859 C858 1.414 . S
C859 C860 1.374 . S
C860 H834 0.950 . S
C860 C856 1.385 . S
C860 C859 1.374 . S
C861 C858 1.499 . S
C861 C862 1.373 . S
C861 C863 1.389 . S
C862 H835 0.950 . S
C862 C848 1.377 . S
C862 C861 1.373 . S
C863 C847 1.377 . S
C863 C861 1.389 . S
C863 C864 1.524 . S
C864 C863 1.524 . S
C864 C865 1.397 . S
C864 C869 1.363 . S
C865 H836 0.950 . S
C865 C864 1.397 . S
C865 C866 1.334 . S
C866 H837 0.950 . S
C866 C865 1.334 . S
C866 C867 1.287 . S
C867 C866 1.287 . S
C867 C868 1.524 . S
C867 H870 0.999 . S
C868 H838 0.950 . S
C868 C867 1.524 . S
C868 C869 1.415 . S
C869 H839 0.950 . S
C869 C864 1.363 . S
C869 C868 1.415 . S
H870 C867 0.999 . S
H871 C852 0.913 . S
H872 C890 0.951 . S
H873 C892 0.951 . S
H874 C894 0.950 . S
H875 C895 0.950 . S
H876 C897 0.950 . S
H877 C900 0.950 . S
H878 C901 0.950 . S
H879 C903 0.950 . S
H880 C904 0.950 . S
H881 C905 0.951 . S
H882 C907 0.951 . S
H883 C909 0.950 . S
H884 C910 0.950 . S
H885 C912 0.950 . S
H886 C915 0.950 . S
H887 C916 0.950 . S
H888 C918 0.950 . S
H889 C919 0.950 . S
C890 H872 0.951 . S
C890 C891 1.366 . S
C890 C892 1.388 . S
C891 C890 1.366 . S
C891 C895 1.385 . S
C892 H873 0.951 . S
C892 C890 1.388 . S
C892 C893 1.366 . S
C893 C892 1.366 . S
C893 C894 1.414 . S
C893 C896 1.499 . S
C894 H874 0.950 . S
C894 C893 1.414 . S
C894 C895 1.374 . S
C895 H875 0.950 . S
C895 C891 1.385 . S
C895 C894 1.374 . S
C896 C893 1.499 . S
C896 C897 1.373 . S
C896 C898 1.389 . S
C897 H876 0.950 . S
C897 C896 1.373 . S
C897 C913 1.377 . S
C898 C896 1.389 . S
C898 C899 1.524 . S
C898 C912 1.377 1_565 S
C899 C898 1.524 . S
C899 C900 1.397 . S
C899 C904 1.363 1_565 S
C900 H877 0.950 . S
C900 C899 1.397 . S
C900 C901 1.334 . S
C901 H878 0.950 . S
C901 C900 1.334 . S
C901 C902 1.287 . S
C902 C901 1.287 . S
C902 C903 1.524 1_565 S
C902 H921 0.913 . S
C903 H879 0.950 . S
C903 C902 1.524 1_545 S
C903 C904 1.415 . S
C904 H880 0.950 . S
C904 C899 1.363 1_545 S
C904 C903 1.415 . S
C905 H881 0.951 . S
C905 C906 1.366 . S
C905 C907 1.388 . S
C906 C905 1.366 . S
C906 C910 1.385 . S
C907 H882 0.951 . S
C907 C905 1.388 . S
C907 C908 1.366 . S
C908 C907 1.366 . S
C908 C909 1.414 . S
C908 C911 1.499 . S
C909 H883 0.950 . S
C909 C908 1.414 . S
C909 C910 1.374 . S
C910 H884 0.950 . S
C910 C906 1.385 . S
C910 C909 1.374 . S
C911 C908 1.499 . S
C911 C912 1.373 . S
C911 C913 1.389 1_545 S
C912 H885 0.950 . S
C912 C898 1.377 1_545 S
C912 C911 1.373 . S
C913 C897 1.377 . S
C913 C911 1.389 1_565 S
C913 C914 1.524 . S
C914 C913 1.524 . S
C914 C915 1.397 1_565 S
C914 C919 1.363 . S
C915 H886 0.950 . S
C915 C914 1.397 1_545 S
C915 C916 1.334 . S
C916 H887 0.950 . S
C916 C915 1.334 . S
C916 C917 1.287 1_545 S
C917 C916 1.287 1_565 S
C917 C918 1.524 . S
C917 H920 0.999 . S
C918 H888 0.950 . S
C918 C917 1.524 . S
C918 C919 1.415 . S
C919 H889 0.950 . S
C919 C914 1.363 . S
C919 C918 1.415 . S
H920 C917 0.999 . S
H921 C902 0.913 . S
H922 C940 0.951 . S
H923 C942 0.951 . S
H924 C944 0.950 . S
H925 C945 0.950 . S
H926 C947 0.950 . S
H927 C950 0.950 . S
H928 C951 0.950 . S
H929 C953 0.950 . S
H930 C954 0.950 . S
H931 C955 0.951 . S
H932 C957 0.951 . S
H933 C959 0.950 . S
H934 C960 0.950 . S
H935 C962 0.950 . S
H936 C965 0.950 . S
H937 C966 0.950 . S
H938 C968 0.950 . S
H939 C969 0.950 . S
C940 H922 0.951 . S
C940 C941 1.366 . S
C940 C942 1.388 . S
C941 C940 1.366 . S
C941 C945 1.385 . S
C942 H923 0.951 . S
C942 C940 1.388 . S
C942 C943 1.366 . S
C943 C942 1.366 . S
C943 C944 1.414 . S
C943 C946 1.499 . S
C944 H924 0.950 . S
C944 C943 1.414 . S
C944 C945 1.374 . S
C945 H925 0.950 . S
C945 C941 1.385 . S
C945 C944 1.374 . S
C946 C943 1.499 . S
C946 C947 1.373 . S
C946 C948 1.389 . S
C947 H926 0.950 . S
C947 C946 1.373 . S
C947 C963 1.377 . S
C948 C946 1.389 . S
C948 C949 1.524 . S
C948 C962 1.377 . S
C949 C948 1.524 . S
C949 C950 1.397 . S
C949 C954 1.363 . S
C950 H927 0.950 . S
C950 C949 1.397 . S
C950 C951 1.334 . S
C951 H928 0.950 . S
C951 C950 1.334 . S
C951 C952 1.287 . S
C952 C951 1.287 . S
C952 C953 1.524 . S
C952 H971 0.913 . S
C953 H929 0.950 . S
C953 C952 1.524 . S
C953 C954 1.415 . S
C954 H930 0.950 . S
C954 C949 1.363 . S
C954 C953 1.415 . S
C955 H931 0.951 . S
C955 C956 1.366 . S
C955 C957 1.388 . S
C956 C955 1.366 . S
C956 C960 1.385 . S
C957 H932 0.951 . S
C957 C955 1.388 . S
C957 C958 1.366 . S
C958 C957 1.366 . S
C958 C959 1.414 . S
C958 C961 1.499 . S
C959 H933 0.950 . S
C959 C958 1.414 . S
C959 C960 1.374 . S
C960 H934 0.950 . S
C960 C956 1.385 . S
C960 C959 1.374 . S
C961 C958 1.499 . S
C961 C962 1.373 . S
C961 C963 1.389 . S
C962 H935 0.950 . S
C962 C948 1.377 . S
C962 C961 1.373 . S
C963 C947 1.377 . S
C963 C961 1.389 . S
C963 C964 1.524 . S
C964 C963 1.524 . S
C964 C965 1.397 . S
C964 C969 1.363 . S
C965 H936 0.950 . S
C965 C964 1.397 . S
C965 C966 1.334 . S
C966 H937 0.950 . S
C966 C965 1.334 . S
C966 C967 1.287 . S
C967 C966 1.287 . S
C967 C968 1.524 . S
C967 H970 0.999 . S
C968 H938 0.950 . S
C968 C967 1.524 . S
C968 C969 1.415 . S
C969 H939 0.950 . S
C969 C964 1.363 . S
C969 C968 1.415 . S
H970 C967 0.999 . S
H971 C952 0.913 . S
H972 C990 0.951 . S
H973 C992 0.951 . S
H974 C994 0.950 . S
H975 C995 0.950 . S
H976 C997 0.950 . S
H977 C1000 0.950 . S
H978 C1001 0.950 . S
H979 C1003 0.950 . S
H980 C1004 0.950 . S
H981 C1005 0.951 . S
H982 C1007 0.951 . S
H983 C1009 0.950 . S
H984 C1010 0.950 . S
H985 C1012 0.950 . S
H986 C1015 0.950 . S
H987 C1016 0.950 . S
H988 C1018 0.950 . S
H989 C1019 0.950 . S
C990 H972 0.951 . S
C990 C991 1.366 . S
C990 C992 1.388 . S
C991 C990 1.366 . S
C991 C995 1.385 . S
C992 H973 0.951 . S
C992 C990 1.388 . S
C992 C993 1.366 . S
C993 C992 1.366 . S
C993 C994 1.414 . S
C993 C996 1.499 . S
C994 H974 0.950 . S
C994 C993 1.414 . S
C994 C995 1.374 . S
C995 H975 0.950 . S
C995 C991 1.385 . S
C995 C994 1.374 . S
C996 C993 1.499 . S
C996 C997 1.373 . S
C996 C998 1.389 . S
C997 H976 0.950 . S
C997 C996 1.373 . S
C997 C1013 1.377 . S
C998 C996 1.389 . S
C998 C999 1.524 . S
C998 C1012 1.377 . S
C999 C998 1.524 . S
C999 C1000 1.397 . S
C999 C1004 1.363 . S
C1000 H977 0.950 . S
C1000 C999 1.397 . S
C1000 C1001 1.334 . S
C1001 H978 0.950 . S
C1001 C1000 1.334 . S
C1001 C1002 1.287 . S
C1002 C1001 1.287 . S
C1002 C1003 1.524 . S
C1002 H1021 0.913 . S
C1003 H979 0.950 . S
C1003 C1002 1.524 . S
C1003 C1004 1.415 . S
C1004 H980 0.950 . S
C1004 C999 1.363 . S
C1004 C1003 1.415 . S
C1005 H981 0.951 . S
C1005 C1006 1.366 . S
C1005 C1007 1.388 . S
C1006 C1005 1.366 . S
C1006 C1010 1.385 . S
C1007 H982 0.951 . S
C1007 C1005 1.388 . S
C1007 C1008 1.366 . S
C1008 C1007 1.366 . S
C1008 C1009 1.414 . S
C1008 C1011 1.499 . S
C1009 H983 0.950 . S
C1009 C1008 1.414 . S
C1009 C1010 1.374 . S
C1010 H984 0.950 . S
C1010 C1006 1.385 . S
C1010 C1009 1.374 . S
C1011 C1008 1.499 . S
C1011 C1012 1.373 . S
C1011 C1013 1.389 . S
C1012 H985 0.950 . S
C1012 C998 1.377 . S
C1012 C1011 1.373 . S
C1013 C997 1.377 . S
C1013 C1011 1.389 . S
C1013 C1014 1.524 . S
C1014 C1013 1.524 . S
C1014 C1015 1.397 . S
C1014 C1019 1.363 . S
C1015 H986 0.950 . S
C1015 C1014 1.397 . S
C1015 C1016 1.334 . S
C1016 H987 0.950 . S
C1016 C1015 1.334 . S
C1016 C1017 1.287 . S
C1017 C1016 1.287 . S
C1017 C1018 1.524 . S
C1017 H1020 0.999 . S
C1018 H988 0.950 . S
C1018 C1017 1.524 . S
C1018 C1019 1.415 . S
C1019 H989 0.950 . S
C1019 C1014 1.363 . S
C1019 C1018 1.415 . S
H1020 C1017 0.999 . S
H1021 C1002 0.913 . S
H1022 C1040 0.951 . S
H1023 C1042 0.951 . S
H1024 C1044 0.950 . S
H1025 C1045 0.950 . S
H1026 C1047 0.950 . S
H1027 C1050 0.950 . S
H1028 C1051 0.950 . S
H1029 C1053 0.950 . S
H1030 C1054 0.950 . S
H1031 C1055 0.951 . S
H1032 C1057 0.951 . S
H1033 C1059 0.950 . S
H1034 C1060 0.950 . S
H1035 C1062 0.950 . S
H1036 C1065 0.950 . S
H1037 C1066 0.950 . S
H1038 C1068 0.950 . S
H1039 C1069 0.950 . S
C1040 H1022 0.951 . S
C1040 C1041 1.366 . S
C1040 C1042 1.388 . S
C1041 C1040 1.366 . S
C1041 C1045 1.385 . S
C1042 H1023 0.951 . S
C1042 C1040 1.388 . S
C1042 C1043 1.366 . S
C1043 C1042 1.366 . S
C1043 C1044 1.414 . S
C1043 C1046 1.499 . S
C1044 H1024 0.950 . S
C1044 C1043 1.414 . S
C1044 C1045 1.374 . S
C1045 H1025 0.950 . S
C1045 C1041 1.385 . S
C1045 C1044 1.374 . S
C1046 C1043 1.499 . S
C1046 C1047 1.373 . S
C1046 C1048 1.389 . S
C1047 H1026 0.950 . S
C1047 C1046 1.373 . S
C1047 C1063 1.377 . S
C1048 C1046 1.389 . S
C1048 C1049 1.524 . S
C1048 C1062 1.377 . S
C1049 C1048 1.524 . S
C1049 C1050 1.397 . S
C1049 C1054 1.363 . S
C1050 H1027 0.950 . S
C1050 C1049 1.397 . S
C1050 C1051 1.334 . S
C1051 H1028 0.950 . S
C1051 C1050 1.334 . S
C1051 C1052 1.287 . S
C1052 C1051 1.287 . S
C1052 C1053 1.524 1_455 S
C1052 H1071 0.915 . S
C1053 H1029 0.950 . S
C1053 C1052 1.524 1_655 S
C1053 C1054 1.415 1_655 S
C1054 H1030 0.950 . S
C1054 C1049 1.363 . S
C1054 C1053 1.415 1_455 S
C1055 H1031 0.951 . S
C1055 C1056 1.366 . S
C1055 C1057 1.388 1_655 S
C1056 C1055 1.366 . S
C1056 C1060 1.385 . S
C1057 H1032 0.951 . S
C1057 C1055 1.388 1_455 S
C1057 C1058 1.366 . S
C1058 C1057 1.366 . S
C1058 C1059 1.414 1_455 S
C1058 C1061 1.499 . S
C1059 H1033 0.950 . S
C1059 C1058 1.414 1_655 S
C1059 C1060 1.374 . S
C1060 H1034 0.950 . S
C1060 C1056 1.385 . S
C1060 C1059 1.374 . S
C1061 C1058 1.499 . S
C1061 C1062 1.373 . S
C1061 C1063 1.389 . S
C1062 H1035 0.950 . S
C1062 C1048 1.377 . S
C1062 C1061 1.373 . S
C1063 C1047 1.377 . S
C1063 C1061 1.389 . S
C1063 C1064 1.524 . S
C1064 C1063 1.524 . S
C1064 C1065 1.397 . S
C1064 C1069 1.363 . S
C1065 H1036 0.950 . S
C1065 C1064 1.397 . S
C1065 C1066 1.334 . S
C1066 H1037 0.950 . S
C1066 C1065 1.334 . S
C1066 C1067 1.287 . S
C1067 C1066 1.287 . S
C1067 C1068 1.524 . S
C1067 H1070 0.999 . S
C1068 H1038 0.950 . S
C1068 C1067 1.524 . S
C1068 C1069 1.415 . S
C1069 H1039 0.950 . S
C1069 C1064 1.363 . S
C1069 C1068 1.415 . S
H1070 C1067 0.999 . S
H1071 C1052 0.915 . S
H1072 C1090 0.951 . S
H1073 C1092 0.951 . S
H1074 C1094 0.950 . S
H1075 C1095 0.950 . S
H1076 C1097 0.950 . S
H1077 C1100 0.950 . S
H1078 C1101 0.950 . S
H1079 C1103 0.950 . S
H1080 C1104 0.950 . S
H1081 C1105 0.951 . S
H1082 C1107 0.951 . S
H1083 C1109 0.950 . S
H1084 C1110 0.950 . S
H1085 C1112 0.950 . S
H1086 C1115 0.950 . S
H1087 C1116 0.950 . S
H1088 C1118 0.950 . S
H1089 C1119 0.950 . S
C1090 H1072 0.951 . S
C1090 C1091 1.366 . S
C1090 C1092 1.388 . S
C1091 C1090 1.366 . S
C1091 C1095 1.385 . S
C1092 H1073 0.951 . S
C1092 C1090 1.388 . S
C1092 C1093 1.366 . S
C1093 C1092 1.366 . S
C1093 C1094 1.414 . S
C1093 C1096 1.499 . S
C1094 H1074 0.950 . S
C1094 C1093 1.414 . S
C1094 C1095 1.374 . S
C1095 H1075 0.950 . S
C1095 C1091 1.385 . S
C1095 C1094 1.374 . S
C1096 C1093 1.499 . S
C1096 C1097 1.373 . S
C1096 C1098 1.389 . S
C1097 H1076 0.950 . S
C1097 C1096 1.373 . S
C1097 C1113 1.377 . S
C1098 C1096 1.389 . S
C1098 C1099 1.524 . S
C1098 C1112 1.377 . S
C1099 C1098 1.524 . S
C1099 C1100 1.397 . S
C1099 C1104 1.363 . S
C1100 H1077 0.950 . S
C1100 C1099 1.397 . S
C1100 C1101 1.334 . S
C1101 H1078 0.950 . S
C1101 C1100 1.334 . S
C1101 C1102 1.287 . S
C1102 C1101 1.287 . S
C1102 C1103 1.524 . S
C1102 H1121 0.913 . S
C1103 H1079 0.950 . S
C1103 C1102 1.524 . S
C1103 C1104 1.415 . S
C1104 H1080 0.950 . S
C1104 C1099 1.363 . S
C1104 C1103 1.415 . S
C1105 H1081 0.951 . S
C1105 C1106 1.366 . S
C1105 C1107 1.388 . S
C1106 C1105 1.366 . S
C1106 C1110 1.385 . S
C1107 H1082 0.951 . S
C1107 C1105 1.388 . S
C1107 C1108 1.366 . S
C1108 C1107 1.366 . S
C1108 C1109 1.414 . S
C1108 C1111 1.499 . S
C1109 H1083 0.950 . S
C1109 C1108 1.414 . S
C1109 C1110 1.374 . S
C1110 H1084 0.950 . S
C1110 C1106 1.385 . S
C1110 C1109 1.374 . S
C1111 C1108 1.499 . S
C1111 C1112 1.373 . S
C1111 C1113 1.389 . S
C1112 H1085 0.950 . S
C1112 C1098 1.377 . S
C1112 C1111 1.373 . S
C1113 C1097 1.377 . S
C1113 C1111 1.389 . S
C1113 C1114 1.524 . S
C1114 C1113 1.524 . S
C1114 C1115 1.397 . S
C1114 C1119 1.363 . S
C1115 H1086 0.950 . S
C1115 C1114 1.397 . S
C1115 C1116 1.334 . S
C1116 H1087 0.950 . S
C1116 C1115 1.334 . S
C1116 C1117 1.287 . S
C1117 C1116 1.287 . S
C1117 C1118 1.524 . S
C1117 H1120 0.999 . S
C1118 H1088 0.950 . S
C1118 C1117 1.524 . S
C1118 C1119 1.415 . S
C1119 H1089 0.950 . S
C1119 C1114 1.363 . S
C1119 C1118 1.415 . S
H1120 C1117 0.999 . S
H1121 C1102 0.913 . S
H1122 C1140 0.951 . S
H1123 C1142 0.951 . S
H1124 C1144 0.950 . S
H1125 C1145 0.950 . S
H1126 C1147 0.950 1_655 S
H1127 C1150 0.950 . S
H1128 C1151 0.950 . S
H1129 C1153 0.950 . S
H1130 C1154 0.950 . S
H1131 C1155 0.951 . S
H1132 C1157 0.951 . S
H1133 C1159 0.950 . S
H1134 C1160 0.950 . S
H1135 C1162 0.950 . S
H1136 C1165 0.950 . S
H1137 C1166 0.950 . S
H1138 C1168 0.950 . S
H1139 C1169 0.950 . S
C1140 H1122 0.951 . S
C1140 C1141 1.366 . S
C1140 C1142 1.388 . S
C1141 C1140 1.366 . S
C1141 C1145 1.385 . S
C1142 H1123 0.951 . S
C1142 C1140 1.388 . S
C1142 C1143 1.366 . S
C1143 C1142 1.366 . S
C1143 C1144 1.414 . S
C1143 C1146 1.499 . S
C1144 H1124 0.950 . S
C1144 C1143 1.414 . S
C1144 C1145 1.374 . S
C1145 H1125 0.950 . S
C1145 C1141 1.385 . S
C1145 C1144 1.374 . S
C1146 C1143 1.499 . S
C1146 C1147 1.373 1_655 S
C1146 C1148 1.389 1_655 S
C1147 H1126 0.950 1_455 S
C1147 C1146 1.373 1_455 S
C1147 C1163 1.377 . S
C1148 C1146 1.389 1_455 S
C1148 C1149 1.524 . S
C1148 C1162 1.377 . S
C1149 C1148 1.524 . S
C1149 C1150 1.397 1_455 S
C1149 C1154 1.363 . S
C1150 H1127 0.950 . S
C1150 C1149 1.397 1_655 S
C1150 C1151 1.334 . S
C1151 H1128 0.950 . S
C1151 C1150 1.334 . S
C1151 C1152 1.287 . S
C1152 C1151 1.287 . S
C1152 C1153 1.524 1_655 S
C1152 H1171 0.913 . S
C1153 H1129 0.950 . S
C1153 C1152 1.524 1_455 S
C1153 C1154 1.415 . S
C1154 H1130 0.950 . S
C1154 C1149 1.363 . S
C1154 C1153 1.415 . S
C1155 H1131 0.951 . S
C1155 C1156 1.366 . S
C1155 C1157 1.388 . S
C1156 C1155 1.366 . S
C1156 C1160 1.385 . S
C1157 H1132 0.951 . S
C1157 C1155 1.388 . S
C1157 C1158 1.366 . S
C1158 C1157 1.366 . S
C1158 C1159 1.414 . S
C1158 C1161 1.499 . S
C1159 H1133 0.950 . S
C1159 C1158 1.414 . S
C1159 C1160 1.374 . S
C1160 H1134 0.950 . S
C1160 C1156 1.385 . S
C1160 C1159 1.374 . S
C1161 C1158 1.499 . S
C1161 C1162 1.373 . S
C1161 C1163 1.389 . S
C1162 H1135 0.950 . S
C1162 C1148 1.377 . S
C1162 C1161 1.373 . S
C1163 C1147 1.377 . S
C1163 C1161 1.389 . S
C1163 C1164 1.524 . S
C1164 C1163 1.524 . S
C1164 C1165 1.397 . S
C1164 C1169 1.363 . S
C1165 H1136 0.950 . S
C1165 C1164 1.397 . S
C1165 C1166 1.334 . S
C1166 H1137 0.950 . S
C1166 C1165 1.334 . S
C1166 C1167 1.287 . S
C1167 C1166 1.287 . S
C1167 C1168 1.524 . S
C1167 H1170 0.999 . S
C1168 H1138 0.950 . S
C1168 C1167 1.524 . S
C1168 C1169 1.415 . S
C1169 H1139 0.950 . S
C1169 C1164 1.363 . S
C1169 C1168 1.415 . S
H1170 C1167 0.999 . S
H1171 C1152 0.913 . S
H1172 C1190 0.951 . S
H1173 C1192 0.951 . S
H1174 C1194 0.950 . S
H1175 C1195 0.950 . S
H1176 C1197 0.950 . S
H1177 C1200 0.950 . S
H1178 C1201 0.950 . S
H1179 C1203 0.950 . S
H1180 C1204 0.950 . S
H1181 C1205 0.951 . S
H1182 C1207 0.951 . S
H1183 C1209 0.950 . S
H1184 C1210 0.950 . S
H1185 C1212 0.950 . S
H1186 C1215 0.950 . S
H1187 C1216 0.950 . S
H1188 C1218 0.950 . S
H1189 C1219 0.950 . S
C1190 H1172 0.951 . S
C1190 C1191 1.366 . S
C1190 C1192 1.388 . S
C1191 C1190 1.366 . S
C1191 C1195 1.385 . S
C1192 H1173 0.951 . S
C1192 C1190 1.388 . S
C1192 C1193 1.366 . S
C1193 C1192 1.366 . S
C1193 C1194 1.414 . S
C1193 C1196 1.499 . S
C1194 H1174 0.950 . S
C1194 C1193 1.414 . S
C1194 C1195 1.374 . S
C1195 H1175 0.950 . S
C1195 C1191 1.385 . S
C1195 C1194 1.374 . S
C1196 C1193 1.499 . S
C1196 C1197 1.373 . S
C1196 C1198 1.389 . S
C1197 H1176 0.950 . S
C1197 C1196 1.373 . S
C1197 C1213 1.377 . S
C1198 C1196 1.389 . S
C1198 C1199 1.524 . S
C1198 C1212 1.377 . S
C1199 C1198 1.524 . S
C1199 C1200 1.397 . S
C1199 C1204 1.363 . S
C1200 H1177 0.950 . S
C1200 C1199 1.397 . S
C1200 C1201 1.334 . S
C1201 H1178 0.950 . S
C1201 C1200 1.334 . S
C1201 C1202 1.287 . S
C1202 C1201 1.287 . S
C1202 C1203 1.524 . S
C1202 H1221 0.913 . S
C1203 H1179 0.950 . S
C1203 C1202 1.524 . S
C1203 C1204 1.415 . S
C1204 H1180 0.950 . S
C1204 C1199 1.363 . S
C1204 C1203 1.415 . S
C1205 H1181 0.951 . S
C1205 C1206 1.366 . S
C1205 C1207 1.388 . S
C1206 C1205 1.366 . S
C1206 C1210 1.385 . S
C1207 H1182 0.951 . S
C1207 C1205 1.388 . S
C1207 C1208 1.366 . S
C1208 C1207 1.366 . S
C1208 C1209 1.414 . S
C1208 C1211 1.499 . S
C1209 H1183 0.950 . S
C1209 C1208 1.414 . S
C1209 C1210 1.374 . S
C1210 H1184 0.950 . S
C1210 C1206 1.385 . S
C1210 C1209 1.374 . S
C1211 C1208 1.499 . S
C1211 C1212 1.373 . S
C1211 C1213 1.389 . S
C1212 H1185 0.950 . S
C1212 C1198 1.377 . S
C1212 C1211 1.373 . S
C1213 C1197 1.377 . S
C1213 C1211 1.389 . S
C1213 C1214 1.524 . S
C1214 C1213 1.524 . S
C1214 C1215 1.397 . S
C1214 C1219 1.363 . S
C1215 H1186 0.950 . S
C1215 C1214 1.397 . S
C1215 C1216 1.334 . S
C1216 H1187 0.950 . S
C1216 C1215 1.334 . S
C1216 C1217 1.287 . S
C1217 C1216 1.287 . S
C1217 C1218 1.524 . S
C1217 H1220 0.999 . S
C1218 H1188 0.950 . S
C1218 C1217 1.524 . S
C1218 C1219 1.415 . S
C1219 H1189 0.950 . S
C1219 C1214 1.363 . S
C1219 C1218 1.415 . S
H1220 C1217 0.999 . S
H1221 C1202 0.913 . S
H1222 C1240 0.951 . S
H1223 C1242 0.951 . S
H1224 C1244 0.950 . S
H1225 C1245 0.950 . S
H1226 C1247 0.950 . S
H1227 C1250 0.950 . S
H1228 C1251 0.950 . S
H1229 C1253 0.950 . S
H1230 C1254 0.950 . S
H1231 C1255 0.951 . S
H1232 C1257 0.951 . S
H1233 C1259 0.950 . S
H1234 C1260 0.950 . S
H1235 C1262 0.950 . S
H1236 C1265 0.950 . S
H1237 C1266 0.950 . S
H1238 C1268 0.950 . S
H1239 C1269 0.950 . S
C1240 H1222 0.951 . S
C1240 C1241 1.366 . S
C1240 C1242 1.388 . S
C1241 C1240 1.366 . S
C1241 C1245 1.385 . S
C1242 H1223 0.951 . S
C1242 C1240 1.388 . S
C1242 C1243 1.366 . S
C1243 C1242 1.366 . S
C1243 C1244 1.414 . S
C1243 C1246 1.499 . S
C1244 H1224 0.950 . S
C1244 C1243 1.414 . S
C1244 C1245 1.374 . S
C1245 H1225 0.950 . S
C1245 C1241 1.385 . S
C1245 C1244 1.374 . S
C1246 C1243 1.499 . S
C1246 C1247 1.373 . S
C1246 C1248 1.389 . S
C1247 H1226 0.950 . S
C1247 C1246 1.373 . S
C1247 C1263 1.377 . S
C1248 C1246 1.389 . S
C1248 C1249 1.524 . S
C1248 C1262 1.377 . S
C1249 C1248 1.524 . S
C1249 C1250 1.397 . S
C1249 C1254 1.363 . S
C1250 H1227 0.950 . S
C1250 C1249 1.397 . S
C1250 C1251 1.334 . S
C1251 H1228 0.950 . S
C1251 C1250 1.334 . S
C1251 C1252 1.287 . S
C1252 C1251 1.287 . S
C1252 C1253 1.524 . S
C1252 H1271 0.913 . S
C1253 H1229 0.950 . S
C1253 C1252 1.524 . S
C1253 C1254 1.415 . S
C1254 H1230 0.950 . S
C1254 C1249 1.363 . S
C1254 C1253 1.415 . S
C1255 H1231 0.951 . S
C1255 C1256 1.366 . S
C1255 C1257 1.388 . S
C1256 C1255 1.366 . S
C1256 C1260 1.385 . S
C1257 H1232 0.951 . S
C1257 C1255 1.388 . S
C1257 C1258 1.366 . S
C1258 C1257 1.366 . S
C1258 C1259 1.414 . S
C1258 C1261 1.499 . S
C1259 H1233 0.950 . S
C1259 C1258 1.414 . S
C1259 C1260 1.374 . S
C1260 H1234 0.950 . S
C1260 C1256 1.385 . S
C1260 C1259 1.374 . S
C1261 C1258 1.499 . S
C1261 C1262 1.373 . S
C1261 C1263 1.389 . S
C1262 H1235 0.950 . S
C1262 C1248 1.377 . S
C1262 C1261 1.373 . S
C1263 C1247 1.377 . S
C1263 C1261 1.389 . S
C1263 C1264 1.524 . S
C1264 C1263 1.524 . S
C1264 C1265 1.397 . S
C1264 C1269 1.363 . S
C1265 H1236 0.950 . S
C1265 C1264 1.397 . S
C1265 C1266 1.334 . S
C1266 H1237 0.950 . S
C1266 C1265 1.334 . S
C1266 C1267 1.287 . S
C1267 C1266 1.287 . S
C1267 C1268 1.524 . S
C1267 H1270 0.999 . S
C1268 H1238 0.950 . S
C1268 C1267 1.524 . S
C1268 C1269 1.415 . S
C1269 H1239 0.950 . S
C1269 C1264 1.363 . S
C1269 C1268 1.415 . S
H1270 C1267 0.999 . S
H1271 C1252 0.913 . S
H1272 C1290 0.951 . S
H1273 C1292 0.951 . S
H1274 C1294 0.950 . S
H1275 C1295 0.950 . S
H1276 C1297 0.950 . S
H1277 C1300 0.950 . S
H1278 C1301 0.950 . S
H1279 C1303 0.950 . S
H1280 C1304 0.950 . S
H1281 C1305 0.951 . S
H1282 C1307 0.951 . S
H1283 C1309 0.950 . S
H1284 C1310 0.950 . S
H1285 C1312 0.950 . S
H1286 C1315 0.950 . S
H1287 C1316 0.950 . S
H1288 C1318 0.950 . S
H1289 C1319 0.950 . S
C1290 H1272 0.951 . S
C1290 C1291 1.366 . S
C1290 C1292 1.388 . S
C1291 C1290 1.366 . S
C1291 C1295 1.385 . S
C1292 H1273 0.951 . S
C1292 C1290 1.388 . S
C1292 C1293 1.366 . S
C1293 C1292 1.366 . S
C1293 C1294 1.414 . S
C1293 C1296 1.499 . S
C1294 H1274 0.950 . S
C1294 C1293 1.414 . S
C1294 C1295 1.374 . S
C1295 H1275 0.950 . S
C1295 C1291 1.385 . S
C1295 C1294 1.374 . S
C1296 C1293 1.499 . S
C1296 C1297 1.373 . S
C1296 C1298 1.389 . S
C1297 H1276 0.950 . S
C1297 C1296 1.373 . S
C1297 C1313 1.377 . S
C1298 C1296 1.389 . S
C1298 C1299 1.524 . S
C1298 C1312 1.377 . S
C1299 C1298 1.524 . S
C1299 C1300 1.397 . S
C1299 C1304 1.363 . S
C1300 H1277 0.950 . S
C1300 C1299 1.397 . S
C1300 C1301 1.334 . S
C1301 H1278 0.950 . S
C1301 C1300 1.334 . S
C1301 C1302 1.287 . S
C1302 C1301 1.287 . S
C1302 C1303 1.524 . S
C1302 H1321 0.913 . S
C1303 H1279 0.950 . S
C1303 C1302 1.524 . S
C1303 C1304 1.415 . S
C1304 H1280 0.950 . S
C1304 C1299 1.363 . S
C1304 C1303 1.415 . S
C1305 H1281 0.951 . S
C1305 C1306 1.366 . S
C1305 C1307 1.388 . S
C1306 C1305 1.366 . S
C1306 C1310 1.385 . S
C1307 H1282 0.951 . S
C1307 C1305 1.388 . S
C1307 C1308 1.366 . S
C1308 C1307 1.366 . S
C1308 C1309 1.414 . S
C1308 C1311 1.499 . S
C1309 H1283 0.950 . S
C1309 C1308 1.414 . S
C1309 C1310 1.374 . S
C1310 H1284 0.950 . S
C1310 C1306 1.385 . S
C1310 C1309 1.374 . S
C1311 C1308 1.499 . S
C1311 C1312 1.373 . S
C1311 C1313 1.389 . S
C1312 H1285 0.950 . S
C1312 C1298 1.377 . S
C1312 C1311 1.373 . S
C1313 C1297 1.377 . S
C1313 C1311 1.389 . S
C1313 C1314 1.524 . S
C1314 C1313 1.524 . S
C1314 C1315 1.397 . S
C1314 C1319 1.363 . S
C1315 H1286 0.950 . S
C1315 C1314 1.397 . S
C1315 C1316 1.334 . S
C1316 H1287 0.950 . S
C1316 C1315 1.334 . S
C1316 C1317 1.287 . S
C1317 C1316 1.287 . S
C1317 C1318 1.524 . S
C1317 H1320 0.999 . S
C1318 H1288 0.950 . S
C1318 C1317 1.524 . S
C1318 C1319 1.415 . S
C1319 H1289 0.950 . S
C1319 C1314 1.363 . S
C1319 C1318 1.415 . S
H1320 C1317 0.999 . S
H1321 C1302 0.913 . S
H1322 C1340 0.951 . S
H1323 C1342 0.951 . S
H1324 C1344 0.950 . S
H1325 C1345 0.950 . S
H1326 C1347 0.950 . S
H1327 C1350 0.950 . S
H1328 C1351 0.950 . S
H1329 C1353 0.950 . S
H1330 C1354 0.950 . S
H1331 C1355 0.951 . S
H1332 C1357 0.951 . S
H1333 C1359 0.950 . S
H1334 C1360 0.950 . S
H1335 C1362 0.950 . S
H1336 C1365 0.950 . S
H1337 C1366 0.950 . S
H1338 C1368 0.950 . S
H1339 C1369 0.950 . S
C1340 H1322 0.951 . S
C1340 C1341 1.366 . S
C1340 C1342 1.388 . S
C1341 C1340 1.366 . S
C1341 C1345 1.385 . S
C1342 H1323 0.951 . S
C1342 C1340 1.388 . S
C1342 C1343 1.366 . S
C1343 C1342 1.366 . S
C1343 C1344 1.414 . S
C1343 C1346 1.499 . S
C1344 H1324 0.950 . S
C1344 C1343 1.414 . S
C1344 C1345 1.374 . S
C1345 H1325 0.950 . S
C1345 C1341 1.385 . S
C1345 C1344 1.374 . S
C1346 C1343 1.499 . S
C1346 C1347 1.373 . S
C1346 C1348 1.389 . S
C1347 H1326 0.950 . S
C1347 C1346 1.373 . S
C1347 C1363 1.377 . S
C1348 C1346 1.389 . S
C1348 C1349 1.524 . S
C1348 C1362 1.377 . S
C1349 C1348 1.524 . S
C1349 C1350 1.397 . S
C1349 C1354 1.363 . S
C1350 H1327 0.950 . S
C1350 C1349 1.397 . S
C1350 C1351 1.334 . S
C1351 H1328 0.950 . S
C1351 C1350 1.334 . S
C1351 C1352 1.287 . S
C1352 C1351 1.287 . S
C1352 C1353 1.524 . S
C1352 H1371 0.913 . S
C1353 H1329 0.950 . S
C1353 C1352 1.524 . S
C1353 C1354 1.415 . S
C1354 H1330 0.950 . S
C1354 C1349 1.363 . S
C1354 C1353 1.415 . S
C1355 H1331 0.951 . S
C1355 C1356 1.366 . S
C1355 C1357 1.388 . S
C1356 C1355 1.366 . S
C1356 C1360 1.385 . S
C1357 H1332 0.951 . S
C1357 C1355 1.388 . S
C1357 C1358 1.366 . S
C1358 C1357 1.366 . S
C1358 C1359 1.414 . S
C1358 C1361 1.499 . S
C1359 H1333 0.950 . S
C1359 C1358 1.414 . S
C1359 C1360 1.374 . S
C1360 H1334 0.950 . S
C1360 C1356 1.385 . S
C1360 C1359 1.374 . S
C1361 C1358 1.499 . S
C1361 C1362 1.373 . S
C1361 C1363 1.389 . S
C1362 H1335 0.950 . S
C1362 C1348 1.377 . S
C1362 C1361 1.373 . S
C1363 C1347 1.377 . S
C1363 C1361 1.389 . S
C1363 C1364 1.524 . S
C1364 C1363 1.524 . S
C1364 C1365 1.397 . S
C1364 C1369 1.363 . S
C1365 H1336 0.950 . S
C1365 C1364 1.397 . S
C1365 C1366 1.334 . S
C1366 H1337 0.950 . S
C1366 C1365 1.334 . S
C1366 C1367 1.287 . S
C1367 C1366 1.287 . S
C1367 C1368 1.524 . S
C1367 H1370 0.999 . S
C1368 H1338 0.950 . S
C1368 C1367 1.524 . S
C1368 C1369 1.415 . S
C1369 H1339 0.950 . S
C1369 C1364 1.363 . S
C1369 C1368 1.415 . S
H1370 C1367 0.999 . S
H1371 C1352 0.913 . S
H1372 C1390 0.951 . S
H1373 C1392 0.951 . S
H1374 C1394 0.950 . S
H1375 C1395 0.950 . S
H1376 C1397 0.950 . S
H1377 C1400 0.950 . S
H1378 C1401 0.950 . S
H1379 C1403 0.950 . S
H1380 C1404 0.950 . S
H1381 C1405 0.951 . S
H1382 C1407 0.951 . S
H1383 C1409 0.950 . S
H1384 C1410 0.950 . S
H1385 C1412 0.950 . S
H1386 C1415 0.950 . S
H1387 C1416 0.950 . S
H1388 C1418 0.950 . S
H1389 C1419 0.950 . S
C1390 H1372 0.951 . S
C1390 C1391 1.366 . S
C1390 C1392 1.388 . S
C1391 C1390 1.366 . S
C1391 C1395 1.385 . S
C1392 H1373 0.951 . S
C1392 C1390 1.388 . S
C1392 C1393 1.366 . S
C1393 C1392 1.366 . S
C1393 C1394 1.414 . S
C1393 C1396 1.499 . S
C1394 H1374 0.950 . S
C1394 C1393 1.414 . S
C1394 C1395 1.374 . S
C1395 H1375 0.950 . S
C1395 C1391 1.385 . S
C1395 C1394 1.374 . S
C1396 C1393 1.499 . S
C1396 C1397 1.373 . S
C1396 C1398 1.389 . S
C1397 H1376 0.950 . S
C1397 C1396 1.373 . S
C1397 C1413 1.377 . S
C1398 C1396 1.389 . S
C1398 C1399 1.524 . S
C1398 C1412 1.377 . S
C1399 C1398 1.524 . S
C1399 C1400 1.397 . S
C1399 C1404 1.363 . S
C1400 H1377 0.950 . S
C1400 C1399 1.397 . S
C1400 C1401 1.334 . S
C1401 H1378 0.950 . S
C1401 C1400 1.334 . S
C1401 C1402 1.287 . S
C1402 C1401 1.287 . S
C1402 C1403 1.524 . S
C1402 H1421 0.913 . S
C1403 H1379 0.950 . S
C1403 C1402 1.524 . S
C1403 C1404 1.415 . S
C1404 H1380 0.950 . S
C1404 C1399 1.363 . S
C1404 C1403 1.415 . S
C1405 H1381 0.951 . S
C1405 C1406 1.366 . S
C1405 C1407 1.388 . S
C1406 C1405 1.366 . S
C1406 C1410 1.385 . S
C1407 H1382 0.951 . S
C1407 C1405 1.388 . S
C1407 C1408 1.366 . S
C1408 C1407 1.366 . S
C1408 C1409 1.414 . S
C1408 C1411 1.499 . S
C1409 H1383 0.950 . S
C1409 C1408 1.414 . S
C1409 C1410 1.374 . S
C1410 H1384 0.950 . S
C1410 C1406 1.385 . S
C1410 C1409 1.374 . S
C1411 C1408 1.499 . S
C1411 C1412 1.373 . S
C1411 C1413 1.389 . S
C1412 H1385 0.950 . S
C1412 C1398 1.377 . S
C1412 C1411 1.373 . S
C1413 C1397 1.377 . S
C1413 C1411 1.389 . S
C1413 C1414 1.524 . S
C1414 C1413 1.524 . S
C1414 C1415 1.397 . S
C1414 C1419 1.363 . S
C1415 H1386 0.950 . S
C1415 C1414 1.397 . S
C1415 C1416 1.334 . S
C1416 H1387 0.950 . S
C1416 C1415 1.334 . S
C1416 C1417 1.287 . S
C1417 C1416 1.287 . S
C1417 C1418 1.524 . S
C1417 H1420 0.999 . S
C1418 H1388 0.950 . S
C1418 C1417 1.524 . S
C1418 C1419 1.415 . S
C1419 H1389 0.950 . S
C1419 C1414 1.363 . S
C1419 C1418 1.415 . S
H1420 C1417 0.999 . S
H1421 C1402 0.913 . S
H1422 C1440 0.951 . S
H1423 C1442 0.951 . S
H1424 C1444 0.950 . S
H1425 C1445 0.950 1_556 S
H1426 C1447 0.950 . S
H1427 C1450 0.950 . S
H1428 C1451 0.950 . S
H1429 C1453 0.950 . S
H1430 C1454 0.950 . S
H1431 C1455 0.951 . S
H1432 C1457 0.951 . S
H1433 C1459 0.950 . S
H1434 C1460 0.950 . S
H1435 C1462 0.950 1_554 S
H1436 C1465 0.950 . S
H1437 C1466 0.950 . S
H1438 C1468 0.950 . S
H1439 C1469 0.950 . S
C1440 H1422 0.951 . S
C1440 C1441 1.366 . S
C1440 C1442 1.388 . S
C1441 C1440 1.366 . S
C1441 C1445 1.385 . S
C1442 H1423 0.951 . S
C1442 C1440 1.388 . S
C1442 C1443 1.366 . S
C1443 C1442 1.366 . S
C1443 C1444 1.414 1_554 S
C1443 C1446 1.499 1_554 S
C1444 H1424 0.950 . S
C1444 C1443 1.414 1_556 S
C1444 C1445 1.374 1_556 S
C1445 H1425 0.950 1_554 S
C1445 C1441 1.385 . S
C1445 C1444 1.374 1_554 S
C1446 C1443 1.499 1_556 S
C1446 C1447 1.373 . S
C1446 C1448 1.389 1_556 S
C1447 H1426 0.950 . S
C1447 C1446 1.373 . S
C1447 C1463 1.377 . S
C1448 C1446 1.389 1_554 S
C1448 C1449 1.524 . S
C1448 C1462 1.377 1_554 S
C1449 C1448 1.524 . S
C1449 C1450 1.397 . S
C1449 C1454 1.363 . S
C1450 H1427 0.950 . S
C1450 C1449 1.397 . S
C1450 C1451 1.334 . S
C1451 H1428 0.950 . S
C1451 C1450 1.334 . S
C1451 C1452 1.287 . S
C1452 C1451 1.287 . S
C1452 C1453 1.524 . S
C1452 H1471 0.913 . S
C1453 H1429 0.950 . S
C1453 C1452 1.524 . S
C1453 C1454 1.415 . S
C1454 H1430 0.950 . S
C1454 C1449 1.363 . S
C1454 C1453 1.415 . S
C1455 H1431 0.951 . S
C1455 C1456 1.366 . S
C1455 C1457 1.388 . S
C1456 C1455 1.366 . S
C1456 C1460 1.385 . S
C1457 H1432 0.951 . S
C1457 C1455 1.388 . S
C1457 C1458 1.366 . S
C1458 C1457 1.366 . S
C1458 C1459 1.414 . S
C1458 C1461 1.499 . S
C1459 H1433 0.950 . S
C1459 C1458 1.414 . S
C1459 C1460 1.374 . S
C1460 H1434 0.950 . S
C1460 C1456 1.385 . S
C1460 C1459 1.374 . S
C1461 C1458 1.499 . S
C1461 C1462 1.373 . S
C1461 C1463 1.389 . S
C1462 H1435 0.950 1_556 S
C1462 C1448 1.377 1_556 S
C1462 C1461 1.373 . S
C1463 C1447 1.377 . S
C1463 C1461 1.389 . S
C1463 C1464 1.524 . S
C1464 C1463 1.524 . S
C1464 C1465 1.397 . S
C1464 C1469 1.363 . S
C1465 H1436 0.950 . S
C1465 C1464 1.397 . S
C1465 C1466 1.334 . S
C1466 H1437 0.950 . S
C1466 C1465 1.334 . S
C1466 C1467 1.287 . S
C1467 C1466 1.287 . S
C1467 C1468 1.524 . S
C1467 H1470 0.999 . S
C1468 H1438 0.950 . S
C1468 C1467 1.524 . S
C1468 C1469 1.415 . S
C1469 H1439 0.950 . S
C1469 C1464 1.363 . S
C1469 C1468 1.415 . S
H1470 C1467 0.999 . S
H1471 C1452 0.913 . S
H1472 C1490 0.951 . S
H1473 C1492 0.951 . S
H1474 C1494 0.950 . S
H1475 C1495 0.950 . S
H1476 C1497 0.950 . S
H1477 C1500 0.950 . S
H1478 C1501 0.950 . S
H1479 C1503 0.950 . S
H1480 C1504 0.950 . S
H1481 C1505 0.951 . S
H1482 C1507 0.951 . S
H1483 C1509 0.950 . S
H1484 C1510 0.950 . S
H1485 C1512 0.950 . S
H1486 C1515 0.950 . S
H1487 C1516 0.950 . S
H1488 C1518 0.950 . S
H1489 C1519 0.950 . S
C1490 H1472 0.951 . S
C1490 C1491 1.366 . S
C1490 C1492 1.388 . S
C1491 C1490 1.366 . S
C1491 C1495 1.385 . S
C1492 H1473 0.951 . S
C1492 C1490 1.388 . S
C1492 C1493 1.366 . S
C1493 C1492 1.366 . S
C1493 C1494 1.414 . S
C1493 C1496 1.499 . S
C1494 H1474 0.950 . S
C1494 C1493 1.414 . S
C1494 C1495 1.374 . S
C1495 H1475 0.950 . S
C1495 C1491 1.385 . S
C1495 C1494 1.374 . S
C1496 C1493 1.499 . S
C1496 C1497 1.373 . S
C1496 C1498 1.389 . S
C1497 H1476 0.950 . S
C1497 C1496 1.373 . S
C1497 C1513 1.377 . S
C1498 C1496 1.389 . S
C1498 C1499 1.524 . S
C1498 C1512 1.377 . S
C1499 C1498 1.524 . S
C1499 C1500 1.397 . S
C1499 C1504 1.363 . S
C1500 H1477 0.950 . S
C1500 C1499 1.397 . S
C1500 C1501 1.334 . S
C1501 H1478 0.950 . S
C1501 C1500 1.334 . S
C1501 C1502 1.287 . S
C1502 C1501 1.287 . S
C1502 C1503 1.524 . S
C1502 H1521 0.913 . S
C1503 H1479 0.950 . S
C1503 C1502 1.524 . S
C1503 C1504 1.415 . S
C1504 H1480 0.950 . S
C1504 C1499 1.363 . S
C1504 C1503 1.415 . S
C1505 H1481 0.951 . S
C1505 C1506 1.366 . S
C1505 C1507 1.388 . S
C1506 C1505 1.366 . S
C1506 C1510 1.385 . S
C1507 H1482 0.951 . S
C1507 C1505 1.388 . S
C1507 C1508 1.366 . S
C1508 C1507 1.366 . S
C1508 C1509 1.414 . S
C1508 C1511 1.499 . S
C1509 H1483 0.950 . S
C1509 C1508 1.414 . S
C1509 C1510 1.374 . S
C1510 H1484 0.950 . S
C1510 C1506 1.385 . S
C1510 C1509 1.374 . S
C1511 C1508 1.499 . S
C1511 C1512 1.373 . S
C1511 C1513 1.389 . S
C1512 H1485 0.950 . S
C1512 C1498 1.377 . S
C1512 C1511 1.373 . S
C1513 C1497 1.377 . S
C1513 C1511 1.389 . S
C1513 C1514 1.524 . S
C1514 C1513 1.524 . S
C1514 C1515 1.397 . S
C1514 C1519 1.363 . S
C1515 H1486 0.950 . S
C1515 C1514 1.397 . S
C1515 C1516 1.334 . S
C1516 H1487 0.950 . S
C1516 C1515 1.334 . S
C1516 C1517 1.287 . S
C1517 C1516 1.287 . S
C1517 C1518 1.524 . S
C1517 H1520 0.999 . S
C1518 H1488 0.950 . S
C1518 C1517 1.524 . S
C1518 C1519 1.415 . S
C1519 H1489 0.950 . S
C1519 C1514 1.363 . S
C1519 C1518 1.415 . S
H1520 C1517 0.999 . S
H1521 C1502 0.913 . S
H1522 C1540 0.951 . S
H1523 C1542 0.951 . S
H1524 C1544 0.950 . S
H1525 C1545 0.950 . S
H1526 C1547 0.950 . S
H1527 C1550 0.950 . S
H1528 C1551 0.950 . S
H1529 C1553 0.950 . S
H1530 C1554 0.950 . S
H1531 C1555 0.951 . S
H1532 C1557 0.951 . S
H1533 C1559 0.950 . S
H1534 C1560 0.950 . S
H1535 C1562 0.950 . S
H1536 C1565 0.950 . S
H1537 C1566 0.950 . S
H1538 C1568 0.950 . S
H1539 C1569 0.950 . S
C1540 H1522 0.951 . S
C1540 C1541 1.366 . S
C1540 C1542 1.388 . S
C1541 C1540 1.366 . S
C1541 C1545 1.385 . S
C1542 H1523 0.951 . S
C1542 C1540 1.388 . S
C1542 C1543 1.366 . S
C1543 C1542 1.366 . S
C1543 C1544 1.414 . S
C1543 C1546 1.499 . S
C1544 H1524 0.950 . S
C1544 C1543 1.414 . S
C1544 C1545 1.374 . S
C1545 H1525 0.950 . S
C1545 C1541 1.385 . S
C1545 C1544 1.374 . S
C1546 C1543 1.499 . S
C1546 C1547 1.373 . S
C1546 C1548 1.389 . S
C1547 H1526 0.950 . S
C1547 C1546 1.373 . S
C1547 C1563 1.377 . S
C1548 C1546 1.389 . S
C1548 C1549 1.524 . S
C1548 C1562 1.377 . S
C1549 C1548 1.524 . S
C1549 C1550 1.397 . S
C1549 C1554 1.363 . S
C1550 H1527 0.950 . S
C1550 C1549 1.397 . S
C1550 C1551 1.334 . S
C1551 H1528 0.950 . S
C1551 C1550 1.334 . S
C1551 C1552 1.287 . S
C1552 C1551 1.287 . S
C1552 C1553 1.524 . S
C1552 H1571 0.913 . S
C1553 H1529 0.950 . S
C1553 C1552 1.524 . S
C1553 C1554 1.415 . S
C1554 H1530 0.950 . S
C1554 C1549 1.363 . S
C1554 C1553 1.415 . S
C1555 H1531 0.951 . S
C1555 C1556 1.366 . S
C1555 C1557 1.388 . S
C1556 C1555 1.366 . S
C1556 C1560 1.385 . S
C1557 H1532 0.951 . S
C1557 C1555 1.388 . S
C1557 C1558 1.366 . S
C1558 C1557 1.366 . S
C1558 C1559 1.414 . S
C1558 C1561 1.499 . S
C1559 H1533 0.950 . S
C1559 C1558 1.414 . S
C1559 C1560 1.374 . S
C1560 H1534 0.950 . S
C1560 C1556 1.385 . S
C1560 C1559 1.374 . S
C1561 C1558 1.499 . S
C1561 C1562 1.373 . S
C1561 C1563 1.389 . S
C1562 H1535 0.950 . S
C1562 C1548 1.377 . S
C1562 C1561 1.373 . S
C1563 C1547 1.377 . S
C1563 C1561 1.389 . S
C1563 C1564 1.524 . S
C1564 C1563 1.524 . S
C1564 C1565 1.397 . S
C1564 C1569 1.363 . S
C1565 H1536 0.950 . S
C1565 C1564 1.397 . S
C1565 C1566 1.334 . S
C1566 H1537 0.950 . S
C1566 C1565 1.334 . S
C1566 C1567 1.287 . S
C1567 C1566 1.287 . S
C1567 C1568 1.524 . S
C1567 H1570 0.999 . S
C1568 H1538 0.950 . S
C1568 C1567 1.524 . S
C1568 C1569 1.415 . S
C1569 H1539 0.950 . S
C1569 C1564 1.363 . S
C1569 C1568 1.415 . S
H1570 C1567 0.999 . S
H1571 C1552 0.913 . S
C391 C7 0.836 . S
C406 C115 0.837 . S
C441 C25 0.733 . S
C456 C151 0.733 . S
C491 C46 0.639 . S
C506 C187 0.547 . S
C556 C217 0.732 . S
C541 C70 0.735 . S
C606 C259 0.848 . S
C591 C28 0.849 . S
C641 C49 0.743 1_556 S
C656 C289 0.743 . S
C691 C67 0.643 . S
C706 C325 0.595 . S
C741 C4 0.730 . S
C756 C367 0.730 . S
C791 C58 1.928 . S
C806 C337 1.965 . S
C856 C229 1.929 . S
C841 C66 1.834 . S
C906 C295 1.906 . S
C891 C3 1.794 . S
C941 C37 1.556 . S
C956 C331 1.617 . S
C1006 C121 1.982 . S
C991 C79 1.945 . S
C1041 C16 1.537 . S
C1056 C181 1.602 . S
C1106 C223 1.920 . S
C1091 C24 1.809 . S
C1156 C85 1.924 . S
C1141 C45 1.827 . S
C1206 C301 1.004 . S
C1191 C19 0.961 . S
C1256 C361 1.267 . S
C1241 C41 1.103 . S
C1291 C62 1.231 . S
C1306 C253 1.450 . S
C1356 C265 1.241 . S
C1341 C82 1.154 . S
C1406 C157 1.008 . S
C1391 C40 0.953 . S
C1441 C61 1.157 . S
C1456 C193 1.243 . S
C1506 C109 1.437 . S
C1491 C83 1.219 . S
C1556 C145 1.281 . S
C1541 C20 1.113 . S
