# Generated by pormake.
# Topology dag, (6,3)-cn, num edge types: 1
# Building blocks:
#     Node 0, Type 0, BuildingBlock: OJICUG_clean_sbu_0, # of connection points: 6
#     Node 1, Type 0, BuildingBlock: OJICUG_clean_sbu_0, # of connection points: 6
#     Node 2, Type 0, BuildingBlock: OJICUG_clean_sbu_0, # of connection points: 6
#     Node 3, Type 0, BuildingBlock: OJICUG_clean_sbu_0, # of connection points: 6
#     Node 4, Type 1, BuildingBlock: INOVEN_clean_linker_0, # of connection points: 3
#     Node 5, Type 1, BuildingBlock: INOVEN_clean_linker_0, # of connection points: 3
#     Node 6, Type 1, BuildingBlock: INOVEN_clean_linker_0, # of connection points: 3
#     Node 7, Type 1, BuildingBlock: INOVEN_clean_linker_0, # of connection points: 3
#     Node 8, Type 1, BuildingBlock: INOVEN_clean_linker_0, # of connection points: 3
#     Node 9, Type 1, BuildingBlock: INOVEN_clean_linker_0, # of connection points: 3
#     Node 10, Type 1, BuildingBlock: INOVEN_clean_linker_0, # of connection points: 3
#     Node 11, Type 1, BuildingBlock: INOVEN_clean_linker_0, # of connection points: 3
#     Edge 12, Type (0, 1), BuildingBlock: OJICUG_clean_linker_0, # of connection points: 2
#     Edge 13, Type (0, 1), BuildingBlock: OJICUG_clean_linker_0, # of connection points: 2
#     Edge 14, Type (0, 1), BuildingBlock: OJICUG_clean_linker_0, # of connection points: 2
#     Edge 15, Type (0, 1), BuildingBlock: OJICUG_clean_linker_0, # of connection points: 2
#     Edge 16, Type (0, 1), BuildingBlock: OJICUG_clean_linker_0, # of connection points: 2
#     Edge 17, Type (0, 1), BuildingBlock: OJICUG_clean_linker_0, # of connection points: 2
#     Edge 18, Type (0, 1), BuildingBlock: OJICUG_clean_linker_0, # of connection points: 2
#     Edge 19, Type (0, 1), BuildingBlock: OJICUG_clean_linker_0, # of connection points: 2
#     Edge 20, Type (0, 1), BuildingBlock: OJICUG_clean_linker_0, # of connection points: 2
#     Edge 21, Type (0, 1), BuildingBlock: OJICUG_clean_linker_0, # of connection points: 2
#     Edge 22, Type (0, 1), BuildingBlock: OJICUG_clean_linker_0, # of connection points: 2
#     Edge 23, Type (0, 1), BuildingBlock: OJICUG_clean_linker_0, # of connection points: 2
#     Edge 24, Type (0, 1), BuildingBlock: OJICUG_clean_linker_0, # of connection points: 2
#     Edge 25, Type (0, 1), BuildingBlock: OJICUG_clean_linker_0, # of connection points: 2
#     Edge 26, Type (0, 1), BuildingBlock: OJICUG_clean_linker_0, # of connection points: 2
#     Edge 27, Type (0, 1), BuildingBlock: OJICUG_clean_linker_0, # of connection points: 2
#     Edge 28, Type (0, 1), BuildingBlock: OJICUG_clean_linker_0, # of connection points: 2
#     Edge 29, Type (0, 1), BuildingBlock: OJICUG_clean_linker_0, # of connection points: 2
#     Edge 30, Type (0, 1), BuildingBlock: OJICUG_clean_linker_0, # of connection points: 2
#     Edge 31, Type (0, 1), BuildingBlock: OJICUG_clean_linker_0, # of connection points: 2
#     Edge 32, Type (0, 1), BuildingBlock: OJICUG_clean_linker_0, # of connection points: 2
#     Edge 33, Type (0, 1), BuildingBlock: OJICUG_clean_linker_0, # of connection points: 2
#     Edge 34, Type (0, 1), BuildingBlock: OJICUG_clean_linker_0, # of connection points: 2
#     Edge 35, Type (0, 1), BuildingBlock: OJICUG_clean_linker_0, # of connection points: 2
# Relax obj value: 0.098
# Max RMSD: 0.121
# Mean RMSD: 0.102
data_MOF--net-dag--node1-OJICUG_clean_sbu_0--node2-INOVEN_clean_linker_0--edge1-OJICUG_clean_linker_0
_symmetry_space_group_name_H-M    P1
_symmetry_Int_Tables_number       1
_symmetry_cell_setting            triclinic
loop_
_symmetry_equiv_pos_as_xyz
'x, y, z'
_cell_length_a     26.431925
_cell_length_b     29.155276
_cell_length_c     28.558199
_cell_angle_alpha  94.586877
_cell_angle_beta   90.057938
_cell_angle_gamma 90.025054
loop_
_atom_site_label
_atom_site_type_symbol
_atom_site_fract_x
_atom_site_fract_y
_atom_site_fract_z
_atom_type_partial_charge
Sc0 Sc 0.11891 0.89227 0.01606 0.0
Sc1 Sc 0.13294 0.77681 0.04024 0.0
Sc2 Sc 0.22637 0.86052 0.07518 0.0
O3 O 0.15913 0.84288 0.04418 0.0
C4 C 0.22709 0.92397 0.98926 0.0
C5 C 0.09329 0.80792 0.942 0.0
C6 C 0.24957 0.76995 0.00837 0.0
C7 C 0.03564 0.83655 0.07049 0.0
C8 C 0.1606 0.94461 0.11185 0.0
C9 C 0.1905 0.78151 0.13876 0.0
O10 O 0.18192 0.91481 0.9768 0.0
O11 O 0.10331 0.7768 0.96925 0.0
O12 O 0.26295 0.80818 0.02972 0.0
O13 O 0.05265 0.87242 0.05308 0.0
O14 O 0.19248 0.91412 0.12168 0.0
O15 O 0.15703 0.76451 0.11056 0.0
O16 O 0.13528 0.9422 0.07382 0.0
O17 O 0.05958 0.79837 0.06874 0.0
O18 O 0.2181 0.81504 0.12948 0.0
O19 O 0.09797 0.85035 0.95436 0.0
O20 O 0.24627 0.91052 0.02652 0.0
O21 O 0.20486 0.75336 0.01055 0.0
Sc22 Sc 0.72634 0.62177 0.46053 0.0
Sc23 Sc 0.63251 0.70487 0.49581 0.0
Sc24 Sc 0.62014 0.58959 0.52098 0.0
O25 O 0.65934 0.63906 0.49202 0.0
C26 C 0.66127 0.53661 0.42546 0.0
C27 C 0.68859 0.69975 0.39659 0.0
C28 C 0.53554 0.64389 0.46668 0.0
C29 C 0.74939 0.71291 0.52673 0.0
C30 C 0.7292 0.55997 0.54743 0.0
C31 C 0.59448 0.67407 0.59467 0.0
O32 O 0.69256 0.56733 0.41492 0.0
O33 O 0.65563 0.71698 0.42514 0.0
O34 O 0.55318 0.60832 0.48424 0.0
O35 O 0.76288 0.67484 0.50518 0.0
O36 O 0.68399 0.56858 0.56 0.0
O37 O 0.60381 0.7051 0.56713 0.0
O38 O 0.74768 0.57274 0.50964 0.0
O39 O 0.70449 0.72914 0.52493 0.0
O40 O 0.59937 0.63166 0.58243 0.0
O41 O 0.7165 0.66643 0.40582 0.0
O42 O 0.63646 0.53922 0.4637 0.0
O43 O 0.55907 0.68231 0.46799 0.0
Sc44 Sc 0.87001 0.21881 0.99557 0.0
Sc45 Sc 0.77357 0.13469 0.96966 0.0
Sc46 Sc 0.88567 0.10525 0.02464 0.0
O47 O 0.843 0.15306 0.99645 0.0
C48 C 0.96969 0.16178 0.97214 0.0
C49 C 0.81209 0.20531 0.89756 0.0
C50 C 0.84376 0.05174 0.93086 0.0
C51 C 0.75414 0.2319 0.02639 0.0
C52 C 0.90431 0.19127 0.097 0.0
C53 C 0.77657 0.0737 0.05667 0.0
O54 O 0.94356 0.19791 0.9685 0.0
O55 O 0.7838 0.17353 0.91032 0.0
O56 O 0.87562 0.05835 0.96405 0.0
O57 O 0.7995 0.24595 0.02291 0.0
O58 O 0.8988 0.14845 0.0869 0.0
O59 O 0.75235 0.09187 0.02463 0.0
O60 O 0.89862 0.22112 0.06722 0.0
O61 O 0.73911 0.19238 0.00957 0.0
O62 O 0.82416 0.0765 0.06089 0.0
O63 O 0.84558 0.22493 0.92414 0.0
O64 O 0.95355 0.12749 0.99244 0.0
O65 O 0.80375 0.07568 0.92772 0.0
Sc66 Sc 0.38143 0.37821 0.51132 0.0
Sc67 Sc 0.2715 0.34796 0.5681 0.0
Sc68 Sc 0.36913 0.26548 0.54474 0.0
O69 O 0.34085 0.33038 0.54165 0.0
C70 C 0.40569 0.28884 0.44362 0.0
C71 C 0.27329 0.40458 0.47691 0.0
C72 C 0.25334 0.2499 0.51375 0.0
C73 C 0.33412 0.4361 0.60085 0.0
C74 C 0.46628 0.32805 0.56848 0.0
C75 C 0.31174 0.27995 0.64219 0.0
O76 O 0.40344 0.33183 0.45382 0.0
O77 O 0.25155 0.39209 0.51343 0.0
O78 O 0.29819 0.2357 0.52043 0.0
O79 O 0.36277 0.43117 0.56508 0.0
O80 O 0.443 0.28978 0.56836 0.0
O81 O 0.28066 0.30857 0.62743 0.0
O82 O 0.44789 0.36308 0.55068 0.0
O83 O 0.3011 0.40653 0.61049 0.0
O84 O 0.34775 0.26263 0.61725 0.0
O85 O 0.31974 0.39716 0.46849 0.0
O86 O 0.39495 0.25939 0.47252 0.0
O87 O 0.23832 0.29039 0.52721 0.0
H88 H 0.03487 0.20692 0.30311 0.0
H89 H 0.04339 0.11566 0.17809 0.0
H90 H 0.14342 0.09613 0.29378 0.0
N91 N 0.10863 0.16982 0.34871 0.0
N92 N 0.14351 0.15067 0.3691 0.0
C93 C 0.05151 0.17715 0.2838 0.0
C94 C 0.03527 0.16401 0.23823 0.0
C95 C 0.09022 0.15266 0.30417 0.0
C96 C 0.11257 0.11442 0.27862 0.0
C97 C 0.09646 0.10113 0.23261 0.0
C98 C 0.05726 0.12596 0.21313 0.0
H99 H 0.33369 0.59503 0.77483 0.0
H100 H 0.45096 0.60668 0.67229 0.0
H101 H 0.44629 0.70195 0.79484 0.0
N102 N 0.36192 0.66392 0.83228 0.0
N103 N 0.37689 0.69617 0.86013 0.0
C104 C 0.36739 0.61174 0.76282 0.0
C105 C 0.38949 0.59633 0.7199 0.0
C106 C 0.38754 0.64944 0.79015 0.0
C107 C 0.43062 0.67243 0.77434 0.0
C108 C 0.45308 0.65689 0.73146 0.0
C109 C 0.43263 0.61888 0.70492 0.0
H110 H 0.69905 0.90013 0.1885 0.0
H111 H 0.82615 0.92054 0.09918 0.0
H112 H 0.82503 0.80577 0.18447 0.0
N113 N 0.73335 0.82502 0.22377 0.0
N114 N 0.74848 0.78662 0.23404 0.0
C115 C 0.73505 0.8885 0.17381 0.0
C116 C 0.75961 0.91394 0.14115 0.0
C117 C 0.75771 0.84861 0.18856 0.0
C118 C 0.80609 0.8351 0.17137 0.0
C119 C 0.83156 0.86154 0.13985 0.0
C120 C 0.80707 0.8999 0.12379 0.0
H121 H 0.80967 0.38387 0.67267 0.0
H122 H 0.68303 0.40481 0.58287 0.0
H123 H 0.67927 0.29529 0.67485 0.0
N124 N 0.77211 0.31297 0.71228 0.0
N125 N 0.75467 0.27679 0.72615 0.0
C126 C 0.77322 0.37279 0.65846 0.0
C127 C 0.74965 0.39743 0.62469 0.0
C128 C 0.74881 0.33491 0.67546 0.0
C129 C 0.69957 0.32273 0.6596 0.0
C130 C 0.67504 0.34852 0.62689 0.0
C131 C 0.70141 0.38454 0.60824 0.0
H132 H 0.536 0.27114 0.23833 0.0
H133 H 0.54593 0.36289 0.36296 0.0
H134 H 0.64294 0.38328 0.24554 0.0
N135 N 0.60839 0.30889 0.19156 0.0
N136 N 0.64216 0.3288 0.17052 0.0
C137 C 0.55265 0.30113 0.25731 0.0
C138 C 0.53729 0.31419 0.30314 0.0
C139 C 0.5905 0.32601 0.23625 0.0
C140 C 0.61275 0.36465 0.26128 0.0
C141 C 0.59747 0.37792 0.30748 0.0
C142 C 0.55924 0.3526 0.32776 0.0
H143 H 0.31093 0.10225 0.8678 0.0
H144 H 0.18468 0.08393 0.95867 0.0
H145 H 0.18396 0.19505 0.86875 0.0
N146 N 0.27537 0.17509 0.82971 0.0
N147 N 0.25794 0.21126 0.81576 0.0
C148 C 0.27524 0.11439 0.88277 0.0
C149 C 0.25108 0.08984 0.91634 0.0
C150 C 0.2521 0.15343 0.86675 0.0
C151 C 0.20356 0.16685 0.88338 0.0
C152 C 0.17846 0.14123 0.91578 0.0
C153 C 0.20368 0.10415 0.93364 0.0
H154 H 0.19968 0.57952 0.34509 0.0
H155 H 0.32499 0.55848 0.43653 0.0
H156 H 0.32633 0.67326 0.35119 0.0
N157 N 0.23508 0.65466 0.3106 0.0
N158 N 0.25113 0.69274 0.30024 0.0
C159 C 0.23557 0.59092 0.3603 0.0
C160 C 0.25933 0.56533 0.39335 0.0
C161 C 0.2588 0.63071 0.34595 0.0
C162 C 0.30697 0.64397 0.36394 0.0
C163 C 0.33168 0.61745 0.39591 0.0
C164 C 0.3066 0.57916 0.41152 0.0
H165 H 0.84311 0.89572 0.75329 0.0
H166 H 0.95592 0.88043 0.85932 0.0
H167 H 0.94399 0.779 0.74228 0.0
N168 N 0.86389 0.82062 0.70142 0.0
N169 N 0.87733 0.78688 0.67481 0.0
C170 C 0.87404 0.87664 0.76738 0.0
C171 C 0.89801 0.8935 0.80893 0.0
C172 C 0.89032 0.83568 0.74301 0.0
C173 C 0.93103 0.81073 0.76071 0.0
C174 C 0.95473 0.82732 0.80274 0.0
C175 C 0.93781 0.86827 0.82652 0.0
C176 C 0.14357 0.028 0.12642 0.0
C177 C 0.15215 0.98547 0.14475 0.0
H178 H 0.12158 0.09811 0.14003 0.0
C179 C 0.14799 0.98222 0.1934 0.0
H180 H 0.14741 0.03162 0.0891 0.0
C181 C 0.1319 0.02036 0.22276 0.0
C182 C 0.12038 0.06226 0.20379 0.0
H183 H 0.1544 0.94968 0.20828 0.0
H184 H 0.12612 0.01639 0.25976 0.0
C185 C 0.12845 0.066 0.1556 0.0
C186 C 0.52695 0.71448 0.64283 0.0
C187 C 0.56965 0.68573 0.64036 0.0
H188 H 0.45523 0.72838 0.67616 0.0
C189 C 0.57972 0.65851 0.67774 0.0
H190 H 0.51808 0.73544 0.61425 0.0
C191 C 0.54422 0.65511 0.71347 0.0
C192 C 0.49802 0.67858 0.71206 0.0
H193 H 0.61243 0.63605 0.67664 0.0
H194 H 0.55001 0.62967 0.73862 0.0
C195 C 0.49105 0.71064 0.67841 0.0
C196 C 0.76573 0.03901 0.13228 0.0
C197 C 0.75109 0.04096 0.08523 0.0
H198 H 0.7772 -0.00427 0.1884 0.0
C199 C 0.72457 0.00379 0.06252 0.0
H200 H 0.78643 0.06727 0.15031 0.0
C201 C 0.72008 0.96258 0.08408 0.0
C202 C 0.74094 0.95885 0.1288 0.0
H203 H 0.71349 0.00441 0.02604 0.0
H204 H 0.70587 0.9323 0.06377 0.0
C205 C 0.76023 -0.00179 0.15413 0.0
C206 C 0.5486 0.29298 0.59228 0.0
C207 C 0.51813 0.33205 0.58805 0.0
H208 H 0.62265 0.26742 0.60732 0.0
C209 C 0.53878 0.37582 0.59983 0.0
H210 H 0.53374 0.25876 0.5834 0.0
C211 C 0.58911 0.38065 0.61369 0.0
C212 C 0.62049 0.34191 0.61562 0.0
H213 H 0.5162 0.4066 0.59775 0.0
H214 H 0.60364 0.41503 0.62247 0.0
C215 C 0.59945 0.29789 0.60591 0.0
C216 C 0.64774 0.49787 0.34452 0.0
C217 C 0.65293 0.49527 0.39319 0.0
H218 H 0.62509 0.46265 0.27889 0.0
C219 C 0.64537 0.45292 0.41222 0.0
H220 H 0.65333 0.53026 0.32913 0.0
C221 C 0.63026 0.41441 0.38373 0.0
C222 C 0.6212 0.41744 0.33557 0.0
H223 H 0.65 0.44984 0.44955 0.0
H224 H 0.62422 0.38245 0.39982 0.0
C225 C 0.63166 0.45921 0.31588 0.0
C226 C 0.0524 0.19752 0.95034 0.0
C227 C 0.02147 0.1585 0.95279 0.0
H228 H 0.12718 0.22276 0.93731 0.0
C229 C 0.04157 0.11484 0.93965 0.0
H230 H 0.03776 0.2316 0.96029 0.0
C231 C 0.09194 0.10989 0.92639 0.0
C232 C 0.12395 0.14839 0.9265 0.0
H233 H 0.01845 0.08418 0.94025 0.0
H234 H 0.10603 0.07557 0.91656 0.0
C235 C 0.10344 0.19248 0.93734 0.0
C236 C 0.26219 0.43986 0.40134 0.0
C237 C 0.24821 0.43796 0.44857 0.0
H238 H 0.27436 0.4833 0.34544 0.0
C239 C 0.22283 0.47562 0.47165 0.0
H240 H 0.2818 0.41122 0.38285 0.0
C241 C 0.21927 0.51706 0.45041 0.0
C242 C 0.23983 0.52064 0.4056 0.0
H243 H 0.21202 0.47514 0.5082 0.0
H244 H 0.20603 0.54752 0.471 0.0
C245 C 0.25772 0.48099 0.37985 0.0
C246 C 0.02395 0.76948 0.89447 0.0
C247 C 0.06828 0.79618 0.8964 0.0
H248 H 0.95186 0.75789 0.86085 0.0
C249 C 0.08028 0.82176 0.85827 0.0
H250 H 0.01359 0.74993 0.92371 0.0
C251 C 0.0455 0.82551 0.82195 0.0
C252 C 0.99797 0.80427 0.82361 0.0
H253 H 0.11419 0.84272 0.85905 0.0
H254 H 0.05309 0.84975 0.79596 0.0
C255 C 0.9887 0.77383 0.85836 0.0
C256 C 0.81784 0.98678 0.87267 0.0
C257 C 0.85566 0.01495 0.89426 0.0
H258 H 0.80169 0.92523 0.82878 0.0
C259 C 0.9066 0.00582 0.88329 0.0
H260 H 0.7783 -0.00671 0.88059 0.0
C261 C 0.91984 0.96775 0.85348 0.0
C262 C 0.88252 0.93745 0.83447 0.0
H263 H 0.93647 0.02762 0.89869 0.0
H264 H 0.95957 0.96126 0.84641 0.0
C265 C 0.83123 0.94802 0.84305 0.0
C266 C 0.41334 0.29639 0.35875 0.0
C267 C 0.42924 0.27465 0.39839 0.0
H268 H 0.43646 0.3252 0.29551 0.0
C269 C 0.47715 0.25403 0.39841 0.0
H270 H 0.37662 0.31291 0.35839 0.0
C271 C 0.51158 0.26168 0.36276 0.0
C272 C 0.49777 0.28914 0.32662 0.0
H273 H 0.49038 0.23778 0.42898 0.0
H274 H 0.5505 0.2508 0.36633 0.0
C275 C 0.44752 0.30354 0.32289 0.0
C276 C 0.27804 -0.00447 0.99172 0.0
C277 C 0.25347 0.95956 0.96495 0.0
H278 H 0.29731 0.06716 0.9962 0.0
C279 C 0.24349 0.9641 0.91728 0.0
H280 H 0.28595 -0.0071 0.02865 0.0
C281 C 0.25147 0.00618 0.89846 0.0
C282 C 0.26847 0.04419 0.92745 0.0
H283 H 0.22476 0.93672 0.89595 0.0
H284 H 0.23802 0.0106 0.86324 0.0
C285 C 0.28486 0.03798 0.97318 0.0
C286 C 0.45272 0.67724 0.44095 0.0
C287 C 0.48503 0.63927 0.44424 0.0
H288 H 0.37817 0.70021 0.42349 0.0
C289 C 0.46767 0.59527 0.42812 0.0
H290 H 0.46512 0.71157 0.45304 0.0
C291 C 0.41864 0.58892 0.41108 0.0
C292 C 0.38519 0.62627 0.41012 0.0
H293 H 0.49184 0.56537 0.4292 0.0
H294 H 0.40669 0.55439 0.39918 0.0
C295 C 0.40305 0.67076 0.42407 0.0
C296 C 0.33755 0.47783 0.68102 0.0
C297 C 0.34069 0.47834 0.632 0.0
H298 H 0.35162 0.51485 0.74771 0.0
C299 C 0.35459 0.51909 0.61239 0.0
H300 H 0.32696 0.44668 0.69686 0.0
C301 C 0.36771 0.55803 0.64113 0.0
C302 C 0.36824 0.55686 0.69021 0.0
H303 H 0.35639 0.52057 0.57462 0.0
H304 H 0.3788 0.58876 0.62478 0.0
C305 C 0.35156 0.51681 0.71 0.0
C306 C 0.95286 0.80242 0.09519 0.0
C307 C 0.98531 0.84051 0.09321 0.0
H308 H 0.87801 0.77911 0.11122 0.0
C309 C 0.96809 0.88414 0.11059 0.0
H310 H 0.96519 0.76835 0.08212 0.0
C311 C 0.91897 0.89013 0.12733 0.0
C312 C 0.8853 0.85279 0.12673 0.0
H313 H 0.99241 0.91407 0.11052 0.0
H314 H 0.90698 0.92444 0.13999 0.0
C315 C 0.90308 0.80854 0.1118 0.0
C316 C 0.77898 0.4881 0.54607 0.0
C317 C 0.7563 0.52536 0.57235 0.0
H318 H 0.79535 0.41597 0.54332 0.0
C319 C 0.7478 0.5227 0.62053 0.0
H320 H 0.78573 0.48935 0.50877 0.0
C321 C 0.75477 0.48108 0.64049 0.0
C322 C 0.7692 0.44181 0.61211 0.0
H323 H 0.73055 0.55117 0.64142 0.0
H324 H 0.7421 0.47813 0.67621 0.0
C325 C 0.78476 0.44614 0.56579 0.0
C326 C 0.9745 0.22609 0.1446 0.0
C327 C 0.92727 0.20405 0.143 0.0
H328 H 0.04724 0.23028 0.17796 0.0
C329 C 0.91152 0.18054 0.18154 0.0
H330 H 0.98764 0.24388 0.11501 0.0
C331 C 0.94545 0.17299 0.21754 0.0
C332 C 0.99526 0.18896 0.21521 0.0
H333 H 0.87527 0.16309 0.18082 0.0
H334 H 0.93471 0.15004 0.24387 0.0
C335 C 0.00866 0.21815 0.18046 0.0
C336 C 0.23484 0.78139 0.21604 0.0
C337 C 0.20056 0.76024 0.18325 0.0
H338 H 0.27738 0.77553 0.2792 0.0
C339 C 0.17942 0.71749 0.19208 0.0
H340 H 0.25157 0.81449 0.21072 0.0
C341 C 0.19428 0.69544 0.23167 0.0
C342 C 0.23042 0.71598 0.26297 0.0
H343 H 0.1529 0.70031 0.16762 0.0
H344 H 0.17887 0.6618 0.23684 0.0
C345 C 0.24961 0.75934 0.25533 0.0
C346 C 0.83259 0.71546 0.56937 0.0
C347 C 0.786 0.73641 0.55997 0.0
H348 H 0.898 0.71569 0.61415 0.0
C349 C 0.77241 0.77714 0.58665 0.0
H350 H 0.84443 0.68407 0.54957 0.0
C351 C 0.8032 0.79497 0.62348 0.0
C352 C 0.84828 0.77238 0.63444 0.0
H353 H 0.73702 0.79433 0.58037 0.0
H354 H 0.79075 0.82554 0.64431 0.0
C355 C 0.86329 0.73331 0.60635 0.0
C356 C 0.73408 0.30519 0.07442 0.0
C357 C 0.71913 0.26095 0.05619 0.0
H358 H 0.7199 0.36159 0.12569 0.0
C359 C 0.67335 0.24269 0.07147 0.0
H360 H 0.7688 0.32057 0.06301 0.0
C361 C 0.64563 0.26631 0.10727 0.0
C362 C 0.66315 0.30873 0.12813 0.0
H363 H 0.66047 0.20892 0.05794 0.0
H364 H 0.61209 0.25019 0.12026 0.0
C365 C 0.70617 0.32883 0.11008 0.0
C366 C 0.32824 0.22604 0.70474 0.0
C367 C 0.30353 0.26499 0.6898 0.0
H368 H 0.33327 0.17786 0.75736 0.0
C369 C 0.26794 0.28812 0.71975 0.0
H370 H 0.35597 0.20758 0.68259 0.0
C371 C 0.25518 0.27117 0.76238 0.0
C372 C 0.27764 0.23102 0.77599 0.0
H373 H 0.24864 0.31859 0.70966 0.0
H374 H 0.22616 0.28836 0.78404 0.0
C375 C 0.31531 0.20905 0.74753 0.0
C376 C 0.73056 0.69832 0.31824 0.0
C377 C 0.69782 0.72048 0.3517 0.0
H378 H 0.77197 0.70296 0.25432 0.0
C379 C 0.67781 0.76373 0.34318 0.0
H380 H 0.74633 0.66478 0.32328 0.0
C381 C 0.69253 0.78533 0.30328 0.0
C382 C 0.72738 0.7638 0.27138 0.0
H383 H 0.65248 0.78167 0.36817 0.0
H384 H 0.6782 0.8194 0.2984 0.0
C385 C 0.74521 0.7199 0.27865 0.0
C386 C 0.82599 0.26153 0.83666 0.0
C387 C 0.80297 0.22132 0.8505 0.0
H388 H 0.82884 0.31123 0.78544 0.0
C389 C 0.76798 0.19783 0.82004 0.0
H390 H 0.85321 0.2803 0.85918 0.0
C391 C 0.75411 0.21557 0.77807 0.0
C392 C 0.77501 0.25676 0.76553 0.0
H393 H 0.74988 0.16645 0.82924 0.0
H394 H 0.72559 0.198 0.75604 0.0
C395 C 0.81209 0.2792 0.79445 0.0
C396 C 0.23595 0.17637 0.46477 0.0
C397 C 0.21929 0.21981 0.48379 0.0
H398 H 0.22359 0.12021 0.41271 0.0
C399 C 0.17251 0.23656 0.46906 0.0
H400 H 0.27153 0.16214 0.47562 0.0
C401 C 0.14537 0.21244 0.43314 0.0
C402 C 0.16446 0.17098 0.41149 0.0
H403 H 0.1582 0.2696 0.48324 0.0
H404 H 0.1109 0.22748 0.42073 0.0
C405 C 0.20863 0.15222 0.42891 0.0
C406 C 0.27223 0.7059 0.94824 0.0
C407 C 0.2861 0.74645 0.97514 0.0
H408 H 0.2902 0.65768 0.89041 0.0
C409 C 0.33298 0.76706 0.96612 0.0
H410 H 0.23664 0.68891 0.95426 0.0
C411 C 0.36367 0.74912 0.92922 0.0
C412 C 0.34826 0.71036 0.9008 0.0
H413 H 0.34506 0.79826 0.98616 0.0
H414 H 0.39856 0.76654 0.92164 0.0
C415 C 0.30292 0.68804 0.91146 0.0
loop_
_geom_bond_atom_site_label_1
_geom_bond_atom_site_label_2
_geom_bond_distance
_geom_bond_site_symmetry_2
_ccdc_geom_bond_type
Sc0 O3 2.025 . S
Sc0 O10 2.105 1_554 S
Sc0 O13 2.105 . S
Sc0 O16 2.105 . S
Sc0 O19 2.105 1_554 S
Sc1 O3 2.025 . S
Sc1 O11 2.105 1_554 S
Sc1 O15 2.105 . S
Sc1 O17 2.105 . S
Sc1 O21 2.105 1_554 S
Sc2 O3 2.025 . S
Sc2 O12 2.105 . S
Sc2 O14 2.105 . S
Sc2 O18 2.105 . S
Sc2 O20 2.105 . S
O3 Sc0 2.025 . S
O3 Sc1 2.025 . S
O3 Sc2 2.025 . S
C4 O10 1.268 . S
C4 O20 1.268 1_556 S
C5 O11 1.268 . S
C5 O19 1.268 . S
C6 O12 1.268 1_556 S
C6 O21 1.268 . S
C7 O13 1.268 . S
C7 O17 1.268 . S
C8 O14 1.268 . S
C8 O16 1.268 . S
C9 O15 1.268 . S
C9 O18 1.268 . S
O10 Sc0 2.105 1_556 S
O10 C4 1.268 . S
O11 Sc1 2.105 1_556 S
O11 C5 1.268 . S
O12 Sc2 2.105 . S
O12 C6 1.268 1_554 S
O13 Sc0 2.105 . S
O13 C7 1.268 . S
O14 Sc2 2.105 . S
O14 C8 1.268 . S
O15 Sc1 2.105 . S
O15 C9 1.268 . S
O16 Sc0 2.105 . S
O16 C8 1.268 . S
O17 Sc1 2.105 . S
O17 C7 1.268 . S
O18 Sc2 2.105 . S
O18 C9 1.268 . S
O19 Sc0 2.105 1_556 S
O19 C5 1.268 . S
O20 Sc2 2.105 . S
O20 C4 1.268 1_554 S
O21 Sc1 2.105 1_556 S
O21 C6 1.268 . S
Sc22 O25 2.025 . S
Sc22 O32 2.105 . S
Sc22 O35 2.105 . S
Sc22 O38 2.105 . S
Sc22 O41 2.105 . S
Sc23 O25 2.025 . S
Sc23 O33 2.105 . S
Sc23 O37 2.105 . S
Sc23 O39 2.105 . S
Sc23 O43 2.105 . S
Sc24 O25 2.025 . S
Sc24 O34 2.105 . S
Sc24 O36 2.105 . S
Sc24 O40 2.105 . S
Sc24 O42 2.105 . S
O25 Sc22 2.025 . S
O25 Sc23 2.025 . S
O25 Sc24 2.025 . S
C26 O32 1.268 . S
C26 O42 1.268 . S
C27 O33 1.268 . S
C27 O41 1.268 . S
C28 O34 1.268 . S
C28 O43 1.268 . S
C29 O35 1.268 . S
C29 O39 1.268 . S
C30 O36 1.268 . S
C30 O38 1.268 . S
C31 O37 1.268 . S
C31 O40 1.268 . S
O32 Sc22 2.105 . S
O32 C26 1.268 . S
O33 Sc23 2.105 . S
O33 C27 1.268 . S
O34 Sc24 2.105 . S
O34 C28 1.268 . S
O35 Sc22 2.105 . S
O35 C29 1.268 . S
O36 Sc24 2.105 . S
O36 C30 1.268 . S
O37 Sc23 2.105 . S
O37 C31 1.268 . S
O38 Sc22 2.105 . S
O38 C30 1.268 . S
O39 Sc23 2.105 . S
O39 C29 1.268 . S
O40 Sc24 2.105 . S
O40 C31 1.268 . S
O41 Sc22 2.105 . S
O41 C27 1.268 . S
O42 Sc24 2.105 . S
O42 C26 1.268 . S
O43 Sc23 2.105 . S
O43 C28 1.268 . S
Sc44 O47 2.025 . S
Sc44 O54 2.105 1_554 S
Sc44 O57 2.105 . S
Sc44 O60 2.105 . S
Sc44 O63 2.105 1_554 S
Sc45 O47 2.025 1_556 S
Sc45 O55 2.105 . S
Sc45 O59 2.105 1_556 S
Sc45 O61 2.105 1_556 S
Sc45 O65 2.105 . S
Sc46 O47 2.025 . S
Sc46 O56 2.105 1_554 S
Sc46 O58 2.105 . S
Sc46 O62 2.105 . S
Sc46 O64 2.105 1_554 S
O47 Sc44 2.025 . S
O47 Sc45 2.025 1_554 S
O47 Sc46 2.025 . S
C48 O54 1.268 . S
C48 O64 1.268 . S
C49 O55 1.268 . S
C49 O63 1.268 . S
C50 O56 1.268 . S
C50 O65 1.268 . S
C51 O57 1.268 . S
C51 O61 1.268 . S
C52 O58 1.268 . S
C52 O60 1.268 . S
C53 O59 1.268 . S
C53 O62 1.268 . S
O54 Sc44 2.105 1_556 S
O54 C48 1.268 . S
O55 Sc45 2.105 . S
O55 C49 1.268 . S
O56 Sc46 2.105 1_556 S
O56 C50 1.268 . S
O57 Sc44 2.105 . S
O57 C51 1.268 . S
O58 Sc46 2.105 . S
O58 C52 1.268 . S
O59 Sc45 2.105 1_554 S
O59 C53 1.268 . S
O60 Sc44 2.105 . S
O60 C52 1.268 . S
O61 Sc45 2.105 1_554 S
O61 C51 1.268 . S
O62 Sc46 2.105 . S
O62 C53 1.268 . S
O63 Sc44 2.105 1_556 S
O63 C49 1.268 . S
O64 Sc46 2.105 1_556 S
O64 C48 1.268 . S
O65 Sc45 2.105 . S
O65 C50 1.268 . S
Sc66 O69 2.025 . S
Sc66 O76 2.105 . S
Sc66 O79 2.105 . S
Sc66 O82 2.105 . S
Sc66 O85 2.105 . S
Sc67 O69 2.025 . S
Sc67 O77 2.105 . S
Sc67 O81 2.105 . S
Sc67 O83 2.105 . S
Sc67 O87 2.105 . S
Sc68 O69 2.025 . S
Sc68 O78 2.105 . S
Sc68 O80 2.105 . S
Sc68 O84 2.105 . S
Sc68 O86 2.105 . S
O69 Sc66 2.025 . S
O69 Sc67 2.025 . S
O69 Sc68 2.025 . S
C70 O76 1.268 . S
C70 O86 1.268 . S
C71 O77 1.268 . S
C71 O85 1.268 . S
C72 O78 1.268 . S
C72 O87 1.268 . S
C73 O79 1.268 . S
C73 O83 1.268 . S
C74 O80 1.268 . S
C74 O82 1.268 . S
C75 O81 1.268 . S
C75 O84 1.268 . S
O76 Sc66 2.105 . S
O76 C70 1.268 . S
O77 Sc67 2.105 . S
O77 C71 1.268 . S
O78 Sc68 2.105 . S
O78 C72 1.268 . S
O79 Sc66 2.105 . S
O79 C73 1.268 . S
O80 Sc68 2.105 . S
O80 C74 1.268 . S
O81 Sc67 2.105 . S
O81 C75 1.268 . S
O82 Sc66 2.105 . S
O82 C74 1.268 . S
O83 Sc67 2.105 . S
O83 C73 1.268 . S
O84 Sc68 2.105 . S
O84 C75 1.268 . S
O85 Sc66 2.105 . S
O85 C71 1.268 . S
O86 Sc68 2.105 . S
O86 C70 1.268 . S
O87 Sc67 2.105 . S
O87 C72 1.268 . S
H88 C93 0.929 . S
H89 C98 0.931 . S
H90 C96 0.930 . S
N91 N92 1.234 . S
N91 C95 1.453 . S
N92 N91 1.234 . S
C93 H88 0.929 . S
C93 C94 1.373 . S
C93 C95 1.368 . S
C94 C93 1.373 . S
C94 C98 1.397 . S
C95 N91 1.453 . S
C95 C93 1.368 . S
C95 C96 1.373 . S
C96 H90 0.930 . S
C96 C95 1.373 . S
C96 C97 1.371 . S
C97 C96 1.371 . S
C97 C98 1.383 . S
C98 H89 0.931 . S
C98 C94 1.397 . S
C98 C97 1.383 . S
H99 C104 0.929 . S
H100 C109 0.931 . S
H101 C107 0.930 . S
N102 N103 1.234 . S
N102 C106 1.453 . S
N103 N102 1.234 . S
C104 H99 0.929 . S
C104 C105 1.373 . S
C104 C106 1.368 . S
C105 C104 1.373 . S
C105 C109 1.397 . S
C106 N102 1.453 . S
C106 C104 1.368 . S
C106 C107 1.373 . S
C107 H101 0.930 . S
C107 C106 1.373 . S
C107 C108 1.371 . S
C108 C107 1.371 . S
C108 C109 1.383 . S
C109 H100 0.931 . S
C109 C105 1.397 . S
C109 C108 1.383 . S
H110 C115 0.929 . S
H111 C120 0.931 . S
H112 C118 0.930 . S
N113 N114 1.234 . S
N113 C117 1.453 . S
N114 N113 1.234 . S
C115 H110 0.929 . S
C115 C116 1.373 . S
C115 C117 1.368 . S
C116 C115 1.373 . S
C116 C120 1.397 . S
C117 N113 1.453 . S
C117 C115 1.368 . S
C117 C118 1.373 . S
C118 H112 0.930 . S
C118 C117 1.373 . S
C118 C119 1.371 . S
C119 C118 1.371 . S
C119 C120 1.383 . S
C120 H111 0.931 . S
C120 C116 1.397 . S
C120 C119 1.383 . S
H121 C126 0.929 . S
H122 C131 0.931 . S
H123 C129 0.930 . S
N124 N125 1.234 . S
N124 C128 1.453 . S
N125 N124 1.234 . S
C126 H121 0.929 . S
C126 C127 1.373 . S
C126 C128 1.368 . S
C127 C126 1.373 . S
C127 C131 1.397 . S
C128 N124 1.453 . S
C128 C126 1.368 . S
C128 C129 1.373 . S
C129 H123 0.930 . S
C129 C128 1.373 . S
C129 C130 1.371 . S
C130 C129 1.371 . S
C130 C131 1.383 . S
C131 H122 0.931 . S
C131 C127 1.397 . S
C131 C130 1.383 . S
H132 C137 0.929 . S
H133 C142 0.931 . S
H134 C140 0.930 . S
N135 N136 1.234 . S
N135 C139 1.453 . S
N136 N135 1.234 . S
C137 H132 0.929 . S
C137 C138 1.373 . S
C137 C139 1.368 . S
C138 C137 1.373 . S
C138 C142 1.397 . S
C139 N135 1.453 . S
C139 C137 1.368 . S
C139 C140 1.373 . S
C140 H134 0.930 . S
C140 C139 1.373 . S
C140 C141 1.371 . S
C141 C140 1.371 . S
C141 C142 1.383 . S
C142 H133 0.931 . S
C142 C138 1.397 . S
C142 C141 1.383 . S
H143 C148 0.929 . S
H144 C153 0.931 . S
H145 C151 0.930 . S
N146 N147 1.234 . S
N146 C150 1.453 . S
N147 N146 1.234 . S
C148 H143 0.929 . S
C148 C149 1.373 . S
C148 C150 1.368 . S
C149 C148 1.373 . S
C149 C153 1.397 . S
C150 N146 1.453 . S
C150 C148 1.368 . S
C150 C151 1.373 . S
C151 H145 0.930 . S
C151 C150 1.373 . S
C151 C152 1.371 . S
C152 C151 1.371 . S
C152 C153 1.383 . S
C153 H144 0.931 . S
C153 C149 1.397 . S
C153 C152 1.383 . S
H154 C159 0.929 . S
H155 C164 0.931 . S
H156 C162 0.930 . S
N157 N158 1.234 . S
N157 C161 1.453 . S
N158 N157 1.234 . S
C159 H154 0.929 . S
C159 C160 1.373 . S
C159 C161 1.368 . S
C160 C159 1.373 . S
C160 C164 1.397 . S
C161 N157 1.453 . S
C161 C159 1.368 . S
C161 C162 1.373 . S
C162 H156 0.930 . S
C162 C161 1.373 . S
C162 C163 1.371 . S
C163 C162 1.371 . S
C163 C164 1.383 . S
C164 H155 0.931 . S
C164 C160 1.397 . S
C164 C163 1.383 . S
H165 C170 0.929 . S
H166 C175 0.931 . S
H167 C173 0.930 . S
N168 N169 1.234 . S
N168 C172 1.453 . S
N169 N168 1.234 . S
C170 H165 0.929 . S
C170 C171 1.373 . S
C170 C172 1.368 . S
C171 C170 1.373 . S
C171 C175 1.397 . S
C172 N168 1.453 . S
C172 C170 1.368 . S
C172 C173 1.373 . S
C173 H167 0.930 . S
C173 C172 1.373 . S
C173 C174 1.371 . S
C174 C173 1.371 . S
C174 C175 1.383 . S
C175 H166 0.931 . S
C175 C171 1.397 . S
C175 C174 1.383 . S
C176 C177 1.387 1_545 S
C176 H180 0.949 1_545 S
C176 C185 1.390 . S
C177 C176 1.387 1_565 S
C177 C179 1.387 . S
H178 C185 0.950 . S
C179 C177 1.387 . S
C179 C181 1.390 1_565 S
C179 H183 0.950 . S
H180 C176 0.949 1_565 S
C181 C179 1.390 1_545 S
C181 C182 1.387 . S
C181 H184 0.950 . S
C182 C181 1.387 . S
C182 C185 1.387 . S
H183 C179 0.950 . S
H184 C181 0.950 . S
C185 C176 1.390 . S
C185 H178 0.950 . S
C185 C182 1.387 . S
C186 C187 1.387 . S
C186 H190 0.950 . S
C186 C195 1.390 . S
C187 C186 1.387 . S
C187 C189 1.387 . S
H188 C195 0.950 . S
C189 C187 1.387 . S
C189 C191 1.390 . S
C189 H193 0.950 . S
H190 C186 0.950 . S
C191 C189 1.390 . S
C191 C192 1.387 . S
C191 H194 0.950 . S
C192 C191 1.387 . S
C192 C195 1.387 . S
H193 C189 0.950 . S
H194 C191 0.950 . S
C195 C186 1.390 . S
C195 H188 0.950 . S
C195 C192 1.387 . S
C196 C197 1.387 . S
C196 H200 0.950 . S
C196 C205 1.390 1_545 S
C197 C196 1.387 . S
C197 C199 1.387 1_545 S
H198 C205 0.950 . S
C199 C197 1.387 1_565 S
C199 C201 1.390 . S
C199 H203 0.950 . S
H200 C196 0.950 . S
C201 C199 1.390 . S
C201 C202 1.387 . S
C201 H204 0.950 . S
C202 C201 1.387 . S
C202 C205 1.387 . S
H203 C199 0.950 . S
H204 C201 0.950 . S
C205 C196 1.390 1_565 S
C205 H198 0.950 . S
C205 C202 1.387 . S
C206 C207 1.387 . S
C206 H210 0.950 . S
C206 C215 1.390 . S
C207 C206 1.387 . S
C207 C209 1.387 . S
H208 C215 0.950 . S
C209 C207 1.387 . S
C209 C211 1.390 . S
C209 H213 0.950 . S
H210 C206 0.950 . S
C211 C209 1.390 . S
C211 C212 1.387 . S
C211 H214 0.950 . S
C212 C211 1.387 . S
C212 C215 1.387 . S
H213 C209 0.950 . S
H214 C211 0.950 . S
C215 C206 1.390 . S
C215 H208 0.950 . S
C215 C212 1.387 . S
C216 C217 1.387 . S
C216 H220 0.950 . S
C216 C225 1.390 . S
C217 C216 1.387 . S
C217 C219 1.387 . S
H218 C225 0.950 . S
C219 C217 1.387 . S
C219 C221 1.390 . S
C219 H223 0.950 . S
H220 C216 0.950 . S
C221 C219 1.390 . S
C221 C222 1.387 . S
C221 H224 0.950 . S
C222 C221 1.387 . S
C222 C225 1.387 . S
H223 C219 0.950 . S
H224 C221 0.950 . S
C225 C216 1.390 . S
C225 H218 0.950 . S
C225 C222 1.387 . S
C226 C227 1.387 . S
C226 H230 0.950 . S
C226 C235 1.390 . S
C227 C226 1.387 . S
C227 C229 1.387 . S
H228 C235 0.950 . S
C229 C227 1.387 . S
C229 C231 1.390 . S
C229 H233 0.950 . S
H230 C226 0.950 . S
C231 C229 1.390 . S
C231 C232 1.387 . S
C231 H234 0.950 . S
C232 C231 1.387 . S
C232 C235 1.387 . S
H233 C229 0.950 . S
H234 C231 0.950 . S
C235 C226 1.390 . S
C235 H228 0.950 . S
C235 C232 1.387 . S
C236 C237 1.387 . S
C236 H240 0.950 . S
C236 C245 1.390 . S
C237 C236 1.387 . S
C237 C239 1.387 . S
H238 C245 0.950 . S
C239 C237 1.387 . S
C239 C241 1.390 . S
C239 H243 0.950 . S
H240 C236 0.950 . S
C241 C239 1.390 . S
C241 C242 1.387 . S
C241 H244 0.950 . S
C242 C241 1.387 . S
C242 C245 1.387 . S
H243 C239 0.950 . S
H244 C241 0.950 . S
C245 C236 1.390 . S
C245 H238 0.950 . S
C245 C242 1.387 . S
C246 C247 1.387 . S
C246 H250 0.950 . S
C246 C255 1.390 1_455 S
C247 C246 1.387 . S
C247 C249 1.387 . S
H248 C255 0.950 . S
C249 C247 1.387 . S
C249 C251 1.390 . S
C249 H253 0.950 . S
H250 C246 0.950 . S
C251 C249 1.390 . S
C251 C252 1.387 1_455 S
C251 H254 0.950 1_455 S
C252 C251 1.387 1_655 S
C252 C255 1.387 . S
H253 C249 0.950 . S
H254 C251 0.950 1_655 S
C255 C246 1.390 1_655 S
C255 H248 0.950 . S
C255 C252 1.387 . S
C256 C257 1.387 . S
C256 H260 0.950 . S
C256 C265 1.390 1_545 S
C257 C256 1.387 . S
C257 C259 1.387 . S
H258 C265 0.950 . S
C259 C257 1.387 . S
C259 C261 1.390 1_545 S
C259 H263 0.950 . S
H260 C256 0.950 . S
C261 C259 1.390 1_565 S
C261 C262 1.387 . S
C261 H264 0.950 . S
C262 C261 1.387 . S
C262 C265 1.387 . S
H263 C259 0.950 . S
H264 C261 0.950 . S
C265 C256 1.390 1_565 S
C265 H258 0.950 . S
C265 C262 1.387 . S
C266 C267 1.387 . S
C266 H270 0.950 . S
C266 C275 1.390 . S
C267 C266 1.387 . S
C267 C269 1.387 . S
H268 C275 0.950 . S
C269 C267 1.387 . S
C269 C271 1.390 . S
C269 H273 0.950 . S
H270 C266 0.950 . S
C271 C269 1.390 . S
C271 C272 1.387 . S
C271 H274 0.950 . S
C272 C271 1.387 . S
C272 C275 1.387 . S
H273 C269 0.950 . S
H274 C271 0.950 . S
C275 C266 1.390 . S
C275 H268 0.950 . S
C275 C272 1.387 . S
C276 C277 1.387 1_545 S
C276 H280 0.950 1_556 S
C276 C285 1.390 . S
C277 C276 1.387 1_565 S
C277 C279 1.387 . S
H278 C285 0.950 . S
C279 C277 1.387 . S
C279 C281 1.390 1_565 S
C279 H283 0.950 . S
H280 C276 0.950 1_554 S
C281 C279 1.390 1_545 S
C281 C282 1.387 . S
C281 H284 0.950 . S
C282 C281 1.387 . S
C282 C285 1.387 . S
H283 C279 0.950 . S
H284 C281 0.950 . S
C285 C276 1.390 . S
C285 H278 0.950 . S
C285 C282 1.387 . S
C286 C287 1.387 . S
C286 H290 0.950 . S
C286 C295 1.390 . S
C287 C286 1.387 . S
C287 C289 1.387 . S
H288 C295 0.950 . S
C289 C287 1.387 . S
C289 C291 1.390 . S
C289 H293 0.950 . S
H290 C286 0.950 . S
C291 C289 1.390 . S
C291 C292 1.387 . S
C291 H294 0.950 . S
C292 C291 1.387 . S
C292 C295 1.387 . S
H293 C289 0.950 . S
H294 C291 0.950 . S
C295 C286 1.390 . S
C295 H288 0.950 . S
C295 C292 1.387 . S
C296 C297 1.387 . S
C296 H300 0.950 . S
C296 C305 1.390 . S
C297 C296 1.387 . S
C297 C299 1.387 . S
H298 C305 0.950 . S
C299 C297 1.387 . S
C299 C301 1.390 . S
C299 H303 0.950 . S
H300 C296 0.950 . S
C301 C299 1.390 . S
C301 C302 1.387 . S
C301 H304 0.950 . S
C302 C301 1.387 . S
C302 C305 1.387 . S
H303 C299 0.950 . S
H304 C301 0.950 . S
C305 C296 1.390 . S
C305 H298 0.950 . S
C305 C302 1.387 . S
C306 C307 1.387 . S
C306 H310 0.950 . S
C306 C315 1.390 . S
C307 C306 1.387 . S
C307 C309 1.387 . S
H308 C315 0.950 . S
C309 C307 1.387 . S
C309 C311 1.390 . S
C309 H313 0.950 . S
H310 C306 0.950 . S
C311 C309 1.390 . S
C311 C312 1.387 . S
C311 H314 0.950 . S
C312 C311 1.387 . S
C312 C315 1.387 . S
H313 C309 0.950 . S
H314 C311 0.950 . S
C315 C306 1.390 . S
C315 H308 0.950 . S
C315 C312 1.387 . S
C316 C317 1.387 . S
C316 H320 0.950 . S
C316 C325 1.390 . S
C317 C316 1.387 . S
C317 C319 1.387 . S
H318 C325 0.950 . S
C319 C317 1.387 . S
C319 C321 1.390 . S
C319 H323 0.950 . S
H320 C316 0.950 . S
C321 C319 1.390 . S
C321 C322 1.387 . S
C321 H324 0.950 . S
C322 C321 1.387 . S
C322 C325 1.387 . S
H323 C319 0.950 . S
H324 C321 0.950 . S
C325 C316 1.390 . S
C325 H318 0.950 . S
C325 C322 1.387 . S
C326 C327 1.387 . S
C326 H330 0.950 . S
C326 C335 1.394 . S
C327 C326 1.387 . S
C327 C329 1.387 . S
H328 C335 0.947 1_455 S
C329 C327 1.387 . S
C329 C331 1.390 . S
C329 H333 0.950 . S
H330 C326 0.950 . S
C331 C329 1.390 . S
C331 C332 1.387 1_655 S
C331 H334 0.950 . S
C332 C331 1.387 1_455 S
C332 C335 1.386 1_455 S
H333 C329 0.950 . S
H334 C331 0.950 . S
C335 C326 1.394 . S
C335 H328 0.947 1_655 S
C335 C332 1.386 1_655 S
C336 C337 1.387 . S
C336 H340 0.950 . S
C336 C345 1.390 . S
C337 C336 1.387 . S
C337 C339 1.387 . S
H338 C345 0.950 . S
C339 C337 1.387 . S
C339 C341 1.390 . S
C339 H343 0.950 . S
H340 C336 0.950 . S
C341 C339 1.390 . S
C341 C342 1.387 . S
C341 H344 0.950 . S
C342 C341 1.387 . S
C342 C345 1.387 . S
H343 C339 0.950 . S
H344 C341 0.950 . S
C345 C336 1.390 . S
C345 H338 0.950 . S
C345 C342 1.387 . S
C346 C347 1.387 . S
C346 H350 0.950 . S
C346 C355 1.390 . S
C347 C346 1.387 . S
C347 C349 1.387 . S
H348 C355 0.950 . S
C349 C347 1.387 . S
C349 C351 1.390 . S
C349 H353 0.950 . S
H350 C346 0.950 . S
C351 C349 1.390 . S
C351 C352 1.387 . S
C351 H354 0.950 . S
C352 C351 1.387 . S
C352 C355 1.387 . S
H353 C349 0.950 . S
H354 C351 0.950 . S
C355 C346 1.390 . S
C355 H348 0.950 . S
C355 C352 1.387 . S
C356 C357 1.387 . S
C356 H360 0.950 . S
C356 C365 1.390 . S
C357 C356 1.387 . S
C357 C359 1.387 . S
H358 C365 0.950 . S
C359 C357 1.387 . S
C359 C361 1.390 . S
C359 H363 0.950 . S
H360 C356 0.950 . S
C361 C359 1.390 . S
C361 C362 1.387 . S
C361 H364 0.950 . S
C362 C361 1.387 . S
C362 C365 1.387 . S
H363 C359 0.950 . S
H364 C361 0.950 . S
C365 C356 1.390 . S
C365 H358 0.950 . S
C365 C362 1.387 . S
C366 C367 1.387 . S
C366 H370 0.950 . S
C366 C375 1.390 . S
C367 C366 1.387 . S
C367 C369 1.387 . S
H368 C375 0.950 . S
C369 C367 1.387 . S
C369 C371 1.390 . S
C369 H373 0.950 . S
H370 C366 0.950 . S
C371 C369 1.390 . S
C371 C372 1.387 . S
C371 H374 0.950 . S
C372 C371 1.387 . S
C372 C375 1.387 . S
H373 C369 0.950 . S
H374 C371 0.950 . S
C375 C366 1.390 . S
C375 H368 0.950 . S
C375 C372 1.387 . S
C376 C377 1.387 . S
C376 H380 0.950 . S
C376 C385 1.390 . S
C377 C376 1.387 . S
C377 C379 1.387 . S
H378 C385 0.950 . S
C379 C377 1.387 . S
C379 C381 1.390 . S
C379 H383 0.950 . S
H380 C376 0.950 . S
C381 C379 1.390 . S
C381 C382 1.387 . S
C381 H384 0.950 . S
C382 C381 1.387 . S
C382 C385 1.387 . S
H383 C379 0.950 . S
H384 C381 0.950 . S
C385 C376 1.390 . S
C385 H378 0.950 . S
C385 C382 1.387 . S
C386 C387 1.387 . S
C386 H390 0.950 . S
C386 C395 1.390 . S
C387 C386 1.387 . S
C387 C389 1.387 . S
H388 C395 0.950 . S
C389 C387 1.387 . S
C389 C391 1.390 . S
C389 H393 0.950 . S
H390 C386 0.950 . S
C391 C389 1.390 . S
C391 C392 1.387 . S
C391 H394 0.950 . S
C392 C391 1.387 . S
C392 C395 1.387 . S
H393 C389 0.950 . S
H394 C391 0.950 . S
C395 C386 1.390 . S
C395 H388 0.950 . S
C395 C392 1.387 . S
C396 C397 1.387 . S
C396 H400 0.950 . S
C396 C405 1.390 . S
C397 C396 1.387 . S
C397 C399 1.387 . S
H398 C405 0.950 . S
C399 C397 1.387 . S
C399 C401 1.390 . S
C399 H403 0.950 . S
H400 C396 0.950 . S
C401 C399 1.390 . S
C401 C402 1.387 . S
C401 H404 0.950 . S
C402 C401 1.387 . S
C402 C405 1.387 . S
H403 C399 0.950 . S
H404 C401 0.950 . S
C405 C396 1.390 . S
C405 H398 0.950 . S
C405 C402 1.387 . S
C406 C407 1.387 . S
C406 H410 0.950 . S
C406 C415 1.390 . S
C407 C406 1.387 . S
C407 C409 1.387 . S
H408 C415 0.950 . S
C409 C407 1.387 . S
C409 C411 1.390 . S
C409 H413 0.950 . S
H410 C406 0.950 . S
C411 C409 1.390 . S
C411 C412 1.387 . S
C411 H414 0.950 . S
C412 C411 1.387 . S
C412 C415 1.387 . S
H413 C409 0.950 . S
H414 C411 0.950 . S
C415 C406 1.390 . S
C415 H408 0.950 . S
C415 C412 1.387 . S
C177 C8 1.507 . S
C182 C97 1.440 . S
C187 C31 1.483 . S
C192 C108 1.380 . S
C197 C53 1.442 . S
C202 C116 1.388 . S
C212 C130 1.410 . S
C207 C74 1.411 . S
C222 C141 1.438 . S
C217 C26 1.508 . S
C227 C48 1.411 1_455 S
C232 C152 1.411 . S
C237 C71 1.440 . S
C242 C160 1.387 . S
C247 C5 1.483 . S
C252 C174 1.380 . S
C257 C50 1.366 . S
C262 C171 1.339 . S
C272 C138 1.252 . S
C267 C70 1.305 . S
C282 C149 1.374 . S
C277 C4 1.408 . S
C287 C28 1.420 . S
C292 C163 1.414 . S
C302 C105 1.337 . S
C297 C73 1.367 . S
C307 C7 1.420 1_655 S
C312 C119 1.414 . S
C322 C127 1.374 . S
C317 C30 1.407 . S
C332 C94 1.256 . S
C327 C52 1.301 . S
C342 N158 1.464 . S
C337 C9 1.506 . S
C352 N169 1.476 . S
C347 C29 1.464 . S
C357 C51 1.411 . S
C362 N136 1.418 . S
C372 N147 1.418 . S
C367 C75 1.472 . S
C382 N114 1.465 . S
C377 C27 1.507 . S
C387 C49 1.471 . S
C392 N125 1.421 . S
C402 N92 1.419 . S
C397 C72 1.412 . S
C412 N103 1.475 . S
C407 C6 1.463 . S
