# Generated by pormake.
# Topology ant, (3,6)-cn, num edge types: 1
# Building blocks:
#     Node 0, Type 0, BuildingBlock: KAKCAD_clean_linker_0, # of connection points: 3
#     Node 1, Type 0, BuildingBlock: KAKCAD_clean_linker_0, # of connection points: 3
#     Node 2, Type 0, BuildingBlock: KAKCAD_clean_linker_0, # of connection points: 3
#     Node 3, Type 0, BuildingBlock: KAKCAD_clean_linker_0, # of connection points: 3
#     Node 4, Type 0, BuildingBlock: KAKCAD_clean_linker_0, # of connection points: 3
#     Node 5, Type 0, BuildingBlock: KAKCAD_clean_linker_0, # of connection points: 3
#     Node 6, Type 0, BuildingBlock: KAKCAD_clean_linker_0, # of connection points: 3
#     Node 7, Type 0, BuildingBlock: KAKCAD_clean_linker_0, # of connection points: 3
#     Node 8, Type 1, BuildingBlock: MIDCAF_clean_sbu_0, # of connection points: 6
#     Node 9, Type 1, BuildingBlock: MIDCAF_clean_sbu_0, # of connection points: 6
#     Node 10, Type 1, BuildingBlock: MIDCAF_clean_sbu_0, # of connection points: 6
#     Node 11, Type 1, BuildingBlock: MIDCAF_clean_sbu_0, # of connection points: 6
#     Edge 12, Type (0, 1), BuildingBlock: ZUJKAS_clean_linker_0, # of connection points: 2
#     Edge 13, Type (0, 1), BuildingBlock: ZUJKAS_clean_linker_0, # of connection points: 2
#     Edge 14, Type (0, 1), BuildingBlock: ZUJKAS_clean_linker_0, # of connection points: 2
#     Edge 15, Type (0, 1), BuildingBlock: ZUJKAS_clean_linker_0, # of connection points: 2
#     Edge 16, Type (0, 1), BuildingBlock: ZUJKAS_clean_linker_0, # of connection points: 2
#     Edge 17, Type (0, 1), BuildingBlock: ZUJKAS_clean_linker_0, # of connection points: 2
#     Edge 18, Type (0, 1), BuildingBlock: ZUJKAS_clean_linker_0, # of connection points: 2
#     Edge 19, Type (0, 1), BuildingBlock: ZUJKAS_clean_linker_0, # of connection points: 2
#     Edge 20, Type (0, 1), BuildingBlock: ZUJKAS_clean_linker_0, # of connection points: 2
#     Edge 21, Type (0, 1), BuildingBlock: ZUJKAS_clean_linker_0, # of connection points: 2
#     Edge 22, Type (0, 1), BuildingBlock: ZUJKAS_clean_linker_0, # of connection points: 2
#     Edge 23, Type (0, 1), BuildingBlock: ZUJKAS_clean_linker_0, # of connection points: 2
#     Edge 24, Type (0, 1), BuildingBlock: ZUJKAS_clean_linker_0, # of connection points: 2
#     Edge 25, Type (0, 1), BuildingBlock: ZUJKAS_clean_linker_0, # of connection points: 2
#     Edge 26, Type (0, 1), BuildingBlock: ZUJKAS_clean_linker_0, # of connection points: 2
#     Edge 27, Type (0, 1), BuildingBlock: ZUJKAS_clean_linker_0, # of connection points: 2
#     Edge 28, Type (0, 1), BuildingBlock: ZUJKAS_clean_linker_0, # of connection points: 2
#     Edge 29, Type (0, 1), BuildingBlock: ZUJKAS_clean_linker_0, # of connection points: 2
#     Edge 30, Type (0, 1), BuildingBlock: ZUJKAS_clean_linker_0, # of connection points: 2
#     Edge 31, Type (0, 1), BuildingBlock: ZUJKAS_clean_linker_0, # of connection points: 2
#     Edge 32, Type (0, 1), BuildingBlock: ZUJKAS_clean_linker_0, # of connection points: 2
#     Edge 33, Type (0, 1), BuildingBlock: ZUJKAS_clean_linker_0, # of connection points: 2
#     Edge 34, Type (0, 1), BuildingBlock: ZUJKAS_clean_linker_0, # of connection points: 2
#     Edge 35, Type (0, 1), BuildingBlock: ZUJKAS_clean_linker_0, # of connection points: 2
# Relax obj value: 0.103
# Max RMSD: 0.159
# Mean RMSD: 0.105
data_MOF--net-ant--node1-MIDCAF_clean_sbu_0--node2-KAKCAD_clean_linker_0--edge1-ZUJKAS_clean_linker_0
_symmetry_space_group_name_H-M    P1
_symmetry_Int_Tables_number       1
_symmetry_cell_setting            triclinic
loop_
_symmetry_equiv_pos_as_xyz
'x, y, z'
_cell_length_a     42.840514
_cell_length_b     42.525638
_cell_length_c     116.41122
_cell_angle_alpha  90.370208
_cell_angle_beta   93.584604
_cell_angle_gamma 90.040996
loop_
_atom_site_label
_atom_site_type_symbol
_atom_site_fract_x
_atom_site_fract_y
_atom_site_fract_z
_atom_type_partial_charge
C0 C 0.13134 0.16848 0.02351 0.0
C1 C 0.14253 0.18645 0.01454 0.0
C2 C 0.13896 0.17661 0.03499 0.0
C3 C 0.15808 0.20282 0.03781 0.0
C4 C 0.16891 0.22104 0.02885 0.0
C5 C 0.16118 0.213 0.01736 0.0
C6 C 0.16733 0.21059 0.05004 0.0
C7 C 0.17501 0.1865 0.05787 0.0
C8 C 0.18361 0.19314 0.06947 0.0
C9 C 0.18527 0.22468 0.07321 0.0
C10 C 0.17792 0.2493 0.06544 0.0
C11 C 0.1688 0.24191 0.05391 0.0
C12 C 0.17906 0.28282 0.06925 0.0
C13 C 0.16661 0.29224 0.07962 0.0
C14 C 0.19131 0.30594 0.0622 0.0
C15 C 0.19033 0.33774 0.06526 0.0
C16 C 0.17708 0.34731 0.07546 0.0
C17 C 0.19094 0.16654 0.07743 0.0
C18 C 0.17196 0.13953 0.07677 0.0
C19 C 0.21804 0.16654 0.08491 0.0
C20 C 0.22688 0.13935 0.09107 0.0
C21 C 0.2088 0.11178 0.08978 0.0
C22 C 0.18083 0.1125 0.08283 0.0
C23 C 0.1656 0.32413 0.08268 0.0
H24 H 0.11712 0.14779 0.02166 0.0
H25 H 0.12984 0.1623 0.04168 0.0
H26 H 0.18388 0.24121 0.03069 0.0
H27 H 0.16977 0.22771 0.01068 0.0
H28 H 0.17496 0.16234 0.05485 0.0
H29 H 0.16209 0.26062 0.04798 0.0
H30 H 0.19216 0.23 0.08213 0.0
H31 H 0.15669 0.27508 0.08518 0.0
H32 H 0.2016 0.29943 0.05426 0.0
H33 H 0.20002 0.35485 0.05962 0.0
H34 H 0.15057 0.13901 0.07129 0.0
H35 H 0.23316 0.18698 0.08557 0.0
H36 H 0.15498 0.33067 0.09055 0.0
H37 H 0.16606 0.09183 0.08189 0.0
H38 H 0.24852 0.13942 0.0964 0.0
C39 C 0.10858 0.78567 0.27028 0.0
C40 C 0.08544 0.80124 0.26335 0.0
C41 C 0.10966 0.78862 0.28226 0.0
C42 C 0.08773 0.80738 0.28762 0.0
C43 C 0.06507 0.82358 0.28068 0.0
C44 C 0.06389 0.8205 0.2687 0.0
C45 C 0.08772 0.80899 0.3004 0.0
C46 C 0.11588 0.81006 0.30723 0.0
C47 C 0.11602 0.80993 0.31933 0.0
C48 C 0.08729 0.8095 0.3246 0.0
C49 C 0.05879 0.80873 0.31787 0.0
C50 C 0.0594 0.80825 0.30581 0.0
C51 C 0.0281 0.80706 0.32318 0.0
C52 C 0.0235 0.78671 0.3324 0.0
C53 C 0.00238 0.82407 0.31838 0.0
C54 C 0.97254 0.81963 0.32226 0.0
C55 C 0.96764 0.79826 0.33111 0.0
C56 C 0.14641 0.80946 0.32628 0.0
C57 C 0.17076 0.78997 0.32292 0.0
C58 C 0.15178 0.82896 0.33601 0.0
C59 C 0.18114 0.82948 0.34206 0.0
C60 C 0.20563 0.81028 0.33857 0.0
C61 C 0.19994 0.79041 0.32897 0.0
C62 C 0.99355 0.78241 0.33635 0.0
H63 H 0.1259 0.77107 0.26646 0.0
H64 H 0.12725 0.77557 0.28732 0.0
H65 H 0.04806 0.83856 0.28452 0.0
H66 H 0.04563 0.83267 0.26365 0.0
H67 H 0.13785 0.81126 0.30312 0.0
H68 H 0.03764 0.8061 0.30059 0.0
H69 H 0.08713 0.80938 0.3339 0.0
H70 H 0.04275 0.77308 0.33623 0.0
H71 H 0.00522 0.84044 0.31142 0.0
H72 H 0.95317 0.83272 0.31823 0.0
H73 H 0.16731 0.77439 0.31556 0.0
H74 H 0.13353 0.84436 0.33877 0.0
H75 H 0.99047 0.76573 0.34318 0.0
H76 H 0.2183 0.7756 0.32593 0.0
H77 H 0.18467 0.84488 0.34947 0.0
C78 C 0.63255 0.66937 0.52507 0.0
C79 C 0.64304 0.68562 0.51556 0.0
C80 C 0.64349 0.67756 0.53627 0.0
C81 C 0.66515 0.7022 0.53822 0.0
C82 C 0.67565 0.7184 0.52871 0.0
C83 C 0.66479 0.71018 0.51753 0.0
C84 C 0.67727 0.71066 0.55008 0.0
C85 C 0.68581 0.68707 0.55802 0.0
C86 C 0.6981 0.69467 0.56916 0.0
C87 C 0.70189 0.72647 0.57238 0.0
C88 C 0.69301 0.75058 0.56458 0.0
C89 C 0.68076 0.74229 0.55346 0.0
C90 C 0.69557 0.78445 0.56795 0.0
C91 C 0.6869 0.79485 0.5788 0.0
C92 C 0.70506 0.80695 0.56006 0.0
C93 C 0.70483 0.83902 0.56278 0.0
C94 C 0.69527 0.84951 0.57348 0.0
C95 C 0.70699 0.66881 0.57721 0.0
C96 C 0.68566 0.64442 0.57887 0.0
C97 C 0.73743 0.66667 0.58238 0.0
C98 C 0.74677 0.63983 0.58864 0.0
C99 C 0.72564 0.61495 0.58999 0.0
C100 C 0.69481 0.6179 0.58522 0.0
C101 C 0.68677 0.82699 0.58153 0.0
H102 H 0.61553 0.6506 0.52388 0.0
H103 H 0.63469 0.66484 0.54343 0.0
H104 H 0.69274 0.73711 0.5299 0.0
H105 H 0.67387 0.7228 0.51041 0.0
H106 H 0.6837 0.66259 0.55544 0.0
H107 H 0.67312 0.76054 0.54747 0.0
H108 H 0.71155 0.73235 0.58095 0.0
H109 H 0.67913 0.77824 0.58503 0.0
H110 H 0.71249 0.79977 0.55172 0.0
H111 H 0.71214 0.85565 0.55646 0.0
H112 H 0.66204 0.64553 0.57498 0.0
H113 H 0.75436 0.68509 0.58115 0.0
H114 H 0.67904 0.83426 0.58982 0.0
H115 H 0.67805 0.59906 0.58598 0.0
H116 H 0.77062 0.6383 0.59227 0.0
C117 C 0.60754 0.28576 0.76713 0.0
C118 C 0.58512 0.30253 0.76029 0.0
C119 C 0.60904 0.2887 0.77912 0.0
C120 C 0.58816 0.30851 0.78455 0.0
C121 C 0.56617 0.32581 0.7777 0.0
C122 C 0.56469 0.32288 0.76571 0.0
C123 C 0.58846 0.31001 0.79733 0.0
C124 C 0.61679 0.3106 0.80407 0.0
C125 C 0.61721 0.31027 0.81617 0.0
C126 C 0.5886 0.30971 0.82153 0.0
C127 C 0.55998 0.30942 0.81487 0.0
C128 C 0.56025 0.30954 0.80282 0.0
C129 C 0.52951 0.30764 0.82028 0.0
C130 C 0.52458 0.28555 0.82891 0.0
C131 C 0.50429 0.32637 0.81613 0.0
C132 C 0.47457 0.32237 0.82019 0.0
C133 C 0.46927 0.29947 0.82851 0.0
C134 C 0.64771 0.31001 0.82307 0.0
C135 C 0.67238 0.29112 0.81959 0.0
C136 C 0.65286 0.32922 0.83289 0.0
C137 C 0.68225 0.33003 0.83892 0.0
C138 C 0.70705 0.31144 0.83531 0.0
C139 C 0.70161 0.29185 0.82561 0.0
C140 C 0.49473 0.28142 0.83295 0.0
H141 H 0.62395 0.27025 0.76323 0.0
H142 H 0.62607 0.27483 0.78413 0.0
H143 H 0.54997 0.34153 0.78162 0.0
H144 H 0.54705 0.33602 0.7607 0.0
H145 H 0.63864 0.31166 0.79987 0.0
H146 H 0.53833 0.30801 0.79767 0.0
H147 H 0.58857 0.30921 0.83083 0.0
H148 H 0.54351 0.27064 0.83223 0.0
H149 H 0.50743 0.34376 0.80954 0.0
H150 H 0.4555 0.33652 0.81652 0.0
H151 H 0.66913 0.27575 0.81215 0.0
H152 H 0.6344 0.34419 0.83576 0.0
H153 H 0.49151 0.26387 0.83947 0.0
H154 H 0.7202 0.27751 0.82248 0.0
H155 H 0.68555 0.34518 0.84641 0.0
C156 C 0.07632 0.71939 0.97591 0.0
C157 C 0.0953 0.69332 0.97887 0.0
C158 C 0.06982 0.72741 0.96438 0.0
C159 C 0.08216 0.70958 0.95553 0.0
C160 C 0.10125 0.68359 0.95849 0.0
C161 C 0.10772 0.67554 0.97001 0.0
C162 C 0.07494 0.7178 0.94325 0.0
C163 C 0.07471 0.74926 0.93967 0.0
C164 C 0.0681 0.75712 0.92805 0.0
C165 C 0.06188 0.73282 0.91992 0.0
C166 C 0.06232 0.70115 0.92336 0.0
C167 C 0.06849 0.69403 0.93505 0.0
C168 C 0.05673 0.67501 0.91493 0.0
C169 C 0.03163 0.67572 0.90656 0.0
C170 C 0.07562 0.64803 0.91577 0.0
C171 C 0.06887 0.62188 0.90877 0.0
C172 C 0.04316 0.62197 0.90064 0.0
C173 C 0.06857 0.79072 0.92449 0.0
C174 C 0.05592 0.81416 0.93141 0.0
C175 C 0.08276 0.79983 0.91446 0.0
C176 C 0.08474 0.83163 0.91154 0.0
C177 C 0.07255 0.8551 0.91857 0.0
C178 C 0.05791 0.84591 0.92849 0.0
C179 C 0.02485 0.6494 0.8995 0.0
H180 H 0.06674 0.73387 0.98252 0.0
H181 H 0.05482 0.7474 0.9624 0.0
H182 H 0.11144 0.66956 0.95189 0.0
H183 H 0.12222 0.65519 0.97198 0.0
H184 H 0.08062 0.76766 0.94592 0.0
H185 H 0.06778 0.66976 0.93781 0.0
H186 H 0.05694 0.73848 0.91093 0.0
H187 H 0.0166 0.69615 0.90574 0.0
H188 H 0.09538 0.64688 0.92203 0.0
H189 H 0.08328 0.60113 0.91006 0.0
H190 H 0.04451 0.80797 0.93912 0.0
H191 H 0.09298 0.78244 0.909 0.0
H192 H 0.00506 0.6504 0.89325 0.0
H193 H 0.04847 0.86329 0.93416 0.0
H194 H 0.09578 0.8378 0.90375 0.0
C195 C 0.69314 0.82397 0.23226 0.0
C196 C 0.67487 0.80216 0.23791 0.0
C197 C 0.69134 0.82558 0.22024 0.0
C198 C 0.67117 0.80551 0.21362 0.0
C199 C 0.65276 0.78387 0.21927 0.0
C200 C 0.65466 0.78215 0.23126 0.0
C201 C 0.67001 0.80639 0.20086 0.0
C202 C 0.69779 0.80776 0.19513 0.0
C203 C 0.69723 0.80716 0.18306 0.0
C204 C 0.66831 0.80557 0.17666 0.0
C205 C 0.64017 0.80442 0.18227 0.0
C206 C 0.64131 0.80478 0.19437 0.0
C207 C 0.60948 0.80249 0.17562 0.0
C208 C 0.60229 0.82267 0.16631 0.0
C209 C 0.58668 0.78105 0.17884 0.0
C210 C 0.55721 0.78009 0.17301 0.0
C211 C 0.54972 0.80066 0.16385 0.0
C212 C 0.72721 0.80667 0.17734 0.0
C213 C 0.75139 0.82753 0.18094 0.0
C214 C 0.73281 0.78373 0.16899 0.0
C215 C 0.76244 0.78091 0.16466 0.0
C216 C 0.78689 0.8012 0.16851 0.0
C217 C 0.78087 0.82491 0.17654 0.0
C218 C 0.57261 0.82191 0.16053 0.0
H219 H 0.7086 0.84004 0.23711 0.0
H220 H 0.70558 0.84272 0.21612 0.0
H221 H 0.6374 0.76773 0.2144 0.0
H222 H 0.64068 0.76468 0.23532 0.0
H223 H 0.72006 0.808 0.20009 0.0
H224 H 0.61973 0.80429 0.19876 0.0
H225 H 0.66773 0.80489 0.16733 0.0
H226 H 0.61935 0.83955 0.16368 0.0
H227 H 0.59163 0.76503 0.18592 0.0
H228 H 0.54001 0.76366 0.17585 0.0
H229 H 0.74764 0.84552 0.18734 0.0
H230 H 0.71466 0.7672 0.16613 0.0
H231 H 0.56759 0.8379 0.15345 0.0
H232 H 0.79925 0.84077 0.17973 0.0
H233 H 0.76633 0.76263 0.15838 0.0
C234 C 0.55888 0.21165 0.47703 0.0
C235 C 0.58044 0.18794 0.48038 0.0
C236 C 0.55406 0.2201 0.46547 0.0
C237 C 0.57043 0.2048 0.45699 0.0
C238 C 0.59185 0.18103 0.46029 0.0
C239 C 0.5969 0.17278 0.47185 0.0
C240 C 0.56467 0.21305 0.44468 0.0
C241 C 0.56399 0.24454 0.44117 0.0
C242 C 0.55866 0.25238 0.42947 0.0
C243 C 0.55354 0.22802 0.42127 0.0
C244 C 0.5544 0.19638 0.42471 0.0
C245 C 0.55993 0.18923 0.43641 0.0
C246 C 0.54944 0.17015 0.41635 0.0
C247 C 0.52248 0.16864 0.40883 0.0
C248 C 0.57009 0.14451 0.41686 0.0
C249 C 0.56292 0.11708 0.41063 0.0
C250 C 0.53488 0.11456 0.40376 0.0
C251 C 0.55965 0.28595 0.42593 0.0
C252 C 0.54649 0.30952 0.43264 0.0
C253 C 0.57522 0.2949 0.41618 0.0
C254 C 0.57817 0.32668 0.41338 0.0
C255 C 0.56562 0.3503 0.42025 0.0
C256 C 0.54947 0.34127 0.42985 0.0
C257 C 0.51524 0.141 0.40256 0.0
H258 H 0.54539 0.22349 0.48332 0.0
H259 H 0.53709 0.23821 0.46314 0.0
H260 H 0.60503 0.16908 0.45392 0.0
H261 H 0.61411 0.15487 0.47411 0.0
H262 H 0.56866 0.26292 0.44754 0.0
H263 H 0.55989 0.16488 0.43913 0.0
H264 H 0.54918 0.23359 0.41224 0.0
H265 H 0.50615 0.18809 0.40831 0.0
H266 H 0.59127 0.14525 0.42246 0.0
H267 H 0.57889 0.09737 0.41151 0.0
H268 H 0.53403 0.30346 0.44013 0.0
H269 H 0.58587 0.27741 0.41088 0.0
H270 H 0.49349 0.13971 0.39731 0.0
H271 H 0.53968 0.35876 0.43539 0.0
H272 H 0.59033 0.33274 0.40582 0.0
C273 C 0.20476 0.31962 0.72995 0.0
C274 C 0.18583 0.29836 0.73556 0.0
C275 C 0.20185 0.32256 0.71799 0.0
C276 C 0.1799 0.30435 0.71136 0.0
C277 C 0.16056 0.28354 0.71699 0.0
C278 C 0.16351 0.28056 0.72895 0.0
C279 C 0.17816 0.30606 0.6986 0.0
C280 C 0.20571 0.30659 0.69272 0.0
C281 C 0.20477 0.30715 0.68065 0.0
C282 C 0.1756 0.30718 0.67438 0.0
C283 C 0.14766 0.30658 0.68014 0.0
C284 C 0.14922 0.30607 0.69225 0.0
C285 C 0.11669 0.30592 0.67364 0.0
C286 C 0.10965 0.32691 0.66457 0.0
C287 C 0.09353 0.28477 0.67678 0.0
C288 C 0.06389 0.28482 0.67107 0.0
C289 C 0.05657 0.30615 0.66213 0.0
C290 C 0.23463 0.30615 0.67483 0.0
C291 C 0.26009 0.32466 0.67903 0.0
C292 C 0.23894 0.2847 0.66583 0.0
C293 C 0.26854 0.2807 0.66155 0.0
C294 C 0.29434 0.29807 0.66621 0.0
C295 C 0.28957 0.32064 0.67479 0.0
C296 C 0.07979 0.32717 0.65892 0.0
H297 H 0.22226 0.33357 0.73479 0.0
H298 H 0.21688 0.33903 0.7139 0.0
H299 H 0.14361 0.269 0.71213 0.0
H300 H 0.14823 0.26433 0.73303 0.0
H301 H 0.2281 0.30534 0.69758 0.0
H302 H 0.12781 0.30611 0.69674 0.0
H303 H 0.17464 0.30731 0.66505 0.0
H304 H 0.127 0.34359 0.66202 0.0
H305 H 0.09835 0.26815 0.68367 0.0
H306 H 0.04644 0.26854 0.67383 0.0
H307 H 0.25735 0.34178 0.68583 0.0
H308 H 0.21981 0.26994 0.66248 0.0
H309 H 0.07489 0.34373 0.65201 0.0
H310 H 0.3088 0.33493 0.67836 0.0
H311 H 0.2715 0.26306 0.65496 0.0
Zn312 Zn 0.18551 0.696 0.13704 0.0
Zn313 Zn 0.12975 0.77576 0.10868 0.0
Zn314 Zn 0.16073 0.73738 0.12291 0.0
C315 C 0.13512 0.71997 0.09671 0.0
C316 C 0.1881 0.80352 0.11458 0.0
O317 O 0.13509 0.73723 0.13893 0.0
O318 O 0.16312 0.70667 0.15089 0.0
C319 C 0.1657 0.66187 0.11803 0.0
O320 O 0.1505 0.71258 0.10619 0.0
O321 O 0.12235 0.74657 0.09558 0.0
O322 O 0.16359 0.80721 0.10813 0.0
O323 O 0.19172 0.77874 0.12085 0.0
O324 O 0.17289 0.65727 0.12855 0.0
O325 O 0.16245 0.69017 0.11417 0.0
O326 O 0.20873 0.75477 0.12704 0.0
O327 O 0.22879 0.71243 0.13561 0.0
C328 C 0.23245 0.73952 0.13149 0.0
O329 O 0.11611 0.75205 0.13036 0.0
O330 O 0.0939 0.78563 0.11792 0.0
C331 C 0.14052 0.72534 0.14902 0.0
C332 C 0.09335 0.77061 0.12722 0.0
Zn333 Zn 0.56248 0.70312 0.35894 0.0
Zn334 Zn 0.62358 0.77493 0.39114 0.0
Zn335 Zn 0.59169 0.73891 0.37545 0.0
C336 C 0.56751 0.80611 0.38466 0.0
C337 C 0.66241 0.76723 0.37321 0.0
O338 O 0.58559 0.69104 0.38255 0.0
O339 O 0.56239 0.66394 0.36811 0.0
C340 C 0.52212 0.75307 0.36402 0.0
O341 O 0.56331 0.78145 0.37825 0.0
O342 O 0.59183 0.80888 0.3913 0.0
O343 O 0.662 0.7814 0.38276 0.0
O344 O 0.63833 0.75131 0.36929 0.0
O345 O 0.52379 0.72901 0.35767 0.0
O346 O 0.54534 0.76071 0.37108 0.0
O347 O 0.61923 0.73885 0.36002 0.0
O348 O 0.59338 0.70878 0.34707 0.0
C349 C 0.61614 0.72676 0.34982 0.0
O350 O 0.5982 0.71083 0.39141 0.0
O351 O 0.62484 0.74297 0.40344 0.0
C352 C 0.57405 0.66508 0.37835 0.0
C353 C 0.61167 0.71677 0.4014 0.0
Zn354 Zn 0.64134 0.27556 0.60684 0.0
Zn355 Zn 0.69502 0.19743 0.63569 0.0
Zn356 Zn 0.66962 0.23758 0.6211 0.0
C357 C 0.74096 0.24212 0.6304 0.0
C358 C 0.67713 0.16206 0.61661 0.0
O359 O 0.62361 0.25008 0.62778 0.0
O360 O 0.5996 0.2754 0.61325 0.0
C361 C 0.69387 0.30739 0.61547 0.0
O362 O 0.71702 0.25615 0.62554 0.0
O363 O 0.73803 0.21515 0.63471 0.0
O364 O 0.68428 0.15807 0.62718 0.0
O365 O 0.67282 0.19012 0.61264 0.0
O366 O 0.66782 0.31263 0.6102 0.0
O367 O 0.70038 0.27978 0.61948 0.0
O368 O 0.66088 0.21206 0.60459 0.0
O369 O 0.64758 0.25086 0.5927 0.0
C370 C 0.65414 0.22225 0.59434 0.0
O371 O 0.64287 0.23821 0.63681 0.0
O372 O 0.67094 0.20866 0.64912 0.0
C373 C 0.59893 0.26342 0.62312 0.0
C374 C 0.64816 0.22698 0.64701 0.0
Zn375 Zn 0.06325 0.20799 0.85704 0.0
Zn376 Zn 0.12706 0.27908 0.88846 0.0
Zn377 Zn 0.09306 0.24407 0.87324 0.0
C378 C 0.11492 0.22167 0.89899 0.0
C379 C 0.071 0.31161 0.8827 0.0
O380 O 0.11984 0.2428 0.8576 0.0
O381 O 0.09386 0.21183 0.84498 0.0
C382 C 0.0742 0.17051 0.87655 0.0
O383 O 0.10006 0.21625 0.88921 0.0
O384 O 0.12937 0.24728 0.90081 0.0
O385 O 0.09595 0.3134 0.88906 0.0
O386 O 0.0655 0.28725 0.87623 0.0
O387 O 0.06214 0.1692 0.86638 0.0
O388 O 0.08642 0.1964 0.88056 0.0
O389 O 0.047 0.26666 0.86909 0.0
O390 O 0.02529 0.23487 0.85573 0.0
C391 C 0.02378 0.25907 0.86203 0.0
O392 O 0.13947 0.25567 0.86662 0.0
O393 O 0.16471 0.28574 0.87972 0.0
C394 C 0.11668 0.2299 0.84754 0.0
C395 C 0.16401 0.27142 0.87019 0.0
H396 H 0.18727 0.37558 0.09662 0.0
H397 H 0.18289 0.43147 0.10141 0.0
H398 H 0.1584 0.4522 0.06578 0.0
H399 H 0.16176 0.39629 0.06096 0.0
H400 H 0.21616 0.48219 0.09299 0.0
H401 H 0.08841 0.49503 0.08261 0.0
H402 H 0.1071 0.45717 0.08433 0.0
H403 H 0.11019 0.47889 0.07126 0.0
C404 C 0.18058 0.39195 0.08982 0.0
C405 C 0.17478 0.38137 0.07841 0.0
C406 C 0.1783 0.42392 0.09256 0.0
C407 C 0.16996 0.44597 0.08398 0.0
C408 C 0.16439 0.43557 0.07257 0.0
H409 H 0.19451 0.64856 0.09831 0.0
H410 H 0.19379 0.59806 0.08789 0.0
C411 C 0.16668 0.40361 0.06982 0.0
C412 C 0.16767 0.47985 0.08699 0.0
H413 H 0.11636 0.54116 0.08815 0.0
C414 C 0.1944 0.49517 0.09186 0.0
C415 C 0.1392 0.49666 0.08556 0.0
C416 C 0.10948 0.48113 0.08075 0.0
C417 C 0.19336 0.52668 0.09551 0.0
C418 C 0.16489 0.54351 0.09409 0.0
C419 C 0.13824 0.52833 0.08908 0.0
C420 C 0.16163 0.57566 0.09892 0.0
C421 C 0.22243 0.54132 0.10128 0.0
C422 C 0.14266 0.58028 0.10818 0.0
C423 C 0.14266 0.60916 0.11395 0.0
C424 C 0.16127 0.63411 0.11047 0.0
C425 C 0.17908 0.63007 0.10085 0.0
C426 C 0.17912 0.60106 0.09506 0.0
H427 H 0.24066 0.52349 0.1036 0.0
H428 H 0.23238 0.55841 0.09534 0.0
H429 H 0.21677 0.55421 0.10921 0.0
H430 H 0.12903 0.56102 0.11131 0.0
H431 H 0.12901 0.61165 0.12143 0.0
H432 H 0.9471 0.79394 0.35289 0.0
H433 H 0.89355 0.7847 0.35832 0.0
H434 H 0.86197 0.77832 0.32245 0.0
H435 H 0.91529 0.7881 0.317 0.0
H436 H 0.82403 0.8147 0.33378 0.0
H437 H 0.84385 0.70447 0.35811 0.0
H438 H 0.86906 0.73548 0.3636 0.0
H439 H 0.87274 0.72078 0.34921 0.0
C440 C 0.92878 0.79024 0.34618 0.0
C441 C 0.9354 0.79181 0.33452 0.0
C442 C 0.89819 0.7848 0.34928 0.0
C443 C 0.87376 0.78025 0.34079 0.0
C444 C 0.8804 0.78167 0.32915 0.0
H445 H 0.68648 0.72173 0.35955 0.0
H446 H 0.73598 0.7236 0.34998 0.0
C447 C 0.91087 0.78739 0.32605 0.0
C448 C 0.84105 0.77552 0.34403 0.0
H449 H 0.79575 0.73159 0.36098 0.0
C450 C 0.81783 0.7963 0.33964 0.0
C451 C 0.83267 0.75108 0.35145 0.0
C452 C 0.85583 0.72648 0.35576 0.0
C453 C 0.78688 0.79419 0.34288 0.0
C454 C 0.77909 0.77119 0.35094 0.0
C455 C 0.80188 0.74949 0.35492 0.0
C456 C 0.74809 0.77063 0.35593 0.0
C457 C 0.76275 0.81666 0.33769 0.0
C458 C 0.73855 0.79639 0.36243 0.0
C459 C 0.71038 0.79541 0.36783 0.0
C460 C 0.69112 0.76867 0.36682 0.0
C461 C 0.70059 0.74288 0.36027 0.0
C462 C 0.72889 0.74384 0.35488 0.0
H463 H 0.76982 0.82614 0.32937 0.0
H464 H 0.73961 0.80501 0.33625 0.0
H465 H 0.76019 0.83679 0.34367 0.0
H466 H 0.7533 0.81702 0.36356 0.0
H467 H 0.70379 0.81553 0.37289 0.0
H468 H 0.77915 0.58137 0.58702 0.0
H469 H 0.79184 0.52838 0.59409 0.0
H470 H 0.70743 0.52754 0.6124 0.0
H471 H 0.69483 0.58056 0.60552 0.0
H472 H 0.76386 0.49972 0.62461 0.0
H473 H 0.73782 0.45366 0.58006 0.0
H474 H 0.76602 0.48488 0.58211 0.0
H475 H 0.72565 0.49238 0.58435 0.0
C476 C 0.76369 0.5702 0.59278 0.0
C477 C 0.73582 0.58503 0.59563 0.0
C478 C 0.77088 0.53985 0.59675 0.0
C479 C 0.75038 0.52393 0.60365 0.0
C480 C 0.72353 0.5394 0.60705 0.0
H481 H 0.683 0.35827 0.62824 0.0
H482 H 0.70759 0.40959 0.62689 0.0
C483 C 0.71626 0.56961 0.60306 0.0
C484 C 0.75499 0.49022 0.60651 0.0
H485 H 0.74459 0.41692 0.5948 0.0
C486 C 0.76026 0.48154 0.61808 0.0
C487 C 0.75063 0.46654 0.59797 0.0
C488 C 0.74456 0.47459 0.58542 0.0
C489 C 0.75977 0.44981 0.62139 0.0
C490 C 0.75298 0.42625 0.61294 0.0
C491 C 0.74984 0.43488 0.6013 0.0
C492 C 0.7437 0.39376 0.61599 0.0
C493 C 0.76573 0.44195 0.63395 0.0
C494 C 0.75604 0.36732 0.6105 0.0
C495 C 0.74175 0.33775 0.61126 0.0
C496 C 0.71496 0.33439 0.61749 0.0
C497 C 0.70403 0.36026 0.62359 0.0
C498 C 0.71822 0.38962 0.62285 0.0
H499 H 0.78264 0.45877 0.63823 0.0
H500 H 0.74352 0.44398 0.63832 0.0
H501 H 0.77494 0.41771 0.63514 0.0
H502 H 0.77547 0.36997 0.60506 0.0
H503 H 0.75014 0.3182 0.6063 0.0
H504 H 0.74709 0.26259 0.84031 0.0
H505 H 0.80089 0.26523 0.84838 0.0
H506 H 0.79282 0.36572 0.85241 0.0
H507 H 0.73909 0.36342 0.84387 0.0
H508 H 0.84511 0.35071 0.84227 0.0
H509 H 0.83826 0.27646 0.88065 0.0
H510 H 0.82229 0.25599 0.86813 0.0
H511 H 0.80378 0.29148 0.87282 0.0
C512 C 0.75665 0.28529 0.84294 0.0
C513 C 0.73873 0.31282 0.84137 0.0
C514 C 0.78734 0.2867 0.84773 0.0
C515 C 0.80083 0.3156 0.85122 0.0
C516 C 0.78284 0.34311 0.84989 0.0
H517 H 0.9956 0.29072 0.87928 0.0
H518 H 0.94265 0.31341 0.87816 0.0
C519 C 0.75205 0.34172 0.84507 0.0
C520 C 0.83447 0.31707 0.85524 0.0
H521 H 0.88944 0.27963 0.8727 0.0
C522 C 0.85472 0.33569 0.8491 0.0
C523 C 0.84714 0.29815 0.86435 0.0
C524 C 0.82663 0.27969 0.87194 0.0
C525 C 0.88732 0.33385 0.85118 0.0
C526 C 0.90004 0.31236 0.85944 0.0
C527 C 0.87977 0.29578 0.86624 0.0
C528 C 0.93364 0.3034 0.86 0.0
C529 C 0.90786 0.35425 0.84425 0.0
C530 C 0.94628 0.29065 0.85016 0.0
C531 C 0.97627 0.27785 0.85079 0.0
C532 C 0.9944 0.2774 0.86127 0.0
C533 C 0.98232 0.2912 0.87106 0.0
C534 C 0.95205 0.30398 0.87044 0.0
H535 H 0.89591 0.37664 0.84181 0.0
H536 H 0.9304 0.35978 0.84908 0.0
H537 H 0.91288 0.34172 0.83618 0.0
H538 H 0.93236 0.28916 0.84208 0.0
H539 H 0.98489 0.26725 0.84311 0.0
H540 H 0.0829 0.57983 0.89132 0.0
H541 H 0.07038 0.52774 0.88373 0.0
H542 H 0.97206 0.54576 0.88661 0.0
H543 H 0.98469 0.59744 0.89504 0.0
H544 H 0.98476 0.49274 0.89569 0.0
H545 H 0.03907 0.48995 0.85433 0.0
H546 H 0.06825 0.50309 0.86494 0.0
H547 H 0.03349 0.52644 0.86194 0.0
C548 C 0.05855 0.5729 0.89028 0.0
C549 C 0.03487 0.59277 0.89396 0.0
C550 C 0.05133 0.54319 0.8857 0.0
C551 C 0.02017 0.53279 0.88438 0.0
C552 C 0.99628 0.55324 0.88746 0.0
H553 H 0.03523 0.33472 0.86422 0.0
H554 H 0.01016 0.38664 0.86297 0.0
C555 C 0.00353 0.58293 0.89221 0.0
C556 C 0.01343 0.4993 0.88128 0.0
H557 H 0.04029 0.43947 0.86493 0.0
C558 C 0.99616 0.48127 0.88874 0.0
C559 C 0.02716 0.48406 0.87199 0.0
C560 C 0.04266 0.50209 0.86279 0.0
C561 C 0.99529 0.44832 0.88792 0.0
C562 C 0.01307 0.43293 0.87972 0.0
C563 C 0.0273 0.45106 0.87145 0.0
C564 C 0.02172 0.39914 0.8808 0.0
C565 C 0.97628 0.43038 0.89617 0.0
C566 C 0.03579 0.38846 0.89127 0.0
C567 C 0.04958 0.35884 0.89203 0.0
C568 C 0.05004 0.33923 0.88229 0.0
C569 C 0.03464 0.34908 0.87192 0.0
C570 C 0.02058 0.37886 0.87118 0.0
H571 H 0.95455 0.4434 0.89786 0.0
H572 H 0.96983 0.40658 0.89283 0.0
H573 H 0.99 0.42798 0.90453 0.0
H574 H 0.03798 0.4038 0.89874 0.0
H575 H 0.06146 0.35199 0.90011 0.0
H576 H 0.82685 0.84671 0.16175 0.0
H577 H 0.88041 0.83992 0.15592 0.0
H578 H 0.87302 0.73978 0.16058 0.0
H579 H 0.81946 0.74636 0.16652 0.0
H580 H 0.93073 0.77225 0.1711 0.0
H581 H 0.90344 0.79694 0.12469 0.0
H582 H 0.88816 0.82445 0.13471 0.0
H583 H 0.87398 0.78471 0.13418 0.0
C584 C 0.83664 0.82325 0.16155 0.0
C585 C 0.81891 0.79704 0.16454 0.0
C586 C 0.86716 0.81941 0.15818 0.0
C587 C 0.88052 0.78935 0.15779 0.0
C588 C 0.86302 0.76315 0.16082 0.0
H589 H 0.06613 0.72583 0.14015 0.0
H590 H 0.01541 0.72957 0.14876 0.0
C591 C 0.83239 0.76693 0.16411 0.0
C592 C 0.91274 0.78538 0.15413 0.0
H593 H 0.95676 0.79256 0.13089 0.0
C594 C 0.93653 0.77655 0.16231 0.0
C595 C 0.92004 0.79095 0.14266 0.0
C596 C 0.89511 0.79957 0.13349 0.0
C597 C 0.96779 0.77405 0.15936 0.0
C598 C 0.97516 0.77993 0.14789 0.0
C599 C 0.95114 0.78824 0.1397 0.0
C600 C 0.00757 0.7783 0.1441 0.0
C601 C 0.99264 0.76586 0.1686 0.0
C602 C 0.02013 0.80441 0.1387 0.0
C603 C 0.04876 0.80217 0.13368 0.0
C604 C 0.0656 0.77384 0.13404 0.0
C605 C 0.0538 0.74806 0.13989 0.0
C606 C 0.02487 0.75022 0.14484 0.0
H607 H 0.98476 0.77065 0.17736 0.0
H608 H 0.99791 0.74039 0.16799 0.0
H609 H 0.01458 0.77915 0.16752 0.0
H610 H 0.00726 0.82632 0.13804 0.0
H611 H 0.05736 0.82243 0.12924 0.0
H612 H 0.52274 0.39791 0.42162 0.0
H613 H 0.52898 0.45328 0.41666 0.0
H614 H 0.62328 0.43498 0.40756 0.0
H615 H 0.61752 0.37964 0.41269 0.0
H616 H 0.57684 0.50024 0.42483 0.0
H617 H 0.57633 0.47189 0.37804 0.0
H618 H 0.56267 0.44447 0.38839 0.0
H619 H 0.60385 0.4507 0.38737 0.0
C620 C 0.54498 0.40568 0.41872 0.0
C621 C 0.56955 0.38419 0.41747 0.0
C622 C 0.54848 0.43735 0.41588 0.0
C623 C 0.57651 0.44814 0.41168 0.0
C624 C 0.60134 0.42702 0.41067 0.0
H625 H 0.61963 0.64427 0.39412 0.0
H626 H 0.62198 0.59279 0.40364 0.0
C627 C 0.5979 0.39535 0.41353 0.0
C628 C 0.57902 0.48107 0.40773 0.0
H629 H 0.58199 0.52503 0.38341 0.0
C630 C 0.57819 0.50576 0.41579 0.0
C631 C 0.58062 0.48808 0.39593 0.0
C632 C 0.58071 0.4625 0.38688 0.0
C633 C 0.57861 0.53739 0.41231 0.0
C634 C 0.57981 0.5443 0.40048 0.0
C635 C 0.58114 0.51959 0.39248 0.0
C636 C 0.57734 0.5768 0.396 0.0
C637 C 0.57675 0.56321 0.42119 0.0
C638 C 0.55144 0.5849 0.38867 0.0
C639 C 0.55003 0.61413 0.38331 0.0
C640 C 0.57447 0.63594 0.38519 0.0
C641 C 0.60012 0.6282 0.39276 0.0
C642 C 0.60153 0.5988 0.39816 0.0
H643 H 0.57143 0.55393 0.42975 0.0
H644 H 0.59946 0.57582 0.42211 0.0
H645 H 0.55852 0.58059 0.4184 0.0
H646 H 0.53259 0.56824 0.38687 0.0
H647 H 0.53002 0.61944 0.37749 0.0
H648 H 0.01972 0.35732 0.6567 0.0
H649 H 0.96542 0.35729 0.64855 0.0
H650 H 0.9669 0.25603 0.64668 0.0
H651 H 0.02108 0.25586 0.65466 0.0
H652 H 0.93914 0.28912 0.62621 0.0
H653 H 0.89106 0.32634 0.66759 0.0
H654 H 0.92216 0.34928 0.66214 0.0
H655 H 0.92984 0.31 0.66706 0.0
C656 C 0.00858 0.3351 0.65439 0.0
C657 C 0.02458 0.30657 0.6564 0.0
C658 C 0.97753 0.33512 0.64982 0.0
C659 C 0.96211 0.30664 0.64713 0.0
C660 C 0.97838 0.27825 0.64875 0.0
H661 H 0.79604 0.21177 0.62928 0.0
H662 H 0.84862 0.23367 0.63166 0.0
C663 C 0.00925 0.27818 0.65337 0.0
C664 C 0.92867 0.30587 0.64303 0.0
H665 H 0.85508 0.31134 0.65256 0.0
C666 C 0.92071 0.29447 0.63189 0.0
C667 C 0.9047 0.31319 0.65042 0.0
C668 C 0.91212 0.32527 0.6625 0.0
C669 C 0.88941 0.28885 0.62814 0.0
C670 C 0.86558 0.29406 0.63582 0.0
C671 C 0.87339 0.30731 0.64669 0.0
C672 C 0.83336 0.2819 0.63337 0.0
C673 C 0.88223 0.27659 0.61607 0.0
C674 C 0.80713 0.30165 0.63375 0.0
C675 C 0.77683 0.28903 0.63246 0.0
C676 C 0.77242 0.25651 0.63086 0.0
C677 C 0.79873 0.23696 0.63043 0.0
C678 C 0.82882 0.24949 0.63167 0.0
H679 H 0.90017 0.2844 0.61021 0.0
H680 H 0.88243 0.2505 0.61617 0.0
H681 H 0.85888 0.28453 0.61256 0.0
H682 H 0.81011 0.32667 0.63525 0.0
H683 H 0.75698 0.30443 0.63321 0.0
H684 H 0.34813 0.29274 0.6799 0.0
H685 H 0.40118 0.28393 0.674 0.0
H686 H 0.36629 0.28013 0.63845 0.0
H687 H 0.31296 0.28888 0.64431 0.0
H688 H 0.4099 0.23287 0.64439 0.0
H689 H 0.45363 0.35049 0.6589 0.0
H690 H 0.43628 0.32788 0.66982 0.0
H691 H 0.41252 0.34095 0.6575 0.0
C692 C 0.35176 0.2903 0.67081 0.0
C693 C 0.32639 0.29194 0.66255 0.0
C694 C 0.38209 0.28522 0.66746 0.0
C695 C 0.38774 0.28193 0.65578 0.0
C696 C 0.36242 0.28273 0.64752 0.0
H697 H 0.55345 0.30738 0.62012 0.0
H698 H 0.50344 0.30979 0.62899 0.0
C699 C 0.33199 0.28769 0.65087 0.0
C700 C 0.4201 0.27807 0.65216 0.0
H701 H 0.49083 0.31511 0.6521 0.0
C702 C 0.42767 0.25076 0.6461 0.0
C703 C 0.44314 0.30157 0.65437 0.0
C704 C 0.43602 0.33201 0.66041 0.0
C705 C 0.45763 0.24645 0.64208 0.0
C706 C 0.48068 0.26991 0.64433 0.0
C707 C 0.47319 0.29702 0.65051 0.0
C708 C 0.51171 0.26829 0.63939 0.0
C709 C 0.46404 0.2174 0.6351 0.0
C710 C 0.53318 0.24432 0.6424 0.0
C711 C 0.56188 0.24276 0.63726 0.0
C712 C 0.56959 0.26537 0.62914 0.0
C713 C 0.54819 0.28957 0.62633 0.0
C714 C 0.51964 0.29107 0.63142 0.0
H715 H 0.4422 0.20465 0.6323 0.0
H716 H 0.47656 0.22361 0.62735 0.0
H717 H 0.47916 0.2012 0.6404 0.0
H718 H 0.52767 0.22673 0.64865 0.0
H719 H 0.57767 0.22356 0.63945 0.0
H720 H 0.51231 0.85094 0.1578 0.0
H721 H 0.45819 0.84972 0.14952 0.0
H722 H 0.46091 0.7484 0.14867 0.0
H723 H 0.51498 0.7494 0.15679 0.0
H724 H 0.43292 0.77982 0.12781 0.0
H725 H 0.38408 0.81928 0.16878 0.0
H726 H 0.415 0.84227 0.16324 0.0
H727 H 0.42304 0.80329 0.1684 0.0
C728 C 0.5015 0.82843 0.15569 0.0
C729 C 0.51782 0.80024 0.15802 0.0
C730 C 0.47055 0.82778 0.15105 0.0
C731 C 0.45551 0.79896 0.14861 0.0
C732 C 0.4721 0.77087 0.15054 0.0
H733 H 0.28631 0.70699 0.12999 0.0
H734 H 0.33974 0.72669 0.13249 0.0
C735 C 0.5029 0.77148 0.15524 0.0
C736 C 0.42213 0.79764 0.14445 0.0
H737 H 0.3483 0.80461 0.15364 0.0
C738 C 0.41437 0.78564 0.13339 0.0
C739 C 0.39802 0.80554 0.15171 0.0
C740 C 0.40521 0.81818 0.16373 0.0
C741 C 0.38309 0.78029 0.12953 0.0
C742 C 0.35905 0.78637 0.13705 0.0
C743 C 0.36674 0.79993 0.14789 0.0
C744 C 0.32644 0.77545 0.13442 0.0
C745 C 0.37615 0.7677 0.1175 0.0
C746 C 0.30101 0.7962 0.13487 0.0
C747 C 0.27025 0.78482 0.13353 0.0
C748 C 0.26449 0.7526 0.1318 0.0
C749 C 0.29 0.73202 0.13123 0.0
C750 C 0.3206 0.7433 0.13254 0.0
H751 H 0.39446 0.77495 0.11169 0.0
H752 H 0.37591 0.74162 0.11772 0.0
H753 H 0.35306 0.77592 0.11382 0.0
H754 H 0.30495 0.82103 0.13652 0.0
H755 H 0.2511 0.80086 0.13444 0.0
H756 H 0.42474 0.34319 0.83318 0.0
H757 H 0.37116 0.33374 0.83844 0.0
H758 H 0.38702 0.2337 0.83721 0.0
H759 H 0.44065 0.24292 0.8319 0.0
H760 H 0.32243 0.29985 0.82639 0.0
H761 H 0.35435 0.24756 0.86922 0.0
H762 H 0.38209 0.26898 0.86122 0.0
H763 H 0.37185 0.22923 0.85725 0.0
C764 C 0.41683 0.31916 0.834 0.0
C765 C 0.43707 0.29381 0.83218 0.0
C766 C 0.3862 0.31381 0.83702 0.0
C767 C 0.37517 0.28304 0.83832 0.0
C768 C 0.39521 0.25765 0.83645 0.0
H769 H 0.18818 0.22393 0.8575 0.0
H770 H 0.23805 0.22428 0.84808 0.0
C771 C 0.42589 0.26298 0.83346 0.0
C772 C 0.34275 0.27772 0.84169 0.0
H773 H 0.30067 0.24994 0.86346 0.0
C774 C 0.31766 0.28876 0.83446 0.0
C775 C 0.33657 0.26315 0.85221 0.0
C776 C 0.36257 0.25174 0.86049 0.0
C777 C 0.2866 0.28604 0.83758 0.0
C778 C 0.28062 0.27218 0.84819 0.0
C779 C 0.3055 0.26038 0.85528 0.0
C780 C 0.2491 0.27256 0.85267 0.0
C781 C 0.26027 0.29835 0.82965 0.0
C782 C 0.23891 0.29964 0.85823 0.0
C783 C 0.21073 0.29944 0.86364 0.0
C784 C 0.1921 0.27223 0.86346 0.0
C785 C 0.20192 0.24533 0.85761 0.0
C786 C 0.23035 0.24546 0.85227 0.0
H787 H 0.26832 0.30512 0.82112 0.0
H788 H 0.24161 0.28028 0.82838 0.0
H789 H 0.24976 0.31928 0.83365 0.0
H790 H 0.25324 0.32067 0.85868 0.0
H791 H 0.20373 0.32044 0.86812 0.0
H792 H 0.24457 0.76085 0.34394 0.0
H793 H 0.29856 0.76274 0.35183 0.0
H794 H 0.29271 0.86362 0.3551 0.0
H795 H 0.23875 0.86202 0.34674 0.0
H796 H 0.34419 0.84682 0.3448 0.0
H797 H 0.33748 0.77506 0.38381 0.0
H798 H 0.32054 0.75416 0.37154 0.0
H799 H 0.30301 0.79037 0.37605 0.0
C800 C 0.25465 0.78347 0.34639 0.0
C801 C 0.23731 0.8113 0.34464 0.0
C802 C 0.28545 0.78447 0.35107 0.0
C803 C 0.29963 0.81327 0.35427 0.0
C804 C 0.28219 0.84109 0.3528 0.0
H805 H 0.49481 0.78544 0.3813 0.0
H806 H 0.44231 0.80905 0.38035 0.0
C807 C 0.25128 0.84011 0.34808 0.0
C808 C 0.33342 0.8142 0.35809 0.0
H809 H 0.38828 0.77631 0.37546 0.0
C810 C 0.35376 0.83195 0.35168 0.0
C811 C 0.34608 0.79547 0.36726 0.0
C812 C 0.32554 0.778 0.37513 0.0
C813 C 0.38637 0.82937 0.35355 0.0
C814 C 0.39897 0.808 0.36187 0.0
C815 C 0.37869 0.79234 0.36895 0.0
C816 C 0.43233 0.79827 0.36229 0.0
C817 C 0.40702 0.84886 0.34634 0.0
C818 C 0.44427 0.78471 0.35246 0.0
C819 C 0.47407 0.77146 0.35298 0.0
C820 C 0.49268 0.77132 0.36335 0.0
C821 C 0.48123 0.78575 0.37314 0.0
C822 C 0.45119 0.79903 0.37262 0.0
H823 H 0.39548 0.87138 0.34381 0.0
H824 H 0.42986 0.85412 0.351 0.0
H825 H 0.4114 0.83575 0.33833 0.0
H826 H 0.42997 0.78306 0.34447 0.0
H827 H 0.48219 0.76037 0.34531 0.0
H828 H 0.67295 0.89656 0.55924 0.0
H829 H 0.66954 0.95284 0.56356 0.0
H830 H 0.70899 0.93637 0.59797 0.0
H831 H 0.71307 0.88015 0.59366 0.0
H832 H 0.63635 0.98211 0.58079 0.0
H833 H 0.76314 0.00835 0.58647 0.0
H834 H 0.7481 0.97297 0.57945 0.0
H835 H 0.75126 0.97573 0.5949 0.0
C836 C 0.68133 0.90496 0.56769 0.0
C837 C 0.69348 0.88382 0.57609 0.0
C838 C 0.67918 0.93712 0.57015 0.0
C839 C 0.68942 0.94889 0.58103 0.0
C840 C 0.70145 0.92789 0.58945 0.0
H841 H 0.65022 0.10684 0.62163 0.0
H842 H 0.65101 0.05752 0.61079 0.0
C843 C 0.70347 0.8957 0.58701 0.0
C844 C 0.68648 0.98293 0.58375 0.0
H845 H 0.72849 0.047 0.59361 0.0
C846 C 0.65653 0.99642 0.58345 0.0
C847 C 0.71284 1.00177 0.58701 0.0
C848 C 0.7457 0.98911 0.58688 0.0
C849 C 0.65214 0.02773 0.58694 0.0
C850 C 0.67833 0.04591 0.59091 0.0
C851 C 0.7084 0.03299 0.59061 0.0
C852 C 0.67481 0.07694 0.59659 0.0
C853 C 0.61945 0.04098 0.58658 0.0
C854 C 0.68783 0.10437 0.59219 0.0
C855 C 0.68724 0.13278 0.59838 0.0
C856 C 0.67395 0.13395 0.60911 0.0
C857 C 0.6604 0.10662 0.61334 0.0
C858 C 0.6607 0.07847 0.60713 0.0
H859 H 0.60338 0.02777 0.58043 0.0
H860 H 0.61027 0.03919 0.59526 0.0
H861 H 0.61932 0.06617 0.58411 0.0
H862 H 0.69908 0.10361 0.58411 0.0
H863 H 0.69837 0.1534 0.59505 0.0
H864 H 0.21176 0.05497 0.07918 0.0
H865 H 0.22444 0.0041 0.08788 0.0
H866 H 0.24296 0.04915 0.12089 0.0
H867 H 0.23008 0.10056 0.11217 0.0
H868 H 0.28115 0.98227 0.10208 0.0
H869 H 0.17 0.98352 0.12464 0.0
H870 H 0.17566 0.00909 0.11263 0.0
H871 H 0.19609 0.0167 0.12628 0.0
C872 C 0.21869 0.05411 0.08829 0.0
C873 C 0.21949 0.08164 0.09505 0.0
C874 C 0.22618 0.02507 0.09322 0.0
C875 C 0.23444 0.02287 0.10502 0.0
C876 C 0.2365 0.05041 0.11176 0.0
H877 H 0.20558 0.83727 0.13379 0.0
H878 H 0.22758 0.89056 0.1342 0.0
C879 C 0.22922 0.07969 0.10678 0.0
C880 C 0.23821 0.99124 0.11019 0.0
H881 H 0.19654 0.93579 0.12371 0.0
C882 C 0.26308 0.97221 0.10705 0.0
C883 C 0.21477 0.97828 0.11676 0.0
C884 C 0.18748 0.99775 0.12029 0.0
C885 C 0.26416 0.94004 0.10976 0.0
C886 C 0.23926 0.92646 0.11545 0.0
C887 C 0.21564 0.94608 0.11933 0.0
C888 C 0.23438 0.89185 0.11593 0.0
C889 C 0.29154 0.92083 0.10619 0.0
C890 C 0.23201 0.8743 0.10564 0.0
C891 C 0.21999 0.84376 0.10546 0.0
C892 C 0.21007 0.83014 0.11555 0.0
C893 C 0.21413 0.84685 0.12598 0.0
C894 C 0.22637 0.87742 0.12618 0.0
H895 H 0.31321 0.93526 0.10653 0.0
H896 H 0.2956 0.89994 0.11176 0.0
H897 H 0.28692 0.91275 0.09716 0.0
H898 H 0.23699 0.88505 0.09755 0.0
H899 H 0.21619 0.83167 0.09727 0.0
H900 H 0.53714 0.0582 0.41452 0.0
H901 H 0.52494 0.00643 0.40637 0.0
H902 H 0.49781 0.04846 0.37364 0.0
H903 H 0.51057 0.1009 0.38179 0.0
H904 H 0.46754 0.98184 0.395 0.0
H905 H 0.5682 0.98428 0.3668 0.0
H906 H 0.56577 0.01165 0.37862 0.0
H907 H 0.54017 0.01585 0.36594 0.0
C908 C 0.52868 0.05651 0.40557 0.0
C909 C 0.52537 0.08356 0.39873 0.0
C910 C 0.52141 0.02692 0.40096 0.0
C911 C 0.51069 0.02358 0.38939 0.0
C912 C 0.5063 0.05056 0.38258 0.0
H913 H 0.53768 0.83049 0.36523 0.0
H914 H 0.51215 0.8822 0.3636 0.0
C915 C 0.51347 0.08042 0.38723 0.0
C916 C 0.50628 0.99139 0.38461 0.0
H917 H 0.5459 0.93541 0.3703 0.0
C918 C 0.48407 0.97179 0.38932 0.0
C919 C 0.52761 0.97838 0.3771 0.0
C920 C 0.55192 0.99844 0.3718 0.0
C921 C 0.4844 0.93912 0.38751 0.0
C922 C 0.50786 0.92578 0.381 0.0
C923 C 0.52799 0.94568 0.37533 0.0
C924 C 0.51621 0.892 0.38191 0.0
C925 C 0.46073 0.91902 0.39311 0.0
C926 C 0.52622 0.88008 0.39273 0.0
C927 C 0.54089 0.85089 0.39365 0.0
C928 C 0.5457 0.83291 0.38378 0.0
C929 C 0.53384 0.84376 0.37299 0.0
C930 C 0.51938 0.87329 0.37205 0.0
H931 H 0.43837 0.93191 0.39381 0.0
H932 H 0.45602 0.89682 0.38823 0.0
H933 H 0.46984 0.91305 0.40196 0.0
H934 H 0.52475 0.89432 0.40043 0.0
H935 H 0.55 0.84311 0.40205 0.0
H936 H 0.02872 0.90159 0.92048 0.0
H937 H 0.03291 0.95704 0.91532 0.0
H938 H 0.12625 0.94106 0.90475 0.0
H939 H 0.12253 0.88564 0.91005 0.0
H940 H 0.079 0.00492 0.92282 0.0
H941 H 0.07691 0.97762 0.87595 0.0
H942 H 0.0652 0.94941 0.88638 0.0
H943 H 0.10594 0.95727 0.8849 0.0
C944 C 0.05032 0.90989 0.9172 0.0
C945 C 0.07521 0.88902 0.91561 0.0
C946 C 0.05264 0.9416 0.91424 0.0
C947 C 0.07979 0.95308 0.90958 0.0
C948 C 0.10494 0.93257 0.9082 0.0
H949 H 0.12022 0.14948 0.89211 0.0
H950 H 0.12276 0.09796 0.90158 0.0
C951 C 0.10267 0.90085 0.91117 0.0
C952 C 0.08113 0.98616 0.90566 0.0
H953 H 0.08246 0.03078 0.88143 0.0
C954 C 0.07996 0.01066 0.91379 0.0
C955 C 0.08213 0.9935 0.89386 0.0
C956 C 0.08238 0.96816 0.88472 0.0
C957 C 0.07961 0.04237 0.91038 0.0
C958 C 0.08046 0.0496 0.89857 0.0
C959 C 0.08195 0.0251 0.89049 0.0
C960 C 0.07773 0.08223 0.89422 0.0
C961 C 0.07738 0.06794 0.91933 0.0
C962 C 0.05151 0.09053 0.88708 0.0
C963 C 0.04995 0.11985 0.88178 0.0
C964 C 0.07458 0.14153 0.8835 0.0
C965 C 0.10052 0.13359 0.8909 0.0
C966 C 0.10206 0.10413 0.89626 0.0
H967 H 0.07313 0.05835 0.92795 0.0
H968 H 0.09954 0.08152 0.92001 0.0
H969 H 0.05827 0.08454 0.91673 0.0
H970 H 0.03256 0.07394 0.88537 0.0
H971 H 0.02973 0.12528 0.87608 0.0
H972 H 0.18116 0.18859 0.99672 0.0
H973 H 0.16799 0.17754 0.97641 0.0
H974 H 0.07452 0.1512 0.98428 0.0
H975 H 0.08702 0.1637 0.00461 0.0
H976 H 0.14653 0.12377 0.96451 0.0
H977 H 0.0589 0.22063 0.96077 0.0
H978 H 0.08573 0.2166 0.97323 0.0
H979 H 0.0526 0.19079 0.97123 0.0
C980 C 0.15769 0.18073 0.99414 0.0
C981 C 0.13501 0.17757 0.00229 0.0
C982 C 0.15032 0.17403 0.98254 0.0
C983 C 0.12016 0.16393 0.97881 0.0
C984 C 0.09779 0.15945 0.98695 0.0
H985 H 0.06531 0.18705 0.90563 0.0
H986 H 0.06198 0.16047 0.92422 0.0
C987 C 0.10509 0.16634 0.99858 0.0
C988 C 0.11214 0.16014 0.9663 0.0
H989 H 0.07221 0.19618 0.94379 0.0
C990 C 0.12981 0.13915 0.95998 0.0
C991 C 0.09005 0.17996 0.9604 0.0
C992 C 0.07081 0.20344 0.9667 0.0
C993 C 0.12752 0.13898 0.9479 0.0
C994 C 0.10727 0.16056 0.94202 0.0
C995 C 0.08767 0.17959 0.94833 0.0
C996 C 0.1105 0.16858 0.92978 0.0
C997 C 0.14792 0.11676 0.94157 0.0
C998 C 0.13904 0.18102 0.92661 0.0
C999 C 0.14087 0.19628 0.91613 0.0
C1000 C 0.11425 0.19928 0.90857 0.0
C1001 C 0.08621 0.18478 0.9113 0.0
C1002 C 0.08429 0.16967 0.92189 0.0
H1003 H 0.15119 0.09431 0.94632 0.0
H1004 H 0.13794 0.11158 0.93273 0.0
H1005 H 0.17135 0.12756 0.94097 0.0
H1006 H 0.1594 0.18113 0.93262 0.0
H1007 H 0.16273 0.20733 0.91421 0.0
H1008 H 0.09418 0.74695 0.25125 0.0
H1009 H 0.093 0.73989 0.23042 0.0
H1010 H 0.06914 0.83766 0.22572 0.0
H1011 H 0.07174 0.84536 0.24662 0.0
H1012 H 0.04557 0.74876 0.21354 0.0
H1013 H 0.14591 0.82872 0.20716 0.0
H1014 H 0.13647 0.81551 0.22122 0.0
H1015 H 0.11367 0.8459 0.21408 0.0
C1016 C 0.0891 0.76711 0.24581 0.0
C1017 C 0.08351 0.79684 0.25063 0.0
C1018 C 0.08807 0.76293 0.23389 0.0
C1019 C 0.08138 0.78833 0.22652 0.0
C1020 C 0.07488 0.81786 0.23126 0.0
H1021 H 0.11308 0.78229 0.15281 0.0
H1022 H 0.08996 0.79992 0.17048 0.0
C1023 C 0.07608 0.82213 0.24321 0.0
C1024 C 0.08212 0.78366 0.2139 0.0
H1025 H 0.12386 0.80243 0.19088 0.0
C1026 C 0.06243 0.76078 0.20854 0.0
C1027 C 0.10397 0.79949 0.20737 0.0
C1028 C 0.12641 0.82361 0.21273 0.0
C1029 C 0.06486 0.7524 0.19696 0.0
C1030 C 0.08776 0.76713 0.19058 0.0
C1031 C 0.10622 0.79125 0.19576 0.0
C1032 C 0.09599 0.75526 0.17916 0.0
C1033 C 0.04341 0.7272 0.1918 0.0
C1034 C 0.10643 0.72418 0.17808 0.0
C1035 C 0.11929 0.71403 0.16798 0.0
C1036 C 0.12208 0.73479 0.15877 0.0
C1037 C 0.11052 0.76557 0.15966 0.0
C1038 C 0.09756 0.77574 0.16978 0.0
H1039 H 0.01992 0.72888 0.1953 0.0
H1040 H 0.04074 0.72862 0.18229 0.0
H1041 H 0.05318 0.7038 0.19418 0.0
H1042 H 0.10615 0.70816 0.18526 0.0
H1043 H 0.12819 0.69024 0.16756 0.0
H1044 H 0.62749 0.7255 0.49783 0.0
H1045 H 0.61225 0.71207 0.47792 0.0
H1046 H 0.6159 0.61338 0.48623 0.0
H1047 H 0.63264 0.6267 0.5062 0.0
H1048 H 0.64547 0.62432 0.46728 0.0
H1049 H 0.53126 0.68299 0.46241 0.0
H1050 H 0.55954 0.71055 0.46837 0.0
H1051 H 0.55065 0.67581 0.47637 0.0
C1052 C 0.62507 0.70091 0.49546 0.0
C1053 C 0.63145 0.6772 0.50362 0.0
C1054 C 0.6158 0.69325 0.48408 0.0
C1055 C 0.61217 0.66171 0.48061 0.0
C1056 C 0.61813 0.63789 0.48874 0.0
H1057 H 0.56359 0.67819 0.407 0.0
H1058 H 0.55979 0.65021 0.42529 0.0
C1059 C 0.62755 0.64556 0.50017 0.0
C1060 C 0.60501 0.65418 0.46824 0.0
H1061 H 0.56102 0.68113 0.44497 0.0
C1062 C 0.62644 0.63598 0.46242 0.0
C1063 C 0.57957 0.66825 0.46186 0.0
C1064 C 0.55378 0.68514 0.46763 0.0
C1065 C 0.62522 0.63475 0.45035 0.0
C1066 C 0.60258 0.65286 0.44398 0.0
C1067 C 0.57889 0.66777 0.4498 0.0
C1068 C 0.60673 0.66216 0.43189 0.0
C1069 C 0.64921 0.61536 0.44454 0.0
C1070 C 0.63459 0.6773 0.42937 0.0
C1071 C 0.63675 0.69305 0.41901 0.0
C1072 C 0.61109 0.69416 0.41093 0.0
C1073 C 0.58381 0.67736 0.41305 0.0
C1074 C 0.58162 0.66149 0.4235 0.0
H1075 H 0.65448 0.59346 0.44944 0.0
H1076 H 0.64119 0.60898 0.43557 0.0
H1077 H 0.67132 0.62893 0.4444 0.0
H1078 H 0.65399 0.67903 0.43577 0.0
H1079 H 0.658 0.70592 0.41759 0.0
H1080 H 0.57578 0.34772 0.74369 0.0
H1081 H 0.57352 0.34044 0.72275 0.0
H1082 H 0.58803 0.24082 0.72728 0.0
H1083 H 0.58926 0.24771 0.74811 0.0
H1084 H 0.62027 0.31791 0.71025 0.0
H1085 H 0.51631 0.24186 0.70291 0.0
H1086 H 0.5243 0.26365 0.71614 0.0
H1087 H 0.54302 0.22637 0.71392 0.0
C1088 C 0.57789 0.32419 0.74021 0.0
C1089 C 0.58278 0.2983 0.74758 0.0
C1090 C 0.57668 0.32009 0.72825 0.0
C1091 C 0.58002 0.29002 0.72344 0.0
C1092 C 0.58462 0.26414 0.73078 0.0
H1093 H 0.63793 0.19401 0.6663 0.0
H1094 H 0.61464 0.21316 0.68362 0.0
C1095 C 0.58583 0.2682 0.7427 0.0
C1096 C 0.58159 0.28575 0.71084 0.0
H1097 H 0.55422 0.23954 0.6883 0.0
C1098 C 0.60535 0.30137 0.70536 0.0
C1099 C 0.56198 0.26428 0.70446 0.0
C1100 C 0.53476 0.24835 0.70964 0.0
C1101 C 0.61155 0.29433 0.69393 0.0
C1102 C 0.59321 0.27135 0.68779 0.0
C1103 C 0.56827 0.2571 0.69305 0.0
C1104 C 0.60242 0.25882 0.67661 0.0
C1105 C 0.639 0.30997 0.68876 0.0
C1106 C 0.60224 0.2778 0.66678 0.0
C1107 C 0.61567 0.2669 0.65683 0.0
C1108 C 0.62929 0.23684 0.65661 0.0
C1109 C 0.62775 0.21733 0.66625 0.0
C1110 C 0.61433 0.22818 0.67613 0.0
H1111 H 0.65328 0.32414 0.69519 0.0
H1112 H 0.6543 0.29207 0.685 0.0
H1113 H 0.63032 0.32582 0.68173 0.0
H1114 H 0.59285 0.30142 0.66695 0.0
H1115 H 0.61675 0.28252 0.64956 0.0
H1116 H 0.05551 0.69401 0.99638 0.0
H1117 H 0.06825 0.68434 0.01681 0.0
H1118 H 0.16342 0.6629 0.00957 0.0
H1119 H 0.15121 0.67367 0.98916 0.0
H1120 H 0.09395 0.63114 0.029 0.0
H1121 H 0.17193 0.73608 0.03277 0.0
H1122 H 0.14521 0.72934 0.02041 0.0
H1123 H 0.18091 0.70729 0.02211 0.0
C1124 C 0.0792 0.68739 -0.00087 0.0
C1125 C 0.10244 0.68505 0.99115 0.0
C1126 C 0.08634 0.68152 0.01079 0.0
C1127 C 0.11684 0.67325 0.01471 0.0
C1128 C 0.13982 0.66962 0.00673 0.0
H1129 H 0.1841 0.69337 0.08662 0.0
H1130 H 0.18316 0.67105 0.06711 0.0
C1131 C 0.13272 0.67557 0.99506 0.0
C1132 C 0.12481 0.67059 0.02723 0.0
H1133 H 0.16386 0.70865 0.04965 0.0
C1134 C 0.10956 0.64779 0.03353 0.0
C1135 C 0.14534 0.69222 0.03309 0.0
C1136 C 0.16168 0.71779 0.0268 0.0
C1137 C 0.11352 0.64674 0.04559 0.0
C1138 C 0.13277 0.66942 0.05148 0.0
C1139 C 0.14924 0.69114 0.04512 0.0
C1140 C 0.13288 0.67428 0.06411 0.0
C1141 C 0.09659 0.62176 0.05193 0.0
C1142 C 0.10489 0.68241 0.06904 0.0
C1143 C 0.10545 0.69474 0.08019 0.0
C1144 C 0.13396 0.69903 0.08661 0.0
C1145 C 0.16177 0.68909 0.08199 0.0
C1146 C 0.16125 0.67672 0.07081 0.0
H1147 H 0.09286 0.60027 0.04654 0.0
H1148 H 0.10968 0.61529 0.06011 0.0
H1149 H 0.07326 0.63077 0.05396 0.0
H1150 H 0.08282 0.68162 0.06397 0.0
H1151 H 0.08379 0.70287 0.08352 0.0
H1152 H 0.627 0.79316 0.25201 0.0
H1153 H 0.6303 0.78712 0.27283 0.0
H1154 H 0.73009 0.80165 0.27377 0.0
H1155 H 0.7272 0.80626 0.25276 0.0
H1156 H 0.71569 0.75256 0.28683 0.0
H1157 H 0.6416 0.85297 0.29764 0.0
H1158 H 0.62124 0.82856 0.28704 0.0
H1159 H 0.65671 0.8483 0.2836 0.0
C1160 C 0.64971 0.79496 0.25661 0.0
C1161 C 0.67684 0.80015 0.25069 0.0
C1162 C 0.6515 0.79199 0.26855 0.0
C1163 C 0.68035 0.79464 0.27489 0.0
C1164 C 0.70753 0.7999 0.26905 0.0
H1165 H 0.64626 0.78294 0.34786 0.0
H1166 H 0.6732 0.80167 0.3313 0.0
C1167 C 0.70579 0.80273 0.25706 0.0
C1168 C 0.68192 0.78999 0.28753 0.0
H1169 H 0.64385 0.80992 0.31135 0.0
C1170 C 0.70052 0.76555 0.29227 0.0
C1171 C 0.66298 0.80756 0.29475 0.0
C1172 C 0.64482 0.83604 0.2905 0.0
C1173 C 0.69845 0.75643 0.30377 0.0
C1174 C 0.67662 0.77157 0.31056 0.0
C1175 C 0.66021 0.79783 0.30612 0.0
C1176 C 0.66717 0.75828 0.32158 0.0
C1177 C 0.71911 0.73015 0.30843 0.0
C1178 C 0.65561 0.72738 0.32179 0.0
C1179 C 0.64079 0.71647 0.33133 0.0
C1180 C 0.63696 0.73631 0.34082 0.0
C1181 C 0.64961 0.76682 0.34081 0.0
C1182 C 0.66478 0.77764 0.33131 0.0
H1183 H 0.74185 0.73014 0.30433 0.0
H1184 H 0.72364 0.73209 0.3179 0.0
H1185 H 0.70754 0.70726 0.30637 0.0
H1186 H 0.65625 0.71226 0.31429 0.0
H1187 H 0.63099 0.69296 0.33105 0.0
H1188 H 0.5915 0.12942 0.48977 0.0
H1189 H 0.60302 0.11657 0.5101 0.0
H1190 H 0.59357 0.21435 0.5192 0.0
H1191 H 0.58309 0.22761 0.49901 0.0
H1192 H 0.65343 0.14275 0.52509 0.0
H1193 H 0.53685 0.16655 0.54112 0.0
H1194 H 0.54268 0.15866 0.52612 0.0
H1195 H 0.54981 0.19735 0.53206 0.0
C1196 C 0.59201 0.14823 0.49609 0.0
C1197 C 0.58625 0.17959 0.49273 0.0
C1198 C 0.59836 0.14076 0.5077 0.0
C1199 C 0.59859 0.16443 0.51614 0.0
C1200 C 0.59277 0.19564 0.51283 0.0
H1201 H 0.6817 0.23178 0.57454 0.0
H1202 H 0.67057 0.2044 0.55629 0.0
C1203 C 0.5867 0.20316 0.50126 0.0
C1204 C 0.60668 0.15742 0.52839 0.0
H1205 H 0.58101 0.17187 0.55502 0.0
C1206 C 0.63739 0.14823 0.53166 0.0
C1207 C 0.58555 0.16382 0.53695 0.0
C1208 C 0.55176 0.17183 0.53389 0.0
C1209 C 0.64837 0.14852 0.54328 0.0
C1210 C 0.62819 0.15856 0.55173 0.0
C1211 C 0.5966 0.16443 0.54854 0.0
C1212 C 0.64037 0.16941 0.56326 0.0
C1213 C 0.68194 0.13979 0.54636 0.0
C1214 C 0.62753 0.15852 0.57333 0.0
C1215 C 0.63405 0.17422 0.58383 0.0
C1216 C 0.65309 0.20114 0.58429 0.0
C1217 C 0.66719 0.21087 0.57437 0.0
C1218 C 0.66102 0.19507 0.56397 0.0
H1219 H 0.69033 0.12205 0.54022 0.0
H1220 H 0.69685 0.16103 0.54584 0.0
H1221 H 0.68493 0.13032 0.55523 0.0
H1222 H 0.61124 0.139 0.57293 0.0
H1223 H 0.6226 0.16665 0.59138 0.0
H1224 H 0.19396 0.34446 0.75204 0.0
H1225 H 0.19691 0.33812 0.77298 0.0
H1226 H 0.18751 0.23768 0.76865 0.0
H1227 H 0.18553 0.24372 0.74778 0.0
H1228 H 0.15004 0.31376 0.78478 0.0
H1229 H 0.25712 0.24365 0.79391 0.0
H1230 H 0.24941 0.26432 0.78052 0.0
H1231 H 0.2322 0.22631 0.78264 0.0
C1232 C 0.19323 0.32097 0.75556 0.0
C1233 C 0.18937 0.29459 0.74825 0.0
C1234 C 0.19487 0.3174 0.76751 0.0
C1235 C 0.19299 0.2874 0.77237 0.0
C1236 C 0.1898 0.26099 0.7651 0.0
H1237 H 0.13284 0.19385 0.82947 0.0
H1238 H 0.15885 0.21137 0.81253 0.0
C1239 C 0.18813 0.26453 0.75317 0.0
C1240 C 0.1905 0.28376 0.78493 0.0
H1241 H 0.21802 0.2407 0.80807 0.0
C1242 C 0.16534 0.29839 0.78996 0.0
C1243 C 0.21054 0.26375 0.79167 0.0
C1244 C 0.23902 0.24888 0.78693 0.0
C1245 C 0.15827 0.29177 0.80129 0.0
C1246 C 0.17727 0.27034 0.80782 0.0
C1247 C 0.20349 0.25706 0.80302 0.0
C1248 C 0.16769 0.25856 0.81899 0.0
C1249 C 0.12933 0.30617 0.8059 0.0
C1250 C 0.16518 0.27897 0.8284 0.0
C1251 C 0.14994 0.26912 0.83803 0.0
C1252 C 0.13761 0.23853 0.83846 0.0
C1253 C 0.14213 0.21754 0.82936 0.0
C1254 C 0.15714 0.22745 0.81972 0.0
H1255 H 0.11459 0.31831 0.79911 0.0
H1256 H 0.11494 0.28786 0.80982 0.0
H1257 H 0.13632 0.32367 0.81269 0.0
H1258 H 0.17345 0.303 0.82804 0.0
H1259 H 0.14627 0.286 0.84481 0.0
loop_
_geom_bond_atom_site_label_1
_geom_bond_atom_site_label_2
_geom_bond_distance
_geom_bond_site_symmetry_2
_ccdc_geom_bond_type
C0 C1 1.386 . S
C0 C2 1.397 . S
C0 H24 0.931 . S
C1 C0 1.386 . S
C1 C5 1.397 . S
C2 C0 1.397 . S
C2 C3 1.384 . S
C2 H25 0.930 . S
C3 C2 1.384 . S
C3 C4 1.377 . S
C3 C6 1.481 . S
C4 C3 1.377 . S
C4 C5 1.389 . S
C4 H26 0.929 . S
C5 C1 1.397 . S
C5 C4 1.389 . S
C5 H27 0.931 . S
C6 C3 1.481 . S
C6 C7 1.387 . S
C6 C11 1.390 . S
C7 C6 1.387 . S
C7 C8 1.401 . S
C7 H28 0.930 . S
C8 C7 1.401 . S
C8 C9 1.376 . S
C8 C17 1.511 . S
C9 C8 1.376 . S
C9 C10 1.392 . S
C9 H30 0.931 . S
C10 C9 1.392 . S
C10 C11 1.361 . S
C10 C12 1.500 . S
C11 C6 1.390 . S
C11 C10 1.361 . S
C11 H29 0.931 . S
C12 C10 1.500 . S
C12 C13 1.371 . S
C12 C14 1.365 . S
C13 C12 1.371 . S
C13 C23 1.386 . S
C13 H31 0.931 . S
C14 C12 1.365 . S
C14 C15 1.409 . S
C14 H32 0.929 . S
C15 C14 1.409 . S
C15 C16 1.380 . S
C15 H33 0.930 . S
C16 C15 1.380 . S
C16 C23 1.357 . S
C17 C8 1.511 . S
C17 C18 1.341 . S
C17 C19 1.371 . S
C18 C17 1.341 . S
C18 C22 1.394 . S
C18 H34 0.930 . S
C19 C17 1.371 . S
C19 C20 1.392 . S
C19 H35 0.931 . S
C20 C19 1.392 . S
C20 C21 1.331 . S
C20 H38 0.932 . S
C21 C20 1.331 . S
C21 C22 1.336 . S
C22 C18 1.394 . S
C22 C21 1.336 . S
C22 H37 0.929 . S
C23 C13 1.386 . S
C23 C16 1.357 . S
C23 H36 0.928 . S
H24 C0 0.931 . S
H25 C2 0.930 . S
H26 C4 0.929 . S
H27 C5 0.931 . S
H28 C7 0.930 . S
H29 C11 0.931 . S
H30 C9 0.931 . S
H31 C13 0.931 . S
H32 C14 0.929 . S
H33 C15 0.930 . S
H34 C18 0.930 . S
H35 C19 0.931 . S
H36 C23 0.928 . S
H37 C22 0.929 . S
H38 C20 0.932 . S
C39 C40 1.386 . S
C39 C41 1.397 . S
C39 H63 0.931 . S
C40 C39 1.386 . S
C40 C44 1.397 . S
C41 C39 1.397 . S
C41 C42 1.384 . S
C41 H64 0.930 . S
C42 C41 1.384 . S
C42 C43 1.377 . S
C42 C45 1.481 . S
C43 C42 1.377 . S
C43 C44 1.389 . S
C43 H65 0.929 . S
C44 C40 1.397 . S
C44 C43 1.389 . S
C44 H66 0.931 . S
C45 C42 1.481 . S
C45 C46 1.387 . S
C45 C50 1.390 . S
C46 C45 1.387 . S
C46 C47 1.401 . S
C46 H67 0.930 . S
C47 C46 1.401 . S
C47 C48 1.376 . S
C47 C56 1.511 . S
C48 C47 1.376 . S
C48 C49 1.392 . S
C48 H69 0.931 . S
C49 C48 1.392 . S
C49 C50 1.361 . S
C49 C51 1.500 . S
C50 C45 1.390 . S
C50 C49 1.361 . S
C50 H68 0.931 . S
C51 C49 1.500 . S
C51 C52 1.371 . S
C51 C53 1.365 . S
C52 C51 1.371 . S
C52 C62 1.386 . S
C52 H70 0.931 . S
C53 C51 1.365 . S
C53 C54 1.409 . S
C53 H71 0.929 . S
C54 C53 1.409 . S
C54 C55 1.382 . S
C54 H72 0.930 1_455 S
C55 C54 1.382 . S
C55 C62 1.370 . S
C56 C47 1.511 . S
C56 C57 1.341 . S
C56 C58 1.371 . S
C57 C56 1.341 . S
C57 C61 1.394 . S
C57 H73 0.930 . S
C58 C56 1.371 . S
C58 C59 1.392 . S
C58 H74 0.931 . S
C59 C58 1.392 . S
C59 C60 1.331 . S
C59 H77 0.932 . S
C60 C59 1.331 . S
C60 C61 1.336 . S
C61 C57 1.394 . S
C61 C60 1.336 . S
C61 H76 0.929 . S
C62 C52 1.386 . S
C62 C55 1.370 . S
C62 H75 0.928 . S
H63 C39 0.931 . S
H64 C41 0.930 . S
H65 C43 0.929 . S
H66 C44 0.931 . S
H67 C46 0.930 . S
H68 C50 0.931 . S
H69 C48 0.931 . S
H70 C52 0.931 . S
H71 C53 0.929 . S
H72 C54 0.930 1_655 S
H73 C57 0.930 . S
H74 C58 0.931 . S
H75 C62 0.928 . S
H76 C61 0.929 . S
H77 C59 0.932 . S
C78 C79 1.386 . S
C78 C80 1.397 . S
C78 H102 0.931 . S
C79 C78 1.386 . S
C79 C83 1.397 . S
C80 C78 1.397 . S
C80 C81 1.384 . S
C80 H103 0.930 . S
C81 C80 1.384 . S
C81 C82 1.377 . S
C81 C84 1.481 . S
C82 C81 1.377 . S
C82 C83 1.389 . S
C82 H104 0.929 . S
C83 C79 1.397 . S
C83 C82 1.389 . S
C83 H105 0.931 . S
C84 C81 1.481 . S
C84 C85 1.387 . S
C84 C89 1.390 . S
C85 C84 1.387 . S
C85 C86 1.401 . S
C85 H106 0.930 . S
C86 C85 1.401 . S
C86 C87 1.376 . S
C86 C95 1.511 . S
C87 C86 1.376 . S
C87 C88 1.392 . S
C87 H108 0.931 . S
C88 C87 1.392 . S
C88 C89 1.361 . S
C88 C90 1.500 . S
C89 C84 1.390 . S
C89 C88 1.361 . S
C89 H107 0.931 . S
C90 C88 1.500 . S
C90 C91 1.371 . S
C90 C92 1.365 . S
C91 C90 1.371 . S
C91 C101 1.386 . S
C91 H109 0.931 . S
C92 C90 1.365 . S
C92 C93 1.409 . S
C92 H110 0.929 . S
C93 C92 1.409 . S
C93 C94 1.380 . S
C93 H111 0.930 . S
C94 C93 1.380 . S
C94 C101 1.357 . S
C95 C86 1.511 . S
C95 C96 1.341 . S
C95 C97 1.371 . S
C96 C95 1.341 . S
C96 C100 1.394 . S
C96 H112 0.930 . S
C97 C95 1.371 . S
C97 C98 1.392 . S
C97 H113 0.931 . S
C98 C97 1.392 . S
C98 C99 1.331 . S
C98 H116 0.932 . S
C99 C98 1.331 . S
C99 C100 1.336 . S
C100 C96 1.394 . S
C100 C99 1.336 . S
C100 H115 0.929 . S
C101 C91 1.386 . S
C101 C94 1.357 . S
C101 H114 0.928 . S
H102 C78 0.931 . S
H103 C80 0.930 . S
H104 C82 0.929 . S
H105 C83 0.931 . S
H106 C85 0.930 . S
H107 C89 0.931 . S
H108 C87 0.931 . S
H109 C91 0.931 . S
H110 C92 0.929 . S
H111 C93 0.930 . S
H112 C96 0.930 . S
H113 C97 0.931 . S
H114 C101 0.928 . S
H115 C100 0.929 . S
H116 C98 0.932 . S
C117 C118 1.386 . S
C117 C119 1.397 . S
C117 H141 0.931 . S
C118 C117 1.386 . S
C118 C122 1.397 . S
C119 C117 1.397 . S
C119 C120 1.384 . S
C119 H142 0.930 . S
C120 C119 1.384 . S
C120 C121 1.377 . S
C120 C123 1.481 . S
C121 C120 1.377 . S
C121 C122 1.389 . S
C121 H143 0.929 . S
C122 C118 1.397 . S
C122 C121 1.389 . S
C122 H144 0.931 . S
C123 C120 1.481 . S
C123 C124 1.387 . S
C123 C128 1.390 . S
C124 C123 1.387 . S
C124 C125 1.401 . S
C124 H145 0.930 . S
C125 C124 1.401 . S
C125 C126 1.376 . S
C125 C134 1.511 . S
C126 C125 1.376 . S
C126 C127 1.392 . S
C126 H147 0.931 . S
C127 C126 1.392 . S
C127 C128 1.361 . S
C127 C129 1.500 . S
C128 C123 1.390 . S
C128 C127 1.361 . S
C128 H146 0.931 . S
C129 C127 1.500 . S
C129 C130 1.371 . S
C129 C131 1.365 . S
C130 C129 1.371 . S
C130 C140 1.386 . S
C130 H148 0.931 . S
C131 C129 1.365 . S
C131 C132 1.409 . S
C131 H149 0.929 . S
C132 C131 1.409 . S
C132 C133 1.380 . S
C132 H150 0.930 . S
C133 C132 1.380 . S
C133 C140 1.357 . S
C134 C125 1.511 . S
C134 C135 1.341 . S
C134 C136 1.371 . S
C135 C134 1.341 . S
C135 C139 1.394 . S
C135 H151 0.930 . S
C136 C134 1.371 . S
C136 C137 1.392 . S
C136 H152 0.931 . S
C137 C136 1.392 . S
C137 C138 1.331 . S
C137 H155 0.932 . S
C138 C137 1.331 . S
C138 C139 1.336 . S
C139 C135 1.394 . S
C139 C138 1.336 . S
C139 H154 0.929 . S
C140 C130 1.386 . S
C140 C133 1.357 . S
C140 H153 0.928 . S
H141 C117 0.931 . S
H142 C119 0.930 . S
H143 C121 0.929 . S
H144 C122 0.931 . S
H145 C124 0.930 . S
H146 C128 0.931 . S
H147 C126 0.931 . S
H148 C130 0.931 . S
H149 C131 0.929 . S
H150 C132 0.930 . S
H151 C135 0.930 . S
H152 C136 0.931 . S
H153 C140 0.928 . S
H154 C139 0.929 . S
H155 C137 0.932 . S
C156 C157 1.386 . S
C156 C158 1.397 . S
C156 H180 0.931 . S
C157 C156 1.386 . S
C157 C161 1.397 . S
C158 C156 1.397 . S
C158 C159 1.384 . S
C158 H181 0.930 . S
C159 C158 1.384 . S
C159 C160 1.377 . S
C159 C162 1.481 . S
C160 C159 1.377 . S
C160 C161 1.389 . S
C160 H182 0.929 . S
C161 C157 1.397 . S
C161 C160 1.389 . S
C161 H183 0.931 . S
C162 C159 1.481 . S
C162 C163 1.387 . S
C162 C167 1.390 . S
C163 C162 1.387 . S
C163 C164 1.401 . S
C163 H184 0.930 . S
C164 C163 1.401 . S
C164 C165 1.376 . S
C164 C173 1.511 . S
C165 C164 1.376 . S
C165 C166 1.392 . S
C165 H186 0.931 . S
C166 C165 1.392 . S
C166 C167 1.361 . S
C166 C168 1.500 . S
C167 C162 1.390 . S
C167 C166 1.361 . S
C167 H185 0.931 . S
C168 C166 1.500 . S
C168 C169 1.371 . S
C168 C170 1.365 . S
C169 C168 1.371 . S
C169 C179 1.386 . S
C169 H187 0.931 . S
C170 C168 1.365 . S
C170 C171 1.409 . S
C170 H188 0.929 . S
C171 C170 1.409 . S
C171 C172 1.380 . S
C171 H189 0.930 . S
C172 C171 1.380 . S
C172 C179 1.357 . S
C173 C164 1.511 . S
C173 C174 1.341 . S
C173 C175 1.371 . S
C174 C173 1.341 . S
C174 C178 1.394 . S
C174 H190 0.930 . S
C175 C173 1.371 . S
C175 C176 1.392 . S
C175 H191 0.931 . S
C176 C175 1.392 . S
C176 C177 1.331 . S
C176 H194 0.932 . S
C177 C176 1.331 . S
C177 C178 1.336 . S
C178 C174 1.394 . S
C178 C177 1.336 . S
C178 H193 0.929 . S
C179 C169 1.386 . S
C179 C172 1.357 . S
C179 H192 0.928 . S
H180 C156 0.931 . S
H181 C158 0.930 . S
H182 C160 0.929 . S
H183 C161 0.931 . S
H184 C163 0.930 . S
H185 C167 0.931 . S
H186 C165 0.931 . S
H187 C169 0.931 . S
H188 C170 0.929 . S
H189 C171 0.930 . S
H190 C174 0.930 . S
H191 C175 0.931 . S
H192 C179 0.928 . S
H193 C178 0.929 . S
H194 C176 0.932 . S
C195 C196 1.386 . S
C195 C197 1.397 . S
C195 H219 0.931 . S
C196 C195 1.386 . S
C196 C200 1.397 . S
C197 C195 1.397 . S
C197 C198 1.384 . S
C197 H220 0.930 . S
C198 C197 1.384 . S
C198 C199 1.377 . S
C198 C201 1.481 . S
C199 C198 1.377 . S
C199 C200 1.389 . S
C199 H221 0.929 . S
C200 C196 1.397 . S
C200 C199 1.389 . S
C200 H222 0.931 . S
C201 C198 1.481 . S
C201 C202 1.387 . S
C201 C206 1.390 . S
C202 C201 1.387 . S
C202 C203 1.401 . S
C202 H223 0.930 . S
C203 C202 1.401 . S
C203 C204 1.376 . S
C203 C212 1.511 . S
C204 C203 1.376 . S
C204 C205 1.392 . S
C204 H225 0.931 . S
C205 C204 1.392 . S
C205 C206 1.361 . S
C205 C207 1.500 . S
C206 C201 1.390 . S
C206 C205 1.361 . S
C206 H224 0.931 . S
C207 C205 1.500 . S
C207 C208 1.371 . S
C207 C209 1.365 . S
C208 C207 1.371 . S
C208 C218 1.386 . S
C208 H226 0.931 . S
C209 C207 1.365 . S
C209 C210 1.409 . S
C209 H227 0.929 . S
C210 C209 1.409 . S
C210 C211 1.380 . S
C210 H228 0.930 . S
C211 C210 1.380 . S
C211 C218 1.357 . S
C212 C203 1.511 . S
C212 C213 1.341 . S
C212 C214 1.371 . S
C213 C212 1.341 . S
C213 C217 1.394 . S
C213 H229 0.930 . S
C214 C212 1.371 . S
C214 C215 1.392 . S
C214 H230 0.931 . S
C215 C214 1.392 . S
C215 C216 1.331 . S
C215 H233 0.932 . S
C216 C215 1.331 . S
C216 C217 1.336 . S
C217 C213 1.394 . S
C217 C216 1.336 . S
C217 H232 0.929 . S
C218 C208 1.386 . S
C218 C211 1.357 . S
C218 H231 0.928 . S
H219 C195 0.931 . S
H220 C197 0.930 . S
H221 C199 0.929 . S
H222 C200 0.931 . S
H223 C202 0.930 . S
H224 C206 0.931 . S
H225 C204 0.931 . S
H226 C208 0.931 . S
H227 C209 0.929 . S
H228 C210 0.930 . S
H229 C213 0.930 . S
H230 C214 0.931 . S
H231 C218 0.928 . S
H232 C217 0.929 . S
H233 C215 0.932 . S
C234 C235 1.386 . S
C234 C236 1.397 . S
C234 H258 0.931 . S
C235 C234 1.386 . S
C235 C239 1.397 . S
C236 C234 1.397 . S
C236 C237 1.384 . S
C236 H259 0.930 . S
C237 C236 1.384 . S
C237 C238 1.377 . S
C237 C240 1.481 . S
C238 C237 1.377 . S
C238 C239 1.389 . S
C238 H260 0.929 . S
C239 C235 1.397 . S
C239 C238 1.389 . S
C239 H261 0.931 . S
C240 C237 1.481 . S
C240 C241 1.387 . S
C240 C245 1.390 . S
C241 C240 1.387 . S
C241 C242 1.401 . S
C241 H262 0.930 . S
C242 C241 1.401 . S
C242 C243 1.376 . S
C242 C251 1.511 . S
C243 C242 1.376 . S
C243 C244 1.392 . S
C243 H264 0.931 . S
C244 C243 1.392 . S
C244 C245 1.361 . S
C244 C246 1.500 . S
C245 C240 1.390 . S
C245 C244 1.361 . S
C245 H263 0.931 . S
C246 C244 1.500 . S
C246 C247 1.371 . S
C246 C248 1.365 . S
C247 C246 1.371 . S
C247 C257 1.386 . S
C247 H265 0.931 . S
C248 C246 1.365 . S
C248 C249 1.409 . S
C248 H266 0.929 . S
C249 C248 1.409 . S
C249 C250 1.380 . S
C249 H267 0.930 . S
C250 C249 1.380 . S
C250 C257 1.357 . S
C251 C242 1.511 . S
C251 C252 1.341 . S
C251 C253 1.371 . S
C252 C251 1.341 . S
C252 C256 1.394 . S
C252 H268 0.930 . S
C253 C251 1.371 . S
C253 C254 1.392 . S
C253 H269 0.931 . S
C254 C253 1.392 . S
C254 C255 1.331 . S
C254 H272 0.932 . S
C255 C254 1.331 . S
C255 C256 1.336 . S
C256 C252 1.394 . S
C256 C255 1.336 . S
C256 H271 0.929 . S
C257 C247 1.386 . S
C257 C250 1.357 . S
C257 H270 0.928 . S
H258 C234 0.931 . S
H259 C236 0.930 . S
H260 C238 0.929 . S
H261 C239 0.931 . S
H262 C241 0.930 . S
H263 C245 0.931 . S
H264 C243 0.931 . S
H265 C247 0.931 . S
H266 C248 0.929 . S
H267 C249 0.930 . S
H268 C252 0.930 . S
H269 C253 0.931 . S
H270 C257 0.928 . S
H271 C256 0.929 . S
H272 C254 0.932 . S
C273 C274 1.386 . S
C273 C275 1.397 . S
C273 H297 0.931 . S
C274 C273 1.386 . S
C274 C278 1.397 . S
C275 C273 1.397 . S
C275 C276 1.384 . S
C275 H298 0.930 . S
C276 C275 1.384 . S
C276 C277 1.377 . S
C276 C279 1.481 . S
C277 C276 1.377 . S
C277 C278 1.389 . S
C277 H299 0.929 . S
C278 C274 1.397 . S
C278 C277 1.389 . S
C278 H300 0.931 . S
C279 C276 1.481 . S
C279 C280 1.387 . S
C279 C284 1.390 . S
C280 C279 1.387 . S
C280 C281 1.401 . S
C280 H301 0.930 . S
C281 C280 1.401 . S
C281 C282 1.376 . S
C281 C290 1.511 . S
C282 C281 1.376 . S
C282 C283 1.392 . S
C282 H303 0.931 . S
C283 C282 1.392 . S
C283 C284 1.361 . S
C283 C285 1.500 . S
C284 C279 1.390 . S
C284 C283 1.361 . S
C284 H302 0.931 . S
C285 C283 1.500 . S
C285 C286 1.371 . S
C285 C287 1.365 . S
C286 C285 1.371 . S
C286 C296 1.386 . S
C286 H304 0.931 . S
C287 C285 1.365 . S
C287 C288 1.409 . S
C287 H305 0.929 . S
C288 C287 1.409 . S
C288 C289 1.380 . S
C288 H306 0.930 . S
C289 C288 1.380 . S
C289 C296 1.357 . S
C290 C281 1.511 . S
C290 C291 1.341 . S
C290 C292 1.371 . S
C291 C290 1.341 . S
C291 C295 1.394 . S
C291 H307 0.930 . S
C292 C290 1.371 . S
C292 C293 1.392 . S
C292 H308 0.931 . S
C293 C292 1.392 . S
C293 C294 1.331 . S
C293 H311 0.932 . S
C294 C293 1.331 . S
C294 C295 1.336 . S
C295 C291 1.394 . S
C295 C294 1.336 . S
C295 H310 0.929 . S
C296 C286 1.386 . S
C296 C289 1.357 . S
C296 H309 0.928 . S
H297 C273 0.931 . S
H298 C275 0.930 . S
H299 C277 0.929 . S
H300 C278 0.931 . S
H301 C280 0.930 . S
H302 C284 0.931 . S
H303 C282 0.931 . S
H304 C286 0.931 . S
H305 C287 0.929 . S
H306 C288 0.930 . S
H307 C291 0.930 . S
H308 C292 0.931 . S
H309 C296 0.928 . S
H310 C295 0.929 . S
H311 C293 0.932 . S
Zn312 O318 1.920 . S
Zn312 O324 1.898 . S
Zn312 O327 1.905 . S
Zn313 O321 1.905 . S
Zn313 O322 1.898 . S
Zn313 O330 1.920 . S
Zn314 O317 2.080 . S
Zn314 O320 2.114 . S
Zn314 O323 2.120 . S
Zn314 O325 2.120 . S
Zn314 O326 2.114 . S
Zn314 O329 2.080 . S
C315 O320 1.166 . S
C315 O321 1.182 . S
C316 O322 1.167 . S
C316 O323 1.299 . S
O317 Zn314 2.080 . S
O317 C331 1.305 . S
O318 Zn312 1.920 . S
O318 C331 1.234 . S
C319 O324 1.167 . S
C319 O325 1.299 . S
O320 Zn314 2.114 . S
O320 C315 1.166 . S
O321 Zn313 1.905 . S
O321 C315 1.182 . S
O322 Zn313 1.898 . S
O322 C316 1.167 . S
O323 Zn314 2.120 . S
O323 C316 1.299 . S
O324 Zn312 1.898 . S
O324 C319 1.167 . S
O325 Zn314 2.120 . S
O325 C319 1.299 . S
O326 Zn314 2.114 . S
O326 C328 1.166 . S
O327 Zn312 1.905 . S
O327 C328 1.182 . S
C328 O326 1.166 . S
C328 O327 1.182 . S
O329 Zn314 2.080 . S
O329 C332 1.305 . S
O330 Zn313 1.920 . S
O330 C332 1.234 . S
C331 O317 1.305 . S
C331 O318 1.234 . S
C332 O329 1.305 . S
C332 O330 1.234 . S
Zn333 O339 1.920 . S
Zn333 O345 1.898 . S
Zn333 O348 1.905 . S
Zn334 O342 1.905 . S
Zn334 O343 1.898 . S
Zn334 O351 1.920 . S
Zn335 O338 2.080 . S
Zn335 O341 2.114 . S
Zn335 O344 2.120 . S
Zn335 O346 2.120 . S
Zn335 O347 2.114 . S
Zn335 O350 2.080 . S
C336 O341 1.166 . S
C336 O342 1.182 . S
C337 O343 1.167 . S
C337 O344 1.299 . S
O338 Zn335 2.080 . S
O338 C352 1.305 . S
O339 Zn333 1.920 . S
O339 C352 1.234 . S
C340 O345 1.167 . S
C340 O346 1.299 . S
O341 Zn335 2.114 . S
O341 C336 1.166 . S
O342 Zn334 1.905 . S
O342 C336 1.182 . S
O343 Zn334 1.898 . S
O343 C337 1.167 . S
O344 Zn335 2.120 . S
O344 C337 1.299 . S
O345 Zn333 1.898 . S
O345 C340 1.167 . S
O346 Zn335 2.120 . S
O346 C340 1.299 . S
O347 Zn335 2.114 . S
O347 C349 1.166 . S
O348 Zn333 1.905 . S
O348 C349 1.182 . S
C349 O347 1.166 . S
C349 O348 1.182 . S
O350 Zn335 2.080 . S
O350 C353 1.305 . S
O351 Zn334 1.920 . S
O351 C353 1.234 . S
C352 O338 1.305 . S
C352 O339 1.234 . S
C353 O350 1.305 . S
C353 O351 1.234 . S
Zn354 O360 1.920 . S
Zn354 O366 1.898 . S
Zn354 O369 1.905 . S
Zn355 O363 1.905 . S
Zn355 O364 1.898 . S
Zn355 O372 1.920 . S
Zn356 O359 2.080 . S
Zn356 O362 2.114 . S
Zn356 O365 2.120 . S
Zn356 O367 2.120 . S
Zn356 O368 2.114 . S
Zn356 O371 2.080 . S
C357 O362 1.166 . S
C357 O363 1.182 . S
C358 O364 1.167 . S
C358 O365 1.299 . S
O359 Zn356 2.080 . S
O359 C373 1.305 . S
O360 Zn354 1.920 . S
O360 C373 1.234 . S
C361 O366 1.167 . S
C361 O367 1.299 . S
O362 Zn356 2.114 . S
O362 C357 1.166 . S
O363 Zn355 1.905 . S
O363 C357 1.182 . S
O364 Zn355 1.898 . S
O364 C358 1.167 . S
O365 Zn356 2.120 . S
O365 C358 1.299 . S
O366 Zn354 1.898 . S
O366 C361 1.167 . S
O367 Zn356 2.120 . S
O367 C361 1.299 . S
O368 Zn356 2.114 . S
O368 C370 1.166 . S
O369 Zn354 1.905 . S
O369 C370 1.182 . S
C370 O368 1.166 . S
C370 O369 1.182 . S
O371 Zn356 2.080 . S
O371 C374 1.305 . S
O372 Zn355 1.920 . S
O372 C374 1.234 . S
C373 O359 1.305 . S
C373 O360 1.234 . S
C374 O371 1.305 . S
C374 O372 1.234 . S
Zn375 O381 1.920 . S
Zn375 O387 1.898 . S
Zn375 O390 1.905 . S
Zn376 O384 1.905 . S
Zn376 O385 1.898 . S
Zn376 O393 1.920 . S
Zn377 O380 2.080 . S
Zn377 O383 2.114 . S
Zn377 O386 2.120 . S
Zn377 O388 2.120 . S
Zn377 O389 2.114 . S
Zn377 O392 2.080 . S
C378 O383 1.166 . S
C378 O384 1.182 . S
C379 O385 1.167 . S
C379 O386 1.299 . S
O380 Zn377 2.080 . S
O380 C394 1.305 . S
O381 Zn375 1.920 . S
O381 C394 1.234 . S
C382 O387 1.167 . S
C382 O388 1.299 . S
O383 Zn377 2.114 . S
O383 C378 1.166 . S
O384 Zn376 1.905 . S
O384 C378 1.182 . S
O385 Zn376 1.898 . S
O385 C379 1.167 . S
O386 Zn377 2.120 . S
O386 C379 1.299 . S
O387 Zn375 1.898 . S
O387 C382 1.167 . S
O388 Zn377 2.120 . S
O388 C382 1.299 . S
O389 Zn377 2.114 . S
O389 C391 1.166 . S
O390 Zn375 1.905 . S
O390 C391 1.182 . S
C391 O389 1.166 . S
C391 O390 1.182 . S
O392 Zn377 2.080 . S
O392 C395 1.305 . S
O393 Zn376 1.920 . S
O393 C395 1.234 . S
C394 O380 1.305 . S
C394 O381 1.234 . S
C395 O392 1.305 . S
C395 O393 1.234 . S
H396 C404 0.929 . S
H397 C406 0.930 . S
H398 C408 0.930 . S
H399 C411 0.929 . S
H400 C414 0.930 . S
H401 C416 0.960 . S
H402 C416 0.960 . S
H403 C416 0.960 . S
C404 H396 0.929 . S
C404 C405 1.377 . S
C404 C406 1.384 . S
C405 C404 1.377 . S
C405 C411 1.390 . S
C406 H397 0.930 . S
C406 C404 1.384 . S
C406 C407 1.372 . S
C407 C406 1.372 . S
C407 C408 1.400 . S
C407 C412 1.490 . S
C408 H398 0.930 . S
C408 C407 1.400 . S
C408 C411 1.386 . S
H409 C425 0.930 . S
H410 C426 0.931 . S
C411 H399 0.929 . S
C411 C405 1.390 . S
C411 C408 1.386 . S
C412 C407 1.490 . S
C412 C414 1.395 . S
C412 C415 1.403 . S
H413 C419 0.930 . S
C414 H400 0.930 . S
C414 C412 1.395 . S
C414 C417 1.403 . S
C415 C412 1.403 . S
C415 C416 1.524 . S
C415 C419 1.400 . S
C416 H401 0.960 . S
C416 H402 0.960 . S
C416 H403 0.960 . S
C416 C415 1.524 . S
C417 C414 1.403 . S
C417 C418 1.392 . S
C417 C421 1.495 . S
C418 C417 1.392 . S
C418 C419 1.385 . S
C418 C420 1.478 . S
C419 H413 0.930 . S
C419 C415 1.400 . S
C419 C418 1.385 . S
C420 C418 1.478 . S
C420 C422 1.381 . S
C420 C426 1.383 . S
C421 C417 1.495 . S
C421 H427 0.959 . S
C421 H428 0.961 . S
C421 H429 0.960 . S
C422 C420 1.381 . S
C422 C423 1.394 . S
C422 H430 0.930 . S
C423 C422 1.394 . S
C423 C424 1.383 . S
C423 H431 0.929 . S
C424 C423 1.383 . S
C424 C425 1.377 . S
C425 H409 0.930 . S
C425 C424 1.377 . S
C425 C426 1.379 . S
C426 H410 0.931 . S
C426 C420 1.383 . S
C426 C425 1.379 . S
H427 C421 0.959 . S
H428 C421 0.961 . S
H429 C421 0.960 . S
H430 C422 0.930 . S
H431 C423 0.929 . S
H432 C440 0.929 . S
H433 C442 0.930 . S
H434 C444 0.930 . S
H435 C447 0.929 . S
H436 C450 0.930 . S
H437 C452 0.960 . S
H438 C452 0.960 . S
H439 C452 0.960 . S
C440 H432 0.929 . S
C440 C441 1.377 . S
C440 C442 1.384 . S
C441 C440 1.377 . S
C441 C447 1.390 . S
C442 H433 0.930 . S
C442 C440 1.384 . S
C442 C443 1.372 . S
C443 C442 1.372 . S
C443 C444 1.400 . S
C443 C448 1.490 . S
C444 H434 0.930 . S
C444 C443 1.400 . S
C444 C447 1.386 . S
H445 C461 0.930 . S
H446 C462 0.931 . S
C447 H435 0.929 . S
C447 C441 1.390 . S
C447 C444 1.386 . S
C448 C443 1.490 . S
C448 C450 1.395 . S
C448 C451 1.403 . S
H449 C455 0.930 . S
C450 H436 0.930 . S
C450 C448 1.395 . S
C450 C453 1.403 . S
C451 C448 1.403 . S
C451 C452 1.524 . S
C451 C455 1.400 . S
C452 H437 0.960 . S
C452 H438 0.960 . S
C452 H439 0.960 . S
C452 C451 1.524 . S
C453 C450 1.403 . S
C453 C454 1.392 . S
C453 C457 1.495 . S
C454 C453 1.392 . S
C454 C455 1.385 . S
C454 C456 1.478 . S
C455 H449 0.930 . S
C455 C451 1.400 . S
C455 C454 1.385 . S
C456 C454 1.478 . S
C456 C458 1.381 . S
C456 C462 1.383 . S
C457 C453 1.495 . S
C457 H463 0.959 . S
C457 H464 0.961 . S
C457 H465 0.960 . S
C458 C456 1.381 . S
C458 C459 1.394 . S
C458 H466 0.930 . S
C459 C458 1.394 . S
C459 C460 1.383 . S
C459 H467 0.929 . S
C460 C459 1.383 . S
C460 C461 1.377 . S
C461 H445 0.930 . S
C461 C460 1.377 . S
C461 C462 1.379 . S
C462 H446 0.931 . S
C462 C456 1.383 . S
C462 C461 1.379 . S
H463 C457 0.959 . S
H464 C457 0.961 . S
H465 C457 0.960 . S
H466 C458 0.930 . S
H467 C459 0.929 . S
H468 C476 0.929 . S
H469 C478 0.930 . S
H470 C480 0.930 . S
H471 C483 0.929 . S
H472 C486 0.930 . S
H473 C488 0.960 . S
H474 C488 0.960 . S
H475 C488 0.960 . S
C476 H468 0.929 . S
C476 C477 1.377 . S
C476 C478 1.384 . S
C477 C476 1.377 . S
C477 C483 1.390 . S
C478 H469 0.930 . S
C478 C476 1.384 . S
C478 C479 1.372 . S
C479 C478 1.372 . S
C479 C480 1.400 . S
C479 C484 1.490 . S
C480 H470 0.930 . S
C480 C479 1.400 . S
C480 C483 1.386 . S
H481 C497 0.930 . S
H482 C498 0.931 . S
C483 H471 0.929 . S
C483 C477 1.390 . S
C483 C480 1.386 . S
C484 C479 1.490 . S
C484 C486 1.395 . S
C484 C487 1.403 . S
H485 C491 0.930 . S
C486 H472 0.930 . S
C486 C484 1.395 . S
C486 C489 1.403 . S
C487 C484 1.403 . S
C487 C488 1.524 . S
C487 C491 1.400 . S
C488 H473 0.960 . S
C488 H474 0.960 . S
C488 H475 0.960 . S
C488 C487 1.524 . S
C489 C486 1.403 . S
C489 C490 1.392 . S
C489 C493 1.495 . S
C490 C489 1.392 . S
C490 C491 1.385 . S
C490 C492 1.478 . S
C491 H485 0.930 . S
C491 C487 1.400 . S
C491 C490 1.385 . S
C492 C490 1.478 . S
C492 C494 1.381 . S
C492 C498 1.383 . S
C493 C489 1.495 . S
C493 H499 0.959 . S
C493 H500 0.961 . S
C493 H501 0.960 . S
C494 C492 1.381 . S
C494 C495 1.394 . S
C494 H502 0.930 . S
C495 C494 1.394 . S
C495 C496 1.383 . S
C495 H503 0.929 . S
C496 C495 1.383 . S
C496 C497 1.377 . S
C497 H481 0.930 . S
C497 C496 1.377 . S
C497 C498 1.379 . S
C498 H482 0.931 . S
C498 C492 1.383 . S
C498 C497 1.379 . S
H499 C493 0.959 . S
H500 C493 0.961 . S
H501 C493 0.960 . S
H502 C494 0.930 . S
H503 C495 0.929 . S
H504 C512 0.929 . S
H505 C514 0.930 . S
H506 C516 0.930 . S
H507 C519 0.929 . S
H508 C522 0.930 . S
H509 C524 0.960 . S
H510 C524 0.960 . S
H511 C524 0.960 . S
C512 H504 0.929 . S
C512 C513 1.377 . S
C512 C514 1.384 . S
C513 C512 1.377 . S
C513 C519 1.390 . S
C514 H505 0.930 . S
C514 C512 1.384 . S
C514 C515 1.372 . S
C515 C514 1.372 . S
C515 C516 1.400 . S
C515 C520 1.490 . S
C516 H506 0.930 . S
C516 C515 1.400 . S
C516 C519 1.386 . S
H517 C533 0.930 . S
H518 C534 0.931 . S
C519 H507 0.929 . S
C519 C513 1.390 . S
C519 C516 1.386 . S
C520 C515 1.490 . S
C520 C522 1.395 . S
C520 C523 1.403 . S
H521 C527 0.930 . S
C522 H508 0.930 . S
C522 C520 1.395 . S
C522 C525 1.403 . S
C523 C520 1.403 . S
C523 C524 1.524 . S
C523 C527 1.400 . S
C524 H509 0.960 . S
C524 H510 0.960 . S
C524 H511 0.960 . S
C524 C523 1.524 . S
C525 C522 1.403 . S
C525 C526 1.392 . S
C525 C529 1.495 . S
C526 C525 1.392 . S
C526 C527 1.385 . S
C526 C528 1.478 . S
C527 H521 0.930 . S
C527 C523 1.400 . S
C527 C526 1.385 . S
C528 C526 1.478 . S
C528 C530 1.381 . S
C528 C534 1.383 . S
C529 C525 1.495 . S
C529 H535 0.959 . S
C529 H536 0.961 . S
C529 H537 0.960 . S
C530 C528 1.381 . S
C530 C531 1.394 1_655 S
C530 H538 0.930 . S
C531 C530 1.394 1_455 S
C531 C532 1.383 . S
C531 H539 0.929 . S
C532 C531 1.383 . S
C532 C533 1.377 . S
C533 H517 0.930 . S
C533 C532 1.377 . S
C533 C534 1.379 1_455 S
C534 H518 0.931 . S
C534 C528 1.383 . S
C534 C533 1.379 1_655 S
H535 C529 0.959 . S
H536 C529 0.961 . S
H537 C529 0.960 . S
H538 C530 0.930 . S
H539 C531 0.929 . S
H540 C548 0.929 . S
H541 C550 0.930 . S
H542 C552 0.930 . S
H543 C555 0.929 . S
H544 C558 0.930 . S
H545 C560 0.960 . S
H546 C560 0.960 . S
H547 C560 0.960 . S
C548 H540 0.929 . S
C548 C549 1.377 . S
C548 C550 1.384 . S
C549 C548 1.377 . S
C549 C555 1.390 . S
C550 H541 0.930 . S
C550 C548 1.384 . S
C550 C551 1.372 . S
C551 C550 1.372 . S
C551 C552 1.400 . S
C551 C556 1.490 . S
C552 H542 0.930 . S
C552 C551 1.400 . S
C552 C555 1.386 . S
H553 C569 0.930 . S
H554 C570 0.931 . S
C555 H543 0.929 . S
C555 C549 1.390 . S
C555 C552 1.386 . S
C556 C551 1.490 . S
C556 C558 1.395 . S
C556 C559 1.403 . S
H557 C563 0.930 . S
C558 H544 0.930 . S
C558 C556 1.395 . S
C558 C561 1.403 . S
C559 C556 1.403 . S
C559 C560 1.524 . S
C559 C563 1.400 . S
C560 H545 0.960 . S
C560 H546 0.960 . S
C560 H547 0.960 . S
C560 C559 1.524 . S
C561 C558 1.403 . S
C561 C562 1.392 . S
C561 C565 1.495 . S
C562 C561 1.392 . S
C562 C563 1.385 . S
C562 C564 1.478 . S
C563 H557 0.930 . S
C563 C559 1.400 . S
C563 C562 1.385 . S
C564 C562 1.478 . S
C564 C566 1.381 . S
C564 C570 1.383 . S
C565 C561 1.495 . S
C565 H571 0.959 . S
C565 H572 0.961 . S
C565 H573 0.960 . S
C566 C564 1.381 . S
C566 C567 1.394 . S
C566 H574 0.930 . S
C567 C566 1.394 . S
C567 C568 1.383 . S
C567 H575 0.929 . S
C568 C567 1.383 . S
C568 C569 1.377 . S
C569 H553 0.930 . S
C569 C568 1.377 . S
C569 C570 1.379 . S
C570 H554 0.931 . S
C570 C564 1.383 . S
C570 C569 1.379 . S
H571 C565 0.959 . S
H572 C565 0.961 . S
H573 C565 0.960 . S
H574 C566 0.930 . S
H575 C567 0.929 . S
H576 C584 0.929 . S
H577 C586 0.930 . S
H578 C588 0.930 . S
H579 C591 0.929 . S
H580 C594 0.930 . S
H581 C596 0.960 . S
H582 C596 0.960 . S
H583 C596 0.960 . S
C584 H576 0.929 . S
C584 C585 1.377 . S
C584 C586 1.384 . S
C585 C584 1.377 . S
C585 C591 1.390 . S
C586 H577 0.930 . S
C586 C584 1.384 . S
C586 C587 1.372 . S
C587 C586 1.372 . S
C587 C588 1.400 . S
C587 C592 1.490 . S
C588 H578 0.930 . S
C588 C587 1.400 . S
C588 C591 1.386 . S
H589 C605 0.930 . S
H590 C606 0.931 . S
C591 H579 0.929 . S
C591 C585 1.390 . S
C591 C588 1.386 . S
C592 C587 1.490 . S
C592 C594 1.395 . S
C592 C595 1.403 . S
H593 C599 0.930 . S
C594 H580 0.930 . S
C594 C592 1.395 . S
C594 C597 1.403 . S
C595 C592 1.403 . S
C595 C596 1.524 . S
C595 C599 1.400 . S
C596 H581 0.960 . S
C596 H582 0.960 . S
C596 H583 0.960 . S
C596 C595 1.524 . S
C597 C594 1.403 . S
C597 C598 1.392 . S
C597 C601 1.495 . S
C598 C597 1.392 . S
C598 C599 1.385 . S
C598 C600 1.478 . S
C599 H593 0.930 . S
C599 C595 1.400 . S
C599 C598 1.385 . S
C600 C598 1.478 . S
C600 C602 1.381 . S
C600 C606 1.383 . S
C601 C597 1.495 . S
C601 H607 0.959 . S
C601 H608 0.961 . S
C601 H609 0.960 . S
C602 C600 1.381 . S
C602 C603 1.394 1_655 S
C602 H610 0.930 . S
C603 C602 1.394 1_455 S
C603 C604 1.383 . S
C603 H611 0.929 . S
C604 C603 1.383 . S
C604 C605 1.377 . S
C605 H589 0.930 . S
C605 C604 1.377 . S
C605 C606 1.379 1_455 S
C606 H590 0.931 . S
C606 C600 1.383 . S
C606 C605 1.379 1_655 S
H607 C601 0.959 . S
H608 C601 0.961 . S
H609 C601 0.960 . S
H610 C602 0.930 . S
H611 C603 0.929 . S
H612 C620 0.929 . S
H613 C622 0.930 . S
H614 C624 0.930 . S
H615 C627 0.929 . S
H616 C630 0.930 . S
H617 C632 0.960 . S
H618 C632 0.960 . S
H619 C632 0.960 . S
C620 H612 0.929 . S
C620 C621 1.377 . S
C620 C622 1.384 . S
C621 C620 1.377 . S
C621 C627 1.390 . S
C622 H613 0.930 . S
C622 C620 1.384 . S
C622 C623 1.372 . S
C623 C622 1.372 . S
C623 C624 1.400 . S
C623 C628 1.490 . S
C624 H614 0.930 . S
C624 C623 1.400 . S
C624 C627 1.386 . S
H625 C641 0.930 . S
H626 C642 0.931 . S
C627 H615 0.929 . S
C627 C621 1.390 . S
C627 C624 1.386 . S
C628 C623 1.490 . S
C628 C630 1.395 . S
C628 C631 1.403 . S
H629 C635 0.930 . S
C630 H616 0.930 . S
C630 C628 1.395 . S
C630 C633 1.403 . S
C631 C628 1.403 . S
C631 C632 1.524 . S
C631 C635 1.400 . S
C632 H617 0.960 . S
C632 H618 0.960 . S
C632 H619 0.960 . S
C632 C631 1.524 . S
C633 C630 1.403 . S
C633 C634 1.392 . S
C633 C637 1.495 . S
C634 C633 1.392 . S
C634 C635 1.385 . S
C634 C636 1.478 . S
C635 H629 0.930 . S
C635 C631 1.400 . S
C635 C634 1.385 . S
C636 C634 1.478 . S
C636 C638 1.381 . S
C636 C642 1.383 . S
C637 C633 1.495 . S
C637 H643 0.959 . S
C637 H644 0.961 . S
C637 H645 0.960 . S
C638 C636 1.381 . S
C638 C639 1.394 . S
C638 H646 0.930 . S
C639 C638 1.394 . S
C639 C640 1.383 . S
C639 H647 0.929 . S
C640 C639 1.383 . S
C640 C641 1.377 . S
C641 H625 0.930 . S
C641 C640 1.377 . S
C641 C642 1.379 . S
C642 H626 0.931 . S
C642 C636 1.383 . S
C642 C641 1.379 . S
H643 C637 0.959 . S
H644 C637 0.961 . S
H645 C637 0.960 . S
H646 C638 0.930 . S
H647 C639 0.929 . S
H648 C656 0.929 . S
H649 C658 0.930 . S
H650 C660 0.930 . S
H651 C663 0.929 . S
H652 C666 0.930 . S
H653 C668 0.960 . S
H654 C668 0.960 . S
H655 C668 0.960 . S
C656 H648 0.929 . S
C656 C657 1.377 . S
C656 C658 1.384 . S
C657 C656 1.377 . S
C657 C663 1.390 . S
C658 H649 0.930 . S
C658 C656 1.384 . S
C658 C659 1.372 . S
C659 C658 1.372 . S
C659 C660 1.400 . S
C659 C664 1.490 . S
C660 H650 0.930 . S
C660 C659 1.400 . S
C660 C663 1.386 . S
H661 C677 0.930 . S
H662 C678 0.931 . S
C663 H651 0.929 . S
C663 C657 1.390 . S
C663 C660 1.386 . S
C664 C659 1.490 . S
C664 C666 1.395 . S
C664 C667 1.403 . S
H665 C671 0.930 . S
C666 H652 0.930 . S
C666 C664 1.395 . S
C666 C669 1.403 . S
C667 C664 1.403 . S
C667 C668 1.524 . S
C667 C671 1.400 . S
C668 H653 0.960 . S
C668 H654 0.960 . S
C668 H655 0.960 . S
C668 C667 1.524 . S
C669 C666 1.403 . S
C669 C670 1.392 . S
C669 C673 1.495 . S
C670 C669 1.392 . S
C670 C671 1.385 . S
C670 C672 1.478 . S
C671 H665 0.930 . S
C671 C667 1.400 . S
C671 C670 1.385 . S
C672 C670 1.478 . S
C672 C674 1.381 . S
C672 C678 1.383 . S
C673 C669 1.495 . S
C673 H679 0.959 . S
C673 H680 0.961 . S
C673 H681 0.960 . S
C674 C672 1.381 . S
C674 C675 1.394 . S
C674 H682 0.930 . S
C675 C674 1.394 . S
C675 C676 1.383 . S
C675 H683 0.929 . S
C676 C675 1.383 . S
C676 C677 1.377 . S
C677 H661 0.930 . S
C677 C676 1.377 . S
C677 C678 1.379 . S
C678 H662 0.931 . S
C678 C672 1.383 . S
C678 C677 1.379 . S
H679 C673 0.959 . S
H680 C673 0.961 . S
H681 C673 0.960 . S
H682 C674 0.930 . S
H683 C675 0.929 . S
H684 C692 0.929 . S
H685 C694 0.930 . S
H686 C696 0.930 . S
H687 C699 0.929 . S
H688 C702 0.930 . S
H689 C704 0.960 . S
H690 C704 0.960 . S
H691 C704 0.960 . S
C692 H684 0.929 . S
C692 C693 1.377 . S
C692 C694 1.384 . S
C693 C692 1.377 . S
C693 C699 1.390 . S
C694 H685 0.930 . S
C694 C692 1.384 . S
C694 C695 1.372 . S
C695 C694 1.372 . S
C695 C696 1.400 . S
C695 C700 1.490 . S
C696 H686 0.930 . S
C696 C695 1.400 . S
C696 C699 1.386 . S
H697 C713 0.930 . S
H698 C714 0.931 . S
C699 H687 0.929 . S
C699 C693 1.390 . S
C699 C696 1.386 . S
C700 C695 1.490 . S
C700 C702 1.395 . S
C700 C703 1.403 . S
H701 C707 0.930 . S
C702 H688 0.930 . S
C702 C700 1.395 . S
C702 C705 1.403 . S
C703 C700 1.403 . S
C703 C704 1.524 . S
C703 C707 1.400 . S
C704 H689 0.960 . S
C704 H690 0.960 . S
C704 H691 0.960 . S
C704 C703 1.524 . S
C705 C702 1.403 . S
C705 C706 1.392 . S
C705 C709 1.495 . S
C706 C705 1.392 . S
C706 C707 1.385 . S
C706 C708 1.478 . S
C707 H701 0.930 . S
C707 C703 1.400 . S
C707 C706 1.385 . S
C708 C706 1.478 . S
C708 C710 1.381 . S
C708 C714 1.383 . S
C709 C705 1.495 . S
C709 H715 0.959 . S
C709 H716 0.961 . S
C709 H717 0.960 . S
C710 C708 1.381 . S
C710 C711 1.394 . S
C710 H718 0.930 . S
C711 C710 1.394 . S
C711 C712 1.383 . S
C711 H719 0.929 . S
C712 C711 1.383 . S
C712 C713 1.377 . S
C713 H697 0.930 . S
C713 C712 1.377 . S
C713 C714 1.379 . S
C714 H698 0.931 . S
C714 C708 1.383 . S
C714 C713 1.379 . S
H715 C709 0.959 . S
H716 C709 0.961 . S
H717 C709 0.960 . S
H718 C710 0.930 . S
H719 C711 0.929 . S
H720 C728 0.929 . S
H721 C730 0.930 . S
H722 C732 0.930 . S
H723 C735 0.929 . S
H724 C738 0.930 . S
H725 C740 0.960 . S
H726 C740 0.960 . S
H727 C740 0.960 . S
C728 H720 0.929 . S
C728 C729 1.377 . S
C728 C730 1.384 . S
C729 C728 1.377 . S
C729 C735 1.390 . S
C730 H721 0.930 . S
C730 C728 1.384 . S
C730 C731 1.372 . S
C731 C730 1.372 . S
C731 C732 1.400 . S
C731 C736 1.490 . S
C732 H722 0.930 . S
C732 C731 1.400 . S
C732 C735 1.386 . S
H733 C749 0.930 . S
H734 C750 0.931 . S
C735 H723 0.929 . S
C735 C729 1.390 . S
C735 C732 1.386 . S
C736 C731 1.490 . S
C736 C738 1.395 . S
C736 C739 1.403 . S
H737 C743 0.930 . S
C738 H724 0.930 . S
C738 C736 1.395 . S
C738 C741 1.403 . S
C739 C736 1.403 . S
C739 C740 1.524 . S
C739 C743 1.400 . S
C740 H725 0.960 . S
C740 H726 0.960 . S
C740 H727 0.960 . S
C740 C739 1.524 . S
C741 C738 1.403 . S
C741 C742 1.392 . S
C741 C745 1.495 . S
C742 C741 1.392 . S
C742 C743 1.385 . S
C742 C744 1.478 . S
C743 H737 0.930 . S
C743 C739 1.400 . S
C743 C742 1.385 . S
C744 C742 1.478 . S
C744 C746 1.381 . S
C744 C750 1.383 . S
C745 C741 1.495 . S
C745 H751 0.959 . S
C745 H752 0.961 . S
C745 H753 0.960 . S
C746 C744 1.381 . S
C746 C747 1.394 . S
C746 H754 0.930 . S
C747 C746 1.394 . S
C747 C748 1.383 . S
C747 H755 0.929 . S
C748 C747 1.383 . S
C748 C749 1.377 . S
C749 H733 0.930 . S
C749 C748 1.377 . S
C749 C750 1.379 . S
C750 H734 0.931 . S
C750 C744 1.383 . S
C750 C749 1.379 . S
H751 C745 0.959 . S
H752 C745 0.961 . S
H753 C745 0.960 . S
H754 C746 0.930 . S
H755 C747 0.929 . S
H756 C764 0.929 . S
H757 C766 0.930 . S
H758 C768 0.930 . S
H759 C771 0.929 . S
H760 C774 0.930 . S
H761 C776 0.960 . S
H762 C776 0.960 . S
H763 C776 0.960 . S
C764 H756 0.929 . S
C764 C765 1.377 . S
C764 C766 1.384 . S
C765 C764 1.377 . S
C765 C771 1.390 . S
C766 H757 0.930 . S
C766 C764 1.384 . S
C766 C767 1.372 . S
C767 C766 1.372 . S
C767 C768 1.400 . S
C767 C772 1.490 . S
C768 H758 0.930 . S
C768 C767 1.400 . S
C768 C771 1.386 . S
H769 C785 0.930 . S
H770 C786 0.931 . S
C771 H759 0.929 . S
C771 C765 1.390 . S
C771 C768 1.386 . S
C772 C767 1.490 . S
C772 C774 1.395 . S
C772 C775 1.403 . S
H773 C779 0.930 . S
C774 H760 0.930 . S
C774 C772 1.395 . S
C774 C777 1.403 . S
C775 C772 1.403 . S
C775 C776 1.524 . S
C775 C779 1.400 . S
C776 H761 0.960 . S
C776 H762 0.960 . S
C776 H763 0.960 . S
C776 C775 1.524 . S
C777 C774 1.403 . S
C777 C778 1.392 . S
C777 C781 1.495 . S
C778 C777 1.392 . S
C778 C779 1.385 . S
C778 C780 1.478 . S
C779 H773 0.930 . S
C779 C775 1.400 . S
C779 C778 1.385 . S
C780 C778 1.478 . S
C780 C782 1.381 . S
C780 C786 1.383 . S
C781 C777 1.495 . S
C781 H787 0.959 . S
C781 H788 0.961 . S
C781 H789 0.960 . S
C782 C780 1.381 . S
C782 C783 1.394 . S
C782 H790 0.930 . S
C783 C782 1.394 . S
C783 C784 1.383 . S
C783 H791 0.929 . S
C784 C783 1.383 . S
C784 C785 1.377 . S
C785 H769 0.930 . S
C785 C784 1.377 . S
C785 C786 1.379 . S
C786 H770 0.931 . S
C786 C780 1.383 . S
C786 C785 1.379 . S
H787 C781 0.959 . S
H788 C781 0.961 . S
H789 C781 0.960 . S
H790 C782 0.930 . S
H791 C783 0.929 . S
H792 C800 0.929 . S
H793 C802 0.930 . S
H794 C804 0.930 . S
H795 C807 0.929 . S
H796 C810 0.930 . S
H797 C812 0.960 . S
H798 C812 0.960 . S
H799 C812 0.960 . S
C800 H792 0.929 . S
C800 C801 1.377 . S
C800 C802 1.384 . S
C801 C800 1.377 . S
C801 C807 1.390 . S
C802 H793 0.930 . S
C802 C800 1.384 . S
C802 C803 1.372 . S
C803 C802 1.372 . S
C803 C804 1.400 . S
C803 C808 1.490 . S
C804 H794 0.930 . S
C804 C803 1.400 . S
C804 C807 1.386 . S
H805 C821 0.930 . S
H806 C822 0.931 . S
C807 H795 0.929 . S
C807 C801 1.390 . S
C807 C804 1.386 . S
C808 C803 1.490 . S
C808 C810 1.395 . S
C808 C811 1.403 . S
H809 C815 0.930 . S
C810 H796 0.930 . S
C810 C808 1.395 . S
C810 C813 1.403 . S
C811 C808 1.403 . S
C811 C812 1.524 . S
C811 C815 1.400 . S
C812 H797 0.960 . S
C812 H798 0.960 . S
C812 H799 0.960 . S
C812 C811 1.524 . S
C813 C810 1.403 . S
C813 C814 1.392 . S
C813 C817 1.495 . S
C814 C813 1.392 . S
C814 C815 1.385 . S
C814 C816 1.478 . S
C815 H809 0.930 . S
C815 C811 1.400 . S
C815 C814 1.385 . S
C816 C814 1.478 . S
C816 C818 1.381 . S
C816 C822 1.383 . S
C817 C813 1.495 . S
C817 H823 0.959 . S
C817 H824 0.961 . S
C817 H825 0.960 . S
C818 C816 1.381 . S
C818 C819 1.394 . S
C818 H826 0.930 . S
C819 C818 1.394 . S
C819 C820 1.383 . S
C819 H827 0.929 . S
C820 C819 1.383 . S
C820 C821 1.377 . S
C821 H805 0.930 . S
C821 C820 1.377 . S
C821 C822 1.379 . S
C822 H806 0.931 . S
C822 C816 1.383 . S
C822 C821 1.379 . S
H823 C817 0.959 . S
H824 C817 0.961 . S
H825 C817 0.960 . S
H826 C818 0.930 . S
H827 C819 0.929 . S
H828 C836 0.929 . S
H829 C838 0.930 . S
H830 C840 0.930 . S
H831 C843 0.929 . S
H832 C846 0.930 . S
H833 C848 0.960 1_545 S
H834 C848 0.960 . S
H835 C848 0.960 . S
C836 H828 0.929 . S
C836 C837 1.377 . S
C836 C838 1.384 . S
C837 C836 1.377 . S
C837 C843 1.390 . S
C838 H829 0.930 . S
C838 C836 1.384 . S
C838 C839 1.372 . S
C839 C838 1.372 . S
C839 C840 1.400 . S
C839 C844 1.490 . S
C840 H830 0.930 . S
C840 C839 1.400 . S
C840 C843 1.386 . S
H841 C857 0.930 . S
H842 C858 0.931 . S
C843 H831 0.929 . S
C843 C837 1.390 . S
C843 C840 1.386 . S
C844 C839 1.490 . S
C844 C846 1.395 . S
C844 C847 1.410 . S
H845 C851 0.930 . S
C846 H832 0.930 . S
C846 C844 1.395 . S
C846 C849 1.403 1_565 S
C847 C844 1.410 . S
C847 C848 1.527 . S
C847 C851 1.389 1_565 S
C848 H833 0.960 1_565 S
C848 H834 0.960 . S
C848 H835 0.960 . S
C848 C847 1.527 . S
C849 C846 1.403 1_545 S
C849 C850 1.392 . S
C849 C853 1.495 . S
C850 C849 1.392 . S
C850 C851 1.385 . S
C850 C852 1.478 . S
C851 H845 0.930 . S
C851 C847 1.389 1_545 S
C851 C850 1.385 . S
C852 C850 1.478 . S
C852 C854 1.381 . S
C852 C858 1.383 . S
C853 C849 1.495 . S
C853 H859 0.959 . S
C853 H860 0.961 . S
C853 H861 0.960 . S
C854 C852 1.381 . S
C854 C855 1.394 . S
C854 H862 0.930 . S
C855 C854 1.394 . S
C855 C856 1.383 . S
C855 H863 0.929 . S
C856 C855 1.383 . S
C856 C857 1.377 . S
C857 H841 0.930 . S
C857 C856 1.377 . S
C857 C858 1.379 . S
C858 H842 0.931 . S
C858 C852 1.383 . S
C858 C857 1.379 . S
H859 C853 0.959 . S
H860 C853 0.961 . S
H861 C853 0.960 . S
H862 C854 0.930 . S
H863 C855 0.929 . S
H864 C872 0.929 . S
H865 C874 0.930 . S
H866 C876 0.930 . S
H867 C879 0.929 . S
H868 C882 0.930 . S
H869 C884 0.960 1_565 S
H870 C884 0.960 . S
H871 C884 0.960 . S
C872 H864 0.929 . S
C872 C873 1.377 . S
C872 C874 1.384 . S
C873 C872 1.377 . S
C873 C879 1.390 . S
C874 H865 0.930 . S
C874 C872 1.384 . S
C874 C875 1.372 . S
C875 C874 1.372 . S
C875 C876 1.400 . S
C875 C880 1.490 1_545 S
C876 H866 0.930 . S
C876 C875 1.400 . S
C876 C879 1.386 . S
H877 C893 0.930 . S
H878 C894 0.931 . S
C879 H867 0.929 . S
C879 C873 1.390 . S
C879 C876 1.386 . S
C880 C875 1.490 1_565 S
C880 C882 1.395 . S
C880 C883 1.403 . S
H881 C887 0.930 . S
C882 H868 0.930 . S
C882 C880 1.395 . S
C882 C885 1.403 . S
C883 C880 1.403 . S
C883 C884 1.524 1_565 S
C883 C887 1.400 . S
C884 H869 0.960 1_545 S
C884 H870 0.960 . S
C884 H871 0.960 . S
C884 C883 1.524 1_545 S
C885 C882 1.403 . S
C885 C886 1.392 . S
C885 C889 1.495 . S
C886 C885 1.392 . S
C886 C887 1.385 . S
C886 C888 1.478 . S
C887 H881 0.930 . S
C887 C883 1.400 . S
C887 C886 1.385 . S
C888 C886 1.478 . S
C888 C890 1.381 . S
C888 C894 1.383 . S
C889 C885 1.495 . S
C889 H895 0.959 . S
C889 H896 0.961 . S
C889 H897 0.960 . S
C890 C888 1.381 . S
C890 C891 1.394 . S
C890 H898 0.930 . S
C891 C890 1.394 . S
C891 C892 1.383 . S
C891 H899 0.929 . S
C892 C891 1.383 . S
C892 C893 1.377 . S
C893 H877 0.930 . S
C893 C892 1.377 . S
C893 C894 1.379 . S
C894 H878 0.931 . S
C894 C888 1.383 . S
C894 C893 1.379 . S
H895 C889 0.959 . S
H896 C889 0.961 . S
H897 C889 0.960 . S
H898 C890 0.930 . S
H899 C891 0.929 . S
H900 C908 0.929 . S
H901 C910 0.930 . S
H902 C912 0.930 . S
H903 C915 0.929 . S
H904 C918 0.930 . S
H905 C920 0.960 1_565 S
H906 C920 0.960 . S
H907 C920 0.960 . S
C908 H900 0.929 . S
C908 C909 1.377 . S
C908 C910 1.384 . S
C909 C908 1.377 . S
C909 C915 1.390 . S
C910 H901 0.930 . S
C910 C908 1.384 . S
C910 C911 1.372 . S
C911 C910 1.372 . S
C911 C912 1.400 . S
C911 C916 1.490 1_545 S
C912 H902 0.930 . S
C912 C911 1.400 . S
C912 C915 1.386 . S
H913 C929 0.930 . S
H914 C930 0.931 . S
C915 H903 0.929 . S
C915 C909 1.390 . S
C915 C912 1.386 . S
C916 C911 1.490 1_565 S
C916 C918 1.395 . S
C916 C919 1.403 . S
H917 C923 0.930 . S
C918 H904 0.930 . S
C918 C916 1.395 . S
C918 C921 1.403 . S
C919 C916 1.403 . S
C919 C920 1.524 1_565 S
C919 C923 1.400 . S
C920 H905 0.960 1_545 S
C920 H906 0.960 . S
C920 H907 0.960 . S
C920 C919 1.524 1_545 S
C921 C918 1.403 . S
C921 C922 1.392 . S
C921 C925 1.495 . S
C922 C921 1.392 . S
C922 C923 1.385 . S
C922 C924 1.478 . S
C923 H917 0.930 . S
C923 C919 1.400 . S
C923 C922 1.385 . S
C924 C922 1.478 . S
C924 C926 1.381 . S
C924 C930 1.383 . S
C925 C921 1.495 . S
C925 H931 0.959 . S
C925 H932 0.961 . S
C925 H933 0.960 . S
C926 C924 1.381 . S
C926 C927 1.394 . S
C926 H934 0.930 . S
C927 C926 1.394 . S
C927 C928 1.383 . S
C927 H935 0.929 . S
C928 C927 1.383 . S
C928 C929 1.377 . S
C929 H913 0.930 . S
C929 C928 1.377 . S
C929 C930 1.379 . S
C930 H914 0.931 . S
C930 C924 1.383 . S
C930 C929 1.379 . S
H931 C925 0.959 . S
H932 C925 0.961 . S
H933 C925 0.960 . S
H934 C926 0.930 . S
H935 C927 0.929 . S
H936 C944 0.929 . S
H937 C946 0.930 . S
H938 C948 0.930 . S
H939 C951 0.929 . S
H940 C954 0.930 . S
H941 C956 0.960 . S
H942 C956 0.960 . S
H943 C956 0.960 . S
C944 H936 0.929 . S
C944 C945 1.377 . S
C944 C946 1.384 . S
C945 C944 1.377 . S
C945 C951 1.390 . S
C946 H937 0.930 . S
C946 C944 1.384 . S
C946 C947 1.372 . S
C947 C946 1.372 . S
C947 C948 1.400 . S
C947 C952 1.490 . S
C948 H938 0.930 . S
C948 C947 1.400 . S
C948 C951 1.386 . S
H949 C965 0.930 . S
H950 C966 0.931 . S
C951 H939 0.929 . S
C951 C945 1.390 . S
C951 C948 1.386 . S
C952 C947 1.490 . S
C952 C954 1.395 1_565 S
C952 C955 1.403 . S
H953 C959 0.930 . S
C954 H940 0.930 . S
C954 C952 1.395 1_545 S
C954 C957 1.403 . S
C955 C952 1.403 . S
C955 C956 1.524 . S
C955 C959 1.400 1_565 S
C956 H941 0.960 . S
C956 H942 0.960 . S
C956 H943 0.960 . S
C956 C955 1.524 . S
C957 C954 1.403 . S
C957 C958 1.392 . S
C957 C961 1.495 . S
C958 C957 1.392 . S
C958 C959 1.385 . S
C958 C960 1.478 . S
C959 H953 0.930 . S
C959 C955 1.400 1_545 S
C959 C958 1.385 . S
C960 C958 1.478 . S
C960 C962 1.381 . S
C960 C966 1.383 . S
C961 C957 1.495 . S
C961 H967 0.959 . S
C961 H968 0.961 . S
C961 H969 0.960 . S
C962 C960 1.381 . S
C962 C963 1.394 . S
C962 H970 0.930 . S
C963 C962 1.394 . S
C963 C964 1.383 . S
C963 H971 0.929 . S
C964 C963 1.383 . S
C964 C965 1.377 . S
C965 H949 0.930 . S
C965 C964 1.377 . S
C965 C966 1.379 . S
C966 H950 0.931 . S
C966 C960 1.383 . S
C966 C965 1.379 . S
H967 C961 0.959 . S
H968 C961 0.961 . S
H969 C961 0.960 . S
H970 C962 0.930 . S
H971 C963 0.929 . S
H972 C980 0.915 1_554 S
H973 C982 0.930 . S
H974 C984 0.930 . S
H975 C987 0.929 . S
H976 C990 0.930 . S
H977 C992 0.960 . S
H978 C992 0.960 . S
H979 C992 0.960 . S
C980 H972 0.915 1_556 S
C980 C981 1.343 1_556 S
C980 C982 1.434 . S
C981 C980 1.343 1_554 S
C981 C987 1.390 . S
C982 H973 0.930 . S
C982 C980 1.434 . S
C982 C983 1.372 . S
C983 C982 1.372 . S
C983 C984 1.400 . S
C983 C988 1.490 . S
C984 H974 0.930 . S
C984 C983 1.400 . S
C984 C987 1.386 1_556 S
H985 C1001 0.930 . S
H986 C1002 0.931 . S
C987 H975 0.929 . S
C987 C981 1.390 . S
C987 C984 1.386 1_554 S
C988 C983 1.490 . S
C988 C990 1.395 . S
C988 C991 1.403 . S
H989 C995 0.930 . S
C990 H976 0.930 . S
C990 C988 1.395 . S
C990 C993 1.403 . S
C991 C988 1.403 . S
C991 C992 1.524 . S
C991 C995 1.400 . S
C992 H977 0.960 . S
C992 H978 0.960 . S
C992 H979 0.960 . S
C992 C991 1.524 . S
C993 C990 1.403 . S
C993 C994 1.392 . S
C993 C997 1.495 . S
C994 C993 1.392 . S
C994 C995 1.385 . S
C994 C996 1.478 . S
C995 H989 0.930 . S
C995 C991 1.400 . S
C995 C994 1.385 . S
C996 C994 1.478 . S
C996 C998 1.381 . S
C996 C1002 1.383 . S
C997 C993 1.495 . S
C997 H1003 0.959 . S
C997 H1004 0.961 . S
C997 H1005 0.960 . S
C998 C996 1.381 . S
C998 C999 1.394 . S
C998 H1006 0.930 . S
C999 C998 1.394 . S
C999 C1000 1.383 . S
C999 H1007 0.929 . S
C1000 C999 1.383 . S
C1000 C1001 1.377 . S
C1001 H985 0.930 . S
C1001 C1000 1.377 . S
C1001 C1002 1.379 . S
C1002 H986 0.931 . S
C1002 C996 1.383 . S
C1002 C1001 1.379 . S
H1003 C997 0.959 . S
H1004 C997 0.961 . S
H1005 C997 0.960 . S
H1006 C998 0.930 . S
H1007 C999 0.929 . S
H1008 C1016 0.929 . S
H1009 C1018 0.930 . S
H1010 C1020 0.930 . S
H1011 C1023 0.929 . S
H1012 C1026 0.930 . S
H1013 C1028 0.960 . S
H1014 C1028 0.960 . S
H1015 C1028 0.960 . S
C1016 H1008 0.929 . S
C1016 C1017 1.377 . S
C1016 C1018 1.384 . S
C1017 C1016 1.377 . S
C1017 C1023 1.390 . S
C1018 H1009 0.930 . S
C1018 C1016 1.384 . S
C1018 C1019 1.372 . S
C1019 C1018 1.372 . S
C1019 C1020 1.400 . S
C1019 C1024 1.490 . S
C1020 H1010 0.930 . S
C1020 C1019 1.400 . S
C1020 C1023 1.386 . S
H1021 C1037 0.930 . S
H1022 C1038 0.931 . S
C1023 H1011 0.929 . S
C1023 C1017 1.390 . S
C1023 C1020 1.386 . S
C1024 C1019 1.490 . S
C1024 C1026 1.395 . S
C1024 C1027 1.403 . S
H1025 C1031 0.930 . S
C1026 H1012 0.930 . S
C1026 C1024 1.395 . S
C1026 C1029 1.403 . S
C1027 C1024 1.403 . S
C1027 C1028 1.524 . S
C1027 C1031 1.400 . S
C1028 H1013 0.960 . S
C1028 H1014 0.960 . S
C1028 H1015 0.960 . S
C1028 C1027 1.524 . S
C1029 C1026 1.403 . S
C1029 C1030 1.392 . S
C1029 C1033 1.495 . S
C1030 C1029 1.392 . S
C1030 C1031 1.385 . S
C1030 C1032 1.478 . S
C1031 H1025 0.930 . S
C1031 C1027 1.400 . S
C1031 C1030 1.385 . S
C1032 C1030 1.478 . S
C1032 C1034 1.381 . S
C1032 C1038 1.383 . S
C1033 C1029 1.495 . S
C1033 H1039 0.959 . S
C1033 H1040 0.961 . S
C1033 H1041 0.960 . S
C1034 C1032 1.381 . S
C1034 C1035 1.394 . S
C1034 H1042 0.930 . S
C1035 C1034 1.394 . S
C1035 C1036 1.383 . S
C1035 H1043 0.929 . S
C1036 C1035 1.383 . S
C1036 C1037 1.377 . S
C1037 H1021 0.930 . S
C1037 C1036 1.377 . S
C1037 C1038 1.379 . S
C1038 H1022 0.931 . S
C1038 C1032 1.383 . S
C1038 C1037 1.379 . S
H1039 C1033 0.959 . S
H1040 C1033 0.961 . S
H1041 C1033 0.960 . S
H1042 C1034 0.930 . S
H1043 C1035 0.929 . S
H1044 C1052 0.929 . S
H1045 C1054 0.930 . S
H1046 C1056 0.930 . S
H1047 C1059 0.929 . S
H1048 C1062 0.930 . S
H1049 C1064 0.960 . S
H1050 C1064 0.960 . S
H1051 C1064 0.960 . S
C1052 H1044 0.929 . S
C1052 C1053 1.377 . S
C1052 C1054 1.384 . S
C1053 C1052 1.377 . S
C1053 C1059 1.390 . S
C1054 H1045 0.930 . S
C1054 C1052 1.384 . S
C1054 C1055 1.372 . S
C1055 C1054 1.372 . S
C1055 C1056 1.400 . S
C1055 C1060 1.490 . S
C1056 H1046 0.930 . S
C1056 C1055 1.400 . S
C1056 C1059 1.386 . S
H1057 C1073 0.930 . S
H1058 C1074 0.931 . S
C1059 H1047 0.929 . S
C1059 C1053 1.390 . S
C1059 C1056 1.386 . S
C1060 C1055 1.490 . S
C1060 C1062 1.395 . S
C1060 C1063 1.403 . S
H1061 C1067 0.930 . S
C1062 H1048 0.930 . S
C1062 C1060 1.395 . S
C1062 C1065 1.403 . S
C1063 C1060 1.403 . S
C1063 C1064 1.524 . S
C1063 C1067 1.400 . S
C1064 H1049 0.960 . S
C1064 H1050 0.960 . S
C1064 H1051 0.960 . S
C1064 C1063 1.524 . S
C1065 C1062 1.403 . S
C1065 C1066 1.392 . S
C1065 C1069 1.495 . S
C1066 C1065 1.392 . S
C1066 C1067 1.385 . S
C1066 C1068 1.478 . S
C1067 H1061 0.930 . S
C1067 C1063 1.400 . S
C1067 C1066 1.385 . S
C1068 C1066 1.478 . S
C1068 C1070 1.381 . S
C1068 C1074 1.383 . S
C1069 C1065 1.495 . S
C1069 H1075 0.959 . S
C1069 H1076 0.961 . S
C1069 H1077 0.960 . S
C1070 C1068 1.381 . S
C1070 C1071 1.394 . S
C1070 H1078 0.930 . S
C1071 C1070 1.394 . S
C1071 C1072 1.383 . S
C1071 H1079 0.929 . S
C1072 C1071 1.383 . S
C1072 C1073 1.377 . S
C1073 H1057 0.930 . S
C1073 C1072 1.377 . S
C1073 C1074 1.379 . S
C1074 H1058 0.931 . S
C1074 C1068 1.383 . S
C1074 C1073 1.379 . S
H1075 C1069 0.959 . S
H1076 C1069 0.961 . S
H1077 C1069 0.960 . S
H1078 C1070 0.930 . S
H1079 C1071 0.929 . S
H1080 C1088 0.929 . S
H1081 C1090 0.930 . S
H1082 C1092 0.930 . S
H1083 C1095 0.929 . S
H1084 C1098 0.930 . S
H1085 C1100 0.960 . S
H1086 C1100 0.960 . S
H1087 C1100 0.960 . S
C1088 H1080 0.929 . S
C1088 C1089 1.377 . S
C1088 C1090 1.384 . S
C1089 C1088 1.377 . S
C1089 C1095 1.390 . S
C1090 H1081 0.930 . S
C1090 C1088 1.384 . S
C1090 C1091 1.372 . S
C1091 C1090 1.372 . S
C1091 C1092 1.400 . S
C1091 C1096 1.490 . S
C1092 H1082 0.930 . S
C1092 C1091 1.400 . S
C1092 C1095 1.386 . S
H1093 C1109 0.930 . S
H1094 C1110 0.931 . S
C1095 H1083 0.929 . S
C1095 C1089 1.390 . S
C1095 C1092 1.386 . S
C1096 C1091 1.490 . S
C1096 C1098 1.395 . S
C1096 C1099 1.403 . S
H1097 C1103 0.930 . S
C1098 H1084 0.930 . S
C1098 C1096 1.395 . S
C1098 C1101 1.403 . S
C1099 C1096 1.403 . S
C1099 C1100 1.524 . S
C1099 C1103 1.400 . S
C1100 H1085 0.960 . S
C1100 H1086 0.960 . S
C1100 H1087 0.960 . S
C1100 C1099 1.524 . S
C1101 C1098 1.403 . S
C1101 C1102 1.392 . S
C1101 C1105 1.495 . S
C1102 C1101 1.392 . S
C1102 C1103 1.385 . S
C1102 C1104 1.478 . S
C1103 H1097 0.930 . S
C1103 C1099 1.400 . S
C1103 C1102 1.385 . S
C1104 C1102 1.478 . S
C1104 C1106 1.381 . S
C1104 C1110 1.383 . S
C1105 C1101 1.495 . S
C1105 H1111 0.959 . S
C1105 H1112 0.961 . S
C1105 H1113 0.960 . S
C1106 C1104 1.381 . S
C1106 C1107 1.394 . S
C1106 H1114 0.930 . S
C1107 C1106 1.394 . S
C1107 C1108 1.383 . S
C1107 H1115 0.929 . S
C1108 C1107 1.383 . S
C1108 C1109 1.377 . S
C1109 H1093 0.930 . S
C1109 C1108 1.377 . S
C1109 C1110 1.379 . S
C1110 H1094 0.931 . S
C1110 C1104 1.383 . S
C1110 C1109 1.379 . S
H1111 C1105 0.959 . S
H1112 C1105 0.961 . S
H1113 C1105 0.960 . S
H1114 C1106 0.930 . S
H1115 C1107 0.929 . S
H1116 C1124 0.929 . S
H1117 C1126 0.930 . S
H1118 C1128 0.930 . S
H1119 C1131 0.929 . S
H1120 C1134 0.930 . S
H1121 C1136 0.960 . S
H1122 C1136 0.960 . S
H1123 C1136 0.960 . S
C1124 H1116 0.929 . S
C1124 C1125 1.377 . S
C1124 C1126 1.384 1_556 S
C1125 C1124 1.377 . S
C1125 C1131 1.390 . S
C1126 H1117 0.930 . S
C1126 C1124 1.384 1_554 S
C1126 C1127 1.372 . S
C1127 C1126 1.372 . S
C1127 C1128 1.400 . S
C1127 C1132 1.490 . S
C1128 H1118 0.930 . S
C1128 C1127 1.400 . S
C1128 C1131 1.386 1_554 S
H1129 C1145 0.930 . S
H1130 C1146 0.931 . S
C1131 H1119 0.929 . S
C1131 C1125 1.390 . S
C1131 C1128 1.386 1_556 S
C1132 C1127 1.490 . S
C1132 C1134 1.395 . S
C1132 C1135 1.403 . S
H1133 C1139 0.930 . S
C1134 H1120 0.930 . S
C1134 C1132 1.395 . S
C1134 C1137 1.403 . S
C1135 C1132 1.403 . S
C1135 C1136 1.524 . S
C1135 C1139 1.400 . S
C1136 H1121 0.960 . S
C1136 H1122 0.960 . S
C1136 H1123 0.960 . S
C1136 C1135 1.524 . S
C1137 C1134 1.403 . S
C1137 C1138 1.392 . S
C1137 C1141 1.495 . S
C1138 C1137 1.392 . S
C1138 C1139 1.385 . S
C1138 C1140 1.478 . S
C1139 H1133 0.930 . S
C1139 C1135 1.400 . S
C1139 C1138 1.385 . S
C1140 C1138 1.478 . S
C1140 C1142 1.381 . S
C1140 C1146 1.383 . S
C1141 C1137 1.495 . S
C1141 H1147 0.959 . S
C1141 H1148 0.961 . S
C1141 H1149 0.960 . S
C1142 C1140 1.381 . S
C1142 C1143 1.394 . S
C1142 H1150 0.930 . S
C1143 C1142 1.394 . S
C1143 C1144 1.383 . S
C1143 H1151 0.929 . S
C1144 C1143 1.383 . S
C1144 C1145 1.377 . S
C1145 H1129 0.930 . S
C1145 C1144 1.377 . S
C1145 C1146 1.379 . S
C1146 H1130 0.931 . S
C1146 C1140 1.383 . S
C1146 C1145 1.379 . S
H1147 C1141 0.959 . S
H1148 C1141 0.961 . S
H1149 C1141 0.960 . S
H1150 C1142 0.930 . S
H1151 C1143 0.929 . S
H1152 C1160 0.929 . S
H1153 C1162 0.930 . S
H1154 C1164 0.930 . S
H1155 C1167 0.929 . S
H1156 C1170 0.930 . S
H1157 C1172 0.960 . S
H1158 C1172 0.960 . S
H1159 C1172 0.960 . S
C1160 H1152 0.929 . S
C1160 C1161 1.377 . S
C1160 C1162 1.384 . S
C1161 C1160 1.377 . S
C1161 C1167 1.390 . S
C1162 H1153 0.930 . S
C1162 C1160 1.384 . S
C1162 C1163 1.372 . S
C1163 C1162 1.372 . S
C1163 C1164 1.400 . S
C1163 C1168 1.490 . S
C1164 H1154 0.930 . S
C1164 C1163 1.400 . S
C1164 C1167 1.386 . S
H1165 C1181 0.930 . S
H1166 C1182 0.931 . S
C1167 H1155 0.929 . S
C1167 C1161 1.390 . S
C1167 C1164 1.386 . S
C1168 C1163 1.490 . S
C1168 C1170 1.395 . S
C1168 C1171 1.403 . S
H1169 C1175 0.930 . S
C1170 H1156 0.930 . S
C1170 C1168 1.395 . S
C1170 C1173 1.403 . S
C1171 C1168 1.403 . S
C1171 C1172 1.524 . S
C1171 C1175 1.400 . S
C1172 H1157 0.960 . S
C1172 H1158 0.960 . S
C1172 H1159 0.960 . S
C1172 C1171 1.524 . S
C1173 C1170 1.403 . S
C1173 C1174 1.392 . S
C1173 C1177 1.495 . S
C1174 C1173 1.392 . S
C1174 C1175 1.385 . S
C1174 C1176 1.478 . S
C1175 H1169 0.930 . S
C1175 C1171 1.400 . S
C1175 C1174 1.385 . S
C1176 C1174 1.478 . S
C1176 C1178 1.381 . S
C1176 C1182 1.383 . S
C1177 C1173 1.495 . S
C1177 H1183 0.959 . S
C1177 H1184 0.961 . S
C1177 H1185 0.960 . S
C1178 C1176 1.381 . S
C1178 C1179 1.394 . S
C1178 H1186 0.930 . S
C1179 C1178 1.394 . S
C1179 C1180 1.383 . S
C1179 H1187 0.929 . S
C1180 C1179 1.383 . S
C1180 C1181 1.377 . S
C1181 H1165 0.930 . S
C1181 C1180 1.377 . S
C1181 C1182 1.379 . S
C1182 H1166 0.931 . S
C1182 C1176 1.383 . S
C1182 C1181 1.379 . S
H1183 C1177 0.959 . S
H1184 C1177 0.961 . S
H1185 C1177 0.960 . S
H1186 C1178 0.930 . S
H1187 C1179 0.929 . S
H1188 C1196 0.929 . S
H1189 C1198 0.930 . S
H1190 C1200 0.930 . S
H1191 C1203 0.929 . S
H1192 C1206 0.930 . S
H1193 C1208 0.960 . S
H1194 C1208 0.960 . S
H1195 C1208 0.960 . S
C1196 H1188 0.929 . S
C1196 C1197 1.377 . S
C1196 C1198 1.384 . S
C1197 C1196 1.377 . S
C1197 C1203 1.390 . S
C1198 H1189 0.930 . S
C1198 C1196 1.384 . S
C1198 C1199 1.372 . S
C1199 C1198 1.372 . S
C1199 C1200 1.400 . S
C1199 C1204 1.490 . S
C1200 H1190 0.930 . S
C1200 C1199 1.400 . S
C1200 C1203 1.386 . S
H1201 C1217 0.930 . S
H1202 C1218 0.931 . S
C1203 H1191 0.929 . S
C1203 C1197 1.390 . S
C1203 C1200 1.386 . S
C1204 C1199 1.490 . S
C1204 C1206 1.395 . S
C1204 C1207 1.403 . S
H1205 C1211 0.930 . S
C1206 H1192 0.930 . S
C1206 C1204 1.395 . S
C1206 C1209 1.403 . S
C1207 C1204 1.403 . S
C1207 C1208 1.524 . S
C1207 C1211 1.400 . S
C1208 H1193 0.960 . S
C1208 H1194 0.960 . S
C1208 H1195 0.960 . S
C1208 C1207 1.524 . S
C1209 C1206 1.403 . S
C1209 C1210 1.392 . S
C1209 C1213 1.495 . S
C1210 C1209 1.392 . S
C1210 C1211 1.385 . S
C1210 C1212 1.478 . S
C1211 H1205 0.930 . S
C1211 C1207 1.400 . S
C1211 C1210 1.385 . S
C1212 C1210 1.478 . S
C1212 C1214 1.381 . S
C1212 C1218 1.383 . S
C1213 C1209 1.495 . S
C1213 H1219 0.959 . S
C1213 H1220 0.961 . S
C1213 H1221 0.960 . S
C1214 C1212 1.381 . S
C1214 C1215 1.394 . S
C1214 H1222 0.930 . S
C1215 C1214 1.394 . S
C1215 C1216 1.383 . S
C1215 H1223 0.929 . S
C1216 C1215 1.383 . S
C1216 C1217 1.377 . S
C1217 H1201 0.930 . S
C1217 C1216 1.377 . S
C1217 C1218 1.379 . S
C1218 H1202 0.931 . S
C1218 C1212 1.383 . S
C1218 C1217 1.379 . S
H1219 C1213 0.959 . S
H1220 C1213 0.961 . S
H1221 C1213 0.960 . S
H1222 C1214 0.930 . S
H1223 C1215 0.929 . S
H1224 C1232 0.929 . S
H1225 C1234 0.930 . S
H1226 C1236 0.930 . S
H1227 C1239 0.929 . S
H1228 C1242 0.930 . S
H1229 C1244 0.960 . S
H1230 C1244 0.960 . S
H1231 C1244 0.960 . S
C1232 H1224 0.929 . S
C1232 C1233 1.377 . S
C1232 C1234 1.384 . S
C1233 C1232 1.377 . S
C1233 C1239 1.390 . S
C1234 H1225 0.930 . S
C1234 C1232 1.384 . S
C1234 C1235 1.372 . S
C1235 C1234 1.372 . S
C1235 C1236 1.400 . S
C1235 C1240 1.490 . S
C1236 H1226 0.930 . S
C1236 C1235 1.400 . S
C1236 C1239 1.386 . S
H1237 C1253 0.930 . S
H1238 C1254 0.931 . S
C1239 H1227 0.929 . S
C1239 C1233 1.390 . S
C1239 C1236 1.386 . S
C1240 C1235 1.490 . S
C1240 C1242 1.395 . S
C1240 C1243 1.403 . S
H1241 C1247 0.930 . S
C1242 H1228 0.930 . S
C1242 C1240 1.395 . S
C1242 C1245 1.403 . S
C1243 C1240 1.403 . S
C1243 C1244 1.524 . S
C1243 C1247 1.400 . S
C1244 H1229 0.960 . S
C1244 H1230 0.960 . S
C1244 H1231 0.960 . S
C1244 C1243 1.524 . S
C1245 C1242 1.403 . S
C1245 C1246 1.392 . S
C1245 C1249 1.495 . S
C1246 C1245 1.392 . S
C1246 C1247 1.385 . S
C1246 C1248 1.478 . S
C1247 H1241 0.930 . S
C1247 C1243 1.400 . S
C1247 C1246 1.385 . S
C1248 C1246 1.478 . S
C1248 C1250 1.381 . S
C1248 C1254 1.383 . S
C1249 C1245 1.495 . S
C1249 H1255 0.959 . S
C1249 H1256 0.961 . S
C1249 H1257 0.960 . S
C1250 C1248 1.381 . S
C1250 C1251 1.394 . S
C1250 H1258 0.930 . S
C1251 C1250 1.394 . S
C1251 C1252 1.383 . S
C1251 H1259 0.929 . S
C1252 C1251 1.383 . S
C1252 C1253 1.377 . S
C1253 H1237 0.930 . S
C1253 C1252 1.377 . S
C1253 C1254 1.379 . S
C1254 H1238 0.931 . S
C1254 C1248 1.383 . S
C1254 C1253 1.379 . S
H1255 C1249 0.959 . S
H1256 C1249 0.961 . S
H1257 C1249 0.960 . S
H1258 C1250 0.930 . S
H1259 C1251 0.929 . S
C424 C319 1.491 . S
C405 C16 1.650 . S
C460 C337 1.253 . S
C441 C55 1.352 1_655 S
C477 C99 1.339 . S
C496 C361 1.285 . S
C532 C391 1.238 . S
C513 C138 1.403 . S
C568 C379 1.251 . S
C549 C172 1.343 . S
C585 C216 1.354 . S
C604 C332 1.310 . S
C621 C255 1.641 . S
C640 C352 1.507 . S
C657 C289 1.422 1_655 S
C676 C357 1.301 . S
C693 C294 1.340 . S
C712 C373 1.291 . S
C729 C211 1.423 . S
C748 C328 1.305 . S
C784 C395 1.288 . S
C765 C133 1.367 . S
C820 C340 1.247 . S
C801 C60 1.408 . S
C837 C94 1.642 . S
C856 C358 1.543 . S
C873 C21 1.351 . S
C892 C316 1.294 . S
C928 C336 1.253 . S
C909 C250 1.324 . S
C964 C382 1.504 . S
C945 C177 1.662 . S
C1000 C378 1.345 . S
C981 C1 1.486 . S
C1036 C331 1.349 . S
C1017 C40 1.415 . S
C1053 C79 1.464 . S
C1072 C353 1.284 . S
C1089 C118 1.444 . S
C1108 C374 1.305 . S
C1144 C315 1.341 . S
C1125 C157 1.490 . S
C1161 C196 1.465 . S
C1180 C349 1.347 . S
C1216 C370 1.377 . S
C1197 C235 1.510 . S
C1252 C394 1.331 . S
C1233 C274 1.440 . S
