# Generated by pormake.
# Topology zzz, (3,6)-cn, num edge types: 1
# Building blocks:
#     Node 0, Type 0, BuildingBlock: QEWDON_clean_linker_0, # of connection points: 3
#     Node 1, Type 0, BuildingBlock: QEWDON_clean_linker_0, # of connection points: 3
#     Node 2, Type 0, BuildingBlock: QEWDON_clean_linker_0, # of connection points: 3
#     Node 3, Type 0, BuildingBlock: QEWDON_clean_linker_0, # of connection points: 3
#     Node 4, Type 0, BuildingBlock: QEWDON_clean_linker_0, # of connection points: 3
#     Node 5, Type 0, BuildingBlock: QEWDON_clean_linker_0, # of connection points: 3
#     Node 6, Type 0, BuildingBlock: QEWDON_clean_linker_0, # of connection points: 3
#     Node 7, Type 0, BuildingBlock: QEWDON_clean_linker_0, # of connection points: 3
#     Node 8, Type 1, BuildingBlock: CUWYAW_clean_sbu_0, # of connection points: 6
#     Node 9, Type 1, BuildingBlock: CUWYAW_clean_sbu_0, # of connection points: 6
#     Node 10, Type 1, BuildingBlock: CUWYAW_clean_sbu_0, # of connection points: 6
#     Node 11, Type 1, BuildingBlock: CUWYAW_clean_sbu_0, # of connection points: 6
#     Edge 12, Type (0, 1), BuildingBlock: MIFKUJ_clean_linker_0, # of connection points: 2
#     Edge 13, Type (0, 1), BuildingBlock: MIFKUJ_clean_linker_0, # of connection points: 2
#     Edge 14, Type (0, 1), BuildingBlock: MIFKUJ_clean_linker_0, # of connection points: 2
#     Edge 15, Type (0, 1), BuildingBlock: MIFKUJ_clean_linker_0, # of connection points: 2
#     Edge 16, Type (0, 1), BuildingBlock: MIFKUJ_clean_linker_0, # of connection points: 2
#     Edge 17, Type (0, 1), BuildingBlock: MIFKUJ_clean_linker_0, # of connection points: 2
#     Edge 18, Type (0, 1), BuildingBlock: MIFKUJ_clean_linker_0, # of connection points: 2
#     Edge 19, Type (0, 1), BuildingBlock: MIFKUJ_clean_linker_0, # of connection points: 2
#     Edge 20, Type (0, 1), BuildingBlock: MIFKUJ_clean_linker_0, # of connection points: 2
#     Edge 21, Type (0, 1), BuildingBlock: MIFKUJ_clean_linker_0, # of connection points: 2
#     Edge 22, Type (0, 1), BuildingBlock: MIFKUJ_clean_linker_0, # of connection points: 2
#     Edge 23, Type (0, 1), BuildingBlock: MIFKUJ_clean_linker_0, # of connection points: 2
#     Edge 24, Type (0, 1), BuildingBlock: MIFKUJ_clean_linker_0, # of connection points: 2
#     Edge 25, Type (0, 1), BuildingBlock: MIFKUJ_clean_linker_0, # of connection points: 2
#     Edge 26, Type (0, 1), BuildingBlock: MIFKUJ_clean_linker_0, # of connection points: 2
#     Edge 27, Type (0, 1), BuildingBlock: MIFKUJ_clean_linker_0, # of connection points: 2
#     Edge 28, Type (0, 1), BuildingBlock: MIFKUJ_clean_linker_0, # of connection points: 2
#     Edge 29, Type (0, 1), BuildingBlock: MIFKUJ_clean_linker_0, # of connection points: 2
#     Edge 30, Type (0, 1), BuildingBlock: MIFKUJ_clean_linker_0, # of connection points: 2
#     Edge 31, Type (0, 1), BuildingBlock: MIFKUJ_clean_linker_0, # of connection points: 2
#     Edge 32, Type (0, 1), BuildingBlock: MIFKUJ_clean_linker_0, # of connection points: 2
#     Edge 33, Type (0, 1), BuildingBlock: MIFKUJ_clean_linker_0, # of connection points: 2
#     Edge 34, Type (0, 1), BuildingBlock: MIFKUJ_clean_linker_0, # of connection points: 2
#     Edge 35, Type (0, 1), BuildingBlock: MIFKUJ_clean_linker_0, # of connection points: 2
# Relax obj value: 0.129
# Max RMSD: 0.135
# Mean RMSD: 0.092
data_MOF--net-zzz--node1-CUWYAW_clean_sbu_0--node2-QEWDON_clean_linker_0--edge1-MIFKUJ_clean_linker_0
_symmetry_space_group_name_H-M    P1
_symmetry_Int_Tables_number       1
_symmetry_cell_setting            triclinic
loop_
_symmetry_equiv_pos_as_xyz
'x, y, z'
_cell_length_a     72.070922
_cell_length_b     72.057585
_cell_length_c     17.404696
_cell_angle_alpha  89.732921
_cell_angle_beta   89.88492
_cell_angle_gamma 90.221742
loop_
_atom_site_label
_atom_site_type_symbol
_atom_site_fract_x
_atom_site_fract_y
_atom_site_fract_z
_atom_type_partial_charge
H0 H 0.74971 0.51253 0.16894 0.0
C1 C 0.75997 0.51181 0.21398 0.0
C2 C 0.77766 0.50575 0.19354 0.0
C3 C 0.75597 0.51798 0.2889 0.0
H4 H 0.80583 0.50205 0.23028 0.0
C5 C 0.79198 0.50611 0.24776 0.0
C6 C 0.78924 0.51309 0.32184 0.0
C7 C 0.77096 0.51841 0.34333 0.0
C8 C 0.73674 0.52572 0.30529 0.0
H9 H 0.7688 0.52339 0.40109 0.0
C10 C 0.72099 0.5215 0.25806 0.0
C11 C 0.70394 0.53107 0.26621 0.0
C12 C 0.73424 0.53882 0.36421 0.0
H13 H 0.74555 0.54299 0.401 0.0
C14 C 0.71717 0.5475 0.37515 0.0
H15 H 0.72192 0.51121 0.21329 0.0
C16 C 0.70228 0.54387 0.32638 0.0
H17 H 0.68938 0.5512 0.33574 0.0
H18 H 0.71561 0.55755 0.42074 0.0
H19 H 0.98726 0.74615 0.17588 0.0
C20 C 0.9907 0.75662 0.21792 0.0
C21 C 0.98743 0.77523 0.19892 0.0
C22 C 0.99791 0.75156 0.29016 0.0
H23 H 0.9885 0.80354 0.23843 0.0
C24 C 0.99083 0.7891 0.25336 0.0
C25 C 0.99807 0.78487 0.32567 0.0
C26 C 1.00184 0.76606 0.34388 0.0
C27 C 1.00032 0.73117 0.30939 0.0
H28 H 1.00779 0.76288 0.39939 0.0
C29 C 1.0032 0.71734 0.25175 0.0
C30 C 1.00384 0.69813 0.27064 0.0
C31 C 0.99847 0.72518 0.38606 0.0
H32 H 0.99572 0.73489 0.43182 0.0
C33 C 0.99936 0.70639 0.40509 0.0
H34 H 1.00518 0.7214 0.19238 0.0
C35 C 1.00187 0.69304 0.34837 0.0
H36 H 1.00182 0.67859 0.36568 0.0
H37 H 0.99769 0.7021 0.4644 0.0
H38 H 0.77726 0.99122 0.15812 0.0
C39 C 0.7667 0.99524 0.19899 0.0
C40 C 0.74828 0.9948 0.17517 0.0
C41 C 0.77138 1.00062 0.27426 0.0
H42 H 0.71978 0.9976 0.20778 0.0
C43 C 0.73404 0.99876 0.22704 0.0
C44 C 0.73774 1.00364 0.30321 0.0
C45 C 0.75659 1.00462 0.32689 0.0
C46 C 0.79165 1.00131 0.29648 0.0
H47 H 0.75958 1.00884 0.38513 0.0
C48 C 0.80595 1.00439 0.24084 0.0
C49 C 0.825 1.00334 0.26056 0.0
C50 C 0.797 0.99782 0.37281 0.0
H51 H 0.7868 0.99496 0.41702 0.0
C52 C 0.81572 0.99725 0.39307 0.0
H53 H 0.80242 1.00778 0.18209 0.0
C54 C 0.82956 0.99983 0.33778 0.0
H55 H 0.84389 0.99861 0.35549 0.0
H56 H 0.81955 0.99437 0.45203 0.0
H57 H 0.52954 0.7721 0.16305 0.0
C58 C 0.52724 0.76213 0.20877 0.0
C59 C 0.52913 0.74332 0.19125 0.0
C60 C 0.5233 0.76802 0.28413 0.0
H61 H 0.52883 0.71537 0.23559 0.0
C62 C 0.52746 0.72996 0.24963 0.0
C63 C 0.52368 0.73498 0.32558 0.0
C64 C 0.52122 0.75406 0.34259 0.0
C65 C 0.52282 0.78866 0.30095 0.0
H66 H 0.518 0.75785 0.40115 0.0
C67 C 0.51898 0.80225 0.24287 0.0
C68 C 0.52059 0.82158 0.25757 0.0
C69 C 0.52768 0.79508 0.37446 0.0
H70 H 0.53128 0.78556 0.4202 0.0
C71 C 0.52883 0.81402 0.38981 0.0
H72 H 0.51461 0.79797 0.18626 0.0
C73 C 0.52551 0.8271 0.33224 0.0
H74 H 0.52733 0.84162 0.34614 0.0
H75 H 0.53281 0.81862 0.44658 0.0
H76 H 0.27488 0.52025 0.23409 0.0
C77 C 0.26437 0.51624 0.19296 0.0
C78 C 0.24582 0.51714 0.21547 0.0
C79 C 0.2693 0.51067 0.11821 0.0
H80 H 0.21738 0.51456 0.18044 0.0
C81 C 0.23175 0.51309 0.1628 0.0
C82 C 0.23575 0.50803 0.08715 0.0
C83 C 0.25468 0.50679 0.06472 0.0
C84 C 0.28966 0.5101 0.09686 0.0
H85 H 0.25787 0.50255 0.00664 0.0
C86 C 0.30382 0.50673 0.15265 0.0
C87 C 0.32297 0.50811 0.13366 0.0
C88 C 0.29521 0.51425 0.02125 0.0
H89 H 0.28512 0.51734 0.97714 0.0
C90 C 0.31396 0.51528 0.00175 0.0
H91 H 0.30004 0.50291 0.21078 0.0
C92 C 0.32766 0.51245 0.05708 0.0
H93 H 0.34199 0.51414 0.03972 0.0
H94 H 0.31794 0.51875 0.9434 0.0
H95 H 0.99693 0.26962 0.22855 0.0
C96 C 1.00061 0.25909 0.18737 0.0
C97 C 0.99459 0.24094 0.20236 0.0
C98 C 1.01058 0.26358 0.11982 0.0
H99 H 0.99335 0.2129 0.16114 0.0
C100 C 0.9979 0.22696 0.14854 0.0
C101 C 1.00754 0.23055 0.08016 0.0
C102 C 0.01437 0.24879 0.06708 0.0
C103 C 0.01599 0.2837 0.10359 0.0
H104 H 0.02233 0.25125 0.01538 0.0
C105 C 0.01644 0.29768 0.16207 0.0
C106 C 0.01985 0.31666 0.14407 0.0
C107 C 0.01974 0.28943 0.02756 0.0
H108 H 0.01902 0.2799 0.97996 0.0
C109 C 0.02402 0.30785 0.01027 0.0
H110 H 0.01385 0.29411 0.22143 0.0
C111 C 0.02407 0.32129 0.06745 0.0
H112 H 0.02742 0.33544 0.05123 0.0
H113 H 0.02701 0.31183 0.95146 0.0
H114 H 0.25258 0.02289 0.20368 0.0
C115 C 0.26248 0.02284 0.15698 0.0
C116 C 0.28035 0.02966 0.17156 0.0
C117 C 0.25772 0.01513 0.08537 0.0
H118 H 0.30792 0.03349 0.12553 0.0
C119 C 0.29387 0.02892 0.11358 0.0
C120 C 0.29008 0.02086 0.04241 0.0
C121 C 0.27193 0.01412 0.02796 0.0
C122 C 0.23845 1.00701 0.07447 0.0
H123 H 0.26912 1.00818 0.97226 0.0
C124 C 0.223 0.01253 0.12064 0.0
C125 C 0.20546 1.00368 0.11461 0.0
C126 C 0.23551 0.99273 0.0208 0.0
H127 H 0.2467 0.98746 0.98579 0.0
C128 C 0.21812 0.98438 0.01297 0.0
H129 H 0.22433 0.0238 0.16105 0.0
C130 C 0.2033 0.98967 0.05945 0.0
H131 H 0.19022 0.98239 0.05344 0.0
H132 H 0.21623 0.97335 0.97164 0.0
H133 H 0.52163 0.24593 0.21044 0.0
C134 C 0.51862 0.25656 0.16847 0.0
C135 C 0.52112 0.27488 0.19127 0.0
C136 C 0.51237 0.25219 0.09396 0.0
H137 H 0.52015 0.30358 0.15864 0.0
C138 C 0.51824 0.28941 0.13923 0.0
C139 C 0.5121 0.2861 0.06425 0.0
C140 C 0.50917 0.26736 0.04158 0.0
C141 C 0.50935 0.23192 0.0729 0.0
H142 H 0.50384 0.26488 0.98455 0.0
C143 C 0.50738 0.21756 0.12977 0.0
C144 C 0.50609 0.19851 0.10964 0.0
C145 C 0.5092 0.22652 0.99531 0.0
H146 H 0.51111 0.23649 0.94941 0.0
C147 C 0.50699 0.20794 0.97493 0.0
H148 H 0.50707 0.22091 0.19002 0.0
C149 C 0.50548 0.19412 0.03101 0.0
H150 H 0.50377 0.17992 0.01223 0.0
H151 H 0.50674 0.20416 0.91481 0.0
C152 C 0.99313 0.03552 0.48973 0.0
Eu153 Eu 1.00433 0.01648 0.60742 0.0
C154 C 0.98697 0.05506 0.48857 0.0
C155 C 0.96796 0.05929 0.48369 0.0
C156 C 0.96172 0.07731 0.49824 0.0
C157 C 0.97439 0.0913 0.5184 0.0
C158 C 0.99343 0.08731 0.51897 0.0
C159 C 0.99967 0.06943 0.50394 0.0
C160 C 0.98 1.00677 0.72142 0.0
C161 C 0.01766 0.04798 0.73452 0.0
C162 C 0.03037 0.98525 0.86635 0.0
Eu163 Eu 0.02276 1.00439 0.74432 0.0
C164 C 0.02422 0.96613 0.88182 0.0
C165 C 0.03721 0.95261 0.90242 0.0
C166 C 0.03246 0.93382 0.8991 0.0
C167 C 0.01469 0.92827 0.87429 0.0
C168 C 1.00138 0.94194 0.85845 0.0
C169 C 1.0061 0.96066 0.86208 0.0
C170 C 0.04742 0.01426 0.63232 0.0
C171 C 1.00989 0.97328 0.61733 0.0
O172 O 1.01069 0.0327 0.5047 0.0
O173 O 0.98233 0.02403 0.52731 0.0
O174 O 0.97805 1.00225 0.64992 0.0
O175 O 0.99468 0.01619 0.72954 0.0
O176 O 0.01236 0.04435 0.66325 0.0
O177 O 0.02155 0.03428 0.7822 0.0
O178 O 0.01729 0.99776 0.86453 0.0
O179 O 0.04197 0.98698 0.80897 0.0
O180 O 0.04936 0.01816 0.70469 0.0
O181 O 0.03263 1.00501 0.62209 0.0
O182 O 0.01205 0.97715 0.69111 0.0
O183 O 1.00891 0.98702 0.56717 0.0
H184 H 0.95787 0.0485 0.47186 0.0
H185 H 0.94698 0.08016 0.49629 0.0
H186 H 1.00353 0.09801 0.53199 0.0
H187 H 0.01442 0.06677 0.50767 0.0
H188 H 0.05127 0.95653 0.91733 0.0
H189 H 0.04288 0.92365 0.91411 0.0
H190 H 0.98763 0.93824 0.83864 0.0
H191 H 0.99583 0.97079 0.84472 0.0
C192 C 0.49213 1.00135 0.46808 0.0
Eu193 Eu 0.50845 1.00177 0.59944 0.0
C194 C 0.47374 1.00922 0.45353 0.0
C195 C 0.46021 0.99817 0.41844 0.0
C196 C 0.44146 1.00228 0.42819 0.0
C197 C 0.43604 0.0175 0.47315 0.0
C198 C 0.44962 0.02948 0.50243 0.0
C199 C 0.46835 0.02536 0.49282 0.0
C200 C 0.51636 0.97402 0.70356 0.0
C201 C 0.47759 0.01201 0.73692 0.0
C202 C 0.53758 0.01777 0.89868 0.0
Eu203 Eu 0.52162 0.01815 0.76657 0.0
C204 C 0.55368 1.00637 0.91851 0.0
C205 C 0.56755 0.01343 0.96637 0.0
C206 C 0.58473 1.00456 0.97065 0.0
C207 C 0.58826 0.98852 0.92696 0.0
C208 C 0.57396 0.98102 0.88207 0.0
C209 C 0.55689 0.98994 0.87748 0.0
C210 C 0.51316 0.04594 0.66341 0.0
C211 C 0.55234 1.00739 0.62951 0.0
O212 O 0.50542 0.01322 0.48398 0.0
O213 O 0.49177 0.98712 0.51523 0.0
O214 O 0.51218 0.97093 0.63202 0.0
O215 O 0.51688 0.99137 0.71183 0.0
O216 O 0.48129 1.0086 0.66313 0.0
O217 O 0.49081 0.01486 0.78879 0.0
O218 O 0.52209 1.00866 0.8855 0.0
O219 O 0.54114 0.03052 0.84664 0.0
O220 O 0.51751 0.04902 0.73485 0.0
O221 O 0.513 0.02859 0.65469 0.0
O222 O 0.54858 1.01025 0.7036 0.0
O223 O 0.53919 1.00521 0.57691 0.0
H224 H 0.46407 0.98556 0.38882 0.0
H225 H 0.43118 0.99307 0.40355 0.0
H226 H 0.44579 0.04131 0.53713 0.0
H227 H 0.4785 0.03399 0.52163 0.0
H228 H 0.56548 0.02633 0.99689 0.0
H229 H 0.59556 1.01087 0.00492 0.0
H230 H 0.57616 0.96861 0.84841 0.0
H231 H 0.54658 0.98455 0.83834 0.0
C232 C 0.5258 0.49524 0.48583 0.0
Eu233 Eu 0.52167 0.50675 0.62544 0.0
C234 C 0.51871 0.47851 0.44915 0.0
C235 C 0.52883 0.47035 0.38961 0.0
C236 C 0.5254 0.45192 0.36965 0.0
C237 C 0.5118 0.44158 0.40917 0.0
C238 C 0.5006 0.45034 0.46399 0.0
C239 C 0.50415 0.46865 0.48436 0.0
C240 C 0.54833 0.51556 0.73304 0.0
C241 C 0.51016 0.4739 0.75291 0.0
C242 C 0.49993 0.53224 0.92345 0.0
Eu243 Eu 0.50303 0.51772 0.78904 0.0
C244 C 0.50648 0.55096 0.9433 0.0
C245 C 0.49341 0.56421 0.96622 0.0
C246 C 0.49709 0.58308 0.95576 0.0
C247 C 0.51398 0.58894 0.92316 0.0
C248 C 0.52781 0.57581 0.90821 0.0
C249 C 0.52409 0.55695 0.91802 0.0
C250 C 0.47618 0.51013 0.68088 0.0
C251 C 0.51364 0.55032 0.66007 0.0
O252 O 0.51344 0.50768 0.50512 0.0
O253 O 0.53777 0.49185 0.54057 0.0
O254 O 0.55195 0.51157 0.66197 0.0
O255 O 0.5309 0.51534 0.73995 0.0
O256 O 0.51477 0.47845 0.68081 0.0
O257 O 0.50623 0.48658 0.8059 0.0
O258 O 0.51267 0.51985 0.90754 0.0
O259 O 0.48638 0.53228 0.87347 0.0
O260 O 0.47274 0.51435 0.75194 0.0
O261 O 0.49364 0.50955 0.6736 0.0
O262 O 0.50991 0.54597 0.73302 0.0
O263 O 0.51714 0.53755 0.6074 0.0
H264 H 0.54027 0.47773 0.36272 0.0
H265 H 0.53413 0.44541 0.3269 0.0
H266 H 0.49022 0.44259 0.49599 0.0
H267 H 0.49655 0.47454 0.53202 0.0
H268 H 0.47971 0.55993 0.98524 0.0
H269 H 0.48636 0.59305 0.96931 0.0
H270 H 0.54091 0.57999 0.88284 0.0
H271 H 0.53441 0.54711 0.89895 0.0
C272 C 0.03366 0.52144 0.49474 0.0
Eu273 Eu 0.01851 0.51651 0.62779 0.0
C274 C 0.05067 0.53174 0.47578 0.0
C275 C 0.05571 0.54744 0.51875 0.0
C276 C 0.07352 0.55495 0.51247 0.0
C277 C 0.0867 0.54678 0.46378 0.0
C278 C 0.08131 0.53154 0.41835 0.0
C279 C 0.06344 0.52412 0.42429 0.0
C280 C 0.01198 0.54306 0.73799 0.0
C281 C 0.05025 0.50648 0.75987 0.0
C282 C 0.99406 0.49568 0.93029 0.0
Eu283 Eu 1.0061 0.49789 0.79064 0.0
C284 C 0.97797 0.50499 0.96309 0.0
C285 C 0.9667 0.4955 0.01592 0.0
C286 C 0.94831 0.50096 0.02629 0.0
C287 C 0.94111 0.5158 0.98309 0.0
C288 C 0.95303 0.52644 0.93666 0.0
C289 C 0.97138 0.52109 0.92679 0.0
C290 C 0.013 0.47122 0.68173 0.0
C291 C 0.97459 0.50895 0.65959 0.0
O292 O 0.03643 0.50651 0.53652 0.0
O293 O 0.0195 0.53132 0.51849 0.0
O294 O 0.01664 0.54688 0.66754 0.0
O295 O 1.01097 0.52564 0.74341 0.0
O296 O 0.04629 0.51331 0.69055 0.0
O297 O 0.03731 0.49984 0.80721 0.0
O298 O 1.00794 0.50649 0.91014 0.0
O299 O 0.98971 0.48355 0.87734 0.0
O300 O 1.00901 0.46754 0.75309 0.0
O301 O 0.01363 0.48866 0.67503 0.0
O302 O 0.9784 0.50625 0.73393 0.0
O303 O 0.98793 0.51068 0.607 0.0
H304 H 0.04617 0.5534 0.5599 0.0
H305 H 0.07714 0.56681 0.54749 0.0
H306 H 0.09117 0.52467 0.38121 0.0
H307 H 0.05993 0.5118 0.39186 0.0
H308 H 0.97155 0.48292 0.04349 0.0
H309 H 0.93931 0.49249 0.06211 0.0
H310 H 0.94777 0.53794 0.90292 0.0
H311 H 0.9798 0.52847 0.88493 0.0
H312 H 0.16857 1.00752 0.07788 0.0
H313 H 0.14213 1.01099 0.16462 0.0
H314 H 0.17932 0.01334 0.35803 0.0
H315 H 0.20592 1.00949 0.2712 0.0
H316 H 0.15111 0.99036 0.38954 0.0
H317 H 0.15589 0.05212 0.29174 0.0
H318 H 0.15794 0.07695 0.19415 0.0
H319 H 0.10479 0.06098 0.10456 0.0
H320 H 0.10254 0.03583 0.20088 0.0
H321 H 0.08395 0.02142 0.66267 0.0
H322 H 0.11033 0.02082 0.57385 0.0
H323 H 0.07339 1.00825 0.38667 0.0
H324 H 0.04686 1.00835 0.47612 0.0
H325 H 0.10125 0.03683 0.35288 0.0
H326 H 0.09701 0.97465 0.4494 0.0
H327 H 0.09475 0.95038 0.54928 0.0
H328 H 0.147 0.96788 0.64301 0.0
H329 H 0.14943 0.99248 0.54431 0.0
C330 C 0.17119 1.00888 0.13883 0.0
C331 C 0.1895 1.00818 0.16721 0.0
C332 C 0.15599 1.011 0.18857 0.0
C333 C 0.15856 0.01254 0.26839 0.0
C334 C 0.17684 0.0122 0.29688 0.0
C335 C 0.19211 1.01018 0.24696 0.0
C336 C 0.14216 0.01377 0.32188 0.0
C337 C 0.1404 1.00074 0.382 0.0
C338 C 0.12776 0.02697 0.31161 0.0
C339 C 0.12914 0.04195 0.25305 0.0
C340 C 0.14472 0.05377 0.25074 0.0
C341 C 0.1459 0.06792 0.19573 0.0
C342 C 0.13153 0.0705 0.14304 0.0
C343 C 0.11593 0.05894 0.14532 0.0
C344 C 0.11469 0.04473 0.20013 0.0
C345 C 0.08138 0.01858 0.60257 0.0
C346 C 0.06324 0.01488 0.57665 0.0
C347 C 0.09653 0.01821 0.55178 0.0
C348 C 0.09395 0.01442 0.47337 0.0
C349 C 0.07579 0.01121 0.44679 0.0
C350 C 0.06062 0.01124 0.498 0.0
C351 C 0.11031 0.01346 0.42002 0.0
C352 C 0.11202 0.0265 0.36015 0.0
C353 C 0.12468 1.00033 0.43054 0.0
C354 C 0.12329 0.98556 0.48999 0.0
C355 C 0.10793 0.97346 0.49178 0.0
C356 C 0.10663 0.95961 0.54808 0.0
C357 C 0.12069 0.95762 0.60261 0.0
C358 C 0.1361 0.96946 0.60081 0.0
C359 C 0.13745 0.98335 0.54467 0.0
H360 H 0.11967 0.94689 0.64612 0.0
H361 H 0.13246 0.08149 0.10057 0.0
H362 H 0.49083 0.19806 0.25723 0.0
H363 H 0.49075 0.17262 0.35124 0.0
H364 H 0.52024 0.13803 0.19151 0.0
H365 H 0.52119 0.16343 0.09889 0.0
H366 H 0.49051 0.11915 0.26086 0.0
H367 H 0.54277 0.15683 0.33896 0.0
H368 H 0.55805 0.18587 0.37925 0.0
H369 H 0.52194 0.18899 0.57526 0.0
H370 H 0.50626 0.16009 0.53549 0.0
H371 H 0.51926 0.04502 0.50708 0.0
H372 H 0.51632 0.07054 0.41444 0.0
H373 H 0.4974 0.10648 0.59574 0.0
H374 H 0.50065 0.08099 0.68817 0.0
H375 H 0.52031 0.12518 0.51611 0.0
H376 H 0.467 0.08997 0.44288 0.0
H377 H 0.44932 0.06205 0.4061 0.0
H378 H 0.48439 0.05498 0.2088 0.0
H379 H 0.50212 0.08308 0.24383 0.0
C380 C 0.49754 0.18518 0.24205 0.0
C381 C 0.5059 0.18305 0.16916 0.0
C382 C 0.49736 0.17051 0.29606 0.0
C383 C 0.50543 0.15323 0.2788 0.0
C384 C 0.51372 0.15106 0.20636 0.0
C385 C 0.51412 0.16572 0.15291 0.0
C386 C 0.50554 0.13747 0.33599 0.0
C387 C 0.4972 0.12044 0.31637 0.0
C388 C 0.51374 0.13911 0.40964 0.0
C389 C 0.52322 0.15641 0.43379 0.0
C390 C 0.53799 0.16379 0.3903 0.0
C391 C 0.54674 0.18021 0.41311 0.0
C392 C 0.54093 0.1893 0.47965 0.0
C393 C 0.5264 0.18195 0.52365 0.0
C394 C 0.51759 0.16555 0.50104 0.0
C395 C 0.51391 0.05816 0.52662 0.0
C396 C 0.50971 0.06075 0.60473 0.0
C397 C 0.51232 0.0729 0.47356 0.0
C398 C 0.50633 0.09063 0.49704 0.0
C399 C 0.50204 0.0931 0.57528 0.0
C400 C 0.5038 0.07843 0.62826 0.0
C401 C 0.50528 0.10674 0.44124 0.0
C402 C 0.5135 0.12384 0.4609 0.0
C403 C 0.49665 0.10528 0.36824 0.0
C404 C 0.48598 0.0885 0.34636 0.0
C405 C 0.47098 0.08241 0.39182 0.0
C406 C 0.46094 0.06656 0.37126 0.0
C407 C 0.46584 0.05662 0.30562 0.0
C408 C 0.48065 0.06266 0.2598 0.0
C409 C 0.49064 0.0786 0.27972 0.0
H410 H 0.45811 0.04429 0.2901 0.0
H411 H 0.54773 0.20201 0.49721 0.0
H412 H 0.35784 0.49295 0.11444 0.0
H413 H 0.38371 0.49255 0.20378 0.0
H414 H 0.34899 0.51657 0.3788 0.0
H415 H 0.32323 0.5182 0.28746 0.0
H416 H 0.38045 0.53285 0.38606 0.0
H417 H 0.36446 0.46847 0.37576 0.0
H418 H 0.3577 0.43829 0.3155 0.0
H419 H 0.41232 0.4375 0.21656 0.0
H420 H 0.41933 0.4678 0.27543 0.0
H421 H 0.43916 0.51365 0.70236 0.0
H422 H 0.41414 0.51216 0.60855 0.0
H423 H 0.45378 0.50062 0.4296 0.0
H424 H 0.47911 0.50247 0.52412 0.0
H425 H 0.42082 0.47792 0.42258 0.0
H426 H 0.43646 0.54253 0.43856 0.0
H427 H 0.4428 0.57199 0.50518 0.0
H428 H 0.38779 0.57136 0.60039 0.0
H429 H 0.38121 0.54173 0.53526 0.0
C430 C 0.35559 0.4983 0.17169 0.0
C431 C 0.33822 0.50579 0.19265 0.0
C432 C 0.37048 0.49778 0.22361 0.0
C433 C 0.36852 0.5043 0.29927 0.0
C434 C 0.35108 0.5114 0.3211 0.0
C435 C 0.33618 0.51213 0.26875 0.0
C436 C 0.38476 0.50433 0.35424 0.0
C437 C 0.38903 0.52069 0.39459 0.0
C438 C 0.39653 0.48871 0.36492 0.0
C439 C 0.39235 0.4705 0.32939 0.0
C440 C 0.37498 0.46193 0.34067 0.0
C441 C 0.37112 0.44479 0.30684 0.0
C442 C 0.38456 0.43601 0.26206 0.0
C443 C 0.40191 0.44433 0.25117 0.0
C444 C 0.40585 0.46148 0.28481 0.0
C445 C 0.44268 0.51073 0.64312 0.0
C446 C 0.46132 0.50813 0.62116 0.0
C447 C 0.42825 0.50993 0.58928 0.0
C448 C 0.43192 0.50642 0.51144 0.0
C449 C 0.45049 0.50335 0.48921 0.0
C450 C 0.46504 0.50438 0.54337 0.0
C451 C 0.41629 0.50635 0.45413 0.0
C452 C 0.41218 0.49003 0.41359 0.0
C453 C 0.40454 0.52191 0.44384 0.0
C454 C 0.4084 0.53982 0.48255 0.0
C455 C 0.42576 0.54859 0.47418 0.0
C456 C 0.42939 0.56534 0.5116 0.0
C457 C 0.41572 0.57352 0.55712 0.0
C458 C 0.39837 0.565 0.56516 0.0
C459 C 0.39468 0.54823 0.52795 0.0
H460 H 0.41855 0.58649 0.58606 0.0
H461 H 0.38153 0.42274 0.23593 0.0
H462 H 1.00557 0.3517 0.12522 0.0
H463 H 1.00567 0.3776 0.21454 0.0
H464 H 0.03066 0.34291 0.38765 0.0
H465 H 0.03104 0.31677 0.29724 0.0
H466 H 1.00261 0.3649 0.44737 0.0
H467 H 0.05663 0.37489 0.28974 0.0
H468 H 0.07371 0.37845 0.16761 0.0
H469 H 0.04017 0.42547 0.1081 0.0
H470 H 0.02271 0.42203 0.22944 0.0
H471 H 0.02429 0.43598 0.70681 0.0
H472 H 0.02655 0.41045 0.61604 0.0
H473 H 1.01023 0.44715 0.43188 0.0
H474 H 1.00891 0.47319 0.52325 0.0
H475 H 0.03388 0.42401 0.37628 0.0
H476 H 0.97924 0.41443 0.52686 0.0
H477 H 0.96055 0.41117 0.64506 0.0
H478 H 0.99281 0.3639 0.7129 0.0
H479 H 0.01185 0.36702 0.59554 0.0
C480 C 0.01134 0.34949 0.18191 0.0
C481 C 0.01864 0.33201 0.20285 0.0
C482 C 0.01132 0.36443 0.23329 0.0
C483 C 0.01851 0.36249 0.30781 0.0
C484 C 0.02514 0.34491 0.3304 0.0
C485 C 0.02526 0.32988 0.27858 0.0
C486 C 0.01903 0.37885 0.36144 0.0
C487 C 1.00971 0.37771 0.43228 0.0
C488 C 0.0277 0.39593 0.34117 0.0
C489 C 0.03825 0.39809 0.2684 0.0
C490 C 0.05281 0.3859 0.25036 0.0
C491 C 0.06257 0.38791 0.18131 0.0
C492 C 0.058 0.40215 0.13005 0.0
C493 C 0.04368 0.41444 0.14783 0.0
C494 C 0.03386 0.41247 0.21676 0.0
C495 C 0.0214 0.43872 0.64676 0.0
C496 C 0.01636 0.45666 0.62247 0.0
C497 C 0.02249 0.42398 0.59472 0.0
C498 C 0.01796 0.42647 0.51677 0.0
C499 C 0.01365 0.44463 0.49157 0.0
C500 C 0.01293 0.45958 0.5438 0.0
C501 C 0.01751 0.41009 0.46279 0.0
C502 C 0.02679 0.41122 0.3917 0.0
C503 C 1.00856 0.39306 0.4823 0.0
C504 C 0.99707 0.39107 0.55273 0.0
C505 C 0.98242 0.40341 0.56722 0.0
C506 C 0.97176 0.40158 0.63404 0.0
C507 C 0.97552 0.38737 0.68654 0.0
C508 C 0.98993 0.37492 0.67222 0.0
C509 C 1.00065 0.3767 0.60553 0.0
H510 H 0.96726 0.38598 0.73825 0.0
H511 H 0.06557 0.40369 0.07662 0.0
H512 H 0.85895 0.02072 0.2747 0.0
H513 H 0.88482 0.02115 0.18411 0.0
H514 H 0.85184 0.99089 0.02027 0.0
H515 H 0.82599 0.98983 0.11216 0.0
H516 H 0.88591 0.97659 0.02565 0.0
H517 H 0.86198 0.03839 0.99961 0.0
H518 H 0.85163 0.06907 0.04446 0.0
H519 H 0.90565 0.0797 0.1385 0.0
H520 H 0.91627 0.04896 0.09507 0.0
H521 H 0.94587 0.99063 0.70438 0.0
H522 H 0.91986 0.99031 0.79487 0.0
H523 H 0.95296 0.02027 0.95935 0.0
H524 H 0.97902 0.02085 0.86809 0.0
H525 H 0.91893 0.03466 0.95372 0.0
H526 H 0.94317 0.97341 0.97985 0.0
H527 H 0.95411 0.943 0.93423 0.0
H528 H 0.90014 0.93129 0.84189 0.0
H529 H 0.88896 0.96178 0.88574 0.0
C530 C 0.85712 0.0141 0.2195 0.0
C531 C 0.84023 1.00518 0.20138 0.0
C532 C 0.87197 0.01451 0.16715 0.0
C533 C 0.87042 1.00619 0.09446 0.0
C534 C 0.85351 0.99745 0.0757 0.0
C535 C 0.83861 0.99703 0.12818 0.0
C536 C 0.88653 1.00628 0.03914 0.0
C537 C 0.89291 0.98935 0.00912 0.0
C538 C 0.8962 0.02279 0.01871 0.0
C539 C 0.88986 0.0413 0.0447 0.0
C540 C 0.87161 0.04721 0.03035 0.0
C541 C 0.8657 0.06462 0.05543 0.0
C542 C 0.87796 0.0763 0.09447 0.0
C543 C 0.89617 0.07062 0.10834 0.0
C544 C 0.90214 0.05322 0.08343 0.0
C545 C 0.94768 0.99706 0.76 0.0
C546 C 0.96458 1.00575 0.77888 0.0
C547 C 0.93276 0.99682 0.81201 0.0
C548 C 0.93434 1.00511 0.88479 0.0
C549 C 0.95127 0.01376 0.90383 0.0
C550 C 0.96623 0.01401 0.85169 0.0
C551 C 0.91826 1.00499 0.94016 0.0
C552 C 0.91191 0.0219 0.97024 0.0
C553 C 0.90868 0.98846 0.96089 0.0
C554 C 0.91527 0.96997 0.93551 0.0
C555 C 0.93366 0.9644 0.94938 0.0
C556 C 0.93991 0.94715 0.92387 0.0
C557 C 0.92784 0.93523 0.88507 0.0
C558 C 0.90948 0.94054 0.87189 0.0
C559 C 0.90318 0.95781 0.8971 0.0
H560 H 0.9327 0.92188 0.86533 0.0
H561 H 0.87336 0.08978 0.11385 0.0
H562 H 0.53058 0.82048 0.1036 0.0
H563 H 0.52934 0.84563 0.00857 0.0
H564 H 0.50458 0.88154 0.17729 0.0
H565 H 0.50481 0.85626 0.27074 0.0
H566 H 0.48943 0.88929 0.04862 0.0
H567 H 0.55311 0.88251 0.12429 0.0
H568 H 0.58261 0.86597 0.14467 0.0
H569 H 0.58566 0.85362 0.90385 0.0
H570 H 0.55605 0.86989 0.88221 0.0
H571 H 0.5094 0.97556 0.85941 0.0
H572 H 0.51027 0.94987 0.95276 0.0
H573 H 0.52817 0.91279 0.77388 0.0
H574 H 0.52748 0.93846 0.68115 0.0
H575 H 0.54693 0.90583 0.90656 0.0
H576 H 0.48318 0.9135 0.83227 0.0
H577 H 0.45435 0.93125 0.81325 0.0
H578 H 0.45206 0.94304 0.05468 0.0
H579 H 0.48105 0.92557 0.07497 0.0
C580 C 0.52453 0.83359 0.12024 0.0
C581 C 0.51805 0.83622 0.1959 0.0
C582 C 0.52408 0.84816 0.06586 0.0
C583 C 0.51732 0.86588 0.0856 0.0
C584 C 0.51007 0.86822 0.15997 0.0
C585 C 0.51038 0.85367 0.21399 0.0
C586 C 0.51809 0.88207 0.03006 0.0
C587 C 0.50212 0.89296 0.01847 0.0
C588 C 0.53446 0.887 0.98898 0.0
C589 C 0.55227 0.87724 0.00179 0.0
C590 C 0.56001 0.87615 0.07578 0.0
C591 C 0.57676 0.86684 0.08754 0.0
C592 C 0.58597 0.8587 0.02563 0.0
C593 C 0.57849 0.8599 0.95178 0.0
C594 C 0.56173 0.86918 0.93972 0.0
C595 C 0.51397 0.96206 0.84053 0.0
C596 C 0.51869 0.95918 0.76305 0.0
C597 C 0.51423 0.94726 0.89375 0.0
C598 C 0.51915 0.92919 0.87069 0.0
C599 C 0.52435 0.92648 0.79365 0.0
C600 C 0.52394 0.94122 0.74052 0.0
C601 C 0.51834 0.91297 0.92562 0.0
C602 C 0.53428 0.90211 0.93693 0.0
C603 C 0.50199 0.90816 0.9668 0.0
C604 C 0.48439 0.91838 0.95502 0.0
C605 C 0.47659 0.91998 0.88124 0.0
C606 C 0.46022 0.92998 0.87023 0.0
C607 C 0.45141 0.93832 0.93267 0.0
C608 C 0.45892 0.9366 0.00633 0.0
C609 C 0.47531 0.92664 0.01764 0.0
H610 H 0.43874 0.94608 0.924 0.0
H611 H 0.59894 0.8515 0.03485 0.0
H612 H 0.68875 0.4987 0.20683 0.0
H613 H 0.66175 0.49554 0.12187 0.0
H614 H 0.65629 0.5551 0.11378 0.0
H615 H 0.68281 0.55823 0.19961 0.0
H616 H 0.62358 0.5422 0.12397 0.0
H617 H 0.67512 0.52714 0.96048 0.0
H618 H 0.70317 0.51014 0.92085 0.0
H619 H 0.67227 0.45907 0.91981 0.0
H620 H 0.64409 0.47575 0.96038 0.0
H621 H 0.58421 0.52526 0.70849 0.0
H622 H 0.60953 0.52777 0.8009 0.0
H623 H 0.57161 0.51447 0.98516 0.0
H624 H 0.54619 0.51182 0.89188 0.0
H625 H 0.62543 0.50364 0.88901 0.0
H626 H 0.58687 0.53338 0.15211 0.0
H627 H 0.56063 0.5542 0.18082 0.0
H628 H 0.56872 0.58217 0.96491 0.0
H629 H 0.59487 0.56147 0.93478 0.0
C630 C 0.68187 0.51112 0.18649 0.0
C631 C 0.68804 0.52872 0.21072 0.0
C632 C 0.66636 0.50932 0.13763 0.0
C633 C 0.65678 0.52508 0.11022 0.0
C634 C 0.66311 0.54263 0.13402 0.0
C635 C 0.6784 0.54441 0.18332 0.0
C636 C 0.64031 0.52354 0.05675 0.0
C637 C 0.62405 0.53364 0.07291 0.0
C638 C 0.64066 0.5127 0.98881 0.0
C639 C 0.65756 0.50266 0.96426 0.0
C640 C 0.67435 0.51227 0.9523 0.0
C641 C 0.69026 0.50269 0.9296 0.0
C642 C 0.68952 0.48353 0.91804 0.0
C643 C 0.67284 0.47391 0.92893 0.0
C644 C 0.65689 0.48341 0.95173 0.0
C645 C 0.58115 0.52309 0.76885 0.0
C646 C 0.56296 0.51874 0.7927 0.0
C647 C 0.59575 0.52443 0.82185 0.0
C648 C 0.5927 0.52143 0.90078 0.0
C649 C 0.57445 0.51721 0.92506 0.0
C650 C 0.55979 0.51585 0.87165 0.0
C651 C 0.60876 0.52227 0.95635 0.0
C652 C 0.62492 0.51202 0.94058 0.0
C653 C 0.6085 0.53337 0.02343 0.0
C654 C 0.59268 0.54574 0.04089 0.0
C655 C 0.583 0.54395 0.11074 0.0
C656 C 0.56811 0.55569 0.12714 0.0
C657 C 0.56289 0.56939 0.07438 0.0
C658 C 0.5726 0.57141 0.00528 0.0
C659 C 0.58742 0.55965 0.98842 0.0
H660 H 0.55138 0.57848 0.08719 0.0
H661 H 0.70185 0.47614 0.90046 0.0
H662 H 0.02362 0.6656 0.28153 0.0
H663 H 0.02396 0.63941 0.19399 0.0
H664 H 0.98986 0.66986 0.03436 0.0
H665 H 0.98864 0.69598 0.12443 0.0
H666 H 0.97745 0.6359 0.04019 0.0
H667 H 0.03827 0.66088 0.00519 0.0
H668 H 0.06912 0.67261 0.04275 0.0
H669 H 0.08203 0.61989 0.145 0.0
H670 H 0.05116 0.60791 0.10895 0.0
H671 H 0.99815 0.57758 0.71663 0.0
H672 H 0.99564 0.60292 0.80931 0.0
H673 H 0.017 0.56716 0.98713 0.0
H674 H 0.01915 0.5415 0.89417 0.0
H675 H 0.03559 0.6032 0.97198 0.0
H676 H 0.97393 0.57884 0.00747 0.0
H677 H 0.94306 0.56768 0.96724 0.0
H678 H 0.93261 0.61977 0.85509 0.0
H679 H 0.96335 0.63134 0.89545 0.0
C680 C 0.0161 0.66684 0.22797 0.0
C681 C 1.00596 0.68307 0.21101 0.0
C682 C 0.01651 0.65178 0.17709 0.0
C683 C 1.00711 0.65246 0.10636 0.0
C684 C 0.99727 0.6688 0.08826 0.0
C685 C 0.99676 0.6839 0.13963 0.0
C686 C 1.00719 0.63595 0.05297 0.0
C687 C 0.99025 0.62899 0.0246 0.0
C688 C 0.02375 0.6264 0.0331 0.0
C689 C 0.04232 0.63356 0.05502 0.0
C690 C 0.04763 0.65183 0.03623 0.0
C691 C 0.06513 0.65852 0.05715 0.0
C692 C 0.07751 0.64702 0.09642 0.0
C693 C 0.07242 0.62879 0.11468 0.0
C694 C 0.05493 0.62204 0.09395 0.0
C695 C 1.00199 0.57498 0.77585 0.0
C696 C 1.00861 0.5574 0.79815 0.0
C697 C 1.00055 0.58952 0.82889 0.0
C698 C 1.00608 0.58707 0.90562 0.0
C699 C 0.01256 0.56945 0.92845 0.0
C700 C 0.01362 0.55471 0.87547 0.0
C701 C 1.00592 0.60323 0.96002 0.0
C702 C 0.02284 0.61014 0.98807 0.0
C703 C 0.98941 0.61283 0.9789 0.0
C704 C 0.97101 0.60589 0.95385 0.0
C705 C 0.96511 0.58786 0.97371 0.0
C706 C 0.94762 0.58147 0.95103 0.0
C707 C 0.93595 0.59294 0.90807 0.0
C708 C 0.94168 0.61088 0.88821 0.0
C709 C 0.9591 0.61739 0.91128 0.0
H710 H 0.92243 0.58794 0.89047 0.0
H711 H 0.09105 0.65222 0.11255 0.0
H712 H 0.96256 0.22148 0.22295 0.0
H713 H 0.95261 0.20591 0.34016 0.0
H714 H 0.99623 0.23345 0.46619 0.0
H715 H 1.00653 0.24878 0.34744 0.0
H716 H 1.00063 0.1983 0.4752 0.0
H717 H 0.95 0.23526 0.53364 0.0
H718 H 0.92254 0.25502 0.51488 0.0
H719 H 0.8923 0.20866 0.4238 0.0
H720 H 0.91963 0.18866 0.44075 0.0
H721 H 0.98444 0.11253 0.64076 0.0
H722 H 0.98077 0.14611 0.65185 0.0
H723 H 0.9469 0.14643 0.44791 0.0
H724 H 0.95055 0.11289 0.43646 0.0
H725 H 0.93785 0.17547 0.54606 0.0
H726 H 0.9947 0.14624 0.4365 0.0
H727 H 0.02174 0.12577 0.45471 0.0
H728 H 0.03986 0.159 0.64477 0.0
H729 H 0.01303 0.17975 0.62674 0.0
C730 C 0.96963 0.22468 0.27619 0.0
C731 C 0.98551 0.236 0.27607 0.0
C732 C 0.96378 0.21597 0.34367 0.0
C733 C 0.97365 0.21848 0.41247 0.0
C734 C 0.98837 0.23132 0.41394 0.0
C735 C 0.99424 0.24008 0.34614 0.0
C736 C 0.97134 0.2045 0.47475 0.0
C737 C 0.98693 0.19378 0.49348 0.0
C738 C 0.95355 0.19853 0.49933 0.0
C739 C 0.93693 0.21042 0.48872 0.0
C740 C 0.93753 0.22928 0.50923 0.0
C741 C 0.92197 0.24053 0.49893 0.0
C742 C 0.90568 0.2331 0.46824 0.0
C743 C 0.90491 0.21439 0.44779 0.0
C744 C 0.92043 0.20306 0.45796 0.0
C745 C 0.97573 0.11973 0.59977 0.0
C746 C 0.96817 0.11029 0.53654 0.0
C747 C 0.97344 0.13886 0.60686 0.0
C748 C 0.96378 0.14879 0.55027 0.0
C749 C 0.9544 0.13903 0.49232 0.0
C750 C 0.95659 0.11988 0.48546 0.0
C751 C 0.96689 0.16895 0.53973 0.0
C752 C 0.95154 0.18068 0.53125 0.0
C753 C 0.98491 0.17597 0.52449 0.0
C754 C 1.00169 0.16428 0.53152 0.0
C755 C 1.0045 0.14918 0.48203 0.0
C756 C 0.01978 0.13754 0.49224 0.0
C757 C 0.03245 0.141 0.5512 0.0
C758 C 0.02999 0.15627 0.59938 0.0
C759 C 0.01476 0.16797 0.58919 0.0
H760 H 0.04421 0.13191 0.55935 0.0
H761 H 0.89365 0.24184 0.46029 0.0
H762 H 0.30238 0.05873 0.21605 0.0
H763 H 0.32054 0.05961 0.33411 0.0
H764 H 0.28915 0.01336 0.42423 0.0
H765 H 0.27144 0.01187 0.30574 0.0
H766 H 0.31976 0.0526 0.51577 0.0
H767 H 0.31431 0.98364 0.39929 0.0
H768 H 0.30537 0.96636 0.28253 0.0
H769 H 0.33316 1.007 0.1418 0.0
H770 H 0.342 0.02453 0.25785 0.0
H771 H 0.41166 0.99133 0.52429 0.0
H772 H 0.37809 0.99452 0.53778 0.0
H773 H 0.38253 0.05281 0.48304 0.0
H774 H 0.41611 0.04966 0.46842 0.0
H775 H 0.35995 1.00259 0.41383 0.0
H776 H 0.34424 0.07617 0.54436 0.0
H777 H 0.35409 0.09472 0.65577 0.0
H778 H 0.37137 0.04523 0.77291 0.0
H779 H 0.36128 0.02627 0.66338 0.0
C780 C 0.29883 0.04924 0.2623 0.0
C781 C 0.28595 0.03483 0.25058 0.0
C782 C 0.30898 0.04999 0.33036 0.0
C783 C 0.30632 0.03635 0.38708 0.0
C784 C 0.29133 0.02402 0.38097 0.0
C785 C 0.28127 0.02313 0.31268 0.0
C786 C 0.32257 0.03079 0.43266 0.0
C787 C 0.32855 0.04153 0.49493 0.0
C788 C 0.33371 0.01608 0.40593 0.0
C789 C 0.32875 1.00533 0.3367 0.0
C790 C 0.31851 0.9888 0.34333 0.0
C791 C 0.31341 0.97903 0.27737 0.0
C792 C 0.31864 0.98561 0.20475 0.0
C793 C 0.32906 1.00194 0.19797 0.0
C794 C 0.33408 0.01181 0.26371 0.0
C795 C 0.40548 1.00488 0.51624 0.0
C796 C 0.41631 0.02015 0.49295 0.0
C797 C 0.38639 1.00674 0.5255 0.0
C798 C 0.37784 0.02388 0.51203 0.0
C799 C 0.38886 0.0395 0.49512 0.0
C800 C 0.40801 0.03766 0.48586 0.0
C801 C 0.35768 0.02455 0.49727 0.0
C802 C 0.35099 0.01303 0.43884 0.0
C803 C 0.34605 0.03842 0.52849 0.0
C804 C 0.35204 0.04978 0.59512 0.0
C805 C 0.35 0.06919 0.5941 0.0
C806 C 0.35565 0.07979 0.65704 0.0
C807 C 0.36335 0.07115 0.72146 0.0
C808 C 0.3654 0.05189 0.7231 0.0
C809 C 0.35975 0.04121 0.66049 0.0
H810 H 0.36772 0.07937 0.77011 0.0
H811 H 0.31466 0.97803 0.1538 0.0
H812 H 0.55103 0.29135 0.25798 0.0
H813 H 0.54808 0.31266 0.3656 0.0
H814 H 0.49295 0.29191 0.41034 0.0
H815 H 0.49621 0.26999 0.305 0.0
H816 H 0.50181 0.32496 0.29787 0.0
H817 H 0.50671 0.30287 0.55358 0.0
H818 H 0.52 0.28811 0.66892 0.0
H819 H 0.56473 0.32761 0.66769 0.0
H820 H 0.55188 0.34249 0.55188 0.0
H821 H 0.48149 0.41904 0.3924 0.0
H822 H 0.48099 0.38497 0.39786 0.0
H823 H 0.54054 0.38451 0.423 0.0
H824 H 0.54112 0.41838 0.41783 0.0
H825 H 0.52254 0.36044 0.52555 0.0
H826 H 0.52505 0.37496 0.25646 0.0
H827 H 0.51551 0.38973 0.13477 0.0
H828 H 0.46196 0.36374 0.15256 0.0
H829 H 0.47117 0.34889 0.27485 0.0
C830 C 0.53891 0.29035 0.2947 0.0
C831 C 0.52366 0.2795 0.27273 0.0
C832 C 0.53725 0.30241 0.35675 0.0
C833 C 0.52009 0.30416 0.39428 0.0
C834 C 0.50629 0.29074 0.38197 0.0
C835 C 0.5081 0.27834 0.32115 0.0
C836 C 0.51411 0.32322 0.41066 0.0
C837 C 0.50573 0.33261 0.349 0.0
C838 C 0.52005 0.33315 0.47578 0.0
C839 C 0.52837 0.32372 0.54341 0.0
C840 C 0.51953 0.30826 0.57716 0.0
C841 C 0.52694 0.29993 0.64296 0.0
C842 C 0.54319 0.30692 0.67567 0.0
C843 C 0.55212 0.32223 0.64245 0.0
C844 C 0.54476 0.33063 0.57675 0.0
C845 C 0.49444 0.41159 0.39845 0.0
C846 C 0.51136 0.42121 0.40352 0.0
C847 C 0.49413 0.39224 0.40206 0.0
C848 C 0.51072 0.38238 0.41153 0.0
C849 C 0.5276 0.39197 0.41645 0.0
C850 C 0.52794 0.41124 0.41209 0.0
C851 C 0.51073 0.36197 0.41209 0.0
C852 C 0.51805 0.35254 0.47599 0.0
C853 C 0.50446 0.3519 0.34791 0.0
C854 C 0.49865 0.36113 0.27551 0.0
C855 C 0.51115 0.3726 0.23497 0.0
C856 C 0.50584 0.38093 0.16578 0.0
C857 C 0.48809 0.37781 0.13636 0.0
C858 C 0.47565 0.36625 0.1758 0.0
C859 C 0.48092 0.35786 0.24499 0.0
H860 H 0.48405 0.38422 0.08266 0.0
H861 H 0.54886 0.30051 0.72681 0.0
H862 H 0.22396 0.49899 0.31715 0.0
H863 H 0.20528 0.5137 0.41524 0.0
H864 H 0.23682 0.56441 0.38745 0.0
H865 H 0.25516 0.54968 0.28586 0.0
H866 H 0.2017 0.53266 0.53799 0.0
H867 H 0.20569 0.59898 0.36413 0.0
H868 H 0.21884 0.61088 0.24212 0.0
H869 H 0.21166 0.55726 0.13919 0.0
H870 H 0.19794 0.54529 0.25967 0.0
H871 H 0.10757 0.55774 0.58771 0.0
H872 H 0.141 0.5636 0.59063 0.0
H873 H 0.14378 0.55419 0.34597 0.0
H874 H 0.11043 0.54975 0.34189 0.0
H875 H 0.16781 0.57811 0.37673 0.0
H876 H 0.14825 0.52033 0.49448 0.0
H877 H 0.13528 0.49822 0.58903 0.0
H878 H 0.17109 0.52036 0.76299 0.0
H879 H 0.18349 0.54331 0.67086 0.0
C880 C 0.2274 0.51302 0.3343 0.0
C881 C 0.24047 0.52345 0.29273 0.0
C882 C 0.21682 0.52145 0.39094 0.0
C883 C 0.2192 0.54041 0.40676 0.0
C884 C 0.23448 0.54989 0.37476 0.0
C885 C 0.24499 0.54146 0.317 0.0
C886 C 0.20311 0.55051 0.43903 0.0
C887 C 0.19441 0.54305 0.50435 0.0
C888 C 0.19358 0.56393 0.39445 0.0
C889 C 0.20109 0.57123 0.32104 0.0
C890 C 0.20683 0.58981 0.31522 0.0
C891 C 0.21433 0.59656 0.24631 0.0
C892 C 0.21611 0.58483 0.18298 0.0
C893 C 0.21025 0.56636 0.18819 0.0
C894 C 0.20251 0.55962 0.25657 0.0
C895 C 0.11522 0.55757 0.53411 0.0
C896 C 0.10636 0.553 0.46456 0.0
C897 C 0.13438 0.56075 0.5361 0.0
C898 C 0.14502 0.55902 0.46889 0.0
C899 C 0.13596 0.55563 0.39883 0.0
C900 C 0.11686 0.5528 0.39661 0.0
C901 C 0.16562 0.55862 0.47072 0.0
C902 C 0.17527 0.56845 0.41326 0.0
C903 C 0.17553 0.54617 0.51875 0.0
C904 C 0.16643 0.5339 0.57623 0.0
C905 C 0.15292 0.5209 0.55353 0.0
C906 C 0.14568 0.5082 0.60671 0.0
C907 C 0.15222 0.50803 0.68217 0.0
C908 C 0.16577 0.52074 0.705 0.0
C909 C 0.1728 0.5337 0.6525 0.0
H910 H 0.147 0.49787 0.72259 0.0
H911 H 0.22201 0.59005 0.12986 0.0
H912 H 1.00315 0.7631 0.06599 0.0
H913 H 1.0039 0.78046 0.94539 0.0
H914 H 0.96237 0.81774 0.03274 0.0
H915 H 0.96121 0.80022 0.15287 0.0
H916 H 0.9683 0.81517 0.85213 0.0
H917 H 1.00081 0.8364 0.1047 0.0
H918 H 0.01778 0.82648 0.22074 0.0
H919 H 0.05253 0.79145 0.08319 0.0
H920 H 0.03589 0.8015 0.96615 0.0
H921 H 0.98166 0.91028 0.90172 0.0
H922 H 0.97535 0.87717 0.89249 0.0
H923 H 0.03131 0.86778 0.81465 0.0
H924 H 0.03754 0.90111 0.81923 0.0
H925 H 0.02299 0.85022 0.94741 0.0
H926 H 0.9978 0.85403 0.70048 0.0
H927 H 0.97919 0.86624 0.59335 0.0
H928 H 0.92906 0.85392 0.71705 0.0
H929 H 0.94731 0.84197 0.82603 0.0
C930 C 0.99335 0.77429 0.05784 0.0
C931 C 0.98255 0.78072 0.11948 0.0
C932 C 0.99373 0.78414 0.98857 0.0
C933 C 0.98346 0.80053 0.98103 0.0
C934 C 0.9704 0.8051 0.0376 0.0
C935 C 0.96996 0.79524 0.10669 0.0
C936 C 0.99081 0.81577 0.93304 0.0
C937 C 0.98043 0.82276 0.87138 0.0
C938 C 1.00679 0.82541 0.95796 0.0
C939 C 0.01715 0.81962 0.02722 0.0
C940 C 0.01214 0.82665 0.09942 0.0
C941 C 0.02169 0.82102 0.16525 0.0
C942 C 0.03619 0.80827 0.15943 0.0
C943 C 0.04128 0.80129 0.08761 0.0
C944 C 0.03187 0.80702 0.02149 0.0
C945 C 0.99248 0.90133 0.87997 0.0
C946 C 1.01025 0.90835 0.86262 0.0
C947 C 0.98879 0.88238 0.87424 0.0
C948 C 1.00282 0.8701 0.85179 0.0
C949 C 0.02026 0.87712 0.83085 0.0
C950 C 0.02388 0.89611 0.83526 0.0
C951 C 1.00037 0.85006 0.86648 0.0
C952 C 0.01151 0.84228 0.92385 0.0
C953 C 0.98516 0.83988 0.83699 0.0
C954 C 0.97398 0.84711 0.77179 0.0
C955 C 0.98281 0.85403 0.70529 0.0
C956 C 0.97232 0.86089 0.64407 0.0
C957 C 0.95297 0.86083 0.64824 0.0
C958 C 0.94406 0.85393 0.71381 0.0
C959 C 0.95447 0.84708 0.77537 0.0
H960 H 0.94489 0.86614 0.60067 0.0
H961 H 0.04351 0.80383 0.21048 0.0
H962 H 0.73077 0.01658 0.07289 0.0
H963 H 0.711 1.00533 0.97063 0.0
H964 H 0.73426 0.95048 0.9963 0.0
H965 H 0.75367 0.9618 0.10202 0.0
H966 H 0.70468 0.98758 0.84669 0.0
H967 H 0.70035 0.92131 0.01866 0.0
H968 H 0.71088 0.90812 0.14247 0.0
H969 H 0.70704 0.96187 0.24697 0.0
H970 H 0.69625 0.97523 0.12418 0.0
H971 H 0.60697 0.97517 0.80129 0.0
H972 H 0.6394 0.96528 0.79521 0.0
H973 H 0.64481 0.97527 0.03866 0.0
H974 H 0.61236 0.98397 0.04584 0.0
H975 H 0.66406 0.94708 0.00562 0.0
H976 H 0.65241 1.00682 0.8878 0.0
H977 H 0.64236 0.02998 0.79217 0.0
H978 H 0.6772 1.00476 0.62233 0.0
H979 H 0.68631 0.98059 0.71482 0.0
C980 C 0.73227 1.00233 0.05417 0.0
C981 C 0.74319 0.98988 0.09611 0.0
C982 C 0.72105 0.99587 0.99522 0.0
C983 C 0.72063 0.97686 0.97774 0.0
C984 C 0.73406 0.96511 0.01028 0.0
C985 C 0.74518 0.97157 0.07037 0.0
C986 C 0.70325 0.96934 0.94447 0.0
C987 C 0.69585 0.97826 0.87972 0.0
C988 C 0.69171 0.95733 0.98831 0.0
C989 C 0.69774 0.94924 0.06238 0.0
C990 C 0.70171 0.93024 0.06824 0.0
C991 C 0.70771 0.92276 0.13817 0.0
C992 C 0.70968 0.93416 0.20248 0.0
C993 C 0.70553 0.95305 0.19718 0.0
C994 C 0.69943 0.96057 0.12757 0.0
C995 C 0.61495 0.97468 0.85392 0.0
C996 C 0.60716 0.98053 0.92412 0.0
C997 C 0.63351 0.96916 0.85013 0.0
C998 C 0.64462 0.96971 0.9162 0.0
C999 C 0.63655 0.97465 0.98678 0.0
C1000 C 0.61803 0.9799 0.99077 0.0
C1001 C 0.66498 0.96697 0.91288 0.0
C1002 C 0.67297 0.9556 0.96937 0.0
C1003 C 0.67669 0.97802 0.86538 0.0
C1004 C 0.66957 0.99146 0.80773 0.0
C1005 C 0.65738 1.00576 0.82924 0.0
C1006 C 0.65183 0.01908 0.77544 0.0
C1007 C 0.65887 0.01865 0.70067 0.0
C1008 C 0.67133 1.0048 0.6794 0.0
C1009 C 0.67655 0.99117 0.73229 0.0
H1010 H 0.65493 0.02922 0.65961 0.0
H1011 H 0.71437 0.92834 0.25646 0.0
H1012 H 0.50978 0.75372 0.06344 0.0
H1013 H 0.50866 0.73679 0.94178 0.0
H1014 H 0.55365 0.70205 0.01868 0.0
H1015 H 0.55503 0.7191 0.13896 0.0
H1016 H 0.55122 0.70303 0.85862 0.0
H1017 H 0.51017 0.69377 0.08771 0.0
H1018 H 0.48654 0.70546 0.17798 0.0
H1019 H 0.45063 0.71854 0.98878 0.0
H1020 H 0.4742 0.70712 0.89748 0.0
H1021 H 0.54385 0.61121 0.95036 0.0
H1022 H 0.54688 0.64422 0.92089 0.0
H1023 H 0.4934 0.64343 0.80947 0.0
H1024 H 0.49021 0.61037 0.84035 0.0
H1025 H 0.49363 0.66772 0.91639 0.0
H1026 H 0.53231 0.65554 0.71391 0.0
H1027 H 0.55663 0.64211 0.63229 0.0
H1028 H 0.59851 0.66643 0.7756 0.0
H1029 H 0.57441 0.67987 0.85843 0.0
C1030 C 0.51998 0.74304 0.05268 0.0
C1031 C 0.53211 0.73725 0.11117 0.0
C1032 C 0.51938 0.73345 0.98306 0.0
C1033 C 0.53077 0.71791 0.97205 0.0
C1034 C 0.54466 0.71394 0.02603 0.0
C1035 C 0.54528 0.7235 0.0953 0.0
C1036 C 0.52522 0.70287 0.91922 0.0
C1037 C 0.53859 0.69526 0.8699 0.0
C1038 C 0.50828 0.69329 0.93133 0.0
C1039 C 0.49401 0.69991 0.9859 0.0
C1040 C 0.49726 0.69922 0.06549 0.0
C1041 C 0.48389 0.7058 0.11679 0.0
C1042 C 0.46712 0.71281 0.0891 0.0
C1043 C 0.46367 0.71319 0.01009 0.0
C1044 C 0.47704 0.70671 0.95853 0.0
C1045 C 0.53292 0.61803 0.9184 0.0
C1046 C 0.51661 0.60846 0.89938 0.0
C1047 C 0.53474 0.63683 0.90056 0.0
C1048 C 0.52041 0.64629 0.86241 0.0
C1049 C 0.50461 0.63641 0.83897 0.0
C1050 C 0.5027 0.61764 0.85752 0.0
C1051 C 0.52049 0.66684 0.86166 0.0
C1052 C 0.50594 0.67559 0.90066 0.0
C1053 C 0.5365 0.67717 0.84087 0.0
C1054 C 0.55136 0.66898 0.79197 0.0
C1055 C 0.54666 0.65808 0.72795 0.0
C1056 C 0.56045 0.65042 0.68149 0.0
C1057 C 0.57912 0.65348 0.69855 0.0
C1058 C 0.58402 0.66417 0.76218 0.0
C1059 C 0.57025 0.67189 0.80876 0.0
H1060 H 0.58981 0.64752 0.6626 0.0
H1061 H 0.45677 0.71788 0.12888 0.0
H1062 H 0.77028 0.52821 0.07149 0.0
H1063 H 0.79035 0.53089 0.95935 0.0
H1064 H 0.81698 0.47949 0.02195 0.0
H1065 H 0.79673 0.47662 0.13306 0.0
H1066 H 0.82281 0.53665 0.02421 0.0
H1067 H 0.84713 0.46541 0.89464 0.0
H1068 H 0.83349 0.43973 0.8206 0.0
H1069 H 0.78999 0.47558 0.74178 0.0
H1070 H 0.80349 0.50159 0.81442 0.0
H1071 H 0.91498 0.51682 0.09711 0.0
H1072 H 0.88126 0.51709 0.08075 0.0
H1073 H 0.8883 0.51798 0.83455 0.0
H1074 H 0.92179 0.51806 0.85045 0.0
H1075 H 0.86249 0.4953 0.86816 0.0
H1076 H 0.87518 0.55792 0.94208 0.0
H1077 H 0.88857 0.58279 0.02117 0.0
H1078 H 0.85725 0.56356 0.21623 0.0
H1079 H 0.84381 0.53843 0.1385 0.0
C1080 C 0.77955 0.51685 0.05847 0.0
C1081 C 0.78254 0.50255 0.11218 0.0
C1082 C 0.791 0.51838 0.994 0.0
C1083 C 0.80556 0.50574 0.98373 0.0
C1084 C 0.80595 0.48952 0.02879 0.0
C1085 C 0.79449 0.48796 0.09306 0.0
C1086 C 0.82341 0.51243 0.95177 0.0
C1087 C 0.83137 0.52786 0.98836 0.0
C1088 C 0.83451 0.50117 0.90417 0.0
C1089 C 0.82637 0.48552 0.86011 0.0
C1090 C 0.83475 0.46791 0.86103 0.0
C1091 C 0.827 0.45325 0.81943 0.0
C1092 C 0.81088 0.45602 0.77652 0.0
C1093 C 0.80246 0.47344 0.77516 0.0
C1094 C 0.81014 0.48814 0.81669 0.0
C1095 C 0.90925 0.51752 0.03967 0.0
C1096 C 0.92091 0.51791 0.97515 0.0
C1097 C 0.89005 0.51774 0.03025 0.0
C1098 C 0.88227 0.51842 0.95622 0.0
C1099 C 0.89395 0.51835 0.89194 0.0
C1100 C 0.9131 0.51838 0.90124 0.0
C1101 C 0.86192 0.51841 0.94642 0.0
C1102 C 0.85372 0.50443 0.90158 0.0
C1103 C 0.85053 0.53089 0.98729 0.0
C1104 C 0.85834 0.54632 0.0339 0.0
C1105 C 0.87107 0.559 1.00162 0.0
C1106 C 0.87872 0.57314 0.04638 0.0
C1107 C 0.87372 0.5748 0.12363 0.0
C1108 C 0.86105 0.56232 0.15628 0.0
C1109 C 0.85337 0.54815 0.11177 0.0
H1110 H 0.87968 0.58574 0.15822 0.0
H1111 H 0.80491 0.44466 0.74435 0.0
H1112 H 0.03958 0.21774 0.00954 0.0
H1113 H 0.04339 0.1888 0.93631 0.0
H1114 H 0.9847 0.17802 0.95664 0.0
H1115 H 0.98087 0.20684 0.02756 0.0
H1116 H 0.03893 0.15425 0.97656 0.0
H1117 H 0.96826 0.15098 0.81232 0.0
H1118 H 0.94699 0.17182 0.74266 0.0
H1119 H 0.99107 0.21133 0.71035 0.0
H1120 H 0.01268 0.19063 0.77868 0.0
H1121 H 0.01836 0.06071 0.88325 0.0
H1122 H 0.01839 0.09276 0.92852 0.0
H1123 H 0.01929 0.11242 0.69408 0.0
H1124 H 0.0187 0.08027 0.64877 0.0
H1125 H 0.99745 0.13354 0.76663 0.0
H1126 H 0.05883 0.11383 0.82223 0.0
H1127 H 0.08337 0.09371 0.87485 0.0
H1128 H 0.06268 0.10253 0.10325 0.0
H1129 H 0.03786 0.12252 0.05192 0.0
C1130 C 0.02745 0.20943 0.99655 0.0
C1131 C 1.00992 0.21474 0.02453 0.0
C1132 C 0.02964 0.19272 0.95529 0.0
C1133 C 0.01434 0.181 0.94006 0.0
C1134 C 0.99677 0.18671 0.96591 0.0
C1135 C 0.9946 0.20327 0.00705 0.0
C1136 C 0.01666 0.16238 0.90154 0.0
C1137 C 0.02985 0.14981 0.93049 0.0
C1138 C 1.00519 0.15642 0.83998 0.0
C1139 C 0.99208 0.16927 0.80122 0.0
C1140 C 0.97341 0.16414 0.79059 0.0
C1141 C 0.96129 0.17593 0.75124 0.0
C1142 C 0.96765 0.19293 0.72242 0.0
C1143 C 0.98613 0.19821 0.73312 0.0
C1144 C 0.99831 0.18647 0.77234 0.0
C1145 C 0.01869 0.07182 0.84114 0.0
C1146 C 0.01852 0.06774 0.76205 0.0
C1147 C 0.0188 0.09029 0.86724 0.0
C1148 C 0.01915 0.10535 0.81523 0.0
C1149 C 0.019 0.10127 0.73606 0.0
C1150 C 0.01866 0.08278 0.70996 0.0
C1151 C 0.01927 0.12521 0.84342 0.0
C1152 C 1.00654 0.13801 0.81253 0.0
C1153 C 0.03146 0.13154 0.90194 0.0
C1154 C 0.04639 0.11956 0.93312 0.0
C1155 C 0.05944 0.11139 0.88363 0.0
C1156 C 0.07341 0.10002 0.91324 0.0
C1157 C 0.07456 0.09681 0.99233 0.0
C1158 C 0.06177 0.10501 0.042 0.0
C1159 C 0.04776 0.11638 0.01268 0.0
H1160 H 0.08539 0.08801 0.01515 0.0
H1161 H 0.95828 0.20198 0.69153 0.0
H1162 H 0.30954 0.98922 0.01215 0.0
H1163 H 0.34045 0.98706 0.9532 0.0
H1164 H 0.33819 0.04521 0.89419 0.0
H1165 H 0.30775 0.04747 0.95669 0.0
H1166 H 0.35782 0.9912 0.82389 0.0
H1167 H 0.37983 0.06565 0.90802 0.0
H1168 H 0.37185 0.08928 0.00466 0.0
H1169 H 0.35344 0.04654 0.15997 0.0
H1170 H 0.36162 0.02262 0.06487 0.0
H1171 H 0.44568 1.01004 0.64903 0.0
H1172 H 0.41335 0.01123 0.69188 0.0
H1173 H 0.4316 0.01586 0.92683 0.0
H1174 H 0.46388 0.01539 0.88409 0.0
H1175 H 0.40412 0.03744 0.91242 0.0
H1176 H 0.41363 0.97461 0.84495 0.0
H1177 H 0.42251 0.94819 0.7635 0.0
H1178 H 0.37976 0.96239 0.60238 0.0
H1179 H 0.37084 0.98916 0.68225 0.0
C1180 C 0.31544 1.0014 0.98459 0.0
C1181 C 0.30605 0.01846 0.98817 0.0
C1182 C 0.33322 1.0002 0.95117 0.0
C1183 C 0.3421 0.01605 0.92032 0.0
C1184 C 0.33207 0.03282 0.91909 0.0
C1185 C 0.31446 0.03407 0.95374 0.0
C1186 C 0.36211 0.01533 0.89414 0.0
C1187 C 0.36788 1.0014 0.84299 0.0
C1188 C 0.37566 0.02818 0.92052 0.0
C1189 C 0.37119 0.04238 0.97901 0.0
C1190 C 0.37419 0.06129 0.96299 0.0
C1191 C 0.36962 0.07472 0.01748 0.0
C1192 C 0.3621 0.0694 0.08834 0.0
C1193 C 0.35923 0.05062 0.10504 0.0
C1194 C 0.36384 0.03713 0.05088 0.0
C1195 C 0.44287 0.01141 0.70982 0.0
C1196 C 0.45763 0.01267 0.76276 0.0
C1197 C 0.42424 0.01195 0.73451 0.0
C1198 C 0.41973 0.01341 0.81315 0.0
C1199 C 0.43446 0.01478 0.8659 0.0
C1200 C 0.45306 0.01443 0.84121 0.0
C1201 C 0.3998 0.01354 0.84071 0.0
C1202 C 0.39407 0.0273 0.89267 0.0
C1203 C 0.38647 1.00014 0.81715 0.0
C1204 C 0.39175 0.98406 0.76901 0.0
C1205 C 0.40624 0.97222 0.79175 0.0
C1206 C 0.41127 0.95718 0.74591 0.0
C1207 C 0.40177 0.95369 0.67757 0.0
C1208 C 0.38716 0.96518 0.65515 0.0
C1209 C 0.38212 0.9803 0.70067 0.0
H1210 H 0.40567 0.94202 0.64215 0.0
H1211 H 0.35852 0.07982 0.13037 0.0
H1212 H 0.5249 0.29438 0.917 0.0
H1213 H 0.52312 0.32443 0.84931 0.0
H1214 H 0.48979 0.34625 0.03367 0.0
H1215 H 0.49112 0.3164 0.09955 0.0
H1216 H 0.47771 0.36105 0.91094 0.0
H1217 H 0.53965 0.35398 0.01198 0.0
H1218 H 0.56987 0.33845 0.02743 0.0
H1219 H 0.57984 0.34315 0.78479 0.0
H1220 H 0.54952 0.35845 0.7677 0.0
H1221 H 0.49615 0.45822 0.88599 0.0
H1222 H 0.49508 0.42549 0.92379 0.0
H1223 H 0.52138 0.41042 0.71069 0.0
H1224 H 0.52235 0.44323 0.67193 0.0
H1225 H 0.53679 0.39136 0.83362 0.0
H1226 H 0.47616 0.40209 0.73637 0.0
H1227 H 0.44614 0.41801 0.7229 0.0
H1228 H 0.43353 0.40658 0.95969 0.0
H1229 H 0.46359 0.39081 0.97488 0.0
C1230 C 0.51682 0.30546 0.94207 0.0
C1231 C 0.50824 0.30285 0.01416 0.0
C1232 C 0.51603 0.32283 0.90387 0.0
C1233 C 0.50673 0.33812 0.93694 0.0
C1234 C 0.49725 0.33504 0.00658 0.0
C1235 C 0.49801 0.31781 0.04444 0.0
C1236 C 0.50729 0.35746 0.90188 0.0
C1237 C 0.49071 0.36765 0.89477 0.0
C1238 C 0.52406 0.3663 0.87849 0.0
C1239 C 0.54228 0.3572 0.88851 0.0
C1240 C 0.54825 0.35159 0.96188 0.0
C1241 C 0.56538 0.34283 0.9709 0.0
C1242 C 0.57673 0.33975 0.90707 0.0
C1243 C 0.571 0.34548 0.83409 0.0
C1244 C 0.55385 0.35421 0.8247 0.0
C1245 C 0.5017 0.44802 0.84676 0.0
C1246 C 0.50933 0.45363 0.77556 0.0
C1247 C 0.50102 0.42917 0.86854 0.0
C1248 C 0.50805 0.41521 0.82025 0.0
C1249 C 0.51585 0.42075 0.74941 0.0
C1250 C 0.51633 0.43962 0.7271 0.0
C1251 C 0.50727 0.39498 0.84412 0.0
C1252 C 0.5238 0.38469 0.84924 0.0
C1253 C 0.49045 0.38606 0.86596 0.0
C1254 C 0.47228 0.39547 0.85706 0.0
C1255 C 0.46708 0.40312 0.78581 0.0
C1256 C 0.45002 0.41209 0.7778 0.0
C1257 C 0.43796 0.41337 0.84047 0.0
C1258 C 0.44291 0.40562 0.91123 0.0
C1259 C 0.45996 0.39666 0.91956 0.0
H1260 H 0.42476 0.42032 0.83415 0.0
H1261 H 0.59 0.33298 0.91417 0.0
H1262 H 0.22694 0.52515 0.94914 0.0
H1263 H 0.19683 0.52434 0.88245 0.0
H1264 H 0.17682 0.48374 0.04583 0.0
H1265 H 0.20684 0.48417 0.11035 0.0
H1266 H 0.16253 0.47529 0.91772 0.0
H1267 H 0.16542 0.53275 0.05585 0.0
H1268 H 0.17783 0.56322 0.0945 0.0
H1269 H 0.17507 0.58234 0.86082 0.0
H1270 H 0.16223 0.55209 0.82102 0.0
H1271 H 0.06481 0.48979 0.88886 0.0
H1272 H 0.09698 0.48938 0.93284 0.0
H1273 H 0.1134 0.5223 0.73672 0.0
H1274 H 0.08112 0.52275 0.69191 0.0
H1275 H 0.12997 0.53479 0.87168 0.0
H1276 H 0.12169 0.47622 0.74401 0.0
H1277 H 0.10679 0.44605 0.7192 0.0
H1278 H 0.11806 0.42867 0.95067 0.0
H1279 H 0.13288 0.45886 0.97731 0.0
C1280 C 0.2163 0.51563 0.96919 0.0
C1281 C 0.21945 0.50462 0.0349 0.0
C1282 C 0.19888 0.51541 0.93189 0.0
C1283 C 0.18411 0.50428 0.95967 0.0
C1284 C 0.18771 0.49254 0.02269 0.0
C1285 C 0.20502 0.49274 0.05962 0.0
C1286 C 0.1648 0.50504 0.92549 0.0
C1287 C 0.15543 0.48835 0.90852 0.0
C1288 C 0.15524 0.52196 0.91209 0.0
C1289 C 0.16318 0.54007 0.93529 0.0
C1290 C 0.16762 0.54341 0.01263 0.0
C1291 C 0.17468 0.56065 0.03478 0.0
C1292 C 0.17748 0.57464 0.98005 0.0
C1293 C 0.173 0.57146 0.90311 0.0
C1294 C 0.16575 0.5543 0.88076 0.0
C1295 C 0.07519 0.49696 0.85469 0.0
C1296 C 0.07015 0.50625 0.78636 0.0
C1297 C 0.09371 0.49666 0.88001 0.0
C1298 C 0.10785 0.50567 0.8381 0.0
C1299 C 0.10287 0.51519 0.77036 0.0
C1300 C 0.08433 0.51537 0.74455 0.0
C1301 C 0.12773 0.50506 0.86508 0.0
C1302 C 0.13715 0.52176 0.88065 0.0
C1303 C 0.13714 0.48811 0.87917 0.0
C1304 C 0.12833 0.46989 0.86283 0.0
C1305 C 0.12095 0.46603 0.78982 0.0
C1306 C 0.1125 0.4489 0.77539 0.0
C1307 C 0.11146 0.43546 0.83334 0.0
C1308 C 0.11888 0.4391 0.90582 0.0
C1309 C 0.12733 0.45621 0.92059 0.0
H1310 H 0.1049 0.42221 0.82205 0.0
H1311 H 0.18299 0.58796 0.99736 0.0
H1312 H 0.97309 0.80259 0.41722 0.0
H1313 H 0.97632 0.83344 0.47489 0.0
H1314 H 0.03351 0.83556 0.40215 0.0
H1315 H 0.03037 0.80437 0.34696 0.0
H1316 H 0.03076 0.8537 0.53254 0.0
H1317 H 0.99842 0.85589 0.29565 0.0
H1318 H 0.97438 0.84682 0.20236 0.0
H1319 H 0.9319 0.86593 0.35591 0.0
H1320 H 0.9557 0.87477 0.45089 0.0
H1321 H 1.00535 0.95971 0.47033 0.0
H1322 H 1.0048 0.92735 0.42794 0.0
H1323 H 0.01128 0.90904 0.66256 0.0
H1324 H 0.01253 0.94136 0.70448 0.0
H1325 H 0.98383 0.89919 0.44442 0.0
H1326 H 0.03471 0.86629 0.66926 0.0
H1327 H 0.06227 0.87542 0.74424 0.0
H1328 H 0.07352 0.91967 0.58469 0.0
H1329 H 0.04639 0.9105 0.50759 0.0
C1330 C 0.98655 0.80934 0.41627 0.0
C1331 C 1.00157 0.80082 0.37881 0.0
C1332 C 0.98833 0.82717 0.44817 0.0
C1333 C 1.00507 0.83726 0.44174 0.0
C1334 C 0.02041 0.82828 0.40821 0.0
C1335 C 0.01866 0.81033 0.37699 0.0
C1336 C 1.00613 0.85746 0.4649 0.0
C1337 C 0.02041 0.8636 0.51374 0.0
C1338 C 0.99316 0.87079 0.43812 0.0
C1339 C 0.97883 0.86588 0.38058 0.0
C1340 C 0.98395 0.85809 0.30967 0.0
C1341 C 0.97037 0.85297 0.25651 0.0
C1342 C 0.95162 0.85579 0.27322 0.0
C1343 C 0.94642 0.86375 0.34308 0.0
C1344 C 0.95995 0.86882 0.39661 0.0
C1345 C 1.00667 0.94883 0.51307 0.0
C1346 C 1.00893 0.95336 0.59122 0.0
C1347 C 1.00629 0.9302 0.48867 0.0
C1348 C 1.00818 0.91541 0.54146 0.0
C1349 C 1.01012 0.91994 0.6198 0.0
C1350 C 1.01064 0.93857 0.64407 0.0
C1351 C 1.00814 0.89543 0.51455 0.0
C1352 C 0.99412 0.88933 0.46422 0.0
C1353 C 0.0218 0.88233 0.53771 0.0
C1354 C 0.03825 0.88791 0.58351 0.0
C1355 C 0.04308 0.87796 0.65012 0.0
C1356 C 0.05866 0.8831 0.69285 0.0
C1357 C 0.06954 0.89821 0.66961 0.0
C1358 C 0.06499 0.90806 0.60301 0.0
C1359 C 0.04951 0.90288 0.55973 0.0
H1360 H 0.08155 0.90222 0.70298 0.0
H1361 H 0.94112 0.85182 0.23201 0.0
H1362 H 0.72991 0.98984 0.44913 0.0
H1363 H 0.70004 0.99118 0.51765 0.0
H1364 H 0.67783 0.02571 0.33701 0.0
H1365 H 0.70769 0.02531 0.27188 0.0
H1366 H 0.66305 0.03692 0.45597 0.0
H1367 H 0.67065 0.97478 0.35947 0.0
H1368 H 0.6856 0.94425 0.34499 0.0
H1369 H 0.68094 0.93464 0.58785 0.0
H1370 H 0.66588 0.96507 0.60381 0.0
H1371 H 0.56646 0.01361 0.48509 0.0
H1372 H 0.59895 0.01376 0.44357 0.0
H1373 H 0.61619 0.99969 0.67336 0.0
H1374 H 0.58362 1.0 0.71607 0.0
H1375 H 0.63376 0.97803 0.5424 0.0
H1376 H 0.62266 0.04033 0.62988 0.0
H1377 H 0.60577 0.06995 0.63471 0.0
H1378 H 0.61534 0.07831 0.39342 0.0
H1379 H 0.63209 0.04857 0.38685 0.0
C1380 C 0.71881 0.99815 0.42537 0.0
C1381 C 0.72129 1.00734 0.35449 0.0
C1382 C 0.70151 0.99863 0.46385 0.0
C1383 C 0.68616 1.00808 0.43185 0.0
C1384 C 0.68912 0.01815 0.36348 0.0
C1385 C 0.70633 0.01788 0.32589 0.0
C1386 C 0.66695 1.00737 0.46729 0.0
C1387 C 0.65671 0.02393 0.47385 0.0
C1388 C 0.65836 0.99059 0.49253 0.0
C1389 C 0.66741 0.97232 0.48301 0.0
C1390 C 0.67294 0.96621 0.40986 0.0
C1391 C 0.6814 0.94892 0.40134 0.0
C1392 C 0.68435 0.93759 0.46548 0.0
C1393 C 0.67872 0.94347 0.53825 0.0
C1394 C 0.67019 0.96072 0.54706 0.0
C1395 C 0.5771 1.01047 0.52697 0.0
C1396 C 0.57227 1.0068 0.6041 0.0
C1397 C 0.59574 1.01059 0.50305 0.0
C1398 C 0.61013 1.00673 0.5551 0.0
C1399 C 0.60539 1.00267 0.63189 0.0
C1400 C 0.58673 1.00293 0.65631 0.0
C1401 C 0.63003 1.00744 0.52913 0.0
C1402 C 0.64028 0.99093 0.5244 0.0
C1403 C 0.63846 0.02416 0.50367 0.0
C1404 C 0.62852 0.04212 0.50774 0.0
C1405 C 0.62107 0.0484 0.57769 0.0
C1406 C 0.61153 0.06523 0.58077 0.0
C1407 C 0.60945 0.07599 0.51439 0.0
C1408 C 0.61695 0.06996 0.4448 0.0
C1409 C 0.62648 0.05312 0.44138 0.0
H1410 H 0.60205 0.08902 0.51689 0.0
H1411 H 0.69092 0.92421 0.45873 0.0
H1412 H 0.49378 0.72122 0.4084 0.0
H1413 H 0.49221 0.69158 0.47933 0.0
H1414 H 0.55083 0.68376 0.44203 0.0
H1415 H 0.55223 0.71301 0.37052 0.0
H1416 H 0.53551 0.65394 0.40551 0.0
H1417 H 0.53132 0.6914 0.62187 0.0
H1418 H 0.52131 0.71511 0.71431 0.0
H1419 H 0.46841 0.68809 0.73736 0.0
H1420 H 0.47793 0.66436 0.64367 0.0
H1421 H 0.52099 0.58171 0.74637 0.0
H1422 H 0.52318 0.61407 0.70196 0.0
H1423 H 0.50766 0.59679 0.4739 0.0
H1424 H 0.50669 0.56456 0.51698 0.0
H1425 H 0.50309 0.63963 0.65013 0.0
H1426 H 0.52447 0.6233 0.33491 0.0
H1427 H 0.54227 0.59972 0.26382 0.0
H1428 H 0.57282 0.58641 0.46821 0.0
H1429 H 0.55538 0.61006 0.54023 0.0
C1430 C 0.50641 0.71344 0.41763 0.0
C1431 C 0.52319 0.71966 0.3846 0.0
C1432 C 0.50552 0.69637 0.45796 0.0
C1433 C 0.52139 0.68508 0.4663 0.0
C1434 C 0.53828 0.69187 0.43635 0.0
C1435 C 0.53914 0.70879 0.39604 0.0
C1436 C 0.52029 0.66568 0.50008 0.0
C1437 C 0.52836 0.65096 0.45908 0.0
C1438 C 0.51151 0.66145 0.57128 0.0
C1439 C 0.50521 0.67629 0.62419 0.0
C1440 C 0.51738 0.69072 0.64516 0.0
C1441 C 0.51184 0.70412 0.69816 0.0
C1442 C 0.49418 0.7032 0.73114 0.0
C1443 C 0.48204 0.68885 0.71133 0.0
C1444 C 0.4875 0.67542 0.65818 0.0
C1445 C 0.51811 0.58482 0.68675 0.0
C1446 C 0.51394 0.57035 0.63524 0.0
C1447 C 0.51928 0.60343 0.66123 0.0
C1448 C 0.51599 0.60818 0.58366 0.0
C1449 C 0.51096 0.59375 0.53329 0.0
C1450 C 0.51028 0.57518 0.55825 0.0
C1451 C 0.51804 0.62799 0.55482 0.0
C1452 C 0.51007 0.64272 0.59631 0.0
C1453 C 0.52782 0.63246 0.48616 0.0
C1454 C 0.53847 0.61831 0.4431 0.0
C1455 C 0.53503 0.61538 0.36458 0.0
C1456 C 0.54505 0.60199 0.32415 0.0
C1457 C 0.55862 0.59153 0.36154 0.0
C1458 C 0.56226 0.59447 0.43938 0.0
C1459 C 0.5523 0.60785 0.48005 0.0
H1460 H 0.56633 0.58116 0.33014 0.0
H1461 H 0.48997 0.71357 0.77234 0.0
H1462 H 0.82161 0.53017 0.28034 0.0
H1463 H 0.85142 0.5301 0.34637 0.0
H1464 H 0.8263 0.50248 0.54065 0.0
H1465 H 0.79612 0.5022 0.47336 0.0
H1466 H 0.85356 0.53213 0.57785 0.0
H1467 H 0.8495 0.4772 0.41713 0.0
H1468 H 0.84392 0.4619 0.29279 0.0
H1469 H 0.88813 0.49356 0.19015 0.0
H1470 H 0.89374 0.50934 0.31346 0.0
H1471 H 0.94193 0.50487 0.74402 0.0
H1472 H 0.90973 0.50689 0.69822 0.0
H1473 H 0.9297 0.5186 0.46934 0.0
H1474 H 0.96157 0.51627 0.51417 0.0
H1475 H 0.90366 0.4962 0.4532 0.0
H1476 H 0.91063 0.54991 0.60319 0.0
H1477 H 0.91492 0.57137 0.7112 0.0
H1478 H 0.86499 0.55076 0.81661 0.0
H1479 H 0.86123 0.5281 0.71311 0.0
C1480 C 0.82227 0.5242 0.33751 0.0
C1481 C 0.80632 0.51597 0.37086 0.0
C1482 C 0.83945 0.52415 0.3753 0.0
C1483 C 0.8414 0.51599 0.44825 0.0
C1484 C 0.8253 0.50879 0.48422 0.0
C1485 C 0.80797 0.50872 0.44588 0.0
C1486 C 0.8604 0.51429 0.48419 0.0
C1487 C 0.86448 0.52391 0.55214 0.0
C1488 C 0.87498 0.50445 0.44799 0.0
C1489 C 0.87197 0.49452 0.37449 0.0
C1490 C 0.85798 0.48096 0.36796 0.0
C1491 C 0.85479 0.47222 0.29762 0.0
C1492 C 0.86562 0.4768 0.23354 0.0
C1493 C 0.87972 0.49007 0.23975 0.0
C1494 C 0.88292 0.4989 0.30989 0.0
C1495 C 0.93947 0.5079 0.68392 0.0
C1496 C 0.95463 0.51033 0.63316 0.0
C1497 C 0.92093 0.50915 0.65763 0.0
C1498 C 0.9169 0.513 0.57973 0.0
C1499 C 0.93207 0.5155 0.52946 0.0
C1500 C 0.9505 0.51419 0.55552 0.0
C1501 C 0.89715 0.5139 0.54912 0.0
C1502 C 0.89288 0.5042 0.48108 0.0
C1503 C 0.8826 0.52426 0.58431 0.0
C1504 C 0.88588 0.53686 0.65059 0.0
C1505 C 0.9009 0.54943 0.65062 0.0
C1506 C 0.90325 0.56187 0.71131 0.0
C1507 C 0.89037 0.56233 0.77129 0.0
C1508 C 0.87512 0.55032 0.77075 0.0
C1509 C 0.87299 0.5375 0.71144 0.0
H1510 H 0.89211 0.57209 0.81781 0.0
H1511 H 0.86312 0.47004 0.17912 0.0
loop_
_geom_bond_atom_site_label_1
_geom_bond_atom_site_label_2
_geom_bond_distance
_geom_bond_site_symmetry_2
_ccdc_geom_bond_type
H0 C1 0.949 . S
C1 H0 0.949 . S
C1 C2 1.395 . S
C1 C3 1.391 . S
C2 C1 1.395 . S
C2 C5 1.390 . S
C3 C1 1.391 . S
C3 C7 1.387 . S
C3 C8 1.491 . S
H4 C5 0.950 . S
C5 C2 1.390 . S
C5 H4 0.950 . S
C5 C6 1.378 . S
C6 C5 1.378 . S
C6 C7 1.409 . S
C7 C3 1.387 . S
C7 C6 1.409 . S
C7 H9 0.951 . S
C8 C3 1.491 . S
C8 C10 1.382 . S
C8 C12 1.404 . S
H9 C7 0.951 . S
C10 C8 1.382 . S
C10 C11 1.390 . S
C10 H15 0.949 . S
C11 C10 1.390 . S
C11 C16 1.399 . S
C12 C8 1.404 . S
C12 H13 0.950 . S
C12 C14 1.375 . S
H13 C12 0.950 . S
C14 C12 1.375 . S
C14 C16 1.382 . S
C14 H18 0.950 . S
H15 C10 0.949 . S
C16 C11 1.399 . S
C16 C14 1.382 . S
C16 H17 0.952 . S
H17 C16 0.952 . S
H18 C14 0.950 . S
H19 C20 0.949 . S
C20 H19 0.949 . S
C20 C21 1.395 . S
C20 C22 1.391 . S
C21 C20 1.395 . S
C21 C24 1.390 1_655 S
C22 C20 1.391 . S
C22 C26 1.387 . S
C22 C27 1.491 . S
H23 C24 0.950 . S
C24 C21 1.390 1_455 S
C24 H23 0.950 . S
C24 C25 1.377 1_455 S
C25 C24 1.377 1_655 S
C25 C26 1.413 . S
C26 C22 1.387 . S
C26 C25 1.413 . S
C26 H28 0.951 . S
C27 C22 1.491 . S
C27 C29 1.407 . S
C27 C31 1.404 . S
H28 C26 0.951 . S
C29 C27 1.407 . S
C29 C30 1.403 . S
C29 H34 0.913 1_655 S
C30 C29 1.403 . S
C30 C35 1.399 . S
C31 C27 1.404 . S
C31 H32 0.950 . S
C31 C33 1.375 . S
H32 C31 0.950 . S
C33 C31 1.375 . S
C33 C35 1.382 . S
C33 H37 0.950 . S
H34 C29 0.913 1_455 S
C35 C30 1.399 . S
C35 C33 1.382 . S
C35 H36 0.952 . S
H36 C35 0.952 . S
H37 C33 0.950 . S
H38 C39 0.949 . S
C39 H38 0.949 . S
C39 C40 1.395 . S
C39 C41 1.391 . S
C40 C39 1.395 . S
C40 C43 1.390 1_565 S
C41 C39 1.391 . S
C41 C45 1.387 . S
C41 C46 1.491 . S
H42 C43 0.950 . S
C43 C40 1.390 1_545 S
C43 H42 0.950 . S
C43 C44 1.377 1_545 S
C44 C43 1.377 1_565 S
C44 C45 1.413 . S
C45 C41 1.387 . S
C45 C44 1.413 . S
C45 H47 0.951 . S
C46 C41 1.491 . S
C46 C48 1.407 . S
C46 C50 1.404 . S
H47 C45 0.951 . S
C48 C46 1.407 . S
C48 C49 1.403 . S
C48 H53 0.913 1_565 S
C49 C48 1.403 . S
C49 C54 1.399 . S
C50 C46 1.404 . S
C50 H51 0.950 . S
C50 C52 1.375 . S
H51 C50 0.950 . S
C52 C50 1.375 . S
C52 C54 1.382 . S
C52 H56 0.950 . S
H53 C48 0.913 1_545 S
C54 C49 1.399 . S
C54 C52 1.382 . S
C54 H55 0.952 . S
H55 C54 0.952 . S
H56 C52 0.950 . S
H57 C58 0.949 . S
C58 H57 0.949 . S
C58 C59 1.395 . S
C58 C60 1.391 . S
C59 C58 1.395 . S
C59 C62 1.390 . S
C60 C58 1.391 . S
C60 C64 1.387 . S
C60 C65 1.491 . S
H61 C62 0.950 . S
C62 C59 1.390 . S
C62 H61 0.950 . S
C62 C63 1.378 . S
C63 C62 1.378 . S
C63 C64 1.409 . S
C64 C60 1.387 . S
C64 C63 1.409 . S
C64 H66 0.951 . S
C65 C60 1.491 . S
C65 C67 1.382 . S
C65 C69 1.404 . S
H66 C64 0.951 . S
C67 C65 1.382 . S
C67 C68 1.390 . S
C67 H72 0.949 . S
C68 C67 1.390 . S
C68 C73 1.399 . S
C69 C65 1.404 . S
C69 H70 0.950 . S
C69 C71 1.375 . S
H70 C69 0.950 . S
C71 C69 1.375 . S
C71 C73 1.382 . S
C71 H75 0.950 . S
H72 C67 0.949 . S
C73 C68 1.399 . S
C73 C71 1.382 . S
C73 H74 0.952 . S
H74 C73 0.952 . S
H75 C71 0.950 . S
H76 C77 0.949 . S
C77 H76 0.949 . S
C77 C78 1.395 . S
C77 C79 1.391 . S
C78 C77 1.395 . S
C78 C81 1.390 . S
C79 C77 1.391 . S
C79 C83 1.387 1_554 S
C79 C84 1.491 . S
H80 C81 0.950 . S
C81 C78 1.390 . S
C81 H80 0.950 . S
C81 C82 1.378 1_554 S
C82 C81 1.378 1_556 S
C82 C83 1.409 . S
C83 C79 1.387 1_556 S
C83 C82 1.409 . S
C83 H85 0.951 . S
C84 C79 1.491 . S
C84 C86 1.382 . S
C84 C88 1.404 1_554 S
H85 C83 0.951 . S
C86 C84 1.382 . S
C86 C87 1.390 . S
C86 H91 0.949 . S
C87 C86 1.390 . S
C87 C92 1.399 . S
C88 C84 1.404 1_556 S
C88 H89 0.950 . S
C88 C90 1.375 . S
H89 C88 0.950 . S
C90 C88 1.375 . S
C90 C92 1.382 1_556 S
C90 H94 0.950 . S
H91 C86 0.949 . S
C92 C87 1.399 . S
C92 C90 1.382 1_554 S
C92 H93 0.952 . S
H93 C92 0.952 . S
H94 C90 0.950 . S
H95 C96 0.949 . S
C96 H95 0.949 . S
C96 C97 1.391 1_655 S
C96 C98 1.391 . S
C97 C96 1.391 1_455 S
C97 C100 1.392 . S
C98 C96 1.391 . S
C98 C102 1.387 1_554 S
C98 C103 1.491 . S
H99 C100 0.950 . S
C100 C97 1.392 . S
C100 H99 0.950 . S
C100 C101 1.379 1_554 S
C101 C100 1.379 1_556 S
C101 C102 1.408 1_455 S
C102 C98 1.387 1_556 S
C102 C101 1.408 1_655 S
C102 H104 0.951 . S
C103 C98 1.491 . S
C103 C105 1.387 . S
C103 C107 1.404 1_554 S
H104 C102 0.951 . S
C105 C103 1.387 . S
C105 C106 1.392 . S
C105 H110 0.941 1_655 S
C106 C105 1.392 . S
C106 C111 1.399 . S
C107 C103 1.404 1_556 S
C107 H108 0.950 . S
C107 C109 1.375 . S
H108 C107 0.950 . S
C109 C107 1.375 . S
C109 C111 1.382 1_556 S
C109 H113 0.950 . S
H110 C105 0.941 1_455 S
C111 C106 1.399 . S
C111 C109 1.382 1_554 S
C111 H112 0.952 . S
H112 C111 0.952 . S
H113 C109 0.950 . S
H114 C115 0.949 . S
C115 H114 0.949 . S
C115 C116 1.390 1_565 S
C115 C117 1.391 . S
C116 C115 1.390 1_545 S
C116 C119 1.393 . S
C117 C115 1.391 . S
C117 C121 1.387 1_554 S
C117 C122 1.491 . S
H118 C119 0.950 . S
C119 C116 1.393 . S
C119 H118 0.950 . S
C119 C120 1.379 1_554 S
C120 C119 1.379 1_556 S
C120 C121 1.407 1_545 S
C121 C117 1.387 1_556 S
C121 C120 1.407 1_565 S
C121 H123 0.951 . S
C122 C117 1.491 . S
C122 C124 1.384 . S
C122 C126 1.404 1_554 S
H123 C121 0.951 . S
C124 C122 1.384 . S
C124 C125 1.391 . S
C124 H129 0.945 1_565 S
C125 C124 1.391 . S
C125 C130 1.399 . S
C126 C122 1.404 1_556 S
C126 H127 0.950 . S
C126 C128 1.375 . S
H127 C126 0.950 . S
C128 C126 1.375 . S
C128 C130 1.382 1_556 S
C128 H132 0.950 . S
H129 C124 0.945 1_545 S
C130 C125 1.399 . S
C130 C128 1.382 1_554 S
C130 H131 0.952 . S
H131 C130 0.952 . S
H132 C128 0.950 . S
H133 C134 0.949 . S
C134 H133 0.949 . S
C134 C135 1.395 . S
C134 C136 1.391 . S
C135 C134 1.395 . S
C135 C138 1.390 . S
C136 C134 1.391 . S
C136 C140 1.387 1_554 S
C136 C141 1.491 . S
H137 C138 0.950 . S
C138 C135 1.390 . S
C138 H137 0.950 . S
C138 C139 1.378 1_554 S
C139 C138 1.378 1_556 S
C139 C140 1.409 . S
C140 C136 1.387 1_556 S
C140 C139 1.409 . S
C140 H142 0.951 . S
C141 C136 1.491 . S
C141 C143 1.382 . S
C141 C145 1.404 1_554 S
H142 C140 0.951 . S
C143 C141 1.382 . S
C143 C144 1.390 . S
C143 H148 0.949 . S
C144 C143 1.390 . S
C144 C149 1.399 . S
C145 C141 1.404 1_556 S
C145 H146 0.950 . S
C145 C147 1.375 . S
H146 C145 0.950 . S
C147 C145 1.375 . S
C147 C149 1.382 1_556 S
C147 H151 0.950 . S
H148 C143 0.949 . S
C149 C144 1.399 . S
C149 C147 1.382 1_554 S
C149 H150 0.952 . S
H150 C149 0.952 . S
H151 C147 0.950 . S
C152 Eu153 2.835 . S
C152 C154 1.500 . S
C152 O172 1.257 1_655 S
C152 O173 1.260 . S
Eu153 C152 2.835 . S
Eu153 O172 2.473 1_655 S
Eu153 O173 2.480 . S
Eu153 O174 2.430 . S
Eu153 O175 2.670 1_545 S
Eu153 O176 2.394 . S
Eu153 O181 2.355 1_655 S
Eu153 O183 2.374 1_545 S
C154 C152 1.500 . S
C154 C155 1.377 . S
C154 C159 1.377 1_655 S
C155 C154 1.377 . S
C155 C156 1.395 . S
C155 H184 0.931 . S
C156 C155 1.395 . S
C156 C157 1.383 . S
C156 H185 0.931 . S
C157 C156 1.383 . S
C157 C158 1.368 1_655 S
C158 C157 1.368 1_455 S
C158 C159 1.379 . S
C158 H186 0.956 . S
C159 C154 1.377 1_455 S
C159 C158 1.379 . S
C159 H187 0.931 . S
C160 O174 1.288 . S
C160 O175 1.250 1_545 S
C161 O176 1.251 1_455 S
C161 O177 1.251 . S
C162 Eu163 2.835 . S
C162 C164 1.500 . S
C162 O178 1.202 1_455 S
C162 O179 1.260 . S
Eu163 C162 2.835 . S
Eu163 O175 2.355 1_455 S
Eu163 O177 2.374 1_565 S
Eu163 O178 2.447 1_455 S
Eu163 O179 2.480 . S
Eu163 O180 2.430 . S
Eu163 O181 2.670 1_565 S
Eu163 O182 2.394 . S
C164 C162 1.500 . S
C164 C165 1.377 . S
C164 C169 1.329 1_455 S
C165 C164 1.377 . S
C165 C166 1.395 . S
C165 H188 0.931 . S
C166 C165 1.395 . S
C166 C167 1.383 . S
C166 H189 0.931 . S
C167 C166 1.383 . S
C167 C168 1.394 1_455 S
C168 C167 1.394 1_655 S
C168 C169 1.377 . S
C168 H190 0.931 . S
C169 C164 1.329 1_655 S
C169 C168 1.377 . S
C169 H191 0.983 . S
C170 O180 1.265 . S
C170 O181 1.266 1_565 S
C171 O182 1.251 1_655 S
C171 O183 1.251 . S
O172 C152 1.257 1_455 S
O172 Eu153 2.473 1_455 S
O173 C152 1.260 . S
O173 Eu153 2.480 . S
O174 Eu153 2.430 . S
O174 C160 1.288 . S
O175 Eu153 2.670 1_565 S
O175 C160 1.250 1_565 S
O175 Eu163 2.355 1_655 S
O176 Eu153 2.394 . S
O176 C161 1.251 1_655 S
O177 C161 1.251 . S
O177 Eu163 2.374 1_545 S
O178 C162 1.202 1_655 S
O178 Eu163 2.447 1_655 S
O179 C162 1.260 . S
O179 Eu163 2.480 . S
O180 Eu163 2.430 . S
O180 C170 1.265 . S
O181 Eu153 2.355 1_455 S
O181 Eu163 2.670 1_545 S
O181 C170 1.266 1_545 S
O182 Eu163 2.394 . S
O182 C171 1.251 1_455 S
O183 Eu153 2.374 1_565 S
O183 C171 1.251 . S
H184 C155 0.931 . S
H185 C156 0.931 . S
H186 C158 0.956 . S
H187 C159 0.931 . S
H188 C165 0.931 . S
H189 C166 0.931 . S
H190 C168 0.931 . S
H191 C169 0.983 . S
C192 Eu193 2.835 . S
C192 C194 1.500 . S
C192 O212 1.257 1_565 S
C192 O213 1.260 . S
Eu193 C192 2.835 . S
Eu193 O212 2.473 1_565 S
Eu193 O213 2.480 . S
Eu193 O214 2.430 . S
Eu193 O215 2.670 . S
Eu193 O216 2.394 . S
Eu193 O221 2.355 1_565 S
Eu193 O223 2.374 . S
C194 C192 1.500 . S
C194 C195 1.377 . S
C194 C199 1.377 1_565 S
C195 C194 1.377 . S
C195 C196 1.395 . S
C195 H224 0.931 . S
C196 C195 1.395 . S
C196 C197 1.383 . S
C196 H225 0.931 . S
C197 C196 1.383 . S
C197 C198 1.362 1_565 S
C198 C197 1.362 1_545 S
C198 C199 1.380 . S
C198 H226 0.962 . S
C199 C194 1.377 1_545 S
C199 C198 1.380 . S
C199 H227 0.931 . S
C200 O214 1.259 . S
C200 O215 1.270 . S
C201 O216 1.251 1_545 S
C201 O217 1.251 . S
C202 Eu203 2.835 . S
C202 C204 1.500 . S
C202 O218 1.208 1_545 S
C202 O219 1.260 . S
Eu203 C202 2.835 . S
Eu203 O215 2.355 1_545 S
Eu203 O217 2.374 . S
Eu203 O218 2.450 1_545 S
Eu203 O219 2.480 . S
Eu203 O220 2.430 . S
Eu203 O221 2.670 . S
Eu203 O222 2.394 . S
C204 C202 1.500 . S
C204 C205 1.377 . S
C204 C209 1.335 1_545 S
C205 C204 1.377 . S
C205 C206 1.395 . S
C205 H228 0.931 . S
C206 C205 1.395 . S
C206 C207 1.383 . S
C206 H229 0.931 . S
C207 C206 1.383 . S
C207 C208 1.400 1_545 S
C208 C207 1.400 1_565 S
C208 C209 1.377 . S
C208 H230 0.925 . S
C209 C204 1.335 1_565 S
C209 C208 1.377 . S
C209 H231 0.976 . S
C210 O220 1.259 . S
C210 O221 1.270 . S
C211 O222 1.251 1_565 S
C211 O223 1.251 . S
O212 C192 1.257 1_545 S
O212 Eu193 2.473 1_545 S
O213 C192 1.260 . S
O213 Eu193 2.480 . S
O214 Eu193 2.430 . S
O214 C200 1.259 . S
O215 Eu193 2.670 . S
O215 C200 1.270 . S
O215 Eu203 2.355 1_565 S
O216 Eu193 2.394 . S
O216 C201 1.251 1_565 S
O217 C201 1.251 . S
O217 Eu203 2.374 . S
O218 C202 1.208 1_565 S
O218 Eu203 2.450 1_565 S
O219 C202 1.260 . S
O219 Eu203 2.480 . S
O220 Eu203 2.430 . S
O220 C210 1.259 . S
O221 Eu193 2.355 1_545 S
O221 Eu203 2.670 . S
O221 C210 1.270 . S
O222 Eu203 2.394 . S
O222 C211 1.251 1_545 S
O223 Eu193 2.374 . S
O223 C211 1.251 . S
H224 C195 0.931 . S
H225 C196 0.931 . S
H226 C198 0.962 . S
H227 C199 0.931 . S
H228 C205 0.931 . S
H229 C206 0.931 . S
H230 C208 0.925 . S
H231 C209 0.976 . S
C232 Eu233 2.835 . S
C232 C234 1.500 . S
C232 O252 1.257 . S
C232 O253 1.260 . S
Eu233 C232 2.835 . S
Eu233 O252 2.473 . S
Eu233 O253 2.480 . S
Eu233 O254 2.430 . S
Eu233 O255 2.670 . S
Eu233 O256 2.394 . S
Eu233 O261 2.355 . S
Eu233 O263 2.374 . S
C234 C232 1.500 . S
C234 C235 1.377 . S
C234 C239 1.377 . S
C235 C234 1.377 . S
C235 C236 1.395 . S
C235 H264 0.931 . S
C236 C235 1.395 . S
C236 C237 1.383 . S
C236 H265 0.931 . S
C237 C236 1.383 . S
C237 C238 1.394 . S
C238 C237 1.394 . S
C238 C239 1.378 . S
C238 H266 0.931 . S
C239 C234 1.377 . S
C239 C238 1.378 . S
C239 H267 0.931 . S
C240 O254 1.259 . S
C240 O255 1.270 . S
C241 O256 1.251 . S
C241 O257 1.251 . S
C242 Eu243 2.835 . S
C242 C244 1.500 . S
C242 O258 1.257 . S
C242 O259 1.260 . S
Eu243 C242 2.835 . S
Eu243 O255 2.355 . S
Eu243 O257 2.374 . S
Eu243 O258 2.473 . S
Eu243 O259 2.480 . S
Eu243 O260 2.430 . S
Eu243 O261 2.670 . S
Eu243 O262 2.394 . S
C244 C242 1.500 . S
C244 C245 1.377 . S
C244 C249 1.377 . S
C245 C244 1.377 . S
C245 C246 1.395 . S
C245 H268 0.931 . S
C246 C245 1.395 . S
C246 C247 1.383 . S
C246 H269 0.931 . S
C247 C246 1.383 . S
C247 C248 1.394 . S
C248 C247 1.394 . S
C248 C249 1.378 . S
C248 H270 0.931 . S
C249 C244 1.377 . S
C249 C248 1.378 . S
C249 H271 0.931 . S
C250 O260 1.259 . S
C250 O261 1.270 . S
C251 O262 1.251 . S
C251 O263 1.251 . S
O252 C232 1.257 . S
O252 Eu233 2.473 . S
O253 C232 1.260 . S
O253 Eu233 2.480 . S
O254 Eu233 2.430 . S
O254 C240 1.259 . S
O255 Eu233 2.670 . S
O255 C240 1.270 . S
O255 Eu243 2.355 . S
O256 Eu233 2.394 . S
O256 C241 1.251 . S
O257 C241 1.251 . S
O257 Eu243 2.374 . S
O258 C242 1.257 . S
O258 Eu243 2.473 . S
O259 C242 1.260 . S
O259 Eu243 2.480 . S
O260 Eu243 2.430 . S
O260 C250 1.259 . S
O261 Eu233 2.355 . S
O261 Eu243 2.670 . S
O261 C250 1.270 . S
O262 Eu243 2.394 . S
O262 C251 1.251 . S
O263 Eu233 2.374 . S
O263 C251 1.251 . S
H264 C235 0.931 . S
H265 C236 0.931 . S
H266 C238 0.931 . S
H267 C239 0.931 . S
H268 C245 0.931 . S
H269 C246 0.931 . S
H270 C248 0.931 . S
H271 C249 0.931 . S
C272 Eu273 2.835 . S
C272 C274 1.500 . S
C272 O292 1.257 . S
C272 O293 1.260 . S
Eu273 C272 2.835 . S
Eu273 O292 2.473 . S
Eu273 O293 2.480 . S
Eu273 O294 2.430 . S
Eu273 O295 2.670 1_455 S
Eu273 O296 2.394 . S
Eu273 O301 2.355 . S
Eu273 O303 2.374 1_455 S
C274 C272 1.500 . S
C274 C275 1.377 . S
C274 C279 1.377 . S
C275 C274 1.377 . S
C275 C276 1.395 . S
C275 H304 0.931 . S
C276 C275 1.395 . S
C276 C277 1.383 . S
C276 H305 0.931 . S
C277 C276 1.383 . S
C277 C278 1.394 . S
C278 C277 1.394 . S
C278 C279 1.378 . S
C278 H306 0.931 . S
C279 C274 1.377 . S
C279 C278 1.378 . S
C279 H307 0.931 . S
C280 O294 1.285 . S
C280 O295 1.252 1_455 S
C281 O296 1.251 . S
C281 O297 1.251 . S
C282 Eu283 2.835 . S
C282 C284 1.500 . S
C282 O298 1.257 . S
C282 O299 1.260 . S
Eu283 C282 2.835 . S
Eu283 O295 2.355 . S
Eu283 O297 2.374 1_655 S
Eu283 O298 2.473 . S
Eu283 O299 2.480 . S
Eu283 O300 2.430 . S
Eu283 O301 2.670 1_655 S
Eu283 O302 2.394 . S
C284 C282 1.500 . S
C284 C285 1.377 . S
C284 C289 1.377 . S
C285 C284 1.377 . S
C285 C286 1.395 . S
C285 H308 0.931 . S
C286 C285 1.395 . S
C286 C287 1.383 . S
C286 H309 0.931 . S
C287 C286 1.383 . S
C287 C288 1.394 . S
C288 C287 1.394 . S
C288 C289 1.378 . S
C288 H310 0.931 . S
C289 C284 1.377 . S
C289 C288 1.378 . S
C289 H311 0.931 . S
C290 O300 1.268 . S
C290 O301 1.264 1_655 S
C291 O302 1.251 . S
C291 O303 1.251 . S
O292 C272 1.257 . S
O292 Eu273 2.473 . S
O293 C272 1.260 . S
O293 Eu273 2.480 . S
O294 Eu273 2.430 . S
O294 C280 1.285 . S
O295 Eu273 2.670 1_655 S
O295 C280 1.252 1_655 S
O295 Eu283 2.355 . S
O296 Eu273 2.394 . S
O296 C281 1.251 . S
O297 C281 1.251 . S
O297 Eu283 2.374 1_455 S
O298 C282 1.257 . S
O298 Eu283 2.473 . S
O299 C282 1.260 . S
O299 Eu283 2.480 . S
O300 Eu283 2.430 . S
O300 C290 1.268 . S
O301 Eu273 2.355 . S
O301 Eu283 2.670 1_455 S
O301 C290 1.264 1_455 S
O302 Eu283 2.394 . S
O302 C291 1.251 . S
O303 Eu273 2.374 1_655 S
O303 C291 1.251 . S
H304 C275 0.931 . S
H305 C276 0.931 . S
H306 C278 0.931 . S
H307 C279 0.931 . S
H308 C285 0.931 . S
H309 C286 0.931 . S
H310 C288 0.931 . S
H311 C289 0.931 . S
H312 C330 0.951 . S
H313 C332 0.951 . S
H314 C334 0.950 . S
H315 C335 0.950 . S
H316 C337 0.950 . S
H317 C340 0.950 . S
H318 C341 0.950 . S
H319 C343 0.950 . S
H320 C344 0.950 . S
H321 C345 0.951 . S
H322 C347 0.951 . S
H323 C349 0.950 . S
H324 C350 0.950 . S
H325 C352 0.950 . S
H326 C355 0.950 . S
H327 C356 0.950 . S
H328 C358 0.950 . S
H329 C359 0.950 . S
C330 H312 0.951 . S
C330 C331 1.386 . S
C330 C332 1.388 . S
C331 C330 1.386 . S
C331 C335 1.366 1_545 S
C332 H313 0.951 . S
C332 C330 1.388 . S
C332 C333 1.366 . S
C333 C332 1.366 . S
C333 C334 1.414 1_545 S
C333 C336 1.499 . S
C334 H314 0.950 . S
C334 C333 1.414 1_565 S
C334 C335 1.374 . S
C335 H315 0.950 . S
C335 C331 1.366 1_565 S
C335 C334 1.374 . S
C336 C333 1.499 . S
C336 C337 1.373 1_545 S
C336 C338 1.389 . S
C337 H316 0.950 . S
C337 C336 1.373 1_565 S
C337 C353 1.377 . S
C338 C336 1.389 . S
C338 C339 1.524 . S
C338 C352 1.377 . S
C339 C338 1.524 . S
C339 C340 1.397 . S
C339 C344 1.363 . S
C340 H317 0.950 . S
C340 C339 1.397 . S
C340 C341 1.334 . S
C341 H318 0.950 . S
C341 C340 1.334 . S
C341 C342 1.287 . S
C342 C341 1.287 . S
C342 C343 1.524 . S
C342 H361 0.913 . S
C343 H319 0.950 . S
C343 C342 1.524 . S
C343 C344 1.415 . S
C344 H320 0.950 . S
C344 C339 1.363 . S
C344 C343 1.415 . S
C345 H321 0.951 . S
C345 C346 1.335 1_565 S
C345 C347 1.388 . S
C346 C345 1.335 1_545 S
C346 C350 1.417 . S
C347 H322 0.951 . S
C347 C345 1.388 . S
C347 C348 1.366 1_565 S
C348 C347 1.366 1_545 S
C348 C349 1.413 . S
C348 C351 1.499 . S
C349 H323 0.950 . S
C349 C348 1.413 . S
C349 C350 1.374 . S
C350 H324 0.950 . S
C350 C346 1.417 . S
C350 C349 1.374 . S
C351 C348 1.499 . S
C351 C352 1.388 . S
C351 C353 1.375 1_545 S
C352 H325 0.950 . S
C352 C338 1.377 . S
C352 C351 1.388 . S
C353 C337 1.377 . S
C353 C351 1.375 1_565 S
C353 C354 1.524 . S
C354 C353 1.524 . S
C354 C355 1.397 . S
C354 C359 1.363 . S
C355 H326 0.950 . S
C355 C354 1.397 . S
C355 C356 1.334 . S
C356 H327 0.950 . S
C356 C355 1.334 . S
C356 C357 1.287 . S
C357 C356 1.287 . S
C357 C358 1.524 . S
C357 H360 0.999 . S
C358 H328 0.950 . S
C358 C357 1.524 . S
C358 C359 1.415 . S
C359 H329 0.950 . S
C359 C354 1.363 . S
C359 C358 1.415 . S
H360 C357 0.999 . S
H361 C342 0.913 . S
H362 C380 0.951 . S
H363 C382 0.951 . S
H364 C384 0.950 . S
H365 C385 0.950 . S
H366 C387 0.950 . S
H367 C390 0.950 . S
H368 C391 0.950 . S
H369 C393 0.950 . S
H370 C394 0.950 . S
H371 C395 0.951 . S
H372 C397 0.951 . S
H373 C399 0.950 . S
H374 C400 0.950 . S
H375 C402 0.950 . S
H376 C405 0.950 . S
H377 C406 0.950 . S
H378 C408 0.950 . S
H379 C409 0.950 . S
C380 H362 0.951 . S
C380 C381 1.366 . S
C380 C382 1.388 . S
C381 C380 1.366 . S
C381 C385 1.385 . S
C382 H363 0.951 . S
C382 C380 1.388 . S
C382 C383 1.366 . S
C383 C382 1.366 . S
C383 C384 1.414 . S
C383 C386 1.499 . S
C384 H364 0.950 . S
C384 C383 1.414 . S
C384 C385 1.374 . S
C385 H365 0.950 . S
C385 C381 1.385 . S
C385 C384 1.374 . S
C386 C383 1.499 . S
C386 C387 1.373 . S
C386 C388 1.389 . S
C387 H366 0.950 . S
C387 C386 1.373 . S
C387 C403 1.377 . S
C388 C386 1.389 . S
C388 C389 1.524 . S
C388 C402 1.377 . S
C389 C388 1.524 . S
C389 C390 1.397 . S
C389 C394 1.363 . S
C390 H367 0.950 . S
C390 C389 1.397 . S
C390 C391 1.334 . S
C391 H368 0.950 . S
C391 C390 1.334 . S
C391 C392 1.287 . S
C392 C391 1.287 . S
C392 C393 1.524 . S
C392 H411 0.913 . S
C393 H369 0.950 . S
C393 C392 1.524 . S
C393 C394 1.415 . S
C394 H370 0.950 . S
C394 C389 1.363 . S
C394 C393 1.415 . S
C395 H371 0.951 . S
C395 C396 1.366 . S
C395 C397 1.388 . S
C396 C395 1.366 . S
C396 C400 1.385 . S
C397 H372 0.951 . S
C397 C395 1.388 . S
C397 C398 1.366 . S
C398 C397 1.366 . S
C398 C399 1.414 . S
C398 C401 1.499 . S
C399 H373 0.950 . S
C399 C398 1.414 . S
C399 C400 1.374 . S
C400 H374 0.950 . S
C400 C396 1.385 . S
C400 C399 1.374 . S
C401 C398 1.499 . S
C401 C402 1.373 . S
C401 C403 1.389 . S
C402 H375 0.950 . S
C402 C388 1.377 . S
C402 C401 1.373 . S
C403 C387 1.377 . S
C403 C401 1.389 . S
C403 C404 1.524 . S
C404 C403 1.524 . S
C404 C405 1.397 . S
C404 C409 1.363 . S
C405 H376 0.950 . S
C405 C404 1.397 . S
C405 C406 1.334 . S
C406 H377 0.950 . S
C406 C405 1.334 . S
C406 C407 1.287 . S
C407 C406 1.287 . S
C407 C408 1.524 . S
C407 H410 0.999 . S
C408 H378 0.950 . S
C408 C407 1.524 . S
C408 C409 1.415 . S
C409 H379 0.950 . S
C409 C404 1.363 . S
C409 C408 1.415 . S
H410 C407 0.999 . S
H411 C392 0.913 . S
H412 C430 0.951 . S
H413 C432 0.951 . S
H414 C434 0.950 . S
H415 C435 0.950 . S
H416 C437 0.950 . S
H417 C440 0.950 . S
H418 C441 0.950 . S
H419 C443 0.950 . S
H420 C444 0.950 . S
H421 C445 0.951 . S
H422 C447 0.951 . S
H423 C449 0.950 . S
H424 C450 0.950 . S
H425 C452 0.950 . S
H426 C455 0.950 . S
H427 C456 0.950 . S
H428 C458 0.950 . S
H429 C459 0.950 . S
C430 H412 0.951 . S
C430 C431 1.366 . S
C430 C432 1.388 . S
C431 C430 1.366 . S
C431 C435 1.385 . S
C432 H413 0.951 . S
C432 C430 1.388 . S
C432 C433 1.366 . S
C433 C432 1.366 . S
C433 C434 1.414 . S
C433 C436 1.499 . S
C434 H414 0.950 . S
C434 C433 1.414 . S
C434 C435 1.374 . S
C435 H415 0.950 . S
C435 C431 1.385 . S
C435 C434 1.374 . S
C436 C433 1.499 . S
C436 C437 1.373 . S
C436 C438 1.389 . S
C437 H416 0.950 . S
C437 C436 1.373 . S
C437 C453 1.377 . S
C438 C436 1.389 . S
C438 C439 1.524 . S
C438 C452 1.377 . S
C439 C438 1.524 . S
C439 C440 1.397 . S
C439 C444 1.363 . S
C440 H417 0.950 . S
C440 C439 1.397 . S
C440 C441 1.334 . S
C441 H418 0.950 . S
C441 C440 1.334 . S
C441 C442 1.287 . S
C442 C441 1.287 . S
C442 C443 1.524 . S
C442 H461 0.913 . S
C443 H419 0.950 . S
C443 C442 1.524 . S
C443 C444 1.415 . S
C444 H420 0.950 . S
C444 C439 1.363 . S
C444 C443 1.415 . S
C445 H421 0.951 . S
C445 C446 1.366 . S
C445 C447 1.388 . S
C446 C445 1.366 . S
C446 C450 1.385 . S
C447 H422 0.951 . S
C447 C445 1.388 . S
C447 C448 1.366 . S
C448 C447 1.366 . S
C448 C449 1.414 . S
C448 C451 1.499 . S
C449 H423 0.950 . S
C449 C448 1.414 . S
C449 C450 1.374 . S
C450 H424 0.950 . S
C450 C446 1.385 . S
C450 C449 1.374 . S
C451 C448 1.499 . S
C451 C452 1.373 . S
C451 C453 1.389 . S
C452 H425 0.950 . S
C452 C438 1.377 . S
C452 C451 1.373 . S
C453 C437 1.377 . S
C453 C451 1.389 . S
C453 C454 1.524 . S
C454 C453 1.524 . S
C454 C455 1.397 . S
C454 C459 1.363 . S
C455 H426 0.950 . S
C455 C454 1.397 . S
C455 C456 1.334 . S
C456 H427 0.950 . S
C456 C455 1.334 . S
C456 C457 1.287 . S
C457 C456 1.287 . S
C457 C458 1.524 . S
C457 H460 0.999 . S
C458 H428 0.950 . S
C458 C457 1.524 . S
C458 C459 1.415 . S
C459 H429 0.950 . S
C459 C454 1.363 . S
C459 C458 1.415 . S
H460 C457 0.999 . S
H461 C442 0.913 . S
H462 C480 0.951 . S
H463 C482 0.951 . S
H464 C484 0.950 . S
H465 C485 0.950 . S
H466 C487 0.950 . S
H467 C490 0.950 . S
H468 C491 0.912 1_455 S
H469 C493 0.950 . S
H470 C494 0.950 . S
H471 C495 0.951 . S
H472 C497 0.951 . S
H473 C499 0.950 . S
H474 C500 0.950 . S
H475 C502 0.950 . S
H476 C505 0.950 . S
H477 C506 0.950 1_655 S
H478 C508 0.950 . S
H479 C509 0.950 . S
C480 H462 0.951 . S
C480 C481 1.340 1_655 S
C480 C482 1.388 . S
C481 C480 1.340 1_455 S
C481 C485 1.411 . S
C482 H463 0.951 . S
C482 C480 1.388 . S
C482 C483 1.314 1_655 S
C483 C482 1.314 1_455 S
C483 C484 1.465 . S
C483 C486 1.502 . S
C484 H464 0.950 . S
C484 C483 1.465 . S
C484 C485 1.374 . S
C485 H465 0.950 . S
C485 C481 1.411 . S
C485 C484 1.374 . S
C486 C483 1.502 . S
C486 C487 1.373 . S
C486 C488 1.389 1_455 S
C487 H466 0.950 . S
C487 C486 1.373 . S
C487 C503 1.377 . S
C488 C486 1.389 1_655 S
C488 C489 1.524 . S
C488 C502 1.377 . S
C489 C488 1.524 . S
C489 C490 1.397 1_655 S
C489 C494 1.363 . S
C490 H467 0.950 . S
C490 C489 1.397 1_455 S
C490 C491 1.324 1_455 S
C491 H468 0.912 1_655 S
C491 C490 1.324 1_655 S
C491 C492 1.339 . S
C492 C491 1.339 . S
C492 C493 1.524 . S
C492 H511 0.913 . S
C493 H469 0.950 . S
C493 C492 1.524 . S
C493 C494 1.415 . S
C494 H470 0.950 . S
C494 C489 1.363 . S
C494 C493 1.415 . S
C495 H471 0.951 . S
C495 C496 1.408 . S
C495 C497 1.388 . S
C496 C495 1.408 . S
C496 C500 1.342 1_455 S
C497 H472 0.951 . S
C497 C495 1.388 . S
C497 C498 1.383 . S
C498 C497 1.383 . S
C498 C499 1.397 1_455 S
C498 C501 1.498 1_455 S
C499 H473 0.950 . S
C499 C498 1.397 1_655 S
C499 C500 1.374 . S
C500 H474 0.950 . S
C500 C496 1.342 1_655 S
C500 C499 1.374 . S
C501 C498 1.498 1_655 S
C501 C502 1.376 . S
C501 C503 1.387 1_655 S
C502 H475 0.950 . S
C502 C488 1.377 . S
C502 C501 1.376 . S
C503 C487 1.377 . S
C503 C501 1.387 1_455 S
C503 C504 1.524 . S
C504 C503 1.524 . S
C504 C505 1.397 1_455 S
C504 C509 1.363 . S
C505 H476 0.950 . S
C505 C504 1.397 1_655 S
C505 C506 1.334 1_655 S
C506 H477 0.950 1_455 S
C506 C505 1.334 1_455 S
C506 C507 1.287 . S
C507 C506 1.287 . S
C507 C508 1.524 . S
C507 H510 0.999 . S
C508 H478 0.950 . S
C508 C507 1.524 . S
C508 C509 1.415 . S
C509 H479 0.950 . S
C509 C504 1.363 . S
C509 C508 1.415 . S
H510 C507 0.999 . S
H511 C492 0.913 . S
H512 C530 0.951 . S
H513 C532 0.951 . S
H514 C534 0.950 . S
H515 C535 0.950 . S
H516 C537 0.950 . S
H517 C540 0.950 . S
H518 C541 0.950 . S
H519 C543 0.950 . S
H520 C544 0.950 . S
H521 C545 0.951 . S
H522 C547 0.951 . S
H523 C549 0.950 . S
H524 C550 0.950 . S
H525 C552 0.950 . S
H526 C555 0.950 . S
H527 C556 0.950 . S
H528 C558 0.950 . S
H529 C559 0.950 . S
C530 H512 0.951 . S
C530 C531 1.367 1_545 S
C530 C532 1.388 . S
C531 C530 1.367 1_565 S
C531 C535 1.383 . S
C532 H513 0.951 . S
C532 C530 1.388 . S
C532 C533 1.383 . S
C533 C532 1.383 . S
C533 C534 1.396 1_545 S
C533 C536 1.499 . S
C534 H514 0.950 . S
C534 C533 1.396 1_565 S
C534 C535 1.374 . S
C535 H515 0.950 . S
C535 C531 1.383 . S
C535 C534 1.374 . S
C536 C533 1.499 . S
C536 C537 1.342 1_545 S
C536 C538 1.419 . S
C537 H516 0.950 . S
C537 C536 1.342 1_565 S
C537 C553 1.377 1_554 S
C538 C536 1.419 . S
C538 C539 1.524 . S
C538 C552 1.377 . S
C539 C538 1.524 . S
C539 C540 1.397 . S
C539 C544 1.363 . S
C540 H517 0.950 . S
C540 C539 1.397 . S
C540 C541 1.334 . S
C541 H518 0.950 . S
C541 C540 1.334 . S
C541 C542 1.287 . S
C542 C541 1.287 . S
C542 C543 1.524 . S
C542 H561 0.913 . S
C543 H519 0.950 . S
C543 C542 1.524 . S
C543 C544 1.415 . S
C544 H520 0.950 . S
C544 C539 1.363 . S
C544 C543 1.415 . S
C545 H521 0.951 . S
C545 C546 1.369 . S
C545 C547 1.388 . S
C546 C545 1.369 . S
C546 C550 1.381 1_565 S
C547 H522 0.951 . S
C547 C545 1.388 . S
C547 C548 1.366 . S
C548 C547 1.366 . S
C548 C549 1.414 1_565 S
C548 C551 1.500 . S
C549 H523 0.950 . S
C549 C548 1.414 1_545 S
C549 C550 1.374 . S
C550 H524 0.950 . S
C550 C546 1.381 1_545 S
C550 C549 1.374 . S
C551 C548 1.500 . S
C551 C552 1.325 1_566 S
C551 C553 1.436 . S
C552 H525 0.950 . S
C552 C538 1.377 . S
C552 C551 1.325 1_544 S
C553 C537 1.377 1_556 S
C553 C551 1.436 . S
C553 C554 1.524 . S
C554 C553 1.524 . S
C554 C555 1.397 . S
C554 C559 1.363 . S
C555 H526 0.950 . S
C555 C554 1.397 . S
C555 C556 1.334 . S
C556 H527 0.950 . S
C556 C555 1.334 . S
C556 C557 1.287 . S
C557 C556 1.287 . S
C557 C558 1.524 . S
C557 H560 0.999 . S
C558 H528 0.950 . S
C558 C557 1.524 . S
C558 C559 1.415 . S
C559 H529 0.950 . S
C559 C554 1.363 . S
C559 C558 1.415 . S
H560 C557 0.999 . S
H561 C542 0.913 . S
H562 C580 0.951 . S
H563 C582 0.951 . S
H564 C584 0.950 . S
H565 C585 0.950 . S
H566 C587 0.950 . S
H567 C590 0.950 . S
H568 C591 0.950 . S
H569 C593 0.950 . S
H570 C594 0.950 . S
H571 C595 0.951 . S
H572 C597 0.951 . S
H573 C599 0.950 . S
H574 C600 0.950 . S
H575 C602 0.950 . S
H576 C605 0.950 . S
H577 C606 0.950 . S
H578 C608 0.950 . S
H579 C609 0.950 . S
C580 H562 0.951 . S
C580 C581 1.366 . S
C580 C582 1.388 . S
C581 C580 1.366 . S
C581 C585 1.385 . S
C582 H563 0.951 . S
C582 C580 1.388 . S
C582 C583 1.366 . S
C583 C582 1.366 . S
C583 C584 1.414 . S
C583 C586 1.499 . S
C584 H564 0.950 . S
C584 C583 1.414 . S
C584 C585 1.374 . S
C585 H565 0.950 . S
C585 C581 1.385 . S
C585 C584 1.374 . S
C586 C583 1.499 . S
C586 C587 1.373 . S
C586 C588 1.389 . S
C587 H566 0.950 . S
C587 C586 1.373 . S
C587 C603 1.377 . S
C588 C586 1.389 . S
C588 C589 1.524 . S
C588 C602 1.377 1_554 S
C589 C588 1.524 . S
C589 C590 1.397 . S
C589 C594 1.363 1_554 S
C590 H567 0.950 . S
C590 C589 1.397 . S
C590 C591 1.334 . S
C591 H568 0.950 . S
C591 C590 1.334 . S
C591 C592 1.287 1_554 S
C592 C591 1.287 1_556 S
C592 C593 1.524 . S
C592 H611 0.913 . S
C593 H569 0.950 . S
C593 C592 1.524 . S
C593 C594 1.415 . S
C594 H570 0.950 . S
C594 C589 1.363 1_556 S
C594 C593 1.415 . S
C595 H571 0.951 . S
C595 C596 1.366 . S
C595 C597 1.388 . S
C596 C595 1.366 . S
C596 C600 1.385 . S
C597 H572 0.951 . S
C597 C595 1.388 . S
C597 C598 1.366 . S
C598 C597 1.366 . S
C598 C599 1.414 . S
C598 C601 1.499 . S
C599 H573 0.950 . S
C599 C598 1.414 . S
C599 C600 1.374 . S
C600 H574 0.950 . S
C600 C596 1.385 . S
C600 C599 1.374 . S
C601 C598 1.499 . S
C601 C602 1.373 . S
C601 C603 1.389 1_556 S
C602 H575 0.950 . S
C602 C588 1.377 1_556 S
C602 C601 1.373 . S
C603 C587 1.377 . S
C603 C601 1.389 1_554 S
C603 C604 1.524 . S
C604 C603 1.524 . S
C604 C605 1.397 1_554 S
C604 C609 1.363 . S
C605 H576 0.950 . S
C605 C604 1.397 1_556 S
C605 C606 1.334 . S
C606 H577 0.950 . S
C606 C605 1.334 . S
C606 C607 1.287 1_556 S
C607 C606 1.287 1_554 S
C607 C608 1.524 . S
C607 H610 0.999 . S
C608 H578 0.950 . S
C608 C607 1.524 . S
C608 C609 1.415 . S
C609 H579 0.950 . S
C609 C604 1.363 . S
C609 C608 1.415 . S
H610 C607 0.999 . S
H611 C592 0.913 . S
H612 C630 0.951 . S
H613 C632 0.951 . S
H614 C634 0.950 . S
H615 C635 0.950 . S
H616 C637 0.950 . S
H617 C640 0.950 . S
H618 C641 0.950 . S
H619 C643 0.950 . S
H620 C644 0.949 1_554 S
H621 C645 0.951 . S
H622 C647 0.951 . S
H623 C649 0.950 . S
H624 C650 0.950 . S
H625 C652 0.950 . S
H626 C655 0.950 . S
H627 C656 0.950 . S
H628 C658 0.950 . S
H629 C659 0.950 . S
C630 H612 0.951 . S
C630 C631 1.366 . S
C630 C632 1.388 . S
C631 C630 1.366 . S
C631 C635 1.385 . S
C632 H613 0.951 . S
C632 C630 1.388 . S
C632 C633 1.366 . S
C633 C632 1.366 . S
C633 C634 1.414 . S
C633 C636 1.499 . S
C634 H614 0.950 . S
C634 C633 1.414 . S
C634 C635 1.374 . S
C635 H615 0.950 . S
C635 C631 1.385 . S
C635 C634 1.374 . S
C636 C633 1.499 . S
C636 C637 1.373 . S
C636 C638 1.389 . S
C637 H616 0.950 . S
C637 C636 1.373 . S
C637 C653 1.377 . S
C638 C636 1.389 . S
C638 C639 1.525 . S
C638 C652 1.377 1_554 S
C639 C638 1.525 . S
C639 C640 1.396 1_554 S
C639 C644 1.363 1_554 S
C640 H617 0.950 . S
C640 C639 1.396 1_556 S
C640 C641 1.334 . S
C641 H618 0.950 . S
C641 C640 1.334 . S
C641 C642 1.287 . S
C642 C641 1.287 . S
C642 C643 1.524 . S
C642 H661 0.913 . S
C643 H619 0.950 . S
C643 C642 1.524 . S
C643 C644 1.415 . S
C644 H620 0.949 1_556 S
C644 C639 1.363 1_556 S
C644 C643 1.415 . S
C645 H621 0.951 . S
C645 C646 1.366 . S
C645 C647 1.388 . S
C646 C645 1.366 . S
C646 C650 1.385 . S
C647 H622 0.951 . S
C647 C645 1.388 . S
C647 C648 1.366 . S
C648 C647 1.366 . S
C648 C649 1.414 . S
C648 C651 1.499 . S
C649 H623 0.950 . S
C649 C648 1.414 . S
C649 C650 1.374 . S
C650 H624 0.950 . S
C650 C646 1.385 . S
C650 C649 1.374 . S
C651 C648 1.499 . S
C651 C652 1.373 . S
C651 C653 1.389 1_556 S
C652 H625 0.950 . S
C652 C638 1.377 1_556 S
C652 C651 1.373 . S
C653 C637 1.377 . S
C653 C651 1.389 1_554 S
C653 C654 1.524 . S
C654 C653 1.524 . S
C654 C655 1.397 . S
C654 C659 1.363 . S
C655 H626 0.950 . S
C655 C654 1.397 . S
C655 C656 1.334 . S
C656 H627 0.950 . S
C656 C655 1.334 . S
C656 C657 1.287 . S
C657 C656 1.287 . S
C657 C658 1.524 . S
C657 H660 0.999 . S
C658 H628 0.950 . S
C658 C657 1.524 . S
C658 C659 1.415 . S
C659 H629 0.950 . S
C659 C654 1.363 . S
C659 C658 1.415 . S
H660 C657 0.999 . S
H661 C642 0.913 . S
H662 C680 0.951 . S
H663 C682 0.951 . S
H664 C684 0.950 . S
H665 C685 0.950 . S
H666 C687 0.950 . S
H667 C690 0.950 . S
H668 C691 0.951 . S
H669 C693 0.950 . S
H670 C694 0.950 . S
H671 C695 0.951 . S
H672 C697 0.951 . S
H673 C699 0.950 . S
H674 C700 0.950 . S
H675 C702 0.950 . S
H676 C705 0.950 . S
H677 C706 0.950 . S
H678 C708 0.947 1_556 S
H679 C709 0.950 1_556 S
C680 H662 0.951 . S
C680 C681 1.363 1_455 S
C680 C682 1.388 . S
C681 C680 1.363 1_655 S
C681 C685 1.387 . S
C682 H663 0.951 . S
C682 C680 1.388 . S
C682 C683 1.377 . S
C683 C682 1.377 . S
C683 C684 1.402 1_455 S
C683 C686 1.498 1_455 S
C684 H664 0.950 . S
C684 C683 1.402 1_655 S
C684 C685 1.374 . S
C685 H665 0.950 . S
C685 C681 1.387 . S
C685 C684 1.374 . S
C686 C683 1.498 1_655 S
C686 C687 1.375 . S
C686 C688 1.387 1_655 S
C687 H666 0.950 . S
C687 C686 1.375 . S
C687 C703 1.377 . S
C688 C686 1.387 1_455 S
C688 C689 1.524 . S
C688 C702 1.377 1_554 S
C689 C688 1.524 . S
C689 C690 1.397 . S
C689 C694 1.363 . S
C690 H667 0.950 . S
C690 C689 1.397 . S
C690 C691 1.334 . S
C691 H668 0.951 . S
C691 C690 1.334 . S
C691 C692 1.287 . S
C692 C691 1.287 . S
C692 C693 1.524 . S
C692 H711 0.913 . S
C693 H669 0.950 . S
C693 C692 1.524 . S
C693 C694 1.415 . S
C694 H670 0.950 . S
C694 C689 1.363 . S
C694 C693 1.415 . S
C695 H671 0.951 . S
C695 C696 1.378 . S
C695 C697 1.388 . S
C696 C695 1.378 . S
C696 C700 1.372 1_655 S
C697 H672 0.951 . S
C697 C695 1.388 . S
C697 C698 1.402 . S
C698 C697 1.402 . S
C698 C699 1.377 1_655 S
C698 C701 1.498 . S
C699 H673 0.950 . S
C699 C698 1.377 1_455 S
C699 C700 1.374 . S
C700 H674 0.950 . S
C700 C696 1.372 1_455 S
C700 C699 1.374 . S
C701 C698 1.498 . S
C701 C702 1.359 1_655 S
C701 C703 1.404 1_556 S
C702 H675 0.950 . S
C702 C688 1.377 1_556 S
C702 C701 1.359 1_455 S
C703 C687 1.377 . S
C703 C701 1.404 1_554 S
C703 C704 1.524 . S
C704 C703 1.524 . S
C704 C705 1.397 . S
C704 C709 1.363 . S
C705 H676 0.950 . S
C705 C704 1.397 . S
C705 C706 1.334 . S
C706 H677 0.950 . S
C706 C705 1.334 . S
C706 C707 1.287 . S
C707 C706 1.287 . S
C707 C708 1.524 . S
C707 H710 0.999 . S
C708 H678 0.947 1_554 S
C708 C707 1.524 . S
C708 C709 1.415 . S
C709 H679 0.950 1_554 S
C709 C704 1.363 . S
C709 C708 1.415 . S
H710 C707 0.999 . S
H711 C692 0.913 . S
H712 C730 0.951 . S
H713 C732 0.951 . S
H714 C734 0.950 . S
H715 C735 0.950 . S
H716 C737 0.950 . S
H717 C740 0.950 . S
H718 C741 0.950 . S
H719 C743 0.950 . S
H720 C744 0.950 . S
H721 C745 0.951 . S
H722 C747 0.951 1_455 S
H723 C749 0.950 . S
H724 C750 0.950 . S
H725 C752 0.950 . S
H726 C755 0.950 . S
H727 C756 0.950 . S
H728 C758 0.950 . S
H729 C759 0.950 . S
C730 H712 0.951 . S
C730 C731 1.366 1_655 S
C730 C732 1.388 . S
C731 C730 1.366 1_455 S
C731 C735 1.385 . S
C732 H713 0.951 . S
C732 C730 1.388 . S
C732 C733 1.366 . S
C733 C732 1.366 . S
C733 C734 1.414 1_655 S
C733 C736 1.499 . S
C734 H714 0.950 . S
C734 C733 1.414 1_455 S
C734 C735 1.374 . S
C735 H715 0.950 . S
C735 C731 1.385 . S
C735 C734 1.374 . S
C736 C733 1.499 . S
C736 C737 1.373 1_655 S
C736 C738 1.389 . S
C737 H716 0.950 . S
C737 C736 1.373 1_455 S
C737 C753 1.377 . S
C738 C736 1.389 . S
C738 C739 1.524 . S
C738 C752 1.377 . S
C739 C738 1.524 . S
C739 C740 1.397 . S
C739 C744 1.363 . S
C740 H717 0.950 . S
C740 C739 1.397 . S
C740 C741 1.334 . S
C741 H718 0.950 . S
C741 C740 1.334 . S
C741 C742 1.287 . S
C742 C741 1.287 . S
C742 C743 1.524 . S
C742 H761 0.913 . S
C743 H719 0.950 . S
C743 C742 1.524 . S
C743 C744 1.415 . S
C744 H720 0.950 . S
C744 C739 1.363 . S
C744 C743 1.415 . S
C745 H721 0.951 . S
C745 C746 1.366 . S
C745 C747 1.388 . S
C746 C745 1.366 . S
C746 C750 1.385 . S
C747 H722 0.951 1_655 S
C747 C745 1.388 . S
C747 C748 1.366 . S
C748 C747 1.366 . S
C748 C749 1.414 . S
C748 C751 1.499 . S
C749 H723 0.950 . S
C749 C748 1.414 . S
C749 C750 1.374 . S
C750 H724 0.950 . S
C750 C746 1.385 . S
C750 C749 1.374 . S
C751 C748 1.499 . S
C751 C752 1.373 . S
C751 C753 1.389 1_655 S
C752 H725 0.950 . S
C752 C738 1.377 . S
C752 C751 1.373 . S
C753 C737 1.377 . S
C753 C751 1.389 1_455 S
C753 C754 1.524 . S
C754 C753 1.524 . S
C754 C755 1.397 . S
C754 C759 1.363 . S
C755 H726 0.950 . S
C755 C754 1.397 . S
C755 C756 1.334 . S
C756 H727 0.950 . S
C756 C755 1.334 . S
C756 C757 1.287 . S
C757 C756 1.287 . S
C757 C758 1.524 . S
C757 H760 0.999 . S
C758 H728 0.950 . S
C758 C757 1.524 . S
C758 C759 1.415 . S
C759 H729 0.950 . S
C759 C754 1.363 . S
C759 C758 1.415 . S
H760 C757 0.999 . S
H761 C742 0.913 . S
H762 C780 0.951 . S
H763 C782 0.951 . S
H764 C784 0.950 . S
H765 C785 0.950 . S
H766 C787 0.984 . S
H767 C790 0.950 . S
H768 C791 0.950 . S
H769 C793 0.950 . S
H770 C794 0.950 . S
H771 C795 0.951 . S
H772 C797 0.951 . S
H773 C799 0.950 . S
H774 C800 0.950 . S
H775 C802 0.950 . S
H776 C805 0.950 . S
H777 C806 0.950 . S
H778 C808 0.950 . S
H779 C809 0.967 . S
C780 H762 0.951 . S
C780 C781 1.366 . S
C780 C782 1.388 . S
C781 C780 1.366 . S
C781 C785 1.385 1_545 S
C782 H763 0.951 . S
C782 C780 1.388 . S
C782 C783 1.366 1_545 S
C783 C782 1.366 1_565 S
C783 C784 1.414 . S
C783 C786 1.499 . S
C784 H764 0.950 . S
C784 C783 1.414 . S
C784 C785 1.374 . S
C785 H765 0.950 . S
C785 C781 1.385 1_565 S
C785 C784 1.374 . S
C786 C783 1.499 . S
C786 C787 1.347 1_565 S
C786 C788 1.389 . S
C787 H766 0.984 . S
C787 C786 1.347 1_545 S
C787 C803 1.375 1_545 S
C788 C786 1.389 . S
C788 C789 1.524 . S
C788 C802 1.377 . S
C789 C788 1.524 . S
C789 C790 1.397 . S
C789 C794 1.363 . S
C790 H767 0.950 . S
C790 C789 1.397 . S
C790 C791 1.334 . S
C791 H768 0.950 . S
C791 C790 1.334 . S
C791 C792 1.287 1_554 S
C792 C791 1.287 1_556 S
C792 C793 1.524 . S
C792 H811 0.913 . S
C793 H769 0.950 . S
C793 C792 1.524 . S
C793 C794 1.415 1_556 S
C794 H770 0.950 . S
C794 C789 1.363 . S
C794 C793 1.415 1_554 S
C795 H771 0.951 . S
C795 C796 1.366 . S
C795 C797 1.388 . S
C796 C795 1.366 . S
C796 C800 1.385 . S
C797 H772 0.951 . S
C797 C795 1.388 . S
C797 C798 1.366 . S
C798 C797 1.366 . S
C798 C799 1.414 . S
C798 C801 1.499 . S
C799 H773 0.950 . S
C799 C798 1.414 . S
C799 C800 1.374 . S
C800 H774 0.950 . S
C800 C796 1.385 . S
C800 C799 1.374 . S
C801 C798 1.499 . S
C801 C802 1.373 . S
C801 C803 1.387 . S
C802 H775 0.950 . S
C802 C788 1.377 . S
C802 C801 1.373 . S
C803 C787 1.375 1_565 S
C803 C801 1.387 . S
C803 C804 1.527 1_565 S
C804 C803 1.527 1_545 S
C804 C805 1.397 . S
C804 C809 1.363 . S
C805 H776 0.950 . S
C805 C804 1.397 . S
C805 C806 1.334 . S
C806 H777 0.950 . S
C806 C805 1.334 . S
C806 C807 1.287 . S
C807 C806 1.287 . S
C807 C808 1.524 . S
C807 H810 0.999 . S
C808 H778 0.950 . S
C808 C807 1.524 . S
C808 C809 1.415 . S
C809 H779 0.967 . S
C809 C804 1.363 . S
C809 C808 1.415 . S
H810 C807 0.999 . S
H811 C792 0.913 . S
H812 C830 0.951 . S
H813 C832 0.951 . S
H814 C834 0.950 . S
H815 C835 0.950 . S
H816 C837 0.950 . S
H817 C840 0.950 . S
H818 C841 0.950 . S
H819 C843 0.950 . S
H820 C844 0.950 . S
H821 C845 0.951 . S
H822 C847 0.951 . S
H823 C849 0.950 . S
H824 C850 0.950 . S
H825 C852 0.950 . S
H826 C855 0.950 . S
H827 C856 0.950 . S
H828 C858 0.950 . S
H829 C859 0.950 . S
C830 H812 0.951 . S
C830 C831 1.366 . S
C830 C832 1.388 . S
C831 C830 1.366 . S
C831 C835 1.385 . S
C832 H813 0.951 . S
C832 C830 1.388 . S
C832 C833 1.366 . S
C833 C832 1.366 . S
C833 C834 1.414 . S
C833 C836 1.499 . S
C834 H814 0.950 . S
C834 C833 1.414 . S
C834 C835 1.374 . S
C835 H815 0.950 . S
C835 C831 1.385 . S
C835 C834 1.374 . S
C836 C833 1.499 . S
C836 C837 1.373 . S
C836 C838 1.389 . S
C837 H816 0.950 . S
C837 C836 1.373 . S
C837 C853 1.377 . S
C838 C836 1.389 . S
C838 C839 1.524 . S
C838 C852 1.377 . S
C839 C838 1.524 . S
C839 C840 1.397 . S
C839 C844 1.363 . S
C840 H817 0.950 . S
C840 C839 1.397 . S
C840 C841 1.334 . S
C841 H818 0.950 . S
C841 C840 1.334 . S
C841 C842 1.287 . S
C842 C841 1.287 . S
C842 C843 1.524 . S
C842 H861 0.913 . S
C843 H819 0.950 . S
C843 C842 1.524 . S
C843 C844 1.415 . S
C844 H820 0.950 . S
C844 C839 1.363 . S
C844 C843 1.415 . S
C845 H821 0.951 . S
C845 C846 1.366 . S
C845 C847 1.388 . S
C846 C845 1.366 . S
C846 C850 1.385 . S
C847 H822 0.951 . S
C847 C845 1.388 . S
C847 C848 1.366 . S
C848 C847 1.366 . S
C848 C849 1.414 . S
C848 C851 1.499 . S
C849 H823 0.950 . S
C849 C848 1.414 . S
C849 C850 1.374 . S
C850 H824 0.950 . S
C850 C846 1.385 . S
C850 C849 1.374 . S
C851 C848 1.499 . S
C851 C852 1.373 . S
C851 C853 1.389 . S
C852 H825 0.950 . S
C852 C838 1.377 . S
C852 C851 1.373 . S
C853 C837 1.377 . S
C853 C851 1.389 . S
C853 C854 1.524 . S
C854 C853 1.524 . S
C854 C855 1.397 . S
C854 C859 1.363 . S
C855 H826 0.950 . S
C855 C854 1.397 . S
C855 C856 1.334 . S
C856 H827 0.950 . S
C856 C855 1.334 . S
C856 C857 1.287 . S
C857 C856 1.287 . S
C857 C858 1.524 . S
C857 H860 0.999 . S
C858 H828 0.950 . S
C858 C857 1.524 . S
C858 C859 1.415 . S
C859 H829 0.950 . S
C859 C854 1.363 . S
C859 C858 1.415 . S
H860 C857 0.999 . S
H861 C842 0.913 . S
H862 C880 0.951 . S
H863 C882 0.951 . S
H864 C884 0.950 . S
H865 C885 0.950 . S
H866 C887 0.950 . S
H867 C890 0.950 . S
H868 C891 0.950 . S
H869 C893 0.950 . S
H870 C894 0.950 . S
H871 C895 0.951 . S
H872 C897 0.951 . S
H873 C899 0.950 . S
H874 C900 0.950 . S
H875 C902 0.950 . S
H876 C905 0.950 . S
H877 C906 0.950 . S
H878 C908 0.950 . S
H879 C909 0.950 . S
C880 H862 0.951 . S
C880 C881 1.366 . S
C880 C882 1.388 . S
C881 C880 1.366 . S
C881 C885 1.385 . S
C882 H863 0.951 . S
C882 C880 1.388 . S
C882 C883 1.366 . S
C883 C882 1.366 . S
C883 C884 1.414 . S
C883 C886 1.499 . S
C884 H864 0.950 . S
C884 C883 1.414 . S
C884 C885 1.374 . S
C885 H865 0.950 . S
C885 C881 1.385 . S
C885 C884 1.374 . S
C886 C883 1.499 . S
C886 C887 1.373 . S
C886 C888 1.389 . S
C887 H866 0.950 . S
C887 C886 1.373 . S
C887 C903 1.377 . S
C888 C886 1.389 . S
C888 C889 1.524 . S
C888 C902 1.377 . S
C889 C888 1.524 . S
C889 C890 1.397 . S
C889 C894 1.363 . S
C890 H867 0.950 . S
C890 C889 1.397 . S
C890 C891 1.334 . S
C891 H868 0.950 . S
C891 C890 1.334 . S
C891 C892 1.287 1_554 S
C892 C891 1.287 1_556 S
C892 C893 1.524 . S
C892 H911 0.913 . S
C893 H869 0.950 . S
C893 C892 1.524 . S
C893 C894 1.415 1_556 S
C894 H870 0.950 . S
C894 C889 1.363 . S
C894 C893 1.415 1_554 S
C895 H871 0.951 . S
C895 C896 1.366 . S
C895 C897 1.388 . S
C896 C895 1.366 . S
C896 C900 1.385 . S
C897 H872 0.951 . S
C897 C895 1.388 . S
C897 C898 1.366 . S
C898 C897 1.366 . S
C898 C899 1.414 . S
C898 C901 1.499 . S
C899 H873 0.950 . S
C899 C898 1.414 . S
C899 C900 1.374 . S
C900 H874 0.950 . S
C900 C896 1.385 . S
C900 C899 1.374 . S
C901 C898 1.499 . S
C901 C902 1.373 . S
C901 C903 1.389 . S
C902 H875 0.950 . S
C902 C888 1.377 . S
C902 C901 1.373 . S
C903 C887 1.377 . S
C903 C901 1.389 . S
C903 C904 1.524 . S
C904 C903 1.524 . S
C904 C905 1.397 . S
C904 C909 1.363 . S
C905 H876 0.950 . S
C905 C904 1.397 . S
C905 C906 1.334 . S
C906 H877 0.950 . S
C906 C905 1.334 . S
C906 C907 1.287 . S
C907 C906 1.287 . S
C907 C908 1.524 . S
C907 H910 0.999 . S
C908 H878 0.950 . S
C908 C907 1.524 . S
C908 C909 1.415 . S
C909 H879 0.950 . S
C909 C904 1.363 . S
C909 C908 1.415 . S
H910 C907 0.999 . S
H911 C892 0.913 . S
H912 C930 0.951 . S
H913 C932 0.951 . S
H914 C934 0.950 . S
H915 C935 0.950 . S
H916 C937 0.950 . S
H917 C940 0.950 . S
H918 C941 0.950 . S
H919 C943 0.950 . S
H920 C944 0.950 . S
H921 C945 0.951 1_655 S
H922 C947 0.955 1_655 S
H923 C949 0.950 . S
H924 C950 0.950 . S
H925 C952 0.950 . S
H926 C955 0.950 . S
H927 C956 0.950 . S
H928 C958 0.950 1_554 S
H929 C959 0.950 . S
C930 H912 0.951 . S
C930 C931 1.322 1_455 S
C930 C932 1.388 . S
C931 C930 1.322 1_655 S
C931 C935 1.422 . S
C932 H913 0.951 . S
C932 C930 1.388 . S
C932 C933 1.366 . S
C933 C932 1.366 . S
C933 C934 1.414 1_455 S
C933 C936 1.499 . S
C934 H914 0.950 . S
C934 C933 1.414 1_655 S
C934 C935 1.374 . S
C935 H915 0.950 . S
C935 C931 1.422 . S
C935 C934 1.374 . S
C936 C933 1.499 . S
C936 C937 1.373 1_455 S
C936 C938 1.389 . S
C937 H916 0.950 . S
C937 C936 1.373 1_655 S
C937 C953 1.377 . S
C938 C936 1.389 . S
C938 C939 1.524 . S
C938 C952 1.377 . S
C939 C938 1.524 . S
C939 C940 1.397 . S
C939 C944 1.363 . S
C940 H917 0.950 . S
C940 C939 1.397 . S
C940 C941 1.334 . S
C941 H918 0.950 . S
C941 C940 1.334 . S
C941 C942 1.287 . S
C942 C941 1.287 . S
C942 C943 1.524 . S
C942 H961 0.913 . S
C943 H919 0.950 . S
C943 C942 1.524 . S
C943 C944 1.415 . S
C944 H920 0.950 . S
C944 C939 1.363 . S
C944 C943 1.415 . S
C945 H921 0.951 1_455 S
C945 C946 1.366 1_554 S
C945 C947 1.387 . S
C946 C945 1.366 1_556 S
C946 C950 1.385 . S
C947 H922 0.955 1_455 S
C947 C945 1.387 . S
C947 C948 1.362 . S
C948 C947 1.362 . S
C948 C949 1.414 . S
C948 C951 1.499 . S
C949 H923 0.950 . S
C949 C948 1.414 . S
C949 C950 1.374 1_554 S
C950 H924 0.950 . S
C950 C946 1.385 . S
C950 C949 1.374 1_556 S
C951 C948 1.499 . S
C951 C952 1.373 . S
C951 C953 1.389 1_455 S
C952 H925 0.950 . S
C952 C938 1.377 . S
C952 C951 1.373 . S
C953 C937 1.377 . S
C953 C951 1.389 1_655 S
C953 C954 1.524 . S
C954 C953 1.524 . S
C954 C955 1.397 1_554 S
C954 C959 1.363 . S
C955 H926 0.950 . S
C955 C954 1.397 1_556 S
C955 C956 1.334 . S
C956 H927 0.950 . S
C956 C955 1.334 . S
C956 C957 1.287 . S
C957 C956 1.287 . S
C957 C958 1.524 . S
C957 H960 0.999 . S
C958 H928 0.950 1_556 S
C958 C957 1.524 . S
C958 C959 1.415 1_556 S
C959 H929 0.950 . S
C959 C954 1.363 . S
C959 C958 1.415 1_554 S
H960 C957 0.999 . S
H961 C942 0.913 . S
H962 C980 0.951 . S
H963 C982 0.951 . S
H964 C984 0.950 . S
H965 C985 0.950 . S
H966 C987 0.950 . S
H967 C990 0.950 . S
H968 C991 0.950 . S
H969 C993 0.950 . S
H970 C994 0.950 1_545 S
H971 C995 0.951 . S
H972 C997 0.951 . S
H973 C999 0.950 . S
H974 C1000 0.950 . S
H975 C1002 0.965 . S
H976 C1005 0.950 1_554 S
H977 C1006 0.950 . S
H978 C1008 0.950 . S
H979 C1009 0.950 . S
C980 H962 0.951 . S
C980 C981 1.349 1_545 S
C980 C982 1.388 . S
C981 C980 1.349 1_565 S
C981 C985 1.398 . S
C982 H963 0.951 . S
C982 C980 1.388 . S
C982 C983 1.366 . S
C983 C982 1.366 . S
C983 C984 1.414 1_545 S
C983 C986 1.499 . S
C984 H964 0.950 . S
C984 C983 1.414 1_565 S
C984 C985 1.374 . S
C985 H965 0.950 . S
C985 C981 1.398 . S
C985 C984 1.374 . S
C986 C983 1.499 . S
C986 C987 1.373 . S
C986 C988 1.397 . S
C987 H966 0.950 . S
C987 C986 1.373 . S
C987 C1003 1.377 . S
C988 C986 1.397 . S
C988 C989 1.510 1_545 S
C988 C1002 1.382 . S
C989 C988 1.510 1_565 S
C989 C990 1.397 . S
C989 C994 1.363 . S
C990 H967 0.950 . S
C990 C989 1.397 . S
C990 C991 1.334 . S
C991 H968 0.950 . S
C991 C990 1.334 . S
C991 C992 1.287 . S
C992 C991 1.287 . S
C992 C993 1.524 . S
C992 H1011 0.913 . S
C993 H969 0.950 . S
C993 C992 1.524 . S
C993 C994 1.415 . S
C994 H970 0.950 1_565 S
C994 C989 1.363 . S
C994 C993 1.415 . S
C995 H971 0.951 . S
C995 C996 1.366 . S
C995 C997 1.388 . S
C996 C995 1.366 . S
C996 C1000 1.385 1_556 S
C997 H972 0.951 . S
C997 C995 1.388 . S
C997 C998 1.366 1_556 S
C998 C997 1.366 1_554 S
C998 C999 1.414 . S
C998 C1001 1.499 . S
C999 H973 0.950 . S
C999 C998 1.414 . S
C999 C1000 1.374 . S
C1000 H974 0.950 . S
C1000 C996 1.385 1_554 S
C1000 C999 1.374 . S
C1001 C998 1.499 . S
C1001 C1002 1.373 . S
C1001 C1003 1.389 . S
C1002 H975 0.965 . S
C1002 C988 1.382 . S
C1002 C1001 1.373 . S
C1003 C987 1.377 . S
C1003 C1001 1.389 . S
C1003 C1004 1.524 1_554 S
C1004 C1003 1.524 1_556 S
C1004 C1005 1.397 . S
C1004 C1009 1.363 . S
C1005 H976 0.950 1_556 S
C1005 C1004 1.397 . S
C1005 C1006 1.334 . S
C1006 H977 0.950 . S
C1006 C1005 1.334 . S
C1006 C1007 1.287 . S
C1007 C1006 1.287 . S
C1007 C1008 1.524 . S
C1007 H1010 0.999 . S
C1008 H978 0.950 . S
C1008 C1007 1.524 . S
C1008 C1009 1.415 . S
C1009 H979 0.950 . S
C1009 C1004 1.363 . S
C1009 C1008 1.415 . S
H1010 C1007 0.999 . S
H1011 C992 0.913 . S
H1012 C1030 0.951 . S
H1013 C1032 0.951 . S
H1014 C1034 0.950 . S
H1015 C1035 0.950 . S
H1016 C1037 0.950 . S
H1017 C1040 0.950 . S
H1018 C1041 0.950 . S
H1019 C1043 0.950 . S
H1020 C1044 0.950 . S
H1021 C1045 0.951 . S
H1022 C1047 0.951 . S
H1023 C1049 0.950 . S
H1024 C1050 0.950 . S
H1025 C1052 0.950 . S
H1026 C1055 0.950 . S
H1027 C1056 0.950 . S
H1028 C1058 0.950 . S
H1029 C1059 0.950 . S
C1030 H1012 0.951 . S
C1030 C1031 1.366 . S
C1030 C1032 1.388 . S
C1031 C1030 1.366 . S
C1031 C1035 1.385 . S
C1032 H1013 0.951 . S
C1032 C1030 1.388 . S
C1032 C1033 1.366 . S
C1033 C1032 1.366 . S
C1033 C1034 1.414 . S
C1033 C1036 1.499 . S
C1034 H1014 0.950 . S
C1034 C1033 1.414 . S
C1034 C1035 1.374 . S
C1035 H1015 0.950 . S
C1035 C1031 1.385 . S
C1035 C1034 1.374 . S
C1036 C1033 1.499 . S
C1036 C1037 1.373 . S
C1036 C1038 1.389 . S
C1037 H1016 0.950 . S
C1037 C1036 1.373 . S
C1037 C1053 1.377 . S
C1038 C1036 1.389 . S
C1038 C1039 1.524 . S
C1038 C1052 1.377 . S
C1039 C1038 1.524 . S
C1039 C1040 1.397 . S
C1039 C1044 1.363 . S
C1040 H1017 0.950 . S
C1040 C1039 1.397 . S
C1040 C1041 1.334 . S
C1041 H1018 0.950 . S
C1041 C1040 1.334 . S
C1041 C1042 1.287 . S
C1042 C1041 1.287 . S
C1042 C1043 1.524 . S
C1042 H1061 0.913 . S
C1043 H1019 0.950 . S
C1043 C1042 1.524 . S
C1043 C1044 1.415 . S
C1044 H1020 0.950 . S
C1044 C1039 1.363 . S
C1044 C1043 1.415 . S
C1045 H1021 0.951 . S
C1045 C1046 1.366 1_554 S
C1045 C1047 1.388 . S
C1046 C1045 1.366 1_556 S
C1046 C1050 1.385 . S
C1047 H1022 0.951 . S
C1047 C1045 1.388 . S
C1047 C1048 1.366 . S
C1048 C1047 1.366 . S
C1048 C1049 1.414 1_554 S
C1048 C1051 1.499 . S
C1049 H1023 0.950 . S
C1049 C1048 1.414 1_556 S
C1049 C1050 1.374 . S
C1050 H1024 0.950 . S
C1050 C1046 1.385 . S
C1050 C1049 1.374 . S
C1051 C1048 1.499 . S
C1051 C1052 1.373 . S
C1051 C1053 1.389 . S
C1052 H1025 0.950 . S
C1052 C1038 1.377 . S
C1052 C1051 1.373 . S
C1053 C1037 1.377 . S
C1053 C1051 1.389 . S
C1053 C1054 1.524 . S
C1054 C1053 1.524 . S
C1054 C1055 1.397 1_554 S
C1054 C1059 1.363 . S
C1055 H1026 0.950 . S
C1055 C1054 1.397 1_556 S
C1055 C1056 1.334 . S
C1056 H1027 0.950 . S
C1056 C1055 1.334 . S
C1056 C1057 1.278 1_556 S
C1057 C1056 1.278 1_554 S
C1057 C1058 1.538 . S
C1057 H1060 0.994 1_554 S
C1058 H1028 0.950 . S
C1058 C1057 1.538 . S
C1058 C1059 1.415 . S
C1059 H1029 0.950 . S
C1059 C1054 1.363 . S
C1059 C1058 1.415 . S
H1060 C1057 0.994 1_556 S
H1061 C1042 0.913 . S
H1062 C1080 0.951 . S
H1063 C1082 0.951 . S
H1064 C1084 0.950 . S
H1065 C1085 0.950 . S
H1066 C1087 0.950 . S
H1067 C1090 0.950 . S
H1068 C1091 0.950 . S
H1069 C1093 0.950 . S
H1070 C1094 0.950 . S
H1071 C1095 0.951 . S
H1072 C1097 0.951 . S
H1073 C1099 0.950 . S
H1074 C1100 0.950 . S
H1075 C1102 0.950 . S
H1076 C1105 0.950 . S
H1077 C1106 0.950 . S
H1078 C1108 0.950 . S
H1079 C1109 0.950 . S
C1080 H1062 0.951 . S
C1080 C1081 1.366 . S
C1080 C1082 1.388 . S
C1081 C1080 1.366 . S
C1081 C1085 1.385 . S
C1082 H1063 0.951 . S
C1082 C1080 1.388 . S
C1082 C1083 1.366 . S
C1083 C1082 1.366 . S
C1083 C1084 1.414 . S
C1083 C1086 1.499 . S
C1084 H1064 0.950 . S
C1084 C1083 1.414 . S
C1084 C1085 1.374 . S
C1085 H1065 0.950 . S
C1085 C1081 1.385 . S
C1085 C1084 1.374 . S
C1086 C1083 1.499 . S
C1086 C1087 1.373 . S
C1086 C1088 1.389 . S
C1087 H1066 0.950 . S
C1087 C1086 1.373 . S
C1087 C1103 1.377 . S
C1088 C1086 1.389 . S
C1088 C1089 1.524 . S
C1088 C1102 1.377 . S
C1089 C1088 1.524 . S
C1089 C1090 1.397 . S
C1089 C1094 1.363 1_554 S
C1090 H1067 0.950 . S
C1090 C1089 1.397 . S
C1090 C1091 1.334 . S
C1091 H1068 0.950 . S
C1091 C1090 1.334 . S
C1091 C1092 1.287 1_554 S
C1092 C1091 1.287 1_556 S
C1092 C1093 1.524 . S
C1092 H1111 0.913 . S
C1093 H1069 0.950 . S
C1093 C1092 1.524 . S
C1093 C1094 1.415 . S
C1094 H1070 0.950 . S
C1094 C1089 1.363 1_556 S
C1094 C1093 1.415 . S
C1095 H1071 0.951 . S
C1095 C1096 1.366 1_554 S
C1095 C1097 1.388 . S
C1096 C1095 1.366 1_556 S
C1096 C1100 1.385 . S
C1097 H1072 0.951 . S
C1097 C1095 1.388 . S
C1097 C1098 1.366 . S
C1098 C1097 1.366 . S
C1098 C1099 1.414 1_554 S
C1098 C1101 1.499 . S
C1099 H1073 0.950 . S
C1099 C1098 1.414 1_556 S
C1099 C1100 1.374 . S
C1100 H1074 0.950 . S
C1100 C1096 1.385 . S
C1100 C1099 1.374 . S
C1101 C1098 1.499 . S
C1101 C1102 1.373 . S
C1101 C1103 1.389 . S
C1102 H1075 0.950 . S
C1102 C1088 1.377 . S
C1102 C1101 1.373 . S
C1103 C1087 1.377 . S
C1103 C1101 1.389 . S
C1103 C1104 1.524 . S
C1104 C1103 1.524 . S
C1104 C1105 1.397 . S
C1104 C1109 1.363 . S
C1105 H1076 0.950 . S
C1105 C1104 1.397 . S
C1105 C1106 1.334 . S
C1106 H1077 0.950 . S
C1106 C1105 1.334 . S
C1106 C1107 1.287 . S
C1107 C1106 1.287 . S
C1107 C1108 1.524 . S
C1107 H1110 0.999 . S
C1108 H1078 0.950 . S
C1108 C1107 1.524 . S
C1108 C1109 1.415 . S
C1109 H1079 0.950 . S
C1109 C1104 1.363 . S
C1109 C1108 1.415 . S
H1110 C1107 0.999 . S
H1111 C1092 0.913 . S
H1112 C1130 0.951 . S
H1113 C1132 0.951 . S
H1114 C1134 0.950 . S
H1115 C1135 0.950 . S
H1116 C1137 0.950 . S
H1117 C1140 0.950 . S
H1118 C1141 0.950 . S
H1119 C1143 0.950 . S
H1120 C1144 0.923 1_455 S
H1121 C1145 0.967 . S
H1122 C1147 0.973 . S
H1123 C1149 0.950 . S
H1124 C1150 0.950 . S
H1125 C1152 0.950 . S
H1126 C1155 0.950 . S
H1127 C1156 0.950 . S
H1128 C1158 0.950 . S
H1129 C1159 0.950 . S
C1130 H1112 0.951 . S
C1130 C1131 1.366 . S
C1130 C1132 1.388 . S
C1131 C1130 1.366 . S
C1131 C1135 1.385 1_455 S
C1132 H1113 0.951 . S
C1132 C1130 1.388 . S
C1132 C1133 1.366 . S
C1133 C1132 1.366 . S
C1133 C1134 1.414 1_455 S
C1133 C1136 1.499 . S
C1134 H1114 0.950 . S
C1134 C1133 1.414 1_655 S
C1134 C1135 1.374 . S
C1135 H1115 0.950 . S
C1135 C1131 1.385 1_655 S
C1135 C1134 1.374 . S
C1136 C1133 1.499 . S
C1136 C1137 1.373 . S
C1136 C1138 1.389 1_455 S
C1137 H1116 0.950 . S
C1137 C1136 1.373 . S
C1137 C1153 1.377 . S
C1138 C1136 1.389 1_655 S
C1138 C1139 1.524 . S
C1138 C1152 1.377 . S
C1139 C1138 1.524 . S
C1139 C1140 1.397 . S
C1139 C1144 1.363 . S
C1140 H1117 0.950 . S
C1140 C1139 1.397 . S
C1140 C1141 1.334 . S
C1141 H1118 0.950 . S
C1141 C1140 1.334 . S
C1141 C1142 1.287 . S
C1142 C1141 1.287 . S
C1142 C1143 1.524 . S
C1142 H1161 0.913 . S
C1143 H1119 0.950 . S
C1143 C1142 1.524 . S
C1143 C1144 1.415 . S
C1144 H1120 0.923 1_655 S
C1144 C1139 1.363 . S
C1144 C1143 1.415 . S
C1145 H1121 0.967 . S
C1145 C1146 1.351 1_655 S
C1145 C1147 1.388 . S
C1146 C1145 1.351 1_455 S
C1146 C1150 1.385 . S
C1147 H1122 0.973 . S
C1147 C1145 1.388 . S
C1147 C1148 1.346 1_655 S
C1148 C1147 1.346 1_455 S
C1148 C1149 1.414 . S
C1148 C1151 1.499 . S
C1149 H1123 0.950 . S
C1149 C1148 1.414 . S
C1149 C1150 1.374 . S
C1150 H1124 0.950 . S
C1150 C1146 1.385 . S
C1150 C1149 1.374 . S
C1151 C1148 1.499 . S
C1151 C1152 1.373 1_455 S
C1151 C1153 1.389 . S
C1152 H1125 0.950 . S
C1152 C1138 1.377 . S
C1152 C1151 1.373 1_655 S
C1153 C1137 1.377 . S
C1153 C1151 1.389 . S
C1153 C1154 1.524 . S
C1154 C1153 1.524 . S
C1154 C1155 1.397 . S
C1154 C1159 1.363 1_556 S
C1155 H1126 0.950 . S
C1155 C1154 1.397 . S
C1155 C1156 1.334 . S
C1156 H1127 0.950 . S
C1156 C1155 1.334 . S
C1156 C1157 1.287 1_556 S
C1157 C1156 1.287 1_554 S
C1157 C1158 1.524 . S
C1157 H1160 0.999 . S
C1158 H1128 0.950 . S
C1158 C1157 1.524 . S
C1158 C1159 1.415 . S
C1159 H1129 0.950 . S
C1159 C1154 1.363 1_554 S
C1159 C1158 1.415 . S
H1160 C1157 0.999 . S
H1161 C1142 0.913 . S
H1162 C1180 0.951 . S
H1163 C1182 0.951 . S
H1164 C1184 0.950 . S
H1165 C1185 0.950 . S
H1166 C1187 0.950 . S
H1167 C1190 0.950 . S
H1168 C1191 0.950 . S
H1169 C1193 0.950 . S
H1170 C1194 0.950 . S
H1171 C1195 0.951 . S
H1172 C1197 0.951 . S
H1173 C1199 0.950 . S
H1174 C1200 0.950 . S
H1175 C1202 0.950 . S
H1176 C1205 0.950 . S
H1177 C1206 0.950 . S
H1178 C1208 0.950 . S
H1179 C1209 0.950 1_545 S
C1180 H1162 0.951 . S
C1180 C1181 1.366 1_565 S
C1180 C1182 1.388 . S
C1181 C1180 1.366 1_545 S
C1181 C1185 1.385 . S
C1182 H1163 0.951 . S
C1182 C1180 1.388 . S
C1182 C1183 1.366 1_565 S
C1183 C1182 1.366 1_545 S
C1183 C1184 1.414 . S
C1183 C1186 1.499 . S
C1184 H1164 0.950 . S
C1184 C1183 1.414 . S
C1184 C1185 1.374 . S
C1185 H1165 0.950 . S
C1185 C1181 1.385 . S
C1185 C1184 1.374 . S
C1186 C1183 1.499 . S
C1186 C1187 1.373 1_545 S
C1186 C1188 1.389 . S
C1187 H1166 0.950 . S
C1187 C1186 1.373 1_565 S
C1187 C1203 1.377 . S
C1188 C1186 1.389 . S
C1188 C1189 1.524 . S
C1188 C1202 1.377 . S
C1189 C1188 1.524 . S
C1189 C1190 1.397 . S
C1189 C1194 1.363 1_556 S
C1190 H1167 0.950 . S
C1190 C1189 1.397 . S
C1190 C1191 1.334 1_556 S
C1191 H1168 0.950 . S
C1191 C1190 1.334 1_554 S
C1191 C1192 1.287 . S
C1192 C1191 1.287 . S
C1192 C1193 1.524 . S
C1192 H1211 0.913 . S
C1193 H1169 0.950 . S
C1193 C1192 1.524 . S
C1193 C1194 1.415 . S
C1194 H1170 0.950 . S
C1194 C1189 1.363 1_554 S
C1194 C1193 1.415 . S
C1195 H1171 0.951 . S
C1195 C1196 1.366 . S
C1195 C1197 1.388 . S
C1196 C1195 1.366 . S
C1196 C1200 1.385 1_545 S
C1197 H1172 0.951 . S
C1197 C1195 1.388 . S
C1197 C1198 1.366 . S
C1198 C1197 1.366 . S
C1198 C1199 1.414 1_545 S
C1198 C1201 1.499 . S
C1199 H1173 0.950 . S
C1199 C1198 1.414 1_565 S
C1199 C1200 1.374 . S
C1200 H1174 0.950 . S
C1200 C1196 1.385 1_565 S
C1200 C1199 1.374 . S
C1201 C1198 1.499 . S
C1201 C1202 1.373 . S
C1201 C1203 1.389 1_545 S
C1202 H1175 0.950 . S
C1202 C1188 1.377 . S
C1202 C1201 1.373 . S
C1203 C1187 1.377 . S
C1203 C1201 1.389 1_565 S
C1203 C1204 1.524 . S
C1204 C1203 1.524 . S
C1204 C1205 1.397 . S
C1204 C1209 1.363 . S
C1205 H1176 0.950 . S
C1205 C1204 1.397 . S
C1205 C1206 1.334 . S
C1206 H1177 0.950 . S
C1206 C1205 1.334 . S
C1206 C1207 1.287 . S
C1207 C1206 1.287 . S
C1207 C1208 1.524 . S
C1207 H1210 0.999 . S
C1208 H1178 0.950 . S
C1208 C1207 1.524 . S
C1208 C1209 1.415 . S
C1209 H1179 0.950 1_565 S
C1209 C1204 1.363 . S
C1209 C1208 1.415 . S
H1210 C1207 0.999 . S
H1211 C1192 0.913 . S
H1212 C1230 0.951 . S
H1213 C1232 0.951 . S
H1214 C1234 0.950 . S
H1215 C1235 0.950 . S
H1216 C1237 0.950 . S
H1217 C1240 0.950 . S
H1218 C1241 0.950 . S
H1219 C1243 0.950 . S
H1220 C1244 0.950 . S
H1221 C1245 0.951 . S
H1222 C1247 0.951 . S
H1223 C1249 0.950 . S
H1224 C1250 0.950 . S
H1225 C1252 0.950 . S
H1226 C1255 0.950 . S
H1227 C1256 0.950 . S
H1228 C1258 0.950 . S
H1229 C1259 0.950 . S
C1230 H1212 0.951 . S
C1230 C1231 1.366 . S
C1230 C1232 1.388 . S
C1231 C1230 1.366 . S
C1231 C1235 1.385 . S
C1232 H1213 0.951 . S
C1232 C1230 1.388 . S
C1232 C1233 1.366 . S
C1233 C1232 1.366 . S
C1233 C1234 1.414 . S
C1233 C1236 1.499 . S
C1234 H1214 0.950 . S
C1234 C1233 1.414 . S
C1234 C1235 1.374 . S
C1235 H1215 0.950 . S
C1235 C1231 1.385 . S
C1235 C1234 1.374 . S
C1236 C1233 1.499 . S
C1236 C1237 1.373 . S
C1236 C1238 1.389 . S
C1237 H1216 0.950 . S
C1237 C1236 1.373 . S
C1237 C1253 1.377 . S
C1238 C1236 1.389 . S
C1238 C1239 1.524 . S
C1238 C1252 1.377 . S
C1239 C1238 1.524 . S
C1239 C1240 1.397 . S
C1239 C1244 1.363 . S
C1240 H1217 0.950 . S
C1240 C1239 1.397 . S
C1240 C1241 1.334 . S
C1241 H1218 0.950 . S
C1241 C1240 1.334 . S
C1241 C1242 1.287 . S
C1242 C1241 1.287 . S
C1242 C1243 1.524 . S
C1242 H1261 0.913 . S
C1243 H1219 0.950 . S
C1243 C1242 1.524 . S
C1243 C1244 1.415 . S
C1244 H1220 0.950 . S
C1244 C1239 1.363 . S
C1244 C1243 1.415 . S
C1245 H1221 0.951 . S
C1245 C1246 1.366 . S
C1245 C1247 1.388 . S
C1246 C1245 1.366 . S
C1246 C1250 1.385 . S
C1247 H1222 0.951 . S
C1247 C1245 1.388 . S
C1247 C1248 1.366 . S
C1248 C1247 1.366 . S
C1248 C1249 1.414 . S
C1248 C1251 1.499 . S
C1249 H1223 0.950 . S
C1249 C1248 1.414 . S
C1249 C1250 1.374 . S
C1250 H1224 0.950 . S
C1250 C1246 1.385 . S
C1250 C1249 1.374 . S
C1251 C1248 1.499 . S
C1251 C1252 1.373 . S
C1251 C1253 1.389 . S
C1252 H1225 0.950 . S
C1252 C1238 1.377 . S
C1252 C1251 1.373 . S
C1253 C1237 1.377 . S
C1253 C1251 1.389 . S
C1253 C1254 1.524 . S
C1254 C1253 1.524 . S
C1254 C1255 1.397 . S
C1254 C1259 1.363 . S
C1255 H1226 0.950 . S
C1255 C1254 1.397 . S
C1255 C1256 1.334 . S
C1256 H1227 0.950 . S
C1256 C1255 1.334 . S
C1256 C1257 1.287 . S
C1257 C1256 1.287 . S
C1257 C1258 1.524 . S
C1257 H1260 0.999 . S
C1258 H1228 0.950 . S
C1258 C1257 1.524 . S
C1258 C1259 1.415 . S
C1259 H1229 0.950 . S
C1259 C1254 1.363 . S
C1259 C1258 1.415 . S
H1260 C1257 0.999 . S
H1261 C1242 0.913 . S
H1262 C1280 0.951 . S
H1263 C1282 0.951 . S
H1264 C1284 0.950 . S
H1265 C1285 0.950 1_554 S
H1266 C1287 0.950 . S
H1267 C1290 0.950 . S
H1268 C1291 0.950 . S
H1269 C1293 0.950 . S
H1270 C1294 0.950 . S
H1271 C1295 0.951 . S
H1272 C1297 0.951 . S
H1273 C1299 0.950 . S
H1274 C1300 0.950 . S
H1275 C1302 0.950 . S
H1276 C1305 0.950 . S
H1277 C1306 0.950 . S
H1278 C1308 0.950 1_554 S
H1279 C1309 0.950 . S
C1280 H1262 0.951 . S
C1280 C1281 1.366 . S
C1280 C1282 1.388 . S
C1281 C1280 1.366 . S
C1281 C1285 1.385 . S
C1282 H1263 0.951 . S
C1282 C1280 1.388 . S
C1282 C1283 1.366 . S
C1283 C1282 1.366 . S
C1283 C1284 1.414 . S
C1283 C1286 1.499 . S
C1284 H1264 0.950 . S
C1284 C1283 1.414 . S
C1284 C1285 1.374 . S
C1285 H1265 0.950 1_556 S
C1285 C1281 1.385 . S
C1285 C1284 1.374 . S
C1286 C1283 1.499 . S
C1286 C1287 1.373 . S
C1286 C1288 1.389 . S
C1287 H1266 0.950 . S
C1287 C1286 1.373 . S
C1287 C1303 1.377 . S
C1288 C1286 1.389 . S
C1288 C1289 1.524 . S
C1288 C1302 1.377 . S
C1289 C1288 1.524 . S
C1289 C1290 1.397 . S
C1289 C1294 1.363 . S
C1290 H1267 0.950 . S
C1290 C1289 1.397 . S
C1290 C1291 1.334 . S
C1291 H1268 0.950 . S
C1291 C1290 1.334 . S
C1291 C1292 1.287 . S
C1292 C1291 1.287 . S
C1292 C1293 1.524 . S
C1292 H1311 0.913 . S
C1293 H1269 0.950 . S
C1293 C1292 1.524 . S
C1293 C1294 1.415 . S
C1294 H1270 0.950 . S
C1294 C1289 1.363 . S
C1294 C1293 1.415 . S
C1295 H1271 0.951 . S
C1295 C1296 1.366 . S
C1295 C1297 1.388 . S
C1296 C1295 1.366 . S
C1296 C1300 1.385 . S
C1297 H1272 0.951 . S
C1297 C1295 1.388 . S
C1297 C1298 1.366 . S
C1298 C1297 1.366 . S
C1298 C1299 1.414 . S
C1298 C1301 1.499 . S
C1299 H1273 0.950 . S
C1299 C1298 1.414 . S
C1299 C1300 1.374 . S
C1300 H1274 0.950 . S
C1300 C1296 1.385 . S
C1300 C1299 1.374 . S
C1301 C1298 1.499 . S
C1301 C1302 1.373 . S
C1301 C1303 1.389 . S
C1302 H1275 0.950 . S
C1302 C1288 1.377 . S
C1302 C1301 1.373 . S
C1303 C1287 1.377 . S
C1303 C1301 1.389 . S
C1303 C1304 1.524 . S
C1304 C1303 1.524 . S
C1304 C1305 1.397 . S
C1304 C1309 1.363 . S
C1305 H1276 0.950 . S
C1305 C1304 1.397 . S
C1305 C1306 1.334 . S
C1306 H1277 0.950 . S
C1306 C1305 1.334 . S
C1306 C1307 1.287 . S
C1307 C1306 1.287 . S
C1307 C1308 1.524 . S
C1307 H1310 0.999 . S
C1308 H1278 0.950 1_556 S
C1308 C1307 1.524 . S
C1308 C1309 1.415 . S
C1309 H1279 0.950 . S
C1309 C1304 1.363 . S
C1309 C1308 1.415 . S
H1310 C1307 0.999 . S
H1311 C1292 0.913 . S
H1312 C1330 0.951 . S
H1313 C1332 0.951 . S
H1314 C1334 0.950 . S
H1315 C1335 0.950 . S
H1316 C1337 0.950 . S
H1317 C1340 0.950 . S
H1318 C1341 0.950 . S
H1319 C1343 0.950 . S
H1320 C1344 0.950 . S
H1321 C1345 0.951 . S
H1322 C1347 0.951 . S
H1323 C1349 0.950 . S
H1324 C1350 0.950 . S
H1325 C1352 0.950 . S
H1326 C1355 0.950 . S
H1327 C1356 0.950 . S
H1328 C1358 0.950 . S
H1329 C1359 0.950 . S
C1330 H1312 0.951 . S
C1330 C1331 1.399 . S
C1330 C1332 1.388 . S
C1331 C1330 1.399 . S
C1331 C1335 1.353 1_655 S
C1332 H1313 0.951 . S
C1332 C1330 1.388 . S
C1332 C1333 1.366 . S
C1333 C1332 1.366 . S
C1333 C1334 1.414 1_655 S
C1333 C1336 1.499 . S
C1334 H1314 0.950 . S
C1334 C1333 1.414 1_455 S
C1334 C1335 1.374 . S
C1335 H1315 0.950 . S
C1335 C1331 1.353 1_455 S
C1335 C1334 1.374 . S
C1336 C1333 1.499 . S
C1336 C1337 1.373 1_655 S
C1336 C1338 1.389 . S
C1337 H1316 0.950 . S
C1337 C1336 1.373 1_455 S
C1337 C1353 1.377 . S
C1338 C1336 1.389 . S
C1338 C1339 1.524 . S
C1338 C1352 1.377 . S
C1339 C1338 1.524 . S
C1339 C1340 1.397 . S
C1339 C1344 1.363 . S
C1340 H1317 0.950 . S
C1340 C1339 1.397 . S
C1340 C1341 1.334 . S
C1341 H1318 0.950 . S
C1341 C1340 1.334 . S
C1341 C1342 1.287 . S
C1342 C1341 1.287 . S
C1342 C1343 1.524 . S
C1342 H1361 0.913 . S
C1343 H1319 0.950 . S
C1343 C1342 1.524 . S
C1343 C1344 1.415 . S
C1344 H1320 0.950 . S
C1344 C1339 1.363 . S
C1344 C1343 1.415 . S
C1345 H1321 0.951 . S
C1345 C1346 1.366 1_455 S
C1345 C1347 1.388 . S
C1346 C1345 1.366 1_655 S
C1346 C1350 1.385 . S
C1347 H1322 0.951 . S
C1347 C1345 1.388 . S
C1347 C1348 1.366 1_455 S
C1348 C1347 1.366 1_655 S
C1348 C1349 1.414 . S
C1348 C1351 1.499 . S
C1349 H1323 0.950 . S
C1349 C1348 1.414 . S
C1349 C1350 1.374 . S
C1350 H1324 0.950 . S
C1350 C1346 1.385 . S
C1350 C1349 1.374 . S
C1351 C1348 1.499 . S
C1351 C1352 1.373 . S
C1351 C1353 1.389 1_655 S
C1352 H1325 0.950 . S
C1352 C1338 1.377 . S
C1352 C1351 1.373 . S
C1353 C1337 1.377 . S
C1353 C1351 1.389 1_455 S
C1353 C1354 1.524 . S
C1354 C1353 1.524 . S
C1354 C1355 1.397 . S
C1354 C1359 1.363 . S
C1355 H1326 0.950 . S
C1355 C1354 1.397 . S
C1355 C1356 1.334 . S
C1356 H1327 0.950 . S
C1356 C1355 1.334 . S
C1356 C1357 1.287 . S
C1357 C1356 1.287 . S
C1357 C1358 1.524 . S
C1357 H1360 0.999 . S
C1358 H1328 0.950 . S
C1358 C1357 1.524 . S
C1358 C1359 1.415 . S
C1359 H1329 0.950 . S
C1359 C1354 1.363 . S
C1359 C1358 1.415 . S
H1360 C1357 0.999 . S
H1361 C1342 0.913 . S
H1362 C1380 0.951 . S
H1363 C1382 0.951 . S
H1364 C1384 0.950 . S
H1365 C1385 0.950 . S
H1366 C1387 0.950 . S
H1367 C1390 0.950 . S
H1368 C1391 0.950 . S
H1369 C1393 0.950 . S
H1370 C1394 0.950 . S
H1371 C1395 0.950 1_545 S
H1372 C1397 0.968 . S
H1373 C1399 0.950 . S
H1374 C1400 0.950 . S
H1375 C1402 0.950 . S
H1376 C1405 0.950 . S
H1377 C1406 0.950 . S
H1378 C1408 0.950 . S
H1379 C1409 0.950 . S
C1380 H1362 0.951 . S
C1380 C1381 1.376 . S
C1380 C1382 1.388 . S
C1381 C1380 1.376 . S
C1381 C1385 1.377 1_565 S
C1382 H1363 0.951 . S
C1382 C1380 1.388 . S
C1382 C1383 1.366 . S
C1383 C1382 1.366 . S
C1383 C1384 1.414 1_565 S
C1383 C1386 1.499 . S
C1384 H1364 0.950 . S
C1384 C1383 1.414 1_545 S
C1384 C1385 1.374 . S
C1385 H1365 0.950 . S
C1385 C1381 1.377 1_545 S
C1385 C1384 1.374 . S
C1386 C1383 1.499 . S
C1386 C1387 1.373 1_565 S
C1386 C1388 1.389 . S
C1387 H1366 0.950 . S
C1387 C1386 1.373 1_545 S
C1387 C1403 1.377 . S
C1388 C1386 1.389 . S
C1388 C1389 1.524 . S
C1388 C1402 1.377 . S
C1389 C1388 1.524 . S
C1389 C1390 1.397 . S
C1389 C1394 1.363 . S
C1390 H1367 0.950 . S
C1390 C1389 1.397 . S
C1390 C1391 1.334 . S
C1391 H1368 0.950 . S
C1391 C1390 1.334 . S
C1391 C1392 1.287 . S
C1392 C1391 1.287 . S
C1392 C1393 1.524 . S
C1392 H1411 0.913 . S
C1393 H1369 0.950 . S
C1393 C1392 1.524 . S
C1393 C1394 1.415 . S
C1394 H1370 0.950 . S
C1394 C1389 1.363 . S
C1394 C1393 1.415 . S
C1395 H1371 0.950 1_565 S
C1395 C1396 1.367 . S
C1395 C1397 1.386 1_565 S
C1396 C1395 1.367 . S
C1396 C1400 1.385 . S
C1397 H1372 0.968 . S
C1397 C1395 1.386 1_545 S
C1397 C1398 1.354 1_545 S
C1398 C1397 1.354 1_565 S
C1398 C1399 1.414 . S
C1398 C1401 1.499 . S
C1399 H1373 0.950 . S
C1399 C1398 1.414 . S
C1399 C1400 1.374 . S
C1400 H1374 0.950 . S
C1400 C1396 1.385 . S
C1400 C1399 1.374 . S
C1401 C1398 1.499 . S
C1401 C1402 1.373 . S
C1401 C1403 1.389 1_565 S
C1402 H1375 0.950 . S
C1402 C1388 1.377 . S
C1402 C1401 1.373 . S
C1403 C1387 1.377 . S
C1403 C1401 1.389 1_545 S
C1403 C1404 1.524 . S
C1404 C1403 1.524 . S
C1404 C1405 1.397 . S
C1404 C1409 1.363 . S
C1405 H1376 0.950 . S
C1405 C1404 1.397 . S
C1405 C1406 1.334 . S
C1406 H1377 0.950 . S
C1406 C1405 1.334 . S
C1406 C1407 1.287 . S
C1407 C1406 1.287 . S
C1407 C1408 1.524 . S
C1407 H1410 0.999 . S
C1408 H1378 0.950 . S
C1408 C1407 1.524 . S
C1408 C1409 1.415 . S
C1409 H1379 0.950 . S
C1409 C1404 1.363 . S
C1409 C1408 1.415 . S
H1410 C1407 0.999 . S
H1411 C1392 0.913 . S
H1412 C1430 0.951 . S
H1413 C1432 0.951 . S
H1414 C1434 0.950 . S
H1415 C1435 0.950 . S
H1416 C1437 0.950 . S
H1417 C1440 0.950 . S
H1418 C1441 0.950 . S
H1419 C1443 0.950 . S
H1420 C1444 0.950 . S
H1421 C1445 0.951 . S
H1422 C1447 0.951 . S
H1423 C1449 0.950 . S
H1424 C1450 0.950 . S
H1425 C1452 0.950 . S
H1426 C1455 0.950 . S
H1427 C1456 0.950 . S
H1428 C1458 0.950 . S
H1429 C1459 0.950 . S
C1430 H1412 0.951 . S
C1430 C1431 1.366 . S
C1430 C1432 1.388 . S
C1431 C1430 1.366 . S
C1431 C1435 1.385 . S
C1432 H1413 0.951 . S
C1432 C1430 1.388 . S
C1432 C1433 1.366 . S
C1433 C1432 1.366 . S
C1433 C1434 1.414 . S
C1433 C1436 1.499 . S
C1434 H1414 0.950 . S
C1434 C1433 1.414 . S
C1434 C1435 1.374 . S
C1435 H1415 0.950 . S
C1435 C1431 1.385 . S
C1435 C1434 1.374 . S
C1436 C1433 1.499 . S
C1436 C1437 1.373 . S
C1436 C1438 1.389 . S
C1437 H1416 0.950 . S
C1437 C1436 1.373 . S
C1437 C1453 1.377 . S
C1438 C1436 1.389 . S
C1438 C1439 1.524 . S
C1438 C1452 1.377 . S
C1439 C1438 1.524 . S
C1439 C1440 1.397 . S
C1439 C1444 1.363 . S
C1440 H1417 0.950 . S
C1440 C1439 1.397 . S
C1440 C1441 1.334 . S
C1441 H1418 0.950 . S
C1441 C1440 1.334 . S
C1441 C1442 1.287 . S
C1442 C1441 1.287 . S
C1442 C1443 1.524 . S
C1442 H1461 0.913 . S
C1443 H1419 0.950 . S
C1443 C1442 1.524 . S
C1443 C1444 1.415 . S
C1444 H1420 0.950 . S
C1444 C1439 1.363 . S
C1444 C1443 1.415 . S
C1445 H1421 0.951 . S
C1445 C1446 1.366 . S
C1445 C1447 1.388 . S
C1446 C1445 1.366 . S
C1446 C1450 1.385 . S
C1447 H1422 0.951 . S
C1447 C1445 1.388 . S
C1447 C1448 1.366 . S
C1448 C1447 1.366 . S
C1448 C1449 1.414 . S
C1448 C1451 1.499 . S
C1449 H1423 0.950 . S
C1449 C1448 1.414 . S
C1449 C1450 1.374 . S
C1450 H1424 0.950 . S
C1450 C1446 1.385 . S
C1450 C1449 1.374 . S
C1451 C1448 1.499 . S
C1451 C1452 1.373 . S
C1451 C1453 1.389 . S
C1452 H1425 0.950 . S
C1452 C1438 1.377 . S
C1452 C1451 1.373 . S
C1453 C1437 1.377 . S
C1453 C1451 1.389 . S
C1453 C1454 1.524 . S
C1454 C1453 1.524 . S
C1454 C1455 1.397 . S
C1454 C1459 1.363 . S
C1455 H1426 0.950 . S
C1455 C1454 1.397 . S
C1455 C1456 1.334 . S
C1456 H1427 0.950 . S
C1456 C1455 1.334 . S
C1456 C1457 1.287 . S
C1457 C1456 1.287 . S
C1457 C1458 1.524 . S
C1457 H1460 0.999 . S
C1458 H1428 0.950 . S
C1458 C1457 1.524 . S
C1458 C1459 1.415 . S
C1459 H1429 0.950 . S
C1459 C1454 1.363 . S
C1459 C1458 1.415 . S
H1460 C1457 0.999 . S
H1461 C1442 0.913 . S
H1462 C1480 0.951 . S
H1463 C1482 0.951 . S
H1464 C1484 0.950 . S
H1465 C1485 0.950 . S
H1466 C1487 0.950 . S
H1467 C1490 0.950 . S
H1468 C1491 0.950 . S
H1469 C1493 0.950 . S
H1470 C1494 0.950 . S
H1471 C1495 0.951 . S
H1472 C1497 0.951 . S
H1473 C1499 0.950 . S
H1474 C1500 0.950 . S
H1475 C1502 0.950 . S
H1476 C1505 0.950 . S
H1477 C1506 0.950 . S
H1478 C1508 0.950 . S
H1479 C1509 0.950 . S
C1480 H1462 0.951 . S
C1480 C1481 1.366 . S
C1480 C1482 1.388 . S
C1481 C1480 1.366 . S
C1481 C1485 1.385 . S
C1482 H1463 0.951 . S
C1482 C1480 1.388 . S
C1482 C1483 1.366 . S
C1483 C1482 1.366 . S
C1483 C1484 1.414 . S
C1483 C1486 1.499 . S
C1484 H1464 0.950 . S
C1484 C1483 1.414 . S
C1484 C1485 1.374 . S
C1485 H1465 0.950 . S
C1485 C1481 1.385 . S
C1485 C1484 1.374 . S
C1486 C1483 1.499 . S
C1486 C1487 1.373 . S
C1486 C1488 1.389 . S
C1487 H1466 0.950 . S
C1487 C1486 1.373 . S
C1487 C1503 1.377 . S
C1488 C1486 1.389 . S
C1488 C1489 1.524 . S
C1488 C1502 1.377 . S
C1489 C1488 1.524 . S
C1489 C1490 1.397 . S
C1489 C1494 1.363 . S
C1490 H1467 0.950 . S
C1490 C1489 1.397 . S
C1490 C1491 1.334 . S
C1491 H1468 0.950 . S
C1491 C1490 1.334 . S
C1491 C1492 1.287 . S
C1492 C1491 1.287 . S
C1492 C1493 1.524 . S
C1492 H1511 0.913 . S
C1493 H1469 0.950 . S
C1493 C1492 1.524 . S
C1493 C1494 1.415 . S
C1494 H1470 0.950 . S
C1494 C1489 1.363 . S
C1494 C1493 1.415 . S
C1495 H1471 0.951 . S
C1495 C1496 1.366 . S
C1495 C1497 1.388 . S
C1496 C1495 1.366 . S
C1496 C1500 1.385 . S
C1497 H1472 0.951 . S
C1497 C1495 1.388 . S
C1497 C1498 1.366 . S
C1498 C1497 1.366 . S
C1498 C1499 1.414 . S
C1498 C1501 1.499 . S
C1499 H1473 0.950 . S
C1499 C1498 1.414 . S
C1499 C1500 1.374 . S
C1500 H1474 0.950 . S
C1500 C1496 1.385 . S
C1500 C1499 1.374 . S
C1501 C1498 1.499 . S
C1501 C1502 1.373 . S
C1501 C1503 1.389 . S
C1502 H1475 0.950 . S
C1502 C1488 1.377 . S
C1502 C1501 1.373 . S
C1503 C1487 1.377 . S
C1503 C1501 1.389 . S
C1503 C1504 1.524 . S
C1504 C1503 1.524 . S
C1504 C1505 1.397 . S
C1504 C1509 1.363 . S
C1505 H1476 0.950 . S
C1505 C1504 1.397 . S
C1505 C1506 1.334 . S
C1506 H1477 0.950 . S
C1506 C1505 1.334 . S
C1506 C1507 1.287 . S
C1507 C1506 1.287 . S
C1507 C1508 1.524 . S
C1507 H1510 0.999 . S
C1508 H1478 0.950 . S
C1508 C1507 1.524 . S
C1508 C1509 1.415 . S
C1509 H1479 0.950 . S
C1509 C1504 1.363 . S
C1509 C1508 1.415 . S
H1510 C1507 0.999 . S
H1511 C1492 0.913 . S
C331 C125 1.827 1_545 S
C346 C170 1.871 1_545 S
C396 C210 1.873 . S
C381 C144 1.834 . S
C446 C250 1.873 . S
C431 C87 1.834 . S
C496 C290 1.871 1_455 S
C481 C106 1.828 1_455 S
C546 C160 1.871 1_565 S
C531 C49 1.834 . S
C581 C68 1.834 . S
C596 C200 1.874 . S
C631 C11 1.833 . S
C646 C240 1.873 . S
C681 C30 1.833 . S
C696 C280 1.871 1_655 S
C746 C157 0.365 . S
C731 C97 0.459 . S
C796 C197 0.365 . S
C781 C116 0.461 . S
C846 C237 0.364 . S
C831 C135 0.453 . S
C881 C78 0.457 . S
C896 C277 0.366 . S
C931 C21 0.453 . S
C946 C167 0.365 . S
C996 C207 0.364 . S
C981 C40 0.453 . S
C1046 C247 0.366 . S
C1031 C59 0.455 . S
C1081 C2 0.453 . S
C1096 C287 0.365 . S
C1131 C101 1.934 . S
C1146 C161 2.095 . S
C1181 C120 1.936 . S
C1196 C201 2.096 . S
C1246 C241 2.095 . S
C1231 C139 1.935 . S
C1296 C281 2.095 . S
C1281 C82 1.934 . S
C1331 C25 1.934 . S
C1346 C171 2.095 . S
C1396 C211 2.095 . S
C1381 C44 1.933 . S
C1446 C251 2.095 . S
C1431 C63 1.933 . S
C1481 C6 1.934 . S
C1496 C291 2.095 . S
