# Generated by pormake.
# Topology nom, (4,4)-cn, num edge types: 1
# Building blocks:
#     Node 0, Type 0, BuildingBlock: AZAVOO_clean_linker_0, # of connection points: 4
#     Node 1, Type 0, BuildingBlock: AZAVOO_clean_linker_0, # of connection points: 4
#     Node 2, Type 0, BuildingBlock: AZAVOO_clean_linker_0, # of connection points: 4
#     Node 3, Type 0, BuildingBlock: AZAVOO_clean_linker_0, # of connection points: 4
#     Node 4, Type 0, BuildingBlock: AZAVOO_clean_linker_0, # of connection points: 4
#     Node 5, Type 0, BuildingBlock: AZAVOO_clean_linker_0, # of connection points: 4
#     Node 6, Type 1, BuildingBlock: NAHDIM_clean_sbu_0, # of connection points: 4
#     Node 7, Type 1, BuildingBlock: NAHDIM_clean_sbu_0, # of connection points: 4
#     Node 8, Type 1, BuildingBlock: NAHDIM_clean_sbu_0, # of connection points: 4
#     Node 9, Type 1, BuildingBlock: NAHDIM_clean_sbu_0, # of connection points: 4
#     Node 10, Type 1, BuildingBlock: NAHDIM_clean_sbu_0, # of connection points: 4
#     Node 11, Type 1, BuildingBlock: NAHDIM_clean_sbu_0, # of connection points: 4
#     Edge 12, Type (0, 1), BuildingBlock: MIFKUJ_clean_linker_0, # of connection points: 2
#     Edge 13, Type (0, 1), BuildingBlock: MIFKUJ_clean_linker_0, # of connection points: 2
#     Edge 14, Type (0, 1), BuildingBlock: MIFKUJ_clean_linker_0, # of connection points: 2
#     Edge 15, Type (0, 1), BuildingBlock: MIFKUJ_clean_linker_0, # of connection points: 2
#     Edge 16, Type (0, 1), BuildingBlock: MIFKUJ_clean_linker_0, # of connection points: 2
#     Edge 17, Type (0, 1), BuildingBlock: MIFKUJ_clean_linker_0, # of connection points: 2
#     Edge 18, Type (0, 1), BuildingBlock: MIFKUJ_clean_linker_0, # of connection points: 2
#     Edge 19, Type (0, 1), BuildingBlock: MIFKUJ_clean_linker_0, # of connection points: 2
#     Edge 20, Type (0, 1), BuildingBlock: MIFKUJ_clean_linker_0, # of connection points: 2
#     Edge 21, Type (0, 1), BuildingBlock: MIFKUJ_clean_linker_0, # of connection points: 2
#     Edge 22, Type (0, 1), BuildingBlock: MIFKUJ_clean_linker_0, # of connection points: 2
#     Edge 23, Type (0, 1), BuildingBlock: MIFKUJ_clean_linker_0, # of connection points: 2
#     Edge 24, Type (0, 1), BuildingBlock: MIFKUJ_clean_linker_0, # of connection points: 2
#     Edge 25, Type (0, 1), BuildingBlock: MIFKUJ_clean_linker_0, # of connection points: 2
#     Edge 26, Type (0, 1), BuildingBlock: MIFKUJ_clean_linker_0, # of connection points: 2
#     Edge 27, Type (0, 1), BuildingBlock: MIFKUJ_clean_linker_0, # of connection points: 2
#     Edge 28, Type (0, 1), BuildingBlock: MIFKUJ_clean_linker_0, # of connection points: 2
#     Edge 29, Type (0, 1), BuildingBlock: MIFKUJ_clean_linker_0, # of connection points: 2
#     Edge 30, Type (0, 1), BuildingBlock: MIFKUJ_clean_linker_0, # of connection points: 2
#     Edge 31, Type (0, 1), BuildingBlock: MIFKUJ_clean_linker_0, # of connection points: 2
#     Edge 32, Type (0, 1), BuildingBlock: MIFKUJ_clean_linker_0, # of connection points: 2
#     Edge 33, Type (0, 1), BuildingBlock: MIFKUJ_clean_linker_0, # of connection points: 2
#     Edge 34, Type (0, 1), BuildingBlock: MIFKUJ_clean_linker_0, # of connection points: 2
#     Edge 35, Type (0, 1), BuildingBlock: MIFKUJ_clean_linker_0, # of connection points: 2
# Relax obj value: 0.149
# Max RMSD: 0.223
# Mean RMSD: 0.170
data_MOF--net-nom--node1-NAHDIM_clean_sbu_0--node2-AZAVOO_clean_linker_0--edge1-MIFKUJ_clean_linker_0
_symmetry_space_group_name_H-M    P1
_symmetry_Int_Tables_number       1
_symmetry_cell_setting            triclinic
loop_
_symmetry_equiv_pos_as_xyz
'x, y, z'
_cell_length_a     58.852329
_cell_length_b     62.336948
_cell_length_c     74.987744
_cell_angle_alpha  89.996284
_cell_angle_beta   90.349597
_cell_angle_gamma 122.22115
loop_
_atom_site_label
_atom_site_type_symbol
_atom_site_fract_x
_atom_site_fract_y
_atom_site_fract_z
_atom_type_partial_charge
H0 H 0.04857 0.45091 0.19684 0.0
H1 H 0.21429 0.63417 0.34827 0.0
H2 H 0.00716 0.45234 0.28663 0.0
H3 H 0.97262 0.42783 0.26406 0.0
H4 H 0.95922 0.48923 0.25831 0.0
H5 H 0.99372 0.51354 0.28105 0.0
H6 H 0.06738 0.47908 0.27234 0.0
H7 H 0.0632 0.46341 0.24182 0.0
H8 H 0.03149 0.50882 0.22489 0.0
H9 H 0.0362 0.52464 0.25543 0.0
H10 H 0.12023 0.52081 0.29516 0.0
H11 H 0.16435 0.54728 0.28126 0.0
H12 H 0.13543 0.58908 0.25355 0.0
H13 H 0.09161 0.56255 0.26737 0.0
H14 H 0.10254 0.52029 0.33642 0.0
H15 H 0.14571 0.54733 0.35159 0.0
H16 H 0.15827 0.61165 0.32111 0.0
H17 H 0.11486 0.5845 0.30627 0.0
H18 H 0.03896 0.49263 0.34892 0.0
H19 H 0.04917 0.5037 0.38058 0.0
H20 H 0.08597 0.58291 0.36756 0.0
H21 H 0.07509 0.57168 0.336 0.0
H22 H 0.98673 0.46312 0.32155 0.0
H23 H 0.94555 0.45415 0.33656 0.0
H24 H 0.97681 0.53445 0.33924 0.0
H25 H 0.0174 0.54323 0.32391 0.0
O26 O 0.05051 0.4577 0.20876 0.0
O27 O 0.03497 0.48188 0.20065 0.0
O28 O 0.18948 0.58947 0.35805 0.0
O29 O 0.19712 0.62304 0.34248 0.0
C30 C 0.02893 0.50194 0.29451 0.0
C31 C 0.05298 0.51097 0.28487 0.0
C32 C 0.07799 0.52753 0.2931 0.0
C33 C 0.07916 0.53398 0.31127 0.0
C34 C 0.05515 0.52507 0.32091 0.0
C35 C 0.02997 0.50977 0.31234 0.0
C36 C 0.00299 0.48473 0.28536 0.0
C37 C 0.99602 0.46007 0.28098 0.0
C38 C 0.97653 0.44624 0.26797 0.0
C39 C 0.96363 0.45684 0.2592 0.0
C40 C 0.96878 0.48055 0.26488 0.0
C41 C 0.98839 0.49444 0.2779 0.0
C42 C 0.05196 0.50287 0.26609 0.0
C43 C 0.05978 0.48579 0.26198 0.0
C44 C 0.05725 0.47679 0.24456 0.0
C45 C 0.04689 0.48477 0.23093 0.0
C46 C 0.03949 0.50224 0.23508 0.0
C47 C 0.04212 0.51129 0.25249 0.0
C48 C 0.10286 0.53992 0.28235 0.0
C49 C 0.12334 0.53532 0.28577 0.0
C50 C 0.1485 0.5505 0.27789 0.0
C51 C 0.15343 0.57041 0.26643 0.0
C52 C 0.13223 0.57376 0.26214 0.0
C53 C 0.10718 0.55865 0.27006 0.0
C54 C 0.10564 0.55042 0.32021 0.0
C55 C 0.11465 0.54023 0.33305 0.0
C56 C 0.13932 0.55571 0.34168 0.0
C57 C 0.15547 0.58166 0.33754 0.0
C58 C 0.14636 0.59176 0.3246 0.0
C59 C 0.12162 0.57628 0.31606 0.0
C60 C 0.05667 0.53139 0.34016 0.0
C61 C 0.04852 0.51229 0.35298 0.0
C62 C 0.05436 0.51863 0.37101 0.0
C63 C 0.06865 0.54417 0.37641 0.0
C64 C 0.07523 0.56311 0.36368 0.0
C65 C 0.06902 0.55673 0.3457 0.0
C66 C 0.00506 0.50383 0.32162 0.0
C67 C 0.98458 0.47873 0.3253 0.0
C68 C 0.96118 0.47365 0.3339 0.0
C69 C 0.95815 0.49364 0.33917 0.0
C70 C 0.97881 0.51872 0.33559 0.0
C71 C 0.00194 0.52374 0.3268 0.0
C72 C 0.04374 0.47477 0.21252 0.0
C73 C 0.18168 0.5982 0.34668 0.0
H74 H 0.51612 0.08386 0.37304 0.0
H75 H 0.50098 0.17359 0.556 0.0
H76 H 0.50743 0.02381 0.45913 0.0
H77 H 0.50429 0.99298 0.43771 0.0
H78 H 0.4181 0.94802 0.44452 0.0
H79 H 0.42145 0.97987 0.46543 0.0
H80 H 0.52262 0.0779 0.45057 0.0
H81 H 0.52804 0.08517 0.4184 0.0
H82 H 0.44214 0.03559 0.41117 0.0
H83 H 0.43698 0.02872 0.44341 0.0
H84 H 0.53193 0.11116 0.48281 0.0
H85 H 0.5465 0.15372 0.47225 0.0
H86 H 0.46663 0.12561 0.45161 0.0
H87 H 0.45234 0.08299 0.46209 0.0
H88 H 0.52289 0.08753 0.52146 0.0
H89 H 0.53617 0.12296 0.54192 0.0
H90 H 0.46779 0.12602 0.52444 0.0
H91 H 0.45453 0.09036 0.50421 0.0
H92 H 0.49836 0.02568 0.52565 0.0
H93 H 0.50308 0.02661 0.55803 0.0
H94 H 0.44564 0.04946 0.56278 0.0
H95 H 0.43965 0.04657 0.53049 0.0
H96 H 0.48173 0.98787 0.49537 0.0
H97 H 0.45836 0.94431 0.50664 0.0
H98 H 0.39099 0.9502 0.5215 0.0
H99 H 0.41397 0.99312 0.50953 0.0
O100 O 0.51351 0.08076 0.38574 0.0
O101 O 0.46926 0.05496 0.38273 0.0
O102 O 0.53091 0.15704 0.55666 0.0
O103 O 0.49617 0.15954 0.54803 0.0
C104 C 0.4672 0.02417 0.47583 0.0
C105 C 0.47614 0.0485 0.46887 0.0
C106 C 0.48197 0.06862 0.48052 0.0
C107 C 0.4796 0.06466 0.49913 0.0
C108 C 0.46985 0.04014 0.50606 0.0
C109 C 0.46286 0.01972 0.49434 0.0
C110 C 0.46468 0.00413 0.46376 0.0
C111 C 0.48787 0.00726 0.45602 0.0
C112 C 0.48604 0.98944 0.44392 0.0
C113 C 0.46094 0.9679 0.43942 0.0
C114 C 0.43771 0.96452 0.44754 0.0
C115 C 0.43957 0.98256 0.45957 0.0
C116 C 0.4794 0.05288 0.44932 0.0
C117 C 0.50499 0.06876 0.44202 0.0
C118 C 0.50803 0.07281 0.42363 0.0
C119 C 0.48552 0.06098 0.4122 0.0
C120 C 0.4599 0.045 0.41959 0.0
C121 C 0.45689 0.04102 0.43799 0.0
C122 C 0.49108 0.09409 0.47327 0.0
C123 C 0.51764 0.11423 0.47597 0.0
C124 C 0.52585 0.13851 0.47002 0.0
C125 C 0.50764 0.14305 0.46124 0.0
C126 C 0.48116 0.12267 0.45822 0.0
C127 C 0.47295 0.09837 0.46421 0.0
C128 C 0.48774 0.08638 0.51138 0.0
C129 C 0.51078 0.09585 0.52211 0.0
C130 C 0.51834 0.11611 0.53376 0.0
C131 C 0.50303 0.12733 0.53481 0.0
C132 C 0.48002 0.11783 0.52396 0.0
C133 C 0.47243 0.09751 0.51237 0.0
C134 C 0.46895 0.03641 0.52569 0.0
C135 C 0.48616 0.03008 0.53374 0.0
C136 C 0.4891 0.03097 0.55226 0.0
C137 C 0.47521 0.03867 0.56307 0.0
C138 C 0.45658 0.0433 0.55498 0.0
C139 C 0.45328 0.04191 0.53647 0.0
C140 C 0.44943 0.99355 0.50149 0.0
C141 C 0.46184 0.97961 0.50093 0.0
C142 C 0.44856 0.95484 0.50753 0.0
C143 C 0.42272 0.94371 0.5149 0.0
C144 C 0.41061 0.95797 0.51561 0.0
C145 C 0.4238 0.98259 0.50893 0.0
C146 C 0.48882 0.06532 0.39267 0.0
C147 C 0.51096 0.14885 0.54717 0.0
H148 H 0.56824 0.53199 0.75758 0.0
H149 H 0.57082 0.42774 0.5754 0.0
H150 H 0.56297 0.58146 0.67036 0.0
H151 H 0.55292 0.60392 0.69259 0.0
H152 H 0.4683 0.55522 0.6806 0.0
H153 H 0.47848 0.53246 0.65847 0.0
H154 H 0.58164 0.5437 0.68025 0.0
H155 H 0.58419 0.54234 0.71278 0.0
H156 H 0.4976 0.50281 0.71542 0.0
H157 H 0.49531 0.50402 0.68288 0.0
H158 H 0.59333 0.51613 0.65073 0.0
H159 H 0.60325 0.48568 0.66347 0.0
H160 H 0.51998 0.43714 0.67843 0.0
H161 H 0.51022 0.46734 0.66539 0.0
H162 H 0.59011 0.53462 0.61067 0.0
H163 H 0.60534 0.51321 0.59128 0.0
H164 H 0.53462 0.4409 0.60476 0.0
H165 H 0.51945 0.4626 0.6239 0.0
H166 H 0.56696 0.56946 0.60241 0.0
H167 H 0.57446 0.5713 0.57019 0.0
H168 H 0.51131 0.4922 0.5656 0.0
H169 H 0.50364 0.49074 0.59768 0.0
H170 H 0.53947 0.58979 0.63218 0.0
H171 H 0.51265 0.60627 0.62037 0.0
H172 H 0.45196 0.53092 0.60254 0.0
H173 H 0.47842 0.51459 0.61461 0.0
O174 O 0.56676 0.53219 0.74472 0.0
O175 O 0.5222 0.51204 0.74536 0.0
O176 O 0.60122 0.47436 0.57642 0.0
O177 O 0.5653 0.43669 0.58302 0.0
C178 C 0.52773 0.53979 0.65145 0.0
C179 C 0.5369 0.52518 0.65948 0.0
C180 C 0.54445 0.51143 0.64874 0.0
C181 C 0.54421 0.51334 0.63001 0.0
C182 C 0.53454 0.52754 0.622 0.0
C183 C 0.52537 0.54001 0.63269 0.0
C184 C 0.52144 0.55528 0.66291 0.0
C185 C 0.54229 0.57587 0.67236 0.0
C186 C 0.53654 0.5886 0.68504 0.0
C187 C 0.50985 0.58111 0.68835 0.0
C188 C 0.48904 0.56139 0.67819 0.0
C189 C 0.4948 0.54841 0.6656 0.0
C190 C 0.53831 0.52401 0.67923 0.0
C191 C 0.56325 0.53465 0.68789 0.0
C192 C 0.56464 0.5339 0.70647 0.0
C193 C 0.5411 0.52251 0.71671 0.0
C194 C 0.51612 0.51177 0.70794 0.0
C195 C 0.51475 0.51247 0.68937 0.0
C196 C 0.55106 0.49385 0.65712 0.0
C197 C 0.57731 0.49892 0.6568 0.0
C198 C 0.58294 0.48161 0.66414 0.0
C199 C 0.56234 0.45897 0.67185 0.0
C200 C 0.53617 0.45423 0.67235 0.0
C201 C 0.5306 0.47152 0.66505 0.0
C202 C 0.55373 0.50014 0.6187 0.0
C203 C 0.57796 0.51416 0.60941 0.0
C204 C 0.58661 0.50188 0.59836 0.0
C205 C 0.57119 0.47532 0.59648 0.0
C206 C 0.54698 0.46136 0.60591 0.0
C207 C 0.53831 0.47368 0.6169 0.0
C208 C 0.53499 0.5299 0.60233 0.0
C209 C 0.55424 0.55278 0.59433 0.0
C210 C 0.55861 0.55374 0.57598 0.0
C211 C 0.54369 0.53182 0.56542 0.0
C212 C 0.52299 0.50945 0.57334 0.0
C213 C 0.51866 0.50852 0.59166 0.0
C214 C 0.51086 0.55097 0.62429 0.0
C215 C 0.52045 0.57692 0.62564 0.0
C216 C 0.50514 0.58627 0.61892 0.0
C217 C 0.48027 0.56987 0.6105 0.0
C218 C 0.47121 0.54407 0.60872 0.0
C219 C 0.48629 0.53472 0.61562 0.0
C220 C 0.54267 0.52188 0.73645 0.0
C221 C 0.58023 0.4622 0.58469 0.0
H222 H 0.05803 0.45851 0.93443 0.0
H223 H 0.17524 0.49459 0.74896 0.0
H224 H 0.99665 0.45645 0.84862 0.0
H225 H 0.96376 0.44254 0.87254 0.0
H226 H 0.93397 0.36441 0.8592 0.0
H227 H 0.96706 0.3786 0.83511 0.0
H228 H 0.05667 0.47771 0.85819 0.0
H229 H 0.06134 0.47738 0.89062 0.0
H230 H 0.02155 0.39569 0.88925 0.0
H231 H 0.01731 0.39634 0.8568 0.0
H232 H 0.09698 0.49702 0.82718 0.0
H233 H 0.14267 0.51314 0.83799 0.0
H234 H 0.12088 0.43652 0.84956 0.0
H235 H 0.07514 0.42061 0.83878 0.0
H236 H 0.07385 0.49422 0.78871 0.0
H237 H 0.11278 0.51479 0.769 0.0
H238 H 0.12494 0.45297 0.77757 0.0
H239 H 0.08567 0.43239 0.79701 0.0
H240 H 0.01113 0.4674 0.78179 0.0
H241 H 0.01867 0.48079 0.7506 0.0
H242 H 0.04665 0.4304 0.74029 0.0
H243 H 0.03774 0.4163 0.7712 0.0
H244 H 0.96619 0.43984 0.81264 0.0
H245 H 0.92026 0.41666 0.80056 0.0
H246 H 0.93522 0.36291 0.77562 0.0
H247 H 0.98082 0.38583 0.788 0.0
O248 O 0.0562 0.45823 0.92157 0.0
O249 O 0.03558 0.41624 0.92015 0.0
O250 O 0.15239 0.518 0.75255 0.0
O251 O 0.15976 0.48688 0.75671 0.0
C252 C 0.00737 0.42743 0.82807 0.0
C253 C 0.03325 0.43731 0.83553 0.0
C254 C 0.05586 0.44782 0.82437 0.0
C255 C 0.05279 0.44907 0.80581 0.0
C256 C 0.02685 0.43857 0.79826 0.0
C257 C 0.00404 0.4273 0.80937 0.0
C258 C 0.98428 0.41852 0.84023 0.0
C259 C 0.98267 0.43633 0.85064 0.0
C260 C 0.96404 0.42836 0.86436 0.0
C261 C 0.94661 0.40241 0.86789 0.0
C262 C 0.94713 0.38453 0.85673 0.0
C263 C 0.96594 0.39256 0.84299 0.0
C264 C 0.03669 0.43706 0.85517 0.0
C265 C 0.04917 0.45979 0.86492 0.0
C266 C 0.05171 0.45953 0.88344 0.0
C267 C 0.04178 0.4365 0.89254 0.0
C268 C 0.0294 0.41375 0.88267 0.0
C269 C 0.02693 0.41406 0.86414 0.0
C270 C 0.0829 0.45768 0.83211 0.0
C271 C 0.10209 0.48378 0.83213 0.0
C272 C 0.12815 0.49289 0.83821 0.0
C273 C 0.13537 0.47604 0.84446 0.0
C274 C 0.11583 0.44995 0.84493 0.0
C275 C 0.08978 0.44083 0.83876 0.0
C276 C 0.07692 0.4618 0.79424 0.0
C277 C 0.08493 0.48514 0.78627 0.0
C278 C 0.10719 0.49686 0.77505 0.0
C279 C 0.12198 0.48551 0.7717 0.0
C280 C 0.114 0.46222 0.77985 0.0
C281 C 0.09164 0.45045 0.791 0.0
C282 C 0.02423 0.44114 0.77878 0.0
C283 C 0.01785 0.45853 0.7726 0.0
C284 C 0.02255 0.46641 0.75483 0.0
C285 C 0.0339 0.45715 0.74303 0.0
C286 C 0.03782 0.43791 0.74893 0.0
C287 C 0.03283 0.42985 0.76663 0.0
C288 C 0.97674 0.41437 0.80133 0.0
C289 C 0.9595 0.42302 0.80461 0.0
C290 C 0.93335 0.40981 0.7977 0.0
C291 C 0.92423 0.38799 0.78719 0.0
C292 C 0.94181 0.37981 0.78353 0.0
C293 C 0.9678 0.39282 0.79062 0.0
C294 C 0.04429 0.43627 0.91224 0.0
C295 C 0.1456 0.49785 0.75974 0.0
H296 H 0.38156 0.99555 0.87833 0.0
H297 H 0.397 0.83001 0.02364 0.0
H298 H 0.42484 0.03275 0.96679 0.0
H299 H 0.4469 0.06891 0.94654 0.0
H300 H 0.52272 0.07519 0.95631 0.0
H301 H 0.50017 0.03796 0.97531 0.0
H302 H 0.38319 0.97109 0.95351 0.0
H303 H 0.3743 0.97735 0.92262 0.0
H304 H 0.45894 0.01411 0.91102 0.0
H305 H 0.46749 0.0074 0.9418 0.0
H306 H 0.37472 0.91371 0.97308 0.0
H307 H 0.36813 0.87703 0.95658 0.0
H308 H 0.44385 0.92547 0.92985 0.0
H309 H 0.45204 0.96058 0.94837 0.0
H310 H 0.38221 0.92851 0.01504 0.0
H311 H 0.3667 0.88648 0.02726 0.0
H312 H 0.43074 0.88594 -0.0003 0.0
H313 H 0.44616 0.92804 0.9877 0.0
H314 H 0.41683 0.98477 0.03446 0.0
H315 H 0.42134 0.97501 0.06548 0.0
H316 H 0.47664 0.95344 0.04867 0.0
H317 H 0.4713 0.96246 0.01781 0.0
H318 H 0.45188 0.04498 0.01017 0.0
H319 H 0.48983 0.08298 0.02416 0.0
H320 H 0.53543 0.04689 0.02433 0.0
H321 H 0.49847 0.01014 0.00939 0.0
O322 O 0.38547 0.9931 0.89045 0.0
O323 O 0.42883 0.00999 0.88485 0.0
O324 O 0.36825 0.84651 0.03115 0.0
O325 O 0.40251 0.84649 0.01883 0.0
C326 C 0.44652 0.00672 0.9803 0.0
C327 C 0.43115 0.9855 0.96891 0.0
C328 C 0.42185 0.96077 0.9752 0.0
C329 C 0.42492 0.95701 0.99345 0.0
C330 C 0.4392 0.9781 0.00499 0.0
C331 C 0.45129 0.00296 0.99821 0.0
C332 C 0.46081 0.03257 0.97245 0.0
C333 C 0.44634 0.04239 0.96491 0.0
C334 C 0.45904 0.06314 0.95338 0.0
C335 C 0.4865 0.07463 0.94951 0.0
C336 C 0.50141 0.06637 0.95864 0.0
C337 C 0.48863 0.04533 0.9698 0.0
C338 C 0.42601 0.98907 0.94999 0.0
C339 C 0.39977 0.98045 0.94427 0.0
C340 C 0.39476 0.9841 0.92663 0.0
C341 C 0.41593 0.99632 0.91437 0.0
C342 C 0.44218 0.00469 0.92012 0.0
C343 C 0.44714 0.001 0.93773 0.0
C344 C 0.41402 0.93989 0.96215 0.0
C345 C 0.38979 0.91632 0.96359 0.0
C346 C 0.38594 0.89538 0.95394 0.0
C347 C 0.40583 0.89796 0.94215 0.0
C348 C 0.42858 0.92231 0.93933 0.0
C349 C 0.43299 0.94277 0.94959 0.0
C350 C 0.41514 0.93119 0.00038 0.0
C351 C 0.39278 0.91922 0.01162 0.0
C352 C 0.38398 0.89524 0.01857 0.0
C353 C 0.39749 0.88285 0.01444 0.0
C354 C 0.4199 0.89494 0.00315 0.0
C355 C 0.42869 0.91893 0.99623 0.0
C356 C 0.44351 0.97406 0.02392 0.0
C357 C 0.43 0.97806 0.03757 0.0
C358 C 0.43271 0.97259 0.05526 0.0
C359 C 0.44915 0.96319 0.05955 0.0
C360 C 0.46334 0.96007 0.04582 0.0
C361 C 0.46045 0.96535 0.02818 0.0
C362 C 0.47227 0.02465 0.00893 0.0
C363 C 0.46999 0.04527 0.01345 0.0
C364 C 0.49163 0.06687 0.02151 0.0
C365 C 0.51576 0.06805 0.02521 0.0
C366 C 0.51736 0.04684 0.02137 0.0
C367 C 0.49602 0.02556 0.01313 0.0
C368 C 0.41058 0.00025 0.89566 0.0
C369 C 0.38843 0.85752 0.02198 0.0
H370 H 0.5182 0.50219 0.01833 0.0
H371 H 0.66147 0.50018 0.18877 0.0
H372 H 0.50117 0.53352 0.10587 0.0
H373 H 0.48631 0.54981 0.08213 0.0
H374 H 0.55409 0.62562 0.09284 0.0
H375 H 0.57002 0.60856 0.11554 0.0
H376 H 0.52319 0.4994 0.09619 0.0
H377 H 0.51572 0.49292 0.06397 0.0
H378 H 0.57539 0.57226 0.05544 0.0
H379 H 0.58295 0.57837 0.08765 0.0
H380 H 0.54755 0.48181 0.12407 0.0
H381 H 0.56696 0.45857 0.11204 0.0
H382 H 0.63358 0.52866 0.09119 0.0
H383 H 0.61356 0.55147 0.10286 0.0
H384 H 0.5502 0.49642 0.16405 0.0
H385 H 0.57189 0.47895 0.18155 0.0
H386 H 0.64892 0.53637 0.16021 0.0
H387 H 0.62697 0.55375 0.14293 0.0
H388 H 0.53325 0.52861 0.17833 0.0
H389 H 0.546 0.53009 0.20959 0.0
H390 H 0.62706 0.59077 0.19732 0.0
H391 H 0.61433 0.58801 0.16596 0.0
H392 H 0.50627 0.55764 0.14803 0.0
H393 H 0.49777 0.58824 0.16221 0.0
H394 H 0.58325 0.64102 0.16826 0.0
H395 H 0.59155 0.61075 0.15377 0.0
O396 O 0.52174 0.50509 0.03101 0.0
O397 O 0.55241 0.54607 0.02737 0.0
O398 O 0.6123 0.47762 0.19262 0.0
O399 O 0.65236 0.50663 0.18195 0.0
C400 C 0.54957 0.55865 0.12268 0.0
C401 C 0.55731 0.54343 0.11384 0.0
C402 C 0.56947 0.53278 0.12357 0.0
C403 C 0.57391 0.53723 0.14204 0.0
C404 C 0.56692 0.55297 0.15074 0.0
C405 C 0.55498 0.56392 0.14109 0.0
C406 C 0.5369 0.56976 0.11219 0.0
C407 C 0.51248 0.55373 0.10332 0.0
C408 C 0.50391 0.56319 0.0898 0.0
C409 C 0.5193 0.58905 0.08522 0.0
C410 C 0.54218 0.60549 0.09559 0.0
C411 C 0.55111 0.59587 0.10881 0.0
C412 C 0.55355 0.53935 0.09424 0.0
C413 C 0.53478 0.51529 0.08732 0.0
C414 C 0.53048 0.51168 0.06892 0.0
C415 C 0.5449 0.53209 0.05712 0.0
C416 C 0.56391 0.55614 0.06414 0.0
C417 C 0.56826 0.55969 0.08253 0.0
C418 C 0.57923 0.51825 0.11434 0.0
C419 C 0.56606 0.49197 0.1166 0.0
C420 C 0.57728 0.47881 0.10983 0.0
C421 C 0.60195 0.49181 0.10079 0.0
C422 C 0.61442 0.51802 0.09788 0.0
C423 C 0.6031 0.53112 0.10459 0.0
C424 C 0.58705 0.52629 0.15226 0.0
C425 C 0.57175 0.50516 0.16319 0.0
C426 C 0.58419 0.49524 0.17315 0.0
C427 C 0.61217 0.50628 0.17229 0.0
C428 C 0.62737 0.52741 0.16119 0.0
C429 C 0.6149 0.53734 0.15128 0.0
C430 C 0.5729 0.55817 0.16999 0.0
C431 C 0.55354 0.54265 0.18256 0.0
C432 C 0.5609 0.54362 0.20042 0.0
C433 C 0.58769 0.56033 0.20594 0.0
C434 C 0.60643 0.5773 0.19346 0.0
C435 C 0.59915 0.576 0.17559 0.0
C436 C 0.54951 0.58187 0.15008 0.0
C437 C 0.5231 0.57579 0.15248 0.0
C438 C 0.5183 0.59323 0.16053 0.0
C439 C 0.53988 0.61687 0.16646 0.0
C440 C 0.56626 0.62277 0.16412 0.0
C441 C 0.57102 0.60551 0.15588 0.0
C442 C 0.54 0.52827 0.03761 0.0
C443 C 0.6255 0.49591 0.18292 0.0
C444 C 0.63302 0.40247 0.4098 0.0
O445 O 0.65022 0.41891 0.4215 0.0
O446 O 0.69333 0.45525 0.38733 0.0
Zn447 Zn 0.65587 0.44758 0.39029 0.0
O448 O 0.65132 0.46586 0.41064 0.0
C449 C 0.65697 0.48173 0.3655 0.0
O450 O 0.67552 0.49745 0.37687 0.0
O451 O 0.63142 0.41029 0.39449 0.0
C452 C 0.62767 0.46163 0.41115 0.0
O453 O 0.61011 0.44658 0.39904 0.0
C454 C 0.71289 0.46646 0.39823 0.0
O455 O 0.70972 0.47501 0.41343 0.0
O456 O 0.64528 0.45802 0.36812 0.0
C457 C 0.27856 0.68783 0.57958 0.0
O458 O 0.29103 0.67818 0.58758 0.0
O459 O 0.26703 0.62762 0.57663 0.0
Zn460 Zn 0.23785 0.63507 0.57386 0.0
O461 O 0.21773 0.62102 0.55066 0.0
C462 C 0.20034 0.59445 0.5949 0.0
O463 O 0.20559 0.58272 0.58259 0.0
O464 O 0.25496 0.67299 0.57346 0.0
C465 C 0.19298 0.61342 0.54941 0.0
O466 O 0.18045 0.61451 0.56348 0.0
C467 C 0.27485 0.61859 0.56468 0.0
O468 O 0.26311 0.61286 0.54893 0.0
O469 O 0.21226 0.61847 0.59429 0.0
C470 C 0.59971 0.26655 0.74458 0.0
O471 O 0.61892 0.27155 0.75604 0.0
O472 O 0.62937 0.23115 0.74991 0.0
Zn473 Zn 0.58968 0.21639 0.7475 0.0
O474 O 0.57199 0.18722 0.73008 0.0
C475 C 0.57857 0.18953 0.77976 0.0
O476 O 0.59342 0.18252 0.77178 0.0
O477 O 0.58415 0.2439 0.73914 0.0
C478 C 0.58282 0.17576 0.72399 0.0
O479 O 0.60719 0.18278 0.72919 0.0
C480 C 0.64596 0.24118 0.73719 0.0
O481 O 0.63707 0.24105 0.72105 0.0
O482 O 0.57342 0.20437 0.77167 0.0
C483 C 0.43676 0.6924 0.90086 0.0
O484 O 0.4213 0.66969 0.90762 0.0
O485 O 0.42412 0.63654 0.88194 0.0
Zn486 Zn 0.46093 0.66779 0.8854 0.0
O487 O 0.48024 0.66251 0.9053 0.0
C488 C 0.46917 0.67744 0.84867 0.0
O489 O 0.44936 0.68104 0.85119 0.0
O490 O 0.45632 0.6968 0.89103 0.0
C491 C 0.47917 0.64168 0.90665 0.0
O492 O 0.46681 0.62427 0.89423 0.0
C493 C 0.41008 0.61963 0.89343 0.0
O494 O 0.41954 0.62161 0.90967 0.0
O495 O 0.47935 0.67302 0.86208 0.0
C496 C 0.75319 0.37489 0.07608 0.0
O497 O 0.75032 0.35907 0.08874 0.0
O498 O 0.7567 0.32233 0.06716 0.0
Zn499 Zn 0.78647 0.35873 0.06473 0.0
O500 O 0.80898 0.36972 0.08701 0.0
C501 C 0.79488 0.3535 0.02814 0.0
O502 O 0.7685 0.34061 0.02833 0.0
O503 O 0.76889 0.37872 0.06324 0.0
C504 C 0.82894 0.36764 0.09014 0.0
O505 O 0.83678 0.35793 0.07789 0.0
C506 C 0.75808 0.30342 0.06271 0.0
O507 O 0.78063 0.30715 0.05628 0.0
O508 O 0.80775 0.36359 0.04254 0.0
C509 C 0.48783 0.80448 0.2261 0.0
O510 O 0.47208 0.80737 0.21523 0.0
O511 O 0.43014 0.7965 0.24726 0.0
Zn512 Zn 0.46792 0.82688 0.24749 0.0
O513 O 0.47172 0.85073 0.22796 0.0
C514 C 0.45524 0.84371 0.27834 0.0
O515 O 0.43333 0.83509 0.26867 0.0
O516 O 0.49116 0.81304 0.24193 0.0
C517 C 0.47246 0.8714 0.2294 0.0
O518 O 0.47157 0.87984 0.24526 0.0
C519 C 0.41328 0.7903 0.2346 0.0
O520 O 0.42008 0.80459 0.22031 0.0
O521 O 0.47473 0.84292 0.27189 0.0
H522 H 0.16997 0.59278 0.2336 0.0
H523 H 0.21443 0.62897 0.22586 0.0
H524 H 0.24373 0.6273 0.2784 0.0
H525 H 0.19928 0.5918 0.2864 0.0
H526 H 0.25453 0.67368 0.27012 0.0
H527 H 0.26344 0.60933 0.24161 0.0
H528 H 0.25023 0.57346 0.2212 0.0
H529 H 0.25553 0.61908 0.17659 0.0
H530 H 0.26843 0.65515 0.19678 0.0
H531 H 0.3932 0.75776 0.26268 0.0
H532 H 0.34876 0.71946 0.26542 0.0
H533 H 0.32769 0.73145 0.21278 0.0
H534 H 0.37248 0.76996 0.2098 0.0
H535 H 0.31135 0.68106 0.21897 0.0
H536 H 0.30403 0.74578 0.24715 0.0
H537 H 0.31747 0.78185 0.26741 0.0
H538 H 0.30867 0.73553 0.31245 0.0
H539 H 0.29556 0.69926 0.29243 0.0
C540 C 0.18599 0.59998 0.24342 0.0
C541 C 0.18111 0.58945 0.26062 0.0
C542 C 0.21141 0.62053 0.23894 0.0
C543 C 0.23236 0.63078 0.25156 0.0
C544 C 0.22781 0.61965 0.26847 0.0
C545 C 0.20245 0.59918 0.27296 0.0
C546 C 0.25845 0.65427 0.24771 0.0
C547 C 0.2671 0.67517 0.25906 0.0
C548 C 0.27433 0.65649 0.23288 0.0
C549 C 0.26661 0.63485 0.22073 0.0
C550 C 0.26156 0.61164 0.22747 0.0
C551 C 0.25417 0.59129 0.21593 0.0
C552 C 0.25196 0.59396 0.19761 0.0
C553 C 0.25721 0.61703 0.19079 0.0
C554 C 0.26458 0.63743 0.20227 0.0
C555 C 0.37919 0.75232 0.25164 0.0
C556 C 0.38632 0.767 0.23605 0.0
C557 C 0.35377 0.73043 0.25325 0.0
C558 C 0.33489 0.72282 0.23938 0.0
C559 C 0.34202 0.73709 0.22364 0.0
C560 C 0.36754 0.75911 0.22201 0.0
C561 C 0.30761 0.70015 0.24164 0.0
C562 C 0.29868 0.67953 0.22996 0.0
C563 C 0.29135 0.69814 0.25615 0.0
C564 C 0.29902 0.71985 0.26826 0.0
C565 C 0.30515 0.74333 0.26136 0.0
C566 C 0.31268 0.76381 0.27281 0.0
C567 C 0.31398 0.761 0.2912 0.0
C568 C 0.30767 0.73768 0.29819 0.0
C569 C 0.30016 0.71715 0.2868 0.0
H570 H 0.31982 0.77688 0.30004 0.0
H571 H 0.24625 0.57818 0.18871 0.0
H572 H 0.49616 0.15767 0.42972 0.0
H573 H 0.51173 0.20086 0.42002 0.0
H574 H 0.55455 0.23029 0.46982 0.0
H575 H 0.53837 0.1872 0.47981 0.0
H576 H 0.52959 0.25445 0.46 0.0
H577 H 0.58679 0.23016 0.43249 0.0
H578 H 0.59619 0.20304 0.41405 0.0
H579 H 0.55997 0.21555 0.36862 0.0
H580 H 0.55002 0.24248 0.38688 0.0
H581 H 0.63206 0.38021 0.44131 0.0
H582 H 0.60521 0.33529 0.44877 0.0
H583 H 0.56876 0.31827 0.39641 0.0
H584 H 0.59591 0.36331 0.38871 0.0
H585 H 0.58506 0.28667 0.40539 0.0
H586 H 0.53315 0.31577 0.43244 0.0
H587 H 0.52543 0.34389 0.45102 0.0
H588 H 0.55239 0.32311 0.49744 0.0
H589 H 0.56071 0.29517 0.47909 0.0
C590 C 0.50859 0.17333 0.43868 0.0
C591 C 0.51626 0.16907 0.45546 0.0
C592 C 0.51761 0.19799 0.43308 0.0
C593 C 0.53453 0.21878 0.44413 0.0
C594 C 0.54155 0.21451 0.46107 0.0
C595 C 0.53254 0.18991 0.46668 0.0
C596 C 0.54592 0.2451 0.43785 0.0
C597 C 0.54183 0.26157 0.44811 0.0
C598 C 0.56129 0.25415 0.42208 0.0
C599 C 0.56737 0.23807 0.41109 0.0
C600 C 0.58064 0.22695 0.4186 0.0
C601 C 0.5861 0.21165 0.40818 0.0
C602 C 0.5786 0.20751 0.39019 0.0
C603 C 0.56571 0.21873 0.38257 0.0
C604 C 0.56016 0.23402 0.39294 0.0
C605 C 0.61825 0.36697 0.43139 0.0
C606 C 0.61612 0.37532 0.41441 0.0
C607 C 0.60279 0.3413 0.43572 0.0
C608 C 0.58474 0.3235 0.42322 0.0
C609 C 0.58251 0.33174 0.40626 0.0
C610 C 0.59801 0.35746 0.4019 0.0
C611 C 0.56914 0.29618 0.42772 0.0
C612 C 0.57245 0.27951 0.41712 0.0
C613 C 0.55311 0.28699 0.4432 0.0
C614 C 0.54772 0.30348 0.45435 0.0
C615 C 0.5376 0.31731 0.44659 0.0
C616 C 0.5331 0.33322 0.45709 0.0
C617 C 0.53847 0.33533 0.47539 0.0
C618 C 0.54826 0.32147 0.48325 0.0
C619 C 0.55283 0.30556 0.47281 0.0
H620 H 0.535 0.34767 0.4835 0.0
H621 H 0.58285 0.19565 0.38215 0.0
H622 H 0.45317 0.55978 0.57884 0.0
H623 H 0.42053 0.5709 0.57025 0.0
H624 H 0.43524 0.61147 0.61986 0.0
H625 H 0.4677 0.60013 0.62861 0.0
H626 H 0.38152 0.57778 0.61325 0.0
H627 H 0.45755 0.64373 0.58177 0.0
H628 H 0.49598 0.66149 0.56125 0.0
H629 H 0.4429 0.61854 0.51793 0.0
H630 H 0.40417 0.60023 0.53825 0.0
H631 H 0.30603 0.63276 0.59471 0.0
H632 H 0.34268 0.62652 0.60144 0.0
H633 H 0.33103 0.58973 0.5505 0.0
H634 H 0.2945 0.59634 0.54348 0.0
H635 H 0.3836 0.62187 0.55761 0.0
H636 H 0.30794 0.5551 0.58854 0.0
H637 H 0.269 0.53641 0.60866 0.0
H638 H 0.32066 0.57931 0.65255 0.0
H639 H 0.35989 0.59855 0.63263 0.0
C640 C 0.4496 0.57126 0.58783 0.0
C641 C 0.46293 0.57907 0.6044 0.0
C642 C 0.43108 0.57772 0.58287 0.0
C643 C 0.42554 0.59208 0.5944 0.0
C644 C 0.43928 0.60041 0.61077 0.0
C645 C 0.45795 0.5941 0.61569 0.0
C646 C 0.40426 0.59709 0.58981 0.0
C647 C 0.38218 0.58779 0.60123 0.0
C648 C 0.40474 0.6094 0.57384 0.0
C649 C 0.42799 0.62042 0.56158 0.0
C650 C 0.4541 0.6379 0.5679 0.0
C651 C 0.47593 0.6481 0.5563 0.0
C652 C 0.47189 0.64109 0.53831 0.0
C653 C 0.446 0.62392 0.53188 0.0
C654 C 0.4241 0.61365 0.54343 0.0
C655 C 0.3112 0.62331 0.58491 0.0
C656 C 0.2972 0.61488 0.56859 0.0
C657 C 0.33214 0.61971 0.58881 0.0
C658 C 0.33934 0.60733 0.57659 0.0
C659 C 0.32575 0.59927 0.56014 0.0
C660 C 0.30482 0.60299 0.55618 0.0
C661 C 0.36093 0.60267 0.5811 0.0
C662 C 0.38299 0.61193 0.56965 0.0
C663 C 0.36036 0.59014 0.59699 0.0
C664 C 0.33683 0.57845 0.60905 0.0
C665 C 0.31098 0.56069 0.60246 0.0
C666 C 0.28885 0.54998 0.61383 0.0
C667 C 0.29234 0.55672 0.63186 0.0
C668 C 0.31798 0.57413 0.63857 0.0
C669 C 0.34018 0.58493 0.62725 0.0
H670 H 0.27518 0.54841 0.64064 0.0
H671 H 0.48882 0.64901 0.52935 0.0
H672 H 0.90644 0.3692 0.75359 0.0
H673 H 0.85973 0.34297 0.7432 0.0
H674 H 0.83214 0.34691 0.79554 0.0
H675 H 0.87872 0.37303 0.80601 0.0
H676 H 0.80647 0.29745 0.78115 0.0
H677 H 0.82999 0.3817 0.76366 0.0
H678 H 0.8575 0.42261 0.74824 0.0
H679 H 0.84079 0.38383 0.69797 0.0
H680 H 0.81347 0.34264 0.71314 0.0
H681 H 0.6708 0.2549 0.76961 0.0
H682 H 0.71877 0.27829 0.77596 0.0
H683 H 0.73521 0.28017 0.71977 0.0
H684 H 0.68693 0.25747 0.71324 0.0
H685 H 0.7681 0.3245 0.73361 0.0
H686 H 0.74241 0.24075 0.74963 0.0
H687 H 0.71552 0.19905 0.76415 0.0
H688 H 0.7372 0.2349 0.81565 0.0
H689 H 0.76394 0.27686 0.80144 0.0
C690 C 0.89037 0.36447 0.76284 0.0
C691 C 0.89614 0.37317 0.78058 0.0
C692 C 0.86377 0.34961 0.75688 0.0
C693 C 0.84256 0.3431 0.76861 0.0
C694 C 0.84828 0.35177 0.78631 0.0
C695 C 0.87484 0.36683 0.79222 0.0
C696 C 0.81432 0.3269 0.76257 0.0
C697 C 0.79795 0.3034 0.77087 0.0
C698 C 0.80363 0.33433 0.74868 0.0
C699 C 0.81994 0.35909 0.73956 0.0
C700 C 0.83238 0.38189 0.74934 0.0
C701 C 0.8479 0.40513 0.74064 0.0
C702 C 0.85096 0.40582 0.72215 0.0
C703 C 0.83844 0.38327 0.7123 0.0
C704 C 0.82292 0.35997 0.72094 0.0
C705 C 0.68457 0.26009 0.75859 0.0
C706 C 0.67507 0.25424 0.74092 0.0
C707 C 0.71204 0.27338 0.76225 0.0
C708 C 0.73065 0.28059 0.74839 0.0
C709 C 0.72123 0.27471 0.7307 0.0
C710 C 0.69366 0.2617 0.72699 0.0
C711 C 0.75989 0.2951 0.75245 0.0
C712 C 0.77655 0.3183 0.74376 0.0
C713 C 0.77096 0.28721 0.76583 0.0
C714 C 0.75504 0.26198 0.77445 0.0
C715 C 0.74131 0.23976 0.76405 0.0
C716 C 0.72611 0.21607 0.77222 0.0
C717 C 0.72462 0.21433 0.7908 0.0
C718 C 0.73837 0.23628 0.80125 0.0
C719 C 0.75359 0.26002 0.79315 0.0
H720 H 0.71283 0.19597 0.79711 0.0
H721 H 0.86298 0.42383 0.71544 0.0
H722 H 0.36105 0.85173 0.93215 0.0
H723 H 0.36005 0.81364 0.92254 0.0
H724 H 0.4465 0.85504 0.92406 0.0
H725 H 0.44795 0.89223 0.93502 0.0
H726 H 0.41543 0.82023 0.89122 0.0
H727 H 0.42678 0.82658 0.95667 0.0
H728 H 0.41203 0.83038 0.98655 0.0
H729 H 0.33507 0.76236 0.97734 0.0
H730 H 0.34931 0.75847 0.94721 0.0
H731 H 0.46884 0.74331 0.89475 0.0
H732 H 0.45768 0.77545 0.89932 0.0
H733 H 0.37878 0.71773 0.91757 0.0
H734 H 0.39021 0.68569 0.9137 0.0
H735 H 0.3974 0.75683 0.93805 0.0
H736 H 0.38927 0.74484 0.87521 0.0
H737 H 0.40282 0.74095 0.84493 0.0
H738 H 0.47019 0.81776 0.84772 0.0
H739 H 0.45728 0.82201 0.87813 0.0
C740 C 0.37988 0.85278 0.93053 0.0
C741 C 0.40458 0.87535 0.93434 0.0
C742 C 0.37922 0.83106 0.92484 0.0
C743 C 0.40323 0.83179 0.92249 0.0
C744 C 0.42781 0.85435 0.92556 0.0
C745 C 0.42851 0.87574 0.9317 0.0
C746 C 0.40319 0.80871 0.9183 0.0
C747 C 0.41142 0.80623 0.90136 0.0
C748 C 0.39735 0.79035 0.93149 0.0
C749 C 0.38895 0.79244 0.94964 0.0
C750 C 0.40662 0.81259 0.96096 0.0
C751 C 0.39838 0.81473 0.97794 0.0
C752 C 0.37257 0.79667 0.98383 0.0
C753 C 0.35502 0.77638 0.97275 0.0
C754 C 0.36317 0.7742 0.95571 0.0
C755 C 0.44913 0.7375 0.89975 0.0
C756 C 0.43038 0.71201 0.90383 0.0
C757 C 0.44268 0.75583 0.90223 0.0
C758 C 0.41716 0.74891 0.90843 0.0
C759 C 0.39854 0.72349 0.9127 0.0
C760 C 0.40511 0.70521 0.91048 0.0
C761 C 0.41025 0.76836 0.91092 0.0
C762 C 0.40079 0.77029 0.92763 0.0
C763 C 0.41466 0.78603 0.89739 0.0
C764 C 0.42238 0.78368 0.87901 0.0
C765 C 0.40706 0.76086 0.86941 0.0
C766 C 0.41462 0.7586 0.85222 0.0
C767 C 0.43737 0.77908 0.84442 0.0
C768 C 0.45257 0.80191 0.85378 0.0
C769 C 0.44512 0.80426 0.87099 0.0
H770 H 0.4432 0.77729 0.83111 0.0
H771 H 0.3662 0.79836 0.99698 0.0
H772 H 0.63051 0.49761 0.07039 0.0
H773 H 0.65705 0.47887 0.06395 0.0
H774 H 0.63088 0.43721 0.1133 0.0
H775 H 0.60536 0.45661 0.12019 0.0
H776 H 0.68374 0.46083 0.10997 0.0
H777 H 0.60645 0.40831 0.07232 0.0
H778 H 0.57363 0.40015 0.04854 0.0
H779 H 0.63733 0.43622 0.01038 0.0
H780 H 0.67059 0.44489 0.034 0.0
H781 H 0.7181 0.36992 0.10166 0.0
H782 H 0.69357 0.3913 0.10339 0.0
H783 H 0.72974 0.43057 0.0543 0.0
H784 H 0.7543 0.40891 0.05232 0.0
H785 H 0.67559 0.4121 0.05542 0.0
H786 H 0.75249 0.46199 0.09269 0.0
H787 H 0.78527 0.46985 0.11642 0.0
H788 H 0.72238 0.43896 0.15529 0.0
H789 H 0.68914 0.43057 0.13175 0.0
C790 C 0.63039 0.48442 0.07984 0.0
C791 C 0.61579 0.47859 0.0958 0.0
C792 C 0.64537 0.47357 0.07607 0.0
C793 C 0.64582 0.45656 0.08811 0.0
C794 C 0.63079 0.45029 0.10382 0.0
C795 C 0.61595 0.46119 0.10764 0.0
C796 C 0.66293 0.44614 0.08493 0.0
C797 C 0.68175 0.44994 0.09812 0.0
C798 C 0.66102 0.43276 0.06916 0.0
C799 C 0.64103 0.4275 0.05496 0.0
C800 C 0.61348 0.41469 0.05888 0.0
C801 C 0.59479 0.40994 0.04543 0.0
C802 C 0.60339 0.41773 0.02797 0.0
C803 C 0.6307 0.43023 0.02392 0.0
C804 C 0.64947 0.43505 0.03733 0.0
C805 C 0.7209 0.3831 0.09121 0.0
C806 C 0.73828 0.38785 0.0769 0.0
C807 C 0.7069 0.39535 0.09225 0.0
C808 C 0.71014 0.41276 0.0791 0.0
C809 C 0.72708 0.41725 0.06461 0.0
C810 C 0.74113 0.40494 0.06354 0.0
C811 C 0.69579 0.42622 0.0807 0.0
C812 C 0.67767 0.42314 0.06719 0.0
C813 C 0.69832 0.44031 0.09618 0.0
C814 C 0.71829 0.44548 0.11042 0.0
C815 C 0.74562 0.45671 0.10627 0.0
C816 C 0.76429 0.46128 0.1197 0.0
C817 C 0.75591 0.45487 0.13735 0.0
C818 C 0.72884 0.44391 0.14161 0.0
C819 C 0.71008 0.43927 0.12824 0.0
H820 H 0.77039 0.45842 0.14772 0.0
H821 H 0.58889 0.41404 0.01757 0.0
H822 H 0.44353 0.92056 0.53414 0.0
H823 H 0.41941 0.87748 0.54614 0.0
H824 H 0.34531 0.86442 0.52386 0.0
H825 H 0.36929 0.9072 0.51149 0.0
H826 H 0.33982 0.84894 0.55872 0.0
H827 H 0.37526 0.83864 0.50428 0.0
H828 H 0.41039 0.84801 0.48233 0.0
H829 H 0.45174 0.8301 0.52112 0.0
H830 H 0.41702 0.82096 0.54339 0.0
H831 H 0.25874 0.71416 0.56374 0.0
H832 H 0.28392 0.75861 0.55462 0.0
H833 H 0.35628 0.76806 0.57728 0.0
H834 H 0.3313 0.72361 0.5864 0.0
H835 H 0.36361 0.78594 0.54322 0.0
H836 H 0.32647 0.79457 0.5974 0.0
H837 H 0.29063 0.78481 0.61884 0.0
H838 H 0.25168 0.8054 0.58001 0.0
H839 H 0.28711 0.81495 0.55823 0.0
C840 C 0.42217 0.90842 0.53158 0.0
C841 C 0.40835 0.91737 0.52187 0.0
C842 C 0.4084 0.88386 0.53852 0.0
C843 C 0.38059 0.86778 0.53585 0.0
C844 C 0.36674 0.8766 0.52616 0.0
C845 C 0.38049 0.90109 0.51915 0.0
C846 C 0.36584 0.84178 0.54325 0.0
C847 C 0.34481 0.83505 0.55519 0.0
C848 C 0.37277 0.82391 0.53892 0.0
C849 C 0.3937 0.8294 0.52557 0.0
C850 C 0.39197 0.83693 0.50818 0.0
C851 C 0.41179 0.84215 0.49567 0.0
C852 C 0.43333 0.83973 0.50035 0.0
C853 C 0.43507 0.83201 0.51753 0.0
C854 C 0.41531 0.82679 0.5301 0.0
C855 C 0.27993 0.72576 0.56699 0.0
C856 C 0.29302 0.71532 0.57576 0.0
C857 C 0.29428 0.75118 0.5618 0.0
C858 C 0.32195 0.76663 0.56531 0.0
C859 C 0.33494 0.75643 0.57442 0.0
C860 C 0.32059 0.73105 0.57969 0.0
C861 C 0.33755 0.79306 0.55869 0.0
C862 C 0.35872 0.79986 0.54685 0.0
C863 C 0.33065 0.81096 0.56306 0.0
C864 C 0.30932 0.80525 0.57613 0.0
C865 C 0.31014 0.79681 0.59338 0.0
C866 C 0.28992 0.79136 0.60561 0.0
C867 C 0.26885 0.79443 0.60078 0.0
C868 C 0.268 0.80301 0.58372 0.0
C869 C 0.28816 0.80847 0.57144 0.0
H870 H 0.25322 0.7902 0.61027 0.0
H871 H 0.44865 0.84378 0.49064 0.0
H872 H 0.60471 0.46762 0.69283 0.0
H873 H 0.61272 0.43603 0.70561 0.0
H874 H 0.54048 0.37625 0.68012 0.0
H875 H 0.53239 0.40766 0.66736 0.0
H876 H 0.5427 0.36522 0.71421 0.0
H877 H 0.60258 0.39487 0.6642 0.0
H878 H 0.63922 0.42686 0.64533 0.0
H879 H 0.6946 0.44901 0.68923 0.0
H880 H 0.65817 0.41737 0.70845 0.0
H881 H 0.56073 0.26229 0.72214 0.0
H882 H 0.55601 0.29636 0.71059 0.0
H883 H 0.62685 0.35137 0.73987 0.0
H884 H 0.63187 0.31738 0.75143 0.0
H885 H 0.62675 0.36623 0.70536 0.0
H886 H 0.56677 0.33523 0.75502 0.0
H887 H 0.52998 0.30278 0.77356 0.0
H888 H 0.47459 0.28281 0.7299 0.0
H889 H 0.51115 0.31491 0.711 0.0
C890 C 0.59072 0.44775 0.68982 0.0
C891 C 0.56787 0.44009 0.67916 0.0
C892 C 0.59529 0.42974 0.69713 0.0
C893 C 0.57725 0.40379 0.69374 0.0
C894 C 0.55458 0.39615 0.68298 0.0
C895 C 0.54995 0.41411 0.67574 0.0
C896 C 0.58153 0.38445 0.70171 0.0
C897 C 0.56096 0.36528 0.7121 0.0
C898 C 0.60565 0.38494 0.69935 0.0
C899 C 0.62758 0.40394 0.68781 0.0
C900 C 0.62252 0.40671 0.66987 0.0
C901 C 0.64326 0.42475 0.65911 0.0
C902 C 0.6692 0.44001 0.66609 0.0
C903 C 0.67448 0.43721 0.68385 0.0
C904 C 0.6538 0.41921 0.69468 0.0
C905 C 0.5753 0.28161 0.72617 0.0
C906 C 0.59662 0.28712 0.73777 0.0
C907 C 0.57252 0.30105 0.71959 0.0
C908 C 0.59095 0.32634 0.72452 0.0
C909 C 0.61241 0.33195 0.73594 0.0
C910 C 0.61516 0.3125 0.74258 0.0
C911 C 0.58778 0.34687 0.71765 0.0
C912 C 0.60856 0.36627 0.70751 0.0
C913 C 0.56383 0.34657 0.72019 0.0
C914 C 0.54176 0.32733 0.73155 0.0
C915 C 0.54679 0.32378 0.74933 0.0
C916 C 0.52597 0.30548 0.75991 0.0
C917 C 0.49998 0.2907 0.7529 0.0
C918 C 0.49474 0.29425 0.7353 0.0
C919 C 0.5155 0.31252 0.72466 0.0
H920 H 0.48388 0.27654 0.76111 0.0
H921 H 0.68523 0.45396 0.65774 0.0
H922 H 0.1529 0.4625 0.87375 0.0
H923 H 0.1995 0.47953 0.88307 0.0
H924 H 0.22749 0.52849 0.8371 0.0
H925 H 0.18113 0.51114 0.8275 0.0
H926 H 0.25702 0.5072 0.84302 0.0
H927 H 0.22341 0.5506 0.87719 0.0
H928 H 0.19229 0.55285 0.89785 0.0
H929 H 0.2116 0.51651 0.93855 0.0
H930 H 0.24259 0.51374 0.91802 0.0
H931 H 0.38297 0.61394 0.86249 0.0
H932 H 0.33636 0.58227 0.85555 0.0
H933 H 0.32781 0.54686 0.90661 0.0
H934 H 0.37459 0.57916 0.91394 0.0
H935 H 0.28767 0.55349 0.90067 0.0
H936 H 0.32836 0.51787 0.8674 0.0
H937 H 0.36103 0.51848 0.84663 0.0
H938 H 0.32963 0.54152 0.80406 0.0
H939 H 0.29704 0.54145 0.82461 0.0
C940 C 0.16903 0.47667 0.86554 0.0
C941 C 0.16342 0.48569 0.84999 0.0
C942 C 0.19558 0.48644 0.87091 0.0
C943 C 0.21689 0.50538 0.86083 0.0
C944 C 0.21132 0.51387 0.84506 0.0
C945 C 0.18485 0.50417 0.83971 0.0
C946 C 0.24503 0.51742 0.86703 0.0
C947 C 0.2638 0.51735 0.85562 0.0
C948 C 0.25364 0.53 0.88368 0.0
C949 C 0.23502 0.53166 0.89601 0.0
C950 C 0.22083 0.54289 0.89049 0.0
C951 C 0.20325 0.5443 0.90219 0.0
C952 C 0.19989 0.53475 0.91948 0.0
C953 C 0.21417 0.52384 0.92513 0.0
C954 C 0.23174 0.52235 0.91348 0.0
C955 C 0.37133 0.59929 0.87221 0.0
C956 C 0.38245 0.5991 0.8888 0.0
C957 C 0.34469 0.58105 0.86815 0.0
C958 C 0.32871 0.56195 0.88045 0.0
C959 C 0.33986 0.56138 0.89691 0.0
C960 C 0.36656 0.57981 0.90106 0.0
C961 C 0.29989 0.54388 0.87647 0.0
C962 C 0.28093 0.54281 0.88828 0.0
C963 C 0.29116 0.53032 0.86015 0.0
C964 C 0.31027 0.52972 0.84759 0.0
C965 C 0.32846 0.52315 0.85362 0.0
C966 C 0.34698 0.5234 0.84189 0.0
C967 C 0.34739 0.53003 0.82404 0.0
C968 C 0.32925 0.53635 0.81788 0.0
C969 C 0.31071 0.53616 0.82957 0.0
H970 H 0.36177 0.53026 0.81499 0.0
H971 H 0.18629 0.53587 0.92852 0.0
H972 H 0.51843 0.10128 0.05054 0.0
H973 H 0.55868 0.14053 0.0611 0.0
H974 H 0.60758 0.12718 0.02587 0.0
H975 H 0.56772 0.08858 0.01495 0.0
H976 H 0.62932 0.14149 0.06003 0.0
H977 H 0.59108 0.16788 0.01406 0.0
H978 H 0.55511 0.17135 0.00013 0.0
H979 H 0.55196 0.20993 0.04659 0.0
H980 H 0.58768 0.20636 0.0609 0.0
H981 H 0.74988 0.26003 0.04731 0.0
H982 H 0.70772 0.21885 0.04549 0.0
H983 H 0.66886 0.24752 0.07754 0.0
H984 H 0.71074 0.2889 0.07904 0.0
H985 H 0.63981 0.22482 0.04922 0.0
H986 H 0.68193 0.20313 0.09393 0.0
H987 H 0.71792 0.19978 0.10793 0.0
H988 H 0.71384 0.15249 0.06482 0.0
H989 H 0.67807 0.15584 0.05041 0.0
C990 C 0.53774 0.1068 0.04499 0.0
C991 C 0.53986 0.09169 0.032 0.0
C992 C 0.5607 0.12912 0.0511 0.0
C993 C 0.58606 0.13664 0.04429 0.0
C994 C 0.58822 0.12153 0.03144 0.0
C995 C 0.56538 0.0994 0.02527 0.0
C996 C 0.61046 0.16066 0.04997 0.0
C997 C 0.63174 0.15976 0.05764 0.0
C998 C 0.6132 0.18436 0.04725 0.0
C999 C 0.59179 0.18657 0.03864 0.0
C1000 C 0.58254 0.1769 0.02137 0.0
C1001 C 0.56224 0.17892 0.01339 0.0
C1002 C 0.55119 0.19078 0.0225 0.0
C1003 C 0.56049 0.2007 0.03958 0.0
C1004 C 0.58077 0.19869 0.04762 0.0
C1005 C 0.73246 0.25746 0.05419 0.0
C1006 C 0.73359 0.27774 0.06324 0.0
C1007 C 0.70839 0.23387 0.05321 0.0
C1008 C 0.68515 0.23004 0.0615 0.0
C1009 C 0.68651 0.25005 0.07102 0.0
C1010 C 0.71048 0.27368 0.07188 0.0
C1011 C 0.65904 0.20579 0.05909 0.0
C1012 C 0.63738 0.20662 0.05197 0.0
C1013 C 0.65595 0.18203 0.06239 0.0
C1014 C 0.67743 0.1799 0.07103 0.0
C1015 C 0.68884 0.19217 0.08736 0.0
C1016 C 0.70918 0.19024 0.09538 0.0
C1017 C 0.7182 0.17597 0.08725 0.0
C1018 C 0.70684 0.16355 0.0711 0.0
C1019 C 0.6865 0.16543 0.06301 0.0
H1020 H 0.73395 0.1745 0.09349 0.0
H1021 H 0.53547 0.19234 0.01629 0.0
H1022 H 0.50703 0.63199 0.15395 0.0
H1023 H 0.50193 0.66579 0.16583 0.0
H1024 H 0.55714 0.67858 0.20863 0.0
H1025 H 0.56231 0.64472 0.19681 0.0
H1026 H 0.51013 0.67821 0.21929 0.0
H1027 H 0.58101 0.7175 0.17617 0.0
H1028 H 0.60141 0.72153 0.14676 0.0
H1029 H 0.54025 0.72926 0.12187 0.0
H1030 H 0.51923 0.72488 0.15111 0.0
H1031 H 0.51984 0.79278 0.24519 0.0
H1032 H 0.53338 0.76328 0.23646 0.0
H1033 H 0.49247 0.75061 0.18595 0.0
H1034 H 0.47967 0.78041 0.19429 0.0
H1035 H 0.53735 0.7529 0.18089 0.0
H1036 H 0.46365 0.70945 0.22198 0.0
H1037 H 0.44021 0.70309 0.25049 0.0
H1038 H 0.50307 0.70102 0.27823 0.0
H1039 H 0.52706 0.70771 0.24989 0.0
C1040 C 0.51777 0.64177 0.16603 0.0
C1041 C 0.53513 0.63585 0.17444 0.0
C1042 C 0.51498 0.66114 0.17272 0.0
C1043 C 0.52938 0.67478 0.18798 0.0
C1044 C 0.54596 0.66829 0.1968 0.0
C1045 C 0.54898 0.64909 0.19 0.0
C1046 C 0.52773 0.69636 0.19432 0.0
C1047 C 0.51649 0.69478 0.21107 0.0
C1048 C 0.53562 0.71767 0.1834 0.0
C1049 C 0.54843 0.72066 0.16582 0.0
C1050 C 0.5718 0.71988 0.16441 0.0
C1051 C 0.58349 0.72225 0.14777 0.0
C1052 C 0.5721 0.7256 0.13245 0.0
C1053 C 0.54904 0.72665 0.13375 0.0
C1054 C 0.53725 0.72425 0.15035 0.0
C1055 C 0.51406 0.78393 0.23214 0.0
C1056 C 0.49852 0.78879 0.22049 0.0
C1057 C 0.52166 0.76698 0.22721 0.0
C1058 C 0.51354 0.7544 0.21066 0.0
C1059 C 0.49895 0.76004 0.19879 0.0
C1060 C 0.49157 0.77707 0.20362 0.0
C1061 C 0.5192 0.73463 0.20578 0.0
C1062 C 0.53126 0.73653 0.18927 0.0
C1063 C 0.5117 0.71344 0.21683 0.0
C1064 C 0.4973 0.70939 0.23386 0.0
C1065 C 0.47257 0.70784 0.23418 0.0
C1066 C 0.45917 0.70414 0.2503 0.0
C1067 C 0.47019 0.70173 0.26617 0.0
C1068 C 0.49459 0.70294 0.26594 0.0
C1069 C 0.50809 0.70668 0.24985 0.0
H1070 H 0.45978 0.69886 0.27864 0.0
H1071 H 0.58118 0.72742 0.11958 0.0
H1072 H 0.90658 0.46009 0.3285 0.0
H1073 H 0.86554 0.45508 0.34079 0.0
H1074 H 0.91236 0.51099 0.38125 0.0
H1075 H 0.95353 0.51611 0.36899 0.0
H1076 H 0.86283 0.4675 0.39377 0.0
H1077 H 0.89593 0.53074 0.34772 0.0
H1078 H 0.91243 0.54758 0.31763 0.0
H1079 H 0.83797 0.48832 0.29475 0.0
H1080 H 0.82118 0.47088 0.32472 0.0
H1081 H 0.76057 0.492 0.41689 0.0
H1082 H 0.80322 0.49653 0.40881 0.0
H1083 H 0.76604 0.4513 0.36156 0.0
H1084 H 0.72378 0.44715 0.36928 0.0
H1085 H 0.81273 0.49159 0.35361 0.0
H1086 H 0.77956 0.42732 0.39888 0.0
H1087 H 0.76267 0.40907 0.42863 0.0
H1088 H 0.83604 0.46836 0.45267 0.0
H1089 H 0.85323 0.48717 0.42305 0.0
C1090 C 0.90805 0.47095 0.34021 0.0
C1091 C 0.93318 0.48858 0.34775 0.0
C1092 C 0.88466 0.46817 0.34715 0.0
C1093 C 0.88603 0.48283 0.36182 0.0
C1094 C 0.91095 0.49955 0.36991 0.0
C1095 C 0.93439 0.50255 0.36285 0.0
C1096 C 0.86166 0.48188 0.36791 0.0
C1097 C 0.85199 0.47305 0.38512 0.0
C1098 C 0.84744 0.4888 0.35648 0.0
C1099 C 0.85741 0.49936 0.33845 0.0
C1100 C 0.88316 0.52117 0.33626 0.0
C1101 C 0.89256 0.53085 0.31923 0.0
C1102 C 0.87629 0.51899 0.30428 0.0
C1103 C 0.85056 0.49747 0.30634 0.0
C1104 C 0.84109 0.48769 0.32335 0.0
C1105 C 0.76151 0.48302 0.40479 0.0
C1106 C 0.73878 0.46925 0.39372 0.0
C1107 C 0.78585 0.48552 0.40024 0.0
C1108 C 0.78776 0.47408 0.38464 0.0
C1109 C 0.76507 0.46034 0.37363 0.0
C1110 C 0.74088 0.45795 0.3781 0.0
C1111 C 0.81342 0.47673 0.37943 0.0
C1112 C 0.82348 0.48605 0.36235 0.0
C1113 C 0.82784 0.47008 0.39097 0.0
C1114 C 0.81755 0.45881 0.40878 0.0
C1115 C 0.792 0.43659 0.41052 0.0
C1116 C 0.78239 0.42612 0.42736 0.0
C1117 C 0.79824 0.43759 0.44253 0.0
C1118 C 0.82376 0.45952 0.4409 0.0
C1119 C 0.83346 0.47009 0.4241 0.0
H1120 H 0.79077 0.42945 0.45555 0.0
H1121 H 0.88359 0.52651 0.2911 0.0
H1122 H 0.04113 0.52545 0.40765 0.0
H1123 H 0.05983 0.53554 0.4381 0.0
H1124 H 0.13855 0.58784 0.4169 0.0
H1125 H 0.12 0.57808 0.38659 0.0
H1126 H 0.13532 0.55121 0.44217 0.0
H1127 H 0.10846 0.61204 0.43482 0.0
H1128 H 0.07588 0.62449 0.42851 0.0
H1129 H 0.02712 0.57885 0.47214 0.0
H1130 H 0.05926 0.56583 0.47855 0.0
H1131 H 0.21466 0.6196 0.51631 0.0
H1132 H 0.19088 0.60564 0.48779 0.0
H1133 H 0.115 0.5716 0.51507 0.0
H1134 H 0.13878 0.58645 0.54362 0.0
H1135 H 0.11309 0.5951 0.48749 0.0
H1136 H 0.13897 0.53554 0.49665 0.0
H1137 H 0.16929 0.52056 0.50341 0.0
H1138 H 0.21643 0.55931 0.45733 0.0
H1139 H 0.1866 0.57482 0.45043 0.0
C1140 C 0.06236 0.53923 0.40957 0.0
C1141 C 0.07912 0.55116 0.39485 0.0
C1142 C 0.07298 0.54498 0.4269 0.0
C1143 C 0.10053 0.56243 0.42967 0.0
C1144 C 0.11724 0.57435 0.41499 0.0
C1145 C 0.1066 0.56892 0.39774 0.0
C1146 C 0.11226 0.56796 0.44782 0.0
C1147 C 0.13069 0.561 0.45208 0.0
C1148 C 0.10535 0.57985 0.46085 0.0
C1149 C 0.08609 0.58773 0.45703 0.0
C1150 C 0.09066 0.60446 0.44296 0.0
C1151 C 0.0723 0.61166 0.43939 0.0
C1152 C 0.0494 0.6024 0.44988 0.0
C1153 C 0.04484 0.58597 0.464 0.0
C1154 C 0.06313 0.57869 0.46761 0.0
C1155 C 0.1929 0.60902 0.51625 0.0
C1156 C 0.17858 0.60408 0.5322 0.0
C1157 C 0.17931 0.60093 0.49993 0.0
C1158 C 0.15109 0.58718 0.49927 0.0
C1159 C 0.13676 0.58214 0.51523 0.0
C1160 C 0.15037 0.59059 0.53154 0.0
C1161 C 0.13668 0.57876 0.48189 0.0
C1162 C 0.11764 0.5851 0.47773 0.0
C1163 C 0.14268 0.56586 0.46903 0.0
C1164 C 0.16066 0.55652 0.4731 0.0
C1165 C 0.15591 0.54102 0.48803 0.0
C1166 C 0.17299 0.53241 0.49187 0.0
C1167 C 0.1948 0.53902 0.48083 0.0
C1168 C 0.19954 0.55422 0.46589 0.0
C1169 C 0.18253 0.5629 0.46199 0.0
H1170 H 0.20801 0.53233 0.48383 0.0
H1171 H 0.03521 0.608 0.4471 0.0
H1172 H 0.52483 0.05981 0.57871 0.0
H1173 H 0.53755 0.07448 0.60931 0.0
H1174 H 0.4551 0.04752 0.62163 0.0
H1175 H 0.44179 0.03164 0.59108 0.0
H1176 H 0.49191 0.09929 0.62925 0.0
H1177 H 0.48178 0.01933 0.64109 0.0
H1178 H 0.48832 0.98394 0.63587 0.0
H1179 H 0.57349 0.03435 0.64272 0.0
H1180 H 0.56752 0.07015 0.64772 0.0
H1181 H 0.52921 0.14889 0.71619 0.0
H1182 H 0.50624 0.11822 0.69208 0.0
H1183 H 0.5814 0.12747 0.67637 0.0
H1184 H 0.6043 0.15742 0.70092 0.0
H1185 H 0.54282 0.0799 0.67233 0.0
H1186 H 0.55524 0.15993 0.65559 0.0
H1187 H 0.55154 0.19733 0.65886 0.0
H1188 H 0.46551 0.14914 0.65896 0.0
H1189 H 0.46872 0.11141 0.65592 0.0
C1190 C 0.50913 0.05611 0.588 0.0
C1191 C 0.48221 0.04451 0.58232 0.0
C1192 C 0.51653 0.06467 0.60552 0.0
C1193 C 0.49725 0.06201 0.61772 0.0
C1194 C 0.47025 0.04972 0.61237 0.0
C1195 C 0.46274 0.04083 0.59487 0.0
C1196 C 0.50596 0.07453 0.63537 0.0
C1197 C 0.50246 0.09466 0.6389 0.0
C1198 C 0.52052 0.06899 0.64758 0.0
C1199 C 0.5242 0.04748 0.64467 0.0
C1200 C 0.50193 0.02293 0.64135 0.0
C1201 C 0.50553 0.00278 0.63845 0.0
C1202 C 0.53131 0.0069 0.63893 0.0
C1203 C 0.55353 0.03118 0.64235 0.0
C1204 C 0.55005 0.0514 0.64524 0.0
C1205 C 0.5408 0.14421 0.7077 0.0
C1206 C 0.56861 0.15577 0.71031 0.0
C1207 C 0.52765 0.12672 0.69389 0.0
C1208 C 0.54218 0.12094 0.68216 0.0
C1209 C 0.56977 0.13167 0.68521 0.0
C1210 C 0.58286 0.14886 0.69921 0.0
C1211 C 0.52902 0.10488 0.66615 0.0
C1212 C 0.53181 0.08421 0.66287 0.0
C1213 C 0.5142 0.1102 0.65393 0.0
C1214 C 0.51222 0.13285 0.65575 0.0
C1215 C 0.53554 0.1573 0.65645 0.0
C1216 C 0.53353 0.17856 0.65824 0.0
C1217 C 0.50831 0.1756 0.65917 0.0
C1218 C 0.48503 0.15139 0.65827 0.0
C1219 C 0.48693 0.13007 0.65651 0.0
H1220 H 0.50679 0.19208 0.66055 0.0
H1221 H 0.53406 0.99128 0.63669 0.0
H1222 H 0.47784 0.60078 0.68835 0.0
H1223 H 0.46833 0.61966 0.71383 0.0
H1224 H 0.51837 0.60525 0.74758 0.0
H1225 H 0.52797 0.58662 0.72232 0.0
H1226 H 0.46739 0.58966 0.76208 0.0
H1227 H 0.54303 0.66242 0.73294 0.0
H1228 H 0.56543 0.6908 0.70739 0.0
H1229 H 0.50358 0.70761 0.70499 0.0
H1230 H 0.4806 0.67903 0.7304 0.0
H1231 H 0.50264 0.66166 0.83911 0.0
H1232 H 0.50712 0.64797 0.80958 0.0
H1233 H 0.45505 0.67034 0.78741 0.0
H1234 H 0.45027 0.68405 0.81702 0.0
H1235 H 0.49999 0.68127 0.76512 0.0
H1236 H 0.42628 0.61272 0.79529 0.0
H1237 H 0.4022 0.58417 0.82044 0.0
H1238 H 0.45685 0.5584 0.8201 0.0
H1239 H 0.48157 0.58714 0.79512 0.0
C1240 C 0.48672 0.60169 0.70124 0.0
C1241 C 0.50379 0.5925 0.70341 0.0
C1242 C 0.48137 0.61249 0.7157 0.0
C1243 C 0.49275 0.61387 0.73251 0.0
C1244 C 0.50944 0.60435 0.7347 0.0
C1245 C 0.51505 0.5939 0.72026 0.0
C1246 C 0.48749 0.62518 0.748 0.0
C1247 C 0.47458 0.6097 0.76278 0.0
C1248 C 0.49605 0.65112 0.74861 0.0
C1249 C 0.50993 0.66835 0.73341 0.0
C1250 C 0.53407 0.67199 0.72685 0.0
C1251 C 0.5469 0.68814 0.71243 0.0
C1252 C 0.53589 0.70093 0.70453 0.0
C1253 C 0.51206 0.69765 0.71109 0.0
C1254 C 0.49913 0.68148 0.72551 0.0
C1255 C 0.49253 0.66415 0.82794 0.0
C1256 C 0.4758 0.67363 0.83045 0.0
C1257 C 0.49506 0.65625 0.81109 0.0
C1258 C 0.48105 0.6578 0.79645 0.0
C1259 C 0.46589 0.66892 0.79861 0.0
C1260 C 0.46317 0.67668 0.81553 0.0
C1261 C 0.48072 0.64589 0.77936 0.0
C1262 C 0.49244 0.66117 0.76431 0.0
C1263 C 0.47072 0.61965 0.77838 0.0
C1264 C 0.45593 0.60227 0.79342 0.0
C1265 C 0.43333 0.60114 0.80068 0.0
C1266 C 0.41953 0.58489 0.81489 0.0
C1267 C 0.42801 0.56951 0.82189 0.0
C1268 C 0.45031 0.57034 0.81467 0.0
C1269 C 0.46422 0.5866 0.80047 0.0
H1270 H 0.41726 0.55691 0.83287 0.0
H1271 H 0.54586 0.71344 0.69337 0.0
H1272 H 0.89342 0.3646 0.87065 0.0
H1273 H 0.86537 0.35211 0.89744 0.0
H1274 H 0.93317 0.4095 0.92793 0.0
H1275 H 0.96124 0.42171 0.90142 0.0
H1276 H 0.90543 0.36446 0.94572 0.0
H1277 H 0.88592 0.41998 0.9131 0.0
H1278 H 0.87119 0.43329 0.88677 0.0
H1279 H 0.79441 0.36331 0.88796 0.0
H1280 H 0.80884 0.34945 0.91416 0.0
H1281 H 0.84887 0.38333 0.02202 0.0
H1282 H 0.87241 0.3877 0.99425 0.0
H1283 H 0.79721 0.33331 0.96879 0.0
H1284 H 0.77343 0.32934 0.9964 0.0
H1285 H 0.82565 0.37192 0.94748 0.0
H1286 H 0.84316 0.31755 0.98148 0.0
H1287 H 0.85745 0.30363 0.00768 0.0
H1288 H 0.93707 0.36966 0.00375 0.0
H1289 H 0.92316 0.38418 0.97766 0.0
C1290 C 0.9023 0.3744 0.88311 0.0
C1291 C 0.9294 0.39431 0.88392 0.0
C1292 C 0.88628 0.36735 0.89835 0.0
C1293 C 0.89717 0.38005 0.91461 0.0
C1294 C 0.92436 0.39951 0.91551 0.0
C1295 C 0.94029 0.40662 0.90032 0.0
C1296 C 0.88035 0.37357 0.93075 0.0
C1297 C 0.88808 0.36623 0.94617 0.0
C1298 C 0.85728 0.37518 0.93114 0.0
C1299 C 0.84857 0.38356 0.91545 0.0
C1300 C 0.86598 0.40735 0.90765 0.0
C1301 C 0.85767 0.41501 0.89277 0.0
C1302 C 0.83191 0.39912 0.88566 0.0
C1303 C 0.81437 0.37557 0.89346 0.0
C1304 C 0.8226 0.36782 0.90833 0.0
C1305 C 0.83734 0.37224 0.01053 0.0
C1306 C 0.80929 0.35596 0.01142 0.0
C1307 C 0.85084 0.37465 0.99468 0.0
C1308 C 0.83663 0.36054 0.97949 0.0
C1309 C 0.8086 0.34434 0.98034 0.0
C1310 C 0.79505 0.34208 0.99615 0.0
C1311 C 0.85098 0.36321 0.96262 0.0
C1312 C 0.84279 0.36982 0.94704 0.0
C1313 C 0.87355 0.36077 0.96205 0.0
C1314 C 0.88204 0.35205 0.97769 0.0
C1315 C 0.86367 0.32919 0.98628 0.0
C1316 C 0.87171 0.32118 0.0011 0.0
C1317 C 0.89814 0.33578 0.0074 0.0
C1318 C 0.9166 0.35839 -0.00114 0.0
C1319 C 0.90865 0.3665 0.98404 0.0
H1320 H 0.90432 0.32954 0.01888 0.0
H1321 H 0.82551 0.40508 0.87414 0.0
H1322 H 0.4514 0.98733 0.09084 0.0
H1323 H 0.45397 0.97451 0.12127 0.0
H1324 H 0.45434 0.91011 0.10056 0.0
H1325 H 0.45037 0.92199 0.07032 0.0
H1326 H 0.42205 0.89624 0.1278 0.0
H1327 H 0.51254 0.96571 0.11542 0.0
H1328 H 0.54703 0.00961 0.10718 0.0
H1329 H 0.5256 0.03777 0.15211 0.0
H1330 H 0.49072 0.99402 0.16049 0.0
H1331 H 0.47593 0.85942 0.19501 0.0
H1332 H 0.47154 0.87851 0.16793 0.0
H1333 H 0.46351 0.93199 0.19939 0.0
H1334 H 0.46816 0.91306 0.22679 0.0
H1335 H 0.49608 0.95374 0.16917 0.0
H1336 H 0.40863 0.88282 0.1831 0.0
H1337 H 0.37595 0.83846 0.19143 0.0
H1338 H 0.39291 0.81258 0.14321 0.0
H1339 H 0.42602 0.85679 0.13472 0.0
C1340 C 0.45175 0.9703 0.09279 0.0
C1341 C 0.45089 0.9558 0.07811 0.0
C1342 C 0.4535 0.96314 0.11018 0.0
C1343 C 0.45469 0.94152 0.11319 0.0
C1344 C 0.45353 0.92691 0.09857 0.0
C1345 C 0.45158 0.93391 0.08125 0.0
C1346 C 0.45704 0.93377 0.13148 0.0
C1347 C 0.43834 0.9088 0.13678 0.0
C1348 C 0.47782 0.95036 0.14345 0.0
C1349 C 0.49882 0.97663 0.13845 0.0
C1350 C 0.51504 0.98128 0.12346 0.0
C1351 C 0.53469 0.00613 0.11878 0.0
C1352 C 0.53844 0.02647 0.12908 0.0
C1353 C 0.52262 0.022 0.14412 0.0
C1354 C 0.50293 0.99718 0.14885 0.0
C1355 C 0.47344 0.87537 0.19625 0.0
C1356 C 0.47212 0.88456 0.21308 0.0
C1357 C 0.47088 0.88621 0.18073 0.0
C1358 C 0.46674 0.90635 0.18169 0.0
C1359 C 0.46656 0.91636 0.19841 0.0
C1360 C 0.46917 0.9055 0.21402 0.0
C1361 C 0.4616 0.91607 0.16514 0.0
C1362 C 0.47962 0.94135 0.16024 0.0
C1363 C 0.44029 0.89975 0.15345 0.0
C1364 C 0.41993 0.87314 0.15833 0.0
C1365 C 0.40549 0.86767 0.17431 0.0
C1366 C 0.38689 0.84255 0.17906 0.0
C1367 C 0.38239 0.82271 0.16787 0.0
C1368 C 0.39642 0.82797 0.15187 0.0
C1369 C 0.41508 0.85306 0.14707 0.0
H1370 H 0.36801 0.80327 0.17159 0.0
H1371 H 0.55366 0.0457 0.12543 0.0
H1372 H 0.56117 0.55063 0.23791 0.0
H1373 H 0.57378 0.54041 0.26635 0.0
H1374 H 0.64747 0.55467 0.2431 0.0
H1375 H 0.63441 0.56338 0.21454 0.0
H1376 H 0.62338 0.51128 0.25897 0.0
H1377 H 0.64616 0.59519 0.27437 0.0
H1378 H 0.63828 0.63002 0.27808 0.0
H1379 H 0.57525 0.58525 0.31533 0.0
H1380 H 0.58252 0.55001 0.31167 0.0
H1381 H 0.6809 0.53093 0.3547 0.0
H1382 H 0.66928 0.54701 0.32876 0.0
H1383 H 0.60414 0.4711 0.31599 0.0
H1384 H 0.61595 0.45477 0.34168 0.0
H1385 H 0.62531 0.54686 0.31854 0.0
H1386 H 0.59979 0.4635 0.27131 0.0
H1387 H 0.61168 0.43138 0.26721 0.0
H1388 H 0.68801 0.48067 0.29265 0.0
H1389 H 0.67673 0.5132 0.29668 0.0
C1390 C 0.58012 0.5517 0.23889 0.0
C1391 C 0.59675 0.55783 0.22391 0.0
C1392 C 0.58742 0.54611 0.2552 0.0
C1393 C 0.61162 0.54686 0.25685 0.0
C1394 C 0.6287 0.55396 0.24212 0.0
C1395 C 0.62132 0.55927 0.22583 0.0
C1396 C 0.61834 0.53838 0.2734 0.0
C1397 C 0.62381 0.51912 0.27198 0.0
C1398 C 0.61909 0.5487 0.29036 0.0
C1399 C 0.61472 0.56988 0.29261 0.0
C1400 C 0.63048 0.5927 0.28325 0.0
C1401 C 0.62614 0.61253 0.28536 0.0
C1402 C 0.60623 0.60982 0.2969 0.0
C1403 C 0.59065 0.58731 0.30638 0.0
C1404 C 0.59488 0.56741 0.30431 0.0
C1405 C 0.66408 0.51765 0.34638 0.0
C1406 C 0.64953 0.49154 0.3501 0.0
C1407 C 0.65738 0.5269 0.33163 0.0
C1408 C 0.63603 0.51022 0.32038 0.0
C1409 C 0.62095 0.48424 0.32437 0.0
C1410 C 0.62774 0.47495 0.33904 0.0
C1411 C 0.63028 0.51982 0.30402 0.0
C1412 C 0.62485 0.53911 0.30549 0.0
C1413 C 0.63013 0.50996 0.28701 0.0
C1414 C 0.63728 0.49066 0.28445 0.0
C1415 C 0.61915 0.46751 0.27596 0.0
C1416 C 0.62578 0.44923 0.27366 0.0
C1417 C 0.65055 0.45395 0.27972 0.0
C1418 C 0.66879 0.477 0.28803 0.0
C1419 C 0.66228 0.49535 0.29034 0.0
H1420 H 0.65563 0.43977 0.27794 0.0
H1421 H 0.60291 0.6252 0.29851 0.0
H1422 H 0.42274 0.94394 0.41323 0.0
H1423 H 0.42238 0.91793 0.38877 0.0
H1424 H 0.49522 0.92603 0.40919 0.0
H1425 H 0.4953 0.95138 0.43411 0.0
H1426 H 0.49798 0.93895 0.37327 0.0
H1427 H 0.44044 0.87024 0.41153 0.0
H1428 H 0.40218 0.8452 0.43165 0.0
H1429 H 0.34718 0.83363 0.38937 0.0
H1430 H 0.38513 0.85895 0.36905 0.0
H1431 H 0.49572 0.86015 0.30319 0.0
H1432 H 0.49759 0.87711 0.33302 0.0
H1433 H 0.42036 0.86781 0.32385 0.0
H1434 H 0.41809 0.85044 0.29433 0.0
H1435 H 0.42276 0.85276 0.35651 0.0
H1436 H 0.47949 0.92577 0.31979 0.0
H1437 H 0.51716 0.95202 0.29949 0.0
H1438 H 0.57298 0.95646 0.33873 0.0
H1439 H 0.53557 0.92994 0.35919 0.0
C1440 C 0.43831 0.93967 0.41283 0.0
C1441 C 0.45913 0.94991 0.42561 0.0
C1442 C 0.43813 0.92488 0.39878 0.0
C1443 C 0.45878 0.92008 0.3972 0.0
C1444 C 0.47918 0.92963 0.41016 0.0
C1445 C 0.47924 0.94422 0.42432 0.0
C1446 C 0.45996 0.90664 0.38132 0.0
C1447 C 0.48182 0.91988 0.36977 0.0
C1448 C 0.4386 0.882 0.37664 0.0
C1449 C 0.41567 0.86668 0.3888 0.0
C1450 C 0.4202 0.86255 0.40656 0.0
C1451 C 0.39856 0.84826 0.41799 0.0
C1452 C 0.37226 0.83787 0.41181 0.0
C1453 C 0.36756 0.8417 0.39415 0.0
C1454 C 0.38913 0.856 0.38266 0.0
C1455 C 0.47915 0.86171 0.30756 0.0
C1456 C 0.45683 0.85407 0.29636 0.0
C1457 C 0.48026 0.87143 0.32459 0.0
C1458 C 0.4592 0.87391 0.33061 0.0
C1459 C 0.43679 0.86599 0.31952 0.0
C1460 C 0.43561 0.85618 0.30259 0.0
C1461 C 0.46053 0.88528 0.34826 0.0
C1462 C 0.43913 0.87166 0.36014 0.0
C1463 C 0.48223 0.90968 0.35319 0.0
C1464 C 0.50472 0.92563 0.34092 0.0
C1465 C 0.49978 0.93218 0.32403 0.0
C1466 C 0.52109 0.94713 0.31251 0.0
C1467 C 0.54744 0.95583 0.3178 0.0
C1468 C 0.55255 0.94966 0.33464 0.0
C1469 C 0.53131 0.93468 0.34621 0.0
H1470 H 0.56391 0.96742 0.30886 0.0
H1471 H 0.35554 0.82682 0.42068 0.0
H1472 H 0.59443 0.55166 0.55307 0.0
H1473 H 0.60769 0.54471 0.524 0.0
H1474 H 0.52477 0.50278 0.50686 0.0
H1475 H 0.5113 0.50969 0.53609 0.0
H1476 H 0.54723 0.47618 0.5017 0.0
H1477 H 0.57074 0.56008 0.48794 0.0
H1478 H 0.59173 0.60605 0.49252 0.0
H1479 H 0.66985 0.61622 0.49313 0.0
H1480 H 0.64932 0.57023 0.48881 0.0
H1481 H 0.57857 0.45531 0.41539 0.0
H1482 H 0.56406 0.47171 0.43931 0.0
H1483 H 0.64338 0.50928 0.46272 0.0
H1484 H 0.65826 0.49303 0.43866 0.0
H1485 H 0.62074 0.53911 0.46291 0.0
H1486 H 0.59613 0.45444 0.47922 0.0
H1487 H 0.57473 0.4084 0.47448 0.0
H1488 H 0.49776 0.40008 0.46886 0.0
H1489 H 0.51876 0.44612 0.47331 0.0
C1490 C 0.57907 0.54166 0.54294 0.0
C1491 C 0.55181 0.53122 0.54685 0.0
C1492 C 0.5867 0.53766 0.52631 0.0
C1493 C 0.56724 0.52333 0.51322 0.0
C1494 C 0.5401 0.51387 0.51679 0.0
C1495 C 0.53244 0.5178 0.53347 0.0
C1496 C 0.57503 0.51595 0.49667 0.0
C1497 C 0.5629 0.48999 0.49301 0.0
C1498 C 0.59598 0.53395 0.4856 0.0
C1499 C 0.60845 0.56165 0.48819 0.0
C1500 C 0.59238 0.57208 0.4892 0.0
C1501 C 0.6042 0.59815 0.49172 0.0
C1502 C 0.6321 0.61404 0.49315 0.0
C1503 C 0.64824 0.60388 0.49203 0.0
C1504 C 0.63652 0.57782 0.48952 0.0
C1505 C 0.59303 0.46716 0.42555 0.0
C1506 C 0.61952 0.47268 0.42523 0.0
C1507 C 0.58467 0.47651 0.43921 0.0
C1508 C 0.60258 0.49145 0.45284 0.0
C1509 C 0.62928 0.49774 0.45228 0.0
C1510 C 0.6377 0.48835 0.4386 0.0
C1511 C 0.593 0.49945 0.46811 0.0
C1512 C 0.60485 0.52542 0.47153 0.0
C1513 C 0.57173 0.48149 0.47896 0.0
C1514 C 0.55907 0.45377 0.47641 0.0
C1515 C 0.57468 0.44282 0.47683 0.0
C1516 C 0.56261 0.41672 0.47422 0.0
C1517 C 0.53492 0.40135 0.47132 0.0
C1518 C 0.51922 0.41202 0.47108 0.0
C1519 C 0.53118 0.43811 0.47365 0.0
H1520 H 0.52561 0.38116 0.4693 0.0
H1521 H 0.64121 0.63422 0.4951 0.0
H1522 H 0.05998 0.50772 0.73553 0.0
H1523 H 0.08316 0.52905 0.70821 0.0
H1524 H 0.05769 0.45687 0.68389 0.0
H1525 H 0.03362 0.43514 0.71113 0.0
H1526 H 0.11258 0.49128 0.68201 0.0
H1527 H 0.032 0.48968 0.6689 0.0
H1528 H 0.995 0.49627 0.67486 0.0
H1529 H 0.05161 0.57624 0.68106 0.0
H1530 H 0.08901 0.57008 0.67539 0.0
H1531 H 0.16924 0.54301 0.59813 0.0
H1532 H 0.1372 0.51854 0.62159 0.0
H1533 H 0.15482 0.58782 0.64719 0.0
H1534 H 0.18666 0.61254 0.62352 0.0
H1535 H 0.1017 0.55303 0.64726 0.0
H1536 H 0.18202 0.55518 0.66272 0.0
H1537 H 0.22005 0.54978 0.65764 0.0
H1538 H 0.16516 0.47015 0.64833 0.0
H1539 H 0.12677 0.47515 0.65309 0.0
C1540 C 0.05849 0.49623 0.72422 0.0
C1541 C 0.0448 0.46964 0.72555 0.0
C1542 C 0.07194 0.50852 0.70862 0.0
C1543 C 0.07208 0.49454 0.69402 0.0
C1544 C 0.05784 0.46799 0.69505 0.0
C1545 C 0.04417 0.45563 0.71063 0.0
C1546 C 0.08882 0.50787 0.67829 0.0
C1547 C 0.10988 0.5044 0.67417 0.0
C1548 C 0.08579 0.52559 0.66849 0.0
C1549 C 0.06334 0.52938 0.67187 0.0
C1550 C 0.03659 0.50864 0.67168 0.0
C1551 C 0.01554 0.51231 0.67498 0.0
C1552 C 0.02095 0.53665 0.67838 0.0
C1553 C 0.04744 0.55739 0.67844 0.0
C1554 C 0.06858 0.55383 0.67517 0.0
C1555 C 0.16631 0.55309 0.60873 0.0
C1556 C 0.18065 0.57974 0.60903 0.0
C1557 C 0.14801 0.53905 0.62215 0.0
C1558 C 0.14388 0.55136 0.63626 0.0
C1559 C 0.15774 0.57795 0.63643 0.0
C1560 C 0.176 0.59204 0.62294 0.0
C1561 C 0.12548 0.53646 0.651 0.0
C1562 C 0.10422 0.53972 0.65499 0.0
C1563 C 0.12846 0.5187 0.66082 0.0
C1564 C 0.15151 0.51559 0.65807 0.0
C1565 C 0.17805 0.53655 0.65945 0.0
C1566 C 0.19967 0.53356 0.65665 0.0
C1567 C 0.19502 0.50965 0.65261 0.0
C1568 C 0.16873 0.48867 0.65142 0.0
C1569 C 0.14703 0.49157 0.65418 0.0
H1570 H 0.21179 0.50737 0.65044 0.0
H1571 H 0.00463 0.53945 0.68093 0.0
H1572 H 0.47862 0.11275 0.93933 0.0
H1573 H 0.49532 0.13865 0.91226 0.0
H1574 H 0.53816 0.10252 0.89837 0.0
H1575 H 0.52122 0.07634 0.92486 0.0
H1576 H 0.56827 0.15381 0.89264 0.0
H1577 H 0.47795 0.08225 0.88072 0.0
H1578 H 0.42916 0.05572 0.88595 0.0
H1579 H 0.42192 0.1197 0.87624 0.0
H1580 H 0.47078 0.14676 0.87126 0.0
H1581 H 0.58696 0.15849 0.80056 0.0
H1582 H 0.57221 0.14522 0.8311 0.0
H1583 H 0.53388 0.18799 0.83125 0.0
H1584 H 0.54835 0.20122 0.80047 0.0
H1585 H 0.50208 0.14101 0.84587 0.0
H1586 H 0.59205 0.21097 0.85331 0.0
H1587 H 0.64072 0.23674 0.84755 0.0
H1588 H 0.64882 0.17567 0.86538 0.0
H1589 H 0.60012 0.14937 0.871 0.0
C1590 C 0.49172 0.11045 0.93054 0.0
C1591 C 0.49868 0.09255 0.93435 0.0
C1592 C 0.50129 0.1253 0.91513 0.0
C1593 C 0.51791 0.12242 0.90332 0.0
C1594 C 0.52556 0.1052 0.9074 0.0
C1595 C 0.51595 0.09034 0.92266 0.0
C1596 C 0.5263 0.13606 0.88612 0.0
C1597 C 0.55383 0.15105 0.8824 0.0
C1598 C 0.50742 0.13291 0.87295 0.0
C1599 C 0.47805 0.11661 0.87586 0.0
C1600 C 0.46599 0.09072 0.87986 0.0
C1601 C 0.43833 0.07557 0.88275 0.0
C1602 C 0.42247 0.08603 0.88148 0.0
C1603 C 0.43424 0.11165 0.87726 0.0
C1604 C 0.46192 0.1269 0.87442 0.0
C1605 C 0.57538 0.1651 0.80704 0.0
C1606 C 0.56894 0.18101 0.79811 0.0
C1607 C 0.56708 0.15759 0.82454 0.0
C1608 C 0.55234 0.16597 0.83353 0.0
C1609 C 0.54538 0.18144 0.82456 0.0
C1610 C 0.55369 0.18899 0.80701 0.0
C1611 C 0.54406 0.15819 0.85222 0.0
C1612 C 0.51657 0.14429 0.85622 0.0
C1613 C 0.56299 0.16229 0.86565 0.0
C1614 C 0.59238 0.17815 0.86248 0.0
C1615 C 0.60417 0.20297 0.8559 0.0
C1616 C 0.63178 0.21768 0.85267 0.0
C1617 C 0.64784 0.20783 0.85608 0.0
C1618 C 0.63635 0.18327 0.86275 0.0
C1619 C 0.60875 0.16847 0.86599 0.0
H1620 H 0.66921 0.21925 0.85356 0.0
H1621 H 0.40105 0.07426 0.88371 0.0
H1622 H 0.55568 0.62462 0.06205 0.0
H1623 H 0.54707 0.63463 0.03239 0.0
H1624 H 0.46213 0.58207 0.03923 0.0
H1625 H 0.47017 0.57305 0.06958 0.0
H1626 H 0.49604 0.57763 0.00716 0.0
H1627 H 0.46934 0.63012 0.03678 0.0
H1628 H 0.47636 0.66341 0.05797 0.0
H1629 H 0.54844 0.71773 0.03067 0.0
H1630 H 0.54205 0.68463 0.00948 0.0
H1631 H 0.45247 0.59629 0.92346 0.0
H1632 H 0.4589 0.58759 0.95416 0.0
H1633 H 0.52841 0.66371 0.95913 0.0
H1634 H 0.52068 0.67294 0.92876 0.0
H1635 H 0.50073 0.65537 0.98626 0.0
H1636 H 0.53036 0.60633 0.9571 0.0
H1637 H 0.52826 0.57456 0.93641 0.0
H1638 H 0.45758 0.51574 0.9626 0.0
H1639 H 0.45906 0.54721 0.98331 0.0
C1640 C 0.53502 0.61584 0.05766 0.0
C1641 C 0.51361 0.59792 0.06833 0.0
C1642 C 0.53023 0.62142 0.04058 0.0
C1643 C 0.50405 0.60895 0.03373 0.0
C1644 C 0.48249 0.59176 0.04439 0.0
C1645 C 0.48719 0.58655 0.06167 0.0
C1646 C 0.4997 0.61255 0.01491 0.0
C1647 C 0.49656 0.59436 0.00249 0.0
C1648 C 0.50159 0.63491 0.00901 0.0
C1649 C 0.50537 0.65483 0.02168 0.0
C1650 C 0.48684 0.64909 0.03542 0.0
C1651 C 0.49067 0.66794 0.0474 0.0
C1652 C 0.51288 0.69265 0.04571 0.0
C1653 C 0.53127 0.69858 0.03199 0.0
C1654 C 0.52754 0.67978 0.01998 0.0
C1655 C 0.46944 0.61096 0.93101 0.0
C1656 C 0.48619 0.63524 0.92381 0.0
C1657 C 0.47318 0.60597 0.94856 0.0
C1658 C 0.49434 0.62489 0.95899 0.0
C1659 C 0.51185 0.64882 0.95143 0.0
C1660 C 0.50759 0.65405 0.93406 0.0
C1661 C 0.49708 0.62039 0.97812 0.0
C1662 C 0.50005 0.63848 0.9907 0.0
C1663 C 0.49566 0.59814 0.98413 0.0
C1664 C 0.49468 0.57918 0.97165 0.0
C1665 C 0.51425 0.58665 0.95836 0.0
C1666 C 0.51319 0.56869 0.94664 0.0
C1667 C 0.49276 0.54316 0.94816 0.0
C1668 C 0.47338 0.53552 0.96143 0.0
C1669 C 0.47433 0.55341 0.97317 0.0
H1670 H 0.49198 0.52928 0.93908 0.0
H1671 H 0.51581 0.70722 0.05499 0.0
H1672 H 0.97673 0.43723 0.23163 0.0
H1673 H 0.95275 0.42038 0.20342 0.0
H1674 H 0.89145 0.43356 0.22083 0.0
H1675 H 0.91522 0.4501 0.24939 0.0
H1676 H 0.87028 0.38746 0.20368 0.0
H1677 H 0.93824 0.47421 0.19356 0.0
H1678 H 0.98393 0.51243 0.1937 0.0
H1679 H 0.01067 0.47539 0.15917 0.0
H1680 H 0.96523 0.43672 0.15911 0.0
H1681 H 0.81431 0.38402 0.11903 0.0
H1682 H 0.83655 0.39717 0.14805 0.0
H1683 H 0.89676 0.38276 0.13024 0.0
H1684 H 0.87461 0.36957 0.10098 0.0
H1685 H 0.9183 0.42882 0.14768 0.0
H1686 H 0.84914 0.34188 0.15778 0.0
H1687 H 0.80284 0.30455 0.15739 0.0
H1688 H 0.77773 0.34316 0.1917 0.0
H1689 H 0.82383 0.38088 0.19209 0.0
C1690 C 0.95784 0.43606 0.22962 0.0
C1691 C 0.94771 0.44481 0.24276 0.0
C1692 C 0.94433 0.42668 0.21342 0.0
C1693 C 0.92049 0.42598 0.20998 0.0
C1694 C 0.90987 0.434 0.22324 0.0
C1695 C 0.92348 0.44353 0.23948 0.0
C1696 C 0.90717 0.41752 0.19232 0.0
C1697 C 0.88064 0.39668 0.19144 0.0
C1698 C 0.92094 0.4293 0.17636 0.0
C1699 C 0.94837 0.45246 0.17647 0.0
C1700 C 0.95392 0.4741 0.18614 0.0
C1701 C 0.97976 0.49587 0.18618 0.0
C1702 C 0.00018 0.49634 0.17644 0.0
C1703 C 0.99481 0.47501 0.16668 0.0
C1704 C 0.96902 0.45315 0.16666 0.0
C1705 C 0.83228 0.38361 0.12123 0.0
C1706 C 0.84267 0.3757 0.10768 0.0
C1707 C 0.84488 0.39103 0.13788 0.0
C1708 C 0.86811 0.39067 0.14134 0.0
C1709 C 0.87877 0.38307 0.12782 0.0
C1710 C 0.86607 0.3755 0.11114 0.0
C1711 C 0.88145 0.39869 0.15903 0.0
C1712 C 0.90799 0.41952 0.15991 0.0
C1713 C 0.86762 0.387 0.17498 0.0
C1714 C 0.8399 0.3643 0.17483 0.0
C1715 C 0.83371 0.34249 0.16513 0.0
C1716 C 0.8075 0.32125 0.16493 0.0
C1717 C 0.78734 0.32151 0.17448 0.0
C1718 C 0.79336 0.343 0.18429 0.0
C1719 C 0.81953 0.36431 0.18452 0.0
H1720 H 0.76707 0.30504 0.17431 0.0
H1721 H 0.02017 0.51322 0.17647 0.0
loop_
_geom_bond_atom_site_label_1
_geom_bond_atom_site_label_2
_geom_bond_distance
_geom_bond_site_symmetry_2
_ccdc_geom_bond_type
H0 O26 0.856 . S
H1 O29 0.854 . S
H2 C37 0.930 1_455 S
H3 C38 0.930 . S
H4 C40 0.930 . S
H5 C41 0.930 . S
H6 C43 0.931 . S
H7 C44 0.930 . S
H8 C46 0.930 . S
H9 C47 0.929 . S
H10 C49 0.930 . S
H11 C50 0.931 . S
H12 C52 0.930 . S
H13 C53 0.929 . S
H14 C55 0.931 . S
H15 C56 0.930 . S
H16 C58 0.930 . S
H17 C59 0.932 . S
H18 C61 0.930 . S
H19 C62 0.929 . S
H20 C64 0.931 . S
H21 C65 0.930 . S
H22 C67 0.929 . S
H23 C68 0.931 . S
H24 C70 0.930 . S
H25 C71 0.925 1_455 S
O26 H0 0.856 . S
O26 C72 1.300 . S
O27 C72 1.209 . S
O28 C73 1.199 . S
O29 H1 0.854 . S
O29 C73 1.297 . S
C30 C31 1.404 . S
C30 C35 1.397 . S
C30 C36 1.492 . S
C31 C30 1.404 . S
C31 C32 1.396 . S
C31 C42 1.492 . S
C32 C31 1.396 . S
C32 C33 1.397 . S
C32 C48 1.509 . S
C33 C32 1.397 . S
C33 C34 1.412 . S
C33 C54 1.485 . S
C34 C33 1.412 . S
C34 C35 1.388 . S
C34 C60 1.490 . S
C35 C30 1.397 . S
C35 C34 1.388 . S
C35 C66 1.519 1_455 S
C36 C30 1.492 . S
C36 C37 1.363 1_455 S
C36 C41 1.390 1_455 S
C37 H2 0.930 1_655 S
C37 C36 1.363 1_655 S
C37 C38 1.372 . S
C38 H3 0.930 . S
C38 C37 1.372 . S
C38 C39 1.383 . S
C39 C38 1.383 . S
C39 C40 1.395 . S
C40 H4 0.930 . S
C40 C39 1.395 . S
C40 C41 1.362 . S
C41 H5 0.930 . S
C41 C36 1.390 1_655 S
C41 C40 1.362 . S
C42 C31 1.492 . S
C42 C43 1.377 . S
C42 C47 1.397 . S
C43 H6 0.931 . S
C43 C42 1.377 . S
C43 C44 1.376 . S
C44 H7 0.930 . S
C44 C43 1.376 . S
C44 C45 1.376 . S
C45 C44 1.376 . S
C45 C46 1.378 . S
C45 C72 1.486 . S
C46 H8 0.930 . S
C46 C45 1.378 . S
C46 C47 1.376 . S
C47 H9 0.929 . S
C47 C42 1.397 . S
C47 C46 1.376 . S
C48 C32 1.509 . S
C48 C49 1.391 . S
C48 C53 1.386 . S
C49 H10 0.930 . S
C49 C48 1.391 . S
C49 C50 1.375 . S
C50 H11 0.931 . S
C50 C49 1.375 . S
C50 C51 1.375 . S
C51 C50 1.375 . S
C51 C52 1.361 . S
C52 H12 0.930 . S
C52 C51 1.361 . S
C52 C53 1.399 . S
C53 H13 0.929 . S
C53 C48 1.386 . S
C53 C52 1.399 . S
C54 C33 1.485 . S
C54 C55 1.394 . S
C54 C59 1.360 . S
C55 H14 0.931 . S
C55 C54 1.394 . S
C55 C56 1.372 . S
C56 H15 0.930 . S
C56 C55 1.372 . S
C56 C57 1.397 . S
C57 C56 1.397 . S
C57 C58 1.390 . S
C57 C73 1.476 . S
C58 H16 0.930 . S
C58 C57 1.390 . S
C58 C59 1.366 . S
C59 H17 0.932 . S
C59 C54 1.360 . S
C59 C58 1.366 . S
C60 C34 1.490 . S
C60 C61 1.380 . S
C60 C65 1.386 . S
C61 H18 0.930 . S
C61 C60 1.380 . S
C61 C62 1.381 . S
C62 H19 0.929 . S
C62 C61 1.381 . S
C62 C63 1.371 . S
C63 C62 1.371 . S
C63 C64 1.380 . S
C64 H20 0.931 . S
C64 C63 1.380 . S
C64 C65 1.387 . S
C65 H21 0.930 . S
C65 C60 1.386 . S
C65 C64 1.387 . S
C66 C35 1.519 1_655 S
C66 C67 1.377 . S
C66 C71 1.361 . S
C67 H22 0.929 . S
C67 C66 1.377 . S
C67 C68 1.386 . S
C68 H23 0.931 . S
C68 C67 1.386 . S
C68 C69 1.363 . S
C69 C68 1.363 . S
C69 C70 1.385 . S
C70 H24 0.930 . S
C70 C69 1.385 . S
C70 C71 1.396 . S
C71 H25 0.925 1_655 S
C71 C66 1.361 . S
C71 C70 1.396 . S
C72 O26 1.300 . S
C72 O27 1.209 . S
C72 C45 1.486 . S
C73 O28 1.199 . S
C73 O29 1.297 . S
C73 C57 1.476 . S
H74 O100 0.856 . S
H75 O103 0.854 . S
H76 C111 0.930 . S
H77 C112 0.930 . S
H78 C114 0.930 . S
H79 C115 0.930 . S
H80 C117 0.931 . S
H81 C118 0.930 . S
H82 C120 0.930 . S
H83 C121 0.929 . S
H84 C123 0.930 . S
H85 C124 0.931 . S
H86 C126 0.930 . S
H87 C127 0.929 . S
H88 C129 0.931 . S
H89 C130 0.930 . S
H90 C132 0.930 . S
H91 C133 0.932 . S
H92 C135 0.930 . S
H93 C136 0.929 . S
H94 C138 0.931 . S
H95 C139 0.930 . S
H96 C141 0.929 1_545 S
H97 C142 0.931 . S
H98 C144 0.930 . S
H99 C145 0.940 . S
O100 H74 0.856 . S
O100 C146 1.300 . S
O101 C146 1.209 . S
O102 C147 1.199 . S
O103 H75 0.854 . S
O103 C147 1.297 . S
C104 C105 1.404 . S
C104 C109 1.397 . S
C104 C110 1.492 . S
C105 C104 1.404 . S
C105 C106 1.396 . S
C105 C116 1.492 . S
C106 C105 1.396 . S
C106 C107 1.397 . S
C106 C122 1.509 . S
C107 C106 1.397 . S
C107 C108 1.412 . S
C107 C128 1.485 . S
C108 C107 1.412 . S
C108 C109 1.388 . S
C108 C134 1.490 . S
C109 C104 1.397 . S
C109 C108 1.388 . S
C109 C140 1.519 . S
C110 C104 1.492 . S
C110 C111 1.363 . S
C110 C115 1.390 1_545 S
C111 H76 0.930 . S
C111 C110 1.363 . S
C111 C112 1.372 1_545 S
C112 H77 0.930 . S
C112 C111 1.372 1_565 S
C112 C113 1.383 . S
C113 C112 1.383 . S
C113 C114 1.395 . S
C114 H78 0.930 . S
C114 C113 1.395 . S
C114 C115 1.362 . S
C115 H79 0.930 . S
C115 C110 1.390 1_565 S
C115 C114 1.362 . S
C116 C105 1.492 . S
C116 C117 1.377 . S
C116 C121 1.397 . S
C117 H80 0.931 . S
C117 C116 1.377 . S
C117 C118 1.376 . S
C118 H81 0.930 . S
C118 C117 1.376 . S
C118 C119 1.376 . S
C119 C118 1.376 . S
C119 C120 1.378 . S
C119 C146 1.486 . S
C120 H82 0.930 . S
C120 C119 1.378 . S
C120 C121 1.376 . S
C121 H83 0.929 . S
C121 C116 1.397 . S
C121 C120 1.376 . S
C122 C106 1.509 . S
C122 C123 1.391 . S
C122 C127 1.386 . S
C123 H84 0.930 . S
C123 C122 1.391 . S
C123 C124 1.375 . S
C124 H85 0.931 . S
C124 C123 1.375 . S
C124 C125 1.375 . S
C125 C124 1.375 . S
C125 C126 1.361 . S
C126 H86 0.930 . S
C126 C125 1.361 . S
C126 C127 1.399 . S
C127 H87 0.929 . S
C127 C122 1.386 . S
C127 C126 1.399 . S
C128 C107 1.485 . S
C128 C129 1.394 . S
C128 C133 1.360 . S
C129 H88 0.931 . S
C129 C128 1.394 . S
C129 C130 1.372 . S
C130 H89 0.930 . S
C130 C129 1.372 . S
C130 C131 1.397 . S
C131 C130 1.397 . S
C131 C132 1.390 . S
C131 C147 1.476 . S
C132 H90 0.930 . S
C132 C131 1.390 . S
C132 C133 1.366 . S
C133 H91 0.932 . S
C133 C128 1.360 . S
C133 C132 1.366 . S
C134 C108 1.490 . S
C134 C135 1.380 . S
C134 C139 1.386 . S
C135 H92 0.930 . S
C135 C134 1.380 . S
C135 C136 1.381 . S
C136 H93 0.929 . S
C136 C135 1.381 . S
C136 C137 1.371 . S
C137 C136 1.371 . S
C137 C138 1.380 . S
C138 H94 0.931 . S
C138 C137 1.380 . S
C138 C139 1.387 . S
C139 H95 0.930 . S
C139 C134 1.386 . S
C139 C138 1.387 . S
C140 C109 1.519 . S
C140 C141 1.377 1_545 S
C140 C145 1.360 . S
C141 H96 0.929 1_565 S
C141 C140 1.377 1_565 S
C141 C142 1.386 . S
C142 H97 0.931 . S
C142 C141 1.386 . S
C142 C143 1.363 . S
C143 C142 1.363 . S
C143 C144 1.385 . S
C144 H98 0.930 . S
C144 C143 1.385 . S
C144 C145 1.386 1_565 S
C145 H99 0.940 . S
C145 C140 1.360 . S
C145 C144 1.386 1_545 S
C146 O100 1.300 . S
C146 O101 1.209 . S
C146 C119 1.486 . S
C147 O102 1.199 . S
C147 O103 1.297 . S
C147 C131 1.476 . S
H148 O174 0.856 . S
H149 O177 0.854 . S
H150 C185 0.930 . S
H151 C186 0.930 . S
H152 C188 0.930 . S
H153 C189 0.930 . S
H154 C191 0.931 . S
H155 C192 0.930 . S
H156 C194 0.930 . S
H157 C195 0.929 . S
H158 C197 0.930 . S
H159 C198 0.931 . S
H160 C200 0.930 . S
H161 C201 0.929 . S
H162 C203 0.931 . S
H163 C204 0.930 . S
H164 C206 0.930 . S
H165 C207 0.932 . S
H166 C209 0.930 . S
H167 C210 0.929 . S
H168 C212 0.931 . S
H169 C213 0.930 . S
H170 C215 0.929 . S
H171 C216 0.931 . S
H172 C218 0.930 . S
H173 C219 0.929 . S
O174 H148 0.856 . S
O174 C220 1.300 . S
O175 C220 1.209 . S
O176 C221 1.199 . S
O177 H149 0.854 . S
O177 C221 1.297 . S
C178 C179 1.404 . S
C178 C183 1.397 . S
C178 C184 1.492 . S
C179 C178 1.404 . S
C179 C180 1.396 . S
C179 C190 1.492 . S
C180 C179 1.396 . S
C180 C181 1.397 . S
C180 C196 1.509 . S
C181 C180 1.397 . S
C181 C182 1.412 . S
C181 C202 1.485 . S
C182 C181 1.412 . S
C182 C183 1.388 . S
C182 C208 1.490 . S
C183 C178 1.397 . S
C183 C182 1.388 . S
C183 C214 1.519 . S
C184 C178 1.492 . S
C184 C185 1.363 . S
C184 C189 1.390 . S
C185 H150 0.930 . S
C185 C184 1.363 . S
C185 C186 1.372 . S
C186 H151 0.930 . S
C186 C185 1.372 . S
C186 C187 1.383 . S
C187 C186 1.383 . S
C187 C188 1.395 . S
C188 H152 0.930 . S
C188 C187 1.395 . S
C188 C189 1.362 . S
C189 H153 0.930 . S
C189 C184 1.390 . S
C189 C188 1.362 . S
C190 C179 1.492 . S
C190 C191 1.377 . S
C190 C195 1.397 . S
C191 H154 0.931 . S
C191 C190 1.377 . S
C191 C192 1.376 . S
C192 H155 0.930 . S
C192 C191 1.376 . S
C192 C193 1.376 . S
C193 C192 1.376 . S
C193 C194 1.378 . S
C193 C220 1.486 . S
C194 H156 0.930 . S
C194 C193 1.378 . S
C194 C195 1.376 . S
C195 H157 0.929 . S
C195 C190 1.397 . S
C195 C194 1.376 . S
C196 C180 1.509 . S
C196 C197 1.391 . S
C196 C201 1.386 . S
C197 H158 0.930 . S
C197 C196 1.391 . S
C197 C198 1.375 . S
C198 H159 0.931 . S
C198 C197 1.375 . S
C198 C199 1.375 . S
C199 C198 1.375 . S
C199 C200 1.361 . S
C200 H160 0.930 . S
C200 C199 1.361 . S
C200 C201 1.399 . S
C201 H161 0.929 . S
C201 C196 1.386 . S
C201 C200 1.399 . S
C202 C181 1.485 . S
C202 C203 1.394 . S
C202 C207 1.360 . S
C203 H162 0.931 . S
C203 C202 1.394 . S
C203 C204 1.372 . S
C204 H163 0.930 . S
C204 C203 1.372 . S
C204 C205 1.397 . S
C205 C204 1.397 . S
C205 C206 1.390 . S
C205 C221 1.476 . S
C206 H164 0.930 . S
C206 C205 1.390 . S
C206 C207 1.366 . S
C207 H165 0.932 . S
C207 C202 1.360 . S
C207 C206 1.366 . S
C208 C182 1.490 . S
C208 C209 1.380 . S
C208 C213 1.386 . S
C209 H166 0.930 . S
C209 C208 1.380 . S
C209 C210 1.381 . S
C210 H167 0.929 . S
C210 C209 1.381 . S
C210 C211 1.371 . S
C211 C210 1.371 . S
C211 C212 1.380 . S
C212 H168 0.931 . S
C212 C211 1.380 . S
C212 C213 1.387 . S
C213 H169 0.930 . S
C213 C208 1.386 . S
C213 C212 1.387 . S
C214 C183 1.519 . S
C214 C215 1.377 . S
C214 C219 1.361 . S
C215 H170 0.929 . S
C215 C214 1.377 . S
C215 C216 1.386 . S
C216 H171 0.931 . S
C216 C215 1.386 . S
C216 C217 1.363 . S
C217 C216 1.363 . S
C217 C218 1.385 . S
C218 H172 0.930 . S
C218 C217 1.385 . S
C218 C219 1.396 . S
C219 H173 0.929 . S
C219 C214 1.361 . S
C219 C218 1.396 . S
C220 O174 1.300 . S
C220 O175 1.209 . S
C220 C193 1.486 . S
C221 O176 1.199 . S
C221 O177 1.297 . S
C221 C205 1.476 . S
H222 O248 0.856 . S
H223 O251 0.854 . S
H224 C259 0.930 1_455 S
H225 C260 0.930 . S
H226 C262 0.930 . S
H227 C263 0.930 . S
H228 C265 0.931 . S
H229 C266 0.930 . S
H230 C268 0.930 . S
H231 C269 0.929 . S
H232 C271 0.930 . S
H233 C272 0.931 . S
H234 C274 0.930 . S
H235 C275 0.929 . S
H236 C277 0.931 . S
H237 C278 0.930 . S
H238 C280 0.930 . S
H239 C281 0.932 . S
H240 C283 0.930 . S
H241 C284 0.929 . S
H242 C286 0.931 . S
H243 C287 0.930 . S
H244 C289 0.929 . S
H245 C290 0.931 . S
H246 C292 0.930 . S
H247 C293 0.929 . S
O248 H222 0.856 . S
O248 C294 1.300 . S
O249 C294 1.209 . S
O250 C295 1.199 . S
O251 H223 0.854 . S
O251 C295 1.297 . S
C252 C253 1.404 . S
C252 C257 1.397 . S
C252 C258 1.492 1_455 S
C253 C252 1.404 . S
C253 C254 1.396 . S
C253 C264 1.492 . S
C254 C253 1.396 . S
C254 C255 1.397 . S
C254 C270 1.509 . S
C255 C254 1.397 . S
C255 C256 1.412 . S
C255 C276 1.485 . S
C256 C255 1.412 . S
C256 C257 1.388 . S
C256 C282 1.490 . S
C257 C252 1.397 . S
C257 C256 1.388 . S
C257 C288 1.519 1_455 S
C258 C252 1.492 1_655 S
C258 C259 1.363 . S
C258 C263 1.390 . S
C259 H224 0.930 1_655 S
C259 C258 1.363 . S
C259 C260 1.372 . S
C260 H225 0.930 . S
C260 C259 1.372 . S
C260 C261 1.383 . S
C261 C260 1.383 . S
C261 C262 1.395 . S
C262 H226 0.930 . S
C262 C261 1.395 . S
C262 C263 1.362 . S
C263 H227 0.930 . S
C263 C258 1.390 . S
C263 C262 1.362 . S
C264 C253 1.492 . S
C264 C265 1.377 . S
C264 C269 1.397 . S
C265 H228 0.931 . S
C265 C264 1.377 . S
C265 C266 1.376 . S
C266 H229 0.930 . S
C266 C265 1.376 . S
C266 C267 1.376 . S
C267 C266 1.376 . S
C267 C268 1.378 . S
C267 C294 1.486 . S
C268 H230 0.930 . S
C268 C267 1.378 . S
C268 C269 1.376 . S
C269 H231 0.929 . S
C269 C264 1.397 . S
C269 C268 1.376 . S
C270 C254 1.509 . S
C270 C271 1.391 . S
C270 C275 1.386 . S
C271 H232 0.930 . S
C271 C270 1.391 . S
C271 C272 1.375 . S
C272 H233 0.931 . S
C272 C271 1.375 . S
C272 C273 1.375 . S
C273 C272 1.375 . S
C273 C274 1.361 . S
C274 H234 0.930 . S
C274 C273 1.361 . S
C274 C275 1.399 . S
C275 H235 0.929 . S
C275 C270 1.386 . S
C275 C274 1.399 . S
C276 C255 1.485 . S
C276 C277 1.394 . S
C276 C281 1.360 . S
C277 H236 0.931 . S
C277 C276 1.394 . S
C277 C278 1.372 . S
C278 H237 0.930 . S
C278 C277 1.372 . S
C278 C279 1.397 . S
C279 C278 1.397 . S
C279 C280 1.390 . S
C279 C295 1.476 . S
C280 H238 0.930 . S
C280 C279 1.390 . S
C280 C281 1.366 . S
C281 H239 0.932 . S
C281 C276 1.360 . S
C281 C280 1.366 . S
C282 C256 1.490 . S
C282 C283 1.380 . S
C282 C287 1.386 . S
C283 H240 0.930 . S
C283 C282 1.380 . S
C283 C284 1.381 . S
C284 H241 0.929 . S
C284 C283 1.381 . S
C284 C285 1.371 . S
C285 C284 1.371 . S
C285 C286 1.380 . S
C286 H242 0.931 . S
C286 C285 1.380 . S
C286 C287 1.387 . S
C287 H243 0.930 . S
C287 C282 1.386 . S
C287 C286 1.387 . S
C288 C257 1.519 1_655 S
C288 C289 1.377 . S
C288 C293 1.361 . S
C289 H244 0.929 . S
C289 C288 1.377 . S
C289 C290 1.386 . S
C290 H245 0.931 . S
C290 C289 1.386 . S
C290 C291 1.363 . S
C291 C290 1.363 . S
C291 C292 1.385 . S
C292 H246 0.930 . S
C292 C291 1.385 . S
C292 C293 1.396 . S
C293 H247 0.929 . S
C293 C288 1.361 . S
C293 C292 1.396 . S
C294 O248 1.300 . S
C294 O249 1.209 . S
C294 C267 1.486 . S
C295 O250 1.199 . S
C295 O251 1.297 . S
C295 C279 1.476 . S
H296 O322 0.856 . S
H297 O325 0.854 . S
H298 C333 0.930 . S
H299 C334 0.930 . S
H300 C336 0.930 . S
H301 C337 0.930 . S
H302 C339 0.931 . S
H303 C340 0.930 . S
H304 C342 0.930 . S
H305 C343 0.929 . S
H306 C345 0.930 . S
H307 C346 0.931 . S
H308 C348 0.930 . S
H309 C349 0.929 . S
H310 C351 0.931 . S
H311 C352 0.930 . S
H312 C354 0.930 . S
H313 C355 0.932 1_556 S
H314 C357 0.930 . S
H315 C358 0.929 . S
H316 C360 0.931 . S
H317 C361 0.930 . S
H318 C363 0.929 . S
H319 C364 0.931 . S
H320 C366 0.930 . S
H321 C367 0.929 . S
O322 H296 0.856 . S
O322 C368 1.300 . S
O323 C368 1.209 . S
O324 C369 1.199 . S
O325 H297 0.854 . S
O325 C369 1.297 . S
C326 C327 1.404 . S
C326 C331 1.397 . S
C326 C332 1.492 1_565 S
C327 C326 1.404 . S
C327 C328 1.396 . S
C327 C338 1.492 . S
C328 C327 1.396 . S
C328 C329 1.397 . S
C328 C344 1.509 . S
C329 C328 1.397 . S
C329 C330 1.412 1_556 S
C329 C350 1.485 1_556 S
C330 C329 1.412 1_554 S
C330 C331 1.388 1_554 S
C330 C356 1.490 . S
C331 C326 1.397 . S
C331 C330 1.388 1_556 S
C331 C362 1.519 1_565 S
C332 C326 1.492 1_545 S
C332 C333 1.363 . S
C332 C337 1.390 . S
C333 H298 0.930 . S
C333 C332 1.363 . S
C333 C334 1.372 . S
C334 H299 0.930 . S
C334 C333 1.372 . S
C334 C335 1.383 . S
C335 C334 1.383 . S
C335 C336 1.395 . S
C336 H300 0.930 . S
C336 C335 1.395 . S
C336 C337 1.362 . S
C337 H301 0.930 . S
C337 C332 1.390 . S
C337 C336 1.362 . S
C338 C327 1.492 . S
C338 C339 1.377 . S
C338 C343 1.397 . S
C339 H302 0.931 . S
C339 C338 1.377 . S
C339 C340 1.376 . S
C340 H303 0.930 . S
C340 C339 1.376 . S
C340 C341 1.376 . S
C341 C340 1.376 . S
C341 C342 1.378 . S
C341 C368 1.486 . S
C342 H304 0.930 . S
C342 C341 1.378 . S
C342 C343 1.376 . S
C343 H305 0.929 . S
C343 C338 1.397 . S
C343 C342 1.376 . S
C344 C328 1.509 . S
C344 C345 1.391 . S
C344 C349 1.386 . S
C345 H306 0.930 . S
C345 C344 1.391 . S
C345 C346 1.375 . S
C346 H307 0.931 . S
C346 C345 1.375 . S
C346 C347 1.375 . S
C347 C346 1.375 . S
C347 C348 1.361 . S
C348 H308 0.930 . S
C348 C347 1.361 . S
C348 C349 1.399 . S
C349 H309 0.929 . S
C349 C344 1.386 . S
C349 C348 1.399 . S
C350 C329 1.485 1_554 S
C350 C351 1.394 . S
C350 C355 1.360 . S
C351 H310 0.931 . S
C351 C350 1.394 . S
C351 C352 1.372 . S
C352 H311 0.930 . S
C352 C351 1.372 . S
C352 C353 1.397 . S
C353 C352 1.397 . S
C353 C354 1.390 . S
C353 C369 1.476 . S
C354 H312 0.930 . S
C354 C353 1.390 . S
C354 C355 1.366 . S
C355 H313 0.932 1_554 S
C355 C350 1.360 . S
C355 C354 1.366 . S
C356 C330 1.490 . S
C356 C357 1.380 . S
C356 C361 1.386 . S
C357 H314 0.930 . S
C357 C356 1.380 . S
C357 C358 1.381 . S
C358 H315 0.929 . S
C358 C357 1.381 . S
C358 C359 1.371 . S
C359 C358 1.371 . S
C359 C360 1.380 . S
C360 H316 0.931 . S
C360 C359 1.380 . S
C360 C361 1.387 . S
C361 H317 0.930 . S
C361 C356 1.386 . S
C361 C360 1.387 . S
C362 C331 1.519 1_545 S
C362 C363 1.377 . S
C362 C367 1.361 1_556 S
C363 H318 0.929 . S
C363 C362 1.377 . S
C363 C364 1.386 1_556 S
C364 H319 0.931 . S
C364 C363 1.386 1_554 S
C364 C365 1.363 . S
C365 C364 1.363 . S
C365 C366 1.385 . S
C366 H320 0.930 . S
C366 C365 1.385 . S
C366 C367 1.396 . S
C367 H321 0.929 . S
C367 C362 1.361 1_554 S
C367 C366 1.396 . S
C368 O322 1.300 . S
C368 O323 1.209 . S
C368 C341 1.486 . S
C369 O324 1.199 . S
C369 O325 1.297 . S
C369 C353 1.476 . S
H370 O396 0.856 . S
H371 O399 0.854 . S
H372 C407 0.930 . S
H373 C408 0.930 . S
H374 C410 0.930 . S
H375 C411 0.930 . S
H376 C413 0.931 . S
H377 C414 0.930 . S
H378 C416 0.930 . S
H379 C417 0.929 . S
H380 C419 0.930 . S
H381 C420 0.931 . S
H382 C422 0.930 . S
H383 C423 0.929 . S
H384 C425 0.931 . S
H385 C426 0.930 . S
H386 C428 0.930 . S
H387 C429 0.932 . S
H388 C431 0.930 . S
H389 C432 0.929 . S
H390 C434 0.931 . S
H391 C435 0.930 . S
H392 C437 0.929 . S
H393 C438 0.931 . S
H394 C440 0.930 . S
H395 C441 0.929 . S
O396 H370 0.856 . S
O396 C442 1.300 . S
O397 C442 1.209 . S
O398 C443 1.199 . S
O399 H371 0.854 . S
O399 C443 1.297 . S
C400 C401 1.404 . S
C400 C405 1.397 . S
C400 C406 1.492 . S
C401 C400 1.404 . S
C401 C402 1.396 . S
C401 C412 1.492 . S
C402 C401 1.396 . S
C402 C403 1.397 . S
C402 C418 1.509 . S
C403 C402 1.397 . S
C403 C404 1.412 . S
C403 C424 1.485 . S
C404 C403 1.412 . S
C404 C405 1.388 . S
C404 C430 1.490 . S
C405 C400 1.397 . S
C405 C404 1.388 . S
C405 C436 1.519 . S
C406 C400 1.492 . S
C406 C407 1.363 . S
C406 C411 1.390 . S
C407 H372 0.930 . S
C407 C406 1.363 . S
C407 C408 1.372 . S
C408 H373 0.930 . S
C408 C407 1.372 . S
C408 C409 1.383 . S
C409 C408 1.383 . S
C409 C410 1.395 . S
C410 H374 0.930 . S
C410 C409 1.395 . S
C410 C411 1.362 . S
C411 H375 0.930 . S
C411 C406 1.390 . S
C411 C410 1.362 . S
C412 C401 1.492 . S
C412 C413 1.377 . S
C412 C417 1.397 . S
C413 H376 0.931 . S
C413 C412 1.377 . S
C413 C414 1.376 . S
C414 H377 0.930 . S
C414 C413 1.376 . S
C414 C415 1.376 . S
C415 C414 1.376 . S
C415 C416 1.378 . S
C415 C442 1.486 . S
C416 H378 0.930 . S
C416 C415 1.378 . S
C416 C417 1.376 . S
C417 H379 0.929 . S
C417 C412 1.397 . S
C417 C416 1.376 . S
C418 C402 1.509 . S
C418 C419 1.391 . S
C418 C423 1.386 . S
C419 H380 0.930 . S
C419 C418 1.391 . S
C419 C420 1.375 . S
C420 H381 0.931 . S
C420 C419 1.375 . S
C420 C421 1.375 . S
C421 C420 1.375 . S
C421 C422 1.361 . S
C422 H382 0.930 . S
C422 C421 1.361 . S
C422 C423 1.399 . S
C423 H383 0.929 . S
C423 C418 1.386 . S
C423 C422 1.399 . S
C424 C403 1.485 . S
C424 C425 1.394 . S
C424 C429 1.360 . S
C425 H384 0.931 . S
C425 C424 1.394 . S
C425 C426 1.372 . S
C426 H385 0.930 . S
C426 C425 1.372 . S
C426 C427 1.397 . S
C427 C426 1.397 . S
C427 C428 1.390 . S
C427 C443 1.476 . S
C428 H386 0.930 . S
C428 C427 1.390 . S
C428 C429 1.366 . S
C429 H387 0.932 . S
C429 C424 1.360 . S
C429 C428 1.366 . S
C430 C404 1.490 . S
C430 C431 1.380 . S
C430 C435 1.386 . S
C431 H388 0.930 . S
C431 C430 1.380 . S
C431 C432 1.381 . S
C432 H389 0.929 . S
C432 C431 1.381 . S
C432 C433 1.371 . S
C433 C432 1.371 . S
C433 C434 1.380 . S
C434 H390 0.931 . S
C434 C433 1.380 . S
C434 C435 1.387 . S
C435 H391 0.930 . S
C435 C430 1.386 . S
C435 C434 1.387 . S
C436 C405 1.519 . S
C436 C437 1.377 . S
C436 C441 1.361 . S
C437 H392 0.929 . S
C437 C436 1.377 . S
C437 C438 1.386 . S
C438 H393 0.931 . S
C438 C437 1.386 . S
C438 C439 1.363 . S
C439 C438 1.363 . S
C439 C440 1.385 . S
C440 H394 0.930 . S
C440 C439 1.385 . S
C440 C441 1.396 . S
C441 H395 0.929 . S
C441 C436 1.361 . S
C441 C440 1.396 . S
C442 O396 1.300 . S
C442 O397 1.209 . S
C442 C415 1.486 . S
C443 O398 1.199 . S
C443 O399 1.297 . S
C443 C427 1.476 . S
C444 O445 1.160 . S
C444 O451 1.185 . S
O445 C444 1.160 . S
O446 Zn447 1.899 . S
O446 C454 1.284 . S
Zn447 O446 1.899 . S
Zn447 O448 2.032 . S
Zn447 O451 2.086 . S
Zn447 O456 1.977 . S
O448 Zn447 2.032 . S
O448 C452 1.278 . S
C449 O450 1.203 . S
C449 O456 1.267 . S
O450 C449 1.203 . S
O451 C444 1.185 . S
O451 Zn447 2.086 . S
C452 O448 1.278 . S
C452 O453 1.211 . S
O453 C452 1.211 . S
C454 O446 1.284 . S
C454 O455 1.273 . S
O455 C454 1.273 . S
O456 Zn447 1.977 . S
O456 C449 1.267 . S
C457 O458 1.160 . S
C457 O464 1.185 . S
O458 C457 1.160 . S
O459 Zn460 1.899 . S
O459 C467 1.284 . S
Zn460 O459 1.899 . S
Zn460 O461 2.032 . S
Zn460 O464 2.086 . S
Zn460 O469 1.977 . S
O461 Zn460 2.032 . S
O461 C465 1.278 . S
C462 O463 1.203 . S
C462 O469 1.267 . S
O463 C462 1.203 . S
O464 C457 1.185 . S
O464 Zn460 2.086 . S
C465 O461 1.278 . S
C465 O466 1.211 . S
O466 C465 1.211 . S
C467 O459 1.284 . S
C467 O468 1.273 . S
O468 C467 1.273 . S
O469 Zn460 1.977 . S
O469 C462 1.267 . S
C470 O471 1.160 . S
C470 O477 1.185 . S
O471 C470 1.160 . S
O472 Zn473 1.899 . S
O472 C480 1.284 . S
Zn473 O472 1.899 . S
Zn473 O474 2.032 . S
Zn473 O477 2.086 . S
Zn473 O482 1.977 . S
O474 Zn473 2.032 . S
O474 C478 1.278 . S
C475 O476 1.203 . S
C475 O482 1.267 . S
O476 C475 1.203 . S
O477 C470 1.185 . S
O477 Zn473 2.086 . S
C478 O474 1.278 . S
C478 O479 1.211 . S
O479 C478 1.211 . S
C480 O472 1.284 . S
C480 O481 1.273 . S
O481 C480 1.273 . S
O482 Zn473 1.977 . S
O482 C475 1.267 . S
C483 O484 1.160 . S
C483 O490 1.185 . S
O484 C483 1.160 . S
O485 Zn486 1.899 . S
O485 C493 1.284 . S
Zn486 O485 1.899 . S
Zn486 O487 2.032 . S
Zn486 O490 2.086 . S
Zn486 O495 1.977 . S
O487 Zn486 2.032 . S
O487 C491 1.278 . S
C488 O489 1.203 . S
C488 O495 1.267 . S
O489 C488 1.203 . S
O490 C483 1.185 . S
O490 Zn486 2.086 . S
C491 O487 1.278 . S
C491 O492 1.211 . S
O492 C491 1.211 . S
C493 O485 1.284 . S
C493 O494 1.273 . S
O494 C493 1.273 . S
O495 Zn486 1.977 . S
O495 C488 1.267 . S
C496 O497 1.160 . S
C496 O503 1.185 . S
O497 C496 1.160 . S
O498 Zn499 1.899 . S
O498 C506 1.284 . S
Zn499 O498 1.899 . S
Zn499 O500 2.032 . S
Zn499 O503 2.086 . S
Zn499 O508 1.977 . S
O500 Zn499 2.032 . S
O500 C504 1.278 . S
C501 O502 1.203 . S
C501 O508 1.267 . S
O502 C501 1.203 . S
O503 C496 1.185 . S
O503 Zn499 2.086 . S
C504 O500 1.278 . S
C504 O505 1.211 . S
O505 C504 1.211 . S
C506 O498 1.284 . S
C506 O507 1.273 . S
O507 C506 1.273 . S
O508 Zn499 1.977 . S
O508 C501 1.267 . S
C509 O510 1.160 . S
C509 O516 1.185 . S
O510 C509 1.160 . S
O511 Zn512 1.899 . S
O511 C519 1.284 . S
Zn512 O511 1.899 . S
Zn512 O513 2.032 . S
Zn512 O516 2.086 . S
Zn512 O521 1.977 . S
O513 Zn512 2.032 . S
O513 C517 1.278 . S
C514 O515 1.203 . S
C514 O521 1.267 . S
O515 C514 1.203 . S
O516 C509 1.185 . S
O516 Zn512 2.086 . S
C517 O513 1.278 . S
C517 O518 1.211 . S
O518 C517 1.211 . S
C519 O511 1.284 . S
C519 O520 1.273 . S
O520 C519 1.273 . S
O521 Zn512 1.977 . S
O521 C514 1.267 . S
H522 C540 0.951 . S
H523 C542 0.951 . S
H524 C544 0.950 . S
H525 C545 0.950 . S
H526 C547 0.950 . S
H527 C550 0.950 . S
H528 C551 0.950 . S
H529 C553 0.950 . S
H530 C554 0.950 . S
H531 C555 0.951 . S
H532 C557 0.951 . S
H533 C559 0.950 . S
H534 C560 0.950 . S
H535 C562 0.950 . S
H536 C565 0.950 . S
H537 C566 0.950 . S
H538 C568 0.950 . S
H539 C569 0.950 . S
C540 H522 0.951 . S
C540 C541 1.366 . S
C540 C542 1.388 . S
C541 C540 1.366 . S
C541 C545 1.385 . S
C542 H523 0.951 . S
C542 C540 1.388 . S
C542 C543 1.366 . S
C543 C542 1.366 . S
C543 C544 1.414 . S
C543 C546 1.499 . S
C544 H524 0.950 . S
C544 C543 1.414 . S
C544 C545 1.374 . S
C545 H525 0.950 . S
C545 C541 1.385 . S
C545 C544 1.374 . S
C546 C543 1.499 . S
C546 C547 1.373 . S
C546 C548 1.389 . S
C547 H526 0.950 . S
C547 C546 1.373 . S
C547 C563 1.377 . S
C548 C546 1.389 . S
C548 C549 1.524 . S
C548 C562 1.377 . S
C549 C548 1.524 . S
C549 C550 1.397 . S
C549 C554 1.363 . S
C550 H527 0.950 . S
C550 C549 1.397 . S
C550 C551 1.334 . S
C551 H528 0.950 . S
C551 C550 1.334 . S
C551 C552 1.287 . S
C552 C551 1.287 . S
C552 C553 1.524 . S
C552 H571 0.913 . S
C553 H529 0.950 . S
C553 C552 1.524 . S
C553 C554 1.415 . S
C554 H530 0.950 . S
C554 C549 1.363 . S
C554 C553 1.415 . S
C555 H531 0.951 . S
C555 C556 1.366 . S
C555 C557 1.388 . S
C556 C555 1.366 . S
C556 C560 1.385 . S
C557 H532 0.951 . S
C557 C555 1.388 . S
C557 C558 1.366 . S
C558 C557 1.366 . S
C558 C559 1.414 . S
C558 C561 1.499 . S
C559 H533 0.950 . S
C559 C558 1.414 . S
C559 C560 1.374 . S
C560 H534 0.950 . S
C560 C556 1.385 . S
C560 C559 1.374 . S
C561 C558 1.499 . S
C561 C562 1.373 . S
C561 C563 1.389 . S
C562 H535 0.950 . S
C562 C548 1.377 . S
C562 C561 1.373 . S
C563 C547 1.377 . S
C563 C561 1.389 . S
C563 C564 1.524 . S
C564 C563 1.524 . S
C564 C565 1.397 . S
C564 C569 1.363 . S
C565 H536 0.950 . S
C565 C564 1.397 . S
C565 C566 1.334 . S
C566 H537 0.950 . S
C566 C565 1.334 . S
C566 C567 1.287 . S
C567 C566 1.287 . S
C567 C568 1.524 . S
C567 H570 0.999 . S
C568 H538 0.950 . S
C568 C567 1.524 . S
C568 C569 1.415 . S
C569 H539 0.950 . S
C569 C564 1.363 . S
C569 C568 1.415 . S
H570 C567 0.999 . S
H571 C552 0.913 . S
H572 C590 0.951 . S
H573 C592 0.951 . S
H574 C594 0.950 . S
H575 C595 0.950 . S
H576 C597 0.950 . S
H577 C600 0.950 . S
H578 C601 0.950 . S
H579 C603 0.950 . S
H580 C604 0.950 . S
H581 C605 0.951 . S
H582 C607 0.951 . S
H583 C609 0.950 . S
H584 C610 0.950 . S
H585 C612 0.950 . S
H586 C615 0.950 . S
H587 C616 0.950 . S
H588 C618 0.950 . S
H589 C619 0.950 . S
C590 H572 0.951 . S
C590 C591 1.366 . S
C590 C592 1.388 . S
C591 C590 1.366 . S
C591 C595 1.385 . S
C592 H573 0.951 . S
C592 C590 1.388 . S
C592 C593 1.366 . S
C593 C592 1.366 . S
C593 C594 1.414 . S
C593 C596 1.499 . S
C594 H574 0.950 . S
C594 C593 1.414 . S
C594 C595 1.374 . S
C595 H575 0.950 . S
C595 C591 1.385 . S
C595 C594 1.374 . S
C596 C593 1.499 . S
C596 C597 1.373 . S
C596 C598 1.389 . S
C597 H576 0.950 . S
C597 C596 1.373 . S
C597 C613 1.377 . S
C598 C596 1.389 . S
C598 C599 1.524 . S
C598 C612 1.377 . S
C599 C598 1.524 . S
C599 C600 1.397 . S
C599 C604 1.363 . S
C600 H577 0.950 . S
C600 C599 1.397 . S
C600 C601 1.334 . S
C601 H578 0.950 . S
C601 C600 1.334 . S
C601 C602 1.287 . S
C602 C601 1.287 . S
C602 C603 1.524 . S
C602 H621 0.913 . S
C603 H579 0.950 . S
C603 C602 1.524 . S
C603 C604 1.415 . S
C604 H580 0.950 . S
C604 C599 1.363 . S
C604 C603 1.415 . S
C605 H581 0.951 . S
C605 C606 1.366 . S
C605 C607 1.388 . S
C606 C605 1.366 . S
C606 C610 1.385 . S
C607 H582 0.951 . S
C607 C605 1.388 . S
C607 C608 1.366 . S
C608 C607 1.366 . S
C608 C609 1.414 . S
C608 C611 1.499 . S
C609 H583 0.950 . S
C609 C608 1.414 . S
C609 C610 1.374 . S
C610 H584 0.950 . S
C610 C606 1.385 . S
C610 C609 1.374 . S
C611 C608 1.499 . S
C611 C612 1.373 . S
C611 C613 1.389 . S
C612 H585 0.950 . S
C612 C598 1.377 . S
C612 C611 1.373 . S
C613 C597 1.377 . S
C613 C611 1.389 . S
C613 C614 1.524 . S
C614 C613 1.524 . S
C614 C615 1.397 . S
C614 C619 1.363 . S
C615 H586 0.950 . S
C615 C614 1.397 . S
C615 C616 1.334 . S
C616 H587 0.950 . S
C616 C615 1.334 . S
C616 C617 1.287 . S
C617 C616 1.287 . S
C617 C618 1.524 . S
C617 H620 0.999 . S
C618 H588 0.950 . S
C618 C617 1.524 . S
C618 C619 1.415 . S
C619 H589 0.950 . S
C619 C614 1.363 . S
C619 C618 1.415 . S
H620 C617 0.999 . S
H621 C602 0.913 . S
H622 C640 0.951 . S
H623 C642 0.951 . S
H624 C644 0.950 . S
H625 C645 0.950 . S
H626 C647 0.950 . S
H627 C650 0.950 . S
H628 C651 0.950 . S
H629 C653 0.950 . S
H630 C654 0.950 . S
H631 C655 0.951 . S
H632 C657 0.951 . S
H633 C659 0.950 . S
H634 C660 0.950 . S
H635 C662 0.950 . S
H636 C665 0.950 . S
H637 C666 0.950 . S
H638 C668 0.950 . S
H639 C669 0.950 . S
C640 H622 0.951 . S
C640 C641 1.366 . S
C640 C642 1.388 . S
C641 C640 1.366 . S
C641 C645 1.385 . S
C642 H623 0.951 . S
C642 C640 1.388 . S
C642 C643 1.366 . S
C643 C642 1.366 . S
C643 C644 1.414 . S
C643 C646 1.499 . S
C644 H624 0.950 . S
C644 C643 1.414 . S
C644 C645 1.374 . S
C645 H625 0.950 . S
C645 C641 1.385 . S
C645 C644 1.374 . S
C646 C643 1.499 . S
C646 C647 1.373 . S
C646 C648 1.389 . S
C647 H626 0.950 . S
C647 C646 1.373 . S
C647 C663 1.377 . S
C648 C646 1.389 . S
C648 C649 1.524 . S
C648 C662 1.377 . S
C649 C648 1.524 . S
C649 C650 1.397 . S
C649 C654 1.363 . S
C650 H627 0.950 . S
C650 C649 1.397 . S
C650 C651 1.334 . S
C651 H628 0.950 . S
C651 C650 1.334 . S
C651 C652 1.287 . S
C652 C651 1.287 . S
C652 C653 1.524 . S
C652 H671 0.913 . S
C653 H629 0.950 . S
C653 C652 1.524 . S
C653 C654 1.415 . S
C654 H630 0.950 . S
C654 C649 1.363 . S
C654 C653 1.415 . S
C655 H631 0.951 . S
C655 C656 1.366 . S
C655 C657 1.388 . S
C656 C655 1.366 . S
C656 C660 1.385 . S
C657 H632 0.951 . S
C657 C655 1.388 . S
C657 C658 1.366 . S
C658 C657 1.366 . S
C658 C659 1.414 . S
C658 C661 1.499 . S
C659 H633 0.950 . S
C659 C658 1.414 . S
C659 C660 1.374 . S
C660 H634 0.950 . S
C660 C656 1.385 . S
C660 C659 1.374 . S
C661 C658 1.499 . S
C661 C662 1.373 . S
C661 C663 1.389 . S
C662 H635 0.950 . S
C662 C648 1.377 . S
C662 C661 1.373 . S
C663 C647 1.377 . S
C663 C661 1.389 . S
C663 C664 1.524 . S
C664 C663 1.524 . S
C664 C665 1.397 . S
C664 C669 1.363 . S
C665 H636 0.950 . S
C665 C664 1.397 . S
C665 C666 1.334 . S
C666 H637 0.950 . S
C666 C665 1.334 . S
C666 C667 1.287 . S
C667 C666 1.287 . S
C667 C668 1.524 . S
C667 H670 0.999 . S
C668 H638 0.950 . S
C668 C667 1.524 . S
C668 C669 1.415 . S
C669 H639 0.950 . S
C669 C664 1.363 . S
C669 C668 1.415 . S
H670 C667 0.999 . S
H671 C652 0.913 . S
H672 C690 0.951 . S
H673 C692 0.951 . S
H674 C694 0.950 . S
H675 C695 0.950 . S
H676 C697 0.950 . S
H677 C700 0.950 . S
H678 C701 0.950 . S
H679 C703 0.950 . S
H680 C704 0.950 . S
H681 C705 0.951 . S
H682 C707 0.951 . S
H683 C709 0.950 . S
H684 C710 0.950 . S
H685 C712 0.950 . S
H686 C715 0.950 . S
H687 C716 0.950 . S
H688 C718 0.950 . S
H689 C719 0.950 . S
C690 H672 0.951 . S
C690 C691 1.366 . S
C690 C692 1.388 . S
C691 C690 1.366 . S
C691 C695 1.385 . S
C692 H673 0.951 . S
C692 C690 1.388 . S
C692 C693 1.366 . S
C693 C692 1.366 . S
C693 C694 1.414 . S
C693 C696 1.499 . S
C694 H674 0.950 . S
C694 C693 1.414 . S
C694 C695 1.374 . S
C695 H675 0.950 . S
C695 C691 1.385 . S
C695 C694 1.374 . S
C696 C693 1.499 . S
C696 C697 1.373 . S
C696 C698 1.389 . S
C697 H676 0.950 . S
C697 C696 1.373 . S
C697 C713 1.377 . S
C698 C696 1.389 . S
C698 C699 1.524 . S
C698 C712 1.377 . S
C699 C698 1.524 . S
C699 C700 1.397 . S
C699 C704 1.363 . S
C700 H677 0.950 . S
C700 C699 1.397 . S
C700 C701 1.334 . S
C701 H678 0.950 . S
C701 C700 1.334 . S
C701 C702 1.287 . S
C702 C701 1.287 . S
C702 C703 1.524 . S
C702 H721 0.913 . S
C703 H679 0.950 . S
C703 C702 1.524 . S
C703 C704 1.415 . S
C704 H680 0.950 . S
C704 C699 1.363 . S
C704 C703 1.415 . S
C705 H681 0.951 . S
C705 C706 1.366 . S
C705 C707 1.388 . S
C706 C705 1.366 . S
C706 C710 1.385 . S
C707 H682 0.951 . S
C707 C705 1.388 . S
C707 C708 1.366 . S
C708 C707 1.366 . S
C708 C709 1.414 . S
C708 C711 1.499 . S
C709 H683 0.950 . S
C709 C708 1.414 . S
C709 C710 1.374 . S
C710 H684 0.950 . S
C710 C706 1.385 . S
C710 C709 1.374 . S
C711 C708 1.499 . S
C711 C712 1.373 . S
C711 C713 1.389 . S
C712 H685 0.950 . S
C712 C698 1.377 . S
C712 C711 1.373 . S
C713 C697 1.377 . S
C713 C711 1.389 . S
C713 C714 1.524 . S
C714 C713 1.524 . S
C714 C715 1.397 . S
C714 C719 1.363 . S
C715 H686 0.950 . S
C715 C714 1.397 . S
C715 C716 1.334 . S
C716 H687 0.950 . S
C716 C715 1.334 . S
C716 C717 1.287 . S
C717 C716 1.287 . S
C717 C718 1.524 . S
C717 H720 0.999 . S
C718 H688 0.950 . S
C718 C717 1.524 . S
C718 C719 1.415 . S
C719 H689 0.950 . S
C719 C714 1.363 . S
C719 C718 1.415 . S
H720 C717 0.999 . S
H721 C702 0.913 . S
H722 C740 0.951 . S
H723 C742 0.951 . S
H724 C744 0.950 . S
H725 C745 0.950 . S
H726 C747 0.950 . S
H727 C750 0.950 . S
H728 C751 0.950 . S
H729 C753 0.950 . S
H730 C754 0.950 . S
H731 C755 0.951 . S
H732 C757 0.951 . S
H733 C759 0.950 . S
H734 C760 0.950 . S
H735 C762 0.950 . S
H736 C765 0.950 . S
H737 C766 0.950 . S
H738 C768 0.950 . S
H739 C769 0.950 . S
C740 H722 0.951 . S
C740 C741 1.366 . S
C740 C742 1.388 . S
C741 C740 1.366 . S
C741 C745 1.385 . S
C742 H723 0.951 . S
C742 C740 1.388 . S
C742 C743 1.366 . S
C743 C742 1.366 . S
C743 C744 1.414 . S
C743 C746 1.499 . S
C744 H724 0.950 . S
C744 C743 1.414 . S
C744 C745 1.374 . S
C745 H725 0.950 . S
C745 C741 1.385 . S
C745 C744 1.374 . S
C746 C743 1.499 . S
C746 C747 1.373 . S
C746 C748 1.389 . S
C747 H726 0.950 . S
C747 C746 1.373 . S
C747 C763 1.377 . S
C748 C746 1.389 . S
C748 C749 1.524 . S
C748 C762 1.377 . S
C749 C748 1.524 . S
C749 C750 1.397 . S
C749 C754 1.363 . S
C750 H727 0.950 . S
C750 C749 1.397 . S
C750 C751 1.334 . S
C751 H728 0.950 . S
C751 C750 1.334 . S
C751 C752 1.287 . S
C752 C751 1.287 . S
C752 C753 1.524 . S
C752 H771 0.913 . S
C753 H729 0.950 . S
C753 C752 1.524 . S
C753 C754 1.415 . S
C754 H730 0.950 . S
C754 C749 1.363 . S
C754 C753 1.415 . S
C755 H731 0.951 . S
C755 C756 1.366 . S
C755 C757 1.388 . S
C756 C755 1.366 . S
C756 C760 1.385 . S
C757 H732 0.951 . S
C757 C755 1.388 . S
C757 C758 1.366 . S
C758 C757 1.366 . S
C758 C759 1.414 . S
C758 C761 1.499 . S
C759 H733 0.950 . S
C759 C758 1.414 . S
C759 C760 1.374 . S
C760 H734 0.950 . S
C760 C756 1.385 . S
C760 C759 1.374 . S
C761 C758 1.499 . S
C761 C762 1.373 . S
C761 C763 1.389 . S
C762 H735 0.950 . S
C762 C748 1.377 . S
C762 C761 1.373 . S
C763 C747 1.377 . S
C763 C761 1.389 . S
C763 C764 1.524 . S
C764 C763 1.524 . S
C764 C765 1.397 . S
C764 C769 1.363 . S
C765 H736 0.950 . S
C765 C764 1.397 . S
C765 C766 1.334 . S
C766 H737 0.950 . S
C766 C765 1.334 . S
C766 C767 1.287 . S
C767 C766 1.287 . S
C767 C768 1.524 . S
C767 H770 0.999 . S
C768 H738 0.950 . S
C768 C767 1.524 . S
C768 C769 1.415 . S
C769 H739 0.950 . S
C769 C764 1.363 . S
C769 C768 1.415 . S
H770 C767 0.999 . S
H771 C752 0.913 . S
H772 C790 0.951 . S
H773 C792 0.951 . S
H774 C794 0.950 . S
H775 C795 0.950 . S
H776 C797 0.950 . S
H777 C800 0.950 . S
H778 C801 0.950 . S
H779 C803 0.950 . S
H780 C804 0.950 . S
H781 C805 0.951 . S
H782 C807 0.951 . S
H783 C809 0.950 . S
H784 C810 0.950 . S
H785 C812 0.950 . S
H786 C815 0.950 . S
H787 C816 0.950 . S
H788 C818 0.950 . S
H789 C819 0.950 . S
C790 H772 0.951 . S
C790 C791 1.366 . S
C790 C792 1.388 . S
C791 C790 1.366 . S
C791 C795 1.385 . S
C792 H773 0.951 . S
C792 C790 1.388 . S
C792 C793 1.366 . S
C793 C792 1.366 . S
C793 C794 1.414 . S
C793 C796 1.499 . S
C794 H774 0.950 . S
C794 C793 1.414 . S
C794 C795 1.374 . S
C795 H775 0.950 . S
C795 C791 1.385 . S
C795 C794 1.374 . S
C796 C793 1.499 . S
C796 C797 1.373 . S
C796 C798 1.389 . S
C797 H776 0.950 . S
C797 C796 1.373 . S
C797 C813 1.377 . S
C798 C796 1.389 . S
C798 C799 1.524 . S
C798 C812 1.377 . S
C799 C798 1.524 . S
C799 C800 1.397 . S
C799 C804 1.363 . S
C800 H777 0.950 . S
C800 C799 1.397 . S
C800 C801 1.334 . S
C801 H778 0.950 . S
C801 C800 1.334 . S
C801 C802 1.287 . S
C802 C801 1.287 . S
C802 C803 1.524 . S
C802 H821 0.913 . S
C803 H779 0.950 . S
C803 C802 1.524 . S
C803 C804 1.415 . S
C804 H780 0.950 . S
C804 C799 1.363 . S
C804 C803 1.415 . S
C805 H781 0.951 . S
C805 C806 1.366 . S
C805 C807 1.388 . S
C806 C805 1.366 . S
C806 C810 1.385 . S
C807 H782 0.951 . S
C807 C805 1.388 . S
C807 C808 1.366 . S
C808 C807 1.366 . S
C808 C809 1.414 . S
C808 C811 1.499 . S
C809 H783 0.950 . S
C809 C808 1.414 . S
C809 C810 1.374 . S
C810 H784 0.950 . S
C810 C806 1.385 . S
C810 C809 1.374 . S
C811 C808 1.499 . S
C811 C812 1.373 . S
C811 C813 1.389 . S
C812 H785 0.950 . S
C812 C798 1.377 . S
C812 C811 1.373 . S
C813 C797 1.377 . S
C813 C811 1.389 . S
C813 C814 1.524 . S
C814 C813 1.524 . S
C814 C815 1.397 . S
C814 C819 1.363 . S
C815 H786 0.950 . S
C815 C814 1.397 . S
C815 C816 1.334 . S
C816 H787 0.950 . S
C816 C815 1.334 . S
C816 C817 1.287 . S
C817 C816 1.287 . S
C817 C818 1.524 . S
C817 H820 0.999 . S
C818 H788 0.950 . S
C818 C817 1.524 . S
C818 C819 1.415 . S
C819 H789 0.950 . S
C819 C814 1.363 . S
C819 C818 1.415 . S
H820 C817 0.999 . S
H821 C802 0.913 . S
H822 C840 0.951 . S
H823 C842 0.951 . S
H824 C844 0.950 . S
H825 C845 0.950 . S
H826 C847 0.950 . S
H827 C850 0.950 . S
H828 C851 0.950 . S
H829 C853 0.950 . S
H830 C854 0.950 . S
H831 C855 0.951 . S
H832 C857 0.951 . S
H833 C859 0.950 . S
H834 C860 0.950 . S
H835 C862 0.950 . S
H836 C865 0.950 . S
H837 C866 0.950 . S
H838 C868 0.950 . S
H839 C869 0.950 . S
C840 H822 0.951 . S
C840 C841 1.366 . S
C840 C842 1.388 . S
C841 C840 1.366 . S
C841 C845 1.385 . S
C842 H823 0.951 . S
C842 C840 1.388 . S
C842 C843 1.366 . S
C843 C842 1.366 . S
C843 C844 1.414 . S
C843 C846 1.499 . S
C844 H824 0.950 . S
C844 C843 1.414 . S
C844 C845 1.374 . S
C845 H825 0.950 . S
C845 C841 1.385 . S
C845 C844 1.374 . S
C846 C843 1.499 . S
C846 C847 1.373 . S
C846 C848 1.389 . S
C847 H826 0.950 . S
C847 C846 1.373 . S
C847 C863 1.377 . S
C848 C846 1.389 . S
C848 C849 1.524 . S
C848 C862 1.377 . S
C849 C848 1.524 . S
C849 C850 1.397 . S
C849 C854 1.363 . S
C850 H827 0.950 . S
C850 C849 1.397 . S
C850 C851 1.334 . S
C851 H828 0.950 . S
C851 C850 1.334 . S
C851 C852 1.287 . S
C852 C851 1.287 . S
C852 C853 1.524 . S
C852 H871 0.913 . S
C853 H829 0.950 . S
C853 C852 1.524 . S
C853 C854 1.415 . S
C854 H830 0.950 . S
C854 C849 1.363 . S
C854 C853 1.415 . S
C855 H831 0.951 . S
C855 C856 1.366 . S
C855 C857 1.388 . S
C856 C855 1.366 . S
C856 C860 1.385 . S
C857 H832 0.951 . S
C857 C855 1.388 . S
C857 C858 1.366 . S
C858 C857 1.366 . S
C858 C859 1.414 . S
C858 C861 1.499 . S
C859 H833 0.950 . S
C859 C858 1.414 . S
C859 C860 1.374 . S
C860 H834 0.950 . S
C860 C856 1.385 . S
C860 C859 1.374 . S
C861 C858 1.499 . S
C861 C862 1.373 . S
C861 C863 1.389 . S
C862 H835 0.950 . S
C862 C848 1.377 . S
C862 C861 1.373 . S
C863 C847 1.377 . S
C863 C861 1.389 . S
C863 C864 1.524 . S
C864 C863 1.524 . S
C864 C865 1.397 . S
C864 C869 1.363 . S
C865 H836 0.950 . S
C865 C864 1.397 . S
C865 C866 1.334 . S
C866 H837 0.950 . S
C866 C865 1.334 . S
C866 C867 1.287 . S
C867 C866 1.287 . S
C867 C868 1.524 . S
C867 H870 0.999 . S
C868 H838 0.950 . S
C868 C867 1.524 . S
C868 C869 1.415 . S
C869 H839 0.950 . S
C869 C864 1.363 . S
C869 C868 1.415 . S
H870 C867 0.999 . S
H871 C852 0.913 . S
H872 C890 0.951 . S
H873 C892 0.951 . S
H874 C894 0.950 . S
H875 C895 0.950 . S
H876 C897 0.950 . S
H877 C900 0.950 . S
H878 C901 0.950 . S
H879 C903 0.950 . S
H880 C904 0.950 . S
H881 C905 0.951 . S
H882 C907 0.951 . S
H883 C909 0.950 . S
H884 C910 0.950 . S
H885 C912 0.950 . S
H886 C915 0.950 . S
H887 C916 0.950 . S
H888 C918 0.950 . S
H889 C919 0.950 . S
C890 H872 0.951 . S
C890 C891 1.366 . S
C890 C892 1.388 . S
C891 C890 1.366 . S
C891 C895 1.385 . S
C892 H873 0.951 . S
C892 C890 1.388 . S
C892 C893 1.366 . S
C893 C892 1.366 . S
C893 C894 1.414 . S
C893 C896 1.499 . S
C894 H874 0.950 . S
C894 C893 1.414 . S
C894 C895 1.374 . S
C895 H875 0.950 . S
C895 C891 1.385 . S
C895 C894 1.374 . S
C896 C893 1.499 . S
C896 C897 1.373 . S
C896 C898 1.389 . S
C897 H876 0.950 . S
C897 C896 1.373 . S
C897 C913 1.377 . S
C898 C896 1.389 . S
C898 C899 1.524 . S
C898 C912 1.377 . S
C899 C898 1.524 . S
C899 C900 1.397 . S
C899 C904 1.363 . S
C900 H877 0.950 . S
C900 C899 1.397 . S
C900 C901 1.334 . S
C901 H878 0.950 . S
C901 C900 1.334 . S
C901 C902 1.287 . S
C902 C901 1.287 . S
C902 C903 1.524 . S
C902 H921 0.913 . S
C903 H879 0.950 . S
C903 C902 1.524 . S
C903 C904 1.415 . S
C904 H880 0.950 . S
C904 C899 1.363 . S
C904 C903 1.415 . S
C905 H881 0.951 . S
C905 C906 1.366 . S
C905 C907 1.388 . S
C906 C905 1.366 . S
C906 C910 1.385 . S
C907 H882 0.951 . S
C907 C905 1.388 . S
C907 C908 1.366 . S
C908 C907 1.366 . S
C908 C909 1.414 . S
C908 C911 1.499 . S
C909 H883 0.950 . S
C909 C908 1.414 . S
C909 C910 1.374 . S
C910 H884 0.950 . S
C910 C906 1.385 . S
C910 C909 1.374 . S
C911 C908 1.499 . S
C911 C912 1.373 . S
C911 C913 1.389 . S
C912 H885 0.950 . S
C912 C898 1.377 . S
C912 C911 1.373 . S
C913 C897 1.377 . S
C913 C911 1.389 . S
C913 C914 1.524 . S
C914 C913 1.524 . S
C914 C915 1.397 . S
C914 C919 1.363 . S
C915 H886 0.950 . S
C915 C914 1.397 . S
C915 C916 1.334 . S
C916 H887 0.950 . S
C916 C915 1.334 . S
C916 C917 1.287 . S
C917 C916 1.287 . S
C917 C918 1.524 . S
C917 H920 0.999 . S
C918 H888 0.950 . S
C918 C917 1.524 . S
C918 C919 1.415 . S
C919 H889 0.950 . S
C919 C914 1.363 . S
C919 C918 1.415 . S
H920 C917 0.999 . S
H921 C902 0.913 . S
H922 C940 0.951 . S
H923 C942 0.951 . S
H924 C944 0.950 . S
H925 C945 0.950 . S
H926 C947 0.950 . S
H927 C950 0.950 . S
H928 C951 0.950 . S
H929 C953 0.950 . S
H930 C954 0.950 . S
H931 C955 0.951 . S
H932 C957 0.951 . S
H933 C959 0.950 . S
H934 C960 0.950 . S
H935 C962 0.950 . S
H936 C965 0.950 . S
H937 C966 0.950 . S
H938 C968 0.950 . S
H939 C969 0.950 . S
C940 H922 0.951 . S
C940 C941 1.366 . S
C940 C942 1.388 . S
C941 C940 1.366 . S
C941 C945 1.385 . S
C942 H923 0.951 . S
C942 C940 1.388 . S
C942 C943 1.366 . S
C943 C942 1.366 . S
C943 C944 1.414 . S
C943 C946 1.499 . S
C944 H924 0.950 . S
C944 C943 1.414 . S
C944 C945 1.374 . S
C945 H925 0.950 . S
C945 C941 1.385 . S
C945 C944 1.374 . S
C946 C943 1.499 . S
C946 C947 1.373 . S
C946 C948 1.389 . S
C947 H926 0.950 . S
C947 C946 1.373 . S
C947 C963 1.377 . S
C948 C946 1.389 . S
C948 C949 1.524 . S
C948 C962 1.377 . S
C949 C948 1.524 . S
C949 C950 1.397 . S
C949 C954 1.363 . S
C950 H927 0.950 . S
C950 C949 1.397 . S
C950 C951 1.334 . S
C951 H928 0.950 . S
C951 C950 1.334 . S
C951 C952 1.287 . S
C952 C951 1.287 . S
C952 C953 1.524 . S
C952 H971 0.913 . S
C953 H929 0.950 . S
C953 C952 1.524 . S
C953 C954 1.415 . S
C954 H930 0.950 . S
C954 C949 1.363 . S
C954 C953 1.415 . S
C955 H931 0.951 . S
C955 C956 1.366 . S
C955 C957 1.388 . S
C956 C955 1.366 . S
C956 C960 1.385 . S
C957 H932 0.951 . S
C957 C955 1.388 . S
C957 C958 1.366 . S
C958 C957 1.366 . S
C958 C959 1.414 . S
C958 C961 1.499 . S
C959 H933 0.950 . S
C959 C958 1.414 . S
C959 C960 1.374 . S
C960 H934 0.950 . S
C960 C956 1.385 . S
C960 C959 1.374 . S
C961 C958 1.499 . S
C961 C962 1.373 . S
C961 C963 1.389 . S
C962 H935 0.950 . S
C962 C948 1.377 . S
C962 C961 1.373 . S
C963 C947 1.377 . S
C963 C961 1.389 . S
C963 C964 1.524 . S
C964 C963 1.524 . S
C964 C965 1.397 . S
C964 C969 1.363 . S
C965 H936 0.950 . S
C965 C964 1.397 . S
C965 C966 1.334 . S
C966 H937 0.950 . S
C966 C965 1.334 . S
C966 C967 1.287 . S
C967 C966 1.287 . S
C967 C968 1.524 . S
C967 H970 0.999 . S
C968 H938 0.950 . S
C968 C967 1.524 . S
C968 C969 1.415 . S
C969 H939 0.950 . S
C969 C964 1.363 . S
C969 C968 1.415 . S
H970 C967 0.999 . S
H971 C952 0.913 . S
H972 C990 0.951 . S
H973 C992 0.951 . S
H974 C994 0.950 . S
H975 C995 0.950 . S
H976 C997 0.950 . S
H977 C1000 0.950 1_556 S
H978 C1001 0.950 . S
H979 C1003 0.950 . S
H980 C1004 0.950 . S
H981 C1005 0.951 . S
H982 C1007 0.951 . S
H983 C1009 0.950 . S
H984 C1010 0.950 . S
H985 C1012 0.950 . S
H986 C1015 0.950 . S
H987 C1016 0.950 . S
H988 C1018 0.950 . S
H989 C1019 0.950 . S
C990 H972 0.951 . S
C990 C991 1.366 . S
C990 C992 1.388 . S
C991 C990 1.366 . S
C991 C995 1.385 . S
C992 H973 0.951 . S
C992 C990 1.388 . S
C992 C993 1.366 . S
C993 C992 1.366 . S
C993 C994 1.414 . S
C993 C996 1.499 . S
C994 H974 0.950 . S
C994 C993 1.414 . S
C994 C995 1.374 . S
C995 H975 0.950 . S
C995 C991 1.385 . S
C995 C994 1.374 . S
C996 C993 1.499 . S
C996 C997 1.373 . S
C996 C998 1.389 . S
C997 H976 0.950 . S
C997 C996 1.373 . S
C997 C1013 1.377 . S
C998 C996 1.389 . S
C998 C999 1.524 . S
C998 C1012 1.377 . S
C999 C998 1.524 . S
C999 C1000 1.397 . S
C999 C1004 1.363 . S
C1000 H977 0.950 1_554 S
C1000 C999 1.397 . S
C1000 C1001 1.334 1_554 S
C1001 H978 0.950 . S
C1001 C1000 1.334 1_556 S
C1001 C1002 1.287 . S
C1002 C1001 1.287 . S
C1002 C1003 1.524 1_556 S
C1002 H1021 0.913 . S
C1003 H979 0.950 . S
C1003 C1002 1.524 1_554 S
C1003 C1004 1.415 . S
C1004 H980 0.950 . S
C1004 C999 1.363 . S
C1004 C1003 1.415 . S
C1005 H981 0.951 . S
C1005 C1006 1.366 . S
C1005 C1007 1.388 . S
C1006 C1005 1.366 . S
C1006 C1010 1.385 . S
C1007 H982 0.951 . S
C1007 C1005 1.388 . S
C1007 C1008 1.366 . S
C1008 C1007 1.366 . S
C1008 C1009 1.414 . S
C1008 C1011 1.499 . S
C1009 H983 0.950 . S
C1009 C1008 1.414 . S
C1009 C1010 1.374 . S
C1010 H984 0.950 . S
C1010 C1006 1.385 . S
C1010 C1009 1.374 . S
C1011 C1008 1.499 . S
C1011 C1012 1.373 . S
C1011 C1013 1.389 . S
C1012 H985 0.950 . S
C1012 C998 1.377 . S
C1012 C1011 1.373 . S
C1013 C997 1.377 . S
C1013 C1011 1.389 . S
C1013 C1014 1.524 . S
C1014 C1013 1.524 . S
C1014 C1015 1.397 . S
C1014 C1019 1.363 . S
C1015 H986 0.950 . S
C1015 C1014 1.397 . S
C1015 C1016 1.334 . S
C1016 H987 0.950 . S
C1016 C1015 1.334 . S
C1016 C1017 1.287 . S
C1017 C1016 1.287 . S
C1017 C1018 1.524 . S
C1017 H1020 0.999 . S
C1018 H988 0.950 . S
C1018 C1017 1.524 . S
C1018 C1019 1.415 . S
C1019 H989 0.950 . S
C1019 C1014 1.363 . S
C1019 C1018 1.415 . S
H1020 C1017 0.999 . S
H1021 C1002 0.913 . S
H1022 C1040 0.951 . S
H1023 C1042 0.951 . S
H1024 C1044 0.950 . S
H1025 C1045 0.950 . S
H1026 C1047 0.950 . S
H1027 C1050 0.950 . S
H1028 C1051 0.950 . S
H1029 C1053 0.950 . S
H1030 C1054 0.950 . S
H1031 C1055 0.951 . S
H1032 C1057 0.951 . S
H1033 C1059 0.950 . S
H1034 C1060 0.950 . S
H1035 C1062 0.950 . S
H1036 C1065 0.950 . S
H1037 C1066 0.950 . S
H1038 C1068 0.950 . S
H1039 C1069 0.950 . S
C1040 H1022 0.951 . S
C1040 C1041 1.366 . S
C1040 C1042 1.388 . S
C1041 C1040 1.366 . S
C1041 C1045 1.385 . S
C1042 H1023 0.951 . S
C1042 C1040 1.388 . S
C1042 C1043 1.366 . S
C1043 C1042 1.366 . S
C1043 C1044 1.414 . S
C1043 C1046 1.499 . S
C1044 H1024 0.950 . S
C1044 C1043 1.414 . S
C1044 C1045 1.374 . S
C1045 H1025 0.950 . S
C1045 C1041 1.385 . S
C1045 C1044 1.374 . S
C1046 C1043 1.499 . S
C1046 C1047 1.373 . S
C1046 C1048 1.389 . S
C1047 H1026 0.950 . S
C1047 C1046 1.373 . S
C1047 C1063 1.377 . S
C1048 C1046 1.389 . S
C1048 C1049 1.524 . S
C1048 C1062 1.377 . S
C1049 C1048 1.524 . S
C1049 C1050 1.397 . S
C1049 C1054 1.363 . S
C1050 H1027 0.950 . S
C1050 C1049 1.397 . S
C1050 C1051 1.334 . S
C1051 H1028 0.950 . S
C1051 C1050 1.334 . S
C1051 C1052 1.287 . S
C1052 C1051 1.287 . S
C1052 C1053 1.524 . S
C1052 H1071 0.913 . S
C1053 H1029 0.950 . S
C1053 C1052 1.524 . S
C1053 C1054 1.415 . S
C1054 H1030 0.950 . S
C1054 C1049 1.363 . S
C1054 C1053 1.415 . S
C1055 H1031 0.951 . S
C1055 C1056 1.366 . S
C1055 C1057 1.388 . S
C1056 C1055 1.366 . S
C1056 C1060 1.385 . S
C1057 H1032 0.951 . S
C1057 C1055 1.388 . S
C1057 C1058 1.366 . S
C1058 C1057 1.366 . S
C1058 C1059 1.414 . S
C1058 C1061 1.499 . S
C1059 H1033 0.950 . S
C1059 C1058 1.414 . S
C1059 C1060 1.374 . S
C1060 H1034 0.950 . S
C1060 C1056 1.385 . S
C1060 C1059 1.374 . S
C1061 C1058 1.499 . S
C1061 C1062 1.373 . S
C1061 C1063 1.389 . S
C1062 H1035 0.950 . S
C1062 C1048 1.377 . S
C1062 C1061 1.373 . S
C1063 C1047 1.377 . S
C1063 C1061 1.389 . S
C1063 C1064 1.524 . S
C1064 C1063 1.524 . S
C1064 C1065 1.397 . S
C1064 C1069 1.363 . S
C1065 H1036 0.950 . S
C1065 C1064 1.397 . S
C1065 C1066 1.334 . S
C1066 H1037 0.950 . S
C1066 C1065 1.334 . S
C1066 C1067 1.287 . S
C1067 C1066 1.287 . S
C1067 C1068 1.524 . S
C1067 H1070 0.999 . S
C1068 H1038 0.950 . S
C1068 C1067 1.524 . S
C1068 C1069 1.415 . S
C1069 H1039 0.950 . S
C1069 C1064 1.363 . S
C1069 C1068 1.415 . S
H1070 C1067 0.999 . S
H1071 C1052 0.913 . S
H1072 C1090 0.951 . S
H1073 C1092 0.951 . S
H1074 C1094 0.950 . S
H1075 C1095 0.950 . S
H1076 C1097 0.950 . S
H1077 C1100 0.950 . S
H1078 C1101 0.950 . S
H1079 C1103 0.950 . S
H1080 C1104 0.950 . S
H1081 C1105 0.951 . S
H1082 C1107 0.951 . S
H1083 C1109 0.950 . S
H1084 C1110 0.950 . S
H1085 C1112 0.950 . S
H1086 C1115 0.950 . S
H1087 C1116 0.950 . S
H1088 C1118 0.950 . S
H1089 C1119 0.950 . S
C1090 H1072 0.951 . S
C1090 C1091 1.366 . S
C1090 C1092 1.388 . S
C1091 C1090 1.366 . S
C1091 C1095 1.385 . S
C1092 H1073 0.951 . S
C1092 C1090 1.388 . S
C1092 C1093 1.366 . S
C1093 C1092 1.366 . S
C1093 C1094 1.414 . S
C1093 C1096 1.499 . S
C1094 H1074 0.950 . S
C1094 C1093 1.414 . S
C1094 C1095 1.374 . S
C1095 H1075 0.950 . S
C1095 C1091 1.385 . S
C1095 C1094 1.374 . S
C1096 C1093 1.499 . S
C1096 C1097 1.373 . S
C1096 C1098 1.389 . S
C1097 H1076 0.950 . S
C1097 C1096 1.373 . S
C1097 C1113 1.377 . S
C1098 C1096 1.389 . S
C1098 C1099 1.524 . S
C1098 C1112 1.377 . S
C1099 C1098 1.524 . S
C1099 C1100 1.397 . S
C1099 C1104 1.363 . S
C1100 H1077 0.950 . S
C1100 C1099 1.397 . S
C1100 C1101 1.334 . S
C1101 H1078 0.950 . S
C1101 C1100 1.334 . S
C1101 C1102 1.287 . S
C1102 C1101 1.287 . S
C1102 C1103 1.524 . S
C1102 H1121 0.913 . S
C1103 H1079 0.950 . S
C1103 C1102 1.524 . S
C1103 C1104 1.415 . S
C1104 H1080 0.950 . S
C1104 C1099 1.363 . S
C1104 C1103 1.415 . S
C1105 H1081 0.951 . S
C1105 C1106 1.366 . S
C1105 C1107 1.388 . S
C1106 C1105 1.366 . S
C1106 C1110 1.385 . S
C1107 H1082 0.951 . S
C1107 C1105 1.388 . S
C1107 C1108 1.366 . S
C1108 C1107 1.366 . S
C1108 C1109 1.414 . S
C1108 C1111 1.499 . S
C1109 H1083 0.950 . S
C1109 C1108 1.414 . S
C1109 C1110 1.374 . S
C1110 H1084 0.950 . S
C1110 C1106 1.385 . S
C1110 C1109 1.374 . S
C1111 C1108 1.499 . S
C1111 C1112 1.373 . S
C1111 C1113 1.389 . S
C1112 H1085 0.950 . S
C1112 C1098 1.377 . S
C1112 C1111 1.373 . S
C1113 C1097 1.377 . S
C1113 C1111 1.389 . S
C1113 C1114 1.524 . S
C1114 C1113 1.524 . S
C1114 C1115 1.397 . S
C1114 C1119 1.363 . S
C1115 H1086 0.950 . S
C1115 C1114 1.397 . S
C1115 C1116 1.334 . S
C1116 H1087 0.950 . S
C1116 C1115 1.334 . S
C1116 C1117 1.287 . S
C1117 C1116 1.287 . S
C1117 C1118 1.524 . S
C1117 H1120 0.999 . S
C1118 H1088 0.950 . S
C1118 C1117 1.524 . S
C1118 C1119 1.415 . S
C1119 H1089 0.950 . S
C1119 C1114 1.363 . S
C1119 C1118 1.415 . S
H1120 C1117 0.999 . S
H1121 C1102 0.913 . S
H1122 C1140 0.951 . S
H1123 C1142 0.951 . S
H1124 C1144 0.950 . S
H1125 C1145 0.950 . S
H1126 C1147 0.950 . S
H1127 C1150 0.950 . S
H1128 C1151 0.950 . S
H1129 C1153 0.950 . S
H1130 C1154 0.950 . S
H1131 C1155 0.951 . S
H1132 C1157 0.951 . S
H1133 C1159 0.950 . S
H1134 C1160 0.950 . S
H1135 C1162 0.950 . S
H1136 C1165 0.950 . S
H1137 C1166 0.950 . S
H1138 C1168 0.950 . S
H1139 C1169 0.950 . S
C1140 H1122 0.951 . S
C1140 C1141 1.366 . S
C1140 C1142 1.388 . S
C1141 C1140 1.366 . S
C1141 C1145 1.385 . S
C1142 H1123 0.951 . S
C1142 C1140 1.388 . S
C1142 C1143 1.366 . S
C1143 C1142 1.366 . S
C1143 C1144 1.414 . S
C1143 C1146 1.499 . S
C1144 H1124 0.950 . S
C1144 C1143 1.414 . S
C1144 C1145 1.374 . S
C1145 H1125 0.950 . S
C1145 C1141 1.385 . S
C1145 C1144 1.374 . S
C1146 C1143 1.499 . S
C1146 C1147 1.373 . S
C1146 C1148 1.389 . S
C1147 H1126 0.950 . S
C1147 C1146 1.373 . S
C1147 C1163 1.377 . S
C1148 C1146 1.389 . S
C1148 C1149 1.524 . S
C1148 C1162 1.377 . S
C1149 C1148 1.524 . S
C1149 C1150 1.397 . S
C1149 C1154 1.363 . S
C1150 H1127 0.950 . S
C1150 C1149 1.397 . S
C1150 C1151 1.334 . S
C1151 H1128 0.950 . S
C1151 C1150 1.334 . S
C1151 C1152 1.287 . S
C1152 C1151 1.287 . S
C1152 C1153 1.524 . S
C1152 H1171 0.913 . S
C1153 H1129 0.950 . S
C1153 C1152 1.524 . S
C1153 C1154 1.415 . S
C1154 H1130 0.950 . S
C1154 C1149 1.363 . S
C1154 C1153 1.415 . S
C1155 H1131 0.951 . S
C1155 C1156 1.366 . S
C1155 C1157 1.388 . S
C1156 C1155 1.366 . S
C1156 C1160 1.385 . S
C1157 H1132 0.951 . S
C1157 C1155 1.388 . S
C1157 C1158 1.366 . S
C1158 C1157 1.366 . S
C1158 C1159 1.414 . S
C1158 C1161 1.499 . S
C1159 H1133 0.950 . S
C1159 C1158 1.414 . S
C1159 C1160 1.374 . S
C1160 H1134 0.950 . S
C1160 C1156 1.385 . S
C1160 C1159 1.374 . S
C1161 C1158 1.499 . S
C1161 C1162 1.373 . S
C1161 C1163 1.389 . S
C1162 H1135 0.950 . S
C1162 C1148 1.377 . S
C1162 C1161 1.373 . S
C1163 C1147 1.377 . S
C1163 C1161 1.389 . S
C1163 C1164 1.524 . S
C1164 C1163 1.524 . S
C1164 C1165 1.397 . S
C1164 C1169 1.363 . S
C1165 H1136 0.950 . S
C1165 C1164 1.397 . S
C1165 C1166 1.334 . S
C1166 H1137 0.950 . S
C1166 C1165 1.334 . S
C1166 C1167 1.287 . S
C1167 C1166 1.287 . S
C1167 C1168 1.524 . S
C1167 H1170 0.999 . S
C1168 H1138 0.950 . S
C1168 C1167 1.524 . S
C1168 C1169 1.415 . S
C1169 H1139 0.950 . S
C1169 C1164 1.363 . S
C1169 C1168 1.415 . S
H1170 C1167 0.999 . S
H1171 C1152 0.913 . S
H1172 C1190 0.951 . S
H1173 C1192 0.951 . S
H1174 C1194 0.950 . S
H1175 C1195 0.950 . S
H1176 C1197 0.950 . S
H1177 C1200 0.950 . S
H1178 C1201 0.950 . S
H1179 C1203 0.950 . S
H1180 C1204 0.950 . S
H1181 C1205 0.951 . S
H1182 C1207 0.951 . S
H1183 C1209 0.950 . S
H1184 C1210 0.950 . S
H1185 C1212 0.950 . S
H1186 C1215 0.950 . S
H1187 C1216 0.950 . S
H1188 C1218 0.950 . S
H1189 C1219 0.950 . S
C1190 H1172 0.951 . S
C1190 C1191 1.366 . S
C1190 C1192 1.388 . S
C1191 C1190 1.366 . S
C1191 C1195 1.385 . S
C1192 H1173 0.951 . S
C1192 C1190 1.388 . S
C1192 C1193 1.366 . S
C1193 C1192 1.366 . S
C1193 C1194 1.414 . S
C1193 C1196 1.499 . S
C1194 H1174 0.950 . S
C1194 C1193 1.414 . S
C1194 C1195 1.374 . S
C1195 H1175 0.950 . S
C1195 C1191 1.385 . S
C1195 C1194 1.374 . S
C1196 C1193 1.499 . S
C1196 C1197 1.373 . S
C1196 C1198 1.389 . S
C1197 H1176 0.950 . S
C1197 C1196 1.373 . S
C1197 C1213 1.377 . S
C1198 C1196 1.389 . S
C1198 C1199 1.524 . S
C1198 C1212 1.377 . S
C1199 C1198 1.524 . S
C1199 C1200 1.397 . S
C1199 C1204 1.363 . S
C1200 H1177 0.950 . S
C1200 C1199 1.397 . S
C1200 C1201 1.334 . S
C1201 H1178 0.950 . S
C1201 C1200 1.334 . S
C1201 C1202 1.287 . S
C1202 C1201 1.287 . S
C1202 C1203 1.524 . S
C1202 H1221 0.913 . S
C1203 H1179 0.950 . S
C1203 C1202 1.524 . S
C1203 C1204 1.415 . S
C1204 H1180 0.950 . S
C1204 C1199 1.363 . S
C1204 C1203 1.415 . S
C1205 H1181 0.951 . S
C1205 C1206 1.366 . S
C1205 C1207 1.388 . S
C1206 C1205 1.366 . S
C1206 C1210 1.385 . S
C1207 H1182 0.951 . S
C1207 C1205 1.388 . S
C1207 C1208 1.366 . S
C1208 C1207 1.366 . S
C1208 C1209 1.414 . S
C1208 C1211 1.499 . S
C1209 H1183 0.950 . S
C1209 C1208 1.414 . S
C1209 C1210 1.374 . S
C1210 H1184 0.950 . S
C1210 C1206 1.385 . S
C1210 C1209 1.374 . S
C1211 C1208 1.499 . S
C1211 C1212 1.373 . S
C1211 C1213 1.389 . S
C1212 H1185 0.950 . S
C1212 C1198 1.377 . S
C1212 C1211 1.373 . S
C1213 C1197 1.377 . S
C1213 C1211 1.389 . S
C1213 C1214 1.524 . S
C1214 C1213 1.524 . S
C1214 C1215 1.397 . S
C1214 C1219 1.363 . S
C1215 H1186 0.950 . S
C1215 C1214 1.397 . S
C1215 C1216 1.334 . S
C1216 H1187 0.950 . S
C1216 C1215 1.334 . S
C1216 C1217 1.287 . S
C1217 C1216 1.287 . S
C1217 C1218 1.524 . S
C1217 H1220 0.999 . S
C1218 H1188 0.950 . S
C1218 C1217 1.524 . S
C1218 C1219 1.415 . S
C1219 H1189 0.950 . S
C1219 C1214 1.363 . S
C1219 C1218 1.415 . S
H1220 C1217 0.999 . S
H1221 C1202 0.913 . S
H1222 C1240 0.951 . S
H1223 C1242 0.951 . S
H1224 C1244 0.950 . S
H1225 C1245 0.950 . S
H1226 C1247 0.950 . S
H1227 C1250 0.950 . S
H1228 C1251 0.950 . S
H1229 C1253 0.950 . S
H1230 C1254 0.950 . S
H1231 C1255 0.951 . S
H1232 C1257 0.951 . S
H1233 C1259 0.950 . S
H1234 C1260 0.950 . S
H1235 C1262 0.950 . S
H1236 C1265 0.950 . S
H1237 C1266 0.950 . S
H1238 C1268 0.950 . S
H1239 C1269 0.950 . S
C1240 H1222 0.951 . S
C1240 C1241 1.366 . S
C1240 C1242 1.388 . S
C1241 C1240 1.366 . S
C1241 C1245 1.385 . S
C1242 H1223 0.951 . S
C1242 C1240 1.388 . S
C1242 C1243 1.366 . S
C1243 C1242 1.366 . S
C1243 C1244 1.414 . S
C1243 C1246 1.499 . S
C1244 H1224 0.950 . S
C1244 C1243 1.414 . S
C1244 C1245 1.374 . S
C1245 H1225 0.950 . S
C1245 C1241 1.385 . S
C1245 C1244 1.374 . S
C1246 C1243 1.499 . S
C1246 C1247 1.373 . S
C1246 C1248 1.389 . S
C1247 H1226 0.950 . S
C1247 C1246 1.373 . S
C1247 C1263 1.377 . S
C1248 C1246 1.389 . S
C1248 C1249 1.524 . S
C1248 C1262 1.377 . S
C1249 C1248 1.524 . S
C1249 C1250 1.397 . S
C1249 C1254 1.363 . S
C1250 H1227 0.950 . S
C1250 C1249 1.397 . S
C1250 C1251 1.334 . S
C1251 H1228 0.950 . S
C1251 C1250 1.334 . S
C1251 C1252 1.287 . S
C1252 C1251 1.287 . S
C1252 C1253 1.524 . S
C1252 H1271 0.913 . S
C1253 H1229 0.950 . S
C1253 C1252 1.524 . S
C1253 C1254 1.415 . S
C1254 H1230 0.950 . S
C1254 C1249 1.363 . S
C1254 C1253 1.415 . S
C1255 H1231 0.951 . S
C1255 C1256 1.366 . S
C1255 C1257 1.388 . S
C1256 C1255 1.366 . S
C1256 C1260 1.385 . S
C1257 H1232 0.951 . S
C1257 C1255 1.388 . S
C1257 C1258 1.366 . S
C1258 C1257 1.366 . S
C1258 C1259 1.414 . S
C1258 C1261 1.499 . S
C1259 H1233 0.950 . S
C1259 C1258 1.414 . S
C1259 C1260 1.374 . S
C1260 H1234 0.950 . S
C1260 C1256 1.385 . S
C1260 C1259 1.374 . S
C1261 C1258 1.499 . S
C1261 C1262 1.373 . S
C1261 C1263 1.389 . S
C1262 H1235 0.950 . S
C1262 C1248 1.377 . S
C1262 C1261 1.373 . S
C1263 C1247 1.377 . S
C1263 C1261 1.389 . S
C1263 C1264 1.524 . S
C1264 C1263 1.524 . S
C1264 C1265 1.397 . S
C1264 C1269 1.363 . S
C1265 H1236 0.950 . S
C1265 C1264 1.397 . S
C1265 C1266 1.334 . S
C1266 H1237 0.950 . S
C1266 C1265 1.334 . S
C1266 C1267 1.287 . S
C1267 C1266 1.287 . S
C1267 C1268 1.524 . S
C1267 H1270 0.999 . S
C1268 H1238 0.950 . S
C1268 C1267 1.524 . S
C1268 C1269 1.415 . S
C1269 H1239 0.950 . S
C1269 C1264 1.363 . S
C1269 C1268 1.415 . S
H1270 C1267 0.999 . S
H1271 C1252 0.913 . S
H1272 C1290 0.951 . S
H1273 C1292 0.951 . S
H1274 C1294 0.950 . S
H1275 C1295 0.950 . S
H1276 C1297 0.950 . S
H1277 C1300 0.950 . S
H1278 C1301 0.950 . S
H1279 C1303 0.950 . S
H1280 C1304 0.950 . S
H1281 C1305 0.951 . S
H1282 C1307 0.964 . S
H1283 C1309 0.950 . S
H1284 C1310 0.950 . S
H1285 C1312 0.950 . S
H1286 C1315 0.950 . S
H1287 C1316 0.950 . S
H1288 C1318 0.951 . S
H1289 C1319 0.950 . S
C1290 H1272 0.951 . S
C1290 C1291 1.366 . S
C1290 C1292 1.388 . S
C1291 C1290 1.366 . S
C1291 C1295 1.385 . S
C1292 H1273 0.951 . S
C1292 C1290 1.388 . S
C1292 C1293 1.366 . S
C1293 C1292 1.366 . S
C1293 C1294 1.414 . S
C1293 C1296 1.499 . S
C1294 H1274 0.950 . S
C1294 C1293 1.414 . S
C1294 C1295 1.374 . S
C1295 H1275 0.950 . S
C1295 C1291 1.385 . S
C1295 C1294 1.374 . S
C1296 C1293 1.499 . S
C1296 C1297 1.373 . S
C1296 C1298 1.389 . S
C1297 H1276 0.950 . S
C1297 C1296 1.373 . S
C1297 C1313 1.377 . S
C1298 C1296 1.389 . S
C1298 C1299 1.524 . S
C1298 C1312 1.377 . S
C1299 C1298 1.524 . S
C1299 C1300 1.397 . S
C1299 C1304 1.363 . S
C1300 H1277 0.950 . S
C1300 C1299 1.397 . S
C1300 C1301 1.334 . S
C1301 H1278 0.950 . S
C1301 C1300 1.334 . S
C1301 C1302 1.287 . S
C1302 C1301 1.287 . S
C1302 C1303 1.524 . S
C1302 H1321 0.913 . S
C1303 H1279 0.950 . S
C1303 C1302 1.524 . S
C1303 C1304 1.415 . S
C1304 H1280 0.950 . S
C1304 C1299 1.363 . S
C1304 C1303 1.415 . S
C1305 H1281 0.951 . S
C1305 C1306 1.366 . S
C1305 C1307 1.333 1_554 S
C1306 C1305 1.366 . S
C1306 C1310 1.385 . S
C1307 H1282 0.964 . S
C1307 C1305 1.333 1_556 S
C1307 C1308 1.411 . S
C1308 C1307 1.411 . S
C1308 C1309 1.414 . S
C1308 C1311 1.499 . S
C1309 H1283 0.950 . S
C1309 C1308 1.414 . S
C1309 C1310 1.374 1_556 S
C1310 H1284 0.950 . S
C1310 C1306 1.385 . S
C1310 C1309 1.374 1_554 S
C1311 C1308 1.499 . S
C1311 C1312 1.373 . S
C1311 C1313 1.389 . S
C1312 H1285 0.950 . S
C1312 C1298 1.377 . S
C1312 C1311 1.373 . S
C1313 C1297 1.377 . S
C1313 C1311 1.389 . S
C1313 C1314 1.524 . S
C1314 C1313 1.524 . S
C1314 C1315 1.397 . S
C1314 C1319 1.363 . S
C1315 H1286 0.950 . S
C1315 C1314 1.397 . S
C1315 C1316 1.334 1_556 S
C1316 H1287 0.950 . S
C1316 C1315 1.334 1_554 S
C1316 C1317 1.287 . S
C1317 C1316 1.287 . S
C1317 C1318 1.528 . S
C1317 H1320 0.999 . S
C1318 H1288 0.951 . S
C1318 C1317 1.528 . S
C1318 C1319 1.409 1_554 S
C1319 H1289 0.950 . S
C1319 C1314 1.363 . S
C1319 C1318 1.409 1_556 S
H1320 C1317 0.999 . S
H1321 C1302 0.913 . S
H1322 C1340 0.951 . S
H1323 C1342 0.951 . S
H1324 C1344 0.950 . S
H1325 C1345 0.950 . S
H1326 C1347 0.950 . S
H1327 C1350 0.950 . S
H1328 C1351 0.950 . S
H1329 C1353 0.950 . S
H1330 C1354 0.950 . S
H1331 C1355 0.951 . S
H1332 C1357 0.951 . S
H1333 C1359 0.950 . S
H1334 C1360 0.950 . S
H1335 C1362 0.950 . S
H1336 C1365 0.950 . S
H1337 C1366 0.950 . S
H1338 C1368 0.950 . S
H1339 C1369 0.950 . S
C1340 H1322 0.951 . S
C1340 C1341 1.366 . S
C1340 C1342 1.388 . S
C1341 C1340 1.366 . S
C1341 C1345 1.385 . S
C1342 H1323 0.951 . S
C1342 C1340 1.388 . S
C1342 C1343 1.366 . S
C1343 C1342 1.366 . S
C1343 C1344 1.414 . S
C1343 C1346 1.499 . S
C1344 H1324 0.950 . S
C1344 C1343 1.414 . S
C1344 C1345 1.374 . S
C1345 H1325 0.950 . S
C1345 C1341 1.385 . S
C1345 C1344 1.374 . S
C1346 C1343 1.499 . S
C1346 C1347 1.373 . S
C1346 C1348 1.389 . S
C1347 H1326 0.950 . S
C1347 C1346 1.373 . S
C1347 C1363 1.377 . S
C1348 C1346 1.389 . S
C1348 C1349 1.524 . S
C1348 C1362 1.377 . S
C1349 C1348 1.524 . S
C1349 C1350 1.397 . S
C1349 C1354 1.363 . S
C1350 H1327 0.950 . S
C1350 C1349 1.397 . S
C1350 C1351 1.334 1_565 S
C1351 H1328 0.950 . S
C1351 C1350 1.334 1_545 S
C1351 C1352 1.287 . S
C1352 C1351 1.287 . S
C1352 C1353 1.524 . S
C1352 H1371 0.913 . S
C1353 H1329 0.950 . S
C1353 C1352 1.524 . S
C1353 C1354 1.415 1_545 S
C1354 H1330 0.950 . S
C1354 C1349 1.363 . S
C1354 C1353 1.415 1_565 S
C1355 H1331 0.951 . S
C1355 C1356 1.366 . S
C1355 C1357 1.388 . S
C1356 C1355 1.366 . S
C1356 C1360 1.385 . S
C1357 H1332 0.951 . S
C1357 C1355 1.388 . S
C1357 C1358 1.366 . S
C1358 C1357 1.366 . S
C1358 C1359 1.414 . S
C1358 C1361 1.499 . S
C1359 H1333 0.950 . S
C1359 C1358 1.414 . S
C1359 C1360 1.374 . S
C1360 H1334 0.950 . S
C1360 C1356 1.385 . S
C1360 C1359 1.374 . S
C1361 C1358 1.499 . S
C1361 C1362 1.373 . S
C1361 C1363 1.389 . S
C1362 H1335 0.950 . S
C1362 C1348 1.377 . S
C1362 C1361 1.373 . S
C1363 C1347 1.377 . S
C1363 C1361 1.389 . S
C1363 C1364 1.524 . S
C1364 C1363 1.524 . S
C1364 C1365 1.397 . S
C1364 C1369 1.363 . S
C1365 H1336 0.950 . S
C1365 C1364 1.397 . S
C1365 C1366 1.334 . S
C1366 H1337 0.950 . S
C1366 C1365 1.334 . S
C1366 C1367 1.287 . S
C1367 C1366 1.287 . S
C1367 C1368 1.524 . S
C1367 H1370 0.999 . S
C1368 H1338 0.950 . S
C1368 C1367 1.524 . S
C1368 C1369 1.415 . S
C1369 H1339 0.950 . S
C1369 C1364 1.363 . S
C1369 C1368 1.415 . S
H1370 C1367 0.999 . S
H1371 C1352 0.913 . S
H1372 C1390 0.951 . S
H1373 C1392 0.951 . S
H1374 C1394 0.950 . S
H1375 C1395 0.950 . S
H1376 C1397 0.950 . S
H1377 C1400 0.950 . S
H1378 C1401 0.950 . S
H1379 C1403 0.950 . S
H1380 C1404 0.950 . S
H1381 C1405 0.951 . S
H1382 C1407 0.951 . S
H1383 C1409 0.950 . S
H1384 C1410 0.950 . S
H1385 C1412 0.950 . S
H1386 C1415 0.950 . S
H1387 C1416 0.950 . S
H1388 C1418 0.950 . S
H1389 C1419 0.950 . S
C1390 H1372 0.951 . S
C1390 C1391 1.366 . S
C1390 C1392 1.388 . S
C1391 C1390 1.366 . S
C1391 C1395 1.385 . S
C1392 H1373 0.951 . S
C1392 C1390 1.388 . S
C1392 C1393 1.366 . S
C1393 C1392 1.366 . S
C1393 C1394 1.414 . S
C1393 C1396 1.499 . S
C1394 H1374 0.950 . S
C1394 C1393 1.414 . S
C1394 C1395 1.374 . S
C1395 H1375 0.950 . S
C1395 C1391 1.385 . S
C1395 C1394 1.374 . S
C1396 C1393 1.499 . S
C1396 C1397 1.373 . S
C1396 C1398 1.389 . S
C1397 H1376 0.950 . S
C1397 C1396 1.373 . S
C1397 C1413 1.377 . S
C1398 C1396 1.389 . S
C1398 C1399 1.524 . S
C1398 C1412 1.377 . S
C1399 C1398 1.524 . S
C1399 C1400 1.397 . S
C1399 C1404 1.363 . S
C1400 H1377 0.950 . S
C1400 C1399 1.397 . S
C1400 C1401 1.334 . S
C1401 H1378 0.950 . S
C1401 C1400 1.334 . S
C1401 C1402 1.287 . S
C1402 C1401 1.287 . S
C1402 C1403 1.524 . S
C1402 H1421 0.913 . S
C1403 H1379 0.950 . S
C1403 C1402 1.524 . S
C1403 C1404 1.415 . S
C1404 H1380 0.950 . S
C1404 C1399 1.363 . S
C1404 C1403 1.415 . S
C1405 H1381 0.951 . S
C1405 C1406 1.366 . S
C1405 C1407 1.388 . S
C1406 C1405 1.366 . S
C1406 C1410 1.385 . S
C1407 H1382 0.951 . S
C1407 C1405 1.388 . S
C1407 C1408 1.366 . S
C1408 C1407 1.366 . S
C1408 C1409 1.414 . S
C1408 C1411 1.499 . S
C1409 H1383 0.950 . S
C1409 C1408 1.414 . S
C1409 C1410 1.374 . S
C1410 H1384 0.950 . S
C1410 C1406 1.385 . S
C1410 C1409 1.374 . S
C1411 C1408 1.499 . S
C1411 C1412 1.373 . S
C1411 C1413 1.389 . S
C1412 H1385 0.950 . S
C1412 C1398 1.377 . S
C1412 C1411 1.373 . S
C1413 C1397 1.377 . S
C1413 C1411 1.389 . S
C1413 C1414 1.524 . S
C1414 C1413 1.524 . S
C1414 C1415 1.397 . S
C1414 C1419 1.363 . S
C1415 H1386 0.950 . S
C1415 C1414 1.397 . S
C1415 C1416 1.334 . S
C1416 H1387 0.950 . S
C1416 C1415 1.334 . S
C1416 C1417 1.287 . S
C1417 C1416 1.287 . S
C1417 C1418 1.524 . S
C1417 H1420 0.999 . S
C1418 H1388 0.950 . S
C1418 C1417 1.524 . S
C1418 C1419 1.415 . S
C1419 H1389 0.950 . S
C1419 C1414 1.363 . S
C1419 C1418 1.415 . S
H1420 C1417 0.999 . S
H1421 C1402 0.913 . S
H1422 C1440 0.951 . S
H1423 C1442 0.951 . S
H1424 C1444 0.950 . S
H1425 C1445 0.950 . S
H1426 C1447 0.950 . S
H1427 C1450 0.950 . S
H1428 C1451 0.950 . S
H1429 C1453 0.950 . S
H1430 C1454 0.950 . S
H1431 C1455 0.951 . S
H1432 C1457 0.951 . S
H1433 C1459 0.950 . S
H1434 C1460 0.950 . S
H1435 C1462 0.950 . S
H1436 C1465 0.950 . S
H1437 C1466 0.950 . S
H1438 C1468 0.950 . S
H1439 C1469 0.950 . S
C1440 H1422 0.951 . S
C1440 C1441 1.366 . S
C1440 C1442 1.388 . S
C1441 C1440 1.366 . S
C1441 C1445 1.385 . S
C1442 H1423 0.951 . S
C1442 C1440 1.388 . S
C1442 C1443 1.366 . S
C1443 C1442 1.366 . S
C1443 C1444 1.414 . S
C1443 C1446 1.499 . S
C1444 H1424 0.950 . S
C1444 C1443 1.414 . S
C1444 C1445 1.374 . S
C1445 H1425 0.950 . S
C1445 C1441 1.385 . S
C1445 C1444 1.374 . S
C1446 C1443 1.499 . S
C1446 C1447 1.373 . S
C1446 C1448 1.389 . S
C1447 H1426 0.950 . S
C1447 C1446 1.373 . S
C1447 C1463 1.377 . S
C1448 C1446 1.389 . S
C1448 C1449 1.524 . S
C1448 C1462 1.377 . S
C1449 C1448 1.524 . S
C1449 C1450 1.397 . S
C1449 C1454 1.363 . S
C1450 H1427 0.950 . S
C1450 C1449 1.397 . S
C1450 C1451 1.334 . S
C1451 H1428 0.950 . S
C1451 C1450 1.334 . S
C1451 C1452 1.287 . S
C1452 C1451 1.287 . S
C1452 C1453 1.524 . S
C1452 H1471 0.913 . S
C1453 H1429 0.950 . S
C1453 C1452 1.524 . S
C1453 C1454 1.415 . S
C1454 H1430 0.950 . S
C1454 C1449 1.363 . S
C1454 C1453 1.415 . S
C1455 H1431 0.951 . S
C1455 C1456 1.366 . S
C1455 C1457 1.388 . S
C1456 C1455 1.366 . S
C1456 C1460 1.385 . S
C1457 H1432 0.951 . S
C1457 C1455 1.388 . S
C1457 C1458 1.366 . S
C1458 C1457 1.366 . S
C1458 C1459 1.414 . S
C1458 C1461 1.499 . S
C1459 H1433 0.950 . S
C1459 C1458 1.414 . S
C1459 C1460 1.374 . S
C1460 H1434 0.950 . S
C1460 C1456 1.385 . S
C1460 C1459 1.374 . S
C1461 C1458 1.499 . S
C1461 C1462 1.373 . S
C1461 C1463 1.389 . S
C1462 H1435 0.950 . S
C1462 C1448 1.377 . S
C1462 C1461 1.373 . S
C1463 C1447 1.377 . S
C1463 C1461 1.389 . S
C1463 C1464 1.524 . S
C1464 C1463 1.524 . S
C1464 C1465 1.397 . S
C1464 C1469 1.363 . S
C1465 H1436 0.950 . S
C1465 C1464 1.397 . S
C1465 C1466 1.334 . S
C1466 H1437 0.950 . S
C1466 C1465 1.334 . S
C1466 C1467 1.287 . S
C1467 C1466 1.287 . S
C1467 C1468 1.524 . S
C1467 H1470 0.999 . S
C1468 H1438 0.950 . S
C1468 C1467 1.524 . S
C1468 C1469 1.415 . S
C1469 H1439 0.950 . S
C1469 C1464 1.363 . S
C1469 C1468 1.415 . S
H1470 C1467 0.999 . S
H1471 C1452 0.913 . S
H1472 C1490 0.951 . S
H1473 C1492 0.951 . S
H1474 C1494 0.950 . S
H1475 C1495 0.950 . S
H1476 C1497 0.950 . S
H1477 C1500 0.950 . S
H1478 C1501 0.950 . S
H1479 C1503 0.950 . S
H1480 C1504 0.950 . S
H1481 C1505 0.951 . S
H1482 C1507 0.951 . S
H1483 C1509 0.950 . S
H1484 C1510 0.950 . S
H1485 C1512 0.950 . S
H1486 C1515 0.950 . S
H1487 C1516 0.950 . S
H1488 C1518 0.950 . S
H1489 C1519 0.950 . S
C1490 H1472 0.951 . S
C1490 C1491 1.366 . S
C1490 C1492 1.388 . S
C1491 C1490 1.366 . S
C1491 C1495 1.385 . S
C1492 H1473 0.951 . S
C1492 C1490 1.388 . S
C1492 C1493 1.366 . S
C1493 C1492 1.366 . S
C1493 C1494 1.414 . S
C1493 C1496 1.499 . S
C1494 H1474 0.950 . S
C1494 C1493 1.414 . S
C1494 C1495 1.374 . S
C1495 H1475 0.950 . S
C1495 C1491 1.385 . S
C1495 C1494 1.374 . S
C1496 C1493 1.499 . S
C1496 C1497 1.373 . S
C1496 C1498 1.389 . S
C1497 H1476 0.950 . S
C1497 C1496 1.373 . S
C1497 C1513 1.377 . S
C1498 C1496 1.389 . S
C1498 C1499 1.524 . S
C1498 C1512 1.377 . S
C1499 C1498 1.524 . S
C1499 C1500 1.397 . S
C1499 C1504 1.363 . S
C1500 H1477 0.950 . S
C1500 C1499 1.397 . S
C1500 C1501 1.334 . S
C1501 H1478 0.950 . S
C1501 C1500 1.334 . S
C1501 C1502 1.287 . S
C1502 C1501 1.287 . S
C1502 C1503 1.524 . S
C1502 H1521 0.913 . S
C1503 H1479 0.950 . S
C1503 C1502 1.524 . S
C1503 C1504 1.415 . S
C1504 H1480 0.950 . S
C1504 C1499 1.363 . S
C1504 C1503 1.415 . S
C1505 H1481 0.951 . S
C1505 C1506 1.366 . S
C1505 C1507 1.388 . S
C1506 C1505 1.366 . S
C1506 C1510 1.385 . S
C1507 H1482 0.951 . S
C1507 C1505 1.388 . S
C1507 C1508 1.366 . S
C1508 C1507 1.366 . S
C1508 C1509 1.414 . S
C1508 C1511 1.499 . S
C1509 H1483 0.950 . S
C1509 C1508 1.414 . S
C1509 C1510 1.374 . S
C1510 H1484 0.950 . S
C1510 C1506 1.385 . S
C1510 C1509 1.374 . S
C1511 C1508 1.499 . S
C1511 C1512 1.373 . S
C1511 C1513 1.389 . S
C1512 H1485 0.950 . S
C1512 C1498 1.377 . S
C1512 C1511 1.373 . S
C1513 C1497 1.377 . S
C1513 C1511 1.389 . S
C1513 C1514 1.524 . S
C1514 C1513 1.524 . S
C1514 C1515 1.397 . S
C1514 C1519 1.363 . S
C1515 H1486 0.950 . S
C1515 C1514 1.397 . S
C1515 C1516 1.334 . S
C1516 H1487 0.950 . S
C1516 C1515 1.334 . S
C1516 C1517 1.287 . S
C1517 C1516 1.287 . S
C1517 C1518 1.524 . S
C1517 H1520 0.999 . S
C1518 H1488 0.950 . S
C1518 C1517 1.524 . S
C1518 C1519 1.415 . S
C1519 H1489 0.950 . S
C1519 C1514 1.363 . S
C1519 C1518 1.415 . S
H1520 C1517 0.999 . S
H1521 C1502 0.913 . S
H1522 C1540 0.951 . S
H1523 C1542 0.951 . S
H1524 C1544 0.950 . S
H1525 C1545 0.950 . S
H1526 C1547 0.950 . S
H1527 C1550 0.950 . S
H1528 C1551 0.950 . S
H1529 C1553 0.950 1_655 S
H1530 C1554 0.950 . S
H1531 C1555 0.951 . S
H1532 C1557 0.951 . S
H1533 C1559 0.950 . S
H1534 C1560 0.950 . S
H1535 C1562 0.950 . S
H1536 C1565 0.950 . S
H1537 C1566 0.950 . S
H1538 C1568 0.950 . S
H1539 C1569 0.950 . S
C1540 H1522 0.951 . S
C1540 C1541 1.366 . S
C1540 C1542 1.388 . S
C1541 C1540 1.366 . S
C1541 C1545 1.385 . S
C1542 H1523 0.951 . S
C1542 C1540 1.388 . S
C1542 C1543 1.366 . S
C1543 C1542 1.366 . S
C1543 C1544 1.414 . S
C1543 C1546 1.499 . S
C1544 H1524 0.950 . S
C1544 C1543 1.414 . S
C1544 C1545 1.374 . S
C1545 H1525 0.950 . S
C1545 C1541 1.385 . S
C1545 C1544 1.374 . S
C1546 C1543 1.499 . S
C1546 C1547 1.373 . S
C1546 C1548 1.389 . S
C1547 H1526 0.950 . S
C1547 C1546 1.373 . S
C1547 C1563 1.377 . S
C1548 C1546 1.389 . S
C1548 C1549 1.524 . S
C1548 C1562 1.377 . S
C1549 C1548 1.524 . S
C1549 C1550 1.397 . S
C1549 C1554 1.363 . S
C1550 H1527 0.950 . S
C1550 C1549 1.397 . S
C1550 C1551 1.334 1_455 S
C1551 H1528 0.950 . S
C1551 C1550 1.334 1_655 S
C1551 C1552 1.287 . S
C1552 C1551 1.287 . S
C1552 C1553 1.524 1_655 S
C1552 H1571 0.913 . S
C1553 H1529 0.950 1_455 S
C1553 C1552 1.524 1_455 S
C1553 C1554 1.415 . S
C1554 H1530 0.950 . S
C1554 C1549 1.363 . S
C1554 C1553 1.415 . S
C1555 H1531 0.951 . S
C1555 C1556 1.366 . S
C1555 C1557 1.388 . S
C1556 C1555 1.366 . S
C1556 C1560 1.385 . S
C1557 H1532 0.951 . S
C1557 C1555 1.388 . S
C1557 C1558 1.366 . S
C1558 C1557 1.366 . S
C1558 C1559 1.414 . S
C1558 C1561 1.499 . S
C1559 H1533 0.950 . S
C1559 C1558 1.414 . S
C1559 C1560 1.374 . S
C1560 H1534 0.950 . S
C1560 C1556 1.385 . S
C1560 C1559 1.374 . S
C1561 C1558 1.499 . S
C1561 C1562 1.373 . S
C1561 C1563 1.389 . S
C1562 H1535 0.950 . S
C1562 C1548 1.377 . S
C1562 C1561 1.373 . S
C1563 C1547 1.377 . S
C1563 C1561 1.389 . S
C1563 C1564 1.524 . S
C1564 C1563 1.524 . S
C1564 C1565 1.397 . S
C1564 C1569 1.363 . S
C1565 H1536 0.950 . S
C1565 C1564 1.397 . S
C1565 C1566 1.334 . S
C1566 H1537 0.950 . S
C1566 C1565 1.334 . S
C1566 C1567 1.287 . S
C1567 C1566 1.287 . S
C1567 C1568 1.524 . S
C1567 H1570 0.999 . S
C1568 H1538 0.950 . S
C1568 C1567 1.524 . S
C1568 C1569 1.415 . S
C1569 H1539 0.950 . S
C1569 C1564 1.363 . S
C1569 C1568 1.415 . S
H1570 C1567 0.999 . S
H1571 C1552 0.913 . S
H1572 C1590 0.951 . S
H1573 C1592 0.951 . S
H1574 C1594 0.950 . S
H1575 C1595 0.950 . S
H1576 C1597 0.950 . S
H1577 C1600 0.950 . S
H1578 C1601 0.950 . S
H1579 C1603 0.950 . S
H1580 C1604 0.950 . S
H1581 C1605 0.951 . S
H1582 C1607 0.951 . S
H1583 C1609 0.950 . S
H1584 C1610 0.950 . S
H1585 C1612 0.950 . S
H1586 C1615 0.950 . S
H1587 C1616 0.950 . S
H1588 C1618 0.950 . S
H1589 C1619 0.950 . S
C1590 H1572 0.951 . S
C1590 C1591 1.366 . S
C1590 C1592 1.388 . S
C1591 C1590 1.366 . S
C1591 C1595 1.385 . S
C1592 H1573 0.951 . S
C1592 C1590 1.388 . S
C1592 C1593 1.366 . S
C1593 C1592 1.366 . S
C1593 C1594 1.414 . S
C1593 C1596 1.499 . S
C1594 H1574 0.950 . S
C1594 C1593 1.414 . S
C1594 C1595 1.374 . S
C1595 H1575 0.950 . S
C1595 C1591 1.385 . S
C1595 C1594 1.374 . S
C1596 C1593 1.499 . S
C1596 C1597 1.373 . S
C1596 C1598 1.389 . S
C1597 H1576 0.950 . S
C1597 C1596 1.373 . S
C1597 C1613 1.377 . S
C1598 C1596 1.389 . S
C1598 C1599 1.524 . S
C1598 C1612 1.377 . S
C1599 C1598 1.524 . S
C1599 C1600 1.397 . S
C1599 C1604 1.363 . S
C1600 H1577 0.950 . S
C1600 C1599 1.397 . S
C1600 C1601 1.334 . S
C1601 H1578 0.950 . S
C1601 C1600 1.334 . S
C1601 C1602 1.287 . S
C1602 C1601 1.287 . S
C1602 C1603 1.524 . S
C1602 H1621 0.913 . S
C1603 H1579 0.950 . S
C1603 C1602 1.524 . S
C1603 C1604 1.415 . S
C1604 H1580 0.950 . S
C1604 C1599 1.363 . S
C1604 C1603 1.415 . S
C1605 H1581 0.951 . S
C1605 C1606 1.366 . S
C1605 C1607 1.388 . S
C1606 C1605 1.366 . S
C1606 C1610 1.385 . S
C1607 H1582 0.951 . S
C1607 C1605 1.388 . S
C1607 C1608 1.366 . S
C1608 C1607 1.366 . S
C1608 C1609 1.414 . S
C1608 C1611 1.499 . S
C1609 H1583 0.950 . S
C1609 C1608 1.414 . S
C1609 C1610 1.374 . S
C1610 H1584 0.950 . S
C1610 C1606 1.385 . S
C1610 C1609 1.374 . S
C1611 C1608 1.499 . S
C1611 C1612 1.373 . S
C1611 C1613 1.389 . S
C1612 H1585 0.950 . S
C1612 C1598 1.377 . S
C1612 C1611 1.373 . S
C1613 C1597 1.377 . S
C1613 C1611 1.389 . S
C1613 C1614 1.524 . S
C1614 C1613 1.524 . S
C1614 C1615 1.397 . S
C1614 C1619 1.363 . S
C1615 H1586 0.950 . S
C1615 C1614 1.397 . S
C1615 C1616 1.334 . S
C1616 H1587 0.950 . S
C1616 C1615 1.334 . S
C1616 C1617 1.287 . S
C1617 C1616 1.287 . S
C1617 C1618 1.524 . S
C1617 H1620 0.999 . S
C1618 H1588 0.950 . S
C1618 C1617 1.524 . S
C1618 C1619 1.415 . S
C1619 H1589 0.950 . S
C1619 C1614 1.363 . S
C1619 C1618 1.415 . S
H1620 C1617 0.999 . S
H1621 C1602 0.913 . S
H1622 C1640 0.951 . S
H1623 C1642 0.951 . S
H1624 C1644 0.950 . S
H1625 C1645 0.950 . S
H1626 C1647 0.950 . S
H1627 C1650 0.950 . S
H1628 C1651 0.950 . S
H1629 C1653 0.950 . S
H1630 C1654 0.950 . S
H1631 C1655 0.951 . S
H1632 C1657 0.951 . S
H1633 C1659 0.950 . S
H1634 C1660 0.950 . S
H1635 C1662 0.950 . S
H1636 C1665 0.950 . S
H1637 C1666 0.950 . S
H1638 C1668 0.950 . S
H1639 C1669 0.950 1_554 S
C1640 H1622 0.951 . S
C1640 C1641 1.366 . S
C1640 C1642 1.388 . S
C1641 C1640 1.366 . S
C1641 C1645 1.385 . S
C1642 H1623 0.951 . S
C1642 C1640 1.388 . S
C1642 C1643 1.366 . S
C1643 C1642 1.366 . S
C1643 C1644 1.414 . S
C1643 C1646 1.499 . S
C1644 H1624 0.950 . S
C1644 C1643 1.414 . S
C1644 C1645 1.374 . S
C1645 H1625 0.950 . S
C1645 C1641 1.385 . S
C1645 C1644 1.374 . S
C1646 C1643 1.499 . S
C1646 C1647 1.373 . S
C1646 C1648 1.389 . S
C1647 H1626 0.950 . S
C1647 C1646 1.373 . S
C1647 C1663 1.377 1_554 S
C1648 C1646 1.389 . S
C1648 C1649 1.524 . S
C1648 C1662 1.377 1_554 S
C1649 C1648 1.524 . S
C1649 C1650 1.397 . S
C1649 C1654 1.363 . S
C1650 H1627 0.950 . S
C1650 C1649 1.397 . S
C1650 C1651 1.334 . S
C1651 H1628 0.950 . S
C1651 C1650 1.334 . S
C1651 C1652 1.287 . S
C1652 C1651 1.287 . S
C1652 C1653 1.524 . S
C1652 H1671 0.913 . S
C1653 H1629 0.950 . S
C1653 C1652 1.524 . S
C1653 C1654 1.415 . S
C1654 H1630 0.950 . S
C1654 C1649 1.363 . S
C1654 C1653 1.415 . S
C1655 H1631 0.951 . S
C1655 C1656 1.366 . S
C1655 C1657 1.388 . S
C1656 C1655 1.366 . S
C1656 C1660 1.385 . S
C1657 H1632 0.951 . S
C1657 C1655 1.388 . S
C1657 C1658 1.366 . S
C1658 C1657 1.366 . S
C1658 C1659 1.414 . S
C1658 C1661 1.499 . S
C1659 H1633 0.950 . S
C1659 C1658 1.414 . S
C1659 C1660 1.374 . S
C1660 H1634 0.950 . S
C1660 C1656 1.385 . S
C1660 C1659 1.374 . S
C1661 C1658 1.499 . S
C1661 C1662 1.373 . S
C1661 C1663 1.389 . S
C1662 H1635 0.950 . S
C1662 C1648 1.377 1_556 S
C1662 C1661 1.373 . S
C1663 C1647 1.377 1_556 S
C1663 C1661 1.389 . S
C1663 C1664 1.524 . S
C1664 C1663 1.524 . S
C1664 C1665 1.397 . S
C1664 C1669 1.363 . S
C1665 H1636 0.950 . S
C1665 C1664 1.397 . S
C1665 C1666 1.334 . S
C1666 H1637 0.950 . S
C1666 C1665 1.334 . S
C1666 C1667 1.287 . S
C1667 C1666 1.287 . S
C1667 C1668 1.524 . S
C1667 H1670 0.999 . S
C1668 H1638 0.950 . S
C1668 C1667 1.524 . S
C1668 C1669 1.415 . S
C1669 H1639 0.950 1_556 S
C1669 C1664 1.363 . S
C1669 C1668 1.415 . S
H1670 C1667 0.999 . S
H1671 C1652 0.913 . S
H1672 C1690 0.951 . S
H1673 C1692 0.951 . S
H1674 C1694 0.950 . S
H1675 C1695 0.950 . S
H1676 C1697 0.950 . S
H1677 C1700 0.950 . S
H1678 C1701 0.950 . S
H1679 C1703 0.950 . S
H1680 C1704 0.950 . S
H1681 C1705 0.951 . S
H1682 C1707 0.951 . S
H1683 C1709 0.950 . S
H1684 C1710 0.950 . S
H1685 C1712 0.950 . S
H1686 C1715 0.950 . S
H1687 C1716 0.950 . S
H1688 C1718 0.950 . S
H1689 C1719 0.950 . S
C1690 H1672 0.951 . S
C1690 C1691 1.366 . S
C1690 C1692 1.388 . S
C1691 C1690 1.366 . S
C1691 C1695 1.385 . S
C1692 H1673 0.951 . S
C1692 C1690 1.388 . S
C1692 C1693 1.366 . S
C1693 C1692 1.366 . S
C1693 C1694 1.414 . S
C1693 C1696 1.499 . S
C1694 H1674 0.950 . S
C1694 C1693 1.414 . S
C1694 C1695 1.374 . S
C1695 H1675 0.950 . S
C1695 C1691 1.385 . S
C1695 C1694 1.374 . S
C1696 C1693 1.499 . S
C1696 C1697 1.373 . S
C1696 C1698 1.389 . S
C1697 H1676 0.950 . S
C1697 C1696 1.373 . S
C1697 C1713 1.377 . S
C1698 C1696 1.389 . S
C1698 C1699 1.524 . S
C1698 C1712 1.377 . S
C1699 C1698 1.524 . S
C1699 C1700 1.397 . S
C1699 C1704 1.363 . S
C1700 H1677 0.950 . S
C1700 C1699 1.397 . S
C1700 C1701 1.334 . S
C1701 H1678 0.950 . S
C1701 C1700 1.334 . S
C1701 C1702 1.287 . S
C1702 C1701 1.287 . S
C1702 C1703 1.524 . S
C1702 H1721 0.913 1_655 S
C1703 H1679 0.950 . S
C1703 C1702 1.524 . S
C1703 C1704 1.415 . S
C1704 H1680 0.950 . S
C1704 C1699 1.363 . S
C1704 C1703 1.415 . S
C1705 H1681 0.951 . S
C1705 C1706 1.366 . S
C1705 C1707 1.388 . S
C1706 C1705 1.366 . S
C1706 C1710 1.385 . S
C1707 H1682 0.951 . S
C1707 C1705 1.388 . S
C1707 C1708 1.366 . S
C1708 C1707 1.366 . S
C1708 C1709 1.414 . S
C1708 C1711 1.499 . S
C1709 H1683 0.950 . S
C1709 C1708 1.414 . S
C1709 C1710 1.374 . S
C1710 H1684 0.950 . S
C1710 C1706 1.385 . S
C1710 C1709 1.374 . S
C1711 C1708 1.499 . S
C1711 C1712 1.373 . S
C1711 C1713 1.389 . S
C1712 H1685 0.950 . S
C1712 C1698 1.377 . S
C1712 C1711 1.373 . S
C1713 C1697 1.377 . S
C1713 C1711 1.389 . S
C1713 C1714 1.524 . S
C1714 C1713 1.524 . S
C1714 C1715 1.397 . S
C1714 C1719 1.363 . S
C1715 H1686 0.950 . S
C1715 C1714 1.397 . S
C1715 C1716 1.334 . S
C1716 H1687 0.950 . S
C1716 C1715 1.334 . S
C1716 C1717 1.287 . S
C1717 C1716 1.287 . S
C1717 C1718 1.524 . S
C1717 H1720 0.999 . S
C1718 H1688 0.950 . S
C1718 C1717 1.524 . S
C1718 C1719 1.415 . S
C1719 H1689 0.950 . S
C1719 C1714 1.363 . S
C1719 C1718 1.415 . S
H1720 C1717 0.999 . S
H1721 C1702 0.913 1_455 S
C556 C519 1.264 . S
C541 C51 1.247 . S
C591 C125 1.391 . S
C606 C444 1.322 . S
C641 C217 2.720 . S
C656 C467 2.752 . S
C691 C291 1.411 . S
C706 C480 1.409 . S
C756 C483 0.719 . S
C741 C347 0.714 . S
C791 C421 0.619 . S
C806 C496 0.631 . S
C841 C143 2.287 . S
C856 C457 2.193 . S
C891 C199 1.481 . S
C906 C470 1.428 . S
C941 C273 0.242 . S
C956 C493 0.225 . S
C1006 C506 1.644 . S
C991 C365 1.616 . S
C1056 C509 1.718 . S
C1041 C439 1.828 . S
C1106 C454 2.515 . S
C1091 C69 2.490 . S
C1141 C63 1.277 . S
C1156 C465 1.333 . S
C1191 C137 1.406 . S
C1206 C478 1.452 . S
C1256 C488 1.206 . S
C1241 C187 1.202 . S
C1291 C261 1.378 . S
C1306 C501 1.365 . S
C1356 C517 1.401 . S
C1341 C359 1.325 . S
C1406 C449 0.915 . S
C1391 C433 0.905 . S
C1456 C514 1.480 . S
C1441 C113 1.547 . S
C1491 C211 1.241 . S
C1506 C452 1.297 . S
C1556 C462 1.386 . S
C1541 C285 1.377 . S
C1591 C335 1.265 . S
C1606 C475 1.294 . S
C1641 C409 1.168 . S
C1656 C491 1.198 . S
C1691 C39 1.600 . S
C1706 C504 1.623 . S
