# Generated by pormake.
# Topology hwx, (6,3)-cn, num edge types: 1
# Building blocks:
#     Node 0, Type 0, BuildingBlock: OJICUG_clean_sbu_0, # of connection points: 6
#     Node 1, Type 0, BuildingBlock: OJICUG_clean_sbu_0, # of connection points: 6
#     Node 2, Type 0, BuildingBlock: OJICUG_clean_sbu_0, # of connection points: 6
#     Node 3, Type 0, BuildingBlock: OJICUG_clean_sbu_0, # of connection points: 6
#     Node 4, Type 1, BuildingBlock: PAMTOO_clean_linker_0, # of connection points: 3
#     Node 5, Type 1, BuildingBlock: PAMTOO_clean_linker_0, # of connection points: 3
#     Node 6, Type 1, BuildingBlock: PAMTOO_clean_linker_0, # of connection points: 3
#     Node 7, Type 1, BuildingBlock: PAMTOO_clean_linker_0, # of connection points: 3
#     Node 8, Type 1, BuildingBlock: PAMTOO_clean_linker_0, # of connection points: 3
#     Node 9, Type 1, BuildingBlock: PAMTOO_clean_linker_0, # of connection points: 3
#     Node 10, Type 1, BuildingBlock: PAMTOO_clean_linker_0, # of connection points: 3
#     Node 11, Type 1, BuildingBlock: PAMTOO_clean_linker_0, # of connection points: 3
#     Edge 12, Type (0, 1), BuildingBlock: EZIPEK_clean_linker_0, # of connection points: 2
#     Edge 13, Type (0, 1), BuildingBlock: EZIPEK_clean_linker_0, # of connection points: 2
#     Edge 14, Type (0, 1), BuildingBlock: EZIPEK_clean_linker_0, # of connection points: 2
#     Edge 15, Type (0, 1), BuildingBlock: EZIPEK_clean_linker_0, # of connection points: 2
#     Edge 16, Type (0, 1), BuildingBlock: EZIPEK_clean_linker_0, # of connection points: 2
#     Edge 17, Type (0, 1), BuildingBlock: EZIPEK_clean_linker_0, # of connection points: 2
#     Edge 18, Type (0, 1), BuildingBlock: EZIPEK_clean_linker_0, # of connection points: 2
#     Edge 19, Type (0, 1), BuildingBlock: EZIPEK_clean_linker_0, # of connection points: 2
#     Edge 20, Type (0, 1), BuildingBlock: EZIPEK_clean_linker_0, # of connection points: 2
#     Edge 21, Type (0, 1), BuildingBlock: EZIPEK_clean_linker_0, # of connection points: 2
#     Edge 22, Type (0, 1), BuildingBlock: EZIPEK_clean_linker_0, # of connection points: 2
#     Edge 23, Type (0, 1), BuildingBlock: EZIPEK_clean_linker_0, # of connection points: 2
#     Edge 24, Type (0, 1), BuildingBlock: EZIPEK_clean_linker_0, # of connection points: 2
#     Edge 25, Type (0, 1), BuildingBlock: EZIPEK_clean_linker_0, # of connection points: 2
#     Edge 26, Type (0, 1), BuildingBlock: EZIPEK_clean_linker_0, # of connection points: 2
#     Edge 27, Type (0, 1), BuildingBlock: EZIPEK_clean_linker_0, # of connection points: 2
#     Edge 28, Type (0, 1), BuildingBlock: EZIPEK_clean_linker_0, # of connection points: 2
#     Edge 29, Type (0, 1), BuildingBlock: EZIPEK_clean_linker_0, # of connection points: 2
#     Edge 30, Type (0, 1), BuildingBlock: EZIPEK_clean_linker_0, # of connection points: 2
#     Edge 31, Type (0, 1), BuildingBlock: EZIPEK_clean_linker_0, # of connection points: 2
#     Edge 32, Type (0, 1), BuildingBlock: EZIPEK_clean_linker_0, # of connection points: 2
#     Edge 33, Type (0, 1), BuildingBlock: EZIPEK_clean_linker_0, # of connection points: 2
#     Edge 34, Type (0, 1), BuildingBlock: EZIPEK_clean_linker_0, # of connection points: 2
#     Edge 35, Type (0, 1), BuildingBlock: EZIPEK_clean_linker_0, # of connection points: 2
# Relax obj value: 0.008
# Max RMSD: 0.042
# Mean RMSD: 0.040
data_MOF--net-hwx--node1-OJICUG_clean_sbu_0--node2-PAMTOO_clean_linker_0--edge1-EZIPEK_clean_linker_0
_symmetry_space_group_name_H-M    P1
_symmetry_Int_Tables_number       1
_symmetry_cell_setting            triclinic
loop_
_symmetry_equiv_pos_as_xyz
'x, y, z'
_cell_length_a     38.606508
_cell_length_b     38.79409
_cell_length_c     15.124917
_cell_angle_alpha  87.977801
_cell_angle_beta   91.74372
_cell_angle_gamma 90.0251
loop_
_atom_site_label
_atom_site_type_symbol
_atom_site_fract_x
_atom_site_fract_y
_atom_site_fract_z
_atom_type_partial_charge
Sc0 Sc 0.2322 0.23216 0.10169 0.0
Sc1 Sc 0.17747 0.17581 -0.01271 0.0
Sc2 Sc 0.2334 0.23039 0.86953 0.0
O3 O 0.21446 0.21289 -0.01386 0.0
C4 C 0.2293 0.29984 0.97219 0.0
C5 C 0.15299 0.22412 0.14101 0.0
C6 C 0.15148 0.22328 0.82733 0.0
C7 C 0.22539 0.15072 0.14708 0.0
C8 C 0.30162 0.22758 -0.00276 0.0
C9 C 0.22552 0.15128 0.83245 0.0
O10 O 0.23337 0.28495 0.04826 0.0
O11 O 0.14956 0.19797 0.09323 0.0
O12 O 0.18212 0.23169 0.80558 0.0
O13 O 0.23355 0.18136 0.16776 0.0
O14 O 0.28652 0.23155 0.92144 0.0
O15 O 0.19956 0.14778 0.88165 0.0
O16 O 0.28549 0.22481 0.06912 0.0
O17 O 0.20781 0.14385 0.07768 0.0
O18 O 0.24295 0.17898 0.82622 0.0
O19 O 0.18064 0.24179 0.14546 0.0
O20 O 0.22621 0.28358 0.9009 0.0
O21 O 0.14491 0.20558 0.89694 0.0
Sc22 Sc 0.27909 0.73306 0.37607 0.0
Sc23 Sc 0.32865 0.67177 0.50013 0.0
Sc24 Sc 0.27941 0.73221 0.60814 0.0
O25 O 0.29557 0.71232 0.49465 0.0
C26 C 0.29137 0.80015 0.49286 0.0
C27 C 0.35748 0.71774 0.33862 0.0
C28 C 0.35965 0.71595 0.65235 0.0
C29 C 0.27852 0.65109 0.34412 0.0
C30 C 0.21062 0.73658 0.48362 0.0
C31 C 0.27787 0.65312 0.65854 0.0
O32 O 0.28324 0.78606 0.42004 0.0
O33 O 0.35861 0.69135 0.39092 0.0
O34 O 0.33009 0.72728 0.6727 0.0
O35 O 0.27282 0.68239 0.31852 0.0
O36 O 0.22688 0.74027 0.55713 0.0
O37 O 0.30332 0.64662 0.61034 0.0
O38 O 0.22553 0.73072 0.41188 0.0
O39 O 0.29547 0.64278 0.41482 0.0
O40 O 0.26365 0.6826 0.65996 0.0
O41 O 0.33133 0.73762 0.33021 0.0
O42 O 0.29402 0.78332 0.56627 0.0
O43 O 0.36435 0.69786 0.58554 0.0
Sc44 Sc 0.78215 0.77955 0.89035 0.0
Sc45 Sc 0.83513 0.82569 0.03718 0.0
Sc46 Sc 0.77287 0.76818 0.11927 0.0
O47 O 0.79682 0.791 0.01541 0.0
C48 C 0.7096 0.7816 0.98106 0.0
C49 C 0.79412 0.86137 0.87583 0.0
C50 C 0.78029 0.84412 0.1833 0.0
C51 C 0.86335 0.78509 0.87372 0.0
C52 C 0.78124 0.70576 -0.00725 0.0
C53 C 0.8522 0.77106 0.18926 0.0
O54 O 0.72818 0.78803 0.91466 0.0
O55 O 0.8106 0.86378 0.94934 0.0
O56 O 0.76164 0.81753 0.1725 0.0
O57 O 0.83475 0.77058 0.85426 0.0
O58 O 0.78199 0.71738 0.07054 0.0
O59 O 0.86246 0.79056 0.1262 0.0
O60 O 0.77865 0.72498 0.92285 0.0
O61 O 0.86673 0.80726 0.93327 0.0
O62 O 0.82047 0.76325 0.19937 0.0
O63 O 0.78438 0.83278 0.84463 0.0
O64 O 0.72199 0.77114 0.05603 0.0
O65 O 0.8091 0.84841 0.14569 0.0
Sc66 Sc 0.73863 0.27425 0.59322 0.0
Sc67 Sc 0.67045 0.32073 0.48177 0.0
Sc68 Sc 0.73175 0.27535 0.36248 0.0
O69 O 0.71339 0.2899 0.47929 0.0
C70 C 0.8027 0.2883 0.46681 0.0
C71 C 0.72128 0.353 0.62859 0.0
C72 C 0.70886 0.35345 0.31491 0.0
C73 C 0.6591 0.27122 0.64936 0.0
C74 C 0.74016 0.20611 0.48297 0.0
C75 C 0.64974 0.26938 0.33048 0.0
O76 O 0.79003 0.28262 0.54256 0.0
O77 O 0.69445 0.35442 0.57725 0.0
O78 O 0.72784 0.32702 0.30824 0.0
O79 O 0.69097 0.2636 0.66192 0.0
O80 O 0.73893 0.22221 0.40806 0.0
O81 O 0.64184 0.28978 0.39048 0.0
O82 O 0.73912 0.22101 0.55648 0.0
O83 O 0.64791 0.29077 0.58609 0.0
O84 O 0.68076 0.26184 0.31269 0.0
O85 O 0.74066 0.32649 0.63616 0.0
O86 O 0.78449 0.28797 0.3958 0.0
O87 O 0.68615 0.35467 0.37359 0.0
H88 H 0.24164 0.60056 0.00885 0.0
H89 H 0.22149 0.50936 0.86318 0.0
H90 H 0.22396 0.50392 0.14814 0.0
H91 H 0.26633 0.45058 0.04136 0.0
C92 C 0.24766 0.44875 0.98418 0.0
O93 O 0.21879 0.46787 0.00338 0.0
H94 H 0.25976 0.46011 0.92394 0.0
C95 C 0.23442 0.57352 0.00796 0.0
C96 C 0.23186 0.55461 0.08779 0.0
C97 C 0.23095 0.5574 0.92706 0.0
C98 C 0.22292 0.5222 0.92565 0.0
C99 C 0.22068 0.50272 0.00543 0.0
C100 C 0.2246 0.51907 0.08667 0.0
H101 H 0.91173 0.74773 0.55312 0.0
H102 H 0.99975 0.72732 0.39624 0.0
H103 H 0.01359 0.74227 0.67575 0.0
H104 H 0.05972 0.78117 0.55006 0.0
C105 C 0.06245 0.76202 0.49776 0.0
O106 O 0.04537 0.73261 0.52694 0.0
H107 H 0.05009 0.77241 0.43491 0.0
C108 C 0.9392 0.74223 0.54894 0.0
C109 C 0.96071 0.74405 0.62457 0.0
C110 C 0.95307 0.73644 0.46668 0.0
C111 C 0.98871 0.73057 0.46043 0.0
C112 C 0.01063 0.73285 0.53583 0.0
C113 C 0.99658 0.73932 0.61823 0.0
H114 H 0.7178 0.41658 0.96021 0.0
H115 H 0.74591 0.50641 0.10441 0.0
H116 H 0.75483 0.50721 0.82139 0.0
H117 H 0.80509 0.54738 0.9066 0.0
C118 C 0.79111 0.55687 0.96419 0.0
O119 O 0.75736 0.54511 0.96242 0.0
H120 H 0.80352 0.5462 0.02641 0.0
C121 C 0.72638 0.44323 0.96065 0.0
C122 C 0.73627 0.45954 0.88125 0.0
C123 C 0.73112 0.45916 0.04182 0.0
C124 C 0.74224 0.49356 0.04236 0.0
C125 C 0.74912 0.51131 0.96227 0.0
C126 C 0.74719 0.49404 0.88206 0.0
H127 H 0.098 0.25279 0.48093 0.0
H128 H 1.00373 0.27594 0.61033 0.0
H129 H 1.00415 0.27173 0.32629 0.0
H130 H 0.96127 0.33117 0.41024 0.0
C131 C 0.95142 0.31459 0.46545 0.0
O132 O 0.96568 0.28196 0.46405 0.0
H133 H 0.96019 0.32553 0.52894 0.0
C134 C 0.07085 0.26014 0.47689 0.0
C135 C 0.05351 0.26249 0.39437 0.0
C136 C 0.0531 0.26461 0.55464 0.0
C137 C 0.0178 0.27313 0.55011 0.0
C138 C 1.00024 0.2763 0.46761 0.0
C139 C 0.01805 0.27078 0.38962 0.0
H140 H 0.76759 0.90787 0.53568 0.0
H141 H 0.74665 0.00691 0.63968 0.0
H142 H 0.73586 0.99251 0.35946 0.0
H143 H 0.77907 0.05425 0.41467 0.0
C144 C 0.76781 0.0584 0.48024 0.0
O145 O 0.73829 0.03826 0.48381 0.0
H146 H 0.78691 0.04993 0.53332 0.0
C147 C 0.75939 0.93447 0.52473 0.0
C148 C 0.75124 0.94714 0.43858 0.0
C149 C 0.75669 0.9555 0.59729 0.0
C150 C 0.74731 0.99016 0.58394 0.0
C151 C 0.74111 1.00375 0.49773 0.0
C152 C 0.74151 0.98195 0.4256 0.0
H153 H 0.60338 0.2316 -0.00472 0.0
H154 H 0.50586 0.21092 0.11526 0.0
H155 H 0.51125 0.22143 0.83176 0.0
H156 H 0.45381 0.26137 0.92417 0.0
C157 C 0.45129 0.24364 0.98304 0.0
O158 O 0.46956 0.21403 0.96628 0.0
H159 H 0.46289 0.25622 0.04205 0.0
C160 C 0.57608 0.2251 -0.01127 0.0
C161 C 0.5601 0.22499 0.90476 0.0
C162 C 0.55666 0.22051 0.06454 0.0
C163 C 0.5212 0.21324 0.05652 0.0
C164 C 0.50462 0.21395 0.97246 0.0
C165 C 0.52417 0.2195 0.89633 0.0
H166 H 0.25461 0.09647 0.49574 0.0
H167 H 0.27641 1.00309 0.36359 0.0
H168 H 0.27159 1.00183 0.64774 0.0
H169 H 0.32928 0.95692 0.56722 0.0
C170 C 0.3135 0.94906 0.50858 0.0
O171 O 0.28107 0.96413 0.5085 0.0
H172 H 0.32604 0.95882 0.44758 0.0
C173 C 0.26153 0.06932 0.49902 0.0
C174 C 0.26347 0.05156 0.58108 0.0
C175 C 0.26583 0.05205 0.42074 0.0
C176 C 0.27377 0.01677 0.42425 0.0
C177 C 0.27635 0.99869 0.5062 0.0
C178 C 0.27105 0.01607 0.58481 0.0
H179 H 0.4145 0.74068 -0.00224 0.0
H180 H 0.50802 0.76122 0.86016 0.0
H181 H 0.50979 0.75757 0.14533 0.0
H182 H 0.55594 0.8126 0.06137 0.0
C183 C 0.56092 0.80059 -0.00258 0.0
O184 O 0.5474 0.76763 0.00353 0.0
H185 H 0.54759 0.81598 0.94299 0.0
C186 C 0.44187 0.74716 -0.00045 0.0
C187 C 0.45975 0.74925 0.08104 0.0
C188 C 0.45924 0.75098 0.92036 0.0
C189 C 0.49465 0.75862 0.92181 0.0
C190 C 0.51286 0.76165 0.00285 0.0
C191 C 0.49547 0.75659 0.08275 0.0
C192 C 0.11304 0.20903 0.26403 0.0
C193 C 0.12406 0.23316 0.19813 0.0
C194 C 0.08453 0.27651 0.25291 0.0
C195 C 0.07262 0.25175 0.31616 0.0
N196 N 0.06794 0.1921 0.36436 0.0
N197 N 0.11415 0.28661 0.11517 0.0
C198 C 0.08424 0.21712 0.31522 0.0
C199 C 0.10786 0.26597 0.18793 0.0
N200 N 0.13155 0.17949 0.28233 0.0
N201 N 0.07483 0.31024 0.25722 0.0
H202 H 0.13024 0.27897 0.06527 0.0
H203 H 0.10086 0.30953 0.1001 0.0
H204 H 0.05729 0.31871 0.30287 0.0
H205 H 0.08583 0.33008 0.21931 0.0
H206 H 0.12656 0.16262 0.33554 0.0
H207 H 0.1543 0.17381 0.25053 0.0
H208 H 0.07343 0.16592 0.36032 0.0
H209 H 0.04649 0.1973 0.40213 0.0
C210 C 0.28947 0.6116 0.78612 0.0
C211 C 0.2659 0.62571 0.72083 0.0
C212 C 0.21869 0.59167 0.78487 0.0
C213 C 0.2428 0.57652 0.8471 0.0
N214 N 0.30226 0.56464 0.89139 0.0
N215 N 0.21 0.62387 0.64545 0.0
C216 C 0.27864 0.58393 0.84201 0.0
C217 C 0.231 0.61411 0.71627 0.0
N218 N 0.32136 0.62621 0.79923 0.0
N219 N 0.18407 0.58559 0.79325 0.0
H220 H 0.21857 0.63971 0.59344 0.0
H221 H 0.18529 0.61385 0.63429 0.0
H222 H 0.17442 0.56851 0.84131 0.0
H223 H 0.16492 0.59894 0.75613 0.0
H224 H 0.3382 0.61907 0.85181 0.0
H225 H 0.32945 0.64808 0.76364 0.0
H226 H 0.32893 0.56691 0.88415 0.0
H227 H 0.29515 0.54398 0.93302 0.0
C228 C 0.89783 0.78734 0.30027 0.0
C229 C 0.87815 0.76096 0.25967 0.0
C230 C 0.90922 0.71718 0.35269 0.0
C231 C 0.93066 0.74349 0.38706 0.0
N232 N 0.94993 0.8027 0.3824 0.0
N233 N 0.86689 0.70045 0.24043 0.0
C234 C 0.92653 0.77824 0.35668 0.0
C235 C 0.88429 0.72571 0.28403 0.0
N236 N 0.88765 0.82106 0.28995 0.0
N237 N 0.91208 0.68429 0.38763 0.0
H238 H 0.84741 0.70576 0.19288 0.0
H239 H 0.87302 0.67435 0.24757 0.0
H240 H 0.93113 0.67703 0.43507 0.0
H241 H 0.89459 0.66468 0.37331 0.0
H242 H 0.89882 0.84094 0.32553 0.0
H243 H 0.86549 0.82885 0.25353 0.0
H244 H 0.95035 0.82763 0.35456 0.0
H245 H 0.97092 0.79733 0.42571 0.0
C246 C 0.71907 0.41711 0.65951 0.0
C247 C 0.72955 0.38287 0.68574 0.0
C248 C 0.75855 0.40681 0.81489 0.0
C249 C 0.73937 0.43768 0.80275 0.0
N250 N 0.69853 0.4715 0.7119 0.0
N251 N 0.75184 0.34573 0.80836 0.0
C252 C 0.71889 0.44292 0.72417 0.0
C253 C 0.74771 0.37769 0.76856 0.0
N254 N 0.71104 0.42552 0.57307 0.0
N255 N 0.78612 0.40499 0.87326 0.0
H256 H 0.73911 0.3238 0.78664 0.0
H257 H 0.76345 0.34219 0.87123 0.0
H258 H 0.7955 0.42689 0.90418 0.0
H259 H 0.80169 0.38305 0.88139 0.0
H260 H 0.7052 0.45066 0.55082 0.0
H261 H 0.7153 0.40851 0.52276 0.0
H262 H 0.68084 0.47453 0.65869 0.0
H263 H 0.69752 0.49076 0.75805 0.0
C264 C 0.60055 0.27959 0.22153 0.0
C265 C 0.62147 0.25602 0.2734 0.0
C266 C 0.59383 0.20733 0.20017 0.0
C267 C 0.5729 0.23099 0.14917 0.0
N268 N 0.54942 0.28834 0.12689 0.0
N269 N 0.63295 0.19782 0.32741 0.0
C270 C 0.57375 0.26668 0.16597 0.0
C271 C 0.61646 0.2199 0.26763 0.0
N272 N 0.60796 0.31412 0.21976 0.0
N273 N 0.59293 0.17313 0.18162 0.0
H274 H 0.64942 0.20644 0.37786 0.0
H275 H 0.62812 0.17142 0.33179 0.0
H276 H 0.57535 0.16316 0.13536 0.0
H277 H 0.61044 0.15502 0.20893 0.0
H278 H 0.59616 0.33188 0.17525 0.0
H279 H 0.6282 0.32486 0.25671 0.0
H280 H 0.54662 0.31398 0.14363 0.0
H281 H 0.52984 0.27991 0.08387 0.0
C282 C 0.26774 0.1065 0.78514 0.0
C283 C 0.23458 0.12229 0.77598 0.0
C284 C 0.21807 0.08178 0.66179 0.0
C285 C 0.25289 0.07042 0.6597 0.0
N286 N 0.31189 0.07311 0.71573 0.0
N287 N 0.18003 0.12869 0.69468 0.0
C288 C 0.27804 0.0828 0.72106 0.0
C289 C 0.21 0.11066 0.7121 0.0
N290 N 0.28897 0.11354 0.8561 0.0
N291 N 0.19284 0.06519 0.61435 0.0
H292 H 0.1743 0.15144 0.72575 0.0
H293 H 0.16275 0.12328 0.64275 0.0
H294 H 0.19807 0.04376 0.57706 0.0
H295 H 0.16652 0.07044 0.61934 0.0
H296 H 0.31219 0.10061 0.87069 0.0
H297 H 0.28162 0.13003 0.90519 0.0
H298 H 0.33204 0.08438 0.75183 0.0
H299 H 0.32009 0.05514 0.67111 0.0
C300 C 0.40632 0.75583 0.28781 0.0
C301 C 0.38743 0.72456 0.28148 0.0
C302 C 0.42655 0.70588 0.16853 0.0
C303 C 0.44056 0.73961 0.16199 0.0
N304 N 0.44231 0.79796 0.21208 0.0
N305 N 0.3763 0.67189 0.20512 0.0
C306 C 0.43039 0.76494 0.22144 0.0
C307 C 0.39693 0.69985 0.21974 0.0
N308 N 0.40191 0.77628 0.35824 0.0
N309 N 0.44129 0.67981 0.12424 0.0
H310 H 0.35294 0.66798 0.23661 0.0
H311 H 0.38034 0.6548 0.15482 0.0
H312 H 0.46332 0.68354 0.08671 0.0
H313 H 0.43388 0.65408 0.13234 0.0
H314 H 0.4171 0.79791 0.37029 0.0
H315 H 0.38535 0.76959 0.40935 0.0
H316 H 0.43264 0.81832 0.24711 0.0
H317 H 0.46031 0.80543 0.1651 0.0
C318 C 0.74852 0.89903 0.80428 0.0
C319 C 0.78419 0.89311 0.82418 0.0
C320 C 0.79952 0.93958 0.71861 0.0
C321 C 0.76466 0.94027 0.68666 0.0
N322 N 0.70519 0.9226 0.69947 0.0
N323 N 0.84413 0.90877 0.80565 0.0
C324 C 0.73877 0.92103 0.73079 0.0
C325 C 0.80986 0.91428 0.78452 0.0
N326 N 0.7242 0.88366 0.85639 0.0
N327 N 0.82267 0.96281 0.68469 0.0
H328 H 0.85266 0.89166 0.85625 0.0
H329 H 0.86431 0.92002 0.77085 0.0
H330 H 0.81573 0.98124 0.63543 0.0
H331 H 0.84779 0.96588 0.71008 0.0
H332 H 0.69778 0.88891 0.85015 0.0
H333 H 0.73089 0.86793 0.91171 0.0
H334 H 0.68577 0.90606 0.72141 0.0
H335 H 0.69703 0.93971 0.64825 0.0
C336 C 0.90691 0.74169 0.82939 0.0
C337 C 0.89406 0.77599 0.8232 0.0
C338 C 0.93684 0.79091 0.71206 0.0
C339 C 0.94483 0.75546 0.70642 0.0
N340 N 0.93832 0.69659 0.75855 0.0
N341 N 0.89503 0.83317 0.75494 0.0
C342 C 0.93051 0.7307 0.76582 0.0
C343 C 0.90901 0.80085 0.7648 0.0
N344 N 0.89683 0.71994 0.89681 0.0
N345 N 0.95545 0.81487 0.66515 0.0
H346 H 0.87405 0.84116 0.79077 0.0
H347 H 0.90228 0.85119 0.70632 0.0
H348 H 0.97577 0.80809 0.62522 0.0
H349 H 0.95303 0.84135 0.67227 0.0
H350 H 0.90733 0.6955 0.90953 0.0
H351 H 0.88016 0.72776 0.94524 0.0
H352 H 0.92555 0.67675 0.79234 0.0
H353 H 0.95674 0.68807 0.71516 0.0
C354 C 0.70006 0.41728 0.25895 0.0
C355 C 0.71368 0.38312 0.24912 0.0
C356 C 0.74799 0.4063 0.1285 0.0
C357 C 0.72872 0.43713 0.12406 0.0
N358 N 0.68151 0.46991 0.17964 0.0
N359 N 0.73829 0.34577 0.14023 0.0
C360 C 0.70328 0.44221 0.18781 0.0
C361 C 0.73436 0.37762 0.17435 0.0
N362 N 0.68524 0.42695 0.33504 0.0
N363 N 0.7783 0.40382 0.08537 0.0
H364 H 0.72282 0.32476 0.15791 0.0
H365 H 0.75237 0.34206 0.08349 0.0
H366 H 0.78978 0.42542 0.05546 0.0
H367 H 0.79343 0.38149 0.08947 0.0
H368 H 0.67815 0.4524 0.34526 0.0
H369 H 0.68351 0.41143 0.3918 0.0
H370 H 0.66017 0.47262 0.21949 0.0
H371 H 0.68309 0.48856 0.12859 0.0
C372 C 0.11745 0.27049 0.74784 0.0
C373 C 0.12197 0.23477 0.76868 0.0
C374 C 0.07206 0.22146 0.67163 0.0
C375 C 0.07165 0.25622 0.63971 0.0
N376 N 0.09339 0.31427 0.64506 0.0
N377 N 0.10438 0.17557 0.7484 0.0
C378 C 0.09394 0.28099 0.6779 0.0
C379 C 0.09908 0.21006 0.73137 0.0
N380 N 0.13489 0.29431 0.79669 0.0
N381 N 0.04678 0.19927 0.64381 0.0
H382 H 0.12323 0.16573 0.79295 0.0
H383 H 0.09165 0.15634 0.71378 0.0
H384 H 0.02712 0.20655 0.59817 0.0
H385 H 0.04336 0.17462 0.67159 0.0
H386 H 0.13039 0.32074 0.79021 0.0
H387 H 0.1516 0.28743 0.84989 0.0
H388 H 0.11185 0.33264 0.66219 0.0
H389 H 0.0752 0.32307 0.59702 0.0
C390 C 0.28878 0.59805 0.25674 0.0
C391 C 0.26531 0.62276 0.28847 0.0
C392 C 0.21756 0.5968 0.20287 0.0
C393 C 0.24113 0.57263 0.17025 0.0
N394 N 0.29704 0.54496 0.17996 0.0
N395 N 0.20634 0.64036 0.30963 0.0
C396 C 0.27598 0.5714 0.20245 0.0
C397 C 0.22932 0.62052 0.2669 0.0
N398 N 0.32364 0.60125 0.27353 0.0
N399 N 0.18418 0.59774 0.17007 0.0
H400 H 0.2141 0.65771 0.35739 0.0
H401 H 0.17956 0.63761 0.30369 0.0
H402 H 0.17428 0.57933 0.12742 0.0
H403 H 0.16678 0.61743 0.18186 0.0
H404 H 0.34233 0.5872 0.24212 0.0
H405 H 0.33451 0.6197 0.31416 0.0
H406 H 0.32141 0.54024 0.20921 0.0
H407 H 0.28911 0.52575 0.13741 0.0
C408 C 0.39749 0.76044 0.72136 0.0
C409 C 0.39005 0.7251 0.70853 0.0
C410 C 0.43718 0.70837 0.81333 0.0
C411 C 0.44019 0.74325 0.83723 0.0
N412 N 0.42371 0.80289 0.81652 0.0
N413 N 0.40216 0.66484 0.74295 0.0
C414 C 0.42077 0.76951 0.7912 0.0
C415 C 0.41015 0.69884 0.75337 0.0
N416 N 0.38296 0.78516 0.66517 0.0
N417 N 0.46009 0.6844 0.84871 0.0
H418 H 0.3833 0.65643 0.69807 0.0
H419 H 0.41269 0.64483 0.78279 0.0
H420 H 0.47979 0.69047 0.89429 0.0
H421 H 0.46163 0.65924 0.82736 0.0
H422 H 0.38965 0.81115 0.66609 0.0
H423 H 0.36663 0.77919 0.61163 0.0
H424 H 0.40721 0.82261 0.79308 0.0
H425 H 0.44172 0.81054 0.86481 0.0
C426 C 0.77652 0.90662 0.22259 0.0
C427 C 0.76837 0.87147 0.24241 0.0
C428 C 0.73784 0.89026 0.37155 0.0
C429 C 0.7537 0.92318 0.36387 0.0
N430 N 0.79475 0.95985 0.28676 0.0
N431 N 0.74708 0.82979 0.35187 0.0
C432 C 0.77474 0.93083 0.29034 0.0
C433 C 0.75025 0.86312 0.32089 0.0
N434 N 0.78496 0.91725 0.13898 0.0
N435 N 0.71121 0.88476 0.42772 0.0
H436 H 0.75915 0.80898 0.32402 0.0
H437 H 0.73625 0.82345 0.41266 0.0
H438 H 0.70064 0.90452 0.46351 0.0
H439 H 0.69734 0.86168 0.43052 0.0
H440 H 0.7888 0.94316 0.12113 0.0
H441 H 0.78347 0.90101 0.08551 0.0
H442 H 0.81253 0.96448 0.23716 0.0
H443 H 0.79659 0.97718 0.33771 0.0
C444 C 0.61506 0.28304 0.76193 0.0
C445 C 0.63345 0.2586 0.71377 0.0
C446 C 0.60084 0.21143 0.78471 0.0
C447 C 0.5812 0.23609 0.82869 0.0
N448 N 0.56489 0.29524 0.84817 0.0
N449 N 0.64079 0.2002 0.66842 0.0
C450 C 0.58674 0.2719 0.8133 0.0
C451 C 0.6255 0.22292 0.72212 0.0
N452 N 0.62589 0.31664 0.76231 0.0
N453 N 0.59661 0.1771 0.80493 0.0
H454 H 0.65942 0.20777 0.62336 0.0
H455 H 0.63343 0.17448 0.66408 0.0
H456 H 0.5776 0.16784 0.84726 0.0
H457 H 0.61296 0.15795 0.78361 0.0
H458 H 0.61595 0.3349 0.80352 0.0
H459 H 0.64721 0.32565 0.72759 0.0
H460 H 0.56534 0.32154 0.83197 0.0
H461 H 0.54417 0.28798 0.8874 0.0
C462 C 0.21174 0.09869 0.24388 0.0
C463 C 0.23672 0.12157 0.20705 0.0
C464 C 0.28273 0.0936 0.29906 0.0
C465 C 0.25771 0.07112 0.33618 0.0
N466 N 0.20047 0.04638 0.33069 0.0
N467 N 0.2967 0.13485 0.18125 0.0
C468 C 0.22293 0.07162 0.30358 0.0
C469 C 0.27251 0.1172 0.22908 0.0
N470 N 0.17713 0.10404 0.22649 0.0
N471 N 0.31597 0.09308 0.33285 0.0
H472 H 0.29008 0.15171 0.1282 0.0
H473 H 0.32326 0.13045 0.18847 0.0
H474 H 0.32462 0.07483 0.38086 0.0
H475 H 0.33443 0.11163 0.3166 0.0
H476 H 0.15768 0.09128 0.26081 0.0
H477 H 0.16739 0.12302 0.18223 0.0
H478 H 0.17589 0.04302 0.30212 0.0
H479 H 0.20745 0.02674 0.37659 0.0
C480 C 0.2033 0.3595 0.97374 0.0
C481 C 0.23248 0.33794 0.96504 0.0
C482 C 0.27023 0.38856 0.95894 0.0
C483 C 0.24097 0.41051 0.9678 0.0
N484 N 0.17918 0.41561 0.93553 0.0
N485 N 0.29087 0.33304 0.91491 0.0
C486 C 0.20714 0.39584 0.96162 0.0
C487 C 0.2651 0.35278 0.94695 0.0
N488 N 0.17181 0.34537 -0.00835 0.0
N489 N 0.30315 0.40162 0.96269 0.0
H490 H 0.28788 0.30685 0.90347 0.0
H491 H 0.31395 0.3433 0.89159 0.0
H492 H 0.30879 0.42786 0.96425 0.0
H493 H 0.32512 0.38601 0.96895 0.0
H494 H 0.15044 0.36014 0.00734 0.0
H495 H 0.16789 0.31879 -0.00354 0.0
H496 H 0.15444 0.40541 0.92559 0.0
H497 H 0.18162 0.44057 0.90882 0.0
C498 C 0.16066 0.77763 0.4791 0.0
C499 C 0.17285 0.74316 0.47953 0.0
C500 C 0.11328 0.72278 0.46039 0.0
C501 C 0.10079 0.75585 0.48172 0.0
N502 N 0.11268 0.81671 0.49652 0.0
N503 N 0.16079 0.68225 0.47707 0.0
C504 C 0.12456 0.78393 0.48638 0.0
C505 C 0.14917 0.7155 0.47185 0.0
N506 N 0.18345 0.80428 0.46723 0.0
N507 N 0.09153 0.69922 0.42324 0.0
H508 H 0.18696 0.67605 0.48585 0.0
H509 H 0.14418 0.66108 0.4804 0.0
H510 H 0.06618 0.70529 0.40262 0.0
H511 H 0.10008 0.67566 0.40096 0.0
H512 H 0.17604 0.82997 0.45769 0.0
H513 H 0.20984 0.80044 0.45844 0.0
H514 H 0.12862 0.83715 0.51431 0.0
H515 H 0.08665 0.82362 0.4885 0.0
C516 C 0.81603 0.65104 0.01213 0.0
C517 C 0.78511 0.6681 0.98192 0.0
C518 C 0.76562 0.61517 0.91299 0.0
C519 C 0.79189 0.59626 0.96113 0.0
N520 N 0.84622 0.59715 0.04507 0.0
N521 N 0.72844 0.66519 0.91063 0.0
C522 C 0.81842 0.6145 0.00729 0.0
C523 C 0.75938 0.64987 0.93387 0.0
N524 N 0.84386 0.67 0.04004 0.0
N525 N 0.74774 0.6006 0.84456 0.0
H526 H 0.72238 0.69023 0.92766 0.0
H527 H 0.70766 0.65181 0.88262 0.0
H528 H 0.75398 0.57636 0.82181 0.0
H529 H 0.73013 0.61433 0.80327 0.0
H530 H 0.86837 0.65967 0.05419 0.0
H531 H 0.84335 0.69683 0.04133 0.0
H532 H 0.86331 0.60793 0.09096 0.0
H533 H 0.85217 0.57175 0.0311 0.0
C534 C 0.85368 0.32545 0.50906 0.0
C535 C 0.84007 0.2974 0.46091 0.0
C536 C 0.89661 0.29007 0.39422 0.0
C537 C 0.9119 0.31241 0.45661 0.0
N538 N 0.90393 0.35676 0.56273 0.0
N539 N 0.84948 0.25145 0.35999 0.0
C540 C 0.89011 0.33177 0.5109 0.0
C541 C 0.86169 0.27948 0.40348 0.0
N542 N 0.83151 0.34744 0.54804 0.0
N543 N 0.91507 0.27998 0.32388 0.0
H544 H 0.82401 0.24282 0.36279 0.0
H545 H 0.86548 0.23499 0.32659 0.0
H546 H 0.94002 0.28892 0.31183 0.0
H547 H 0.90419 0.26632 0.27186 0.0
H548 H 0.83922 0.37029 0.57679 0.0
H549 H 0.80464 0.34474 0.54441 0.0
H550 H 0.89097 0.36731 0.61476 0.0
H551 H 0.92843 0.36732 0.55357 0.0
C552 C 0.78119 0.15684 0.46938 0.0
C553 C 0.74729 0.16859 0.48522 0.0
C554 C 0.73029 0.10964 0.52578 0.0
C555 C 0.76127 0.0969 0.49003 0.0
N556 N 0.81826 0.10944 0.43373 0.0
N557 N 0.68788 0.15549 0.51703 0.0
C558 C 0.78735 0.12087 0.4635 0.0
C559 C 0.72128 0.14477 0.5098 0.0
N560 N 0.8079 0.17992 0.46494 0.0
N561 N 0.711 0.08944 0.58118 0.0
H562 H 0.68041 0.181 0.50358 0.0
H563 H 0.66742 0.13842 0.52752 0.0
H564 H 0.71975 0.06569 0.60723 0.0
H565 H 0.68937 0.09865 0.61258 0.0
H566 H 0.83384 0.17277 0.46236 0.0
H567 H 0.80448 0.20623 0.47339 0.0
H568 H 0.83583 0.12552 0.40147 0.0
H569 H 0.82611 0.08373 0.43835 0.0
C570 C 0.36126 0.20104 0.00131 0.0
C571 C 0.33985 0.23058 0.00332 0.0
C572 C 0.39102 0.26776 0.00289 0.0
C573 C 0.41276 0.23811 -6e-05 0.0
N574 N 0.41728 0.17763 0.04531 0.0
N575 N 0.33518 0.29012 0.04146 0.0
C576 C 0.39773 0.20483 0.01313 0.0
C577 C 0.35496 0.26341 0.01491 0.0
N578 N 0.34687 0.16933 -0.01028 0.0
N579 N 0.40461 0.30022 -0.00601 0.0
H580 H 0.30885 0.28758 0.05364 0.0
H581 H 0.34551 0.3137 0.06 0.0
H582 H 0.43109 0.30538 -0.00699 0.0
H583 H 0.38927 0.32217 0.98334 0.0
H584 H 0.36161 0.14744 0.9791 0.0
H585 H 0.32015 0.1656 0.98477 0.0
H586 H 0.40678 0.15346 0.06054 0.0
H587 H 0.44236 0.18063 0.07119 0.0
C588 C 0.27759 0.85785 0.55354 0.0
C589 C 0.29702 0.83816 0.49479 0.0
C590 C 0.33178 0.88956 0.45732 0.0
C591 C 0.31031 0.90973 0.51022 0.0
N592 N 0.27393 0.90973 0.63702 0.0
N593 N 0.34108 0.83565 0.38516 0.0
C594 C 0.2864 0.89291 0.56667 0.0
C595 C 0.32363 0.85415 0.44489 0.0
N596 N 0.24945 0.84358 0.59372 0.0
N597 N 0.36184 0.90331 0.42589 0.0
H598 H 0.3377 0.8093 0.37779 0.0
H599 H 0.3573 0.84678 0.3384 0.0
H600 H 0.37084 0.9277 0.44197 0.0
H601 H 0.38031 0.8892 0.39389 0.0
H602 H 0.23174 0.85787 0.62794 0.0
H603 H 0.24172 0.81811 0.5861 0.0
H604 H 0.25923 0.89777 0.68586 0.0
H605 H 0.28188 0.93448 0.65314 0.0
C606 C 0.65891 0.81745 0.02164 0.0
C607 C 0.67206 0.78967 0.97381 0.0
C608 C 0.61328 0.77614 0.92002 0.0
C609 C 0.59972 0.79969 0.98007 0.0
N610 N 0.60954 0.85324 0.05309 0.0
N611 N 0.66241 0.74246 0.87664 0.0
C612 C 0.62252 0.8235 0.02105 0.0
C613 C 0.64947 0.76928 0.92169 0.0
N614 N 0.68128 0.83783 0.06834 0.0
N615 N 0.59186 0.76227 0.8572 0.0
H616 H 0.68886 0.73762 0.87296 0.0
H617 H 0.64693 0.72379 0.84733 0.0
H618 H 0.56606 0.76968 0.84843 0.0
H619 H 0.60046 0.74718 0.80669 0.0
H620 H 0.6735 0.85523 0.11465 0.0
H621 H 0.70811 0.83647 0.06318 0.0
H622 H 0.62481 0.87306 0.07754 0.0
H623 H 0.58352 0.86022 0.04548 0.0
loop_
_geom_bond_atom_site_label_1
_geom_bond_atom_site_label_2
_geom_bond_distance
_geom_bond_site_symmetry_2
_ccdc_geom_bond_type
Sc0 O3 2.025 . S
Sc0 O10 2.105 . S
Sc0 O13 2.105 . S
Sc0 O16 2.105 . S
Sc0 O19 2.105 . S
Sc1 O3 2.025 . S
Sc1 O11 2.105 . S
Sc1 O15 2.105 1_554 S
Sc1 O17 2.105 . S
Sc1 O21 2.105 1_554 S
Sc2 O3 2.025 1_556 S
Sc2 O12 2.105 . S
Sc2 O14 2.105 . S
Sc2 O18 2.105 . S
Sc2 O20 2.105 . S
O3 Sc0 2.025 . S
O3 Sc1 2.025 . S
O3 Sc2 2.025 1_554 S
C4 O10 1.268 . S
C4 O20 1.268 1_554 S
C5 O11 1.268 . S
C5 O19 1.268 . S
C6 O12 1.268 . S
C6 O21 1.268 . S
C7 O13 1.268 . S
C7 O17 1.268 . S
C8 O14 1.268 1_554 S
C8 O16 1.268 . S
C9 O15 1.268 . S
C9 O18 1.268 . S
O10 Sc0 2.105 . S
O10 C4 1.268 . S
O11 Sc1 2.105 . S
O11 C5 1.268 . S
O12 Sc2 2.105 . S
O12 C6 1.268 . S
O13 Sc0 2.105 . S
O13 C7 1.268 . S
O14 Sc2 2.105 . S
O14 C8 1.268 1_556 S
O15 Sc1 2.105 1_556 S
O15 C9 1.268 . S
O16 Sc0 2.105 . S
O16 C8 1.268 . S
O17 Sc1 2.105 . S
O17 C7 1.268 . S
O18 Sc2 2.105 . S
O18 C9 1.268 . S
O19 Sc0 2.105 . S
O19 C5 1.268 . S
O20 Sc2 2.105 . S
O20 C4 1.268 1_556 S
O21 Sc1 2.105 1_556 S
O21 C6 1.268 . S
Sc22 O25 2.025 . S
Sc22 O32 2.105 . S
Sc22 O35 2.105 . S
Sc22 O38 2.105 . S
Sc22 O41 2.105 . S
Sc23 O25 2.025 . S
Sc23 O33 2.105 . S
Sc23 O37 2.105 . S
Sc23 O39 2.105 . S
Sc23 O43 2.105 . S
Sc24 O25 2.025 . S
Sc24 O34 2.105 . S
Sc24 O36 2.105 . S
Sc24 O40 2.105 . S
Sc24 O42 2.105 . S
O25 Sc22 2.025 . S
O25 Sc23 2.025 . S
O25 Sc24 2.025 . S
C26 O32 1.268 . S
C26 O42 1.268 . S
C27 O33 1.268 . S
C27 O41 1.268 . S
C28 O34 1.268 . S
C28 O43 1.268 . S
C29 O35 1.268 . S
C29 O39 1.268 . S
C30 O36 1.268 . S
C30 O38 1.268 . S
C31 O37 1.268 . S
C31 O40 1.268 . S
O32 Sc22 2.105 . S
O32 C26 1.268 . S
O33 Sc23 2.105 . S
O33 C27 1.268 . S
O34 Sc24 2.105 . S
O34 C28 1.268 . S
O35 Sc22 2.105 . S
O35 C29 1.268 . S
O36 Sc24 2.105 . S
O36 C30 1.268 . S
O37 Sc23 2.105 . S
O37 C31 1.268 . S
O38 Sc22 2.105 . S
O38 C30 1.268 . S
O39 Sc23 2.105 . S
O39 C29 1.268 . S
O40 Sc24 2.105 . S
O40 C31 1.268 . S
O41 Sc22 2.105 . S
O41 C27 1.268 . S
O42 Sc24 2.105 . S
O42 C26 1.268 . S
O43 Sc23 2.105 . S
O43 C28 1.268 . S
Sc44 O47 2.025 1_556 S
Sc44 O54 2.105 . S
Sc44 O57 2.105 . S
Sc44 O60 2.105 . S
Sc44 O63 2.105 . S
Sc45 O47 2.025 . S
Sc45 O55 2.105 1_554 S
Sc45 O59 2.105 . S
Sc45 O61 2.105 1_554 S
Sc45 O65 2.105 . S
Sc46 O47 2.025 . S
Sc46 O56 2.105 . S
Sc46 O58 2.105 . S
Sc46 O62 2.105 . S
Sc46 O64 2.105 . S
O47 Sc44 2.025 1_554 S
O47 Sc45 2.025 . S
O47 Sc46 2.025 . S
C48 O54 1.268 1_554 S
C48 O64 1.268 . S
C49 O55 1.268 . S
C49 O63 1.268 . S
C50 O56 1.268 . S
C50 O65 1.268 . S
C51 O57 1.268 . S
C51 O61 1.268 . S
C52 O58 1.268 . S
C52 O60 1.268 1_554 S
C53 O59 1.268 . S
C53 O62 1.268 . S
O54 Sc44 2.105 . S
O54 C48 1.268 1_556 S
O55 Sc45 2.105 1_556 S
O55 C49 1.268 . S
O56 Sc46 2.105 . S
O56 C50 1.268 . S
O57 Sc44 2.105 . S
O57 C51 1.268 . S
O58 Sc46 2.105 . S
O58 C52 1.268 . S
O59 Sc45 2.105 . S
O59 C53 1.268 . S
O60 Sc44 2.105 . S
O60 C52 1.268 1_556 S
O61 Sc45 2.105 1_556 S
O61 C51 1.268 . S
O62 Sc46 2.105 . S
O62 C53 1.268 . S
O63 Sc44 2.105 . S
O63 C49 1.268 . S
O64 Sc46 2.105 . S
O64 C48 1.268 . S
O65 Sc45 2.105 . S
O65 C50 1.268 . S
Sc66 O69 2.025 . S
Sc66 O76 2.105 . S
Sc66 O79 2.105 . S
Sc66 O82 2.105 . S
Sc66 O85 2.105 . S
Sc67 O69 2.025 . S
Sc67 O77 2.105 . S
Sc67 O81 2.105 . S
Sc67 O83 2.105 . S
Sc67 O87 2.105 . S
Sc68 O69 2.025 . S
Sc68 O78 2.105 . S
Sc68 O80 2.105 . S
Sc68 O84 2.105 . S
Sc68 O86 2.105 . S
O69 Sc66 2.025 . S
O69 Sc67 2.025 . S
O69 Sc68 2.025 . S
C70 O76 1.268 . S
C70 O86 1.268 . S
C71 O77 1.268 . S
C71 O85 1.268 . S
C72 O78 1.268 . S
C72 O87 1.268 . S
C73 O79 1.268 . S
C73 O83 1.268 . S
C74 O80 1.268 . S
C74 O82 1.268 . S
C75 O81 1.268 . S
C75 O84 1.268 . S
O76 Sc66 2.105 . S
O76 C70 1.268 . S
O77 Sc67 2.105 . S
O77 C71 1.268 . S
O78 Sc68 2.105 . S
O78 C72 1.268 . S
O79 Sc66 2.105 . S
O79 C73 1.268 . S
O80 Sc68 2.105 . S
O80 C74 1.268 . S
O81 Sc67 2.105 . S
O81 C75 1.268 . S
O82 Sc66 2.105 . S
O82 C74 1.268 . S
O83 Sc67 2.105 . S
O83 C73 1.268 . S
O84 Sc68 2.105 . S
O84 C75 1.268 . S
O85 Sc66 2.105 . S
O85 C71 1.268 . S
O86 Sc68 2.105 . S
O86 C70 1.268 . S
O87 Sc67 2.105 . S
O87 C72 1.268 . S
H88 C95 0.929 . S
H89 C98 0.930 . S
H90 C100 0.929 . S
H91 C92 0.969 . S
C92 H91 0.969 . S
C92 O93 1.550 1_556 S
C92 H94 0.973 . S
O93 C92 1.550 1_554 S
O93 C99 1.412 . S
H94 C92 0.973 . S
C95 H88 0.929 . S
C95 C96 1.400 . S
C95 C97 1.364 1_554 S
C96 C95 1.400 . S
C96 C100 1.377 . S
C97 C95 1.364 1_556 S
C97 C98 1.374 . S
C98 H89 0.930 . S
C98 C97 1.374 . S
C98 C99 1.383 1_556 S
C99 O93 1.412 . S
C99 C98 1.383 1_554 S
C99 C100 1.394 . S
C100 H90 0.929 . S
C100 C96 1.377 . S
C100 C99 1.394 . S
H101 C108 0.929 . S
H102 C111 0.930 . S
H103 C113 0.929 . S
H104 C105 0.969 . S
C105 H104 0.969 . S
C105 O106 1.550 . S
C105 H107 0.973 . S
O106 C105 1.550 . S
O106 C112 1.423 . S
H107 C105 0.973 . S
C108 H101 0.929 . S
C108 C109 1.400 . S
C108 C110 1.364 . S
C109 C108 1.400 . S
C109 C113 1.377 . S
C110 C108 1.364 . S
C110 C111 1.374 . S
C111 H102 0.930 . S
C111 C110 1.374 . S
C111 C112 1.378 1_655 S
C112 O106 1.423 . S
C112 C111 1.378 1_455 S
C112 C113 1.387 1_455 S
C113 H103 0.929 . S
C113 C109 1.377 . S
C113 C112 1.387 1_655 S
H114 C121 0.929 . S
H115 C124 0.930 . S
H116 C126 0.929 . S
H117 C118 0.969 . S
C118 H117 0.969 . S
C118 O119 1.550 1_554 S
C118 H120 0.973 . S
O119 C118 1.550 1_556 S
O119 C125 1.412 . S
H120 C118 0.973 . S
C121 H114 0.929 . S
C121 C122 1.400 1_554 S
C121 C123 1.364 . S
C122 C121 1.400 1_556 S
C122 C126 1.377 . S
C123 C121 1.364 . S
C123 C124 1.374 . S
C124 H115 0.930 . S
C124 C123 1.374 . S
C124 C125 1.383 1_554 S
C125 O119 1.412 . S
C125 C124 1.383 1_556 S
C125 C126 1.394 . S
C126 H116 0.929 . S
C126 C122 1.377 . S
C126 C125 1.394 . S
H127 C134 0.929 . S
H128 C137 0.930 . S
H129 C139 0.929 . S
H130 C131 0.969 . S
C131 H130 0.969 . S
C131 O132 1.550 . S
C131 H133 0.973 . S
O132 C131 1.550 . S
O132 C138 1.402 1_655 S
H133 C131 0.973 . S
C134 H127 0.929 . S
C134 C135 1.400 . S
C134 C136 1.364 . S
C135 C134 1.400 . S
C135 C139 1.377 . S
C136 C134 1.364 . S
C136 C137 1.374 . S
C137 H128 0.930 . S
C137 C136 1.374 . S
C137 C138 1.387 . S
C138 O132 1.402 1_455 S
C138 C137 1.387 . S
C138 C139 1.401 . S
C139 H129 0.929 . S
C139 C135 1.377 . S
C139 C138 1.401 . S
H140 C147 0.929 . S
H141 C150 0.930 . S
H142 C152 0.929 . S
H143 C144 0.969 . S
C144 H143 0.969 . S
C144 O145 1.550 . S
C144 H146 0.973 . S
O145 C144 1.550 . S
O145 C151 1.413 1_545 S
H146 C144 0.973 . S
C147 H140 0.929 . S
C147 C148 1.400 . S
C147 C149 1.364 . S
C148 C147 1.400 . S
C148 C152 1.377 . S
C149 C147 1.364 . S
C149 C150 1.374 . S
C150 H141 0.930 . S
C150 C149 1.374 . S
C150 C151 1.383 . S
C151 O145 1.413 1_565 S
C151 C150 1.383 . S
C151 C152 1.394 . S
C152 H142 0.929 . S
C152 C148 1.377 . S
C152 C151 1.394 . S
H153 C160 0.929 . S
H154 C163 0.930 . S
H155 C165 0.929 . S
H156 C157 0.969 . S
C157 H156 0.969 . S
C157 O158 1.550 1_554 S
C157 H159 0.973 . S
O158 C157 1.550 1_556 S
O158 C164 1.412 . S
H159 C157 0.973 . S
C160 H153 0.929 . S
C160 C161 1.400 1_554 S
C160 C162 1.364 . S
C161 C160 1.400 1_556 S
C161 C165 1.377 . S
C162 C160 1.364 . S
C162 C163 1.374 . S
C163 H154 0.930 . S
C163 C162 1.374 . S
C163 C164 1.383 1_554 S
C164 O158 1.412 . S
C164 C163 1.383 1_556 S
C164 C165 1.394 . S
C165 H155 0.929 . S
C165 C161 1.377 . S
C165 C164 1.394 . S
H166 C173 0.929 . S
H167 C176 0.951 . S
H168 C178 0.929 . S
H169 C170 0.969 . S
C170 H169 0.969 . S
C170 O171 1.550 . S
C170 H172 0.973 . S
O171 C170 1.550 . S
O171 C177 1.414 . S
H172 C170 0.973 . S
C173 H166 0.929 . S
C173 C174 1.400 . S
C173 C175 1.364 . S
C174 C173 1.400 . S
C174 C178 1.377 . S
C175 C173 1.364 . S
C175 C176 1.374 . S
C176 H167 0.951 . S
C176 C175 1.374 . S
C176 C177 1.382 1_545 S
C177 O171 1.414 . S
C177 C176 1.382 1_565 S
C177 C178 1.393 1_565 S
C178 H168 0.929 . S
C178 C174 1.377 . S
C178 C177 1.393 1_545 S
H179 C186 0.929 . S
H180 C189 0.930 . S
H181 C191 0.929 . S
H182 C183 0.969 . S
C183 H182 0.969 . S
C183 O184 1.550 1_556 S
C183 H185 0.973 . S
O184 C183 1.550 1_554 S
O184 C190 1.412 . S
H185 C183 0.973 . S
C186 H179 0.929 . S
C186 C187 1.400 . S
C186 C188 1.364 1_554 S
C187 C186 1.400 . S
C187 C191 1.377 . S
C188 C186 1.364 1_556 S
C188 C189 1.374 . S
C189 H180 0.930 . S
C189 C188 1.374 . S
C189 C190 1.383 1_556 S
C190 O184 1.412 . S
C190 C189 1.383 1_554 S
C190 C191 1.394 . S
C191 H181 0.929 . S
C191 C187 1.377 . S
C191 C190 1.394 . S
C192 C193 1.363 . S
C192 C198 1.379 . S
C192 N200 1.356 . S
C193 C192 1.363 . S
C193 C199 1.363 . S
C194 C195 1.363 . S
C194 C199 1.379 . S
C194 N201 1.356 . S
C195 C194 1.363 . S
C195 C198 1.363 . S
N196 C198 1.356 . S
N196 H208 0.984 . S
N196 H209 0.985 . S
N197 C199 1.356 . S
N197 H202 0.984 . S
N197 H203 0.985 . S
C198 C192 1.379 . S
C198 C195 1.363 . S
C198 N196 1.356 . S
C199 C193 1.363 . S
C199 C194 1.379 . S
C199 N197 1.356 . S
N200 C192 1.356 . S
N200 H206 0.984 . S
N200 H207 0.984 . S
N201 C194 1.356 . S
N201 H204 0.984 . S
N201 H205 0.985 . S
H202 N197 0.984 . S
H203 N197 0.985 . S
H204 N201 0.984 . S
H205 N201 0.985 . S
H206 N200 0.984 . S
H207 N200 0.984 . S
H208 N196 0.984 . S
H209 N196 0.985 . S
C210 C211 1.363 . S
C210 C216 1.379 . S
C210 N218 1.356 . S
C211 C210 1.363 . S
C211 C217 1.363 . S
C212 C213 1.363 . S
C212 C217 1.379 . S
C212 N219 1.356 . S
C213 C212 1.363 . S
C213 C216 1.363 . S
N214 C216 1.356 . S
N214 H226 0.984 . S
N214 H227 0.985 . S
N215 C217 1.356 . S
N215 H220 0.984 . S
N215 H221 0.985 . S
C216 C210 1.379 . S
C216 C213 1.363 . S
C216 N214 1.356 . S
C217 C211 1.363 . S
C217 C212 1.379 . S
C217 N215 1.356 . S
N218 C210 1.356 . S
N218 H224 0.984 . S
N218 H225 0.984 . S
N219 C212 1.356 . S
N219 H222 0.984 . S
N219 H223 0.985 . S
H220 N215 0.984 . S
H221 N215 0.985 . S
H222 N219 0.984 . S
H223 N219 0.985 . S
H224 N218 0.984 . S
H225 N218 0.984 . S
H226 N214 0.984 . S
H227 N214 0.985 . S
C228 C229 1.363 . S
C228 C234 1.379 . S
C228 N236 1.356 . S
C229 C228 1.363 . S
C229 C235 1.363 . S
C230 C231 1.363 . S
C230 C235 1.379 . S
C230 N237 1.356 . S
C231 C230 1.363 . S
C231 C234 1.363 . S
N232 C234 1.356 . S
N232 H244 0.984 . S
N232 H245 0.985 . S
N233 C235 1.356 . S
N233 H238 0.984 . S
N233 H239 0.985 . S
C234 C228 1.379 . S
C234 C231 1.363 . S
C234 N232 1.356 . S
C235 C229 1.363 . S
C235 C230 1.379 . S
C235 N233 1.356 . S
N236 C228 1.356 . S
N236 H242 0.984 . S
N236 H243 0.984 . S
N237 C230 1.356 . S
N237 H240 0.984 . S
N237 H241 0.985 . S
H238 N233 0.984 . S
H239 N233 0.985 . S
H240 N237 0.984 . S
H241 N237 0.985 . S
H242 N236 0.984 . S
H243 N236 0.984 . S
H244 N232 0.984 . S
H245 N232 0.985 . S
C246 C247 1.363 . S
C246 C252 1.379 . S
C246 N254 1.356 . S
C247 C246 1.363 . S
C247 C253 1.363 . S
C248 C249 1.363 . S
C248 C253 1.379 . S
C248 N255 1.356 . S
C249 C248 1.363 . S
C249 C252 1.363 . S
N250 C252 1.356 . S
N250 H262 0.984 . S
N250 H263 0.985 . S
N251 C253 1.356 . S
N251 H256 0.984 . S
N251 H257 0.985 . S
C252 C246 1.379 . S
C252 C249 1.363 . S
C252 N250 1.356 . S
C253 C247 1.363 . S
C253 C248 1.379 . S
C253 N251 1.356 . S
N254 C246 1.356 . S
N254 H260 0.984 . S
N254 H261 0.984 . S
N255 C248 1.356 . S
N255 H258 0.984 . S
N255 H259 0.985 . S
H256 N251 0.984 . S
H257 N251 0.985 . S
H258 N255 0.984 . S
H259 N255 0.985 . S
H260 N254 0.984 . S
H261 N254 0.984 . S
H262 N250 0.984 . S
H263 N250 0.985 . S
C264 C265 1.363 . S
C264 C270 1.379 . S
C264 N272 1.356 . S
C265 C264 1.363 . S
C265 C271 1.363 . S
C266 C267 1.363 . S
C266 C271 1.379 . S
C266 N273 1.356 . S
C267 C266 1.363 . S
C267 C270 1.363 . S
N268 C270 1.356 . S
N268 H280 0.984 . S
N268 H281 0.985 . S
N269 C271 1.356 . S
N269 H274 0.984 . S
N269 H275 0.985 . S
C270 C264 1.379 . S
C270 C267 1.363 . S
C270 N268 1.356 . S
C271 C265 1.363 . S
C271 C266 1.379 . S
C271 N269 1.356 . S
N272 C264 1.356 . S
N272 H278 0.984 . S
N272 H279 0.984 . S
N273 C266 1.356 . S
N273 H276 0.984 . S
N273 H277 0.985 . S
H274 N269 0.984 . S
H275 N269 0.985 . S
H276 N273 0.984 . S
H277 N273 0.985 . S
H278 N272 0.984 . S
H279 N272 0.984 . S
H280 N268 0.984 . S
H281 N268 0.985 . S
C282 C283 1.363 . S
C282 C288 1.379 . S
C282 N290 1.356 . S
C283 C282 1.363 . S
C283 C289 1.363 . S
C284 C285 1.363 . S
C284 C289 1.379 . S
C284 N291 1.356 . S
C285 C284 1.363 . S
C285 C288 1.363 . S
N286 C288 1.356 . S
N286 H298 0.984 . S
N286 H299 0.985 . S
N287 C289 1.356 . S
N287 H292 0.984 . S
N287 H293 0.985 . S
C288 C282 1.379 . S
C288 C285 1.363 . S
C288 N286 1.356 . S
C289 C283 1.363 . S
C289 C284 1.379 . S
C289 N287 1.356 . S
N290 C282 1.356 . S
N290 H296 0.984 . S
N290 H297 0.984 . S
N291 C284 1.356 . S
N291 H294 0.984 . S
N291 H295 0.985 . S
H292 N287 0.984 . S
H293 N287 0.985 . S
H294 N291 0.984 . S
H295 N291 0.985 . S
H296 N290 0.984 . S
H297 N290 0.984 . S
H298 N286 0.984 . S
H299 N286 0.985 . S
C300 C301 1.363 . S
C300 C306 1.379 . S
C300 N308 1.356 . S
C301 C300 1.363 . S
C301 C307 1.363 . S
C302 C303 1.363 . S
C302 C307 1.379 . S
C302 N309 1.356 . S
C303 C302 1.363 . S
C303 C306 1.363 . S
N304 C306 1.356 . S
N304 H316 0.984 . S
N304 H317 0.985 . S
N305 C307 1.356 . S
N305 H310 0.984 . S
N305 H311 0.985 . S
C306 C300 1.379 . S
C306 C303 1.363 . S
C306 N304 1.356 . S
C307 C301 1.363 . S
C307 C302 1.379 . S
C307 N305 1.356 . S
N308 C300 1.356 . S
N308 H314 0.984 . S
N308 H315 0.984 . S
N309 C302 1.356 . S
N309 H312 0.984 . S
N309 H313 0.985 . S
H310 N305 0.984 . S
H311 N305 0.985 . S
H312 N309 0.984 . S
H313 N309 0.985 . S
H314 N308 0.984 . S
H315 N308 0.984 . S
H316 N304 0.984 . S
H317 N304 0.985 . S
C318 C319 1.363 . S
C318 C324 1.379 . S
C318 N326 1.356 . S
C319 C318 1.363 . S
C319 C325 1.363 . S
C320 C321 1.363 . S
C320 C325 1.379 . S
C320 N327 1.356 . S
C321 C320 1.363 . S
C321 C324 1.363 . S
N322 C324 1.356 . S
N322 H334 0.984 . S
N322 H335 0.985 . S
N323 C325 1.356 . S
N323 H328 0.984 . S
N323 H329 0.985 . S
C324 C318 1.379 . S
C324 C321 1.363 . S
C324 N322 1.356 . S
C325 C319 1.363 . S
C325 C320 1.379 . S
C325 N323 1.356 . S
N326 C318 1.356 . S
N326 H332 0.984 . S
N326 H333 0.984 . S
N327 C320 1.356 . S
N327 H330 0.984 . S
N327 H331 0.985 . S
H328 N323 0.984 . S
H329 N323 0.985 . S
H330 N327 0.984 . S
H331 N327 0.985 . S
H332 N326 0.984 . S
H333 N326 0.984 . S
H334 N322 0.984 . S
H335 N322 0.985 . S
C336 C337 1.363 . S
C336 C342 1.379 . S
C336 N344 1.356 . S
C337 C336 1.363 . S
C337 C343 1.363 . S
C338 C339 1.363 . S
C338 C343 1.379 . S
C338 N345 1.356 . S
C339 C338 1.363 . S
C339 C342 1.363 . S
N340 C342 1.356 . S
N340 H352 0.984 . S
N340 H353 0.985 . S
N341 C343 1.356 . S
N341 H346 0.984 . S
N341 H347 0.985 . S
C342 C336 1.379 . S
C342 C339 1.363 . S
C342 N340 1.356 . S
C343 C337 1.363 . S
C343 C338 1.379 . S
C343 N341 1.356 . S
N344 C336 1.356 . S
N344 H350 0.984 . S
N344 H351 0.984 . S
N345 C338 1.356 . S
N345 H348 0.984 . S
N345 H349 0.985 . S
H346 N341 0.984 . S
H347 N341 0.985 . S
H348 N345 0.984 . S
H349 N345 0.985 . S
H350 N344 0.984 . S
H351 N344 0.984 . S
H352 N340 0.984 . S
H353 N340 0.985 . S
C354 C355 1.363 . S
C354 C360 1.379 . S
C354 N362 1.356 . S
C355 C354 1.363 . S
C355 C361 1.363 . S
C356 C357 1.363 . S
C356 C361 1.379 . S
C356 N363 1.356 . S
C357 C356 1.363 . S
C357 C360 1.363 . S
N358 C360 1.356 . S
N358 H370 0.984 . S
N358 H371 0.985 . S
N359 C361 1.356 . S
N359 H364 0.984 . S
N359 H365 0.985 . S
C360 C354 1.379 . S
C360 C357 1.363 . S
C360 N358 1.356 . S
C361 C355 1.363 . S
C361 C356 1.379 . S
C361 N359 1.356 . S
N362 C354 1.356 . S
N362 H368 0.984 . S
N362 H369 0.984 . S
N363 C356 1.356 . S
N363 H366 0.984 . S
N363 H367 0.985 . S
H364 N359 0.984 . S
H365 N359 0.985 . S
H366 N363 0.984 . S
H367 N363 0.985 . S
H368 N362 0.984 . S
H369 N362 0.984 . S
H370 N358 0.984 . S
H371 N358 0.985 . S
C372 C373 1.363 . S
C372 C378 1.379 . S
C372 N380 1.356 . S
C373 C372 1.363 . S
C373 C379 1.363 . S
C374 C375 1.363 . S
C374 C379 1.379 . S
C374 N381 1.356 . S
C375 C374 1.363 . S
C375 C378 1.363 . S
N376 C378 1.356 . S
N376 H388 0.984 . S
N376 H389 0.985 . S
N377 C379 1.356 . S
N377 H382 0.984 . S
N377 H383 0.985 . S
C378 C372 1.379 . S
C378 C375 1.363 . S
C378 N376 1.356 . S
C379 C373 1.363 . S
C379 C374 1.379 . S
C379 N377 1.356 . S
N380 C372 1.356 . S
N380 H386 0.984 . S
N380 H387 0.984 . S
N381 C374 1.356 . S
N381 H384 0.984 . S
N381 H385 0.985 . S
H382 N377 0.984 . S
H383 N377 0.985 . S
H384 N381 0.984 . S
H385 N381 0.985 . S
H386 N380 0.984 . S
H387 N380 0.984 . S
H388 N376 0.984 . S
H389 N376 0.985 . S
C390 C391 1.363 . S
C390 C396 1.379 . S
C390 N398 1.356 . S
C391 C390 1.363 . S
C391 C397 1.363 . S
C392 C393 1.363 . S
C392 C397 1.379 . S
C392 N399 1.356 . S
C393 C392 1.363 . S
C393 C396 1.363 . S
N394 C396 1.356 . S
N394 H406 0.984 . S
N394 H407 0.985 . S
N395 C397 1.356 . S
N395 H400 0.984 . S
N395 H401 0.985 . S
C396 C390 1.379 . S
C396 C393 1.363 . S
C396 N394 1.356 . S
C397 C391 1.363 . S
C397 C392 1.379 . S
C397 N395 1.356 . S
N398 C390 1.356 . S
N398 H404 0.984 . S
N398 H405 0.984 . S
N399 C392 1.356 . S
N399 H402 0.984 . S
N399 H403 0.985 . S
H400 N395 0.984 . S
H401 N395 0.985 . S
H402 N399 0.984 . S
H403 N399 0.985 . S
H404 N398 0.984 . S
H405 N398 0.984 . S
H406 N394 0.984 . S
H407 N394 0.985 . S
C408 C409 1.363 . S
C408 C414 1.379 . S
C408 N416 1.356 . S
C409 C408 1.363 . S
C409 C415 1.363 . S
C410 C411 1.363 . S
C410 C415 1.379 . S
C410 N417 1.356 . S
C411 C410 1.363 . S
C411 C414 1.363 . S
N412 C414 1.356 . S
N412 H424 0.984 . S
N412 H425 0.985 . S
N413 C415 1.356 . S
N413 H418 0.984 . S
N413 H419 0.985 . S
C414 C408 1.379 . S
C414 C411 1.363 . S
C414 N412 1.356 . S
C415 C409 1.363 . S
C415 C410 1.379 . S
C415 N413 1.356 . S
N416 C408 1.356 . S
N416 H422 0.984 . S
N416 H423 0.984 . S
N417 C410 1.356 . S
N417 H420 0.984 . S
N417 H421 0.985 . S
H418 N413 0.984 . S
H419 N413 0.985 . S
H420 N417 0.984 . S
H421 N417 0.985 . S
H422 N416 0.984 . S
H423 N416 0.984 . S
H424 N412 0.984 . S
H425 N412 0.985 . S
C426 C427 1.363 . S
C426 C432 1.379 . S
C426 N434 1.356 . S
C427 C426 1.363 . S
C427 C433 1.363 . S
C428 C429 1.363 . S
C428 C433 1.379 . S
C428 N435 1.356 . S
C429 C428 1.363 . S
C429 C432 1.363 . S
N430 C432 1.356 . S
N430 H442 0.984 . S
N430 H443 0.985 . S
N431 C433 1.356 . S
N431 H436 0.984 . S
N431 H437 0.985 . S
C432 C426 1.379 . S
C432 C429 1.363 . S
C432 N430 1.356 . S
C433 C427 1.363 . S
C433 C428 1.379 . S
C433 N431 1.356 . S
N434 C426 1.356 . S
N434 H440 0.984 . S
N434 H441 0.984 . S
N435 C428 1.356 . S
N435 H438 0.984 . S
N435 H439 0.985 . S
H436 N431 0.984 . S
H437 N431 0.985 . S
H438 N435 0.984 . S
H439 N435 0.985 . S
H440 N434 0.984 . S
H441 N434 0.984 . S
H442 N430 0.984 . S
H443 N430 0.985 . S
C444 C445 1.363 . S
C444 C450 1.379 . S
C444 N452 1.356 . S
C445 C444 1.363 . S
C445 C451 1.363 . S
C446 C447 1.363 . S
C446 C451 1.379 . S
C446 N453 1.356 . S
C447 C446 1.363 . S
C447 C450 1.363 . S
N448 C450 1.356 . S
N448 H460 0.984 . S
N448 H461 0.985 . S
N449 C451 1.356 . S
N449 H454 0.984 . S
N449 H455 0.985 . S
C450 C444 1.379 . S
C450 C447 1.363 . S
C450 N448 1.356 . S
C451 C445 1.363 . S
C451 C446 1.379 . S
C451 N449 1.356 . S
N452 C444 1.356 . S
N452 H458 0.984 . S
N452 H459 0.984 . S
N453 C446 1.356 . S
N453 H456 0.984 . S
N453 H457 0.985 . S
H454 N449 0.984 . S
H455 N449 0.985 . S
H456 N453 0.984 . S
H457 N453 0.985 . S
H458 N452 0.984 . S
H459 N452 0.984 . S
H460 N448 0.984 . S
H461 N448 0.985 . S
C462 C463 1.363 . S
C462 C468 1.379 . S
C462 N470 1.356 . S
C463 C462 1.363 . S
C463 C469 1.363 . S
C464 C465 1.363 . S
C464 C469 1.379 . S
C464 N471 1.356 . S
C465 C464 1.363 . S
C465 C468 1.363 . S
N466 C468 1.356 . S
N466 H478 0.984 . S
N466 H479 0.985 . S
N467 C469 1.356 . S
N467 H472 0.984 . S
N467 H473 0.985 . S
C468 C462 1.379 . S
C468 C465 1.363 . S
C468 N466 1.356 . S
C469 C463 1.363 . S
C469 C464 1.379 . S
C469 N467 1.356 . S
N470 C462 1.356 . S
N470 H476 0.984 . S
N470 H477 0.984 . S
N471 C464 1.356 . S
N471 H474 0.984 . S
N471 H475 0.985 . S
H472 N467 0.984 . S
H473 N467 0.985 . S
H474 N471 0.984 . S
H475 N471 0.985 . S
H476 N470 0.984 . S
H477 N470 0.984 . S
H478 N466 0.984 . S
H479 N466 0.985 . S
C480 C481 1.363 . S
C480 C486 1.379 . S
C480 N488 1.356 . S
C481 C480 1.363 . S
C481 C487 1.363 1_554 S
C482 C483 1.363 1_556 S
C482 C487 1.379 . S
C482 N489 1.356 . S
C483 C482 1.363 1_554 S
C483 C486 1.363 . S
N484 C486 1.356 . S
N484 H496 0.984 . S
N484 H497 0.985 . S
N485 C487 1.356 . S
N485 H490 0.984 . S
N485 H491 0.985 . S
C486 C480 1.379 . S
C486 C483 1.363 . S
C486 N484 1.356 . S
C487 C481 1.363 1_556 S
C487 C482 1.379 . S
C487 N485 1.356 . S
N488 C480 1.356 . S
N488 H494 0.984 . S
N488 H495 0.984 . S
N489 C482 1.356 . S
N489 H492 0.984 . S
N489 H493 0.985 . S
H490 N485 0.984 . S
H491 N485 0.985 . S
H492 N489 0.984 . S
H493 N489 0.985 . S
H494 N488 0.984 . S
H495 N488 0.984 . S
H496 N484 0.984 . S
H497 N484 0.985 . S
C498 C499 1.363 . S
C498 C504 1.379 . S
C498 N506 1.356 . S
C499 C498 1.363 . S
C499 C505 1.363 . S
C500 C501 1.363 . S
C500 C505 1.379 . S
C500 N507 1.356 . S
C501 C500 1.363 . S
C501 C504 1.363 . S
N502 C504 1.356 . S
N502 H514 0.984 . S
N502 H515 0.985 . S
N503 C505 1.356 . S
N503 H508 0.984 . S
N503 H509 0.985 . S
C504 C498 1.379 . S
C504 C501 1.363 . S
C504 N502 1.356 . S
C505 C499 1.363 . S
C505 C500 1.379 . S
C505 N503 1.356 . S
N506 C498 1.356 . S
N506 H512 0.984 . S
N506 H513 0.984 . S
N507 C500 1.356 . S
N507 H510 0.984 . S
N507 H511 0.985 . S
H508 N503 0.984 . S
H509 N503 0.985 . S
H510 N507 0.984 . S
H511 N507 0.985 . S
H512 N506 0.984 . S
H513 N506 0.984 . S
H514 N502 0.984 . S
H515 N502 0.985 . S
C516 C517 1.363 . S
C516 C522 1.379 . S
C516 N524 1.356 . S
C517 C516 1.363 . S
C517 C523 1.363 1_554 S
C518 C519 1.363 1_556 S
C518 C523 1.379 . S
C518 N525 1.356 . S
C519 C518 1.363 1_554 S
C519 C522 1.363 . S
N520 C522 1.356 . S
N520 H532 0.984 . S
N520 H533 0.985 . S
N521 C523 1.356 . S
N521 H526 0.984 . S
N521 H527 0.985 . S
C522 C516 1.379 . S
C522 C519 1.363 . S
C522 N520 1.356 . S
C523 C517 1.363 1_556 S
C523 C518 1.379 . S
C523 N521 1.356 . S
N524 C516 1.356 . S
N524 H530 0.984 . S
N524 H531 0.984 . S
N525 C518 1.356 . S
N525 H528 0.984 . S
N525 H529 0.985 . S
H526 N521 0.984 . S
H527 N521 0.985 . S
H528 N525 0.984 . S
H529 N525 0.985 . S
H530 N524 0.984 . S
H531 N524 0.984 . S
H532 N520 0.984 . S
H533 N520 0.985 . S
C534 C535 1.363 . S
C534 C540 1.379 . S
C534 N542 1.356 . S
C535 C534 1.363 . S
C535 C541 1.363 . S
C536 C537 1.363 . S
C536 C541 1.379 . S
C536 N543 1.356 . S
C537 C536 1.363 . S
C537 C540 1.363 . S
N538 C540 1.356 . S
N538 H550 0.984 . S
N538 H551 0.985 . S
N539 C541 1.356 . S
N539 H544 0.984 . S
N539 H545 0.985 . S
C540 C534 1.379 . S
C540 C537 1.363 . S
C540 N538 1.356 . S
C541 C535 1.363 . S
C541 C536 1.379 . S
C541 N539 1.356 . S
N542 C534 1.356 . S
N542 H548 0.984 . S
N542 H549 0.984 . S
N543 C536 1.356 . S
N543 H546 0.984 . S
N543 H547 0.985 . S
H544 N539 0.984 . S
H545 N539 0.985 . S
H546 N543 0.984 . S
H547 N543 0.985 . S
H548 N542 0.984 . S
H549 N542 0.984 . S
H550 N538 0.984 . S
H551 N538 0.985 . S
C552 C553 1.363 . S
C552 C558 1.379 . S
C552 N560 1.356 . S
C553 C552 1.363 . S
C553 C559 1.363 . S
C554 C555 1.363 . S
C554 C559 1.379 . S
C554 N561 1.356 . S
C555 C554 1.363 . S
C555 C558 1.363 . S
N556 C558 1.356 . S
N556 H568 0.984 . S
N556 H569 0.985 . S
N557 C559 1.356 . S
N557 H562 0.984 . S
N557 H563 0.985 . S
C558 C552 1.379 . S
C558 C555 1.363 . S
C558 N556 1.356 . S
C559 C553 1.363 . S
C559 C554 1.379 . S
C559 N557 1.356 . S
N560 C552 1.356 . S
N560 H566 0.984 . S
N560 H567 0.984 . S
N561 C554 1.356 . S
N561 H564 0.984 . S
N561 H565 0.985 . S
H562 N557 0.984 . S
H563 N557 0.985 . S
H564 N561 0.984 . S
H565 N561 0.985 . S
H566 N560 0.984 . S
H567 N560 0.984 . S
H568 N556 0.984 . S
H569 N556 0.985 . S
C570 C571 1.363 1_556 S
C570 C576 1.379 . S
C570 N578 1.356 . S
C571 C570 1.363 1_554 S
C571 C577 1.363 . S
C572 C573 1.363 . S
C572 C577 1.379 . S
C572 N579 1.356 . S
C573 C572 1.363 . S
C573 C576 1.363 1_554 S
N574 C576 1.356 . S
N574 H586 0.984 . S
N574 H587 0.985 . S
N575 C577 1.356 . S
N575 H580 0.984 . S
N575 H581 0.985 . S
C576 C570 1.379 . S
C576 C573 1.363 1_556 S
C576 N574 1.356 . S
C577 C571 1.363 . S
C577 C572 1.379 . S
C577 N575 1.356 . S
N578 C570 1.356 . S
N578 H584 0.984 . S
N578 H585 0.984 . S
N579 C572 1.356 . S
N579 H582 0.984 . S
N579 H583 0.985 . S
H580 N575 0.984 . S
H581 N575 0.985 . S
H582 N579 0.984 . S
H583 N579 0.985 . S
H584 N578 0.984 . S
H585 N578 0.984 . S
H586 N574 0.984 . S
H587 N574 0.985 . S
C588 C589 1.363 . S
C588 C594 1.379 . S
C588 N596 1.356 . S
C589 C588 1.363 . S
C589 C595 1.363 . S
C590 C591 1.363 . S
C590 C595 1.379 . S
C590 N597 1.356 . S
C591 C590 1.363 . S
C591 C594 1.363 . S
N592 C594 1.356 . S
N592 H604 0.984 . S
N592 H605 0.985 . S
N593 C595 1.356 . S
N593 H598 0.984 . S
N593 H599 0.985 . S
C594 C588 1.379 . S
C594 C591 1.363 . S
C594 N592 1.356 . S
C595 C589 1.363 . S
C595 C590 1.379 . S
C595 N593 1.356 . S
N596 C588 1.356 . S
N596 H602 0.984 . S
N596 H603 0.984 . S
N597 C590 1.356 . S
N597 H600 0.984 . S
N597 H601 0.985 . S
H598 N593 0.984 . S
H599 N593 0.985 . S
H600 N597 0.984 . S
H601 N597 0.985 . S
H602 N596 0.984 . S
H603 N596 0.984 . S
H604 N592 0.984 . S
H605 N592 0.985 . S
C606 C607 1.363 1_556 S
C606 C612 1.379 . S
C606 N614 1.356 . S
C607 C606 1.363 1_554 S
C607 C613 1.363 . S
C608 C609 1.363 . S
C608 C613 1.379 . S
C608 N615 1.356 . S
C609 C608 1.363 . S
C609 C612 1.363 1_554 S
N610 C612 1.356 . S
N610 H622 0.984 . S
N610 H623 0.985 . S
N611 C613 1.356 . S
N611 H616 0.984 . S
N611 H617 0.985 . S
C612 C606 1.379 . S
C612 C609 1.363 1_556 S
C612 N610 1.356 . S
C613 C607 1.363 . S
C613 C608 1.379 . S
C613 N611 1.356 . S
N614 C606 1.356 . S
N614 H620 0.984 . S
N614 H621 0.984 . S
N615 C608 1.356 . S
N615 H618 0.984 . S
N615 H619 0.985 . S
H616 N611 0.984 . S
H617 N611 0.985 . S
H618 N615 0.984 . S
H619 N615 0.985 . S
H620 N614 0.984 . S
H621 N614 0.984 . S
H622 N610 0.984 . S
H623 N610 0.985 . S
C193 C5 1.474 . S
C195 C135 1.480 . S
C211 C31 1.501 . S
C213 C97 1.482 . S
C231 C110 1.468 . S
C229 C53 1.481 . S
C247 C71 1.454 . S
C249 C122 1.466 . S
C267 C162 1.482 . S
C265 C75 1.501 . S
C285 C174 1.480 . S
C283 C9 1.474 . S
C303 C187 1.466 . S
C301 C27 1.454 . S
C321 C149 1.468 . S
C319 C49 1.481 . S
C337 C51 1.474 . S
C339 C109 1.477 . S
C355 C72 1.501 . S
C357 C123 1.484 . S
C373 C6 1.481 . S
C375 C136 1.470 . S
C393 C96 1.463 . S
C391 C29 1.454 . S
C409 C28 1.501 . S
C411 C188 1.484 . S
C429 C148 1.477 . S
C427 C50 1.474 . S
C447 C161 1.463 . S
C445 C73 1.454 . S
C463 C7 1.481 . S
C465 C175 1.470 . S
C483 C92 1.445 1_554 S
C481 C4 1.507 . S
C501 C105 1.447 . S
C499 C30 1.508 . S
C517 C52 1.507 . S
C519 C118 1.481 . S
C535 C70 1.508 . S
C537 C131 1.483 . S
C555 C144 1.447 . S
C553 C74 1.508 . S
C571 C8 1.508 . S
C573 C157 1.445 . S
C589 C26 1.508 . S
C591 C170 1.483 . S
C607 C48 1.508 . S
C609 C183 1.481 1_554 S
