# Generated by pormake.
# Topology anh, (6,3)-cn, num edge types: 1
# Building blocks:
#     Node 0, Type 0, BuildingBlock: INOVEN_clean_sbu_0, # of connection points: 6
#     Node 1, Type 0, BuildingBlock: INOVEN_clean_sbu_0, # of connection points: 6
#     Node 2, Type 0, BuildingBlock: INOVEN_clean_sbu_0, # of connection points: 6
#     Node 3, Type 1, BuildingBlock: MIDCAF_clean_linker_0, # of connection points: 3
#     Node 4, Type 1, BuildingBlock: MIDCAF_clean_linker_0, # of connection points: 3
#     Node 5, Type 1, BuildingBlock: MIDCAF_clean_linker_0, # of connection points: 3
#     Node 6, Type 1, BuildingBlock: MIDCAF_clean_linker_0, # of connection points: 3
#     Node 7, Type 1, BuildingBlock: MIDCAF_clean_linker_0, # of connection points: 3
#     Node 8, Type 1, BuildingBlock: MIDCAF_clean_linker_0, # of connection points: 3
#     Edge 9, Type (0, 1), BuildingBlock: XIVTED_clean_linker_0, # of connection points: 2
#     Edge 10, Type (0, 1), BuildingBlock: XIVTED_clean_linker_0, # of connection points: 2
#     Edge 11, Type (0, 1), BuildingBlock: XIVTED_clean_linker_0, # of connection points: 2
#     Edge 12, Type (0, 1), BuildingBlock: XIVTED_clean_linker_0, # of connection points: 2
#     Edge 13, Type (0, 1), BuildingBlock: XIVTED_clean_linker_0, # of connection points: 2
#     Edge 14, Type (0, 1), BuildingBlock: XIVTED_clean_linker_0, # of connection points: 2
#     Edge 15, Type (0, 1), BuildingBlock: XIVTED_clean_linker_0, # of connection points: 2
#     Edge 16, Type (0, 1), BuildingBlock: XIVTED_clean_linker_0, # of connection points: 2
#     Edge 17, Type (0, 1), BuildingBlock: XIVTED_clean_linker_0, # of connection points: 2
#     Edge 18, Type (0, 1), BuildingBlock: XIVTED_clean_linker_0, # of connection points: 2
#     Edge 19, Type (0, 1), BuildingBlock: XIVTED_clean_linker_0, # of connection points: 2
#     Edge 20, Type (0, 1), BuildingBlock: XIVTED_clean_linker_0, # of connection points: 2
#     Edge 21, Type (0, 1), BuildingBlock: XIVTED_clean_linker_0, # of connection points: 2
#     Edge 22, Type (0, 1), BuildingBlock: XIVTED_clean_linker_0, # of connection points: 2
#     Edge 23, Type (0, 1), BuildingBlock: XIVTED_clean_linker_0, # of connection points: 2
#     Edge 24, Type (0, 1), BuildingBlock: XIVTED_clean_linker_0, # of connection points: 2
#     Edge 25, Type (0, 1), BuildingBlock: XIVTED_clean_linker_0, # of connection points: 2
#     Edge 26, Type (0, 1), BuildingBlock: XIVTED_clean_linker_0, # of connection points: 2
# Relax obj value: 0.180
# Max RMSD: 0.213
# Mean RMSD: 0.158
data_MOF--net-anh--node1-INOVEN_clean_sbu_0--node2-MIDCAF_clean_linker_0--edge1-XIVTED_clean_linker_0
_symmetry_space_group_name_H-M    P1
_symmetry_Int_Tables_number       1
_symmetry_cell_setting            triclinic
loop_
_symmetry_equiv_pos_as_xyz
'x, y, z'
_cell_length_a     36.869473
_cell_length_b     44.125728
_cell_length_c     66.784777
_cell_angle_alpha  93.377862
_cell_angle_beta   88.832606
_cell_angle_gamma 128.57039
loop_
_atom_site_label
_atom_site_type_symbol
_atom_site_fract_x
_atom_site_fract_y
_atom_site_fract_z
_atom_type_partial_charge
Gd0 Gd 0.11016 0.52195 0.141 0.0
Gd1 Gd 1.0507 0.54189 0.15848 0.0
C2 C 0.15606 0.61333 0.1526 0.0
C3 C 0.16829 0.51981 0.12021 0.0
C4 C 0.2173 0.53791 0.12329 0.0
C5 C 0.23859 0.55428 0.14227 0.0
C6 C 0.24191 0.53604 0.10773 0.0
C7 C 0.30674 0.56206 0.13079 0.0
C8 C 0.28646 0.54819 0.11142 0.0
C9 C 0.28297 0.56611 0.14603 0.0
C10 C 0.10471 0.52098 0.18126 0.0
C11 C 1.00451 0.45103 0.14699 0.0
C12 C 0.99084 0.54025 0.18002 0.0
C13 C 0.94086 0.50867 0.18174 0.0
C14 C 0.91528 0.48329 0.16503 0.0
C15 C 0.91941 0.50124 0.20038 0.0
C16 C 0.84732 0.44307 0.18554 0.0
C17 C 0.87284 0.46873 0.20226 0.0
C18 C 0.86902 0.45098 0.16689 0.0
C19 C 0.05708 0.54272 0.11809 0.0
O20 O 0.15893 0.58822 0.14235 0.0
O21 O 0.11841 0.6017 0.16254 0.0
O22 O 0.14026 0.49397 0.13303 0.0
O23 O 0.15909 0.54328 0.11674 0.0
O24 O 0.10899 0.49831 0.17023 0.0
O25 O 0.10799 0.54529 0.17075 0.0
O26 O 1.00316 0.4761 0.15812 0.0
O27 O 1.04079 0.4629 0.13587 0.0
O28 O 1.00439 0.55615 0.16269 0.0
O29 O 1.01745 0.53304 0.18706 0.0
O30 O 1.05382 0.56626 0.12899 0.0
O31 O 1.05306 0.51833 0.12881 0.0
H32 H 0.22 0.55619 0.15441 0.0
H33 H 0.22589 0.52354 0.093 0.0
H34 H 0.3037 0.54427 0.09945 0.0
H35 H 0.29792 0.57687 0.16104 0.0
H36 H 0.93127 0.48802 0.15055 0.0
H37 H 0.93887 0.5202 0.21351 0.0
H38 H 0.85699 0.46339 0.21681 0.0
H39 H 0.85013 0.43234 0.15361 0.0
Gd40 Gd 0.61786 0.01965 0.47979 0.0
Gd41 Gd 0.55484 0.03906 0.47107 0.0
C42 C 0.50708 0.94997 0.47006 0.0
C43 C 0.65382 0.99015 0.49406 0.0
C44 C 0.64098 0.95119 0.49599 0.0
C45 C 0.6466 0.93235 0.47996 0.0
C46 C 0.62497 0.93323 0.51432 0.0
C47 C 0.62081 0.87864 0.50061 0.0
C48 C 0.61484 0.89735 0.51658 0.0
C49 C 0.63659 0.89651 0.48224 0.0
C50 C 0.61457 0.03157 0.44104 0.0
C51 C 0.66674 0.10912 0.47871 0.0
C52 C 0.51885 0.07001 0.45904 0.0
C53 C 0.52809 0.107 0.46482 0.0
C54 C 0.55843 0.13066 0.48099 0.0
C55 C 0.50584 0.11842 0.45467 0.0
C56 C 0.54259 0.17609 0.47745 0.0
C57 C 0.51312 0.15278 0.46089 0.0
C58 C 0.56558 0.16482 0.48726 0.0
C59 C 0.56099 0.02918 0.51002 0.0
O60 O 0.54556 0.96113 0.4792 0.0
O61 O 0.50455 0.97546 0.46229 0.0
O62 O 0.66167 0.0028 0.47601 0.0
O63 O 0.63125 0.99885 0.50502 0.0
O64 O 0.6517 0.04181 0.45018 0.0
O65 O 0.58005 0.01327 0.45235 0.0
O66 O 0.62659 0.09755 0.47133 0.0
O67 O 0.67127 0.08418 0.48566 0.0
O68 O 0.50089 0.04505 0.47302 0.0
O69 O 0.55213 0.07272 0.44959 0.0
O70 O 0.52307 0.01804 0.50136 0.0
O71 O 0.59411 0.04687 0.4981 0.0
H72 H 0.65915 0.9454 0.46566 0.0
H73 H 0.62086 0.94718 0.52704 0.0
H74 H 0.60346 0.88475 0.53103 0.0
H75 H 0.64116 0.88275 0.46958 0.0
H76 H 0.57612 0.1224 0.48895 0.0
H77 H 0.4823 0.10048 0.44215 0.0
H78 H 0.49469 0.16051 0.45311 0.0
H79 H 0.58906 0.1824 0.49984 0.0
Gd80 Gd 0.62478 0.56284 0.8395 0.0
Gd81 Gd 0.55952 0.47535 0.83964 0.0
C82 C 0.5118 0.51593 0.84218 0.0
C83 C 0.6666 0.63454 0.83214 0.0
C84 C 0.65409 0.65921 0.8273 0.0
C85 C 0.68076 0.69751 0.83554 0.0
C86 C 0.61638 0.64536 0.81441 0.0
C87 C 0.63352 0.7085 0.81747 0.0
C88 C 0.60635 0.66986 0.80947 0.0
C89 C 0.67052 0.7219 0.83074 0.0
C90 C 0.61129 0.53366 0.87559 0.0
C91 C 0.67359 0.52287 0.83854 0.0
C92 C 0.51922 0.40369 0.84658 0.0
C93 C 0.53032 0.37713 0.84276 0.0
C94 C 0.56372 0.38532 0.82869 0.0
C95 C 0.50751 0.34332 0.85328 0.0
C96 C 0.55027 0.32523 0.83521 0.0
C97 C 0.51739 0.31761 0.84957 0.0
C98 C 0.57351 0.35959 0.8249 0.0
C99 C 0.57338 0.50365 0.80322 0.0
O100 O 0.55272 0.54717 0.8364 0.0
O101 O 0.50707 0.48501 0.84724 0.0
O102 O 0.65749 0.62221 0.85029 0.0
O103 O 0.65729 0.608 0.81839 0.0
O104 O 0.65116 0.56429 0.87002 0.0
O105 O 0.58056 0.52135 0.86231 0.0
O106 O 0.6312 0.48994 0.84112 0.0
O107 O 0.6801 0.55544 0.83572 0.0
O108 O 0.51014 0.41416 0.83073 0.0
O109 O 0.54601 0.43261 0.85975 0.0
O110 O 0.53385 0.47297 0.80892 0.0
O111 O 0.60428 0.51661 0.81656 0.0
H112 H 0.70993 0.70872 0.84554 0.0
H113 H 0.59493 0.61575 0.80803 0.0
H114 H 0.57726 0.65854 0.7994 0.0
H115 H 0.69235 0.75159 0.837 0.0
H116 H 0.5819 0.41144 0.82048 0.0
H117 H 0.48194 0.33674 0.86434 0.0
H118 H 0.4994 0.29187 0.85805 0.0
H119 H 0.59859 0.36627 0.81357 0.0
C120 C 0.42829 0.91331 0.19067 0.0
C121 C 0.42972 0.89659 0.17242 0.0
C122 C 0.47093 0.91808 0.16139 0.0
C123 C 0.51005 0.95501 0.16878 0.0
H124 H 0.62069 0.09803 0.16254 0.0
H125 H 0.68382 0.15969 0.14829 0.0
H126 H 0.77916 0.17695 0.19288 0.0
H127 H 0.71643 0.11615 0.20722 0.0
H128 H 0.66148 0.09964 0.25313 0.0
H129 H 0.6644 0.10206 0.28968 0.0
H130 H 0.53159 0.98743 0.28919 0.0
H131 H 0.52805 0.98524 0.25285 0.0
H132 H 0.46488 0.96095 0.2125 0.0
H133 H 0.39757 0.89759 0.19974 0.0
H134 H 0.4731 0.90615 0.1472 0.0
H135 H 0.54171 0.97041 0.16032 0.0
N136 N 0.58651 0.03646 0.18677 0.0
N137 N 0.62739 0.06993 0.21713 0.0
N138 N 0.55445 0.00907 0.21765 0.0
C139 C 0.62489 0.06838 0.19674 0.0
C140 C 0.59225 0.04044 0.2277 0.0
C141 C 0.55111 0.00655 0.19733 0.0
C142 C 0.66355 0.10229 0.18604 0.0
C143 C 0.65533 0.1147 0.16902 0.0
C144 C 0.69136 0.15009 0.16097 0.0
C145 C 0.73648 0.17322 0.16949 0.0
C146 C 0.74497 0.15972 0.18586 0.0
C147 C 0.70892 0.12493 0.19414 0.0
C148 C 0.59456 0.04226 0.24996 0.0
C149 C 0.63284 0.07498 0.2608 0.0
C150 C 0.63462 0.0763 0.28178 0.0
C151 C 0.59818 0.04496 0.2924 0.0
C152 C 0.55991 0.01235 0.28154 0.0
C153 C 0.55809 0.01102 0.26063 0.0
C154 C 0.50882 0.97075 0.18747 0.0
C155 C 0.46718 0.9497 0.19808 0.0
C156 C 0.61326 0.43312 0.54998 0.0
C157 C 0.59083 0.41741 0.53112 0.0
C158 C 0.57616 0.4357 0.52141 0.0
C159 C 0.5821 0.46791 0.53076 0.0
H160 H 0.60905 0.58054 0.52249 0.0
H161 H 0.60486 0.62764 0.50737 0.0
H162 H 0.57483 0.65545 0.56529 0.0
H163 H 0.57837 0.60867 0.58022 0.0
H164 H 0.59403 0.58453 0.61891 0.0
H165 H 0.59611 0.58657 0.65542 0.0
H166 H 0.63776 0.51418 0.65291 0.0
H167 H 0.6358 0.51202 0.61631 0.0
H168 H 0.63556 0.4756 0.57404 0.0
H169 H 0.62622 0.42057 0.55768 0.0
H170 H 0.55864 0.42432 0.5069 0.0
H171 H 0.56913 0.48058 0.5232 0.0
N172 N 0.59936 0.5371 0.55168 0.0
N173 N 0.60485 0.56777 0.58274 0.0
N174 N 0.61035 0.51776 0.58152 0.0
C175 C 0.59958 0.56447 0.56246 0.0
C176 C 0.61037 0.5447 0.5924 0.0
C177 C 0.60476 0.51359 0.56122 0.0
C178 C 0.59429 0.59088 0.55259 0.0
C179 C 0.60107 0.59644 0.53192 0.0
C180 C 0.59895 0.62358 0.52328 0.0
C181 C 0.58941 0.64527 0.53511 0.0
C182 C 0.58158 0.63891 0.55565 0.0
C183 C 0.58405 0.6122 0.56426 0.0
C184 C 0.61444 0.54787 0.61461 0.0
C185 C 0.60403 0.56927 0.62607 0.0
C186 C 0.60502 0.57035 0.64702 0.0
C187 C 0.61694 0.55044 0.657 0.0
C188 C 0.6288 0.53007 0.64561 0.0
C189 C 0.62734 0.52862 0.62464 0.0
C190 C 0.60262 0.48234 0.55005 0.0
C191 C 0.61888 0.46495 0.55933 0.0
C192 C 0.99619 0.56439 0.86174 0.0
C193 C 0.95712 0.53229 0.85083 0.0
C194 C 0.95825 0.5017 0.84443 0.0
C195 C 0.99615 0.50264 0.84947 0.0
H196 H 0.1829 0.55366 0.84129 0.0
H197 H 0.2463 0.55098 0.83272 0.0
H198 H 0.20546 0.47433 0.88054 0.0
H199 H 0.14284 0.47657 0.88864 0.0
H200 H 0.10934 0.49509 0.9304 0.0
H201 H 0.10367 0.49729 0.96672 0.0
H202 H 0.07398 0.57755 0.96316 0.0
H203 H 0.07655 0.57297 0.92679 0.0
H204 H 0.06136 0.58937 0.87635 0.0
H205 H 0.99706 0.58837 0.86732 0.0
H206 H 0.92934 0.47652 0.83586 0.0
H207 H 0.99445 0.4777 0.84526 0.0
N208 N 0.09565 0.52462 0.86257 0.0
N209 N 0.122 0.52403 0.89436 0.0
N210 N 0.06756 0.5346 0.89225 0.0
C211 C 0.12375 0.52136 0.87402 0.0
C212 C 0.09447 0.53087 0.90356 0.0
C213 C 0.06704 0.53108 0.8719 0.0
C214 C 0.15706 0.51503 0.86557 0.0
C215 C 0.18678 0.53543 0.84956 0.0
C216 C 0.22373 0.53432 0.84487 0.0
C217 C 0.23176 0.51243 0.85589 0.0
C218 C 0.20076 0.49111 0.87137 0.0
C219 C 0.16449 0.49249 0.8761 0.0
C220 C 0.09319 0.53371 0.92574 0.0
C221 C 0.10162 0.51319 0.93744 0.0
C222 C 0.09867 0.51474 0.95835 0.0
C223 C 0.08829 0.53762 0.96817 0.0
C224 C 0.08086 0.55879 0.95633 0.0
C225 C 0.08272 0.55647 0.9354 0.0
C226 C 1.03401 0.5341 0.86116 0.0
C227 C 1.03354 0.5651 0.86689 0.0
C228 C 0.19319 0.64559 0.46071 0.0
C229 C 0.23768 0.66474 0.45262 0.0
C230 C 0.24435 0.64474 0.43782 0.0
C231 C 0.20707 0.60747 0.43046 0.0
H232 H 1.04778 0.4646 0.46332 0.0
H233 H 0.9832 0.40338 0.47747 0.0
H234 H 0.89904 0.37525 0.42488 0.0
H235 H 0.96265 0.43561 0.41089 0.0
H236 H 1.02344 0.46006 0.36921 0.0
H237 H 1.02336 0.45997 0.33267 0.0
H238 H 0.14748 0.57965 0.3358 0.0
H239 H 0.14751 0.58007 0.37221 0.0
H240 H 0.12158 0.59422 0.45944 0.0
H241 H 0.18707 0.66023 0.47219 0.0
H242 H 0.27798 0.65871 0.43114 0.0
H243 H 0.21295 0.59364 0.41834 0.0
N244 N 0.08635 0.52206 0.43692 0.0
N245 N 1.0502 0.48969 0.40573 0.0
N246 N 0.12179 0.55182 0.40682 0.0
C247 C 1.05007 0.49001 0.42611 0.0
C248 C 0.08583 0.52043 0.39596 0.0
C249 C 0.12243 0.55306 0.42717 0.0
C250 C 1.01049 0.45504 0.43595 0.0
C251 C 1.01525 0.4455 0.45495 0.0
C252 C 0.97843 0.41033 0.46297 0.0
C253 C 0.93591 0.38444 0.45232 0.0
C254 C 0.93101 0.39464 0.43361 0.0
C255 C 0.96774 0.42926 0.42552 0.0
C256 C 0.0855 0.52005 0.37373 0.0
C257 C 1.0507 0.4864 0.36214 0.0
C258 C 1.05074 0.48626 0.34118 0.0
C259 C 0.08537 0.51982 0.33135 0.0
C260 C 0.11998 0.55348 0.34292 0.0
C261 C 0.12013 0.55358 0.36383 0.0
C262 C 0.16231 0.58885 0.43797 0.0
C263 C 0.15586 0.60773 0.45359 0.0
C264 C 0.61554 0.13872 0.76846 0.0
C265 C 0.59762 0.13228 0.78787 0.0
C266 C 0.58224 0.09801 0.79674 0.0
C267 C 0.58389 0.07044 0.78621 0.0
H268 H 0.6225 0.98999 0.78841 0.0
H269 H 0.62614 0.94118 0.80124 0.0
H270 H 0.55421 0.86724 0.74769 0.0
H271 H 0.55242 0.91644 0.73464 0.0
H272 H 0.56232 0.95766 0.69448 0.0
H273 H 0.55991 0.95838 0.65799 0.0
H274 H 0.6195 0.07936 0.66335 0.0
H275 H 0.62182 0.0788 0.69979 0.0
H276 H 0.62976 0.11676 0.74277 0.0
H277 H 0.62721 0.16457 0.7611 0.0
H278 H 0.56855 0.09237 0.81174 0.0
H279 H 0.57091 0.04398 0.79326 0.0
N280 N 0.59413 0.0169 0.76299 0.0
N281 N 0.58906 0.98891 0.73106 0.0
N282 N 0.59735 0.04602 0.73395 0.0
C283 C 0.58994 0.98837 0.75137 0.0
C284 C 0.59295 0.01769 0.72223 0.0
C285 C 0.59767 0.04581 0.75428 0.0
C286 C 0.58769 0.95733 0.7604 0.0
C287 C 0.60714 0.96313 0.77949 0.0
C288 C 0.60908 0.93504 0.78687 0.0
C289 C 0.59112 0.90035 0.77539 0.0
C290 C 0.5697 0.89397 0.75672 0.0
C291 C 0.56835 0.92216 0.74928 0.0
C292 C 0.59219 0.01816 0.70008 0.0
C293 C 0.57508 0.98447 0.68789 0.0
C294 C 0.57347 0.98479 0.66701 0.0
C295 C 0.58957 0.01893 0.65786 0.0
C296 C 0.60725 0.05273 0.67 0.0
C297 C 0.60826 0.05229 0.69088 0.0
C298 C 0.60027 0.07636 0.76649 0.0
C299 C 0.61667 0.11109 0.75789 0.0
C300 C 0.55984 0.30079 0.11309 0.0
C301 C 0.54615 0.29735 0.13321 0.0
C302 C 0.51083 0.29991 0.1381 0.0
C303 C 0.49468 0.31129 0.12395 0.0
H304 H 0.49468 0.40526 0.131 0.0
H305 H 0.48563 0.45145 0.14693 0.0
H306 H 0.48338 0.48767 0.08853 0.0
H307 H 0.49346 0.44275 0.07279 0.0
H308 H 0.4874 0.32251 0.0289 0.0
H309 H 0.50648 0.33954 0.9937 0.0
H310 H 0.61097 0.45989 0.01363 0.0
H311 H 0.59165 0.44289 0.0483 0.0
H312 H 0.55774 0.31751 0.08402 0.0
H313 H 0.58695 0.29907 0.10866 0.0
H314 H 0.49845 0.29629 0.15329 0.0
H315 H 0.47042 0.31628 0.12866 0.0
N316 N 0.49903 0.36655 0.10105 0.0
N317 N 0.51306 0.39673 0.07111 0.0
N318 N 0.5195 0.34723 0.07228 0.0
C319 C 0.50136 0.39318 0.09065 0.0
C320 C 0.52174 0.37383 0.0618 0.0
C321 C 0.50786 0.34336 0.092 0.0
C322 C 0.4947 0.4202 0.1006 0.0
C323 C 0.49235 0.42319 0.1216 0.0
C324 C 0.48729 0.44971 0.13073 0.0
C325 C 0.48439 0.47365 0.11904 0.0
C326 C 0.48683 0.47057 0.09808 0.0
C327 C 0.49205 0.44433 0.089 0.0
C328 C 0.53814 0.38148 0.04112 0.0
C329 C 0.51523 0.35231 0.0256 0.0
C330 C 0.52592 0.36211 0.00556 0.0
C331 C 0.56022 0.40105 0.00093 0.0
C332 C 0.58484 0.4296 0.01666 0.0
C333 C 0.57365 0.41995 0.03651 0.0
C334 C 0.51304 0.31973 0.10458 0.0
C335 C 0.54324 0.31168 0.09888 0.0
H336 H 0.3872 0.59824 0.10969 0.0
H337 H 0.42694 0.45948 0.15019 0.0
H338 H 0.32075 0.53396 0.16241 0.0
H339 H 0.51966 0.54664 0.10867 0.0
H340 H 0.39821 0.49514 0.15951 0.0
H341 H 0.44583 0.5893 0.11311 0.0
C342 C 0.38567 0.58306 0.12226 0.0
C343 C 0.34867 0.56618 0.13555 0.0
C344 C 0.42556 0.50697 0.14866 0.0
C345 C 0.41489 0.55519 0.13939 0.0
C346 C 0.44219 0.48665 0.14339 0.0
C347 C 0.47479 0.49944 0.12817 0.0
C348 C 0.44104 0.5399 0.13839 0.0
C349 C 0.4932 0.53491 0.11993 0.0
C350 C 0.41915 0.57801 0.12426 0.0
C351 C 0.34858 0.54728 0.15176 0.0
N352 N 0.47528 0.55342 0.12479 0.0
N353 N 0.38052 0.54148 0.15295 0.0
H354 H 0.75899 0.14513 0.48699 0.0
H355 H 0.84364 0.3509 0.45249 0.0
H356 H 0.66726 0.169 0.46962 0.0
H357 H 0.93887 0.33074 0.46959 0.0
H358 H 0.77891 0.28551 0.46153 0.0
H359 H 0.82535 0.21376 0.4835 0.0
C360 C 0.7527 0.16478 0.48264 0.0
C361 C 0.70736 0.15105 0.47846 0.0
C362 C 0.81391 0.29533 0.46346 0.0
C363 C 0.7832 0.22963 0.47437 0.0
C364 C 0.85096 0.33273 0.45825 0.0
C365 C 0.89682 0.34629 0.46009 0.0
C366 C 0.82245 0.27086 0.47049 0.0
C367 C 0.90411 0.32158 0.46798 0.0
C368 C 0.79064 0.20396 0.48061 0.0
C369 C 0.70146 0.17797 0.47286 0.0
N370 N 0.86732 0.28493 0.4727 0.0
N371 N 0.73881 0.21573 0.47089 0.0
H372 H 0.61453 0.7173 0.77983 0.0
H373 H 0.58674 0.87875 0.81397 0.0
H374 H 0.63229 0.76077 0.84137 0.0
H375 H 0.6075 0.85618 0.75271 0.0
H376 H 0.59578 0.83157 0.8246 0.0
H377 H 0.60264 0.76303 0.76992 0.0
C378 C 0.6155 0.73624 0.79129 0.0
C379 C 0.62444 0.7352 0.81146 0.0
C380 C 0.59825 0.83698 0.80884 0.0
C381 C 0.61118 0.78792 0.8002 0.0
C382 C 0.59331 0.86407 0.80274 0.0
C383 C 0.59606 0.8715 0.78235 0.0
C384 C 0.60567 0.8169 0.79445 0.0
C385 C 0.60402 0.85099 0.76852 0.0
C386 C 0.60907 0.76256 0.78561 0.0
C387 C 0.62595 0.76084 0.82563 0.0
N388 N 0.60839 0.82467 0.77481 0.0
N389 N 0.61929 0.7861 0.81974 0.0
H390 H 0.77966 0.44008 0.20557 0.0
H391 H 0.58963 0.26415 0.13353 0.0
H392 H 0.80119 0.36933 0.16844 0.0
H393 H 0.57186 0.33853 0.16948 0.0
H394 H 0.6576 0.28816 0.15424 0.0
H395 H 0.69607 0.38984 0.20095 0.0
C396 C 0.76681 0.41354 0.19686 0.0
C397 C 0.79742 0.40942 0.18685 0.0
C398 C 0.63801 0.29841 0.15791 0.0
C399 C 0.70179 0.35216 0.18109 0.0
C400 C 0.5992 0.28473 0.14606 0.0
C401 C 0.5758 0.30027 0.14926 0.0
C402 C 0.6536 0.32798 0.17295 0.0
C403 C 0.58891 0.32591 0.16616 0.0
C404 C 0.71899 0.38488 0.19413 0.0
C405 C 0.77874 0.37428 0.17584 0.0
N406 N 0.62757 0.33967 0.17703 0.0
N407 N 0.73214 0.34737 0.17287 0.0
H408 H 0.41776 0.91594 0.45792 0.0
H409 H 0.32828 0.69828 0.46165 0.0
H410 H 0.50346 0.88805 0.4786 0.0
H411 H 0.23579 0.726 0.45576 0.0
H412 H 0.39335 0.76762 0.46692 0.0
H413 H 0.35134 0.8466 0.45563 0.0
C414 C 0.4227 0.89529 0.46194 0.0
C415 C 0.46643 0.90797 0.46841 0.0
C416 C 0.35879 0.75857 0.46466 0.0
C417 C 0.39034 0.82839 0.4658 0.0
C418 C 0.32163 0.71898 0.46164 0.0
C419 C 0.2765 0.70629 0.45826 0.0
C420 C 0.35102 0.7859 0.46402 0.0
C421 C 0.2699 0.73443 0.45849 0.0
C422 C 0.38466 0.85569 0.46073 0.0
C423 C 0.47051 0.87975 0.47353 0.0
N424 N 0.30678 0.77288 0.4611 0.0
N425 N 0.4331 0.84138 0.47202 0.0
H426 H 0.63351 0.3407 0.82649 0.0
H427 H 0.52316 0.11684 0.80847 0.0
H428 H 0.48813 0.24539 0.83342 0.0
H429 H 0.66086 0.21183 0.7904 0.0
H430 H 0.51297 0.16372 0.82223 0.0
H431 H 0.64684 0.29401 0.81723 0.0
C432 C 0.60433 0.31 0.82605 0.0
C433 C 0.55951 0.29711 0.83063 0.0
C434 C 0.54553 0.17431 0.81537 0.0
C435 C 0.5748 0.24336 0.82031 0.0
C436 C 0.55151 0.14757 0.80767 0.0
C437 C 0.59284 0.16042 0.79817 0.0
C438 C 0.58123 0.21425 0.81369 0.0
C439 C 0.62819 0.20062 0.79735 0.0
C440 C 0.61206 0.28334 0.82086 0.0
C441 C 0.52336 0.25683 0.83023 0.0
N442 N 0.62153 0.22606 0.80493 0.0
N443 N 0.53177 0.23146 0.8251 0.0
H444 H 0.54954 0.81609 0.52056 0.0
H445 H 0.65031 0.69937 0.50848 0.0
H446 H 0.67187 0.8559 0.48698 0.0
H447 H 0.52901 0.66098 0.54248 0.0
H448 H 0.65477 0.75373 0.49778 0.0
H449 H 0.53823 0.75665 0.52656 0.0
C450 C 0.57406 0.81236 0.51444 0.0
C451 C 0.61192 0.84126 0.50336 0.0
C452 C 0.62696 0.73324 0.50746 0.0
C453 C 0.59896 0.77293 0.51007 0.0
C454 C 0.6242 0.70201 0.51346 0.0
C455 C 0.58949 0.67573 0.52656 0.0
C456 C 0.59477 0.73825 0.51461 0.0
C457 C 0.55688 0.6809 0.53267 0.0
C458 C 0.56742 0.77827 0.51778 0.0
C459 C 0.642 0.83437 0.49548 0.0
N460 N 0.56051 0.71163 0.52676 0.0
N461 N 0.63505 0.80108 0.4991 0.0
H462 H 0.675 0.46158 0.84319 0.0
H463 H 0.95418 0.592 0.84329 0.0
H464 H 0.76719 0.5848 0.83551 0.0
H465 H 0.86303 0.46847 0.85013 0.0
H466 H 0.88635 0.58939 0.83984 0.0
H467 H 0.74253 0.46307 0.84512 0.0
C468 C 0.70933 0.48901 0.84185 0.0
C469 C 0.71483 0.52314 0.83916 0.0
C470 C 0.88104 0.56277 0.84204 0.0
C471 C 0.7933 0.52502 0.84145 0.0
C472 C 0.92003 0.56421 0.84412 0.0
C473 C 0.91511 0.53044 0.84716 0.0
C474 C 0.83595 0.52727 0.84301 0.0
C475 C 0.86925 0.49536 0.84763 0.0
C476 C 0.74808 0.48981 0.84296 0.0
C477 C 0.76069 0.55765 0.83756 0.0
N478 N 0.83184 0.49477 0.8457 0.0
N479 N 0.79776 0.55767 0.83876 0.0
H480 H 0.24461 0.64833 0.13931 0.0
H481 H 0.33738 0.86325 0.17425 0.0
H482 H 0.16019 0.6745 0.16784 0.0
H483 H 0.42856 0.83722 0.15583 0.0
H484 H 0.27092 0.79496 0.16791 0.0
H485 H 0.31101 0.71777 0.1416 0.0
C486 C 0.23991 0.66861 0.14599 0.0
C487 C 0.19663 0.65539 0.15348 0.0
C488 C 0.30541 0.80413 0.16513 0.0
C489 C 0.2726 0.73505 0.15602 0.0
C490 C 0.34348 0.84321 0.16878 0.0
C491 C 0.38886 0.8561 0.16583 0.0
C492 C 0.3124 0.7774 0.15841 0.0
C493 C 0.39431 0.82875 0.15826 0.0
C494 C 0.2779 0.70828 0.1473 0.0
C495 C 0.19281 0.68316 0.16197 0.0
N496 N 0.3566 0.79067 0.15497 0.0
N497 N 0.23018 0.72152 0.163 0.0
H498 H 0.54341 0.19931 0.51639 0.0
H499 H 0.59557 0.39844 0.49146 0.0
H500 H 0.55417 0.23282 0.45582 0.0
H501 H 0.56423 0.35353 0.5504 0.0
H502 H 0.58205 0.33922 0.47779 0.0
H503 H 0.5537 0.25729 0.52889 0.0
C504 C 0.54821 0.21902 0.5057 0.0
C505 C 0.54823 0.21126 0.48502 0.0
C506 C 0.57812 0.34241 0.49371 0.0
C507 C 0.55967 0.27789 0.49927 0.0
C508 C 0.58564 0.37614 0.50151 0.0
C509 C 0.58158 0.38132 0.52218 0.0
C510 C 0.5665 0.31366 0.50665 0.0
C511 C 0.5689 0.35142 0.53447 0.0
C512 C 0.55378 0.25205 0.51285 0.0
C513 C 0.55369 0.23755 0.47188 0.0
N514 N 0.56204 0.31911 0.52655 0.0
N515 N 0.55942 0.2698 0.47922 0.0
H516 H 0.50776 0.57487 0.83432 0.0
H517 H 0.23582 0.45212 0.85881 0.0
H518 H 0.42126 0.45708 0.85256 0.0
H519 H 0.32183 0.5721 0.84409 0.0
H520 H 0.30268 0.45327 0.85524 0.0
H521 H 0.44063 0.5742 0.83653 0.0
C522 C 0.47476 0.54878 0.83878 0.0
C523 C 0.47074 0.51596 0.84328 0.0
C524 C 0.30711 0.47941 0.85275 0.0
C525 C 0.39281 0.51504 0.84581 0.0
C526 C 0.26869 0.47889 0.85488 0.0
C527 C 0.27248 0.51221 0.85199 0.0
C528 C 0.35054 0.51348 0.84759 0.0
C529 C 0.31646 0.5455 0.84639 0.0
C530 C 0.43626 0.54846 0.84004 0.0
C531 C 0.42659 0.48317 0.84895 0.0
N532 N 0.35347 0.54532 0.84448 0.0
N533 N 0.38977 0.48359 0.85003 0.0
H534 H 1.0002 0.38784 0.13535 0.0
H535 H 0.73185 0.23117 0.16217 0.0
H536 H 0.91666 0.41837 0.15937 0.0
H537 H 0.82688 0.20516 0.16126 0.0
H538 H 0.79599 0.29805 0.15426 0.0
H539 H 0.93377 0.3189 0.13823 0.0
C540 C 0.96782 0.38011 0.141 0.0
C541 C 0.96409 0.40904 0.14716 0.0
C542 C 0.80272 0.2776 0.15561 0.0
C543 C 0.88796 0.33031 0.15033 0.0
C544 C 0.76605 0.23935 0.15996 0.0
C545 C 0.77402 0.21254 0.16242 0.0
C546 C 0.84768 0.28911 0.15341 0.0
C547 C 0.81928 0.22497 0.15964 0.0
C548 C 0.93002 0.34079 0.14272 0.0
C549 C 0.92126 0.39721 0.15449 0.0
N550 N 0.85438 0.26231 0.15529 0.0
N551 N 0.88497 0.35889 0.15582 0.0
H552 H 1.04677 0.58221 0.0918 0.0
H553 H 0.13588 0.53109 -0.00316 0.0
H554 H 0.07783 0.50306 0.09437 0.0
H555 H 1.03269 0.54762 0.99107 0.0
H556 H 0.12771 0.53178 0.03319 0.0
H557 H 1.05459 0.58141 0.05517 0.0
C558 C 0.05541 0.56481 0.08466 0.0
C559 C 0.06176 0.54272 0.09608 0.0
C560 C 0.10698 0.53527 0.02386 0.0
C561 C 0.0715 0.54225 0.05444 0.0
C562 C 0.11129 0.53462 0.00304 0.0
C563 C 0.08479 0.53909 0.99055 0.0
C564 C 0.07677 0.54132 0.03242 0.0
C565 C 1.05463 0.54477 -0.00015 0.0
C566 C 0.05972 0.5643 0.06382 0.0
C567 C 0.07282 0.52061 0.0861 0.0
N568 N 1.05167 0.54595 0.02018 0.0
N569 N 0.07775 0.52118 0.06586 0.0
H570 H 0.68599 0.06734 0.41515 0.0
H571 H 0.52772 0.01866 0.31905 0.0
H572 H 0.53859 0.00651 0.41805 0.0
H573 H 0.67354 0.07278 0.31656 0.0
H574 H 0.53138 0.0171 0.35546 0.0
H575 H 0.68254 0.07312 0.37926 0.0
C576 C 0.65286 0.05525 0.4082 0.0
C577 C 0.61245 0.03618 0.41951 0.0
C578 C 0.5626 0.02944 0.34695 0.0
C579 C 0.60817 0.04267 0.37838 0.0
C580 C 0.56051 0.03018 0.32614 0.0
C581 C 0.60036 0.04571 0.31466 0.0
C582 C 0.60484 0.04434 0.35641 0.0
C583 C 0.64205 0.06089 0.32476 0.0
C584 C 0.65089 0.05855 0.3877 0.0
C585 C 0.5705 0.02126 0.4098 0.0
N586 N 0.64313 0.05968 0.345 0.0
N587 N 0.56939 0.0247 0.38974 0.0
H588 H 0.50959 0.48646 0.77545 0.0
H589 H 0.67998 0.56032 0.68356 0.0
H590 H 0.65648 0.54866 0.78398 0.0
H591 H 0.54769 0.53686 0.68081 0.0
H592 H 0.672 0.55377 0.71996 0.0
H593 H 0.52248 0.5024 0.74029 0.0
C594 C 0.54463 0.50369 0.76989 0.0
C595 C 0.582 0.5161 0.78251 0.0
C596 C 0.645 0.55046 0.71139 0.0
C597 C 0.59702 0.53406 0.74227 0.0
C598 C 0.64939 0.55396 0.69064 0.0
C599 C 0.6144 0.54907 0.67917 0.0
C600 C 0.60497 0.54135 0.72063 0.0
C601 C 0.57566 0.54117 0.68909 0.0
C602 C 0.55201 0.51287 0.74985 0.0
C603 C 0.62677 0.53853 0.77465 0.0
N604 N 0.57178 0.53718 0.7092 0.0
N605 N 0.63302 0.54643 0.75491 0.0
H606 H 0.49143 0.9848 0.53607 0.0
H607 H 0.65725 0.07238 0.63302 0.0
H608 H 0.64058 0.06524 0.53257 0.0
H609 H 0.51616 0.96624 0.6325 0.0
H610 H 0.65124 0.07349 0.59663 0.0
H611 H 0.49897 0.98053 0.57192 0.0
C612 C 0.52577 0.00151 0.54288 0.0
C613 C 0.56545 0.02552 0.53144 0.0
C614 C 0.62171 0.04984 0.60447 0.0
C615 C 0.57437 0.02104 0.57238 0.0
C616 C 0.62503 0.04931 0.62522 0.0
C617 C 0.58711 0.01919 0.63575 0.0
C618 C 0.57992 0.02036 0.59424 0.0
C619 C 0.54631 0.98982 0.62491 0.0
C620 C 0.53006 0.99897 0.5633 0.0
C621 C 0.60914 0.04643 0.54092 0.0
N622 N 0.54366 0.9913 0.60477 0.0
N623 N 0.61246 0.04397 0.56092 0.0
H624 H 0.67762 0.54655 0.90068 0.0
H625 H 0.49425 0.3781 0.97231 0.0
H626 H 0.52948 0.4722 0.8905 0.0
H627 H 0.6425 0.45276 0.98235 0.0
H628 H 0.50659 0.40764 0.94045 0.0
H629 H 0.66563 0.50954 0.92943 0.0
C630 C 0.64256 0.52248 0.90457 0.0
C631 C 0.60446 0.51241 0.89331 0.0
C632 C 0.53646 0.41725 0.9495 0.0
C633 C 0.59039 0.46976 0.92602 0.0
C634 C 0.52944 0.40008 0.96758 0.0
C635 C 0.56742 0.41321 0.98005 0.0
C636 C 0.58178 0.44779 0.94388 0.0
C637 C 0.61223 0.44218 0.97331 0.0
C638 C 0.6357 0.50122 0.9209 0.0
C639 C 0.55977 0.48086 0.89886 0.0
N640 N 0.61816 0.45874 0.95578 0.0
N641 N 0.55393 0.46066 0.91486 0.0
H642 H 0.09172 0.46717 0.20506 0.0
H643 H 0.10256 0.5761 0.30769 0.0
H644 H 0.10808 0.573 0.20735 0.0
H645 H 0.06971 0.46339 0.30433 0.0
H646 H 0.10621 0.57633 0.27109 0.0
H647 H 0.08507 0.46606 0.24154 0.0
C648 C 0.09393 0.4902 0.21329 0.0
C649 C 0.10052 0.52025 0.20325 0.0
C650 C 0.09804 0.55148 0.27835 0.0
C651 C 0.09297 0.51924 0.24498 0.0
C652 C 0.09618 0.55142 0.29925 0.0
C653 C 0.08594 0.51971 0.3091 0.0
C654 C 0.0899 0.51972 0.26718 0.0
C655 C 0.0773 0.48827 0.29737 0.0
C656 C 0.09001 0.48951 0.2341 0.0
C657 C 0.10297 0.54929 0.21457 0.0
N658 N 0.07971 0.48916 0.27706 0.0
N659 N 0.09933 0.54814 0.23487 0.0
loop_
_geom_bond_atom_site_label_1
_geom_bond_atom_site_label_2
_geom_bond_distance
_geom_bond_site_symmetry_2
_ccdc_geom_bond_type
Gd0 C3 2.818 . S
Gd0 O20 2.377 . S
Gd0 O22 2.448 . S
Gd0 O23 2.506 . S
Gd0 O24 2.435 . S
Gd0 O25 2.717 . S
Gd0 O27 2.395 1_455 S
Gd0 O31 2.327 . S
Gd1 C12 2.818 1_455 S
Gd1 O21 2.395 . S
Gd1 O25 2.327 . S
Gd1 O26 2.377 1_455 S
Gd1 O28 2.448 1_455 S
Gd1 O29 2.506 1_455 S
Gd1 O30 2.435 . S
Gd1 O31 2.717 . S
C2 O20 1.240 . S
C2 O21 1.240 . S
C3 Gd0 2.818 . S
C3 C4 1.510 . S
C3 O22 1.249 . S
C3 O23 1.252 . S
C4 C3 1.510 . S
C4 C5 1.404 . S
C4 C6 1.352 . S
C5 C4 1.404 . S
C5 C9 1.389 . S
C5 H32 0.930 . S
C6 C4 1.352 . S
C6 C8 1.374 . S
C6 H33 0.931 . S
C7 C8 1.359 . S
C7 C9 1.364 . S
C8 C6 1.374 . S
C8 C7 1.359 . S
C8 H34 0.931 . S
C9 C5 1.389 . S
C9 C7 1.364 . S
C9 H35 0.931 . S
C10 O24 1.256 . S
C10 O25 1.257 . S
C11 O26 1.240 . S
C11 O27 1.240 . S
C12 Gd1 2.818 1_655 S
C12 C13 1.510 . S
C12 O28 1.249 . S
C12 O29 1.252 . S
C13 C12 1.510 . S
C13 C14 1.404 . S
C13 C15 1.352 . S
C14 C13 1.404 . S
C14 C18 1.389 . S
C14 H36 0.930 . S
C15 C13 1.352 . S
C15 C17 1.374 . S
C15 H37 0.931 . S
C16 C17 1.359 . S
C16 C18 1.364 . S
C17 C15 1.374 . S
C17 C16 1.359 . S
C17 H38 0.931 . S
C18 C14 1.389 . S
C18 C16 1.364 . S
C18 H39 0.931 . S
C19 O30 1.256 . S
C19 O31 1.257 . S
O20 Gd0 2.377 . S
O20 C2 1.240 . S
O21 Gd1 2.395 . S
O21 C2 1.240 . S
O22 Gd0 2.448 . S
O22 C3 1.249 . S
O23 Gd0 2.506 . S
O23 C3 1.252 . S
O24 Gd0 2.435 . S
O24 C10 1.256 . S
O25 Gd0 2.717 . S
O25 Gd1 2.327 . S
O25 C10 1.257 . S
O26 Gd1 2.377 1_655 S
O26 C11 1.240 . S
O27 Gd0 2.395 1_655 S
O27 C11 1.240 . S
O28 Gd1 2.448 1_655 S
O28 C12 1.249 . S
O29 Gd1 2.506 1_655 S
O29 C12 1.252 . S
O30 Gd1 2.435 . S
O30 C19 1.256 . S
O31 Gd0 2.327 . S
O31 Gd1 2.717 . S
O31 C19 1.257 . S
H32 C5 0.930 . S
H33 C6 0.931 . S
H34 C8 0.931 . S
H35 C9 0.931 . S
H36 C14 0.930 . S
H37 C15 0.931 . S
H38 C17 0.931 . S
H39 C18 0.931 . S
Gd40 C43 2.818 . S
Gd40 O60 2.377 . S
Gd40 O62 2.448 . S
Gd40 O63 2.506 . S
Gd40 O64 2.435 . S
Gd40 O65 2.717 1_565 S
Gd40 O67 2.395 1_565 S
Gd40 O71 2.327 1_565 S
Gd41 C52 2.818 . S
Gd41 O61 2.395 1_545 S
Gd41 O65 2.327 . S
Gd41 O66 2.377 . S
Gd41 O68 2.448 . S
Gd41 O69 2.506 . S
Gd41 O70 2.435 . S
Gd41 O71 2.717 . S
C42 O60 1.240 . S
C42 O61 1.240 . S
C43 Gd40 2.818 . S
C43 C44 1.510 . S
C43 O62 1.249 . S
C43 O63 1.252 . S
C44 C43 1.510 . S
C44 C45 1.404 . S
C44 C46 1.352 . S
C45 C44 1.404 . S
C45 C49 1.389 . S
C45 H72 0.930 . S
C46 C44 1.352 . S
C46 C48 1.374 . S
C46 H73 0.931 . S
C47 C48 1.359 . S
C47 C49 1.364 . S
C48 C46 1.374 . S
C48 C47 1.359 . S
C48 H74 0.931 . S
C49 C45 1.389 . S
C49 C47 1.364 . S
C49 H75 0.931 . S
C50 O64 1.256 1_545 S
C50 O65 1.257 . S
C51 O66 1.240 . S
C51 O67 1.240 . S
C52 Gd41 2.818 . S
C52 C53 1.510 . S
C52 O68 1.249 . S
C52 O69 1.252 . S
C53 C52 1.510 . S
C53 C54 1.404 . S
C53 C55 1.352 . S
C54 C53 1.404 . S
C54 C58 1.389 . S
C54 H76 0.930 . S
C55 C53 1.352 . S
C55 C57 1.374 . S
C55 H77 0.931 . S
C56 C57 1.359 . S
C56 C58 1.364 . S
C57 C55 1.374 . S
C57 C56 1.359 . S
C57 H78 0.931 . S
C58 C54 1.389 . S
C58 C56 1.364 . S
C58 H79 0.931 . S
C59 O70 1.256 . S
C59 O71 1.257 . S
O60 Gd40 2.377 . S
O60 C42 1.240 . S
O61 Gd41 2.395 1_565 S
O61 C42 1.240 . S
O62 Gd40 2.448 . S
O62 C43 1.249 . S
O63 Gd40 2.506 . S
O63 C43 1.252 . S
O64 Gd40 2.435 . S
O64 C50 1.256 1_565 S
O65 Gd40 2.717 1_545 S
O65 Gd41 2.327 . S
O65 C50 1.257 . S
O66 Gd41 2.377 . S
O66 C51 1.240 . S
O67 Gd40 2.395 1_545 S
O67 C51 1.240 . S
O68 Gd41 2.448 . S
O68 C52 1.249 . S
O69 Gd41 2.506 . S
O69 C52 1.252 . S
O70 Gd41 2.435 . S
O70 C59 1.256 . S
O71 Gd40 2.327 1_545 S
O71 Gd41 2.717 . S
O71 C59 1.257 . S
H72 C45 0.930 . S
H73 C46 0.931 . S
H74 C48 0.931 . S
H75 C49 0.931 . S
H76 C54 0.930 . S
H77 C55 0.931 . S
H78 C57 0.931 . S
H79 C58 0.931 . S
Gd80 C83 2.818 . S
Gd80 O100 2.377 . S
Gd80 O102 2.448 . S
Gd80 O103 2.506 . S
Gd80 O104 2.435 . S
Gd80 O105 2.717 . S
Gd80 O107 2.395 . S
Gd80 O111 2.327 . S
Gd81 C92 2.818 . S
Gd81 O101 2.395 . S
Gd81 O105 2.327 . S
Gd81 O106 2.377 . S
Gd81 O108 2.448 . S
Gd81 O109 2.506 . S
Gd81 O110 2.435 . S
Gd81 O111 2.717 . S
C82 O100 1.240 . S
C82 O101 1.240 . S
C83 Gd80 2.818 . S
C83 C84 1.510 . S
C83 O102 1.249 . S
C83 O103 1.252 . S
C84 C83 1.510 . S
C84 C85 1.404 . S
C84 C86 1.352 . S
C85 C84 1.404 . S
C85 C89 1.389 . S
C85 H112 0.930 . S
C86 C84 1.352 . S
C86 C88 1.374 . S
C86 H113 0.931 . S
C87 C88 1.359 . S
C87 C89 1.364 . S
C88 C86 1.374 . S
C88 C87 1.359 . S
C88 H114 0.931 . S
C89 C85 1.389 . S
C89 C87 1.364 . S
C89 H115 0.931 . S
C90 O104 1.256 . S
C90 O105 1.257 . S
C91 O106 1.240 . S
C91 O107 1.240 . S
C92 Gd81 2.818 . S
C92 C93 1.510 . S
C92 O108 1.249 . S
C92 O109 1.252 . S
C93 C92 1.510 . S
C93 C94 1.404 . S
C93 C95 1.352 . S
C94 C93 1.404 . S
C94 C98 1.389 . S
C94 H116 0.930 . S
C95 C93 1.352 . S
C95 C97 1.374 . S
C95 H117 0.931 . S
C96 C97 1.359 . S
C96 C98 1.364 . S
C97 C95 1.374 . S
C97 C96 1.359 . S
C97 H118 0.931 . S
C98 C94 1.389 . S
C98 C96 1.364 . S
C98 H119 0.931 . S
C99 O110 1.256 . S
C99 O111 1.257 . S
O100 Gd80 2.377 . S
O100 C82 1.240 . S
O101 Gd81 2.395 . S
O101 C82 1.240 . S
O102 Gd80 2.448 . S
O102 C83 1.249 . S
O103 Gd80 2.506 . S
O103 C83 1.252 . S
O104 Gd80 2.435 . S
O104 C90 1.256 . S
O105 Gd80 2.717 . S
O105 Gd81 2.327 . S
O105 C90 1.257 . S
O106 Gd81 2.377 . S
O106 C91 1.240 . S
O107 Gd80 2.395 . S
O107 C91 1.240 . S
O108 Gd81 2.448 . S
O108 C92 1.249 . S
O109 Gd81 2.506 . S
O109 C92 1.252 . S
O110 Gd81 2.435 . S
O110 C99 1.256 . S
O111 Gd80 2.327 . S
O111 Gd81 2.717 . S
O111 C99 1.257 . S
H112 C85 0.930 . S
H113 C86 0.931 . S
H114 C88 0.931 . S
H115 C89 0.931 . S
H116 C94 0.930 . S
H117 C95 0.931 . S
H118 C97 0.931 . S
H119 C98 0.931 . S
C120 C121 1.384 . S
C120 H133 0.947 . S
C120 C155 1.382 . S
C121 C120 1.384 . S
C121 C122 1.378 . S
C122 C121 1.378 . S
C122 C123 1.378 . S
C122 H134 0.952 . S
C123 C122 1.378 . S
C123 H135 0.950 . S
C123 C154 1.383 . S
H124 C143 0.947 . S
H125 C144 0.946 . S
H126 C146 0.953 . S
H127 C147 0.945 . S
H128 C149 0.952 . S
H129 C150 0.949 . S
H130 C152 0.950 . S
H131 C153 0.948 . S
H132 C155 0.951 . S
H133 C120 0.947 . S
H134 C122 0.952 . S
H135 C123 0.950 . S
N136 C139 1.382 . S
N136 C141 1.363 1_545 S
N137 C139 1.371 . S
N137 C140 1.372 . S
N138 C140 1.361 1_565 S
N138 C141 1.377 . S
C139 N136 1.382 . S
C139 N137 1.371 . S
C139 C142 1.480 . S
C140 N137 1.372 . S
C140 N138 1.361 1_545 S
C140 C148 1.457 . S
C141 N136 1.363 1_565 S
C141 N138 1.377 . S
C141 C154 1.479 . S
C142 C139 1.480 . S
C142 C143 1.383 . S
C142 C147 1.385 . S
C143 H124 0.947 . S
C143 C142 1.383 . S
C143 C144 1.388 . S
C144 H125 0.946 . S
C144 C143 1.388 . S
C144 C145 1.384 . S
C145 C144 1.384 . S
C145 C146 1.377 . S
C146 H126 0.953 . S
C146 C145 1.377 . S
C146 C147 1.369 . S
C147 H127 0.945 . S
C147 C142 1.385 . S
C147 C146 1.369 . S
C148 C140 1.457 . S
C148 C149 1.372 . S
C148 C153 1.364 1_545 S
C149 H128 0.952 . S
C149 C148 1.372 . S
C149 C150 1.389 . S
C150 H129 0.949 . S
C150 C149 1.389 . S
C150 C151 1.387 . S
C151 C150 1.387 . S
C151 C152 1.372 1_545 S
C152 H130 0.950 . S
C152 C151 1.372 1_565 S
C152 C153 1.379 . S
C153 H131 0.948 . S
C153 C148 1.364 1_565 S
C153 C152 1.379 . S
C154 C123 1.383 . S
C154 C141 1.479 . S
C154 C155 1.398 . S
C155 C120 1.382 . S
C155 H132 0.951 . S
C155 C154 1.398 . S
C156 C157 1.384 . S
C156 H169 0.947 . S
C156 C191 1.382 . S
C157 C156 1.384 . S
C157 C158 1.378 . S
C158 C157 1.378 . S
C158 C159 1.378 . S
C158 H170 0.952 . S
C159 C158 1.378 . S
C159 H171 0.950 . S
C159 C190 1.383 . S
H160 C179 0.947 . S
H161 C180 0.946 . S
H162 C182 0.953 . S
H163 C183 0.945 . S
H164 C185 0.952 . S
H165 C186 0.949 . S
H166 C188 0.950 . S
H167 C189 0.948 . S
H168 C191 0.951 . S
H169 C156 0.947 . S
H170 C158 0.952 . S
H171 C159 0.950 . S
N172 C175 1.382 . S
N172 C177 1.363 . S
N173 C175 1.371 . S
N173 C176 1.372 . S
N174 C176 1.361 . S
N174 C177 1.377 . S
C175 N172 1.382 . S
C175 N173 1.371 . S
C175 C178 1.480 . S
C176 N173 1.372 . S
C176 N174 1.361 . S
C176 C184 1.457 . S
C177 N172 1.363 . S
C177 N174 1.377 . S
C177 C190 1.479 . S
C178 C175 1.480 . S
C178 C179 1.383 . S
C178 C183 1.385 . S
C179 H160 0.947 . S
C179 C178 1.383 . S
C179 C180 1.388 . S
C180 H161 0.946 . S
C180 C179 1.388 . S
C180 C181 1.384 . S
C181 C180 1.384 . S
C181 C182 1.377 . S
C182 H162 0.953 . S
C182 C181 1.377 . S
C182 C183 1.369 . S
C183 H163 0.945 . S
C183 C178 1.385 . S
C183 C182 1.369 . S
C184 C176 1.457 . S
C184 C185 1.372 . S
C184 C189 1.364 . S
C185 H164 0.952 . S
C185 C184 1.372 . S
C185 C186 1.389 . S
C186 H165 0.949 . S
C186 C185 1.389 . S
C186 C187 1.387 . S
C187 C186 1.387 . S
C187 C188 1.372 . S
C188 H166 0.950 . S
C188 C187 1.372 . S
C188 C189 1.379 . S
C189 H167 0.948 . S
C189 C184 1.364 . S
C189 C188 1.379 . S
C190 C159 1.383 . S
C190 C177 1.479 . S
C190 C191 1.398 . S
C191 C156 1.382 . S
C191 H168 0.951 . S
C191 C190 1.398 . S
C192 C193 1.384 . S
C192 H205 0.947 . S
C192 C227 1.382 . S
C193 C192 1.384 . S
C193 C194 1.378 . S
C194 C193 1.378 . S
C194 C195 1.378 . S
C194 H206 0.952 . S
C195 C194 1.378 . S
C195 H207 0.950 1_655 S
C195 C226 1.383 . S
H196 C215 0.947 . S
H197 C216 0.946 . S
H198 C218 0.953 . S
H199 C219 0.945 . S
H200 C221 0.952 . S
H201 C222 0.949 . S
H202 C224 0.950 1_655 S
H203 C225 0.948 1_655 S
H204 C227 0.951 . S
H205 C192 0.947 . S
H206 C194 0.952 . S
H207 C195 0.950 1_455 S
N208 C211 1.382 . S
N208 C213 1.363 . S
N209 C211 1.371 . S
N209 C212 1.372 . S
N210 C212 1.361 . S
N210 C213 1.377 . S
C211 N208 1.382 . S
C211 N209 1.371 . S
C211 C214 1.480 . S
C212 N209 1.372 . S
C212 N210 1.361 . S
C212 C220 1.457 . S
C213 N208 1.363 . S
C213 N210 1.377 . S
C213 C226 1.482 1_455 S
C214 C211 1.480 . S
C214 C215 1.383 . S
C214 C219 1.385 . S
C215 H196 0.947 . S
C215 C214 1.383 . S
C215 C216 1.388 . S
C216 H197 0.946 . S
C216 C215 1.388 . S
C216 C217 1.384 . S
C217 C216 1.384 . S
C217 C218 1.377 . S
C218 H198 0.953 . S
C218 C217 1.377 . S
C218 C219 1.369 . S
C219 H199 0.945 . S
C219 C214 1.385 . S
C219 C218 1.369 . S
C220 C212 1.457 . S
C220 C221 1.372 . S
C220 C225 1.364 . S
C221 H200 0.952 . S
C221 C220 1.372 . S
C221 C222 1.389 . S
C222 H201 0.949 . S
C222 C221 1.389 . S
C222 C223 1.387 . S
C223 C222 1.387 . S
C223 C224 1.372 . S
C224 H202 0.950 1_455 S
C224 C223 1.372 . S
C224 C225 1.379 . S
C225 H203 0.948 1_455 S
C225 C220 1.364 . S
C225 C224 1.379 . S
C226 C195 1.383 . S
C226 C213 1.482 1_655 S
C226 C227 1.395 . S
C227 C192 1.382 . S
C227 H204 0.951 . S
C227 C226 1.395 . S
C228 C229 1.384 . S
C228 H241 0.947 . S
C228 C263 1.382 . S
C229 C228 1.384 . S
C229 C230 1.378 . S
C230 C229 1.378 . S
C230 C231 1.378 . S
C230 H242 0.952 . S
C231 C230 1.378 . S
C231 H243 0.950 . S
C231 C262 1.383 . S
H232 C251 0.947 . S
H233 C252 0.946 . S
H234 C254 0.953 . S
H235 C255 0.945 . S
H236 C257 0.952 . S
H237 C258 0.949 . S
H238 C260 0.950 . S
H239 C261 0.948 . S
H240 C263 0.951 . S
H241 C228 0.947 . S
H242 C230 0.952 . S
H243 C231 0.950 . S
N244 C247 1.382 1_455 S
N244 C249 1.363 . S
N245 C247 1.371 . S
N245 C248 1.372 1_655 S
N246 C248 1.361 . S
N246 C249 1.377 . S
C247 N244 1.382 1_655 S
C247 N245 1.371 . S
C247 C250 1.480 . S
C248 N245 1.372 1_455 S
C248 N246 1.361 . S
C248 C256 1.457 . S
C249 N244 1.363 . S
C249 N246 1.377 . S
C249 C262 1.479 . S
C250 C247 1.480 . S
C250 C251 1.383 . S
C250 C255 1.385 . S
C251 H232 0.947 . S
C251 C250 1.383 . S
C251 C252 1.388 . S
C252 H233 0.946 . S
C252 C251 1.388 . S
C252 C253 1.384 . S
C253 C252 1.384 . S
C253 C254 1.377 . S
C254 H234 0.953 . S
C254 C253 1.377 . S
C254 C255 1.369 . S
C255 H235 0.945 . S
C255 C250 1.385 . S
C255 C254 1.369 . S
C256 C248 1.457 . S
C256 C257 1.372 1_455 S
C256 C261 1.364 . S
C257 H236 0.952 . S
C257 C256 1.372 1_655 S
C257 C258 1.389 . S
C258 H237 0.949 . S
C258 C257 1.389 . S
C258 C259 1.374 1_655 S
C259 C258 1.374 1_455 S
C259 C260 1.386 . S
C260 H238 0.950 . S
C260 C259 1.386 . S
C260 C261 1.379 . S
C261 H239 0.948 . S
C261 C256 1.364 . S
C261 C260 1.379 . S
C262 C231 1.383 . S
C262 C249 1.479 . S
C262 C263 1.398 . S
C263 C228 1.382 . S
C263 H240 0.951 . S
C263 C262 1.398 . S
C264 C265 1.384 . S
C264 H277 0.947 . S
C264 C299 1.382 . S
C265 C264 1.384 . S
C265 C266 1.378 . S
C266 C265 1.378 . S
C266 C267 1.378 . S
C266 H278 0.952 . S
C267 C266 1.378 . S
C267 H279 0.950 . S
C267 C298 1.383 . S
H268 C287 0.947 . S
H269 C288 0.946 . S
H270 C290 0.953 . S
H271 C291 0.945 . S
H272 C293 0.952 . S
H273 C294 0.949 . S
H274 C296 0.950 . S
H275 C297 0.948 . S
H276 C299 0.951 . S
H277 C264 0.947 . S
H278 C266 0.952 . S
H279 C267 0.950 . S
N280 C283 1.382 1_545 S
N280 C285 1.363 . S
N281 C283 1.371 . S
N281 C284 1.372 1_565 S
N282 C284 1.361 . S
N282 C285 1.377 . S
C283 N280 1.382 1_565 S
C283 N281 1.371 . S
C283 C286 1.480 . S
C284 N281 1.372 1_545 S
C284 N282 1.361 . S
C284 C292 1.457 . S
C285 N280 1.363 . S
C285 N282 1.377 . S
C285 C298 1.479 . S
C286 C283 1.480 . S
C286 C287 1.383 . S
C286 C291 1.385 . S
C287 H268 0.947 . S
C287 C286 1.383 . S
C287 C288 1.388 . S
C288 H269 0.946 . S
C288 C287 1.388 . S
C288 C289 1.384 . S
C289 C288 1.384 . S
C289 C290 1.377 . S
C290 H270 0.953 . S
C290 C289 1.377 . S
C290 C291 1.369 . S
C291 H271 0.945 . S
C291 C286 1.385 . S
C291 C290 1.369 . S
C292 C284 1.457 . S
C292 C293 1.372 1_545 S
C292 C297 1.364 . S
C293 H272 0.952 . S
C293 C292 1.372 1_565 S
C293 C294 1.389 . S
C294 H273 0.949 . S
C294 C293 1.389 . S
C294 C295 1.387 . S
C295 C294 1.387 . S
C295 C296 1.372 1_565 S
C296 H274 0.950 . S
C296 C295 1.372 1_545 S
C296 C297 1.379 . S
C297 H275 0.948 . S
C297 C292 1.364 . S
C297 C296 1.379 . S
C298 C267 1.383 . S
C298 C285 1.479 . S
C298 C299 1.398 . S
C299 C264 1.382 . S
C299 H276 0.951 . S
C299 C298 1.398 . S
C300 C301 1.384 . S
C300 H313 0.947 . S
C300 C335 1.382 . S
C301 C300 1.384 . S
C301 C302 1.378 . S
C302 C301 1.378 . S
C302 C303 1.378 . S
C302 H314 0.952 . S
C303 C302 1.378 . S
C303 H315 0.950 . S
C303 C334 1.383 . S
H304 C323 0.947 . S
H305 C324 0.946 . S
H306 C326 0.953 . S
H307 C327 0.945 . S
H308 C329 0.952 . S
H309 C330 0.949 . S
H310 C332 0.950 . S
H311 C333 0.948 . S
H312 C335 0.951 . S
H313 C300 0.947 . S
H314 C302 0.952 . S
H315 C303 0.950 . S
N316 C319 1.382 . S
N316 C321 1.363 . S
N317 C319 1.371 . S
N317 C320 1.372 . S
N318 C320 1.361 . S
N318 C321 1.377 . S
C319 N316 1.382 . S
C319 N317 1.371 . S
C319 C322 1.480 . S
C320 N317 1.372 . S
C320 N318 1.361 . S
C320 C328 1.457 . S
C321 N316 1.363 . S
C321 N318 1.377 . S
C321 C334 1.479 . S
C322 C319 1.480 . S
C322 C323 1.383 . S
C322 C327 1.385 . S
C323 H304 0.947 . S
C323 C322 1.383 . S
C323 C324 1.388 . S
C324 H305 0.946 . S
C324 C323 1.388 . S
C324 C325 1.384 . S
C325 C324 1.384 . S
C325 C326 1.377 . S
C326 H306 0.953 . S
C326 C325 1.377 . S
C326 C327 1.369 . S
C327 H307 0.945 . S
C327 C322 1.385 . S
C327 C326 1.369 . S
C328 C320 1.457 . S
C328 C329 1.372 . S
C328 C333 1.364 . S
C329 H308 0.952 . S
C329 C328 1.372 . S
C329 C330 1.389 . S
C330 H309 0.949 . S
C330 C329 1.389 . S
C330 C331 1.387 . S
C331 C330 1.387 . S
C331 C332 1.372 . S
C332 H310 0.950 . S
C332 C331 1.372 . S
C332 C333 1.379 . S
C333 H311 0.948 . S
C333 C328 1.364 . S
C333 C332 1.379 . S
C334 C303 1.383 . S
C334 C321 1.479 . S
C334 C335 1.398 . S
C335 C300 1.382 . S
C335 H312 0.951 . S
C335 C334 1.398 . S
H336 C342 0.930 . S
H337 C346 0.930 . S
H338 C351 0.929 . S
H339 C349 0.929 . S
H340 C344 0.929 . S
H341 C350 0.929 . S
C342 H336 0.930 . S
C342 C343 1.367 . S
C342 C350 1.378 . S
C343 C342 1.367 . S
C343 C351 1.433 . S
C344 H340 0.929 . S
C344 C346 1.378 . S
C344 C348 1.350 . S
C345 C348 1.463 . S
C345 C350 1.350 . S
C345 N353 1.427 . S
C346 H337 0.930 . S
C346 C344 1.378 . S
C346 C347 1.367 . S
C347 C346 1.367 . S
C347 C349 1.433 . S
C348 C344 1.350 . S
C348 C345 1.463 . S
C348 N352 1.427 . S
C349 H339 0.929 . S
C349 C347 1.433 . S
C349 N352 1.384 . S
C350 H341 0.929 . S
C350 C342 1.378 . S
C350 C345 1.350 . S
C351 H338 0.929 . S
C351 C343 1.433 . S
C351 N353 1.384 . S
N352 C348 1.427 . S
N352 C349 1.384 . S
N353 C345 1.427 . S
N353 C351 1.384 . S
H354 C360 0.930 . S
H355 C364 0.930 . S
H356 C369 0.929 . S
H357 C367 0.929 . S
H358 C362 0.929 . S
H359 C368 0.929 . S
C360 H354 0.930 . S
C360 C361 1.367 . S
C360 C368 1.378 . S
C361 C360 1.367 . S
C361 C369 1.433 . S
C362 H358 0.929 . S
C362 C364 1.378 . S
C362 C366 1.350 . S
C363 C366 1.463 . S
C363 C368 1.350 . S
C363 N371 1.427 . S
C364 H355 0.930 . S
C364 C362 1.378 . S
C364 C365 1.367 . S
C365 C364 1.367 . S
C365 C367 1.433 . S
C366 C362 1.350 . S
C366 C363 1.463 . S
C366 N370 1.427 . S
C367 H357 0.929 . S
C367 C365 1.433 . S
C367 N370 1.384 . S
C368 H359 0.929 . S
C368 C360 1.378 . S
C368 C363 1.350 . S
C369 H356 0.929 . S
C369 C361 1.433 . S
C369 N371 1.384 . S
N370 C366 1.427 . S
N370 C367 1.384 . S
N371 C363 1.427 . S
N371 C369 1.384 . S
H372 C378 0.930 . S
H373 C382 0.930 . S
H374 C387 0.929 . S
H375 C385 0.929 . S
H376 C380 0.929 . S
H377 C386 0.929 . S
C378 H372 0.930 . S
C378 C379 1.367 . S
C378 C386 1.378 . S
C379 C378 1.367 . S
C379 C387 1.433 . S
C380 H376 0.929 . S
C380 C382 1.378 . S
C380 C384 1.350 . S
C381 C384 1.463 . S
C381 C386 1.350 . S
C381 N389 1.427 . S
C382 H373 0.930 . S
C382 C380 1.378 . S
C382 C383 1.367 . S
C383 C382 1.367 . S
C383 C385 1.433 . S
C384 C380 1.350 . S
C384 C381 1.463 . S
C384 N388 1.427 . S
C385 H375 0.929 . S
C385 C383 1.433 . S
C385 N388 1.384 . S
C386 H377 0.929 . S
C386 C378 1.378 . S
C386 C381 1.350 . S
C387 H374 0.929 . S
C387 C379 1.433 . S
C387 N389 1.384 . S
N388 C384 1.427 . S
N388 C385 1.384 . S
N389 C381 1.427 . S
N389 C387 1.384 . S
H390 C396 0.930 . S
H391 C400 0.930 . S
H392 C405 0.929 . S
H393 C403 0.929 . S
H394 C398 0.929 . S
H395 C404 0.929 . S
C396 H390 0.930 . S
C396 C397 1.367 . S
C396 C404 1.378 . S
C397 C396 1.367 . S
C397 C405 1.433 . S
C398 H394 0.929 . S
C398 C400 1.378 . S
C398 C402 1.350 . S
C399 C402 1.463 . S
C399 C404 1.350 . S
C399 N407 1.427 . S
C400 H391 0.930 . S
C400 C398 1.378 . S
C400 C401 1.367 . S
C401 C400 1.367 . S
C401 C403 1.433 . S
C402 C398 1.350 . S
C402 C399 1.463 . S
C402 N406 1.427 . S
C403 H393 0.929 . S
C403 C401 1.433 . S
C403 N406 1.384 . S
C404 H395 0.929 . S
C404 C396 1.378 . S
C404 C399 1.350 . S
C405 H392 0.929 . S
C405 C397 1.433 . S
C405 N407 1.384 . S
N406 C402 1.427 . S
N406 C403 1.384 . S
N407 C399 1.427 . S
N407 C405 1.384 . S
H408 C414 0.930 . S
H409 C418 0.930 . S
H410 C423 0.929 . S
H411 C421 0.929 . S
H412 C416 0.929 . S
H413 C422 0.929 . S
C414 H408 0.930 . S
C414 C415 1.367 . S
C414 C422 1.378 . S
C415 C414 1.367 . S
C415 C423 1.433 . S
C416 H412 0.929 . S
C416 C418 1.378 . S
C416 C420 1.350 . S
C417 C420 1.463 . S
C417 C422 1.350 . S
C417 N425 1.427 . S
C418 H409 0.930 . S
C418 C416 1.378 . S
C418 C419 1.367 . S
C419 C418 1.367 . S
C419 C421 1.433 . S
C420 C416 1.350 . S
C420 C417 1.463 . S
C420 N424 1.427 . S
C421 H411 0.929 . S
C421 C419 1.433 . S
C421 N424 1.384 . S
C422 H413 0.929 . S
C422 C414 1.378 . S
C422 C417 1.350 . S
C423 H410 0.929 . S
C423 C415 1.433 . S
C423 N425 1.384 . S
N424 C420 1.427 . S
N424 C421 1.384 . S
N425 C417 1.427 . S
N425 C423 1.384 . S
H426 C432 0.930 . S
H427 C436 0.930 . S
H428 C441 0.929 . S
H429 C439 0.929 . S
H430 C434 0.929 . S
H431 C440 0.929 . S
C432 H426 0.930 . S
C432 C433 1.367 . S
C432 C440 1.378 . S
C433 C432 1.367 . S
C433 C441 1.433 . S
C434 H430 0.929 . S
C434 C436 1.378 . S
C434 C438 1.350 . S
C435 C438 1.463 . S
C435 C440 1.350 . S
C435 N443 1.427 . S
C436 H427 0.930 . S
C436 C434 1.378 . S
C436 C437 1.367 . S
C437 C436 1.367 . S
C437 C439 1.433 . S
C438 C434 1.350 . S
C438 C435 1.463 . S
C438 N442 1.427 . S
C439 H429 0.929 . S
C439 C437 1.433 . S
C439 N442 1.384 . S
C440 H431 0.929 . S
C440 C432 1.378 . S
C440 C435 1.350 . S
C441 H428 0.929 . S
C441 C433 1.433 . S
C441 N443 1.384 . S
N442 C438 1.427 . S
N442 C439 1.384 . S
N443 C435 1.427 . S
N443 C441 1.384 . S
H444 C450 0.930 . S
H445 C454 0.930 . S
H446 C459 0.929 . S
H447 C457 0.929 . S
H448 C452 0.929 . S
H449 C458 0.929 . S
C450 H444 0.930 . S
C450 C451 1.367 . S
C450 C458 1.378 . S
C451 C450 1.367 . S
C451 C459 1.433 . S
C452 H448 0.929 . S
C452 C454 1.378 . S
C452 C456 1.350 . S
C453 C456 1.463 . S
C453 C458 1.350 . S
C453 N461 1.427 . S
C454 H445 0.930 . S
C454 C452 1.378 . S
C454 C455 1.367 . S
C455 C454 1.367 . S
C455 C457 1.433 . S
C456 C452 1.350 . S
C456 C453 1.463 . S
C456 N460 1.427 . S
C457 H447 0.929 . S
C457 C455 1.433 . S
C457 N460 1.384 . S
C458 H449 0.929 . S
C458 C450 1.378 . S
C458 C453 1.350 . S
C459 H446 0.929 . S
C459 C451 1.433 . S
C459 N461 1.384 . S
N460 C456 1.427 . S
N460 C457 1.384 . S
N461 C453 1.427 . S
N461 C459 1.384 . S
H462 C468 0.930 . S
H463 C472 0.930 . S
H464 C477 0.929 . S
H465 C475 0.929 . S
H466 C470 0.929 . S
H467 C476 0.929 . S
C468 H462 0.930 . S
C468 C469 1.367 . S
C468 C476 1.378 . S
C469 C468 1.367 . S
C469 C477 1.433 . S
C470 H466 0.929 . S
C470 C472 1.378 . S
C470 C474 1.350 . S
C471 C474 1.463 . S
C471 C476 1.350 . S
C471 N479 1.427 . S
C472 H463 0.930 . S
C472 C470 1.378 . S
C472 C473 1.367 . S
C473 C472 1.367 . S
C473 C475 1.433 . S
C474 C470 1.350 . S
C474 C471 1.463 . S
C474 N478 1.427 . S
C475 H465 0.929 . S
C475 C473 1.433 . S
C475 N478 1.384 . S
C476 H467 0.929 . S
C476 C468 1.378 . S
C476 C471 1.350 . S
C477 H464 0.929 . S
C477 C469 1.433 . S
C477 N479 1.384 . S
N478 C474 1.427 . S
N478 C475 1.384 . S
N479 C471 1.427 . S
N479 C477 1.384 . S
H480 C486 0.930 . S
H481 C490 0.930 . S
H482 C495 0.929 . S
H483 C493 0.929 . S
H484 C488 0.929 . S
H485 C494 0.929 . S
C486 H480 0.930 . S
C486 C487 1.367 . S
C486 C494 1.378 . S
C487 C486 1.367 . S
C487 C495 1.433 . S
C488 H484 0.929 . S
C488 C490 1.378 . S
C488 C492 1.350 . S
C489 C492 1.463 . S
C489 C494 1.350 . S
C489 N497 1.427 . S
C490 H481 0.930 . S
C490 C488 1.378 . S
C490 C491 1.367 . S
C491 C490 1.367 . S
C491 C493 1.433 . S
C492 C488 1.350 . S
C492 C489 1.463 . S
C492 N496 1.427 . S
C493 H483 0.929 . S
C493 C491 1.433 . S
C493 N496 1.384 . S
C494 H485 0.929 . S
C494 C486 1.378 . S
C494 C489 1.350 . S
C495 H482 0.929 . S
C495 C487 1.433 . S
C495 N497 1.384 . S
N496 C492 1.427 . S
N496 C493 1.384 . S
N497 C489 1.427 . S
N497 C495 1.384 . S
H498 C504 0.930 . S
H499 C508 0.930 . S
H500 C513 0.929 . S
H501 C511 0.929 . S
H502 C506 0.929 . S
H503 C512 0.929 . S
C504 H498 0.930 . S
C504 C505 1.367 . S
C504 C512 1.378 . S
C505 C504 1.367 . S
C505 C513 1.433 . S
C506 H502 0.929 . S
C506 C508 1.378 . S
C506 C510 1.350 . S
C507 C510 1.463 . S
C507 C512 1.350 . S
C507 N515 1.427 . S
C508 H499 0.930 . S
C508 C506 1.378 . S
C508 C509 1.367 . S
C509 C508 1.367 . S
C509 C511 1.433 . S
C510 C506 1.350 . S
C510 C507 1.463 . S
C510 N514 1.427 . S
C511 H501 0.929 . S
C511 C509 1.433 . S
C511 N514 1.384 . S
C512 H503 0.929 . S
C512 C504 1.378 . S
C512 C507 1.350 . S
C513 H500 0.929 . S
C513 C505 1.433 . S
C513 N515 1.384 . S
N514 C510 1.427 . S
N514 C511 1.384 . S
N515 C507 1.427 . S
N515 C513 1.384 . S
H516 C522 0.930 . S
H517 C526 0.930 . S
H518 C531 0.929 . S
H519 C529 0.929 . S
H520 C524 0.929 . S
H521 C530 0.929 . S
C522 H516 0.930 . S
C522 C523 1.367 . S
C522 C530 1.378 . S
C523 C522 1.367 . S
C523 C531 1.433 . S
C524 H520 0.929 . S
C524 C526 1.378 . S
C524 C528 1.350 . S
C525 C528 1.463 . S
C525 C530 1.350 . S
C525 N533 1.427 . S
C526 H517 0.930 . S
C526 C524 1.378 . S
C526 C527 1.367 . S
C527 C526 1.367 . S
C527 C529 1.433 . S
C528 C524 1.350 . S
C528 C525 1.463 . S
C528 N532 1.427 . S
C529 H519 0.929 . S
C529 C527 1.433 . S
C529 N532 1.384 . S
C530 H521 0.929 . S
C530 C522 1.378 . S
C530 C525 1.350 . S
C531 H518 0.929 . S
C531 C523 1.433 . S
C531 N533 1.384 . S
N532 C528 1.427 . S
N532 C529 1.384 . S
N533 C525 1.427 . S
N533 C531 1.384 . S
H534 C540 0.930 . S
H535 C544 0.930 . S
H536 C549 0.929 . S
H537 C547 0.929 . S
H538 C542 0.929 . S
H539 C548 0.929 . S
C540 H534 0.930 . S
C540 C541 1.367 . S
C540 C548 1.378 . S
C541 C540 1.367 . S
C541 C549 1.433 . S
C542 H538 0.929 . S
C542 C544 1.378 . S
C542 C546 1.350 . S
C543 C546 1.463 . S
C543 C548 1.350 . S
C543 N551 1.427 . S
C544 H535 0.930 . S
C544 C542 1.378 . S
C544 C545 1.367 . S
C545 C544 1.367 . S
C545 C547 1.433 . S
C546 C542 1.350 . S
C546 C543 1.463 . S
C546 N550 1.427 . S
C547 H537 0.929 . S
C547 C545 1.433 . S
C547 N550 1.384 . S
C548 H539 0.929 . S
C548 C540 1.378 . S
C548 C543 1.350 . S
C549 H536 0.929 . S
C549 C541 1.433 . S
C549 N551 1.384 . S
N550 C546 1.427 . S
N550 C547 1.384 . S
N551 C543 1.427 . S
N551 C549 1.384 . S
H552 C558 0.939 . S
H553 C562 0.930 . S
H554 C567 0.929 . S
H555 C565 0.935 1_655 S
H556 C560 0.929 . S
H557 C566 0.929 1_655 S
C558 H552 0.939 . S
C558 C559 1.358 1_655 S
C558 C566 1.378 1_655 S
C559 C558 1.358 1_455 S
C559 C567 1.433 . S
C560 H556 0.929 . S
C560 C562 1.378 . S
C560 C564 1.350 . S
C561 C564 1.463 . S
C561 C566 1.350 . S
C561 N569 1.427 . S
C562 H553 0.930 . S
C562 C560 1.378 . S
C562 C563 1.367 . S
C563 C562 1.367 . S
C563 C565 1.433 . S
C564 C560 1.350 . S
C564 C561 1.463 . S
C564 N568 1.427 . S
C565 H555 0.935 1_455 S
C565 C563 1.433 . S
C565 N568 1.384 . S
C566 H557 0.929 1_455 S
C566 C558 1.378 1_455 S
C566 C561 1.350 . S
C567 H554 0.929 . S
C567 C559 1.433 . S
C567 N569 1.384 . S
N568 C564 1.427 . S
N568 C565 1.384 . S
N569 C561 1.427 . S
N569 C567 1.384 . S
H570 C576 0.930 . S
H571 C580 0.930 . S
H572 C585 0.929 . S
H573 C583 0.929 . S
H574 C578 0.929 . S
H575 C584 0.929 . S
C576 H570 0.930 . S
C576 C577 1.367 . S
C576 C584 1.378 . S
C577 C576 1.367 . S
C577 C585 1.433 1_545 S
C578 H574 0.929 . S
C578 C580 1.378 . S
C578 C582 1.350 1_565 S
C579 C582 1.463 . S
C579 C584 1.350 . S
C579 N587 1.427 1_545 S
C580 H571 0.930 . S
C580 C578 1.378 . S
C580 C581 1.367 1_565 S
C581 C580 1.367 1_545 S
C581 C583 1.433 . S
C582 C578 1.350 1_545 S
C582 C579 1.463 . S
C582 N586 1.427 . S
C583 H573 0.929 . S
C583 C581 1.433 . S
C583 N586 1.384 . S
C584 H575 0.929 . S
C584 C576 1.378 . S
C584 C579 1.350 . S
C585 H572 0.929 . S
C585 C577 1.433 1_565 S
C585 N587 1.384 . S
N586 C582 1.427 . S
N586 C583 1.384 . S
N587 C579 1.427 1_565 S
N587 C585 1.384 . S
H588 C594 0.930 . S
H589 C598 0.930 . S
H590 C603 0.929 . S
H591 C601 0.929 . S
H592 C596 0.929 . S
H593 C602 0.929 . S
C594 H588 0.930 . S
C594 C595 1.367 . S
C594 C602 1.378 . S
C595 C594 1.367 . S
C595 C603 1.433 . S
C596 H592 0.929 . S
C596 C598 1.378 . S
C596 C600 1.350 . S
C597 C600 1.463 . S
C597 C602 1.350 . S
C597 N605 1.427 . S
C598 H589 0.930 . S
C598 C596 1.378 . S
C598 C599 1.367 . S
C599 C598 1.367 . S
C599 C601 1.433 . S
C600 C596 1.350 . S
C600 C597 1.463 . S
C600 N604 1.427 . S
C601 H591 0.929 . S
C601 C599 1.433 . S
C601 N604 1.384 . S
C602 H593 0.929 . S
C602 C594 1.378 . S
C602 C597 1.350 . S
C603 H590 0.929 . S
C603 C595 1.433 . S
C603 N605 1.384 . S
N604 C600 1.427 . S
N604 C601 1.384 . S
N605 C597 1.427 . S
N605 C603 1.384 . S
H606 C612 0.930 . S
H607 C616 0.930 . S
H608 C621 0.929 . S
H609 C619 0.929 . S
H610 C614 0.929 . S
H611 C620 0.929 . S
C612 H606 0.930 . S
C612 C613 1.367 1_565 S
C612 C620 1.378 . S
C613 C612 1.367 1_545 S
C613 C621 1.433 . S
C614 H610 0.929 . S
C614 C616 1.378 . S
C614 C618 1.366 . S
C615 C618 1.462 . S
C615 C620 1.323 1_545 S
C615 N623 1.458 . S
C616 H607 0.930 . S
C616 C614 1.378 . S
C616 C617 1.367 1_545 S
C617 C616 1.367 1_565 S
C617 C619 1.433 . S
C618 C614 1.366 . S
C618 C615 1.462 . S
C618 N622 1.408 1_545 S
C619 H609 0.929 . S
C619 C617 1.433 . S
C619 N622 1.384 . S
C620 H611 0.929 . S
C620 C612 1.378 . S
C620 C615 1.323 1_565 S
C621 H608 0.929 . S
C621 C613 1.433 . S
C621 N623 1.384 . S
N622 C618 1.408 1_565 S
N622 C619 1.384 . S
N623 C615 1.458 . S
N623 C621 1.384 . S
H624 C630 0.930 . S
H625 C634 0.930 . S
H626 C639 0.929 . S
H627 C637 0.929 . S
H628 C632 0.929 . S
H629 C638 0.929 . S
C630 H624 0.930 . S
C630 C631 1.367 . S
C630 C638 1.378 . S
C631 C630 1.367 . S
C631 C639 1.433 . S
C632 H628 0.929 . S
C632 C634 1.378 . S
C632 C636 1.350 . S
C633 C636 1.463 . S
C633 C638 1.350 . S
C633 N641 1.427 . S
C634 H625 0.930 . S
C634 C632 1.378 . S
C634 C635 1.367 . S
C635 C634 1.367 . S
C635 C637 1.433 . S
C636 C632 1.350 . S
C636 C633 1.463 . S
C636 N640 1.427 . S
C637 H627 0.929 . S
C637 C635 1.433 . S
C637 N640 1.384 . S
C638 H629 0.929 . S
C638 C630 1.378 . S
C638 C633 1.350 . S
C639 H626 0.929 . S
C639 C631 1.433 . S
C639 N641 1.384 . S
N640 C636 1.427 . S
N640 C637 1.384 . S
N641 C633 1.427 . S
N641 C639 1.384 . S
H642 C648 0.930 1_655 S
H643 C652 0.930 . S
H644 C657 0.929 . S
H645 C655 0.929 . S
H646 C650 0.929 . S
H647 C656 0.939 1_655 S
C648 H642 0.930 1_455 S
C648 C649 1.367 . S
C648 C656 1.382 . S
C649 C648 1.367 . S
C649 C657 1.433 . S
C650 H646 0.929 . S
C650 C652 1.378 . S
C650 C654 1.350 . S
C651 C654 1.463 . S
C651 C656 1.337 . S
C651 N659 1.427 . S
C652 H643 0.930 . S
C652 C650 1.378 . S
C652 C653 1.367 1_455 S
C653 C652 1.367 1_655 S
C653 C655 1.433 . S
C654 C650 1.350 . S
C654 C651 1.463 . S
C654 N658 1.427 1_455 S
C655 H645 0.929 . S
C655 C653 1.433 . S
C655 N658 1.384 . S
C656 H647 0.939 1_455 S
C656 C648 1.382 . S
C656 C651 1.337 . S
C657 H644 0.929 . S
C657 C649 1.433 . S
C657 N659 1.384 . S
N658 C654 1.427 1_655 S
N658 C655 1.384 . S
N659 C651 1.427 . S
N659 C657 1.384 . S
C343 C7 0.677 . S
C347 C325 0.656 . S
C361 C51 1.917 . S
C365 C253 1.846 . S
C379 C87 1.221 . S
C383 C289 1.232 . S
C397 C16 0.409 . S
C401 C301 0.324 . S
C419 C229 2.017 . S
C415 C42 2.060 . S
C437 C265 1.348 . S
C433 C96 1.339 . S
C451 C47 1.202 . S
C455 C181 1.205 . S
C469 C91 3.120 . S
C473 C193 3.071 . S
C487 C2 2.098 . S
C491 C121 2.051 . S
C509 C157 1.331 . S
C505 C56 1.314 . S
C527 C217 2.922 . S
C523 C82 2.998 . S
C541 C11 1.909 . S
C545 C145 1.852 . S
C563 C223 1.770 1_554 S
C559 C19 1.707 . S
C577 C50 1.341 . S
C581 C151 1.373 . S
C595 C99 1.460 . S
C599 C187 1.508 . S
C617 C295 1.481 . S
C613 C59 1.459 . S
C635 C331 1.125 1_556 S
C631 C90 1.114 . S
C649 C10 1.333 . S
C653 C259 1.364 1_655 S
