# Generated by pormake.
# Topology apo, (3,6)-cn, num edge types: 1
# Building blocks:
#     Node 0, Type 0, BuildingBlock: BETDIP_clean_linker_0, # of connection points: 3
#     Node 1, Type 0, BuildingBlock: BETDIP_clean_linker_0, # of connection points: 3
#     Node 2, Type 0, BuildingBlock: BETDIP_clean_linker_0, # of connection points: 3
#     Node 3, Type 0, BuildingBlock: BETDIP_clean_linker_0, # of connection points: 3
#     Node 4, Type 0, BuildingBlock: BETDIP_clean_linker_0, # of connection points: 3
#     Node 5, Type 0, BuildingBlock: BETDIP_clean_linker_0, # of connection points: 3
#     Node 6, Type 0, BuildingBlock: BETDIP_clean_linker_0, # of connection points: 3
#     Node 7, Type 0, BuildingBlock: BETDIP_clean_linker_0, # of connection points: 3
#     Node 8, Type 1, BuildingBlock: KUMBUR_clean_sbu_1, # of connection points: 6
#     Node 9, Type 1, BuildingBlock: KUMBUR_clean_sbu_1, # of connection points: 6
#     Node 10, Type 1, BuildingBlock: KUMBUR_clean_sbu_1, # of connection points: 6
#     Node 11, Type 1, BuildingBlock: KUMBUR_clean_sbu_1, # of connection points: 6
#     Edge 12, Type (0, 1), BuildingBlock: OJICUG_clean_linker_0, # of connection points: 2
#     Edge 13, Type (0, 1), BuildingBlock: OJICUG_clean_linker_0, # of connection points: 2
#     Edge 14, Type (0, 1), BuildingBlock: OJICUG_clean_linker_0, # of connection points: 2
#     Edge 15, Type (0, 1), BuildingBlock: OJICUG_clean_linker_0, # of connection points: 2
#     Edge 16, Type (0, 1), BuildingBlock: OJICUG_clean_linker_0, # of connection points: 2
#     Edge 17, Type (0, 1), BuildingBlock: OJICUG_clean_linker_0, # of connection points: 2
#     Edge 18, Type (0, 1), BuildingBlock: OJICUG_clean_linker_0, # of connection points: 2
#     Edge 19, Type (0, 1), BuildingBlock: OJICUG_clean_linker_0, # of connection points: 2
#     Edge 20, Type (0, 1), BuildingBlock: OJICUG_clean_linker_0, # of connection points: 2
#     Edge 21, Type (0, 1), BuildingBlock: OJICUG_clean_linker_0, # of connection points: 2
#     Edge 22, Type (0, 1), BuildingBlock: OJICUG_clean_linker_0, # of connection points: 2
#     Edge 23, Type (0, 1), BuildingBlock: OJICUG_clean_linker_0, # of connection points: 2
#     Edge 24, Type (0, 1), BuildingBlock: OJICUG_clean_linker_0, # of connection points: 2
#     Edge 25, Type (0, 1), BuildingBlock: OJICUG_clean_linker_0, # of connection points: 2
#     Edge 26, Type (0, 1), BuildingBlock: OJICUG_clean_linker_0, # of connection points: 2
#     Edge 27, Type (0, 1), BuildingBlock: OJICUG_clean_linker_0, # of connection points: 2
#     Edge 28, Type (0, 1), BuildingBlock: OJICUG_clean_linker_0, # of connection points: 2
#     Edge 29, Type (0, 1), BuildingBlock: OJICUG_clean_linker_0, # of connection points: 2
#     Edge 30, Type (0, 1), BuildingBlock: OJICUG_clean_linker_0, # of connection points: 2
#     Edge 31, Type (0, 1), BuildingBlock: OJICUG_clean_linker_0, # of connection points: 2
#     Edge 32, Type (0, 1), BuildingBlock: OJICUG_clean_linker_0, # of connection points: 2
#     Edge 33, Type (0, 1), BuildingBlock: OJICUG_clean_linker_0, # of connection points: 2
#     Edge 34, Type (0, 1), BuildingBlock: OJICUG_clean_linker_0, # of connection points: 2
#     Edge 35, Type (0, 1), BuildingBlock: OJICUG_clean_linker_0, # of connection points: 2
# Relax obj value: 0.037
# Max RMSD: 0.218
# Mean RMSD: 0.168
data_MOF--net-apo--node1-KUMBUR_clean_sbu_1--node2-BETDIP_clean_linker_0--edge1-OJICUG_clean_linker_0
_symmetry_space_group_name_H-M    P1
_symmetry_Int_Tables_number       1
_symmetry_cell_setting            triclinic
loop_
_symmetry_equiv_pos_as_xyz
'x, y, z'
_cell_length_a     20.686911
_cell_length_b     30.05582
_cell_length_c     39.191461
_cell_angle_alpha  89.324392
_cell_angle_beta   90.359395
_cell_angle_gamma 91.091799
loop_
_atom_site_label
_atom_site_type_symbol
_atom_site_fract_x
_atom_site_fract_y
_atom_site_fract_z
_atom_type_partial_charge
H0 H 0.26831 0.34479 0.45814 0.0
H1 H 0.3058 0.39484 0.35693 0.0
H2 H 0.38253 0.4651 0.44339 0.0
H3 H 0.19575 0.36417 0.35287 0.0
C4 C 0.20734 0.33165 0.36342 0.0
C5 C 0.29173 0.36918 0.44155 0.0
C6 C 0.3259 0.40571 0.45553 0.0
C7 C 0.28344 0.36538 0.40617 0.0
C8 C 0.31124 0.39774 0.38434 0.0
C9 C 0.3477 0.43332 0.39773 0.0
C10 C 0.35512 0.43711 0.43321 0.0
N11 N 0.24683 0.32877 0.39315 0.0
H12 H 0.20547 0.16275 0.95937 0.0
H13 H 0.18799 0.11594 0.85629 0.0
H14 H 0.08447 0.0482 0.93657 0.0
H15 H 0.29595 0.14466 0.85651 0.0
C16 C 0.2861 0.17685 0.86751 0.0
C17 C 0.18543 0.13912 0.94131 0.0
C18 C 0.14327 0.10468 0.95266 0.0
C19 C 0.20247 0.14323 0.90673 0.0
C20 C 0.17634 0.11274 0.88312 0.0
C21 C 0.13302 0.07894 0.89379 0.0
C22 C 0.1166 0.07514 0.92843 0.0
N23 N 0.24427 0.179 0.89614 0.0
H24 H 0.74244 0.17902 0.59259 0.0
H25 H 0.72924 0.10762 0.68814 0.0
H26 H 0.85905 0.06403 0.61081 0.0
H27 H 0.63693 0.14209 0.69309 0.0
C28 C 0.64322 0.17419 0.68045 0.0
C29 C 0.75673 0.15143 0.60885 0.0
C30 C 0.80369 0.12192 0.59771 0.0
C31 C 0.72905 0.14655 0.64116 0.0
C32 C 0.74888 0.11149 0.66277 0.0
C33 C 0.79496 0.08109 0.65185 0.0
C34 C 0.82253 0.08675 0.61929 0.0
N35 N 0.68404 0.17882 0.6516 0.0
H36 H 0.75839 0.33458 0.09392 0.0
H37 H 0.72637 0.38881 0.19316 0.0
H38 H 0.63712 0.44802 0.10484 0.0
H39 H 0.81794 0.35711 0.2059 0.0
C40 C 0.81861 0.32657 0.19142 0.0
C41 C 0.73521 0.35867 0.10992 0.0
C42 C 0.69683 0.39188 0.09511 0.0
C43 C 0.74689 0.35761 0.14516 0.0
C44 C 0.71804 0.38946 0.16595 0.0
C45 C 0.6788 0.42267 0.15176 0.0
C46 C 0.66814 0.42324 0.11625 0.0
N47 N 0.78801 0.3243 0.15886 0.0
H48 H 0.73215 0.66115 0.58434 0.0
H49 H 0.69501 0.61426 0.68658 0.0
H50 H 0.61202 0.54422 0.60163 0.0
H51 H 0.79581 0.64692 0.69443 0.0
C52 C 0.79289 0.67773 0.67977 0.0
C53 C 0.70802 0.63776 0.60148 0.0
C54 C 0.67111 0.60198 0.58827 0.0
C55 C 0.7179 0.64223 0.63672 0.0
C56 C 0.68885 0.611 0.65926 0.0
C57 C 0.65015 0.57589 0.64663 0.0
C58 C 0.64124 0.5717 0.61124 0.0
N59 N 0.75749 0.67831 0.64853 0.0
H60 H 0.77079 0.85386 0.08728 0.0
H61 H 0.80016 0.89536 0.19064 0.0
H62 H 0.89599 0.96639 0.10955 0.0
H63 H 0.69413 0.8646 0.19268 0.0
C64 C 0.70384 0.83319 0.18042 0.0
C65 C 0.79442 0.8762 0.10507 0.0
C66 C 0.83383 0.91196 0.09326 0.0
C67 C 0.78244 0.86983 0.14002 0.0
C68 C 0.80973 0.89972 0.16367 0.0
C69 C 0.84927 0.93542 0.15255 0.0
C70 C 0.86257 0.94027 0.11761 0.0
N71 N 0.74301 0.83299 0.15073 0.0
H72 H 0.27975 0.83869 0.45401 0.0
H73 H 0.25221 0.8926 0.3532 0.0
H74 H 0.16835 0.95675 0.43955 0.0
H75 H 0.34824 0.8621 0.34507 0.0
C76 C 0.34517 0.83068 0.35899 0.0
C77 C 0.25873 0.86354 0.43724 0.0
C78 C 0.22281 0.8981 0.45087 0.0
C79 C 0.27089 0.86193 0.40231 0.0
C80 C 0.24406 0.89418 0.38036 0.0
C81 C 0.20702 0.92881 0.39333 0.0
C82 C 0.19707 0.93061 0.42888 0.0
N83 N 0.3105 0.82758 0.39005 0.0
H84 H 0.25064 0.67748 0.94768 0.0
H85 H 0.27749 0.62262 0.84834 0.0
H86 H 0.35808 0.55759 0.93678 0.0
H87 H 0.269 0.69359 0.83116 0.0
C88 C 0.23265 0.70691 0.84788 0.0
C89 C 0.27146 0.65238 0.93167 0.0
C90 C 0.30433 0.61649 0.94651 0.0
C91 C 0.26367 0.65574 0.89625 0.0
C92 C 0.28744 0.62193 0.87543 0.0
C93 C 0.32164 0.58608 0.88964 0.0
C94 C 0.3305 0.58418 0.92528 0.0
N95 N 0.22916 0.69241 0.88249 0.0
Tb96 Tb 0.08818 0.12543 0.24016 0.0
C97 C 0.81882 0.07691 0.2853 0.0
N98 N 0.85053 0.11622 0.29084 0.0
C99 C 0.75832 0.15565 0.26963 0.0
C100 C 0.7569 0.07534 0.27009 0.0
C101 C 0.81927 0.15538 0.2853 0.0
C102 C 0.72751 0.11545 0.26134 0.0
C103 C 0.81453 0.99684 0.29379 0.0
C104 C 0.84686 0.03825 0.297 0.0
C105 C 0.75421 0.99477 0.27718 0.0
C106 C 0.72547 0.03396 0.26529 0.0
Tb107 Tb 0.95229 0.11095 0.31432 0.0
N108 N 0.90599 0.04148 0.31203 0.0
C109 C 0.84347 0.95902 0.30787 0.0
C110 C 0.93285 1.00523 0.32758 0.0
C111 C 0.90244 0.96336 0.3253 0.0
H112 H 0.84042 0.18663 0.29339 0.0
H113 H 0.92457 0.93448 0.33685 0.0
H114 H 0.21641 0.08293 0.27769 0.0
H115 H 0.05308 0.28637 0.17966 0.0
H116 H 0.97853 0.00862 0.34094 0.0
H117 H 0.82017 0.92654 0.30599 0.0
H118 H 0.03179 0.20627 0.18893 0.0
H119 H 0.73468 0.18686 0.2645 0.0
H120 H 0.72883 0.9632 0.27403 0.0
H121 H 0.67817 0.03204 0.25331 0.0
H122 H 0.32052 0.11043 0.30164 0.0
H123 H 0.67997 0.11574 0.24959 0.0
H124 H 0.14686 0.32319 0.20786 0.0
N125 N 0.1871 0.14701 0.2609 0.0
C126 C 0.20408 0.19052 0.25661 0.0
C127 C 0.28796 0.13337 0.28924 0.0
C128 C 0.26258 0.20781 0.26993 0.0
C129 C 0.22901 0.1179 0.27573 0.0
C130 C 0.30446 0.17864 0.28673 0.0
N131 N 0.10758 0.19865 0.22545 0.0
C132 C 0.07069 0.22229 0.20286 0.0
C133 C 0.17782 0.26283 0.23329 0.0
C134 C 0.16215 0.21749 0.2388 0.0
C135 C 0.13666 0.2882 0.21274 0.0
C136 C 0.08358 0.26758 0.19688 0.0
H137 H 0.34994 0.19058 0.29738 0.0
H138 H 0.32159 0.26756 0.27629 0.0
H139 H 0.2474 0.3158 0.24403 0.0
O140 O 0.12409 0.13201 0.18991 0.0
O141 O 0.10723 0.14879 0.29225 0.0
O142 O 0.01086 0.1729 0.31369 0.0
O143 O 0.12796 0.06972 0.21681 0.0
O144 O 0.99181 0.15424 0.23133 0.0
O145 O 0.95198 0.17328 0.28435 0.0
O146 O 0.97232 0.09543 0.36555 0.0
O147 O 0.96849 0.06 0.27545 0.0
O148 O 0.99127 0.10097 0.22773 0.0
O149 O 0.88711 0.1311 0.35218 0.0
O150 O 0.04897 0.08694 0.32536 0.0
O151 O 0.09426 0.06562 0.27382 0.0
C152 C 0.07357 0.17803 0.30874 0.0
C153 C 0.10575 0.06705 0.15722 0.0
C154 C 0.08962 0.06198 0.09512 0.0
C155 C 0.04963 0.02415 0.10059 0.0
C156 C 0.06564 0.02913 0.1616 0.0
C157 C 0.03796 1.00797 0.1335 0.0
C158 C 0.11785 0.08322 0.12379 0.0
C159 C 0.95759 0.18 0.25115 0.0
C160 C 0.13457 0.08975 0.18737 0.0
C161 C 0.27725 0.2534 0.26587 0.0
C162 C 0.23488 0.2809 0.24761 0.0
C163 C 0.96415 0.06617 0.24241 0.0
C164 C 0.93468 0.14495 0.40614 0.0
C165 C 0.92129 0.15961 0.46676 0.0
C166 C 0.9663 0.19508 0.46399 0.0
C167 C 0.97907 0.1807 0.40372 0.0
C168 C 0.90539 0.13483 0.43757 0.0
C169 C 0.99458 0.20571 0.43256 0.0
C170 C 0.08661 0.06149 0.30732 0.0
C171 C 0.92223 0.11564 0.37702 0.0
H172 H 0.02819 1.00637 0.07934 0.0
H173 H 0.05558 0.0156 0.18677 0.0
H174 H 0.00758 0.97863 0.13725 0.0
H175 H 0.14851 0.11251 0.12019 0.0
H176 H 0.97911 0.21479 0.48608 0.0
H177 H 0.00248 0.18879 0.37978 0.0
H178 H 0.87172 0.10682 0.43954 0.0
H179 H 0.02909 0.23314 0.43061 0.0
Tb180 Tb 0.40322 0.38504 0.74383 0.0
C181 C 0.69507 0.4162 0.78334 0.0
N182 N 0.65859 0.37826 0.78627 0.0
C183 C 0.74588 0.33578 0.76449 0.0
C184 C 0.75852 0.41545 0.77055 0.0
C185 C 0.68322 0.33818 0.77747 0.0
C186 C 0.78365 0.37458 0.76091 0.0
C187 C 0.70448 0.49614 0.79068 0.0
C188 C 0.66828 0.45607 0.79318 0.0
C189 C 0.76769 0.49561 0.77781 0.0
C190 C 0.79462 0.45539 0.76776 0.0
Tb191 Tb 0.5574 0.38657 0.8078 0.0
N192 N 0.60627 0.4554 0.80469 0.0
C193 C 0.67605 0.53548 0.80126 0.0
C194 C 0.57971 0.4933 0.81672 0.0
C195 C 0.61366 0.53394 0.81467 0.0
H196 H 0.65524 0.30785 0.78114 0.0
H197 H 0.59197 0.56398 0.82388 0.0
H198 H 0.29282 0.4361 0.78903 0.0
H199 H 0.40786 0.21879 0.69142 0.0
H200 H 0.53323 0.49251 0.82875 0.0
H201 H 0.70223 0.56701 0.79977 0.0
H202 H 0.44063 0.29746 0.69535 0.0
H203 H 0.76518 0.30396 0.75749 0.0
H204 H 0.7962 0.52612 0.77559 0.0
H205 H 0.84345 0.45552 0.75792 0.0
H206 H 0.1907 0.41593 0.81841 0.0
H207 H 0.83221 0.37258 0.75092 0.0
H208 H 0.31495 0.18979 0.72494 0.0
N209 N 0.30785 0.37059 0.77117 0.0
C210 C 0.28416 0.32821 0.76893 0.0
C211 C 0.21668 0.39093 0.80469 0.0
C212 C 0.22641 0.31517 0.78542 0.0
C213 C 0.27453 0.40223 0.78815 0.0
C214 C 0.19269 0.34717 0.8035 0.0
N215 N 0.37497 0.3117 0.73532 0.0
C216 C 0.40354 0.28475 0.7122 0.0
C217 C 0.29675 0.25326 0.74823 0.0
C218 C 0.31954 0.29762 0.75098 0.0
C219 C 0.33078 0.22414 0.72772 0.0
C220 C 0.38352 0.24028 0.70898 0.0
H221 H 0.14813 0.33846 0.81656 0.0
H222 H 0.16081 0.25986 0.79649 0.0
H223 H 0.22208 0.20571 0.76367 0.0
O224 O 0.39138 0.38355 0.68968 0.0
O225 O 0.39403 0.36044 0.79698 0.0
O226 O 0.49085 0.32867 0.81051 0.0
O227 O 0.32801 0.42146 0.72185 0.0
O228 O 0.49448 0.35411 0.72786 0.0
O229 O 0.53888 0.32713 0.77806 0.0
O230 O 0.55357 0.40003 0.86043 0.0
O231 O 0.56957 0.4187 0.7569 0.0
O232 O 0.469 0.4425 0.73934 0.0
O233 O 0.6205 0.35296 0.84115 0.0
O234 O 0.47012 0.42165 0.82294 0.0
O235 O 0.41669 0.44562 0.77381 0.0
C236 C 0.4273 0.32881 0.8117 0.0
C237 C 0.30375 0.42476 0.66132 0.0
C238 C 0.28751 0.43385 0.59969 0.0
C239 C 0.23099 0.45757 0.60612 0.0
C240 C 0.24701 0.4486 0.66684 0.0
C241 C 0.21093 0.46471 0.63941 0.0
C242 C 0.32356 0.41698 0.62753 0.0
C243 C 0.53076 0.3256 0.74483 0.0
C244 C 0.34191 0.4095 0.69116 0.0
C245 C 0.20477 0.27067 0.78371 0.0
C246 C 0.23988 0.23978 0.76519 0.0
C247 C 0.5324 0.44417 0.73777 0.0
C248 C 0.65237 0.39272 0.89043 0.0
C249 C 0.69328 0.40768 0.94789 0.0
C250 C 0.74769 0.42934 0.9336 0.0
C251 C 0.70786 0.41366 0.87686 0.0
C252 C 0.64558 0.38939 0.92608 0.0
C253 C 0.75494 0.43208 0.89831 0.0
C254 C 0.43061 0.44853 0.80658 0.0
C255 C 0.60148 0.37411 0.86788 0.0
H256 H 0.20177 0.47027 0.58527 0.0
H257 H 0.23039 0.45495 0.69245 0.0
H258 H 0.16725 0.48294 0.64399 0.0
H259 H 0.3674 0.39887 0.62291 0.0
H260 H 0.78534 0.44337 0.94977 0.0
H261 H 0.71537 0.41548 0.84979 0.0
H262 H 0.60311 0.37295 0.93681 0.0
H263 H 0.79745 0.44825 0.88752 0.0
Tb264 Tb 0.04585 0.90397 0.72543 0.0
C265 C 0.78448 0.84246 0.77723 0.0
N266 N 0.81314 0.883 0.78194 0.0
C267 C 0.71512 0.91839 0.76418 0.0
C268 C 0.7212 0.83827 0.76394 0.0
C269 C 0.77752 0.92067 0.7781 0.0
C270 C 0.68738 0.87703 0.75628 0.0
C271 C 0.78623 0.76286 0.78798 0.0
C272 C 0.8163 0.80526 0.78903 0.0
C273 C 0.72506 0.75807 0.77256 0.0
C274 C 0.69262 0.79573 0.76048 0.0
Tb275 Tb 0.91787 0.88167 0.80183 0.0
N276 N 0.87561 0.81115 0.80338 0.0
C277 C 0.81777 0.72696 0.80342 0.0
C278 C 0.90479 0.77702 0.82048 0.0
C279 C 0.87678 0.73425 0.82029 0.0
H280 H 0.79692 0.95273 0.7857 0.0
H281 H 0.90075 0.70695 0.83302 0.0
H282 H 0.18204 0.87528 0.76337 0.0
H283 H 0.97605 0.05885 0.66498 0.0
H284 H 0.95045 0.78276 0.8334 0.0
H285 H 0.79626 0.69382 0.80323 0.0
H286 H 0.97203 0.97784 0.67521 0.0
H287 H 0.68807 0.94848 0.7601 0.0
H288 H 0.70153 0.72564 0.7709 0.0
H289 H 0.64441 0.79179 0.74984 0.0
H290 H 0.28249 0.91228 0.78384 0.0
H291 H 0.63866 0.87532 0.746 0.0
H292 H 0.06321 0.1046 0.69139 0.0
N293 N 0.13946 0.9354 0.74617 0.0
C294 C 0.14772 0.97988 0.74103 0.0
C295 C 0.24471 0.93174 0.7721 0.0
C296 C 0.20395 1.00249 0.75241 0.0
C297 C 0.18758 0.91089 0.76074 0.0
C298 C 0.25268 0.97782 0.76824 0.0
N299 N 0.04803 0.97853 0.71188 0.0
C300 C 0.00657 0.99787 0.68915 0.0
C301 C 0.1065 0.04844 0.71732 0.0
C302 C 0.09953 1.00239 0.72397 0.0
C303 C 0.05973 0.06928 0.69713 0.0
C304 C 0.01029 0.04364 0.68234 0.0
H305 H 0.2968 0.9939 0.77722 0.0
H306 H 0.25244 0.06685 0.75609 0.0
H307 H 0.16711 0.10715 0.72521 0.0
O308 O 0.06466 0.91303 0.67327 0.0
O309 O 0.06196 0.92961 0.77776 0.0
O310 O 0.96131 0.94778 0.79553 0.0
O311 O 0.10938 0.86014 0.70117 0.0
O312 O 0.9434 0.91748 0.71578 0.0
O313 O 0.90482 0.93997 0.76769 0.0
O314 O 0.9535 0.88944 0.85211 0.0
O315 O 0.94175 0.82854 0.76657 0.0
O316 O 0.95934 0.86209 0.71458 0.0
O317 O 0.85187 0.88433 0.84206 0.0
O318 O 0.01636 0.8557 0.81008 0.0
O319 O 0.06459 0.84501 0.75689 0.0
C320 C 0.02402 0.95436 0.79615 0.0
C321 C 0.16509 0.89144 0.65308 0.0
C322 C 0.21695 0.90448 0.59799 0.0
C323 C 0.27357 0.91863 0.61497 0.0
C324 C 0.22232 0.90508 0.6696 0.0
C325 C 0.27624 0.91858 0.65059 0.0
C326 C 0.16296 0.89075 0.61727 0.0
C327 C 0.9038 0.94104 0.73404 0.0
C328 C 0.10533 0.88094 0.67196 0.0
C329 C 0.2099 0.04872 0.74725 0.0
C330 C 0.16117 0.07168 0.72979 0.0
C331 C 0.93511 0.82929 0.73334 0.0
C332 C 0.88341 0.92715 0.88885 0.0
C333 C 0.86283 0.95043 0.94738 0.0
C334 C 0.84493 0.99247 0.93436 0.0
C335 C 0.86593 0.96923 0.87663 0.0
C336 C 0.88313 0.91816 0.92407 0.0
C337 C 0.84741 1.00184 0.89938 0.0
C338 C 0.06072 0.83802 0.79023 0.0
C339 C 0.89602 0.891 0.86511 0.0
H340 H 0.31596 0.92913 0.60068 0.0
H341 H 0.22543 0.90569 0.69701 0.0
H342 H 0.32016 0.92925 0.66351 0.0
H343 H 0.11862 0.88061 0.60437 0.0
H344 H 0.82725 0.01803 0.95089 0.0
H345 H 0.86501 0.97639 0.84947 0.0
H346 H 0.89788 0.88564 0.93299 0.0
H347 H 0.83319 0.03415 0.8898 0.0
Tb348 Tb 0.43706 0.61822 0.23403 0.0
C349 C 0.71085 0.6773 0.27405 0.0
N350 N 0.68707 0.63495 0.27186 0.0
C351 C 0.77853 0.61432 0.23867 0.0
C352 C 0.76883 0.69017 0.25771 0.0
C353 C 0.72046 0.60319 0.25505 0.0
C354 C 0.80265 0.65805 0.23982 0.0
C355 C 0.69816 0.75238 0.29442 0.0
C356 C 0.67533 0.70803 0.29175 0.0
C357 C 0.75534 0.76569 0.27768 0.0
C358 C 0.79061 0.73465 0.25938 0.0
Tb359 Tb 0.5911 0.62081 0.29866 0.0
N360 N 0.61951 0.69414 0.30712 0.0
C361 C 0.66375 0.78172 0.31456 0.0
C362 C 0.59035 0.72136 0.32984 0.0
C363 C 0.61047 0.76583 0.33299 0.0
H364 H 0.70213 0.56933 0.25423 0.0
H365 H 0.58572 0.78752 0.35024 0.0
H366 H 0.33736 0.69628 0.25961 0.0
H367 H 0.40684 0.44011 0.22007 0.0
H368 H 0.55271 0.70892 0.34645 0.0
H369 H 0.67959 0.81608 0.31726 0.0
H370 H 0.46407 0.51206 0.21456 0.0
H371 H 0.80458 0.58921 0.22511 0.0
H372 H 0.77317 0.79975 0.27912 0.0
H373 H 0.83477 0.74534 0.24674 0.0
H374 H 0.22694 0.69952 0.28278 0.0
H375 H 0.84739 0.66663 0.22689 0.0
H376 H 0.29623 0.43641 0.24369 0.0
N377 N 0.33539 0.62583 0.25505 0.0
C378 C 0.29969 0.58758 0.25823 0.0
C379 C 0.24698 0.66778 0.27614 0.0
C380 C 0.23606 0.58791 0.2708 0.0
C381 C 0.30987 0.66578 0.26343 0.0
C382 C 0.20994 0.62869 0.27993 0.0
N383 N 0.38975 0.54891 0.23773 0.0
C384 C 0.41739 0.51105 0.22635 0.0
C385 C 0.29223 0.50742 0.25186 0.0
C386 C 0.32756 0.54782 0.24899 0.0
C387 C 0.32172 0.46818 0.24191 0.0
C388 C 0.38431 0.4701 0.22877 0.0
H389 H 0.16119 0.63037 0.28973 0.0
H390 H 0.15184 0.54721 0.28359 0.0
H391 H 0.20094 0.47679 0.26695 0.0
O392 O 0.44099 0.60409 0.18153 0.0
O393 O 0.42473 0.58752 0.28529 0.0
O394 O 0.52548 0.5633 0.30138 0.0
O395 O 0.3742 0.65159 0.20041 0.0
O396 O 0.52514 0.58423 0.21898 0.0
O397 O 0.57847 0.56042 0.26819 0.0
O398 O 0.60016 0.62141 0.35305 0.0
O399 O 0.60054 0.64574 0.24569 0.0
O400 O 0.50308 0.67636 0.23148 0.0
O401 O 0.66596 0.58485 0.32134 0.0
O402 O 0.4998 0.65219 0.31412 0.0
O403 O 0.45465 0.67783 0.26357 0.0
C404 C 0.46245 0.56281 0.30461 0.0
C405 C 0.34261 0.61153 0.15125 0.0
C406 C 0.30195 0.59735 0.09364 0.0
C407 C 0.24739 0.5756 0.10772 0.0
C408 C 0.28719 0.59033 0.16465 0.0
C409 C 0.24011 0.57228 0.14301 0.0
C410 C 0.34958 0.61525 0.11566 0.0
C411 C 0.56546 0.5579 0.23526 0.0
C412 C 0.39333 0.63012 0.17386 0.0
C413 C 0.20081 0.54767 0.27392 0.0
C414 C 0.2288 0.50754 0.26446 0.0
C415 C 0.56672 0.67707 0.23099 0.0
C416 C 0.68734 0.58025 0.38213 0.0
C417 C 0.70285 0.57142 0.4439 0.0
C418 C 0.75826 0.54643 0.43769 0.0
C419 C 0.74303 0.55515 0.37691 0.0
C420 C 0.66768 0.58879 0.41587 0.0
C421 C 0.77816 0.53854 0.40448 0.0
C422 C 0.46276 0.67992 0.29679 0.0
C423 C 0.65023 0.59595 0.35198 0.0
H424 H 0.20965 0.56192 0.09143 0.0
H425 H 0.27975 0.58801 0.19172 0.0
H426 H 0.19756 0.55596 0.15363 0.0
H427 H 0.39219 0.63176 0.10514 0.0
H428 H 0.78682 0.53333 0.45864 0.0
H429 H 0.75955 0.54814 0.35139 0.0
H430 H 0.62472 0.60793 0.42031 0.0
H431 H 0.821 0.51933 0.4001 0.0
C432 C 0.17649 1.00783 0.38028 0.0
C433 C 0.17982 0.96334 0.36987 0.0
H434 H 0.14497 0.07361 0.36836 0.0
C435 C 0.15668 0.9523 0.337 0.0
H436 H 0.19528 0.01803 0.40488 0.0
C437 C 0.12955 0.98472 0.31557 0.0
C438 C 0.12403 0.02853 0.32685 0.0
H439 H 0.15756 0.91833 0.32817 0.0
H440 H 0.11009 0.97511 0.29095 0.0
C441 C 0.1484 0.03987 0.35918 0.0
C442 C 0.3509 0.50619 0.87967 0.0
C443 C 0.34723 0.55036 0.86747 0.0
H444 H 0.38076 0.43966 0.87 0.0
C445 C 0.36885 0.56001 0.83407 0.0
H446 H 0.33306 0.49685 0.9047 0.0
C447 C 0.39385 0.52655 0.81371 0.0
C448 C 0.39941 0.48312 0.82664 0.0
H449 H 0.36799 0.59358 0.82381 0.0
H450 H 0.41108 0.53499 0.78835 0.0
C451 C 0.37759 0.47317 0.85969 0.0
C452 C 0.65875 0.51212 0.68806 0.0
C453 C 0.62027 0.5427 0.67029 0.0
H454 H 0.66126 0.45557 0.72155 0.0
C455 C 0.55299 0.54051 0.67443 0.0
H456 H 0.71074 0.51278 0.68483 0.0
C457 C 0.52468 0.50878 0.69646 0.0
C458 C 0.56299 0.47792 0.7144 0.0
H459 H 0.52236 0.56362 0.66078 0.0
H460 H 0.47263 0.50844 0.6993 0.0
C461 C 0.63034 0.47963 0.7094 0.0
C462 C 0.87612 0.01425 0.16798 0.0
C463 C 0.87562 0.96878 0.17692 0.0
H464 H 0.90441 0.08048 0.18175 0.0
C465 C 0.90187 0.95576 0.2086 0.0
H466 H 0.85518 0.02551 0.14407 0.0
C467 C 0.92972 0.98749 0.23035 0.0
C468 C 0.93155 0.03269 0.22083 0.0
H469 H 0.90268 0.92099 0.21612 0.0
H470 H 0.95158 0.97652 0.25408 0.0
C471 C 0.90406 0.04578 0.18959 0.0
C472 C 0.83119 0.05121 0.70903 0.0
C473 C 0.81508 0.0438 0.67458 0.0
H474 H 0.8715 0.02405 0.75522 0.0
C475 C 0.82019 1.00066 0.66161 0.0
H476 H 0.82774 0.08413 0.71974 0.0
C477 C 0.84424 0.96626 0.68202 0.0
C478 C 0.86469 0.97444 0.71567 0.0
H479 H 0.80689 0.99373 0.6354 0.0
H480 H 0.85013 0.93376 0.6709 0.0
C481 C 0.85578 0.01679 0.72943 0.0
C482 C 0.63119 0.44768 0.20751 0.0
C483 C 0.65078 0.45754 0.1738 0.0
H484 H 0.59001 0.4721 0.25369 0.0
C485 C 0.64401 0.50135 0.16135 0.0
H486 H 0.63441 0.41428 0.21793 0.0
C487 C 0.6168 0.5339 0.18155 0.0
C488 C 0.59735 0.52383 0.21501 0.0
H489 H 0.6601 0.51079 0.136 0.0
H490 H 0.61144 0.56717 0.17108 0.0
C491 C 0.60554 0.48069 0.22805 0.0
C492 C 0.33776 0.49624 0.35594 0.0
C493 C 0.37701 0.46706 0.37457 0.0
H494 H 0.33394 0.55096 0.32083 0.0
C495 C 0.44429 0.4701 0.37087 0.0
H496 H 0.28569 0.49471 0.35878 0.0
C497 C 0.47192 0.50119 0.34817 0.0
C498 C 0.43279 0.53038 0.32912 0.0
H499 H 0.47537 0.44792 0.38514 0.0
H500 H 0.52402 0.50218 0.34554 0.0
C501 C 0.36545 0.5281 0.33391 0.0
C502 C 0.14494 0.01704 0.85226 0.0
C503 C 0.1052 0.04729 0.86871 0.0
H504 H 0.14991 0.96247 0.81797 0.0
C505 C 0.03876 0.04697 0.86126 0.0
H506 H 0.19626 0.01641 0.85789 0.0
C507 C 0.01266 0.01731 0.83731 0.0
C508 C 0.05219 0.98658 0.82095 0.0
H509 H 0.00722 0.07011 0.87365 0.0
H510 H 0.96151 0.01861 0.83153 0.0
C511 C 0.11849 0.98653 0.82907 0.0
C512 C 0.17751 0.10191 1.01469 0.0
C513 C 0.12843 0.09837 0.98974 0.0
H514 H 0.20414 0.09299 0.06732 0.0
C515 C 0.06561 0.08633 1.00032 0.0
H516 H 0.22658 0.11074 1.00746 0.0
C517 C 0.05271 0.07636 0.03461 0.0
C518 C 0.10231 0.07788 0.05939 0.0
H519 H 0.02632 0.08413 0.98198 0.0
H520 H 0.00378 0.06681 0.04162 0.0
C521 C 0.16462 0.09177 0.04909 0.0
C522 C 0.33041 0.37775 0.51665 0.0
C523 C 0.32542 0.41331 0.49308 0.0
H524 H 0.3232 0.35642 0.56907 0.0
C525 C 0.31453 0.45618 0.50556 0.0
H526 H 0.3395 0.3444 0.50795 0.0
C527 C 0.30558 0.46298 0.54037 0.0
C528 C 0.30729 0.42716 0.56372 0.0
H529 H 0.30971 0.48431 0.48827 0.0
H530 H 0.29519 0.49621 0.54895 0.0
C531 C 0.32172 0.38465 0.55167 0.0
C532 C 0.67781 0.35845 0.03715 0.0
C533 C 0.69052 0.39596 0.05742 0.0
H534 H 0.66757 0.33294 0.98639 0.0
C535 C 0.70003 0.43761 0.04137 0.0
H536 H 0.6699 0.326 0.04886 0.0
C537 C 0.69896 0.4415 1.00584 0.0
C538 C 0.68775 0.40393 0.98553 0.0
H539 H 0.71047 0.46705 0.05626 0.0
H540 H 0.70792 0.47388 0.99418 0.0
C541 C 0.67593 0.36247 1.0015 0.0
C542 C 0.90161 0.13242 0.56094 0.0
C543 C 0.83406 0.129 0.56388 0.0
H544 H 0.98216 0.14542 0.52782 0.0
C545 C 0.79549 0.13458 0.53456 0.0
H546 H 0.93233 0.12856 0.58323 0.0
C547 C 0.82392 0.14367 0.50289 0.0
C548 C 0.89138 0.14825 0.50009 0.0
H549 H 0.74329 0.132 0.53618 0.0
H550 H 0.79311 0.14816 0.48071 0.0
C551 C 0.93 0.14239 0.52938 0.0
C552 C 0.85595 0.96485 0.04379 0.0
C553 C 0.84331 0.92115 0.05585 0.0
H554 H 0.87608 1.00781 1.00148 0.0
C555 C 0.83876 0.88692 0.03167 0.0
H556 H 0.85828 0.99277 0.06093 0.0
C557 C 0.84494 0.89627 0.99673 0.0
C558 C 0.85799 0.93995 0.98481 0.0
H559 H 0.8303 0.85269 0.0395 0.0
H560 H 0.83825 0.86903 0.97919 0.0
C561 C 0.86454 0.97388 1.00908 0.0
C562 C 0.67657 0.55065 0.53831 0.0
C563 C 0.66921 0.59396 0.55071 0.0
H564 H 0.69167 0.50966 0.49492 0.0
C565 C 0.66556 0.62945 0.52696 0.0
H566 H 0.68022 0.52252 0.55569 0.0
C567 C 0.67245 0.62198 0.49188 0.0
C568 C 0.68365 0.57895 0.4799 0.0
H569 H 0.65909 0.66317 0.53556 0.0
H570 H 0.67234 0.65012 0.47435 0.0
C571 C 0.68369 0.54327 0.50343 0.0
C572 C 0.32348 0.64786 1.00511 0.0
C573 C 0.30837 0.61134 0.98422 0.0
H574 H 0.33399 0.67194 0.05621 0.0
C575 C 0.29461 0.56979 0.99963 0.0
H576 H 0.33477 0.68019 0.99393 0.0
C577 C 0.29417 0.56511 0.03511 0.0
C578 C 0.30787 0.60177 0.05603 0.0
H579 H 0.28228 0.54111 0.98425 0.0
H580 H 0.28238 0.53281 0.04622 0.0
C581 C 0.32361 0.64305 0.04069 0.0
C582 C 0.23434 0.94015 0.50536 0.0
C583 C 0.21554 0.90109 0.48833 0.0
H584 H 0.25016 0.97162 0.55362 0.0
C585 C 0.19451 0.86384 0.50752 0.0
H586 H 0.25124 0.96917 0.49111 0.0
C587 C 0.19334 0.86536 0.54314 0.0
C588 C 0.21433 0.90389 0.56022 0.0
H589 H 0.17973 0.83337 0.49493 0.0
H590 H 0.17791 0.83597 0.55738 0.0
C591 C 0.23427 0.94141 0.54101 0.0
C592 C 0.19828 0.24911 0.35477 0.0
C593 C 0.17328 0.29187 0.3499 0.0
H594 H 0.18633 0.17927 0.34487 0.0
C595 C 0.11527 0.29678 0.33159 0.0
H596 H 0.24333 0.24449 0.36847 0.0
C597 C 0.08203 0.2595 0.31893 0.0
C598 C 0.10731 0.21688 0.32347 0.0
H599 H 0.09528 0.32947 0.32738 0.0
H600 H 0.03737 0.26407 0.30488 0.0
C601 C 0.16588 0.21192 0.34127 0.0
C602 C 0.30269 0.25998 0.86109 0.0
C603 C 0.32278 0.21645 0.85467 0.0
H604 H 0.31993 0.32994 0.85206 0.0
C605 C 0.37806 0.21043 0.83476 0.0
H606 H 0.25983 0.26563 0.87603 0.0
C607 C 0.41298 0.24707 0.82174 0.0
C608 C 0.39239 0.29051 0.82756 0.0
H609 H 0.39437 0.17725 0.82926 0.0
H610 H 0.45504 0.24135 0.80626 0.0
C611 C 0.3369 0.29671 0.84734 0.0
C612 C 0.59015 0.20987 0.72915 0.0
C613 C 0.61271 0.21322 0.69561 0.0
H614 H 0.54803 0.24307 0.77105 0.0
C615 C 0.60711 0.2538 0.67765 0.0
H616 H 0.59409 0.179 0.74351 0.0
C617 C 0.57931 0.2905 0.69326 0.0
C618 C 0.55809 0.28722 0.72717 0.0
H619 H 0.62404 0.25717 0.65164 0.0
H620 H 0.57548 0.32154 0.67913 0.0
C621 C 0.56388 0.24659 0.74489 0.0
C622 C 0.87664 0.29081 0.2398 0.0
C623 C 0.85378 0.28846 0.20608 0.0
H624 H 0.92679 0.2581 0.28055 0.0
C625 C 0.86485 0.24997 0.18714 0.0
H626 H 0.86852 0.32009 0.25494 0.0
C627 C 0.89879 0.21459 0.20172 0.0
C628 C 0.92169 0.21707 0.23549 0.0
H629 H 0.8477 0.24722 0.16107 0.0
H630 H 0.90674 0.18521 0.18668 0.0
C631 C 0.90989 0.25537 0.25444 0.0
C632 C 0.87418 0.71166 0.71912 0.0
C633 C 0.83176 0.71682 0.69136 0.0
H634 H 0.94182 0.74288 0.75317 0.0
C635 C 0.82676 0.75905 0.67574 0.0
H636 H 0.87939 0.67949 0.73149 0.0
C637 C 0.86229 0.79566 0.68845 0.0
C638 C 0.90313 0.79051 0.71695 0.0
H639 H 0.79447 0.76406 0.65424 0.0
H640 H 0.85613 0.82817 0.67678 0.0
C641 C 0.90975 0.74797 0.73159 0.0
C642 C 0.61381 0.79694 0.21284 0.0
C643 C 0.66857 0.79266 0.19229 0.0
H644 H 0.53809 0.7635 0.24059 0.0
C645 C 0.68935 0.74987 0.184 0.0
H646 H 0.59713 0.82954 0.21979 0.0
C647 C 0.65609 0.71203 0.19645 0.0
C648 C 0.60085 0.7165 0.21668 0.0
H649 H 0.73194 0.74562 0.16853 0.0
H650 H 0.67348 0.67932 0.19032 0.0
C651 C 0.57978 0.75923 0.22453 0.0
C652 C 0.3963 0.79406 0.31035 0.0
C653 C 0.37637 0.79168 0.34436 0.0
H654 H 0.43786 0.76035 0.26867 0.0
C655 C 0.38593 0.75232 0.36337 0.0
H656 H 0.38929 0.82401 0.29521 0.0
C657 C 0.41519 0.71581 0.34829 0.0
C658 C 0.43409 0.71814 0.31396 0.0
H659 H 0.37106 0.74978 0.38977 0.0
H660 H 0.42205 0.68567 0.36319 0.0
C661 C 0.4242 0.75758 0.29522 0.0
C662 C 0.14364 0.76216 0.85464 0.0
C663 C 0.1888 0.74103 0.834 0.0
H664 H 0.06798 0.80968 0.85715 0.0
C665 C 0.19201 0.75229 0.79924 0.0
H666 H 0.14011 0.75416 0.88158 0.0
C667 C 0.1506 0.78378 0.78518 0.0
C668 C 0.10514 0.80507 0.80564 0.0
H669 H 0.22638 0.73643 0.78279 0.0
H670 H 0.15429 0.79124 0.75815 0.0
C671 C 0.1023 0.79399 0.8406 0.0
loop_
_geom_bond_atom_site_label_1
_geom_bond_atom_site_label_2
_geom_bond_distance
_geom_bond_site_symmetry_2
_ccdc_geom_bond_type
H0 C5 0.930 . S
H1 C8 0.930 . S
H2 C10 0.930 . S
H3 C4 1.016 . S
C4 H3 1.016 . S
C4 N11 1.286 . S
C5 H0 0.930 . S
C5 C6 1.397 . S
C5 C7 1.361 . S
C6 C5 1.397 . S
C6 C10 1.390 . S
C7 C5 1.361 . S
C7 C8 1.393 . S
C7 N11 1.413 . S
C8 H1 0.930 . S
C8 C7 1.393 . S
C8 C9 1.399 . S
C9 C8 1.399 . S
C9 C10 1.381 . S
C10 H2 0.930 . S
C10 C6 1.390 . S
C10 C9 1.381 . S
N11 C4 1.286 . S
N11 C7 1.413 . S
H12 C17 0.930 . S
H13 C20 0.930 . S
H14 C22 0.930 . S
H15 C16 1.016 . S
C16 H15 1.016 . S
C16 N23 1.286 . S
C17 H12 0.930 . S
C17 C18 1.397 . S
C17 C19 1.361 . S
C18 C17 1.397 . S
C18 C22 1.390 . S
C19 C17 1.361 . S
C19 C20 1.393 . S
C19 N23 1.413 . S
C20 H13 0.930 . S
C20 C19 1.393 . S
C20 C21 1.399 . S
C21 C20 1.399 . S
C21 C22 1.381 . S
C22 H14 0.930 . S
C22 C18 1.390 . S
C22 C21 1.381 . S
N23 C16 1.286 . S
N23 C19 1.413 . S
H24 C29 0.930 . S
H25 C32 0.930 . S
H26 C34 0.930 . S
H27 C28 1.016 . S
C28 H27 1.016 . S
C28 N35 1.286 . S
C29 H24 0.930 . S
C29 C30 1.397 . S
C29 C31 1.361 . S
C30 C29 1.397 . S
C30 C34 1.390 . S
C31 C29 1.361 . S
C31 C32 1.393 . S
C31 N35 1.413 . S
C32 H25 0.930 . S
C32 C31 1.393 . S
C32 C33 1.399 . S
C33 C32 1.399 . S
C33 C34 1.381 . S
C34 H26 0.930 . S
C34 C30 1.390 . S
C34 C33 1.381 . S
N35 C28 1.286 . S
N35 C31 1.413 . S
H36 C41 0.930 . S
H37 C44 0.930 . S
H38 C46 0.930 . S
H39 C40 1.016 . S
C40 H39 1.016 . S
C40 N47 1.286 . S
C41 H36 0.930 . S
C41 C42 1.397 . S
C41 C43 1.361 . S
C42 C41 1.397 . S
C42 C46 1.390 . S
C43 C41 1.361 . S
C43 C44 1.393 . S
C43 N47 1.413 . S
C44 H37 0.930 . S
C44 C43 1.393 . S
C44 C45 1.399 . S
C45 C44 1.399 . S
C45 C46 1.381 . S
C46 H38 0.930 . S
C46 C42 1.390 . S
C46 C45 1.381 . S
N47 C40 1.286 . S
N47 C43 1.413 . S
H48 C53 0.930 . S
H49 C56 0.930 . S
H50 C58 0.930 . S
H51 C52 1.016 . S
C52 H51 1.016 . S
C52 N59 1.286 . S
C53 H48 0.930 . S
C53 C54 1.397 . S
C53 C55 1.361 . S
C54 C53 1.397 . S
C54 C58 1.390 . S
C55 C53 1.361 . S
C55 C56 1.393 . S
C55 N59 1.413 . S
C56 H49 0.930 . S
C56 C55 1.393 . S
C56 C57 1.399 . S
C57 C56 1.399 . S
C57 C58 1.381 . S
C58 H50 0.930 . S
C58 C54 1.390 . S
C58 C57 1.381 . S
N59 C52 1.286 . S
N59 C55 1.413 . S
H60 C65 0.930 . S
H61 C68 0.930 . S
H62 C70 0.930 . S
H63 C64 1.016 . S
C64 H63 1.016 . S
C64 N71 1.286 . S
C65 H60 0.930 . S
C65 C66 1.397 . S
C65 C67 1.361 . S
C66 C65 1.397 . S
C66 C70 1.390 . S
C67 C65 1.361 . S
C67 C68 1.393 . S
C67 N71 1.413 . S
C68 H61 0.930 . S
C68 C67 1.393 . S
C68 C69 1.399 . S
C69 C68 1.399 . S
C69 C70 1.381 . S
C70 H62 0.930 . S
C70 C66 1.390 . S
C70 C69 1.381 . S
N71 C64 1.286 . S
N71 C67 1.413 . S
H72 C77 0.930 . S
H73 C80 0.930 . S
H74 C82 0.930 . S
H75 C76 1.016 . S
C76 H75 1.016 . S
C76 N83 1.286 . S
C77 H72 0.930 . S
C77 C78 1.397 . S
C77 C79 1.361 . S
C78 C77 1.397 . S
C78 C82 1.390 . S
C79 C77 1.361 . S
C79 C80 1.393 . S
C79 N83 1.413 . S
C80 H73 0.930 . S
C80 C79 1.393 . S
C80 C81 1.399 . S
C81 C80 1.399 . S
C81 C82 1.381 . S
C82 H74 0.930 . S
C82 C78 1.390 . S
C82 C81 1.381 . S
N83 C76 1.286 . S
N83 C79 1.413 . S
H84 C89 0.930 . S
H85 C92 0.930 . S
H86 C94 0.930 . S
H87 C88 1.016 . S
C88 H87 1.016 . S
C88 N95 1.286 . S
C89 H84 0.930 . S
C89 C90 1.397 . S
C89 C91 1.361 . S
C90 C89 1.397 . S
C90 C94 1.390 . S
C91 C89 1.361 . S
C91 C92 1.393 . S
C91 N95 1.413 . S
C92 H85 0.930 . S
C92 C91 1.393 . S
C92 C93 1.399 . S
C93 C92 1.399 . S
C93 C94 1.381 . S
C94 H86 0.930 . S
C94 C90 1.390 . S
C94 C93 1.381 . S
N95 C88 1.286 . S
N95 C91 1.413 . S
Tb96 N125 2.617 . S
Tb96 N131 2.572 . S
Tb96 O140 2.465 . S
Tb96 O141 2.387 . S
Tb96 O143 2.428 . S
Tb96 O144 2.308 1_455 S
Tb96 O148 2.349 1_455 S
Tb96 O151 2.393 . S
Tb96 C160 2.802 . S
C97 N98 1.379 . S
C97 C100 1.416 . S
C97 C104 1.424 . S
N98 C97 1.379 . S
N98 C101 1.334 . S
N98 Tb107 2.617 . S
C99 C101 1.390 . S
C99 C102 1.339 . S
C99 H119 0.930 . S
C100 C97 1.416 . S
C100 C102 1.416 . S
C100 C106 1.448 . S
C101 N98 1.334 . S
C101 C99 1.390 . S
C101 H112 0.930 . S
C102 C99 1.339 . S
C102 C100 1.416 . S
C102 H123 0.930 . S
C103 C104 1.413 1_565 S
C103 C105 1.427 . S
C103 C109 1.416 . S
C104 C97 1.424 . S
C104 C103 1.413 1_545 S
C104 N108 1.361 . S
C105 C103 1.427 . S
C105 C106 1.328 1_565 S
C105 H120 0.929 . S
C106 C100 1.448 . S
C106 C105 1.328 1_545 S
C106 H121 0.930 . S
Tb107 N98 2.617 . S
Tb107 N108 2.572 . S
Tb107 O142 2.349 1_655 S
Tb107 O145 2.393 . S
Tb107 O146 2.465 . S
Tb107 O147 2.387 . S
Tb107 O149 2.428 . S
Tb107 O150 2.308 1_655 S
Tb107 C171 2.802 . S
N108 C104 1.361 . S
N108 Tb107 2.572 . S
N108 C110 1.340 1_545 S
C109 C103 1.416 . S
C109 C111 1.332 . S
C109 H117 0.931 . S
C110 N108 1.340 1_565 S
C110 C111 1.407 . S
C110 H116 0.930 . S
C111 C109 1.332 . S
C111 C110 1.407 . S
C111 H113 0.929 . S
H112 C101 0.930 . S
H113 C111 0.929 . S
H114 C129 0.930 . S
H115 C136 0.929 . S
H116 C110 0.930 . S
H117 C109 0.931 . S
H118 C132 0.930 . S
H119 C99 0.930 . S
H120 C105 0.929 . S
H121 C106 0.930 . S
H122 C127 0.930 . S
H123 C102 0.930 . S
H124 C135 0.931 . S
N125 Tb96 2.617 . S
N125 C126 1.379 . S
N125 C129 1.334 . S
C126 N125 1.379 . S
C126 C128 1.416 . S
C126 C134 1.424 . S
C127 H122 0.930 . S
C127 C129 1.390 . S
C127 C130 1.339 . S
C128 C126 1.416 . S
C128 C130 1.416 . S
C128 C161 1.448 . S
C129 H114 0.930 . S
C129 N125 1.334 . S
C129 C127 1.390 . S
C130 C127 1.339 . S
C130 C128 1.416 . S
C130 H137 0.930 . S
N131 Tb96 2.572 . S
N131 C132 1.340 . S
N131 C134 1.361 . S
C132 H118 0.930 . S
C132 N131 1.340 . S
C132 C136 1.407 . S
C133 C134 1.413 . S
C133 C135 1.416 . S
C133 C162 1.427 . S
C134 C126 1.424 . S
C134 N131 1.361 . S
C134 C133 1.413 . S
C135 H124 0.931 . S
C135 C133 1.416 . S
C135 C136 1.332 . S
C136 H115 0.929 . S
C136 C132 1.407 . S
C136 C135 1.332 . S
H137 C130 0.930 . S
H138 C161 0.930 . S
H139 C162 0.929 . S
O140 Tb96 2.465 . S
O140 C160 1.264 . S
O141 Tb96 2.387 . S
O141 C152 1.264 . S
O142 Tb107 2.349 1_455 S
O142 C152 1.243 . S
O143 Tb96 2.428 . S
O143 C160 1.256 . S
O144 Tb96 2.308 1_655 S
O144 C159 1.266 . S
O145 Tb107 2.393 . S
O145 C159 1.248 . S
O146 Tb107 2.465 . S
O146 C171 1.264 . S
O147 Tb107 2.387 . S
O147 C163 1.264 . S
O148 Tb96 2.349 1_655 S
O148 C163 1.243 . S
O149 Tb107 2.428 . S
O149 C171 1.256 . S
O150 Tb107 2.308 1_455 S
O150 C170 1.266 . S
O151 Tb96 2.393 . S
O151 C170 1.248 . S
C152 O141 1.264 . S
C152 O142 1.243 . S
C153 C156 1.399 . S
C153 C158 1.383 . S
C153 C160 1.496 . S
C154 C155 1.399 . S
C154 C158 1.389 . S
C155 C154 1.399 . S
C155 C157 1.380 . S
C155 H172 0.929 . S
C156 C153 1.399 . S
C156 C157 1.392 . S
C156 H173 0.929 . S
C157 C155 1.380 . S
C157 C156 1.392 . S
C157 H174 0.926 1_545 S
C158 C153 1.383 . S
C158 C154 1.389 . S
C158 H175 0.931 . S
C159 O144 1.266 . S
C159 O145 1.248 . S
C160 Tb96 2.802 . S
C160 O140 1.264 . S
C160 O143 1.256 . S
C160 C153 1.496 . S
C161 C128 1.448 . S
C161 H138 0.930 . S
C161 C162 1.328 . S
C162 C133 1.427 . S
C162 H139 0.929 . S
C162 C161 1.328 . S
C163 O147 1.264 . S
C163 O148 1.243 . S
C164 C167 1.399 . S
C164 C168 1.383 . S
C164 C171 1.496 . S
C165 C166 1.399 . S
C165 C168 1.389 . S
C166 C165 1.399 . S
C166 C169 1.380 . S
C166 H176 0.929 . S
C167 C164 1.399 . S
C167 C169 1.392 . S
C167 H177 0.929 . S
C168 C164 1.383 . S
C168 C165 1.389 . S
C168 H178 0.931 . S
C169 C166 1.380 . S
C169 C167 1.392 . S
C169 H179 0.929 . S
C170 O150 1.266 . S
C170 O151 1.248 . S
C171 Tb107 2.802 . S
C171 O146 1.264 . S
C171 O149 1.256 . S
C171 C164 1.496 . S
H172 C155 0.929 . S
H173 C156 0.929 . S
H174 C157 0.926 1_565 S
H175 C158 0.931 . S
H176 C166 0.929 . S
H177 C167 0.929 . S
H178 C168 0.931 . S
H179 C169 0.929 . S
Tb180 N209 2.617 . S
Tb180 N215 2.572 . S
Tb180 O224 2.465 . S
Tb180 O225 2.387 . S
Tb180 O227 2.428 . S
Tb180 O228 2.308 . S
Tb180 O232 2.349 . S
Tb180 O235 2.393 . S
Tb180 C244 2.802 . S
C181 N182 1.379 . S
C181 C184 1.416 . S
C181 C188 1.424 . S
N182 C181 1.379 . S
N182 C185 1.334 . S
N182 Tb191 2.617 . S
C183 C185 1.390 . S
C183 C186 1.339 . S
C183 H203 0.930 . S
C184 C181 1.416 . S
C184 C186 1.416 . S
C184 C190 1.448 . S
C185 N182 1.334 . S
C185 C183 1.390 . S
C185 H196 0.930 . S
C186 C183 1.339 . S
C186 C184 1.416 . S
C186 H207 0.930 . S
C187 C188 1.413 . S
C187 C189 1.427 . S
C187 C193 1.416 . S
C188 C181 1.424 . S
C188 C187 1.413 . S
C188 N192 1.361 . S
C189 C187 1.427 . S
C189 C190 1.328 . S
C189 H204 0.929 . S
C190 C184 1.448 . S
C190 C189 1.328 . S
C190 H205 0.930 . S
Tb191 N182 2.617 . S
Tb191 N192 2.572 . S
Tb191 O226 2.349 . S
Tb191 O229 2.393 . S
Tb191 O230 2.465 . S
Tb191 O231 2.387 . S
Tb191 O233 2.428 . S
Tb191 O234 2.308 . S
Tb191 C255 2.802 . S
N192 C188 1.361 . S
N192 Tb191 2.572 . S
N192 C194 1.340 . S
C193 C187 1.416 . S
C193 C195 1.332 . S
C193 H201 0.931 . S
C194 N192 1.340 . S
C194 C195 1.407 . S
C194 H200 0.930 . S
C195 C193 1.332 . S
C195 C194 1.407 . S
C195 H197 0.929 . S
H196 C185 0.930 . S
H197 C195 0.929 . S
H198 C213 0.930 . S
H199 C220 0.929 . S
H200 C194 0.930 . S
H201 C193 0.931 . S
H202 C216 0.930 . S
H203 C183 0.930 . S
H204 C189 0.929 . S
H205 C190 0.930 . S
H206 C211 0.930 . S
H207 C186 0.930 . S
H208 C219 0.931 . S
N209 Tb180 2.617 . S
N209 C210 1.379 . S
N209 C213 1.334 . S
C210 N209 1.379 . S
C210 C212 1.416 . S
C210 C218 1.424 . S
C211 H206 0.930 . S
C211 C213 1.390 . S
C211 C214 1.339 . S
C212 C210 1.416 . S
C212 C214 1.416 . S
C212 C245 1.448 . S
C213 H198 0.930 . S
C213 N209 1.334 . S
C213 C211 1.390 . S
C214 C211 1.339 . S
C214 C212 1.416 . S
C214 H221 0.930 . S
N215 Tb180 2.572 . S
N215 C216 1.340 . S
N215 C218 1.361 . S
C216 H202 0.930 . S
C216 N215 1.340 . S
C216 C220 1.407 . S
C217 C218 1.413 . S
C217 C219 1.416 . S
C217 C246 1.427 . S
C218 C210 1.424 . S
C218 N215 1.361 . S
C218 C217 1.413 . S
C219 H208 0.931 . S
C219 C217 1.416 . S
C219 C220 1.332 . S
C220 H199 0.929 . S
C220 C216 1.407 . S
C220 C219 1.332 . S
H221 C214 0.930 . S
H222 C245 0.930 . S
H223 C246 0.929 . S
O224 Tb180 2.465 . S
O224 C244 1.264 . S
O225 Tb180 2.387 . S
O225 C236 1.264 . S
O226 Tb191 2.349 . S
O226 C236 1.243 . S
O227 Tb180 2.428 . S
O227 C244 1.256 . S
O228 Tb180 2.308 . S
O228 C243 1.266 . S
O229 Tb191 2.393 . S
O229 C243 1.248 . S
O230 Tb191 2.465 . S
O230 C255 1.264 . S
O231 Tb191 2.387 . S
O231 C247 1.264 . S
O232 Tb180 2.349 . S
O232 C247 1.243 . S
O233 Tb191 2.428 . S
O233 C255 1.256 . S
O234 Tb191 2.308 . S
O234 C254 1.266 . S
O235 Tb180 2.393 . S
O235 C254 1.248 . S
C236 O225 1.264 . S
C236 O226 1.243 . S
C237 C240 1.399 . S
C237 C242 1.383 . S
C237 C244 1.496 . S
C238 C239 1.399 . S
C238 C242 1.389 . S
C239 C238 1.399 . S
C239 C241 1.380 . S
C239 H256 0.929 . S
C240 C237 1.399 . S
C240 C241 1.392 . S
C240 H257 0.929 . S
C241 C239 1.380 . S
C241 C240 1.392 . S
C241 H258 0.929 . S
C242 C237 1.383 . S
C242 C238 1.389 . S
C242 H259 0.931 . S
C243 O228 1.266 . S
C243 O229 1.248 . S
C244 Tb180 2.802 . S
C244 O224 1.264 . S
C244 O227 1.256 . S
C244 C237 1.496 . S
C245 C212 1.448 . S
C245 H222 0.930 . S
C245 C246 1.328 . S
C246 C217 1.427 . S
C246 H223 0.929 . S
C246 C245 1.328 . S
C247 O231 1.264 . S
C247 O232 1.243 . S
C248 C251 1.399 . S
C248 C252 1.383 . S
C248 C255 1.496 . S
C249 C250 1.399 . S
C249 C252 1.389 . S
C250 C249 1.399 . S
C250 C253 1.380 . S
C250 H260 0.929 . S
C251 C248 1.399 . S
C251 C253 1.392 . S
C251 H261 0.929 . S
C252 C248 1.383 . S
C252 C249 1.389 . S
C252 H262 0.931 . S
C253 C250 1.380 . S
C253 C251 1.392 . S
C253 H263 0.929 . S
C254 O234 1.266 . S
C254 O235 1.248 . S
C255 Tb191 2.802 . S
C255 O230 1.264 . S
C255 O233 1.256 . S
C255 C248 1.496 . S
H256 C239 0.929 . S
H257 C240 0.929 . S
H258 C241 0.929 . S
H259 C242 0.931 . S
H260 C250 0.929 . S
H261 C251 0.929 . S
H262 C252 0.931 . S
H263 C253 0.929 . S
Tb264 N293 2.617 . S
Tb264 N299 2.572 . S
Tb264 O308 2.465 . S
Tb264 O309 2.387 . S
Tb264 O311 2.428 . S
Tb264 O312 2.296 1_455 S
Tb264 O316 2.348 . S
Tb264 O319 2.393 . S
Tb264 C328 2.802 . S
C265 N266 1.379 . S
C265 C268 1.416 . S
C265 C272 1.424 . S
N266 C265 1.379 . S
N266 C269 1.334 . S
N266 Tb275 2.617 . S
C267 C269 1.390 . S
C267 C270 1.339 . S
C267 H287 0.930 . S
C268 C265 1.416 . S
C268 C270 1.416 . S
C268 C274 1.448 . S
C269 N266 1.334 . S
C269 C267 1.390 . S
C269 H280 0.930 . S
C270 C267 1.339 . S
C270 C268 1.416 . S
C270 H291 0.930 . S
C271 C272 1.413 . S
C271 C273 1.427 . S
C271 C277 1.416 . S
C272 C265 1.424 . S
C272 C271 1.413 . S
C272 N276 1.361 . S
C273 C271 1.427 . S
C273 C274 1.328 . S
C273 H288 0.929 . S
C274 C268 1.448 . S
C274 C273 1.328 . S
C274 H289 0.930 . S
Tb275 N266 2.617 . S
Tb275 N276 2.572 . S
Tb275 O310 2.349 1_655 S
Tb275 O313 2.393 . S
Tb275 O314 2.465 . S
Tb275 O315 2.387 . S
Tb275 O317 2.428 . S
Tb275 O318 2.308 1_655 S
Tb275 C339 2.802 . S
N276 C272 1.361 . S
N276 Tb275 2.572 . S
N276 C278 1.340 . S
C277 C271 1.416 . S
C277 C279 1.332 . S
C277 H285 0.931 . S
C278 N276 1.340 . S
C278 C279 1.407 . S
C278 H284 0.930 . S
C279 C277 1.332 . S
C279 C278 1.407 . S
C279 H281 0.929 . S
H280 C269 0.930 . S
H281 C279 0.929 . S
H282 C297 0.930 . S
H283 C304 0.929 . S
H284 C278 0.930 . S
H285 C277 0.931 . S
H286 C300 0.930 . S
H287 C267 0.930 . S
H288 C273 0.929 . S
H289 C274 0.930 . S
H290 C295 0.930 . S
H291 C270 0.930 . S
H292 C303 0.931 . S
N293 Tb264 2.617 . S
N293 C294 1.379 . S
N293 C297 1.334 . S
C294 N293 1.379 . S
C294 C296 1.416 . S
C294 C302 1.424 . S
C295 H290 0.930 . S
C295 C297 1.390 . S
C295 C298 1.339 . S
C296 C294 1.416 . S
C296 C298 1.416 . S
C296 C329 1.448 . S
C297 H282 0.930 . S
C297 N293 1.334 . S
C297 C295 1.390 . S
C298 C295 1.339 . S
C298 C296 1.416 . S
C298 H305 0.930 . S
N299 Tb264 2.572 . S
N299 C300 1.340 1_565 S
N299 C302 1.361 . S
C300 H286 0.930 . S
C300 N299 1.340 1_545 S
C300 C304 1.407 . S
C301 C302 1.413 1_545 S
C301 C303 1.416 . S
C301 C330 1.427 . S
C302 C294 1.424 . S
C302 N299 1.361 . S
C302 C301 1.413 1_565 S
C303 H292 0.931 . S
C303 C301 1.416 . S
C303 C304 1.332 . S
C304 H283 0.929 . S
C304 C300 1.407 . S
C304 C303 1.332 . S
H305 C298 0.930 . S
H306 C329 0.930 . S
H307 C330 0.929 . S
O308 Tb264 2.465 . S
O308 C328 1.264 . S
O309 Tb264 2.387 . S
O309 C320 1.264 . S
O310 Tb275 2.349 1_455 S
O310 C320 1.243 . S
O311 Tb264 2.428 . S
O311 C328 1.256 . S
O312 Tb264 2.296 1_655 S
O312 C327 1.280 . S
O313 Tb275 2.393 . S
O313 C327 1.248 . S
O314 Tb275 2.465 . S
O314 C339 1.264 . S
O315 Tb275 2.387 . S
O315 C331 1.264 . S
O316 Tb264 2.348 . S
O316 C331 1.244 1_455 S
O317 Tb275 2.428 . S
O317 C339 1.256 . S
O318 Tb275 2.308 1_455 S
O318 C338 1.266 . S
O319 Tb264 2.393 . S
O319 C338 1.248 . S
C320 O309 1.264 . S
C320 O310 1.243 . S
C321 C324 1.399 . S
C321 C326 1.383 . S
C321 C328 1.496 . S
C322 C323 1.399 . S
C322 C326 1.389 . S
C323 C322 1.399 . S
C323 C325 1.380 . S
C323 H340 0.929 . S
C324 C321 1.399 . S
C324 C325 1.392 . S
C324 H341 0.929 . S
C325 C323 1.380 . S
C325 C324 1.392 . S
C325 H342 0.929 . S
C326 C321 1.383 . S
C326 C322 1.389 . S
C326 H343 0.931 . S
C327 O312 1.280 . S
C327 O313 1.248 . S
C328 Tb264 2.802 . S
C328 O308 1.264 . S
C328 O311 1.256 . S
C328 C321 1.496 . S
C329 C296 1.448 . S
C329 H306 0.930 . S
C329 C330 1.328 1_565 S
C330 C301 1.427 . S
C330 H307 0.929 . S
C330 C329 1.328 1_545 S
C331 O315 1.264 . S
C331 O316 1.244 1_655 S
C332 C335 1.399 . S
C332 C336 1.383 . S
C332 C339 1.496 . S
C333 C334 1.399 . S
C333 C336 1.389 . S
C334 C333 1.399 . S
C334 C337 1.380 . S
C334 H344 0.929 . S
C335 C332 1.399 . S
C335 C337 1.392 . S
C335 H345 0.929 . S
C336 C332 1.383 . S
C336 C333 1.389 . S
C336 H346 0.931 . S
C337 C334 1.380 . S
C337 C335 1.392 . S
C337 H347 0.926 1_565 S
C338 O318 1.266 . S
C338 O319 1.248 . S
C339 Tb275 2.802 . S
C339 O314 1.264 . S
C339 O317 1.256 . S
C339 C332 1.496 . S
H340 C323 0.929 . S
H341 C324 0.929 . S
H342 C325 0.929 . S
H343 C326 0.931 . S
H344 C334 0.929 . S
H345 C335 0.929 . S
H346 C336 0.931 . S
H347 C337 0.926 1_545 S
Tb348 N377 2.617 . S
Tb348 N383 2.572 . S
Tb348 O392 2.465 . S
Tb348 O393 2.387 . S
Tb348 O395 2.428 . S
Tb348 O396 2.308 . S
Tb348 O400 2.349 . S
Tb348 O403 2.393 . S
Tb348 C412 2.802 . S
C349 N350 1.379 . S
C349 C352 1.416 . S
C349 C356 1.424 . S
N350 C349 1.379 . S
N350 C353 1.334 . S
N350 Tb359 2.617 . S
C351 C353 1.390 . S
C351 C354 1.339 . S
C351 H371 0.930 . S
C352 C349 1.416 . S
C352 C354 1.416 . S
C352 C358 1.448 . S
C353 N350 1.334 . S
C353 C351 1.390 . S
C353 H364 0.930 . S
C354 C351 1.339 . S
C354 C352 1.416 . S
C354 H375 0.930 . S
C355 C356 1.413 . S
C355 C357 1.427 . S
C355 C361 1.416 . S
C356 C349 1.424 . S
C356 C355 1.413 . S
C356 N360 1.361 . S
C357 C355 1.427 . S
C357 C358 1.328 . S
C357 H372 0.929 . S
C358 C352 1.448 . S
C358 C357 1.328 . S
C358 H373 0.930 . S
Tb359 N350 2.617 . S
Tb359 N360 2.572 . S
Tb359 O394 2.349 . S
Tb359 O397 2.393 . S
Tb359 O398 2.465 . S
Tb359 O399 2.387 . S
Tb359 O401 2.428 . S
Tb359 O402 2.308 . S
Tb359 C423 2.802 . S
N360 C356 1.361 . S
N360 Tb359 2.572 . S
N360 C362 1.340 . S
C361 C355 1.416 . S
C361 C363 1.332 . S
C361 H369 0.931 . S
C362 N360 1.340 . S
C362 C363 1.407 . S
C362 H368 0.930 . S
C363 C361 1.332 . S
C363 C362 1.407 . S
C363 H365 0.929 . S
H364 C353 0.930 . S
H365 C363 0.929 . S
H366 C381 0.930 . S
H367 C388 0.929 . S
H368 C362 0.930 . S
H369 C361 0.931 . S
H370 C384 0.930 . S
H371 C351 0.930 . S
H372 C357 0.929 . S
H373 C358 0.930 . S
H374 C379 0.930 . S
H375 C354 0.930 . S
H376 C387 0.931 . S
N377 Tb348 2.617 . S
N377 C378 1.379 . S
N377 C381 1.334 . S
C378 N377 1.379 . S
C378 C380 1.416 . S
C378 C386 1.424 . S
C379 H374 0.930 . S
C379 C381 1.390 . S
C379 C382 1.339 . S
C380 C378 1.416 . S
C380 C382 1.416 . S
C380 C413 1.448 . S
C381 H366 0.930 . S
C381 N377 1.334 . S
C381 C379 1.390 . S
C382 C379 1.339 . S
C382 C380 1.416 . S
C382 H389 0.930 . S
N383 Tb348 2.572 . S
N383 C384 1.340 . S
N383 C386 1.361 . S
C384 H370 0.930 . S
C384 N383 1.340 . S
C384 C388 1.407 . S
C385 C386 1.413 . S
C385 C387 1.416 . S
C385 C414 1.427 . S
C386 C378 1.424 . S
C386 N383 1.361 . S
C386 C385 1.413 . S
C387 H376 0.931 . S
C387 C385 1.416 . S
C387 C388 1.332 . S
C388 H367 0.929 . S
C388 C384 1.407 . S
C388 C387 1.332 . S
H389 C382 0.930 . S
H390 C413 0.930 . S
H391 C414 0.929 . S
O392 Tb348 2.465 . S
O392 C412 1.264 . S
O393 Tb348 2.387 . S
O393 C404 1.264 . S
O394 Tb359 2.349 . S
O394 C404 1.243 . S
O395 Tb348 2.428 . S
O395 C412 1.256 . S
O396 Tb348 2.308 . S
O396 C411 1.266 . S
O397 Tb359 2.393 . S
O397 C411 1.248 . S
O398 Tb359 2.465 . S
O398 C423 1.264 . S
O399 Tb359 2.387 . S
O399 C415 1.264 . S
O400 Tb348 2.349 . S
O400 C415 1.243 . S
O401 Tb359 2.428 . S
O401 C423 1.256 . S
O402 Tb359 2.308 . S
O402 C422 1.266 . S
O403 Tb348 2.393 . S
O403 C422 1.248 . S
C404 O393 1.264 . S
C404 O394 1.243 . S
C405 C408 1.399 . S
C405 C410 1.383 . S
C405 C412 1.496 . S
C406 C407 1.399 . S
C406 C410 1.389 . S
C407 C406 1.399 . S
C407 C409 1.380 . S
C407 H424 0.929 . S
C408 C405 1.399 . S
C408 C409 1.392 . S
C408 H425 0.929 . S
C409 C407 1.380 . S
C409 C408 1.392 . S
C409 H426 0.929 . S
C410 C405 1.383 . S
C410 C406 1.389 . S
C410 H427 0.931 . S
C411 O396 1.266 . S
C411 O397 1.248 . S
C412 Tb348 2.802 . S
C412 O392 1.264 . S
C412 O395 1.256 . S
C412 C405 1.496 . S
C413 C380 1.448 . S
C413 H390 0.930 . S
C413 C414 1.328 . S
C414 C385 1.427 . S
C414 H391 0.929 . S
C414 C413 1.328 . S
C415 O399 1.264 . S
C415 O400 1.243 . S
C416 C419 1.399 . S
C416 C420 1.383 . S
C416 C423 1.496 . S
C417 C418 1.399 . S
C417 C420 1.389 . S
C418 C417 1.399 . S
C418 C421 1.380 . S
C418 H428 0.929 . S
C419 C416 1.399 . S
C419 C421 1.392 . S
C419 H429 0.929 . S
C420 C416 1.383 . S
C420 C417 1.389 . S
C420 H430 0.931 . S
C421 C418 1.380 . S
C421 C419 1.392 . S
C421 H431 0.929 . S
C422 O402 1.266 . S
C422 O403 1.248 . S
C423 Tb359 2.802 . S
C423 O398 1.264 . S
C423 O401 1.256 . S
C423 C416 1.496 . S
H424 C407 0.929 . S
H425 C408 0.929 . S
H426 C409 0.929 . S
H427 C410 0.931 . S
H428 C418 0.929 . S
H429 C419 0.929 . S
H430 C420 0.931 . S
H431 C421 0.929 . S
C432 C433 1.387 . S
C432 H436 0.950 . S
C432 C441 1.390 1_565 S
C433 C432 1.387 . S
C433 C435 1.387 . S
H434 C441 0.950 . S
C435 C433 1.387 . S
C435 C437 1.390 . S
C435 H439 0.950 . S
H436 C432 0.950 . S
C437 C435 1.390 . S
C437 C438 1.387 . S
C437 H440 0.950 . S
C438 C437 1.387 . S
C438 C441 1.387 1_565 S
H439 C435 0.950 . S
H440 C437 0.950 . S
C441 C432 1.390 1_545 S
C441 H434 0.950 . S
C441 C438 1.387 1_545 S
C442 C443 1.387 . S
C442 H446 0.950 . S
C442 C451 1.390 . S
C443 C442 1.387 . S
C443 C445 1.387 . S
H444 C451 0.950 . S
C445 C443 1.387 . S
C445 C447 1.390 . S
C445 H449 0.950 . S
H446 C442 0.950 . S
C447 C445 1.390 . S
C447 C448 1.387 . S
C447 H450 0.950 . S
C448 C447 1.387 . S
C448 C451 1.387 . S
H449 C445 0.950 . S
H450 C447 0.950 . S
C451 C442 1.390 . S
C451 H444 0.950 . S
C451 C448 1.387 . S
C452 C453 1.387 . S
C452 H456 0.950 . S
C452 C461 1.390 . S
C453 C452 1.387 . S
C453 C455 1.387 . S
H454 C461 0.950 . S
C455 C453 1.387 . S
C455 C457 1.390 . S
C455 H459 0.950 . S
H456 C452 0.950 . S
C457 C455 1.390 . S
C457 C458 1.387 . S
C457 H460 0.950 . S
C458 C457 1.387 . S
C458 C461 1.387 . S
H459 C455 0.950 . S
H460 C457 0.950 . S
C461 C452 1.390 . S
C461 H454 0.950 . S
C461 C458 1.387 . S
C462 C463 1.387 . S
C462 H466 0.950 . S
C462 C471 1.390 1_565 S
C463 C462 1.387 . S
C463 C465 1.387 . S
H464 C471 0.950 . S
C465 C463 1.387 . S
C465 C467 1.390 . S
C465 H469 0.950 . S
H466 C462 0.950 . S
C467 C465 1.390 . S
C467 C468 1.387 . S
C467 H470 0.950 . S
C468 C467 1.387 . S
C468 C471 1.387 1_565 S
H469 C465 0.950 . S
H470 C467 0.950 . S
C471 C462 1.390 1_545 S
C471 H464 0.950 . S
C471 C468 1.387 1_545 S
C472 C473 1.387 . S
C472 H476 0.950 . S
C472 C481 1.390 . S
C473 C472 1.387 . S
C473 C475 1.387 . S
H474 C481 0.950 . S
C475 C473 1.387 . S
C475 C477 1.390 1_545 S
C475 H479 0.950 . S
H476 C472 0.950 . S
C477 C475 1.390 1_565 S
C477 C478 1.387 1_565 S
C477 H480 0.950 . S
C478 C477 1.387 1_545 S
C478 C481 1.387 . S
H479 C475 0.950 . S
H480 C477 0.950 . S
C481 C472 1.390 . S
C481 H474 0.950 . S
C481 C478 1.387 . S
C482 C483 1.387 . S
C482 H486 0.950 . S
C482 C491 1.390 . S
C483 C482 1.387 . S
C483 C485 1.387 . S
H484 C491 0.950 . S
C485 C483 1.387 . S
C485 C487 1.390 . S
C485 H489 0.950 . S
H486 C482 0.950 . S
C487 C485 1.390 . S
C487 C488 1.387 . S
C487 H490 0.950 . S
C488 C487 1.387 . S
C488 C491 1.387 . S
H489 C485 0.950 . S
H490 C487 0.950 . S
C491 C482 1.390 . S
C491 H484 0.950 . S
C491 C488 1.387 . S
C492 C493 1.387 . S
C492 H496 0.950 . S
C492 C501 1.390 . S
C493 C492 1.387 . S
C493 C495 1.387 . S
H494 C501 0.950 . S
C495 C493 1.387 . S
C495 C497 1.390 . S
C495 H499 0.950 . S
H496 C492 0.950 . S
C497 C495 1.390 . S
C497 C498 1.387 . S
C497 H500 0.950 . S
C498 C497 1.387 . S
C498 C501 1.387 . S
H499 C495 0.950 . S
H500 C497 0.950 . S
C501 C492 1.390 . S
C501 H494 0.950 . S
C501 C498 1.387 . S
C502 C503 1.387 . S
C502 H506 0.950 . S
C502 C511 1.390 1_545 S
C503 C502 1.387 . S
C503 C505 1.387 . S
H504 C511 0.950 . S
C505 C503 1.387 . S
C505 C507 1.390 . S
C505 H509 0.950 . S
H506 C502 0.950 . S
C507 C505 1.390 . S
C507 C508 1.387 . S
C507 H510 0.950 . S
C508 C507 1.387 . S
C508 C511 1.387 1_545 S
H509 C505 0.950 . S
H510 C507 0.950 . S
C511 C502 1.390 1_565 S
C511 H504 0.950 . S
C511 C508 1.387 1_565 S
C512 C513 1.387 . S
C512 H516 0.950 . S
C512 C521 1.390 1_556 S
C513 C512 1.387 . S
C513 C515 1.387 . S
H514 C521 0.950 . S
C515 C513 1.387 . S
C515 C517 1.390 1_556 S
C515 H519 0.950 . S
H516 C512 0.950 . S
C517 C515 1.390 1_554 S
C517 C518 1.387 . S
C517 H520 0.950 . S
C518 C517 1.387 . S
C518 C521 1.387 . S
H519 C515 0.950 . S
H520 C517 0.950 . S
C521 C512 1.390 1_554 S
C521 H514 0.950 . S
C521 C518 1.387 . S
C522 C523 1.387 . S
C522 H526 0.950 . S
C522 C531 1.390 . S
C523 C522 1.387 . S
C523 C525 1.387 . S
H524 C531 0.950 . S
C525 C523 1.387 . S
C525 C527 1.390 . S
C525 H529 0.950 . S
H526 C522 0.950 . S
C527 C525 1.390 . S
C527 C528 1.387 . S
C527 H530 0.950 . S
C528 C527 1.387 . S
C528 C531 1.387 . S
H529 C525 0.950 . S
H530 C527 0.950 . S
C531 C522 1.390 . S
C531 H524 0.950 . S
C531 C528 1.387 . S
C532 C533 1.387 . S
C532 H536 0.950 . S
C532 C541 1.390 1_554 S
C533 C532 1.387 . S
C533 C535 1.387 . S
H534 C541 0.950 . S
C535 C533 1.387 . S
C535 C537 1.390 1_554 S
C535 H539 0.950 . S
H536 C532 0.950 . S
C537 C535 1.390 1_556 S
C537 C538 1.387 . S
C537 H540 0.950 . S
C538 C537 1.387 . S
C538 C541 1.387 . S
H539 C535 0.950 . S
H540 C537 0.950 . S
C541 C532 1.390 1_556 S
C541 H534 0.950 . S
C541 C538 1.387 . S
C542 C543 1.387 . S
C542 H546 0.950 . S
C542 C551 1.390 . S
C543 C542 1.387 . S
C543 C545 1.387 . S
H544 C551 0.950 . S
C545 C543 1.387 . S
C545 C547 1.390 . S
C545 H549 0.950 . S
H546 C542 0.950 . S
C547 C545 1.390 . S
C547 C548 1.387 . S
C547 H550 0.950 . S
C548 C547 1.387 . S
C548 C551 1.387 . S
H549 C545 0.950 . S
H550 C547 0.950 . S
C551 C542 1.390 . S
C551 H544 0.950 . S
C551 C548 1.387 . S
C552 C553 1.387 . S
C552 H556 0.950 . S
C552 C561 1.390 1_554 S
C553 C552 1.387 . S
C553 C555 1.387 . S
H554 C561 0.950 . S
C555 C553 1.387 . S
C555 C557 1.390 1_554 S
C555 H559 0.950 . S
H556 C552 0.950 . S
C557 C555 1.390 1_556 S
C557 C558 1.387 . S
C557 H560 0.950 . S
C558 C557 1.387 . S
C558 C561 1.387 . S
H559 C555 0.950 . S
H560 C557 0.950 . S
C561 C552 1.390 1_556 S
C561 H554 0.950 . S
C561 C558 1.387 . S
C562 C563 1.387 . S
C562 H566 0.950 . S
C562 C571 1.390 . S
C563 C562 1.387 . S
C563 C565 1.387 . S
H564 C571 0.950 . S
C565 C563 1.387 . S
C565 C567 1.390 . S
C565 H569 0.950 . S
H566 C562 0.950 . S
C567 C565 1.390 . S
C567 C568 1.387 . S
C567 H570 0.950 . S
C568 C567 1.387 . S
C568 C571 1.387 . S
H569 C565 0.950 . S
H570 C567 0.950 . S
C571 C562 1.390 . S
C571 H564 0.950 . S
C571 C568 1.387 . S
C572 C573 1.387 . S
C572 H576 0.950 . S
C572 C581 1.390 1_556 S
C573 C572 1.387 . S
C573 C575 1.387 . S
H574 C581 0.950 . S
C575 C573 1.387 . S
C575 C577 1.390 1_556 S
C575 H579 0.950 . S
H576 C572 0.950 . S
C577 C575 1.390 1_554 S
C577 C578 1.387 . S
C577 H580 0.950 . S
C578 C577 1.387 . S
C578 C581 1.387 . S
H579 C575 0.950 . S
H580 C577 0.950 . S
C581 C572 1.390 1_554 S
C581 H574 0.950 . S
C581 C578 1.387 . S
C582 C583 1.387 . S
C582 H586 0.950 . S
C582 C591 1.390 . S
C583 C582 1.387 . S
C583 C585 1.387 . S
H584 C591 0.950 . S
C585 C583 1.387 . S
C585 C587 1.390 . S
C585 H589 0.950 . S
H586 C582 0.950 . S
C587 C585 1.390 . S
C587 C588 1.387 . S
C587 H590 0.950 . S
C588 C587 1.387 . S
C588 C591 1.387 . S
H589 C585 0.950 . S
H590 C587 0.950 . S
C591 C582 1.390 . S
C591 H584 0.950 . S
C591 C588 1.387 . S
C592 C593 1.387 . S
C592 H596 0.950 . S
C592 C601 1.390 . S
C593 C592 1.387 . S
C593 C595 1.387 . S
H594 C601 0.950 . S
C595 C593 1.387 . S
C595 C597 1.390 . S
C595 H599 0.950 . S
H596 C592 0.950 . S
C597 C595 1.390 . S
C597 C598 1.387 . S
C597 H600 0.950 . S
C598 C597 1.387 . S
C598 C601 1.387 . S
H599 C595 0.950 . S
H600 C597 0.950 . S
C601 C592 1.390 . S
C601 H594 0.950 . S
C601 C598 1.387 . S
C602 C603 1.387 . S
C602 H606 0.950 . S
C602 C611 1.390 . S
C603 C602 1.387 . S
C603 C605 1.387 . S
H604 C611 0.950 . S
C605 C603 1.387 . S
C605 C607 1.390 . S
C605 H609 0.950 . S
H606 C602 0.950 . S
C607 C605 1.390 . S
C607 C608 1.387 . S
C607 H610 0.950 . S
C608 C607 1.387 . S
C608 C611 1.387 . S
H609 C605 0.950 . S
H610 C607 0.950 . S
C611 C602 1.390 . S
C611 H604 0.950 . S
C611 C608 1.387 . S
C612 C613 1.387 . S
C612 H616 0.950 . S
C612 C621 1.390 . S
C613 C612 1.387 . S
C613 C615 1.387 . S
H614 C621 0.950 . S
C615 C613 1.387 . S
C615 C617 1.390 . S
C615 H619 0.950 . S
H616 C612 0.950 . S
C617 C615 1.390 . S
C617 C618 1.387 . S
C617 H620 0.950 . S
C618 C617 1.387 . S
C618 C621 1.387 . S
H619 C615 0.950 . S
H620 C617 0.950 . S
C621 C612 1.390 . S
C621 H614 0.950 . S
C621 C618 1.387 . S
C622 C623 1.387 . S
C622 H626 0.950 . S
C622 C631 1.390 . S
C623 C622 1.387 . S
C623 C625 1.387 . S
H624 C631 0.950 . S
C625 C623 1.387 . S
C625 C627 1.390 . S
C625 H629 0.950 . S
H626 C622 0.950 . S
C627 C625 1.390 . S
C627 C628 1.387 . S
C627 H630 0.950 . S
C628 C627 1.387 . S
C628 C631 1.387 . S
H629 C625 0.950 . S
H630 C627 0.950 . S
C631 C622 1.390 . S
C631 H624 0.950 . S
C631 C628 1.387 . S
C632 C633 1.387 . S
C632 H636 0.950 . S
C632 C641 1.390 . S
C633 C632 1.387 . S
C633 C635 1.387 . S
H634 C641 0.950 . S
C635 C633 1.387 . S
C635 C637 1.390 . S
C635 H639 0.950 . S
H636 C632 0.950 . S
C637 C635 1.390 . S
C637 C638 1.387 . S
C637 H640 0.950 . S
C638 C637 1.387 . S
C638 C641 1.387 . S
H639 C635 0.950 . S
H640 C637 0.950 . S
C641 C632 1.390 . S
C641 H634 0.950 . S
C641 C638 1.387 . S
C642 C643 1.387 . S
C642 H646 0.950 . S
C642 C651 1.390 . S
C643 C642 1.387 . S
C643 C645 1.387 . S
H644 C651 0.950 . S
C645 C643 1.387 . S
C645 C647 1.390 . S
C645 H649 0.950 . S
H646 C642 0.950 . S
C647 C645 1.390 . S
C647 C648 1.387 . S
C647 H650 0.950 . S
C648 C647 1.387 . S
C648 C651 1.387 . S
H649 C645 0.950 . S
H650 C647 0.950 . S
C651 C642 1.390 . S
C651 H644 0.950 . S
C651 C648 1.387 . S
C652 C653 1.387 . S
C652 H656 0.950 . S
C652 C661 1.390 . S
C653 C652 1.387 . S
C653 C655 1.387 . S
H654 C661 0.950 . S
C655 C653 1.387 . S
C655 C657 1.390 . S
C655 H659 0.950 . S
H656 C652 0.950 . S
C657 C655 1.390 . S
C657 C658 1.387 . S
C657 H660 0.950 . S
C658 C657 1.387 . S
C658 C661 1.387 . S
H659 C655 0.950 . S
H660 C657 0.950 . S
C661 C652 1.390 . S
C661 H654 0.950 . S
C661 C658 1.387 . S
C662 C663 1.387 . S
C662 H666 0.950 . S
C662 C671 1.390 . S
C663 C662 1.387 . S
C663 C665 1.387 . S
H664 C671 0.950 . S
C665 C663 1.387 . S
C665 C667 1.390 . S
C665 H669 0.950 . S
H666 C662 0.950 . S
C667 C665 1.390 . S
C667 C668 1.387 . S
C667 H670 0.950 . S
C668 C667 1.387 . S
C668 C671 1.387 . S
H669 C665 0.950 . S
H670 C667 0.950 . S
C671 C662 1.390 . S
C671 H664 0.950 . S
C671 C668 1.387 . S
C433 C81 1.676 . S
C438 C170 1.663 1_565 S
C448 C254 1.663 . S
C443 C93 1.676 . S
C458 C247 1.665 . S
C453 C57 1.674 . S
C463 C69 1.674 . S
C468 C163 1.664 1_565 S
C478 C327 1.663 1_545 S
C473 C33 1.670 . S
C488 C411 1.664 . S
C483 C45 1.670 . S
C493 C9 1.669 . S
C498 C404 1.665 . S
C503 C21 1.669 . S
C508 C320 1.665 1_545 S
C518 C154 1.445 . S
C513 C18 1.603 . S
C528 C238 1.448 . S
C523 C6 1.604 . S
C538 C249 1.368 . S
C533 C42 1.603 . S
C548 C165 1.369 . S
C543 C30 1.603 . S
C558 C333 1.448 . S
C553 C66 1.612 . S
C563 C54 1.612 . S
C568 C417 1.448 . S
C578 C406 1.364 . S
C573 C90 1.609 . S
C583 C78 1.609 . S
C588 C322 1.368 . S
C598 C152 1.522 . S
C593 C4 1.504 . S
C608 C236 1.522 . S
C603 C16 1.504 . S
C613 C28 1.500 . S
C618 C243 1.489 . S
C628 C159 1.489 . S
C623 C40 1.501 . S
C638 C331 1.522 . S
C633 C52 1.498 . S
C643 C64 1.497 . S
C648 C415 1.522 . S
C653 C76 1.493 . S
C658 C422 1.490 . S
C663 C88 1.495 . S
C668 C338 1.489 . S
