# Generated by pormake.
# Topology apo, (3,6)-cn, num edge types: 1
# Building blocks:
#     Node 0, Type 0, BuildingBlock: CUQRIR_clean_linker_1, # of connection points: 3
#     Node 1, Type 0, BuildingBlock: CUQRIR_clean_linker_1, # of connection points: 3
#     Node 2, Type 0, BuildingBlock: CUQRIR_clean_linker_1, # of connection points: 3
#     Node 3, Type 0, BuildingBlock: CUQRIR_clean_linker_1, # of connection points: 3
#     Node 4, Type 0, BuildingBlock: CUQRIR_clean_linker_1, # of connection points: 3
#     Node 5, Type 0, BuildingBlock: CUQRIR_clean_linker_1, # of connection points: 3
#     Node 6, Type 0, BuildingBlock: CUQRIR_clean_linker_1, # of connection points: 3
#     Node 7, Type 0, BuildingBlock: CUQRIR_clean_linker_1, # of connection points: 3
#     Node 8, Type 1, BuildingBlock: KUMJIN_clean_sbu_1, # of connection points: 6
#     Node 9, Type 1, BuildingBlock: KUMJIN_clean_sbu_1, # of connection points: 6
#     Node 10, Type 1, BuildingBlock: KUMJIN_clean_sbu_1, # of connection points: 6
#     Node 11, Type 1, BuildingBlock: KUMJIN_clean_sbu_1, # of connection points: 6
#     Edge 12, Type (0, 1), BuildingBlock: KIFKEQ_clean_linker_1, # of connection points: 2
#     Edge 13, Type (0, 1), BuildingBlock: KIFKEQ_clean_linker_1, # of connection points: 2
#     Edge 14, Type (0, 1), BuildingBlock: KIFKEQ_clean_linker_1, # of connection points: 2
#     Edge 15, Type (0, 1), BuildingBlock: KIFKEQ_clean_linker_1, # of connection points: 2
#     Edge 16, Type (0, 1), BuildingBlock: KIFKEQ_clean_linker_1, # of connection points: 2
#     Edge 17, Type (0, 1), BuildingBlock: KIFKEQ_clean_linker_1, # of connection points: 2
#     Edge 18, Type (0, 1), BuildingBlock: KIFKEQ_clean_linker_1, # of connection points: 2
#     Edge 19, Type (0, 1), BuildingBlock: KIFKEQ_clean_linker_1, # of connection points: 2
#     Edge 20, Type (0, 1), BuildingBlock: KIFKEQ_clean_linker_1, # of connection points: 2
#     Edge 21, Type (0, 1), BuildingBlock: KIFKEQ_clean_linker_1, # of connection points: 2
#     Edge 22, Type (0, 1), BuildingBlock: KIFKEQ_clean_linker_1, # of connection points: 2
#     Edge 23, Type (0, 1), BuildingBlock: KIFKEQ_clean_linker_1, # of connection points: 2
#     Edge 24, Type (0, 1), BuildingBlock: KIFKEQ_clean_linker_1, # of connection points: 2
#     Edge 25, Type (0, 1), BuildingBlock: KIFKEQ_clean_linker_1, # of connection points: 2
#     Edge 26, Type (0, 1), BuildingBlock: KIFKEQ_clean_linker_1, # of connection points: 2
#     Edge 27, Type (0, 1), BuildingBlock: KIFKEQ_clean_linker_1, # of connection points: 2
#     Edge 28, Type (0, 1), BuildingBlock: KIFKEQ_clean_linker_1, # of connection points: 2
#     Edge 29, Type (0, 1), BuildingBlock: KIFKEQ_clean_linker_1, # of connection points: 2
#     Edge 30, Type (0, 1), BuildingBlock: KIFKEQ_clean_linker_1, # of connection points: 2
#     Edge 31, Type (0, 1), BuildingBlock: KIFKEQ_clean_linker_1, # of connection points: 2
#     Edge 32, Type (0, 1), BuildingBlock: KIFKEQ_clean_linker_1, # of connection points: 2
#     Edge 33, Type (0, 1), BuildingBlock: KIFKEQ_clean_linker_1, # of connection points: 2
#     Edge 34, Type (0, 1), BuildingBlock: KIFKEQ_clean_linker_1, # of connection points: 2
#     Edge 35, Type (0, 1), BuildingBlock: KIFKEQ_clean_linker_1, # of connection points: 2
# Relax obj value: 0.045
# Max RMSD: 0.225
# Mean RMSD: 0.177
data_MOF--net-apo--node1-KUMJIN_clean_sbu_1--node2-CUQRIR_clean_linker_1--edge1-KIFKEQ_clean_linker_1
_symmetry_space_group_name_H-M    P1
_symmetry_Int_Tables_number       1
_symmetry_cell_setting            triclinic
loop_
_symmetry_equiv_pos_as_xyz
'x, y, z'
_cell_length_a     26.288273
_cell_length_b     40.255973
_cell_length_c     47.943487
_cell_angle_alpha  89.918281
_cell_angle_beta   90.085644
_cell_angle_gamma 90.243585
loop_
_atom_site_label
_atom_site_type_symbol
_atom_site_fract_x
_atom_site_fract_y
_atom_site_fract_z
_atom_type_partial_charge
C0 C 0.25208 0.34529 0.42468 0.0
N1 N 0.28129 0.37295 0.42704 0.0
N2 N 0.24334 0.33811 0.39751 0.0
C3 C 0.2339 0.32459 0.44883 0.0
C4 C 0.26803 0.36247 0.38347 0.0
N5 N 0.29152 0.38352 0.40139 0.0
C6 C 0.26598 0.36707 0.3523 0.0
H7 H 0.26076 0.32627 0.46666 0.0
H8 H 0.22926 0.2982 0.44264 0.0
H9 H 0.19644 0.33408 0.45578 0.0
H10 H 0.23033 0.35649 0.34356 0.0
H11 H 0.29865 0.35406 0.34268 0.0
H12 H 0.2684 0.39379 0.34669 0.0
C13 C 0.24789 0.16832 0.92517 0.0
N14 N 0.21789 0.14105 0.92839 0.0
N15 N 0.26282 0.17162 0.89824 0.0
C16 C 0.26569 0.19037 0.94855 0.0
C17 C 0.24084 0.14546 0.88517 0.0
N18 N 0.21402 0.12674 0.90347 0.0
C19 C 0.24445 0.13874 0.85432 0.0
H20 H 0.23711 0.21014 0.95198 0.0
H21 H 0.3026 0.20233 0.94339 0.0
H22 H 0.26982 0.17601 0.96819 0.0
H23 H 0.27919 0.12397 0.85027 0.0
H24 H 0.24732 0.16233 0.84242 0.0
H25 H 0.21133 0.12435 0.84655 0.0
C26 C 0.76912 0.17322 0.62249 0.0
N27 N 0.79869 0.14614 0.61826 0.0
N28 N 0.75728 0.17631 0.64986 0.0
C29 C 0.75598 0.19844 0.60044 0.0
C30 C 0.78083 0.15032 0.66214 0.0
N31 N 0.80654 0.13231 0.64307 0.0
C32 C 0.77608 0.14119 0.69252 0.0
H33 H 0.75036 0.22338 0.60973 0.0
H34 H 0.72012 0.19079 0.58999 0.0
H35 H 0.78637 0.20007 0.58445 0.0
H36 H 0.73994 0.15052 0.70141 0.0
H37 H 0.8083 0.15241 0.70419 0.0
H38 H 0.77766 0.11385 0.69538 0.0
C39 C 0.74096 0.33783 0.123 0.0
N40 N 0.71102 0.36478 0.11942 0.0
N41 N 0.75479 0.33474 0.15013 0.0
C42 C 0.75364 0.31331 0.10043 0.0
C43 C 0.73199 0.3607 0.16284 0.0
N44 N 0.70496 0.37866 0.14424 0.0
C45 C 0.738 0.36956 0.19317 0.0
H46 H 0.75826 0.28797 0.10919 0.0
H47 H 0.78999 0.32087 0.09051 0.0
H48 H 0.72376 0.31278 0.08407 0.0
H49 H 0.77451 0.36014 0.20162 0.0
H50 H 0.70625 0.35825 0.20515 0.0
H51 H 0.73645 0.39687 0.19612 0.0
C52 C 0.75404 0.66089 0.61742 0.0
N53 N 0.72031 0.63551 0.61516 0.0
N54 N 0.76253 0.66833 0.6446 0.0
C55 C 0.77816 0.67847 0.59306 0.0
C56 C 0.73226 0.64686 0.65873 0.0
N57 N 0.70626 0.62715 0.64082 0.0
C58 C 0.72722 0.6453 0.68999 0.0
H59 H 0.80639 0.66175 0.58327 0.0
H60 H 0.79796 0.70162 0.59935 0.0
H61 H 0.74882 0.68429 0.57714 0.0
H62 H 0.68929 0.65484 0.69603 0.0
H63 H 0.75653 0.66027 0.70087 0.0
H64 H 0.72957 0.6191 0.69711 0.0
C65 C 0.75601 0.84713 0.11834 0.0
N66 N 0.78962 0.87255 0.11618 0.0
N67 N 0.7475 0.83959 0.14546 0.0
C68 C 0.73239 0.82943 0.09389 0.0
C69 C 0.77762 0.86102 0.1597 0.0
N70 N 0.80363 0.88082 0.14187 0.0
C71 C 0.7825 0.86239 0.19097 0.0
H72 H 0.70547 0.84642 0.08328 0.0
H73 H 0.71135 0.80676 0.10027 0.0
H74 H 0.76233 0.82275 0.07862 0.0
H75 H 0.81962 0.85162 0.19715 0.0
H76 H 0.75195 0.84829 0.20165 0.0
H77 H 0.78197 0.8886 0.19811 0.0
C78 C 0.23779 0.83636 0.4216 0.0
N79 N 0.20821 0.86367 0.4247 0.0
N80 N 0.24925 0.83156 0.3944 0.0
C81 C 0.25118 0.81238 0.44458 0.0
C82 C 0.22539 0.8566 0.381 0.0
N83 N 0.1999 0.87582 0.39931 0.0
C84 C 0.22962 0.86356 0.35021 0.0
H85 H 0.28689 0.82075 0.45478 0.0
H86 H 0.25728 0.78703 0.43621 0.0
H87 H 0.22067 0.81135 0.46053 0.0
H88 H 0.19721 0.85152 0.33928 0.0
H89 H 0.26558 0.85354 0.34161 0.0
H90 H 0.22804 0.89065 0.34598 0.0
C91 C 0.26849 0.67202 0.92198 0.0
N92 N 0.2991 0.64519 0.92468 0.0
N93 N 0.25967 0.67877 0.8947 0.0
C94 C 0.25024 0.69299 0.94588 0.0
C95 C 0.28611 0.65512 0.88094 0.0
N96 N 0.31075 0.6351 0.89913 0.0
C97 C 0.28403 0.64963 0.84987 0.0
H98 H 0.21392 0.68251 0.9538 0.0
H99 H 0.24358 0.71898 0.93912 0.0
H100 H 0.27824 0.6929 0.96322 0.0
H101 H 0.31662 0.66268 0.83999 0.0
H102 H 0.24822 0.65942 0.84085 0.0
H103 H 0.28687 0.62281 0.84482 0.0
Eu104 Eu 0.06377 0.11301 0.23804 0.0
C105 C 0.85061 0.0806 0.27731 0.0
N106 N 0.87466 0.11054 0.27937 0.0
C107 C 0.80159 0.13765 0.25993 0.0
C108 C 0.80182 0.07798 0.26516 0.0
C109 C 0.84958 0.13903 0.27248 0.0
C110 C 0.77799 0.10694 0.25576 0.0
C111 C 0.84835 0.02167 0.2885 0.0
C112 C 0.87341 0.05269 0.28889 0.0
C113 C 0.8008 0.01877 0.27534 0.0
C114 C 0.77763 0.04684 0.26367 0.0
Eu115 Eu 0.9568 0.10943 0.2999 0.0
N116 N 0.92002 0.05597 0.30091 0.0
C117 C 0.87152 0.99462 0.30177 0.0
C118 C 0.94155 0.03027 0.31522 0.0
C119 C 0.91798 0.99907 0.31553 0.0
H120 H 0.86567 0.16299 0.2773 0.0
H121 H 0.93563 0.97849 0.32635 0.0
H122 H 0.15993 0.07793 0.27342 0.0
H123 H 0.05785 0.23082 0.18104 0.0
H124 H 0.97724 0.03389 0.326 0.0
H125 H 0.85342 0.97039 0.30196 0.0
H126 H 0.0263 0.17604 0.19613 0.0
H127 H 0.78242 0.16033 0.25399 0.0
H128 H 0.78116 0.99507 0.27457 0.0
H129 H 0.74037 0.04436 0.25419 0.0
H130 H 0.2471 0.09212 0.28834 0.0
H131 H 0.74052 0.10598 0.24635 0.0
H132 H 0.14323 0.25005 0.19577 0.0
N133 N 0.14716 0.12442 0.25352 0.0
C134 C 0.16777 0.15377 0.2451 0.0
C135 C 0.22502 0.10982 0.27644 0.0
C136 C 0.21764 0.1628 0.253 0.0
C137 C 0.17538 0.10198 0.26818 0.0
C138 C 0.2461 0.14048 0.26904 0.0
N139 N 0.09075 0.1655 0.22136 0.0
C140 C 0.06244 0.18472 0.20382 0.0
C141 C 0.159 0.20568 0.21981 0.0
C142 C 0.13871 0.17492 0.22866 0.0
C143 C 0.12906 0.22621 0.20294 0.0
C144 C 0.08075 0.21553 0.19471 0.0
H145 H 0.28459 0.14648 0.27547 0.0
H146 H 0.27578 0.201 0.25049 0.0
H147 H 0.22444 0.23858 0.2215 0.0
O148 O 0.08832 0.11247 0.19424 0.0
O149 O 0.08212 0.1402 0.27856 0.0
O150 O 0.00508 0.15623 0.2982 0.0
O151 O 0.09068 0.06685 0.21913 0.0
O152 O 0.98805 0.13876 0.23005 0.0
O153 O 0.95567 0.15596 0.27274 0.0
O154 O 0.97029 0.10236 0.34458 0.0
O155 O 0.96798 0.06716 0.26891 0.0
O156 O 0.98302 0.09711 0.22992 0.0
O157 O 0.90154 0.12621 0.33069 0.0
O158 O 0.03682 0.09299 0.30928 0.0
O159 O 0.06691 0.06951 0.26873 0.0
C160 C 0.05458 0.15957 0.29471 0.0
C161 C 0.11868 0.06255 0.17065 0.0
C162 C 0.13734 0.05863 0.12061 0.0
C163 C 0.15546 0.02619 0.12506 0.0
C164 C 0.13661 0.03004 0.17428 0.0
C165 C 0.155 0.0121 0.15164 0.0
C166 C 0.11933 0.07687 0.14372 0.0
C167 C 0.9614 0.15949 0.24552 0.0
C168 C 0.09876 0.08092 0.19499 0.0
C169 C 0.23762 0.19358 0.24452 0.0
C170 C 0.20838 0.21497 0.22799 0.0
C171 C 0.96542 0.07031 0.24176 0.0
C172 C 0.93368 0.14177 0.37471 0.0
C173 C 0.92726 0.15497 0.42437 0.0
C174 C 0.94112 0.18802 0.41814 0.0
C175 C 0.94705 0.17481 0.369 0.0
C176 C 0.92407 0.13189 0.40233 0.0
C177 C 0.95113 0.19773 0.39069 0.0
C178 C 0.06197 0.06976 0.29615 0.0
C179 C 0.92884 0.1174 0.35208 0.0
H180 H 0.1707 0.01172 0.108 0.0
H181 H 0.13661 0.01844 0.19468 0.0
H182 H 0.16908 0.98712 0.1547 0.0
H183 H 0.10497 0.1018 0.14066 0.0
H184 H 0.94309 0.20666 0.43436 0.0
H185 H 0.95424 0.18286 0.34779 0.0
H186 H 0.91411 0.10622 0.40656 0.0
H187 H 0.96149 0.22323 0.38618 0.0
Eu188 Eu 0.44753 0.39695 0.73978 0.0
C189 C 0.6651 0.42343 0.78281 0.0
N190 N 0.63851 0.39458 0.78579 0.0
C191 C 0.71131 0.36362 0.77079 0.0
C192 C 0.71528 0.42351 0.77241 0.0
C193 C 0.66198 0.36482 0.7816 0.0
C194 C 0.73775 0.39313 0.76564 0.0
C195 C 0.67107 0.48282 0.79116 0.0
C196 C 0.64345 0.45275 0.79207 0.0
C197 C 0.72005 0.48326 0.77954 0.0
C198 C 0.74209 0.45368 0.77014 0.0
Eu199 Eu 0.5538 0.3996 0.80232 0.0
N200 N 0.59568 0.45166 0.80278 0.0
C201 C 0.64907 0.51134 0.80263 0.0
C202 C 0.57529 0.47882 0.8156 0.0
C203 C 0.60133 0.50918 0.81534 0.0
H204 H 0.64327 0.34191 0.78716 0.0
H205 H 0.58455 0.53089 0.82486 0.0
H206 H 0.35748 0.44865 0.76412 0.0
H207 H 0.43442 0.26509 0.7124 0.0
H208 H 0.53844 0.47706 0.82543 0.0
H209 H 0.66912 0.53491 0.80239 0.0
H210 H 0.47559 0.31981 0.71559 0.0
H211 H 0.72922 0.33991 0.76691 0.0
H212 H 0.7417 0.50618 0.77836 0.0
H213 H 0.78047 0.45424 0.76194 0.0
H214 H 0.26779 0.44597 0.77853 0.0
H215 H 0.77621 0.39212 0.75761 0.0
H216 H 0.3451 0.25796 0.72738 0.0
N217 N 0.36202 0.39716 0.75443 0.0
C218 C 0.33629 0.36796 0.75168 0.0
C219 C 0.28675 0.42377 0.77132 0.0
C220 C 0.28473 0.36542 0.75955 0.0
C221 C 0.33792 0.42507 0.76353 0.0
C222 C 0.2601 0.39379 0.76949 0.0
N223 N 0.41177 0.34335 0.73416 0.0
C224 C 0.43735 0.31703 0.72317 0.0
C225 C 0.33652 0.30943 0.73947 0.0
C226 C 0.36196 0.34026 0.74159 0.0
C227 C 0.36327 0.28206 0.72925 0.0
C228 C 0.41376 0.28596 0.72088 0.0
H229 H 0.22046 0.39287 0.77563 0.0
H230 H 0.21993 0.33232 0.7635 0.0
H231 H 0.26528 0.2833 0.74608 0.0
O232 O 0.42934 0.38858 0.69585 0.0
O233 O 0.42853 0.37231 0.78132 0.0
O234 O 0.50499 0.35296 0.7986 0.0
O235 O 0.42273 0.43798 0.71319 0.0
O236 O 0.52091 0.36856 0.73201 0.0
O237 O 0.55631 0.35333 0.77479 0.0
O238 O 0.53673 0.41168 0.84551 0.0
O239 O 0.54836 0.44159 0.77058 0.0
O240 O 0.52901 0.41181 0.7321 0.0
O241 O 0.59981 0.3795 0.83657 0.0
O242 O 0.47391 0.41807 0.80888 0.0
O243 O 0.44879 0.44278 0.76794 0.0
C244 C 0.45519 0.35069 0.79581 0.0
C245 C 0.37077 0.42452 0.67395 0.0
C246 C 0.33145 0.42637 0.62769 0.0
C247 C 0.28551 0.43621 0.64014 0.0
C248 C 0.32451 0.43426 0.68588 0.0
C249 C 0.28211 0.43995 0.66902 0.0
C250 C 0.37393 0.42025 0.64485 0.0
C251 C 0.55044 0.34952 0.74757 0.0
C252 C 0.41646 0.41926 0.69121 0.0
C253 C 0.25947 0.33474 0.75744 0.0
C254 C 0.28532 0.30682 0.74753 0.0
C255 C 0.54844 0.43833 0.74344 0.0
C256 C 0.55688 0.37215 0.87947 0.0
C257 C 0.5598 0.36033 0.9293 0.0
C258 C 0.52115 0.33645 0.92572 0.0
C259 C 0.51845 0.34823 0.87623 0.0
C260 C 0.57786 0.37791 0.90595 0.0
C261 C 0.5009 0.33031 0.89926 0.0
C262 C 0.45269 0.44273 0.79542 0.0
C263 C 0.57235 0.39315 0.85594 0.0
H264 H 0.25202 0.4407 0.62752 0.0
H265 H 0.32115 0.43773 0.70813 0.0
H266 H 0.24651 0.44743 0.67837 0.0
H267 H 0.4097 0.41287 0.63553 0.0
H268 H 0.50688 0.32244 0.94339 0.0
H269 H 0.50148 0.344 0.85601 0.0
H270 H 0.60701 0.39682 0.90853 0.0
H271 H 0.47111 0.31192 0.89663 0.0
Eu272 Eu 0.05542 0.8976 0.7429 0.0
C273 C 0.82987 0.86974 0.78573 0.0
N274 N 0.85666 0.89862 0.78771 0.0
C275 C 0.78205 0.92991 0.77648 0.0
C276 C 0.77778 0.86993 0.77865 0.0
C277 C 0.83364 0.92852 0.7835 0.0
C278 C 0.75402 0.90051 0.77398 0.0
C279 C 0.82807 0.80943 0.78814 0.0
C280 C 0.85476 0.83977 0.79042 0.0
C281 C 0.77621 0.80959 0.78108 0.0
C282 C 0.75115 0.83973 0.77636 0.0
Eu283 Eu 0.9432 0.89346 0.7997 0.0
N284 N 0.90544 0.84027 0.79634 0.0
C285 C 0.85442 0.7798 0.79287 0.0
C286 C 0.93077 0.81159 0.80212 0.0
C287 C 0.90588 0.78092 0.80011 0.0
H288 H 0.85481 0.95138 0.78599 0.0
H289 H 0.92632 0.75817 0.80431 0.0
H290 H 0.14642 0.84166 0.75681 0.0
H291 H 0.067 0.03305 0.73633 0.0
H292 H 0.97 0.81222 0.80843 0.0
H293 H 0.83529 0.75598 0.79126 0.0
H294 H 0.02612 0.97817 0.73198 0.0
H295 H 0.76388 0.95367 0.77314 0.0
H296 H 0.75514 0.78651 0.77917 0.0
H297 H 0.71114 0.83942 0.77091 0.0
H298 H 0.23662 0.84111 0.77131 0.0
H299 H 0.71405 0.90169 0.76852 0.0
H300 H 0.157 0.03715 0.75113 0.0
N301 N 0.14169 0.89422 0.75589 0.0
C302 C 0.16701 0.92364 0.75808 0.0
C303 C 0.21739 0.86449 0.76789 0.0
C304 C 0.21876 0.92453 0.76587 0.0
C305 C 0.16613 0.86484 0.76012 0.0
C306 C 0.24377 0.89447 0.77093 0.0
N307 N 0.09073 0.95155 0.74593 0.0
C308 C 0.06467 0.97964 0.73922 0.0
C309 C 0.16628 0.98392 0.75507 0.0
C310 C 0.14103 0.95306 0.75271 0.0
C311 C 0.13899 0.01297 0.7495 0.0
C312 C 0.0881 0.01078 0.74129 0.0
H313 H 0.28353 0.89411 0.77693 0.0
H314 H 0.28357 0.9564 0.77439 0.0
H315 H 0.23766 0.00833 0.765 0.0
O316 O 0.04604 0.91198 0.69921 0.0
O317 O 0.06766 0.92284 0.78522 0.0
O318 O 0.98885 0.94109 0.7989 0.0
O319 O 0.10518 0.87746 0.71079 0.0
O320 O 0.97765 0.91844 0.73228 0.0
O321 O 0.94443 0.93992 0.77285 0.0
O322 O 0.95423 0.87861 0.84311 0.0
O323 O 0.92992 0.86813 0.7579 0.0
O324 O 0.00817 0.85028 0.74245 0.0
O325 O 0.89533 0.91373 0.83276 0.0
O326 O 0.02024 0.87023 0.80963 0.0
O327 O 0.05372 0.85051 0.7684 0.0
C328 C 0.03863 0.94336 0.79935 0.0
C329 C 0.06813 0.8711 0.66639 0.0
C330 C 0.06936 0.86117 0.61608 0.0
C331 C 0.04571 0.83015 0.62081 0.0
C332 C 0.04439 0.84029 0.67048 0.0
C333 C 0.03297 0.82002 0.64778 0.0
C334 C 0.07992 0.88169 0.63925 0.0
C335 C 0.94911 0.93996 0.74549 0.0
C336 C 0.08151 0.8921 0.69034 0.0
C337 C 0.24387 0.95525 0.76835 0.0
C338 C 0.21772 0.98484 0.76299 0.0
C339 C 0.95823 0.84828 0.74277 0.0
C340 C 0.93373 0.91846 0.87702 0.0
C341 C 0.92919 0.92979 0.92702 0.0
C342 C 0.96152 0.95739 0.92303 0.0
C343 C 0.96636 0.94565 0.87371 0.0
C344 C 0.91546 0.91036 0.90367 0.0
C345 C 0.98013 0.96509 0.89655 0.0
C346 C 0.04875 0.84919 0.79568 0.0
C347 C 0.9192 0.89832 0.85274 0.0
H348 H 0.03807 0.81318 0.60381 0.0
H349 H 0.03542 0.83182 0.69127 0.0
H350 H 0.01498 0.7961 0.65113 0.0
H351 H 0.09743 0.90585 0.63635 0.0
H352 H 0.97202 0.97334 0.94028 0.0
H353 H 0.9809 0.95163 0.85338 0.0
H354 H 0.89114 0.88876 0.90617 0.0
H355 H 0.00512 0.98627 0.89373 0.0
Eu356 Eu 0.44895 0.61276 0.24342 0.0
C357 C 0.67899 0.63583 0.28571 0.0
N358 N 0.65038 0.60764 0.28694 0.0
C359 C 0.72271 0.57476 0.27475 0.0
C360 C 0.731 0.63445 0.27867 0.0
C361 C 0.67127 0.57732 0.28176 0.0
C362 C 0.75271 0.60343 0.27318 0.0
C363 C 0.68448 0.69596 0.28915 0.0
C364 C 0.65593 0.66629 0.29088 0.0
C365 C 0.73636 0.69462 0.28232 0.0
C366 C 0.75954 0.66397 0.2771 0.0
Eu367 Eu 0.56455 0.61462 0.29939 0.0
N368 N 0.60516 0.66699 0.29649 0.0
C369 C 0.65989 0.72616 0.29407 0.0
C370 C 0.58143 0.69623 0.30225 0.0
C371 C 0.60824 0.72626 0.30081 0.0
H372 H 0.64848 0.55503 0.28353 0.0
H373 H 0.5891 0.74945 0.30506 0.0
H374 H 0.3535 0.64901 0.27765 0.0
H375 H 0.46287 0.48617 0.20222 0.0
H376 H 0.54201 0.69661 0.30812 0.0
H377 H 0.68049 0.74949 0.29289 0.0
H378 H 0.48555 0.54528 0.20612 0.0
H379 H 0.73924 0.55067 0.27069 0.0
H380 H 0.75885 0.71717 0.28087 0.0
H381 H 0.79954 0.66339 0.27173 0.0
H382 H 0.27049 0.63342 0.29829 0.0
H383 H 0.79255 0.60135 0.26772 0.0
H384 H 0.3867 0.46456 0.22657 0.0
N385 N 0.3698 0.60015 0.26389 0.0
C386 C 0.35332 0.56822 0.26135 0.0
C387 C 0.29354 0.61483 0.2881 0.0
C388 C 0.3064 0.55819 0.27289 0.0
C389 C 0.34053 0.62358 0.27656 0.0
C390 C 0.27649 0.58197 0.28639 0.0
N391 N 0.4288 0.55597 0.23625 0.0
C392 C 0.45503 0.53567 0.21869 0.0
C393 C 0.36789 0.51212 0.24483 0.0
C394 C 0.38412 0.54541 0.24767 0.0
C395 C 0.39783 0.49031 0.22924 0.0
C396 C 0.44103 0.50234 0.21563 0.0
H397 H 0.24017 0.57523 0.29548 0.0
H398 H 0.25526 0.51662 0.27971 0.0
H399 H 0.3089 0.47635 0.25503 0.0
O400 O 0.43941 0.6105 0.19747 0.0
O401 O 0.43765 0.59201 0.28758 0.0
O402 O 0.51494 0.56893 0.29712 0.0
O403 O 0.39006 0.64159 0.22299 0.0
O404 O 0.52579 0.59158 0.23074 0.0
O405 O 0.55772 0.56935 0.27157 0.0
O406 O 0.55449 0.62671 0.34345 0.0
O407 O 0.57918 0.64011 0.25796 0.0
O408 O 0.50129 0.65765 0.24126 0.0
O409 O 0.61275 0.592 0.33129 0.0
O410 O 0.49144 0.64178 0.31047 0.0
O411 O 0.45437 0.65927 0.26922 0.0
C412 C 0.46538 0.56912 0.29978 0.0
C413 C 0.37347 0.64315 0.17331 0.0
C414 C 0.3581 0.64432 0.12305 0.0
C415 C 0.32116 0.66891 0.12702 0.0
C416 C 0.33598 0.66767 0.17669 0.0
C417 C 0.31008 0.68038 0.1537 0.0
C418 C 0.38423 0.63126 0.14626 0.0
C419 C 0.55515 0.57039 0.24412 0.0
C420 C 0.40171 0.6314 0.19813 0.0
C421 C 0.29102 0.52485 0.27079 0.0
C422 C 0.3217 0.50188 0.25685 0.0
C423 C 0.55122 0.6592 0.24192 0.0
C424 C 0.57697 0.58545 0.37607 0.0
C425 C 0.58174 0.57456 0.42619 0.0
C426 C 0.55317 0.54528 0.42206 0.0
C427 C 0.54887 0.5562 0.37248 0.0
C428 C 0.59313 0.59469 0.40289 0.0
C429 C 0.53676 0.5363 0.39538 0.0
C430 C 0.46057 0.66129 0.29634 0.0
C431 C 0.58983 0.60647 0.35199 0.0
H432 H 0.30069 0.67916 0.10938 0.0
H433 H 0.32688 0.67734 0.19715 0.0
H434 H 0.28145 0.69932 0.15656 0.0
H435 H 0.413 0.61241 0.14321 0.0
H436 H 0.54435 0.5289 0.43934 0.0
H437 H 0.53684 0.5488 0.35191 0.0
H438 H 0.61437 0.61761 0.40553 0.0
H439 H 0.51511 0.51364 0.39241 0.0
H440 H 0.11503 0.87676 0.36868 0.0
H441 H 0.22189 0.93932 0.41211 0.0
H442 H 0.07935 0.92536 0.34509 0.0
H443 H 0.18676 0.98838 0.38848 0.0
H444 H 0.08173 0.07016 0.35195 0.0
H445 H 0.10955 0.02387 0.381 0.0
H446 H 0.11742 0.96135 0.30802 0.0
H447 H 0.08921 0.00763 0.27889 0.0
C448 C 0.12963 0.90122 0.37371 0.0
C449 C 0.17085 0.90466 0.39206 0.0
C450 C 0.10988 0.92889 0.36001 0.0
C451 C 0.13107 0.96053 0.36448 0.0
C452 C 0.16973 0.96427 0.38461 0.0
C453 C 0.18957 0.93642 0.39828 0.0
C454 C 0.08966 0.04657 0.34206 0.0
C455 C 0.08327 0.04249 0.31311 0.0
C456 C 0.10566 0.02012 0.35873 0.0
C457 C 0.11509 0.98894 0.34685 0.0
C458 C 0.10958 0.98501 0.31782 0.0
C459 C 0.09405 0.01157 0.30109 0.0
H460 H 0.39636 0.63547 0.86907 0.0
H461 H 0.28959 0.57114 0.91071 0.0
H462 H 0.43316 0.5877 0.84496 0.0
H463 H 0.32587 0.52297 0.88662 0.0
H464 H 0.43115 0.44224 0.85092 0.0
H465 H 0.40262 0.4882 0.87975 0.0
H466 H 0.39876 0.55171 0.8071 0.0
H467 H 0.42798 0.50559 0.7781 0.0
C468 C 0.382 0.6108 0.87361 0.0
C469 C 0.34051 0.60666 0.89165 0.0
C470 C 0.40237 0.5836 0.85957 0.0
C471 C 0.38166 0.5517 0.86343 0.0
C472 C 0.34263 0.54726 0.8832 0.0
C473 C 0.32214 0.57462 0.89719 0.0
C474 C 0.42413 0.46598 0.84101 0.0
C475 C 0.43189 0.47033 0.81217 0.0
C476 C 0.40762 0.49227 0.85759 0.0
C477 C 0.39886 0.52362 0.84578 0.0
C478 C 0.406 0.52792 0.81688 0.0
C479 C 0.42216 0.50147 0.8002 0.0
H480 H 0.72476 0.56263 0.63136 0.0
H481 H 0.61747 0.62985 0.66831 0.0
H482 H 0.68163 0.51549 0.65378 0.0
H483 H 0.5735 0.58309 0.69055 0.0
H484 H 0.56527 0.50278 0.75819 0.0
H485 H 0.59819 0.54762 0.72935 0.0
H486 H 0.60422 0.48128 0.65867 0.0
H487 H 0.57271 0.4359 0.68802 0.0
C488 C 0.69087 0.56701 0.64362 0.0
C489 C 0.67438 0.59954 0.64846 0.0
C490 C 0.66624 0.54019 0.6565 0.0
C491 C 0.62468 0.54562 0.67439 0.0
C492 C 0.60611 0.57814 0.67744 0.0
C493 C 0.63082 0.60484 0.6646 0.0
C494 C 0.57408 0.49763 0.73661 0.0
C495 C 0.56706 0.4657 0.72553 0.0
C496 C 0.59221 0.52349 0.71991 0.0
C497 C 0.60352 0.51811 0.69161 0.0
C498 C 0.59613 0.48619 0.68041 0.0
C499 C 0.57787 0.46026 0.69719 0.0
H500 H 0.78595 0.94537 0.1322 0.0
H501 H 0.89239 0.87762 0.16952 0.0
H502 H 0.8302 0.99233 0.15406 0.0
H503 H 0.93786 0.92424 0.19101 0.0
H504 H 0.95166 0.00567 0.25714 0.0
H505 H 0.91749 0.96044 0.22922 0.0
H506 H 0.9064 0.02624 0.15817 0.0
H507 H 0.93854 0.07201 0.1867 0.0
C508 C 0.81989 0.94083 0.14443 0.0
C509 C 0.83585 0.90823 0.14951 0.0
C510 C 0.84522 0.96756 0.15697 0.0
C511 C 0.88709 0.962 0.17471 0.0
C512 C 0.90502 0.92934 0.17805 0.0
C513 C 0.87948 0.90271 0.16562 0.0
C514 C 0.94142 0.01059 0.23568 0.0
C515 C 0.94695 0.04252 0.2243 0.0
C516 C 0.92261 0.98451 0.21948 0.0
C517 C 0.90939 0.98963 0.19136 0.0
C518 C 0.91578 0.0215 0.17981 0.0
C519 C 0.93446 0.04767 0.19611 0.0
H520 H 0.78388 0.06906 0.62977 0.0
H521 H 0.89294 0.13093 0.67222 0.0
H522 H 0.81879 0.01977 0.65325 0.0
H523 H 0.92814 0.08216 0.69576 0.0
H524 H 0.91702 1.0011 0.7627 0.0
H525 H 0.88704 0.04673 0.73334 0.0
H526 H 0.89798 0.98407 0.66059 0.0
H527 H 0.92791 0.93845 0.68986 0.0
C528 C 0.81673 0.07174 0.64324 0.0
C529 C 0.83618 0.10339 0.64924 0.0
C530 C 0.83635 0.04377 0.65689 0.0
C531 C 0.87536 0.04735 0.67681 0.0
C532 C 0.89736 0.0788 0.68096 0.0
C533 C 0.87795 0.10655 0.66724 0.0
C534 C 0.9123 0.99694 0.74053 0.0
C535 C 0.92491 0.96628 0.72859 0.0
C536 C 0.89577 0.02313 0.72367 0.0
C537 C 0.89096 0.01902 0.69463 0.0
C538 C 0.90149 0.98793 0.68287 0.0
C539 C 0.91863 0.96189 0.69966 0.0
H540 H 0.72631 0.44204 0.13118 0.0
H541 H 0.6186 0.37904 0.17344 0.0
H542 H 0.68951 0.49101 0.15393 0.0
H543 H 0.58075 0.42757 0.19588 0.0
H544 H 0.58299 0.5728 0.18935 0.0
H545 H 0.61411 0.52703 0.16065 0.0
H546 H 0.61478 0.46317 0.23315 0.0
H547 H 0.58284 0.50861 0.26163 0.0
C548 C 0.69336 0.43905 0.1445 0.0
C549 C 0.67484 0.40721 0.15067 0.0
C550 C 0.67253 0.46686 0.15766 0.0
C551 C 0.63298 0.46301 0.17718 0.0
C552 C 0.61199 0.43123 0.18148 0.0
C553 C 0.63291 0.40358 0.16839 0.0
C554 C 0.59024 0.54901 0.19914 0.0
C555 C 0.58025 0.54417 0.22768 0.0
C556 C 0.60803 0.52286 0.18272 0.0
C557 C 0.616 0.49136 0.19453 0.0
C558 C 0.60784 0.48696 0.2233 0.0
C559 C 0.59027 0.5131 0.23972 0.0
H560 H 0.37422 0.3798 0.36948 0.0
H561 H 0.28021 0.4485 0.41447 0.0
H562 H 0.41639 0.42535 0.3459 0.0
H563 H 0.32533 0.49526 0.39266 0.0
H564 H 0.36995 0.56837 0.3232 0.0
H565 H 0.3312 0.5241 0.35085 0.0
H566 H 0.47115 0.46818 0.34548 0.0
H567 H 0.50662 0.51018 0.31518 0.0
C568 C 0.36401 0.405 0.37496 0.0
C569 C 0.32404 0.41079 0.39355 0.0
C570 C 0.38836 0.43133 0.36158 0.0
C571 C 0.37437 0.46443 0.36705 0.0
C572 C 0.3365 0.47022 0.38731 0.0
C573 C 0.31131 0.44357 0.40031 0.0
C574 C 0.39174 0.54617 0.32742 0.0
C575 C 0.44116 0.5427 0.31678 0.0
C576 C 0.37001 0.52102 0.34385 0.0
C577 C 0.39778 0.4922 0.35063 0.0
C578 C 0.44767 0.48933 0.34031 0.0
C579 C 0.46848 0.51378 0.32313 0.0
H580 H 0.11985 0.12944 0.88277 0.0
H581 H 0.24017 0.06233 0.90456 0.0
H582 H 0.07626 0.0854 0.85759 0.0
H583 H 0.1945 0.01665 0.88252 0.0
H584 H 0.13887 0.95 0.81408 0.0
H585 H 0.1781 0.9938 0.84116 0.0
H586 H 0.03054 0.03953 0.85206 0.0
H587 H 0.99327 0.99827 0.82161 0.0
C588 C 0.13537 0.10457 0.88333 0.0
C589 C 0.18246 0.0989 0.89607 0.0
C590 C 0.11054 0.07909 0.86886 0.0
C591 C 0.13167 0.04695 0.86743 0.0
C592 C 0.17736 0.04102 0.88211 0.0
C593 C 0.20302 0.06691 0.89562 0.0
C594 C 0.11506 0.96983 0.82178 0.0
C595 C 0.0628 0.97039 0.81578 0.0
C596 C 0.1374 0.99478 0.83802 0.0
C597 C 0.10779 0.02043 0.84965 0.0
C598 C 0.05538 0.02088 0.8434 0.0
C599 C 0.03357 0.99674 0.82616 0.0
H600 H 0.23178 0.08061 0.95135 0.0
H601 H 0.15835 0.17468 0.96443 0.0
H602 H 0.20346 0.06169 0.99715 0.0
H603 H 0.1312 0.15636 1.01102 0.0
H604 H 0.16404 0.12199 0.10424 0.0
H605 H 0.17557 0.14256 0.05657 0.0
H606 H 0.12497 0.048 0.02425 0.0
H607 H 0.11266 0.02764 0.07165 0.0
C608 C 0.20826 0.09684 0.96372 0.0
C609 C 0.19651 0.12883 0.95418 0.0
C610 C 0.1924 0.0862 0.99011 0.0
C611 C 0.16502 0.10752 1.00777 0.0
C612 C 0.15253 0.13943 0.99801 0.0
C613 C 0.16786 0.14987 0.9714 0.0
C614 C 0.15435 0.10583 0.08698 0.0
C615 C 0.13828 0.07294 0.09185 0.0
C616 C 0.16101 0.11761 0.05965 0.0
C617 C 0.15189 0.09672 0.03663 0.0
C618 C 0.13334 0.06448 0.04152 0.0
C619 C 0.12641 0.05281 0.06873 0.0
H620 H 0.22596 0.41236 0.45964 0.0
H621 H 0.37149 0.36484 0.45274 0.0
H622 H 0.24553 0.42869 0.50752 0.0
H623 H 0.39243 0.38142 0.50079 0.0
H624 H 0.36986 0.37422 0.59775 0.0
H625 H 0.36519 0.36569 0.5473 0.0
H626 H 0.29612 0.46227 0.53773 0.0
H627 H 0.2996 0.47021 0.5881 0.0
C628 C 0.2629 0.40644 0.46831 0.0
C629 C 0.29761 0.38797 0.4527 0.0
C630 C 0.27429 0.4157 0.49569 0.0
C631 C 0.32066 0.40639 0.50815 0.0
C632 C 0.35624 0.38879 0.49198 0.0
C633 C 0.34474 0.37967 0.46445 0.0
C634 C 0.35439 0.39376 0.58476 0.0
C635 C 0.33439 0.42266 0.59688 0.0
C636 C 0.35187 0.38898 0.55582 0.0
C637 C 0.32969 0.41314 0.53838 0.0
C638 C 0.31233 0.4428 0.55051 0.0
C639 C 0.3144 0.4474 0.57938 0.0
H640 H 0.75039 0.39757 0.07578 0.0
H641 H 0.61476 0.35002 0.10629 0.0
H642 H 0.71173 0.40322 0.02949 0.0
H643 H 0.57632 0.35359 0.05999 0.0
H644 H 0.50736 0.37486 0.97665 0.0
H645 H 0.5414 0.38391 0.02341 0.0
H646 H 0.69366 0.36845 0.99194 0.0
H647 H 0.65936 0.36119 0.9451 0.0
C648 C 0.71175 0.389 0.07248 0.0
C649 C 0.68499 0.37377 0.09425 0.0
C650 C 0.68979 0.39168 0.04599 0.0
C651 C 0.64099 0.37846 0.04071 0.0
C652 C 0.61355 0.36455 0.06315 0.0
C653 C 0.63534 0.3624 0.08969 0.0
C654 C 0.54812 0.37364 0.97985 0.0
C655 C 0.58076 0.36709 0.95741 0.0
C656 C 0.56771 0.3787 1.00664 0.0
C657 C 0.62039 0.3767 1.01171 0.0
C658 C 0.65302 0.37081 0.98895 0.0
C659 C 0.63343 0.36636 0.96208 0.0
H660 H 0.74705 0.13307 0.57125 0.0
H661 H 0.89793 0.13677 0.60607 0.0
H662 H 0.78234 0.1284 0.52452 0.0
H663 H 0.93425 0.13023 0.55935 0.0
H664 H 0.97235 0.17575 0.47306 0.0
H665 H 0.9441 0.16563 0.5205 0.0
H666 H 0.82641 0.0999 0.48967 0.0
H667 H 0.85245 0.11193 0.44206 0.0
C668 C 0.78794 0.13186 0.56879 0.0
C669 C 0.81985 0.13566 0.59203 0.0
C670 C 0.80835 0.12893 0.54204 0.0
C671 C 0.86137 0.12937 0.53793 0.0
C672 C 0.89328 0.13054 0.5616 0.0
C673 C 0.87266 0.13377 0.5884 0.0
C674 C 0.9403 0.15922 0.47634 0.0
C675 C 0.9142 0.14519 0.45356 0.0
C676 C 0.92458 0.15291 0.5037 0.0
C677 C 0.88259 0.13209 0.50911 0.0
C678 C 0.8583 0.11655 0.48638 0.0
C679 C 0.87371 0.12314 0.45899 0.0
H680 H 0.8872 0.86826 0.10056 0.0
H681 H 0.74054 0.90416 0.07484 0.0
H682 H 0.92229 0.88216 0.05471 0.0
H683 H 0.77517 0.91939 0.02922 0.0
H684 H 0.83472 0.90604 0.94146 0.0
H685 H 0.80279 0.89342 0.98783 0.0
H686 H 0.94624 0.92474 0.02354 0.0
H687 H 0.97942 0.935 0.97706 0.0
C688 C 0.86298 0.87989 0.08512 0.0
C689 C 0.81144 0.88515 0.09085 0.0
C690 C 0.88284 0.88788 0.0589 0.0
C691 C 0.85146 0.90162 0.03805 0.0
C692 C 0.8002 0.90811 0.04445 0.0
C693 C 0.78037 0.89977 0.07056 0.0
C694 C 0.8598 0.90973 0.95913 0.0
C695 C 0.90968 0.92166 0.9554 0.0
C696 C 0.84116 0.90302 0.98585 0.0
C697 C 0.87168 0.90839 1.00958 0.0
C698 C 0.92169 0.92006 1.00582 0.0
C699 C 0.94052 0.92641 0.97909 0.0
H700 H 0.62211 0.63735 0.5998 0.0
H701 H 0.77045 0.60559 0.57336 0.0
H702 H 0.58694 0.62253 0.55411 0.0
H703 H 0.73587 0.58978 0.52786 0.0
H704 H 0.67374 0.60218 0.44042 0.0
H705 H 0.70533 0.61574 0.48669 0.0
H706 H 0.56564 0.57877 0.52289 0.0
H707 H 0.53273 0.56714 0.47642 0.0
C708 C 0.64679 0.62651 0.58424 0.0
C709 C 0.6988 0.62271 0.58974 0.0
C710 C 0.62687 0.61801 0.55811 0.0
C711 C 0.65866 0.60529 0.53708 0.0
C712 C 0.71047 0.60027 0.54323 0.0
C713 C 0.7303 0.60902 0.56927 0.0
C714 C 0.64935 0.59742 0.45817 0.0
C715 C 0.60063 0.58349 0.45457 0.0
C716 C 0.66784 0.60471 0.48483 0.0
C717 C 0.63834 0.59801 0.50867 0.0
C718 C 0.58938 0.58445 0.50506 0.0
C719 C 0.57072 0.57738 0.47837 0.0
H720 H 0.24301 0.61749 0.96511 0.0
H721 H 0.39616 0.64423 0.94268 0.0
H722 H 0.26985 0.60762 1.01318 0.0
H723 H 0.42403 0.63418 0.99094 0.0
H724 H 0.41043 0.67724 0.08302 0.0
H725 H 0.40607 0.66731 0.03287 0.0
H726 H 0.32019 0.57728 0.04781 0.0
H727 H 0.32455 0.58766 0.09816 0.0
C728 C 0.28288 0.62004 0.97046 0.0
C729 C 0.31762 0.63157 0.9505 0.0
C730 C 0.29843 0.61433 0.99791 0.0
C731 C 0.34912 0.62032 1.00602 0.0
C732 C 0.38466 0.6296 0.98543 0.0
C733 C 0.36899 0.63506 0.95783 0.0
C734 C 0.39242 0.65469 0.07553 0.0
C735 C 0.3681 0.63309 0.09427 0.0
C736 C 0.3899 0.64891 0.04681 0.0
C737 C 0.36235 0.62163 0.03625 0.0
C738 C 0.34128 0.59868 0.05526 0.0
C739 C 0.34415 0.60438 0.08404 0.0
H740 H 0.10941 0.8772 0.43536 0.0
H741 H 0.25886 0.87655 0.47215 0.0
H742 H 0.07189 0.88703 0.48116 0.0
H743 H 0.22213 0.88304 0.51817 0.0
H744 H 0.15288 0.89815 0.60003 0.0
H745 H 0.18185 0.91017 0.5532 0.0
H746 H 0.05327 0.8558 0.51972 0.0
H747 H 0.02135 0.84716 0.5664 0.0
C748 C 0.13422 0.87976 0.45327 0.0
C749 C 0.18687 0.87564 0.45044 0.0
C750 C 0.11279 0.88475 0.47966 0.0
C751 C 0.14359 0.88499 0.50379 0.0
C752 C 0.19674 0.88326 0.50039 0.0
C753 C 0.21803 0.8791 0.474 0.0
C754 C 0.12976 0.88965 0.58274 0.0
C755 C 0.08498 0.87114 0.58729 0.0
C756 C 0.147 0.89607 0.55567 0.0
C757 C 0.12075 0.88342 0.53233 0.0
C758 C 0.07469 0.86628 0.53689 0.0
C759 C 0.0568 0.86061 0.56392 0.0
H760 H 0.14645 0.3191 0.40761 0.0
H761 H 0.28076 0.29442 0.36082 0.0
H762 H 0.09929 0.27445 0.38392 0.0
H763 H 0.23431 0.24998 0.33705 0.0
H764 H 0.11903 0.20709 0.27551 0.0
H765 H 0.16566 0.2485 0.30227 0.0
H766 H 0.09422 0.21283 0.37778 0.0
H767 H 0.04887 0.17042 0.35057 0.0
C768 C 0.16587 0.3037 0.39254 0.0
C769 C 0.21685 0.31012 0.38574 0.0
C770 C 0.13909 0.27825 0.379 0.0
C771 C 0.16296 0.25897 0.35838 0.0
C772 C 0.21458 0.26481 0.35242 0.0
C773 C 0.24121 0.29008 0.366 0.0
C774 C 0.11422 0.20762 0.29779 0.0
C775 C 0.081 0.18538 0.31099 0.0
C776 C 0.14059 0.23149 0.31319 0.0
C777 C 0.134 0.23376 0.34222 0.0
C778 C 0.09984 0.21185 0.35543 0.0
C779 C 0.07371 0.18776 0.33991 0.0
H780 H 0.34688 0.16369 0.86693 0.0
H781 H 0.24715 0.23761 0.90132 0.0
H782 H 0.39376 0.20683 0.84183 0.0
H783 H 0.29547 0.28135 0.87759 0.0
H784 H 0.35339 0.34651 0.80712 0.0
H785 H 0.30842 0.30292 0.83214 0.0
H786 H 0.45072 0.25212 0.84635 0.0
H787 H 0.49515 0.29466 0.81952 0.0
C788 C 0.33547 0.18934 0.86926 0.0
C789 C 0.29337 0.19745 0.88581 0.0
C790 C 0.36254 0.21413 0.85515 0.0
C791 C 0.34834 0.24769 0.8575 0.0
C792 C 0.30698 0.25577 0.87484 0.0
C793 C 0.2797 0.23088 0.88876 0.0
C794 C 0.375 0.32574 0.81509 0.0
C795 C 0.42785 0.32399 0.81106 0.0
C796 C 0.34928 0.30096 0.82993 0.0
C797 C 0.37586 0.27399 0.84151 0.0
C798 C 0.4288 0.27225 0.83746 0.0
C799 C 0.4544 0.29681 0.82224 0.0
H800 H 0.66337 0.19673 0.63535 0.0
H801 H 0.78474 0.21298 0.69436 0.0
H802 H 0.61189 0.23882 0.65905 0.0
H803 H 0.73295 0.25425 0.71868 0.0
H804 H 0.59708 0.29504 0.77055 0.0
H805 H 0.64816 0.25336 0.74649 0.0
H806 H 0.61848 0.30193 0.66787 0.0
H807 H 0.5691 0.34425 0.69182 0.0
C808 C 0.67896 0.20951 0.6533 0.0
C809 C 0.72771 0.20172 0.66318 0.0
C810 C 0.64962 0.2334 0.66689 0.0
C811 C 0.66841 0.24952 0.69079 0.0
C812 C 0.71734 0.2418 0.70055 0.0
C813 C 0.74687 0.2183 0.68671 0.0
C814 C 0.60211 0.29714 0.74821 0.0
C815 C 0.5798 0.32334 0.73321 0.0
C816 C 0.63109 0.2732 0.73445 0.0
C817 C 0.63731 0.27458 0.70538 0.0
C818 C 0.61401 0.30023 0.69029 0.0
C819 C 0.5858 0.32445 0.70406 0.0
H820 H 0.72826 0.29822 0.1949 0.0
H821 H 0.84711 0.31289 0.13421 0.0
H822 H 0.77983 0.2561 0.21848 0.0
H823 H 0.89807 0.26969 0.15708 0.0
H824 H 0.93536 0.16234 0.1904 0.0
H825 H 0.88615 0.20521 0.16672 0.0
H826 H 0.86886 0.25761 0.24456 0.0
H827 H 0.91996 0.21544 0.26825 0.0
C828 C 0.76552 0.29238 0.18672 0.0
C829 C 0.78413 0.30883 0.16298 0.0
C830 C 0.79485 0.26835 0.20011 0.0
C831 C 0.84287 0.25992 0.18961 0.0
C832 C 0.86101 0.27576 0.16545 0.0
C833 C 0.83197 0.30025 0.15235 0.0
C834 C 0.92182 0.18325 0.20244 0.0
C835 C 0.93186 0.18562 0.23119 0.0
C836 C 0.89355 0.20768 0.18886 0.0
C837 C 0.87388 0.23456 0.20387 0.0
C838 C 0.88348 0.23692 0.23262 0.0
C839 C 0.91265 0.21283 0.24612 0.0
H840 H 0.84587 0.66026 0.67632 0.0
H841 H 0.74966 0.73404 0.63871 0.0
H842 H 0.89537 0.70392 0.69943 0.0
H843 H 0.8004 0.77817 0.66021 0.0
H844 H 0.85826 0.84586 0.7282 0.0
H845 H 0.81322 0.80197 0.70399 0.0
H846 H 0.95402 0.7479 0.69479 0.0
H847 H 0.99835 0.79078 0.72141 0.0
C848 C 0.83611 0.68603 0.67275 0.0
C849 C 0.79422 0.6941 0.656 0.0
C850 C 0.86451 0.71106 0.68573 0.0
C851 C 0.85183 0.74471 0.68188 0.0
C852 C 0.81072 0.75259 0.6642 0.0
C853 C 0.78198 0.7275 0.65159 0.0
C854 C 0.87965 0.82449 0.72125 0.0
C855 C 0.93203 0.82193 0.72666 0.0
C856 C 0.85386 0.79945 0.70692 0.0
C857 C 0.87992 0.77141 0.69704 0.0
C858 C 0.93251 0.76895 0.70227 0.0
C859 C 0.95817 0.79379 0.71716 0.0
H860 H 0.76333 0.77416 0.14059 0.0
H861 H 0.66232 0.8468 0.17558 0.0
H862 H 0.71274 0.72942 0.16147 0.0
H863 H 0.61239 0.80249 0.19771 0.0
H864 H 0.51015 0.7134 0.21554 0.0
H865 H 0.55547 0.7567 0.18976 0.0
H866 H 0.69785 0.70707 0.20648 0.0
H867 H 0.65255 0.6631 0.23048 0.0
C868 C 0.73001 0.7803 0.15276 0.0
C869 C 0.71633 0.81352 0.15667 0.0
C870 C 0.70131 0.7549 0.16493 0.0
C871 C 0.65865 0.76235 0.18148 0.0
C872 C 0.64457 0.7958 0.18485 0.0
C873 C 0.67314 0.82115 0.17244 0.0
C874 C 0.55106 0.71161 0.21341 0.0
C875 C 0.57777 0.68499 0.22538 0.0
C876 C 0.5771 0.73657 0.19887 0.0
C877 C 0.63035 0.73544 0.19607 0.0
C878 C 0.6568 0.70857 0.20781 0.0
C879 C 0.6308 0.68354 0.22201 0.0
H880 H 0.22018 0.7902 0.35343 0.0
H881 H 0.34506 0.81464 0.40803 0.0
H882 H 0.27244 0.74835 0.33029 0.0
H883 H 0.39787 0.77267 0.38507 0.0
H884 H 0.4559 0.67103 0.35286 0.0
H885 H 0.40431 0.71146 0.37792 0.0
H886 H 0.34779 0.74948 0.29955 0.0
H887 H 0.39885 0.70918 0.27449 0.0
C888 C 0.25894 0.78644 0.36039 0.0
C889 C 0.27902 0.80554 0.38223 0.0
C890 C 0.28884 0.76266 0.3472 0.0
C891 C 0.33938 0.75748 0.35573 0.0
C892 C 0.35896 0.77599 0.37819 0.0
C893 C 0.32897 0.79991 0.3913 0.0
C894 C 0.43263 0.6881 0.34096 0.0
C895 C 0.43124 0.68668 0.31166 0.0
C896 C 0.40322 0.71129 0.35533 0.0
C897 C 0.37173 0.7334 0.34069 0.0
C898 C 0.37102 0.73235 0.31141 0.0
C899 C 0.40054 0.70934 0.29706 0.0
H900 H 0.16294 0.6949 0.90783 0.0
H901 H 0.28855 0.72145 0.85446 0.0
H902 H 0.11007 0.73724 0.88506 0.0
H903 H 0.23541 0.76273 0.83093 0.0
H904 H 0.10056 0.79598 0.77471 0.0
H905 H 0.15248 0.75619 0.80026 0.0
H906 H 0.11124 0.80294 0.87787 0.0
H907 H 0.06075 0.84386 0.85231 0.0
C908 C 0.17925 0.71009 0.89145 0.0
C909 C 0.22956 0.70496 0.88272 0.0
C910 C 0.14911 0.73411 0.87839 0.0
C911 C 0.16867 0.75293 0.85613 0.0
C912 C 0.2193 0.74821 0.84782 0.0
C913 C 0.24959 0.72466 0.86118 0.0
C914 C 0.10315 0.79824 0.79717 0.0
C915 C 0.07762 0.82373 0.81137 0.0
C916 C 0.13265 0.77531 0.81177 0.0
C917 C 0.13618 0.77681 0.84095 0.0
C918 C 0.10911 0.80136 0.85534 0.0
C919 C 0.08031 0.82476 0.84068 0.0
loop_
_geom_bond_atom_site_label_1
_geom_bond_atom_site_label_2
_geom_bond_distance
_geom_bond_site_symmetry_2
_ccdc_geom_bond_type
C0 N1 1.317 . S
C0 N2 1.348 . S
C0 C3 1.485 . S
N1 C0 1.317 . S
N1 N5 1.370 . S
N2 C0 1.348 . S
N2 C4 1.346 . S
C3 C0 1.485 . S
C3 H7 0.960 . S
C3 H8 0.961 . S
C3 H9 0.960 . S
C4 N2 1.346 . S
C4 N5 1.307 . S
C4 C6 1.486 . S
N5 N1 1.370 . S
N5 C4 1.307 . S
C6 C4 1.486 . S
C6 H10 0.960 . S
C6 H11 0.960 . S
C6 H12 0.959 . S
H7 C3 0.960 . S
H8 C3 0.961 . S
H9 C3 0.960 . S
H10 C6 0.960 . S
H11 C6 0.960 . S
H12 C6 0.959 . S
C13 N14 1.317 . S
C13 N15 1.348 . S
C13 C16 1.485 . S
N14 C13 1.317 . S
N14 N18 1.370 . S
N15 C13 1.348 . S
N15 C17 1.346 . S
C16 C13 1.485 . S
C16 H20 0.960 . S
C16 H21 0.961 . S
C16 H22 0.960 . S
C17 N15 1.346 . S
C17 N18 1.307 . S
C17 C19 1.486 . S
N18 N14 1.370 . S
N18 C17 1.307 . S
C19 C17 1.486 . S
C19 H23 0.960 . S
C19 H24 0.960 . S
C19 H25 0.959 . S
H20 C16 0.960 . S
H21 C16 0.961 . S
H22 C16 0.960 . S
H23 C19 0.960 . S
H24 C19 0.960 . S
H25 C19 0.959 . S
C26 N27 1.317 . S
C26 N28 1.348 . S
C26 C29 1.485 . S
N27 C26 1.317 . S
N27 N31 1.370 . S
N28 C26 1.348 . S
N28 C30 1.346 . S
C29 C26 1.485 . S
C29 H33 0.960 . S
C29 H34 0.961 . S
C29 H35 0.960 . S
C30 N28 1.346 . S
C30 N31 1.307 . S
C30 C32 1.486 . S
N31 N27 1.370 . S
N31 C30 1.307 . S
C32 C30 1.486 . S
C32 H36 0.960 . S
C32 H37 0.960 . S
C32 H38 0.959 . S
H33 C29 0.960 . S
H34 C29 0.961 . S
H35 C29 0.960 . S
H36 C32 0.960 . S
H37 C32 0.960 . S
H38 C32 0.959 . S
C39 N40 1.317 . S
C39 N41 1.348 . S
C39 C42 1.485 . S
N40 C39 1.317 . S
N40 N44 1.370 . S
N41 C39 1.348 . S
N41 C43 1.346 . S
C42 C39 1.485 . S
C42 H46 0.960 . S
C42 H47 0.961 . S
C42 H48 0.960 . S
C43 N41 1.346 . S
C43 N44 1.307 . S
C43 C45 1.486 . S
N44 N40 1.370 . S
N44 C43 1.307 . S
C45 C43 1.486 . S
C45 H49 0.960 . S
C45 H50 0.960 . S
C45 H51 0.959 . S
H46 C42 0.960 . S
H47 C42 0.961 . S
H48 C42 0.960 . S
H49 C45 0.960 . S
H50 C45 0.960 . S
H51 C45 0.959 . S
C52 N53 1.317 . S
C52 N54 1.348 . S
C52 C55 1.485 . S
N53 C52 1.317 . S
N53 N57 1.370 . S
N54 C52 1.348 . S
N54 C56 1.346 . S
C55 C52 1.485 . S
C55 H59 0.960 . S
C55 H60 0.961 . S
C55 H61 0.960 . S
C56 N54 1.346 . S
C56 N57 1.307 . S
C56 C58 1.486 . S
N57 N53 1.370 . S
N57 C56 1.307 . S
C58 C56 1.486 . S
C58 H62 0.960 . S
C58 H63 0.960 . S
C58 H64 0.959 . S
H59 C55 0.960 . S
H60 C55 0.961 . S
H61 C55 0.960 . S
H62 C58 0.960 . S
H63 C58 0.960 . S
H64 C58 0.959 . S
C65 N66 1.317 . S
C65 N67 1.348 . S
C65 C68 1.485 . S
N66 C65 1.317 . S
N66 N70 1.370 . S
N67 C65 1.348 . S
N67 C69 1.346 . S
C68 C65 1.485 . S
C68 H72 0.960 . S
C68 H73 0.961 . S
C68 H74 0.960 . S
C69 N67 1.346 . S
C69 N70 1.307 . S
C69 C71 1.486 . S
N70 N66 1.370 . S
N70 C69 1.307 . S
C71 C69 1.486 . S
C71 H75 0.960 . S
C71 H76 0.960 . S
C71 H77 0.959 . S
H72 C68 0.960 . S
H73 C68 0.961 . S
H74 C68 0.960 . S
H75 C71 0.960 . S
H76 C71 0.960 . S
H77 C71 0.959 . S
C78 N79 1.317 . S
C78 N80 1.348 . S
C78 C81 1.485 . S
N79 C78 1.317 . S
N79 N83 1.370 . S
N80 C78 1.348 . S
N80 C82 1.346 . S
C81 C78 1.485 . S
C81 H85 0.960 . S
C81 H86 0.961 . S
C81 H87 0.960 . S
C82 N80 1.346 . S
C82 N83 1.307 . S
C82 C84 1.486 . S
N83 N79 1.370 . S
N83 C82 1.307 . S
C84 C82 1.486 . S
C84 H88 0.960 . S
C84 H89 0.960 . S
C84 H90 0.959 . S
H85 C81 0.960 . S
H86 C81 0.961 . S
H87 C81 0.960 . S
H88 C84 0.960 . S
H89 C84 0.960 . S
H90 C84 0.959 . S
C91 N92 1.317 . S
C91 N93 1.348 . S
C91 C94 1.485 . S
N92 C91 1.317 . S
N92 N96 1.370 . S
N93 C91 1.348 . S
N93 C95 1.346 . S
C94 C91 1.485 . S
C94 H98 0.960 . S
C94 H99 0.961 . S
C94 H100 0.960 . S
C95 N93 1.346 . S
C95 N96 1.307 . S
C95 C97 1.486 . S
N96 N92 1.370 . S
N96 C95 1.307 . S
C97 C95 1.486 . S
C97 H101 0.960 . S
C97 H102 0.960 . S
C97 H103 0.959 . S
H98 C94 0.960 . S
H99 C94 0.961 . S
H100 C94 0.960 . S
H101 C97 0.960 . S
H102 C97 0.960 . S
H103 C97 0.959 . S
Eu104 N133 2.600 . S
Eu104 N139 2.562 . S
Eu104 O148 2.462 . S
Eu104 O149 2.373 . S
Eu104 O151 2.432 . S
Eu104 O152 2.291 1_455 S
Eu104 O156 2.327 1_455 S
Eu104 O159 2.372 . S
Eu104 C168 2.787 . S
C105 N106 1.365 . S
C105 C108 1.405 . S
C105 C112 1.448 . S
N106 C105 1.365 . S
N106 C109 1.319 . S
N106 Eu115 2.600 . S
C107 C109 1.397 . S
C107 C110 1.367 . S
C107 H127 0.931 . S
C108 C105 1.405 . S
C108 C110 1.403 . S
C108 C114 1.439 . S
C109 N106 1.319 . S
C109 C107 1.397 . S
C109 H120 0.930 . S
C110 C107 1.367 . S
C110 C108 1.403 . S
C110 H131 0.929 . S
C111 C112 1.430 . S
C111 C113 1.387 . S
C111 C117 1.404 1_545 S
C112 C105 1.448 . S
C112 C111 1.430 . S
C112 N116 1.351 . S
C113 C111 1.387 . S
C113 C114 1.374 . S
C113 H128 0.931 1_545 S
C114 C108 1.439 . S
C114 C113 1.374 . S
C114 H129 0.931 . S
Eu115 N106 2.600 . S
Eu115 N116 2.562 . S
Eu115 O150 2.335 1_655 S
Eu115 O153 2.372 . S
Eu115 O154 2.462 . S
Eu115 O155 2.373 . S
Eu115 O157 2.432 . S
Eu115 O158 2.291 1_655 S
Eu115 C179 2.787 . S
N116 C112 1.351 . S
N116 Eu115 2.562 . S
N116 C118 1.325 . S
C117 C111 1.404 1_565 S
C117 C119 1.366 . S
C117 H125 0.930 . S
C118 N116 1.325 . S
C118 C119 1.416 1_545 S
C118 H124 0.929 . S
C119 C117 1.366 . S
C119 C118 1.416 1_565 S
C119 H121 0.930 . S
H120 C109 0.930 . S
H121 C119 0.930 . S
H122 C137 0.930 . S
H123 C144 0.930 . S
H124 C118 0.929 . S
H125 C117 0.930 . S
H126 C140 0.929 . S
H127 C107 0.931 . S
H128 C113 0.931 1_565 S
H129 C114 0.931 . S
H130 C135 0.931 . S
H131 C110 0.929 . S
H132 C143 0.930 . S
N133 Eu104 2.600 . S
N133 C134 1.365 . S
N133 C137 1.319 . S
C134 N133 1.365 . S
C134 C136 1.405 . S
C134 C142 1.448 . S
C135 H130 0.931 . S
C135 C137 1.397 . S
C135 C138 1.367 . S
C136 C134 1.405 . S
C136 C138 1.403 . S
C136 C169 1.439 . S
C137 H122 0.930 . S
C137 N133 1.319 . S
C137 C135 1.397 . S
C138 C135 1.367 . S
C138 C136 1.403 . S
C138 H145 0.929 . S
N139 Eu104 2.562 . S
N139 C140 1.325 . S
N139 C142 1.351 . S
C140 H126 0.929 . S
C140 N139 1.325 . S
C140 C144 1.416 . S
C141 C142 1.430 . S
C141 C143 1.404 . S
C141 C170 1.387 . S
C142 C134 1.448 . S
C142 N139 1.351 . S
C142 C141 1.430 . S
C143 H132 0.930 . S
C143 C141 1.404 . S
C143 C144 1.366 . S
C144 H123 0.930 . S
C144 C140 1.416 . S
C144 C143 1.366 . S
H145 C138 0.929 . S
H146 C169 0.931 . S
H147 C170 0.931 . S
O148 Eu104 2.462 . S
O148 C168 1.252 . S
O149 Eu104 2.373 . S
O149 C160 1.249 . S
O150 Eu115 2.335 1_455 S
O150 C160 1.264 . S
O151 Eu104 2.432 . S
O151 C168 1.268 . S
O152 Eu104 2.291 1_655 S
O152 C167 1.255 . S
O153 Eu115 2.372 . S
O153 C167 1.257 . S
O154 Eu115 2.462 . S
O154 C179 1.252 . S
O155 Eu115 2.373 . S
O155 C171 1.249 . S
O156 Eu104 2.327 1_655 S
O156 C171 1.273 . S
O157 Eu115 2.432 . S
O157 C179 1.268 . S
O158 Eu115 2.291 1_455 S
O158 C178 1.255 . S
O159 Eu104 2.372 . S
O159 C178 1.257 . S
C160 O149 1.249 . S
C160 O150 1.264 . S
C161 C164 1.382 . S
C161 C166 1.390 . S
C161 C168 1.506 . S
C162 C163 1.398 . S
C162 C166 1.392 . S
C163 C162 1.398 . S
C163 C165 1.372 . S
C163 H180 0.931 . S
C164 C161 1.382 . S
C164 C165 1.390 . S
C164 H181 0.931 . S
C165 C163 1.372 . S
C165 C164 1.390 . S
C165 H182 0.929 . S
C166 C161 1.390 . S
C166 C162 1.392 . S
C166 H183 0.930 . S
C167 O152 1.255 . S
C167 O153 1.257 . S
C168 Eu104 2.787 . S
C168 O148 1.252 . S
C168 O151 1.268 . S
C168 C161 1.506 . S
C169 C136 1.439 . S
C169 H146 0.931 . S
C169 C170 1.374 . S
C170 C141 1.387 . S
C170 H147 0.931 . S
C170 C169 1.374 . S
C171 O155 1.249 . S
C171 O156 1.273 . S
C172 C175 1.382 . S
C172 C176 1.390 . S
C172 C179 1.506 . S
C173 C174 1.398 . S
C173 C176 1.392 . S
C174 C173 1.398 . S
C174 C177 1.372 . S
C174 H184 0.931 . S
C175 C172 1.382 . S
C175 C177 1.390 . S
C175 H185 0.931 . S
C176 C172 1.390 . S
C176 C173 1.392 . S
C176 H186 0.930 . S
C177 C174 1.372 . S
C177 C175 1.390 . S
C177 H187 0.929 . S
C178 O158 1.255 . S
C178 O159 1.257 . S
C179 Eu115 2.787 . S
C179 O154 1.252 . S
C179 O157 1.268 . S
C179 C172 1.506 . S
H180 C163 0.931 . S
H181 C164 0.931 . S
H182 C165 0.929 . S
H183 C166 0.930 . S
H184 C174 0.931 . S
H185 C175 0.931 . S
H186 C176 0.930 . S
H187 C177 0.929 . S
Eu188 N217 2.600 . S
Eu188 N223 2.562 . S
Eu188 O232 2.462 . S
Eu188 O233 2.373 . S
Eu188 O235 2.432 . S
Eu188 O236 2.291 . S
Eu188 O240 2.335 . S
Eu188 O243 2.372 . S
Eu188 C252 2.787 . S
C189 N190 1.365 . S
C189 C192 1.405 . S
C189 C196 1.448 . S
N190 C189 1.365 . S
N190 C193 1.319 . S
N190 Eu199 2.600 . S
C191 C193 1.397 . S
C191 C194 1.367 . S
C191 H211 0.931 . S
C192 C189 1.405 . S
C192 C194 1.403 . S
C192 C198 1.439 . S
C193 N190 1.319 . S
C193 C191 1.397 . S
C193 H204 0.930 . S
C194 C191 1.367 . S
C194 C192 1.403 . S
C194 H215 0.929 . S
C195 C196 1.430 . S
C195 C197 1.387 . S
C195 C201 1.404 . S
C196 C189 1.448 . S
C196 C195 1.430 . S
C196 N200 1.351 . S
C197 C195 1.387 . S
C197 C198 1.374 . S
C197 H212 0.931 . S
C198 C192 1.439 . S
C198 C197 1.374 . S
C198 H213 0.931 . S
Eu199 N190 2.600 . S
Eu199 N200 2.562 . S
Eu199 O234 2.335 . S
Eu199 O237 2.372 . S
Eu199 O238 2.462 . S
Eu199 O239 2.373 . S
Eu199 O241 2.432 . S
Eu199 O242 2.291 . S
Eu199 C263 2.787 . S
N200 C196 1.351 . S
N200 Eu199 2.562 . S
N200 C202 1.325 . S
C201 C195 1.404 . S
C201 C203 1.366 . S
C201 H209 0.930 . S
C202 N200 1.325 . S
C202 C203 1.416 . S
C202 H208 0.929 . S
C203 C201 1.366 . S
C203 C202 1.416 . S
C203 H205 0.930 . S
H204 C193 0.930 . S
H205 C203 0.930 . S
H206 C221 0.930 . S
H207 C228 0.930 . S
H208 C202 0.929 . S
H209 C201 0.930 . S
H210 C224 0.929 . S
H211 C191 0.931 . S
H212 C197 0.931 . S
H213 C198 0.931 . S
H214 C219 0.931 . S
H215 C194 0.929 . S
H216 C227 0.930 . S
N217 Eu188 2.600 . S
N217 C218 1.365 . S
N217 C221 1.319 . S
C218 N217 1.365 . S
C218 C220 1.405 . S
C218 C226 1.448 . S
C219 H214 0.931 . S
C219 C221 1.397 . S
C219 C222 1.367 . S
C220 C218 1.405 . S
C220 C222 1.403 . S
C220 C253 1.439 . S
C221 H206 0.930 . S
C221 N217 1.319 . S
C221 C219 1.397 . S
C222 C219 1.367 . S
C222 C220 1.403 . S
C222 H229 0.929 . S
N223 Eu188 2.562 . S
N223 C224 1.325 . S
N223 C226 1.351 . S
C224 H210 0.929 . S
C224 N223 1.325 . S
C224 C228 1.416 . S
C225 C226 1.430 . S
C225 C227 1.404 . S
C225 C254 1.387 . S
C226 C218 1.448 . S
C226 N223 1.351 . S
C226 C225 1.430 . S
C227 H216 0.930 . S
C227 C225 1.404 . S
C227 C228 1.366 . S
C228 H207 0.930 . S
C228 C224 1.416 . S
C228 C227 1.366 . S
H229 C222 0.929 . S
H230 C253 0.931 . S
H231 C254 0.931 . S
O232 Eu188 2.462 . S
O232 C252 1.252 . S
O233 Eu188 2.373 . S
O233 C244 1.249 . S
O234 Eu199 2.335 . S
O234 C244 1.264 . S
O235 Eu188 2.432 . S
O235 C252 1.268 . S
O236 Eu188 2.291 . S
O236 C251 1.255 . S
O237 Eu199 2.372 . S
O237 C251 1.257 . S
O238 Eu199 2.462 . S
O238 C263 1.252 . S
O239 Eu199 2.373 . S
O239 C255 1.249 . S
O240 Eu188 2.335 . S
O240 C255 1.264 . S
O241 Eu199 2.432 . S
O241 C263 1.268 . S
O242 Eu199 2.291 . S
O242 C262 1.255 . S
O243 Eu188 2.372 . S
O243 C262 1.257 . S
C244 O233 1.249 . S
C244 O234 1.264 . S
C245 C248 1.382 . S
C245 C250 1.390 . S
C245 C252 1.506 . S
C246 C247 1.398 . S
C246 C250 1.392 . S
C247 C246 1.398 . S
C247 C249 1.372 . S
C247 H264 0.931 . S
C248 C245 1.382 . S
C248 C249 1.390 . S
C248 H265 0.931 . S
C249 C247 1.372 . S
C249 C248 1.390 . S
C249 H266 0.929 . S
C250 C245 1.390 . S
C250 C246 1.392 . S
C250 H267 0.930 . S
C251 O236 1.255 . S
C251 O237 1.257 . S
C252 Eu188 2.787 . S
C252 O232 1.252 . S
C252 O235 1.268 . S
C252 C245 1.506 . S
C253 C220 1.439 . S
C253 H230 0.931 . S
C253 C254 1.374 . S
C254 C225 1.387 . S
C254 H231 0.931 . S
C254 C253 1.374 . S
C255 O239 1.249 . S
C255 O240 1.264 . S
C256 C259 1.382 . S
C256 C260 1.390 . S
C256 C263 1.506 . S
C257 C258 1.398 . S
C257 C260 1.392 . S
C258 C257 1.398 . S
C258 C261 1.372 . S
C258 H268 0.931 . S
C259 C256 1.382 . S
C259 C261 1.390 . S
C259 H269 0.931 . S
C260 C256 1.390 . S
C260 C257 1.392 . S
C260 H270 0.930 . S
C261 C258 1.372 . S
C261 C259 1.390 . S
C261 H271 0.929 . S
C262 O242 1.255 . S
C262 O243 1.257 . S
C263 Eu199 2.787 . S
C263 O238 1.252 . S
C263 O241 1.268 . S
C263 C256 1.506 . S
H264 C247 0.931 . S
H265 C248 0.931 . S
H266 C249 0.929 . S
H267 C250 0.930 . S
H268 C258 0.931 . S
H269 C259 0.931 . S
H270 C260 0.930 . S
H271 C261 0.929 . S
Eu272 N301 2.600 . S
Eu272 N307 2.562 . S
Eu272 O316 2.462 . S
Eu272 O317 2.373 . S
Eu272 O319 2.432 . S
Eu272 O320 2.309 . S
Eu272 O324 2.335 . S
Eu272 O327 2.372 . S
Eu272 C336 2.787 . S
C273 N274 1.365 . S
C273 C276 1.405 . S
C273 C280 1.448 . S
N274 C273 1.365 . S
N274 C277 1.319 . S
N274 Eu283 2.600 . S
C275 C277 1.397 . S
C275 C278 1.367 . S
C275 H295 0.931 . S
C276 C273 1.405 . S
C276 C278 1.403 . S
C276 C282 1.439 . S
C277 N274 1.319 . S
C277 C275 1.397 . S
C277 H288 0.930 . S
C278 C275 1.367 . S
C278 C276 1.403 . S
C278 H299 0.929 . S
C279 C280 1.430 . S
C279 C281 1.387 . S
C279 C285 1.404 . S
C280 C273 1.448 . S
C280 C279 1.430 . S
C280 N284 1.351 . S
C281 C279 1.387 . S
C281 C282 1.374 . S
C281 H296 0.931 . S
C282 C276 1.439 . S
C282 C281 1.374 . S
C282 H297 0.931 . S
Eu283 N274 2.600 . S
Eu283 N284 2.562 . S
Eu283 O318 2.335 1_655 S
Eu283 O321 2.372 . S
Eu283 O322 2.462 . S
Eu283 O323 2.373 . S
Eu283 O325 2.432 . S
Eu283 O326 2.291 1_655 S
Eu283 C347 2.787 . S
N284 C280 1.351 . S
N284 Eu283 2.562 . S
N284 C286 1.325 . S
C285 C279 1.404 . S
C285 C287 1.366 . S
C285 H293 0.930 . S
C286 N284 1.325 . S
C286 C287 1.416 . S
C286 H292 0.929 . S
C287 C285 1.366 . S
C287 C286 1.416 . S
C287 H289 0.930 . S
H288 C277 0.930 . S
H289 C287 0.930 . S
H290 C305 0.930 . S
H291 C312 0.930 . S
H292 C286 0.929 . S
H293 C285 0.930 . S
H294 C308 0.929 . S
H295 C275 0.931 . S
H296 C281 0.931 . S
H297 C282 0.931 . S
H298 C303 0.931 . S
H299 C278 0.929 . S
H300 C311 0.930 . S
N301 Eu272 2.600 . S
N301 C302 1.365 . S
N301 C305 1.319 . S
C302 N301 1.365 . S
C302 C304 1.405 . S
C302 C310 1.448 . S
C303 H298 0.931 . S
C303 C305 1.397 . S
C303 C306 1.367 . S
C304 C302 1.405 . S
C304 C306 1.403 . S
C304 C337 1.439 . S
C305 H290 0.930 . S
C305 N301 1.319 . S
C305 C303 1.397 . S
C306 C303 1.367 . S
C306 C304 1.403 . S
C306 H313 0.929 . S
N307 Eu272 2.562 . S
N307 C308 1.325 . S
N307 C310 1.351 . S
C308 H294 0.929 . S
C308 N307 1.325 . S
C308 C312 1.416 1_565 S
C309 C310 1.430 . S
C309 C311 1.404 1_565 S
C309 C338 1.387 . S
C310 C302 1.448 . S
C310 N307 1.351 . S
C310 C309 1.430 . S
C311 H300 0.930 . S
C311 C309 1.404 1_545 S
C311 C312 1.366 . S
C312 H291 0.930 . S
C312 C308 1.416 1_545 S
C312 C311 1.366 . S
H313 C306 0.929 . S
H314 C337 0.931 . S
H315 C338 0.931 1_545 S
O316 Eu272 2.462 . S
O316 C336 1.252 . S
O317 Eu272 2.373 . S
O317 C328 1.249 . S
O318 Eu283 2.335 1_455 S
O318 C328 1.264 . S
O319 Eu272 2.432 . S
O319 C336 1.268 . S
O320 Eu272 2.309 . S
O320 C335 1.234 1_455 S
O321 Eu283 2.372 . S
O321 C335 1.257 . S
O322 Eu283 2.462 . S
O322 C347 1.252 . S
O323 Eu283 2.373 . S
O323 C339 1.249 . S
O324 Eu272 2.335 . S
O324 C339 1.264 1_455 S
O325 Eu283 2.432 . S
O325 C347 1.268 . S
O326 Eu283 2.291 1_455 S
O326 C346 1.255 . S
O327 Eu272 2.372 . S
O327 C346 1.257 . S
C328 O317 1.249 . S
C328 O318 1.264 . S
C329 C332 1.382 . S
C329 C334 1.390 . S
C329 C336 1.506 . S
C330 C331 1.398 . S
C330 C334 1.392 . S
C331 C330 1.398 . S
C331 C333 1.372 . S
C331 H348 0.931 . S
C332 C329 1.382 . S
C332 C333 1.390 . S
C332 H349 0.931 . S
C333 C331 1.372 . S
C333 C332 1.390 . S
C333 H350 0.929 . S
C334 C329 1.390 . S
C334 C330 1.392 . S
C334 H351 0.930 . S
C335 O320 1.234 1_655 S
C335 O321 1.257 . S
C336 Eu272 2.787 . S
C336 O316 1.252 . S
C336 O319 1.268 . S
C336 C329 1.506 . S
C337 C304 1.439 . S
C337 H314 0.931 . S
C337 C338 1.374 . S
C338 C309 1.387 . S
C338 H315 0.931 1_565 S
C338 C337 1.374 . S
C339 O323 1.249 . S
C339 O324 1.264 1_655 S
C340 C343 1.382 . S
C340 C344 1.390 . S
C340 C347 1.506 . S
C341 C342 1.398 . S
C341 C344 1.392 . S
C342 C341 1.398 . S
C342 C345 1.372 . S
C342 H352 0.931 . S
C343 C340 1.382 . S
C343 C345 1.390 . S
C343 H353 0.931 . S
C344 C340 1.390 . S
C344 C341 1.392 . S
C344 H354 0.930 . S
C345 C342 1.372 . S
C345 C343 1.390 . S
C345 H355 0.929 . S
C346 O326 1.255 . S
C346 O327 1.257 . S
C347 Eu283 2.787 . S
C347 O322 1.252 . S
C347 O325 1.268 . S
C347 C340 1.506 . S
H348 C331 0.931 . S
H349 C332 0.931 . S
H350 C333 0.929 . S
H351 C334 0.930 . S
H352 C342 0.931 . S
H353 C343 0.931 . S
H354 C344 0.930 . S
H355 C345 0.929 . S
Eu356 N385 2.600 . S
Eu356 N391 2.562 . S
Eu356 O400 2.462 . S
Eu356 O401 2.373 . S
Eu356 O403 2.432 . S
Eu356 O404 2.291 . S
Eu356 O408 2.335 . S
Eu356 O411 2.372 . S
Eu356 C420 2.787 . S
C357 N358 1.365 . S
C357 C360 1.405 . S
C357 C364 1.448 . S
N358 C357 1.365 . S
N358 C361 1.319 . S
N358 Eu367 2.600 . S
C359 C361 1.397 . S
C359 C362 1.367 . S
C359 H379 0.931 . S
C360 C357 1.405 . S
C360 C362 1.403 . S
C360 C366 1.439 . S
C361 N358 1.319 . S
C361 C359 1.397 . S
C361 H372 0.930 . S
C362 C359 1.367 . S
C362 C360 1.403 . S
C362 H383 0.929 . S
C363 C364 1.430 . S
C363 C365 1.387 . S
C363 C369 1.404 . S
C364 C357 1.448 . S
C364 C363 1.430 . S
C364 N368 1.351 . S
C365 C363 1.387 . S
C365 C366 1.374 . S
C365 H380 0.931 . S
C366 C360 1.439 . S
C366 C365 1.374 . S
C366 H381 0.931 . S
Eu367 N358 2.600 . S
Eu367 N368 2.562 . S
Eu367 O402 2.335 . S
Eu367 O405 2.372 . S
Eu367 O406 2.462 . S
Eu367 O407 2.373 . S
Eu367 O409 2.432 . S
Eu367 O410 2.291 . S
Eu367 C431 2.787 . S
N368 C364 1.351 . S
N368 Eu367 2.562 . S
N368 C370 1.325 . S
C369 C363 1.404 . S
C369 C371 1.366 . S
C369 H377 0.930 . S
C370 N368 1.325 . S
C370 C371 1.416 . S
C370 H376 0.929 . S
C371 C369 1.366 . S
C371 C370 1.416 . S
C371 H373 0.930 . S
H372 C361 0.930 . S
H373 C371 0.930 . S
H374 C389 0.930 . S
H375 C396 0.930 . S
H376 C370 0.929 . S
H377 C369 0.930 . S
H378 C392 0.929 . S
H379 C359 0.931 . S
H380 C365 0.931 . S
H381 C366 0.931 . S
H382 C387 0.931 . S
H383 C362 0.929 . S
H384 C395 0.930 . S
N385 Eu356 2.600 . S
N385 C386 1.365 . S
N385 C389 1.319 . S
C386 N385 1.365 . S
C386 C388 1.405 . S
C386 C394 1.448 . S
C387 H382 0.931 . S
C387 C389 1.397 . S
C387 C390 1.367 . S
C388 C386 1.405 . S
C388 C390 1.403 . S
C388 C421 1.439 . S
C389 H374 0.930 . S
C389 N385 1.319 . S
C389 C387 1.397 . S
C390 C387 1.367 . S
C390 C388 1.403 . S
C390 H397 0.929 . S
N391 Eu356 2.562 . S
N391 C392 1.325 . S
N391 C394 1.351 . S
C392 H378 0.929 . S
C392 N391 1.325 . S
C392 C396 1.416 . S
C393 C394 1.430 . S
C393 C395 1.404 . S
C393 C422 1.387 . S
C394 C386 1.448 . S
C394 N391 1.351 . S
C394 C393 1.430 . S
C395 H384 0.930 . S
C395 C393 1.404 . S
C395 C396 1.366 . S
C396 H375 0.930 . S
C396 C392 1.416 . S
C396 C395 1.366 . S
H397 C390 0.929 . S
H398 C421 0.931 . S
H399 C422 0.931 . S
O400 Eu356 2.462 . S
O400 C420 1.252 . S
O401 Eu356 2.373 . S
O401 C412 1.249 . S
O402 Eu367 2.335 . S
O402 C412 1.264 . S
O403 Eu356 2.432 . S
O403 C420 1.268 . S
O404 Eu356 2.291 . S
O404 C419 1.255 . S
O405 Eu367 2.372 . S
O405 C419 1.257 . S
O406 Eu367 2.462 . S
O406 C431 1.252 . S
O407 Eu367 2.373 . S
O407 C423 1.249 . S
O408 Eu356 2.335 . S
O408 C423 1.264 . S
O409 Eu367 2.432 . S
O409 C431 1.268 . S
O410 Eu367 2.291 . S
O410 C430 1.255 . S
O411 Eu356 2.372 . S
O411 C430 1.257 . S
C412 O401 1.249 . S
C412 O402 1.264 . S
C413 C416 1.382 . S
C413 C418 1.390 . S
C413 C420 1.506 . S
C414 C415 1.398 . S
C414 C418 1.392 . S
C415 C414 1.398 . S
C415 C417 1.372 . S
C415 H432 0.931 . S
C416 C413 1.382 . S
C416 C417 1.390 . S
C416 H433 0.931 . S
C417 C415 1.372 . S
C417 C416 1.390 . S
C417 H434 0.929 . S
C418 C413 1.390 . S
C418 C414 1.392 . S
C418 H435 0.930 . S
C419 O404 1.255 . S
C419 O405 1.257 . S
C420 Eu356 2.787 . S
C420 O400 1.252 . S
C420 O403 1.268 . S
C420 C413 1.506 . S
C421 C388 1.439 . S
C421 H398 0.931 . S
C421 C422 1.374 . S
C422 C393 1.387 . S
C422 H399 0.931 . S
C422 C421 1.374 . S
C423 O407 1.249 . S
C423 O408 1.264 . S
C424 C427 1.382 . S
C424 C428 1.390 . S
C424 C431 1.506 . S
C425 C426 1.398 . S
C425 C428 1.392 . S
C426 C425 1.398 . S
C426 C429 1.372 . S
C426 H436 0.931 . S
C427 C424 1.382 . S
C427 C429 1.390 . S
C427 H437 0.931 . S
C428 C424 1.390 . S
C428 C425 1.392 . S
C428 H438 0.930 . S
C429 C426 1.372 . S
C429 C427 1.390 . S
C429 H439 0.929 . S
C430 O410 1.255 . S
C430 O411 1.257 . S
C431 Eu367 2.787 . S
C431 O406 1.252 . S
C431 O409 1.268 . S
C431 C424 1.506 . S
H432 C415 0.931 . S
H433 C416 0.931 . S
H434 C417 0.929 . S
H435 C418 0.930 . S
H436 C426 0.931 . S
H437 C427 0.931 . S
H438 C428 0.930 . S
H439 C429 0.929 . S
H440 C448 0.950 . S
H441 C453 0.950 . S
H442 C450 0.950 . S
H443 C452 0.950 . S
H444 C454 0.950 . S
H445 C456 0.950 . S
H446 C458 0.950 . S
H447 C459 0.950 . S
C448 H440 0.950 . S
C448 C449 1.386 . S
C448 C450 1.391 . S
C449 C448 1.386 . S
C449 C453 1.393 . S
C450 H442 0.950 . S
C450 C448 1.391 . S
C450 C451 1.400 . S
C451 C450 1.400 . S
C451 C452 1.398 . S
C451 C457 1.491 . S
C452 H443 0.950 . S
C452 C451 1.398 . S
C452 C453 1.391 . S
C453 H441 0.950 . S
C453 C449 1.393 . S
C453 C452 1.391 . S
C454 H444 0.950 . S
C454 C455 1.386 . S
C454 C456 1.391 . S
C455 C454 1.386 . S
C455 C459 1.393 . S
C456 H445 0.950 . S
C456 C454 1.391 . S
C456 C457 1.400 1_545 S
C457 C451 1.491 . S
C457 C456 1.400 1_565 S
C457 C458 1.398 . S
C458 H446 0.950 . S
C458 C457 1.398 . S
C458 C459 1.391 1_565 S
C459 H447 0.950 . S
C459 C455 1.393 . S
C459 C458 1.391 1_545 S
H460 C468 0.950 . S
H461 C473 0.950 . S
H462 C470 0.950 . S
H463 C472 0.950 . S
H464 C474 0.950 . S
H465 C476 0.950 . S
H466 C478 0.950 . S
H467 C479 0.950 . S
C468 H460 0.950 . S
C468 C469 1.386 . S
C468 C470 1.391 . S
C469 C468 1.386 . S
C469 C473 1.393 . S
C470 H462 0.950 . S
C470 C468 1.391 . S
C470 C471 1.400 . S
C471 C470 1.400 . S
C471 C472 1.398 . S
C471 C477 1.491 . S
C472 H463 0.950 . S
C472 C471 1.398 . S
C472 C473 1.391 . S
C473 H461 0.950 . S
C473 C469 1.393 . S
C473 C472 1.391 . S
C474 H464 0.950 . S
C474 C475 1.386 . S
C474 C476 1.391 . S
C475 C474 1.386 . S
C475 C479 1.393 . S
C476 H465 0.950 . S
C476 C474 1.391 . S
C476 C477 1.400 . S
C477 C471 1.491 . S
C477 C476 1.400 . S
C477 C478 1.398 . S
C478 H466 0.950 . S
C478 C477 1.398 . S
C478 C479 1.391 . S
C479 H467 0.950 . S
C479 C475 1.393 . S
C479 C478 1.391 . S
H480 C488 0.950 . S
H481 C493 0.950 . S
H482 C490 0.950 . S
H483 C492 0.950 . S
H484 C494 0.950 . S
H485 C496 0.950 . S
H486 C498 0.950 . S
H487 C499 0.950 . S
C488 H480 0.950 . S
C488 C489 1.386 . S
C488 C490 1.391 . S
C489 C488 1.386 . S
C489 C493 1.393 . S
C490 H482 0.950 . S
C490 C488 1.391 . S
C490 C491 1.400 . S
C491 C490 1.400 . S
C491 C492 1.398 . S
C491 C497 1.491 . S
C492 H483 0.950 . S
C492 C491 1.398 . S
C492 C493 1.391 . S
C493 H481 0.950 . S
C493 C489 1.393 . S
C493 C492 1.391 . S
C494 H484 0.950 . S
C494 C495 1.386 . S
C494 C496 1.391 . S
C495 C494 1.386 . S
C495 C499 1.393 . S
C496 H485 0.950 . S
C496 C494 1.391 . S
C496 C497 1.400 . S
C497 C491 1.491 . S
C497 C496 1.400 . S
C497 C498 1.398 . S
C498 H486 0.950 . S
C498 C497 1.398 . S
C498 C499 1.391 . S
C499 H487 0.950 . S
C499 C495 1.393 . S
C499 C498 1.391 . S
H500 C508 0.950 . S
H501 C513 0.950 . S
H502 C510 0.950 . S
H503 C512 0.950 . S
H504 C514 0.950 . S
H505 C516 0.950 . S
H506 C518 0.950 . S
H507 C519 0.950 . S
C508 H500 0.950 . S
C508 C509 1.386 . S
C508 C510 1.391 . S
C509 C508 1.386 . S
C509 C513 1.393 . S
C510 H502 0.950 . S
C510 C508 1.391 . S
C510 C511 1.400 . S
C511 C510 1.400 . S
C511 C512 1.398 . S
C511 C517 1.491 . S
C512 H503 0.950 . S
C512 C511 1.398 . S
C512 C513 1.391 . S
C513 H501 0.950 . S
C513 C509 1.393 . S
C513 C512 1.391 . S
C514 H504 0.950 . S
C514 C515 1.386 1_565 S
C514 C516 1.391 . S
C515 C514 1.386 1_545 S
C515 C519 1.393 . S
C516 H505 0.950 . S
C516 C514 1.391 . S
C516 C517 1.400 . S
C517 C511 1.491 . S
C517 C516 1.400 . S
C517 C518 1.398 1_565 S
C518 H506 0.950 . S
C518 C517 1.398 1_545 S
C518 C519 1.391 . S
C519 H507 0.950 . S
C519 C515 1.393 . S
C519 C518 1.391 . S
H520 C528 0.950 . S
H521 C533 0.950 . S
H522 C530 0.950 . S
H523 C532 0.950 . S
H524 C534 0.950 . S
H525 C536 0.950 . S
H526 C538 0.950 . S
H527 C539 0.950 . S
C528 H520 0.950 . S
C528 C529 1.386 . S
C528 C530 1.391 . S
C529 C528 1.386 . S
C529 C533 1.393 . S
C530 H522 0.950 . S
C530 C528 1.391 . S
C530 C531 1.400 . S
C531 C530 1.400 . S
C531 C532 1.398 . S
C531 C537 1.491 . S
C532 H523 0.950 . S
C532 C531 1.398 . S
C532 C533 1.391 . S
C533 H521 0.950 . S
C533 C529 1.393 . S
C533 C532 1.391 . S
C534 H524 0.950 . S
C534 C535 1.386 1_545 S
C534 C536 1.391 . S
C535 C534 1.386 1_565 S
C535 C539 1.393 . S
C536 H525 0.950 . S
C536 C534 1.391 . S
C536 C537 1.400 . S
C537 C531 1.491 . S
C537 C536 1.400 . S
C537 C538 1.398 1_545 S
C538 H526 0.950 . S
C538 C537 1.398 1_565 S
C538 C539 1.391 . S
C539 H527 0.950 . S
C539 C535 1.393 . S
C539 C538 1.391 . S
H540 C548 0.950 . S
H541 C553 0.950 . S
H542 C550 0.950 . S
H543 C552 0.950 . S
H544 C554 0.950 . S
H545 C556 0.950 . S
H546 C558 0.950 . S
H547 C559 0.950 . S
C548 H540 0.950 . S
C548 C549 1.386 . S
C548 C550 1.391 . S
C549 C548 1.386 . S
C549 C553 1.393 . S
C550 H542 0.950 . S
C550 C548 1.391 . S
C550 C551 1.400 . S
C551 C550 1.400 . S
C551 C552 1.398 . S
C551 C557 1.491 . S
C552 H543 0.950 . S
C552 C551 1.398 . S
C552 C553 1.391 . S
C553 H541 0.950 . S
C553 C549 1.393 . S
C553 C552 1.391 . S
C554 H544 0.950 . S
C554 C555 1.386 . S
C554 C556 1.391 . S
C555 C554 1.386 . S
C555 C559 1.393 . S
C556 H545 0.950 . S
C556 C554 1.391 . S
C556 C557 1.400 . S
C557 C551 1.491 . S
C557 C556 1.400 . S
C557 C558 1.398 . S
C558 H546 0.950 . S
C558 C557 1.398 . S
C558 C559 1.391 . S
C559 H547 0.950 . S
C559 C555 1.393 . S
C559 C558 1.391 . S
H560 C568 0.950 . S
H561 C573 0.950 . S
H562 C570 0.950 . S
H563 C572 0.950 . S
H564 C574 0.950 . S
H565 C576 0.950 . S
H566 C578 0.950 . S
H567 C579 0.950 . S
C568 H560 0.950 . S
C568 C569 1.386 . S
C568 C570 1.391 . S
C569 C568 1.386 . S
C569 C573 1.393 . S
C570 H562 0.950 . S
C570 C568 1.391 . S
C570 C571 1.400 . S
C571 C570 1.400 . S
C571 C572 1.398 . S
C571 C577 1.491 . S
C572 H563 0.950 . S
C572 C571 1.398 . S
C572 C573 1.391 . S
C573 H561 0.950 . S
C573 C569 1.393 . S
C573 C572 1.391 . S
C574 H564 0.950 . S
C574 C575 1.386 . S
C574 C576 1.391 . S
C575 C574 1.386 . S
C575 C579 1.393 . S
C576 H565 0.950 . S
C576 C574 1.391 . S
C576 C577 1.400 . S
C577 C571 1.491 . S
C577 C576 1.400 . S
C577 C578 1.398 . S
C578 H566 0.950 . S
C578 C577 1.398 . S
C578 C579 1.391 . S
C579 H567 0.950 . S
C579 C575 1.393 . S
C579 C578 1.391 . S
H580 C588 0.950 . S
H581 C593 0.950 . S
H582 C590 0.950 . S
H583 C592 0.950 . S
H584 C594 0.950 . S
H585 C596 0.950 . S
H586 C598 0.950 . S
H587 C599 0.950 . S
C588 H580 0.950 . S
C588 C589 1.386 . S
C588 C590 1.391 . S
C589 C588 1.386 . S
C589 C593 1.393 . S
C590 H582 0.950 . S
C590 C588 1.391 . S
C590 C591 1.400 . S
C591 C590 1.400 . S
C591 C592 1.398 . S
C591 C597 1.491 . S
C592 H583 0.950 . S
C592 C591 1.398 . S
C592 C593 1.391 . S
C593 H581 0.950 . S
C593 C589 1.393 . S
C593 C592 1.391 . S
C594 H584 0.950 . S
C594 C595 1.386 . S
C594 C596 1.391 . S
C595 C594 1.386 . S
C595 C599 1.388 1_565 S
C596 H585 0.950 . S
C596 C594 1.391 . S
C596 C597 1.400 1_565 S
C597 C591 1.491 . S
C597 C596 1.400 1_545 S
C597 C598 1.398 . S
C598 H586 0.950 . S
C598 C597 1.398 . S
C598 C599 1.395 . S
C599 H587 0.950 . S
C599 C595 1.388 1_545 S
C599 C598 1.395 . S
H600 C608 0.950 . S
H601 C613 0.950 . S
H602 C610 0.950 . S
H603 C612 0.950 . S
H604 C614 0.950 . S
H605 C616 0.950 . S
H606 C618 0.950 . S
H607 C619 0.950 . S
C608 H600 0.950 . S
C608 C609 1.386 . S
C608 C610 1.391 . S
C609 C608 1.386 . S
C609 C613 1.393 . S
C610 H602 0.950 . S
C610 C608 1.391 . S
C610 C611 1.400 . S
C611 C610 1.400 . S
C611 C612 1.398 . S
C611 C617 1.491 1_556 S
C612 H603 0.950 . S
C612 C611 1.398 . S
C612 C613 1.391 . S
C613 H601 0.950 . S
C613 C609 1.393 . S
C613 C612 1.391 . S
C614 H604 0.950 . S
C614 C615 1.386 . S
C614 C616 1.391 . S
C615 C614 1.386 . S
C615 C619 1.393 . S
C616 H605 0.950 . S
C616 C614 1.391 . S
C616 C617 1.400 . S
C617 C611 1.491 1_554 S
C617 C616 1.400 . S
C617 C618 1.398 . S
C618 H606 0.950 . S
C618 C617 1.398 . S
C618 C619 1.391 . S
C619 H607 0.950 . S
C619 C615 1.393 . S
C619 C618 1.391 . S
H620 C628 0.950 . S
H621 C633 0.950 . S
H622 C630 0.950 . S
H623 C632 0.950 . S
H624 C634 0.950 . S
H625 C636 0.950 . S
H626 C638 0.950 . S
H627 C639 0.950 . S
C628 H620 0.950 . S
C628 C629 1.386 . S
C628 C630 1.391 . S
C629 C628 1.386 . S
C629 C633 1.393 . S
C630 H622 0.950 . S
C630 C628 1.391 . S
C630 C631 1.400 . S
C631 C630 1.400 . S
C631 C632 1.398 . S
C631 C637 1.491 . S
C632 H623 0.950 . S
C632 C631 1.398 . S
C632 C633 1.391 . S
C633 H621 0.950 . S
C633 C629 1.393 . S
C633 C632 1.391 . S
C634 H624 0.950 . S
C634 C635 1.386 . S
C634 C636 1.391 . S
C635 C634 1.386 . S
C635 C639 1.393 . S
C636 H625 0.950 . S
C636 C634 1.391 . S
C636 C637 1.400 . S
C637 C631 1.491 . S
C637 C636 1.400 . S
C637 C638 1.398 . S
C638 H626 0.950 . S
C638 C637 1.398 . S
C638 C639 1.391 . S
C639 H627 0.950 . S
C639 C635 1.393 . S
C639 C638 1.391 . S
H640 C648 0.950 . S
H641 C653 0.950 . S
H642 C650 0.950 1_556 S
H643 C652 0.950 . S
H644 C654 0.950 . S
H645 C656 0.950 . S
H646 C658 0.950 . S
H647 C659 0.950 . S
C648 H640 0.950 . S
C648 C649 1.386 . S
C648 C650 1.391 . S
C649 C648 1.386 . S
C649 C653 1.393 . S
C650 H642 0.950 1_554 S
C650 C648 1.391 . S
C650 C651 1.400 . S
C651 C650 1.400 . S
C651 C652 1.398 . S
C651 C657 1.491 1_554 S
C652 H643 0.950 . S
C652 C651 1.398 . S
C652 C653 1.391 . S
C653 H641 0.950 . S
C653 C649 1.393 . S
C653 C652 1.391 . S
C654 H644 0.950 . S
C654 C655 1.386 . S
C654 C656 1.391 . S
C655 C654 1.386 . S
C655 C659 1.393 . S
C656 H645 0.950 . S
C656 C654 1.391 . S
C656 C657 1.400 . S
C657 C651 1.491 1_556 S
C657 C656 1.400 . S
C657 C658 1.398 . S
C658 H646 0.950 . S
C658 C657 1.398 . S
C658 C659 1.391 . S
C659 H647 0.950 . S
C659 C655 1.393 . S
C659 C658 1.391 . S
H660 C668 0.950 . S
H661 C673 0.950 . S
H662 C670 0.950 . S
H663 C672 0.950 . S
H664 C674 0.950 . S
H665 C676 0.950 . S
H666 C678 0.950 . S
H667 C679 0.950 . S
C668 H660 0.950 . S
C668 C669 1.386 . S
C668 C670 1.391 . S
C669 C668 1.386 . S
C669 C673 1.393 . S
C670 H662 0.950 . S
C670 C668 1.391 . S
C670 C671 1.400 . S
C671 C670 1.400 . S
C671 C672 1.398 . S
C671 C677 1.491 . S
C672 H663 0.950 . S
C672 C671 1.398 . S
C672 C673 1.391 . S
C673 H661 0.950 . S
C673 C669 1.393 . S
C673 C672 1.391 . S
C674 H664 0.950 . S
C674 C675 1.386 . S
C674 C676 1.391 . S
C675 C674 1.386 . S
C675 C679 1.393 . S
C676 H665 0.950 . S
C676 C674 1.391 . S
C676 C677 1.400 . S
C677 C671 1.491 . S
C677 C676 1.400 . S
C677 C678 1.398 . S
C678 H666 0.950 . S
C678 C677 1.398 . S
C678 C679 1.391 . S
C679 H667 0.950 . S
C679 C675 1.393 . S
C679 C678 1.391 . S
H680 C688 0.950 . S
H681 C693 0.950 . S
H682 C690 0.950 . S
H683 C692 0.950 1_556 S
H684 C694 0.950 . S
H685 C696 0.950 . S
H686 C698 0.950 . S
H687 C699 0.950 . S
C688 H680 0.950 . S
C688 C689 1.386 . S
C688 C690 1.391 . S
C689 C688 1.386 . S
C689 C693 1.393 . S
C690 H682 0.950 . S
C690 C688 1.391 . S
C690 C691 1.400 . S
C691 C690 1.400 . S
C691 C692 1.398 . S
C691 C697 1.491 1_554 S
C692 H683 0.950 1_554 S
C692 C691 1.398 . S
C692 C693 1.391 . S
C693 H681 0.950 . S
C693 C689 1.393 . S
C693 C692 1.391 . S
C694 H684 0.950 . S
C694 C695 1.386 . S
C694 C696 1.391 . S
C695 C694 1.386 . S
C695 C699 1.393 . S
C696 H685 0.950 . S
C696 C694 1.391 . S
C696 C697 1.400 . S
C697 C691 1.491 1_556 S
C697 C696 1.400 . S
C697 C698 1.398 . S
C698 H686 0.950 . S
C698 C697 1.398 . S
C698 C699 1.391 . S
C699 H687 0.950 . S
C699 C695 1.393 . S
C699 C698 1.391 . S
H700 C708 0.950 . S
H701 C713 0.950 . S
H702 C710 0.950 . S
H703 C712 0.950 . S
H704 C714 0.950 . S
H705 C716 0.950 . S
H706 C718 0.950 . S
H707 C719 0.950 . S
C708 H700 0.950 . S
C708 C709 1.386 . S
C708 C710 1.391 . S
C709 C708 1.386 . S
C709 C713 1.393 . S
C710 H702 0.950 . S
C710 C708 1.391 . S
C710 C711 1.400 . S
C711 C710 1.400 . S
C711 C712 1.398 . S
C711 C717 1.491 . S
C712 H703 0.950 . S
C712 C711 1.398 . S
C712 C713 1.391 . S
C713 H701 0.950 . S
C713 C709 1.393 . S
C713 C712 1.391 . S
C714 H704 0.950 . S
C714 C715 1.386 . S
C714 C716 1.391 . S
C715 C714 1.386 . S
C715 C719 1.393 . S
C716 H705 0.950 . S
C716 C714 1.391 . S
C716 C717 1.400 . S
C717 C711 1.491 . S
C717 C716 1.400 . S
C717 C718 1.398 . S
C718 H706 0.950 . S
C718 C717 1.398 . S
C718 C719 1.391 . S
C719 H707 0.950 . S
C719 C715 1.393 . S
C719 C718 1.391 . S
H720 C728 0.950 . S
H721 C733 0.950 . S
H722 C730 0.950 . S
H723 C732 0.950 . S
H724 C734 0.950 . S
H725 C736 0.950 . S
H726 C738 0.950 . S
H727 C739 0.950 . S
C728 H720 0.950 . S
C728 C729 1.386 . S
C728 C730 1.391 . S
C729 C728 1.386 . S
C729 C733 1.393 . S
C730 H722 0.950 . S
C730 C728 1.391 . S
C730 C731 1.400 . S
C731 C730 1.400 . S
C731 C732 1.398 . S
C731 C737 1.491 1_556 S
C732 H723 0.950 . S
C732 C731 1.398 . S
C732 C733 1.391 . S
C733 H721 0.950 . S
C733 C729 1.393 . S
C733 C732 1.391 . S
C734 H724 0.950 . S
C734 C735 1.386 . S
C734 C736 1.391 . S
C735 C734 1.386 . S
C735 C739 1.393 . S
C736 H725 0.950 . S
C736 C734 1.391 . S
C736 C737 1.400 . S
C737 C731 1.491 1_554 S
C737 C736 1.400 . S
C737 C738 1.398 . S
C738 H726 0.950 . S
C738 C737 1.398 . S
C738 C739 1.391 . S
C739 H727 0.950 . S
C739 C735 1.393 . S
C739 C738 1.391 . S
H740 C748 0.950 . S
H741 C753 0.950 . S
H742 C750 0.950 . S
H743 C752 0.950 . S
H744 C754 0.950 . S
H745 C756 0.950 . S
H746 C758 0.950 . S
H747 C759 0.950 . S
C748 H740 0.950 . S
C748 C749 1.386 . S
C748 C750 1.391 . S
C749 C748 1.386 . S
C749 C753 1.393 . S
C750 H742 0.950 . S
C750 C748 1.391 . S
C750 C751 1.400 . S
C751 C750 1.400 . S
C751 C752 1.398 . S
C751 C757 1.491 . S
C752 H743 0.950 . S
C752 C751 1.398 . S
C752 C753 1.391 . S
C753 H741 0.950 . S
C753 C749 1.393 . S
C753 C752 1.391 . S
C754 H744 0.950 . S
C754 C755 1.386 . S
C754 C756 1.391 . S
C755 C754 1.386 . S
C755 C759 1.393 . S
C756 H745 0.950 . S
C756 C754 1.391 . S
C756 C757 1.400 . S
C757 C751 1.491 . S
C757 C756 1.400 . S
C757 C758 1.398 . S
C758 H746 0.950 . S
C758 C757 1.398 . S
C758 C759 1.391 . S
C759 H747 0.950 . S
C759 C755 1.393 . S
C759 C758 1.391 . S
H760 C768 0.950 . S
H761 C773 0.950 . S
H762 C770 0.950 . S
H763 C772 0.950 . S
H764 C774 0.950 . S
H765 C776 0.950 . S
H766 C778 0.950 . S
H767 C779 0.950 . S
C768 H760 0.950 . S
C768 C769 1.386 . S
C768 C770 1.391 . S
C769 C768 1.386 . S
C769 C773 1.393 . S
C770 H762 0.950 . S
C770 C768 1.391 . S
C770 C771 1.400 . S
C771 C770 1.400 . S
C771 C772 1.398 . S
C771 C777 1.491 . S
C772 H763 0.950 . S
C772 C771 1.398 . S
C772 C773 1.391 . S
C773 H761 0.950 . S
C773 C769 1.393 . S
C773 C772 1.391 . S
C774 H764 0.950 . S
C774 C775 1.386 . S
C774 C776 1.391 . S
C775 C774 1.386 . S
C775 C779 1.393 . S
C776 H765 0.950 . S
C776 C774 1.391 . S
C776 C777 1.400 . S
C777 C771 1.491 . S
C777 C776 1.400 . S
C777 C778 1.398 . S
C778 H766 0.950 . S
C778 C777 1.398 . S
C778 C779 1.391 . S
C779 H767 0.950 . S
C779 C775 1.393 . S
C779 C778 1.391 . S
H780 C788 0.950 . S
H781 C793 0.950 . S
H782 C790 0.950 . S
H783 C792 0.950 . S
H784 C794 0.950 . S
H785 C796 0.950 . S
H786 C798 0.950 . S
H787 C799 0.950 . S
C788 H780 0.950 . S
C788 C789 1.386 . S
C788 C790 1.391 . S
C789 C788 1.386 . S
C789 C793 1.393 . S
C790 H782 0.950 . S
C790 C788 1.391 . S
C790 C791 1.400 . S
C791 C790 1.400 . S
C791 C792 1.398 . S
C791 C797 1.491 . S
C792 H783 0.950 . S
C792 C791 1.398 . S
C792 C793 1.391 . S
C793 H781 0.950 . S
C793 C789 1.393 . S
C793 C792 1.391 . S
C794 H784 0.950 . S
C794 C795 1.386 . S
C794 C796 1.391 . S
C795 C794 1.386 . S
C795 C799 1.393 . S
C796 H785 0.950 . S
C796 C794 1.391 . S
C796 C797 1.400 . S
C797 C791 1.491 . S
C797 C796 1.400 . S
C797 C798 1.398 . S
C798 H786 0.950 . S
C798 C797 1.398 . S
C798 C799 1.391 . S
C799 H787 0.950 . S
C799 C795 1.393 . S
C799 C798 1.391 . S
H800 C808 0.950 . S
H801 C813 0.950 . S
H802 C810 0.950 . S
H803 C812 0.950 . S
H804 C814 0.950 . S
H805 C816 0.950 . S
H806 C818 0.950 . S
H807 C819 0.950 . S
C808 H800 0.950 . S
C808 C809 1.386 . S
C808 C810 1.391 . S
C809 C808 1.386 . S
C809 C813 1.393 . S
C810 H802 0.950 . S
C810 C808 1.391 . S
C810 C811 1.400 . S
C811 C810 1.400 . S
C811 C812 1.398 . S
C811 C817 1.491 . S
C812 H803 0.950 . S
C812 C811 1.398 . S
C812 C813 1.391 . S
C813 H801 0.950 . S
C813 C809 1.393 . S
C813 C812 1.391 . S
C814 H804 0.950 . S
C814 C815 1.386 . S
C814 C816 1.391 . S
C815 C814 1.386 . S
C815 C819 1.393 . S
C816 H805 0.950 . S
C816 C814 1.391 . S
C816 C817 1.400 . S
C817 C811 1.491 . S
C817 C816 1.400 . S
C817 C818 1.398 . S
C818 H806 0.950 . S
C818 C817 1.398 . S
C818 C819 1.391 . S
C819 H807 0.950 . S
C819 C815 1.393 . S
C819 C818 1.391 . S
H820 C828 0.950 . S
H821 C833 0.950 . S
H822 C830 0.950 . S
H823 C832 0.950 . S
H824 C834 0.950 . S
H825 C836 0.950 . S
H826 C838 0.950 . S
H827 C839 0.950 . S
C828 H820 0.950 . S
C828 C829 1.386 . S
C828 C830 1.391 . S
C829 C828 1.386 . S
C829 C833 1.393 . S
C830 H822 0.950 . S
C830 C828 1.391 . S
C830 C831 1.400 . S
C831 C830 1.400 . S
C831 C832 1.398 . S
C831 C837 1.491 . S
C832 H823 0.950 . S
C832 C831 1.398 . S
C832 C833 1.391 . S
C833 H821 0.950 . S
C833 C829 1.393 . S
C833 C832 1.391 . S
C834 H824 0.950 . S
C834 C835 1.386 . S
C834 C836 1.391 . S
C835 C834 1.386 . S
C835 C839 1.393 . S
C836 H825 0.950 . S
C836 C834 1.391 . S
C836 C837 1.400 . S
C837 C831 1.491 . S
C837 C836 1.400 . S
C837 C838 1.398 . S
C838 H826 0.950 . S
C838 C837 1.398 . S
C838 C839 1.391 . S
C839 H827 0.950 . S
C839 C835 1.393 . S
C839 C838 1.391 . S
H840 C848 0.950 . S
H841 C853 0.950 . S
H842 C850 0.950 . S
H843 C852 0.950 . S
H844 C854 0.950 . S
H845 C856 0.950 . S
H846 C858 0.950 . S
H847 C859 0.950 . S
C848 H840 0.950 . S
C848 C849 1.386 . S
C848 C850 1.391 . S
C849 C848 1.386 . S
C849 C853 1.393 . S
C850 H842 0.950 . S
C850 C848 1.391 . S
C850 C851 1.400 . S
C851 C850 1.400 . S
C851 C852 1.398 . S
C851 C857 1.491 . S
C852 H843 0.950 . S
C852 C851 1.398 . S
C852 C853 1.391 . S
C853 H841 0.950 . S
C853 C849 1.393 . S
C853 C852 1.391 . S
C854 H844 0.950 . S
C854 C855 1.386 . S
C854 C856 1.391 . S
C855 C854 1.386 . S
C855 C859 1.393 . S
C856 H845 0.950 . S
C856 C854 1.391 . S
C856 C857 1.400 . S
C857 C851 1.491 . S
C857 C856 1.400 . S
C857 C858 1.398 . S
C858 H846 0.950 . S
C858 C857 1.398 . S
C858 C859 1.391 . S
C859 H847 0.950 . S
C859 C855 1.393 . S
C859 C858 1.391 . S
H860 C868 0.950 . S
H861 C873 0.950 . S
H862 C870 0.950 . S
H863 C872 0.950 . S
H864 C874 0.950 . S
H865 C876 0.950 . S
H866 C878 0.950 . S
H867 C879 0.950 . S
C868 H860 0.950 . S
C868 C869 1.386 . S
C868 C870 1.391 . S
C869 C868 1.386 . S
C869 C873 1.393 . S
C870 H862 0.950 . S
C870 C868 1.391 . S
C870 C871 1.400 . S
C871 C870 1.400 . S
C871 C872 1.398 . S
C871 C877 1.491 . S
C872 H863 0.950 . S
C872 C871 1.398 . S
C872 C873 1.391 . S
C873 H861 0.950 . S
C873 C869 1.393 . S
C873 C872 1.391 . S
C874 H864 0.950 . S
C874 C875 1.386 . S
C874 C876 1.391 . S
C875 C874 1.386 . S
C875 C879 1.393 . S
C876 H865 0.950 . S
C876 C874 1.391 . S
C876 C877 1.400 . S
C877 C871 1.491 . S
C877 C876 1.400 . S
C877 C878 1.398 . S
C878 H866 0.950 . S
C878 C877 1.398 . S
C878 C879 1.391 . S
C879 H867 0.950 . S
C879 C875 1.393 . S
C879 C878 1.391 . S
H880 C888 0.950 . S
H881 C893 0.950 . S
H882 C890 0.950 . S
H883 C892 0.950 . S
H884 C894 0.950 . S
H885 C896 0.950 . S
H886 C898 0.950 . S
H887 C899 0.950 . S
C888 H880 0.950 . S
C888 C889 1.386 . S
C888 C890 1.391 . S
C889 C888 1.386 . S
C889 C893 1.393 . S
C890 H882 0.950 . S
C890 C888 1.391 . S
C890 C891 1.400 . S
C891 C890 1.400 . S
C891 C892 1.398 . S
C891 C897 1.491 . S
C892 H883 0.950 . S
C892 C891 1.398 . S
C892 C893 1.391 . S
C893 H881 0.950 . S
C893 C889 1.393 . S
C893 C892 1.391 . S
C894 H884 0.950 . S
C894 C895 1.386 . S
C894 C896 1.391 . S
C895 C894 1.386 . S
C895 C899 1.393 . S
C896 H885 0.950 . S
C896 C894 1.391 . S
C896 C897 1.400 . S
C897 C891 1.491 . S
C897 C896 1.400 . S
C897 C898 1.398 . S
C898 H886 0.950 . S
C898 C897 1.398 . S
C898 C899 1.391 . S
C899 H887 0.950 . S
C899 C895 1.393 . S
C899 C898 1.391 . S
H900 C908 0.950 . S
H901 C913 0.950 . S
H902 C910 0.950 . S
H903 C912 0.950 . S
H904 C914 0.950 . S
H905 C916 0.950 . S
H906 C918 0.950 . S
H907 C919 0.950 . S
C908 H900 0.950 . S
C908 C909 1.386 . S
C908 C910 1.391 . S
C909 C908 1.386 . S
C909 C913 1.393 . S
C910 H902 0.950 . S
C910 C908 1.391 . S
C910 C911 1.400 . S
C911 C910 1.400 . S
C911 C912 1.398 . S
C911 C917 1.491 . S
C912 H903 0.950 . S
C912 C911 1.398 . S
C912 C913 1.391 . S
C913 H901 0.950 . S
C913 C909 1.393 . S
C913 C912 1.391 . S
C914 H904 0.950 . S
C914 C915 1.386 . S
C914 C916 1.391 . S
C915 C914 1.386 . S
C915 C919 1.393 . S
C916 H905 0.950 . S
C916 C914 1.391 . S
C916 C917 1.400 . S
C917 C911 1.491 . S
C917 C916 1.400 . S
C917 C918 1.398 . S
C918 H906 0.950 . S
C918 C917 1.398 . S
C918 C919 1.391 . S
C919 H907 0.950 . S
C919 C915 1.393 . S
C919 C918 1.391 . S
C449 N83 1.641 . S
C455 C178 1.638 . S
C475 C262 1.639 . S
C469 N96 1.640 . S
C495 C255 1.655 . S
C489 N57 1.630 . S
C509 N70 1.633 . S
C515 C171 1.656 . S
C535 C335 1.635 . S
C529 N31 1.646 . S
C555 C419 1.638 . S
C549 N44 1.645 . S
C569 N5 1.628 . S
C575 C412 1.653 . S
C589 N18 1.626 . S
C595 C328 1.651 . S
C615 C162 1.470 . S
C609 N14 1.614 . S
C635 C246 1.465 . S
C629 N1 1.613 . S
C655 C257 1.393 . S
C649 N40 1.616 . S
C675 C173 1.395 . S
C669 N27 1.616 . S
C695 C341 1.449 . S
C689 N66 1.602 . S
C709 N53 1.602 . S
C715 C425 1.434 . S
C735 C414 1.367 . S
C729 N92 1.612 . S
C749 N79 1.604 . S
C755 C330 1.400 . S
C775 C160 1.541 . S
C769 N2 1.545 . S
C795 C244 1.545 . S
C789 N15 1.542 . S
C809 N28 1.542 . S
C815 C251 1.521 . S
C835 C167 1.514 . S
C829 N41 1.542 . S
C855 C339 1.545 . S
C849 N54 1.542 . S
C869 N67 1.537 . S
C875 C423 1.544 . S
C889 N80 1.540 . S
C895 C430 1.521 . S
C909 N93 1.536 . S
C915 C346 1.511 . S
