# Generated by pormake.
# Topology cml, (3,6)-cn, num edge types: 1
# Building blocks:
#     Node 0, Type 0, BuildingBlock: QEWDON_clean_linker_0, # of connection points: 3
#     Node 1, Type 0, BuildingBlock: QEWDON_clean_linker_0, # of connection points: 3
#     Node 2, Type 0, BuildingBlock: QEWDON_clean_linker_0, # of connection points: 3
#     Node 3, Type 0, BuildingBlock: QEWDON_clean_linker_0, # of connection points: 3
#     Node 4, Type 0, BuildingBlock: QEWDON_clean_linker_0, # of connection points: 3
#     Node 5, Type 0, BuildingBlock: QEWDON_clean_linker_0, # of connection points: 3
#     Node 6, Type 0, BuildingBlock: QEWDON_clean_linker_0, # of connection points: 3
#     Node 7, Type 0, BuildingBlock: QEWDON_clean_linker_0, # of connection points: 3
#     Node 8, Type 1, BuildingBlock: IZENUY_clean_sbu_0, # of connection points: 6
#     Node 9, Type 1, BuildingBlock: IZENUY_clean_sbu_0, # of connection points: 6
#     Node 10, Type 1, BuildingBlock: IZENUY_clean_sbu_0, # of connection points: 6
#     Node 11, Type 1, BuildingBlock: IZENUY_clean_sbu_0, # of connection points: 6
#     Edge 12, Type (0, 1), BuildingBlock: XUDNAN_clean_linker_2, # of connection points: 2
#     Edge 13, Type (0, 1), BuildingBlock: XUDNAN_clean_linker_2, # of connection points: 2
#     Edge 14, Type (0, 1), BuildingBlock: XUDNAN_clean_linker_2, # of connection points: 2
#     Edge 15, Type (0, 1), BuildingBlock: XUDNAN_clean_linker_2, # of connection points: 2
#     Edge 16, Type (0, 1), BuildingBlock: XUDNAN_clean_linker_2, # of connection points: 2
#     Edge 17, Type (0, 1), BuildingBlock: XUDNAN_clean_linker_2, # of connection points: 2
#     Edge 18, Type (0, 1), BuildingBlock: XUDNAN_clean_linker_2, # of connection points: 2
#     Edge 19, Type (0, 1), BuildingBlock: XUDNAN_clean_linker_2, # of connection points: 2
#     Edge 20, Type (0, 1), BuildingBlock: XUDNAN_clean_linker_2, # of connection points: 2
#     Edge 21, Type (0, 1), BuildingBlock: XUDNAN_clean_linker_2, # of connection points: 2
#     Edge 22, Type (0, 1), BuildingBlock: XUDNAN_clean_linker_2, # of connection points: 2
#     Edge 23, Type (0, 1), BuildingBlock: XUDNAN_clean_linker_2, # of connection points: 2
#     Edge 24, Type (0, 1), BuildingBlock: XUDNAN_clean_linker_2, # of connection points: 2
#     Edge 25, Type (0, 1), BuildingBlock: XUDNAN_clean_linker_2, # of connection points: 2
#     Edge 26, Type (0, 1), BuildingBlock: XUDNAN_clean_linker_2, # of connection points: 2
#     Edge 27, Type (0, 1), BuildingBlock: XUDNAN_clean_linker_2, # of connection points: 2
#     Edge 28, Type (0, 1), BuildingBlock: XUDNAN_clean_linker_2, # of connection points: 2
#     Edge 29, Type (0, 1), BuildingBlock: XUDNAN_clean_linker_2, # of connection points: 2
#     Edge 30, Type (0, 1), BuildingBlock: XUDNAN_clean_linker_2, # of connection points: 2
#     Edge 31, Type (0, 1), BuildingBlock: XUDNAN_clean_linker_2, # of connection points: 2
#     Edge 32, Type (0, 1), BuildingBlock: XUDNAN_clean_linker_2, # of connection points: 2
#     Edge 33, Type (0, 1), BuildingBlock: XUDNAN_clean_linker_2, # of connection points: 2
#     Edge 34, Type (0, 1), BuildingBlock: XUDNAN_clean_linker_2, # of connection points: 2
#     Edge 35, Type (0, 1), BuildingBlock: XUDNAN_clean_linker_2, # of connection points: 2
# Relax obj value: 0.010
# Max RMSD: 0.128
# Mean RMSD: 0.094
data_MOF--net-cml--node1-IZENUY_clean_sbu_0--node2-QEWDON_clean_linker_0--edge1-XUDNAN_clean_linker_2
_symmetry_space_group_name_H-M    P1
_symmetry_Int_Tables_number       1
_symmetry_cell_setting            triclinic
loop_
_symmetry_equiv_pos_as_xyz
'x, y, z'
_cell_length_a     39.138563
_cell_length_b     42.407181
_cell_length_c     36.70449
_cell_angle_alpha  89.91122
_cell_angle_beta   89.945398
_cell_angle_gamma 90.0537
loop_
_atom_site_label
_atom_site_type_symbol
_atom_site_fract_x
_atom_site_fract_y
_atom_site_fract_z
_atom_type_partial_charge
H0 H 0.27106 0.42439 0.99045 0.0
C1 C 0.28697 0.41511 0.01211 0.0
C2 C 0.3202 0.42697 0.01719 0.0
C3 C 0.27394 0.39192 0.03573 0.0
H4 H 0.3657 0.42472 0.04998 0.0
C5 C 0.3402 0.41534 0.04598 0.0
C6 C 0.32703 0.393 0.07061 0.0
C7 C 0.2939 0.3812 0.06495 0.0
C8 C 0.23808 0.38133 0.03302 0.0
H9 H 0.28286 0.36462 0.08416 0.0
C10 C 0.22835 0.3574 0.00858 0.0
C11 C 0.19462 0.34555 0.00892 0.0
C12 C 0.21393 0.39373 0.05731 0.0
H13 H 0.22112 0.41196 0.07649 0.0
C14 C 0.18046 0.38246 0.05735 0.0
H15 H 0.24717 0.34744 0.99023 0.0
C16 C 0.17084 0.35848 0.03348 0.0
H17 H 0.14463 0.35027 0.03396 0.0
H18 H 0.16194 0.3922 0.07612 0.0
H19 H 0.73827 0.61204 0.47598 0.0
C20 C 0.72291 0.61493 0.50033 0.0
C21 C 0.69169 0.59853 0.50369 0.0
C22 C 0.73523 0.63341 0.52945 0.0
H23 H 0.65006 0.58675 0.53972 0.0
C24 C 0.67312 0.60068 0.53629 0.0
C25 C 0.68543 0.61826 0.56574 0.0
C26 C 0.71582 0.63537 0.56178 0.0
C27 C 0.77038 0.64692 0.52888 0.0
H28 H 0.7256 0.64848 0.58487 0.0
C29 C 0.78243 0.66597 0.49993 0.0
C30 C 0.81524 0.6799 0.50187 0.0
C31 C 0.79205 0.64096 0.55868 0.0
H32 H 0.78383 0.62591 0.5809 0.0
C33 C 0.82457 0.65417 0.56023 0.0
H34 H 0.76606 0.67079 0.4768 0.0
C35 C 0.83604 0.67364 0.53223 0.0
H36 H 0.86149 0.68358 0.53413 0.0
H37 H 0.84095 0.64936 0.58333 0.0
H38 H 0.70643 0.38527 0.96439 0.0
C39 C 0.70131 0.38509 0.9934 0.0
C40 C 0.6884 0.41239 0.01051 0.0
C41 C 0.7067 0.35728 0.01382 0.0
H42 H 0.6706 0.43214 0.06121 0.0
C43 C 0.68135 0.41153 0.04803 0.0
C44 C 0.68602 0.38399 0.06849 0.0
C45 C 0.69846 0.35686 0.05121 0.0
C46 C 0.71757 0.32743 0.99615 0.0
H47 H 0.70172 0.33536 0.06686 0.0
C48 C 0.75098 0.32311 0.98229 0.0
C49 C 0.76144 0.29317 0.96935 0.0
C50 C 0.69462 0.30199 0.9959 0.0
H51 H 0.66895 0.30475 0.00651 0.0
C52 C 0.70456 0.27273 0.98235 0.0
H53 H 0.769 0.34252 0.98292 0.0
C54 C 0.73768 0.26825 0.96938 0.0
H55 H 0.74465 0.24523 0.95901 0.0
H56 H 0.68659 0.25332 0.98221 0.0
H57 H 0.32206 0.64079 0.46532 0.0
C58 C 0.32553 0.63744 0.49435 0.0
C59 C 0.34015 0.60926 0.5077 0.0
C60 C 0.31783 0.6624 0.51832 0.0
H61 H 0.35551 0.58422 0.55639 0.0
C62 C 0.34495 0.60589 0.54552 0.0
C63 C 0.33818 0.63077 0.56949 0.0
C64 C 0.32475 0.65896 0.55573 0.0
C65 C 0.30607 0.69346 0.50449 0.0
H66 H 0.31989 0.67841 0.57418 0.0
C67 C 0.27506 0.69686 0.48524 0.0
C68 C 0.26309 0.7272 0.4756 0.0
C69 C 0.32545 0.72042 0.5127 0.0
H70 H 0.3494 0.71837 0.5273 0.0
C71 C 0.31415 0.75026 0.50237 0.0
H72 H 0.25974 0.67623 0.47919 0.0
C73 C 0.28314 0.7537 0.48419 0.0
H74 H 0.2749 0.77719 0.47659 0.0
H75 H 0.32934 0.77085 0.50879 0.0
H76 H 0.79004 0.92356 0.95916 0.0
C77 C 0.80374 0.91531 0.98302 0.0
C78 C 0.83563 0.92853 0.99155 0.0
C79 C 0.78819 0.89327 0.00637 0.0
H80 H 0.8759 0.93067 0.03148 0.0
C81 C 0.85228 0.91914 0.02362 0.0
C82 C 0.83677 0.89765 0.0477 0.0
C83 C 0.80488 0.88441 0.03873 0.0
C84 C 0.75168 0.8855 1.00076 0.0
H85 H 0.79186 0.86939 0.05824 0.0
C86 C 0.74084 0.85569 0.98823 0.0
C87 C 0.70585 0.85011 0.98095 0.0
C88 C 0.72743 0.90928 0.00672 0.0
H89 H 0.73531 0.93233 0.01631 0.0
C90 C 0.6929 0.90368 1.00031 0.0
H91 H 0.75956 0.83739 0.98318 0.0
C92 C 0.68215 0.87442 0.98746 0.0
H93 H 0.6551 0.8707 0.98294 0.0
H94 H 0.67439 0.92215 0.00517 0.0
H95 H 0.24292 0.07965 0.46818 0.0
C96 C 0.22862 0.09118 0.48969 0.0
C97 C 0.19542 0.08086 0.49781 0.0
C98 C 0.24387 0.11574 0.50961 0.0
H99 H 0.15181 0.08704 0.53253 0.0
C100 C 0.17734 0.09532 0.52623 0.0
C101 C 0.19263 0.11894 0.54779 0.0
C102 C 0.22574 0.12958 0.53857 0.0
C103 C 0.28036 0.12356 0.5031 0.0
H104 H 0.23842 0.14707 0.55528 0.0
C105 C 0.29114 0.15429 0.49351 0.0
C106 C 0.32594 0.16034 0.48558 0.0
C107 C 0.30468 0.09934 0.50573 0.0
H108 H 0.29702 0.07565 0.51328 0.0
C109 C 0.33906 0.1054 0.49894 0.0
H110 H 0.27244 0.17299 0.49098 0.0
C111 C 0.34964 0.13555 0.48888 0.0
H112 H 0.37659 0.13951 0.4839 0.0
H113 H 0.3576 0.08659 0.50132 0.0
H114 H 0.20494 0.88699 0.9389 0.0
C115 C 0.19836 0.88885 0.96745 0.0
C116 C 0.18023 0.91541 0.98079 0.0
C117 C 0.20665 0.86348 0.99061 0.0
H118 H 0.15729 0.93539 0.02949 0.0
C119 C 0.17236 0.91634 0.01833 0.0
C120 C 0.18144 0.89157 0.04175 0.0
C121 C 0.1982 0.86513 0.02767 0.0
C122 C 0.2183 0.83284 0.97575 0.0
H123 H 0.20391 0.84536 0.04542 0.0
C124 C 0.25259 0.82724 0.96564 0.0
C125 C 0.26308 0.79656 0.95543 0.0
C126 C 0.19465 0.80796 0.97454 0.0
H127 H 0.16826 0.81178 0.98236 0.0
C128 C 0.20479 0.77791 0.9638 0.0
H129 H 0.27108 0.84623 0.96693 0.0
C130 C 0.23874 0.77216 0.95453 0.0
H131 H 0.24595 0.74856 0.94629 0.0
H132 H 0.18632 0.75892 0.96297 0.0
H133 H 0.81309 0.11363 0.44225 0.0
C134 C 0.82298 0.11789 0.46931 0.0
C135 C 0.84662 0.09704 0.48539 0.0
C136 C 0.8138 0.14613 0.4862 0.0
H137 H 0.87741 0.08896 0.53338 0.0
C138 C 0.85808 0.1037 0.52105 0.0
C139 C 0.84666 0.13083 0.53986 0.0
C140 C 0.8242 0.15178 0.52197 0.0
C141 C 0.80187 0.17249 0.46305 0.0
H142 H 0.81622 0.17351 0.53486 0.0
C143 C 0.76934 0.18628 0.46691 0.0
C144 C 0.75918 0.21078 0.44312 0.0
C145 C 0.82431 0.18385 0.43616 0.0
H146 H 0.84955 0.17369 0.43298 0.0
C147 C 0.81469 0.20848 0.41334 0.0
H148 H 0.75185 0.17742 0.48742 0.0
C149 C 0.78242 0.22186 0.41671 0.0
H150 H 0.7757 0.24114 0.3987 0.0
H151 H 0.8323 0.2172 0.39291 0.0
Fe152 Fe 0.01414 0.83617 0.31013 0.0
Fe153 Fe 0.01195 0.86727 0.3863 0.0
O154 O 0.01398 0.87042 0.33805 0.0
Fe155 Fe 0.01598 0.90816 0.31758 0.0
O156 O 0.99273 0.8969 0.27621 0.0
O157 O 0.97563 0.84828 0.28617 0.0
O158 O 0.98637 0.8129 0.3406 0.0
C159 C 0.96665 0.82086 0.36646 0.0
C160 C 0.06201 0.87712 0.27526 0.0
O161 O 0.97194 0.84576 0.3844 0.0
C162 C 0.05758 0.91575 0.38012 0.0
O163 O 0.05256 0.82147 0.33174 0.0
O164 O 0.0373 0.83068 0.38855 0.0
O165 O 0.05692 0.89955 0.29711 0.0
O166 O 0.04201 0.8535 0.27466 0.0
C167 C 0.96867 0.91972 0.37016 0.0
O168 O 0.05207 0.88831 0.39187 0.0
O169 O 0.03924 0.92728 0.35511 0.0
C170 C 0.05702 0.81779 0.36551 0.0
O171 O 0.98625 0.90373 0.39271 0.0
O172 O 0.97529 0.9187 0.33662 0.0
C173 C 0.97234 0.87439 0.27008 0.0
Fe174 Fe 0.01288 0.14289 0.88687 0.0
Fe175 Fe 1.01083 0.11037 0.81167 0.0
O176 O 0.013 0.1453 0.83842 0.0
Fe177 Fe 0.01524 0.18252 0.8164 0.0
O178 O 0.04184 0.20118 0.85113 0.0
O179 O 0.0534 0.16372 0.89075 0.0
O180 O 0.03768 0.10552 0.88859 0.0
C181 C 0.0551 0.09095 0.86462 0.0
C182 C 0.97015 0.19594 0.8717 0.0
O183 O 0.05004 0.09573 0.83114 0.0
C184 C 0.96807 0.14833 0.77268 0.0
O185 O 0.9723 0.1222 0.88713 0.0
O186 O 0.98499 0.08776 0.84461 0.0
O187 O 0.97631 0.19587 0.83798 0.0
O188 O 0.98783 0.17946 0.89363 0.0
C189 C 0.05737 0.14888 0.77176 0.0
O190 O 0.97124 0.12271 0.78993 0.0
O191 O 0.98896 0.17075 0.77749 0.0
C192 C 0.96649 0.09661 0.87095 0.0
O193 O 0.03662 0.12597 0.7737 0.0
O194 O 0.05445 0.17209 0.79295 0.0
C195 C 0.06024 0.18997 0.87625 0.0
Fe196 Fe 0.51073 0.34767 0.33817 0.0
Fe197 Fe 0.50902 0.38732 0.408 0.0
O198 O 0.5092 0.38492 0.35984 0.0
Fe199 Fe 0.5083 0.41995 0.33351 0.0
O200 O 0.48418 0.4026 0.29543 0.0
O201 O 0.47113 0.35489 0.31424 0.0
O202 O 0.48503 0.32752 0.37339 0.0
C203 C 0.46482 0.3381 0.39756 0.0
C204 C 0.55524 0.38555 0.29512 0.0
O205 O 0.46921 0.36528 0.4109 0.0
C206 C 0.55319 0.43509 0.39124 0.0
O207 O 0.55055 0.33771 0.36042 0.0
O208 O 0.53462 0.35147 0.41544 0.0
O209 O 0.54889 0.41053 0.31246 0.0
O210 O 0.5366 0.36128 0.29903 0.0
C211 C 0.46338 0.43628 0.38666 0.0
O212 O 0.54897 0.40927 0.40777 0.0
O213 O 0.53254 0.4438 0.36664 0.0
C214 C 0.55489 0.33699 0.39442 0.0
O215 O 0.48339 0.42379 0.40971 0.0
O216 O 0.46762 0.4317 0.35303 0.0
C217 C 0.46606 0.37788 0.29317 0.0
Fe218 Fe 0.51193 0.63412 0.90941 0.0
Fe219 Fe 0.51078 0.59132 0.84211 0.0
O220 O 0.5134 0.62969 0.86138 0.0
Fe221 Fe 0.51705 0.66325 0.83237 0.0
O222 O 0.54422 0.68609 0.8638 0.0
O223 O 0.55282 0.65413 0.91016 0.0
O224 O 0.5361 0.59754 0.91866 0.0
C225 C 0.5548 0.58045 0.89835 0.0
C226 C 0.47158 0.68549 0.88349 0.0
O227 O 0.54973 0.57885 0.86446 0.0
C228 C 0.46854 0.62405 0.79643 0.0
O229 O 0.47067 0.6144 0.91254 0.0
O230 O 0.48461 0.57409 0.87848 0.0
O231 O 0.47849 0.68078 0.85042 0.0
O232 O 0.48786 0.67152 0.90864 0.0
C233 C 0.55832 0.62217 0.79584 0.0
O234 O 0.47155 0.60144 0.81865 0.0
O235 O 0.49017 0.64641 0.79596 0.0
C236 C 0.46495 0.58684 0.90137 0.0
O237 O 0.53662 0.60071 0.80199 0.0
O238 O 0.55607 0.64854 0.81146 0.0
C239 C 0.56115 0.67804 0.89175 0.0
H240 H 0.15617 0.29315 0.02495 0.0
H241 H 0.20741 0.34094 0.93573 0.0
H242 H 0.18339 0.30209 0.89254 0.0
H243 H 0.16503 0.21177 0.98803 0.0
H244 H 0.1235 0.2002 1.00463 0.0
H245 H 0.14805 0.22937 0.02889 0.0
H246 H 0.09748 0.26855 0.02423 0.0
H247 H 0.07286 0.2396 0.99992 0.0
H248 H 0.08006 0.27795 0.98008 0.0
H249 H 0.14723 0.26323 0.85848 0.0
H250 H 0.10431 0.22509 0.83619 0.0
H251 H 0.07832 0.20062 0.94751 0.0
C252 C 0.16276 0.29513 0.99637 0.0
C253 C 0.18366 0.32009 0.98364 0.0
C254 C 0.19178 0.32184 0.94611 0.0
C255 C 0.17817 0.29992 0.9214 0.0
C256 C 0.15694 0.27609 0.93474 0.0
C257 C 0.14967 0.27328 0.97144 0.0
C258 C 0.12463 0.24662 0.97851 0.0
C259 C 0.14131 0.22043 1.00137 0.0
C260 C 0.09182 0.25893 0.99675 0.0
C261 C 0.11789 0.23562 0.93991 0.0
C262 C 0.13694 0.25286 0.9151 0.0
C263 C 0.1328 0.2491 0.87767 0.0
C264 C 0.10833 0.22748 0.86527 0.0
C265 C 0.08852 0.20963 0.89016 0.0
C266 C 0.09385 0.21334 0.92795 0.0
H267 H 0.84349 0.73819 0.51042 0.0
H268 H 0.81919 0.66837 0.42838 0.0
H269 H 0.85164 0.69938 0.38253 0.0
H270 H 0.8411 0.80834 0.44898 0.0
H271 H 0.87617 0.82681 0.47256 0.0
H272 H 0.84726 0.80127 0.49697 0.0
H273 H 0.89854 0.76744 0.51845 0.0
H274 H 0.92753 0.79257 0.49383 0.0
H275 H 0.92706 0.75077 0.48504 0.0
H276 H 0.89392 0.73441 0.34837 0.0
H277 H 0.93801 0.77225 0.3276 0.0
H278 H 0.93305 0.81967 0.43214 0.0
C279 C 0.84429 0.72986 0.48255 0.0
C280 C 0.82878 0.70096 0.47282 0.0
C281 C 0.83052 0.69066 0.43621 0.0
C282 C 0.84905 0.70805 0.41011 0.0
C283 C 0.86518 0.7359 0.42099 0.0
C284 C 0.86238 0.74701 0.45625 0.0
C285 C 0.88359 0.77652 0.46179 0.0
C286 C 0.86066 0.80492 0.47059 0.0
C287 C 0.91078 0.7715 0.49153 0.0
C288 C 0.89975 0.7798 0.4245 0.0
C289 C 0.88877 0.75626 0.40124 0.0
C290 C 0.90216 0.75325 0.36618 0.0
C291 C 0.92734 0.77477 0.35468 0.0
C292 C 0.93886 0.79912 0.37809 0.0
C293 C 0.92446 0.8017 0.41331 0.0
H294 H 0.80348 0.24317 0.9854 0.0
H295 H 0.79871 0.32892 0.92112 0.0
H296 H 0.85384 0.31506 0.89205 0.0
H297 H 0.89721 0.24315 0.99848 0.0
H298 H 0.89996 0.20082 0.99519 0.0
H299 H 0.86183 0.21895 0.01303 0.0
H300 H 0.82559 0.18953 0.96481 0.0
H301 H 0.86356 0.1715 0.94666 0.0
H302 H 0.83592 0.19396 0.91719 0.0
H303 H 0.90561 0.28838 0.86464 0.0
H304 H 0.95264 0.25359 0.84475 0.0
H305 H 0.9256 0.18617 0.92891 0.0
C306 C 0.81429 0.25928 0.96557 0.0
C307 C 0.79673 0.28718 0.95549 0.0
C308 C 0.81182 0.30765 0.92955 0.0
C309 C 0.84304 0.29985 0.91278 0.0
C310 C 0.85917 0.27173 0.92264 0.0
C311 C 0.84557 0.252 0.94889 0.0
C312 C 0.8674 0.22269 0.95381 0.0
C313 C 0.8825 0.22133 0.99242 0.0
C314 C 0.84689 0.19266 0.94509 0.0
C315 C 0.89501 0.22855 0.92555 0.0
C316 C 0.88971 0.25695 0.90782 0.0
C317 C 0.91033 0.26643 0.87882 0.0
C318 C 0.93692 0.24643 0.86762 0.0
C319 C 0.94309 0.21738 0.88558 0.0
C320 C 0.922 0.20857 0.91522 0.0
H321 H 0.21273 0.76908 0.49362 0.0
H322 H 0.23873 0.69688 0.41488 0.0
H323 H 0.18657 0.70993 0.37965 0.0
H324 H 0.11938 0.75758 0.49012 0.0
H325 H 0.11091 0.79913 0.49501 0.0
H326 H 0.14863 0.78219 0.51521 0.0
H327 H 0.18619 0.82269 0.48055 0.0
H328 H 0.14868 0.8396 0.46004 0.0
H329 H 0.18297 0.82545 0.43165 0.0
H330 H 0.1352 0.73553 0.34946 0.0
H331 H 0.08623 0.76811 0.32955 0.0
H332 H 0.0925 0.82193 0.4297 0.0
C333 C 0.20718 0.75571 0.46921 0.0
C334 C 0.22978 0.73198 0.45689 0.0
C335 C 0.2216 0.71493 0.42494 0.0
C336 C 0.19214 0.72231 0.40471 0.0
C337 C 0.17088 0.74646 0.41714 0.0
C338 C 0.17779 0.76255 0.449 0.0
C339 C 0.1515 0.78809 0.456 0.0
C340 C 0.13141 0.78133 0.49117 0.0
C341 C 0.16835 0.82089 0.45711 0.0
C342 C 0.12908 0.78441 0.42267 0.0
C343 C 0.14071 0.76034 0.40051 0.0
C344 C 0.12553 0.75402 0.36694 0.0
C345 C 0.09782 0.77273 0.3558 0.0
C346 C 0.08527 0.79727 0.37829 0.0
C347 C 0.10103 0.80289 0.41229 0.0
H348 H 0.65926 0.84008 0.92647 0.0
H349 H 0.72306 0.79056 1.00428 0.0
H350 H 0.69609 0.74007 0.98625 0.0
H351 H 0.58452 0.79793 0.94313 0.0
H352 H 0.57006 0.79757 0.89652 0.0
H353 H 0.59717 0.82897 0.91231 0.0
H354 H 0.64072 0.81687 0.861 0.0
H355 H 0.6136 0.7855 0.84485 0.0
H356 H 0.6575 0.7775 0.85639 0.0
H357 H 0.65713 0.69608 0.96476 0.0
H358 H 0.61198 0.66182 0.93942 0.0
H359 H 0.57411 0.74024 0.87502 0.0
C360 C 0.66792 0.81855 0.93939 0.0
C361 C 0.69327 0.81927 0.96688 0.0
C362 C 0.704 0.79056 0.98292 0.0
C363 C 0.68868 0.7618 0.97295 0.0
C364 C 0.663 0.76212 0.94655 0.0
C365 C 0.65304 0.78975 0.92966 0.0
C366 C 0.62372 0.78409 0.90348 0.0
C367 C 0.592 0.80328 0.91454 0.0
C368 C 0.63455 0.79142 0.8641 0.0
C369 C 0.618 0.74908 0.90898 0.0
C370 C 0.64101 0.73679 0.9338 0.0
C371 C 0.63935 0.70538 0.94491 0.0
C372 C 0.61349 0.68613 0.93046 0.0
C373 C 0.58956 0.69825 0.90504 0.0
C374 C 0.59227 0.7301 0.89393 0.0
H375 H 0.37128 0.17348 0.43078 0.0
H376 H 0.30922 0.2187 0.51347 0.0
H377 H 0.33532 0.27025 0.49756 0.0
H378 H 0.44635 0.2158 0.44757 0.0
H379 H 0.45933 0.21806 0.40051 0.0
H380 H 0.43318 0.18575 0.41584 0.0
H381 H 0.38789 0.19914 0.36673 0.0
H382 H 0.41403 0.23143 0.35106 0.0
H383 H 0.37041 0.23841 0.36458 0.0
H384 H 0.37274 0.31622 0.47579 0.0
H385 H 0.41577 0.35222 0.44897 0.0
H386 H 0.45305 0.27588 0.38108 0.0
C387 C 0.3629 0.19425 0.4454 0.0
C388 C 0.33826 0.192 0.47353 0.0
C389 C 0.3278 0.21986 0.49163 0.0
C390 C 0.34263 0.2492 0.48287 0.0
C391 C 0.36764 0.25034 0.4557 0.0
C392 C 0.37737 0.22355 0.437 0.0
C393 C 0.40573 0.23055 0.41007 0.0
C394 C 0.43805 0.21141 0.41905 0.0
C395 C 0.39379 0.22453 0.37078 0.0
C396 C 0.4111 0.26537 0.41698 0.0
C397 C 0.38881 0.27649 0.44322 0.0
C398 C 0.39004 0.30775 0.45498 0.0
C399 C 0.41467 0.32803 0.43963 0.0
C400 C 0.43789 0.31701 0.41282 0.0
C401 C 0.43567 0.28525 0.40132 0.0
H402 H 0.30299 0.74855 0.98136 0.0
H403 H 0.30354 0.82698 0.90552 0.0
H404 H 0.35956 0.8092 0.8816 0.0
H405 H 0.39658 0.74815 0.99918 0.0
H406 H 0.39793 0.70573 1.00208 0.0
H407 H 0.35987 0.72663 0.0155 0.0
H408 H 0.32437 0.69308 0.97034 0.0
H409 H 0.36229 0.67233 0.9565 0.0
H410 H 0.33644 0.69214 0.92294 0.0
H411 H 0.4111 0.77829 0.86024 0.0
H412 H 0.45726 0.74011 0.84732 0.0
H413 H 0.42503 0.68336 0.93951 0.0
C414 C 0.3153 0.76235 0.96024 0.0
C415 C 0.29901 0.78921 0.94527 0.0
C416 C 0.31578 0.8066 0.91761 0.0
C417 C 0.34748 0.79655 0.90377 0.0
C418 C 0.36233 0.76938 0.91836 0.0
C419 C 0.34708 0.75288 0.9465 0.0
C420 C 0.36763 0.72379 0.95651 0.0
C421 C 0.38132 0.72624 0.99564 0.0
C422 C 0.34641 0.69356 0.95124 0.0
C423 C 0.39635 0.72592 0.92889 0.0
C424 C 0.39277 0.75234 0.90706 0.0
C425 C 0.41455 0.75794 0.87767 0.0
C426 C 0.44059 0.73605 0.87044 0.0
C427 C 0.445 0.70906 0.89274 0.0
C428 C 0.42275 0.70419 0.92257 0.0
H429 H 0.71723 0.22465 0.38606 0.0
H430 H 0.72353 0.23013 0.50383 0.0
H431 H 0.66948 0.26063 0.50495 0.0
H432 H 0.6902 0.30184 0.37184 0.0
H433 H 0.6622 0.29269 0.33434 0.0
H434 H 0.69868 0.26813 0.34337 0.0
H435 H 0.65941 0.21901 0.34803 0.0
H436 H 0.62279 0.2434 0.33863 0.0
H437 H 0.62375 0.21935 0.37916 0.0
H438 H 0.61749 0.29511 0.49194 0.0
H439 H 0.57125 0.32822 0.46661 0.0
H440 H 0.60092 0.30046 0.35726 0.0
C441 C 0.70706 0.23193 0.41218 0.0
C442 C 0.72462 0.22514 0.44488 0.0
C443 C 0.71031 0.23483 0.47849 0.0
C444 C 0.67975 0.25229 0.47933 0.0
C445 C 0.66379 0.25955 0.44635 0.0
C446 C 0.67686 0.24934 0.41345 0.0
C447 C 0.65616 0.26154 0.38164 0.0
C448 C 0.67812 0.28228 0.35633 0.0
C449 C 0.63953 0.23419 0.36064 0.0
C450 C 0.62972 0.28086 0.40163 0.0
C451 C 0.63429 0.2793 0.43893 0.0
C452 C 0.61351 0.2962 0.4628 0.0
C453 C 0.58736 0.31502 0.44812 0.0
C454 C 0.58232 0.31693 0.40991 0.0
C455 C 0.60388 0.29948 0.38657 0.0
H456 H 0.38025 0.42965 0.97917 0.0
H457 H 0.29076 0.48461 0.00714 0.0
H458 H 0.31709 0.53186 0.9788 0.0
H459 H 0.44155 0.48735 0.99713 0.0
H460 H 0.4691 0.47766 0.9594 0.0
H461 H 0.44216 0.44779 0.97921 0.0
H462 H 0.41503 0.43667 0.91613 0.0
H463 H 0.44224 0.46626 0.89601 0.0
H464 H 0.39656 0.46873 0.89056 0.0
H465 H 0.35675 0.57448 0.95411 0.0
H466 H 0.40318 0.60728 0.92778 0.0
H467 H 0.46471 0.52332 0.91258 0.0
C468 C 0.36596 0.45151 0.97856 0.0
C469 C 0.33344 0.45359 0.99507 0.0
C470 C 0.31551 0.48254 0.99413 0.0
C471 C 0.33037 0.50949 0.97835 0.0
C472 C 0.36291 0.50688 0.96312 0.0
C473 C 0.38016 0.47842 0.9624 0.0
C474 C 0.41499 0.4819 0.94488 0.0
C475 C 0.44363 0.47316 0.97176 0.0
C476 C 0.41732 0.46223 0.90981 0.0
C477 C 0.41502 0.51687 0.93657 0.0
C478 C 0.38492 0.531 0.94753 0.0
C479 C 0.38015 0.56355 0.9448 0.0
C480 C 0.40667 0.58201 0.93005 0.0
C481 C 0.43727 0.56776 0.91778 0.0
C482 C 0.44131 0.53478 0.92112 0.0
H483 H 0.62972 0.59515 0.46949 0.0
H484 H 0.72709 0.54748 0.47944 0.0
H485 H 0.70328 0.50111 0.44737 0.0
H486 H 0.57824 0.53183 0.48722 0.0
H487 H 0.54522 0.54092 0.45466 0.0
H488 H 0.571 0.57207 0.47331 0.0
H489 H 0.58868 0.5897 0.40836 0.0
H490 H 0.56237 0.5589 0.38946 0.0
H491 H 0.60696 0.56135 0.37744 0.0
H492 H 0.66569 0.45671 0.4252 0.0
H493 H 0.61965 0.42049 0.40515 0.0
H494 H 0.54788 0.4982 0.40503 0.0
C495 C 0.64633 0.5754 0.46356 0.0
C496 C 0.68037 0.57496 0.47642 0.0
C497 C 0.70121 0.54849 0.46907 0.0
C498 C 0.68778 0.52197 0.45118 0.0
C499 C 0.65366 0.5226 0.4402 0.0
C500 C 0.63347 0.54899 0.44518 0.0
C501 C 0.59717 0.54309 0.43241 0.0
C502 C 0.57141 0.54722 0.46378 0.0
C503 C 0.58828 0.56453 0.39998 0.0
C504 C 0.59973 0.50891 0.4208 0.0
C505 C 0.63248 0.49744 0.42569 0.0
C506 C 0.64022 0.46566 0.4203 0.0
C507 C 0.61394 0.44523 0.40921 0.0
C508 C 0.58054 0.45676 0.40307 0.0
C509 C 0.57346 0.48902 0.40872 0.0
H510 H 0.64838 0.4188 0.9491 0.0
H511 H 0.70728 0.4723 0.02763 0.0
H512 H 0.6825 0.52172 1.00406 0.0
H513 H 0.65257 0.47994 0.87389 0.0
H514 H 0.60953 0.47141 0.85948 0.0
H515 H 0.63557 0.44064 0.87891 0.0
H516 H 0.5886 0.42988 0.92709 0.0
H517 H 0.56269 0.46091 0.90828 0.0
H518 H 0.57417 0.46166 0.95581 0.0
H519 H 0.64412 0.56385 0.98012 0.0
H520 H 0.60015 0.59727 0.95085 0.0
H521 H 0.56842 0.51809 0.88442 0.0
C522 C 0.65708 0.44104 0.96023 0.0
C523 C 0.67989 0.44174 0.99011 0.0
C524 C 0.68991 0.47125 1.0047 0.0
C525 C 0.67592 0.49945 0.99153 0.0
C526 C 0.65225 0.49791 0.96329 0.0
C527 C 0.64346 0.46959 0.94714 0.0
C528 C 0.61584 0.47453 0.91861 0.0
C529 C 0.62918 0.46614 0.88045 0.0
C530 C 0.58342 0.45562 0.92803 0.0
C531 C 0.60976 0.50977 0.92221 0.0
C532 C 0.631 0.52274 0.94826 0.0
C533 C 0.62797 0.55417 0.95898 0.0
C534 C 0.60282 0.57291 0.94245 0.0
C535 C 0.58136 0.56035 0.91511 0.0
C536 C 0.5851 0.52843 0.90468 0.0
H537 H 0.39859 0.57425 0.51526 0.0
H538 H 0.31189 0.58756 0.44316 0.0
H539 H 0.33383 0.54485 0.40347 0.0
H540 H 0.46119 0.55594 0.44762 0.0
H541 H 0.48197 0.52673 0.47557 0.0
H542 H 0.46014 0.55935 0.49657 0.0
H543 H 0.42338 0.52014 0.53424 0.0
H544 H 0.44503 0.48746 0.51316 0.0
H545 H 0.39912 0.49014 0.51099 0.0
H546 H 0.36649 0.49996 0.37159 0.0
H547 H 0.40541 0.4571 0.35184 0.0
H548 H 0.46707 0.47176 0.44847 0.0
C549 C 0.38374 0.56806 0.49146 0.0
C550 C 0.35316 0.58418 0.4827 0.0
C551 C 0.33544 0.57576 0.45046 0.0
C552 C 0.34763 0.5514 0.42786 0.0
C553 C 0.3775 0.53563 0.43791 0.0
C554 C 0.39519 0.54369 0.46907 0.0
C555 C 0.42614 0.5229 0.47466 0.0
C556 C 0.45931 0.54241 0.47352 0.0
C557 C 0.42322 0.50404 0.51038 0.0
C558 C 0.42319 0.50166 0.44182 0.0
C559 C 0.39525 0.50945 0.42063 0.0
C560 C 0.38825 0.49358 0.38819 0.0
C561 C 0.41046 0.46928 0.37719 0.0
C562 C 0.43899 0.46082 0.39885 0.0
C563 C 0.44513 0.47722 0.43164 0.0
H564 H 0.89805 0.93541 0.95763 0.0
H565 H 0.80265 0.98374 0.97932 0.0
H566 H 0.82493 0.0316 0.94891 0.0
H567 H 0.9536 1.00047 0.97133 0.0
H568 H 0.98227 0.99083 0.93454 0.0
H569 H 0.95859 0.96006 0.95711 0.0
H570 H 0.93344 0.94226 0.89519 0.0
H571 H 0.95715 0.97295 0.87241 0.0
H572 H 0.91146 0.97052 0.86695 0.0
H573 H 0.8596 0.07568 0.92185 0.0
H574 H 0.90229 0.11142 0.89374 0.0
H575 H 0.97324 0.03345 0.88407 0.0
C576 C 0.88184 0.95601 0.95552 0.0
C577 C 0.8486 0.95597 0.9706 0.0
C578 C 0.82804 0.98329 0.96754 0.0
C579 C 0.84052 0.01057 0.95048 0.0
C580 C 0.87345 0.01 0.93606 0.0
C581 C 0.89366 0.9833 0.93781 0.0
C582 C 0.92805 0.98899 0.91984 0.0
C583 C 0.95735 0.98485 0.94735 0.0
C584 C 0.93279 0.96739 0.88662 0.0
C585 C 0.92423 0.0232 0.9084 0.0
C586 C 0.89266 0.03496 0.91837 0.0
C587 C 0.88412 0.06659 0.91321 0.0
C588 C 0.90846 0.08671 0.89733 0.0
C589 C 0.9406 0.07496 0.88614 0.0
C590 C 0.94844 0.04277 0.89153 0.0
H591 H 0.13382 0.07566 0.4623 0.0
H592 H 0.22415 0.02265 0.4924 0.0
H593 H 0.19891 0.97446 0.46557 0.0
H594 H 0.07233 0.01507 0.47925 0.0
H595 H 0.04601 0.02453 0.44048 0.0
H596 H 0.07117 0.05485 0.46191 0.0
H597 H 0.10016 0.06759 0.40011 0.0
H598 H 0.07496 0.03741 0.37845 0.0
H599 H 0.12089 0.03647 0.37505 0.0
H600 H 0.16187 0.93122 0.43945 0.0
H601 H 0.11847 0.89738 0.4097 0.0
H602 H 0.05434 0.97935 0.39212 0.0
C603 C 0.14828 0.0539 0.46297 0.0
C604 C 0.18092 0.05276 0.47932 0.0
C605 C 0.19923 0.02398 0.47968 0.0
C606 C 0.18502 0.9965 0.4647 0.0
C607 C 0.15267 0.99831 0.44899 0.0
C608 C 0.13474 0.02637 0.44748 0.0
C609 C 0.10076 0.02202 0.42831 0.0
C610 C 0.0708 0.02956 0.45403 0.0
C611 C 0.09912 0.04206 0.39341 0.0
C612 C 0.10226 0.98712 0.41959 0.0
C613 C 0.13221 0.97376 0.43218 0.0
C614 C 0.13855 0.9415 0.429 0.0
C615 C 0.11376 0.92246 0.41222 0.0
C616 C 0.08336 0.93585 0.39822 0.0
C617 C 0.07767 0.9686 0.40197 0.0
H618 H 0.16362 0.97819 0.99647 0.0
H619 H 0.16386 0.91036 0.90745 0.0
H620 H 0.13749 0.94983 0.86781 0.0
H621 H 0.07946 1.00493 0.97785 0.0
H622 H 0.08768 0.04515 0.99107 0.0
H623 H 0.11175 0.01354 0.0114 0.0
H624 H 0.16818 0.04032 0.99114 0.0
H625 H 0.14425 0.07202 0.97068 0.0
H626 H 0.1745 0.05003 0.94377 0.0
H627 H 0.10855 0.99545 0.83796 0.0
H628 H 0.07504 0.04223 0.82132 0.0
H629 H 0.08576 0.07835 0.93141 0.0
C630 C 0.15816 0.97117 0.96879 0.0
C631 C 0.16659 0.94058 0.95561 0.0
C632 C 0.15912 0.93351 0.91861 0.0
C633 C 0.14364 0.95583 0.89569 0.0
C634 C 0.13499 0.98514 0.91001 0.0
C635 C 0.14162 0.99278 0.9458 0.0
C636 C 0.12673 0.02486 0.9553 0.0
C637 C 0.09981 0.02193 0.9857 0.0
C638 C 0.15511 0.04819 0.96584 0.0
C639 C 0.11041 0.03391 0.91926 0.0
C640 C 0.11617 0.01085 0.89339 0.0
C641 C 0.10388 0.01364 0.85799 0.0
C642 C 0.08489 0.04047 0.84881 0.0
C643 C 0.07764 0.06413 0.87502 0.0
C644 C 0.09078 0.06074 0.91076 0.0
H645 H 0.87632 0.03993 0.50838 0.0
H646 H 0.8548 0.09502 0.41069 0.0
H647 H 0.87599 0.05237 0.37318 0.0
H648 H 0.95804 0.01445 0.47345 0.0
H649 H 0.95636 0.97613 0.49469 0.0
H650 H 0.93449 0.00897 0.51523 0.0
H651 H 0.87794 0.9772 0.51427 0.0
H652 H 0.89961 0.94438 0.49334 0.0
H653 H 0.86257 0.96135 0.47177 0.0
H654 H 0.8984 1.00505 0.34497 0.0
H655 H 0.93221 0.95932 0.32699 0.0
H656 H 0.94986 0.93643 0.44104 0.0
C657 C 0.87588 0.04319 0.47916 0.0
C658 C 0.86162 0.07074 0.46304 0.0
C659 C 0.86279 0.07373 0.42444 0.0
C660 C 0.8754 0.04961 0.40249 0.0
C661 C 0.8883 0.02281 0.41916 0.0
C662 C 0.8898 0.01968 0.45652 0.0
C663 C 0.90913 0.98981 0.46687 0.0
C664 C 0.94142 0.99783 0.48886 0.0
C665 C 0.88592 0.96683 0.48781 0.0
C666 C 0.91815 0.97699 0.42935 0.0
C667 C 0.90494 0.99623 0.40247 0.0
C668 C 0.90922 0.98987 0.36568 0.0
C669 C 0.92855 0.96366 0.35579 0.0
C670 C 0.94422 0.94427 0.38253 0.0
C671 C 0.93832 0.95073 0.41993 0.0
H672 H 0.3672 0.43101 0.11353 0.0
H673 H 0.33118 0.33454 0.10311 0.0
H674 H 0.3612 0.32054 0.16005 0.0
H675 H 0.45152 0.41086 0.14687 0.0
H676 H 0.45352 0.44437 0.17693 0.0
H677 H 0.42888 0.44656 0.13559 0.0
H678 H 0.37541 0.46221 0.17315 0.0
H679 H 0.39977 0.45972 0.21465 0.0
H680 H 0.36116 0.43693 0.20968 0.0
H681 H 0.39436 0.31747 0.21895 0.0
H682 H 0.43103 0.32459 0.27298 0.0
H683 H 0.44701 0.42265 0.24305 0.0
C684 C 0.36602 0.40677 0.12274 0.0
C685 C 0.34672 0.38389 0.1037 0.0
C686 C 0.34538 0.35262 0.11739 0.0
C687 C 0.36247 0.3444 0.14964 0.0
C688 C 0.38096 0.36766 0.1678 0.0
C689 C 0.3831 0.39812 0.15463 0.0
C690 C 0.40498 0.41864 0.17899 0.0
C691 C 0.4366 0.43081 0.15836 0.0
C692 C 0.38407 0.44598 0.19507 0.0
C693 C 0.41474 0.39499 0.20807 0.0
C694 C 0.40049 0.36576 0.20125 0.0
C695 C 0.40575 0.34022 0.22448 0.0
C696 C 0.42655 0.34456 0.25519 0.0
C697 C 0.44202 0.37418 0.26229 0.0
C698 C 0.43566 0.39971 0.23845 0.0
H699 H 0.66101 0.66381 0.613 0.0
H700 H 0.67483 0.56293 0.60046 0.0
H701 H 0.64874 0.55399 0.66074 0.0
H702 H 0.67627 0.66716 0.71181 0.0
H703 H 0.64339 0.69608 0.71979 0.0
H704 H 0.66554 0.69523 0.67672 0.0
H705 H 0.60777 0.69013 0.64281 0.0
H706 H 0.58549 0.69118 0.68573 0.0
H707 H 0.57888 0.65867 0.65495 0.0
H708 H 0.61914 0.55516 0.71984 0.0
H709 H 0.58405 0.56607 0.77404 0.0
H710 H 0.58785 0.66627 0.7499 0.0
C711 C 0.65875 0.63995 0.62328 0.0
C712 C 0.66978 0.614 0.60218 0.0
C713 C 0.6662 0.58304 0.61614 0.0
C714 C 0.65169 0.57776 0.65042 0.0
C715 C 0.64079 0.60369 0.67048 0.0
C716 C 0.64386 0.63418 0.65751 0.0
C717 C 0.62789 0.6575 0.68389 0.0
C718 C 0.65489 0.68034 0.69895 0.0
C719 C 0.59825 0.67542 0.66576 0.0
C720 C 0.61504 0.63522 0.71335 0.0
C721 C 0.62317 0.60435 0.70505 0.0
C722 C 0.61281 0.57923 0.72685 0.0
C723 C 0.59286 0.58568 0.75755 0.0
C724 C 0.58338 0.61699 0.76628 0.0
C725 C 0.59524 0.64216 0.74426 0.0
H726 H 0.64081 0.34454 0.10325 0.0
H727 H 0.70767 0.42457 0.12093 0.0
H728 H 0.68533 0.43008 0.18359 0.0
H729 H 0.57017 0.37621 0.14707 0.0
H730 H 0.55518 0.33992 0.16713 0.0
H731 H 0.57989 0.33898 0.12579 0.0
H732 H 0.62366 0.3015 0.15622 0.0
H733 H 0.59889 0.30212 0.19766 0.0
H734 H 0.64347 0.31283 0.19856 0.0
H735 H 0.65136 0.43102 0.24096 0.0
H736 H 0.60856 0.42685 0.29008 0.0
H737 H 0.56304 0.34614 0.23598 0.0
C738 C 0.65147 0.36251 0.12083 0.0
C739 C 0.67626 0.38391 0.10756 0.0
C740 C 0.68887 0.40784 0.1308 0.0
C741 C 0.67637 0.4111 0.16639 0.0
C742 C 0.65123 0.39022 0.17838 0.0
C743 C 0.63902 0.36624 0.15646 0.0
C744 C 0.60987 0.3488 0.17496 0.0
C745 C 0.57683 0.35114 0.15239 0.0
C746 C 0.61956 0.31426 0.18229 0.0
C747 C 0.60702 0.36728 0.21021 0.0
C748 C 0.63136 0.39086 0.21171 0.0
C749 C 0.63251 0.41234 0.24037 0.0
C750 C 0.60797 0.40987 0.26807 0.0
C751 C 0.58252 0.3861 0.26702 0.0
C752 C 0.58247 0.36426 0.23789 0.0
H753 H 0.38027 0.66996 0.60779 0.0
H754 H 0.32081 0.5841 0.61748 0.0
H755 H 0.34397 0.57556 0.67945 0.0
H756 H 0.45381 0.64014 0.6483 0.0
H757 H 0.4657 0.67599 0.67138 0.0
H758 H 0.4409 0.67783 0.6302 0.0
H759 H 0.39412 0.70993 0.66363 0.0
H760 H 0.41894 0.7084 0.70493 0.0
H761 H 0.37542 0.69445 0.70485 0.0
H762 H 0.37735 0.57399 0.73782 0.0
H763 H 0.41898 0.57884 0.78791 0.0
H764 H 0.45798 0.66522 0.7395 0.0
C765 C 0.37136 0.64992 0.62349 0.0
C766 C 0.34837 0.62791 0.60824 0.0
C767 C 0.33817 0.60133 0.62894 0.0
C768 C 0.35114 0.59635 0.66411 0.0
C769 C 0.3744 0.61812 0.67809 0.0
C770 C 0.38438 0.64442 0.65846 0.0
C771 C 0.41195 0.66267 0.67836 0.0
C772 C 0.44504 0.66423 0.65571 0.0
C773 C 0.39934 0.69583 0.68855 0.0
C774 C 0.41641 0.6422 0.71188 0.0
C775 C 0.39423 0.61683 0.7114 0.0
C776 C 0.3946 0.59393 0.73866 0.0
C777 C 0.41844 0.59687 0.76698 0.0
C778 C 0.44186 0.6224 0.76775 0.0
C779 C 0.44037 0.64551 0.73993 0.0
H780 H 0.87906 0.8522 0.07759 0.0
H781 H 0.82517 0.9389 0.10169 0.0
H782 H 0.85059 0.93975 0.16328 0.0
H783 H 0.87288 0.81797 0.17084 0.0
H784 H 0.91512 0.80114 0.16896 0.0
H785 H 0.89055 0.8057 0.12776 0.0
H786 H 0.93997 0.83784 0.09888 0.0
H787 H 0.96461 0.83345 0.13996 0.0
H788 H 0.95594 0.87225 0.12212 0.0
H789 H 0.88602 0.93478 0.21877 0.0
H790 H 0.9279 0.92278 0.26712 0.0
H791 H 0.95767 0.83768 0.21011 0.0
C792 C 0.8722 0.87089 0.09628 0.0
C793 C 0.84997 0.89538 0.08534 0.0
C794 C 0.84194 0.91987 0.10996 0.0
C795 C 0.85623 0.92052 0.14489 0.0
C796 C 0.87841 0.89635 0.15489 0.0
C797 C 0.88622 0.8718 0.13156 0.0
C798 C 0.91212 0.84968 0.14888 0.0
C799 C 0.89674 0.81666 0.15444 0.0
C800 C 0.94511 0.84824 0.1261 0.0
C801 C 0.91813 0.86606 0.18512 0.0
C802 C 0.89833 0.89294 0.18787 0.0
C803 C 0.90114 0.91347 0.21731 0.0
C804 C 0.92499 0.90653 0.24458 0.0
C805 C 0.94539 0.87909 0.24256 0.0
C806 C 0.94162 0.85835 0.21269 0.0
H807 H 0.15296 0.08437 0.59529 0.0
H808 H 0.19297 0.17877 0.57777 0.0
H809 H 0.16528 0.19622 0.63487 0.0
H810 H 0.07078 0.10906 0.62832 0.0
H811 H 0.06748 0.07704 0.66048 0.0
H812 H 0.09171 0.07206 0.61918 0.0
H813 H 0.14473 0.0561 0.65724 0.0
H814 H 0.12075 0.06133 0.6987 0.0
H815 H 0.1603 0.08238 0.69205 0.0
H816 H 0.13267 0.20314 0.69453 0.0
H817 H 0.0954 0.19979 0.74883 0.0
H818 H 0.07478 0.10143 0.72457 0.0
C819 C 0.15559 0.10889 0.60291 0.0
C820 C 0.17519 0.13018 0.58165 0.0
C821 C 0.1785 0.16183 0.5936 0.0
C822 C 0.16272 0.17202 0.62598 0.0
C823 C 0.14358 0.15033 0.64609 0.0
C824 C 0.13978 0.1195 0.63478 0.0
C825 C 0.11714 0.10095 0.66056 0.0
C826 C 0.08487 0.08909 0.64096 0.0
C827 C 0.13692 0.07357 0.67818 0.0
C828 C 0.10864 0.12618 0.68821 0.0
C829 C 0.12435 0.15445 0.67965 0.0
C830 C 0.12021 0.18112 0.70139 0.0
C831 C 0.09905 0.17895 0.73227 0.0
C832 C 0.08201 0.15037 0.74099 0.0
C833 C 0.08731 0.12366 0.7187 0.0
H834 H 0.14331 0.84799 0.0789 0.0
H835 H 0.19495 0.93779 0.09122 0.0
H836 H 0.17469 0.94103 0.15505 0.0
H837 H 0.06939 0.86962 0.12718 0.0
H838 H 0.06255 0.83152 0.14776 0.0
H839 H 0.08441 0.83447 0.10475 0.0
H840 H 0.13608 0.8042 0.13168 0.0
H841 H 0.11434 0.80119 0.17487 0.0
H842 H 0.15632 0.8186 0.17251 0.0
H843 H 0.14617 0.936 0.21585 0.0
H844 H 0.1084 0.92513 0.26811 0.0
H845 H 0.07351 0.83919 0.21565 0.0
C846 C 0.15092 0.86795 0.0954 0.0
C847 C 0.17104 0.89248 0.08053 0.0
C848 C 0.17971 0.91874 0.10238 0.0
C849 C 0.16846 0.92068 0.1386 0.0
C850 C 0.14838 0.89624 0.1524 0.0
C851 C 0.1395 0.87045 0.13144 0.0
C852 C 0.11522 0.84881 0.15179 0.0
C853 C 0.08086 0.84596 0.13167 0.0
C854 C 0.13148 0.81627 0.15809 0.0
C855 C 0.11139 0.86671 0.18725 0.0
C856 C 0.13112 0.89376 0.18721 0.0
C857 C 0.13079 0.91478 0.2163 0.0
C858 C 0.10919 0.90838 0.24589 0.0
C859 C 0.08788 0.88129 0.24608 0.0
C860 C 0.08963 0.85994 0.21657 0.0
H861 H 0.86572 0.09083 0.59639 0.0
H862 H 0.86211 0.18995 0.56594 0.0
H863 H 0.88534 0.20433 0.62546 0.0
H864 H 0.84814 0.1002 0.69387 0.0
H865 H 0.87882 0.07077 0.70741 0.0
H866 H 0.85763 0.06767 0.66397 0.0
H867 H 0.91626 0.06552 0.63123 0.0
H868 H 0.93757 0.06833 0.67455 0.0
H869 H 0.947 0.09647 0.63907 0.0
H870 H 0.91165 0.20874 0.68601 0.0
H871 H 0.94507 0.20258 0.74223 0.0
H872 H 0.93634 0.10075 0.73356 0.0
C873 C 0.86962 0.11558 0.60221 0.0
C874 C 0.8609 0.13919 0.57641 0.0
C875 C 0.86693 0.17128 0.58537 0.0
C876 C 0.88047 0.1798 0.61919 0.0
C877 C 0.88849 0.15605 0.64387 0.0
C878 C 0.88377 0.12457 0.63577 0.0
C879 C 0.89762 0.10377 0.6661 0.0
C880 C 0.86883 0.08446 0.68389 0.0
C881 C 0.92632 0.08226 0.65188 0.0
C882 C 0.91136 0.12858 0.69207 0.0
C883 C 0.90521 0.15855 0.6788 0.0
C884 C 0.91652 0.18542 0.69681 0.0
C885 C 0.93553 0.18164 0.72874 0.0
C886 C 0.94336 0.1512 0.74233 0.0
C887 C 0.93037 0.12432 0.72415 0.0
loop_
_geom_bond_atom_site_label_1
_geom_bond_atom_site_label_2
_geom_bond_distance
_geom_bond_site_symmetry_2
_ccdc_geom_bond_type
H0 C1 0.949 . S
C1 H0 0.949 . S
C1 C2 1.398 . S
C1 C3 1.391 1_556 S
C2 C1 1.398 . S
C2 C5 1.366 1_556 S
C3 C1 1.391 1_554 S
C3 C7 1.387 . S
C3 C8 1.491 . S
H4 C5 0.950 . S
C5 C2 1.366 1_554 S
C5 H4 0.950 . S
C5 C6 1.378 . S
C6 C5 1.378 . S
C6 C7 1.409 . S
C7 C3 1.387 . S
C7 C6 1.409 . S
C7 H9 0.951 . S
C8 C3 1.491 . S
C8 C10 1.382 1_554 S
C8 C12 1.404 . S
H9 C7 0.951 . S
C10 C8 1.382 1_556 S
C10 C11 1.390 . S
C10 H15 0.949 . S
C11 C10 1.390 . S
C11 C16 1.399 1_556 S
C12 C8 1.404 . S
C12 H13 0.950 . S
C12 C14 1.375 . S
H13 C12 0.950 . S
C14 C12 1.375 . S
C14 C16 1.382 . S
C14 H18 0.950 . S
H15 C10 0.949 . S
C16 C11 1.399 1_554 S
C16 C14 1.382 . S
C16 H17 0.952 . S
H17 C16 0.952 . S
H18 C14 0.950 . S
H19 C20 0.949 . S
C20 H19 0.949 . S
C20 C21 1.395 . S
C20 C22 1.391 . S
C21 C20 1.395 . S
C21 C24 1.390 . S
C22 C20 1.391 . S
C22 C26 1.387 . S
C22 C27 1.491 . S
H23 C24 0.950 . S
C24 C21 1.390 . S
C24 H23 0.950 . S
C24 C25 1.378 . S
C25 C24 1.378 . S
C25 C26 1.409 . S
C26 C22 1.387 . S
C26 C25 1.409 . S
C26 H28 0.951 . S
C27 C22 1.491 . S
C27 C29 1.382 . S
C27 C31 1.404 . S
H28 C26 0.951 . S
C29 C27 1.382 . S
C29 C30 1.390 . S
C29 H34 0.949 . S
C30 C29 1.390 . S
C30 C35 1.399 . S
C31 C27 1.404 . S
C31 H32 0.950 . S
C31 C33 1.375 . S
H32 C31 0.950 . S
C33 C31 1.375 . S
C33 C35 1.382 . S
C33 H37 0.950 . S
H34 C29 0.949 . S
C35 C30 1.399 . S
C35 C33 1.382 . S
C35 H36 0.952 . S
H36 C35 0.952 . S
H37 C33 0.950 . S
H38 C39 0.949 . S
C39 H38 0.949 . S
C39 C40 1.395 . S
C39 C41 1.391 1_556 S
C40 C39 1.395 . S
C40 C43 1.390 1_556 S
C41 C39 1.391 1_554 S
C41 C45 1.387 . S
C41 C46 1.491 . S
H42 C43 0.950 . S
C43 C40 1.390 1_554 S
C43 H42 0.950 . S
C43 C44 1.378 . S
C44 C43 1.378 . S
C44 C45 1.409 . S
C45 C41 1.387 . S
C45 C44 1.409 . S
C45 H47 0.951 . S
C46 C41 1.491 . S
C46 C48 1.382 1_554 S
C46 C50 1.404 . S
H47 C45 0.951 . S
C48 C46 1.382 1_556 S
C48 C49 1.390 . S
C48 H53 0.949 . S
C49 C48 1.390 . S
C49 C54 1.399 . S
C50 C46 1.404 . S
C50 H51 0.950 . S
C50 C52 1.375 . S
H51 C50 0.950 . S
C52 C50 1.375 . S
C52 C54 1.382 1_554 S
C52 H56 0.950 . S
H53 C48 0.949 . S
C54 C49 1.399 . S
C54 C52 1.382 1_556 S
C54 H55 0.952 . S
H55 C54 0.952 . S
H56 C52 0.950 . S
H57 C58 0.949 . S
C58 H57 0.949 . S
C58 C59 1.395 . S
C58 C60 1.391 . S
C59 C58 1.395 . S
C59 C62 1.390 . S
C60 C58 1.391 . S
C60 C64 1.387 . S
C60 C65 1.491 . S
H61 C62 0.950 . S
C62 C59 1.390 . S
C62 H61 0.950 . S
C62 C63 1.378 . S
C63 C62 1.378 . S
C63 C64 1.409 . S
C64 C60 1.387 . S
C64 C63 1.409 . S
C64 H66 0.951 . S
C65 C60 1.491 . S
C65 C67 1.382 . S
C65 C69 1.404 . S
H66 C64 0.951 . S
C67 C65 1.382 . S
C67 C68 1.390 . S
C67 H72 0.949 . S
C68 C67 1.390 . S
C68 C73 1.399 . S
C69 C65 1.404 . S
C69 H70 0.950 . S
C69 C71 1.375 . S
H70 C69 0.950 . S
C71 C69 1.375 . S
C71 C73 1.382 . S
C71 H75 0.950 . S
H72 C67 0.949 . S
C73 C68 1.399 . S
C73 C71 1.382 . S
C73 H74 0.952 . S
H74 C73 0.952 . S
H75 C71 0.950 . S
H76 C77 0.949 . S
C77 H76 0.949 . S
C77 C78 1.398 . S
C77 C79 1.391 1_556 S
C78 C77 1.398 . S
C78 C81 1.366 1_556 S
C79 C77 1.391 1_554 S
C79 C83 1.387 . S
C79 C84 1.491 . S
H80 C81 0.950 . S
C81 C78 1.366 1_554 S
C81 H80 0.950 . S
C81 C82 1.378 . S
C82 C81 1.378 . S
C82 C83 1.409 . S
C83 C79 1.387 . S
C83 C82 1.409 . S
C83 H85 0.951 . S
C84 C79 1.491 . S
C84 C86 1.382 1_554 S
C84 C88 1.404 . S
H85 C83 0.951 . S
C86 C84 1.382 1_556 S
C86 C87 1.390 . S
C86 H91 0.949 . S
C87 C86 1.390 . S
C87 C92 1.399 1_556 S
C88 C84 1.404 . S
C88 H89 0.950 . S
C88 C90 1.375 . S
H89 C88 0.950 . S
C90 C88 1.375 . S
C90 C92 1.382 . S
C90 H94 0.950 . S
H91 C86 0.949 . S
C92 C87 1.399 1_554 S
C92 C90 1.382 . S
C92 H93 0.952 . S
H93 C92 0.952 . S
H94 C90 0.950 . S
H95 C96 0.949 . S
C96 H95 0.949 . S
C96 C97 1.395 . S
C96 C98 1.391 . S
C97 C96 1.395 . S
C97 C100 1.390 . S
C98 C96 1.391 . S
C98 C102 1.387 . S
C98 C103 1.491 . S
H99 C100 0.950 . S
C100 C97 1.390 . S
C100 H99 0.950 . S
C100 C101 1.378 . S
C101 C100 1.378 . S
C101 C102 1.409 . S
C102 C98 1.387 . S
C102 C101 1.409 . S
C102 H104 0.951 . S
C103 C98 1.491 . S
C103 C105 1.382 . S
C103 C107 1.404 . S
H104 C102 0.951 . S
C105 C103 1.382 . S
C105 C106 1.390 . S
C105 H110 0.949 . S
C106 C105 1.390 . S
C106 C111 1.399 . S
C107 C103 1.404 . S
C107 H108 0.950 . S
C107 C109 1.375 . S
H108 C107 0.950 . S
C109 C107 1.375 . S
C109 C111 1.382 . S
C109 H113 0.950 . S
H110 C105 0.949 . S
C111 C106 1.399 . S
C111 C109 1.382 . S
C111 H112 0.952 . S
H112 C111 0.952 . S
H113 C109 0.950 . S
H114 C115 0.949 . S
C115 H114 0.949 . S
C115 C116 1.395 . S
C115 C117 1.391 1_556 S
C116 C115 1.395 . S
C116 C119 1.390 1_556 S
C117 C115 1.391 1_554 S
C117 C121 1.387 . S
C117 C122 1.491 . S
H118 C119 0.950 . S
C119 C116 1.390 1_554 S
C119 H118 0.950 . S
C119 C120 1.378 . S
C120 C119 1.378 . S
C120 C121 1.409 . S
C121 C117 1.387 . S
C121 C120 1.409 . S
C121 H123 0.951 . S
C122 C117 1.491 . S
C122 C124 1.382 1_554 S
C122 C126 1.404 . S
H123 C121 0.951 . S
C124 C122 1.382 1_556 S
C124 C125 1.390 . S
C124 H129 0.949 . S
C125 C124 1.390 . S
C125 C130 1.399 . S
C126 C122 1.404 . S
C126 H127 0.950 . S
C126 C128 1.375 . S
H127 C126 0.950 . S
C128 C126 1.375 . S
C128 C130 1.382 1_554 S
C128 H132 0.950 . S
H129 C124 0.949 . S
C130 C125 1.399 . S
C130 C128 1.382 1_556 S
C130 H131 0.952 . S
H131 C130 0.952 . S
H132 C128 0.950 . S
H133 C134 0.949 . S
C134 H133 0.949 . S
C134 C135 1.395 . S
C134 C136 1.391 . S
C135 C134 1.395 . S
C135 C138 1.390 . S
C136 C134 1.391 . S
C136 C140 1.387 . S
C136 C141 1.491 . S
H137 C138 0.950 . S
C138 C135 1.390 . S
C138 H137 0.950 . S
C138 C139 1.378 . S
C139 C138 1.378 . S
C139 C140 1.409 . S
C140 C136 1.387 . S
C140 C139 1.409 . S
C140 H142 0.951 . S
C141 C136 1.491 . S
C141 C143 1.382 . S
C141 C145 1.404 . S
H142 C140 0.951 . S
C143 C141 1.382 . S
C143 C144 1.390 . S
C143 H148 0.949 . S
C144 C143 1.390 . S
C144 C149 1.399 . S
C145 C141 1.404 . S
C145 H146 0.950 . S
C145 C147 1.375 . S
H146 C145 0.950 . S
C147 C145 1.375 . S
C147 C149 1.382 . S
C147 H151 0.950 . S
H148 C143 0.949 . S
C149 C144 1.399 . S
C149 C147 1.382 . S
C149 H150 0.952 . S
H150 C149 0.952 . S
H151 C147 0.950 . S
Fe152 O154 1.918 . S
Fe152 O157 1.997 1_455 S
Fe152 O158 2.002 1_455 S
Fe152 O163 1.976 . S
Fe152 O166 1.996 . S
Fe153 O154 1.918 . S
Fe153 O161 1.997 1_455 S
Fe153 O164 1.996 . S
Fe153 O168 1.976 . S
Fe153 O171 2.002 1_455 S
O154 Fe152 1.918 . S
O154 Fe153 1.918 . S
O154 Fe155 1.918 . S
Fe155 O154 1.918 . S
Fe155 O156 2.002 1_455 S
Fe155 O165 1.976 . S
Fe155 O169 1.996 . S
Fe155 O172 1.997 1_455 S
O156 Fe155 2.002 1_655 S
O156 C173 1.295 . S
O157 Fe152 1.997 1_655 S
O157 C173 1.235 . S
O158 Fe152 2.002 1_655 S
O158 C159 1.295 . S
C159 O158 1.295 . S
C159 O161 1.235 . S
C160 O165 1.287 . S
C160 O166 1.255 . S
O161 Fe153 1.997 1_655 S
O161 C159 1.235 . S
C162 O168 1.287 . S
C162 O169 1.255 . S
O163 Fe152 1.976 . S
O163 C170 1.287 . S
O164 Fe153 1.996 . S
O164 C170 1.255 . S
O165 Fe155 1.976 . S
O165 C160 1.287 . S
O166 Fe152 1.996 . S
O166 C160 1.255 . S
C167 O171 1.295 . S
C167 O172 1.235 . S
O168 Fe153 1.976 . S
O168 C162 1.287 . S
O169 Fe155 1.996 . S
O169 C162 1.255 . S
C170 O163 1.287 . S
C170 O164 1.255 . S
O171 Fe153 2.002 1_655 S
O171 C167 1.295 . S
O172 Fe155 1.997 1_655 S
O172 C167 1.235 . S
C173 O156 1.295 . S
C173 O157 1.235 . S
Fe174 O176 1.918 . S
Fe174 O179 1.997 1_655 S
Fe174 O180 2.002 1_655 S
Fe174 O185 1.976 . S
Fe174 O188 1.996 . S
Fe175 O176 1.918 . S
Fe175 O183 1.997 1_655 S
Fe175 O186 1.996 . S
Fe175 O190 1.976 . S
Fe175 O193 2.002 1_655 S
O176 Fe174 1.918 . S
O176 Fe175 1.918 . S
O176 Fe177 1.918 . S
Fe177 O176 1.918 . S
Fe177 O178 2.002 1_655 S
Fe177 O187 1.976 . S
Fe177 O191 1.996 . S
Fe177 O194 1.997 1_655 S
O178 Fe177 2.002 1_455 S
O178 C195 1.295 . S
O179 Fe174 1.997 1_455 S
O179 C195 1.235 . S
O180 Fe174 2.002 1_455 S
O180 C181 1.295 . S
C181 O180 1.295 . S
C181 O183 1.235 . S
C182 O187 1.287 . S
C182 O188 1.255 . S
O183 Fe175 1.997 1_455 S
O183 C181 1.235 . S
C184 O190 1.287 . S
C184 O191 1.255 . S
O185 Fe174 1.976 . S
O185 C192 1.287 . S
O186 Fe175 1.996 . S
O186 C192 1.255 . S
O187 Fe177 1.976 . S
O187 C182 1.287 . S
O188 Fe174 1.996 . S
O188 C182 1.255 . S
C189 O193 1.295 . S
C189 O194 1.235 . S
O190 Fe175 1.976 . S
O190 C184 1.287 . S
O191 Fe177 1.996 . S
O191 C184 1.255 . S
C192 O185 1.287 . S
C192 O186 1.255 . S
O193 Fe175 2.002 1_455 S
O193 C189 1.295 . S
O194 Fe177 1.997 1_455 S
O194 C189 1.235 . S
C195 O178 1.295 . S
C195 O179 1.235 . S
Fe196 O198 1.918 . S
Fe196 O201 1.997 . S
Fe196 O202 2.002 . S
Fe196 O207 1.976 . S
Fe196 O210 1.996 . S
Fe197 O198 1.918 . S
Fe197 O205 1.997 . S
Fe197 O208 1.996 . S
Fe197 O212 1.976 . S
Fe197 O215 2.002 . S
O198 Fe196 1.918 . S
O198 Fe197 1.918 . S
O198 Fe199 1.918 . S
Fe199 O198 1.918 . S
Fe199 O200 2.002 . S
Fe199 O209 1.976 . S
Fe199 O213 1.996 . S
Fe199 O216 1.997 . S
O200 Fe199 2.002 . S
O200 C217 1.295 . S
O201 Fe196 1.997 . S
O201 C217 1.235 . S
O202 Fe196 2.002 . S
O202 C203 1.295 . S
C203 O202 1.295 . S
C203 O205 1.235 . S
C204 O209 1.287 . S
C204 O210 1.255 . S
O205 Fe197 1.997 . S
O205 C203 1.235 . S
C206 O212 1.287 . S
C206 O213 1.255 . S
O207 Fe196 1.976 . S
O207 C214 1.287 . S
O208 Fe197 1.996 . S
O208 C214 1.255 . S
O209 Fe199 1.976 . S
O209 C204 1.287 . S
O210 Fe196 1.996 . S
O210 C204 1.255 . S
C211 O215 1.295 . S
C211 O216 1.235 . S
O212 Fe197 1.976 . S
O212 C206 1.287 . S
O213 Fe199 1.996 . S
O213 C206 1.255 . S
C214 O207 1.287 . S
C214 O208 1.255 . S
O215 Fe197 2.002 . S
O215 C211 1.295 . S
O216 Fe199 1.997 . S
O216 C211 1.235 . S
C217 O200 1.295 . S
C217 O201 1.235 . S
Fe218 O220 1.918 . S
Fe218 O223 1.997 . S
Fe218 O224 2.002 . S
Fe218 O229 1.976 . S
Fe218 O232 1.996 . S
Fe219 O220 1.918 . S
Fe219 O227 1.997 . S
Fe219 O230 1.996 . S
Fe219 O234 1.976 . S
Fe219 O237 2.002 . S
O220 Fe218 1.918 . S
O220 Fe219 1.918 . S
O220 Fe221 1.918 . S
Fe221 O220 1.918 . S
Fe221 O222 2.002 . S
Fe221 O231 1.976 . S
Fe221 O235 1.996 . S
Fe221 O238 1.997 . S
O222 Fe221 2.002 . S
O222 C239 1.295 . S
O223 Fe218 1.997 . S
O223 C239 1.235 . S
O224 Fe218 2.002 . S
O224 C225 1.295 . S
C225 O224 1.295 . S
C225 O227 1.235 . S
C226 O231 1.287 . S
C226 O232 1.255 . S
O227 Fe219 1.997 . S
O227 C225 1.235 . S
C228 O234 1.287 . S
C228 O235 1.255 . S
O229 Fe218 1.976 . S
O229 C236 1.287 . S
O230 Fe219 1.996 . S
O230 C236 1.255 . S
O231 Fe221 1.976 . S
O231 C226 1.287 . S
O232 Fe218 1.996 . S
O232 C226 1.255 . S
C233 O237 1.295 . S
C233 O238 1.235 . S
O234 Fe219 1.976 . S
O234 C228 1.287 . S
O235 Fe221 1.996 . S
O235 C228 1.255 . S
C236 O229 1.287 . S
C236 O230 1.255 . S
O237 Fe219 2.002 . S
O237 C233 1.295 . S
O238 Fe221 1.997 . S
O238 C233 1.235 . S
C239 O222 1.295 . S
C239 O223 1.235 . S
H240 C252 0.930 . S
H241 C254 0.930 . S
H242 C255 0.930 . S
H243 C259 0.959 . S
H244 C259 0.959 . S
H245 C259 0.961 1_554 S
H246 C260 0.960 1_554 S
H247 C260 0.961 . S
H248 C260 0.959 . S
H249 C263 0.929 . S
H250 C264 0.931 . S
H251 C266 0.930 . S
C252 H240 0.930 . S
C252 C253 1.399 . S
C252 C257 1.399 . S
C253 C252 1.399 . S
C253 C254 1.376 . S
C254 H241 0.930 . S
C254 C253 1.376 . S
C254 C255 1.388 . S
C255 H242 0.930 . S
C255 C254 1.388 . S
C255 C256 1.390 . S
C256 C255 1.390 . S
C256 C257 1.394 . S
C256 C262 1.465 . S
C257 C252 1.399 . S
C257 C256 1.394 . S
C257 C258 1.516 . S
C258 C257 1.516 . S
C258 C259 1.502 . S
C258 C260 1.561 . S
C258 C261 1.526 . S
C259 H243 0.959 . S
C259 H244 0.959 . S
C259 H245 0.961 1_556 S
C259 C258 1.502 . S
C260 H246 0.960 1_556 S
C260 H247 0.961 . S
C260 H248 0.959 . S
C260 C258 1.561 . S
C261 C258 1.526 . S
C261 C262 1.396 . S
C261 C266 1.390 . S
C262 C256 1.465 . S
C262 C261 1.396 . S
C262 C263 1.399 . S
C263 H249 0.929 . S
C263 C262 1.399 . S
C263 C264 1.385 . S
C264 H250 0.931 . S
C264 C263 1.385 . S
C264 C265 1.389 . S
C265 C264 1.389 . S
C265 C266 1.387 . S
C266 H251 0.930 . S
C266 C261 1.390 . S
C266 C265 1.387 . S
H267 C279 0.930 . S
H268 C281 0.930 . S
H269 C282 0.930 . S
H270 C286 0.959 . S
H271 C286 0.959 . S
H272 C286 0.961 . S
H273 C287 0.960 . S
H274 C287 0.961 . S
H275 C287 0.959 . S
H276 C290 0.929 . S
H277 C291 0.931 . S
H278 C293 0.930 . S
C279 H267 0.930 . S
C279 C280 1.399 . S
C279 C284 1.399 . S
C280 C279 1.399 . S
C280 C281 1.376 . S
C281 H268 0.930 . S
C281 C280 1.376 . S
C281 C282 1.388 . S
C282 H269 0.930 . S
C282 C281 1.388 . S
C282 C283 1.390 . S
C283 C282 1.390 . S
C283 C284 1.394 . S
C283 C289 1.465 . S
C284 C279 1.399 . S
C284 C283 1.394 . S
C284 C285 1.516 . S
C285 C284 1.516 . S
C285 C286 1.502 . S
C285 C287 1.561 . S
C285 C288 1.526 . S
C286 H270 0.959 . S
C286 H271 0.959 . S
C286 H272 0.961 . S
C286 C285 1.502 . S
C287 H273 0.960 . S
C287 H274 0.961 . S
C287 H275 0.959 . S
C287 C285 1.561 . S
C288 C285 1.526 . S
C288 C289 1.396 . S
C288 C293 1.390 . S
C289 C283 1.465 . S
C289 C288 1.396 . S
C289 C290 1.399 . S
C290 H276 0.929 . S
C290 C289 1.399 . S
C290 C291 1.385 . S
C291 H277 0.931 . S
C291 C290 1.385 . S
C291 C292 1.389 . S
C292 C291 1.389 . S
C292 C293 1.387 . S
C293 H278 0.930 . S
C293 C288 1.390 . S
C293 C292 1.387 . S
H294 C306 0.930 . S
H295 C308 0.930 . S
H296 C309 0.930 . S
H297 C313 0.959 . S
H298 C313 0.959 . S
H299 C313 0.961 1_554 S
H300 C314 0.960 1_554 S
H301 C314 0.961 . S
H302 C314 0.959 . S
H303 C317 0.929 . S
H304 C318 0.931 . S
H305 C320 0.930 . S
C306 H294 0.930 . S
C306 C307 1.399 . S
C306 C311 1.399 . S
C307 C306 1.399 . S
C307 C308 1.376 . S
C308 H295 0.930 . S
C308 C307 1.376 . S
C308 C309 1.388 . S
C309 H296 0.930 . S
C309 C308 1.388 . S
C309 C310 1.390 . S
C310 C309 1.390 . S
C310 C311 1.394 . S
C310 C316 1.465 . S
C311 C306 1.399 . S
C311 C310 1.394 . S
C311 C312 1.516 . S
C312 C311 1.516 . S
C312 C313 1.502 . S
C312 C314 1.561 . S
C312 C315 1.526 . S
C313 H297 0.959 . S
C313 H298 0.959 . S
C313 H299 0.961 1_556 S
C313 C312 1.502 . S
C314 H300 0.960 1_556 S
C314 H301 0.961 . S
C314 H302 0.959 . S
C314 C312 1.561 . S
C315 C312 1.526 . S
C315 C316 1.396 . S
C315 C320 1.390 . S
C316 C310 1.465 . S
C316 C315 1.396 . S
C316 C317 1.399 . S
C317 H303 0.929 . S
C317 C316 1.399 . S
C317 C318 1.385 . S
C318 H304 0.931 . S
C318 C317 1.385 . S
C318 C319 1.389 . S
C319 C318 1.389 . S
C319 C320 1.387 . S
C320 H305 0.930 . S
C320 C315 1.390 . S
C320 C319 1.387 . S
H321 C333 0.930 . S
H322 C335 0.930 . S
H323 C336 0.930 . S
H324 C340 0.959 . S
H325 C340 0.959 . S
H326 C340 0.961 . S
H327 C341 0.960 . S
H328 C341 0.961 . S
H329 C341 0.959 . S
H330 C344 0.929 . S
H331 C345 0.931 . S
H332 C347 0.930 . S
C333 H321 0.930 . S
C333 C334 1.399 . S
C333 C338 1.399 . S
C334 C333 1.399 . S
C334 C335 1.376 . S
C335 H322 0.930 . S
C335 C334 1.376 . S
C335 C336 1.388 . S
C336 H323 0.930 . S
C336 C335 1.388 . S
C336 C337 1.390 . S
C337 C336 1.390 . S
C337 C338 1.394 . S
C337 C343 1.465 . S
C338 C333 1.399 . S
C338 C337 1.394 . S
C338 C339 1.516 . S
C339 C338 1.516 . S
C339 C340 1.502 . S
C339 C341 1.561 . S
C339 C342 1.526 . S
C340 H324 0.959 . S
C340 H325 0.959 . S
C340 H326 0.961 . S
C340 C339 1.502 . S
C341 H327 0.960 . S
C341 H328 0.961 . S
C341 H329 0.959 . S
C341 C339 1.561 . S
C342 C339 1.526 . S
C342 C343 1.396 . S
C342 C347 1.390 . S
C343 C337 1.465 . S
C343 C342 1.396 . S
C343 C344 1.399 . S
C344 H330 0.929 . S
C344 C343 1.399 . S
C344 C345 1.385 . S
C345 H331 0.931 . S
C345 C344 1.385 . S
C345 C346 1.389 . S
C346 C345 1.389 . S
C346 C347 1.387 . S
C347 H332 0.930 . S
C347 C342 1.390 . S
C347 C346 1.387 . S
H348 C360 0.930 . S
H349 C362 0.930 1_554 S
H350 C363 0.930 . S
H351 C367 0.959 . S
H352 C367 0.959 . S
H353 C367 0.961 . S
H354 C368 0.960 . S
H355 C368 0.961 . S
H356 C368 0.959 . S
H357 C371 0.929 . S
H358 C372 0.931 . S
H359 C374 0.930 . S
C360 H348 0.930 . S
C360 C361 1.399 . S
C360 C365 1.399 . S
C361 C360 1.399 . S
C361 C362 1.376 . S
C362 H349 0.930 1_556 S
C362 C361 1.376 . S
C362 C363 1.388 . S
C363 H350 0.930 . S
C363 C362 1.388 . S
C363 C364 1.390 . S
C364 C363 1.390 . S
C364 C365 1.394 . S
C364 C370 1.465 . S
C365 C360 1.399 . S
C365 C364 1.394 . S
C365 C366 1.516 . S
C366 C365 1.516 . S
C366 C367 1.502 . S
C366 C368 1.561 . S
C366 C369 1.526 . S
C367 H351 0.959 . S
C367 H352 0.959 . S
C367 H353 0.961 . S
C367 C366 1.502 . S
C368 H354 0.960 . S
C368 H355 0.961 . S
C368 H356 0.959 . S
C368 C366 1.561 . S
C369 C366 1.526 . S
C369 C370 1.396 . S
C369 C374 1.390 . S
C370 C364 1.465 . S
C370 C369 1.396 . S
C370 C371 1.399 . S
C371 H357 0.929 . S
C371 C370 1.399 . S
C371 C372 1.385 . S
C372 H358 0.931 . S
C372 C371 1.385 . S
C372 C373 1.389 . S
C373 C372 1.389 . S
C373 C374 1.387 . S
C374 H359 0.930 . S
C374 C369 1.390 . S
C374 C373 1.387 . S
H375 C387 0.930 . S
H376 C389 0.930 . S
H377 C390 0.930 . S
H378 C394 0.959 . S
H379 C394 0.959 . S
H380 C394 0.961 . S
H381 C395 0.960 . S
H382 C395 0.961 . S
H383 C395 0.959 . S
H384 C398 0.929 . S
H385 C399 0.931 . S
H386 C401 0.930 . S
C387 H375 0.930 . S
C387 C388 1.399 . S
C387 C392 1.399 . S
C388 C387 1.399 . S
C388 C389 1.376 . S
C389 H376 0.930 . S
C389 C388 1.376 . S
C389 C390 1.388 . S
C390 H377 0.930 . S
C390 C389 1.388 . S
C390 C391 1.390 . S
C391 C390 1.390 . S
C391 C392 1.394 . S
C391 C397 1.465 . S
C392 C387 1.399 . S
C392 C391 1.394 . S
C392 C393 1.516 . S
C393 C392 1.516 . S
C393 C394 1.502 . S
C393 C395 1.561 . S
C393 C396 1.526 . S
C394 H378 0.959 . S
C394 H379 0.959 . S
C394 H380 0.961 . S
C394 C393 1.502 . S
C395 H381 0.960 . S
C395 H382 0.961 . S
C395 H383 0.959 . S
C395 C393 1.561 . S
C396 C393 1.526 . S
C396 C397 1.396 . S
C396 C401 1.390 . S
C397 C391 1.465 . S
C397 C396 1.396 . S
C397 C398 1.399 . S
C398 H384 0.929 . S
C398 C397 1.399 . S
C398 C399 1.385 . S
C399 H385 0.931 . S
C399 C398 1.385 . S
C399 C400 1.389 . S
C400 C399 1.389 . S
C400 C401 1.387 . S
C401 H386 0.930 . S
C401 C396 1.390 . S
C401 C400 1.387 . S
H402 C414 0.930 . S
H403 C416 0.930 . S
H404 C417 0.930 . S
H405 C421 0.959 . S
H406 C421 0.959 . S
H407 C421 0.961 1_554 S
H408 C422 0.960 . S
H409 C422 0.961 . S
H410 C422 0.959 . S
H411 C425 0.929 . S
H412 C426 0.931 . S
H413 C428 0.930 . S
C414 H402 0.930 . S
C414 C415 1.399 . S
C414 C419 1.399 . S
C415 C414 1.399 . S
C415 C416 1.376 . S
C416 H403 0.930 . S
C416 C415 1.376 . S
C416 C417 1.388 . S
C417 H404 0.930 . S
C417 C416 1.388 . S
C417 C418 1.390 . S
C418 C417 1.390 . S
C418 C419 1.394 . S
C418 C424 1.465 . S
C419 C414 1.399 . S
C419 C418 1.394 . S
C419 C420 1.516 . S
C420 C419 1.516 . S
C420 C421 1.502 . S
C420 C422 1.561 . S
C420 C423 1.526 . S
C421 H405 0.959 . S
C421 H406 0.959 . S
C421 H407 0.961 1_556 S
C421 C420 1.502 . S
C422 H408 0.960 . S
C422 H409 0.961 . S
C422 H410 0.959 . S
C422 C420 1.561 . S
C423 C420 1.526 . S
C423 C424 1.396 . S
C423 C428 1.390 . S
C424 C418 1.465 . S
C424 C423 1.396 . S
C424 C425 1.399 . S
C425 H411 0.929 . S
C425 C424 1.399 . S
C425 C426 1.385 . S
C426 H412 0.931 . S
C426 C425 1.385 . S
C426 C427 1.389 . S
C427 C426 1.389 . S
C427 C428 1.387 . S
C428 H413 0.930 . S
C428 C423 1.390 . S
C428 C427 1.387 . S
H429 C441 0.930 . S
H430 C443 0.930 . S
H431 C444 0.930 . S
H432 C448 0.959 . S
H433 C448 0.959 . S
H434 C448 0.961 . S
H435 C449 0.960 . S
H436 C449 0.961 . S
H437 C449 0.959 . S
H438 C452 0.929 . S
H439 C453 0.931 . S
H440 C455 0.930 . S
C441 H429 0.930 . S
C441 C442 1.399 . S
C441 C446 1.399 . S
C442 C441 1.399 . S
C442 C443 1.376 . S
C443 H430 0.930 . S
C443 C442 1.376 . S
C443 C444 1.388 . S
C444 H431 0.930 . S
C444 C443 1.388 . S
C444 C445 1.390 . S
C445 C444 1.390 . S
C445 C446 1.394 . S
C445 C451 1.465 . S
C446 C441 1.399 . S
C446 C445 1.394 . S
C446 C447 1.516 . S
C447 C446 1.516 . S
C447 C448 1.502 . S
C447 C449 1.561 . S
C447 C450 1.526 . S
C448 H432 0.959 . S
C448 H433 0.959 . S
C448 H434 0.961 . S
C448 C447 1.502 . S
C449 H435 0.960 . S
C449 H436 0.961 . S
C449 H437 0.959 . S
C449 C447 1.561 . S
C450 C447 1.526 . S
C450 C451 1.396 . S
C450 C455 1.390 . S
C451 C445 1.465 . S
C451 C450 1.396 . S
C451 C452 1.399 . S
C452 H438 0.929 . S
C452 C451 1.399 . S
C452 C453 1.385 . S
C453 H439 0.931 . S
C453 C452 1.385 . S
C453 C454 1.389 . S
C454 C453 1.389 . S
C454 C455 1.387 . S
C455 H440 0.930 . S
C455 C450 1.390 . S
C455 C454 1.387 . S
H456 C468 0.930 . S
H457 C470 0.930 . S
H458 C471 0.930 1_554 S
H459 C475 0.959 . S
H460 C475 0.959 . S
H461 C475 0.961 . S
H462 C476 0.960 . S
H463 C476 0.961 . S
H464 C476 0.959 . S
H465 C479 0.929 . S
H466 C480 0.931 . S
H467 C482 0.930 . S
C468 H456 0.930 . S
C468 C469 1.399 . S
C468 C473 1.399 . S
C469 C468 1.399 . S
C469 C470 1.376 1_556 S
C470 H457 0.930 . S
C470 C469 1.376 1_554 S
C470 C471 1.388 1_554 S
C471 H458 0.930 1_556 S
C471 C470 1.388 1_556 S
C471 C472 1.390 . S
C472 C471 1.390 . S
C472 C473 1.394 . S
C472 C478 1.465 . S
C473 C468 1.399 . S
C473 C472 1.394 . S
C473 C474 1.516 . S
C474 C473 1.516 . S
C474 C475 1.502 . S
C474 C476 1.561 . S
C474 C477 1.526 . S
C475 H459 0.959 . S
C475 H460 0.959 . S
C475 H461 0.961 . S
C475 C474 1.502 . S
C476 H462 0.960 . S
C476 H463 0.961 . S
C476 H464 0.959 . S
C476 C474 1.561 . S
C477 C474 1.526 . S
C477 C478 1.396 . S
C477 C482 1.390 . S
C478 C472 1.465 . S
C478 C477 1.396 . S
C478 C479 1.399 . S
C479 H465 0.929 . S
C479 C478 1.399 . S
C479 C480 1.385 . S
C480 H466 0.931 . S
C480 C479 1.385 . S
C480 C481 1.389 . S
C481 C480 1.389 . S
C481 C482 1.387 . S
C482 H467 0.930 . S
C482 C477 1.390 . S
C482 C481 1.387 . S
H483 C495 0.930 . S
H484 C497 0.930 . S
H485 C498 0.930 . S
H486 C502 0.959 . S
H487 C502 0.959 . S
H488 C502 0.961 . S
H489 C503 0.960 . S
H490 C503 0.961 . S
H491 C503 0.959 . S
H492 C506 0.929 . S
H493 C507 0.931 . S
H494 C509 0.930 . S
C495 H483 0.930 . S
C495 C496 1.399 . S
C495 C500 1.399 . S
C496 C495 1.399 . S
C496 C497 1.376 . S
C497 H484 0.930 . S
C497 C496 1.376 . S
C497 C498 1.388 . S
C498 H485 0.930 . S
C498 C497 1.388 . S
C498 C499 1.390 . S
C499 C498 1.390 . S
C499 C500 1.394 . S
C499 C505 1.465 . S
C500 C495 1.399 . S
C500 C499 1.394 . S
C500 C501 1.516 . S
C501 C500 1.516 . S
C501 C502 1.502 . S
C501 C503 1.561 . S
C501 C504 1.526 . S
C502 H486 0.959 . S
C502 H487 0.959 . S
C502 H488 0.961 . S
C502 C501 1.502 . S
C503 H489 0.960 . S
C503 H490 0.961 . S
C503 H491 0.959 . S
C503 C501 1.561 . S
C504 C501 1.526 . S
C504 C505 1.396 . S
C504 C509 1.390 . S
C505 C499 1.465 . S
C505 C504 1.396 . S
C505 C506 1.399 . S
C506 H492 0.929 . S
C506 C505 1.399 . S
C506 C507 1.385 . S
C507 H493 0.931 . S
C507 C506 1.385 . S
C507 C508 1.389 . S
C508 C507 1.389 . S
C508 C509 1.387 . S
C509 H494 0.930 . S
C509 C504 1.390 . S
C509 C508 1.387 . S
H510 C522 0.930 . S
H511 C524 0.930 . S
H512 C525 0.930 1_554 S
H513 C529 0.959 . S
H514 C529 0.959 . S
H515 C529 0.961 . S
H516 C530 0.960 . S
H517 C530 0.961 . S
H518 C530 0.959 . S
H519 C533 0.929 . S
H520 C534 0.931 . S
H521 C536 0.930 . S
C522 H510 0.930 . S
C522 C523 1.399 . S
C522 C527 1.399 . S
C523 C522 1.399 . S
C523 C524 1.376 1_556 S
C524 H511 0.930 . S
C524 C523 1.376 1_554 S
C524 C525 1.388 1_554 S
C525 H512 0.930 1_556 S
C525 C524 1.388 1_556 S
C525 C526 1.390 . S
C526 C525 1.390 . S
C526 C527 1.394 . S
C526 C532 1.465 . S
C527 C522 1.399 . S
C527 C526 1.394 . S
C527 C528 1.516 . S
C528 C527 1.516 . S
C528 C529 1.502 . S
C528 C530 1.561 . S
C528 C531 1.526 . S
C529 H513 0.959 . S
C529 H514 0.959 . S
C529 H515 0.961 . S
C529 C528 1.502 . S
C530 H516 0.960 . S
C530 H517 0.961 . S
C530 H518 0.959 . S
C530 C528 1.561 . S
C531 C528 1.526 . S
C531 C532 1.396 . S
C531 C536 1.390 . S
C532 C526 1.465 . S
C532 C531 1.396 . S
C532 C533 1.399 . S
C533 H519 0.929 . S
C533 C532 1.399 . S
C533 C534 1.385 . S
C534 H520 0.931 . S
C534 C533 1.385 . S
C534 C535 1.389 . S
C535 C534 1.389 . S
C535 C536 1.387 . S
C536 H521 0.930 . S
C536 C531 1.390 . S
C536 C535 1.387 . S
H537 C549 0.930 . S
H538 C551 0.930 . S
H539 C552 0.930 . S
H540 C556 0.959 . S
H541 C556 0.959 . S
H542 C556 0.961 . S
H543 C557 0.960 . S
H544 C557 0.961 . S
H545 C557 0.959 . S
H546 C560 0.929 . S
H547 C561 0.931 . S
H548 C563 0.930 . S
C549 H537 0.930 . S
C549 C550 1.399 . S
C549 C554 1.399 . S
C550 C549 1.399 . S
C550 C551 1.376 . S
C551 H538 0.930 . S
C551 C550 1.376 . S
C551 C552 1.388 . S
C552 H539 0.930 . S
C552 C551 1.388 . S
C552 C553 1.390 . S
C553 C552 1.390 . S
C553 C554 1.394 . S
C553 C559 1.465 . S
C554 C549 1.399 . S
C554 C553 1.394 . S
C554 C555 1.516 . S
C555 C554 1.516 . S
C555 C556 1.502 . S
C555 C557 1.561 . S
C555 C558 1.526 . S
C556 H540 0.959 . S
C556 H541 0.959 . S
C556 H542 0.961 . S
C556 C555 1.502 . S
C557 H543 0.960 . S
C557 H544 0.961 . S
C557 H545 0.959 . S
C557 C555 1.561 . S
C558 C555 1.526 . S
C558 C559 1.396 . S
C558 C563 1.390 . S
C559 C553 1.465 . S
C559 C558 1.396 . S
C559 C560 1.399 . S
C560 H546 0.929 . S
C560 C559 1.399 . S
C560 C561 1.385 . S
C561 H547 0.931 . S
C561 C560 1.385 . S
C561 C562 1.389 . S
C562 C561 1.389 . S
C562 C563 1.387 . S
C563 H548 0.930 . S
C563 C558 1.390 . S
C563 C562 1.387 . S
H564 C576 0.930 . S
H565 C578 0.930 . S
H566 C579 0.930 1_554 S
H567 C583 0.959 . S
H568 C583 0.959 . S
H569 C583 0.961 . S
H570 C584 0.960 1_565 S
H571 C584 0.961 . S
H572 C584 0.959 . S
H573 C587 0.929 . S
H574 C588 0.931 . S
H575 C590 0.930 . S
C576 H564 0.930 . S
C576 C577 1.399 . S
C576 C581 1.399 . S
C577 C576 1.399 . S
C577 C578 1.376 1_556 S
C578 H565 0.930 . S
C578 C577 1.376 1_554 S
C578 C579 1.388 1_554 S
C579 H566 0.930 1_556 S
C579 C578 1.388 1_556 S
C579 C580 1.390 . S
C580 C579 1.390 . S
C580 C581 1.394 . S
C580 C586 1.465 . S
C581 C576 1.399 . S
C581 C580 1.394 . S
C581 C582 1.516 . S
C582 C581 1.516 . S
C582 C583 1.502 . S
C582 C584 1.561 1_565 S
C582 C585 1.526 . S
C583 H567 0.959 . S
C583 H568 0.959 . S
C583 H569 0.961 . S
C583 C582 1.502 . S
C584 H570 0.960 1_545 S
C584 H571 0.961 . S
C584 H572 0.959 . S
C584 C582 1.561 1_545 S
C585 C582 1.526 . S
C585 C586 1.396 . S
C585 C590 1.390 1_565 S
C586 C580 1.465 . S
C586 C585 1.396 . S
C586 C587 1.399 1_565 S
C587 H573 0.929 . S
C587 C586 1.399 1_545 S
C587 C588 1.385 . S
C588 H574 0.931 . S
C588 C587 1.385 . S
C588 C589 1.389 . S
C589 C588 1.389 . S
C589 C590 1.387 . S
C590 H575 0.930 . S
C590 C585 1.390 1_545 S
C590 C589 1.387 . S
H591 C603 0.930 . S
H592 C605 0.930 . S
H593 C606 0.930 1_565 S
H594 C610 0.959 . S
H595 C610 0.959 . S
H596 C610 0.961 . S
H597 C611 0.960 . S
H598 C611 0.961 . S
H599 C611 0.959 . S
H600 C614 0.929 . S
H601 C615 0.931 . S
H602 C617 0.930 1_545 S
C603 H591 0.930 . S
C603 C604 1.399 . S
C603 C608 1.399 . S
C604 C603 1.399 . S
C604 C605 1.376 . S
C605 H592 0.930 . S
C605 C604 1.376 . S
C605 C606 1.388 . S
C606 H593 0.930 1_545 S
C606 C605 1.388 . S
C606 C607 1.390 . S
C607 C606 1.390 . S
C607 C608 1.394 . S
C607 C613 1.465 1_545 S
C608 C603 1.399 . S
C608 C607 1.394 . S
C608 C609 1.516 . S
C609 C608 1.516 . S
C609 C610 1.502 . S
C609 C611 1.561 . S
C609 C612 1.526 . S
C610 H594 0.959 . S
C610 H595 0.959 . S
C610 H596 0.961 . S
C610 C609 1.502 . S
C611 H597 0.960 . S
C611 H598 0.961 . S
C611 H599 0.959 . S
C611 C609 1.561 . S
C612 C609 1.526 . S
C612 C613 1.396 1_545 S
C612 C617 1.390 1_545 S
C613 C607 1.465 1_565 S
C613 C612 1.396 1_565 S
C613 C614 1.399 . S
C614 H600 0.929 . S
C614 C613 1.399 . S
C614 C615 1.385 . S
C615 H601 0.931 . S
C615 C614 1.385 . S
C615 C616 1.389 . S
C616 C615 1.389 . S
C616 C617 1.387 . S
C617 H602 0.930 1_565 S
C617 C612 1.390 1_565 S
C617 C616 1.387 . S
H618 C630 0.930 . S
H619 C632 0.930 1_554 S
H620 C633 0.930 . S
H621 C637 0.959 . S
H622 C637 0.959 . S
H623 C637 0.961 . S
H624 C638 0.960 . S
H625 C638 0.961 . S
H626 C638 0.959 . S
H627 C641 0.929 . S
H628 C642 0.931 . S
H629 C644 0.930 . S
C630 H618 0.930 . S
C630 C631 1.399 . S
C630 C635 1.399 . S
C631 C630 1.399 . S
C631 C632 1.376 . S
C632 H619 0.930 1_556 S
C632 C631 1.376 . S
C632 C633 1.388 . S
C633 H620 0.930 . S
C633 C632 1.388 . S
C633 C634 1.390 . S
C634 C633 1.390 . S
C634 C635 1.394 . S
C634 C640 1.465 . S
C635 C630 1.399 . S
C635 C634 1.394 . S
C635 C636 1.516 . S
C636 C635 1.516 . S
C636 C637 1.502 1_565 S
C636 C638 1.561 . S
C636 C639 1.526 1_565 S
C637 H621 0.959 . S
C637 H622 0.959 . S
C637 H623 0.961 . S
C637 C636 1.502 1_545 S
C638 H624 0.960 . S
C638 H625 0.961 . S
C638 H626 0.959 . S
C638 C636 1.561 . S
C639 C636 1.526 1_545 S
C639 C640 1.396 1_545 S
C639 C644 1.390 . S
C640 C634 1.465 . S
C640 C639 1.396 1_565 S
C640 C641 1.399 . S
C641 H627 0.929 . S
C641 C640 1.399 . S
C641 C642 1.385 1_565 S
C642 H628 0.931 . S
C642 C641 1.385 1_545 S
C642 C643 1.389 . S
C643 C642 1.389 . S
C643 C644 1.387 . S
C644 H629 0.930 . S
C644 C639 1.390 . S
C644 C643 1.387 . S
H645 C657 0.930 . S
H646 C659 0.930 . S
H647 C660 0.930 . S
H648 C664 0.959 . S
H649 C664 0.959 1_565 S
H650 C664 0.961 . S
H651 C665 0.960 . S
H652 C665 0.961 . S
H653 C665 0.959 . S
H654 C668 0.929 . S
H655 C669 0.931 . S
H656 C671 0.930 . S
C657 H645 0.930 . S
C657 C658 1.399 . S
C657 C662 1.399 . S
C658 C657 1.399 . S
C658 C659 1.376 . S
C659 H646 0.930 . S
C659 C658 1.376 . S
C659 C660 1.388 . S
C660 H647 0.930 . S
C660 C659 1.388 . S
C660 C661 1.390 . S
C661 C660 1.390 . S
C661 C662 1.394 . S
C661 C667 1.465 . S
C662 C657 1.399 . S
C662 C661 1.394 . S
C662 C663 1.488 1_545 S
C663 C662 1.488 1_565 S
C663 C664 1.493 1_565 S
C663 C665 1.592 . S
C663 C666 1.534 . S
C664 H648 0.959 . S
C664 H649 0.959 1_545 S
C664 H650 0.961 . S
C664 C663 1.493 1_545 S
C665 H651 0.960 . S
C665 H652 0.961 . S
C665 H653 0.959 . S
C665 C663 1.592 . S
C666 C663 1.534 . S
C666 C667 1.396 1_565 S
C666 C671 1.390 . S
C667 C661 1.465 . S
C667 C666 1.396 1_545 S
C667 C668 1.399 . S
C668 H654 0.929 . S
C668 C667 1.399 . S
C668 C669 1.385 1_545 S
C669 H655 0.931 . S
C669 C668 1.385 1_565 S
C669 C670 1.389 . S
C670 C669 1.389 . S
C670 C671 1.387 . S
C671 H656 0.930 . S
C671 C666 1.390 . S
C671 C670 1.387 . S
H672 C684 0.930 . S
H673 C686 0.930 . S
H674 C687 0.930 . S
H675 C691 0.959 . S
H676 C691 0.959 . S
H677 C691 0.961 . S
H678 C692 0.960 . S
H679 C692 0.961 . S
H680 C692 0.959 . S
H681 C695 0.929 . S
H682 C696 0.931 . S
H683 C698 0.930 . S
C684 H672 0.930 . S
C684 C685 1.399 . S
C684 C689 1.399 . S
C685 C684 1.399 . S
C685 C686 1.376 . S
C686 H673 0.930 . S
C686 C685 1.376 . S
C686 C687 1.388 . S
C687 H674 0.930 . S
C687 C686 1.388 . S
C687 C688 1.390 . S
C688 C687 1.390 . S
C688 C689 1.394 . S
C688 C694 1.465 . S
C689 C684 1.399 . S
C689 C688 1.394 . S
C689 C690 1.516 . S
C690 C689 1.516 . S
C690 C691 1.502 . S
C690 C692 1.561 . S
C690 C693 1.526 . S
C691 H675 0.959 . S
C691 H676 0.959 . S
C691 H677 0.961 . S
C691 C690 1.502 . S
C692 H678 0.960 . S
C692 H679 0.961 . S
C692 H680 0.959 . S
C692 C690 1.561 . S
C693 C690 1.526 . S
C693 C694 1.396 . S
C693 C698 1.390 . S
C694 C688 1.465 . S
C694 C693 1.396 . S
C694 C695 1.399 . S
C695 H681 0.929 . S
C695 C694 1.399 . S
C695 C696 1.385 . S
C696 H682 0.931 . S
C696 C695 1.385 . S
C696 C697 1.389 . S
C697 C696 1.389 . S
C697 C698 1.387 . S
C698 H683 0.930 . S
C698 C693 1.390 . S
C698 C697 1.387 . S
H699 C711 0.930 . S
H700 C713 0.930 . S
H701 C714 0.930 . S
H702 C718 0.959 . S
H703 C718 0.959 . S
H704 C718 0.961 . S
H705 C719 0.960 . S
H706 C719 0.961 . S
H707 C719 0.959 . S
H708 C722 0.929 . S
H709 C723 0.931 . S
H710 C725 0.930 . S
C711 H699 0.930 . S
C711 C712 1.399 . S
C711 C716 1.399 . S
C712 C711 1.399 . S
C712 C713 1.376 . S
C713 H700 0.930 . S
C713 C712 1.376 . S
C713 C714 1.388 . S
C714 H701 0.930 . S
C714 C713 1.388 . S
C714 C715 1.390 . S
C715 C714 1.390 . S
C715 C716 1.394 . S
C715 C721 1.465 . S
C716 C711 1.399 . S
C716 C715 1.394 . S
C716 C717 1.516 . S
C717 C716 1.516 . S
C717 C718 1.502 . S
C717 C719 1.561 . S
C717 C720 1.526 . S
C718 H702 0.959 . S
C718 H703 0.959 . S
C718 H704 0.961 . S
C718 C717 1.502 . S
C719 H705 0.960 . S
C719 H706 0.961 . S
C719 H707 0.959 . S
C719 C717 1.561 . S
C720 C717 1.526 . S
C720 C721 1.396 . S
C720 C725 1.390 . S
C721 C715 1.465 . S
C721 C720 1.396 . S
C721 C722 1.399 . S
C722 H708 0.929 . S
C722 C721 1.399 . S
C722 C723 1.385 . S
C723 H709 0.931 . S
C723 C722 1.385 . S
C723 C724 1.389 . S
C724 C723 1.389 . S
C724 C725 1.387 . S
C725 H710 0.930 . S
C725 C720 1.390 . S
C725 C724 1.387 . S
H726 C738 0.930 . S
H727 C740 0.930 . S
H728 C741 0.930 . S
H729 C745 0.959 . S
H730 C745 0.959 . S
H731 C745 0.961 . S
H732 C746 0.960 . S
H733 C746 0.961 . S
H734 C746 0.959 . S
H735 C749 0.929 . S
H736 C750 0.931 . S
H737 C752 0.930 . S
C738 H726 0.930 . S
C738 C739 1.399 . S
C738 C743 1.399 . S
C739 C738 1.399 . S
C739 C740 1.376 . S
C740 H727 0.930 . S
C740 C739 1.376 . S
C740 C741 1.388 . S
C741 H728 0.930 . S
C741 C740 1.388 . S
C741 C742 1.390 . S
C742 C741 1.390 . S
C742 C743 1.394 . S
C742 C748 1.465 . S
C743 C738 1.399 . S
C743 C742 1.394 . S
C743 C744 1.516 . S
C744 C743 1.516 . S
C744 C745 1.502 . S
C744 C746 1.561 . S
C744 C747 1.526 . S
C745 H729 0.959 . S
C745 H730 0.959 . S
C745 H731 0.961 . S
C745 C744 1.502 . S
C746 H732 0.960 . S
C746 H733 0.961 . S
C746 H734 0.959 . S
C746 C744 1.561 . S
C747 C744 1.526 . S
C747 C748 1.396 . S
C747 C752 1.390 . S
C748 C742 1.465 . S
C748 C747 1.396 . S
C748 C749 1.399 . S
C749 H735 0.929 . S
C749 C748 1.399 . S
C749 C750 1.385 . S
C750 H736 0.931 . S
C750 C749 1.385 . S
C750 C751 1.389 . S
C751 C750 1.389 . S
C751 C752 1.387 . S
C752 H737 0.930 . S
C752 C747 1.390 . S
C752 C751 1.387 . S
H753 C765 0.930 . S
H754 C767 0.930 . S
H755 C768 0.930 . S
H756 C772 0.959 . S
H757 C772 0.959 . S
H758 C772 0.961 . S
H759 C773 0.960 . S
H760 C773 0.961 . S
H761 C773 0.959 . S
H762 C776 0.929 . S
H763 C777 0.931 . S
H764 C779 0.930 . S
C765 H753 0.930 . S
C765 C766 1.399 . S
C765 C770 1.399 . S
C766 C765 1.399 . S
C766 C767 1.376 . S
C767 H754 0.930 . S
C767 C766 1.376 . S
C767 C768 1.388 . S
C768 H755 0.930 . S
C768 C767 1.388 . S
C768 C769 1.390 . S
C769 C768 1.390 . S
C769 C770 1.394 . S
C769 C775 1.465 . S
C770 C765 1.399 . S
C770 C769 1.394 . S
C770 C771 1.516 . S
C771 C770 1.516 . S
C771 C772 1.502 . S
C771 C773 1.561 . S
C771 C774 1.526 . S
C772 H756 0.959 . S
C772 H757 0.959 . S
C772 H758 0.961 . S
C772 C771 1.502 . S
C773 H759 0.960 . S
C773 H760 0.961 . S
C773 H761 0.959 . S
C773 C771 1.561 . S
C774 C771 1.526 . S
C774 C775 1.396 . S
C774 C779 1.390 . S
C775 C769 1.465 . S
C775 C774 1.396 . S
C775 C776 1.399 . S
C776 H762 0.929 . S
C776 C775 1.399 . S
C776 C777 1.385 . S
C777 H763 0.931 . S
C777 C776 1.385 . S
C777 C778 1.389 . S
C778 C777 1.389 . S
C778 C779 1.387 . S
C779 H764 0.930 . S
C779 C774 1.390 . S
C779 C778 1.387 . S
H780 C792 0.930 . S
H781 C794 0.930 . S
H782 C795 0.930 . S
H783 C799 0.959 . S
H784 C799 0.959 . S
H785 C799 0.961 . S
H786 C800 0.960 . S
H787 C800 0.961 . S
H788 C800 0.959 . S
H789 C803 0.929 . S
H790 C804 0.931 . S
H791 C806 0.930 . S
C792 H780 0.930 . S
C792 C793 1.399 . S
C792 C797 1.399 . S
C793 C792 1.399 . S
C793 C794 1.376 . S
C794 H781 0.930 . S
C794 C793 1.376 . S
C794 C795 1.388 . S
C795 H782 0.930 . S
C795 C794 1.388 . S
C795 C796 1.390 . S
C796 C795 1.390 . S
C796 C797 1.394 . S
C796 C802 1.465 . S
C797 C792 1.399 . S
C797 C796 1.394 . S
C797 C798 1.516 . S
C798 C797 1.516 . S
C798 C799 1.502 . S
C798 C800 1.561 . S
C798 C801 1.526 . S
C799 H783 0.959 . S
C799 H784 0.959 . S
C799 H785 0.961 . S
C799 C798 1.502 . S
C800 H786 0.960 . S
C800 H787 0.961 . S
C800 H788 0.959 . S
C800 C798 1.561 . S
C801 C798 1.526 . S
C801 C802 1.396 . S
C801 C806 1.390 . S
C802 C796 1.465 . S
C802 C801 1.396 . S
C802 C803 1.399 . S
C803 H789 0.929 . S
C803 C802 1.399 . S
C803 C804 1.385 . S
C804 H790 0.931 . S
C804 C803 1.385 . S
C804 C805 1.389 . S
C805 C804 1.389 . S
C805 C806 1.387 . S
C806 H791 0.930 . S
C806 C801 1.390 . S
C806 C805 1.387 . S
H807 C819 0.930 . S
H808 C821 0.930 . S
H809 C822 0.930 . S
H810 C826 0.959 . S
H811 C826 0.959 . S
H812 C826 0.961 . S
H813 C827 0.960 . S
H814 C827 0.961 . S
H815 C827 0.959 . S
H816 C830 0.929 . S
H817 C831 0.931 . S
H818 C833 0.930 . S
C819 H807 0.930 . S
C819 C820 1.399 . S
C819 C824 1.399 . S
C820 C819 1.399 . S
C820 C821 1.376 . S
C821 H808 0.930 . S
C821 C820 1.376 . S
C821 C822 1.388 . S
C822 H809 0.930 . S
C822 C821 1.388 . S
C822 C823 1.390 . S
C823 C822 1.390 . S
C823 C824 1.394 . S
C823 C829 1.465 . S
C824 C819 1.399 . S
C824 C823 1.394 . S
C824 C825 1.516 . S
C825 C824 1.516 . S
C825 C826 1.502 . S
C825 C827 1.561 . S
C825 C828 1.526 . S
C826 H810 0.959 . S
C826 H811 0.959 . S
C826 H812 0.961 . S
C826 C825 1.502 . S
C827 H813 0.960 . S
C827 H814 0.961 . S
C827 H815 0.959 . S
C827 C825 1.561 . S
C828 C825 1.526 . S
C828 C829 1.396 . S
C828 C833 1.390 . S
C829 C823 1.465 . S
C829 C828 1.396 . S
C829 C830 1.399 . S
C830 H816 0.929 . S
C830 C829 1.399 . S
C830 C831 1.385 . S
C831 H817 0.931 . S
C831 C830 1.385 . S
C831 C832 1.389 . S
C832 C831 1.389 . S
C832 C833 1.387 . S
C833 H818 0.930 . S
C833 C828 1.390 . S
C833 C832 1.387 . S
H834 C846 0.930 . S
H835 C848 0.930 . S
H836 C849 0.930 . S
H837 C853 0.959 . S
H838 C853 0.959 . S
H839 C853 0.961 . S
H840 C854 0.960 . S
H841 C854 0.961 . S
H842 C854 0.959 . S
H843 C857 0.929 . S
H844 C858 0.931 . S
H845 C860 0.930 . S
C846 H834 0.930 . S
C846 C847 1.399 . S
C846 C851 1.399 . S
C847 C846 1.399 . S
C847 C848 1.376 . S
C848 H835 0.930 . S
C848 C847 1.376 . S
C848 C849 1.388 . S
C849 H836 0.930 . S
C849 C848 1.388 . S
C849 C850 1.390 . S
C850 C849 1.390 . S
C850 C851 1.394 . S
C850 C856 1.465 . S
C851 C846 1.399 . S
C851 C850 1.394 . S
C851 C852 1.516 . S
C852 C851 1.516 . S
C852 C853 1.502 . S
C852 C854 1.561 . S
C852 C855 1.526 . S
C853 H837 0.959 . S
C853 H838 0.959 . S
C853 H839 0.961 . S
C853 C852 1.502 . S
C854 H840 0.960 . S
C854 H841 0.961 . S
C854 H842 0.959 . S
C854 C852 1.561 . S
C855 C852 1.526 . S
C855 C856 1.396 . S
C855 C860 1.390 . S
C856 C850 1.465 . S
C856 C855 1.396 . S
C856 C857 1.399 . S
C857 H843 0.929 . S
C857 C856 1.399 . S
C857 C858 1.385 . S
C858 H844 0.931 . S
C858 C857 1.385 . S
C858 C859 1.389 . S
C859 C858 1.389 . S
C859 C860 1.387 . S
C860 H845 0.930 . S
C860 C855 1.390 . S
C860 C859 1.387 . S
H861 C873 0.930 . S
H862 C875 0.930 . S
H863 C876 0.930 . S
H864 C880 0.959 . S
H865 C880 0.959 . S
H866 C880 0.961 . S
H867 C881 0.960 . S
H868 C881 0.961 . S
H869 C881 0.959 . S
H870 C884 0.929 . S
H871 C885 0.931 . S
H872 C887 0.930 . S
C873 H861 0.930 . S
C873 C874 1.399 . S
C873 C878 1.399 . S
C874 C873 1.399 . S
C874 C875 1.376 . S
C875 H862 0.930 . S
C875 C874 1.376 . S
C875 C876 1.388 . S
C876 H863 0.930 . S
C876 C875 1.388 . S
C876 C877 1.390 . S
C877 C876 1.390 . S
C877 C878 1.394 . S
C877 C883 1.465 . S
C878 C873 1.399 . S
C878 C877 1.394 . S
C878 C879 1.516 . S
C879 C878 1.516 . S
C879 C880 1.502 . S
C879 C881 1.561 . S
C879 C882 1.526 . S
C880 H864 0.959 . S
C880 H865 0.959 . S
C880 H866 0.961 . S
C880 C879 1.502 . S
C881 H867 0.960 . S
C881 H868 0.961 . S
C881 H869 0.959 . S
C881 C879 1.561 . S
C882 C879 1.526 . S
C882 C883 1.396 . S
C882 C887 1.390 . S
C883 C877 1.465 . S
C883 C882 1.396 . S
C883 C884 1.399 . S
C884 H870 0.929 . S
C884 C883 1.399 . S
C884 C885 1.385 . S
C885 H871 0.931 . S
C885 C884 1.385 . S
C885 C886 1.389 . S
C886 C885 1.389 . S
C886 C887 1.387 . S
C887 H872 0.930 . S
C887 C882 1.390 . S
C887 C886 1.387 . S
C253 C11 1.502 . S
C265 C195 1.544 . S
C292 C159 1.544 . S
C280 C30 1.502 . S
C319 C182 1.562 . S
C307 C49 1.373 . S
C346 C170 1.565 . S
C334 C68 1.352 . S
C373 C239 1.560 . S
C361 C87 1.448 . S
C400 C203 1.563 . S
C388 C106 1.455 . S
C415 C125 1.415 . S
C427 C226 1.554 . S
C454 C214 1.559 . S
C442 C144 1.360 . S
C469 C2 1.548 . S
C481 C236 1.585 . S
C508 C206 1.586 . S
C496 C21 1.543 . S
C523 C40 1.538 . S
C535 C225 1.599 . S
C550 C59 1.600 . S
C562 C211 1.622 . S
C589 C192 1.585 . S
C577 C78 1.535 . S
C604 C97 1.546 . S
C616 C162 1.586 . S
C643 C181 1.595 . S
C631 C116 1.536 . S
C670 C167 1.619 . S
C658 C135 1.598 . S
C697 C217 1.575 . S
C685 C6 1.578 . S
C724 C233 1.553 . S
C712 C25 1.553 . S
C739 C44 1.538 . S
C751 C204 1.539 . S
C778 C228 1.538 . S
C766 C63 1.535 . S
C805 C173 1.556 . S
C793 C82 1.555 . S
C820 C101 1.574 . S
C832 C189 1.570 . S
C847 C120 1.530 . S
C859 C160 1.537 . S
C874 C139 1.509 . S
C886 C184 1.530 . S
