# Generated by pormake.
# Topology tbo, (3,4)-cn, num edge types: 1
# Building blocks:
#     Node 0, Type 0, BuildingBlock: PAMTOO_clean_linker_0, # of connection points: 3
#     Node 1, Type 0, BuildingBlock: PAMTOO_clean_linker_0, # of connection points: 3
#     Node 2, Type 0, BuildingBlock: PAMTOO_clean_linker_0, # of connection points: 3
#     Node 3, Type 0, BuildingBlock: PAMTOO_clean_linker_0, # of connection points: 3
#     Node 4, Type 0, BuildingBlock: PAMTOO_clean_linker_0, # of connection points: 3
#     Node 5, Type 0, BuildingBlock: PAMTOO_clean_linker_0, # of connection points: 3
#     Node 6, Type 0, BuildingBlock: PAMTOO_clean_linker_0, # of connection points: 3
#     Node 7, Type 0, BuildingBlock: PAMTOO_clean_linker_0, # of connection points: 3
#     Node 8, Type 0, BuildingBlock: PAMTOO_clean_linker_0, # of connection points: 3
#     Node 9, Type 0, BuildingBlock: PAMTOO_clean_linker_0, # of connection points: 3
#     Node 10, Type 0, BuildingBlock: PAMTOO_clean_linker_0, # of connection points: 3
#     Node 11, Type 0, BuildingBlock: PAMTOO_clean_linker_0, # of connection points: 3
#     Node 12, Type 0, BuildingBlock: PAMTOO_clean_linker_0, # of connection points: 3
#     Node 13, Type 0, BuildingBlock: PAMTOO_clean_linker_0, # of connection points: 3
#     Node 14, Type 0, BuildingBlock: PAMTOO_clean_linker_0, # of connection points: 3
#     Node 15, Type 0, BuildingBlock: PAMTOO_clean_linker_0, # of connection points: 3
#     Node 16, Type 0, BuildingBlock: PAMTOO_clean_linker_0, # of connection points: 3
#     Node 17, Type 0, BuildingBlock: PAMTOO_clean_linker_0, # of connection points: 3
#     Node 18, Type 0, BuildingBlock: PAMTOO_clean_linker_0, # of connection points: 3
#     Node 19, Type 0, BuildingBlock: PAMTOO_clean_linker_0, # of connection points: 3
#     Node 20, Type 0, BuildingBlock: PAMTOO_clean_linker_0, # of connection points: 3
#     Node 21, Type 0, BuildingBlock: PAMTOO_clean_linker_0, # of connection points: 3
#     Node 22, Type 0, BuildingBlock: PAMTOO_clean_linker_0, # of connection points: 3
#     Node 23, Type 0, BuildingBlock: PAMTOO_clean_linker_0, # of connection points: 3
#     Node 24, Type 0, BuildingBlock: PAMTOO_clean_linker_0, # of connection points: 3
#     Node 25, Type 0, BuildingBlock: PAMTOO_clean_linker_0, # of connection points: 3
#     Node 26, Type 0, BuildingBlock: PAMTOO_clean_linker_0, # of connection points: 3
#     Node 27, Type 0, BuildingBlock: PAMTOO_clean_linker_0, # of connection points: 3
#     Node 28, Type 0, BuildingBlock: PAMTOO_clean_linker_0, # of connection points: 3
#     Node 29, Type 0, BuildingBlock: PAMTOO_clean_linker_0, # of connection points: 3
#     Node 30, Type 0, BuildingBlock: PAMTOO_clean_linker_0, # of connection points: 3
#     Node 31, Type 0, BuildingBlock: PAMTOO_clean_linker_0, # of connection points: 3
#     Node 32, Type 1, BuildingBlock: ESEHIV_clean_sbu_0, # of connection points: 4
#     Node 33, Type 1, BuildingBlock: ESEHIV_clean_sbu_0, # of connection points: 4
#     Node 34, Type 1, BuildingBlock: ESEHIV_clean_sbu_0, # of connection points: 4
#     Node 35, Type 1, BuildingBlock: ESEHIV_clean_sbu_0, # of connection points: 4
#     Node 36, Type 1, BuildingBlock: ESEHIV_clean_sbu_0, # of connection points: 4
#     Node 37, Type 1, BuildingBlock: ESEHIV_clean_sbu_0, # of connection points: 4
#     Node 38, Type 1, BuildingBlock: ESEHIV_clean_sbu_0, # of connection points: 4
#     Node 39, Type 1, BuildingBlock: ESEHIV_clean_sbu_0, # of connection points: 4
#     Node 40, Type 1, BuildingBlock: ESEHIV_clean_sbu_0, # of connection points: 4
#     Node 41, Type 1, BuildingBlock: ESEHIV_clean_sbu_0, # of connection points: 4
#     Node 42, Type 1, BuildingBlock: ESEHIV_clean_sbu_0, # of connection points: 4
#     Node 43, Type 1, BuildingBlock: ESEHIV_clean_sbu_0, # of connection points: 4
#     Node 44, Type 1, BuildingBlock: ESEHIV_clean_sbu_0, # of connection points: 4
#     Node 45, Type 1, BuildingBlock: ESEHIV_clean_sbu_0, # of connection points: 4
#     Node 46, Type 1, BuildingBlock: ESEHIV_clean_sbu_0, # of connection points: 4
#     Node 47, Type 1, BuildingBlock: ESEHIV_clean_sbu_0, # of connection points: 4
#     Node 48, Type 1, BuildingBlock: ESEHIV_clean_sbu_0, # of connection points: 4
#     Node 49, Type 1, BuildingBlock: ESEHIV_clean_sbu_0, # of connection points: 4
#     Node 50, Type 1, BuildingBlock: ESEHIV_clean_sbu_0, # of connection points: 4
#     Node 51, Type 1, BuildingBlock: ESEHIV_clean_sbu_0, # of connection points: 4
#     Node 52, Type 1, BuildingBlock: ESEHIV_clean_sbu_0, # of connection points: 4
#     Node 53, Type 1, BuildingBlock: ESEHIV_clean_sbu_0, # of connection points: 4
#     Node 54, Type 1, BuildingBlock: ESEHIV_clean_sbu_0, # of connection points: 4
#     Node 55, Type 1, BuildingBlock: ESEHIV_clean_sbu_0, # of connection points: 4
#     Edge 56, Type (0, 1), BuildingBlock: UVAHIK_clean_linker_0, # of connection points: 2
#     Edge 57, Type (0, 1), BuildingBlock: UVAHIK_clean_linker_0, # of connection points: 2
#     Edge 58, Type (0, 1), BuildingBlock: UVAHIK_clean_linker_0, # of connection points: 2
#     Edge 59, Type (0, 1), BuildingBlock: UVAHIK_clean_linker_0, # of connection points: 2
#     Edge 60, Type (0, 1), BuildingBlock: UVAHIK_clean_linker_0, # of connection points: 2
#     Edge 61, Type (0, 1), BuildingBlock: UVAHIK_clean_linker_0, # of connection points: 2
#     Edge 62, Type (0, 1), BuildingBlock: UVAHIK_clean_linker_0, # of connection points: 2
#     Edge 63, Type (0, 1), BuildingBlock: UVAHIK_clean_linker_0, # of connection points: 2
#     Edge 64, Type (0, 1), BuildingBlock: UVAHIK_clean_linker_0, # of connection points: 2
#     Edge 65, Type (0, 1), BuildingBlock: UVAHIK_clean_linker_0, # of connection points: 2
#     Edge 66, Type (0, 1), BuildingBlock: UVAHIK_clean_linker_0, # of connection points: 2
#     Edge 67, Type (0, 1), BuildingBlock: UVAHIK_clean_linker_0, # of connection points: 2
#     Edge 68, Type (0, 1), BuildingBlock: UVAHIK_clean_linker_0, # of connection points: 2
#     Edge 69, Type (0, 1), BuildingBlock: UVAHIK_clean_linker_0, # of connection points: 2
#     Edge 70, Type (0, 1), BuildingBlock: UVAHIK_clean_linker_0, # of connection points: 2
#     Edge 71, Type (0, 1), BuildingBlock: UVAHIK_clean_linker_0, # of connection points: 2
#     Edge 72, Type (0, 1), BuildingBlock: UVAHIK_clean_linker_0, # of connection points: 2
#     Edge 73, Type (0, 1), BuildingBlock: UVAHIK_clean_linker_0, # of connection points: 2
#     Edge 74, Type (0, 1), BuildingBlock: UVAHIK_clean_linker_0, # of connection points: 2
#     Edge 75, Type (0, 1), BuildingBlock: UVAHIK_clean_linker_0, # of connection points: 2
#     Edge 76, Type (0, 1), BuildingBlock: UVAHIK_clean_linker_0, # of connection points: 2
#     Edge 77, Type (0, 1), BuildingBlock: UVAHIK_clean_linker_0, # of connection points: 2
#     Edge 78, Type (0, 1), BuildingBlock: UVAHIK_clean_linker_0, # of connection points: 2
#     Edge 79, Type (0, 1), BuildingBlock: UVAHIK_clean_linker_0, # of connection points: 2
#     Edge 80, Type (0, 1), BuildingBlock: UVAHIK_clean_linker_0, # of connection points: 2
#     Edge 81, Type (0, 1), BuildingBlock: UVAHIK_clean_linker_0, # of connection points: 2
#     Edge 82, Type (0, 1), BuildingBlock: UVAHIK_clean_linker_0, # of connection points: 2
#     Edge 83, Type (0, 1), BuildingBlock: UVAHIK_clean_linker_0, # of connection points: 2
#     Edge 84, Type (0, 1), BuildingBlock: UVAHIK_clean_linker_0, # of connection points: 2
#     Edge 85, Type (0, 1), BuildingBlock: UVAHIK_clean_linker_0, # of connection points: 2
#     Edge 86, Type (0, 1), BuildingBlock: UVAHIK_clean_linker_0, # of connection points: 2
#     Edge 87, Type (0, 1), BuildingBlock: UVAHIK_clean_linker_0, # of connection points: 2
#     Edge 88, Type (0, 1), BuildingBlock: UVAHIK_clean_linker_0, # of connection points: 2
#     Edge 89, Type (0, 1), BuildingBlock: UVAHIK_clean_linker_0, # of connection points: 2
#     Edge 90, Type (0, 1), BuildingBlock: UVAHIK_clean_linker_0, # of connection points: 2
#     Edge 91, Type (0, 1), BuildingBlock: UVAHIK_clean_linker_0, # of connection points: 2
#     Edge 92, Type (0, 1), BuildingBlock: UVAHIK_clean_linker_0, # of connection points: 2
#     Edge 93, Type (0, 1), BuildingBlock: UVAHIK_clean_linker_0, # of connection points: 2
#     Edge 94, Type (0, 1), BuildingBlock: UVAHIK_clean_linker_0, # of connection points: 2
#     Edge 95, Type (0, 1), BuildingBlock: UVAHIK_clean_linker_0, # of connection points: 2
#     Edge 96, Type (0, 1), BuildingBlock: UVAHIK_clean_linker_0, # of connection points: 2
#     Edge 97, Type (0, 1), BuildingBlock: UVAHIK_clean_linker_0, # of connection points: 2
#     Edge 98, Type (0, 1), BuildingBlock: UVAHIK_clean_linker_0, # of connection points: 2
#     Edge 99, Type (0, 1), BuildingBlock: UVAHIK_clean_linker_0, # of connection points: 2
#     Edge 100, Type (0, 1), BuildingBlock: UVAHIK_clean_linker_0, # of connection points: 2
#     Edge 101, Type (0, 1), BuildingBlock: UVAHIK_clean_linker_0, # of connection points: 2
#     Edge 102, Type (0, 1), BuildingBlock: UVAHIK_clean_linker_0, # of connection points: 2
#     Edge 103, Type (0, 1), BuildingBlock: UVAHIK_clean_linker_0, # of connection points: 2
#     Edge 104, Type (0, 1), BuildingBlock: UVAHIK_clean_linker_0, # of connection points: 2
#     Edge 105, Type (0, 1), BuildingBlock: UVAHIK_clean_linker_0, # of connection points: 2
#     Edge 106, Type (0, 1), BuildingBlock: UVAHIK_clean_linker_0, # of connection points: 2
#     Edge 107, Type (0, 1), BuildingBlock: UVAHIK_clean_linker_0, # of connection points: 2
#     Edge 108, Type (0, 1), BuildingBlock: UVAHIK_clean_linker_0, # of connection points: 2
#     Edge 109, Type (0, 1), BuildingBlock: UVAHIK_clean_linker_0, # of connection points: 2
#     Edge 110, Type (0, 1), BuildingBlock: UVAHIK_clean_linker_0, # of connection points: 2
#     Edge 111, Type (0, 1), BuildingBlock: UVAHIK_clean_linker_0, # of connection points: 2
#     Edge 112, Type (0, 1), BuildingBlock: UVAHIK_clean_linker_0, # of connection points: 2
#     Edge 113, Type (0, 1), BuildingBlock: UVAHIK_clean_linker_0, # of connection points: 2
#     Edge 114, Type (0, 1), BuildingBlock: UVAHIK_clean_linker_0, # of connection points: 2
#     Edge 115, Type (0, 1), BuildingBlock: UVAHIK_clean_linker_0, # of connection points: 2
#     Edge 116, Type (0, 1), BuildingBlock: UVAHIK_clean_linker_0, # of connection points: 2
#     Edge 117, Type (0, 1), BuildingBlock: UVAHIK_clean_linker_0, # of connection points: 2
#     Edge 118, Type (0, 1), BuildingBlock: UVAHIK_clean_linker_0, # of connection points: 2
#     Edge 119, Type (0, 1), BuildingBlock: UVAHIK_clean_linker_0, # of connection points: 2
#     Edge 120, Type (0, 1), BuildingBlock: UVAHIK_clean_linker_0, # of connection points: 2
#     Edge 121, Type (0, 1), BuildingBlock: UVAHIK_clean_linker_0, # of connection points: 2
#     Edge 122, Type (0, 1), BuildingBlock: UVAHIK_clean_linker_0, # of connection points: 2
#     Edge 123, Type (0, 1), BuildingBlock: UVAHIK_clean_linker_0, # of connection points: 2
#     Edge 124, Type (0, 1), BuildingBlock: UVAHIK_clean_linker_0, # of connection points: 2
#     Edge 125, Type (0, 1), BuildingBlock: UVAHIK_clean_linker_0, # of connection points: 2
#     Edge 126, Type (0, 1), BuildingBlock: UVAHIK_clean_linker_0, # of connection points: 2
#     Edge 127, Type (0, 1), BuildingBlock: UVAHIK_clean_linker_0, # of connection points: 2
#     Edge 128, Type (0, 1), BuildingBlock: UVAHIK_clean_linker_0, # of connection points: 2
#     Edge 129, Type (0, 1), BuildingBlock: UVAHIK_clean_linker_0, # of connection points: 2
#     Edge 130, Type (0, 1), BuildingBlock: UVAHIK_clean_linker_0, # of connection points: 2
#     Edge 131, Type (0, 1), BuildingBlock: UVAHIK_clean_linker_0, # of connection points: 2
#     Edge 132, Type (0, 1), BuildingBlock: UVAHIK_clean_linker_0, # of connection points: 2
#     Edge 133, Type (0, 1), BuildingBlock: UVAHIK_clean_linker_0, # of connection points: 2
#     Edge 134, Type (0, 1), BuildingBlock: UVAHIK_clean_linker_0, # of connection points: 2
#     Edge 135, Type (0, 1), BuildingBlock: UVAHIK_clean_linker_0, # of connection points: 2
#     Edge 136, Type (0, 1), BuildingBlock: UVAHIK_clean_linker_0, # of connection points: 2
#     Edge 137, Type (0, 1), BuildingBlock: UVAHIK_clean_linker_0, # of connection points: 2
#     Edge 138, Type (0, 1), BuildingBlock: UVAHIK_clean_linker_0, # of connection points: 2
#     Edge 139, Type (0, 1), BuildingBlock: UVAHIK_clean_linker_0, # of connection points: 2
#     Edge 140, Type (0, 1), BuildingBlock: UVAHIK_clean_linker_0, # of connection points: 2
#     Edge 141, Type (0, 1), BuildingBlock: UVAHIK_clean_linker_0, # of connection points: 2
#     Edge 142, Type (0, 1), BuildingBlock: UVAHIK_clean_linker_0, # of connection points: 2
#     Edge 143, Type (0, 1), BuildingBlock: UVAHIK_clean_linker_0, # of connection points: 2
#     Edge 144, Type (0, 1), BuildingBlock: UVAHIK_clean_linker_0, # of connection points: 2
#     Edge 145, Type (0, 1), BuildingBlock: UVAHIK_clean_linker_0, # of connection points: 2
#     Edge 146, Type (0, 1), BuildingBlock: UVAHIK_clean_linker_0, # of connection points: 2
#     Edge 147, Type (0, 1), BuildingBlock: UVAHIK_clean_linker_0, # of connection points: 2
#     Edge 148, Type (0, 1), BuildingBlock: UVAHIK_clean_linker_0, # of connection points: 2
#     Edge 149, Type (0, 1), BuildingBlock: UVAHIK_clean_linker_0, # of connection points: 2
#     Edge 150, Type (0, 1), BuildingBlock: UVAHIK_clean_linker_0, # of connection points: 2
#     Edge 151, Type (0, 1), BuildingBlock: UVAHIK_clean_linker_0, # of connection points: 2
# Relax obj value: 0.022
# Max RMSD: 0.178
# Mean RMSD: 0.113
data_MOF--net-tbo--node1-ESEHIV_clean_sbu_0--node2-PAMTOO_clean_linker_0--edge1-UVAHIK_clean_linker_0
_symmetry_space_group_name_H-M    P1
_symmetry_Int_Tables_number       1
_symmetry_cell_setting            triclinic
loop_
_symmetry_equiv_pos_as_xyz
'x, y, z'
_cell_length_a     91.583269
_cell_length_b     95.14562
_cell_length_c     94.905989
_cell_angle_alpha  90.455406
_cell_angle_beta   93.059382
_cell_angle_gamma 97.732431
loop_
_atom_site_label
_atom_site_type_symbol
_atom_site_fract_x
_atom_site_fract_y
_atom_site_fract_z
_atom_type_partial_charge
H0 H 0.1541 0.21505 0.19943 0.0
H1 H 0.15561 0.17971 0.22726 0.0
H2 H 0.18467 0.18509 0.19315 0.0
H3 H 0.1744 0.15619 0.19637 0.0
C4 C 0.17049 0.1561 0.20727 0.0
O5 O 0.17601 0.16878 0.21405 0.0
H6 H 0.15821 0.15498 0.20641 0.0
C7 C 0.15873 0.20554 0.20245 0.0
C8 C 0.17012 0.20114 0.19478 0.0
C9 C 0.15356 0.19801 0.21429 0.0
C10 C 0.15967 0.18576 0.21832 0.0
C11 C 0.17077 0.18105 0.2106 0.0
C12 C 0.17614 0.18888 0.19905 0.0
H13 H 0.8791 0.20502 0.21199 0.0
H14 H 0.83927 0.19618 0.18525 0.0
H15 H 0.86926 0.23407 0.17944 0.0
H16 H 0.83755 0.23715 0.17799 0.0
C17 C 0.83314 0.22704 0.17233 0.0
O18 O 0.84445 0.21913 0.1704 0.0
H19 H 0.82473 0.22105 0.17883 0.0
C20 C 0.87196 0.20776 0.20325 0.0
C21 C 0.87585 0.22046 0.19607 0.0
C22 C 0.85869 0.19893 0.19961 0.0
C23 C 0.84943 0.2029 0.18846 0.0
C24 C 0.85326 0.21554 0.18126 0.0
C25 C 0.86638 0.22433 0.18512 0.0
H26 H 0.85885 0.84455 0.18933 0.0
H27 H 0.82915 0.87585 0.1849 0.0
H28 H 0.86194 0.87964 0.21899 0.0
H29 H 0.83228 0.88582 0.22661 0.0
C30 C 0.82873 0.8904 0.21645 0.0
O31 O 0.83989 0.89076 0.20715 0.0
H32 H 0.81876 0.88351 0.21194 0.0
C33 C 0.85505 0.85414 0.19305 0.0
C34 C 0.86201 0.86128 0.20522 0.0
C35 C 0.84335 0.85937 0.18544 0.0
C36 C 0.83828 0.87171 0.19041 0.0
C37 C 0.84483 0.87879 0.20261 0.0
C38 C 0.85673 0.8737 0.20987 0.0
H39 H 0.12756 0.8433 0.1961 0.0
H40 H 0.13861 0.81498 0.16396 0.0
H41 H 0.16763 0.8533 0.17422 0.0
H42 H 0.17121 0.84431 0.14332 0.0
C43 C 0.1624 0.83523 0.14452 0.0
O44 O 0.16326 0.83051 0.15823 0.0
H45 H 0.15161 0.8391 0.14199 0.0
C46 C 0.13487 0.84083 0.18809 0.0
C47 C 0.14798 0.84998 0.18617 0.0
C48 C 0.13141 0.82815 0.18019 0.0
C49 C 0.14113 0.82469 0.17018 0.0
C50 C 0.15408 0.83383 0.16803 0.0
C51 C 0.15756 0.84635 0.17605 0.0
H52 H 0.17968 0.89968 0.84519 0.0
H53 H 0.16666 0.86451 0.8721 0.0
H54 H 0.21032 0.88724 0.87733 0.0
H55 H 0.20719 0.85577 0.87612 0.0
C56 C 0.19761 0.85346 0.88289 0.0
O57 O 0.19226 0.86594 0.88604 0.0
H58 H 0.18886 0.84614 0.87699 0.0
C59 C 0.18232 0.89275 0.85369 0.0
C60 C 0.19632 0.89498 0.86084 0.0
C61 C 0.17151 0.88187 0.85777 0.0
C62 C 0.17482 0.87307 0.86896 0.0
C63 C 0.18886 0.87494 0.87582 0.0
C64 C 0.1995 0.88594 0.8719 0.0
H65 H 0.17476 0.21729 0.89276 0.0
H66 H 0.17289 0.18741 0.85815 0.0
H67 H 0.2079 0.18928 0.89015 0.0
H68 H 0.21574 0.18777 0.85996 0.0
C69 C 0.2063 0.17985 0.85606 0.0
O70 O 0.19663 0.17679 0.86664 0.0
H71 H 0.20055 0.1846 0.84703 0.0
C72 C 0.1794 0.20901 0.88732 0.0
C73 C 0.19224 0.20408 0.89316 0.0
C74 C 0.17225 0.20308 0.87471 0.0
C75 C 0.17806 0.19202 0.86796 0.0
C76 C 0.1909 0.18714 0.87352 0.0
C77 C 0.1979 0.19309 0.88609 0.0
H78 H 0.81872 0.17546 0.87581 0.0
H79 H 0.84622 0.21193 0.89424 0.0
H80 H 0.86129 0.18942 0.85972 0.0
H81 H 0.88192 0.198 0.88647 0.0
C82 C 0.87957 0.20918 0.88686 0.0
O83 O 0.8678 0.21074 0.87756 0.0
H84 H 0.87677 0.21172 0.89777 0.0
C85 C 0.82889 0.18278 0.87613 0.0
C86 C 0.8396 0.18112 0.86641 0.0
C87 C 0.83113 0.19381 0.88624 0.0
C88 C 0.84425 0.20335 0.88651 0.0
C89 C 0.85516 0.2016 0.8771 0.0
C90 C 0.85286 0.1905 0.8671 0.0
H91 H 0.80923 0.89198 0.87984 0.0
H92 H 0.84035 0.86188 0.88409 0.0
H93 H 0.84323 0.89138 0.8502 0.0
H94 H 0.84868 0.86317 0.84173 0.0
C95 C 0.85301 0.85934 0.85196 0.0
O96 O 0.8546 0.87023 0.86188 0.0
H97 H 0.84489 0.85046 0.85549 0.0
C98 C 0.81879 0.88768 0.87628 0.0
C99 C 0.82557 0.89324 0.86415 0.0
C100 C 0.82395 0.87635 0.88362 0.0
C101 C 0.83603 0.87049 0.87857 0.0
C102 C 0.84285 0.87585 0.8665 0.0
C103 C 0.83767 0.88721 0.85937 0.0
H104 H 0.15451 0.73408 0.67984 0.0
H105 H 0.15325 0.70118 0.71092 0.0
H106 H 0.18217 0.70094 0.67702 0.0
H107 H 0.1672 0.6728 0.68449 0.0
C108 C 0.16645 0.67456 0.69602 0.0
O109 O 0.17317 0.68803 0.69979 0.0
H110 H 0.15454 0.67345 0.69823 0.0
C111 C 0.15815 0.72439 0.68376 0.0
C112 C 0.16908 0.71835 0.67677 0.0
C113 C 0.1524 0.71838 0.69618 0.0
C114 C 0.15759 0.70607 0.70147 0.0
C115 C 0.16823 0.69982 0.69452 0.0
C116 C 0.17396 0.70595 0.68226 0.0
H117 H 0.87655 0.71444 0.70286 0.0
H118 H 0.84187 0.69848 0.67207 0.0
H119 H 0.86675 0.73942 0.6668 0.0
H120 H 0.8345 0.7372 0.66296 0.0
C121 C 0.83236 0.72709 0.65673 0.0
O122 O 0.84517 0.72099 0.65631 0.0
H123 H 0.82384 0.7198 0.66197 0.0
C124 C 0.87018 0.71567 0.6931 0.0
C125 C 0.87311 0.7282 0.68539 0.0
C126 C 0.85895 0.70482 0.68843 0.0
C127 C 0.85061 0.70667 0.67588 0.0
C128 C 0.85347 0.71912 0.66815 0.0
C129 C 0.86478 0.72977 0.67281 0.0
H130 H 0.86972 0.35239 0.69956 0.0
H131 H 0.83896 0.38281 0.69593 0.0
H132 H 0.87197 0.38641 0.73012 0.0
H133 H 0.84302 0.39377 0.73825 0.0
C134 C 0.83886 0.39744 0.72788 0.0
O135 O 0.84976 0.3977 0.71831 0.0
H136 H 0.8291 0.38985 0.72406 0.0
C137 C 0.8657 0.36186 0.70336 0.0
C138 C 0.87248 0.36882 0.71561 0.0
C139 C 0.8536 0.36673 0.69612 0.0
C140 C 0.84813 0.37873 0.70143 0.0
C141 C 0.8547 0.38576 0.7137 0.0
C142 C 0.86682 0.38078 0.72079 0.0
H143 H 0.15742 0.38673 0.72034 0.0
H144 H 0.14514 0.34511 0.70184 0.0
H145 H 0.1762 0.3753 0.68186 0.0
H146 H 0.15177 0.35951 0.66356 0.0
C147 C 0.15159 0.34891 0.66849 0.0
O148 O 0.16138 0.34977 0.68012 0.0
H149 H 0.14018 0.3455 0.67178 0.0
C150 C 0.15829 0.3791 0.71198 0.0
C151 C 0.16788 0.38271 0.7011 0.0
C152 C 0.15015 0.36554 0.71243 0.0
C153 C 0.15153 0.35556 0.70178 0.0
C154 C 0.16074 0.35918 0.69071 0.0
C155 C 0.16907 0.37264 0.69047 0.0
H156 H 0.17865 0.38564 0.35428 0.0
H157 H 0.1772 0.35084 0.38328 0.0
H158 H 0.21488 0.38273 0.38455 0.0
H159 H 0.22294 0.35451 0.39075 0.0
C160 C 0.21194 0.34929 0.39371 0.0
O161 O 0.20285 0.35945 0.39583 0.0
H162 H 0.20727 0.34191 0.38494 0.0
C163 C 0.18373 0.38007 0.36272 0.0
C164 C 0.19771 0.38573 0.36869 0.0
C165 C 0.17607 0.36754 0.36799 0.0
C166 C 0.18272 0.36062 0.37917 0.0
C167 C 0.19665 0.36612 0.38504 0.0
C168 C 0.20406 0.37866 0.3799 0.0
H169 H 0.1719 0.70703 0.36984 0.0
H170 H 0.16801 0.68105 0.33209 0.0
H171 H 0.20036 0.67493 0.36496 0.0
H172 H 0.20882 0.67693 0.33388 0.0
C173 C 0.19937 0.66917 0.32965 0.0
O174 O 0.18924 0.66644 0.33992 0.0
H175 H 0.19407 0.67393 0.32038 0.0
C176 C 0.17547 0.69862 0.36368 0.0
C177 C 0.187 0.6915 0.36919 0.0
C178 C 0.16844 0.69499 0.35033 0.0
C179 C 0.17313 0.684 0.34244 0.0
C180 C 0.18476 0.67695 0.34765 0.0
C181 C 0.19161 0.68068 0.36097 0.0
H182 H 0.81025 0.65367 0.36434 0.0
H183 H 0.84351 0.68456 0.38483 0.0
H184 H 0.85346 0.66217 0.34791 0.0
H185 H 0.87512 0.66535 0.37185 0.0
C186 C 0.87578 0.67709 0.37299 0.0
O187 O 0.8635 0.68183 0.36664 0.0
H188 H 0.87643 0.67976 0.38446 0.0
C189 C 0.82127 0.65955 0.36479 0.0
C190 C 0.83134 0.65664 0.35485 0.0
C191 C 0.82562 0.66947 0.37576 0.0
C192 C 0.84003 0.67676 0.37652 0.0
C193 C 0.84993 0.67424 0.36636 0.0
C194 C 0.84564 0.66415 0.35562 0.0
H195 H 0.81021 0.37561 0.39753 0.0
H196 H 0.8434 0.34741 0.39802 0.0
H197 H 0.84127 0.37744 0.36485 0.0
H198 H 0.84741 0.3494 0.35514 0.0
C199 C 0.85299 0.34587 0.36493 0.0
O200 O 0.85496 0.35682 0.3748 0.0
H201 H 0.84572 0.33665 0.369 0.0
C202 C 0.81968 0.37192 0.39305 0.0
C203 C 0.82504 0.37809 0.38057 0.0
C204 C 0.82607 0.36075 0.39949 0.0
C205 C 0.83805 0.3558 0.3932 0.0
C206 C 0.8434 0.36171 0.38068 0.0
C207 C 0.8369 0.37282 0.37441 0.0
H208 H 0.66082 0.22834 0.69453 0.0
H209 H 0.66271 0.19528 0.72517 0.0
H210 H 0.68877 0.19589 0.68903 0.0
H211 H 0.67397 0.1678 0.69676 0.0
C212 C 0.67488 0.16904 0.70846 0.0
O213 O 0.68175 0.1825 0.71214 0.0
H214 H 0.66349 0.16754 0.71225 0.0
C215 C 0.66514 0.21887 0.69818 0.0
C216 C 0.67528 0.21291 0.69007 0.0
C217 C 0.66049 0.21268 0.71093 0.0
C218 C 0.66622 0.20038 0.71553 0.0
C219 C 0.6763 0.19432 0.70757 0.0
C220 C 0.68082 0.2006 0.69495 0.0
H221 H 0.38384 0.21829 0.72293 0.0
H222 H 0.34313 0.20808 0.69781 0.0
H223 H 0.37139 0.24677 0.69075 0.0
H224 H 0.33981 0.24894 0.69122 0.0
C225 C 0.33528 0.23879 0.68569 0.0
O226 O 0.34662 0.23117 0.68294 0.0
H227 H 0.32747 0.2326 0.69264 0.0
C228 C 0.37614 0.22091 0.7146 0.0
C229 C 0.37926 0.23365 0.70725 0.0
C230 C 0.36314 0.21156 0.71132 0.0
C231 C 0.35318 0.21514 0.70059 0.0
C232 C 0.35622 0.2278 0.69324 0.0
C233 C 0.36925 0.23696 0.69647 0.0
H234 H 0.36335 0.85468 0.6906 0.0
H235 H 0.33496 0.88667 0.6834 0.0
H236 H 0.36692 0.89144 0.71831 0.0
H237 H 0.33672 0.89677 0.72481 0.0
C238 C 0.33365 0.90181 0.71472 0.0
O239 O 0.34503 0.90214 0.70569 0.0
H240 H 0.32361 0.89525 0.70992 0.0
C241 C 0.35991 0.86467 0.69367 0.0
C242 C 0.36692 0.87239 0.7055 0.0
C243 C 0.34859 0.86985 0.68551 0.0
C244 C 0.34379 0.88263 0.68951 0.0
C245 C 0.35013 0.89011 0.70159 0.0
C246 C 0.3618 0.88515 0.70937 0.0
H247 H 0.64649 0.85972 0.69912 0.0
H248 H 0.64987 0.82767 0.66766 0.0
H249 H 0.68209 0.86481 0.67081 0.0
H250 H 0.67571 0.85529 0.64103 0.0
C251 C 0.66957 0.84473 0.64332 0.0
O252 O 0.67338 0.84106 0.65694 0.0
H253 H 0.65756 0.84561 0.64205 0.0
C254 C 0.65212 0.85593 0.69038 0.0
C255 C 0.66505 0.86395 0.6859 0.0
C256 C 0.64663 0.84279 0.68394 0.0
C257 C 0.65409 0.83769 0.67287 0.0
C258 C 0.66676 0.84571 0.66812 0.0
C259 C 0.67232 0.8587 0.6747 0.0
H260 H 0.66769 0.88638 0.34312 0.0
H261 H 0.66619 0.84761 0.36661 0.0
H262 H 0.70516 0.87797 0.36965 0.0
H263 H 0.71029 0.84819 0.36767 0.0
C264 C 0.70076 0.84314 0.37348 0.0
O265 O 0.69282 0.85346 0.37808 0.0
H266 H 0.69365 0.83557 0.36619 0.0
C267 C 0.67294 0.87947 0.35023 0.0
C268 C 0.68737 0.88383 0.35591 0.0
C269 C 0.66506 0.86648 0.35415 0.0
C270 C 0.67192 0.85776 0.36359 0.0
C271 C 0.68634 0.86192 0.36905 0.0
C272 C 0.69398 0.87493 0.36532 0.0
H273 H 0.6711 0.22008 0.3745 0.0
H274 H 0.66758 0.19427 0.33658 0.0
H275 H 0.69894 0.1874 0.37 0.0
H276 H 0.7085 0.18755 0.34028 0.0
C277 C 0.69863 0.1807 0.33552 0.0
O278 O 0.6877 0.17875 0.34507 0.0
H279 H 0.69447 0.18614 0.32609 0.0
C280 C 0.67482 0.21182 0.36823 0.0
C281 C 0.686 0.20436 0.37392 0.0
C282 C 0.66796 0.20831 0.35477 0.0
C283 C 0.67252 0.19715 0.34701 0.0
C284 C 0.68364 0.18965 0.35253 0.0
C285 C 0.69031 0.19324 0.36593 0.0
H286 H 0.2991 0.15616 0.3991 0.0
H287 H 0.33755 0.18763 0.39957 0.0
H288 H 0.32875 0.15746 0.36528 0.0
H289 H 0.35947 0.16262 0.37404 0.0
C290 C 0.36028 0.17358 0.37847 0.0
O291 O 0.34707 0.17878 0.37592 0.0
H292 H 0.36285 0.17308 0.39005 0.0
C293 C 0.30902 0.16086 0.39426 0.0
C294 C 0.31274 0.15538 0.38137 0.0
C295 C 0.31783 0.1725 0.4009 0.0
C296 C 0.33063 0.17863 0.39459 0.0
C297 C 0.33463 0.17302 0.38188 0.0
C298 C 0.32567 0.16149 0.37525 0.0
H299 H 0.29417 0.87981 0.37804 0.0
H300 H 0.32672 0.851 0.38014 0.0
H301 H 0.32766 0.88177 0.3475 0.0
H302 H 0.33335 0.85376 0.33784 0.0
C303 C 0.33839 0.84994 0.34778 0.0
O304 O 0.34004 0.86065 0.35789 0.0
H305 H 0.33079 0.8407 0.35137 0.0
C306 C 0.30386 0.8761 0.37404 0.0
C307 C 0.31015 0.88237 0.36194 0.0
C308 C 0.30965 0.86471 0.38071 0.0
C309 C 0.32192 0.85963 0.37514 0.0
C310 C 0.32825 0.8657 0.36313 0.0
C311 C 0.32244 0.87706 0.35663 0.0
H312 H 0.6463 0.72051 0.19296 0.0
H313 H 0.64992 0.68914 0.22485 0.0
H314 H 0.67948 0.69233 0.1912 0.0
H315 H 0.66745 0.66292 0.19773 0.0
C316 C 0.66547 0.66433 0.20909 0.0
O317 O 0.67112 0.67797 0.21342 0.0
H318 H 0.65332 0.66255 0.21017 0.0
C319 C 0.65181 0.71199 0.19729 0.0
C320 C 0.66372 0.70751 0.19042 0.0
C321 C 0.64691 0.7056 0.20981 0.0
C322 C 0.65373 0.69433 0.21534 0.0
C323 C 0.66518 0.68935 0.20839 0.0
C324 C 0.67031 0.69607 0.19614 0.0
H325 H 0.37588 0.69774 0.19694 0.0
H326 H 0.33448 0.68618 0.1731 0.0
H327 H 0.3611 0.72565 0.16542 0.0
H328 H 0.32864 0.72531 0.16707 0.0
C329 C 0.32507 0.71576 0.16024 0.0
O330 O 0.337 0.70887 0.15769 0.0
H331 H 0.31679 0.70855 0.16584 0.0
C332 C 0.36769 0.70001 0.18892 0.0
C333 C 0.36997 0.71284 0.18162 0.0
C334 C 0.35485 0.69027 0.18611 0.0
C335 C 0.34451 0.6934 0.17548 0.0
C336 C 0.34683 0.70609 0.16805 0.0
C337 C 0.35946 0.71583 0.1712 0.0
H338 H 0.33483 0.38478 0.19008 0.0
H339 H 0.36759 0.35625 0.19398 0.0
H340 H 0.36844 0.39009 0.22405 0.0
H341 H 0.39722 0.38448 0.21447 0.0
C342 C 0.39521 0.37268 0.21392 0.0
O343 O 0.38078 0.36811 0.21703 0.0
H344 H 0.39709 0.36923 0.20302 0.0
C345 C 0.34457 0.38159 0.19543 0.0
C346 C 0.35082 0.38909 0.20767 0.0
C347 C 0.35049 0.36971 0.1903 0.0
C348 C 0.36276 0.36528 0.19771 0.0
C349 C 0.36912 0.37262 0.20986 0.0
C350 C 0.36321 0.38446 0.21475 0.0
H351 H 0.64361 0.36057 0.21485 0.0
H352 H 0.64525 0.32933 0.18212 0.0
H353 H 0.67804 0.36588 0.18518 0.0
H354 H 0.67048 0.35677 0.15517 0.0
C355 C 0.66436 0.34625 0.15766 0.0
O356 O 0.66861 0.34255 0.17113 0.0
H357 H 0.65235 0.3472 0.15676 0.0
C358 C 0.64885 0.35694 0.20578 0.0
C359 C 0.66176 0.36488 0.20107 0.0
C360 C 0.64286 0.34406 0.19905 0.0
C361 C 0.64982 0.33914 0.18754 0.0
C362 C 0.66239 0.34709 0.18259 0.0
C363 C 0.66838 0.35983 0.18934 0.0
H364 H 0.68394 0.40877 0.862 0.0
H365 H 0.67854 0.3719 0.88835 0.0
H366 H 0.71869 0.40073 0.89206 0.0
H367 H 0.72392 0.37176 0.89492 0.0
C368 C 0.71282 0.36683 0.89791 0.0
O369 O 0.70454 0.37732 0.90132 0.0
H370 H 0.70747 0.36042 0.8887 0.0
C371 C 0.6882 0.4022 0.87011 0.0
C372 C 0.70239 0.40628 0.87646 0.0
C373 C 0.67935 0.38989 0.87439 0.0
C374 C 0.68497 0.38161 0.88507 0.0
C375 C 0.6991 0.38556 0.89137 0.0
C376 C 0.7077 0.39792 0.88719 0.0
H377 H 0.67482 0.72414 0.88179 0.0
H378 H 0.67053 0.69628 0.84536 0.0
H379 H 0.70418 0.69272 0.8778 0.0
H380 H 0.71165 0.69264 0.84696 0.0
C381 C 0.70214 0.6847 0.84322 0.0
O382 O 0.69214 0.68236 0.85364 0.0
H383 H 0.69669 0.68912 0.83382 0.0
C384 C 0.67858 0.7157 0.87582 0.0
C385 C 0.69051 0.70917 0.88141 0.0
C386 C 0.67126 0.71127 0.86279 0.0
C387 C 0.67584 0.69984 0.85547 0.0
C388 C 0.68767 0.69319 0.86091 0.0
C389 C 0.69493 0.69783 0.87384 0.0
H390 H 0.31506 0.6651 0.86054 0.0
H391 H 0.34517 0.69898 0.8808 0.0
H392 H 0.35817 0.677 0.84496 0.0
H393 H 0.37906 0.68207 0.8695 0.0
C394 C 0.3787 0.6937 0.87036 0.0
O395 O 0.36613 0.69734 0.86351 0.0
H396 H 0.37877 0.69654 0.88176 0.0
C397 C 0.32558 0.6719 0.86117 0.0
C398 C 0.3362 0.66986 0.85149 0.0
C399 C 0.32871 0.68226 0.87197 0.0
C400 C 0.34257 0.69072 0.87278 0.0
C401 C 0.35309 0.68881 0.86303 0.0
C402 C 0.34994 0.67838 0.85245 0.0
H403 H 0.31537 0.39086 0.88774 0.0
H404 H 0.3458 0.35998 0.89011 0.0
H405 H 0.34726 0.38955 0.85621 0.0
H406 H 0.35127 0.35987 0.84867 0.0
C407 C 0.35762 0.35716 0.85837 0.0
O408 O 0.35944 0.36864 0.86762 0.0
H409 H 0.35122 0.34789 0.8633 0.0
C410 C 0.32435 0.38612 0.88353 0.0
C411 C 0.33051 0.39157 0.87109 0.0
C412 C 0.32963 0.37466 0.89055 0.0
C413 C 0.34151 0.36883 0.88501 0.0
C414 C 0.34781 0.37417 0.87265 0.0
C415 C 0.34224 0.38544 0.86568 0.0
Cu416 Cu 0.25274 0.29287 0.04582 0.0
N417 N 0.25336 0.30915 0.03463 0.0
N418 N 0.26004 0.32353 0.01685 0.0
C419 C 0.26241 0.31173 0.02393 0.0
C420 C 0.24907 0.32864 0.0234 0.0
C421 C 0.24501 0.31977 0.0344 0.0
O422 O 0.25201 0.27727 0.03207 0.0
C423 C 0.27041 0.30759 0.06644 0.0
O424 O 0.26004 0.31568 0.06393 0.0
H425 H 0.27023 0.30476 0.02111 0.0
H426 H 0.2365 0.32096 0.04161 0.0
N427 N 0.23601 0.28958 0.05656 0.0
N428 N 0.22165 0.28071 0.0737 0.0
C429 C 0.23511 0.28162 0.06826 0.0
C430 C 0.22267 0.29388 0.05447 0.0
C431 C 0.21383 0.28846 0.06501 0.0
C432 C 0.24145 0.27731 0.02272 0.0
O433 O 0.23213 0.28652 0.02414 0.0
H434 H 0.24412 0.27636 0.07247 0.0
H435 H 0.21949 0.30032 0.04581 0.0
O436 O 0.26978 0.29603 0.05937 0.0
H437 H 0.24434 0.33809 0.02047 0.0
H438 H 0.20251 0.29019 0.06614 0.0
Cu439 Cu 0.72846 0.24266 0.02378 0.0
N440 N 0.71231 0.24246 0.03487 0.0
N441 N 0.69895 0.24982 0.05178 0.0
C442 C 0.71234 0.25082 0.04633 0.0
C443 C 0.69014 0.24027 0.04344 0.0
C444 C 0.69843 0.23577 0.03296 0.0
O445 O 0.74563 0.2417 0.03629 0.0
C446 C 0.71897 0.26142 1.00464 0.0
O447 O 0.70739 0.25161 1.0043 0.0
H448 H 0.72204 0.25768 0.0504 0.0
H449 H 0.6945 0.22856 0.02429 0.0
N450 N 0.72651 0.22737 0.01124 0.0
N451 N 0.73126 0.21485 0.99245 0.0
C452 C 0.73347 0.22757 0.99914 0.0
C453 C 0.71961 0.21406 0.01236 0.0
C454 C 0.72254 0.20627 1.00074 0.0
C455 C 0.75282 0.25242 0.04275 0.0
O456 O 0.74925 0.26511 0.04017 0.0
H457 H 0.7406 0.23676 0.99569 0.0
H458 H 0.71328 0.21021 0.02118 0.0
O459 O 0.73007 0.25981 0.0128 0.0
H460 H 0.67844 0.23719 0.04446 0.0
H461 H 0.71877 0.19513 0.99871 0.0
Cu462 Cu 0.74646 0.79105 0.0375 0.0
N463 N 0.74751 0.80748 0.02649 0.0
N464 N 0.75409 0.82196 0.0087 0.0
C465 C 0.75535 0.80938 0.01486 0.0
C466 C 0.74511 0.82824 0.01686 0.0
C467 C 0.74105 0.81929 0.02778 0.0
O468 O 0.74545 0.77549 0.02376 0.0
C469 C 0.76468 0.80469 0.0585 0.0
O470 O 0.75486 0.81341 0.05632 0.0
H471 H 0.76193 0.80166 0.01109 0.0
H472 H 0.73393 0.82131 0.03608 0.0
N473 N 0.7297 0.78824 0.04821 0.0
N474 N 0.71528 0.78024 0.06556 0.0
C475 C 0.72821 0.77973 0.05949 0.0
C476 C 0.71721 0.79426 0.04702 0.0
C477 C 0.70833 0.7894 0.05776 0.0
C478 C 0.73501 0.77565 0.01432 0.0
O479 O 0.72575 0.78493 0.01565 0.0
H480 H 0.73664 0.77355 0.06336 0.0
H481 H 0.71472 0.80166 0.03896 0.0
O482 O 0.76347 0.79332 0.05106 0.0
H483 H 0.74153 0.83848 0.01498 0.0
H484 H 0.69755 0.79229 0.0596 0.0
Cu485 Cu 0.22536 0.73667 0.00978 0.0
N486 N 0.20803 0.73548 0.01937 0.0
N487 N 0.19304 0.73996 0.03616 0.0
C488 C 0.20714 0.74052 0.03251 0.0
C489 C 0.18472 0.73419 0.02485 0.0
C490 C 0.19403 0.7314 0.0145 0.0
O491 O 0.24152 0.73589 0.02358 0.0
C492 C 0.22106 0.76443 1.00067 0.0
O493 O 0.21232 0.76441 0.0112 0.0
H494 H 0.21663 0.74543 0.03889 0.0
H495 H 0.19081 0.72729 1.00397 0.0
N496 N 0.22484 0.72147 0.99728 0.0
N497 N 0.23103 0.70878 0.97918 0.0
C498 C 0.23305 0.72147 0.98596 0.0
C499 C 0.2173 0.70836 0.99775 0.0
C500 C 0.22112 0.70047 0.98658 0.0
C501 C 0.24758 0.74655 0.03089 0.0
O502 O 0.2434 0.75905 0.02855 0.0
H503 H 0.24074 0.73051 0.98308 0.0
H504 H 0.20977 0.70474 1.00577 0.0
O505 O 0.22797 0.75389 0.99879 0.0
H506 H 0.17278 0.73251 0.02394 0.0
H507 H 0.21699 0.68947 0.98414 0.0
Cu508 Cu 0.01418 0.28048 0.29768 0.0
N509 N 0.02227 0.26348 0.29641 0.0
N510 N 0.03713 0.24852 0.28876 0.0
C511 C 0.03589 0.26209 0.29226 0.0
C512 C 0.02382 0.2411 0.29083 0.0
C513 C 0.01469 0.25034 0.29551 0.0
O514 O 0.03009 0.29544 0.30302 0.0
C515 C 0.99809 0.29225 0.27441 0.0
O516 O 0.99702 0.30333 0.28242 0.0
H517 H 0.04427 0.27101 0.29063 0.0
H518 H 1.00302 0.24783 0.29707 0.0
N519 N 0.99935 0.27936 0.31082 0.0
N520 N 0.98044 0.28462 0.3231 0.0
C521 C 0.98997 0.28887 0.31305 0.0
C522 C 0.99572 0.26881 0.31986 0.0
C523 C 0.9841 0.272 0.32741 0.0
C524 C 0.03497 0.29598 0.31585 0.0
O525 O 0.02857 0.28696 0.32476 0.0
H526 H 0.99026 0.29879 0.30757 0.0
H527 H 1.00111 0.25942 0.3209 0.0
O528 O 1.00536 0.2826 0.279 0.0
H529 H 0.02069 0.22992 0.2884 0.0
H530 H 0.97861 0.26535 0.33527 0.0
Cu531 Cu 0.78587 0.04197 0.28852 0.0
N532 N 0.80249 0.05574 0.28867 0.0
N533 N 0.81654 0.07546 0.28228 0.0
C534 C 0.80323 0.06742 0.28072 0.0
C535 C 0.82451 0.06854 0.29162 0.0
C536 C 0.81579 0.05639 0.2956 0.0
O537 O 0.76901 0.05257 0.28911 0.0
C538 C 0.79828 0.02398 0.27143 0.0
O539 O 0.80929 0.02842 0.28049 0.0
H540 H 0.79425 0.06973 0.27361 0.0
H541 H 0.81907 0.04846 0.30274 0.0
N542 N 0.78561 0.0302 0.30417 0.0
N543 N 0.77781 0.01148 0.31717 0.0
C544 C 0.77625 0.01811 0.30478 0.0
C545 C 0.79346 0.03136 0.31662 0.0
C546 C 0.78864 0.01981 0.32469 0.0
C547 C 0.76828 0.05903 0.30084 0.0
O548 O 0.77819 0.05752 0.31104 0.0
H549 H 0.76818 0.01449 0.29634 0.0
H550 H 0.80186 0.04007 0.31975 0.0
O551 O 0.78616 0.02908 0.27236 0.0
H552 H 0.83583 0.07198 0.2953 0.0
H553 H 0.7928 0.01773 0.33525 0.0
Cu554 Cu 0.00953 0.77357 0.28269 0.0
N555 N 1.00157 0.79071 0.28096 0.0
N556 N 0.98559 0.80582 0.27512 0.0
C557 C 0.98793 0.79212 0.27558 0.0
C558 C 0.99817 0.81334 0.28059 0.0
C559 C 1.00805 0.804 0.28411 0.0
O560 O 0.99459 0.75941 0.28971 0.0
C561 C 0.01156 0.77183 0.25273 0.0
O562 O 0.99988 0.77847 0.25187 0.0
H563 H 0.97996 0.78327 0.27181 0.0
H564 H 0.01929 0.80676 0.2883 0.0
N565 N 0.02596 0.775 0.29551 0.0
N566 N 0.04659 0.76937 0.30653 0.0
C567 C 0.03631 0.76616 0.29583 0.0
C568 C 0.02976 0.7841 0.30643 0.0
C569 C 0.0425 0.78069 0.31321 0.0
C570 C 0.98963 0.76235 0.3015 0.0
O571 O 0.99469 0.77455 0.30772 0.0
H572 H 0.03624 0.75754 0.28831 0.0
H573 H 0.02355 0.79242 0.30945 0.0
O574 O 0.01648 0.76813 0.26473 0.0
H575 H 1.00028 0.8248 0.28143 0.0
H576 H 0.04807 0.78591 0.32256 0.0
Cu577 Cu 0.21357 0.00711 0.2892 0.0
N578 N 0.21192 0.01758 0.30556 0.0
N579 N 0.21791 0.0354 0.32108 0.0
C580 C 0.22023 0.03011 0.30832 0.0
C581 C 0.20769 0.02578 0.32663 0.0
C582 C 0.20393 0.01478 0.31696 0.0
O583 O 0.21439 0.02112 0.27413 0.0
C584 C 0.23046 0.9896 0.30338 0.0
O585 O 0.21901 0.98923 0.31118 0.0
H586 H 0.22829 0.03495 0.30126 0.0
H587 H 0.19629 1.00526 0.31835 0.0
N588 N 0.19737 0.99323 0.28548 0.0
N589 N 0.18421 0.9737 0.27587 0.0
C590 C 0.19744 0.98192 0.27691 0.0
C591 C 0.18362 0.99216 0.29008 0.0
C592 C 0.17545 0.98012 0.28413 0.0
C593 C 0.20266 0.02695 0.27242 0.0
O594 O 0.19143 0.02248 0.28003 0.0
H595 H 0.20699 0.97997 0.27133 0.0
H596 H 0.17974 0.99967 0.29711 0.0
O597 O 0.23081 0.99713 0.29229 0.0
H598 H 0.20337 0.02656 0.33697 0.0
H599 H 0.164 0.97638 0.28581 0.0
Cu600 Cu 0.01637 0.80506 0.78271 0.0
N601 N 0.02574 0.78886 0.78123 0.0
N602 N 0.0409 0.77432 0.77333 0.0
C603 C 0.03701 0.78752 0.77296 0.0
C604 C 0.0317 0.76709 0.78223 0.0
C605 C 0.02239 0.7761 0.7871 0.0
O606 O 0.0318 0.82121 0.78372 0.0
C607 C 0.99163 0.79544 0.76648 0.0
O608 O 0.99088 0.78629 0.7768 0.0
H609 H 0.04193 0.79598 0.76646 0.0
H610 H 0.01363 0.77346 0.79422 0.0
N611 N 1.00543 0.80499 0.7989 0.0
N612 N 0.98747 0.80928 0.81283 0.0
C613 C 0.99239 0.80999 0.79965 0.0
C614 C 0.00894 0.80099 0.81207 0.0
C615 C 0.99789 0.80363 0.8207 0.0
C616 C 0.03098 0.83234 0.79099 0.0
O617 O 0.01851 0.83393 0.79663 0.0
H618 H 0.98685 0.81447 0.79075 0.0
H619 H 0.01892 0.79664 0.8152 0.0
O620 O 1.00262 0.80516 0.76647 0.0
H621 H 0.0317 0.75609 0.78504 0.0
H622 H 0.99755 0.80152 0.83187 0.0
Cu623 Cu 0.29709 0.04878 0.79313 0.0
N624 N 0.31425 0.06149 0.79151 0.0
N625 N 0.32853 0.08115 0.78535 0.0
C626 C 0.31464 0.07433 0.78564 0.0
C627 C 0.33722 0.07218 0.79133 0.0
C628 C 0.32836 0.06005 0.79514 0.0
O629 O 0.28139 0.06007 0.79706 0.0
C630 C 0.30208 0.03627 0.76658 0.0
O631 O 0.3126 0.047 0.76565 0.0
H632 H 0.30489 0.07835 0.78126 0.0
H633 H 0.33195 0.05076 0.79999 0.0
N634 N 0.29898 0.03654 0.80812 0.0
N635 N 0.29365 0.01709 0.82086 0.0
C636 C 0.29046 0.02398 0.80897 0.0
C637 C 0.30798 0.03772 0.81989 0.0
C638 C 0.30464 0.02572 0.82784 0.0
C639 C 0.28354 0.06719 0.8086 0.0
O640 O 0.29555 0.06613 0.81649 0.0
H641 H 0.2818 0.02016 0.80112 0.0
H642 H 0.31624 0.04671 0.82256 0.0
O643 O 0.29334 0.03613 0.77661 0.0
H644 H 0.34911 0.07419 0.79284 0.0
H645 H 0.30989 0.02351 0.83791 0.0
Cu646 Cu 0.02009 0.29014 0.80709 0.0
N647 N 1.00831 0.29177 0.79063 0.0
N648 N 0.99111 0.29909 0.77578 0.0
C649 C 0.9968 0.29922 0.78925 0.0
C650 C 0.99937 0.29111 0.76849 0.0
C651 C 0.00995 0.28664 0.77765 0.0
O652 O 1.00751 0.29033 0.82285 0.0
C653 C 0.03614 0.31746 0.80271 0.0
O654 O 0.02336 0.32129 0.79857 0.0
H655 H 0.99306 0.30503 0.79789 0.0
H656 H 0.01839 0.28029 0.77502 0.0
N657 N 0.02848 0.27326 0.80699 0.0
N658 N 0.04475 0.2581 0.81186 0.0
C659 C 0.04173 0.27157 0.81311 0.0
C660 C 0.02286 0.26046 0.80156 0.0
C661 C 0.03287 0.25109 0.80453 0.0
C662 C 0.00967 0.28385 0.83429 0.0
O663 O 0.02187 0.27814 0.83639 0.0
H664 H 0.04876 0.28005 0.81877 0.0
H665 H 0.01221 0.25809 0.79595 0.0
O666 O 0.03656 0.3052 0.80779 0.0
H667 H 0.99793 0.28867 0.75731 0.0
H668 H 0.03143 0.23999 0.80149 0.0
Cu669 Cu 0.75562 0.02634 0.77087 0.0
N670 N 0.77417 0.0388 0.77468 0.0
N671 N 0.79067 0.0568 0.7828 0.0
C672 C 0.77643 0.05077 0.78257 0.0
C673 C 0.79757 0.04821 0.7748 0.0
C674 C 0.78733 0.03711 0.76978 0.0
O675 O 0.74657 0.04278 0.76165 0.0
C676 C 0.76552 0.0089 0.79348 0.0
O677 O 0.76049 0.01852 0.80121 0.0
H678 H 0.76787 0.05488 0.78813 0.0
H679 H 0.78929 0.02845 0.76298 0.0
N680 N 0.73726 0.01366 0.76686 0.0
N681 N 0.72166 0.99515 0.7583 0.0
C682 C 0.73548 1.00221 0.75824 0.0
C683 C 0.72422 0.01393 0.77265 0.0
C684 C 0.71453 1.00253 0.76733 0.0
C685 C 0.73969 0.05084 0.76889 0.0
O686 O 0.73823 0.04824 0.78236 0.0
H687 H 0.7442 0.99912 0.75212 0.0
H688 H 0.722 0.02166 0.78038 0.0
O689 O 0.76469 0.00997 0.78011 0.0
H690 H 0.80912 0.04995 0.77252 0.0
H691 H 0.70325 0.99968 0.77022 0.0
Cu692 Cu 0.25845 0.77751 0.53059 0.0
N693 N 0.27635 0.78324 0.54095 0.0
N694 N 0.29199 0.79355 0.55808 0.0
C695 C 0.27773 0.78958 0.55381 0.0
C696 C 0.29992 0.78958 0.54753 0.0
C697 C 0.29025 0.78315 0.53701 0.0
O698 O 0.24308 0.77517 0.54432 0.0
C699 C 0.26495 0.79021 0.50538 0.0
O700 O 0.27398 0.7806 0.50615 0.0
H701 H 0.26845 0.79167 0.55972 0.0
H702 H 0.29318 0.77892 0.5271 0.0
N703 N 0.25825 0.75995 0.52138 0.0
N704 N 0.2528 0.7435 0.50423 0.0
C705 C 0.24902 0.75528 0.51029 0.0
C706 C 0.26815 0.75071 0.52252 0.0
C707 C 0.26482 0.74055 0.51193 0.0
C708 C 0.24537 0.76623 0.55388 0.0
O709 O 0.25692 0.75948 0.55308 0.0
H710 H 0.24032 0.76101 0.50617 0.0
H711 H 0.2775 0.75168 0.53008 0.0
O712 O 0.25656 0.79138 0.51554 0.0
H713 H 0.31184 0.79123 0.54743 0.0
H714 H 0.27101 0.73191 0.50984 0.0
Cu715 Cu 0.72847 0.73488 0.50914 0.0
N716 N 0.72624 0.71763 0.49939 0.0
N717 N 0.73125 0.70175 0.48355 0.0
C718 C 0.73122 0.71561 0.48654 0.0
C719 C 0.72601 0.69474 0.49492 0.0
C720 C 0.72288 0.70459 0.50468 0.0
O721 O 0.72797 0.75008 0.49582 0.0
C722 C 0.7537 0.74759 0.52597 0.0
O723 O 0.74896 0.75977 0.52325 0.0
H724 H 0.73599 0.72417 0.48007 0.0
H725 H 0.71945 0.70247 0.51527 0.0
N726 N 0.71335 0.73589 0.52131 0.0
N727 N 0.70099 0.7448 0.53821 0.0
C728 C 0.71387 0.74555 0.5318 0.0
C729 C 0.69969 0.72862 0.52106 0.0
C730 C 0.69203 0.73407 0.53152 0.0
C731 C 0.73864 0.75507 0.48852 0.0
O732 O 0.75133 0.75012 0.49015 0.0
H733 H 0.72351 0.75312 0.5345 0.0
H734 H 0.69547 0.72026 0.51354 0.0
O735 O 0.74681 0.73623 0.52042 0.0
H736 H 0.7253 0.6834 0.49639 0.0
H737 H 0.6806 0.73075 0.53365 0.0
Cu738 Cu 0.76045 0.27234 0.54414 0.0
N739 N 0.75803 0.256 0.53256 0.0
N740 N 0.7512 0.24275 0.5131 0.0
C741 C 0.75045 0.2551 0.51996 0.0
C742 C 0.75951 0.2355 0.52184 0.0
C743 C 0.76377 0.24373 0.53381 0.0
O744 O 0.76334 0.28803 0.53086 0.0
C745 C 0.7413 0.2599 0.56299 0.0
O746 O 0.74963 0.24998 0.56081 0.0
H747 H 0.74465 0.2635 0.51587 0.0
H748 H 0.77075 0.24105 0.54266 0.0
N749 N 0.77715 0.27387 0.55658 0.0
N750 N 0.79238 0.28225 0.57486 0.0
C751 C 0.77919 0.28265 0.56792 0.0
C752 C 0.78946 0.26761 0.5563 0.0
C753 C 0.79889 0.27278 0.56757 0.0
C754 C 0.77394 0.28675 0.52294 0.0
O755 O 0.78179 0.27635 0.52539 0.0
H756 H 0.77124 0.28949 0.57075 0.0
H757 H 0.79157 0.26003 0.54837 0.0
O758 O 0.74365 0.27146 0.55622 0.0
H759 H 0.76267 0.2252 0.51959 0.0
H760 H 0.80969 0.26978 0.57015 0.0
Cu761 Cu 0.2263 0.24683 0.53846 0.0
N762 N 0.20949 0.24691 0.54862 0.0
N763 N 0.19462 0.25487 0.56384 0.0
C764 C 0.20793 0.25698 0.5582 0.0
C765 C 0.18751 0.2429 0.55757 0.0
C766 C 0.19671 0.23804 0.5481 0.0
O767 O 0.2431 0.24797 0.55176 0.0
C768 C 0.21654 0.26248 0.51669 0.0
O769 O 0.20533 0.25235 0.5173 0.0
H770 H 0.21649 0.26567 0.56101 0.0
H771 H 0.19417 0.22883 0.54122 0.0
N772 N 0.2261 0.23035 0.52781 0.0
N773 N 0.23356 0.21637 0.51142 0.0
C774 C 0.23391 0.22976 0.5163 0.0
C775 C 0.22057 0.21686 0.53043 0.0
C776 C 0.22514 0.20818 0.52028 0.0
C777 C 0.24945 0.25925 0.55788 0.0
O778 O 0.24515 0.2715 0.5546 0.0
H779 H 0.24043 0.23896 0.51212 0.0
H780 H 0.21424 0.21352 0.5394 0.0
O781 O 0.2275 0.26248 0.5255 0.0
H782 H 0.17638 0.23818 0.55946 0.0
H783 H 0.22276 0.19673 0.51971 0.0
Cu784 Cu 0.79883 0.55313 0.7925 0.0
N785 N 0.8148 0.56699 0.78952 0.0
N786 N 0.82735 0.58595 0.77985 0.0
C787 C 0.81434 0.57741 0.78009 0.0
C788 C 0.83637 0.58063 0.78955 0.0
C789 C 0.82859 0.56894 0.79552 0.0
O790 O 0.78175 0.56327 0.79438 0.0
C791 C 0.80936 0.53336 0.7761 0.0
O792 O 0.82111 0.53856 0.78397 0.0
H793 H 0.80466 0.57847 0.77334 0.0
H794 H 0.83277 0.56225 0.8035 0.0
N795 N 0.80118 0.54311 0.80909 0.0
N796 N 0.79576 0.52566 0.82434 0.0
C797 C 0.79287 0.5307 0.8114 0.0
C798 C 0.80973 0.54613 0.821 0.0
C799 C 0.80637 0.53536 0.83047 0.0
C800 C 0.78303 0.57149 0.80521 0.0
O801 O 0.79509 0.57215 0.81346 0.0
H802 H 0.78442 0.52577 0.80384 0.0
H803 H 0.81752 0.55563 0.82286 0.0
O804 O 0.79743 0.53869 0.77747 0.0
H805 H 0.84774 0.58489 0.79223 0.0
H806 H 0.81123 0.53481 0.84107 0.0
Cu807 Cu 0.25241 0.53095 0.77482 0.0
N808 N 0.25498 0.52134 0.79175 0.0
N809 N 0.26248 0.50574 0.80724 0.0
C810 C 0.26119 0.50935 0.79349 0.0
C811 C 0.25668 0.51588 0.81433 0.0
C812 C 0.25215 0.52547 0.80479 0.0
O813 O 0.2481 0.51717 0.75949 0.0
C814 C 0.28244 0.54425 0.77787 0.0
O815 O 0.28514 0.53318 0.78525 0.0
H816 H 0.26522 0.50375 0.78485 0.0
H817 H 0.24745 0.53497 0.80722 0.0
N818 N 0.23707 0.54214 0.77536 0.0
N819 N 0.22347 0.55936 0.76956 0.0
C820 C 0.23552 0.55319 0.76687 0.0
C821 C 0.22562 0.54124 0.78377 0.0
C822 C 0.21723 0.55184 0.78023 0.0
C823 C 0.23495 0.51088 0.75787 0.0
O824 O 0.22508 0.51395 0.76653 0.0
H825 H 0.24325 0.5567 0.75897 0.0
H826 H 0.22343 0.53335 0.7918 0.0
O827 O 0.26974 0.54437 0.77182 0.0
H828 H 0.25584 0.51646 0.82563 0.0
H829 H 0.20716 0.55365 0.78499 0.0
Cu830 Cu 0.29135 0.53466 0.28178 0.0
N831 N 0.29111 0.52566 0.29924 0.0
N832 N 0.28387 0.509 0.31479 0.0
C833 C 0.28224 0.51355 0.30145 0.0
C834 C 0.29418 0.51874 0.32129 0.0
C835 C 0.29866 0.52902 0.31164 0.0
O836 O 0.2923 0.51948 0.26786 0.0
C837 C 0.27356 0.55315 0.29114 0.0
O838 O 0.28418 0.55397 0.3011 0.0
H839 H 0.27453 0.50834 0.2934 0.0
H840 H 0.30668 0.53833 0.31362 0.0
N841 N 0.30784 0.54822 0.28006 0.0
N842 N 0.32165 0.56682 0.27113 0.0
C843 C 0.3086 0.55832 0.2702 0.0
C844 C 0.32091 0.55032 0.28749 0.0
C845 C 0.32944 0.56189 0.28205 0.0
C846 C 0.30291 0.51237 0.27082 0.0
O847 O 0.31195 0.51643 0.28174 0.0
H848 H 0.29964 0.55949 0.26258 0.0
H849 H 0.32411 0.54385 0.29612 0.0
O850 O 0.27413 0.5449 0.28056 0.0
H851 H 0.29825 0.51846 0.33218 0.0
H852 H 0.34057 0.56617 0.28567 0.0
Cu853 Cu 0.74039 0.51555 0.28885 0.0
N854 N 0.74396 0.50683 0.30608 0.0
N855 N 0.75226 0.49161 0.32153 0.0
C856 C 0.75021 0.49487 0.30777 0.0
C857 C 0.74691 0.50196 0.32872 0.0
C858 C 0.74186 0.51132 0.31919 0.0
O859 O 0.73411 0.50074 0.27482 0.0
C860 C 0.77061 0.52849 0.28983 0.0
O861 O 0.77344 0.51833 0.29842 0.0
H862 H 0.7537 0.48903 0.29901 0.0
H863 H 0.73725 0.52087 0.32165 0.0
N864 N 0.72588 0.52762 0.28973 0.0
N865 N 0.71362 0.54586 0.28412 0.0
C866 C 0.72494 0.53874 0.28119 0.0
C867 C 0.71479 0.52765 0.29846 0.0
C868 C 0.7072 0.53887 0.29503 0.0
C869 C 0.72125 0.49393 0.27565 0.0
O870 O 0.71294 0.49744 0.28561 0.0
H871 H 0.73265 0.54164 0.27311 0.0
H872 H 0.71235 0.52004 0.30669 0.0
O873 O 0.75779 0.52802 0.28384 0.0
H874 H 0.74672 0.50285 0.34007 0.0
H875 H 0.69759 0.54152 0.30008 0.0
Cu876 Cu 0.52549 0.29949 0.7996 0.0
N877 N 0.50996 0.2963 0.81181 0.0
N878 N 0.48926 0.29956 0.82228 0.0
C879 C 0.50042 0.30549 0.81457 0.0
C880 C 0.49195 0.2861 0.82446 0.0
C881 C 0.50465 0.28412 0.81796 0.0
O882 O 0.51617 0.30012 0.78085 0.0
C883 C 0.54205 0.31899 0.81787 0.0
O884 O 0.53654 0.30978 0.82708 0.0
H885 H 0.50128 0.3161 0.81038 0.0
H886 H 0.50934 0.27432 0.81729 0.0
N887 N 0.53772 0.28514 0.80012 0.0
N888 N 0.55453 0.27167 0.79351 0.0
C889 C 0.54604 0.28172 0.78963 0.0
C890 C 0.54115 0.27709 0.81108 0.0
C891 C 0.55145 0.26874 0.80702 0.0
C892 C 0.5108 0.28829 0.7751 0.0
O893 O 0.51265 0.27653 0.7817 0.0
H894 H 0.54614 0.28684 0.77949 0.0
H895 H 0.53672 0.27749 0.82139 0.0
O896 O 0.53808 0.31696 0.80487 0.0
H897 H 0.4851 0.27815 0.83013 0.0
H898 H 0.5563 0.26114 0.81357 0.0
Cu899 Cu 0.51719 0.79162 0.78677 0.0
N900 N 0.53279 0.79294 0.80051 0.0
N901 N 0.55248 0.78686 0.81282 0.0
C902 C 0.54269 0.78368 0.80172 0.0
C903 C 0.54855 0.79862 0.81881 0.0
C904 C 0.53637 0.80231 0.81124 0.0
O905 O 0.52547 0.78677 0.76923 0.0
C906 C 0.49626 0.78014 0.80422 0.0
O907 O 0.50123 0.7922 0.81076 0.0
H908 H 0.54268 0.77479 0.79454 0.0
H909 H 0.5304 0.81102 0.81358 0.0
N910 N 0.50888 0.80855 0.78479 0.0
N911 N 0.49243 0.82302 0.77839 0.0
C912 C 0.49527 0.80948 0.77902 0.0
C913 C 0.51482 0.82199 0.78801 0.0
C914 C 0.50464 0.83094 0.78415 0.0
C915 C 0.52187 0.79147 0.75721 0.0
O916 O 0.5106 0.79863 0.75588 0.0
H917 H 0.48771 0.8004 0.77509 0.0
H918 H 0.52589 0.82511 0.7925 0.0
O919 O 0.50187 0.77724 0.79275 0.0
H920 H 0.55385 0.80399 0.82821 0.0
H921 H 0.50632 0.84241 0.78497 0.0
Cu922 Cu 0.50108 0.78497 0.28471 0.0
N923 N 0.48601 0.78386 0.29756 0.0
N924 N 0.46714 0.78927 0.30976 0.0
C925 C 0.47728 0.79378 0.30035 0.0
C926 C 0.46978 0.77606 0.31316 0.0
C927 C 0.4814 0.77278 0.30568 0.0
O928 O 0.49277 0.78659 0.26569 0.0
C929 C 0.5216 0.80054 0.303 0.0
O930 O 0.51514 0.79144 0.31181 0.0
H931 H 0.47844 0.80417 0.29569 0.0
H932 H 0.48606 0.76294 0.30609 0.0
N933 N 0.50934 0.76806 0.28403 0.0
N934 N 0.52486 0.75331 0.27739 0.0
C935 C 0.52331 0.7668 0.2809 0.0
C936 C 0.50184 0.75492 0.28244 0.0
C937 C 0.51139 0.7458 0.2784 0.0
C938 C 0.48385 0.79485 0.26111 0.0
O939 O 0.48045 0.80492 0.26935 0.0
H940 H 0.53179 0.77578 0.27993 0.0
H941 H 0.49002 0.75236 0.28301 0.0
O942 O 0.51681 0.80006 0.29015 0.0
H943 H 0.46354 0.76907 0.32028 0.0
H944 H 0.50847 0.73468 0.27561 0.0
Cu945 Cu 0.51439 0.2798 0.29797 0.0
N946 N 0.50297 0.27075 0.3118 0.0
N947 N 0.48485 0.25967 0.32406 0.0
C948 C 0.4892 0.26357 0.31109 0.0
C949 C 0.49633 0.26443 0.33312 0.0
C950 C 0.50744 0.27124 0.32554 0.0
O951 O 0.50873 0.29857 0.29404 0.0
C952 C 0.53793 0.26634 0.30551 0.0
O953 O 0.52719 0.25588 0.30281 0.0
H954 H 0.48239 0.26166 0.30142 0.0
H955 H 0.51803 0.27642 0.32975 0.0
N956 N 0.51146 0.27049 0.28053 0.0
N957 N 0.5181 0.26862 0.25835 0.0
C958 C 0.52268 0.26988 0.27208 0.0
C959 C 0.49922 0.26933 0.27187 0.0
C960 C 0.5033 0.26821 0.25813 0.0
C961 C 0.49812 0.30333 0.29987 0.0
O962 O 0.49276 0.29702 0.3111 0.0
H963 H 0.53413 0.27266 0.27568 0.0
H964 H 0.48846 0.27114 0.27508 0.0
O965 O 0.53501 0.27903 0.30421 0.0
H966 H 0.49668 0.26307 0.34444 0.0
H967 H 0.49621 0.26871 0.2487 0.0
C968 C 0.19077 0.21194 0.18007 0.0
C969 C 0.17559 0.20927 0.18228 0.0
C970 C 0.19589 0.21972 0.16843 0.0
C971 C 0.18448 0.24489 0.14137 0.0
H972 H 0.21775 0.23452 0.12197 0.0
C973 C 0.20146 0.26915 0.08789 0.0
C974 C 0.21663 0.27287 0.08598 0.0
C975 C 0.1966 0.26152 0.09971 0.0
C976 C 0.20854 0.23765 0.12736 0.0
H977 H 0.15388 0.21244 0.17372 0.0
H978 H 0.16274 0.22582 0.15337 0.0
H979 H 0.209 0.22091 0.14225 0.0
H980 H 0.23853 0.27152 0.09538 0.0
H981 H 0.23005 0.25813 0.11583 0.0
H982 H 0.18394 0.26154 0.12636 0.0
C983 C 0.17076 0.2222 0.1608 0.0
C984 C 0.20352 0.22985 0.13902 0.0
C985 C 0.16566 0.21449 0.17248 0.0
C986 C 0.22678 0.2687 0.09628 0.0
C987 C 0.22191 0.26101 0.10806 0.0
C988 C 0.18945 0.25264 0.12967 0.0
C989 C 0.18596 0.22499 0.15862 0.0
C990 C 0.1914 0.23335 0.1462 0.0
C991 C 0.20676 0.25732 0.10994 0.0
C992 C 0.20154 0.24912 0.12249 0.0
H993 H 0.19874 0.20823 0.18751 0.0
H994 H 0.20768 0.22181 0.16727 0.0
H995 H 0.17531 0.24811 0.14675 0.0
H996 H 0.19326 0.27191 0.08016 0.0
H997 H 0.18485 0.25869 0.10069 0.0
C998 C 0.82542 0.24387 0.15371 0.0
C999 C 0.82597 0.22992 0.15821 0.0
C1000 C 0.81856 0.24642 0.14064 0.0
C1001 C 0.79134 0.22914 0.11351 0.0
H1002 H 0.80739 0.26008 0.09011 0.0
C1003 C 0.76662 0.23652 0.0577 0.0
C1004 C 0.76368 0.25028 0.05439 0.0
C1005 C 0.77543 0.23418 0.06968 0.0
C1006 C 0.80275 0.25145 0.09658 0.0
H1007 H 0.81994 0.20772 0.15269 0.0
H1008 H 0.8082 0.2121 0.1297 0.0
H1009 H 0.82033 0.25561 0.11249 0.0
H1010 H 0.76831 0.27246 0.06071 0.0
H1011 H 0.78373 0.26835 0.08168 0.0
H1012 H 0.7738 0.22496 0.09764 0.0
C1013 C 0.81283 0.2211 0.13632 0.0
C1014 C 0.81012 0.24891 0.10941 0.0
C1015 C 0.81961 0.21857 0.14941 0.0
C1016 C 0.77034 0.26173 0.06297 0.0
C1017 C 0.77921 0.25939 0.07496 0.0
C1018 C 0.78403 0.23163 0.10068 0.0
C1019 C 0.81214 0.23506 0.1318 0.0
C1020 C 0.80448 0.23772 0.11805 0.0
C1021 C 0.78155 0.24554 0.07862 0.0
C1022 C 0.78964 0.24282 0.09208 0.0
H1023 H 0.83021 0.25281 0.16035 0.0
H1024 H 0.81805 0.25729 0.13759 0.0
H1025 H 0.7865 0.22062 0.12001 0.0
H1026 H 0.76177 0.22746 0.05127 0.0
H1027 H 0.77726 0.22343 0.07208 0.0
C1028 C 0.83321 0.8603 0.16036 0.0
C1029 C 0.83676 0.85221 0.17207 0.0
C1030 C 0.82732 0.85371 0.1477 0.0
C1031 C 0.8077 0.81986 0.13269 0.0
H1032 H 0.81892 0.83719 0.09734 0.0
C1033 C 0.78198 0.79782 0.07807 0.0
C1034 C 0.77638 0.80828 0.06981 0.0
C1035 C 0.79139 0.80172 0.09006 0.0
C1036 C 0.81569 0.8322 0.10712 0.0
H1037 H 0.83668 0.83075 0.17963 0.0
H1038 H 0.82663 0.81923 0.15744 0.0
H1039 H 0.83113 0.84683 0.11945 0.0
H1040 H 0.77679 0.83093 0.06716 0.0
H1041 H 0.79328 0.83767 0.08769 0.0
H1042 H 0.79206 0.80536 0.12026 0.0
C1043 C 0.82831 0.83071 0.1581 0.0
C1044 C 0.82263 0.83777 0.11981 0.0
C1045 C 0.83421 0.83732 0.17079 0.0
C1046 C 0.78091 0.82263 0.07333 0.0
C1047 C 0.79044 0.8265 0.08507 0.0
C1048 C 0.80079 0.81424 0.11995 0.0
C1049 C 0.82484 0.83882 0.14636 0.0
C1050 C 0.81846 0.83193 0.1328 0.0
C1051 C 0.79557 0.81612 0.09376 0.0
C1052 C 0.80445 0.82058 0.10704 0.0
H1053 H 0.83517 0.87178 0.16088 0.0
H1054 H 0.82456 0.86033 0.13899 0.0
H1055 H 0.80413 0.81512 0.14248 0.0
H1056 H 0.77856 0.78668 0.07565 0.0
H1057 H 0.79523 0.79349 0.09653 0.0
C1058 C 0.15403 0.81905 0.12354 0.0
C1059 C 0.16462 0.82349 0.13448 0.0
C1060 C 0.15644 0.80852 0.11391 0.0
C1061 C 0.18664 0.79169 0.09947 0.0
H1062 H 0.15468 0.76398 0.08413 0.0
C1063 C 0.19743 0.74795 0.06101 0.0
C1064 C 0.18821 0.74635 0.04862 0.0
C1065 C 0.1938 0.75582 0.07248 0.0
C1066 C 0.16369 0.77169 0.08829 0.0
H1067 H 0.18588 0.8204 0.14408 0.0
H1068 H 0.19001 0.80176 0.12747 0.0
H1069 H 0.14991 0.78077 0.1024 0.0
H1070 H 0.16756 0.7512 0.03886 0.0
H1071 H 0.16117 0.76487 0.05895 0.0
H1072 H 0.20039 0.78268 0.08536 0.0
C1073 C 0.17995 0.80654 0.12615 0.0
C1074 C 0.16096 0.78134 0.09872 0.0
C1075 C 0.17757 0.81712 0.13572 0.0
C1076 C 0.17485 0.75213 0.04826 0.0
C1077 C 0.1712 0.75999 0.05978 0.0
C1078 C 0.18936 0.78202 0.08913 0.0
C1079 C 0.16948 0.8022 0.11504 0.0
C1080 C 0.1724 0.79152 0.10437 0.0
C1081 C 0.18084 0.76222 0.07186 0.0
C1082 C 0.17792 0.77196 0.08336 0.0
H1083 H 0.14398 0.82386 0.12233 0.0
H1084 H 0.14824 0.80561 0.10537 0.0
H1085 H 0.19564 0.79955 0.10336 0.0
H1086 H 0.20763 0.74338 0.06174 0.0
H1087 H 0.2013 0.75711 0.08176 0.0
C1088 C 0.21491 0.83959 0.89677 0.0
C1089 C 0.20216 0.84631 0.8962 0.0
C1090 C 0.21863 0.83204 0.9087 0.0
C1091 C 0.21204 0.82741 0.94645 0.0
H1092 H 0.22227 0.78969 0.94025 0.0
C1093 C 0.21145 0.78574 0.99034 0.0
C1094 C 0.22153 0.77584 0.99013 0.0
C1095 C 0.21073 0.79552 0.97951 0.0
C1096 C 0.21973 0.8003 0.94222 0.0
H1097 H 0.18305 0.85009 0.90745 0.0
H1098 H 0.18964 0.83702 0.92843 0.0
H1099 H 0.21792 0.80457 0.92014 0.0
H1100 H 0.23931 0.76895 0.97878 0.0
H1101 H 0.23833 0.78627 0.96008 0.0
H1102 H 0.21382 0.82316 0.96854 0.0
C1103 C 0.19691 0.83783 0.91975 0.0
C1104 C 0.21718 0.80881 0.93067 0.0
C1105 C 0.19313 0.84528 0.90776 0.0
C1106 C 0.23133 0.77636 0.97918 0.0
C1107 C 0.23069 0.78623 0.96841 0.0
C1108 C 0.21471 0.81894 0.95804 0.0
C1109 C 0.20964 0.83103 0.92029 0.0
C1110 C 0.21315 0.82238 0.93265 0.0
C1111 C 0.22016 0.79572 0.96826 0.0
C1112 C 0.21841 0.80521 0.95606 0.0
H1113 H 0.22192 0.84003 0.8879 0.0
H1114 H 0.22853 0.82695 0.90884 0.0
H1115 H 0.20913 0.83791 0.9483 0.0
H1116 H 0.20372 0.78561 0.9986 0.0
H1117 H 0.20237 0.80255 0.97968 0.0
C1118 C 0.20572 0.20212 0.91687 0.0
C1119 C 0.19977 0.21055 0.90648 0.0
C1120 C 0.21263 0.20825 0.92942 0.0
C1121 C 0.22948 0.24304 0.94523 0.0
H1122 H 0.22127 0.22505 0.98101 0.0
C1123 C 0.23385 0.27412 0.9973 0.0
C1124 C 0.2402 0.26866 0.00954 0.0
C1125 C 0.23153 0.26613 0.98483 0.0
C1126 C 0.2239 0.23008 0.97109 0.0
H1127 H 0.19675 0.23213 0.90116 0.0
H1128 H 0.20837 0.24272 0.92305 0.0
H1129 H 0.21185 0.21279 0.95894 0.0
H1130 H 0.24928 0.25053 0.01825 0.0
H1131 H 0.24484 0.2362 0.99624 0.0
H1132 H 0.24101 0.26055 0.95739 0.0
C1133 C 0.2079 0.23138 0.92147 0.0
C1134 C 0.21848 0.22307 0.95842 0.0
C1135 C 0.20102 0.22527 0.90896 0.0
C1136 C 0.24441 0.25501 0.00895 0.0
C1137 C 0.24181 0.24682 0.99641 0.0
C1138 C 0.2348 0.25005 0.95786 0.0
C1139 C 0.21381 0.22298 0.93189 0.0
C1140 C 0.22087 0.22964 0.94533 0.0
C1141 C 0.2353 0.25233 0.98422 0.0
C1142 C 0.23176 0.24382 0.97095 0.0
H1143 H 0.20486 0.19074 0.91539 0.0
H1144 H 0.21712 0.20145 0.93715 0.0
H1145 H 0.2319 0.24829 0.93538 0.0
H1146 H 0.23056 0.28464 0.99735 0.0
H1147 H 0.22635 0.27064 0.97572 0.0
C1148 C 0.81323 0.18317 0.90351 0.0
C1149 C 0.81979 0.19519 0.89655 0.0
C1150 C 0.8024 0.18436 0.9131 0.0
C1151 C 0.77499 0.207 0.923 0.0
H1152 H 0.77779 0.18888 0.95932 0.0
C1153 C 0.74291 0.22165 0.97022 0.0
C1154 C 0.73826 0.21115 0.97995 0.0
C1155 C 0.75128 0.2186 0.95902 0.0
C1156 C 0.77665 0.19378 0.94913 0.0
H1157 H 0.82013 0.21785 0.89408 0.0
H1158 H 0.80119 0.21995 0.91091 0.0
H1159 H 0.79581 0.18587 0.94194 0.0
H1160 H 0.73815 0.18897 0.98509 0.0
H1161 H 0.75247 0.18352 0.96528 0.0
H1162 H 0.75587 0.21494 0.93016 0.0
C1163 C 0.80439 0.2096 0.90888 0.0
C1164 C 0.78703 0.1921 0.9392 0.0
C1165 C 0.81532 0.20843 0.89937 0.0
C1166 C 0.74153 0.1973 0.97778 0.0
C1167 C 0.74989 0.19423 0.96652 0.0
C1168 C 0.76455 0.2086 0.93289 0.0
C1169 C 0.79783 0.19757 0.91585 0.0
C1170 C 0.78642 0.19885 0.92611 0.0
C1171 C 0.75515 0.20493 0.95719 0.0
C1172 C 0.76538 0.20217 0.94616 0.0
H1173 H 0.81656 0.17284 0.90163 0.0
H1174 H 0.79748 0.1749 0.91825 0.0
H1175 H 0.77412 0.21213 0.9129 0.0
H1176 H 0.74035 0.23236 0.97142 0.0
H1177 H 0.75521 0.22714 0.95212 0.0
C1178 C 0.81429 0.856 0.89894 0.0
C1179 C 0.81674 0.87068 0.89653 0.0
C1180 C 0.80746 0.85071 0.91103 0.0
C1181 C 0.78374 0.86046 0.93914 0.0
H1182 H 0.79772 0.82881 0.9587 0.0
C1183 C 0.76341 0.84209 0.99369 0.0
C1184 C 0.76086 0.82741 0.99606 0.0
C1185 C 0.77012 0.84736 0.98152 0.0
C1186 C 0.79355 0.83755 0.95329 0.0
H1187 H 0.81412 0.8913 0.90519 0.0
H1188 H 0.80226 0.88211 0.92624 0.0
H1189 H 0.80962 0.83795 0.93766 0.0
H1190 H 0.76309 0.80677 0.98719 0.0
H1191 H 0.77477 0.81592 0.96607 0.0
H1192 H 0.7677 0.86007 0.9548 0.0
C1193 C 0.80538 0.87464 0.91865 0.0
C1194 C 0.80039 0.8428 0.94119 0.0
C1195 C 0.8122 0.87993 0.90657 0.0
C1196 C 0.76511 0.81814 0.98589 0.0
C1197 C 0.77182 0.8234 0.97374 0.0
C1198 C 0.77692 0.85521 0.95125 0.0
C1199 C 0.80289 0.85996 0.92105 0.0
C1200 C 0.79558 0.85433 0.93394 0.0
C1201 C 0.77446 0.83808 0.9714 0.0
C1202 C 0.78173 0.84368 0.95849 0.0
H1203 H 0.81744 0.84855 0.89136 0.0
H1204 H 0.80553 0.83934 0.9124 0.0
H1205 H 0.77957 0.8692 0.93372 0.0
H1206 H 0.76047 0.84957 1.00134 0.0
H1207 H 0.77215 0.85873 0.98018 0.0
C1208 C 0.12812 0.20473 0.21555 0.0
C1209 C 0.14171 0.20296 0.22236 0.0
C1210 C 0.11699 0.2096 0.22306 0.0
C1211 C 0.1061 0.21626 0.26002 0.0
H1212 H 0.07834 0.23753 0.24019 0.0
C1213 C 0.06386 0.24806 0.28643 0.0
C1214 C 0.04913 0.2435 0.28185 0.0
C1215 C 0.07549 0.24317 0.27961 0.0
C1216 C 0.08603 0.2316 0.24584 0.0
H1217 H 0.15446 0.20506 0.24228 0.0
H1218 H 0.13545 0.21428 0.2553 0.0
H1219 H 0.0981 0.2293 0.22753 0.0
H1220 H 0.03501 0.23057 0.26635 0.0
H1221 H 0.05531 0.22242 0.25414 0.0
H1222 H 0.09417 0.21924 0.27848 0.0
C1223 C 0.13301 0.21142 0.24429 0.0
C1224 C 0.09732 0.22672 0.23857 0.0
C1225 C 0.14401 0.20622 0.23682 0.0
C1226 C 0.04625 0.23412 0.2702 0.0
C1227 C 0.05784 0.22953 0.26318 0.0
C1228 C 0.095 0.22146 0.26735 0.0
C1229 C 0.11928 0.2132 0.23754 0.0
C1230 C 0.10746 0.2188 0.24548 0.0
C1231 C 0.07256 0.23396 0.26784 0.0
C1232 C 0.08478 0.22904 0.26029 0.0
H1233 H 0.12604 0.20217 0.20442 0.0
H1234 H 0.10654 0.21039 0.21746 0.0
H1235 H 0.11341 0.21002 0.26576 0.0
H1236 H 0.06635 0.25527 0.29538 0.0
H1237 H 0.08676 0.24677 0.28337 0.0
C1238 C 0.86502 0.17716 0.21212 0.0
C1239 C 0.85441 0.18583 0.20772 0.0
C1240 C 0.86114 0.16522 0.22031 0.0
C1241 C 0.83275 0.14993 0.24419 0.0
H1242 H 0.84898 0.115 0.23763 0.0
C1243 C 0.81093 0.09714 0.27013 0.0
C1244 C 0.82126 0.08833 0.27491 0.0
C1245 C 0.81532 0.10925 0.26239 0.0
C1246 C 0.8445 0.12473 0.23971 0.0
H1247 H 0.83135 0.18865 0.20841 0.0
H1248 H 0.82451 0.16766 0.2224 0.0
H1249 H 0.85575 0.13545 0.22285 0.0
H1250 H 0.84437 0.08546 0.27539 0.0
H1251 H 0.85208 0.10674 0.26198 0.0
H1252 H 0.82142 0.13917 0.26099 0.0
C1253 C 0.83589 0.1702 0.21969 0.0
C1254 C 0.84837 0.13646 0.23123 0.0
C1255 C 0.83977 0.18214 0.21151 0.0
C1256 C 0.83615 0.09207 0.27196 0.0
C1257 C 0.84054 0.10417 0.26414 0.0
C1258 C 0.82887 0.13821 0.25265 0.0
C1259 C 0.84655 0.16166 0.22429 0.0
C1260 C 0.8425 0.14918 0.23334 0.0
C1261 C 0.83015 0.11285 0.25919 0.0
C1262 C 0.83465 0.12545 0.25048 0.0
H1263 H 0.87636 0.1796 0.20925 0.0
H1264 H 0.86966 0.15895 0.22376 0.0
H1265 H 0.82825 0.15965 0.24628 0.0
H1266 H 0.79942 0.09467 0.27238 0.0
H1267 H 0.80701 0.11564 0.25864 0.0
C1268 C 0.88487 0.849 0.20545 0.0
C1269 C 0.87489 0.85591 0.21285 0.0
C1270 C 0.89675 0.84376 0.21253 0.0
C1271 C 0.91135 0.83522 0.24878 0.0
H1272 H 0.94707 0.83306 0.22915 0.0
C1273 C 0.96753 0.82298 0.27491 0.0
C1274 C 0.97293 0.81135 0.26877 0.0
C1275 C 0.9554 0.8285 0.26855 0.0
C1276 C 0.93713 0.83359 0.23473 0.0
H1277 H 0.86992 0.8627 0.23376 0.0
H1278 H 0.8911 0.8545 0.24591 0.0
H1279 H 0.92669 0.84311 0.21733 0.0
H1280 H 0.97008 0.79655 0.25109 0.0
H1281 H 0.94916 0.8065 0.23971 0.0
H1282 H 0.92231 0.8262 0.26641 0.0
C1283 C 0.88947 0.85264 0.23464 0.0
C1284 C 0.92535 0.83924 0.22793 0.0
C1285 C 0.87738 0.85762 0.22758 0.0
C1286 C 0.96603 0.80542 0.25611 0.0
C1287 C 0.95416 0.81115 0.24957 0.0
C1288 C 0.9233 0.82987 0.25568 0.0
C1289 C 0.89932 0.84555 0.22724 0.0
C1290 C 0.91216 0.84 0.23476 0.0
C1291 C 0.94871 0.82273 0.25574 0.0
C1292 C 0.93623 0.82886 0.24866 0.0
H1293 H 0.88364 0.84769 0.19409 0.0
H1294 H 0.90381 0.83816 0.20638 0.0
H1295 H 0.90139 0.83533 0.25439 0.0
H1296 H 0.97265 0.8277 0.28469 0.0
H1297 H 0.95143 0.83746 0.27348 0.0
C1298 C 0.1408 0.87151 0.19811 0.0
C1299 C 0.15175 0.86311 0.19496 0.0
C1300 C 0.14422 0.88356 0.2068 0.0
C1301 C 0.1754 0.90948 0.22074 0.0
H1302 H 0.14852 0.91658 0.24939 0.0
C1303 C 0.19114 0.95259 0.26389 0.0
C1304 C 0.1803 0.961 0.26735 0.0
C1305 C 0.18751 0.94059 0.25519 0.0
C1306 C 0.15606 0.91484 0.24134 0.0
H1307 H 0.17489 0.8608 0.19852 0.0
H1308 H 0.18087 0.88187 0.21361 0.0
H1309 H 0.14251 0.89593 0.23372 0.0
H1310 H 0.15711 0.96329 0.2644 0.0
H1311 H 0.15076 0.94235 0.24917 0.0
H1312 H 0.18894 0.92839 0.22833 0.0
C1313 C 0.16967 0.87922 0.20923 0.0
C1314 C 0.15262 0.90301 0.23236 0.0
C1315 C 0.16624 0.86715 0.20056 0.0
C1316 C 0.16568 0.95697 0.26208 0.0
C1317 C 0.16205 0.94496 0.25334 0.0
C1318 C 0.17883 0.92132 0.22971 0.0
C1319 C 0.15868 0.88752 0.21251 0.0
C1320 C 0.16226 0.90018 0.22197 0.0
C1321 C 0.17295 0.93669 0.24972 0.0
C1322 C 0.16922 0.92412 0.24014 0.0
H1323 H 0.12957 0.86882 0.19379 0.0
H1324 H 0.13555 0.88986 0.20893 0.0
H1325 H 0.18296 0.90773 0.21271 0.0
H1326 H 0.20243 0.95523 0.26799 0.0
H1327 H 0.19612 0.9343 0.25285 0.0
C1328 C 0.14399 0.87923 0.8577 0.0
C1329 C 0.15682 0.87955 0.85022 0.0
C1330 C 0.13009 0.87656 0.85066 0.0
C1331 C 0.11105 0.87362 0.81455 0.0
H1332 H 0.0802 0.85136 0.83438 0.0
C1333 C 0.05791 0.8408 0.78886 0.0
C1334 C 0.04467 0.84177 0.79545 0.0
C1335 C 0.0713 0.84786 0.79463 0.0
C1336 C 0.08866 0.85773 0.82877 0.0
H1337 H 0.16533 0.87738 0.8296 0.0
H1338 H 0.1411 0.87201 0.81732 0.0
H1339 H 0.10416 0.85842 0.8464 0.0
H1340 H 0.03504 0.85156 0.81281 0.0
H1341 H 0.05847 0.86363 0.82298 0.0
H1342 H 0.09552 0.87209 0.79663 0.0
C1343 C 0.14164 0.8743 0.82854 0.0
C1344 C 0.10242 0.86187 0.83568 0.0
C1345 C 0.15555 0.87728 0.83556 0.0
C1346 C 0.04502 0.85058 0.80747 0.0
C1347 C 0.05843 0.85744 0.81335 0.0
C1348 C 0.09732 0.86923 0.80755 0.0
C1349 C 0.12869 0.8738 0.836 0.0
C1350 C 0.11385 0.86986 0.82868 0.0
C1351 C 0.07172 0.85584 0.80719 0.0
C1352 C 0.08602 0.86124 0.81462 0.0
H1353 H 0.14473 0.88112 0.86901 0.0
H1354 H 0.12044 0.87663 0.85676 0.0
H1355 H 0.11943 0.87997 0.80885 0.0
H1356 H 0.058 0.83413 0.77957 0.0
H1357 H 0.08142 0.84643 0.78972 0.0
C1358 C 0.22242 0.16058 0.86012 0.0
C1359 C 0.2122 0.16661 0.85135 0.0
C1360 C 0.22887 0.14902 0.85538 0.0
C1361 C 0.22549 0.12029 0.82806 0.0
H1362 H 0.26749 0.12188 0.83689 0.0
C1363 C 0.26241 0.08148 0.80388 0.0
C1364 C 0.27338 0.07708 0.81313 0.0
C1365 C 0.25391 0.09182 0.80823 0.0
C1366 C 0.25573 0.12116 0.83445 0.0
H1367 H 0.20019 0.16493 0.83099 0.0
H1368 H 0.21155 0.14478 0.82261 0.0
H1369 H 0.25454 0.14067 0.84535 0.0
H1370 H 0.28345 0.07957 0.83439 0.0
H1371 H 0.26865 0.09723 0.84191 0.0
H1372 H 0.22681 0.10071 0.81707 0.0
C1373 C 0.21456 0.14892 0.83318 0.0
C1374 C 0.24828 0.13195 0.83933 0.0
C1375 C 0.2081 0.1605 0.83794 0.0
C1376 C 0.27526 0.08283 0.8269 0.0
C1377 C 0.2668 0.09305 0.83121 0.0
C1378 C 0.23298 0.10944 0.82315 0.0
C1379 C 0.22524 0.14319 0.84175 0.0
C1380 C 0.23304 0.13162 0.83634 0.0
C1381 C 0.25624 0.09793 0.82188 0.0
C1382 C 0.24818 0.10967 0.82643 0.0
H1383 H 0.22564 0.16504 0.87054 0.0
H1384 H 0.23683 0.1447 0.86238 0.0
H1385 H 0.21373 0.11965 0.8256 0.0
H1386 H 0.2607 0.07725 0.79321 0.0
H1387 H 0.24587 0.09536 0.80076 0.0
C1388 C 0.90712 0.21494 0.88534 0.0
C1389 C 0.89304 0.21911 0.88321 0.0
C1390 C 0.91971 0.22412 0.88219 0.0
C1391 C 0.93167 0.25377 0.85956 0.0
H1392 H 0.96757 0.25765 0.88367 0.0
C1393 C 0.98437 0.28669 0.84171 0.0
C1394 C 0.9973 0.28032 0.84363 0.0
C1395 C 0.97176 0.28159 0.84876 0.0
C1396 C 0.95766 0.25663 0.87677 0.0
H1397 H 0.88114 0.23651 0.87708 0.0
H1398 H 0.90316 0.25247 0.87124 0.0
H1399 H 0.94516 0.24377 0.89155 0.0
H1400 H 1.00741 0.26418 0.85511 0.0
H1401 H 0.9854 0.25506 0.86707 0.0
H1402 H 0.94417 0.26601 0.84449 0.0
C1403 C 0.90441 0.242 0.87512 0.0
C1404 C 0.94483 0.2487 0.88131 0.0
C1405 C 0.89183 0.23287 0.87841 0.0
C1406 C 0.99764 0.26934 0.8534 0.0
C1407 C 0.98498 0.26413 0.86032 0.0
C1408 C 0.94451 0.26157 0.85495 0.0
C1409 C 0.91847 0.23768 0.87688 0.0
C1410 C 0.93177 0.24703 0.87266 0.0
C1411 C 0.97174 0.2699 0.85776 0.0
C1412 C 0.95775 0.26293 0.86341 0.0
H1413 H 0.90837 0.20451 0.88933 0.0
H1414 H 0.9304 0.22048 0.88359 0.0
H1415 H 0.9218 0.25253 0.85259 0.0
H1416 H 0.98381 0.29528 0.83436 0.0
H1417 H 0.96188 0.28653 0.8468 0.0
C1418 C 0.81903 0.90556 0.84167 0.0
C1419 C 0.81996 0.90528 0.85652 0.0
C1420 C 0.81357 0.91678 0.83455 0.0
C1421 C 0.80643 0.95399 0.83965 0.0
H1422 H 0.78037 0.94614 0.80616 0.0
C1423 C 0.77341 0.99624 0.81512 0.0
C1424 C 0.77208 0.99702 0.80032 0.0
C1425 C 0.77958 0.98511 0.82165 0.0
C1426 C 0.78778 0.94856 0.8154 0.0
H1427 H 0.81607 0.91681 0.87546 0.0
H1428 H 0.8063 0.93614 0.86309 0.0
H1429 H 0.79053 0.92672 0.81811 0.0
H1430 H 0.77622 0.98662 0.7808 0.0
H1431 H 0.78706 0.96723 0.79221 0.0
H1432 H 0.80362 0.97581 0.837 0.0
C1433 C 0.80992 0.92777 0.85692 0.0
C1434 C 0.79362 0.9374 0.82226 0.0
C1435 C 0.81536 0.91656 0.86403 0.0
C1436 C 0.77706 0.98635 0.79222 0.0
C1437 C 0.7832 0.97518 0.79876 0.0
C1438 C 0.80058 0.96513 0.83281 0.0
C1439 C 0.80892 0.92803 0.84208 0.0
C1440 C 0.80297 0.93995 0.83453 0.0
C1441 C 0.78457 0.97443 0.81358 0.0
C1442 C 0.79111 0.96256 0.82063 0.0
H1443 H 0.82233 0.89701 0.83552 0.0
H1444 H 0.81311 0.91667 0.82313 0.0
H1445 H 0.81381 0.95642 0.84891 0.0
H1446 H 0.76967 1.00423 0.82171 0.0
H1447 H 0.78024 0.98479 0.83307 0.0
C1448 C 0.16517 0.13247 0.21925 0.0
C1449 C 0.17557 0.14357 0.2149 0.0
C1450 C 0.16967 0.12004 0.2247 0.0
C1451 C 0.2012 0.10421 0.24073 0.0
H1452 H 0.17805 0.0691 0.22721 0.0
C1453 C 0.21403 0.04845 0.25934 0.0
C1454 C 0.20154 0.03929 0.26312 0.0
C1455 C 0.21239 0.06108 0.25214 0.0
C1456 C 0.18461 0.07879 0.23116 0.0
H1457 H 0.19888 0.15047 0.21309 0.0
H1458 H 0.20685 0.12869 0.22282 0.0
H1459 H 0.17218 0.09161 0.21807 0.0
H1460 H 0.17761 0.03593 0.26185 0.0
H1461 H 0.17478 0.0576 0.24943 0.0
H1462 H 0.21341 0.09129 0.2541 0.0
C1463 C 0.19519 0.12967 0.22205 0.0
C1464 C 0.18122 0.09172 0.22593 0.0
C1465 C 0.19065 0.14212 0.2165 0.0
C1466 C 0.18748 0.04273 0.25911 0.0
C1467 C 0.18585 0.05517 0.25188 0.0
C1468 C 0.20457 0.09121 0.24604 0.0
C1469 C 0.18471 0.11835 0.22594 0.0
C1470 C 0.18923 0.10462 0.23086 0.0
C1471 C 0.19824 0.06464 0.24844 0.0
C1472 C 0.19608 0.07835 0.24155 0.0
H1473 H 0.15347 0.13325 0.21811 0.0
H1474 H 0.16132 0.11165 0.22783 0.0
H1475 H 0.20759 0.11395 0.24475 0.0
H1476 H 0.22501 0.04615 0.26239 0.0
H1477 H 0.22217 0.06809 0.24957 0.0
C1478 C 0.21591 0.91541 0.86729 0.0
C1479 C 0.20755 0.90679 0.85685 0.0
C1480 C 0.2262 0.92677 0.86354 0.0
C1481 C 0.23526 0.95061 0.83384 0.0
H1482 H 0.27281 0.96008 0.85494 0.0
C1483 C 0.2795 0.99366 0.81507 0.0
C1484 C 0.28615 1.00367 0.82523 0.0
C1485 C 0.27095 0.98126 0.81912 0.0
C1486 C 0.26232 0.95761 0.84902 0.0
H1487 H 0.20377 0.90306 0.83431 0.0
H1488 H 0.22182 0.92281 0.82774 0.0
H1489 H 0.2558 0.93943 0.86153 0.0
H1490 H 0.28955 0.00822 0.84766 0.0
H1491 H 0.27458 0.98645 0.85479 0.0
H1492 H 0.24173 0.96874 0.82134 0.0
C1493 C 0.2202 0.92098 0.83884 0.0
C1494 C 0.25257 0.94581 0.8528 0.0
C1495 C 0.20987 0.90965 0.84259 0.0
C1496 C 0.28463 1.00068 0.8396 0.0
C1497 C 0.27605 0.98823 0.84367 0.0
C1498 C 0.24501 0.96235 0.83005 0.0
C1499 C 0.2284 0.92975 0.84926 0.0
C1500 C 0.23892 0.94217 0.84524 0.0
C1501 C 0.26886 0.97854 0.83344 0.0
C1502 C 0.25865 0.96597 0.83757 0.0
H1503 H 0.21424 0.91356 0.87837 0.0
H1504 H 0.23217 0.93343 0.87183 0.0
H1505 H 0.22472 0.94831 0.82798 0.0
H1506 H 0.28076 0.99548 0.80393 0.0
H1507 H 0.26584 0.97385 0.811 0.0
C1508 C 0.15836 0.22329 0.86779 0.0
C1509 C 0.1589 0.20861 0.86845 0.0
C1510 C 0.14598 0.22852 0.86162 0.0
C1511 C 0.11278 0.21804 0.83744 0.0
H1512 H 0.09988 0.25174 0.85313 0.0
C1513 C 0.05744 0.23769 0.81955 0.0
C1514 C 0.05765 0.25239 0.81768 0.0
C1515 C 0.06978 0.23225 0.82555 0.0
C1516 C 0.10342 0.24239 0.84854 0.0
H1517 H 0.14669 0.18792 0.86338 0.0
H1518 H 0.125 0.19699 0.85286 0.0
H1519 H 0.12114 0.24242 0.86417 0.0
H1520 H 0.07145 0.27277 0.82038 0.0
H1521 H 0.09275 0.26329 0.83098 0.0
H1522 H 0.09487 0.21795 0.82192 0.0
C1523 C 0.13428 0.20451 0.8568 0.0
C1524 C 0.11565 0.23705 0.85485 0.0
C1525 C 0.1467 0.19929 0.86288 0.0
C1526 C 0.07065 0.26144 0.82186 0.0
C1527 C 0.08294 0.256 0.82795 0.0
C1528 C 0.10047 0.22333 0.83119 0.0
C1529 C 0.13375 0.21921 0.85602 0.0
C1530 C 0.12056 0.22481 0.84937 0.0
C1531 C 0.08264 0.24134 0.82992 0.0
C1532 C 0.09567 0.23561 0.83663 0.0
H1533 H 0.16765 0.23078 0.87179 0.0
H1534 H 0.14614 0.2399 0.86101 0.0
H1535 H 0.11633 0.20875 0.83275 0.0
H1536 H 0.04765 0.23035 0.81666 0.0
H1537 H 0.06912 0.22091 0.82705 0.0
C1538 C 0.84749 0.16087 0.85286 0.0
C1539 C 0.83672 0.1696 0.85559 0.0
C1540 C 0.84422 0.14932 0.84346 0.0
C1541 C 0.81726 0.13408 0.81492 0.0
H1542 H 0.8282 0.09805 0.8275 0.0
C1543 C 0.7884 0.08059 0.79235 0.0
C1544 C 0.79708 0.06981 0.78987 0.0
C1545 C 0.79457 0.0932 0.79923 0.0
C1546 C 0.82525 0.10806 0.82372 0.0
H1547 H 0.81435 0.17352 0.85011 0.0
H1548 H 0.80857 0.15334 0.83395 0.0
H1549 H 0.83696 0.11959 0.84124 0.0
H1550 H 0.81905 0.06381 0.79275 0.0
H1551 H 0.82986 0.08589 0.8047 0.0
H1552 H 0.80526 0.12249 0.79759 0.0
C1553 C 0.81957 0.15539 0.83897 0.0
C1554 C 0.83029 0.12042 0.83158 0.0
C1555 C 0.82282 0.16687 0.84837 0.0
C1556 C 0.8121 0.07195 0.79439 0.0
C1557 C 0.81826 0.08454 0.80135 0.0
C1558 C 0.8122 0.12173 0.80709 0.0
C1559 C 0.83014 0.14636 0.83655 0.0
C1560 C 0.82613 0.13352 0.82741 0.0
C1561 C 0.80956 0.0953 0.80384 0.0
C1562 C 0.81592 0.10855 0.81154 0.0
H1563 H 0.85829 0.1627 0.85832 0.0
H1564 H 0.85265 0.14263 0.84171 0.0
H1565 H 0.81407 0.14405 0.81128 0.0
H1566 H 0.77686 0.07936 0.78885 0.0
H1567 H 0.78753 0.10121 0.80114 0.0
C1568 C 0.86901 0.83972 0.85034 0.0
C1569 C 0.86767 0.85424 0.84973 0.0
C1570 C 0.88219 0.83481 0.84711 0.0
C1571 C 0.92214 0.84612 0.84341 0.0
H1572 H 0.91932 0.81217 0.82 0.0
C1573 C 0.97318 0.81867 0.83143 0.0
C1574 C 0.9741 0.81396 0.81745 0.0
C1575 C 0.96032 0.82352 0.83577 0.0
C1576 C 0.92032 0.8217 0.82649 0.0
H1577 H 0.87903 0.87501 0.84518 0.0
H1578 H 0.90217 0.86648 0.83959 0.0
H1579 H 0.89687 0.82094 0.82688 0.0
H1580 H 0.96201 0.81041 0.79719 0.0
H1581 H 0.93968 0.81893 0.80471 0.0
H1582 H 0.94562 0.84697 0.84284 0.0
C1583 C 0.89309 0.85888 0.84276 0.0
C1584 C 0.90744 0.82665 0.83057 0.0
C1585 C 0.87985 0.86378 0.84594 0.0
C1586 C 0.96177 0.81409 0.80798 0.0
C1587 C 0.94889 0.81885 0.81234 0.0
C1588 C 0.93505 0.84111 0.8394 0.0
C1589 C 0.89437 0.84431 0.84315 0.0
C1590 C 0.90816 0.83895 0.83905 0.0
C1591 C 0.94801 0.82368 0.82628 0.0
C1592 C 0.9343 0.82887 0.83083 0.0
H1593 H 0.85976 0.8321 0.85312 0.0
H1594 H 0.88283 0.82354 0.84768 0.0
H1595 H 0.92312 0.85557 0.85003 0.0
H1596 H 0.98249 0.81882 0.83897 0.0
H1597 H 0.95998 0.82704 0.84662 0.0
C1598 C 0.8364 0.91631 0.22303 0.0
C1599 C 0.82512 0.90517 0.21937 0.0
C1600 C 0.83299 0.92967 0.22693 0.0
C1601 C 0.80256 0.95224 0.22661 0.0
H1602 H 0.82664 0.97163 0.25754 0.0
C1603 C 0.78799 1.00189 0.25731 0.0
C1604 C 0.79997 0.01208 0.26172 0.0
C1605 C 0.79043 0.98927 0.25053 0.0
C1606 C 0.81989 0.96647 0.24876 0.0
H1607 H 0.80143 0.89922 0.2172 0.0
H1608 H 0.79545 0.92246 0.22417 0.0
H1609 H 0.83225 0.94896 0.24899 0.0
H1610 H 0.82371 0.01756 0.26149 0.0
H1611 H 0.82789 0.99593 0.24952 0.0
H1612 H 0.79005 0.96981 0.22665 0.0
C1613 C 0.80694 0.92103 0.22367 0.0
C1614 C 0.82315 0.95343 0.24382 0.0
C1615 C 0.81036 0.90769 0.21972 0.0
C1616 C 0.81425 0.00985 0.25839 0.0
C1617 C 0.81667 0.99738 0.25161 0.0
C1618 C 0.79926 0.96532 0.23161 0.0
C1619 C 0.81821 0.93218 0.22749 0.0
C1620 C 0.81461 0.94615 0.23262 0.0
C1621 C 0.80489 0.98669 0.24804 0.0
C1622 C 0.80798 0.97265 0.24268 0.0
H1623 H 0.84786 0.91461 0.22305 0.0
H1624 H 0.84199 0.93802 0.22961 0.0
H1625 H 0.79579 0.947 0.21789 0.0
H1626 H 0.77687 1.00327 0.25983 0.0
H1627 H 0.7811 0.98126 0.24792 0.0
C1628 C 0.11869 0.80408 0.18587 0.0
C1629 C 0.11789 0.81839 0.18284 0.0
C1630 C 0.10621 0.79527 0.18998 0.0
C1631 C 0.0657 0.7914 0.19085 0.0
H1632 H 0.0718 0.77563 0.22788 0.0
C1633 C 0.01961 0.78107 0.22944 0.0
C1634 C 0.02084 0.77149 0.24049 0.0
C1635 C 0.03037 0.78307 0.2195 0.0
C1636 C 0.06983 0.77954 0.21737 0.0
H1637 H 0.10337 0.83454 0.18091 0.0
H1638 H 0.0815 0.81909 0.18792 0.0
H1639 H 0.0929 0.78607 0.21536 0.0
H1640 H 0.03339 0.75542 0.24893 0.0
H1641 H 0.0518 0.7584 0.23119 0.0
H1642 H 0.04261 0.78505 0.19288 0.0
C1643 C 0.09175 0.8147 0.18716 0.0
C1644 C 0.08199 0.7856 0.21022 0.0
C1645 C 0.10426 0.82355 0.18328 0.0
C1646 C 0.03228 0.76303 0.24064 0.0
C1647 C 0.0429 0.76484 0.23053 0.0
C1648 C 0.05351 0.78512 0.1979 0.0
C1649 C 0.09269 0.80057 0.19088 0.0
C1650 C 0.08001 0.792 0.19712 0.0
C1651 C 0.04248 0.77537 0.22023 0.0
C1652 C 0.05538 0.77956 0.21149 0.0
H1653 H 0.1291 0.79988 0.18567 0.0
H1654 H 0.10721 0.78441 0.19279 0.0
H1655 H 0.06391 0.79614 0.18067 0.0
H1656 H 0.01093 0.78777 0.22904 0.0
H1657 H 0.02966 0.79137 0.21185 0.0
C1658 C 0.90311 0.22404 0.20113 0.0
C1659 C 0.88972 0.22968 0.20025 0.0
C1660 C 0.91609 0.2324 0.20609 0.0
C1661 C 0.93265 0.26956 0.21586 0.0
H1662 H 0.9579 0.24991 0.24064 0.0
C1663 C 0.97561 0.29555 0.25915 0.0
C1664 C 0.98852 0.28919 0.26141 0.0
C1665 C 0.96481 0.29008 0.24881 0.0
C1666 C 0.95112 0.25554 0.23356 0.0
H1667 H 0.87935 0.24851 0.20344 0.0
H1668 H 0.90192 0.26304 0.21269 0.0
H1669 H 0.9365 0.23665 0.22838 0.0
H1670 H 1.00099 0.2732 0.25359 0.0
H1671 H 0.98226 0.26379 0.23555 0.0
H1672 H 0.94712 0.28862 0.2218 0.0
C1673 C 0.90254 0.25228 0.20921 0.0
C1674 C 0.93882 0.24791 0.22647 0.0
C1675 C 0.88959 0.24396 0.204 0.0
C1676 C 0.99105 0.27819 0.25226 0.0
C1677 C 0.98032 0.27277 0.24195 0.0
C1678 C 0.94493 0.27725 0.22314 0.0
C1679 C 0.91592 0.24652 0.21057 0.0
C1680 C 0.92939 0.25478 0.21753 0.0
C1681 C 0.96681 0.2782 0.24058 0.0
C1682 C 0.95427 0.27028 0.23206 0.0
H1683 H 0.90349 0.2131 0.1981 0.0
H1684 H 0.92622 0.22769 0.20661 0.0
H1685 H 0.92573 0.2752 0.20895 0.0
H1686 H 0.97335 0.30404 0.26603 0.0
H1687 H 0.95449 0.29447 0.24797 0.0
C1688 C 0.16706 0.73097 0.65349 0.0
C1689 C 0.17575 0.72512 0.66402 0.0
C1690 C 0.17345 0.7372 0.64152 0.0
C1691 C 0.20981 0.75227 0.6284 0.0
H1692 H 0.19064 0.74468 0.59117 0.0
C1693 C 0.24196 0.75747 0.5783 0.0
C1694 C 0.23615 0.76381 0.56629 0.0
C1695 C 0.23363 0.75465 0.59007 0.0
C1696 C 0.19602 0.7471 0.60151 0.0
H1697 H 0.19808 0.72157 0.67023 0.0
H1698 H 0.20907 0.73204 0.64939 0.0
H1699 H 0.17789 0.73595 0.61208 0.0
H1700 H 0.21693 0.77219 0.55729 0.0
H1701 H 0.2021 0.76696 0.57802 0.0
H1702 H 0.2281 0.763 0.61786 0.0
C1703 C 0.19734 0.73199 0.65039 0.0
C1704 C 0.18872 0.74209 0.61351 0.0
C1705 C 0.19098 0.72577 0.66229 0.0
C1706 C 0.22172 0.76733 0.56639 0.0
C1707 C 0.21323 0.76428 0.57821 0.0
C1708 C 0.21709 0.75719 0.61646 0.0
C1709 C 0.1887 0.73782 0.63983 0.0
C1710 C 0.19569 0.74431 0.6271 0.0
C1711 C 0.21916 0.75794 0.5902 0.0
C1712 C 0.21045 0.75438 0.60284 0.0
H1713 H 0.15528 0.73057 0.6544 0.0
H1714 H 0.16645 0.74164 0.63367 0.0
H1715 H 0.21538 0.75454 0.63868 0.0
H1716 H 0.25305 0.75466 0.57866 0.0
H1717 H 0.23848 0.74959 0.59902 0.0
C1718 C 0.82339 0.71838 0.63226 0.0
C1719 C 0.82665 0.72971 0.64196 0.0
C1720 C 0.81748 0.7206 0.61871 0.0
C1721 C 0.81155 0.74868 0.59281 0.0
H1722 H 0.77968 0.72055 0.57813 0.0
C1723 C 0.77052 0.75815 0.54618 0.0
C1724 C 0.7655 0.74661 0.53705 0.0
C1725 C 0.77994 0.75645 0.55797 0.0
C1726 C 0.78873 0.72841 0.58195 0.0
H1727 H 0.82636 0.75223 0.64521 0.0
H1728 H 0.81576 0.75611 0.62163 0.0
H1729 H 0.79219 0.71679 0.60072 0.0
H1730 H 0.76731 0.72453 0.53252 0.0
H1731 H 0.78383 0.72165 0.55292 0.0
H1732 H 0.80775 0.76044 0.57409 0.0
C1733 C 0.81805 0.74556 0.62434 0.0
C1734 C 0.79591 0.72625 0.59492 0.0
C1735 C 0.82402 0.74333 0.63787 0.0
C1736 C 0.77081 0.7336 0.53945 0.0
C1737 C 0.78022 0.73191 0.55118 0.0
C1738 C 0.8043 0.75087 0.57982 0.0
C1739 C 0.81458 0.73419 0.61464 0.0
C1740 C 0.80738 0.73636 0.60055 0.0
C1741 C 0.78453 0.74319 0.56081 0.0
C1742 C 0.79278 0.74076 0.57427 0.0
H1743 H 0.82532 0.70778 0.63522 0.0
H1744 H 0.81514 0.71165 0.61145 0.0
H1745 H 0.82046 0.7566 0.59677 0.0
H1746 H 0.76663 0.76832 0.54463 0.0
H1747 H 0.78302 0.76533 0.56523 0.0
C1748 C 0.83149 0.35631 0.6806 0.0
C1749 C 0.84689 0.3592 0.68302 0.0
C1750 C 0.82533 0.34833 0.66873 0.0
C1751 C 0.83456 0.32209 0.64275 0.0
H1752 H 0.79995 0.33134 0.62141 0.0
C1753 C 0.81368 0.29387 0.58986 0.0
C1754 C 0.79835 0.29061 0.58715 0.0
C1755 C 0.81943 0.30228 0.60155 0.0
C1756 C 0.80952 0.3285 0.62735 0.0
H1757 H 0.86786 0.35659 0.67444 0.0
H1758 H 0.85717 0.34277 0.65383 0.0
H1759 H 0.81015 0.34618 0.64162 0.0
H1760 H 0.77707 0.2934 0.59493 0.0
H1761 H 0.78706 0.30799 0.6153 0.0
H1762 H 0.83393 0.30441 0.62856 0.0
C1763 C 0.84982 0.34635 0.66125 0.0
C1764 C 0.81537 0.33703 0.63894 0.0
C1765 C 0.85596 0.3543 0.67307 0.0
C1766 C 0.78892 0.29588 0.59653 0.0
C1767 C 0.79466 0.30428 0.60823 0.0
C1768 C 0.8287 0.31356 0.63119 0.0
C1769 C 0.83444 0.34307 0.65902 0.0
C1770 C 0.82801 0.33396 0.64676 0.0
C1771 C 0.81 0.30764 0.61088 0.0
C1772 C 0.81613 0.31667 0.62329 0.0
H1773 H 0.8242 0.35983 0.68811 0.0
H1774 H 0.81343 0.34592 0.6674 0.0
H1775 H 0.84413 0.31924 0.64869 0.0
H1776 H 0.82128 0.29017 0.58278 0.0
H1777 H 0.8313 0.30481 0.60313 0.0
C1778 C 0.14946 0.32421 0.65802 0.0
C1779 C 0.15577 0.33849 0.65797 0.0
C1780 C 0.15346 0.31453 0.64826 0.0
C1781 C 0.18299 0.30911 0.62457 0.0
H1782 H 0.15277 0.28235 0.60507 0.0
C1783 C 0.19495 0.27825 0.57537 0.0
C1784 C 0.18933 0.26377 0.57426 0.0
C1785 C 0.19052 0.28681 0.58588 0.0
C1786 C 0.16135 0.28964 0.61056 0.0
H1787 H 0.17157 0.35382 0.64819 0.0
H1788 H 0.17849 0.33699 0.63098 0.0
H1789 H 0.14588 0.29834 0.6231 0.0
H1790 H 0.17439 0.24699 0.5832 0.0
H1791 H 0.16657 0.26202 0.60164 0.0
H1792 H 0.19844 0.30053 0.612 0.0
C1793 C 0.17045 0.33322 0.63853 0.0
C1794 C 0.15741 0.29879 0.62088 0.0
C1795 C 0.16643 0.34288 0.64828 0.0
C1796 C 0.17885 0.25812 0.58372 0.0
C1797 C 0.17439 0.26672 0.59428 0.0
C1798 C 0.18692 0.29999 0.61427 0.0
C1799 C 0.16398 0.31893 0.63838 0.0
C1800 C 0.16818 0.30874 0.62788 0.0
C1801 C 0.18033 0.28112 0.59557 0.0
C1802 C 0.17613 0.29027 0.60702 0.0
H1803 H 0.1414 0.32056 0.6656 0.0
H1804 H 0.14845 0.30356 0.64856 0.0
H1805 H 0.19159 0.31645 0.62997 0.0
H1806 H 0.20276 0.28304 0.56806 0.0
H1807 H 0.19503 0.29794 0.58638 0.0
C1808 C 0.226 0.34351 0.41609 0.0
C1809 C 0.21329 0.34099 0.407 0.0
C1810 C 0.2269 0.33608 0.42869 0.0
C1811 C 0.20363 0.31614 0.45431 0.0
H1812 H 0.23899 0.29965 0.46512 0.0
C1813 C 0.2041 0.27293 0.49605 0.0
C1814 C 0.21655 0.27311 0.5054 0.0
C1815 C 0.20415 0.2824 0.48492 0.0
C1816 C 0.22913 0.30439 0.46238 0.0
H1817 H 0.19149 0.32909 0.40393 0.0
H1818 H 0.19305 0.31598 0.42591 0.0
H1819 H 0.23828 0.31384 0.44383 0.0
H1820 H 0.23876 0.28354 0.51052 0.0
H1821 H 0.2388 0.30024 0.49103 0.0
H1822 H 0.19441 0.30662 0.47274 0.0
C1823 C 0.20231 0.32369 0.42336 0.0
C1824 C 0.22871 0.31249 0.45016 0.0
C1825 C 0.20144 0.33107 0.41076 0.0
C1826 C 0.229 0.28314 0.50349 0.0
C1827 C 0.22905 0.29264 0.49228 0.0
C1828 C 0.20405 0.30809 0.46651 0.0
C1829 C 0.21504 0.32613 0.43248 0.0
C1830 C 0.21587 0.31826 0.44588 0.0
C1831 C 0.21663 0.29232 0.48284 0.0
C1832 C 0.21672 0.30192 0.47057 0.0
H1833 H 0.23518 0.35128 0.41348 0.0
H1834 H 0.23678 0.3383 0.43558 0.0
H1835 H 0.19368 0.3207 0.45145 0.0
H1836 H 0.19433 0.26533 0.49719 0.0
H1837 H 0.19448 0.28171 0.47772 0.0
C1838 C 0.20939 0.69575 0.38622 0.0
C1839 C 0.19408 0.69539 0.38351 0.0
C1840 C 0.21601 0.69984 0.39954 0.0
C1841 C 0.20727 0.70525 0.4371 0.0
H1842 H 0.24552 0.72848 0.43933 0.0
C1843 C 0.23128 0.73667 0.48753 0.0
C1844 C 0.24633 0.73664 0.49131 0.0
C1845 C 0.22512 0.73066 0.47469 0.0
C1846 C 0.23491 0.72187 0.4389 0.0
H1847 H 0.17374 0.69868 0.39299 0.0
H1848 H 0.18528 0.7063 0.41589 0.0
H1849 H 0.23445 0.71991 0.4164 0.0
H1850 H 0.2667 0.73024 0.48449 0.0
H1851 H 0.25595 0.71976 0.46205 0.0
H1852 H 0.20762 0.70757 0.4596 0.0
C1853 C 0.1922 0.70322 0.40782 0.0
C1854 C 0.22855 0.7169 0.42574 0.0
C1855 C 0.18558 0.69905 0.39456 0.0
C1856 C 0.25505 0.73032 0.48198 0.0
C1857 C 0.24892 0.72444 0.46905 0.0
C1858 C 0.21357 0.71033 0.45024 0.0
C1859 C 0.20753 0.70374 0.41052 0.0
C1860 C 0.21459 0.70858 0.42462 0.0
C1861 C 0.23389 0.7246 0.46522 0.0
C1862 C 0.22743 0.71876 0.4513 0.0
H1863 H 0.21633 0.69312 0.37797 0.0
H1864 H 0.22781 0.69991 0.40123 0.0
H1865 H 0.19666 0.69864 0.43675 0.0
H1866 H 0.22426 0.74137 0.49452 0.0
H1867 H 0.21353 0.73105 0.47202 0.0
C1868 C 0.81904 0.67009 0.40093 0.0
C1869 C 0.81523 0.67194 0.38663 0.0
C1870 C 0.80919 0.67223 0.41123 0.0
C1871 C 0.76965 0.67666 0.41584 0.0
H1872 H 0.78548 0.69129 0.45258 0.0
C1873 C 0.7372 0.70183 0.45853 0.0
C1874 C 0.7385 0.69618 0.4721 0.0
C1875 C 0.74555 0.69759 0.44774 0.0
C1876 C 0.78093 0.6871 0.44239 0.0
H1877 H 0.79833 0.67762 0.37178 0.0
H1878 H 0.78137 0.68213 0.38974 0.0
H1879 H 0.80229 0.68711 0.43447 0.0
H1880 H 0.74939 0.68161 0.48503 0.0
H1881 H 0.76431 0.67446 0.46622 0.0
H1882 H 0.74824 0.67745 0.42377 0.0
C1883 C 0.7917 0.67851 0.39309 0.0
C1884 C 0.79055 0.6846 0.43199 0.0
C1885 C 0.80145 0.67605 0.38277 0.0
C1886 C 0.74805 0.68598 0.47461 0.0
C1887 C 0.75664 0.68198 0.46392 0.0
C1888 C 0.76004 0.67947 0.42616 0.0
C1889 C 0.79541 0.6766 0.40749 0.0
C1890 C 0.78507 0.67928 0.41856 0.0
C1891 C 0.75558 0.68788 0.45045 0.0
C1892 C 0.76562 0.68464 0.43953 0.0
H1893 H 0.82956 0.66675 0.40411 0.0
H1894 H 0.81236 0.67028 0.42211 0.0
H1895 H 0.76494 0.67232 0.40577 0.0
H1896 H 0.72991 0.70971 0.45639 0.0
H1897 H 0.74462 0.70233 0.43744 0.0
C1898 C 0.81953 0.3395 0.41476 0.0
C1899 C 0.82011 0.35418 0.41264 0.0
C1900 C 0.81404 0.33332 0.42707 0.0
C1901 C 0.79022 0.33796 0.45637 0.0
H1902 H 0.81237 0.31064 0.4747 0.0
C1903 C 0.77456 0.30977 0.50953 0.0
C1904 C 0.77698 0.29551 0.51031 0.0
C1905 C 0.77923 0.31799 0.4979 0.0
C1906 C 0.80593 0.31813 0.46966 0.0
H1907 H 0.8153 0.37383 0.42203 0.0
H1908 H 0.80545 0.36293 0.44338 0.0
H1909 H 0.82165 0.32276 0.4539 0.0
H1910 H 0.78509 0.27843 0.4991 0.0
H1911 H 0.7927 0.29243 0.47897 0.0
H1912 H 0.77431 0.33304 0.47207 0.0
C1913 C 0.80922 0.35624 0.43542 0.0
C1914 C 0.81129 0.3251 0.45772 0.0
C1915 C 0.81485 0.36247 0.42315 0.0
C1916 C 0.78336 0.28948 0.499 0.0
C1917 C 0.78783 0.29755 0.48744 0.0
C1918 C 0.78476 0.33086 0.46832 0.0
C1919 C 0.80887 0.34161 0.43757 0.0
C1920 C 0.80341 0.33492 0.45078 0.0
C1921 C 0.78626 0.31202 0.48688 0.0
C1922 C 0.79242 0.32063 0.47494 0.0
H1923 H 0.82314 0.3327 0.40683 0.0
H1924 H 0.8137 0.32198 0.4283 0.0
H1925 H 0.78389 0.34548 0.45124 0.0
H1926 H 0.76964 0.31468 0.5181 0.0
H1927 H 0.77779 0.3291 0.49778 0.0
C1928 C 0.14232 0.72638 0.7186 0.0
C1929 C 0.14114 0.72497 0.7038 0.0
C1930 C 0.13159 0.7322 0.72584 0.0
C1931 C 0.09268 0.73839 0.72267 0.0
H1932 H 0.10418 0.76472 0.75396 0.0
C1933 C 0.0509 0.75457 0.76156 0.0
C1934 C 0.05217 0.76899 0.76549 0.0
C1935 C 0.06171 0.74946 0.75379 0.0
C1936 C 0.10078 0.75745 0.7452 0.0
H1937 H 0.12773 0.72862 0.68502 0.0
H1938 H 0.10896 0.73881 0.69769 0.0
H1939 H 0.12314 0.75568 0.74067 0.0
H1940 H 0.066 0.78928 0.76447 0.0
H1941 H 0.08483 0.78039 0.75091 0.0
H1942 H 0.07031 0.74016 0.7272 0.0
C1943 C 0.11819 0.73535 0.70368 0.0
C1944 C 0.11165 0.75216 0.73766 0.0
C1945 C 0.12901 0.72963 0.69641 0.0
C1946 C 0.06459 0.77815 0.76152 0.0
C1947 C 0.07546 0.77302 0.75385 0.0
C1948 C 0.08181 0.74358 0.73029 0.0
C1949 C 0.11934 0.73668 0.7185 0.0
C1950 C 0.10775 0.74255 0.72631 0.0
C1951 C 0.07414 0.75862 0.74985 0.0
C1952 C 0.08571 0.75317 0.74166 0.0
H1953 H 0.1516 0.72302 0.7246 0.0
H1954 H 0.13277 0.73296 0.73725 0.0
H1955 H 0.08929 0.73091 0.71407 0.0
H1956 H 0.04143 0.74724 0.76432 0.0
H1957 H 0.06041 0.73829 0.75099 0.0
C1958 C 0.84119 0.6863 0.69955 0.0
C1959 C 0.85578 0.69183 0.69693 0.0
C1960 C 0.83827 0.67454 0.70821 0.0
C1961 C 0.8559 0.6547 0.73629 0.0
H1962 H 0.82235 0.62593 0.7277 0.0
C1963 C 0.84546 0.60256 0.76752 0.0
C1964 C 0.83082 0.59797 0.77084 0.0
C1965 C 0.84871 0.61393 0.75844 0.0
C1966 C 0.83169 0.63395 0.73031 0.0
H1967 H 0.87874 0.68904 0.70091 0.0
H1968 H 0.87366 0.66845 0.71588 0.0
H1969 H 0.82763 0.64563 0.71166 0.0
H1970 H 0.80818 0.60216 0.76753 0.0
H1971 H 0.81383 0.62186 0.75167 0.0
H1972 H 0.85997 0.64296 0.75493 0.0
C1973 C 0.86447 0.67338 0.71152 0.0
C1974 C 0.83471 0.64525 0.72112 0.0
C1975 C 0.86738 0.68516 0.70291 0.0
C1976 C 0.81954 0.60517 0.76499 0.0
C1977 C 0.82277 0.61649 0.7559 0.0
C1978 C 0.85291 0.64336 0.74545 0.0
C1979 C 0.84988 0.668 0.7144 0.0
C1980 C 0.84682 0.6558 0.72402 0.0
C1981 C 0.83738 0.62096 0.75245 0.0
C1982 C 0.84073 0.63289 0.7426 0.0
H1983 H 0.83202 0.69131 0.69524 0.0
H1984 H 0.82691 0.67081 0.71035 0.0
H1985 H 0.86517 0.66275 0.73899 0.0
H1986 H 0.85441 0.59718 0.77167 0.0
H1987 H 0.86006 0.61704 0.75588 0.0
C1988 C 0.88656 0.36162 0.73739 0.0
C1989 C 0.88552 0.36345 0.7227 0.0
C1990 C 0.89818 0.35524 0.74371 0.0
C1991 C 0.92533 0.33138 0.73467 0.0
H1992 H 0.94451 0.34344 0.77098 0.0
C1993 C 0.97803 0.30977 0.75586 0.0
C1994 C 0.97924 0.30645 0.77026 0.0
C1995 C 0.9666 0.31692 0.7505 0.0
C1996 C 0.93916 0.33984 0.76089 0.0
H1997 H 0.89635 0.36086 0.70327 0.0
H1998 H 0.91659 0.34998 0.71423 0.0
H1999 H 0.92481 0.3559 0.76095 0.0
H2000 H 0.96911 0.30809 0.79027 0.0
H2001 H 0.94923 0.3206 0.78091 0.0
H2002 H 0.93964 0.31537 0.73455 0.0
C2003 C 0.90825 0.35304 0.72087 0.0
C2004 C 0.92786 0.347 0.75514 0.0
C2005 C 0.89666 0.35933 0.71458 0.0
C2006 C 0.9687 0.31059 0.77917 0.0
C2007 C 0.95727 0.31778 0.7738 0.0
C2008 C 0.93661 0.32427 0.74039 0.0
C2009 C 0.90903 0.35062 0.73548 0.0
C2010 C 0.92087 0.34292 0.74189 0.0
C2011 C 0.95604 0.321 0.75938 0.0
C2012 C 0.94376 0.32845 0.75353 0.0
H2013 H 0.87811 0.36462 0.74392 0.0
H2014 H 0.89837 0.3535 0.75498 0.0
H2015 H 0.91999 0.3277 0.72461 0.0
H2016 H 0.98604 0.30704 0.7487 0.0
H2017 H 0.96617 0.31944 0.73939 0.0
C2018 C 0.17 0.40906 0.70389 0.0
C2019 C 0.17668 0.39697 0.70109 0.0
C2020 C 0.17847 0.42235 0.70541 0.0
C2021 C 0.21559 0.43823 0.71695 0.0
H2022 H 0.20026 0.473 0.70658 0.0
C2023 C 0.24129 0.49271 0.74066 0.0
C2024 C 0.2307 0.49982 0.74685 0.0
C2025 C 0.23686 0.48126 0.73132 0.0
C2026 C 0.20475 0.46339 0.70946 0.0
H2027 H 0.19736 0.38935 0.69708 0.0
H2028 H 0.21225 0.41271 0.69976 0.0
H2029 H 0.18833 0.45039 0.69651 0.0
H2030 H 0.20727 0.50107 0.74756 0.0
H2031 H 0.1996 0.48128 0.73134 0.0
H2032 H 0.23158 0.45116 0.73042 0.0
C2033 C 0.20045 0.41185 0.70083 0.0
C2034 C 0.19792 0.45046 0.70372 0.0
C2035 C 0.19193 0.39852 0.69921 0.0
C2036 C 0.2157 0.49574 0.74303 0.0
C2037 C 0.2113 0.48448 0.73361 0.0
C2038 C 0.22245 0.45118 0.72268 0.0
C2039 C 0.19384 0.42387 0.7042 0.0
C2040 C 0.20289 0.43768 0.70785 0.0
C2041 C 0.22179 0.47693 0.72786 0.0
C2042 C 0.21671 0.46382 0.71944 0.0
H2043 H 0.15824 0.40818 0.70524 0.0
H2044 H 0.17304 0.43135 0.70818 0.0
H2045 H 0.21964 0.42857 0.72042 0.0
H2046 H 0.25294 0.49564 0.74343 0.0
H2047 H 0.24518 0.47564 0.72701 0.0
C2048 C 0.15013 0.35614 0.37102 0.0
C2049 C 0.16111 0.36172 0.36203 0.0
C2050 C 0.13627 0.35005 0.3655 0.0
C2051 C 0.11061 0.34808 0.334 0.0
H2052 H 0.09431 0.31255 0.35033 0.0
C2053 C 0.05785 0.31253 0.3108 0.0
C2054 C 0.04846 0.30558 0.32056 0.0
C2055 C 0.07136 0.32033 0.31542 0.0
C2056 C 0.09859 0.32256 0.34577 0.0
H2057 H 0.16599 0.36553 0.34016 0.0
H2058 H 0.14167 0.35492 0.33051 0.0
H2059 H 0.11829 0.32432 0.35914 0.0
H2060 H 0.04548 0.30203 0.34284 0.0
H2061 H 0.06876 0.31579 0.35086 0.0
H2062 H 0.09079 0.34626 0.32061 0.0
C2063 C 0.14382 0.35534 0.34185 0.0
C2064 C 0.11236 0.3293 0.35081 0.0
C2065 C 0.15774 0.36142 0.34738 0.0
C2066 C 0.05254 0.3071 0.33503 0.0
C2067 C 0.06595 0.31493 0.33963 0.0
C2068 C 0.09675 0.34132 0.32895 0.0
C2069 C 0.133 0.34942 0.35085 0.0
C2070 C 0.11849 0.3422 0.34509 0.0
C2071 C 0.07569 0.32136 0.32989 0.0
C2072 C 0.09053 0.32854 0.33488 0.0
H2073 H 0.15223 0.35648 0.38236 0.0
H2074 H 0.12808 0.34585 0.37274 0.0
H2075 H 0.11501 0.35805 0.32943 0.0
H2076 H 0.05502 0.31153 0.29958 0.0
H2077 H 0.07863 0.32511 0.30763 0.0
C2078 C 0.1953 0.643 0.32257 0.0
C2079 C 0.20493 0.65573 0.32483 0.0
C2080 C 0.20047 0.63088 0.31729 0.0
C2081 C 0.23098 0.61939 0.29763 0.0
H2082 H 0.22057 0.5833 0.31569 0.0
C2083 C 0.2553 0.56865 0.28118 0.0
C2084 C 0.2616 0.562 0.29271 0.0
C2085 C 0.24591 0.57892 0.28342 0.0
C2086 C 0.22351 0.59328 0.31046 0.0
H2087 H 0.22729 0.6659 0.32268 0.0
H2088 H 0.23634 0.64479 0.31362 0.0
H2089 H 0.20946 0.60394 0.32299 0.0
H2090 H 0.26238 0.56023 0.31548 0.0
H2091 H 0.24596 0.57774 0.31934 0.0
H2092 H 0.24543 0.60883 0.28546 0.0
C2093 C 0.22483 0.64411 0.31597 0.0
C2094 C 0.21706 0.6051 0.31459 0.0
C2095 C 0.21969 0.65617 0.32132 0.0
C2096 C 0.2577 0.56519 0.30638 0.0
C2097 C 0.24821 0.5752 0.30859 0.0
C2098 C 0.23734 0.60754 0.29343 0.0
C2099 C 0.2153 0.63129 0.31388 0.0
C2100 C 0.22099 0.61839 0.30848 0.0
C2101 C 0.24247 0.58247 0.2972 0.0
C2102 C 0.23397 0.59442 0.30004 0.0
H2103 H 0.18377 0.64246 0.32481 0.0
H2104 H 0.19279 0.62123 0.31565 0.0
H2105 H 0.23408 0.62941 0.29255 0.0
H2106 H 0.25822 0.56648 0.27054 0.0
H2107 H 0.2416 0.58429 0.27442 0.0
C2108 C 0.89707 0.6967 0.3717 0.0
C2109 C 0.88919 0.68407 0.36607 0.0
C2110 C 0.9088 0.70382 0.36463 0.0
C2111 C 0.92318 0.70819 0.32922 0.0
H2112 H 0.95847 0.72617 0.34998 0.0
C2113 C 0.97271 0.73923 0.30194 0.0
C2114 C 0.97861 0.75226 0.3084 0.0
C2115 C 0.96238 0.72979 0.30873 0.0
C2116 C 0.94865 0.72127 0.34404 0.0
H2117 H 0.88701 0.6691 0.34856 0.0
H2118 H 0.90769 0.68143 0.3362 0.0
H2119 H 0.93949 0.71161 0.36246 0.0
H2120 H 0.97824 0.7656 0.32701 0.0
H2121 H 0.96026 0.74928 0.3387 0.0
H2122 H 0.93228 0.71805 0.31083 0.0
C2123 C 0.90486 0.68583 0.3461 0.0
C2124 C 0.93777 0.71294 0.35119 0.0
C2125 C 0.89314 0.67871 0.3532 0.0
C2126 C 0.97396 0.75564 0.32174 0.0
C2127 C 0.96372 0.74623 0.32851 0.0
C2128 C 0.93408 0.71653 0.32206 0.0
C2129 C 0.91278 0.69851 0.3517 0.0
C2130 C 0.92481 0.70649 0.34391 0.0
C2131 C 0.95783 0.73318 0.32212 0.0
C2132 C 0.94682 0.72336 0.32944 0.0
H2133 H 0.89399 0.70119 0.38146 0.0
H2134 H 0.91449 0.7137 0.3691 0.0
H2135 H 0.91325 0.70349 0.32332 0.0
H2136 H 0.97608 0.73631 0.29167 0.0
H2137 H 0.95808 0.71977 0.30358 0.0
C2138 C 0.81466 0.40115 0.38251 0.0
C2139 C 0.81817 0.39 0.37405 0.0
C2140 C 0.80789 0.41219 0.37652 0.0
C2141 C 0.78497 0.42094 0.34556 0.0
H2142 H 0.79796 0.45985 0.35758 0.0
C2143 C 0.76146 0.46834 0.31877 0.0
C2144 C 0.75942 0.48004 0.32729 0.0
C2145 C 0.76874 0.45737 0.32424 0.0
C2146 C 0.79403 0.44904 0.35422 0.0
H2147 H 0.81729 0.38174 0.35263 0.0
H2148 H 0.80544 0.40104 0.34215 0.0
H2149 H 0.8105 0.44085 0.36746 0.0
H2150 H 0.76356 0.48909 0.34844 0.0
H2151 H 0.77569 0.46985 0.35801 0.0
H2152 H 0.76832 0.42904 0.33251 0.0
C2153 C 0.80791 0.4012 0.35344 0.0
C2154 C 0.80128 0.43814 0.35987 0.0
C2155 C 0.81482 0.39021 0.35942 0.0
C2156 C 0.76474 0.4803 0.3415 0.0
C2157 C 0.77194 0.46929 0.34698 0.0
C2158 C 0.77763 0.43183 0.33998 0.0
C2159 C 0.80434 0.41232 0.36192 0.0
C2160 C 0.79682 0.42395 0.35564 0.0
C2161 C 0.77413 0.45769 0.33842 0.0
C2162 C 0.78203 0.44605 0.34426 0.0
H2163 H 0.8172 0.40137 0.39379 0.0
H2164 H 0.80519 0.42051 0.38337 0.0
H2165 H 0.78113 0.4101 0.34221 0.0
H2166 H 0.75742 0.46757 0.30784 0.0
H2167 H 0.77033 0.44872 0.31724 0.0
C2168 C 0.16985 0.66033 0.71808 0.0
C2169 C 0.17367 0.66357 0.70423 0.0
C2170 C 0.17591 0.64959 0.72544 0.0
C2171 C 0.19334 0.6173 0.71934 0.0
H2172 H 0.20422 0.62074 0.75938 0.0
C2173 C 0.22258 0.575 0.74878 0.0
C2174 C 0.21831 0.57134 0.76245 0.0
C2175 C 0.21754 0.58652 0.74187 0.0
C2176 C 0.20108 0.61953 0.74823 0.0
H2177 H 0.1874 0.65869 0.68747 0.0
H2178 H 0.19809 0.63999 0.70031 0.0
H2179 H 0.19499 0.64048 0.74712 0.0
H2180 H 0.20545 0.57724 0.77957 0.0
H2181 H 0.19643 0.59708 0.76742 0.0
H2182 H 0.19929 0.59633 0.72043 0.0
C2183 C 0.19015 0.64549 0.7054 0.0
C2184 C 0.1958 0.63088 0.74119 0.0
C2185 C 0.1841 0.65625 0.69807 0.0
C2186 C 0.20888 0.57959 0.76901 0.0
C2187 C 0.20384 0.59112 0.76209 0.0
C2188 C 0.19859 0.60596 0.72638 0.0
C2189 C 0.18599 0.64189 0.71912 0.0
C2190 C 0.19185 0.62992 0.72664 0.0
C2191 C 0.20807 0.59473 0.74841 0.0
C2192 C 0.20253 0.6069 0.74092 0.0
H2193 H 0.16191 0.66592 0.72309 0.0
H2194 H 0.17238 0.64707 0.73595 0.0
H2195 H 0.19015 0.61607 0.7082 0.0
H2196 H 0.22969 0.56887 0.74329 0.0
H2197 H 0.2212 0.58906 0.73141 0.0
C2198 C 0.2069 0.401 0.34874 0.0
C2199 C 0.20577 0.39899 0.3633 0.0
C2200 C 0.21519 0.41318 0.34373 0.0
C2201 C 0.24506 0.4419 0.35506 0.0
H2202 H 0.23209 0.45985 0.32094 0.0
C2203 C 0.2738 0.49569 0.33527 0.0
C2204 C 0.27587 0.49652 0.32071 0.0
C2205 C 0.26536 0.48385 0.3408 0.0
C2206 C 0.23591 0.45488 0.33043 0.0
H2207 H 0.21195 0.40835 0.38402 0.0
H2208 H 0.22619 0.4297 0.37531 0.0
H2209 H 0.21673 0.43931 0.32992 0.0
H2210 H 0.27126 0.48518 0.30068 0.0
H2211 H 0.25647 0.46473 0.31029 0.0
H2212 H 0.2642 0.45761 0.35558 0.0
C2213 C 0.22102 0.42173 0.36774 0.0
C2214 C 0.22712 0.44309 0.33556 0.0
C2215 C 0.21282 0.40953 0.37274 0.0
C2216 C 0.26961 0.48509 0.31188 0.0
C2217 C 0.26113 0.47334 0.31739 0.0
C2218 C 0.2538 0.45376 0.34996 0.0
C2219 C 0.22244 0.42365 0.35318 0.0
C2220 C 0.23162 0.4364 0.34789 0.0
C2221 C 0.25879 0.47264 0.33187 0.0
C2222 C 0.24936 0.4603 0.33754 0.0
H2223 H 0.20172 0.39298 0.34123 0.0
H2224 H 0.21621 0.41421 0.33246 0.0
H2225 H 0.24898 0.43688 0.36446 0.0
H2226 H 0.27835 0.50433 0.34236 0.0
H2227 H 0.26367 0.48364 0.35201 0.0
C2228 C 0.14357 0.69542 0.33759 0.0
C2229 C 0.15622 0.70271 0.34477 0.0
C2230 C 0.13188 0.70264 0.33294 0.0
C2231 C 0.11544 0.73533 0.3398 0.0
H2232 H 0.09483 0.7269 0.30335 0.0
C2233 C 0.07165 0.76905 0.3177 0.0
C2234 C 0.05902 0.76198 0.31033 0.0
C2235 C 0.0836 0.76187 0.32154 0.0
C2236 C 0.10033 0.72928 0.31364 0.0
H2237 H 0.16666 0.72349 0.35214 0.0
H2238 H 0.14629 0.73599 0.34414 0.0
H2239 H 0.11539 0.71424 0.3106 0.0
H2240 H 0.04908 0.74168 0.30136 0.0
H2241 H 0.06981 0.72914 0.30814 0.0
H2242 H 0.10034 0.75023 0.34295 0.0
C2243 C 0.14528 0.72464 0.34233 0.0
C2244 C 0.11215 0.72202 0.31779 0.0
C2245 C 0.15697 0.71745 0.34693 0.0
C2246 C 0.05869 0.74753 0.30684 0.0
C2247 C 0.07062 0.74033 0.31073 0.0
C2248 C 0.1036 0.74254 0.33568 0.0
C2249 C 0.13252 0.71732 0.33538 0.0
C2250 C 0.11988 0.72498 0.33091 0.0
C2251 C 0.08324 0.74738 0.31817 0.0
C2252 C 0.09588 0.73965 0.32253 0.0
H2253 H 0.14252 0.68405 0.33588 0.0
H2254 H 0.12216 0.69663 0.32774 0.0
H2255 H 0.12096 0.73771 0.35009 0.0
H2256 H 0.0724 0.78021 0.32037 0.0
H2257 H 0.09322 0.76774 0.32703 0.0
C2258 C 0.83572 0.63415 0.3431 0.0
C2259 C 0.82717 0.64524 0.34415 0.0
C2260 C 0.83119 0.62271 0.33385 0.0
C2261 C 0.79725 0.60476 0.31483 0.0
H2262 H 0.82469 0.58195 0.29914 0.0
C2263 C 0.7759 0.55412 0.2837 0.0
C2264 C 0.78064 0.54208 0.29005 0.0
C2265 C 0.7834 0.56763 0.28684 0.0
C2266 C 0.81693 0.5883 0.30339 0.0
H2267 H 0.80765 0.65358 0.33592 0.0
H2268 H 0.80001 0.63398 0.31924 0.0
H2269 H 0.83407 0.60447 0.31112 0.0
H2270 H 0.79792 0.5347 0.30343 0.0
H2271 H 0.81111 0.55835 0.30876 0.0
H2272 H 0.78016 0.5886 0.30709 0.0
C2273 C 0.80994 0.63375 0.32591 0.0
C2274 C 0.82227 0.60114 0.31035 0.0
C2275 C 0.81432 0.64504 0.33538 0.0
C2276 C 0.79391 0.54375 0.29845 0.0
C2277 C 0.8015 0.55729 0.30148 0.0
C2278 C 0.79194 0.5921 0.30767 0.0
C2279 C 0.81811 0.62225 0.32525 0.0
C2280 C 0.81251 0.6094 0.31644 0.0
C2281 C 0.79589 0.56937 0.29623 0.0
C2282 C 0.80172 0.58361 0.30212 0.0
H2283 H 0.84563 0.63404 0.34986 0.0
H2284 H 0.83767 0.614 0.33389 0.0
H2285 H 0.78936 0.61057 0.3196 0.0
H2286 H 0.7658 0.55324 0.27707 0.0
H2287 H 0.77897 0.57679 0.28252 0.0
C2288 C 0.87434 0.34516 0.34908 0.0
C2289 C 0.86764 0.34123 0.36169 0.0
C2290 C 0.88728 0.33989 0.34557 0.0
C2291 C 0.90845 0.30998 0.35338 0.0
H2292 H 0.93906 0.33261 0.33357 0.0
C2293 C 0.96294 0.2889 0.34128 0.0
C2294 C 0.96859 0.2918 0.32794 0.0
C2295 C 0.95117 0.29546 0.34581 0.0
C2296 C 0.93055 0.32609 0.33898 0.0
H2297 H 0.86957 0.32931 0.38085 0.0
H2298 H 0.89228 0.32022 0.37488 0.0
H2299 H 0.91787 0.34329 0.34096 0.0
H2300 H 0.96611 0.30398 0.30895 0.0
H2301 H 0.94564 0.31541 0.31684 0.0
H2302 H 0.92106 0.29276 0.35134 0.0
C2303 C 0.88739 0.32711 0.3675 0.0
C2304 C 0.91838 0.33222 0.34323 0.0
C2305 C 0.87445 0.33239 0.371 0.0
C2306 C 0.96223 0.3016 0.31935 0.0
C2307 C 0.95046 0.30818 0.32389 0.0
C2308 C 0.92062 0.30385 0.34914 0.0
C2309 C 0.89387 0.33061 0.35463 0.0
C2310 C 0.90712 0.32425 0.35046 0.0
C2311 C 0.94469 0.30513 0.33715 0.0
C2312 C 0.93183 0.31179 0.34185 0.0
H2313 H 0.86935 0.35203 0.34174 0.0
H2314 H 0.89183 0.34276 0.33553 0.0
H2315 H 0.8999 0.3034 0.35867 0.0
H2316 H 0.96767 0.28162 0.34831 0.0
H2317 H 0.94723 0.29303 0.35618 0.0
C2318 C 0.84528 0.42391 0.73253 0.0
C2319 C 0.83449 0.41209 0.7299 0.0
C2320 C 0.84121 0.43729 0.73534 0.0
C2321 C 0.81069 0.45452 0.74866 0.0
H2322 H 0.83235 0.48848 0.73375 0.0
C2323 C 0.79767 0.51088 0.76328 0.0
C2324 C 0.81018 0.52068 0.76709 0.0
C2325 C 0.79921 0.49792 0.75666 0.0
C2326 C 0.82621 0.47912 0.73806 0.0
H2327 H 0.81097 0.40497 0.7285 0.0
H2328 H 0.80383 0.42833 0.73334 0.0
H2329 H 0.83802 0.46525 0.72655 0.0
H2330 H 0.834 0.52485 0.76631 0.0
H2331 H 0.83665 0.50255 0.7549 0.0
H2332 H 0.79916 0.46841 0.76047 0.0
C2333 C 0.81545 0.42729 0.73317 0.0
C2334 C 0.82949 0.46579 0.73394 0.0
C2335 C 0.81953 0.41392 0.73029 0.0
C2336 C 0.82411 0.51755 0.76354 0.0
C2337 C 0.82563 0.50474 0.75689 0.0
C2338 C 0.80745 0.46788 0.75283 0.0
C2339 C 0.82623 0.43915 0.73578 0.0
C2340 C 0.82196 0.45331 0.73937 0.0
C2341 C 0.81326 0.4946 0.75359 0.0
C2342 C 0.81536 0.48038 0.7478 0.0
H2343 H 0.85689 0.42274 0.7326 0.0
H2344 H 0.84982 0.44611 0.73755 0.0
H2345 H 0.80475 0.44516 0.75315 0.0
H2346 H 0.7868 0.51295 0.76595 0.0
H2347 H 0.78942 0.49042 0.75414 0.0
C2348 C 0.12964 0.3708 0.72716 0.0
C2349 C 0.14007 0.3619 0.72392 0.0
C2350 C 0.11982 0.36719 0.73774 0.0
C2351 C 0.10391 0.33604 0.75787 0.0
H2352 H 0.08897 0.36467 0.78033 0.0
C2353 C 0.06344 0.32011 0.80044 0.0
C2354 C 0.05004 0.32571 0.79841 0.0
C2355 C 0.07593 0.32602 0.79368 0.0
C2356 C 0.0931 0.35659 0.77414 0.0
H2357 H 0.14886 0.34255 0.72945 0.0
H2358 H 0.13213 0.33643 0.74828 0.0
H2359 H 0.10816 0.3718 0.76386 0.0
H2360 H 0.03968 0.34275 0.78879 0.0
H2361 H 0.06162 0.35317 0.77711 0.0
H2362 H 0.08893 0.32085 0.76823 0.0
C2363 C 0.13112 0.34597 0.74239 0.0
C2364 C 0.10401 0.36065 0.76463 0.0
C2365 C 0.14076 0.34948 0.73164 0.0
C2366 C 0.04979 0.33813 0.79051 0.0
C2367 C 0.06236 0.34412 0.78384 0.0
C2368 C 0.0932 0.332 0.7675 0.0
C2369 C 0.12038 0.35468 0.74546 0.0
C2370 C 0.10943 0.35043 0.75624 0.0
C2371 C 0.07535 0.33775 0.7849 0.0
C2372 C 0.08758 0.34222 0.77562 0.0
H2373 H 0.12883 0.3804 0.72126 0.0
H2374 H 0.11157 0.37403 0.73959 0.0
H2375 H 0.1075 0.32787 0.75141 0.0
H2376 H 0.06409 0.31063 0.80656 0.0
H2377 H 0.08589 0.32104 0.79484 0.0
C2378 C 0.88523 0.74389 0.70507 0.0
C2379 C 0.88457 0.73975 0.6908 0.0
C2380 C 0.89638 0.75426 0.71046 0.0
C2381 C 0.93433 0.76906 0.7049 0.0
H2382 H 0.92727 0.79459 0.7351 0.0
C2383 C 0.98172 0.79814 0.74158 0.0
C2384 C 0.97937 0.79456 0.75569 0.0
C2385 C 0.97009 0.79554 0.73127 0.0
C2386 C 0.92941 0.78766 0.72656 0.0
H2387 H 0.89482 0.74347 0.67086 0.0
H2388 H 0.91448 0.76166 0.68036 0.0
H2389 H 0.90641 0.78215 0.7209 0.0
H2390 H 0.96301 0.78638 0.7703 0.0
H2391 H 0.9428 0.78211 0.7525 0.0
H2392 H 0.95731 0.77406 0.71106 0.0
C2393 C 0.90634 0.75682 0.68735 0.0
C2394 C 0.91749 0.78049 0.71848 0.0
C2395 C 0.89507 0.74649 0.68191 0.0
C2396 C 0.96514 0.78912 0.75946 0.0
C2397 C 0.95353 0.78681 0.74929 0.0
C2398 C 0.94628 0.77627 0.71297 0.0
C2399 C 0.90717 0.76072 0.70172 0.0
C2400 C 0.91979 0.77062 0.70801 0.0
C2401 C 0.95592 0.78969 0.73505 0.0
C2402 C 0.94387 0.78513 0.72429 0.0
H2403 H 0.87717 0.73901 0.71212 0.0
H2404 H 0.89682 0.75685 0.72162 0.0
H2405 H 0.93646 0.76149 0.69694 0.0
H2406 H 0.99264 0.80232 0.73845 0.0
H2407 H 0.9722 0.79782 0.72035 0.0
C2408 C 0.68319 0.23422 0.67519 0.0
C2409 C 0.68 0.2194 0.67648 0.0
C2410 C 0.68779 0.24023 0.66245 0.0
C2411 C 0.68824 0.23207 0.62406 0.0
H2412 H 0.72118 0.26233 0.62462 0.0
C2413 C 0.72442 0.24357 0.57696 0.0
C2414 C 0.73038 0.25755 0.574 0.0
C2415 C 0.71606 0.24059 0.5887 0.0
C2416 C 0.71178 0.25408 0.62426 0.0
H2417 H 0.67892 0.19935 0.6652 0.0
H2418 H 0.68714 0.20976 0.64315 0.0
H2419 H 0.71116 0.25379 0.64681 0.0
H2420 H 0.73186 0.27948 0.58083 0.0
H2421 H 0.71716 0.27427 0.60159 0.0
H2422 H 0.6891 0.23209 0.60157 0.0
C2423 C 0.68597 0.21678 0.65193 0.0
C2424 C 0.70604 0.24914 0.637 0.0
C2425 C 0.68143 0.21078 0.66466 0.0
C2426 C 0.72728 0.26862 0.58278 0.0
C2427 C 0.71901 0.26561 0.59472 0.0
C2428 C 0.69396 0.23699 0.61136 0.0
C2429 C 0.68924 0.23158 0.65064 0.0
C2430 C 0.69443 0.23783 0.63708 0.0
C2431 C 0.71351 0.2515 0.59794 0.0
C2432 C 0.70604 0.24782 0.6113 0.0
H2433 H 0.68234 0.24118 0.6841 0.0
H2434 H 0.69013 0.25166 0.66182 0.0
H2435 H 0.67906 0.22358 0.62368 0.0
H2436 H 0.72664 0.2348 0.57042 0.0
H2437 H 0.71219 0.2296 0.59089 0.0
C2438 C 0.3206 0.23014 0.66343 0.0
C2439 C 0.32711 0.24156 0.67206 0.0
C2440 C 0.31294 0.23256 0.65076 0.0
C2441 C 0.30787 0.26026 0.62434 0.0
H2442 H 0.27205 0.23498 0.61381 0.0
C2443 C 0.2662 0.27011 0.57807 0.0
C2444 C 0.26039 0.25817 0.56974 0.0
C2445 C 0.27528 0.26862 0.59017 0.0
C2446 C 0.28212 0.24205 0.61653 0.0
H2447 H 0.33067 0.26445 0.67437 0.0
H2448 H 0.31698 0.26873 0.65235 0.0
H2449 H 0.28573 0.23137 0.63585 0.0
H2450 H 0.26017 0.23543 0.5672 0.0
H2451 H 0.27595 0.23291 0.58818 0.0
H2452 H 0.304 0.27106 0.60501 0.0
C2453 C 0.31805 0.2579 0.6552 0.0
C2454 C 0.28998 0.23997 0.62916 0.0
C2455 C 0.32579 0.25547 0.66784 0.0
C2456 C 0.26433 0.24484 0.57343 0.0
C2457 C 0.27332 0.24336 0.5855 0.0
C2458 C 0.29992 0.26241 0.61171 0.0
C2459 C 0.3115 0.24647 0.64652 0.0
C2460 C 0.30302 0.24897 0.63318 0.0
C2461 C 0.27863 0.25517 0.59416 0.0
C2462 C 0.28703 0.25323 0.60764 0.0
H2463 H 0.32151 0.21933 0.6665 0.0
H2464 H 0.30825 0.22351 0.64424 0.0
H2465 H 0.31795 0.2673 0.62704 0.0
H2466 H 0.26339 0.28052 0.57551 0.0
H2467 H 0.27921 0.27791 0.59668 0.0
C2468 C 0.33528 0.84794 0.67331 0.0
C2469 C 0.34205 0.86205 0.67259 0.0
C2470 C 0.3294 0.84053 0.66103 0.0
C2471 C 0.33431 0.83724 0.62388 0.0
H2472 H 0.29294 0.82176 0.61944 0.0
C2473 C 0.30946 0.81194 0.57086 0.0
C2474 C 0.29753 0.80103 0.57095 0.0
C2475 C 0.31467 0.81941 0.58329 0.0
C2476 C 0.30459 0.82572 0.62053 0.0
H2477 H 0.34817 0.87944 0.65858 0.0
H2478 H 0.33836 0.86627 0.637 0.0
H2479 H 0.30247 0.83436 0.6412 0.0
H2480 H 0.28187 0.78913 0.58409 0.0
H2481 H 0.29137 0.80153 0.60595 0.0
H2482 H 0.33681 0.82816 0.60366 0.0
C2483 C 0.33739 0.86107 0.64709 0.0
C2484 C 0.30999 0.83306 0.633 0.0
C2485 C 0.34293 0.8686 0.65939 0.0
C2486 C 0.291 0.79761 0.58374 0.0
C2487 C 0.29642 0.80483 0.59626 0.0
C2488 C 0.32903 0.82962 0.61156 0.0
C2489 C 0.33055 0.84698 0.6478 0.0
C2490 C 0.32486 0.83897 0.63473 0.0
C2491 C 0.30831 0.81593 0.59625 0.0
C2492 C 0.31404 0.82382 0.6096 0.0
H2493 H 0.33448 0.8427 0.68338 0.0
H2494 H 0.32423 0.82965 0.66183 0.0
H2495 H 0.34588 0.84159 0.62504 0.0
H2496 H 0.31455 0.81492 0.56109 0.0
H2497 H 0.32356 0.82806 0.58263 0.0
C2498 C 0.66405 0.82044 0.63196 0.0
C2499 C 0.67302 0.83362 0.63313 0.0
C2500 C 0.66686 0.81026 0.62211 0.0
C2501 C 0.68479 0.80728 0.58865 0.0
H2502 H 0.68259 0.76733 0.59743 0.0
C2503 C 0.70556 0.7678 0.55112 0.0
C2504 C 0.69742 0.75423 0.54914 0.0
C2505 C 0.70217 0.77702 0.56157 0.0
C2506 C 0.68305 0.77842 0.59476 0.0
H2507 H 0.6923 0.84633 0.62549 0.0
H2508 H 0.69728 0.82857 0.60827 0.0
H2509 H 0.67769 0.78425 0.61555 0.0
H2510 H 0.67933 0.73976 0.55681 0.0
H2511 H 0.67317 0.75605 0.57493 0.0
H2512 H 0.69005 0.80155 0.5679 0.0
C2513 C 0.6879 0.82617 0.61475 0.0
C2514 C 0.68028 0.78811 0.60515 0.0
C2515 C 0.68511 0.83631 0.62462 0.0
C2516 C 0.68576 0.75015 0.55794 0.0
C2517 C 0.68233 0.75943 0.56843 0.0
C2518 C 0.6875 0.79762 0.57829 0.0
C2519 C 0.6787 0.8131 0.61325 0.0
C2520 C 0.68128 0.80267 0.60223 0.0
C2521 C 0.69047 0.77301 0.57031 0.0
C2522 C 0.68683 0.7831 0.58124 0.0
H2523 H 0.65473 0.81813 0.63853 0.0
H2524 H 0.65954 0.80032 0.62117 0.0
H2525 H 0.68533 0.81838 0.58598 0.0
H2526 H 0.71448 0.77147 0.54447 0.0
H2527 H 0.70883 0.7873 0.56285 0.0
C2528 C 0.6957 0.82876 0.39525 0.0
C2529 C 0.70593 0.83507 0.38592 0.0
C2530 C 0.70036 0.82119 0.40681 0.0
C2531 C 0.72996 0.80142 0.4197 0.0
H2532 H 0.71419 0.8067 0.45619 0.0
C2533 C 0.74773 0.77125 0.46911 0.0
C2534 C 0.73631 0.76576 0.47766 0.0
C2535 C 0.74515 0.78081 0.45841 0.0
C2536 C 0.71861 0.80501 0.44605 0.0
H2537 H 0.72898 0.83817 0.38108 0.0
H2538 H 0.73718 0.82482 0.4013 0.0
H2539 H 0.70737 0.82107 0.43638 0.0
H2540 H 0.71328 0.76616 0.48179 0.0
H2541 H 0.70876 0.78253 0.4631 0.0
H2542 H 0.74091 0.78511 0.42925 0.0
C2543 C 0.72556 0.8258 0.39971 0.0
C2544 C 0.71471 0.81326 0.43471 0.0
C2545 C 0.7209 0.83347 0.3882 0.0
C2546 C 0.72235 0.7702 0.47544 0.0
C2547 C 0.71978 0.77969 0.46476 0.0
C2548 C 0.7338 0.7931 0.43103 0.0
C2549 C 0.71535 0.81963 0.40917 0.0
C2550 C 0.72019 0.81143 0.42137 0.0
C2551 C 0.7311 0.78506 0.45605 0.0
C2552 C 0.728 0.79466 0.44429 0.0
H2553 H 0.68408 0.82971 0.39358 0.0
H2554 H 0.6922 0.81636 0.41379 0.0
H2555 H 0.73426 0.7997 0.4095 0.0
H2556 H 0.75863 0.76807 0.47058 0.0
H2557 H 0.75417 0.78487 0.452 0.0
C2558 C 0.69611 0.19742 0.39771 0.0
C2559 C 0.69301 0.20808 0.38826 0.0
C2560 C 0.70251 0.20092 0.41123 0.0
C2561 C 0.7082 0.23019 0.43785 0.0
H2562 H 0.73825 0.20922 0.4542 0.0
C2563 C 0.74206 0.24888 0.48919 0.0
C2564 C 0.74495 0.23857 0.49913 0.0
C2565 C 0.73581 0.24492 0.47574 0.0
C2566 C 0.72975 0.21508 0.44986 0.0
H2567 H 0.69455 0.23083 0.38558 0.0
H2568 H 0.70572 0.23695 0.40909 0.0
H2569 H 0.72727 0.20283 0.43064 0.0
H2570 H 0.74354 0.21595 0.50257 0.0
H2571 H 0.73262 0.20902 0.47908 0.0
H2572 H 0.71068 0.24246 0.45703 0.0
C2573 C 0.70296 0.22585 0.40616 0.0
C2574 C 0.72345 0.21142 0.43634 0.0
C2575 C 0.69656 0.22234 0.39265 0.0
C2576 C 0.74159 0.22417 0.49517 0.0
C2577 C 0.73534 0.2202 0.48168 0.0
C2578 C 0.7145 0.23386 0.45135 0.0
C2579 C 0.70598 0.21519 0.41566 0.0
C2580 C 0.71262 0.21896 0.43013 0.0
C2581 C 0.73229 0.23053 0.47182 0.0
C2582 C 0.72541 0.2264 0.45752 0.0
H2583 H 0.69334 0.18632 0.39477 0.0
H2584 H 0.70447 0.19243 0.41832 0.0
H2585 H 0.69969 0.23606 0.43354 0.0
H2586 H 0.7448 0.26007 0.4917 0.0
H2587 H 0.73391 0.25317 0.46834 0.0
C2588 C 0.30845 0.16929 0.42505 0.0
C2589 C 0.31301 0.1784 0.41408 0.0
C2590 C 0.30153 0.1743 0.43646 0.0
C2591 C 0.27826 0.20116 0.44435 0.0
H2592 H 0.28407 0.18956 0.48309 0.0
C2593 C 0.2464 0.22141 0.48942 0.0
C2594 C 0.24194 0.21193 0.50014 0.0
C2595 C 0.25557 0.21767 0.47914 0.0
C2596 C 0.28219 0.19275 0.47229 0.0
H2597 H 0.31464 0.20001 0.40673 0.0
H2598 H 0.30253 0.20885 0.42676 0.0
H2599 H 0.30044 0.18309 0.46536 0.0
H2600 H 0.24336 0.19086 0.50819 0.0
H2601 H 0.25899 0.18413 0.48997 0.0
H2602 H 0.25981 0.21051 0.45111 0.0
C2603 C 0.30423 0.1978 0.42646 0.0
C2604 C 0.29163 0.18912 0.46216 0.0
C2605 C 0.31128 0.1928 0.41509 0.0
C2606 C 0.2465 0.1984 0.50006 0.0
C2607 C 0.25565 0.19462 0.48973 0.0
C2608 C 0.26877 0.20472 0.45444 0.0
C2609 C 0.29895 0.18851 0.43706 0.0
C2610 C 0.28972 0.19324 0.44808 0.0
C2611 C 0.26044 0.20428 0.47924 0.0
C2612 C 0.27057 0.2005 0.46852 0.0
H2613 H 0.30974 0.15814 0.42453 0.0
H2614 H 0.29752 0.16687 0.44442 0.0
H2615 H 0.27632 0.20425 0.43352 0.0
H2616 H 0.24292 0.23183 0.48901 0.0
H2617 H 0.25911 0.22541 0.4713 0.0
C2618 C 0.29837 0.86618 0.40435 0.0
C2619 C 0.30287 0.85795 0.3934 0.0
C2620 C 0.29274 0.85975 0.41655 0.0
C2621 C 0.29341 0.82674 0.43682 0.0
H2622 H 0.26046 0.83836 0.45589 0.0
C2623 C 0.26712 0.79225 0.47961 0.0
C2624 C 0.26475 0.79878 0.49245 0.0
C2625 C 0.27007 0.80027 0.46762 0.0
C2626 C 0.26976 0.8351 0.45074 0.0
H2627 H 0.30419 0.83643 0.38643 0.0
H2628 H 0.29439 0.82527 0.40753 0.0
H2629 H 0.26907 0.85085 0.4347 0.0
H2630 H 0.26271 0.81881 0.50263 0.0
H2631 H 0.26804 0.83307 0.48146 0.0
H2632 H 0.29418 0.81104 0.45268 0.0
C2633 C 0.29555 0.83673 0.40691 0.0
C2634 C 0.2747 0.84225 0.43861 0.0
C2635 C 0.30117 0.84313 0.39477 0.0
C2636 C 0.26442 0.81351 0.49283 0.0
C2637 C 0.26751 0.82164 0.48073 0.0
C2638 C 0.28849 0.81964 0.44884 0.0
C2639 C 0.29148 0.84494 0.41808 0.0
C2640 C 0.28645 0.83798 0.43137 0.0
C2641 C 0.27092 0.81512 0.46814 0.0
C2642 C 0.27644 0.82352 0.45583 0.0
H2643 H 0.2996 0.87763 0.40368 0.0
H2644 H 0.2898 0.86642 0.42497 0.0
H2645 H 0.30276 0.82341 0.43181 0.0
H2646 H 0.26726 0.78089 0.47895 0.0
H2647 H 0.2722 0.79485 0.45802 0.0
C2648 C 0.65109 0.2195 0.73421 0.0
C2649 C 0.64956 0.21895 0.71937 0.0
C2650 C 0.64077 0.22521 0.74213 0.0
C2651 C 0.61158 0.24877 0.73953 0.0
H2652 H 0.59905 0.23032 0.77396 0.0
C2653 C 0.56349 0.26551 0.7703 0.0
C2654 C 0.56501 0.26569 0.78514 0.0
C2655 C 0.57368 0.25978 0.76221 0.0
C2656 C 0.60254 0.23572 0.76447 0.0
H2657 H 0.63574 0.22389 0.7013 0.0
H2658 H 0.6178 0.23388 0.71509 0.0
H2659 H 0.61702 0.22053 0.76008 0.0
H2660 H 0.57871 0.26009 0.80302 0.0
H2661 H 0.59644 0.25018 0.78898 0.0
H2662 H 0.59714 0.26399 0.74394 0.0
C2663 C 0.62712 0.23006 0.72061 0.0
C2664 C 0.61287 0.23009 0.75649 0.0
C2665 C 0.63744 0.22434 0.71268 0.0
C2666 C 0.57701 0.25996 0.79165 0.0
C2667 C 0.58721 0.25425 0.78357 0.0
C2668 C 0.60127 0.25442 0.74752 0.0
C2669 C 0.62862 0.23055 0.73544 0.0
C2670 C 0.61755 0.23654 0.74392 0.0
C2671 C 0.58569 0.25407 0.76873 0.0
C2672 C 0.59661 0.24799 0.76012 0.0
H2673 H 0.6604 0.21568 0.73973 0.0
H2674 H 0.64243 0.22561 0.75351 0.0
H2675 H 0.61507 0.25415 0.73002 0.0
H2676 H 0.55429 0.26962 0.7649 0.0
H2677 H 0.572 0.25963 0.75083 0.0
C2678 C 0.34588 0.19391 0.72406 0.0
C2679 C 0.35999 0.19816 0.71918 0.0
C2680 C 0.34302 0.18146 0.73174 0.0
C2681 C 0.35628 0.14718 0.73848 0.0
H2682 H 0.3338 0.1473 0.77195 0.0
C2683 C 0.3472 0.09826 0.77428 0.0
C2684 C 0.33298 0.0948 0.77923 0.0
C2685 C 0.35116 0.11118 0.76763 0.0
C2686 C 0.33997 0.14703 0.76255 0.0
H2687 H 0.3821 0.19253 0.71829 0.0
H2688 H 0.37712 0.1708 0.73175 0.0
H2689 H 0.33914 0.16907 0.7587 0.0
H2690 H 0.312 0.10256 0.78155 0.0
H2691 H 0.31872 0.12479 0.76965 0.0
H2692 H 0.3569 0.12511 0.74215 0.0
C2693 C 0.36827 0.1771 0.72962 0.0
C2694 C 0.34303 0.15952 0.75496 0.0
C2695 C 0.37115 0.1896 0.72202 0.0
C2696 C 0.32296 0.10473 0.77767 0.0
C2697 C 0.32689 0.11761 0.771 0.0
C2698 C 0.35315 0.13467 0.74601 0.0
C2699 C 0.35419 0.17293 0.73462 0.0
C2700 C 0.35116 0.15971 0.74281 0.0
C2701 C 0.341 0.12095 0.76577 0.0
C2702 C 0.34488 0.13442 0.75811 0.0
H2703 H 0.33709 0.20034 0.72212 0.0
H2704 H 0.33203 0.17845 0.73533 0.0
H2705 H 0.36243 0.14695 0.72906 0.0
H2706 H 0.35518 0.09086 0.77522 0.0
H2707 H 0.36219 0.1135 0.76391 0.0
C2708 C 0.38965 0.85993 0.70654 0.0
C2709 C 0.37974 0.86731 0.71351 0.0
C2710 C 0.40167 0.85523 0.71392 0.0
C2711 C 0.41703 0.84933 0.75057 0.0
H2712 H 0.45266 0.84684 0.7309 0.0
C2713 C 0.47368 0.83951 0.77746 0.0
C2714 C 0.47964 0.82803 0.77168 0.0
C2715 C 0.46132 0.84442 0.77081 0.0
C2716 C 0.44275 0.84745 0.7365 0.0
H2717 H 0.37492 0.87538 0.73398 0.0
H2718 H 0.39631 0.86806 0.7466 0.0
H2719 H 0.43177 0.8556 0.71858 0.0
H2720 H 0.47755 0.81286 0.75433 0.0
H2721 H 0.45624 0.82169 0.74249 0.0
H2722 H 0.42849 0.84167 0.76867 0.0
C2723 C 0.39456 0.86548 0.73546 0.0
C2724 C 0.43068 0.85237 0.72942 0.0
C2725 C 0.38235 0.86993 0.72812 0.0
C2726 C 0.47309 0.82163 0.75908 0.0
C2727 C 0.46097 0.82673 0.75227 0.0
C2728 C 0.42925 0.8447 0.75773 0.0
C2729 C 0.40443 0.85803 0.72848 0.0
C2730 C 0.41753 0.85322 0.73627 0.0
C2731 C 0.45495 0.83815 0.75808 0.0
C2732 C 0.44217 0.84358 0.75072 0.0
H2733 H 0.38831 0.85788 0.69528 0.0
H2734 H 0.40873 0.8493 0.70812 0.0
H2735 H 0.4071 0.84956 0.75621 0.0
H2736 H 0.4785 0.84459 0.78719 0.0
H2737 H 0.45691 0.85327 0.77548 0.0
C2738 C 0.68611 0.88145 0.69598 0.0
C2739 C 0.67088 0.87776 0.6929 0.0
C2740 C 0.69156 0.89432 0.70281 0.0
C2741 C 0.68018 0.92234 0.72537 0.0
H2742 H 0.71618 0.94436 0.71378 0.0
C2743 C 0.70068 0.97877 0.74745 0.0
C2744 C 0.71591 0.98218 0.75074 0.0
C2745 C 0.69511 0.96616 0.74021 0.0
C2746 C 0.7062 0.93826 0.71725 0.0
H2747 H 0.64948 0.88489 0.69429 0.0
H2748 H 0.65897 0.90732 0.70618 0.0
H2749 H 0.70665 0.92216 0.70145 0.0
H2750 H 0.73717 0.97477 0.74919 0.0
H2751 H 0.72748 0.95284 0.7366 0.0
H2752 H 0.67975 0.93842 0.74119 0.0
C2753 C 0.66669 0.90016 0.70354 0.0
C2754 C 0.70073 0.92554 0.71018 0.0
C2755 C 0.66124 0.8873 0.69671 0.0
C2756 C 0.72542 0.97265 0.74662 0.0
C2757 C 0.71986 0.96004 0.73939 0.0
C2758 C 0.68565 0.93506 0.73244 0.0
C2759 C 0.6819 0.90381 0.70672 0.0
C2760 C 0.68767 0.91741 0.71417 0.0
C2761 C 0.70464 0.95664 0.7361 0.0
C2762 C 0.69874 0.94317 0.72848 0.0
H2763 H 0.69382 0.87426 0.69337 0.0
H2764 H 0.70332 0.8967 0.70528 0.0
H2765 H 0.67022 0.91623 0.72887 0.0
H2766 H 0.69306 0.98595 0.75028 0.0
H2767 H 0.68335 0.96397 0.73767 0.0
C2768 C 0.64562 0.86317 0.33417 0.0
C2769 C 0.64966 0.86193 0.34857 0.0
C2770 C 0.63135 0.85791 0.32886 0.0
C2771 C 0.59983 0.83154 0.33727 0.0
H2772 H 0.57779 0.85063 0.30904 0.0
C2773 C 0.53945 0.81103 0.32225 0.0
C2774 C 0.53515 0.81001 0.30781 0.0
C2775 C 0.55299 0.8186 0.32688 0.0
C2776 C 0.58388 0.84513 0.31684 0.0
H2777 H 0.64168 0.85499 0.3688 0.0
H2778 H 0.61686 0.84593 0.35961 0.0
H2779 H 0.60238 0.86162 0.31778 0.0
H2780 H 0.54141 0.81669 0.28693 0.0
H2781 H 0.56522 0.82988 0.29504 0.0
H2782 H 0.58152 0.81504 0.33635 0.0
C2783 C 0.62478 0.85061 0.35233 0.0
C2784 C 0.59795 0.85142 0.32183 0.0
C2785 C 0.639 0.85582 0.35761 0.0
C2786 C 0.54441 0.81728 0.29813 0.0
C2787 C 0.55803 0.82486 0.30278 0.0
C2788 C 0.58584 0.82529 0.33231 0.0
C2789 C 0.62084 0.85134 0.33786 0.0
C2790 C 0.60602 0.84473 0.33221 0.0
C2791 C 0.56261 0.82531 0.31718 0.0
C2792 C 0.57762 0.83205 0.32214 0.0
H2793 H 0.65363 0.86777 0.32693 0.0
H2794 H 0.6287 0.85856 0.31765 0.0
H2795 H 0.60589 0.82592 0.345 0.0
H2796 H 0.53251 0.8057 0.33001 0.0
H2797 H 0.55602 0.81902 0.33807 0.0
C2798 C 0.70832 0.15776 0.34176 0.0
C2799 C 0.70324 0.16664 0.33138 0.0
C2800 C 0.71373 0.14527 0.33795 0.0
C2801 C 0.7152 0.11975 0.30815 0.0
H2802 H 0.75011 0.11132 0.32956 0.0
C2803 C 0.75152 0.0765 0.29198 0.0
C2804 C 0.75752 0.06906 0.30312 0.0
C2805 C 0.74342 0.08767 0.29483 0.0
C2806 C 0.74025 0.11339 0.32355 0.0
H2807 H 0.69982 0.16942 0.30887 0.0
H2808 H 0.70942 0.14769 0.30217 0.0
H2809 H 0.7389 0.13205 0.3358 0.0
H2810 H 0.7588 0.06675 0.32585 0.0
H2811 H 0.74457 0.0858 0.33073 0.0
H2812 H 0.71678 0.10104 0.29579 0.0
C2813 C 0.70897 0.1502 0.31327 0.0
C2814 C 0.73379 0.1253 0.32717 0.0
C2815 C 0.70353 0.16269 0.3171 0.0
C2816 C 0.75451 0.0724 0.31703 0.0
C2817 C 0.74642 0.08341 0.31984 0.0
C2818 C 0.72172 0.10778 0.3045 0.0
C2819 C 0.71433 0.14141 0.32364 0.0
C2820 C 0.72111 0.12862 0.31961 0.0
C2821 C 0.74118 0.09152 0.30885 0.0
C2822 C 0.73426 0.10438 0.31226 0.0
H2823 H 0.7083 0.16062 0.35283 0.0
H2824 H 0.71754 0.13868 0.34624 0.0
H2825 H 0.7054 0.12193 0.30213 0.0
H2826 H 0.75372 0.0742 0.28116 0.0
H2827 H 0.73953 0.0937 0.2861 0.0
C2828 C 0.37623 0.18033 0.35804 0.0
C2829 C 0.37238 0.18307 0.37182 0.0
C2830 C 0.38766 0.18907 0.35197 0.0
C2831 C 0.42091 0.21404 0.36207 0.0
H2832 H 0.4188 0.22536 0.32291 0.0
C2833 C 0.46534 0.25514 0.34094 0.0
C2834 C 0.47088 0.25228 0.32786 0.0
C2835 C 0.45259 0.24715 0.3454 0.0
C2836 C 0.4196 0.22217 0.33382 0.0
H2837 H 0.37669 0.19747 0.38976 0.0
H2838 H 0.39666 0.21283 0.37921 0.0
H2839 H 0.39781 0.21052 0.3325 0.0
H2840 H 0.46706 0.23919 0.30891 0.0
H2841 H 0.44468 0.22501 0.31678 0.0
H2842 H 0.44265 0.22552 0.36345 0.0
C2843 C 0.39114 0.20373 0.3732 0.0
C2844 C 0.40759 0.21368 0.33931 0.0
C2845 C 0.37972 0.195 0.37923 0.0
C2846 C 0.463 0.24163 0.31902 0.0
C2847 C 0.45021 0.23354 0.32354 0.0
C2848 C 0.43288 0.22247 0.3566 0.0
C2849 C 0.39538 0.20076 0.35957 0.0
C2850 C 0.40809 0.20963 0.35354 0.0
C2851 C 0.44507 0.23602 0.33693 0.0
C2852 C 0.43233 0.22675 0.34245 0.0
H2853 H 0.37053 0.17129 0.35206 0.0
H2854 H 0.39069 0.18647 0.34149 0.0
H2855 H 0.4218 0.21083 0.37297 0.0
H2856 H 0.47097 0.26351 0.34781 0.0
H2857 H 0.44871 0.24961 0.3556 0.0
C2858 C 0.29863 0.90498 0.36275 0.0
C2859 C 0.30387 0.89436 0.35481 0.0
C2860 C 0.29271 0.91619 0.35608 0.0
C2861 C 0.27635 0.92665 0.32167 0.0
H2862 H 0.2822 0.96397 0.33943 0.0
C2863 C 0.25023 0.97453 0.29799 0.0
C2864 C 0.24232 0.98116 0.3078 0.0
C2865 C 0.25985 0.96493 0.30257 0.0
C2866 C 0.28048 0.95361 0.33432 0.0
H2867 H 0.30682 0.88723 0.33349 0.0
H2868 H 0.29689 0.90694 0.32191 0.0
H2869 H 0.2947 0.9451 0.34968 0.0
H2870 H 0.23881 0.98351 0.33005 0.0
H2871 H 0.25565 0.96718 0.33798 0.0
H2872 H 0.26199 0.93524 0.30638 0.0
C2873 C 0.29719 0.90653 0.33331 0.0
C2874 C 0.28757 0.94275 0.34025 0.0
C2875 C 0.30307 0.89529 0.33999 0.0
C2876 C 0.24473 0.97855 0.32223 0.0
C2877 C 0.25446 0.96923 0.32679 0.0
C2878 C 0.26932 0.93757 0.31568 0.0
C2879 C 0.29191 0.91714 0.34126 0.0
C2880 C 0.28534 0.92902 0.33421 0.0
C2881 C 0.26192 0.96207 0.31704 0.0
C2882 C 0.27104 0.95109 0.32213 0.0
H2883 H 0.2992 0.90474 0.37417 0.0
H2884 H 0.28856 0.924 0.36258 0.0
H2885 H 0.27424 0.91621 0.31677 0.0
H2886 H 0.2485 0.97626 0.28679 0.0
H2887 H 0.2655 0.95961 0.2948 0.0
C2888 C 0.6922 0.15051 0.70668 0.0
C2889 C 0.68337 0.1579 0.71493 0.0
C2890 C 0.69919 0.13948 0.71245 0.0
C2891 C 0.71085 0.12401 0.74643 0.0
H2892 H 0.70953 0.08962 0.72394 0.0
C2893 C 0.72592 0.07185 0.77054 0.0
C2894 C 0.73369 0.06322 0.76243 0.0
C2895 C 0.72039 0.08363 0.76463 0.0
C2896 C 0.7102 0.09919 0.73031 0.0
H2897 H 0.67545 0.16004 0.7358 0.0
H2898 H 0.68761 0.14075 0.74594 0.0
H2899 H 0.69918 0.10991 0.714 0.0
H2900 H 0.74173 0.0603 0.74168 0.0
H2901 H 0.73221 0.08093 0.73139 0.0
H2902 H 0.72182 0.11329 0.76276 0.0
C2903 C 0.68916 0.14343 0.73501 0.0
C2904 C 0.70425 0.11086 0.7246 0.0
C2905 C 0.68214 0.15444 0.72921 0.0
C2906 C 0.73576 0.06667 0.74822 0.0
C2907 C 0.73022 0.07848 0.74231 0.0
C2908 C 0.71683 0.11235 0.75213 0.0
C2909 C 0.69762 0.13566 0.72665 0.0
C2910 C 0.70441 0.1234 0.73261 0.0
C2911 C 0.72248 0.08715 0.75044 0.0
C2912 C 0.7165 0.09974 0.74419 0.0
H2913 H 0.69346 0.15308 0.69568 0.0
H2914 H 0.70582 0.13393 0.70577 0.0
H2915 H 0.71139 0.13355 0.75284 0.0
H2916 H 0.72407 0.06952 0.7815 0.0
H2917 H 0.71429 0.08988 0.77118 0.0
C2918 C 0.70355 0.90648 0.36268 0.0
C2919 C 0.69566 0.89765 0.35214 0.0
C2920 C 0.71206 0.91912 0.35915 0.0
C2921 C 0.71817 0.94503 0.33032 0.0
H2922 H 0.75633 0.95496 0.35022 0.0
C2923 C 0.76201 0.98881 0.31123 0.0
C2924 C 0.76922 0.99851 0.32143 0.0
C2925 C 0.75302 0.97664 0.31523 0.0
C2926 C 0.74565 0.9524 0.34467 0.0
H2927 H 0.69035 0.89518 0.32967 0.0
H2928 H 0.70541 0.91718 0.32342 0.0
H2929 H 0.74039 0.9336 0.35659 0.0
H2930 H 0.77277 1.00279 0.34393 0.0
H2931 H 0.75721 0.98138 0.35093 0.0
H2932 H 0.7236 0.96374 0.31824 0.0
C2933 C 0.70483 0.91447 0.33446 0.0
C2934 C 0.73648 0.94018 0.34833 0.0
C2935 C 0.69621 0.90186 0.33801 0.0
C2936 C 0.76751 0.99552 0.33579 0.0
C2937 C 0.75857 0.98326 0.3398 0.0
C2938 C 0.72739 0.9572 0.3266 0.0
C2939 C 0.71298 0.92319 0.34498 0.0
C2940 C 0.72263 0.93632 0.34119 0.0
C2941 C 0.7511 0.97379 0.32955 0.0
C2942 C 0.74124 0.96099 0.33371 0.0
H2943 H 0.70313 0.90361 0.37369 0.0
H2944 H 0.71792 0.92572 0.36755 0.0
H2945 H 0.70749 0.94253 0.32475 0.0
H2946 H 0.76332 0.99056 0.30009 0.0
H2947 H 0.74765 0.96939 0.3071 0.0
C2948 C 0.65642 0.23081 0.35115 0.0
C2949 C 0.65586 0.21607 0.34899 0.0
C2950 C 0.64497 0.238 0.34581 0.0
C2951 C 0.61382 0.23458 0.31887 0.0
H2952 H 0.59777 0.26173 0.34228 0.0
C2953 C 0.55575 0.2488 0.30784 0.0
C2954 C 0.55292 0.26287 0.30952 0.0
C2955 C 0.56948 0.2449 0.31185 0.0
C2956 C 0.60229 0.25437 0.33552 0.0
H2957 H 0.64254 0.19737 0.33971 0.0
H2958 H 0.62275 0.20987 0.33033 0.0
H2959 H 0.61952 0.25132 0.35096 0.0
H2960 H 0.56248 0.28394 0.31671 0.0
H2961 H 0.58673 0.27704 0.3239 0.0
H2962 H 0.5965 0.23737 0.30356 0.0
C2963 C 0.63216 0.21593 0.33596 0.0
C2964 C 0.61474 0.24838 0.3405 0.0
C2965 C 0.64355 0.20875 0.34135 0.0
C2966 C 0.56432 0.27302 0.31526 0.0
C2967 C 0.57815 0.26906 0.31943 0.0
C2968 C 0.60144 0.24056 0.31391 0.0
C2969 C 0.63272 0.23065 0.3381 0.0
C2970 C 0.62042 0.23813 0.33237 0.0
C2971 C 0.58087 0.25492 0.31772 0.0
C2972 C 0.59527 0.25025 0.3223 0.0
H2973 H 0.66581 0.23685 0.35683 0.0
H2974 H 0.64582 0.24935 0.34754 0.0
H2975 H 0.61811 0.227 0.31219 0.0
H2976 H 0.54729 0.24066 0.30344 0.0
H2977 H 0.57106 0.23389 0.3106 0.0
C2978 C 0.30879 0.13181 0.36865 0.0
C2979 C 0.30295 0.14336 0.37441 0.0
C2980 C 0.2994 0.12013 0.3629 0.0
C2981 C 0.26126 0.10203 0.3641 0.0
H2982 H 0.26974 0.08423 0.32914 0.0
C2983 C 0.22892 0.04904 0.34223 0.0
C2984 C 0.22582 0.04811 0.32757 0.0
C2985 C 0.23796 0.06082 0.34824 0.0
C2986 C 0.26717 0.08914 0.33887 0.0
H2987 H 0.28273 0.15203 0.37809 0.0
H2988 H 0.26638 0.1317 0.36806 0.0
H2989 H 0.28648 0.10455 0.33874 0.0
H2990 H 0.22897 0.05915 0.30784 0.0
H2991 H 0.24465 0.07967 0.3183 0.0
H2992 H 0.24182 0.08676 0.3641 0.0
C2993 C 0.27819 0.13151 0.36827 0.0
C2994 C 0.27685 0.10068 0.34444 0.0
C2995 C 0.28755 0.14315 0.37399 0.0
C2996 C 0.23143 0.05943 0.31913 0.0
C2997 C 0.24043 0.07117 0.32512 0.0
C2998 C 0.2516 0.09047 0.35855 0.0
C2999 C 0.28399 0.1198 0.3628 0.0
C3000 C 0.27395 0.10731 0.35707 0.0
C3001 C 0.24404 0.07188 0.33969 0.0
C3002 C 0.2544 0.08397 0.34582 0.0
H3003 H 0.32061 0.13163 0.36895 0.0
H3004 H 0.30419 0.11122 0.35885 0.0
H3005 H 0.25883 0.10682 0.37395 0.0
H3006 H 0.22485 0.04043 0.34897 0.0
H3007 H 0.24061 0.06104 0.35951 0.0
C3008 C 0.36077 0.84986 0.33321 0.0
C3009 C 0.35313 0.84524 0.34513 0.0
C3010 C 0.37391 0.84469 0.33025 0.0
C3011 C 0.39415 0.81415 0.3377 0.0
H3012 H 0.42653 0.83773 0.32122 0.0
C3013 C 0.44899 0.79304 0.32743 0.0
C3014 C 0.45542 0.7966 0.31458 0.0
C3015 C 0.43716 0.7996 0.33179 0.0
C3016 C 0.41753 0.83096 0.3257 0.0
H3017 H 0.35357 0.83226 0.3637 0.0
H3018 H 0.37663 0.82331 0.35868 0.0
H3019 H 0.40492 0.84819 0.32789 0.0
H3020 H 0.45437 0.81002 0.29628 0.0
H3021 H 0.43379 0.82145 0.30387 0.0
H3022 H 0.40667 0.79691 0.33543 0.0
C3023 C 0.37233 0.83065 0.3514 0.0
C3024 C 0.40513 0.83697 0.32954 0.0
C3025 C 0.35918 0.83583 0.35435 0.0
C3026 C 0.44987 0.80712 0.30633 0.0
C3027 C 0.43803 0.81369 0.31069 0.0
C3028 C 0.40654 0.80816 0.33389 0.0
C3029 C 0.37976 0.83485 0.33919 0.0
C3030 C 0.39324 0.82863 0.33554 0.0
C3031 C 0.43142 0.80992 0.32342 0.0
C3032 C 0.41839 0.81646 0.32778 0.0
H3033 H 0.35638 0.8572 0.32599 0.0
H3034 H 0.37924 0.8481 0.3207 0.0
H3035 H 0.38512 0.80732 0.34205 0.0
H3036 H 0.45311 0.78518 0.3342 0.0
H3037 H 0.43255 0.79661 0.34178 0.0
C3038 C 0.3393 0.9253 0.72784 0.0
C3039 C 0.33041 0.91664 0.71783 0.0
C3040 C 0.33575 0.93869 0.73146 0.0
C3041 C 0.30422 0.95934 0.73122 0.0
H3042 H 0.33485 0.99102 0.73949 0.0
C3043 C 0.29442 0.01023 0.76153 0.0
C3044 C 0.3025 0.02323 0.75795 0.0
C3045 C 0.29685 0.99754 0.75501 0.0
C3046 C 0.32611 0.98235 0.73706 0.0
H3047 H 0.31127 0.9154 0.70324 0.0
H3048 H 0.3051 0.93883 0.70945 0.0
H3049 H 0.34148 0.96863 0.73103 0.0
H3050 H 0.31879 0.03312 0.74404 0.0
H3051 H 0.3228 0.01109 0.73254 0.0
H3052 H 0.28885 0.97312 0.73721 0.0
C3053 C 0.31463 0.93519 0.71475 0.0
C3054 C 0.32995 0.96943 0.73238 0.0
C3055 C 0.31821 0.92182 0.71112 0.0
C3056 C 0.31244 0.02331 0.74714 0.0
C3057 C 0.31484 0.01064 0.74062 0.0
C3058 C 0.30038 0.97227 0.73594 0.0
C3059 C 0.32326 0.94374 0.7251 0.0
C3060 C 0.31908 0.95771 0.72949 0.0
C3061 C 0.30739 0.99754 0.74475 0.0
C3062 C 0.31128 0.98394 0.73901 0.0
H3063 H 0.3488 0.92156 0.7331 0.0
H3064 H 0.34258 0.9449 0.73955 0.0
H3065 H 0.29556 0.95051 0.72924 0.0
H3066 H 0.28673 0.00975 0.76986 0.0
H3067 H 0.29096 0.98767 0.75853 0.0
C3068 C 0.62016 0.84093 0.68979 0.0
C3069 C 0.633 0.8345 0.68873 0.0
C3070 C 0.60737 0.83326 0.69465 0.0
C3071 C 0.59543 0.80521 0.71831 0.0
H3072 H 0.55674 0.80573 0.69977 0.0
C3073 C 0.54366 0.78312 0.7465 0.0
C3074 C 0.5322 0.79158 0.74574 0.0
C3075 C 0.55502 0.78518 0.73714 0.0
C3076 C 0.56743 0.80554 0.70515 0.0
H3077 H 0.64259 0.81508 0.69177 0.0
H3078 H 0.62025 0.80172 0.70071 0.0
H3079 H 0.57873 0.816 0.68811 0.0
H3080 H 0.52318 0.8082 0.73402 0.0
H3081 H 0.54313 0.81217 0.71816 0.0
H3082 H 0.58433 0.7957 0.73574 0.0
C3083 C 0.62008 0.81263 0.6976 0.0
C3084 C 0.58001 0.81136 0.69842 0.0
C3085 C 0.6328 0.82023 0.69247 0.0
C3086 C 0.53184 0.80149 0.73488 0.0
C3087 C 0.5433 0.80371 0.72569 0.0
C3088 C 0.58286 0.79963 0.72516 0.0
C3089 C 0.60727 0.8191 0.69876 0.0
C3090 C 0.59409 0.81148 0.70506 0.0
C3091 C 0.55531 0.79591 0.72699 0.0
C3092 C 0.56866 0.79998 0.71881 0.0
H3093 H 0.62004 0.8519 0.68687 0.0
H3094 H 0.59769 0.83852 0.69559 0.0
H3095 H 0.60617 0.8053 0.7237 0.0
H3096 H 0.54416 0.77528 0.75466 0.0
H3097 H 0.56385 0.77868 0.73822 0.0
C3098 C 0.40193 0.24946 0.70047 0.0
C3099 C 0.39288 0.24351 0.711 0.0
C3100 C 0.41517 0.25817 0.70414 0.0
C3101 C 0.43559 0.27914 0.7338 0.0
H3102 H 0.4705 0.26837 0.71755 0.0
C3103 C 0.49289 0.29896 0.75891 0.0
C3104 C 0.50058 0.28756 0.76247 0.0
C3105 C 0.48097 0.29707 0.74889 0.0
C3106 C 0.46085 0.27163 0.72207 0.0
H3107 H 0.39022 0.24248 0.73353 0.0
H3108 H 0.41333 0.25751 0.73995 0.0
H3109 H 0.4461 0.25845 0.70769 0.0
H3110 H 0.50283 0.26572 0.75745 0.0
H3111 H 0.48218 0.26241 0.74009 0.0
H3112 H 0.45027 0.29157 0.74876 0.0
C3113 C 0.41021 0.25555 0.72887 0.0
C3114 C 0.44688 0.26603 0.71636 0.0
C3115 C 0.39707 0.24679 0.72521 0.0
C3116 C 0.49701 0.27466 0.755 0.0
C3117 C 0.48523 0.2728 0.74494 0.0
C3118 C 0.44955 0.28476 0.73949 0.0
C3119 C 0.4195 0.2612 0.71839 0.0
C3120 C 0.43411 0.26928 0.72255 0.0
C3121 C 0.4767 0.28379 0.74219 0.0
C3122 C 0.46232 0.28061 0.73404 0.0
H3123 H 0.39897 0.24707 0.68943 0.0
H3124 H 0.42209 0.2624 0.69585 0.0
H3125 H 0.42594 0.28201 0.73864 0.0
H3126 H 0.49543 0.30904 0.76449 0.0
H3127 H 0.47469 0.30577 0.74687 0.0
C3128 C 0.66905 0.7295 0.17576 0.0
C3129 C 0.66924 0.71481 0.17741 0.0
C3130 C 0.67395 0.73632 0.16353 0.0
C3131 C 0.69821 0.73402 0.13437 0.0
H3132 H 0.67381 0.75896 0.11511 0.0
C3133 C 0.71372 0.75916 0.08083 0.0
C3134 C 0.71012 0.77277 0.07792 0.0
C3135 C 0.70865 0.75188 0.09278 0.0
C3136 C 0.68093 0.75224 0.12044 0.0
H3137 H 0.67485 0.69589 0.16718 0.0
H3138 H 0.68387 0.70796 0.14611 0.0
H3139 H 0.66542 0.7469 0.13635 0.0
H3140 H 0.69864 0.78956 0.08547 0.0
H3141 H 0.69021 0.77719 0.10653 0.0
H3142 H 0.71395 0.73963 0.11883 0.0
C3143 C 0.67984 0.71412 0.15435 0.0
C3144 C 0.67604 0.74525 0.1326 0.0
C3145 C 0.67472 0.70723 0.16649 0.0
C3146 C 0.70142 0.779 0.08731 0.0
C3147 C 0.69653 0.77183 0.09938 0.0
C3148 C 0.70322 0.74118 0.12233 0.0
C3149 C 0.67942 0.72873 0.15269 0.0
C3150 C 0.68461 0.73605 0.1397 0.0
C3151 C 0.7 0.75812 0.10229 0.0
C3152 C 0.69465 0.75041 0.11515 0.0
H3153 H 0.66528 0.73583 0.184 0.0
H3154 H 0.67367 0.74763 0.16265 0.0
H3155 H 0.70513 0.72711 0.1397 0.0
H3156 H 0.72025 0.75401 0.0737 0.0
H3157 H 0.71134 0.74126 0.09441 0.0
C3158 C 0.31172 0.70929 0.13675 0.0
C3159 C 0.31816 0.71986 0.14641 0.0
C3160 C 0.30545 0.71296 0.12378 0.0
C3161 C 0.28923 0.74174 0.10598 0.0
H3162 H 0.29589 0.72142 0.07184 0.0
C3163 C 0.26426 0.75601 0.05164 0.0
C3164 C 0.25799 0.7445 0.04295 0.0
C3165 C 0.27307 0.75381 0.06371 0.0
C3166 C 0.29382 0.72713 0.08128 0.0
H3167 H 0.32325 0.74252 0.15015 0.0
H3168 H 0.31216 0.74898 0.12748 0.0
H3169 H 0.30816 0.7159 0.09415 0.0
H3170 H 0.2564 0.7217 0.03992 0.0
H3171 H 0.27148 0.71786 0.06099 0.0
H3172 H 0.2746 0.75272 0.09323 0.0
C3173 C 0.31189 0.73786 0.12996 0.0
C3174 C 0.30087 0.72397 0.09406 0.0
C3175 C 0.31825 0.73418 0.1429 0.0
C3176 C 0.26107 0.73082 0.04636 0.0
C3177 C 0.26982 0.72862 0.05843 0.0
C3178 C 0.28211 0.74485 0.09321 0.0
C3179 C 0.30544 0.72728 0.12025 0.0
C3180 C 0.29853 0.73113 0.10657 0.0
C3181 C 0.27577 0.74005 0.06736 0.0
C3182 C 0.28419 0.73747 0.08073 0.0
H3183 H 0.31155 0.69818 0.13926 0.0
H3184 H 0.30041 0.70457 0.11659 0.0
H3185 H 0.28709 0.74735 0.11547 0.0
H3186 H 0.26216 0.7667 0.04928 0.0
H3187 H 0.27767 0.76288 0.07024 0.0
C3188 C 0.34251 0.34714 0.17608 0.0
C3189 C 0.34394 0.36204 0.17716 0.0
C3190 C 0.33644 0.34001 0.1637 0.0
C3191 C 0.32807 0.34595 0.12555 0.0
H3192 H 0.30018 0.31167 0.12778 0.0
C3193 C 0.28565 0.32678 0.08062 0.0
C3194 C 0.28212 0.31221 0.07753 0.0
C3195 C 0.29527 0.33158 0.09206 0.0
C3196 C 0.30815 0.32108 0.12696 0.0
H3197 H 0.34021 0.38107 0.16587 0.0
H3198 H 0.32936 0.3687 0.1445 0.0
H3199 H 0.31259 0.32263 0.14936 0.0
H3200 H 0.28617 0.29121 0.08387 0.0
H3201 H 0.30302 0.29965 0.1042 0.0
H3202 H 0.3233 0.34465 0.10321 0.0
C3203 C 0.3331 0.36249 0.15315 0.0
C3204 C 0.31526 0.3274 0.13934 0.0
C3205 C 0.33914 0.3696 0.16551 0.0
C3206 C 0.28879 0.3025 0.08595 0.0
C3207 C 0.29831 0.30733 0.09763 0.0
C3208 C 0.32094 0.33968 0.11321 0.0
C3209 C 0.33168 0.3476 0.15204 0.0
C3210 C 0.32507 0.34011 0.13882 0.0
C3211 C 0.30153 0.32194 0.10088 0.0
C3212 C 0.31064 0.32735 0.11378 0.0
H3213 H 0.34593 0.34094 0.18488 0.0
H3214 H 0.33562 0.32856 0.16321 0.0
H3215 H 0.33583 0.35552 0.12468 0.0
H3216 H 0.28071 0.33454 0.07433 0.0
H3217 H 0.29733 0.34287 0.09432 0.0
C3218 C 0.68055 0.33687 0.14018 0.0
C3219 C 0.66751 0.33508 0.14744 0.0
C3220 C 0.6836 0.32633 0.13088 0.0
C3221 C 0.66566 0.29578 0.10939 0.0
H3222 H 0.70588 0.28777 0.10705 0.0
C3223 C 0.68242 0.25348 0.07099 0.0
C3224 C 0.6949 0.25813 0.06337 0.0
C3225 C 0.67865 0.26164 0.08225 0.0
C3226 C 0.6946 0.28992 0.10756 0.0
H3227 H 0.64775 0.32077 0.15131 0.0
H3228 H 0.65306 0.30221 0.13504 0.0
H3229 H 0.70017 0.30434 0.12501 0.0
H3230 H 0.71285 0.27533 0.06144 0.0
H3231 H 0.70642 0.28927 0.08102 0.0
H3232 H 0.66017 0.28145 0.09177 0.0
C3233 C 0.66077 0.31188 0.13627 0.0
C3234 C 0.69134 0.29943 0.11782 0.0
C3235 C 0.65773 0.32244 0.14556 0.0
C3236 C 0.70341 0.27115 0.06723 0.0
C3237 C 0.69971 0.27921 0.07848 0.0
C3238 C 0.66892 0.28621 0.09913 0.0
C3239 C 0.67372 0.31373 0.12879 0.0
C3240 C 0.67689 0.3027 0.11867 0.0
C3241 C 0.68734 0.27455 0.08615 0.0
C3242 C 0.68349 0.28343 0.09793 0.0
H3243 H 0.68834 0.34647 0.14163 0.0
H3244 H 0.69359 0.32816 0.12517 0.0
H3245 H 0.65444 0.29815 0.10969 0.0
H3246 H 0.67568 0.24348 0.06837 0.0
H3247 H 0.66907 0.25777 0.08802 0.0
C3248 C 0.70194 0.34748 0.91363 0.0
C3249 C 0.71409 0.35724 0.91028 0.0
C3250 C 0.70301 0.33845 0.92506 0.0
C3251 C 0.7301 0.32228 0.94739 0.0
H3252 H 0.69716 0.31347 0.9713 0.0
C3253 C 0.7317 0.28382 0.99441 0.0
C3254 C 0.71901 0.27383 0.99534 0.0
C3255 C 0.73166 0.29522 0.98517 0.0
C3256 C 0.70643 0.31577 0.96467 0.0
H3257 H 0.7367 0.36566 0.91643 0.0
H3258 H 0.73863 0.34984 0.93648 0.0
H3259 H 0.69599 0.33115 0.95297 0.0
H3260 H 0.69629 0.26809 0.98743 0.0
H3261 H 0.69627 0.28779 0.97134 0.0
H3262 H 0.74042 0.30669 0.95894 0.0
C3263 C 0.72835 0.349 0.93014 0.0
C3264 C 0.70575 0.32588 0.95417 0.0
C3265 C 0.72725 0.35806 0.91872 0.0
C3266 C 0.70626 0.27559 0.987 0.0
C3267 C 0.70621 0.28696 0.97783 0.0
C3268 C 0.73078 0.31214 0.9579 0.0
C3269 C 0.71625 0.33905 0.9334 0.0
C3270 C 0.71747 0.32909 0.94525 0.0
C3271 C 0.71891 0.29688 0.97675 0.0
C3272 C 0.71884 0.30859 0.9665 0.0
H3273 H 0.69166 0.34677 0.9073 0.0
H3274 H 0.69354 0.3308 0.92719 0.0
H3275 H 0.73926 0.32441 0.9406 0.0
H3276 H 0.7417 0.28276 1.00071 0.0
H3277 H 0.74159 0.30275 0.98464 0.0
C3278 C 0.70115 0.72913 0.89795 0.0
C3279 C 0.69837 0.71448 0.895 0.0
C3280 C 0.70789 0.73425 0.91087 0.0
C3281 C 0.7147 0.72377 0.94786 0.0
H3282 H 0.73971 0.76009 0.9495 0.0
C3283 C 0.7383 0.75356 1.00044 0.0
C3284 C 0.73417 0.76725 1.00103 0.0
C3285 C 0.73639 0.7457 0.98769 0.0
C3286 C 0.73284 0.74988 0.94921 0.0
H3287 H 0.70082 0.69373 0.90335 0.0
H3288 H 0.71289 0.7027 0.92588 0.0
H3289 H 0.73198 0.74883 0.92667 0.0
H3290 H 0.72542 0.78364 0.9887 0.0
H3291 H 0.72251 0.77019 0.96665 0.0
H3292 H 0.71548 0.72506 0.97052 0.0
C3293 C 0.70964 0.71022 0.91822 0.0
C3294 C 0.7283 0.74346 0.93613 0.0
C3295 C 0.70285 0.70508 0.90523 0.0
C3296 C 0.72859 0.77307 0.98863 0.0
C3297 C 0.72702 0.76541 0.97595 0.0
C3298 C 0.71938 0.73016 0.961 0.0
C3299 C 0.71218 0.72489 0.92123 0.0
C3300 C 0.71874 0.73057 0.93523 0.0
C3301 C 0.73075 0.7516 0.97533 0.0
C3302 C 0.7281 0.7435 0.96177 0.0
H3303 H 0.69806 0.73671 0.89027 0.0
H3304 H 0.70941 0.74559 0.91284 0.0
H3305 H 0.70729 0.71388 0.94761 0.0
H3306 H 0.74259 0.74883 0.00986 0.0
H3307 H 0.73935 0.73505 0.98748 0.0
C3308 C 0.32192 0.68631 0.89682 0.0
C3309 C 0.31759 0.68412 0.88245 0.0
C3310 C 0.31149 0.68797 0.9067 0.0
C3311 C 0.27429 0.69798 0.90994 0.0
H3312 H 0.27753 0.68096 0.94678 0.0
C3313 C 0.24418 0.71526 0.95762 0.0
C3314 C 0.23867 0.70489 0.96715 0.0
C3315 C 0.25253 0.71177 0.94654 0.0
C3316 C 0.27635 0.68564 0.93649 0.0
H3317 H 0.29891 0.68208 0.86719 0.0
H3318 H 0.28066 0.68478 0.88449 0.0
H3319 H 0.29461 0.67648 0.92896 0.0
H3320 H 0.23732 0.6826 0.97226 0.0
H3321 H 0.25174 0.67644 0.95278 0.0
H3322 H 0.25598 0.70709 0.91746 0.0
C3323 C 0.29215 0.68531 0.88809 0.0
C3324 C 0.28626 0.68322 0.92633 0.0
C3325 C 0.30258 0.68362 0.8782 0.0
C3326 C 0.24133 0.69083 0.96508 0.0
C3327 C 0.24973 0.68733 0.954 0.0
C3328 C 0.26438 0.70041 0.9201 0.0
C3329 C 0.29648 0.6875 0.90246 0.0
C3330 C 0.28546 0.68949 0.913 0.0
C3331 C 0.25558 0.69781 0.94471 0.0
C3332 C 0.2654 0.6944 0.93355 0.0
H3333 H 0.33336 0.6866 0.90047 0.0
H3334 H 0.31523 0.68982 0.91767 0.0
H3335 H 0.27343 0.70304 0.89981 0.0
H3336 H 0.24215 0.72614 0.95878 0.0
H3337 H 0.25696 0.72013 0.93966 0.0
C3338 C 0.33123 0.36417 0.91492 0.0
C3339 C 0.32267 0.36888 0.90359 0.0
C3340 C 0.32467 0.35914 0.92725 0.0
C3341 C 0.29219 0.36151 0.94794 0.0
H3342 H 0.30164 0.32684 0.9652 0.0
C3343 C 0.25971 0.3361 0.99409 0.0
C3344 C 0.2673 0.32906 1.00452 0.0
C3345 C 0.26662 0.341 0.98191 0.0
C3346 C 0.29902 0.33667 0.96069 0.0
H3347 H 0.30029 0.37143 0.89633 0.0
H3348 H 0.28902 0.36305 0.91791 0.0
H3349 H 0.31355 0.33524 0.94389 0.0
H3350 H 0.28826 0.32202 0.01051 0.0
H3351 H 0.30046 0.33088 0.98952 0.0
H3352 H 0.27791 0.36318 0.9648 0.0
C3353 C 0.30084 0.36339 0.91728 0.0
C3354 C 0.30584 0.34145 0.94842 0.0
C3355 C 0.30734 0.36825 0.90491 0.0
C3356 C 0.28204 0.32722 1.00257 0.0
C3357 C 0.28901 0.33227 0.99048 0.0
C3358 C 0.2855 0.35684 0.9603 0.0
C3359 C 0.30941 0.35883 0.92862 0.0
C3360 C 0.30243 0.35388 0.94185 0.0
C3361 C 0.28138 0.33915 0.9799 0.0
C3362 C 0.28874 0.34429 0.96683 0.0
H3363 H 0.34307 0.36464 0.91441 0.0
H3364 H 0.3316 0.3558 0.93585 0.0
H3365 H 0.28949 0.37125 0.94325 0.0
H3366 H 0.24829 0.3375 0.99518 0.0
H3367 H 0.26025 0.346 0.97394 0.0
C3368 C 0.63638 0.71493 0.2313 0.0
C3369 C 0.63458 0.71065 0.21705 0.0
C3370 C 0.62483 0.71993 0.23807 0.0
C3371 C 0.58821 0.73278 0.23048 0.0
H3372 H 0.58416 0.72661 0.2705 0.0
C3373 C 0.53539 0.73923 0.25949 0.0
C3374 C 0.53741 0.74853 0.27122 0.0
C3375 C 0.54753 0.73498 0.25311 0.0
C3376 C 0.58523 0.72847 0.25934 0.0
H3377 H 0.61927 0.70788 0.19879 0.0
H3378 H 0.59885 0.71586 0.21067 0.0
H3379 H 0.60448 0.71806 0.25888 0.0
H3380 H 0.55365 0.76052 0.2856 0.0
H3381 H 0.57502 0.75266 0.27469 0.0
H3382 H 0.56847 0.74259 0.23095 0.0
C3383 C 0.6093 0.71597 0.21658 0.0
C3384 C 0.59694 0.72366 0.25264 0.0
C3385 C 0.62097 0.71127 0.20975 0.0
C3386 C 0.55183 0.75336 0.27657 0.0
C3387 C 0.564 0.74883 0.27038 0.0
C3388 C 0.57634 0.7373 0.23712 0.0
C3389 C 0.61106 0.72049 0.23084 0.0
C3390 C 0.59862 0.72573 0.23808 0.0
C3391 C 0.56194 0.73971 0.2585 0.0
C3392 C 0.57475 0.73519 0.2516 0.0
H3393 H 0.64684 0.71466 0.23712 0.0
H3394 H 0.62683 0.72355 0.24892 0.0
H3395 H 0.58922 0.73496 0.21937 0.0
H3396 H 0.52441 0.73549 0.25504 0.0
H3397 H 0.54566 0.72792 0.24399 0.0
C3398 C 0.34541 0.66427 0.18816 0.0
C3399 C 0.35212 0.6771 0.19452 0.0
C3400 C 0.34264 0.65201 0.19617 0.0
C3401 C 0.35419 0.63543 0.22907 0.0
H3402 H 0.31551 0.6131 0.22515 0.0
C3403 C 0.33541 0.59064 0.2677 0.0
C3404 C 0.32612 0.57867 0.26226 0.0
C3405 C 0.3391 0.60241 0.25921 0.0
C3406 C 0.32645 0.61906 0.22624 0.0
H3407 H 0.36097 0.68706 0.21441 0.0
H3408 H 0.35642 0.66562 0.22824 0.0
H3409 H 0.32105 0.63388 0.21057 0.0
H3410 H 0.31397 0.56936 0.2435 0.0
H3411 H 0.32063 0.58966 0.2286 0.0
H3412 H 0.35969 0.62056 0.24461 0.0
C3413 C 0.35343 0.66504 0.21703 0.0
C3414 C 0.3296 0.631 0.21789 0.0
C3415 C 0.35607 0.67732 0.20907 0.0
C3416 C 0.32092 0.57855 0.24806 0.0
C3417 C 0.32471 0.59022 0.23953 0.0
C3418 C 0.35109 0.6234 0.23733 0.0
C3419 C 0.34663 0.65227 0.21068 0.0
C3420 C 0.34347 0.63935 0.21926 0.0
C3421 C 0.3337 0.60239 0.24503 0.0
C3422 C 0.33716 0.61508 0.23607 0.0
H3423 H 0.34243 0.66363 0.17696 0.0
H3424 H 0.33751 0.64227 0.19097 0.0
H3425 H 0.36503 0.6416 0.23024 0.0
H3426 H 0.33947 0.59107 0.27864 0.0
H3427 H 0.34587 0.61165 0.26388 0.0
C3428 C 0.40431 0.35182 0.22646 0.0
C3429 C 0.40588 0.36648 0.22405 0.0
C3430 C 0.41468 0.34596 0.23519 0.0
C3431 C 0.45337 0.35289 0.24975 0.0
H3432 H 0.44034 0.32334 0.27593 0.0
C3433 C 0.49275 0.31781 0.27854 0.0
C3434 C 0.48976 0.3137 0.29242 0.0
C3435 C 0.48321 0.32554 0.2707 0.0
C3436 C 0.44419 0.33168 0.26878 0.0
H3437 H 0.41976 0.38645 0.22858 0.0
H3438 H 0.43782 0.37629 0.24389 0.0
H3439 H 0.42214 0.33402 0.26143 0.0
H3440 H 0.47483 0.3153 0.30919 0.0
H3441 H 0.4584 0.32887 0.29563 0.0
H3442 H 0.47544 0.35055 0.25717 0.0
C3443 C 0.42856 0.36929 0.23907 0.0
C3444 C 0.43374 0.33768 0.26033 0.0
C3445 C 0.41815 0.37514 0.2304 0.0
C3446 C 0.47746 0.31818 0.2985 0.0
C3447 C 0.46794 0.32587 0.29068 0.0
C3448 C 0.46385 0.34681 0.25816 0.0
C3449 C 0.42698 0.35462 0.24156 0.0
C3450 C 0.43817 0.34835 0.25068 0.0
C3451 C 0.47046 0.32932 0.27656 0.0
C3452 C 0.45939 0.33613 0.26779 0.0
H3453 H 0.39511 0.34487 0.22146 0.0
H3454 H 0.41322 0.3346 0.23669 0.0
H3455 H 0.45719 0.36098 0.24234 0.0
H3456 H 0.50207 0.31449 0.27347 0.0
H3457 H 0.48548 0.32796 0.25984 0.0
C3458 C 0.68373 0.38206 0.20986 0.0
C3459 C 0.66832 0.37843 0.20824 0.0
C3460 C 0.68994 0.39493 0.21622 0.0
C3461 C 0.68082 0.43055 0.22593 0.0
H3462 H 0.71624 0.43213 0.25051 0.0
C3463 C 0.70065 0.47661 0.26506 0.0
C3464 C 0.71579 0.48177 0.26612 0.0
C3465 C 0.69539 0.4646 0.25683 0.0
C3466 C 0.70646 0.43189 0.24352 0.0
H3467 H 0.64737 0.38559 0.21216 0.0
H3468 H 0.65817 0.40774 0.22377 0.0
H3469 H 0.70585 0.40977 0.23893 0.0
H3470 H 0.73729 0.47849 0.25924 0.0
H3471 H 0.72805 0.45726 0.24493 0.0
H3472 H 0.68123 0.4526 0.23094 0.0
C3473 C 0.66549 0.40077 0.21982 0.0
C3474 C 0.70049 0.41907 0.23687 0.0
C3475 C 0.65928 0.38794 0.21334 0.0
C3476 C 0.72556 0.47478 0.25858 0.0
C3477 C 0.7203 0.4626 0.25047 0.0
C3478 C 0.68671 0.44331 0.2327 0.0
C3479 C 0.6809 0.40448 0.22127 0.0
C3480 C 0.68752 0.41821 0.22807 0.0
C3481 C 0.70516 0.45736 0.2496 0.0
C3482 C 0.69952 0.44408 0.24164 0.0
H3483 H 0.69106 0.37491 0.20626 0.0
H3484 H 0.70184 0.39745 0.21702 0.0
H3485 H 0.67101 0.43038 0.219 0.0
H3486 H 0.69284 0.48178 0.27072 0.0
H3487 H 0.68369 0.46073 0.25646 0.0
C3488 C 0.66181 0.38646 0.85295 0.0
C3489 C 0.66438 0.38556 0.86764 0.0
C3490 C 0.64784 0.38186 0.84657 0.0
C3491 C 0.60838 0.37272 0.85427 0.0
H3492 H 0.60652 0.34893 0.82069 0.0
C3493 C 0.55768 0.33284 0.83692 0.0
C3494 C 0.55411 0.3303 0.82246 0.0
C3495 C 0.57021 0.3421 0.84144 0.0
C3496 C 0.60681 0.35578 0.8299 0.0
H3497 H 0.65414 0.37953 0.88717 0.0
H3498 H 0.62991 0.37125 0.87605 0.0
H3499 H 0.63036 0.36027 0.83049 0.0
H3500 H 0.56053 0.33606 0.80137 0.0
H3501 H 0.58247 0.35232 0.80931 0.0
H3502 H 0.58484 0.36787 0.85389 0.0
C3503 C 0.63863 0.37564 0.86945 0.0
C3504 C 0.62049 0.36228 0.83554 0.0
C3505 C 0.65259 0.38021 0.87582 0.0
C3506 C 0.56299 0.33776 0.8126 0.0
C3507 C 0.57561 0.347 0.81714 0.0
C3508 C 0.5947 0.36621 0.84864 0.0
C3509 C 0.63611 0.37629 0.85474 0.0
C3510 C 0.62147 0.37059 0.84796 0.0
C3511 C 0.57952 0.34903 0.83162 0.0
C3512 C 0.59378 0.35742 0.83656 0.0
H3513 H 0.67068 0.39042 0.84633 0.0
H3514 H 0.64624 0.38262 0.83522 0.0
H3515 H 0.60872 0.37928 0.86369 0.0
H3516 H 0.55105 0.3273 0.8448 0.0
H3517 H 0.57296 0.34331 0.85267 0.0
C3518 C 0.70529 0.66513 0.82576 0.0
C3519 C 0.70796 0.67112 0.8394 0.0
C3520 C 0.71189 0.65332 0.82187 0.0
C3521 C 0.74426 0.63543 0.83173 0.0
H3522 H 0.72477 0.60473 0.80751 0.0
C3523 C 0.77197 0.58617 0.82247 0.0
C3524 C 0.77182 0.58071 0.80864 0.0
C3525 C 0.76293 0.59624 0.82584 0.0
C3526 C 0.7304 0.6133 0.81416 0.0
H3527 H 0.71912 0.66918 0.8598 0.0
H3528 H 0.73051 0.64844 0.85315 0.0
H3529 H 0.71119 0.62397 0.81443 0.0
H3530 H 0.76147 0.58111 0.78762 0.0
H3531 H 0.7456 0.59899 0.79351 0.0
H3532 H 0.76345 0.62495 0.83144 0.0
C3533 C 0.72353 0.65298 0.84534 0.0
C3534 C 0.72262 0.62432 0.81815 0.0
C3535 C 0.71694 0.66478 0.84921 0.0
C3536 C 0.76183 0.58511 0.79836 0.0
C3537 C 0.75275 0.59534 0.80175 0.0
C3538 C 0.752 0.62448 0.82775 0.0
C3539 C 0.72133 0.64725 0.83153 0.0
C3540 C 0.72943 0.63546 0.82711 0.0
C3541 C 0.7535 0.60129 0.81547 0.0
C3542 C 0.74515 0.61317 0.81906 0.0
H3543 H 0.69842 0.66983 0.81797 0.0
H3544 H 0.71001 0.64927 0.81113 0.0
H3545 H 0.75001 0.64399 0.8383 0.0
H3546 H 0.77935 0.58286 0.83072 0.0
H3547 H 0.76351 0.60024 0.8366 0.0
C3548 C 0.39818 0.71492 0.86898 0.0
C3549 C 0.39186 0.70154 0.86372 0.0
C3550 C 0.40953 0.72281 0.86204 0.0
C3551 C 0.43785 0.72015 0.83621 0.0
H3552 H 0.43633 0.76049 0.83256 0.0
C3553 C 0.47871 0.75734 0.80368 0.0
C3554 C 0.48425 0.77043 0.81021 0.0
C3555 C 0.46724 0.74841 0.80952 0.0
C3556 C 0.43697 0.74926 0.83357 0.0
H3557 H 0.39205 0.686 0.84699 0.0
H3558 H 0.41197 0.69979 0.83477 0.0
H3559 H 0.41691 0.74584 0.84433 0.0
H3560 H 0.48217 0.78433 0.82805 0.0
H3561 H 0.46239 0.76881 0.83818 0.0
H3562 H 0.45801 0.72365 0.82548 0.0
C3563 C 0.4084 0.70406 0.84442 0.0
C3564 C 0.42586 0.74087 0.84035 0.0
C3565 C 0.39702 0.69618 0.85138 0.0
C3566 C 0.47814 0.77435 0.82269 0.0
C3567 C 0.46671 0.76549 0.82847 0.0
C3568 C 0.449 0.72856 0.82941 0.0
C3569 C 0.41468 0.71753 0.84961 0.0
C3570 C 0.42627 0.72626 0.84192 0.0
C3571 C 0.46106 0.75246 0.82194 0.0
C3572 C 0.44877 0.74325 0.82821 0.0
H3573 H 0.39419 0.71935 0.87836 0.0
H3574 H 0.41425 0.73308 0.86639 0.0
H3575 H 0.43851 0.70892 0.83732 0.0
H3576 H 0.4832 0.75402 0.79406 0.0
H3577 H 0.46305 0.73844 0.80422 0.0
C3578 C 0.32159 0.40343 0.84918 0.0
C3579 C 0.32456 0.40365 0.86388 0.0
C3580 C 0.31508 0.41439 0.84261 0.0
C3581 C 0.2931 0.44338 0.85076 0.0
H3582 H 0.30393 0.45704 0.81386 0.0
C3583 C 0.2741 0.49424 0.82756 0.0
C3584 C 0.26933 0.49408 0.81319 0.0
C3585 C 0.28076 0.48305 0.83334 0.0
C3586 C 0.30067 0.45324 0.82411 0.0
H3587 H 0.32366 0.4159 0.88309 0.0
H3588 H 0.3126 0.43504 0.87169 0.0
H3589 H 0.31601 0.43808 0.82464 0.0
H3590 H 0.2679 0.48169 0.79373 0.0
H3591 H 0.27966 0.46226 0.80382 0.0
H3592 H 0.2779 0.45863 0.8503 0.0
C3593 C 0.31486 0.42623 0.86523 0.0
C3594 C 0.30759 0.44234 0.8303 0.0
C3595 C 0.32126 0.41527 0.87178 0.0
C3596 C 0.27154 0.48236 0.80478 0.0
C3597 C 0.2783 0.47117 0.81057 0.0
C3598 C 0.28626 0.45429 0.84461 0.0
C3599 C 0.31146 0.42587 0.85057 0.0
C3600 C 0.30397 0.43732 0.84376 0.0
C3601 C 0.28294 0.47135 0.82494 0.0
C3602 C 0.29 0.45943 0.83124 0.0
H3603 H 0.32388 0.39458 0.84281 0.0
H3604 H 0.31252 0.41365 0.83134 0.0
H3605 H 0.28973 0.4396 0.86097 0.0
H3606 H 0.27292 0.50312 0.83439 0.0
H3607 H 0.28442 0.48366 0.8444 0.0
C3608 C 0.66823 0.6508 0.23171 0.0
C3609 C 0.67238 0.65352 0.21786 0.0
C3610 C 0.67351 0.63982 0.23938 0.0
C3611 C 0.68826 0.60603 0.23381 0.0
H3612 H 0.69899 0.60903 0.27389 0.0
C3613 C 0.71373 0.56155 0.26333 0.0
C3614 C 0.70934 0.55823 0.27703 0.0
C3615 C 0.70963 0.57348 0.25644 0.0
C3616 C 0.69587 0.60794 0.26273 0.0
H3617 H 0.68587 0.64741 0.20141 0.0
H3618 H 0.6952 0.62834 0.21479 0.0
H3619 H 0.69151 0.6295 0.26146 0.0
H3620 H 0.69721 0.5652 0.29423 0.0
H3621 H 0.68976 0.58577 0.2821 0.0
H3622 H 0.69242 0.58447 0.23504 0.0
C3623 C 0.68764 0.63447 0.21966 0.0
C3624 C 0.69161 0.61971 0.2556 0.0
C3625 C 0.68239 0.64545 0.21203 0.0
C3626 C 0.70071 0.56726 0.28365 0.0
C3627 C 0.69657 0.5792 0.27674 0.0
C3628 C 0.69247 0.59427 0.24094 0.0
C3629 C 0.68306 0.63133 0.23335 0.0
C3630 C 0.68779 0.61892 0.24103 0.0
C3631 C 0.70095 0.58246 0.26302 0.0
C3632 C 0.69637 0.59505 0.25549 0.0
H3633 H 0.66054 0.65691 0.23643 0.0
H3634 H 0.66969 0.63768 0.24985 0.0
H3635 H 0.6851 0.60492 0.22266 0.0
H3636 H 0.72023 0.55484 0.25777 0.0
H3637 H 0.71338 0.57571 0.24597 0.0
C3638 C 0.71997 0.42858 0.88143 0.0
C3639 C 0.71187 0.41902 0.87163 0.0
C3640 C 0.72926 0.44033 0.87685 0.0
C3641 C 0.73672 0.46252 0.84542 0.0
H3642 H 0.77483 0.4737 0.86503 0.0
C3643 C 0.78124 0.50192 0.82161 0.0
C3644 C 0.78808 0.51312 0.83041 0.0
C3645 C 0.77248 0.4904 0.82719 0.0
C3646 C 0.76417 0.47076 0.85953 0.0
H3647 H 0.70726 0.41416 0.84936 0.0
H3648 H 0.7236 0.43451 0.84134 0.0
H3649 H 0.75815 0.45379 0.87365 0.0
H3650 H 0.79156 0.52066 0.85211 0.0
H3651 H 0.77635 0.50034 0.86192 0.0
H3652 H 0.74284 0.47933 0.83117 0.0
C3653 C 0.72255 0.43315 0.85257 0.0
C3654 C 0.75458 0.45939 0.86448 0.0
C3655 C 0.7132 0.42147 0.85716 0.0
C3656 C 0.78652 0.51219 0.84505 0.0
C3657 C 0.77778 0.50057 0.85066 0.0
C3658 C 0.74632 0.47379 0.84043 0.0
C3659 C 0.73072 0.44272 0.86236 0.0
C3660 C 0.74077 0.45508 0.85742 0.0
C3661 C 0.77042 0.48973 0.84173 0.0
C3662 C 0.76019 0.47797 0.84736 0.0
H3663 H 0.71904 0.42703 0.89266 0.0
H3664 H 0.7352 0.4476 0.88468 0.0
H3665 H 0.72605 0.45971 0.83989 0.0
H3666 H 0.78252 0.5021 0.81034 0.0
H3667 H 0.76722 0.48203 0.82008 0.0
C3668 C 0.64639 0.71132 0.84988 0.0
C3669 C 0.65907 0.71881 0.85685 0.0
C3670 C 0.63488 0.71847 0.84461 0.0
C3671 C 0.62633 0.75448 0.83477 0.0
H3672 H 0.58579 0.7376 0.8384 0.0
C3673 C 0.57701 0.78605 0.82497 0.0
C3674 C 0.56439 0.77913 0.81745 0.0
C3675 C 0.58855 0.77856 0.82942 0.0
C3676 C 0.59705 0.7424 0.83717 0.0
H3677 H 0.66963 0.73982 0.86336 0.0
H3678 H 0.6495 0.75215 0.8546 0.0
H3679 H 0.60587 0.72476 0.84663 0.0
H3680 H 0.55399 0.75879 0.80893 0.0
H3681 H 0.57413 0.74578 0.81658 0.0
H3682 H 0.61748 0.77219 0.82548 0.0
C3683 C 0.64847 0.74077 0.85303 0.0
C3684 C 0.60858 0.73502 0.84187 0.0
C3685 C 0.65997 0.73364 0.85826 0.0
C3686 C 0.56359 0.76451 0.81455 0.0
C3687 C 0.57508 0.757 0.81908 0.0
C3688 C 0.6148 0.76188 0.83015 0.0
C3689 C 0.63574 0.7333 0.84616 0.0
C3690 C 0.6234 0.74098 0.84079 0.0
C3691 C 0.58773 0.76394 0.82654 0.0
C3692 C 0.60001 0.75596 0.83133 0.0
H3693 H 0.64525 0.69989 0.84868 0.0
H3694 H 0.62534 0.71236 0.83923 0.0
H3695 H 0.63757 0.75931 0.83351 0.0
H3696 H 0.57806 0.7973 0.8273 0.0
H3697 H 0.59806 0.78422 0.83526 0.0
C3698 C 0.34198 0.6478 0.83988 0.0
C3699 C 0.33302 0.6586 0.84055 0.0
C3700 C 0.33841 0.6366 0.83016 0.0
C3701 C 0.30625 0.61871 0.80843 0.0
H3702 H 0.33555 0.59745 0.79373 0.0
C3703 C 0.28827 0.57018 0.7734 0.0
C3704 C 0.29248 0.55779 0.77948 0.0
C3705 C 0.29547 0.58349 0.77772 0.0
C3706 C 0.32729 0.60337 0.7977 0.0
H3707 H 0.31382 0.66673 0.83127 0.0
H3708 H 0.30791 0.6476 0.81379 0.0
H3709 H 0.34351 0.61938 0.80728 0.0
H3710 H 0.30862 0.54962 0.79363 0.0
H3711 H 0.32128 0.57295 0.80109 0.0
H3712 H 0.29007 0.60275 0.79881 0.0
C3713 C 0.31737 0.64736 0.82109 0.0
C3714 C 0.33181 0.61587 0.80556 0.0
C3715 C 0.32077 0.65838 0.83102 0.0
C3716 C 0.30503 0.55895 0.78883 0.0
C3717 C 0.31232 0.57231 0.79308 0.0
C3718 C 0.30177 0.60642 0.80039 0.0
C3719 C 0.32593 0.63613 0.82073 0.0
C3720 C 0.32133 0.62357 0.81125 0.0
C3721 C 0.30711 0.58468 0.78807 0.0
C3722 C 0.31222 0.59852 0.79513 0.0
H3723 H 0.35146 0.64777 0.84721 0.0
H3724 H 0.34515 0.62809 0.83041 0.0
H3725 H 0.29781 0.62406 0.81287 0.0
H3726 H 0.27877 0.56968 0.76602 0.0
H3727 H 0.29139 0.59289 0.77357 0.0
C3728 C 0.38301 0.35067 0.86532 0.0
C3729 C 0.37239 0.35306 0.85468 0.0
C3730 C 0.39612 0.34565 0.86191 0.0
C3731 C 0.41149 0.3256 0.83399 0.0
H3732 H 0.44933 0.33969 0.85275 0.0
C3733 C 0.463 0.29735 0.82824 0.0
C3734 C 0.47653 0.30586 0.82632 0.0
C3735 C 0.45058 0.30343 0.83183 0.0
C3736 C 0.43887 0.33569 0.84735 0.0
H3737 H 0.36711 0.3519 0.83215 0.0
H3738 H 0.38997 0.34325 0.82617 0.0
H3739 H 0.42733 0.35004 0.85859 0.0
H3740 H 0.48756 0.3275 0.82695 0.0
H3741 H 0.46585 0.33814 0.83316 0.0
H3742 H 0.42297 0.31131 0.82269 0.0
C3743 C 0.38821 0.34524 0.83716 0.0
C3744 C 0.42622 0.34154 0.8508 0.0
C3745 C 0.37516 0.35032 0.84057 0.0
C3746 C 0.47731 0.32063 0.82823 0.0
C3747 C 0.46489 0.32672 0.83192 0.0
C3748 C 0.42409 0.31969 0.83062 0.0
C3749 C 0.39882 0.3427 0.84778 0.0
C3750 C 0.41236 0.33658 0.84414 0.0
C3751 C 0.45133 0.3182 0.83368 0.0
C3752 C 0.43795 0.32464 0.83725 0.0
H3753 H 0.38102 0.35243 0.8763 0.0
H3754 H 0.40394 0.34365 0.87038 0.0
H3755 H 0.40099 0.3214 0.82875 0.0
H3756 H 0.4619 0.28597 0.82673 0.0
H3757 H 0.44037 0.29652 0.83324 0.0
C3758 C 0.33869 0.41128 0.20384 0.0
C3759 C 0.34444 0.40163 0.21312 0.0
C3760 C 0.3331 0.42322 0.20905 0.0
C3761 C 0.33669 0.44691 0.24014 0.0
H3762 H 0.29939 0.45833 0.22664 0.0
C3763 C 0.31172 0.48884 0.27051 0.0
C3764 C 0.30499 0.49921 0.26312 0.0
C3765 C 0.31543 0.47699 0.26354 0.0
C3766 C 0.30992 0.4554 0.2304 0.0
H3767 H 0.34815 0.39686 0.23525 0.0
H3768 H 0.33881 0.41775 0.24422 0.0
H3769 H 0.30809 0.43759 0.21601 0.0
H3770 H 0.29629 0.50496 0.24263 0.0
H3771 H 0.30314 0.48418 0.2302 0.0
H3772 H 0.33881 0.46466 0.25432 0.0
C3773 C 0.33877 0.41615 0.23291 0.0
C3774 C 0.31489 0.4435 0.22432 0.0
C3775 C 0.3442 0.40417 0.22773 0.0
C3776 C 0.30147 0.49713 0.24859 0.0
C3777 C 0.30539 0.48523 0.2415 0.0
C3778 C 0.33184 0.4588 0.24608 0.0
C3779 C 0.33327 0.42589 0.22365 0.0
C3780 C 0.32821 0.43897 0.22934 0.0
C3781 C 0.31277 0.47518 0.24888 0.0
C3782 C 0.31823 0.46307 0.24154 0.0
H3783 H 0.33882 0.40982 0.19253 0.0
H3784 H 0.32904 0.43058 0.20164 0.0
H3785 H 0.34717 0.44392 0.24402 0.0
H3786 H 0.31432 0.48997 0.28177 0.0
H3787 H 0.32059 0.46928 0.26971 0.0
C3788 C 0.6286 0.3213 0.2065 0.0
C3789 C 0.62915 0.33583 0.20374 0.0
C3790 C 0.61551 0.31337 0.21039 0.0
C3791 C 0.57877 0.31742 0.22383 0.0
H3792 H 0.5701 0.27757 0.21328 0.0
C3793 C 0.52499 0.2842 0.23853 0.0
C3794 C 0.52763 0.27277 0.24713 0.0
C3795 C 0.53616 0.29094 0.23048 0.0
C3796 C 0.57237 0.28871 0.21622 0.0
H3797 H 0.61648 0.35345 0.20264 0.0
H3798 H 0.59344 0.33957 0.20892 0.0
H3799 H 0.59213 0.29173 0.20497 0.0
H3800 H 0.54344 0.25871 0.25327 0.0
H3801 H 0.56288 0.27019 0.23883 0.0
H3802 H 0.55888 0.31435 0.23494 0.0
C3803 C 0.60319 0.33431 0.20855 0.0
C3804 C 0.58506 0.29682 0.21159 0.0
C3805 C 0.61637 0.34229 0.20491 0.0
C3806 C 0.54116 0.26743 0.24661 0.0
C3807 C 0.55225 0.274 0.23838 0.0
C3808 C 0.56597 0.30937 0.22822 0.0
C3809 C 0.60256 0.31973 0.21137 0.0
C3810 C 0.58858 0.31125 0.21554 0.0
C3811 C 0.55006 0.2862 0.23074 0.0
C3812 C 0.56275 0.29491 0.22463 0.0
H3813 H 0.63837 0.31611 0.20575 0.0
H3814 H 0.61562 0.30228 0.21279 0.0
H3815 H 0.58117 0.32838 0.22735 0.0
H3816 H 0.51475 0.28866 0.23892 0.0
H3817 H 0.53419 0.30028 0.2246 0.0
C3818 C 0.39726 0.719 0.18578 0.0
C3819 C 0.38316 0.72324 0.18528 0.0
C3820 C 0.40959 0.72844 0.1905 0.0
C3821 C 0.42249 0.76642 0.20056 0.0
H3822 H 0.45002 0.74934 0.22525 0.0
C3823 C 0.46138 0.79569 0.24496 0.0
C3824 C 0.4751 0.7909 0.24776 0.0
C3825 C 0.45159 0.7893 0.2342 0.0
C3826 C 0.44261 0.75428 0.21818 0.0
H3827 H 0.37084 0.74069 0.18887 0.0
H3828 H 0.39227 0.75707 0.19767 0.0
H3829 H 0.43012 0.73433 0.21255 0.0
H3830 H 0.48997 0.77678 0.24049 0.0
H3831 H 0.47298 0.76578 0.22173 0.0
H3832 H 0.43477 0.78651 0.20695 0.0
C3833 C 0.39395 0.74661 0.19407 0.0
C3834 C 0.43117 0.74565 0.21084 0.0
C3835 C 0.38165 0.73722 0.18911 0.0
C3836 C 0.47938 0.78057 0.23875 0.0
C3837 C 0.46964 0.77423 0.22803 0.0
C3838 C 0.43391 0.77511 0.20807 0.0
C3839 C 0.40806 0.74224 0.19511 0.0
C3840 C 0.42086 0.75157 0.20201 0.0
C3841 C 0.4554 0.77806 0.22607 0.0
C3842 C 0.44402 0.76911 0.21703 0.0
H3843 H 0.39871 0.70831 0.18269 0.0
H3844 H 0.42031 0.72479 0.19079 0.0
H3845 H 0.41488 0.77135 0.19371 0.0
H3846 H 0.45776 0.80364 0.2517 0.0
H3847 H 0.44068 0.79247 0.23294 0.0
loop_
_geom_bond_atom_site_label_1
_geom_bond_atom_site_label_2
_geom_bond_distance
_geom_bond_site_symmetry_2
_ccdc_geom_bond_type
H0 C7 0.929 . S
H1 C10 0.930 . S
H2 C12 0.929 . S
H3 C4 0.969 . S
C4 H3 0.969 . S
C4 O5 1.550 . S
C4 H6 0.973 . S
O5 C4 1.550 . S
O5 C11 1.412 . S
H6 C4 0.973 . S
C7 H0 0.929 . S
C7 C8 1.400 . S
C7 C9 1.364 . S
C8 C7 1.400 . S
C8 C12 1.377 . S
C9 C7 1.364 . S
C9 C10 1.374 . S
C10 H1 0.930 . S
C10 C9 1.374 . S
C10 C11 1.383 . S
C11 O5 1.412 . S
C11 C10 1.383 . S
C11 C12 1.394 . S
C12 H2 0.929 . S
C12 C8 1.377 . S
C12 C11 1.394 . S
H13 C20 0.929 . S
H14 C23 0.930 . S
H15 C25 0.929 . S
H16 C17 0.969 . S
C17 H16 0.969 . S
C17 O18 1.550 . S
C17 H19 0.973 . S
O18 C17 1.550 . S
O18 C24 1.412 . S
H19 C17 0.973 . S
C20 H13 0.929 . S
C20 C21 1.400 . S
C20 C22 1.364 . S
C21 C20 1.400 . S
C21 C25 1.377 . S
C22 C20 1.364 . S
C22 C23 1.374 . S
C23 H14 0.930 . S
C23 C22 1.374 . S
C23 C24 1.383 . S
C24 O18 1.412 . S
C24 C23 1.383 . S
C24 C25 1.394 . S
C25 H15 0.929 . S
C25 C21 1.377 . S
C25 C24 1.394 . S
H26 C33 0.929 . S
H27 C36 0.930 . S
H28 C38 0.929 . S
H29 C30 0.969 . S
C30 H29 0.969 . S
C30 O31 1.550 . S
C30 H32 0.973 . S
O31 C30 1.550 . S
O31 C37 1.412 . S
H32 C30 0.973 . S
C33 H26 0.929 . S
C33 C34 1.400 . S
C33 C35 1.364 . S
C34 C33 1.400 . S
C34 C38 1.377 . S
C35 C33 1.364 . S
C35 C36 1.374 . S
C36 H27 0.930 . S
C36 C35 1.374 . S
C36 C37 1.383 . S
C37 O31 1.412 . S
C37 C36 1.383 . S
C37 C38 1.394 . S
C38 H28 0.929 . S
C38 C34 1.377 . S
C38 C37 1.394 . S
H39 C46 0.929 . S
H40 C49 0.930 . S
H41 C51 0.929 . S
H42 C43 0.969 . S
C43 H42 0.969 . S
C43 O44 1.550 . S
C43 H45 0.973 . S
O44 C43 1.550 . S
O44 C50 1.412 . S
H45 C43 0.973 . S
C46 H39 0.929 . S
C46 C47 1.400 . S
C46 C48 1.364 . S
C47 C46 1.400 . S
C47 C51 1.377 . S
C48 C46 1.364 . S
C48 C49 1.374 . S
C49 H40 0.930 . S
C49 C48 1.374 . S
C49 C50 1.383 . S
C50 O44 1.412 . S
C50 C49 1.383 . S
C50 C51 1.394 . S
C51 H41 0.929 . S
C51 C47 1.377 . S
C51 C50 1.394 . S
H52 C59 0.929 . S
H53 C62 0.930 . S
H54 C64 0.929 . S
H55 C56 0.969 . S
C56 H55 0.969 . S
C56 O57 1.550 . S
C56 H58 0.973 . S
O57 C56 1.550 . S
O57 C63 1.412 . S
H58 C56 0.973 . S
C59 H52 0.929 . S
C59 C60 1.400 . S
C59 C61 1.364 . S
C60 C59 1.400 . S
C60 C64 1.377 . S
C61 C59 1.364 . S
C61 C62 1.374 . S
C62 H53 0.930 . S
C62 C61 1.374 . S
C62 C63 1.383 . S
C63 O57 1.412 . S
C63 C62 1.383 . S
C63 C64 1.394 . S
C64 H54 0.929 . S
C64 C60 1.377 . S
C64 C63 1.394 . S
H65 C72 0.929 . S
H66 C75 0.930 . S
H67 C77 0.929 . S
H68 C69 0.969 . S
C69 H68 0.969 . S
C69 O70 1.550 . S
C69 H71 0.973 . S
O70 C69 1.550 . S
O70 C76 1.412 . S
H71 C69 0.973 . S
C72 H65 0.929 . S
C72 C73 1.400 . S
C72 C74 1.364 . S
C73 C72 1.400 . S
C73 C77 1.377 . S
C74 C72 1.364 . S
C74 C75 1.374 . S
C75 H66 0.930 . S
C75 C74 1.374 . S
C75 C76 1.383 . S
C76 O70 1.412 . S
C76 C75 1.383 . S
C76 C77 1.394 . S
C77 H67 0.929 . S
C77 C73 1.377 . S
C77 C76 1.394 . S
H78 C85 0.929 . S
H79 C88 0.930 . S
H80 C90 0.929 . S
H81 C82 0.969 . S
C82 H81 0.969 . S
C82 O83 1.550 . S
C82 H84 0.973 . S
O83 C82 1.550 . S
O83 C89 1.412 . S
H84 C82 0.973 . S
C85 H78 0.929 . S
C85 C86 1.400 . S
C85 C87 1.364 . S
C86 C85 1.400 . S
C86 C90 1.377 . S
C87 C85 1.364 . S
C87 C88 1.374 . S
C88 H79 0.930 . S
C88 C87 1.374 . S
C88 C89 1.383 . S
C89 O83 1.412 . S
C89 C88 1.383 . S
C89 C90 1.394 . S
C90 H80 0.929 . S
C90 C86 1.377 . S
C90 C89 1.394 . S
H91 C98 0.929 . S
H92 C101 0.930 . S
H93 C103 0.929 . S
H94 C95 0.969 . S
C95 H94 0.969 . S
C95 O96 1.550 . S
C95 H97 0.973 . S
O96 C95 1.550 . S
O96 C102 1.412 . S
H97 C95 0.973 . S
C98 H91 0.929 . S
C98 C99 1.400 . S
C98 C100 1.364 . S
C99 C98 1.400 . S
C99 C103 1.377 . S
C100 C98 1.364 . S
C100 C101 1.374 . S
C101 H92 0.930 . S
C101 C100 1.374 . S
C101 C102 1.383 . S
C102 O96 1.412 . S
C102 C101 1.383 . S
C102 C103 1.394 . S
C103 H93 0.929 . S
C103 C99 1.377 . S
C103 C102 1.394 . S
H104 C111 0.929 . S
H105 C114 0.930 . S
H106 C116 0.929 . S
H107 C108 0.969 . S
C108 H107 0.969 . S
C108 O109 1.550 . S
C108 H110 0.973 . S
O109 C108 1.550 . S
O109 C115 1.412 . S
H110 C108 0.973 . S
C111 H104 0.929 . S
C111 C112 1.400 . S
C111 C113 1.364 . S
C112 C111 1.400 . S
C112 C116 1.377 . S
C113 C111 1.364 . S
C113 C114 1.374 . S
C114 H105 0.930 . S
C114 C113 1.374 . S
C114 C115 1.383 . S
C115 O109 1.412 . S
C115 C114 1.383 . S
C115 C116 1.394 . S
C116 H106 0.929 . S
C116 C112 1.377 . S
C116 C115 1.394 . S
H117 C124 0.929 . S
H118 C127 0.930 . S
H119 C129 0.929 . S
H120 C121 0.969 . S
C121 H120 0.969 . S
C121 O122 1.550 . S
C121 H123 0.973 . S
O122 C121 1.550 . S
O122 C128 1.412 . S
H123 C121 0.973 . S
C124 H117 0.929 . S
C124 C125 1.400 . S
C124 C126 1.364 . S
C125 C124 1.400 . S
C125 C129 1.377 . S
C126 C124 1.364 . S
C126 C127 1.374 . S
C127 H118 0.930 . S
C127 C126 1.374 . S
C127 C128 1.383 . S
C128 O122 1.412 . S
C128 C127 1.383 . S
C128 C129 1.394 . S
C129 H119 0.929 . S
C129 C125 1.377 . S
C129 C128 1.394 . S
H130 C137 0.929 . S
H131 C140 0.930 . S
H132 C142 0.929 . S
H133 C134 0.969 . S
C134 H133 0.969 . S
C134 O135 1.550 . S
C134 H136 0.973 . S
O135 C134 1.550 . S
O135 C141 1.412 . S
H136 C134 0.973 . S
C137 H130 0.929 . S
C137 C138 1.400 . S
C137 C139 1.364 . S
C138 C137 1.400 . S
C138 C142 1.377 . S
C139 C137 1.364 . S
C139 C140 1.374 . S
C140 H131 0.930 . S
C140 C139 1.374 . S
C140 C141 1.383 . S
C141 O135 1.412 . S
C141 C140 1.383 . S
C141 C142 1.394 . S
C142 H132 0.929 . S
C142 C138 1.377 . S
C142 C141 1.394 . S
H143 C150 0.929 . S
H144 C153 0.930 . S
H145 C155 0.929 . S
H146 C147 0.969 . S
C147 H146 0.969 . S
C147 O148 1.550 . S
C147 H149 0.973 . S
O148 C147 1.550 . S
O148 C154 1.412 . S
H149 C147 0.973 . S
C150 H143 0.929 . S
C150 C151 1.400 . S
C150 C152 1.364 . S
C151 C150 1.400 . S
C151 C155 1.377 . S
C152 C150 1.364 . S
C152 C153 1.374 . S
C153 H144 0.930 . S
C153 C152 1.374 . S
C153 C154 1.383 . S
C154 O148 1.412 . S
C154 C153 1.383 . S
C154 C155 1.394 . S
C155 H145 0.929 . S
C155 C151 1.377 . S
C155 C154 1.394 . S
H156 C163 0.929 . S
H157 C166 0.930 . S
H158 C168 0.929 . S
H159 C160 0.969 . S
C160 H159 0.969 . S
C160 O161 1.550 . S
C160 H162 0.973 . S
O161 C160 1.550 . S
O161 C167 1.412 . S
H162 C160 0.973 . S
C163 H156 0.929 . S
C163 C164 1.400 . S
C163 C165 1.364 . S
C164 C163 1.400 . S
C164 C168 1.377 . S
C165 C163 1.364 . S
C165 C166 1.374 . S
C166 H157 0.930 . S
C166 C165 1.374 . S
C166 C167 1.383 . S
C167 O161 1.412 . S
C167 C166 1.383 . S
C167 C168 1.394 . S
C168 H158 0.929 . S
C168 C164 1.377 . S
C168 C167 1.394 . S
H169 C176 0.929 . S
H170 C179 0.930 . S
H171 C181 0.929 . S
H172 C173 0.969 . S
C173 H172 0.969 . S
C173 O174 1.550 . S
C173 H175 0.973 . S
O174 C173 1.550 . S
O174 C180 1.412 . S
H175 C173 0.973 . S
C176 H169 0.929 . S
C176 C177 1.400 . S
C176 C178 1.364 . S
C177 C176 1.400 . S
C177 C181 1.377 . S
C178 C176 1.364 . S
C178 C179 1.374 . S
C179 H170 0.930 . S
C179 C178 1.374 . S
C179 C180 1.383 . S
C180 O174 1.412 . S
C180 C179 1.383 . S
C180 C181 1.394 . S
C181 H171 0.929 . S
C181 C177 1.377 . S
C181 C180 1.394 . S
H182 C189 0.929 . S
H183 C192 0.930 . S
H184 C194 0.929 . S
H185 C186 0.969 . S
C186 H185 0.969 . S
C186 O187 1.550 . S
C186 H188 0.973 . S
O187 C186 1.550 . S
O187 C193 1.412 . S
H188 C186 0.973 . S
C189 H182 0.929 . S
C189 C190 1.400 . S
C189 C191 1.364 . S
C190 C189 1.400 . S
C190 C194 1.377 . S
C191 C189 1.364 . S
C191 C192 1.374 . S
C192 H183 0.930 . S
C192 C191 1.374 . S
C192 C193 1.383 . S
C193 O187 1.412 . S
C193 C192 1.383 . S
C193 C194 1.394 . S
C194 H184 0.929 . S
C194 C190 1.377 . S
C194 C193 1.394 . S
H195 C202 0.929 . S
H196 C205 0.930 . S
H197 C207 0.929 . S
H198 C199 0.969 . S
C199 H198 0.969 . S
C199 O200 1.550 . S
C199 H201 0.973 . S
O200 C199 1.550 . S
O200 C206 1.412 . S
H201 C199 0.973 . S
C202 H195 0.929 . S
C202 C203 1.400 . S
C202 C204 1.364 . S
C203 C202 1.400 . S
C203 C207 1.377 . S
C204 C202 1.364 . S
C204 C205 1.374 . S
C205 H196 0.930 . S
C205 C204 1.374 . S
C205 C206 1.383 . S
C206 O200 1.412 . S
C206 C205 1.383 . S
C206 C207 1.394 . S
C207 H197 0.929 . S
C207 C203 1.377 . S
C207 C206 1.394 . S
H208 C215 0.929 . S
H209 C218 0.930 . S
H210 C220 0.929 . S
H211 C212 0.969 . S
C212 H211 0.969 . S
C212 O213 1.550 . S
C212 H214 0.973 . S
O213 C212 1.550 . S
O213 C219 1.412 . S
H214 C212 0.973 . S
C215 H208 0.929 . S
C215 C216 1.400 . S
C215 C217 1.364 . S
C216 C215 1.400 . S
C216 C220 1.377 . S
C217 C215 1.364 . S
C217 C218 1.374 . S
C218 H209 0.930 . S
C218 C217 1.374 . S
C218 C219 1.383 . S
C219 O213 1.412 . S
C219 C218 1.383 . S
C219 C220 1.394 . S
C220 H210 0.929 . S
C220 C216 1.377 . S
C220 C219 1.394 . S
H221 C228 0.929 . S
H222 C231 0.930 . S
H223 C233 0.929 . S
H224 C225 0.969 . S
C225 H224 0.969 . S
C225 O226 1.550 . S
C225 H227 0.973 . S
O226 C225 1.550 . S
O226 C232 1.412 . S
H227 C225 0.973 . S
C228 H221 0.929 . S
C228 C229 1.400 . S
C228 C230 1.364 . S
C229 C228 1.400 . S
C229 C233 1.377 . S
C230 C228 1.364 . S
C230 C231 1.374 . S
C231 H222 0.930 . S
C231 C230 1.374 . S
C231 C232 1.383 . S
C232 O226 1.412 . S
C232 C231 1.383 . S
C232 C233 1.394 . S
C233 H223 0.929 . S
C233 C229 1.377 . S
C233 C232 1.394 . S
H234 C241 0.929 . S
H235 C244 0.930 . S
H236 C246 0.929 . S
H237 C238 0.969 . S
C238 H237 0.969 . S
C238 O239 1.550 . S
C238 H240 0.973 . S
O239 C238 1.550 . S
O239 C245 1.412 . S
H240 C238 0.973 . S
C241 H234 0.929 . S
C241 C242 1.400 . S
C241 C243 1.364 . S
C242 C241 1.400 . S
C242 C246 1.377 . S
C243 C241 1.364 . S
C243 C244 1.374 . S
C244 H235 0.930 . S
C244 C243 1.374 . S
C244 C245 1.383 . S
C245 O239 1.412 . S
C245 C244 1.383 . S
C245 C246 1.394 . S
C246 H236 0.929 . S
C246 C242 1.377 . S
C246 C245 1.394 . S
H247 C254 0.929 . S
H248 C257 0.930 . S
H249 C259 0.929 . S
H250 C251 0.969 . S
C251 H250 0.969 . S
C251 O252 1.550 . S
C251 H253 0.973 . S
O252 C251 1.550 . S
O252 C258 1.412 . S
H253 C251 0.973 . S
C254 H247 0.929 . S
C254 C255 1.400 . S
C254 C256 1.364 . S
C255 C254 1.400 . S
C255 C259 1.377 . S
C256 C254 1.364 . S
C256 C257 1.374 . S
C257 H248 0.930 . S
C257 C256 1.374 . S
C257 C258 1.383 . S
C258 O252 1.412 . S
C258 C257 1.383 . S
C258 C259 1.394 . S
C259 H249 0.929 . S
C259 C255 1.377 . S
C259 C258 1.394 . S
H260 C267 0.929 . S
H261 C270 0.930 . S
H262 C272 0.929 . S
H263 C264 0.969 . S
C264 H263 0.969 . S
C264 O265 1.550 . S
C264 H266 0.973 . S
O265 C264 1.550 . S
O265 C271 1.412 . S
H266 C264 0.973 . S
C267 H260 0.929 . S
C267 C268 1.400 . S
C267 C269 1.364 . S
C268 C267 1.400 . S
C268 C272 1.377 . S
C269 C267 1.364 . S
C269 C270 1.374 . S
C270 H261 0.930 . S
C270 C269 1.374 . S
C270 C271 1.383 . S
C271 O265 1.412 . S
C271 C270 1.383 . S
C271 C272 1.394 . S
C272 H262 0.929 . S
C272 C268 1.377 . S
C272 C271 1.394 . S
H273 C280 0.929 . S
H274 C283 0.930 . S
H275 C285 0.929 . S
H276 C277 0.969 . S
C277 H276 0.969 . S
C277 O278 1.550 . S
C277 H279 0.973 . S
O278 C277 1.550 . S
O278 C284 1.412 . S
H279 C277 0.973 . S
C280 H273 0.929 . S
C280 C281 1.400 . S
C280 C282 1.364 . S
C281 C280 1.400 . S
C281 C285 1.377 . S
C282 C280 1.364 . S
C282 C283 1.374 . S
C283 H274 0.930 . S
C283 C282 1.374 . S
C283 C284 1.383 . S
C284 O278 1.412 . S
C284 C283 1.383 . S
C284 C285 1.394 . S
C285 H275 0.929 . S
C285 C281 1.377 . S
C285 C284 1.394 . S
H286 C293 0.929 . S
H287 C296 0.930 . S
H288 C298 0.929 . S
H289 C290 0.969 . S
C290 H289 0.969 . S
C290 O291 1.550 . S
C290 H292 0.973 . S
O291 C290 1.550 . S
O291 C297 1.412 . S
H292 C290 0.973 . S
C293 H286 0.929 . S
C293 C294 1.400 . S
C293 C295 1.364 . S
C294 C293 1.400 . S
C294 C298 1.377 . S
C295 C293 1.364 . S
C295 C296 1.374 . S
C296 H287 0.930 . S
C296 C295 1.374 . S
C296 C297 1.383 . S
C297 O291 1.412 . S
C297 C296 1.383 . S
C297 C298 1.394 . S
C298 H288 0.929 . S
C298 C294 1.377 . S
C298 C297 1.394 . S
H299 C306 0.929 . S
H300 C309 0.930 . S
H301 C311 0.929 . S
H302 C303 0.969 . S
C303 H302 0.969 . S
C303 O304 1.550 . S
C303 H305 0.973 . S
O304 C303 1.550 . S
O304 C310 1.412 . S
H305 C303 0.973 . S
C306 H299 0.929 . S
C306 C307 1.400 . S
C306 C308 1.364 . S
C307 C306 1.400 . S
C307 C311 1.377 . S
C308 C306 1.364 . S
C308 C309 1.374 . S
C309 H300 0.930 . S
C309 C308 1.374 . S
C309 C310 1.383 . S
C310 O304 1.412 . S
C310 C309 1.383 . S
C310 C311 1.394 . S
C311 H301 0.929 . S
C311 C307 1.377 . S
C311 C310 1.394 . S
H312 C319 0.929 . S
H313 C322 0.930 . S
H314 C324 0.929 . S
H315 C316 0.969 . S
C316 H315 0.969 . S
C316 O317 1.550 . S
C316 H318 0.973 . S
O317 C316 1.550 . S
O317 C323 1.412 . S
H318 C316 0.973 . S
C319 H312 0.929 . S
C319 C320 1.400 . S
C319 C321 1.364 . S
C320 C319 1.400 . S
C320 C324 1.377 . S
C321 C319 1.364 . S
C321 C322 1.374 . S
C322 H313 0.930 . S
C322 C321 1.374 . S
C322 C323 1.383 . S
C323 O317 1.412 . S
C323 C322 1.383 . S
C323 C324 1.394 . S
C324 H314 0.929 . S
C324 C320 1.377 . S
C324 C323 1.394 . S
H325 C332 0.929 . S
H326 C335 0.930 . S
H327 C337 0.929 . S
H328 C329 0.969 . S
C329 H328 0.969 . S
C329 O330 1.550 . S
C329 H331 0.973 . S
O330 C329 1.550 . S
O330 C336 1.412 . S
H331 C329 0.973 . S
C332 H325 0.929 . S
C332 C333 1.400 . S
C332 C334 1.364 . S
C333 C332 1.400 . S
C333 C337 1.377 . S
C334 C332 1.364 . S
C334 C335 1.374 . S
C335 H326 0.930 . S
C335 C334 1.374 . S
C335 C336 1.383 . S
C336 O330 1.412 . S
C336 C335 1.383 . S
C336 C337 1.394 . S
C337 H327 0.929 . S
C337 C333 1.377 . S
C337 C336 1.394 . S
H338 C345 0.929 . S
H339 C348 0.930 . S
H340 C350 0.929 . S
H341 C342 0.969 . S
C342 H341 0.969 . S
C342 O343 1.550 . S
C342 H344 0.973 . S
O343 C342 1.550 . S
O343 C349 1.412 . S
H344 C342 0.973 . S
C345 H338 0.929 . S
C345 C346 1.400 . S
C345 C347 1.364 . S
C346 C345 1.400 . S
C346 C350 1.377 . S
C347 C345 1.364 . S
C347 C348 1.374 . S
C348 H339 0.930 . S
C348 C347 1.374 . S
C348 C349 1.383 . S
C349 O343 1.412 . S
C349 C348 1.383 . S
C349 C350 1.394 . S
C350 H340 0.929 . S
C350 C346 1.377 . S
C350 C349 1.394 . S
H351 C358 0.929 . S
H352 C361 0.930 . S
H353 C363 0.929 . S
H354 C355 0.969 . S
C355 H354 0.969 . S
C355 O356 1.550 . S
C355 H357 0.973 . S
O356 C355 1.550 . S
O356 C362 1.412 . S
H357 C355 0.973 . S
C358 H351 0.929 . S
C358 C359 1.400 . S
C358 C360 1.364 . S
C359 C358 1.400 . S
C359 C363 1.377 . S
C360 C358 1.364 . S
C360 C361 1.374 . S
C361 H352 0.930 . S
C361 C360 1.374 . S
C361 C362 1.383 . S
C362 O356 1.412 . S
C362 C361 1.383 . S
C362 C363 1.394 . S
C363 H353 0.929 . S
C363 C359 1.377 . S
C363 C362 1.394 . S
H364 C371 0.929 . S
H365 C374 0.930 . S
H366 C376 0.929 . S
H367 C368 0.969 . S
C368 H367 0.969 . S
C368 O369 1.550 . S
C368 H370 0.973 . S
O369 C368 1.550 . S
O369 C375 1.412 . S
H370 C368 0.973 . S
C371 H364 0.929 . S
C371 C372 1.400 . S
C371 C373 1.364 . S
C372 C371 1.400 . S
C372 C376 1.377 . S
C373 C371 1.364 . S
C373 C374 1.374 . S
C374 H365 0.930 . S
C374 C373 1.374 . S
C374 C375 1.383 . S
C375 O369 1.412 . S
C375 C374 1.383 . S
C375 C376 1.394 . S
C376 H366 0.929 . S
C376 C372 1.377 . S
C376 C375 1.394 . S
H377 C384 0.929 . S
H378 C387 0.930 . S
H379 C389 0.929 . S
H380 C381 0.969 . S
C381 H380 0.969 . S
C381 O382 1.550 . S
C381 H383 0.973 . S
O382 C381 1.550 . S
O382 C388 1.412 . S
H383 C381 0.973 . S
C384 H377 0.929 . S
C384 C385 1.400 . S
C384 C386 1.364 . S
C385 C384 1.400 . S
C385 C389 1.377 . S
C386 C384 1.364 . S
C386 C387 1.374 . S
C387 H378 0.930 . S
C387 C386 1.374 . S
C387 C388 1.383 . S
C388 O382 1.412 . S
C388 C387 1.383 . S
C388 C389 1.394 . S
C389 H379 0.929 . S
C389 C385 1.377 . S
C389 C388 1.394 . S
H390 C397 0.929 . S
H391 C400 0.930 . S
H392 C402 0.929 . S
H393 C394 0.969 . S
C394 H393 0.969 . S
C394 O395 1.550 . S
C394 H396 0.973 . S
O395 C394 1.550 . S
O395 C401 1.412 . S
H396 C394 0.973 . S
C397 H390 0.929 . S
C397 C398 1.400 . S
C397 C399 1.364 . S
C398 C397 1.400 . S
C398 C402 1.377 . S
C399 C397 1.364 . S
C399 C400 1.374 . S
C400 H391 0.930 . S
C400 C399 1.374 . S
C400 C401 1.383 . S
C401 O395 1.412 . S
C401 C400 1.383 . S
C401 C402 1.394 . S
C402 H392 0.929 . S
C402 C398 1.377 . S
C402 C401 1.394 . S
H403 C410 0.929 . S
H404 C413 0.930 . S
H405 C415 0.929 . S
H406 C407 0.969 . S
C407 H406 0.969 . S
C407 O408 1.550 . S
C407 H409 0.973 . S
O408 C407 1.550 . S
O408 C414 1.412 . S
H409 C407 0.973 . S
C410 H403 0.929 . S
C410 C411 1.400 . S
C410 C412 1.364 . S
C411 C410 1.400 . S
C411 C415 1.377 . S
C412 C410 1.364 . S
C412 C413 1.374 . S
C413 H404 0.930 . S
C413 C412 1.374 . S
C413 C414 1.383 . S
C414 O408 1.412 . S
C414 C413 1.383 . S
C414 C415 1.394 . S
C415 H405 0.929 . S
C415 C411 1.377 . S
C415 C414 1.394 . S
Cu416 N417 1.999 . S
Cu416 O422 1.974 . S
Cu416 N427 1.985 . S
Cu416 O436 1.959 . S
N417 Cu416 1.999 . S
N417 C419 1.263 . S
N417 C421 1.389 . S
N418 C419 1.358 . S
N418 C420 1.400 . S
C419 N417 1.263 . S
C419 N418 1.358 . S
C419 H425 0.930 . S
C420 N418 1.400 . S
C420 C421 1.351 . S
C420 H437 0.930 . S
C421 N417 1.389 . S
C421 C420 1.351 . S
C421 H426 0.930 . S
O422 Cu416 1.974 . S
O422 C432 1.282 . S
C423 O424 1.261 . S
C423 O436 1.251 . S
O424 C423 1.261 . S
H425 C419 0.930 . S
H426 C421 0.930 . S
N427 Cu416 1.985 . S
N427 C429 1.335 . S
N427 C430 1.390 . S
N428 C429 1.345 . S
N428 C431 1.336 . S
C429 N427 1.335 . S
C429 N428 1.345 . S
C429 H434 0.930 . S
C430 N427 1.390 . S
C430 C431 1.346 . S
C430 H435 0.930 . S
C431 N428 1.336 . S
C431 C430 1.346 . S
C431 H438 0.929 . S
C432 O422 1.282 . S
C432 O433 1.216 . S
O433 C432 1.216 . S
H434 C429 0.930 . S
H435 C430 0.930 . S
O436 Cu416 1.959 . S
O436 C423 1.251 . S
H437 C420 0.930 . S
H438 C431 0.929 . S
Cu439 N440 1.999 . S
Cu439 O445 1.974 . S
Cu439 N450 1.985 . S
Cu439 O459 1.966 1_554 S
N440 Cu439 1.999 . S
N440 C442 1.263 . S
N440 C444 1.389 . S
N441 C442 1.358 . S
N441 C443 1.400 . S
C442 N440 1.263 . S
C442 N441 1.358 . S
C442 H448 0.930 . S
C443 N441 1.400 . S
C443 C444 1.351 . S
C443 H460 0.930 . S
C444 N440 1.389 . S
C444 C443 1.351 . S
C444 H449 0.930 . S
O445 Cu439 1.974 . S
O445 C455 1.282 . S
C446 O447 1.261 1_556 S
C446 O459 1.248 . S
O447 C446 1.261 1_554 S
H448 C442 0.930 . S
H449 C444 0.930 . S
N450 Cu439 1.985 . S
N450 C452 1.335 1_554 S
N450 C453 1.390 . S
N451 C452 1.345 . S
N451 C454 1.336 . S
C452 N450 1.335 1_556 S
C452 N451 1.345 . S
C452 H457 0.930 . S
C453 N450 1.390 . S
C453 C454 1.346 1_554 S
C453 H458 0.930 . S
C454 N451 1.336 . S
C454 C453 1.346 1_556 S
C454 H461 0.929 . S
C455 O445 1.282 . S
C455 O456 1.216 . S
O456 C455 1.216 . S
H457 C452 0.930 . S
H458 C453 0.930 . S
O459 Cu439 1.966 1_556 S
O459 C446 1.248 . S
H460 C443 0.930 . S
H461 C454 0.929 . S
Cu462 N463 1.999 . S
Cu462 O468 1.974 . S
Cu462 N473 1.985 . S
Cu462 O482 1.959 . S
N463 Cu462 1.999 . S
N463 C465 1.263 . S
N463 C467 1.389 . S
N464 C465 1.351 1_556 S
N464 C466 1.391 1_556 S
C465 N463 1.263 . S
C465 N464 1.351 1_554 S
C465 H471 0.930 . S
C466 N464 1.391 1_554 S
C466 C467 1.351 . S
C466 H483 0.930 . S
C467 N463 1.389 . S
C467 C466 1.351 . S
C467 H472 0.930 . S
O468 Cu462 1.974 . S
O468 C478 1.282 . S
C469 O470 1.261 . S
C469 O482 1.251 . S
O470 C469 1.261 . S
H471 C465 0.930 . S
H472 C467 0.930 . S
N473 Cu462 1.985 . S
N473 C475 1.335 . S
N473 C476 1.390 . S
N474 C475 1.345 . S
N474 C477 1.336 . S
C475 N473 1.335 . S
C475 N474 1.345 . S
C475 H480 0.930 . S
C476 N473 1.390 . S
C476 C477 1.346 . S
C476 H481 0.930 . S
C477 N474 1.336 . S
C477 C476 1.346 . S
C477 H484 0.929 . S
C478 O468 1.282 . S
C478 O479 1.216 . S
O479 C478 1.216 . S
H480 C475 0.930 . S
H481 C476 0.930 . S
O482 Cu462 1.959 . S
O482 C469 1.251 . S
H483 C466 0.930 . S
H484 C477 0.929 . S
Cu485 N486 1.948 1_556 S
Cu485 O491 1.914 1_556 S
Cu485 N496 2.036 . S
Cu485 O505 2.019 . S
N486 Cu485 1.948 1_554 S
N486 C488 1.263 . S
N486 C490 1.389 . S
N487 C488 1.358 . S
N487 C489 1.400 . S
C488 N486 1.263 . S
C488 N487 1.358 . S
C488 H494 0.930 . S
C489 N487 1.400 . S
C489 C490 1.351 . S
C489 H506 0.930 . S
C490 N486 1.389 . S
C490 C489 1.351 . S
C490 H495 0.995 . S
O491 Cu485 1.914 1_554 S
O491 C501 1.282 . S
C492 O493 1.261 . S
C492 O505 1.251 . S
O493 C492 1.261 . S
H494 C488 0.930 . S
H495 C490 0.995 . S
N496 Cu485 2.036 . S
N496 C498 1.335 . S
N496 C499 1.390 . S
N497 C498 1.345 . S
N497 C500 1.336 . S
C498 N496 1.335 . S
C498 N497 1.345 . S
C498 H503 0.930 . S
C499 N496 1.390 . S
C499 C500 1.346 . S
C499 H504 0.998 . S
C500 N497 1.336 . S
C500 C499 1.346 . S
C500 H507 0.929 . S
C501 O491 1.282 . S
C501 O502 1.216 . S
O502 C501 1.216 . S
H503 C498 0.930 . S
H504 C499 0.998 . S
O505 Cu485 2.019 . S
O505 C492 1.251 . S
H506 C489 0.930 . S
H507 C500 0.929 . S
Cu508 N509 1.999 . S
Cu508 O514 1.974 . S
Cu508 N519 1.956 1_455 S
Cu508 O528 1.959 1_455 S
N509 Cu508 1.999 . S
N509 C511 1.263 . S
N509 C513 1.389 . S
N510 C511 1.358 . S
N510 C512 1.400 . S
C511 N509 1.263 . S
C511 N510 1.358 . S
C511 H517 0.930 . S
C512 N510 1.400 . S
C512 C513 1.351 . S
C512 H529 0.930 . S
C513 N509 1.389 . S
C513 C512 1.351 . S
C513 H518 0.930 . S
O514 Cu508 1.974 . S
O514 C524 1.282 . S
C515 O516 1.261 . S
C515 O528 1.251 . S
O516 C515 1.261 . S
H517 C511 0.930 . S
H518 C513 0.930 . S
N519 Cu508 1.956 1_655 S
N519 C521 1.379 . S
N519 C522 1.382 1_655 S
N520 C521 1.345 . S
N520 C523 1.336 . S
C521 N519 1.379 . S
C521 N520 1.345 . S
C521 H526 0.930 . S
C522 N519 1.382 1_455 S
C522 C523 1.346 1_455 S
C522 H527 0.930 . S
C523 N520 1.336 . S
C523 C522 1.346 1_655 S
C523 H530 0.929 . S
C524 O514 1.282 . S
C524 O525 1.216 . S
O525 C524 1.216 . S
H526 C521 0.930 . S
H527 C522 0.930 . S
O528 Cu508 1.959 1_655 S
O528 C515 1.251 . S
H529 C512 0.930 . S
H530 C523 0.929 . S
Cu531 N532 1.999 . S
Cu531 O537 1.974 . S
Cu531 N542 1.985 . S
Cu531 O551 1.959 . S
N532 Cu531 1.999 . S
N532 C534 1.263 . S
N532 C536 1.389 . S
N533 C534 1.358 . S
N533 C535 1.400 . S
C534 N532 1.263 . S
C534 N533 1.358 . S
C534 H540 0.930 . S
C535 N533 1.400 . S
C535 C536 1.351 . S
C535 H552 0.930 . S
C536 N532 1.389 . S
C536 C535 1.351 . S
C536 H541 0.930 . S
O537 Cu531 1.974 . S
O537 C547 1.282 . S
C538 O539 1.261 . S
C538 O551 1.251 . S
O539 C538 1.261 . S
H540 C534 0.930 . S
H541 C536 0.930 . S
N542 Cu531 1.985 . S
N542 C544 1.324 1_545 S
N542 C545 1.390 . S
N543 C544 1.349 . S
N543 C546 1.336 1_565 S
C544 N542 1.324 1_565 S
C544 N543 1.349 . S
C544 H549 0.935 . S
C545 N542 1.390 . S
C545 C546 1.346 . S
C545 H550 0.930 . S
C546 N543 1.336 1_545 S
C546 C545 1.346 . S
C546 H553 0.929 . S
C547 O537 1.282 . S
C547 O548 1.216 . S
O548 C547 1.216 . S
H549 C544 0.935 . S
H550 C545 0.930 . S
O551 Cu531 1.959 . S
O551 C538 1.251 . S
H552 C535 0.930 . S
H553 C546 0.929 . S
Cu554 N555 1.999 1_455 S
Cu554 O560 1.974 1_455 S
Cu554 N565 1.985 . S
Cu554 O574 1.959 . S
N555 Cu554 1.999 1_655 S
N555 C557 1.263 . S
N555 C559 1.389 . S
N556 C557 1.358 . S
N556 C558 1.400 . S
C557 N555 1.263 . S
C557 N556 1.358 . S
C557 H563 0.930 . S
C558 N556 1.400 . S
C558 C559 1.351 . S
C558 H575 0.930 . S
C559 N555 1.389 . S
C559 C558 1.351 . S
C559 H564 0.930 . S
O560 Cu554 1.974 1_655 S
O560 C570 1.282 . S
C561 O562 1.261 . S
C561 O574 1.251 . S
O562 C561 1.261 . S
H563 C557 0.930 . S
H564 C559 0.930 . S
N565 Cu554 1.985 . S
N565 C567 1.335 . S
N565 C568 1.390 . S
N566 C567 1.345 . S
N566 C569 1.336 . S
C567 N565 1.335 . S
C567 N566 1.345 . S
C567 H572 0.930 . S
C568 N565 1.390 . S
C568 C569 1.346 . S
C568 H573 0.930 . S
C569 N566 1.336 . S
C569 C568 1.346 . S
C569 H576 0.929 . S
C570 O560 1.282 . S
C570 O571 1.216 . S
O571 C570 1.216 . S
H572 C567 0.930 . S
H573 C568 0.930 . S
O574 Cu554 1.959 . S
O574 C561 1.251 . S
H575 C558 0.930 . S
H576 C569 0.929 . S
Cu577 N578 2.037 . S
Cu577 O583 2.022 . S
Cu577 N588 1.949 1_545 S
Cu577 O597 1.912 1_545 S
N578 Cu577 2.037 . S
N578 C580 1.263 . S
N578 C582 1.389 . S
N579 C580 1.358 . S
N579 C581 1.400 . S
C580 N578 1.263 . S
C580 N579 1.358 . S
C580 H586 0.930 . S
C581 N579 1.400 . S
C581 C582 1.351 . S
C581 H598 0.930 . S
C582 N578 1.389 . S
C582 C581 1.351 . S
C582 H587 0.930 . S
O583 Cu577 2.022 . S
O583 C593 1.282 . S
C584 O585 1.261 . S
C584 O597 1.251 . S
O585 C584 1.261 . S
H586 C580 0.930 . S
H587 C582 0.930 . S
N588 Cu577 1.949 1_565 S
N588 C590 1.335 . S
N588 C591 1.390 . S
N589 C590 1.345 . S
N589 C592 1.336 . S
C590 N588 1.335 . S
C590 N589 1.345 . S
C590 H595 0.930 . S
C591 N588 1.390 . S
C591 C592 1.346 . S
C591 H596 0.930 . S
C592 N589 1.336 . S
C592 C591 1.346 . S
C592 H599 0.929 . S
C593 O583 1.282 . S
C593 O594 1.216 . S
O594 C593 1.216 . S
H595 C590 0.930 . S
H596 C591 0.930 . S
O597 Cu577 1.912 1_565 S
O597 C584 1.251 . S
H598 C581 0.930 . S
H599 C592 0.929 . S
Cu600 N601 1.999 . S
Cu600 O606 1.974 . S
Cu600 N611 1.985 . S
Cu600 O620 1.959 1_455 S
N601 Cu600 1.999 . S
N601 C603 1.263 . S
N601 C605 1.389 . S
N602 C603 1.358 . S
N602 C604 1.400 . S
C603 N601 1.263 . S
C603 N602 1.358 . S
C603 H609 0.930 . S
C604 N602 1.400 . S
C604 C605 1.351 . S
C604 H621 0.930 . S
C605 N601 1.389 . S
C605 C604 1.351 . S
C605 H610 0.930 . S
O606 Cu600 1.974 . S
O606 C616 1.282 . S
C607 O608 1.261 . S
C607 O620 1.251 . S
O608 C607 1.261 . S
H609 C603 0.930 . S
H610 C605 0.930 . S
N611 Cu600 1.985 . S
N611 C613 1.335 1_455 S
N611 C614 1.390 . S
N612 C613 1.345 . S
N612 C615 1.336 . S
C613 N611 1.335 1_655 S
C613 N612 1.345 . S
C613 H618 0.930 . S
C614 N611 1.390 . S
C614 C615 1.346 1_455 S
C614 H619 0.930 . S
C615 N612 1.336 . S
C615 C614 1.346 1_655 S
C615 H622 0.929 . S
C616 O606 1.282 . S
C616 O617 1.216 . S
O617 C616 1.216 . S
H618 C613 0.930 . S
H619 C614 0.930 . S
O620 Cu600 1.959 1_655 S
O620 C607 1.251 . S
H621 C604 0.930 . S
H622 C615 0.929 . S
Cu623 N624 1.999 . S
Cu623 O629 1.974 . S
Cu623 N634 1.985 . S
Cu623 O643 1.959 . S
N624 Cu623 1.999 . S
N624 C626 1.263 . S
N624 C628 1.389 . S
N625 C626 1.358 . S
N625 C627 1.400 . S
C626 N624 1.263 . S
C626 N625 1.358 . S
C626 H632 0.930 . S
C627 N625 1.400 . S
C627 C628 1.351 . S
C627 H644 0.930 . S
C628 N624 1.389 . S
C628 C627 1.351 . S
C628 H633 0.930 . S
O629 Cu623 1.974 . S
O629 C639 1.282 . S
C630 O631 1.261 . S
C630 O643 1.251 . S
O631 C630 1.261 . S
H632 C626 0.930 . S
H633 C628 0.930 . S
N634 Cu623 1.985 . S
N634 C636 1.335 . S
N634 C637 1.390 . S
N635 C636 1.345 . S
N635 C638 1.336 . S
C636 N634 1.335 . S
C636 N635 1.345 . S
C636 H641 0.930 . S
C637 N634 1.390 . S
C637 C638 1.346 . S
C637 H642 0.930 . S
C638 N635 1.336 . S
C638 C637 1.346 . S
C638 H645 0.929 . S
C639 O629 1.282 . S
C639 O640 1.216 . S
O640 C639 1.216 . S
H641 C636 0.930 . S
H642 C637 0.930 . S
O643 Cu623 1.959 . S
O643 C630 1.251 . S
H644 C627 0.930 . S
H645 C638 0.929 . S
Cu646 N647 1.999 . S
Cu646 O652 1.986 . S
Cu646 N657 1.985 . S
Cu646 O666 1.959 . S
N647 Cu646 1.999 . S
N647 C649 1.263 1_455 S
N647 C651 1.389 . S
N648 C649 1.358 . S
N648 C650 1.400 . S
C649 N647 1.263 1_655 S
C649 N648 1.358 . S
C649 H655 0.930 . S
C650 N648 1.400 . S
C650 C651 1.351 1_655 S
C650 H667 0.930 . S
C651 N647 1.389 . S
C651 C650 1.351 1_455 S
C651 H656 0.930 . S
O652 Cu646 1.986 . S
O652 C662 1.275 1_455 S
C653 O654 1.261 . S
C653 O666 1.251 . S
O654 C653 1.261 . S
H655 C649 0.930 . S
H656 C651 0.930 . S
N657 Cu646 1.985 . S
N657 C659 1.335 . S
N657 C660 1.390 . S
N658 C659 1.345 . S
N658 C661 1.336 . S
C659 N657 1.335 . S
C659 N658 1.345 . S
C659 H664 0.930 . S
C660 N657 1.390 . S
C660 C661 1.346 . S
C660 H665 0.930 . S
C661 N658 1.336 . S
C661 C660 1.346 . S
C661 H668 0.929 . S
C662 O652 1.275 1_655 S
C662 O663 1.216 1_655 S
O663 C662 1.216 1_455 S
H664 C659 0.930 . S
H665 C660 0.930 . S
O666 Cu646 1.959 . S
O666 C653 1.251 . S
H667 C650 0.930 . S
H668 C661 0.929 . S
Cu669 N670 1.999 . S
Cu669 O675 1.974 . S
Cu669 N680 1.985 1_545 S
Cu669 O689 1.952 1_545 S
N670 Cu669 1.999 . S
N670 C672 1.263 . S
N670 C674 1.389 . S
N671 C672 1.358 . S
N671 C673 1.400 . S
C672 N670 1.263 . S
C672 N671 1.358 . S
C672 H678 0.930 . S
C673 N671 1.400 . S
C673 C674 1.351 . S
C673 H690 0.930 . S
C674 N670 1.389 . S
C674 C673 1.351 . S
C674 H679 0.930 . S
O675 Cu669 1.974 . S
O675 C685 1.282 . S
C676 O677 1.261 . S
C676 O689 1.255 . S
O677 C676 1.261 . S
H678 C672 0.930 . S
H679 C674 0.930 . S
N680 Cu669 1.985 1_565 S
N680 C682 1.335 . S
N680 C683 1.402 . S
N681 C682 1.345 . S
N681 C684 1.336 . S
C682 N680 1.335 . S
C682 N681 1.345 . S
C682 H687 0.930 . S
C683 N680 1.402 . S
C683 C684 1.392 . S
C683 H688 0.882 1_565 S
C684 N681 1.336 . S
C684 C683 1.392 . S
C684 H691 0.929 . S
C685 O675 1.282 . S
C685 O686 1.216 . S
O686 C685 1.216 . S
H687 C682 0.930 . S
H688 C683 0.882 1_545 S
O689 Cu669 1.952 1_565 S
O689 C676 1.255 . S
H690 C673 0.930 . S
H691 C684 0.929 . S
Cu692 N693 1.999 . S
Cu692 O698 1.974 . S
Cu692 N703 1.985 . S
Cu692 O712 1.959 . S
N693 Cu692 1.999 . S
N693 C695 1.263 . S
N693 C697 1.389 . S
N694 C695 1.358 . S
N694 C696 1.400 . S
C695 N693 1.263 . S
C695 N694 1.358 . S
C695 H701 0.930 . S
C696 N694 1.400 . S
C696 C697 1.351 . S
C696 H713 0.930 . S
C697 N693 1.389 . S
C697 C696 1.351 . S
C697 H702 0.930 . S
O698 Cu692 1.974 . S
O698 C708 1.282 . S
C699 O700 1.261 . S
C699 O712 1.251 . S
O700 C699 1.261 . S
H701 C695 0.930 . S
H702 C697 0.930 . S
N703 Cu692 1.985 . S
N703 C705 1.335 . S
N703 C706 1.390 . S
N704 C705 1.345 . S
N704 C707 1.336 . S
C705 N703 1.335 . S
C705 N704 1.345 . S
C705 H710 0.930 . S
C706 N703 1.390 . S
C706 C707 1.346 . S
C706 H711 0.930 . S
C707 N704 1.336 . S
C707 C706 1.346 . S
C707 H714 0.929 . S
C708 O698 1.282 . S
C708 O709 1.216 . S
O709 C708 1.216 . S
H710 C705 0.930 . S
H711 C706 0.930 . S
O712 Cu692 1.959 . S
O712 C699 1.251 . S
H713 C696 0.930 . S
H714 C707 0.929 . S
Cu715 N716 1.999 . S
Cu715 O721 1.974 . S
Cu715 N726 1.985 . S
Cu715 O735 1.959 . S
N716 Cu715 1.999 . S
N716 C718 1.263 . S
N716 C720 1.389 . S
N717 C718 1.358 . S
N717 C719 1.400 . S
C718 N716 1.263 . S
C718 N717 1.358 . S
C718 H724 0.930 . S
C719 N717 1.400 . S
C719 C720 1.351 . S
C719 H736 0.930 . S
C720 N716 1.389 . S
C720 C719 1.351 . S
C720 H725 0.930 . S
O721 Cu715 1.974 . S
O721 C731 1.282 . S
C722 O723 1.261 . S
C722 O735 1.251 . S
O723 C722 1.261 . S
H724 C718 0.930 . S
H725 C720 0.930 . S
N726 Cu715 1.985 . S
N726 C728 1.335 . S
N726 C729 1.390 . S
N727 C728 1.345 . S
N727 C730 1.336 . S
C728 N726 1.335 . S
C728 N727 1.345 . S
C728 H733 0.930 . S
C729 N726 1.390 . S
C729 C730 1.346 . S
C729 H734 0.930 . S
C730 N727 1.336 . S
C730 C729 1.346 . S
C730 H737 0.929 . S
C731 O721 1.282 . S
C731 O732 1.216 . S
O732 C731 1.216 . S
H733 C728 0.930 . S
H734 C729 0.930 . S
O735 Cu715 1.959 . S
O735 C722 1.251 . S
H736 C719 0.930 . S
H737 C730 0.929 . S
Cu738 N739 1.999 . S
Cu738 O744 1.974 . S
Cu738 N749 1.985 . S
Cu738 O758 1.959 . S
N739 Cu738 1.999 . S
N739 C741 1.263 . S
N739 C743 1.389 . S
N740 C741 1.358 . S
N740 C742 1.400 . S
C741 N739 1.263 . S
C741 N740 1.358 . S
C741 H747 0.930 . S
C742 N740 1.400 . S
C742 C743 1.351 . S
C742 H759 0.930 . S
C743 N739 1.389 . S
C743 C742 1.351 . S
C743 H748 0.930 . S
O744 Cu738 1.974 . S
O744 C754 1.282 . S
C745 O746 1.261 . S
C745 O758 1.251 . S
O746 C745 1.261 . S
H747 C741 0.930 . S
H748 C743 0.930 . S
N749 Cu738 1.985 . S
N749 C751 1.335 . S
N749 C752 1.390 . S
N750 C751 1.345 . S
N750 C753 1.336 . S
C751 N749 1.335 . S
C751 N750 1.345 . S
C751 H756 0.930 . S
C752 N749 1.390 . S
C752 C753 1.346 . S
C752 H757 0.930 . S
C753 N750 1.336 . S
C753 C752 1.346 . S
C753 H760 0.929 . S
C754 O744 1.282 . S
C754 O755 1.216 . S
O755 C754 1.216 . S
H756 C751 0.930 . S
H757 C752 0.930 . S
O758 Cu738 1.959 . S
O758 C745 1.251 . S
H759 C742 0.930 . S
H760 C753 0.929 . S
Cu761 N762 1.999 . S
Cu761 O767 1.974 . S
Cu761 N772 1.985 . S
Cu761 O781 1.959 . S
N762 Cu761 1.999 . S
N762 C764 1.263 . S
N762 C766 1.389 . S
N763 C764 1.358 . S
N763 C765 1.400 . S
C764 N762 1.263 . S
C764 N763 1.358 . S
C764 H770 0.930 . S
C765 N763 1.400 . S
C765 C766 1.351 . S
C765 H782 0.930 . S
C766 N762 1.389 . S
C766 C765 1.351 . S
C766 H771 0.930 . S
O767 Cu761 1.974 . S
O767 C777 1.282 . S
C768 O769 1.261 . S
C768 O781 1.251 . S
O769 C768 1.261 . S
H770 C764 0.930 . S
H771 C766 0.930 . S
N772 Cu761 1.985 . S
N772 C774 1.335 . S
N772 C775 1.390 . S
N773 C774 1.345 . S
N773 C776 1.336 . S
C774 N772 1.335 . S
C774 N773 1.345 . S
C774 H779 0.930 . S
C775 N772 1.390 . S
C775 C776 1.346 . S
C775 H780 0.930 . S
C776 N773 1.336 . S
C776 C775 1.346 . S
C776 H783 0.929 . S
C777 O767 1.282 . S
C777 O778 1.216 . S
O778 C777 1.216 . S
H779 C774 0.930 . S
H780 C775 0.930 . S
O781 Cu761 1.959 . S
O781 C768 1.251 . S
H782 C765 0.930 . S
H783 C776 0.929 . S
Cu784 N785 1.999 . S
Cu784 O790 1.974 . S
Cu784 N795 1.985 . S
Cu784 O804 1.959 . S
N785 Cu784 1.999 . S
N785 C787 1.263 . S
N785 C789 1.389 . S
N786 C787 1.358 . S
N786 C788 1.400 . S
C787 N785 1.263 . S
C787 N786 1.358 . S
C787 H793 0.930 . S
C788 N786 1.400 . S
C788 C789 1.351 . S
C788 H805 0.930 . S
C789 N785 1.389 . S
C789 C788 1.351 . S
C789 H794 0.930 . S
O790 Cu784 1.974 . S
O790 C800 1.282 . S
C791 O792 1.261 . S
C791 O804 1.251 . S
O792 C791 1.261 . S
H793 C787 0.930 . S
H794 C789 0.930 . S
N795 Cu784 1.985 . S
N795 C797 1.335 . S
N795 C798 1.390 . S
N796 C797 1.345 . S
N796 C799 1.336 . S
C797 N795 1.335 . S
C797 N796 1.345 . S
C797 H802 0.930 . S
C798 N795 1.390 . S
C798 C799 1.346 . S
C798 H803 0.930 . S
C799 N796 1.336 . S
C799 C798 1.346 . S
C799 H806 0.929 . S
C800 O790 1.282 . S
C800 O801 1.216 . S
O801 C800 1.216 . S
H802 C797 0.930 . S
H803 C798 0.930 . S
O804 Cu784 1.959 . S
O804 C791 1.251 . S
H805 C788 0.930 . S
H806 C799 0.929 . S
Cu807 N808 1.999 . S
Cu807 O813 1.974 . S
Cu807 N818 1.985 . S
Cu807 O827 1.959 . S
N808 Cu807 1.999 . S
N808 C810 1.263 . S
N808 C812 1.389 . S
N809 C810 1.358 . S
N809 C811 1.400 . S
C810 N808 1.263 . S
C810 N809 1.358 . S
C810 H816 0.930 . S
C811 N809 1.400 . S
C811 C812 1.351 . S
C811 H828 0.930 . S
C812 N808 1.389 . S
C812 C811 1.351 . S
C812 H817 0.930 . S
O813 Cu807 1.974 . S
O813 C823 1.282 . S
C814 O815 1.261 . S
C814 O827 1.251 . S
O815 C814 1.261 . S
H816 C810 0.930 . S
H817 C812 0.930 . S
N818 Cu807 1.985 . S
N818 C820 1.335 . S
N818 C821 1.390 . S
N819 C820 1.345 . S
N819 C822 1.336 . S
C820 N818 1.335 . S
C820 N819 1.345 . S
C820 H825 0.930 . S
C821 N818 1.390 . S
C821 C822 1.346 . S
C821 H826 0.930 . S
C822 N819 1.336 . S
C822 C821 1.346 . S
C822 H829 0.929 . S
C823 O813 1.282 . S
C823 O824 1.216 . S
O824 C823 1.216 . S
H825 C820 0.930 . S
H826 C821 0.930 . S
O827 Cu807 1.959 . S
O827 C814 1.251 . S
H828 C811 0.930 . S
H829 C822 0.929 . S
Cu830 N831 1.999 . S
Cu830 O836 1.974 . S
Cu830 N841 1.985 . S
Cu830 O850 1.959 . S
N831 Cu830 1.999 . S
N831 C833 1.263 . S
N831 C835 1.389 . S
N832 C833 1.358 . S
N832 C834 1.400 . S
C833 N831 1.263 . S
C833 N832 1.358 . S
C833 H839 0.930 . S
C834 N832 1.400 . S
C834 C835 1.351 . S
C834 H851 0.930 . S
C835 N831 1.389 . S
C835 C834 1.351 . S
C835 H840 0.930 . S
O836 Cu830 1.974 . S
O836 C846 1.282 . S
C837 O838 1.261 . S
C837 O850 1.251 . S
O838 C837 1.261 . S
H839 C833 0.930 . S
H840 C835 0.930 . S
N841 Cu830 1.985 . S
N841 C843 1.335 . S
N841 C844 1.390 . S
N842 C843 1.345 . S
N842 C845 1.336 . S
C843 N841 1.335 . S
C843 N842 1.345 . S
C843 H848 0.930 . S
C844 N841 1.390 . S
C844 C845 1.346 . S
C844 H849 0.930 . S
C845 N842 1.336 . S
C845 C844 1.346 . S
C845 H852 0.929 . S
C846 O836 1.282 . S
C846 O847 1.216 . S
O847 C846 1.216 . S
H848 C843 0.930 . S
H849 C844 0.930 . S
O850 Cu830 1.959 . S
O850 C837 1.251 . S
H851 C834 0.930 . S
H852 C845 0.929 . S
Cu853 N854 1.999 . S
Cu853 O859 1.974 . S
Cu853 N864 1.985 . S
Cu853 O873 1.959 . S
N854 Cu853 1.999 . S
N854 C856 1.263 . S
N854 C858 1.389 . S
N855 C856 1.358 . S
N855 C857 1.400 . S
C856 N854 1.263 . S
C856 N855 1.358 . S
C856 H862 0.930 . S
C857 N855 1.400 . S
C857 C858 1.351 . S
C857 H874 0.930 . S
C858 N854 1.389 . S
C858 C857 1.351 . S
C858 H863 0.930 . S
O859 Cu853 1.974 . S
O859 C869 1.282 . S
C860 O861 1.261 . S
C860 O873 1.251 . S
O861 C860 1.261 . S
H862 C856 0.930 . S
H863 C858 0.930 . S
N864 Cu853 1.985 . S
N864 C866 1.335 . S
N864 C867 1.390 . S
N865 C866 1.345 . S
N865 C868 1.336 . S
C866 N864 1.335 . S
C866 N865 1.345 . S
C866 H871 0.930 . S
C867 N864 1.390 . S
C867 C868 1.346 . S
C867 H872 0.930 . S
C868 N865 1.336 . S
C868 C867 1.346 . S
C868 H875 0.929 . S
C869 O859 1.282 . S
C869 O870 1.216 . S
O870 C869 1.216 . S
H871 C866 0.930 . S
H872 C867 0.930 . S
O873 Cu853 1.959 . S
O873 C860 1.251 . S
H874 C857 0.930 . S
H875 C868 0.929 . S
Cu876 N877 1.999 . S
Cu876 O882 1.974 . S
Cu876 N887 1.985 . S
Cu876 O896 1.959 . S
N877 Cu876 1.999 . S
N877 C879 1.263 . S
N877 C881 1.389 . S
N878 C879 1.358 . S
N878 C880 1.400 . S
C879 N877 1.263 . S
C879 N878 1.358 . S
C879 H885 0.930 . S
C880 N878 1.400 . S
C880 C881 1.351 . S
C880 H897 0.930 . S
C881 N877 1.389 . S
C881 C880 1.351 . S
C881 H886 0.930 . S
O882 Cu876 1.974 . S
O882 C892 1.282 . S
C883 O884 1.261 . S
C883 O896 1.251 . S
O884 C883 1.261 . S
H885 C879 0.930 . S
H886 C881 0.930 . S
N887 Cu876 1.985 . S
N887 C889 1.335 . S
N887 C890 1.390 . S
N888 C889 1.345 . S
N888 C891 1.336 . S
C889 N887 1.335 . S
C889 N888 1.345 . S
C889 H894 0.930 . S
C890 N887 1.390 . S
C890 C891 1.346 . S
C890 H895 0.930 . S
C891 N888 1.336 . S
C891 C890 1.346 . S
C891 H898 0.929 . S
C892 O882 1.282 . S
C892 O893 1.216 . S
O893 C892 1.216 . S
H894 C889 0.930 . S
H895 C890 0.930 . S
O896 Cu876 1.959 . S
O896 C883 1.251 . S
H897 C880 0.930 . S
H898 C891 0.929 . S
Cu899 N900 1.999 . S
Cu899 O905 1.974 . S
Cu899 N910 1.985 . S
Cu899 O919 1.959 . S
N900 Cu899 1.999 . S
N900 C902 1.263 . S
N900 C904 1.389 . S
N901 C902 1.358 . S
N901 C903 1.400 . S
C902 N900 1.263 . S
C902 N901 1.358 . S
C902 H908 0.930 . S
C903 N901 1.400 . S
C903 C904 1.351 . S
C903 H920 0.930 . S
C904 N900 1.389 . S
C904 C903 1.351 . S
C904 H909 0.930 . S
O905 Cu899 1.974 . S
O905 C915 1.282 . S
C906 O907 1.261 . S
C906 O919 1.251 . S
O907 C906 1.261 . S
H908 C902 0.930 . S
H909 C904 0.930 . S
N910 Cu899 1.985 . S
N910 C912 1.335 . S
N910 C913 1.390 . S
N911 C912 1.345 . S
N911 C914 1.336 . S
C912 N910 1.335 . S
C912 N911 1.345 . S
C912 H917 0.930 . S
C913 N910 1.390 . S
C913 C914 1.346 . S
C913 H918 0.930 . S
C914 N911 1.336 . S
C914 C913 1.346 . S
C914 H921 0.929 . S
C915 O905 1.282 . S
C915 O916 1.216 . S
O916 C915 1.216 . S
H917 C912 0.930 . S
H918 C913 0.930 . S
O919 Cu899 1.959 . S
O919 C906 1.251 . S
H920 C903 0.930 . S
H921 C914 0.929 . S
Cu922 N923 1.999 . S
Cu922 O928 1.974 . S
Cu922 N933 1.985 . S
Cu922 O942 1.959 . S
N923 Cu922 1.999 . S
N923 C925 1.263 . S
N923 C927 1.389 . S
N924 C925 1.358 . S
N924 C926 1.400 . S
C925 N923 1.263 . S
C925 N924 1.358 . S
C925 H931 0.930 . S
C926 N924 1.400 . S
C926 C927 1.351 . S
C926 H943 0.930 . S
C927 N923 1.389 . S
C927 C926 1.351 . S
C927 H932 0.930 . S
O928 Cu922 1.974 . S
O928 C938 1.282 . S
C929 O930 1.261 . S
C929 O942 1.251 . S
O930 C929 1.261 . S
H931 C925 0.930 . S
H932 C927 0.930 . S
N933 Cu922 1.985 . S
N933 C935 1.335 . S
N933 C936 1.390 . S
N934 C935 1.345 . S
N934 C937 1.336 . S
C935 N933 1.335 . S
C935 N934 1.345 . S
C935 H940 0.930 . S
C936 N933 1.390 . S
C936 C937 1.346 . S
C936 H941 0.930 . S
C937 N934 1.336 . S
C937 C936 1.346 . S
C937 H944 0.929 . S
C938 O928 1.282 . S
C938 O939 1.216 . S
O939 C938 1.216 . S
H940 C935 0.930 . S
H941 C936 0.930 . S
O942 Cu922 1.959 . S
O942 C929 1.251 . S
H943 C926 0.930 . S
H944 C937 0.929 . S
Cu945 N946 1.999 . S
Cu945 O951 1.974 . S
Cu945 N956 1.985 . S
Cu945 O965 1.959 . S
N946 Cu945 1.999 . S
N946 C948 1.263 . S
N946 C950 1.389 . S
N947 C948 1.358 . S
N947 C949 1.400 . S
C948 N946 1.263 . S
C948 N947 1.358 . S
C948 H954 0.930 . S
C949 N947 1.400 . S
C949 C950 1.351 . S
C949 H966 0.930 . S
C950 N946 1.389 . S
C950 C949 1.351 . S
C950 H955 0.930 . S
O951 Cu945 1.974 . S
O951 C961 1.282 . S
C952 O953 1.261 . S
C952 O965 1.251 . S
O953 C952 1.261 . S
H954 C948 0.930 . S
H955 C950 0.930 . S
N956 Cu945 1.985 . S
N956 C958 1.335 . S
N956 C959 1.390 . S
N957 C958 1.345 . S
N957 C960 1.336 . S
C958 N956 1.335 . S
C958 N957 1.345 . S
C958 H963 0.930 . S
C959 N956 1.390 . S
C959 C960 1.346 . S
C959 H964 0.930 . S
C960 N957 1.336 . S
C960 C959 1.346 . S
C960 H967 0.929 . S
C961 O951 1.282 . S
C961 O962 1.216 . S
O962 C961 1.216 . S
H963 C958 0.930 . S
H964 C959 0.930 . S
O965 Cu945 1.959 . S
O965 C952 1.251 . S
H966 C949 0.930 . S
H967 C960 0.929 . S
C968 C969 1.349 . S
C968 C970 1.327 . S
C968 H993 0.950 . S
C969 C968 1.349 . S
C969 C985 1.349 . S
C970 C968 1.327 . S
C970 C989 1.429 . S
C970 H994 0.950 . S
C971 C988 1.574 . S
C971 C990 1.368 . S
C971 H995 0.949 . S
H972 C976 0.949 . S
C973 C974 1.349 . S
C973 C975 1.327 . S
C973 H996 0.950 . S
C974 C973 1.349 . S
C974 C986 1.349 . S
C975 C973 1.327 . S
C975 C991 1.429 . S
C975 H997 0.950 . S
C976 H972 0.949 . S
C976 C984 1.574 . S
C976 C992 1.368 . S
H977 C985 0.950 . S
H978 C983 0.950 . S
H979 C984 0.949 . S
H980 C986 0.950 . S
H981 C987 0.950 . S
H982 C988 0.949 . S
C983 H978 0.950 . S
C983 C985 1.327 . S
C983 C989 1.429 . S
C984 C976 1.574 . S
C984 H979 0.949 . S
C984 C990 1.368 . S
C985 C969 1.349 . S
C985 H977 0.950 . S
C985 C983 1.327 . S
C986 C974 1.349 . S
C986 H980 0.950 . S
C986 C987 1.327 . S
C987 H981 0.950 . S
C987 C986 1.327 . S
C987 C991 1.429 . S
C988 C971 1.574 . S
C988 H982 0.949 . S
C988 C992 1.368 . S
C989 C970 1.429 . S
C989 C983 1.429 . S
C989 C990 1.523 . S
C990 C971 1.368 . S
C990 C984 1.368 . S
C990 C989 1.523 . S
C991 C975 1.429 . S
C991 C987 1.429 . S
C991 C992 1.523 . S
C992 C976 1.368 . S
C992 C988 1.368 . S
C992 C991 1.523 . S
H993 C968 0.950 . S
H994 C970 0.950 . S
H995 C971 0.949 . S
H996 C973 0.950 . S
H997 C975 0.950 . S
C998 C999 1.349 . S
C998 C1000 1.327 . S
C998 H1023 0.950 . S
C999 C998 1.349 . S
C999 C1015 1.349 . S
C1000 C998 1.327 . S
C1000 C1019 1.429 . S
C1000 H1024 0.950 . S
C1001 C1018 1.574 . S
C1001 C1020 1.368 . S
C1001 H1025 0.949 . S
H1002 C1006 0.949 . S
C1003 C1004 1.349 . S
C1003 C1005 1.327 . S
C1003 H1026 0.950 . S
C1004 C1003 1.349 . S
C1004 C1016 1.349 . S
C1005 C1003 1.327 . S
C1005 C1021 1.429 . S
C1005 H1027 0.950 . S
C1006 H1002 0.949 . S
C1006 C1014 1.574 . S
C1006 C1022 1.368 . S
H1007 C1015 0.950 . S
H1008 C1013 0.950 . S
H1009 C1014 0.949 . S
H1010 C1016 0.950 . S
H1011 C1017 0.950 . S
H1012 C1018 0.949 . S
C1013 H1008 0.950 . S
C1013 C1015 1.327 . S
C1013 C1019 1.429 . S
C1014 C1006 1.574 . S
C1014 H1009 0.949 . S
C1014 C1020 1.368 . S
C1015 C999 1.349 . S
C1015 H1007 0.950 . S
C1015 C1013 1.327 . S
C1016 C1004 1.349 . S
C1016 H1010 0.950 . S
C1016 C1017 1.327 . S
C1017 H1011 0.950 . S
C1017 C1016 1.327 . S
C1017 C1021 1.429 . S
C1018 C1001 1.574 . S
C1018 H1012 0.949 . S
C1018 C1022 1.368 . S
C1019 C1000 1.429 . S
C1019 C1013 1.429 . S
C1019 C1020 1.523 . S
C1020 C1001 1.368 . S
C1020 C1014 1.368 . S
C1020 C1019 1.523 . S
C1021 C1005 1.429 . S
C1021 C1017 1.429 . S
C1021 C1022 1.523 . S
C1022 C1006 1.368 . S
C1022 C1018 1.368 . S
C1022 C1021 1.523 . S
H1023 C998 0.950 . S
H1024 C1000 0.950 . S
H1025 C1001 0.949 . S
H1026 C1003 0.950 . S
H1027 C1005 0.950 . S
C1028 C1029 1.349 . S
C1028 C1030 1.327 . S
C1028 H1053 0.950 . S
C1029 C1028 1.349 . S
C1029 C1045 1.349 . S
C1030 C1028 1.327 . S
C1030 C1049 1.429 . S
C1030 H1054 0.950 . S
C1031 C1048 1.574 . S
C1031 C1050 1.368 . S
C1031 H1055 0.949 . S
H1032 C1036 0.949 . S
C1033 C1034 1.349 . S
C1033 C1035 1.327 . S
C1033 H1056 0.950 . S
C1034 C1033 1.349 . S
C1034 C1046 1.349 . S
C1035 C1033 1.327 . S
C1035 C1051 1.429 . S
C1035 H1057 0.950 . S
C1036 H1032 0.949 . S
C1036 C1044 1.574 . S
C1036 C1052 1.368 . S
H1037 C1045 0.950 . S
H1038 C1043 0.950 . S
H1039 C1044 0.949 . S
H1040 C1046 0.950 . S
H1041 C1047 0.950 . S
H1042 C1048 0.949 . S
C1043 H1038 0.950 . S
C1043 C1045 1.327 . S
C1043 C1049 1.429 . S
C1044 C1036 1.574 . S
C1044 H1039 0.949 . S
C1044 C1050 1.368 . S
C1045 C1029 1.349 . S
C1045 H1037 0.950 . S
C1045 C1043 1.327 . S
C1046 C1034 1.349 . S
C1046 H1040 0.950 . S
C1046 C1047 1.327 . S
C1047 H1041 0.950 . S
C1047 C1046 1.327 . S
C1047 C1051 1.429 . S
C1048 C1031 1.574 . S
C1048 H1042 0.949 . S
C1048 C1052 1.368 . S
C1049 C1030 1.429 . S
C1049 C1043 1.429 . S
C1049 C1050 1.523 . S
C1050 C1031 1.368 . S
C1050 C1044 1.368 . S
C1050 C1049 1.523 . S
C1051 C1035 1.429 . S
C1051 C1047 1.429 . S
C1051 C1052 1.523 . S
C1052 C1036 1.368 . S
C1052 C1048 1.368 . S
C1052 C1051 1.523 . S
H1053 C1028 0.950 . S
H1054 C1030 0.950 . S
H1055 C1031 0.949 . S
H1056 C1033 0.950 . S
H1057 C1035 0.950 . S
C1058 C1059 1.349 . S
C1058 C1060 1.327 . S
C1058 H1083 0.950 . S
C1059 C1058 1.349 . S
C1059 C1075 1.349 . S
C1060 C1058 1.327 . S
C1060 C1079 1.429 . S
C1060 H1084 0.950 . S
C1061 C1078 1.574 . S
C1061 C1080 1.368 . S
C1061 H1085 0.949 . S
H1062 C1066 0.949 . S
C1063 C1064 1.349 . S
C1063 C1065 1.327 . S
C1063 H1086 0.950 . S
C1064 C1063 1.349 . S
C1064 C1076 1.349 . S
C1065 C1063 1.327 . S
C1065 C1081 1.429 . S
C1065 H1087 0.950 . S
C1066 H1062 0.949 . S
C1066 C1074 1.574 . S
C1066 C1082 1.368 . S
H1067 C1075 0.950 . S
H1068 C1073 0.950 . S
H1069 C1074 0.949 . S
H1070 C1076 0.950 . S
H1071 C1077 0.950 . S
H1072 C1078 0.949 . S
C1073 H1068 0.950 . S
C1073 C1075 1.327 . S
C1073 C1079 1.429 . S
C1074 C1066 1.574 . S
C1074 H1069 0.949 . S
C1074 C1080 1.368 . S
C1075 C1059 1.349 . S
C1075 H1067 0.950 . S
C1075 C1073 1.327 . S
C1076 C1064 1.349 . S
C1076 H1070 0.950 . S
C1076 C1077 1.327 . S
C1077 H1071 0.950 . S
C1077 C1076 1.327 . S
C1077 C1081 1.429 . S
C1078 C1061 1.574 . S
C1078 H1072 0.949 . S
C1078 C1082 1.368 . S
C1079 C1060 1.429 . S
C1079 C1073 1.429 . S
C1079 C1080 1.523 . S
C1080 C1061 1.368 . S
C1080 C1074 1.368 . S
C1080 C1079 1.523 . S
C1081 C1065 1.429 . S
C1081 C1077 1.429 . S
C1081 C1082 1.523 . S
C1082 C1066 1.368 . S
C1082 C1078 1.368 . S
C1082 C1081 1.523 . S
H1083 C1058 0.950 . S
H1084 C1060 0.950 . S
H1085 C1061 0.949 . S
H1086 C1063 0.950 . S
H1087 C1065 0.950 . S
C1088 C1089 1.349 . S
C1088 C1090 1.327 . S
C1088 H1113 0.950 . S
C1089 C1088 1.349 . S
C1089 C1105 1.349 . S
C1090 C1088 1.327 . S
C1090 C1109 1.429 . S
C1090 H1114 0.950 . S
C1091 C1108 1.574 . S
C1091 C1110 1.368 . S
C1091 H1115 0.949 . S
H1092 C1096 0.949 . S
C1093 C1094 1.349 . S
C1093 C1095 1.327 . S
C1093 H1116 0.950 . S
C1094 C1093 1.349 . S
C1094 C1106 1.349 . S
C1095 C1093 1.327 . S
C1095 C1111 1.429 . S
C1095 H1117 0.950 . S
C1096 H1092 0.949 . S
C1096 C1104 1.574 . S
C1096 C1112 1.368 . S
H1097 C1105 0.950 . S
H1098 C1103 0.950 . S
H1099 C1104 0.949 . S
H1100 C1106 0.950 . S
H1101 C1107 0.950 . S
H1102 C1108 0.949 . S
C1103 H1098 0.950 . S
C1103 C1105 1.327 . S
C1103 C1109 1.429 . S
C1104 C1096 1.574 . S
C1104 H1099 0.949 . S
C1104 C1110 1.368 . S
C1105 C1089 1.349 . S
C1105 H1097 0.950 . S
C1105 C1103 1.327 . S
C1106 C1094 1.349 . S
C1106 H1100 0.950 . S
C1106 C1107 1.327 . S
C1107 H1101 0.950 . S
C1107 C1106 1.327 . S
C1107 C1111 1.429 . S
C1108 C1091 1.574 . S
C1108 H1102 0.949 . S
C1108 C1112 1.368 . S
C1109 C1090 1.429 . S
C1109 C1103 1.429 . S
C1109 C1110 1.523 . S
C1110 C1091 1.368 . S
C1110 C1104 1.368 . S
C1110 C1109 1.523 . S
C1111 C1095 1.429 . S
C1111 C1107 1.429 . S
C1111 C1112 1.523 . S
C1112 C1096 1.368 . S
C1112 C1108 1.368 . S
C1112 C1111 1.523 . S
H1113 C1088 0.950 . S
H1114 C1090 0.950 . S
H1115 C1091 0.949 . S
H1116 C1093 0.950 . S
H1117 C1095 0.950 . S
C1118 C1119 1.349 . S
C1118 C1120 1.327 . S
C1118 H1143 0.950 . S
C1119 C1118 1.349 . S
C1119 C1135 1.349 . S
C1120 C1118 1.327 . S
C1120 C1139 1.429 . S
C1120 H1144 0.950 . S
C1121 C1138 1.574 . S
C1121 C1140 1.368 . S
C1121 H1145 0.949 . S
H1122 C1126 0.949 . S
C1123 C1124 1.349 1_556 S
C1123 C1125 1.327 . S
C1123 H1146 0.950 . S
C1124 C1123 1.349 1_554 S
C1124 C1136 1.349 . S
C1125 C1123 1.327 . S
C1125 C1141 1.429 . S
C1125 H1147 0.950 . S
C1126 H1122 0.949 . S
C1126 C1134 1.574 . S
C1126 C1142 1.368 . S
H1127 C1135 0.950 . S
H1128 C1133 0.950 . S
H1129 C1134 0.949 . S
H1130 C1136 0.950 . S
H1131 C1137 0.950 . S
H1132 C1138 0.949 . S
C1133 H1128 0.950 . S
C1133 C1135 1.327 . S
C1133 C1139 1.429 . S
C1134 C1126 1.574 . S
C1134 H1129 0.949 . S
C1134 C1140 1.368 . S
C1135 C1119 1.349 . S
C1135 H1127 0.950 . S
C1135 C1133 1.327 . S
C1136 C1124 1.349 . S
C1136 H1130 0.950 . S
C1136 C1137 1.327 1_554 S
C1137 H1131 0.950 . S
C1137 C1136 1.327 1_556 S
C1137 C1141 1.429 . S
C1138 C1121 1.574 . S
C1138 H1132 0.949 . S
C1138 C1142 1.368 . S
C1139 C1120 1.429 . S
C1139 C1133 1.429 . S
C1139 C1140 1.523 . S
C1140 C1121 1.368 . S
C1140 C1134 1.368 . S
C1140 C1139 1.523 . S
C1141 C1125 1.429 . S
C1141 C1137 1.429 . S
C1141 C1142 1.523 . S
C1142 C1126 1.368 . S
C1142 C1138 1.368 . S
C1142 C1141 1.523 . S
H1143 C1118 0.950 . S
H1144 C1120 0.950 . S
H1145 C1121 0.949 . S
H1146 C1123 0.950 . S
H1147 C1125 0.950 . S
C1148 C1149 1.349 . S
C1148 C1150 1.327 . S
C1148 H1173 0.950 . S
C1149 C1148 1.349 . S
C1149 C1165 1.349 . S
C1150 C1148 1.327 . S
C1150 C1169 1.429 . S
C1150 H1174 0.950 . S
C1151 C1168 1.574 . S
C1151 C1170 1.368 . S
C1151 H1175 0.949 . S
H1152 C1156 0.949 . S
C1153 C1154 1.349 . S
C1153 C1155 1.327 . S
C1153 H1176 0.950 . S
C1154 C1153 1.349 . S
C1154 C1166 1.349 . S
C1155 C1153 1.327 . S
C1155 C1171 1.429 . S
C1155 H1177 0.950 . S
C1156 H1152 0.949 . S
C1156 C1164 1.574 . S
C1156 C1172 1.368 . S
H1157 C1165 0.950 . S
H1158 C1163 0.950 . S
H1159 C1164 0.949 . S
H1160 C1166 0.950 . S
H1161 C1167 0.950 . S
H1162 C1168 0.949 . S
C1163 H1158 0.950 . S
C1163 C1165 1.327 . S
C1163 C1169 1.429 . S
C1164 C1156 1.574 . S
C1164 H1159 0.949 . S
C1164 C1170 1.368 . S
C1165 C1149 1.349 . S
C1165 H1157 0.950 . S
C1165 C1163 1.327 . S
C1166 C1154 1.349 . S
C1166 H1160 0.950 . S
C1166 C1167 1.327 . S
C1167 H1161 0.950 . S
C1167 C1166 1.327 . S
C1167 C1171 1.429 . S
C1168 C1151 1.574 . S
C1168 H1162 0.949 . S
C1168 C1172 1.368 . S
C1169 C1150 1.429 . S
C1169 C1163 1.429 . S
C1169 C1170 1.523 . S
C1170 C1151 1.368 . S
C1170 C1164 1.368 . S
C1170 C1169 1.523 . S
C1171 C1155 1.429 . S
C1171 C1167 1.429 . S
C1171 C1172 1.523 . S
C1172 C1156 1.368 . S
C1172 C1168 1.368 . S
C1172 C1171 1.523 . S
H1173 C1148 0.950 . S
H1174 C1150 0.950 . S
H1175 C1151 0.949 . S
H1176 C1153 0.950 . S
H1177 C1155 0.950 . S
C1178 C1179 1.349 . S
C1178 C1180 1.327 . S
C1178 H1203 0.950 . S
C1179 C1178 1.349 . S
C1179 C1195 1.349 . S
C1180 C1178 1.327 . S
C1180 C1199 1.429 . S
C1180 H1204 0.950 . S
C1181 C1198 1.574 . S
C1181 C1200 1.368 . S
C1181 H1205 0.949 . S
H1182 C1186 0.949 . S
C1183 C1184 1.349 . S
C1183 C1185 1.327 . S
C1183 H1206 0.950 . S
C1184 C1183 1.349 . S
C1184 C1196 1.349 . S
C1185 C1183 1.327 . S
C1185 C1201 1.429 . S
C1185 H1207 0.950 . S
C1186 H1182 0.949 . S
C1186 C1194 1.574 . S
C1186 C1202 1.368 . S
H1187 C1195 0.950 . S
H1188 C1193 0.950 . S
H1189 C1194 0.949 . S
H1190 C1196 0.950 . S
H1191 C1197 0.950 . S
H1192 C1198 0.949 . S
C1193 H1188 0.950 . S
C1193 C1195 1.327 . S
C1193 C1199 1.429 . S
C1194 C1186 1.574 . S
C1194 H1189 0.949 . S
C1194 C1200 1.368 . S
C1195 C1179 1.349 . S
C1195 H1187 0.950 . S
C1195 C1193 1.327 . S
C1196 C1184 1.349 . S
C1196 H1190 0.950 . S
C1196 C1197 1.327 . S
C1197 H1191 0.950 . S
C1197 C1196 1.327 . S
C1197 C1201 1.429 . S
C1198 C1181 1.574 . S
C1198 H1192 0.949 . S
C1198 C1202 1.368 . S
C1199 C1180 1.429 . S
C1199 C1193 1.429 . S
C1199 C1200 1.523 . S
C1200 C1181 1.368 . S
C1200 C1194 1.368 . S
C1200 C1199 1.523 . S
C1201 C1185 1.429 . S
C1201 C1197 1.429 . S
C1201 C1202 1.523 . S
C1202 C1186 1.368 . S
C1202 C1198 1.368 . S
C1202 C1201 1.523 . S
H1203 C1178 0.950 . S
H1204 C1180 0.950 . S
H1205 C1181 0.949 . S
H1206 C1183 0.950 . S
H1207 C1185 0.950 . S
C1208 C1209 1.349 . S
C1208 C1210 1.327 . S
C1208 H1233 0.950 . S
C1209 C1208 1.349 . S
C1209 C1225 1.349 . S
C1210 C1208 1.327 . S
C1210 C1229 1.429 . S
C1210 H1234 0.950 . S
C1211 C1228 1.574 . S
C1211 C1230 1.368 . S
C1211 H1235 0.949 . S
H1212 C1216 0.949 . S
C1213 C1214 1.349 . S
C1213 C1215 1.327 . S
C1213 H1236 0.950 . S
C1214 C1213 1.349 . S
C1214 C1226 1.349 . S
C1215 C1213 1.327 . S
C1215 C1231 1.429 . S
C1215 H1237 0.950 . S
C1216 H1212 0.949 . S
C1216 C1224 1.574 . S
C1216 C1232 1.368 . S
H1217 C1225 0.950 . S
H1218 C1223 0.950 . S
H1219 C1224 0.949 . S
H1220 C1226 0.950 . S
H1221 C1227 0.950 . S
H1222 C1228 0.949 . S
C1223 H1218 0.950 . S
C1223 C1225 1.327 . S
C1223 C1229 1.429 . S
C1224 C1216 1.574 . S
C1224 H1219 0.949 . S
C1224 C1230 1.368 . S
C1225 C1209 1.349 . S
C1225 H1217 0.950 . S
C1225 C1223 1.327 . S
C1226 C1214 1.349 . S
C1226 H1220 0.950 . S
C1226 C1227 1.327 . S
C1227 H1221 0.950 . S
C1227 C1226 1.327 . S
C1227 C1231 1.429 . S
C1228 C1211 1.574 . S
C1228 H1222 0.949 . S
C1228 C1232 1.368 . S
C1229 C1210 1.429 . S
C1229 C1223 1.429 . S
C1229 C1230 1.523 . S
C1230 C1211 1.368 . S
C1230 C1224 1.368 . S
C1230 C1229 1.523 . S
C1231 C1215 1.429 . S
C1231 C1227 1.429 . S
C1231 C1232 1.523 . S
C1232 C1216 1.368 . S
C1232 C1228 1.368 . S
C1232 C1231 1.523 . S
H1233 C1208 0.950 . S
H1234 C1210 0.950 . S
H1235 C1211 0.949 . S
H1236 C1213 0.950 . S
H1237 C1215 0.950 . S
C1238 C1239 1.349 . S
C1238 C1240 1.327 . S
C1238 H1263 0.950 . S
C1239 C1238 1.349 . S
C1239 C1255 1.349 . S
C1240 C1238 1.327 . S
C1240 C1259 1.429 . S
C1240 H1264 0.950 . S
C1241 C1258 1.574 . S
C1241 C1260 1.368 . S
C1241 H1265 0.949 . S
H1242 C1246 0.949 . S
C1243 C1244 1.349 . S
C1243 C1245 1.327 . S
C1243 H1266 0.950 . S
C1244 C1243 1.349 . S
C1244 C1256 1.349 . S
C1245 C1243 1.327 . S
C1245 C1261 1.429 . S
C1245 H1267 0.950 . S
C1246 H1242 0.949 . S
C1246 C1254 1.574 . S
C1246 C1262 1.368 . S
H1247 C1255 0.950 . S
H1248 C1253 0.950 . S
H1249 C1254 0.949 . S
H1250 C1256 0.950 . S
H1251 C1257 0.950 . S
H1252 C1258 0.949 . S
C1253 H1248 0.950 . S
C1253 C1255 1.327 . S
C1253 C1259 1.429 . S
C1254 C1246 1.574 . S
C1254 H1249 0.949 . S
C1254 C1260 1.368 . S
C1255 C1239 1.349 . S
C1255 H1247 0.950 . S
C1255 C1253 1.327 . S
C1256 C1244 1.349 . S
C1256 H1250 0.950 . S
C1256 C1257 1.327 . S
C1257 H1251 0.950 . S
C1257 C1256 1.327 . S
C1257 C1261 1.429 . S
C1258 C1241 1.574 . S
C1258 H1252 0.949 . S
C1258 C1262 1.368 . S
C1259 C1240 1.429 . S
C1259 C1253 1.429 . S
C1259 C1260 1.523 . S
C1260 C1241 1.368 . S
C1260 C1254 1.368 . S
C1260 C1259 1.523 . S
C1261 C1245 1.429 . S
C1261 C1257 1.429 . S
C1261 C1262 1.523 . S
C1262 C1246 1.368 . S
C1262 C1258 1.368 . S
C1262 C1261 1.523 . S
H1263 C1238 0.950 . S
H1264 C1240 0.950 . S
H1265 C1241 0.949 . S
H1266 C1243 0.950 . S
H1267 C1245 0.950 . S
C1268 C1269 1.349 . S
C1268 C1270 1.327 . S
C1268 H1293 0.950 . S
C1269 C1268 1.349 . S
C1269 C1285 1.349 . S
C1270 C1268 1.327 . S
C1270 C1289 1.429 . S
C1270 H1294 0.950 . S
C1271 C1288 1.574 . S
C1271 C1290 1.368 . S
C1271 H1295 0.949 . S
H1272 C1276 0.949 . S
C1273 C1274 1.349 . S
C1273 C1275 1.327 . S
C1273 H1296 0.950 . S
C1274 C1273 1.349 . S
C1274 C1286 1.349 . S
C1275 C1273 1.327 . S
C1275 C1291 1.429 . S
C1275 H1297 0.950 . S
C1276 H1272 0.949 . S
C1276 C1284 1.574 . S
C1276 C1292 1.368 . S
H1277 C1285 0.950 . S
H1278 C1283 0.950 . S
H1279 C1284 0.949 . S
H1280 C1286 0.950 . S
H1281 C1287 0.950 . S
H1282 C1288 0.949 . S
C1283 H1278 0.950 . S
C1283 C1285 1.327 . S
C1283 C1289 1.429 . S
C1284 C1276 1.574 . S
C1284 H1279 0.949 . S
C1284 C1290 1.368 . S
C1285 C1269 1.349 . S
C1285 H1277 0.950 . S
C1285 C1283 1.327 . S
C1286 C1274 1.349 . S
C1286 H1280 0.950 . S
C1286 C1287 1.327 . S
C1287 H1281 0.950 . S
C1287 C1286 1.327 . S
C1287 C1291 1.429 . S
C1288 C1271 1.574 . S
C1288 H1282 0.949 . S
C1288 C1292 1.368 . S
C1289 C1270 1.429 . S
C1289 C1283 1.429 . S
C1289 C1290 1.523 . S
C1290 C1271 1.368 . S
C1290 C1284 1.368 . S
C1290 C1289 1.523 . S
C1291 C1275 1.429 . S
C1291 C1287 1.429 . S
C1291 C1292 1.523 . S
C1292 C1276 1.368 . S
C1292 C1288 1.368 . S
C1292 C1291 1.523 . S
H1293 C1268 0.950 . S
H1294 C1270 0.950 . S
H1295 C1271 0.949 . S
H1296 C1273 0.950 . S
H1297 C1275 0.950 . S
C1298 C1299 1.349 . S
C1298 C1300 1.327 . S
C1298 H1323 0.950 . S
C1299 C1298 1.349 . S
C1299 C1315 1.349 . S
C1300 C1298 1.327 . S
C1300 C1319 1.429 . S
C1300 H1324 0.950 . S
C1301 C1318 1.574 . S
C1301 C1320 1.368 . S
C1301 H1325 0.949 . S
H1302 C1306 0.949 . S
C1303 C1304 1.349 . S
C1303 C1305 1.327 . S
C1303 H1326 0.950 . S
C1304 C1303 1.349 . S
C1304 C1316 1.349 . S
C1305 C1303 1.327 . S
C1305 C1321 1.429 . S
C1305 H1327 0.950 . S
C1306 H1302 0.949 . S
C1306 C1314 1.574 . S
C1306 C1322 1.368 . S
H1307 C1315 0.950 . S
H1308 C1313 0.950 . S
H1309 C1314 0.949 . S
H1310 C1316 0.950 . S
H1311 C1317 0.950 . S
H1312 C1318 0.949 . S
C1313 H1308 0.950 . S
C1313 C1315 1.327 . S
C1313 C1319 1.429 . S
C1314 C1306 1.574 . S
C1314 H1309 0.949 . S
C1314 C1320 1.368 . S
C1315 C1299 1.349 . S
C1315 H1307 0.950 . S
C1315 C1313 1.327 . S
C1316 C1304 1.349 . S
C1316 H1310 0.950 . S
C1316 C1317 1.327 . S
C1317 H1311 0.950 . S
C1317 C1316 1.327 . S
C1317 C1321 1.429 . S
C1318 C1301 1.574 . S
C1318 H1312 0.949 . S
C1318 C1322 1.368 . S
C1319 C1300 1.429 . S
C1319 C1313 1.429 . S
C1319 C1320 1.523 . S
C1320 C1301 1.368 . S
C1320 C1314 1.368 . S
C1320 C1319 1.523 . S
C1321 C1305 1.429 . S
C1321 C1317 1.429 . S
C1321 C1322 1.523 . S
C1322 C1306 1.368 . S
C1322 C1318 1.368 . S
C1322 C1321 1.523 . S
H1323 C1298 0.950 . S
H1324 C1300 0.950 . S
H1325 C1301 0.949 . S
H1326 C1303 0.950 . S
H1327 C1305 0.950 . S
C1328 C1329 1.349 . S
C1328 C1330 1.327 . S
C1328 H1353 0.950 . S
C1329 C1328 1.349 . S
C1329 C1345 1.349 . S
C1330 C1328 1.327 . S
C1330 C1349 1.429 . S
C1330 H1354 0.950 . S
C1331 C1348 1.574 . S
C1331 C1350 1.368 . S
C1331 H1355 0.949 . S
H1332 C1336 0.949 . S
C1333 C1334 1.349 . S
C1333 C1335 1.327 . S
C1333 H1356 0.950 . S
C1334 C1333 1.349 . S
C1334 C1346 1.349 . S
C1335 C1333 1.327 . S
C1335 C1351 1.429 . S
C1335 H1357 0.950 . S
C1336 H1332 0.949 . S
C1336 C1344 1.574 . S
C1336 C1352 1.368 . S
H1337 C1345 0.950 . S
H1338 C1343 0.950 . S
H1339 C1344 0.949 . S
H1340 C1346 0.950 . S
H1341 C1347 0.950 . S
H1342 C1348 0.949 . S
C1343 H1338 0.950 . S
C1343 C1345 1.327 . S
C1343 C1349 1.429 . S
C1344 C1336 1.574 . S
C1344 H1339 0.949 . S
C1344 C1350 1.368 . S
C1345 C1329 1.349 . S
C1345 H1337 0.950 . S
C1345 C1343 1.327 . S
C1346 C1334 1.349 . S
C1346 H1340 0.950 . S
C1346 C1347 1.327 . S
C1347 H1341 0.950 . S
C1347 C1346 1.327 . S
C1347 C1351 1.429 . S
C1348 C1331 1.574 . S
C1348 H1342 0.949 . S
C1348 C1352 1.368 . S
C1349 C1330 1.429 . S
C1349 C1343 1.429 . S
C1349 C1350 1.523 . S
C1350 C1331 1.368 . S
C1350 C1344 1.368 . S
C1350 C1349 1.523 . S
C1351 C1335 1.429 . S
C1351 C1347 1.429 . S
C1351 C1352 1.523 . S
C1352 C1336 1.368 . S
C1352 C1348 1.368 . S
C1352 C1351 1.523 . S
H1353 C1328 0.950 . S
H1354 C1330 0.950 . S
H1355 C1331 0.949 . S
H1356 C1333 0.950 . S
H1357 C1335 0.950 . S
C1358 C1359 1.349 . S
C1358 C1360 1.327 . S
C1358 H1383 0.950 . S
C1359 C1358 1.349 . S
C1359 C1375 1.349 . S
C1360 C1358 1.327 . S
C1360 C1379 1.429 . S
C1360 H1384 0.950 . S
C1361 C1378 1.574 . S
C1361 C1380 1.368 . S
C1361 H1385 0.949 . S
H1362 C1366 0.949 . S
C1363 C1364 1.349 . S
C1363 C1365 1.327 . S
C1363 H1386 0.950 . S
C1364 C1363 1.349 . S
C1364 C1376 1.349 . S
C1365 C1363 1.327 . S
C1365 C1381 1.429 . S
C1365 H1387 0.950 . S
C1366 H1362 0.949 . S
C1366 C1374 1.574 . S
C1366 C1382 1.368 . S
H1367 C1375 0.950 . S
H1368 C1373 0.950 . S
H1369 C1374 0.949 . S
H1370 C1376 0.950 . S
H1371 C1377 0.950 . S
H1372 C1378 0.949 . S
C1373 H1368 0.950 . S
C1373 C1375 1.327 . S
C1373 C1379 1.429 . S
C1374 C1366 1.574 . S
C1374 H1369 0.949 . S
C1374 C1380 1.368 . S
C1375 C1359 1.349 . S
C1375 H1367 0.950 . S
C1375 C1373 1.327 . S
C1376 C1364 1.349 . S
C1376 H1370 0.950 . S
C1376 C1377 1.327 . S
C1377 H1371 0.950 . S
C1377 C1376 1.327 . S
C1377 C1381 1.429 . S
C1378 C1361 1.574 . S
C1378 H1372 0.949 . S
C1378 C1382 1.368 . S
C1379 C1360 1.429 . S
C1379 C1373 1.429 . S
C1379 C1380 1.523 . S
C1380 C1361 1.368 . S
C1380 C1374 1.368 . S
C1380 C1379 1.523 . S
C1381 C1365 1.429 . S
C1381 C1377 1.429 . S
C1381 C1382 1.523 . S
C1382 C1366 1.368 . S
C1382 C1378 1.368 . S
C1382 C1381 1.523 . S
H1383 C1358 0.950 . S
H1384 C1360 0.950 . S
H1385 C1361 0.949 . S
H1386 C1363 0.950 . S
H1387 C1365 0.950 . S
C1388 C1389 1.349 . S
C1388 C1390 1.327 . S
C1388 H1413 0.950 . S
C1389 C1388 1.349 . S
C1389 C1405 1.349 . S
C1390 C1388 1.327 . S
C1390 C1409 1.429 . S
C1390 H1414 0.950 . S
C1391 C1408 1.574 . S
C1391 C1410 1.368 . S
C1391 H1415 0.949 . S
H1392 C1396 0.949 . S
C1393 C1394 1.349 . S
C1393 C1395 1.327 . S
C1393 H1416 0.950 . S
C1394 C1393 1.349 . S
C1394 C1406 1.349 . S
C1395 C1393 1.327 . S
C1395 C1411 1.429 . S
C1395 H1417 0.950 . S
C1396 H1392 0.949 . S
C1396 C1404 1.574 . S
C1396 C1412 1.368 . S
H1397 C1405 0.950 . S
H1398 C1403 0.950 . S
H1399 C1404 0.949 . S
H1400 C1406 0.950 . S
H1401 C1407 0.950 . S
H1402 C1408 0.949 . S
C1403 H1398 0.950 . S
C1403 C1405 1.327 . S
C1403 C1409 1.429 . S
C1404 C1396 1.574 . S
C1404 H1399 0.949 . S
C1404 C1410 1.368 . S
C1405 C1389 1.349 . S
C1405 H1397 0.950 . S
C1405 C1403 1.327 . S
C1406 C1394 1.349 . S
C1406 H1400 0.950 . S
C1406 C1407 1.327 . S
C1407 H1401 0.950 . S
C1407 C1406 1.327 . S
C1407 C1411 1.429 . S
C1408 C1391 1.574 . S
C1408 H1402 0.949 . S
C1408 C1412 1.368 . S
C1409 C1390 1.429 . S
C1409 C1403 1.429 . S
C1409 C1410 1.523 . S
C1410 C1391 1.368 . S
C1410 C1404 1.368 . S
C1410 C1409 1.523 . S
C1411 C1395 1.429 . S
C1411 C1407 1.429 . S
C1411 C1412 1.523 . S
C1412 C1396 1.368 . S
C1412 C1408 1.368 . S
C1412 C1411 1.523 . S
H1413 C1388 0.950 . S
H1414 C1390 0.950 . S
H1415 C1391 0.949 . S
H1416 C1393 0.950 . S
H1417 C1395 0.950 . S
C1418 C1419 1.349 . S
C1418 C1420 1.327 . S
C1418 H1443 0.950 . S
C1419 C1418 1.349 . S
C1419 C1435 1.349 . S
C1420 C1418 1.327 . S
C1420 C1439 1.429 . S
C1420 H1444 0.950 . S
C1421 C1438 1.574 . S
C1421 C1440 1.368 . S
C1421 H1445 0.949 . S
H1422 C1426 0.949 . S
C1423 C1424 1.349 . S
C1423 C1425 1.327 . S
C1423 H1446 0.950 . S
C1424 C1423 1.349 . S
C1424 C1436 1.349 . S
C1425 C1423 1.327 . S
C1425 C1441 1.429 . S
C1425 H1447 0.950 . S
C1426 H1422 0.949 . S
C1426 C1434 1.574 . S
C1426 C1442 1.368 . S
H1427 C1435 0.950 . S
H1428 C1433 0.950 . S
H1429 C1434 0.949 . S
H1430 C1436 0.950 . S
H1431 C1437 0.950 . S
H1432 C1438 0.949 . S
C1433 H1428 0.950 . S
C1433 C1435 1.327 . S
C1433 C1439 1.429 . S
C1434 C1426 1.574 . S
C1434 H1429 0.949 . S
C1434 C1440 1.368 . S
C1435 C1419 1.349 . S
C1435 H1427 0.950 . S
C1435 C1433 1.327 . S
C1436 C1424 1.349 . S
C1436 H1430 0.950 . S
C1436 C1437 1.327 . S
C1437 H1431 0.950 . S
C1437 C1436 1.327 . S
C1437 C1441 1.429 . S
C1438 C1421 1.574 . S
C1438 H1432 0.949 . S
C1438 C1442 1.368 . S
C1439 C1420 1.429 . S
C1439 C1433 1.429 . S
C1439 C1440 1.523 . S
C1440 C1421 1.368 . S
C1440 C1434 1.368 . S
C1440 C1439 1.523 . S
C1441 C1425 1.429 . S
C1441 C1437 1.429 . S
C1441 C1442 1.523 . S
C1442 C1426 1.368 . S
C1442 C1438 1.368 . S
C1442 C1441 1.523 . S
H1443 C1418 0.950 . S
H1444 C1420 0.950 . S
H1445 C1421 0.949 . S
H1446 C1423 0.950 . S
H1447 C1425 0.950 . S
C1448 C1449 1.349 . S
C1448 C1450 1.327 . S
C1448 H1473 0.950 . S
C1449 C1448 1.349 . S
C1449 C1465 1.349 . S
C1450 C1448 1.327 . S
C1450 C1469 1.429 . S
C1450 H1474 0.950 . S
C1451 C1468 1.574 . S
C1451 C1470 1.368 . S
C1451 H1475 0.949 . S
H1452 C1456 0.949 . S
C1453 C1454 1.349 . S
C1453 C1455 1.327 . S
C1453 H1476 0.950 . S
C1454 C1453 1.349 . S
C1454 C1466 1.349 . S
C1455 C1453 1.327 . S
C1455 C1471 1.429 . S
C1455 H1477 0.950 . S
C1456 H1452 0.949 . S
C1456 C1464 1.574 . S
C1456 C1472 1.368 . S
H1457 C1465 0.950 . S
H1458 C1463 0.950 . S
H1459 C1464 0.949 . S
H1460 C1466 0.950 . S
H1461 C1467 0.950 . S
H1462 C1468 0.949 . S
C1463 H1458 0.950 . S
C1463 C1465 1.327 . S
C1463 C1469 1.429 . S
C1464 C1456 1.574 . S
C1464 H1459 0.949 . S
C1464 C1470 1.368 . S
C1465 C1449 1.349 . S
C1465 H1457 0.950 . S
C1465 C1463 1.327 . S
C1466 C1454 1.349 . S
C1466 H1460 0.950 . S
C1466 C1467 1.327 . S
C1467 H1461 0.950 . S
C1467 C1466 1.327 . S
C1467 C1471 1.429 . S
C1468 C1451 1.574 . S
C1468 H1462 0.949 . S
C1468 C1472 1.368 . S
C1469 C1450 1.429 . S
C1469 C1463 1.429 . S
C1469 C1470 1.523 . S
C1470 C1451 1.368 . S
C1470 C1464 1.368 . S
C1470 C1469 1.523 . S
C1471 C1455 1.429 . S
C1471 C1467 1.429 . S
C1471 C1472 1.523 . S
C1472 C1456 1.368 . S
C1472 C1468 1.368 . S
C1472 C1471 1.523 . S
H1473 C1448 0.950 . S
H1474 C1450 0.950 . S
H1475 C1451 0.949 . S
H1476 C1453 0.950 . S
H1477 C1455 0.950 . S
C1478 C1479 1.349 . S
C1478 C1480 1.327 . S
C1478 H1503 0.950 . S
C1479 C1478 1.349 . S
C1479 C1495 1.349 . S
C1480 C1478 1.327 . S
C1480 C1499 1.429 . S
C1480 H1504 0.950 . S
C1481 C1498 1.574 . S
C1481 C1500 1.368 . S
C1481 H1505 0.949 . S
H1482 C1486 0.949 . S
C1483 C1484 1.349 . S
C1483 C1485 1.327 . S
C1483 H1506 0.950 . S
C1484 C1483 1.349 . S
C1484 C1496 1.349 . S
C1485 C1483 1.327 . S
C1485 C1501 1.429 . S
C1485 H1507 0.950 . S
C1486 H1482 0.949 . S
C1486 C1494 1.574 . S
C1486 C1502 1.368 . S
H1487 C1495 0.950 . S
H1488 C1493 0.950 . S
H1489 C1494 0.949 . S
H1490 C1496 0.950 . S
H1491 C1497 0.950 . S
H1492 C1498 0.949 . S
C1493 H1488 0.950 . S
C1493 C1495 1.327 . S
C1493 C1499 1.429 . S
C1494 C1486 1.574 . S
C1494 H1489 0.949 . S
C1494 C1500 1.368 . S
C1495 C1479 1.349 . S
C1495 H1487 0.950 . S
C1495 C1493 1.327 . S
C1496 C1484 1.349 . S
C1496 H1490 0.950 . S
C1496 C1497 1.327 . S
C1497 H1491 0.950 . S
C1497 C1496 1.327 . S
C1497 C1501 1.429 . S
C1498 C1481 1.574 . S
C1498 H1492 0.949 . S
C1498 C1502 1.368 . S
C1499 C1480 1.429 . S
C1499 C1493 1.429 . S
C1499 C1500 1.523 . S
C1500 C1481 1.368 . S
C1500 C1494 1.368 . S
C1500 C1499 1.523 . S
C1501 C1485 1.429 . S
C1501 C1497 1.429 . S
C1501 C1502 1.523 . S
C1502 C1486 1.368 . S
C1502 C1498 1.368 . S
C1502 C1501 1.523 . S
H1503 C1478 0.950 . S
H1504 C1480 0.950 . S
H1505 C1481 0.949 . S
H1506 C1483 0.950 . S
H1507 C1485 0.950 . S
C1508 C1509 1.349 . S
C1508 C1510 1.327 . S
C1508 H1533 0.950 . S
C1509 C1508 1.349 . S
C1509 C1525 1.349 . S
C1510 C1508 1.327 . S
C1510 C1529 1.429 . S
C1510 H1534 0.950 . S
C1511 C1528 1.574 . S
C1511 C1530 1.368 . S
C1511 H1535 0.949 . S
H1512 C1516 0.949 . S
C1513 C1514 1.349 . S
C1513 C1515 1.327 . S
C1513 H1536 0.950 . S
C1514 C1513 1.349 . S
C1514 C1526 1.349 . S
C1515 C1513 1.327 . S
C1515 C1531 1.429 . S
C1515 H1537 0.950 . S
C1516 H1512 0.949 . S
C1516 C1524 1.574 . S
C1516 C1532 1.368 . S
H1517 C1525 0.950 . S
H1518 C1523 0.950 . S
H1519 C1524 0.949 . S
H1520 C1526 0.950 . S
H1521 C1527 0.950 . S
H1522 C1528 0.949 . S
C1523 H1518 0.950 . S
C1523 C1525 1.327 . S
C1523 C1529 1.429 . S
C1524 C1516 1.574 . S
C1524 H1519 0.949 . S
C1524 C1530 1.368 . S
C1525 C1509 1.349 . S
C1525 H1517 0.950 . S
C1525 C1523 1.327 . S
C1526 C1514 1.349 . S
C1526 H1520 0.950 . S
C1526 C1527 1.327 . S
C1527 H1521 0.950 . S
C1527 C1526 1.327 . S
C1527 C1531 1.429 . S
C1528 C1511 1.574 . S
C1528 H1522 0.949 . S
C1528 C1532 1.368 . S
C1529 C1510 1.429 . S
C1529 C1523 1.429 . S
C1529 C1530 1.523 . S
C1530 C1511 1.368 . S
C1530 C1524 1.368 . S
C1530 C1529 1.523 . S
C1531 C1515 1.429 . S
C1531 C1527 1.429 . S
C1531 C1532 1.523 . S
C1532 C1516 1.368 . S
C1532 C1528 1.368 . S
C1532 C1531 1.523 . S
H1533 C1508 0.950 . S
H1534 C1510 0.950 . S
H1535 C1511 0.949 . S
H1536 C1513 0.950 . S
H1537 C1515 0.950 . S
C1538 C1539 1.349 . S
C1538 C1540 1.327 . S
C1538 H1563 0.950 . S
C1539 C1538 1.349 . S
C1539 C1555 1.349 . S
C1540 C1538 1.327 . S
C1540 C1559 1.429 . S
C1540 H1564 0.950 . S
C1541 C1558 1.574 . S
C1541 C1560 1.368 . S
C1541 H1565 0.949 . S
H1542 C1546 0.949 . S
C1543 C1544 1.349 . S
C1543 C1545 1.327 . S
C1543 H1566 0.950 . S
C1544 C1543 1.349 . S
C1544 C1556 1.349 . S
C1545 C1543 1.327 . S
C1545 C1561 1.429 . S
C1545 H1567 0.950 . S
C1546 H1542 0.949 . S
C1546 C1554 1.574 . S
C1546 C1562 1.368 . S
H1547 C1555 0.950 . S
H1548 C1553 0.950 . S
H1549 C1554 0.949 . S
H1550 C1556 0.950 . S
H1551 C1557 0.950 . S
H1552 C1558 0.949 . S
C1553 H1548 0.950 . S
C1553 C1555 1.327 . S
C1553 C1559 1.429 . S
C1554 C1546 1.574 . S
C1554 H1549 0.949 . S
C1554 C1560 1.368 . S
C1555 C1539 1.349 . S
C1555 H1547 0.950 . S
C1555 C1553 1.327 . S
C1556 C1544 1.349 . S
C1556 H1550 0.950 . S
C1556 C1557 1.327 . S
C1557 H1551 0.950 . S
C1557 C1556 1.327 . S
C1557 C1561 1.429 . S
C1558 C1541 1.574 . S
C1558 H1552 0.949 . S
C1558 C1562 1.368 . S
C1559 C1540 1.429 . S
C1559 C1553 1.429 . S
C1559 C1560 1.523 . S
C1560 C1541 1.368 . S
C1560 C1554 1.368 . S
C1560 C1559 1.523 . S
C1561 C1545 1.429 . S
C1561 C1557 1.429 . S
C1561 C1562 1.523 . S
C1562 C1546 1.368 . S
C1562 C1558 1.368 . S
C1562 C1561 1.523 . S
H1563 C1538 0.950 . S
H1564 C1540 0.950 . S
H1565 C1541 0.949 . S
H1566 C1543 0.950 . S
H1567 C1545 0.950 . S
C1568 C1569 1.349 . S
C1568 C1570 1.327 . S
C1568 H1593 0.950 . S
C1569 C1568 1.349 . S
C1569 C1585 1.349 . S
C1570 C1568 1.327 . S
C1570 C1589 1.429 . S
C1570 H1594 0.950 . S
C1571 C1588 1.574 . S
C1571 C1590 1.368 . S
C1571 H1595 0.949 . S
H1572 C1576 0.949 . S
C1573 C1574 1.349 . S
C1573 C1575 1.327 . S
C1573 H1596 0.950 . S
C1574 C1573 1.349 . S
C1574 C1586 1.349 . S
C1575 C1573 1.327 . S
C1575 C1591 1.429 . S
C1575 H1597 0.950 . S
C1576 H1572 0.949 . S
C1576 C1584 1.574 . S
C1576 C1592 1.368 . S
H1577 C1585 0.950 . S
H1578 C1583 0.950 . S
H1579 C1584 0.949 . S
H1580 C1586 0.950 . S
H1581 C1587 0.950 . S
H1582 C1588 0.949 . S
C1583 H1578 0.950 . S
C1583 C1585 1.327 . S
C1583 C1589 1.429 . S
C1584 C1576 1.574 . S
C1584 H1579 0.949 . S
C1584 C1590 1.368 . S
C1585 C1569 1.349 . S
C1585 H1577 0.950 . S
C1585 C1583 1.327 . S
C1586 C1574 1.349 . S
C1586 H1580 0.950 . S
C1586 C1587 1.327 . S
C1587 H1581 0.950 . S
C1587 C1586 1.327 . S
C1587 C1591 1.429 . S
C1588 C1571 1.574 . S
C1588 H1582 0.949 . S
C1588 C1592 1.368 . S
C1589 C1570 1.429 . S
C1589 C1583 1.429 . S
C1589 C1590 1.523 . S
C1590 C1571 1.368 . S
C1590 C1584 1.368 . S
C1590 C1589 1.523 . S
C1591 C1575 1.429 . S
C1591 C1587 1.429 . S
C1591 C1592 1.523 . S
C1592 C1576 1.368 . S
C1592 C1588 1.368 . S
C1592 C1591 1.523 . S
H1593 C1568 0.950 . S
H1594 C1570 0.950 . S
H1595 C1571 0.949 . S
H1596 C1573 0.950 . S
H1597 C1575 0.950 . S
C1598 C1599 1.349 . S
C1598 C1600 1.327 . S
C1598 H1623 0.950 . S
C1599 C1598 1.349 . S
C1599 C1615 1.349 . S
C1600 C1598 1.327 . S
C1600 C1619 1.429 . S
C1600 H1624 0.950 . S
C1601 C1618 1.574 . S
C1601 C1620 1.368 . S
C1601 H1625 0.949 . S
H1602 C1606 0.949 . S
C1603 C1604 1.336 1_565 S
C1603 C1605 1.327 . S
C1603 H1626 0.950 . S
C1604 C1603 1.336 1_545 S
C1604 C1616 1.347 . S
C1605 C1603 1.327 . S
C1605 C1621 1.429 . S
C1605 H1627 0.950 . S
C1606 H1602 0.949 . S
C1606 C1614 1.574 . S
C1606 C1622 1.368 . S
H1607 C1615 0.950 . S
H1608 C1613 0.950 . S
H1609 C1614 0.949 . S
H1610 C1616 0.950 . S
H1611 C1617 0.950 . S
H1612 C1618 0.949 . S
C1613 H1608 0.950 . S
C1613 C1615 1.327 . S
C1613 C1619 1.429 . S
C1614 C1606 1.574 . S
C1614 H1609 0.949 . S
C1614 C1620 1.368 . S
C1615 C1599 1.349 . S
C1615 H1607 0.950 . S
C1615 C1613 1.327 . S
C1616 C1604 1.347 . S
C1616 H1610 0.950 . S
C1616 C1617 1.327 1_545 S
C1617 H1611 0.950 . S
C1617 C1616 1.327 1_565 S
C1617 C1621 1.429 . S
C1618 C1601 1.574 . S
C1618 H1612 0.949 . S
C1618 C1622 1.368 . S
C1619 C1600 1.429 . S
C1619 C1613 1.429 . S
C1619 C1620 1.523 . S
C1620 C1601 1.368 . S
C1620 C1614 1.368 . S
C1620 C1619 1.523 . S
C1621 C1605 1.429 . S
C1621 C1617 1.429 . S
C1621 C1622 1.523 . S
C1622 C1606 1.368 . S
C1622 C1618 1.368 . S
C1622 C1621 1.523 . S
H1623 C1598 0.950 . S
H1624 C1600 0.950 . S
H1625 C1601 0.949 . S
H1626 C1603 0.950 . S
H1627 C1605 0.950 . S
C1628 C1629 1.349 . S
C1628 C1630 1.327 . S
C1628 H1653 0.950 . S
C1629 C1628 1.349 . S
C1629 C1645 1.349 . S
C1630 C1628 1.327 . S
C1630 C1649 1.429 . S
C1630 H1654 0.950 . S
C1631 C1648 1.574 . S
C1631 C1650 1.368 . S
C1631 H1655 0.949 . S
H1632 C1636 0.949 . S
C1633 C1634 1.349 . S
C1633 C1635 1.327 . S
C1633 H1656 0.950 . S
C1634 C1633 1.349 . S
C1634 C1646 1.349 . S
C1635 C1633 1.327 . S
C1635 C1651 1.429 . S
C1635 H1657 0.950 . S
C1636 H1632 0.949 . S
C1636 C1644 1.574 . S
C1636 C1652 1.368 . S
H1637 C1645 0.950 . S
H1638 C1643 0.950 . S
H1639 C1644 0.949 . S
H1640 C1646 0.950 . S
H1641 C1647 0.950 . S
H1642 C1648 0.949 . S
C1643 H1638 0.950 . S
C1643 C1645 1.327 . S
C1643 C1649 1.429 . S
C1644 C1636 1.574 . S
C1644 H1639 0.949 . S
C1644 C1650 1.368 . S
C1645 C1629 1.349 . S
C1645 H1637 0.950 . S
C1645 C1643 1.327 . S
C1646 C1634 1.349 . S
C1646 H1640 0.950 . S
C1646 C1647 1.327 . S
C1647 H1641 0.950 . S
C1647 C1646 1.327 . S
C1647 C1651 1.429 . S
C1648 C1631 1.574 . S
C1648 H1642 0.949 . S
C1648 C1652 1.368 . S
C1649 C1630 1.429 . S
C1649 C1643 1.429 . S
C1649 C1650 1.523 . S
C1650 C1631 1.368 . S
C1650 C1644 1.368 . S
C1650 C1649 1.523 . S
C1651 C1635 1.429 . S
C1651 C1647 1.429 . S
C1651 C1652 1.523 . S
C1652 C1636 1.368 . S
C1652 C1648 1.368 . S
C1652 C1651 1.523 . S
H1653 C1628 0.950 . S
H1654 C1630 0.950 . S
H1655 C1631 0.949 . S
H1656 C1633 0.950 . S
H1657 C1635 0.950 . S
C1658 C1659 1.349 . S
C1658 C1660 1.327 . S
C1658 H1683 0.950 . S
C1659 C1658 1.349 . S
C1659 C1675 1.349 . S
C1660 C1658 1.327 . S
C1660 C1679 1.429 . S
C1660 H1684 0.950 . S
C1661 C1678 1.574 . S
C1661 C1680 1.368 . S
C1661 H1685 0.949 . S
H1662 C1666 0.949 . S
C1663 C1664 1.349 . S
C1663 C1665 1.327 . S
C1663 H1686 0.950 . S
C1664 C1663 1.349 . S
C1664 C1676 1.349 . S
C1665 C1663 1.327 . S
C1665 C1681 1.429 . S
C1665 H1687 0.950 . S
C1666 H1662 0.949 . S
C1666 C1674 1.574 . S
C1666 C1682 1.368 . S
H1667 C1675 0.950 . S
H1668 C1673 0.950 . S
H1669 C1674 0.949 . S
H1670 C1676 0.950 . S
H1671 C1677 0.950 . S
H1672 C1678 0.949 . S
C1673 H1668 0.950 . S
C1673 C1675 1.327 . S
C1673 C1679 1.429 . S
C1674 C1666 1.574 . S
C1674 H1669 0.949 . S
C1674 C1680 1.368 . S
C1675 C1659 1.349 . S
C1675 H1667 0.950 . S
C1675 C1673 1.327 . S
C1676 C1664 1.349 . S
C1676 H1670 0.950 . S
C1676 C1677 1.327 . S
C1677 H1671 0.950 . S
C1677 C1676 1.327 . S
C1677 C1681 1.429 . S
C1678 C1661 1.574 . S
C1678 H1672 0.949 . S
C1678 C1682 1.368 . S
C1679 C1660 1.429 . S
C1679 C1673 1.429 . S
C1679 C1680 1.523 . S
C1680 C1661 1.368 . S
C1680 C1674 1.368 . S
C1680 C1679 1.523 . S
C1681 C1665 1.429 . S
C1681 C1677 1.429 . S
C1681 C1682 1.523 . S
C1682 C1666 1.368 . S
C1682 C1678 1.368 . S
C1682 C1681 1.523 . S
H1683 C1658 0.950 . S
H1684 C1660 0.950 . S
H1685 C1661 0.949 . S
H1686 C1663 0.950 . S
H1687 C1665 0.950 . S
C1688 C1689 1.349 . S
C1688 C1690 1.327 . S
C1688 H1713 0.950 . S
C1689 C1688 1.349 . S
C1689 C1705 1.349 . S
C1690 C1688 1.327 . S
C1690 C1709 1.429 . S
C1690 H1714 0.950 . S
C1691 C1708 1.574 . S
C1691 C1710 1.368 . S
C1691 H1715 0.949 . S
H1692 C1696 0.949 . S
C1693 C1694 1.349 . S
C1693 C1695 1.327 . S
C1693 H1716 0.950 . S
C1694 C1693 1.349 . S
C1694 C1706 1.349 . S
C1695 C1693 1.327 . S
C1695 C1711 1.429 . S
C1695 H1717 0.950 . S
C1696 H1692 0.949 . S
C1696 C1704 1.574 . S
C1696 C1712 1.368 . S
H1697 C1705 0.950 . S
H1698 C1703 0.950 . S
H1699 C1704 0.949 . S
H1700 C1706 0.950 . S
H1701 C1707 0.950 . S
H1702 C1708 0.949 . S
C1703 H1698 0.950 . S
C1703 C1705 1.327 . S
C1703 C1709 1.429 . S
C1704 C1696 1.574 . S
C1704 H1699 0.949 . S
C1704 C1710 1.368 . S
C1705 C1689 1.349 . S
C1705 H1697 0.950 . S
C1705 C1703 1.327 . S
C1706 C1694 1.349 . S
C1706 H1700 0.950 . S
C1706 C1707 1.327 . S
C1707 H1701 0.950 . S
C1707 C1706 1.327 . S
C1707 C1711 1.429 . S
C1708 C1691 1.574 . S
C1708 H1702 0.949 . S
C1708 C1712 1.368 . S
C1709 C1690 1.429 . S
C1709 C1703 1.429 . S
C1709 C1710 1.523 . S
C1710 C1691 1.368 . S
C1710 C1704 1.368 . S
C1710 C1709 1.523 . S
C1711 C1695 1.429 . S
C1711 C1707 1.429 . S
C1711 C1712 1.523 . S
C1712 C1696 1.368 . S
C1712 C1708 1.368 . S
C1712 C1711 1.523 . S
H1713 C1688 0.950 . S
H1714 C1690 0.950 . S
H1715 C1691 0.949 . S
H1716 C1693 0.950 . S
H1717 C1695 0.950 . S
C1718 C1719 1.349 . S
C1718 C1720 1.327 . S
C1718 H1743 0.950 . S
C1719 C1718 1.349 . S
C1719 C1735 1.349 . S
C1720 C1718 1.327 . S
C1720 C1739 1.429 . S
C1720 H1744 0.950 . S
C1721 C1738 1.574 . S
C1721 C1740 1.368 . S
C1721 H1745 0.949 . S
H1722 C1726 0.949 . S
C1723 C1724 1.349 . S
C1723 C1725 1.327 . S
C1723 H1746 0.950 . S
C1724 C1723 1.349 . S
C1724 C1736 1.349 . S
C1725 C1723 1.327 . S
C1725 C1741 1.429 . S
C1725 H1747 0.950 . S
C1726 H1722 0.949 . S
C1726 C1734 1.574 . S
C1726 C1742 1.368 . S
H1727 C1735 0.950 . S
H1728 C1733 0.950 . S
H1729 C1734 0.949 . S
H1730 C1736 0.950 . S
H1731 C1737 0.950 . S
H1732 C1738 0.949 . S
C1733 H1728 0.950 . S
C1733 C1735 1.327 . S
C1733 C1739 1.429 . S
C1734 C1726 1.574 . S
C1734 H1729 0.949 . S
C1734 C1740 1.368 . S
C1735 C1719 1.349 . S
C1735 H1727 0.950 . S
C1735 C1733 1.327 . S
C1736 C1724 1.349 . S
C1736 H1730 0.950 . S
C1736 C1737 1.327 . S
C1737 H1731 0.950 . S
C1737 C1736 1.327 . S
C1737 C1741 1.429 . S
C1738 C1721 1.574 . S
C1738 H1732 0.949 . S
C1738 C1742 1.368 . S
C1739 C1720 1.429 . S
C1739 C1733 1.429 . S
C1739 C1740 1.523 . S
C1740 C1721 1.368 . S
C1740 C1734 1.368 . S
C1740 C1739 1.523 . S
C1741 C1725 1.429 . S
C1741 C1737 1.429 . S
C1741 C1742 1.523 . S
C1742 C1726 1.368 . S
C1742 C1738 1.368 . S
C1742 C1741 1.523 . S
H1743 C1718 0.950 . S
H1744 C1720 0.950 . S
H1745 C1721 0.949 . S
H1746 C1723 0.950 . S
H1747 C1725 0.950 . S
C1748 C1749 1.349 . S
C1748 C1750 1.327 . S
C1748 H1773 0.950 . S
C1749 C1748 1.349 . S
C1749 C1765 1.349 . S
C1750 C1748 1.327 . S
C1750 C1769 1.429 . S
C1750 H1774 0.950 . S
C1751 C1768 1.574 . S
C1751 C1770 1.368 . S
C1751 H1775 0.949 . S
H1752 C1756 0.949 . S
C1753 C1754 1.349 . S
C1753 C1755 1.327 . S
C1753 H1776 0.950 . S
C1754 C1753 1.349 . S
C1754 C1766 1.349 . S
C1755 C1753 1.327 . S
C1755 C1771 1.429 . S
C1755 H1777 0.950 . S
C1756 H1752 0.949 . S
C1756 C1764 1.574 . S
C1756 C1772 1.368 . S
H1757 C1765 0.950 . S
H1758 C1763 0.950 . S
H1759 C1764 0.949 . S
H1760 C1766 0.950 . S
H1761 C1767 0.950 . S
H1762 C1768 0.949 . S
C1763 H1758 0.950 . S
C1763 C1765 1.327 . S
C1763 C1769 1.429 . S
C1764 C1756 1.574 . S
C1764 H1759 0.949 . S
C1764 C1770 1.368 . S
C1765 C1749 1.349 . S
C1765 H1757 0.950 . S
C1765 C1763 1.327 . S
C1766 C1754 1.349 . S
C1766 H1760 0.950 . S
C1766 C1767 1.327 . S
C1767 H1761 0.950 . S
C1767 C1766 1.327 . S
C1767 C1771 1.429 . S
C1768 C1751 1.574 . S
C1768 H1762 0.949 . S
C1768 C1772 1.368 . S
C1769 C1750 1.429 . S
C1769 C1763 1.429 . S
C1769 C1770 1.523 . S
C1770 C1751 1.368 . S
C1770 C1764 1.368 . S
C1770 C1769 1.523 . S
C1771 C1755 1.429 . S
C1771 C1767 1.429 . S
C1771 C1772 1.523 . S
C1772 C1756 1.368 . S
C1772 C1768 1.368 . S
C1772 C1771 1.523 . S
H1773 C1748 0.950 . S
H1774 C1750 0.950 . S
H1775 C1751 0.949 . S
H1776 C1753 0.950 . S
H1777 C1755 0.950 . S
C1778 C1779 1.349 . S
C1778 C1780 1.327 . S
C1778 H1803 0.950 . S
C1779 C1778 1.349 . S
C1779 C1795 1.349 . S
C1780 C1778 1.327 . S
C1780 C1799 1.429 . S
C1780 H1804 0.950 . S
C1781 C1798 1.574 . S
C1781 C1800 1.368 . S
C1781 H1805 0.949 . S
H1782 C1786 0.949 . S
C1783 C1784 1.349 . S
C1783 C1785 1.327 . S
C1783 H1806 0.950 . S
C1784 C1783 1.349 . S
C1784 C1796 1.349 . S
C1785 C1783 1.327 . S
C1785 C1801 1.429 . S
C1785 H1807 0.950 . S
C1786 H1782 0.949 . S
C1786 C1794 1.574 . S
C1786 C1802 1.368 . S
H1787 C1795 0.950 . S
H1788 C1793 0.950 . S
H1789 C1794 0.949 . S
H1790 C1796 0.950 . S
H1791 C1797 0.950 . S
H1792 C1798 0.949 . S
C1793 H1788 0.950 . S
C1793 C1795 1.327 . S
C1793 C1799 1.429 . S
C1794 C1786 1.574 . S
C1794 H1789 0.949 . S
C1794 C1800 1.368 . S
C1795 C1779 1.349 . S
C1795 H1787 0.950 . S
C1795 C1793 1.327 . S
C1796 C1784 1.349 . S
C1796 H1790 0.950 . S
C1796 C1797 1.327 . S
C1797 H1791 0.950 . S
C1797 C1796 1.327 . S
C1797 C1801 1.429 . S
C1798 C1781 1.574 . S
C1798 H1792 0.949 . S
C1798 C1802 1.368 . S
C1799 C1780 1.429 . S
C1799 C1793 1.429 . S
C1799 C1800 1.523 . S
C1800 C1781 1.368 . S
C1800 C1794 1.368 . S
C1800 C1799 1.523 . S
C1801 C1785 1.429 . S
C1801 C1797 1.429 . S
C1801 C1802 1.523 . S
C1802 C1786 1.368 . S
C1802 C1798 1.368 . S
C1802 C1801 1.523 . S
H1803 C1778 0.950 . S
H1804 C1780 0.950 . S
H1805 C1781 0.949 . S
H1806 C1783 0.950 . S
H1807 C1785 0.950 . S
C1808 C1809 1.349 . S
C1808 C1810 1.327 . S
C1808 H1833 0.950 . S
C1809 C1808 1.349 . S
C1809 C1825 1.349 . S
C1810 C1808 1.327 . S
C1810 C1829 1.429 . S
C1810 H1834 0.950 . S
C1811 C1828 1.574 . S
C1811 C1830 1.368 . S
C1811 H1835 0.949 . S
H1812 C1816 0.949 . S
C1813 C1814 1.349 . S
C1813 C1815 1.327 . S
C1813 H1836 0.950 . S
C1814 C1813 1.349 . S
C1814 C1826 1.349 . S
C1815 C1813 1.327 . S
C1815 C1831 1.429 . S
C1815 H1837 0.950 . S
C1816 H1812 0.949 . S
C1816 C1824 1.574 . S
C1816 C1832 1.368 . S
H1817 C1825 0.950 . S
H1818 C1823 0.950 . S
H1819 C1824 0.949 . S
H1820 C1826 0.950 . S
H1821 C1827 0.950 . S
H1822 C1828 0.949 . S
C1823 H1818 0.950 . S
C1823 C1825 1.327 . S
C1823 C1829 1.429 . S
C1824 C1816 1.574 . S
C1824 H1819 0.949 . S
C1824 C1830 1.368 . S
C1825 C1809 1.349 . S
C1825 H1817 0.950 . S
C1825 C1823 1.327 . S
C1826 C1814 1.349 . S
C1826 H1820 0.950 . S
C1826 C1827 1.327 . S
C1827 H1821 0.950 . S
C1827 C1826 1.327 . S
C1827 C1831 1.429 . S
C1828 C1811 1.574 . S
C1828 H1822 0.949 . S
C1828 C1832 1.368 . S
C1829 C1810 1.429 . S
C1829 C1823 1.429 . S
C1829 C1830 1.523 . S
C1830 C1811 1.368 . S
C1830 C1824 1.368 . S
C1830 C1829 1.523 . S
C1831 C1815 1.429 . S
C1831 C1827 1.429 . S
C1831 C1832 1.523 . S
C1832 C1816 1.368 . S
C1832 C1828 1.368 . S
C1832 C1831 1.523 . S
H1833 C1808 0.950 . S
H1834 C1810 0.950 . S
H1835 C1811 0.949 . S
H1836 C1813 0.950 . S
H1837 C1815 0.950 . S
C1838 C1839 1.349 . S
C1838 C1840 1.327 . S
C1838 H1863 0.950 . S
C1839 C1838 1.349 . S
C1839 C1855 1.349 . S
C1840 C1838 1.327 . S
C1840 C1859 1.429 . S
C1840 H1864 0.950 . S
C1841 C1858 1.574 . S
C1841 C1860 1.368 . S
C1841 H1865 0.949 . S
H1842 C1846 0.949 . S
C1843 C1844 1.349 . S
C1843 C1845 1.327 . S
C1843 H1866 0.950 . S
C1844 C1843 1.349 . S
C1844 C1856 1.349 . S
C1845 C1843 1.327 . S
C1845 C1861 1.429 . S
C1845 H1867 0.950 . S
C1846 H1842 0.949 . S
C1846 C1854 1.574 . S
C1846 C1862 1.368 . S
H1847 C1855 0.950 . S
H1848 C1853 0.950 . S
H1849 C1854 0.949 . S
H1850 C1856 0.950 . S
H1851 C1857 0.950 . S
H1852 C1858 0.949 . S
C1853 H1848 0.950 . S
C1853 C1855 1.327 . S
C1853 C1859 1.429 . S
C1854 C1846 1.574 . S
C1854 H1849 0.949 . S
C1854 C1860 1.368 . S
C1855 C1839 1.349 . S
C1855 H1847 0.950 . S
C1855 C1853 1.327 . S
C1856 C1844 1.349 . S
C1856 H1850 0.950 . S
C1856 C1857 1.327 . S
C1857 H1851 0.950 . S
C1857 C1856 1.327 . S
C1857 C1861 1.429 . S
C1858 C1841 1.574 . S
C1858 H1852 0.949 . S
C1858 C1862 1.368 . S
C1859 C1840 1.429 . S
C1859 C1853 1.429 . S
C1859 C1860 1.523 . S
C1860 C1841 1.368 . S
C1860 C1854 1.368 . S
C1860 C1859 1.523 . S
C1861 C1845 1.429 . S
C1861 C1857 1.429 . S
C1861 C1862 1.523 . S
C1862 C1846 1.368 . S
C1862 C1858 1.368 . S
C1862 C1861 1.523 . S
H1863 C1838 0.950 . S
H1864 C1840 0.950 . S
H1865 C1841 0.949 . S
H1866 C1843 0.950 . S
H1867 C1845 0.950 . S
C1868 C1869 1.349 . S
C1868 C1870 1.327 . S
C1868 H1893 0.950 . S
C1869 C1868 1.349 . S
C1869 C1885 1.349 . S
C1870 C1868 1.327 . S
C1870 C1889 1.429 . S
C1870 H1894 0.950 . S
C1871 C1888 1.574 . S
C1871 C1890 1.368 . S
C1871 H1895 0.949 . S
H1872 C1876 0.949 . S
C1873 C1874 1.349 . S
C1873 C1875 1.327 . S
C1873 H1896 0.950 . S
C1874 C1873 1.349 . S
C1874 C1886 1.349 . S
C1875 C1873 1.327 . S
C1875 C1891 1.429 . S
C1875 H1897 0.950 . S
C1876 H1872 0.949 . S
C1876 C1884 1.574 . S
C1876 C1892 1.368 . S
H1877 C1885 0.950 . S
H1878 C1883 0.950 . S
H1879 C1884 0.949 . S
H1880 C1886 0.950 . S
H1881 C1887 0.950 . S
H1882 C1888 0.949 . S
C1883 H1878 0.950 . S
C1883 C1885 1.327 . S
C1883 C1889 1.429 . S
C1884 C1876 1.574 . S
C1884 H1879 0.949 . S
C1884 C1890 1.368 . S
C1885 C1869 1.349 . S
C1885 H1877 0.950 . S
C1885 C1883 1.327 . S
C1886 C1874 1.349 . S
C1886 H1880 0.950 . S
C1886 C1887 1.327 . S
C1887 H1881 0.950 . S
C1887 C1886 1.327 . S
C1887 C1891 1.429 . S
C1888 C1871 1.574 . S
C1888 H1882 0.949 . S
C1888 C1892 1.368 . S
C1889 C1870 1.429 . S
C1889 C1883 1.429 . S
C1889 C1890 1.523 . S
C1890 C1871 1.368 . S
C1890 C1884 1.368 . S
C1890 C1889 1.523 . S
C1891 C1875 1.429 . S
C1891 C1887 1.429 . S
C1891 C1892 1.523 . S
C1892 C1876 1.368 . S
C1892 C1888 1.368 . S
C1892 C1891 1.523 . S
H1893 C1868 0.950 . S
H1894 C1870 0.950 . S
H1895 C1871 0.949 . S
H1896 C1873 0.950 . S
H1897 C1875 0.950 . S
C1898 C1899 1.349 . S
C1898 C1900 1.327 . S
C1898 H1923 0.950 . S
C1899 C1898 1.349 . S
C1899 C1915 1.349 . S
C1900 C1898 1.327 . S
C1900 C1919 1.429 . S
C1900 H1924 0.950 . S
C1901 C1918 1.574 . S
C1901 C1920 1.368 . S
C1901 H1925 0.949 . S
H1902 C1906 0.949 . S
C1903 C1904 1.349 . S
C1903 C1905 1.327 . S
C1903 H1926 0.950 . S
C1904 C1903 1.349 . S
C1904 C1916 1.349 . S
C1905 C1903 1.327 . S
C1905 C1921 1.429 . S
C1905 H1927 0.950 . S
C1906 H1902 0.949 . S
C1906 C1914 1.574 . S
C1906 C1922 1.368 . S
H1907 C1915 0.950 . S
H1908 C1913 0.950 . S
H1909 C1914 0.949 . S
H1910 C1916 0.950 . S
H1911 C1917 0.950 . S
H1912 C1918 0.949 . S
C1913 H1908 0.950 . S
C1913 C1915 1.327 . S
C1913 C1919 1.429 . S
C1914 C1906 1.574 . S
C1914 H1909 0.949 . S
C1914 C1920 1.368 . S
C1915 C1899 1.349 . S
C1915 H1907 0.950 . S
C1915 C1913 1.327 . S
C1916 C1904 1.349 . S
C1916 H1910 0.950 . S
C1916 C1917 1.327 . S
C1917 H1911 0.950 . S
C1917 C1916 1.327 . S
C1917 C1921 1.429 . S
C1918 C1901 1.574 . S
C1918 H1912 0.949 . S
C1918 C1922 1.368 . S
C1919 C1900 1.429 . S
C1919 C1913 1.429 . S
C1919 C1920 1.523 . S
C1920 C1901 1.368 . S
C1920 C1914 1.368 . S
C1920 C1919 1.523 . S
C1921 C1905 1.429 . S
C1921 C1917 1.429 . S
C1921 C1922 1.523 . S
C1922 C1906 1.368 . S
C1922 C1918 1.368 . S
C1922 C1921 1.523 . S
H1923 C1898 0.950 . S
H1924 C1900 0.950 . S
H1925 C1901 0.949 . S
H1926 C1903 0.950 . S
H1927 C1905 0.950 . S
C1928 C1929 1.349 . S
C1928 C1930 1.327 . S
C1928 H1953 0.950 . S
C1929 C1928 1.349 . S
C1929 C1945 1.349 . S
C1930 C1928 1.327 . S
C1930 C1949 1.429 . S
C1930 H1954 0.950 . S
C1931 C1948 1.574 . S
C1931 C1950 1.368 . S
C1931 H1955 0.949 . S
H1932 C1936 0.949 . S
C1933 C1934 1.349 . S
C1933 C1935 1.327 . S
C1933 H1956 0.950 . S
C1934 C1933 1.349 . S
C1934 C1946 1.349 . S
C1935 C1933 1.327 . S
C1935 C1951 1.429 . S
C1935 H1957 0.950 . S
C1936 H1932 0.949 . S
C1936 C1944 1.574 . S
C1936 C1952 1.368 . S
H1937 C1945 0.950 . S
H1938 C1943 0.950 . S
H1939 C1944 0.949 . S
H1940 C1946 0.950 . S
H1941 C1947 0.950 . S
H1942 C1948 0.949 . S
C1943 H1938 0.950 . S
C1943 C1945 1.327 . S
C1943 C1949 1.429 . S
C1944 C1936 1.574 . S
C1944 H1939 0.949 . S
C1944 C1950 1.368 . S
C1945 C1929 1.349 . S
C1945 H1937 0.950 . S
C1945 C1943 1.327 . S
C1946 C1934 1.349 . S
C1946 H1940 0.950 . S
C1946 C1947 1.327 . S
C1947 H1941 0.950 . S
C1947 C1946 1.327 . S
C1947 C1951 1.429 . S
C1948 C1931 1.574 . S
C1948 H1942 0.949 . S
C1948 C1952 1.368 . S
C1949 C1930 1.429 . S
C1949 C1943 1.429 . S
C1949 C1950 1.523 . S
C1950 C1931 1.368 . S
C1950 C1944 1.368 . S
C1950 C1949 1.523 . S
C1951 C1935 1.429 . S
C1951 C1947 1.429 . S
C1951 C1952 1.523 . S
C1952 C1936 1.368 . S
C1952 C1948 1.368 . S
C1952 C1951 1.523 . S
H1953 C1928 0.950 . S
H1954 C1930 0.950 . S
H1955 C1931 0.949 . S
H1956 C1933 0.950 . S
H1957 C1935 0.950 . S
C1958 C1959 1.349 . S
C1958 C1960 1.327 . S
C1958 H1983 0.950 . S
C1959 C1958 1.349 . S
C1959 C1975 1.349 . S
C1960 C1958 1.327 . S
C1960 C1979 1.429 . S
C1960 H1984 0.950 . S
C1961 C1978 1.574 . S
C1961 C1980 1.368 . S
C1961 H1985 0.949 . S
H1962 C1966 0.949 . S
C1963 C1964 1.349 . S
C1963 C1965 1.327 . S
C1963 H1986 0.950 . S
C1964 C1963 1.349 . S
C1964 C1976 1.349 . S
C1965 C1963 1.327 . S
C1965 C1981 1.429 . S
C1965 H1987 0.950 . S
C1966 H1962 0.949 . S
C1966 C1974 1.574 . S
C1966 C1982 1.368 . S
H1967 C1975 0.950 . S
H1968 C1973 0.950 . S
H1969 C1974 0.949 . S
H1970 C1976 0.950 . S
H1971 C1977 0.950 . S
H1972 C1978 0.949 . S
C1973 H1968 0.950 . S
C1973 C1975 1.327 . S
C1973 C1979 1.429 . S
C1974 C1966 1.574 . S
C1974 H1969 0.949 . S
C1974 C1980 1.368 . S
C1975 C1959 1.349 . S
C1975 H1967 0.950 . S
C1975 C1973 1.327 . S
C1976 C1964 1.349 . S
C1976 H1970 0.950 . S
C1976 C1977 1.327 . S
C1977 H1971 0.950 . S
C1977 C1976 1.327 . S
C1977 C1981 1.429 . S
C1978 C1961 1.574 . S
C1978 H1972 0.949 . S
C1978 C1982 1.368 . S
C1979 C1960 1.429 . S
C1979 C1973 1.429 . S
C1979 C1980 1.523 . S
C1980 C1961 1.368 . S
C1980 C1974 1.368 . S
C1980 C1979 1.523 . S
C1981 C1965 1.429 . S
C1981 C1977 1.429 . S
C1981 C1982 1.523 . S
C1982 C1966 1.368 . S
C1982 C1978 1.368 . S
C1982 C1981 1.523 . S
H1983 C1958 0.950 . S
H1984 C1960 0.950 . S
H1985 C1961 0.949 . S
H1986 C1963 0.950 . S
H1987 C1965 0.950 . S
C1988 C1989 1.349 . S
C1988 C1990 1.327 . S
C1988 H2013 0.950 . S
C1989 C1988 1.349 . S
C1989 C2005 1.349 . S
C1990 C1988 1.327 . S
C1990 C2009 1.429 . S
C1990 H2014 0.950 . S
C1991 C2008 1.574 . S
C1991 C2010 1.368 . S
C1991 H2015 0.949 . S
H1992 C1996 0.949 . S
C1993 C1994 1.349 . S
C1993 C1995 1.327 . S
C1993 H2016 0.950 . S
C1994 C1993 1.349 . S
C1994 C2006 1.349 . S
C1995 C1993 1.327 . S
C1995 C2011 1.429 . S
C1995 H2017 0.950 . S
C1996 H1992 0.949 . S
C1996 C2004 1.574 . S
C1996 C2012 1.368 . S
H1997 C2005 0.950 . S
H1998 C2003 0.950 . S
H1999 C2004 0.949 . S
H2000 C2006 0.950 . S
H2001 C2007 0.950 . S
H2002 C2008 0.949 . S
C2003 H1998 0.950 . S
C2003 C2005 1.327 . S
C2003 C2009 1.429 . S
C2004 C1996 1.574 . S
C2004 H1999 0.949 . S
C2004 C2010 1.368 . S
C2005 C1989 1.349 . S
C2005 H1997 0.950 . S
C2005 C2003 1.327 . S
C2006 C1994 1.349 . S
C2006 H2000 0.950 . S
C2006 C2007 1.327 . S
C2007 H2001 0.950 . S
C2007 C2006 1.327 . S
C2007 C2011 1.429 . S
C2008 C1991 1.574 . S
C2008 H2002 0.949 . S
C2008 C2012 1.368 . S
C2009 C1990 1.429 . S
C2009 C2003 1.429 . S
C2009 C2010 1.523 . S
C2010 C1991 1.368 . S
C2010 C2004 1.368 . S
C2010 C2009 1.523 . S
C2011 C1995 1.429 . S
C2011 C2007 1.429 . S
C2011 C2012 1.523 . S
C2012 C1996 1.368 . S
C2012 C2008 1.368 . S
C2012 C2011 1.523 . S
H2013 C1988 0.950 . S
H2014 C1990 0.950 . S
H2015 C1991 0.949 . S
H2016 C1993 0.950 . S
H2017 C1995 0.950 . S
C2018 C2019 1.349 . S
C2018 C2020 1.327 . S
C2018 H2043 0.950 . S
C2019 C2018 1.349 . S
C2019 C2035 1.349 . S
C2020 C2018 1.327 . S
C2020 C2039 1.429 . S
C2020 H2044 0.950 . S
C2021 C2038 1.574 . S
C2021 C2040 1.368 . S
C2021 H2045 0.949 . S
H2022 C2026 0.949 . S
C2023 C2024 1.349 . S
C2023 C2025 1.327 . S
C2023 H2046 0.950 . S
C2024 C2023 1.349 . S
C2024 C2036 1.349 . S
C2025 C2023 1.327 . S
C2025 C2041 1.429 . S
C2025 H2047 0.950 . S
C2026 H2022 0.949 . S
C2026 C2034 1.574 . S
C2026 C2042 1.368 . S
H2027 C2035 0.950 . S
H2028 C2033 0.950 . S
H2029 C2034 0.949 . S
H2030 C2036 0.950 . S
H2031 C2037 0.950 . S
H2032 C2038 0.949 . S
C2033 H2028 0.950 . S
C2033 C2035 1.327 . S
C2033 C2039 1.429 . S
C2034 C2026 1.574 . S
C2034 H2029 0.949 . S
C2034 C2040 1.368 . S
C2035 C2019 1.349 . S
C2035 H2027 0.950 . S
C2035 C2033 1.327 . S
C2036 C2024 1.349 . S
C2036 H2030 0.950 . S
C2036 C2037 1.327 . S
C2037 H2031 0.950 . S
C2037 C2036 1.327 . S
C2037 C2041 1.429 . S
C2038 C2021 1.574 . S
C2038 H2032 0.949 . S
C2038 C2042 1.368 . S
C2039 C2020 1.429 . S
C2039 C2033 1.429 . S
C2039 C2040 1.523 . S
C2040 C2021 1.368 . S
C2040 C2034 1.368 . S
C2040 C2039 1.523 . S
C2041 C2025 1.429 . S
C2041 C2037 1.429 . S
C2041 C2042 1.523 . S
C2042 C2026 1.368 . S
C2042 C2038 1.368 . S
C2042 C2041 1.523 . S
H2043 C2018 0.950 . S
H2044 C2020 0.950 . S
H2045 C2021 0.949 . S
H2046 C2023 0.950 . S
H2047 C2025 0.950 . S
C2048 C2049 1.349 . S
C2048 C2050 1.327 . S
C2048 H2073 0.950 . S
C2049 C2048 1.349 . S
C2049 C2065 1.349 . S
C2050 C2048 1.327 . S
C2050 C2069 1.429 . S
C2050 H2074 0.950 . S
C2051 C2068 1.574 . S
C2051 C2070 1.368 . S
C2051 H2075 0.949 . S
H2052 C2056 0.949 . S
C2053 C2054 1.349 . S
C2053 C2055 1.327 . S
C2053 H2076 0.950 . S
C2054 C2053 1.349 . S
C2054 C2066 1.349 . S
C2055 C2053 1.327 . S
C2055 C2071 1.429 . S
C2055 H2077 0.950 . S
C2056 H2052 0.949 . S
C2056 C2064 1.574 . S
C2056 C2072 1.368 . S
H2057 C2065 0.950 . S
H2058 C2063 0.950 . S
H2059 C2064 0.949 . S
H2060 C2066 0.950 . S
H2061 C2067 0.950 . S
H2062 C2068 0.949 . S
C2063 H2058 0.950 . S
C2063 C2065 1.327 . S
C2063 C2069 1.429 . S
C2064 C2056 1.574 . S
C2064 H2059 0.949 . S
C2064 C2070 1.368 . S
C2065 C2049 1.349 . S
C2065 H2057 0.950 . S
C2065 C2063 1.327 . S
C2066 C2054 1.349 . S
C2066 H2060 0.950 . S
C2066 C2067 1.327 . S
C2067 H2061 0.950 . S
C2067 C2066 1.327 . S
C2067 C2071 1.429 . S
C2068 C2051 1.574 . S
C2068 H2062 0.949 . S
C2068 C2072 1.368 . S
C2069 C2050 1.429 . S
C2069 C2063 1.429 . S
C2069 C2070 1.523 . S
C2070 C2051 1.368 . S
C2070 C2064 1.368 . S
C2070 C2069 1.523 . S
C2071 C2055 1.429 . S
C2071 C2067 1.429 . S
C2071 C2072 1.523 . S
C2072 C2056 1.368 . S
C2072 C2068 1.368 . S
C2072 C2071 1.523 . S
H2073 C2048 0.950 . S
H2074 C2050 0.950 . S
H2075 C2051 0.949 . S
H2076 C2053 0.950 . S
H2077 C2055 0.950 . S
C2078 C2079 1.349 . S
C2078 C2080 1.327 . S
C2078 H2103 0.950 . S
C2079 C2078 1.349 . S
C2079 C2095 1.349 . S
C2080 C2078 1.327 . S
C2080 C2099 1.429 . S
C2080 H2104 0.950 . S
C2081 C2098 1.574 . S
C2081 C2100 1.368 . S
C2081 H2105 0.949 . S
H2082 C2086 0.949 . S
C2083 C2084 1.349 . S
C2083 C2085 1.327 . S
C2083 H2106 0.950 . S
C2084 C2083 1.349 . S
C2084 C2096 1.349 . S
C2085 C2083 1.327 . S
C2085 C2101 1.429 . S
C2085 H2107 0.950 . S
C2086 H2082 0.949 . S
C2086 C2094 1.574 . S
C2086 C2102 1.368 . S
H2087 C2095 0.950 . S
H2088 C2093 0.950 . S
H2089 C2094 0.949 . S
H2090 C2096 0.950 . S
H2091 C2097 0.950 . S
H2092 C2098 0.949 . S
C2093 H2088 0.950 . S
C2093 C2095 1.327 . S
C2093 C2099 1.429 . S
C2094 C2086 1.574 . S
C2094 H2089 0.949 . S
C2094 C2100 1.368 . S
C2095 C2079 1.349 . S
C2095 H2087 0.950 . S
C2095 C2093 1.327 . S
C2096 C2084 1.349 . S
C2096 H2090 0.950 . S
C2096 C2097 1.327 . S
C2097 H2091 0.950 . S
C2097 C2096 1.327 . S
C2097 C2101 1.429 . S
C2098 C2081 1.574 . S
C2098 H2092 0.949 . S
C2098 C2102 1.368 . S
C2099 C2080 1.429 . S
C2099 C2093 1.429 . S
C2099 C2100 1.523 . S
C2100 C2081 1.368 . S
C2100 C2094 1.368 . S
C2100 C2099 1.523 . S
C2101 C2085 1.429 . S
C2101 C2097 1.429 . S
C2101 C2102 1.523 . S
C2102 C2086 1.368 . S
C2102 C2098 1.368 . S
C2102 C2101 1.523 . S
H2103 C2078 0.950 . S
H2104 C2080 0.950 . S
H2105 C2081 0.949 . S
H2106 C2083 0.950 . S
H2107 C2085 0.950 . S
C2108 C2109 1.349 . S
C2108 C2110 1.327 . S
C2108 H2133 0.950 . S
C2109 C2108 1.349 . S
C2109 C2125 1.349 . S
C2110 C2108 1.327 . S
C2110 C2129 1.429 . S
C2110 H2134 0.950 . S
C2111 C2128 1.574 . S
C2111 C2130 1.368 . S
C2111 H2135 0.949 . S
H2112 C2116 0.949 . S
C2113 C2114 1.349 . S
C2113 C2115 1.327 . S
C2113 H2136 0.950 . S
C2114 C2113 1.349 . S
C2114 C2126 1.349 . S
C2115 C2113 1.327 . S
C2115 C2131 1.429 . S
C2115 H2137 0.950 . S
C2116 H2112 0.949 . S
C2116 C2124 1.574 . S
C2116 C2132 1.368 . S
H2117 C2125 0.950 . S
H2118 C2123 0.950 . S
H2119 C2124 0.949 . S
H2120 C2126 0.950 . S
H2121 C2127 0.950 . S
H2122 C2128 0.949 . S
C2123 H2118 0.950 . S
C2123 C2125 1.327 . S
C2123 C2129 1.429 . S
C2124 C2116 1.574 . S
C2124 H2119 0.949 . S
C2124 C2130 1.368 . S
C2125 C2109 1.349 . S
C2125 H2117 0.950 . S
C2125 C2123 1.327 . S
C2126 C2114 1.349 . S
C2126 H2120 0.950 . S
C2126 C2127 1.327 . S
C2127 H2121 0.950 . S
C2127 C2126 1.327 . S
C2127 C2131 1.429 . S
C2128 C2111 1.574 . S
C2128 H2122 0.949 . S
C2128 C2132 1.368 . S
C2129 C2110 1.429 . S
C2129 C2123 1.429 . S
C2129 C2130 1.523 . S
C2130 C2111 1.368 . S
C2130 C2124 1.368 . S
C2130 C2129 1.523 . S
C2131 C2115 1.429 . S
C2131 C2127 1.429 . S
C2131 C2132 1.523 . S
C2132 C2116 1.368 . S
C2132 C2128 1.368 . S
C2132 C2131 1.523 . S
H2133 C2108 0.950 . S
H2134 C2110 0.950 . S
H2135 C2111 0.949 . S
H2136 C2113 0.950 . S
H2137 C2115 0.950 . S
C2138 C2139 1.349 . S
C2138 C2140 1.327 . S
C2138 H2163 0.950 . S
C2139 C2138 1.349 . S
C2139 C2155 1.349 . S
C2140 C2138 1.327 . S
C2140 C2159 1.429 . S
C2140 H2164 0.950 . S
C2141 C2158 1.574 . S
C2141 C2160 1.368 . S
C2141 H2165 0.949 . S
H2142 C2146 0.949 . S
C2143 C2144 1.349 . S
C2143 C2145 1.327 . S
C2143 H2166 0.950 . S
C2144 C2143 1.349 . S
C2144 C2156 1.349 . S
C2145 C2143 1.327 . S
C2145 C2161 1.429 . S
C2145 H2167 0.950 . S
C2146 H2142 0.949 . S
C2146 C2154 1.574 . S
C2146 C2162 1.368 . S
H2147 C2155 0.950 . S
H2148 C2153 0.950 . S
H2149 C2154 0.949 . S
H2150 C2156 0.950 . S
H2151 C2157 0.950 . S
H2152 C2158 0.949 . S
C2153 H2148 0.950 . S
C2153 C2155 1.327 . S
C2153 C2159 1.429 . S
C2154 C2146 1.574 . S
C2154 H2149 0.949 . S
C2154 C2160 1.368 . S
C2155 C2139 1.349 . S
C2155 H2147 0.950 . S
C2155 C2153 1.327 . S
C2156 C2144 1.349 . S
C2156 H2150 0.950 . S
C2156 C2157 1.327 . S
C2157 H2151 0.950 . S
C2157 C2156 1.327 . S
C2157 C2161 1.429 . S
C2158 C2141 1.574 . S
C2158 H2152 0.949 . S
C2158 C2162 1.368 . S
C2159 C2140 1.429 . S
C2159 C2153 1.429 . S
C2159 C2160 1.523 . S
C2160 C2141 1.368 . S
C2160 C2154 1.368 . S
C2160 C2159 1.523 . S
C2161 C2145 1.429 . S
C2161 C2157 1.429 . S
C2161 C2162 1.523 . S
C2162 C2146 1.368 . S
C2162 C2158 1.368 . S
C2162 C2161 1.523 . S
H2163 C2138 0.950 . S
H2164 C2140 0.950 . S
H2165 C2141 0.949 . S
H2166 C2143 0.950 . S
H2167 C2145 0.950 . S
C2168 C2169 1.349 . S
C2168 C2170 1.327 . S
C2168 H2193 0.950 . S
C2169 C2168 1.349 . S
C2169 C2185 1.349 . S
C2170 C2168 1.327 . S
C2170 C2189 1.429 . S
C2170 H2194 0.950 . S
C2171 C2188 1.574 . S
C2171 C2190 1.368 . S
C2171 H2195 0.949 . S
H2172 C2176 0.949 . S
C2173 C2174 1.349 . S
C2173 C2175 1.327 . S
C2173 H2196 0.950 . S
C2174 C2173 1.349 . S
C2174 C2186 1.349 . S
C2175 C2173 1.327 . S
C2175 C2191 1.429 . S
C2175 H2197 0.950 . S
C2176 H2172 0.949 . S
C2176 C2184 1.574 . S
C2176 C2192 1.368 . S
H2177 C2185 0.950 . S
H2178 C2183 0.950 . S
H2179 C2184 0.949 . S
H2180 C2186 0.950 . S
H2181 C2187 0.950 . S
H2182 C2188 0.949 . S
C2183 H2178 0.950 . S
C2183 C2185 1.327 . S
C2183 C2189 1.429 . S
C2184 C2176 1.574 . S
C2184 H2179 0.949 . S
C2184 C2190 1.368 . S
C2185 C2169 1.349 . S
C2185 H2177 0.950 . S
C2185 C2183 1.327 . S
C2186 C2174 1.349 . S
C2186 H2180 0.950 . S
C2186 C2187 1.327 . S
C2187 H2181 0.950 . S
C2187 C2186 1.327 . S
C2187 C2191 1.429 . S
C2188 C2171 1.574 . S
C2188 H2182 0.949 . S
C2188 C2192 1.368 . S
C2189 C2170 1.429 . S
C2189 C2183 1.429 . S
C2189 C2190 1.523 . S
C2190 C2171 1.368 . S
C2190 C2184 1.368 . S
C2190 C2189 1.523 . S
C2191 C2175 1.429 . S
C2191 C2187 1.429 . S
C2191 C2192 1.523 . S
C2192 C2176 1.368 . S
C2192 C2188 1.368 . S
C2192 C2191 1.523 . S
H2193 C2168 0.950 . S
H2194 C2170 0.950 . S
H2195 C2171 0.949 . S
H2196 C2173 0.950 . S
H2197 C2175 0.950 . S
C2198 C2199 1.349 . S
C2198 C2200 1.327 . S
C2198 H2223 0.950 . S
C2199 C2198 1.349 . S
C2199 C2215 1.349 . S
C2200 C2198 1.327 . S
C2200 C2219 1.429 . S
C2200 H2224 0.950 . S
C2201 C2218 1.574 . S
C2201 C2220 1.368 . S
C2201 H2225 0.949 . S
H2202 C2206 0.949 . S
C2203 C2204 1.349 . S
C2203 C2205 1.327 . S
C2203 H2226 0.950 . S
C2204 C2203 1.349 . S
C2204 C2216 1.349 . S
C2205 C2203 1.327 . S
C2205 C2221 1.429 . S
C2205 H2227 0.950 . S
C2206 H2202 0.949 . S
C2206 C2214 1.574 . S
C2206 C2222 1.368 . S
H2207 C2215 0.950 . S
H2208 C2213 0.950 . S
H2209 C2214 0.949 . S
H2210 C2216 0.950 . S
H2211 C2217 0.950 . S
H2212 C2218 0.949 . S
C2213 H2208 0.950 . S
C2213 C2215 1.327 . S
C2213 C2219 1.429 . S
C2214 C2206 1.574 . S
C2214 H2209 0.949 . S
C2214 C2220 1.368 . S
C2215 C2199 1.349 . S
C2215 H2207 0.950 . S
C2215 C2213 1.327 . S
C2216 C2204 1.349 . S
C2216 H2210 0.950 . S
C2216 C2217 1.327 . S
C2217 H2211 0.950 . S
C2217 C2216 1.327 . S
C2217 C2221 1.429 . S
C2218 C2201 1.574 . S
C2218 H2212 0.949 . S
C2218 C2222 1.368 . S
C2219 C2200 1.429 . S
C2219 C2213 1.429 . S
C2219 C2220 1.523 . S
C2220 C2201 1.368 . S
C2220 C2214 1.368 . S
C2220 C2219 1.523 . S
C2221 C2205 1.429 . S
C2221 C2217 1.429 . S
C2221 C2222 1.523 . S
C2222 C2206 1.368 . S
C2222 C2218 1.368 . S
C2222 C2221 1.523 . S
H2223 C2198 0.950 . S
H2224 C2200 0.950 . S
H2225 C2201 0.949 . S
H2226 C2203 0.950 . S
H2227 C2205 0.950 . S
C2228 C2229 1.349 . S
C2228 C2230 1.327 . S
C2228 H2253 0.950 . S
C2229 C2228 1.349 . S
C2229 C2245 1.349 . S
C2230 C2228 1.327 . S
C2230 C2249 1.429 . S
C2230 H2254 0.950 . S
C2231 C2248 1.574 . S
C2231 C2250 1.368 . S
C2231 H2255 0.949 . S
H2232 C2236 0.949 . S
C2233 C2234 1.349 . S
C2233 C2235 1.327 . S
C2233 H2256 0.950 . S
C2234 C2233 1.349 . S
C2234 C2246 1.349 . S
C2235 C2233 1.327 . S
C2235 C2251 1.429 . S
C2235 H2257 0.950 . S
C2236 H2232 0.949 . S
C2236 C2244 1.574 . S
C2236 C2252 1.368 . S
H2237 C2245 0.950 . S
H2238 C2243 0.950 . S
H2239 C2244 0.949 . S
H2240 C2246 0.950 . S
H2241 C2247 0.950 . S
H2242 C2248 0.949 . S
C2243 H2238 0.950 . S
C2243 C2245 1.327 . S
C2243 C2249 1.429 . S
C2244 C2236 1.574 . S
C2244 H2239 0.949 . S
C2244 C2250 1.368 . S
C2245 C2229 1.349 . S
C2245 H2237 0.950 . S
C2245 C2243 1.327 . S
C2246 C2234 1.349 . S
C2246 H2240 0.950 . S
C2246 C2247 1.327 . S
C2247 H2241 0.950 . S
C2247 C2246 1.327 . S
C2247 C2251 1.429 . S
C2248 C2231 1.574 . S
C2248 H2242 0.949 . S
C2248 C2252 1.368 . S
C2249 C2230 1.429 . S
C2249 C2243 1.429 . S
C2249 C2250 1.523 . S
C2250 C2231 1.368 . S
C2250 C2244 1.368 . S
C2250 C2249 1.523 . S
C2251 C2235 1.429 . S
C2251 C2247 1.429 . S
C2251 C2252 1.523 . S
C2252 C2236 1.368 . S
C2252 C2248 1.368 . S
C2252 C2251 1.523 . S
H2253 C2228 0.950 . S
H2254 C2230 0.950 . S
H2255 C2231 0.949 . S
H2256 C2233 0.950 . S
H2257 C2235 0.950 . S
C2258 C2259 1.349 . S
C2258 C2260 1.327 . S
C2258 H2283 0.950 . S
C2259 C2258 1.349 . S
C2259 C2275 1.349 . S
C2260 C2258 1.327 . S
C2260 C2279 1.429 . S
C2260 H2284 0.950 . S
C2261 C2278 1.574 . S
C2261 C2280 1.368 . S
C2261 H2285 0.949 . S
H2262 C2266 0.949 . S
C2263 C2264 1.349 . S
C2263 C2265 1.327 . S
C2263 H2286 0.950 . S
C2264 C2263 1.349 . S
C2264 C2276 1.349 . S
C2265 C2263 1.327 . S
C2265 C2281 1.429 . S
C2265 H2287 0.950 . S
C2266 H2262 0.949 . S
C2266 C2274 1.574 . S
C2266 C2282 1.368 . S
H2267 C2275 0.950 . S
H2268 C2273 0.950 . S
H2269 C2274 0.949 . S
H2270 C2276 0.950 . S
H2271 C2277 0.950 . S
H2272 C2278 0.949 . S
C2273 H2268 0.950 . S
C2273 C2275 1.327 . S
C2273 C2279 1.429 . S
C2274 C2266 1.574 . S
C2274 H2269 0.949 . S
C2274 C2280 1.368 . S
C2275 C2259 1.349 . S
C2275 H2267 0.950 . S
C2275 C2273 1.327 . S
C2276 C2264 1.349 . S
C2276 H2270 0.950 . S
C2276 C2277 1.327 . S
C2277 H2271 0.950 . S
C2277 C2276 1.327 . S
C2277 C2281 1.429 . S
C2278 C2261 1.574 . S
C2278 H2272 0.949 . S
C2278 C2282 1.368 . S
C2279 C2260 1.429 . S
C2279 C2273 1.429 . S
C2279 C2280 1.523 . S
C2280 C2261 1.368 . S
C2280 C2274 1.368 . S
C2280 C2279 1.523 . S
C2281 C2265 1.429 . S
C2281 C2277 1.429 . S
C2281 C2282 1.523 . S
C2282 C2266 1.368 . S
C2282 C2278 1.368 . S
C2282 C2281 1.523 . S
H2283 C2258 0.950 . S
H2284 C2260 0.950 . S
H2285 C2261 0.949 . S
H2286 C2263 0.950 . S
H2287 C2265 0.950 . S
C2288 C2289 1.349 . S
C2288 C2290 1.327 . S
C2288 H2313 0.950 . S
C2289 C2288 1.349 . S
C2289 C2305 1.349 . S
C2290 C2288 1.327 . S
C2290 C2309 1.429 . S
C2290 H2314 0.950 . S
C2291 C2308 1.574 . S
C2291 C2310 1.368 . S
C2291 H2315 0.949 . S
H2292 C2296 0.949 . S
C2293 C2294 1.349 . S
C2293 C2295 1.327 . S
C2293 H2316 0.950 . S
C2294 C2293 1.349 . S
C2294 C2306 1.349 . S
C2295 C2293 1.327 . S
C2295 C2311 1.429 . S
C2295 H2317 0.950 . S
C2296 H2292 0.949 . S
C2296 C2304 1.574 . S
C2296 C2312 1.368 . S
H2297 C2305 0.950 . S
H2298 C2303 0.950 . S
H2299 C2304 0.949 . S
H2300 C2306 0.950 . S
H2301 C2307 0.950 . S
H2302 C2308 0.949 . S
C2303 H2298 0.950 . S
C2303 C2305 1.327 . S
C2303 C2309 1.429 . S
C2304 C2296 1.574 . S
C2304 H2299 0.949 . S
C2304 C2310 1.368 . S
C2305 C2289 1.349 . S
C2305 H2297 0.950 . S
C2305 C2303 1.327 . S
C2306 C2294 1.349 . S
C2306 H2300 0.950 . S
C2306 C2307 1.327 . S
C2307 H2301 0.950 . S
C2307 C2306 1.327 . S
C2307 C2311 1.429 . S
C2308 C2291 1.574 . S
C2308 H2302 0.949 . S
C2308 C2312 1.368 . S
C2309 C2290 1.429 . S
C2309 C2303 1.429 . S
C2309 C2310 1.523 . S
C2310 C2291 1.368 . S
C2310 C2304 1.368 . S
C2310 C2309 1.523 . S
C2311 C2295 1.429 . S
C2311 C2307 1.429 . S
C2311 C2312 1.523 . S
C2312 C2296 1.368 . S
C2312 C2308 1.368 . S
C2312 C2311 1.523 . S
H2313 C2288 0.950 . S
H2314 C2290 0.950 . S
H2315 C2291 0.949 . S
H2316 C2293 0.950 . S
H2317 C2295 0.950 . S
C2318 C2319 1.349 . S
C2318 C2320 1.327 . S
C2318 H2343 0.950 . S
C2319 C2318 1.349 . S
C2319 C2335 1.349 . S
C2320 C2318 1.327 . S
C2320 C2339 1.429 . S
C2320 H2344 0.950 . S
C2321 C2338 1.574 . S
C2321 C2340 1.368 . S
C2321 H2345 0.949 . S
H2322 C2326 0.949 . S
C2323 C2324 1.349 . S
C2323 C2325 1.327 . S
C2323 H2346 0.950 . S
C2324 C2323 1.349 . S
C2324 C2336 1.349 . S
C2325 C2323 1.327 . S
C2325 C2341 1.429 . S
C2325 H2347 0.950 . S
C2326 H2322 0.949 . S
C2326 C2334 1.574 . S
C2326 C2342 1.368 . S
H2327 C2335 0.950 . S
H2328 C2333 0.950 . S
H2329 C2334 0.949 . S
H2330 C2336 0.950 . S
H2331 C2337 0.950 . S
H2332 C2338 0.949 . S
C2333 H2328 0.950 . S
C2333 C2335 1.327 . S
C2333 C2339 1.429 . S
C2334 C2326 1.574 . S
C2334 H2329 0.949 . S
C2334 C2340 1.368 . S
C2335 C2319 1.349 . S
C2335 H2327 0.950 . S
C2335 C2333 1.327 . S
C2336 C2324 1.349 . S
C2336 H2330 0.950 . S
C2336 C2337 1.327 . S
C2337 H2331 0.950 . S
C2337 C2336 1.327 . S
C2337 C2341 1.429 . S
C2338 C2321 1.574 . S
C2338 H2332 0.949 . S
C2338 C2342 1.368 . S
C2339 C2320 1.429 . S
C2339 C2333 1.429 . S
C2339 C2340 1.523 . S
C2340 C2321 1.368 . S
C2340 C2334 1.368 . S
C2340 C2339 1.523 . S
C2341 C2325 1.429 . S
C2341 C2337 1.429 . S
C2341 C2342 1.523 . S
C2342 C2326 1.368 . S
C2342 C2338 1.368 . S
C2342 C2341 1.523 . S
H2343 C2318 0.950 . S
H2344 C2320 0.950 . S
H2345 C2321 0.949 . S
H2346 C2323 0.950 . S
H2347 C2325 0.950 . S
C2348 C2349 1.349 . S
C2348 C2350 1.327 . S
C2348 H2373 0.950 . S
C2349 C2348 1.349 . S
C2349 C2365 1.349 . S
C2350 C2348 1.327 . S
C2350 C2369 1.429 . S
C2350 H2374 0.950 . S
C2351 C2368 1.574 . S
C2351 C2370 1.368 . S
C2351 H2375 0.949 . S
H2352 C2356 0.949 . S
C2353 C2354 1.349 . S
C2353 C2355 1.327 . S
C2353 H2376 0.950 . S
C2354 C2353 1.349 . S
C2354 C2366 1.349 . S
C2355 C2353 1.327 . S
C2355 C2371 1.429 . S
C2355 H2377 0.950 . S
C2356 H2352 0.949 . S
C2356 C2364 1.574 . S
C2356 C2372 1.368 . S
H2357 C2365 0.950 . S
H2358 C2363 0.950 . S
H2359 C2364 0.949 . S
H2360 C2366 0.950 . S
H2361 C2367 0.950 . S
H2362 C2368 0.949 . S
C2363 H2358 0.950 . S
C2363 C2365 1.327 . S
C2363 C2369 1.429 . S
C2364 C2356 1.574 . S
C2364 H2359 0.949 . S
C2364 C2370 1.368 . S
C2365 C2349 1.349 . S
C2365 H2357 0.950 . S
C2365 C2363 1.327 . S
C2366 C2354 1.349 . S
C2366 H2360 0.950 . S
C2366 C2367 1.327 . S
C2367 H2361 0.950 . S
C2367 C2366 1.327 . S
C2367 C2371 1.429 . S
C2368 C2351 1.574 . S
C2368 H2362 0.949 . S
C2368 C2372 1.368 . S
C2369 C2350 1.429 . S
C2369 C2363 1.429 . S
C2369 C2370 1.523 . S
C2370 C2351 1.368 . S
C2370 C2364 1.368 . S
C2370 C2369 1.523 . S
C2371 C2355 1.429 . S
C2371 C2367 1.429 . S
C2371 C2372 1.523 . S
C2372 C2356 1.368 . S
C2372 C2368 1.368 . S
C2372 C2371 1.523 . S
H2373 C2348 0.950 . S
H2374 C2350 0.950 . S
H2375 C2351 0.949 . S
H2376 C2353 0.950 . S
H2377 C2355 0.950 . S
C2378 C2379 1.349 . S
C2378 C2380 1.327 . S
C2378 H2403 0.950 . S
C2379 C2378 1.349 . S
C2379 C2395 1.349 . S
C2380 C2378 1.327 . S
C2380 C2399 1.429 . S
C2380 H2404 0.950 . S
C2381 C2398 1.574 . S
C2381 C2400 1.368 . S
C2381 H2405 0.949 . S
H2382 C2386 0.949 . S
C2383 C2384 1.349 . S
C2383 C2385 1.327 . S
C2383 H2406 0.950 . S
C2384 C2383 1.349 . S
C2384 C2396 1.349 . S
C2385 C2383 1.327 . S
C2385 C2401 1.429 . S
C2385 H2407 0.950 . S
C2386 H2382 0.949 . S
C2386 C2394 1.574 . S
C2386 C2402 1.368 . S
H2387 C2395 0.950 . S
H2388 C2393 0.950 . S
H2389 C2394 0.949 . S
H2390 C2396 0.950 . S
H2391 C2397 0.950 . S
H2392 C2398 0.949 . S
C2393 H2388 0.950 . S
C2393 C2395 1.327 . S
C2393 C2399 1.429 . S
C2394 C2386 1.574 . S
C2394 H2389 0.949 . S
C2394 C2400 1.368 . S
C2395 C2379 1.349 . S
C2395 H2387 0.950 . S
C2395 C2393 1.327 . S
C2396 C2384 1.349 . S
C2396 H2390 0.950 . S
C2396 C2397 1.327 . S
C2397 H2391 0.950 . S
C2397 C2396 1.327 . S
C2397 C2401 1.429 . S
C2398 C2381 1.574 . S
C2398 H2392 0.949 . S
C2398 C2402 1.368 . S
C2399 C2380 1.429 . S
C2399 C2393 1.429 . S
C2399 C2400 1.523 . S
C2400 C2381 1.368 . S
C2400 C2394 1.368 . S
C2400 C2399 1.523 . S
C2401 C2385 1.429 . S
C2401 C2397 1.429 . S
C2401 C2402 1.523 . S
C2402 C2386 1.368 . S
C2402 C2398 1.368 . S
C2402 C2401 1.523 . S
H2403 C2378 0.950 . S
H2404 C2380 0.950 . S
H2405 C2381 0.949 . S
H2406 C2383 0.950 . S
H2407 C2385 0.950 . S
C2408 C2409 1.349 . S
C2408 C2410 1.327 . S
C2408 H2433 0.950 . S
C2409 C2408 1.349 . S
C2409 C2425 1.349 . S
C2410 C2408 1.327 . S
C2410 C2429 1.429 . S
C2410 H2434 0.950 . S
C2411 C2428 1.574 . S
C2411 C2430 1.368 . S
C2411 H2435 0.949 . S
H2412 C2416 0.949 . S
C2413 C2414 1.349 . S
C2413 C2415 1.327 . S
C2413 H2436 0.950 . S
C2414 C2413 1.349 . S
C2414 C2426 1.349 . S
C2415 C2413 1.327 . S
C2415 C2431 1.429 . S
C2415 H2437 0.950 . S
C2416 H2412 0.949 . S
C2416 C2424 1.574 . S
C2416 C2432 1.368 . S
H2417 C2425 0.950 . S
H2418 C2423 0.950 . S
H2419 C2424 0.949 . S
H2420 C2426 0.950 . S
H2421 C2427 0.950 . S
H2422 C2428 0.949 . S
C2423 H2418 0.950 . S
C2423 C2425 1.327 . S
C2423 C2429 1.429 . S
C2424 C2416 1.574 . S
C2424 H2419 0.949 . S
C2424 C2430 1.368 . S
C2425 C2409 1.349 . S
C2425 H2417 0.950 . S
C2425 C2423 1.327 . S
C2426 C2414 1.349 . S
C2426 H2420 0.950 . S
C2426 C2427 1.327 . S
C2427 H2421 0.950 . S
C2427 C2426 1.327 . S
C2427 C2431 1.429 . S
C2428 C2411 1.574 . S
C2428 H2422 0.949 . S
C2428 C2432 1.368 . S
C2429 C2410 1.429 . S
C2429 C2423 1.429 . S
C2429 C2430 1.523 . S
C2430 C2411 1.368 . S
C2430 C2424 1.368 . S
C2430 C2429 1.523 . S
C2431 C2415 1.429 . S
C2431 C2427 1.429 . S
C2431 C2432 1.523 . S
C2432 C2416 1.368 . S
C2432 C2428 1.368 . S
C2432 C2431 1.523 . S
H2433 C2408 0.950 . S
H2434 C2410 0.950 . S
H2435 C2411 0.949 . S
H2436 C2413 0.950 . S
H2437 C2415 0.950 . S
C2438 C2439 1.349 . S
C2438 C2440 1.327 . S
C2438 H2463 0.950 . S
C2439 C2438 1.349 . S
C2439 C2455 1.349 . S
C2440 C2438 1.327 . S
C2440 C2459 1.429 . S
C2440 H2464 0.950 . S
C2441 C2458 1.574 . S
C2441 C2460 1.368 . S
C2441 H2465 0.949 . S
H2442 C2446 0.949 . S
C2443 C2444 1.349 . S
C2443 C2445 1.327 . S
C2443 H2466 0.950 . S
C2444 C2443 1.349 . S
C2444 C2456 1.349 . S
C2445 C2443 1.327 . S
C2445 C2461 1.429 . S
C2445 H2467 0.950 . S
C2446 H2442 0.949 . S
C2446 C2454 1.574 . S
C2446 C2462 1.368 . S
H2447 C2455 0.950 . S
H2448 C2453 0.950 . S
H2449 C2454 0.949 . S
H2450 C2456 0.950 . S
H2451 C2457 0.950 . S
H2452 C2458 0.949 . S
C2453 H2448 0.950 . S
C2453 C2455 1.327 . S
C2453 C2459 1.429 . S
C2454 C2446 1.574 . S
C2454 H2449 0.949 . S
C2454 C2460 1.368 . S
C2455 C2439 1.349 . S
C2455 H2447 0.950 . S
C2455 C2453 1.327 . S
C2456 C2444 1.349 . S
C2456 H2450 0.950 . S
C2456 C2457 1.327 . S
C2457 H2451 0.950 . S
C2457 C2456 1.327 . S
C2457 C2461 1.429 . S
C2458 C2441 1.574 . S
C2458 H2452 0.949 . S
C2458 C2462 1.368 . S
C2459 C2440 1.429 . S
C2459 C2453 1.429 . S
C2459 C2460 1.523 . S
C2460 C2441 1.368 . S
C2460 C2454 1.368 . S
C2460 C2459 1.523 . S
C2461 C2445 1.429 . S
C2461 C2457 1.429 . S
C2461 C2462 1.523 . S
C2462 C2446 1.368 . S
C2462 C2458 1.368 . S
C2462 C2461 1.523 . S
H2463 C2438 0.950 . S
H2464 C2440 0.950 . S
H2465 C2441 0.949 . S
H2466 C2443 0.950 . S
H2467 C2445 0.950 . S
C2468 C2469 1.349 . S
C2468 C2470 1.327 . S
C2468 H2493 0.950 . S
C2469 C2468 1.349 . S
C2469 C2485 1.349 . S
C2470 C2468 1.327 . S
C2470 C2489 1.429 . S
C2470 H2494 0.950 . S
C2471 C2488 1.574 . S
C2471 C2490 1.368 . S
C2471 H2495 0.949 . S
H2472 C2476 0.949 . S
C2473 C2474 1.349 . S
C2473 C2475 1.327 . S
C2473 H2496 0.950 . S
C2474 C2473 1.349 . S
C2474 C2486 1.349 . S
C2475 C2473 1.327 . S
C2475 C2491 1.429 . S
C2475 H2497 0.950 . S
C2476 H2472 0.949 . S
C2476 C2484 1.574 . S
C2476 C2492 1.368 . S
H2477 C2485 0.950 . S
H2478 C2483 0.950 . S
H2479 C2484 0.949 . S
H2480 C2486 0.950 . S
H2481 C2487 0.950 . S
H2482 C2488 0.949 . S
C2483 H2478 0.950 . S
C2483 C2485 1.327 . S
C2483 C2489 1.429 . S
C2484 C2476 1.574 . S
C2484 H2479 0.949 . S
C2484 C2490 1.368 . S
C2485 C2469 1.349 . S
C2485 H2477 0.950 . S
C2485 C2483 1.327 . S
C2486 C2474 1.349 . S
C2486 H2480 0.950 . S
C2486 C2487 1.327 . S
C2487 H2481 0.950 . S
C2487 C2486 1.327 . S
C2487 C2491 1.429 . S
C2488 C2471 1.574 . S
C2488 H2482 0.949 . S
C2488 C2492 1.368 . S
C2489 C2470 1.429 . S
C2489 C2483 1.429 . S
C2489 C2490 1.523 . S
C2490 C2471 1.368 . S
C2490 C2484 1.368 . S
C2490 C2489 1.523 . S
C2491 C2475 1.429 . S
C2491 C2487 1.429 . S
C2491 C2492 1.523 . S
C2492 C2476 1.368 . S
C2492 C2488 1.368 . S
C2492 C2491 1.523 . S
H2493 C2468 0.950 . S
H2494 C2470 0.950 . S
H2495 C2471 0.949 . S
H2496 C2473 0.950 . S
H2497 C2475 0.950 . S
C2498 C2499 1.349 . S
C2498 C2500 1.327 . S
C2498 H2523 0.950 . S
C2499 C2498 1.349 . S
C2499 C2515 1.349 . S
C2500 C2498 1.327 . S
C2500 C2519 1.429 . S
C2500 H2524 0.950 . S
C2501 C2518 1.574 . S
C2501 C2520 1.368 . S
C2501 H2525 0.949 . S
H2502 C2506 0.949 . S
C2503 C2504 1.349 . S
C2503 C2505 1.327 . S
C2503 H2526 0.950 . S
C2504 C2503 1.349 . S
C2504 C2516 1.349 . S
C2505 C2503 1.327 . S
C2505 C2521 1.429 . S
C2505 H2527 0.950 . S
C2506 H2502 0.949 . S
C2506 C2514 1.574 . S
C2506 C2522 1.368 . S
H2507 C2515 0.950 . S
H2508 C2513 0.950 . S
H2509 C2514 0.949 . S
H2510 C2516 0.950 . S
H2511 C2517 0.950 . S
H2512 C2518 0.949 . S
C2513 H2508 0.950 . S
C2513 C2515 1.327 . S
C2513 C2519 1.429 . S
C2514 C2506 1.574 . S
C2514 H2509 0.949 . S
C2514 C2520 1.368 . S
C2515 C2499 1.349 . S
C2515 H2507 0.950 . S
C2515 C2513 1.327 . S
C2516 C2504 1.349 . S
C2516 H2510 0.950 . S
C2516 C2517 1.327 . S
C2517 H2511 0.950 . S
C2517 C2516 1.327 . S
C2517 C2521 1.429 . S
C2518 C2501 1.574 . S
C2518 H2512 0.949 . S
C2518 C2522 1.368 . S
C2519 C2500 1.429 . S
C2519 C2513 1.429 . S
C2519 C2520 1.523 . S
C2520 C2501 1.368 . S
C2520 C2514 1.368 . S
C2520 C2519 1.523 . S
C2521 C2505 1.429 . S
C2521 C2517 1.429 . S
C2521 C2522 1.523 . S
C2522 C2506 1.368 . S
C2522 C2518 1.368 . S
C2522 C2521 1.523 . S
H2523 C2498 0.950 . S
H2524 C2500 0.950 . S
H2525 C2501 0.949 . S
H2526 C2503 0.950 . S
H2527 C2505 0.950 . S
C2528 C2529 1.349 . S
C2528 C2530 1.327 . S
C2528 H2553 0.950 . S
C2529 C2528 1.349 . S
C2529 C2545 1.349 . S
C2530 C2528 1.327 . S
C2530 C2549 1.429 . S
C2530 H2554 0.950 . S
C2531 C2548 1.574 . S
C2531 C2550 1.368 . S
C2531 H2555 0.949 . S
H2532 C2536 0.949 . S
C2533 C2534 1.349 . S
C2533 C2535 1.327 . S
C2533 H2556 0.950 . S
C2534 C2533 1.349 . S
C2534 C2546 1.349 . S
C2535 C2533 1.327 . S
C2535 C2551 1.429 . S
C2535 H2557 0.950 . S
C2536 H2532 0.949 . S
C2536 C2544 1.574 . S
C2536 C2552 1.368 . S
H2537 C2545 0.950 . S
H2538 C2543 0.950 . S
H2539 C2544 0.949 . S
H2540 C2546 0.950 . S
H2541 C2547 0.950 . S
H2542 C2548 0.949 . S
C2543 H2538 0.950 . S
C2543 C2545 1.327 . S
C2543 C2549 1.429 . S
C2544 C2536 1.574 . S
C2544 H2539 0.949 . S
C2544 C2550 1.368 . S
C2545 C2529 1.349 . S
C2545 H2537 0.950 . S
C2545 C2543 1.327 . S
C2546 C2534 1.349 . S
C2546 H2540 0.950 . S
C2546 C2547 1.327 . S
C2547 H2541 0.950 . S
C2547 C2546 1.327 . S
C2547 C2551 1.429 . S
C2548 C2531 1.574 . S
C2548 H2542 0.949 . S
C2548 C2552 1.368 . S
C2549 C2530 1.429 . S
C2549 C2543 1.429 . S
C2549 C2550 1.523 . S
C2550 C2531 1.368 . S
C2550 C2544 1.368 . S
C2550 C2549 1.523 . S
C2551 C2535 1.429 . S
C2551 C2547 1.429 . S
C2551 C2552 1.523 . S
C2552 C2536 1.368 . S
C2552 C2548 1.368 . S
C2552 C2551 1.523 . S
H2553 C2528 0.950 . S
H2554 C2530 0.950 . S
H2555 C2531 0.949 . S
H2556 C2533 0.950 . S
H2557 C2535 0.950 . S
C2558 C2559 1.349 . S
C2558 C2560 1.327 . S
C2558 H2583 0.950 . S
C2559 C2558 1.349 . S
C2559 C2575 1.349 . S
C2560 C2558 1.327 . S
C2560 C2579 1.429 . S
C2560 H2584 0.950 . S
C2561 C2578 1.574 . S
C2561 C2580 1.368 . S
C2561 H2585 0.949 . S
H2562 C2566 0.949 . S
C2563 C2564 1.349 . S
C2563 C2565 1.327 . S
C2563 H2586 0.950 . S
C2564 C2563 1.349 . S
C2564 C2576 1.349 . S
C2565 C2563 1.327 . S
C2565 C2581 1.429 . S
C2565 H2587 0.950 . S
C2566 H2562 0.949 . S
C2566 C2574 1.574 . S
C2566 C2582 1.368 . S
H2567 C2575 0.950 . S
H2568 C2573 0.950 . S
H2569 C2574 0.949 . S
H2570 C2576 0.950 . S
H2571 C2577 0.950 . S
H2572 C2578 0.949 . S
C2573 H2568 0.950 . S
C2573 C2575 1.327 . S
C2573 C2579 1.429 . S
C2574 C2566 1.574 . S
C2574 H2569 0.949 . S
C2574 C2580 1.368 . S
C2575 C2559 1.349 . S
C2575 H2567 0.950 . S
C2575 C2573 1.327 . S
C2576 C2564 1.349 . S
C2576 H2570 0.950 . S
C2576 C2577 1.327 . S
C2577 H2571 0.950 . S
C2577 C2576 1.327 . S
C2577 C2581 1.429 . S
C2578 C2561 1.574 . S
C2578 H2572 0.949 . S
C2578 C2582 1.368 . S
C2579 C2560 1.429 . S
C2579 C2573 1.429 . S
C2579 C2580 1.523 . S
C2580 C2561 1.368 . S
C2580 C2574 1.368 . S
C2580 C2579 1.523 . S
C2581 C2565 1.429 . S
C2581 C2577 1.429 . S
C2581 C2582 1.523 . S
C2582 C2566 1.368 . S
C2582 C2578 1.368 . S
C2582 C2581 1.523 . S
H2583 C2558 0.950 . S
H2584 C2560 0.950 . S
H2585 C2561 0.949 . S
H2586 C2563 0.950 . S
H2587 C2565 0.950 . S
C2588 C2589 1.349 . S
C2588 C2590 1.327 . S
C2588 H2613 0.950 . S
C2589 C2588 1.349 . S
C2589 C2605 1.349 . S
C2590 C2588 1.327 . S
C2590 C2609 1.429 . S
C2590 H2614 0.950 . S
C2591 C2608 1.574 . S
C2591 C2610 1.368 . S
C2591 H2615 0.949 . S
H2592 C2596 0.949 . S
C2593 C2594 1.349 . S
C2593 C2595 1.327 . S
C2593 H2616 0.950 . S
C2594 C2593 1.349 . S
C2594 C2606 1.349 . S
C2595 C2593 1.327 . S
C2595 C2611 1.429 . S
C2595 H2617 0.950 . S
C2596 H2592 0.949 . S
C2596 C2604 1.574 . S
C2596 C2612 1.368 . S
H2597 C2605 0.950 . S
H2598 C2603 0.950 . S
H2599 C2604 0.949 . S
H2600 C2606 0.950 . S
H2601 C2607 0.950 . S
H2602 C2608 0.949 . S
C2603 H2598 0.950 . S
C2603 C2605 1.327 . S
C2603 C2609 1.429 . S
C2604 C2596 1.574 . S
C2604 H2599 0.949 . S
C2604 C2610 1.368 . S
C2605 C2589 1.349 . S
C2605 H2597 0.950 . S
C2605 C2603 1.327 . S
C2606 C2594 1.349 . S
C2606 H2600 0.950 . S
C2606 C2607 1.327 . S
C2607 H2601 0.950 . S
C2607 C2606 1.327 . S
C2607 C2611 1.429 . S
C2608 C2591 1.574 . S
C2608 H2602 0.949 . S
C2608 C2612 1.368 . S
C2609 C2590 1.429 . S
C2609 C2603 1.429 . S
C2609 C2610 1.523 . S
C2610 C2591 1.368 . S
C2610 C2604 1.368 . S
C2610 C2609 1.523 . S
C2611 C2595 1.429 . S
C2611 C2607 1.429 . S
C2611 C2612 1.523 . S
C2612 C2596 1.368 . S
C2612 C2608 1.368 . S
C2612 C2611 1.523 . S
H2613 C2588 0.950 . S
H2614 C2590 0.950 . S
H2615 C2591 0.949 . S
H2616 C2593 0.950 . S
H2617 C2595 0.950 . S
C2618 C2619 1.349 . S
C2618 C2620 1.327 . S
C2618 H2643 0.950 . S
C2619 C2618 1.349 . S
C2619 C2635 1.349 . S
C2620 C2618 1.327 . S
C2620 C2639 1.429 . S
C2620 H2644 0.950 . S
C2621 C2638 1.574 . S
C2621 C2640 1.368 . S
C2621 H2645 0.949 . S
H2622 C2626 0.949 . S
C2623 C2624 1.349 . S
C2623 C2625 1.327 . S
C2623 H2646 0.950 . S
C2624 C2623 1.349 . S
C2624 C2636 1.349 . S
C2625 C2623 1.327 . S
C2625 C2641 1.429 . S
C2625 H2647 0.950 . S
C2626 H2622 0.949 . S
C2626 C2634 1.574 . S
C2626 C2642 1.368 . S
H2627 C2635 0.950 . S
H2628 C2633 0.950 . S
H2629 C2634 0.949 . S
H2630 C2636 0.950 . S
H2631 C2637 0.950 . S
H2632 C2638 0.949 . S
C2633 H2628 0.950 . S
C2633 C2635 1.327 . S
C2633 C2639 1.429 . S
C2634 C2626 1.574 . S
C2634 H2629 0.949 . S
C2634 C2640 1.368 . S
C2635 C2619 1.349 . S
C2635 H2627 0.950 . S
C2635 C2633 1.327 . S
C2636 C2624 1.349 . S
C2636 H2630 0.950 . S
C2636 C2637 1.327 . S
C2637 H2631 0.950 . S
C2637 C2636 1.327 . S
C2637 C2641 1.429 . S
C2638 C2621 1.574 . S
C2638 H2632 0.949 . S
C2638 C2642 1.368 . S
C2639 C2620 1.429 . S
C2639 C2633 1.429 . S
C2639 C2640 1.523 . S
C2640 C2621 1.368 . S
C2640 C2634 1.368 . S
C2640 C2639 1.523 . S
C2641 C2625 1.429 . S
C2641 C2637 1.429 . S
C2641 C2642 1.523 . S
C2642 C2626 1.368 . S
C2642 C2638 1.368 . S
C2642 C2641 1.523 . S
H2643 C2618 0.950 . S
H2644 C2620 0.950 . S
H2645 C2621 0.949 . S
H2646 C2623 0.950 . S
H2647 C2625 0.950 . S
C2648 C2649 1.349 . S
C2648 C2650 1.327 . S
C2648 H2673 0.950 . S
C2649 C2648 1.349 . S
C2649 C2665 1.349 . S
C2650 C2648 1.327 . S
C2650 C2669 1.429 . S
C2650 H2674 0.950 . S
C2651 C2668 1.574 . S
C2651 C2670 1.368 . S
C2651 H2675 0.949 . S
H2652 C2656 0.949 . S
C2653 C2654 1.349 . S
C2653 C2655 1.327 . S
C2653 H2676 0.950 . S
C2654 C2653 1.349 . S
C2654 C2666 1.349 . S
C2655 C2653 1.327 . S
C2655 C2671 1.429 . S
C2655 H2677 0.950 . S
C2656 H2652 0.949 . S
C2656 C2664 1.574 . S
C2656 C2672 1.368 . S
H2657 C2665 0.950 . S
H2658 C2663 0.950 . S
H2659 C2664 0.949 . S
H2660 C2666 0.950 . S
H2661 C2667 0.950 . S
H2662 C2668 0.949 . S
C2663 H2658 0.950 . S
C2663 C2665 1.327 . S
C2663 C2669 1.429 . S
C2664 C2656 1.574 . S
C2664 H2659 0.949 . S
C2664 C2670 1.368 . S
C2665 C2649 1.349 . S
C2665 H2657 0.950 . S
C2665 C2663 1.327 . S
C2666 C2654 1.349 . S
C2666 H2660 0.950 . S
C2666 C2667 1.327 . S
C2667 H2661 0.950 . S
C2667 C2666 1.327 . S
C2667 C2671 1.429 . S
C2668 C2651 1.574 . S
C2668 H2662 0.949 . S
C2668 C2672 1.368 . S
C2669 C2650 1.429 . S
C2669 C2663 1.429 . S
C2669 C2670 1.523 . S
C2670 C2651 1.368 . S
C2670 C2664 1.368 . S
C2670 C2669 1.523 . S
C2671 C2655 1.429 . S
C2671 C2667 1.429 . S
C2671 C2672 1.523 . S
C2672 C2656 1.368 . S
C2672 C2668 1.368 . S
C2672 C2671 1.523 . S
H2673 C2648 0.950 . S
H2674 C2650 0.950 . S
H2675 C2651 0.949 . S
H2676 C2653 0.950 . S
H2677 C2655 0.950 . S
C2678 C2679 1.349 . S
C2678 C2680 1.327 . S
C2678 H2703 0.950 . S
C2679 C2678 1.349 . S
C2679 C2695 1.349 . S
C2680 C2678 1.327 . S
C2680 C2699 1.429 . S
C2680 H2704 0.950 . S
C2681 C2698 1.574 . S
C2681 C2700 1.368 . S
C2681 H2705 0.949 . S
H2682 C2686 0.949 . S
C2683 C2684 1.349 . S
C2683 C2685 1.327 . S
C2683 H2706 0.950 . S
C2684 C2683 1.349 . S
C2684 C2696 1.349 . S
C2685 C2683 1.327 . S
C2685 C2701 1.429 . S
C2685 H2707 0.950 . S
C2686 H2682 0.949 . S
C2686 C2694 1.574 . S
C2686 C2702 1.368 . S
H2687 C2695 0.950 . S
H2688 C2693 0.950 . S
H2689 C2694 0.949 . S
H2690 C2696 0.950 . S
H2691 C2697 0.950 . S
H2692 C2698 0.949 . S
C2693 H2688 0.950 . S
C2693 C2695 1.327 . S
C2693 C2699 1.429 . S
C2694 C2686 1.574 . S
C2694 H2689 0.949 . S
C2694 C2700 1.368 . S
C2695 C2679 1.349 . S
C2695 H2687 0.950 . S
C2695 C2693 1.327 . S
C2696 C2684 1.349 . S
C2696 H2690 0.950 . S
C2696 C2697 1.327 . S
C2697 H2691 0.950 . S
C2697 C2696 1.327 . S
C2697 C2701 1.429 . S
C2698 C2681 1.574 . S
C2698 H2692 0.949 . S
C2698 C2702 1.368 . S
C2699 C2680 1.429 . S
C2699 C2693 1.429 . S
C2699 C2700 1.523 . S
C2700 C2681 1.368 . S
C2700 C2694 1.368 . S
C2700 C2699 1.523 . S
C2701 C2685 1.429 . S
C2701 C2697 1.429 . S
C2701 C2702 1.523 . S
C2702 C2686 1.368 . S
C2702 C2698 1.368 . S
C2702 C2701 1.523 . S
H2703 C2678 0.950 . S
H2704 C2680 0.950 . S
H2705 C2681 0.949 . S
H2706 C2683 0.950 . S
H2707 C2685 0.950 . S
C2708 C2709 1.349 . S
C2708 C2710 1.327 . S
C2708 H2733 0.950 . S
C2709 C2708 1.349 . S
C2709 C2725 1.349 . S
C2710 C2708 1.327 . S
C2710 C2729 1.429 . S
C2710 H2734 0.950 . S
C2711 C2728 1.574 . S
C2711 C2730 1.368 . S
C2711 H2735 0.949 . S
H2712 C2716 0.949 . S
C2713 C2714 1.349 . S
C2713 C2715 1.327 . S
C2713 H2736 0.950 . S
C2714 C2713 1.349 . S
C2714 C2726 1.349 . S
C2715 C2713 1.327 . S
C2715 C2731 1.429 . S
C2715 H2737 0.950 . S
C2716 H2712 0.949 . S
C2716 C2724 1.574 . S
C2716 C2732 1.368 . S
H2717 C2725 0.950 . S
H2718 C2723 0.950 . S
H2719 C2724 0.949 . S
H2720 C2726 0.950 . S
H2721 C2727 0.950 . S
H2722 C2728 0.949 . S
C2723 H2718 0.950 . S
C2723 C2725 1.327 . S
C2723 C2729 1.429 . S
C2724 C2716 1.574 . S
C2724 H2719 0.949 . S
C2724 C2730 1.368 . S
C2725 C2709 1.349 . S
C2725 H2717 0.950 . S
C2725 C2723 1.327 . S
C2726 C2714 1.349 . S
C2726 H2720 0.950 . S
C2726 C2727 1.327 . S
C2727 H2721 0.950 . S
C2727 C2726 1.327 . S
C2727 C2731 1.429 . S
C2728 C2711 1.574 . S
C2728 H2722 0.949 . S
C2728 C2732 1.368 . S
C2729 C2710 1.429 . S
C2729 C2723 1.429 . S
C2729 C2730 1.523 . S
C2730 C2711 1.368 . S
C2730 C2724 1.368 . S
C2730 C2729 1.523 . S
C2731 C2715 1.429 . S
C2731 C2727 1.429 . S
C2731 C2732 1.523 . S
C2732 C2716 1.368 . S
C2732 C2728 1.368 . S
C2732 C2731 1.523 . S
H2733 C2708 0.950 . S
H2734 C2710 0.950 . S
H2735 C2711 0.949 . S
H2736 C2713 0.950 . S
H2737 C2715 0.950 . S
C2738 C2739 1.349 . S
C2738 C2740 1.327 . S
C2738 H2763 0.950 . S
C2739 C2738 1.349 . S
C2739 C2755 1.349 . S
C2740 C2738 1.327 . S
C2740 C2759 1.429 . S
C2740 H2764 0.950 . S
C2741 C2758 1.574 . S
C2741 C2760 1.368 . S
C2741 H2765 0.949 . S
H2742 C2746 0.949 . S
C2743 C2744 1.349 . S
C2743 C2745 1.327 . S
C2743 H2766 0.950 . S
C2744 C2743 1.349 . S
C2744 C2756 1.349 . S
C2745 C2743 1.327 . S
C2745 C2761 1.429 . S
C2745 H2767 0.950 . S
C2746 H2742 0.949 . S
C2746 C2754 1.574 . S
C2746 C2762 1.368 . S
H2747 C2755 0.950 . S
H2748 C2753 0.950 . S
H2749 C2754 0.949 . S
H2750 C2756 0.950 . S
H2751 C2757 0.950 . S
H2752 C2758 0.949 . S
C2753 H2748 0.950 . S
C2753 C2755 1.327 . S
C2753 C2759 1.429 . S
C2754 C2746 1.574 . S
C2754 H2749 0.949 . S
C2754 C2760 1.368 . S
C2755 C2739 1.349 . S
C2755 H2747 0.950 . S
C2755 C2753 1.327 . S
C2756 C2744 1.349 . S
C2756 H2750 0.950 . S
C2756 C2757 1.327 . S
C2757 H2751 0.950 . S
C2757 C2756 1.327 . S
C2757 C2761 1.429 . S
C2758 C2741 1.574 . S
C2758 H2752 0.949 . S
C2758 C2762 1.368 . S
C2759 C2740 1.429 . S
C2759 C2753 1.429 . S
C2759 C2760 1.523 . S
C2760 C2741 1.368 . S
C2760 C2754 1.368 . S
C2760 C2759 1.523 . S
C2761 C2745 1.429 . S
C2761 C2757 1.429 . S
C2761 C2762 1.523 . S
C2762 C2746 1.368 . S
C2762 C2758 1.368 . S
C2762 C2761 1.523 . S
H2763 C2738 0.950 . S
H2764 C2740 0.950 . S
H2765 C2741 0.949 . S
H2766 C2743 0.950 . S
H2767 C2745 0.950 . S
C2768 C2769 1.349 . S
C2768 C2770 1.327 . S
C2768 H2793 0.950 . S
C2769 C2768 1.349 . S
C2769 C2785 1.349 . S
C2770 C2768 1.327 . S
C2770 C2789 1.429 . S
C2770 H2794 0.950 . S
C2771 C2788 1.574 . S
C2771 C2790 1.368 . S
C2771 H2795 0.949 . S
H2772 C2776 0.949 . S
C2773 C2774 1.349 . S
C2773 C2775 1.327 . S
C2773 H2796 0.950 . S
C2774 C2773 1.349 . S
C2774 C2786 1.349 . S
C2775 C2773 1.327 . S
C2775 C2791 1.429 . S
C2775 H2797 0.950 . S
C2776 H2772 0.949 . S
C2776 C2784 1.574 . S
C2776 C2792 1.368 . S
H2777 C2785 0.950 . S
H2778 C2783 0.950 . S
H2779 C2784 0.949 . S
H2780 C2786 0.950 . S
H2781 C2787 0.950 . S
H2782 C2788 0.949 . S
C2783 H2778 0.950 . S
C2783 C2785 1.327 . S
C2783 C2789 1.429 . S
C2784 C2776 1.574 . S
C2784 H2779 0.949 . S
C2784 C2790 1.368 . S
C2785 C2769 1.349 . S
C2785 H2777 0.950 . S
C2785 C2783 1.327 . S
C2786 C2774 1.349 . S
C2786 H2780 0.950 . S
C2786 C2787 1.327 . S
C2787 H2781 0.950 . S
C2787 C2786 1.327 . S
C2787 C2791 1.429 . S
C2788 C2771 1.574 . S
C2788 H2782 0.949 . S
C2788 C2792 1.368 . S
C2789 C2770 1.429 . S
C2789 C2783 1.429 . S
C2789 C2790 1.523 . S
C2790 C2771 1.368 . S
C2790 C2784 1.368 . S
C2790 C2789 1.523 . S
C2791 C2775 1.429 . S
C2791 C2787 1.429 . S
C2791 C2792 1.523 . S
C2792 C2776 1.368 . S
C2792 C2788 1.368 . S
C2792 C2791 1.523 . S
H2793 C2768 0.950 . S
H2794 C2770 0.950 . S
H2795 C2771 0.949 . S
H2796 C2773 0.950 . S
H2797 C2775 0.950 . S
C2798 C2799 1.349 . S
C2798 C2800 1.327 . S
C2798 H2823 0.950 . S
C2799 C2798 1.349 . S
C2799 C2815 1.349 . S
C2800 C2798 1.327 . S
C2800 C2819 1.429 . S
C2800 H2824 0.950 . S
C2801 C2818 1.574 . S
C2801 C2820 1.368 . S
C2801 H2825 0.949 . S
H2802 C2806 0.949 . S
C2803 C2804 1.349 . S
C2803 C2805 1.327 . S
C2803 H2826 0.950 . S
C2804 C2803 1.349 . S
C2804 C2816 1.349 . S
C2805 C2803 1.327 . S
C2805 C2821 1.429 . S
C2805 H2827 0.950 . S
C2806 H2802 0.949 . S
C2806 C2814 1.574 . S
C2806 C2822 1.368 . S
H2807 C2815 0.950 . S
H2808 C2813 0.950 . S
H2809 C2814 0.949 . S
H2810 C2816 0.950 . S
H2811 C2817 0.950 . S
H2812 C2818 0.949 . S
C2813 H2808 0.950 . S
C2813 C2815 1.327 . S
C2813 C2819 1.429 . S
C2814 C2806 1.574 . S
C2814 H2809 0.949 . S
C2814 C2820 1.368 . S
C2815 C2799 1.349 . S
C2815 H2807 0.950 . S
C2815 C2813 1.327 . S
C2816 C2804 1.349 . S
C2816 H2810 0.950 . S
C2816 C2817 1.327 . S
C2817 H2811 0.950 . S
C2817 C2816 1.327 . S
C2817 C2821 1.429 . S
C2818 C2801 1.574 . S
C2818 H2812 0.949 . S
C2818 C2822 1.368 . S
C2819 C2800 1.429 . S
C2819 C2813 1.429 . S
C2819 C2820 1.523 . S
C2820 C2801 1.368 . S
C2820 C2814 1.368 . S
C2820 C2819 1.523 . S
C2821 C2805 1.429 . S
C2821 C2817 1.429 . S
C2821 C2822 1.523 . S
C2822 C2806 1.368 . S
C2822 C2818 1.368 . S
C2822 C2821 1.523 . S
H2823 C2798 0.950 . S
H2824 C2800 0.950 . S
H2825 C2801 0.949 . S
H2826 C2803 0.950 . S
H2827 C2805 0.950 . S
C2828 C2829 1.349 . S
C2828 C2830 1.327 . S
C2828 H2853 0.950 . S
C2829 C2828 1.349 . S
C2829 C2845 1.349 . S
C2830 C2828 1.327 . S
C2830 C2849 1.429 . S
C2830 H2854 0.950 . S
C2831 C2848 1.574 . S
C2831 C2850 1.368 . S
C2831 H2855 0.949 . S
H2832 C2836 0.949 . S
C2833 C2834 1.349 . S
C2833 C2835 1.327 . S
C2833 H2856 0.950 . S
C2834 C2833 1.349 . S
C2834 C2846 1.349 . S
C2835 C2833 1.327 . S
C2835 C2851 1.429 . S
C2835 H2857 0.950 . S
C2836 H2832 0.949 . S
C2836 C2844 1.574 . S
C2836 C2852 1.368 . S
H2837 C2845 0.950 . S
H2838 C2843 0.950 . S
H2839 C2844 0.949 . S
H2840 C2846 0.950 . S
H2841 C2847 0.950 . S
H2842 C2848 0.949 . S
C2843 H2838 0.950 . S
C2843 C2845 1.327 . S
C2843 C2849 1.429 . S
C2844 C2836 1.574 . S
C2844 H2839 0.949 . S
C2844 C2850 1.368 . S
C2845 C2829 1.349 . S
C2845 H2837 0.950 . S
C2845 C2843 1.327 . S
C2846 C2834 1.349 . S
C2846 H2840 0.950 . S
C2846 C2847 1.327 . S
C2847 H2841 0.950 . S
C2847 C2846 1.327 . S
C2847 C2851 1.429 . S
C2848 C2831 1.574 . S
C2848 H2842 0.949 . S
C2848 C2852 1.368 . S
C2849 C2830 1.429 . S
C2849 C2843 1.429 . S
C2849 C2850 1.523 . S
C2850 C2831 1.368 . S
C2850 C2844 1.368 . S
C2850 C2849 1.523 . S
C2851 C2835 1.429 . S
C2851 C2847 1.429 . S
C2851 C2852 1.523 . S
C2852 C2836 1.368 . S
C2852 C2848 1.368 . S
C2852 C2851 1.523 . S
H2853 C2828 0.950 . S
H2854 C2830 0.950 . S
H2855 C2831 0.949 . S
H2856 C2833 0.950 . S
H2857 C2835 0.950 . S
C2858 C2859 1.349 . S
C2858 C2860 1.327 . S
C2858 H2883 0.950 . S
C2859 C2858 1.349 . S
C2859 C2875 1.349 . S
C2860 C2858 1.327 . S
C2860 C2879 1.429 . S
C2860 H2884 0.950 . S
C2861 C2878 1.574 . S
C2861 C2880 1.368 . S
C2861 H2885 0.949 . S
H2862 C2866 0.949 . S
C2863 C2864 1.349 . S
C2863 C2865 1.327 . S
C2863 H2886 0.950 . S
C2864 C2863 1.349 . S
C2864 C2876 1.349 . S
C2865 C2863 1.327 . S
C2865 C2881 1.429 . S
C2865 H2887 0.950 . S
C2866 H2862 0.949 . S
C2866 C2874 1.574 . S
C2866 C2882 1.368 . S
H2867 C2875 0.950 . S
H2868 C2873 0.950 . S
H2869 C2874 0.949 . S
H2870 C2876 0.950 . S
H2871 C2877 0.950 . S
H2872 C2878 0.949 . S
C2873 H2868 0.950 . S
C2873 C2875 1.327 . S
C2873 C2879 1.429 . S
C2874 C2866 1.574 . S
C2874 H2869 0.949 . S
C2874 C2880 1.368 . S
C2875 C2859 1.349 . S
C2875 H2867 0.950 . S
C2875 C2873 1.327 . S
C2876 C2864 1.349 . S
C2876 H2870 0.950 . S
C2876 C2877 1.327 . S
C2877 H2871 0.950 . S
C2877 C2876 1.327 . S
C2877 C2881 1.429 . S
C2878 C2861 1.574 . S
C2878 H2872 0.949 . S
C2878 C2882 1.368 . S
C2879 C2860 1.429 . S
C2879 C2873 1.429 . S
C2879 C2880 1.523 . S
C2880 C2861 1.368 . S
C2880 C2874 1.368 . S
C2880 C2879 1.523 . S
C2881 C2865 1.429 . S
C2881 C2877 1.429 . S
C2881 C2882 1.523 . S
C2882 C2866 1.368 . S
C2882 C2878 1.368 . S
C2882 C2881 1.523 . S
H2883 C2858 0.950 . S
H2884 C2860 0.950 . S
H2885 C2861 0.949 . S
H2886 C2863 0.950 . S
H2887 C2865 0.950 . S
C2888 C2889 1.349 . S
C2888 C2890 1.327 . S
C2888 H2913 0.950 . S
C2889 C2888 1.349 . S
C2889 C2905 1.349 . S
C2890 C2888 1.327 . S
C2890 C2909 1.429 . S
C2890 H2914 0.950 . S
C2891 C2908 1.574 . S
C2891 C2910 1.368 . S
C2891 H2915 0.949 . S
H2892 C2896 0.949 . S
C2893 C2894 1.349 . S
C2893 C2895 1.327 . S
C2893 H2916 0.950 . S
C2894 C2893 1.349 . S
C2894 C2906 1.349 . S
C2895 C2893 1.327 . S
C2895 C2911 1.429 . S
C2895 H2917 0.950 . S
C2896 H2892 0.949 . S
C2896 C2904 1.574 . S
C2896 C2912 1.368 . S
H2897 C2905 0.950 . S
H2898 C2903 0.950 . S
H2899 C2904 0.949 . S
H2900 C2906 0.950 . S
H2901 C2907 0.950 . S
H2902 C2908 0.949 . S
C2903 H2898 0.950 . S
C2903 C2905 1.327 . S
C2903 C2909 1.429 . S
C2904 C2896 1.574 . S
C2904 H2899 0.949 . S
C2904 C2910 1.368 . S
C2905 C2889 1.349 . S
C2905 H2897 0.950 . S
C2905 C2903 1.327 . S
C2906 C2894 1.349 . S
C2906 H2900 0.950 . S
C2906 C2907 1.327 . S
C2907 H2901 0.950 . S
C2907 C2906 1.327 . S
C2907 C2911 1.429 . S
C2908 C2891 1.574 . S
C2908 H2902 0.949 . S
C2908 C2912 1.368 . S
C2909 C2890 1.429 . S
C2909 C2903 1.429 . S
C2909 C2910 1.523 . S
C2910 C2891 1.368 . S
C2910 C2904 1.368 . S
C2910 C2909 1.523 . S
C2911 C2895 1.429 . S
C2911 C2907 1.429 . S
C2911 C2912 1.523 . S
C2912 C2896 1.368 . S
C2912 C2908 1.368 . S
C2912 C2911 1.523 . S
H2913 C2888 0.950 . S
H2914 C2890 0.950 . S
H2915 C2891 0.949 . S
H2916 C2893 0.950 . S
H2917 C2895 0.950 . S
C2918 C2919 1.349 . S
C2918 C2920 1.327 . S
C2918 H2943 0.950 . S
C2919 C2918 1.349 . S
C2919 C2935 1.349 . S
C2920 C2918 1.327 . S
C2920 C2939 1.429 . S
C2920 H2944 0.950 . S
C2921 C2938 1.574 . S
C2921 C2940 1.368 . S
C2921 H2945 0.949 . S
H2922 C2926 0.949 . S
C2923 C2924 1.349 . S
C2923 C2925 1.327 . S
C2923 H2946 0.950 . S
C2924 C2923 1.349 . S
C2924 C2936 1.349 . S
C2925 C2923 1.327 . S
C2925 C2941 1.429 . S
C2925 H2947 0.950 . S
C2926 H2922 0.949 . S
C2926 C2934 1.574 . S
C2926 C2942 1.368 . S
H2927 C2935 0.950 . S
H2928 C2933 0.950 . S
H2929 C2934 0.949 . S
H2930 C2936 0.950 . S
H2931 C2937 0.950 . S
H2932 C2938 0.949 . S
C2933 H2928 0.950 . S
C2933 C2935 1.327 . S
C2933 C2939 1.429 . S
C2934 C2926 1.574 . S
C2934 H2929 0.949 . S
C2934 C2940 1.368 . S
C2935 C2919 1.349 . S
C2935 H2927 0.950 . S
C2935 C2933 1.327 . S
C2936 C2924 1.349 . S
C2936 H2930 0.950 . S
C2936 C2937 1.327 . S
C2937 H2931 0.950 . S
C2937 C2936 1.327 . S
C2937 C2941 1.429 . S
C2938 C2921 1.574 . S
C2938 H2932 0.949 . S
C2938 C2942 1.368 . S
C2939 C2920 1.429 . S
C2939 C2933 1.429 . S
C2939 C2940 1.523 . S
C2940 C2921 1.368 . S
C2940 C2934 1.368 . S
C2940 C2939 1.523 . S
C2941 C2925 1.429 . S
C2941 C2937 1.429 . S
C2941 C2942 1.523 . S
C2942 C2926 1.368 . S
C2942 C2938 1.368 . S
C2942 C2941 1.523 . S
H2943 C2918 0.950 . S
H2944 C2920 0.950 . S
H2945 C2921 0.949 . S
H2946 C2923 0.950 . S
H2947 C2925 0.950 . S
C2948 C2949 1.349 . S
C2948 C2950 1.327 . S
C2948 H2973 0.950 . S
C2949 C2948 1.349 . S
C2949 C2965 1.349 . S
C2950 C2948 1.327 . S
C2950 C2969 1.429 . S
C2950 H2974 0.950 . S
C2951 C2968 1.574 . S
C2951 C2970 1.368 . S
C2951 H2975 0.949 . S
H2952 C2956 0.949 . S
C2953 C2954 1.349 . S
C2953 C2955 1.327 . S
C2953 H2976 0.950 . S
C2954 C2953 1.349 . S
C2954 C2966 1.349 . S
C2955 C2953 1.327 . S
C2955 C2971 1.429 . S
C2955 H2977 0.950 . S
C2956 H2952 0.949 . S
C2956 C2964 1.574 . S
C2956 C2972 1.368 . S
H2957 C2965 0.950 . S
H2958 C2963 0.950 . S
H2959 C2964 0.949 . S
H2960 C2966 0.950 . S
H2961 C2967 0.950 . S
H2962 C2968 0.949 . S
C2963 H2958 0.950 . S
C2963 C2965 1.327 . S
C2963 C2969 1.429 . S
C2964 C2956 1.574 . S
C2964 H2959 0.949 . S
C2964 C2970 1.368 . S
C2965 C2949 1.349 . S
C2965 H2957 0.950 . S
C2965 C2963 1.327 . S
C2966 C2954 1.349 . S
C2966 H2960 0.950 . S
C2966 C2967 1.327 . S
C2967 H2961 0.950 . S
C2967 C2966 1.327 . S
C2967 C2971 1.429 . S
C2968 C2951 1.574 . S
C2968 H2962 0.949 . S
C2968 C2972 1.368 . S
C2969 C2950 1.429 . S
C2969 C2963 1.429 . S
C2969 C2970 1.523 . S
C2970 C2951 1.368 . S
C2970 C2964 1.368 . S
C2970 C2969 1.523 . S
C2971 C2955 1.429 . S
C2971 C2967 1.429 . S
C2971 C2972 1.523 . S
C2972 C2956 1.368 . S
C2972 C2968 1.368 . S
C2972 C2971 1.523 . S
H2973 C2948 0.950 . S
H2974 C2950 0.950 . S
H2975 C2951 0.949 . S
H2976 C2953 0.950 . S
H2977 C2955 0.950 . S
C2978 C2979 1.349 . S
C2978 C2980 1.327 . S
C2978 H3003 0.950 . S
C2979 C2978 1.349 . S
C2979 C2995 1.349 . S
C2980 C2978 1.327 . S
C2980 C2999 1.429 . S
C2980 H3004 0.950 . S
C2981 C2998 1.574 . S
C2981 C3000 1.368 . S
C2981 H3005 0.949 . S
H2982 C2986 0.949 . S
C2983 C2984 1.349 . S
C2983 C2985 1.327 . S
C2983 H3006 0.950 . S
C2984 C2983 1.349 . S
C2984 C2996 1.349 . S
C2985 C2983 1.327 . S
C2985 C3001 1.429 . S
C2985 H3007 0.950 . S
C2986 H2982 0.949 . S
C2986 C2994 1.574 . S
C2986 C3002 1.368 . S
H2987 C2995 0.950 . S
H2988 C2993 0.950 . S
H2989 C2994 0.949 . S
H2990 C2996 0.950 . S
H2991 C2997 0.950 . S
H2992 C2998 0.949 . S
C2993 H2988 0.950 . S
C2993 C2995 1.327 . S
C2993 C2999 1.429 . S
C2994 C2986 1.574 . S
C2994 H2989 0.949 . S
C2994 C3000 1.368 . S
C2995 C2979 1.349 . S
C2995 H2987 0.950 . S
C2995 C2993 1.327 . S
C2996 C2984 1.349 . S
C2996 H2990 0.950 . S
C2996 C2997 1.327 . S
C2997 H2991 0.950 . S
C2997 C2996 1.327 . S
C2997 C3001 1.429 . S
C2998 C2981 1.574 . S
C2998 H2992 0.949 . S
C2998 C3002 1.368 . S
C2999 C2980 1.429 . S
C2999 C2993 1.429 . S
C2999 C3000 1.523 . S
C3000 C2981 1.368 . S
C3000 C2994 1.368 . S
C3000 C2999 1.523 . S
C3001 C2985 1.429 . S
C3001 C2997 1.429 . S
C3001 C3002 1.523 . S
C3002 C2986 1.368 . S
C3002 C2998 1.368 . S
C3002 C3001 1.523 . S
H3003 C2978 0.950 . S
H3004 C2980 0.950 . S
H3005 C2981 0.949 . S
H3006 C2983 0.950 . S
H3007 C2985 0.950 . S
C3008 C3009 1.349 . S
C3008 C3010 1.327 . S
C3008 H3033 0.950 . S
C3009 C3008 1.349 . S
C3009 C3025 1.349 . S
C3010 C3008 1.327 . S
C3010 C3029 1.429 . S
C3010 H3034 0.950 . S
C3011 C3028 1.574 . S
C3011 C3030 1.368 . S
C3011 H3035 0.949 . S
H3012 C3016 0.949 . S
C3013 C3014 1.349 . S
C3013 C3015 1.327 . S
C3013 H3036 0.950 . S
C3014 C3013 1.349 . S
C3014 C3026 1.349 . S
C3015 C3013 1.327 . S
C3015 C3031 1.429 . S
C3015 H3037 0.950 . S
C3016 H3012 0.949 . S
C3016 C3024 1.574 . S
C3016 C3032 1.368 . S
H3017 C3025 0.950 . S
H3018 C3023 0.950 . S
H3019 C3024 0.949 . S
H3020 C3026 0.950 . S
H3021 C3027 0.950 . S
H3022 C3028 0.949 . S
C3023 H3018 0.950 . S
C3023 C3025 1.327 . S
C3023 C3029 1.429 . S
C3024 C3016 1.574 . S
C3024 H3019 0.949 . S
C3024 C3030 1.368 . S
C3025 C3009 1.349 . S
C3025 H3017 0.950 . S
C3025 C3023 1.327 . S
C3026 C3014 1.349 . S
C3026 H3020 0.950 . S
C3026 C3027 1.327 . S
C3027 H3021 0.950 . S
C3027 C3026 1.327 . S
C3027 C3031 1.429 . S
C3028 C3011 1.574 . S
C3028 H3022 0.949 . S
C3028 C3032 1.368 . S
C3029 C3010 1.429 . S
C3029 C3023 1.429 . S
C3029 C3030 1.523 . S
C3030 C3011 1.368 . S
C3030 C3024 1.368 . S
C3030 C3029 1.523 . S
C3031 C3015 1.429 . S
C3031 C3027 1.429 . S
C3031 C3032 1.523 . S
C3032 C3016 1.368 . S
C3032 C3028 1.368 . S
C3032 C3031 1.523 . S
H3033 C3008 0.950 . S
H3034 C3010 0.950 . S
H3035 C3011 0.949 . S
H3036 C3013 0.950 . S
H3037 C3015 0.950 . S
C3038 C3039 1.349 . S
C3038 C3040 1.327 . S
C3038 H3063 0.950 . S
C3039 C3038 1.349 . S
C3039 C3055 1.349 . S
C3040 C3038 1.327 . S
C3040 C3059 1.429 . S
C3040 H3064 0.950 . S
C3041 C3058 1.574 . S
C3041 C3060 1.368 . S
C3041 H3065 0.949 . S
H3042 C3046 0.949 . S
C3043 C3044 1.349 . S
C3043 C3045 1.327 . S
C3043 H3066 0.950 . S
C3044 C3043 1.349 . S
C3044 C3056 1.349 . S
C3045 C3043 1.327 . S
C3045 C3061 1.429 1_545 S
C3045 H3067 0.950 . S
C3046 H3042 0.949 . S
C3046 C3054 1.574 . S
C3046 C3062 1.368 . S
H3047 C3055 0.950 . S
H3048 C3053 0.950 . S
H3049 C3054 0.949 . S
H3050 C3056 0.950 . S
H3051 C3057 0.950 . S
H3052 C3058 0.949 . S
C3053 H3048 0.950 . S
C3053 C3055 1.327 . S
C3053 C3059 1.429 . S
C3054 C3046 1.574 . S
C3054 H3049 0.949 . S
C3054 C3060 1.368 . S
C3055 C3039 1.349 . S
C3055 H3047 0.950 . S
C3055 C3053 1.327 . S
C3056 C3044 1.349 . S
C3056 H3050 0.950 . S
C3056 C3057 1.327 1_545 S
C3057 H3051 0.950 . S
C3057 C3056 1.327 1_565 S
C3057 C3061 1.429 . S
C3058 C3041 1.574 . S
C3058 H3052 0.949 . S
C3058 C3062 1.368 . S
C3059 C3040 1.429 . S
C3059 C3053 1.429 . S
C3059 C3060 1.523 . S
C3060 C3041 1.368 . S
C3060 C3054 1.368 . S
C3060 C3059 1.523 . S
C3061 C3045 1.429 1_565 S
C3061 C3057 1.429 . S
C3061 C3062 1.523 . S
C3062 C3046 1.368 . S
C3062 C3058 1.368 . S
C3062 C3061 1.523 . S
H3063 C3038 0.950 . S
H3064 C3040 0.950 . S
H3065 C3041 0.949 . S
H3066 C3043 0.950 . S
H3067 C3045 0.950 . S
C3068 C3069 1.349 . S
C3068 C3070 1.327 . S
C3068 H3093 0.950 . S
C3069 C3068 1.349 . S
C3069 C3085 1.349 . S
C3070 C3068 1.327 . S
C3070 C3089 1.429 . S
C3070 H3094 0.950 . S
C3071 C3088 1.574 . S
C3071 C3090 1.368 . S
C3071 H3095 0.949 . S
H3072 C3076 0.949 . S
C3073 C3074 1.349 . S
C3073 C3075 1.327 . S
C3073 H3096 0.950 . S
C3074 C3073 1.349 . S
C3074 C3086 1.349 . S
C3075 C3073 1.327 . S
C3075 C3091 1.429 . S
C3075 H3097 0.950 . S
C3076 H3072 0.949 . S
C3076 C3084 1.574 . S
C3076 C3092 1.368 . S
H3077 C3085 0.950 . S
H3078 C3083 0.950 . S
H3079 C3084 0.949 . S
H3080 C3086 0.950 . S
H3081 C3087 0.950 . S
H3082 C3088 0.949 . S
C3083 H3078 0.950 . S
C3083 C3085 1.327 . S
C3083 C3089 1.429 . S
C3084 C3076 1.574 . S
C3084 H3079 0.949 . S
C3084 C3090 1.368 . S
C3085 C3069 1.349 . S
C3085 H3077 0.950 . S
C3085 C3083 1.327 . S
C3086 C3074 1.349 . S
C3086 H3080 0.950 . S
C3086 C3087 1.327 . S
C3087 H3081 0.950 . S
C3087 C3086 1.327 . S
C3087 C3091 1.429 . S
C3088 C3071 1.574 . S
C3088 H3082 0.949 . S
C3088 C3092 1.368 . S
C3089 C3070 1.429 . S
C3089 C3083 1.429 . S
C3089 C3090 1.523 . S
C3090 C3071 1.368 . S
C3090 C3084 1.368 . S
C3090 C3089 1.523 . S
C3091 C3075 1.429 . S
C3091 C3087 1.429 . S
C3091 C3092 1.523 . S
C3092 C3076 1.368 . S
C3092 C3088 1.368 . S
C3092 C3091 1.523 . S
H3093 C3068 0.950 . S
H3094 C3070 0.950 . S
H3095 C3071 0.949 . S
H3096 C3073 0.950 . S
H3097 C3075 0.950 . S
C3098 C3099 1.349 . S
C3098 C3100 1.327 . S
C3098 H3123 0.950 . S
C3099 C3098 1.349 . S
C3099 C3115 1.349 . S
C3100 C3098 1.327 . S
C3100 C3119 1.429 . S
C3100 H3124 0.950 . S
C3101 C3118 1.574 . S
C3101 C3120 1.368 . S
C3101 H3125 0.949 . S
H3102 C3106 0.949 . S
C3103 C3104 1.349 . S
C3103 C3105 1.327 . S
C3103 H3126 0.950 . S
C3104 C3103 1.349 . S
C3104 C3116 1.349 . S
C3105 C3103 1.327 . S
C3105 C3121 1.429 . S
C3105 H3127 0.950 . S
C3106 H3102 0.949 . S
C3106 C3114 1.574 . S
C3106 C3122 1.368 . S
H3107 C3115 0.950 . S
H3108 C3113 0.950 . S
H3109 C3114 0.949 . S
H3110 C3116 0.950 . S
H3111 C3117 0.950 . S
H3112 C3118 0.949 . S
C3113 H3108 0.950 . S
C3113 C3115 1.327 . S
C3113 C3119 1.429 . S
C3114 C3106 1.574 . S
C3114 H3109 0.949 . S
C3114 C3120 1.368 . S
C3115 C3099 1.349 . S
C3115 H3107 0.950 . S
C3115 C3113 1.327 . S
C3116 C3104 1.349 . S
C3116 H3110 0.950 . S
C3116 C3117 1.327 . S
C3117 H3111 0.950 . S
C3117 C3116 1.327 . S
C3117 C3121 1.429 . S
C3118 C3101 1.574 . S
C3118 H3112 0.949 . S
C3118 C3122 1.368 . S
C3119 C3100 1.429 . S
C3119 C3113 1.429 . S
C3119 C3120 1.523 . S
C3120 C3101 1.368 . S
C3120 C3114 1.368 . S
C3120 C3119 1.523 . S
C3121 C3105 1.429 . S
C3121 C3117 1.429 . S
C3121 C3122 1.523 . S
C3122 C3106 1.368 . S
C3122 C3118 1.368 . S
C3122 C3121 1.523 . S
H3123 C3098 0.950 . S
H3124 C3100 0.950 . S
H3125 C3101 0.949 . S
H3126 C3103 0.950 . S
H3127 C3105 0.950 . S
C3128 C3129 1.349 . S
C3128 C3130 1.327 . S
C3128 H3153 0.950 . S
C3129 C3128 1.349 . S
C3129 C3145 1.349 . S
C3130 C3128 1.327 . S
C3130 C3149 1.429 . S
C3130 H3154 0.950 . S
C3131 C3148 1.574 . S
C3131 C3150 1.368 . S
C3131 H3155 0.949 . S
H3132 C3136 0.949 . S
C3133 C3134 1.349 . S
C3133 C3135 1.327 . S
C3133 H3156 0.950 . S
C3134 C3133 1.349 . S
C3134 C3146 1.349 . S
C3135 C3133 1.327 . S
C3135 C3151 1.429 . S
C3135 H3157 0.950 . S
C3136 H3132 0.949 . S
C3136 C3144 1.574 . S
C3136 C3152 1.368 . S
H3137 C3145 0.950 . S
H3138 C3143 0.950 . S
H3139 C3144 0.949 . S
H3140 C3146 0.950 . S
H3141 C3147 0.950 . S
H3142 C3148 0.949 . S
C3143 H3138 0.950 . S
C3143 C3145 1.327 . S
C3143 C3149 1.429 . S
C3144 C3136 1.574 . S
C3144 H3139 0.949 . S
C3144 C3150 1.368 . S
C3145 C3129 1.349 . S
C3145 H3137 0.950 . S
C3145 C3143 1.327 . S
C3146 C3134 1.349 . S
C3146 H3140 0.950 . S
C3146 C3147 1.327 . S
C3147 H3141 0.950 . S
C3147 C3146 1.327 . S
C3147 C3151 1.429 . S
C3148 C3131 1.574 . S
C3148 H3142 0.949 . S
C3148 C3152 1.368 . S
C3149 C3130 1.429 . S
C3149 C3143 1.429 . S
C3149 C3150 1.523 . S
C3150 C3131 1.368 . S
C3150 C3144 1.368 . S
C3150 C3149 1.523 . S
C3151 C3135 1.429 . S
C3151 C3147 1.429 . S
C3151 C3152 1.523 . S
C3152 C3136 1.368 . S
C3152 C3148 1.368 . S
C3152 C3151 1.523 . S
H3153 C3128 0.950 . S
H3154 C3130 0.950 . S
H3155 C3131 0.949 . S
H3156 C3133 0.950 . S
H3157 C3135 0.950 . S
C3158 C3159 1.349 . S
C3158 C3160 1.327 . S
C3158 H3183 0.950 . S
C3159 C3158 1.349 . S
C3159 C3175 1.349 . S
C3160 C3158 1.327 . S
C3160 C3179 1.429 . S
C3160 H3184 0.950 . S
C3161 C3178 1.574 . S
C3161 C3180 1.368 . S
C3161 H3185 0.949 . S
H3162 C3166 0.949 . S
C3163 C3164 1.349 . S
C3163 C3165 1.327 . S
C3163 H3186 0.950 . S
C3164 C3163 1.349 . S
C3164 C3176 1.349 . S
C3165 C3163 1.327 . S
C3165 C3181 1.429 . S
C3165 H3187 0.950 . S
C3166 H3162 0.949 . S
C3166 C3174 1.574 . S
C3166 C3182 1.368 . S
H3167 C3175 0.950 . S
H3168 C3173 0.950 . S
H3169 C3174 0.949 . S
H3170 C3176 0.950 . S
H3171 C3177 0.950 . S
H3172 C3178 0.949 . S
C3173 H3168 0.950 . S
C3173 C3175 1.327 . S
C3173 C3179 1.429 . S
C3174 C3166 1.574 . S
C3174 H3169 0.949 . S
C3174 C3180 1.368 . S
C3175 C3159 1.349 . S
C3175 H3167 0.950 . S
C3175 C3173 1.327 . S
C3176 C3164 1.349 . S
C3176 H3170 0.950 . S
C3176 C3177 1.327 . S
C3177 H3171 0.950 . S
C3177 C3176 1.327 . S
C3177 C3181 1.429 . S
C3178 C3161 1.574 . S
C3178 H3172 0.949 . S
C3178 C3182 1.368 . S
C3179 C3160 1.429 . S
C3179 C3173 1.429 . S
C3179 C3180 1.523 . S
C3180 C3161 1.368 . S
C3180 C3174 1.368 . S
C3180 C3179 1.523 . S
C3181 C3165 1.429 . S
C3181 C3177 1.429 . S
C3181 C3182 1.523 . S
C3182 C3166 1.368 . S
C3182 C3178 1.368 . S
C3182 C3181 1.523 . S
H3183 C3158 0.950 . S
H3184 C3160 0.950 . S
H3185 C3161 0.949 . S
H3186 C3163 0.950 . S
H3187 C3165 0.950 . S
C3188 C3189 1.349 . S
C3188 C3190 1.327 . S
C3188 H3213 0.950 . S
C3189 C3188 1.349 . S
C3189 C3205 1.349 . S
C3190 C3188 1.327 . S
C3190 C3209 1.429 . S
C3190 H3214 0.950 . S
C3191 C3208 1.574 . S
C3191 C3210 1.368 . S
C3191 H3215 0.949 . S
H3192 C3196 0.949 . S
C3193 C3194 1.349 . S
C3193 C3195 1.327 . S
C3193 H3216 0.950 . S
C3194 C3193 1.349 . S
C3194 C3206 1.349 . S
C3195 C3193 1.327 . S
C3195 C3211 1.429 . S
C3195 H3217 0.950 . S
C3196 H3192 0.949 . S
C3196 C3204 1.574 . S
C3196 C3212 1.368 . S
H3197 C3205 0.950 . S
H3198 C3203 0.950 . S
H3199 C3204 0.949 . S
H3200 C3206 0.950 . S
H3201 C3207 0.950 . S
H3202 C3208 0.949 . S
C3203 H3198 0.950 . S
C3203 C3205 1.327 . S
C3203 C3209 1.429 . S
C3204 C3196 1.574 . S
C3204 H3199 0.949 . S
C3204 C3210 1.368 . S
C3205 C3189 1.349 . S
C3205 H3197 0.950 . S
C3205 C3203 1.327 . S
C3206 C3194 1.349 . S
C3206 H3200 0.950 . S
C3206 C3207 1.327 . S
C3207 H3201 0.950 . S
C3207 C3206 1.327 . S
C3207 C3211 1.429 . S
C3208 C3191 1.574 . S
C3208 H3202 0.949 . S
C3208 C3212 1.368 . S
C3209 C3190 1.429 . S
C3209 C3203 1.429 . S
C3209 C3210 1.523 . S
C3210 C3191 1.368 . S
C3210 C3204 1.368 . S
C3210 C3209 1.523 . S
C3211 C3195 1.429 . S
C3211 C3207 1.429 . S
C3211 C3212 1.523 . S
C3212 C3196 1.368 . S
C3212 C3208 1.368 . S
C3212 C3211 1.523 . S
H3213 C3188 0.950 . S
H3214 C3190 0.950 . S
H3215 C3191 0.949 . S
H3216 C3193 0.950 . S
H3217 C3195 0.950 . S
C3218 C3219 1.349 . S
C3218 C3220 1.327 . S
C3218 H3243 0.950 . S
C3219 C3218 1.349 . S
C3219 C3235 1.349 . S
C3220 C3218 1.327 . S
C3220 C3239 1.429 . S
C3220 H3244 0.950 . S
C3221 C3238 1.574 . S
C3221 C3240 1.368 . S
C3221 H3245 0.949 . S
H3222 C3226 0.949 . S
C3223 C3224 1.349 . S
C3223 C3225 1.327 . S
C3223 H3246 0.950 . S
C3224 C3223 1.349 . S
C3224 C3236 1.349 . S
C3225 C3223 1.327 . S
C3225 C3241 1.429 . S
C3225 H3247 0.950 . S
C3226 H3222 0.949 . S
C3226 C3234 1.574 . S
C3226 C3242 1.368 . S
H3227 C3235 0.950 . S
H3228 C3233 0.950 . S
H3229 C3234 0.949 . S
H3230 C3236 0.950 . S
H3231 C3237 0.950 . S
H3232 C3238 0.949 . S
C3233 H3228 0.950 . S
C3233 C3235 1.327 . S
C3233 C3239 1.429 . S
C3234 C3226 1.574 . S
C3234 H3229 0.949 . S
C3234 C3240 1.368 . S
C3235 C3219 1.349 . S
C3235 H3227 0.950 . S
C3235 C3233 1.327 . S
C3236 C3224 1.349 . S
C3236 H3230 0.950 . S
C3236 C3237 1.327 . S
C3237 H3231 0.950 . S
C3237 C3236 1.327 . S
C3237 C3241 1.429 . S
C3238 C3221 1.574 . S
C3238 H3232 0.949 . S
C3238 C3242 1.368 . S
C3239 C3220 1.429 . S
C3239 C3233 1.429 . S
C3239 C3240 1.523 . S
C3240 C3221 1.368 . S
C3240 C3234 1.368 . S
C3240 C3239 1.523 . S
C3241 C3225 1.429 . S
C3241 C3237 1.429 . S
C3241 C3242 1.523 . S
C3242 C3226 1.368 . S
C3242 C3238 1.368 . S
C3242 C3241 1.523 . S
H3243 C3218 0.950 . S
H3244 C3220 0.950 . S
H3245 C3221 0.949 . S
H3246 C3223 0.950 . S
H3247 C3225 0.950 . S
C3248 C3249 1.349 . S
C3248 C3250 1.327 . S
C3248 H3273 0.950 . S
C3249 C3248 1.349 . S
C3249 C3265 1.349 . S
C3250 C3248 1.327 . S
C3250 C3269 1.429 . S
C3250 H3274 0.950 . S
C3251 C3268 1.574 . S
C3251 C3270 1.368 . S
C3251 H3275 0.949 . S
H3252 C3256 0.949 . S
C3253 C3254 1.349 . S
C3253 C3255 1.327 . S
C3253 H3276 0.950 . S
C3254 C3253 1.349 . S
C3254 C3266 1.349 . S
C3255 C3253 1.327 . S
C3255 C3271 1.429 . S
C3255 H3277 0.950 . S
C3256 H3252 0.949 . S
C3256 C3264 1.574 . S
C3256 C3272 1.368 . S
H3257 C3265 0.950 . S
H3258 C3263 0.950 . S
H3259 C3264 0.949 . S
H3260 C3266 0.950 . S
H3261 C3267 0.950 . S
H3262 C3268 0.949 . S
C3263 H3258 0.950 . S
C3263 C3265 1.327 . S
C3263 C3269 1.429 . S
C3264 C3256 1.574 . S
C3264 H3259 0.949 . S
C3264 C3270 1.368 . S
C3265 C3249 1.349 . S
C3265 H3257 0.950 . S
C3265 C3263 1.327 . S
C3266 C3254 1.349 . S
C3266 H3260 0.950 . S
C3266 C3267 1.327 . S
C3267 H3261 0.950 . S
C3267 C3266 1.327 . S
C3267 C3271 1.429 . S
C3268 C3251 1.574 . S
C3268 H3262 0.949 . S
C3268 C3272 1.368 . S
C3269 C3250 1.429 . S
C3269 C3263 1.429 . S
C3269 C3270 1.523 . S
C3270 C3251 1.368 . S
C3270 C3264 1.368 . S
C3270 C3269 1.523 . S
C3271 C3255 1.429 . S
C3271 C3267 1.429 . S
C3271 C3272 1.523 . S
C3272 C3256 1.368 . S
C3272 C3268 1.368 . S
C3272 C3271 1.523 . S
H3273 C3248 0.950 . S
H3274 C3250 0.950 . S
H3275 C3251 0.949 . S
H3276 C3253 0.950 . S
H3277 C3255 0.950 . S
C3278 C3279 1.349 . S
C3278 C3280 1.327 . S
C3278 H3303 0.950 . S
C3279 C3278 1.349 . S
C3279 C3295 1.349 . S
C3280 C3278 1.327 . S
C3280 C3299 1.429 . S
C3280 H3304 0.950 . S
C3281 C3298 1.574 . S
C3281 C3300 1.368 . S
C3281 H3305 0.949 . S
H3282 C3286 0.949 . S
C3283 C3284 1.349 . S
C3283 C3285 1.327 . S
C3283 H3306 0.950 1_556 S
C3284 C3283 1.349 . S
C3284 C3296 1.349 . S
C3285 C3283 1.327 . S
C3285 C3301 1.429 . S
C3285 H3307 0.950 . S
C3286 H3282 0.949 . S
C3286 C3294 1.574 . S
C3286 C3302 1.368 . S
H3287 C3295 0.950 . S
H3288 C3293 0.950 . S
H3289 C3294 0.949 . S
H3290 C3296 0.950 . S
H3291 C3297 0.950 . S
H3292 C3298 0.949 . S
C3293 H3288 0.950 . S
C3293 C3295 1.327 . S
C3293 C3299 1.429 . S
C3294 C3286 1.574 . S
C3294 H3289 0.949 . S
C3294 C3300 1.368 . S
C3295 C3279 1.349 . S
C3295 H3287 0.950 . S
C3295 C3293 1.327 . S
C3296 C3284 1.349 . S
C3296 H3290 0.950 . S
C3296 C3297 1.327 . S
C3297 H3291 0.950 . S
C3297 C3296 1.327 . S
C3297 C3301 1.429 . S
C3298 C3281 1.574 . S
C3298 H3292 0.949 . S
C3298 C3302 1.368 . S
C3299 C3280 1.429 . S
C3299 C3293 1.429 . S
C3299 C3300 1.523 . S
C3300 C3281 1.368 . S
C3300 C3294 1.368 . S
C3300 C3299 1.523 . S
C3301 C3285 1.429 . S
C3301 C3297 1.429 . S
C3301 C3302 1.523 . S
C3302 C3286 1.368 . S
C3302 C3298 1.368 . S
C3302 C3301 1.523 . S
H3303 C3278 0.950 . S
H3304 C3280 0.950 . S
H3305 C3281 0.949 . S
H3306 C3283 0.950 1_554 S
H3307 C3285 0.950 . S
C3308 C3309 1.349 . S
C3308 C3310 1.327 . S
C3308 H3333 0.950 . S
C3309 C3308 1.349 . S
C3309 C3325 1.349 . S
C3310 C3308 1.327 . S
C3310 C3329 1.429 . S
C3310 H3334 0.950 . S
C3311 C3328 1.574 . S
C3311 C3330 1.368 . S
C3311 H3335 0.949 . S
H3312 C3316 0.949 . S
C3313 C3314 1.349 . S
C3313 C3315 1.327 . S
C3313 H3336 0.950 . S
C3314 C3313 1.349 . S
C3314 C3326 1.349 . S
C3315 C3313 1.327 . S
C3315 C3331 1.429 . S
C3315 H3337 0.950 . S
C3316 H3312 0.949 . S
C3316 C3324 1.574 . S
C3316 C3332 1.368 . S
H3317 C3325 0.950 . S
H3318 C3323 0.950 . S
H3319 C3324 0.949 . S
H3320 C3326 0.950 . S
H3321 C3327 0.950 . S
H3322 C3328 0.949 . S
C3323 H3318 0.950 . S
C3323 C3325 1.327 . S
C3323 C3329 1.429 . S
C3324 C3316 1.574 . S
C3324 H3319 0.949 . S
C3324 C3330 1.368 . S
C3325 C3309 1.349 . S
C3325 H3317 0.950 . S
C3325 C3323 1.327 . S
C3326 C3314 1.349 . S
C3326 H3320 0.950 . S
C3326 C3327 1.327 . S
C3327 H3321 0.950 . S
C3327 C3326 1.327 . S
C3327 C3331 1.429 . S
C3328 C3311 1.574 . S
C3328 H3322 0.949 . S
C3328 C3332 1.368 . S
C3329 C3310 1.429 . S
C3329 C3323 1.429 . S
C3329 C3330 1.523 . S
C3330 C3311 1.368 . S
C3330 C3324 1.368 . S
C3330 C3329 1.523 . S
C3331 C3315 1.429 . S
C3331 C3327 1.429 . S
C3331 C3332 1.523 . S
C3332 C3316 1.368 . S
C3332 C3328 1.368 . S
C3332 C3331 1.523 . S
H3333 C3308 0.950 . S
H3334 C3310 0.950 . S
H3335 C3311 0.949 . S
H3336 C3313 0.950 . S
H3337 C3315 0.950 . S
C3338 C3339 1.349 . S
C3338 C3340 1.327 . S
C3338 H3363 0.950 . S
C3339 C3338 1.349 . S
C3339 C3355 1.349 . S
C3340 C3338 1.327 . S
C3340 C3359 1.429 . S
C3340 H3364 0.950 . S
C3341 C3358 1.574 . S
C3341 C3360 1.368 . S
C3341 H3365 0.949 . S
H3342 C3346 0.949 . S
C3343 C3344 1.349 . S
C3343 C3345 1.327 . S
C3343 H3366 0.950 . S
C3344 C3343 1.349 . S
C3344 C3356 1.349 . S
C3345 C3343 1.327 . S
C3345 C3361 1.429 . S
C3345 H3367 0.950 . S
C3346 H3342 0.949 . S
C3346 C3354 1.574 . S
C3346 C3362 1.368 . S
H3347 C3355 0.950 . S
H3348 C3353 0.950 . S
H3349 C3354 0.949 . S
H3350 C3356 0.950 1_554 S
H3351 C3357 0.950 . S
H3352 C3358 0.949 . S
C3353 H3348 0.950 . S
C3353 C3355 1.327 . S
C3353 C3359 1.429 . S
C3354 C3346 1.574 . S
C3354 H3349 0.949 . S
C3354 C3360 1.368 . S
C3355 C3339 1.349 . S
C3355 H3347 0.950 . S
C3355 C3353 1.327 . S
C3356 C3344 1.349 . S
C3356 H3350 0.950 1_556 S
C3356 C3357 1.327 . S
C3357 H3351 0.950 . S
C3357 C3356 1.327 . S
C3357 C3361 1.429 . S
C3358 C3341 1.574 . S
C3358 H3352 0.949 . S
C3358 C3362 1.368 . S
C3359 C3340 1.429 . S
C3359 C3353 1.429 . S
C3359 C3360 1.523 . S
C3360 C3341 1.368 . S
C3360 C3354 1.368 . S
C3360 C3359 1.523 . S
C3361 C3345 1.429 . S
C3361 C3357 1.429 . S
C3361 C3362 1.523 . S
C3362 C3346 1.368 . S
C3362 C3358 1.368 . S
C3362 C3361 1.523 . S
H3363 C3338 0.950 . S
H3364 C3340 0.950 . S
H3365 C3341 0.949 . S
H3366 C3343 0.950 . S
H3367 C3345 0.950 . S
C3368 C3369 1.349 . S
C3368 C3370 1.327 . S
C3368 H3393 0.950 . S
C3369 C3368 1.349 . S
C3369 C3385 1.349 . S
C3370 C3368 1.327 . S
C3370 C3389 1.429 . S
C3370 H3394 0.950 . S
C3371 C3388 1.574 . S
C3371 C3390 1.368 . S
C3371 H3395 0.949 . S
H3372 C3376 0.949 . S
C3373 C3374 1.349 . S
C3373 C3375 1.327 . S
C3373 H3396 0.950 . S
C3374 C3373 1.349 . S
C3374 C3386 1.349 . S
C3375 C3373 1.327 . S
C3375 C3391 1.429 . S
C3375 H3397 0.950 . S
C3376 H3372 0.949 . S
C3376 C3384 1.574 . S
C3376 C3392 1.368 . S
H3377 C3385 0.950 . S
H3378 C3383 0.950 . S
H3379 C3384 0.949 . S
H3380 C3386 0.950 . S
H3381 C3387 0.950 . S
H3382 C3388 0.949 . S
C3383 H3378 0.950 . S
C3383 C3385 1.327 . S
C3383 C3389 1.429 . S
C3384 C3376 1.574 . S
C3384 H3379 0.949 . S
C3384 C3390 1.368 . S
C3385 C3369 1.349 . S
C3385 H3377 0.950 . S
C3385 C3383 1.327 . S
C3386 C3374 1.349 . S
C3386 H3380 0.950 . S
C3386 C3387 1.327 . S
C3387 H3381 0.950 . S
C3387 C3386 1.327 . S
C3387 C3391 1.429 . S
C3388 C3371 1.574 . S
C3388 H3382 0.949 . S
C3388 C3392 1.368 . S
C3389 C3370 1.429 . S
C3389 C3383 1.429 . S
C3389 C3390 1.523 . S
C3390 C3371 1.368 . S
C3390 C3384 1.368 . S
C3390 C3389 1.523 . S
C3391 C3375 1.429 . S
C3391 C3387 1.429 . S
C3391 C3392 1.523 . S
C3392 C3376 1.368 . S
C3392 C3388 1.368 . S
C3392 C3391 1.523 . S
H3393 C3368 0.950 . S
H3394 C3370 0.950 . S
H3395 C3371 0.949 . S
H3396 C3373 0.950 . S
H3397 C3375 0.950 . S
C3398 C3399 1.349 . S
C3398 C3400 1.327 . S
C3398 H3423 0.950 . S
C3399 C3398 1.349 . S
C3399 C3415 1.349 . S
C3400 C3398 1.327 . S
C3400 C3419 1.429 . S
C3400 H3424 0.950 . S
C3401 C3418 1.574 . S
C3401 C3420 1.368 . S
C3401 H3425 0.949 . S
H3402 C3406 0.949 . S
C3403 C3404 1.349 . S
C3403 C3405 1.327 . S
C3403 H3426 0.950 . S
C3404 C3403 1.349 . S
C3404 C3416 1.349 . S
C3405 C3403 1.327 . S
C3405 C3421 1.429 . S
C3405 H3427 0.950 . S
C3406 H3402 0.949 . S
C3406 C3414 1.574 . S
C3406 C3422 1.368 . S
H3407 C3415 0.950 . S
H3408 C3413 0.950 . S
H3409 C3414 0.949 . S
H3410 C3416 0.950 . S
H3411 C3417 0.950 . S
H3412 C3418 0.949 . S
C3413 H3408 0.950 . S
C3413 C3415 1.327 . S
C3413 C3419 1.429 . S
C3414 C3406 1.574 . S
C3414 H3409 0.949 . S
C3414 C3420 1.368 . S
C3415 C3399 1.349 . S
C3415 H3407 0.950 . S
C3415 C3413 1.327 . S
C3416 C3404 1.349 . S
C3416 H3410 0.950 . S
C3416 C3417 1.327 . S
C3417 H3411 0.950 . S
C3417 C3416 1.327 . S
C3417 C3421 1.429 . S
C3418 C3401 1.574 . S
C3418 H3412 0.949 . S
C3418 C3422 1.368 . S
C3419 C3400 1.429 . S
C3419 C3413 1.429 . S
C3419 C3420 1.523 . S
C3420 C3401 1.368 . S
C3420 C3414 1.368 . S
C3420 C3419 1.523 . S
C3421 C3405 1.429 . S
C3421 C3417 1.429 . S
C3421 C3422 1.523 . S
C3422 C3406 1.368 . S
C3422 C3418 1.368 . S
C3422 C3421 1.523 . S
H3423 C3398 0.950 . S
H3424 C3400 0.950 . S
H3425 C3401 0.949 . S
H3426 C3403 0.950 . S
H3427 C3405 0.950 . S
C3428 C3429 1.349 . S
C3428 C3430 1.327 . S
C3428 H3453 0.950 . S
C3429 C3428 1.349 . S
C3429 C3445 1.349 . S
C3430 C3428 1.327 . S
C3430 C3449 1.429 . S
C3430 H3454 0.950 . S
C3431 C3448 1.574 . S
C3431 C3450 1.368 . S
C3431 H3455 0.949 . S
H3432 C3436 0.949 . S
C3433 C3434 1.349 . S
C3433 C3435 1.327 . S
C3433 H3456 0.950 . S
C3434 C3433 1.349 . S
C3434 C3446 1.349 . S
C3435 C3433 1.327 . S
C3435 C3451 1.429 . S
C3435 H3457 0.950 . S
C3436 H3432 0.949 . S
C3436 C3444 1.574 . S
C3436 C3452 1.368 . S
H3437 C3445 0.950 . S
H3438 C3443 0.950 . S
H3439 C3444 0.949 . S
H3440 C3446 0.950 . S
H3441 C3447 0.950 . S
H3442 C3448 0.949 . S
C3443 H3438 0.950 . S
C3443 C3445 1.327 . S
C3443 C3449 1.429 . S
C3444 C3436 1.574 . S
C3444 H3439 0.949 . S
C3444 C3450 1.368 . S
C3445 C3429 1.349 . S
C3445 H3437 0.950 . S
C3445 C3443 1.327 . S
C3446 C3434 1.349 . S
C3446 H3440 0.950 . S
C3446 C3447 1.327 . S
C3447 H3441 0.950 . S
C3447 C3446 1.327 . S
C3447 C3451 1.429 . S
C3448 C3431 1.574 . S
C3448 H3442 0.949 . S
C3448 C3452 1.368 . S
C3449 C3430 1.429 . S
C3449 C3443 1.429 . S
C3449 C3450 1.523 . S
C3450 C3431 1.368 . S
C3450 C3444 1.368 . S
C3450 C3449 1.523 . S
C3451 C3435 1.429 . S
C3451 C3447 1.429 . S
C3451 C3452 1.523 . S
C3452 C3436 1.368 . S
C3452 C3448 1.368 . S
C3452 C3451 1.523 . S
H3453 C3428 0.950 . S
H3454 C3430 0.950 . S
H3455 C3431 0.949 . S
H3456 C3433 0.950 . S
H3457 C3435 0.950 . S
C3458 C3459 1.349 . S
C3458 C3460 1.327 . S
C3458 H3483 0.950 . S
C3459 C3458 1.349 . S
C3459 C3475 1.349 . S
C3460 C3458 1.327 . S
C3460 C3479 1.429 . S
C3460 H3484 0.950 . S
C3461 C3478 1.574 . S
C3461 C3480 1.368 . S
C3461 H3485 0.949 . S
H3462 C3466 0.949 . S
C3463 C3464 1.349 . S
C3463 C3465 1.327 . S
C3463 H3486 0.950 . S
C3464 C3463 1.349 . S
C3464 C3476 1.349 . S
C3465 C3463 1.327 . S
C3465 C3481 1.429 . S
C3465 H3487 0.950 . S
C3466 H3462 0.949 . S
C3466 C3474 1.574 . S
C3466 C3482 1.368 . S
H3467 C3475 0.950 . S
H3468 C3473 0.950 . S
H3469 C3474 0.949 . S
H3470 C3476 0.950 . S
H3471 C3477 0.950 . S
H3472 C3478 0.949 . S
C3473 H3468 0.950 . S
C3473 C3475 1.327 . S
C3473 C3479 1.429 . S
C3474 C3466 1.574 . S
C3474 H3469 0.949 . S
C3474 C3480 1.368 . S
C3475 C3459 1.349 . S
C3475 H3467 0.950 . S
C3475 C3473 1.327 . S
C3476 C3464 1.349 . S
C3476 H3470 0.950 . S
C3476 C3477 1.327 . S
C3477 H3471 0.950 . S
C3477 C3476 1.327 . S
C3477 C3481 1.429 . S
C3478 C3461 1.574 . S
C3478 H3472 0.949 . S
C3478 C3482 1.368 . S
C3479 C3460 1.429 . S
C3479 C3473 1.429 . S
C3479 C3480 1.523 . S
C3480 C3461 1.368 . S
C3480 C3474 1.368 . S
C3480 C3479 1.523 . S
C3481 C3465 1.429 . S
C3481 C3477 1.429 . S
C3481 C3482 1.523 . S
C3482 C3466 1.368 . S
C3482 C3478 1.368 . S
C3482 C3481 1.523 . S
H3483 C3458 0.950 . S
H3484 C3460 0.950 . S
H3485 C3461 0.949 . S
H3486 C3463 0.950 . S
H3487 C3465 0.950 . S
C3488 C3489 1.349 . S
C3488 C3490 1.327 . S
C3488 H3513 0.950 . S
C3489 C3488 1.349 . S
C3489 C3505 1.349 . S
C3490 C3488 1.327 . S
C3490 C3509 1.429 . S
C3490 H3514 0.950 . S
C3491 C3508 1.574 . S
C3491 C3510 1.368 . S
C3491 H3515 0.949 . S
H3492 C3496 0.949 . S
C3493 C3494 1.349 . S
C3493 C3495 1.327 . S
C3493 H3516 0.950 . S
C3494 C3493 1.349 . S
C3494 C3506 1.349 . S
C3495 C3493 1.327 . S
C3495 C3511 1.429 . S
C3495 H3517 0.950 . S
C3496 H3492 0.949 . S
C3496 C3504 1.574 . S
C3496 C3512 1.368 . S
H3497 C3505 0.950 . S
H3498 C3503 0.950 . S
H3499 C3504 0.949 . S
H3500 C3506 0.950 . S
H3501 C3507 0.950 . S
H3502 C3508 0.949 . S
C3503 H3498 0.950 . S
C3503 C3505 1.327 . S
C3503 C3509 1.429 . S
C3504 C3496 1.574 . S
C3504 H3499 0.949 . S
C3504 C3510 1.368 . S
C3505 C3489 1.349 . S
C3505 H3497 0.950 . S
C3505 C3503 1.327 . S
C3506 C3494 1.349 . S
C3506 H3500 0.950 . S
C3506 C3507 1.327 . S
C3507 H3501 0.950 . S
C3507 C3506 1.327 . S
C3507 C3511 1.429 . S
C3508 C3491 1.574 . S
C3508 H3502 0.949 . S
C3508 C3512 1.368 . S
C3509 C3490 1.429 . S
C3509 C3503 1.429 . S
C3509 C3510 1.523 . S
C3510 C3491 1.368 . S
C3510 C3504 1.368 . S
C3510 C3509 1.523 . S
C3511 C3495 1.429 . S
C3511 C3507 1.429 . S
C3511 C3512 1.523 . S
C3512 C3496 1.368 . S
C3512 C3508 1.368 . S
C3512 C3511 1.523 . S
H3513 C3488 0.950 . S
H3514 C3490 0.950 . S
H3515 C3491 0.949 . S
H3516 C3493 0.950 . S
H3517 C3495 0.950 . S
C3518 C3519 1.349 . S
C3518 C3520 1.327 . S
C3518 H3543 0.950 . S
C3519 C3518 1.349 . S
C3519 C3535 1.349 . S
C3520 C3518 1.327 . S
C3520 C3539 1.429 . S
C3520 H3544 0.950 . S
C3521 C3538 1.574 . S
C3521 C3540 1.368 . S
C3521 H3545 0.949 . S
H3522 C3526 0.949 . S
C3523 C3524 1.349 . S
C3523 C3525 1.327 . S
C3523 H3546 0.950 . S
C3524 C3523 1.349 . S
C3524 C3536 1.349 . S
C3525 C3523 1.327 . S
C3525 C3541 1.429 . S
C3525 H3547 0.950 . S
C3526 H3522 0.949 . S
C3526 C3534 1.574 . S
C3526 C3542 1.368 . S
H3527 C3535 0.950 . S
H3528 C3533 0.950 . S
H3529 C3534 0.949 . S
H3530 C3536 0.950 . S
H3531 C3537 0.950 . S
H3532 C3538 0.949 . S
C3533 H3528 0.950 . S
C3533 C3535 1.327 . S
C3533 C3539 1.429 . S
C3534 C3526 1.574 . S
C3534 H3529 0.949 . S
C3534 C3540 1.368 . S
C3535 C3519 1.349 . S
C3535 H3527 0.950 . S
C3535 C3533 1.327 . S
C3536 C3524 1.349 . S
C3536 H3530 0.950 . S
C3536 C3537 1.327 . S
C3537 H3531 0.950 . S
C3537 C3536 1.327 . S
C3537 C3541 1.429 . S
C3538 C3521 1.574 . S
C3538 H3532 0.949 . S
C3538 C3542 1.368 . S
C3539 C3520 1.429 . S
C3539 C3533 1.429 . S
C3539 C3540 1.523 . S
C3540 C3521 1.368 . S
C3540 C3534 1.368 . S
C3540 C3539 1.523 . S
C3541 C3525 1.429 . S
C3541 C3537 1.429 . S
C3541 C3542 1.523 . S
C3542 C3526 1.368 . S
C3542 C3538 1.368 . S
C3542 C3541 1.523 . S
H3543 C3518 0.950 . S
H3544 C3520 0.950 . S
H3545 C3521 0.949 . S
H3546 C3523 0.950 . S
H3547 C3525 0.950 . S
C3548 C3549 1.349 . S
C3548 C3550 1.327 . S
C3548 H3573 0.950 . S
C3549 C3548 1.349 . S
C3549 C3565 1.349 . S
C3550 C3548 1.327 . S
C3550 C3569 1.429 . S
C3550 H3574 0.950 . S
C3551 C3568 1.574 . S
C3551 C3570 1.368 . S
C3551 H3575 0.949 . S
H3552 C3556 0.949 . S
C3553 C3554 1.349 . S
C3553 C3555 1.327 . S
C3553 H3576 0.950 . S
C3554 C3553 1.349 . S
C3554 C3566 1.349 . S
C3555 C3553 1.327 . S
C3555 C3571 1.429 . S
C3555 H3577 0.950 . S
C3556 H3552 0.949 . S
C3556 C3564 1.574 . S
C3556 C3572 1.368 . S
H3557 C3565 0.950 . S
H3558 C3563 0.950 . S
H3559 C3564 0.949 . S
H3560 C3566 0.950 . S
H3561 C3567 0.950 . S
H3562 C3568 0.949 . S
C3563 H3558 0.950 . S
C3563 C3565 1.327 . S
C3563 C3569 1.429 . S
C3564 C3556 1.574 . S
C3564 H3559 0.949 . S
C3564 C3570 1.368 . S
C3565 C3549 1.349 . S
C3565 H3557 0.950 . S
C3565 C3563 1.327 . S
C3566 C3554 1.349 . S
C3566 H3560 0.950 . S
C3566 C3567 1.327 . S
C3567 H3561 0.950 . S
C3567 C3566 1.327 . S
C3567 C3571 1.429 . S
C3568 C3551 1.574 . S
C3568 H3562 0.949 . S
C3568 C3572 1.368 . S
C3569 C3550 1.429 . S
C3569 C3563 1.429 . S
C3569 C3570 1.523 . S
C3570 C3551 1.368 . S
C3570 C3564 1.368 . S
C3570 C3569 1.523 . S
C3571 C3555 1.429 . S
C3571 C3567 1.429 . S
C3571 C3572 1.523 . S
C3572 C3556 1.368 . S
C3572 C3568 1.368 . S
C3572 C3571 1.523 . S
H3573 C3548 0.950 . S
H3574 C3550 0.950 . S
H3575 C3551 0.949 . S
H3576 C3553 0.950 . S
H3577 C3555 0.950 . S
C3578 C3579 1.349 . S
C3578 C3580 1.327 . S
C3578 H3603 0.950 . S
C3579 C3578 1.349 . S
C3579 C3595 1.349 . S
C3580 C3578 1.327 . S
C3580 C3599 1.429 . S
C3580 H3604 0.950 . S
C3581 C3598 1.574 . S
C3581 C3600 1.368 . S
C3581 H3605 0.949 . S
H3582 C3586 0.949 . S
C3583 C3584 1.349 . S
C3583 C3585 1.327 . S
C3583 H3606 0.950 . S
C3584 C3583 1.349 . S
C3584 C3596 1.349 . S
C3585 C3583 1.327 . S
C3585 C3601 1.429 . S
C3585 H3607 0.950 . S
C3586 H3582 0.949 . S
C3586 C3594 1.574 . S
C3586 C3602 1.368 . S
H3587 C3595 0.950 . S
H3588 C3593 0.950 . S
H3589 C3594 0.949 . S
H3590 C3596 0.950 . S
H3591 C3597 0.950 . S
H3592 C3598 0.949 . S
C3593 H3588 0.950 . S
C3593 C3595 1.327 . S
C3593 C3599 1.429 . S
C3594 C3586 1.574 . S
C3594 H3589 0.949 . S
C3594 C3600 1.368 . S
C3595 C3579 1.349 . S
C3595 H3587 0.950 . S
C3595 C3593 1.327 . S
C3596 C3584 1.349 . S
C3596 H3590 0.950 . S
C3596 C3597 1.327 . S
C3597 H3591 0.950 . S
C3597 C3596 1.327 . S
C3597 C3601 1.429 . S
C3598 C3581 1.574 . S
C3598 H3592 0.949 . S
C3598 C3602 1.368 . S
C3599 C3580 1.429 . S
C3599 C3593 1.429 . S
C3599 C3600 1.523 . S
C3600 C3581 1.368 . S
C3600 C3594 1.368 . S
C3600 C3599 1.523 . S
C3601 C3585 1.429 . S
C3601 C3597 1.429 . S
C3601 C3602 1.523 . S
C3602 C3586 1.368 . S
C3602 C3598 1.368 . S
C3602 C3601 1.523 . S
H3603 C3578 0.950 . S
H3604 C3580 0.950 . S
H3605 C3581 0.949 . S
H3606 C3583 0.950 . S
H3607 C3585 0.950 . S
C3608 C3609 1.349 . S
C3608 C3610 1.327 . S
C3608 H3633 0.950 . S
C3609 C3608 1.349 . S
C3609 C3625 1.349 . S
C3610 C3608 1.327 . S
C3610 C3629 1.429 . S
C3610 H3634 0.950 . S
C3611 C3628 1.574 . S
C3611 C3630 1.368 . S
C3611 H3635 0.949 . S
H3612 C3616 0.949 . S
C3613 C3614 1.349 . S
C3613 C3615 1.327 . S
C3613 H3636 0.950 . S
C3614 C3613 1.349 . S
C3614 C3626 1.349 . S
C3615 C3613 1.327 . S
C3615 C3631 1.429 . S
C3615 H3637 0.950 . S
C3616 H3612 0.949 . S
C3616 C3624 1.574 . S
C3616 C3632 1.368 . S
H3617 C3625 0.950 . S
H3618 C3623 0.950 . S
H3619 C3624 0.949 . S
H3620 C3626 0.950 . S
H3621 C3627 0.950 . S
H3622 C3628 0.949 . S
C3623 H3618 0.950 . S
C3623 C3625 1.327 . S
C3623 C3629 1.429 . S
C3624 C3616 1.574 . S
C3624 H3619 0.949 . S
C3624 C3630 1.368 . S
C3625 C3609 1.349 . S
C3625 H3617 0.950 . S
C3625 C3623 1.327 . S
C3626 C3614 1.349 . S
C3626 H3620 0.950 . S
C3626 C3627 1.327 . S
C3627 H3621 0.950 . S
C3627 C3626 1.327 . S
C3627 C3631 1.429 . S
C3628 C3611 1.574 . S
C3628 H3622 0.949 . S
C3628 C3632 1.368 . S
C3629 C3610 1.429 . S
C3629 C3623 1.429 . S
C3629 C3630 1.523 . S
C3630 C3611 1.368 . S
C3630 C3624 1.368 . S
C3630 C3629 1.523 . S
C3631 C3615 1.429 . S
C3631 C3627 1.429 . S
C3631 C3632 1.523 . S
C3632 C3616 1.368 . S
C3632 C3628 1.368 . S
C3632 C3631 1.523 . S
H3633 C3608 0.950 . S
H3634 C3610 0.950 . S
H3635 C3611 0.949 . S
H3636 C3613 0.950 . S
H3637 C3615 0.950 . S
C3638 C3639 1.349 . S
C3638 C3640 1.327 . S
C3638 H3663 0.950 . S
C3639 C3638 1.349 . S
C3639 C3655 1.349 . S
C3640 C3638 1.327 . S
C3640 C3659 1.429 . S
C3640 H3664 0.950 . S
C3641 C3658 1.574 . S
C3641 C3660 1.368 . S
C3641 H3665 0.949 . S
H3642 C3646 0.949 . S
C3643 C3644 1.349 . S
C3643 C3645 1.327 . S
C3643 H3666 0.950 . S
C3644 C3643 1.349 . S
C3644 C3656 1.349 . S
C3645 C3643 1.327 . S
C3645 C3661 1.429 . S
C3645 H3667 0.950 . S
C3646 H3642 0.949 . S
C3646 C3654 1.574 . S
C3646 C3662 1.368 . S
H3647 C3655 0.950 . S
H3648 C3653 0.950 . S
H3649 C3654 0.949 . S
H3650 C3656 0.950 . S
H3651 C3657 0.950 . S
H3652 C3658 0.949 . S
C3653 H3648 0.950 . S
C3653 C3655 1.327 . S
C3653 C3659 1.429 . S
C3654 C3646 1.574 . S
C3654 H3649 0.949 . S
C3654 C3660 1.368 . S
C3655 C3639 1.349 . S
C3655 H3647 0.950 . S
C3655 C3653 1.327 . S
C3656 C3644 1.349 . S
C3656 H3650 0.950 . S
C3656 C3657 1.327 . S
C3657 H3651 0.950 . S
C3657 C3656 1.327 . S
C3657 C3661 1.429 . S
C3658 C3641 1.574 . S
C3658 H3652 0.949 . S
C3658 C3662 1.368 . S
C3659 C3640 1.429 . S
C3659 C3653 1.429 . S
C3659 C3660 1.523 . S
C3660 C3641 1.368 . S
C3660 C3654 1.368 . S
C3660 C3659 1.523 . S
C3661 C3645 1.429 . S
C3661 C3657 1.429 . S
C3661 C3662 1.523 . S
C3662 C3646 1.368 . S
C3662 C3658 1.368 . S
C3662 C3661 1.523 . S
H3663 C3638 0.950 . S
H3664 C3640 0.950 . S
H3665 C3641 0.949 . S
H3666 C3643 0.950 . S
H3667 C3645 0.950 . S
C3668 C3669 1.349 . S
C3668 C3670 1.327 . S
C3668 H3693 0.950 . S
C3669 C3668 1.349 . S
C3669 C3685 1.349 . S
C3670 C3668 1.327 . S
C3670 C3689 1.429 . S
C3670 H3694 0.950 . S
C3671 C3688 1.574 . S
C3671 C3690 1.368 . S
C3671 H3695 0.949 . S
H3672 C3676 0.949 . S
C3673 C3674 1.349 . S
C3673 C3675 1.327 . S
C3673 H3696 0.950 . S
C3674 C3673 1.349 . S
C3674 C3686 1.349 . S
C3675 C3673 1.327 . S
C3675 C3691 1.429 . S
C3675 H3697 0.950 . S
C3676 H3672 0.949 . S
C3676 C3684 1.574 . S
C3676 C3692 1.368 . S
H3677 C3685 0.950 . S
H3678 C3683 0.950 . S
H3679 C3684 0.949 . S
H3680 C3686 0.950 . S
H3681 C3687 0.950 . S
H3682 C3688 0.949 . S
C3683 H3678 0.950 . S
C3683 C3685 1.327 . S
C3683 C3689 1.429 . S
C3684 C3676 1.574 . S
C3684 H3679 0.949 . S
C3684 C3690 1.368 . S
C3685 C3669 1.349 . S
C3685 H3677 0.950 . S
C3685 C3683 1.327 . S
C3686 C3674 1.349 . S
C3686 H3680 0.950 . S
C3686 C3687 1.327 . S
C3687 H3681 0.950 . S
C3687 C3686 1.327 . S
C3687 C3691 1.429 . S
C3688 C3671 1.574 . S
C3688 H3682 0.949 . S
C3688 C3692 1.368 . S
C3689 C3670 1.429 . S
C3689 C3683 1.429 . S
C3689 C3690 1.523 . S
C3690 C3671 1.368 . S
C3690 C3684 1.368 . S
C3690 C3689 1.523 . S
C3691 C3675 1.429 . S
C3691 C3687 1.429 . S
C3691 C3692 1.523 . S
C3692 C3676 1.368 . S
C3692 C3688 1.368 . S
C3692 C3691 1.523 . S
H3693 C3668 0.950 . S
H3694 C3670 0.950 . S
H3695 C3671 0.949 . S
H3696 C3673 0.950 . S
H3697 C3675 0.950 . S
C3698 C3699 1.349 . S
C3698 C3700 1.327 . S
C3698 H3723 0.950 . S
C3699 C3698 1.349 . S
C3699 C3715 1.349 . S
C3700 C3698 1.327 . S
C3700 C3719 1.429 . S
C3700 H3724 0.950 . S
C3701 C3718 1.574 . S
C3701 C3720 1.368 . S
C3701 H3725 0.949 . S
H3702 C3706 0.949 . S
C3703 C3704 1.349 . S
C3703 C3705 1.327 . S
C3703 H3726 0.950 . S
C3704 C3703 1.349 . S
C3704 C3716 1.349 . S
C3705 C3703 1.327 . S
C3705 C3721 1.429 . S
C3705 H3727 0.950 . S
C3706 H3702 0.949 . S
C3706 C3714 1.574 . S
C3706 C3722 1.368 . S
H3707 C3715 0.950 . S
H3708 C3713 0.950 . S
H3709 C3714 0.949 . S
H3710 C3716 0.950 . S
H3711 C3717 0.950 . S
H3712 C3718 0.949 . S
C3713 H3708 0.950 . S
C3713 C3715 1.327 . S
C3713 C3719 1.429 . S
C3714 C3706 1.574 . S
C3714 H3709 0.949 . S
C3714 C3720 1.368 . S
C3715 C3699 1.349 . S
C3715 H3707 0.950 . S
C3715 C3713 1.327 . S
C3716 C3704 1.349 . S
C3716 H3710 0.950 . S
C3716 C3717 1.327 . S
C3717 H3711 0.950 . S
C3717 C3716 1.327 . S
C3717 C3721 1.429 . S
C3718 C3701 1.574 . S
C3718 H3712 0.949 . S
C3718 C3722 1.368 . S
C3719 C3700 1.429 . S
C3719 C3713 1.429 . S
C3719 C3720 1.523 . S
C3720 C3701 1.368 . S
C3720 C3714 1.368 . S
C3720 C3719 1.523 . S
C3721 C3705 1.429 . S
C3721 C3717 1.429 . S
C3721 C3722 1.523 . S
C3722 C3706 1.368 . S
C3722 C3718 1.368 . S
C3722 C3721 1.523 . S
H3723 C3698 0.950 . S
H3724 C3700 0.950 . S
H3725 C3701 0.949 . S
H3726 C3703 0.950 . S
H3727 C3705 0.950 . S
C3728 C3729 1.349 . S
C3728 C3730 1.327 . S
C3728 H3753 0.950 . S
C3729 C3728 1.349 . S
C3729 C3745 1.349 . S
C3730 C3728 1.327 . S
C3730 C3749 1.429 . S
C3730 H3754 0.950 . S
C3731 C3748 1.574 . S
C3731 C3750 1.368 . S
C3731 H3755 0.949 . S
H3732 C3736 0.949 . S
C3733 C3734 1.349 . S
C3733 C3735 1.327 . S
C3733 H3756 0.950 . S
C3734 C3733 1.349 . S
C3734 C3746 1.349 . S
C3735 C3733 1.327 . S
C3735 C3751 1.429 . S
C3735 H3757 0.950 . S
C3736 H3732 0.949 . S
C3736 C3744 1.574 . S
C3736 C3752 1.368 . S
H3737 C3745 0.950 . S
H3738 C3743 0.950 . S
H3739 C3744 0.949 . S
H3740 C3746 0.950 . S
H3741 C3747 0.950 . S
H3742 C3748 0.949 . S
C3743 H3738 0.950 . S
C3743 C3745 1.327 . S
C3743 C3749 1.429 . S
C3744 C3736 1.574 . S
C3744 H3739 0.949 . S
C3744 C3750 1.368 . S
C3745 C3729 1.349 . S
C3745 H3737 0.950 . S
C3745 C3743 1.327 . S
C3746 C3734 1.349 . S
C3746 H3740 0.950 . S
C3746 C3747 1.327 . S
C3747 H3741 0.950 . S
C3747 C3746 1.327 . S
C3747 C3751 1.429 . S
C3748 C3731 1.574 . S
C3748 H3742 0.949 . S
C3748 C3752 1.368 . S
C3749 C3730 1.429 . S
C3749 C3743 1.429 . S
C3749 C3750 1.523 . S
C3750 C3731 1.368 . S
C3750 C3744 1.368 . S
C3750 C3749 1.523 . S
C3751 C3735 1.429 . S
C3751 C3747 1.429 . S
C3751 C3752 1.523 . S
C3752 C3736 1.368 . S
C3752 C3748 1.368 . S
C3752 C3751 1.523 . S
H3753 C3728 0.950 . S
H3754 C3730 0.950 . S
H3755 C3731 0.949 . S
H3756 C3733 0.950 . S
H3757 C3735 0.950 . S
C3758 C3759 1.349 . S
C3758 C3760 1.327 . S
C3758 H3783 0.950 . S
C3759 C3758 1.349 . S
C3759 C3775 1.349 . S
C3760 C3758 1.327 . S
C3760 C3779 1.429 . S
C3760 H3784 0.950 . S
C3761 C3778 1.574 . S
C3761 C3780 1.368 . S
C3761 H3785 0.949 . S
H3762 C3766 0.949 . S
C3763 C3764 1.349 . S
C3763 C3765 1.327 . S
C3763 H3786 0.950 . S
C3764 C3763 1.349 . S
C3764 C3776 1.349 . S
C3765 C3763 1.327 . S
C3765 C3781 1.429 . S
C3765 H3787 0.950 . S
C3766 H3762 0.949 . S
C3766 C3774 1.574 . S
C3766 C3782 1.368 . S
H3767 C3775 0.950 . S
H3768 C3773 0.950 . S
H3769 C3774 0.949 . S
H3770 C3776 0.950 . S
H3771 C3777 0.950 . S
H3772 C3778 0.949 . S
C3773 H3768 0.950 . S
C3773 C3775 1.327 . S
C3773 C3779 1.429 . S
C3774 C3766 1.574 . S
C3774 H3769 0.949 . S
C3774 C3780 1.368 . S
C3775 C3759 1.349 . S
C3775 H3767 0.950 . S
C3775 C3773 1.327 . S
C3776 C3764 1.349 . S
C3776 H3770 0.950 . S
C3776 C3777 1.327 . S
C3777 H3771 0.950 . S
C3777 C3776 1.327 . S
C3777 C3781 1.429 . S
C3778 C3761 1.574 . S
C3778 H3772 0.949 . S
C3778 C3782 1.368 . S
C3779 C3760 1.429 . S
C3779 C3773 1.429 . S
C3779 C3780 1.523 . S
C3780 C3761 1.368 . S
C3780 C3774 1.368 . S
C3780 C3779 1.523 . S
C3781 C3765 1.429 . S
C3781 C3777 1.429 . S
C3781 C3782 1.523 . S
C3782 C3766 1.368 . S
C3782 C3778 1.368 . S
C3782 C3781 1.523 . S
H3783 C3758 0.950 . S
H3784 C3760 0.950 . S
H3785 C3761 0.949 . S
H3786 C3763 0.950 . S
H3787 C3765 0.950 . S
C3788 C3789 1.349 . S
C3788 C3790 1.327 . S
C3788 H3813 0.950 . S
C3789 C3788 1.349 . S
C3789 C3805 1.349 . S
C3790 C3788 1.327 . S
C3790 C3809 1.429 . S
C3790 H3814 0.950 . S
C3791 C3808 1.574 . S
C3791 C3810 1.368 . S
C3791 H3815 0.949 . S
H3792 C3796 0.949 . S
C3793 C3794 1.349 . S
C3793 C3795 1.327 . S
C3793 H3816 0.950 . S
C3794 C3793 1.349 . S
C3794 C3806 1.349 . S
C3795 C3793 1.327 . S
C3795 C3811 1.429 . S
C3795 H3817 0.950 . S
C3796 H3792 0.949 . S
C3796 C3804 1.574 . S
C3796 C3812 1.368 . S
H3797 C3805 0.950 . S
H3798 C3803 0.950 . S
H3799 C3804 0.949 . S
H3800 C3806 0.950 . S
H3801 C3807 0.950 . S
H3802 C3808 0.949 . S
C3803 H3798 0.950 . S
C3803 C3805 1.327 . S
C3803 C3809 1.429 . S
C3804 C3796 1.574 . S
C3804 H3799 0.949 . S
C3804 C3810 1.368 . S
C3805 C3789 1.349 . S
C3805 H3797 0.950 . S
C3805 C3803 1.327 . S
C3806 C3794 1.349 . S
C3806 H3800 0.950 . S
C3806 C3807 1.327 . S
C3807 H3801 0.950 . S
C3807 C3806 1.327 . S
C3807 C3811 1.429 . S
C3808 C3791 1.574 . S
C3808 H3802 0.949 . S
C3808 C3812 1.368 . S
C3809 C3790 1.429 . S
C3809 C3803 1.429 . S
C3809 C3810 1.523 . S
C3810 C3791 1.368 . S
C3810 C3804 1.368 . S
C3810 C3809 1.523 . S
C3811 C3795 1.429 . S
C3811 C3807 1.429 . S
C3811 C3812 1.523 . S
C3812 C3796 1.368 . S
C3812 C3808 1.368 . S
C3812 C3811 1.523 . S
H3813 C3788 0.950 . S
H3814 C3790 0.950 . S
H3815 C3791 0.949 . S
H3816 C3793 0.950 . S
H3817 C3795 0.950 . S
C3818 C3819 1.349 . S
C3818 C3820 1.327 . S
C3818 H3843 0.950 . S
C3819 C3818 1.349 . S
C3819 C3835 1.349 . S
C3820 C3818 1.327 . S
C3820 C3839 1.429 . S
C3820 H3844 0.950 . S
C3821 C3838 1.574 . S
C3821 C3840 1.368 . S
C3821 H3845 0.949 . S
H3822 C3826 0.949 . S
C3823 C3824 1.349 . S
C3823 C3825 1.327 . S
C3823 H3846 0.950 . S
C3824 C3823 1.349 . S
C3824 C3836 1.349 . S
C3825 C3823 1.327 . S
C3825 C3841 1.429 . S
C3825 H3847 0.950 . S
C3826 H3822 0.949 . S
C3826 C3834 1.574 . S
C3826 C3842 1.368 . S
H3827 C3835 0.950 . S
H3828 C3833 0.950 . S
H3829 C3834 0.949 . S
H3830 C3836 0.950 . S
H3831 C3837 0.950 . S
H3832 C3838 0.949 . S
C3833 H3828 0.950 . S
C3833 C3835 1.327 . S
C3833 C3839 1.429 . S
C3834 C3826 1.574 . S
C3834 H3829 0.949 . S
C3834 C3840 1.368 . S
C3835 C3819 1.349 . S
C3835 H3827 0.950 . S
C3835 C3833 1.327 . S
C3836 C3824 1.349 . S
C3836 H3830 0.950 . S
C3836 C3837 1.327 . S
C3837 H3831 0.950 . S
C3837 C3836 1.327 . S
C3837 C3841 1.429 . S
C3838 C3821 1.574 . S
C3838 H3832 0.949 . S
C3838 C3842 1.368 . S
C3839 C3820 1.429 . S
C3839 C3833 1.429 . S
C3839 C3840 1.523 . S
C3840 C3821 1.368 . S
C3840 C3834 1.368 . S
C3840 C3839 1.523 . S
C3841 C3825 1.429 . S
C3841 C3837 1.429 . S
C3841 C3842 1.523 . S
C3842 C3826 1.368 . S
C3842 C3838 1.368 . S
C3842 C3841 1.523 . S
H3843 C3818 0.950 . S
H3844 C3820 0.950 . S
H3845 C3821 0.949 . S
H3846 C3823 0.950 . S
H3847 C3825 0.950 . S
C974 N428 1.931 . S
C969 C8 1.977 . S
C1004 C455 0.911 . S
C999 C17 0.900 . S
C1029 C35 1.925 . S
C1034 C469 1.917 . S
C1064 N487 1.409 . S
C1059 C43 1.335 . S
C1089 C56 1.053 . S
C1094 C492 1.097 . S
C1119 C73 1.792 . S
C1124 C432 1.794 . S
C1149 C87 1.455 . S
C1154 N451 1.416 . S
C1184 N464 1.803 . S
C1179 C100 1.828 . S
C1214 N510 1.715 . S
C1209 C9 1.716 . S
C1239 C22 1.382 . S
C1244 N533 1.341 . S
C1269 C34 1.934 . S
C1274 N556 1.890 . S
C1304 N589 1.536 . S
C1299 C47 1.566 . S
C1329 C61 1.332 . S
C1334 C616 1.317 . S
C1364 C639 1.568 . S
C1359 C69 1.518 . S
C1389 C82 1.146 . S
C1394 C662 1.189 . S
C1424 C676 1.944 . S
C1419 C99 1.958 . S
C1449 C4 1.807 . S
C1454 C593 1.889 . S
C1479 C60 1.466 . S
C1484 N635 1.447 1_565 S
C1514 N658 1.745 . S
C1509 C74 1.792 . S
C1539 C86 1.385 . S
C1544 N671 1.311 . S
C1574 N612 1.821 . S
C1569 C95 1.846 . S
C1604 C538 1.420 . S
C1599 C30 1.337 . S
C1629 C48 1.150 . S
C1634 C561 1.163 . S
C1664 C515 1.434 . S
C1659 C21 1.436 . S
C1694 C708 1.913 . S
C1689 C112 1.930 . S
C1719 C121 0.995 . S
C1724 C722 1.021 . S
C1749 C139 1.745 . S
C1754 N750 1.689 . S
C1784 N763 1.434 . S
C1779 C147 1.357 . S
C1809 C160 1.043 . S
C1814 C768 1.085 . S
C1839 C177 1.761 . S
C1844 N704 1.718 . S
C1869 C191 1.484 . S
C1874 N717 1.489 . S
C1899 C204 1.848 . S
C1904 C754 1.850 . S
C1934 N602 1.896 . S
C1929 C113 1.903 . S
C1959 C126 1.465 . S
C1964 N786 1.411 . S
C1994 N648 1.717 . S
C1989 C138 1.752 . S
C2019 C151 1.539 . S
C2024 C823 1.505 . S
C2049 C165 1.181 . S
C2054 C524 1.178 . S
C2084 C837 1.717 . S
C2079 C173 1.657 . S
C2109 C186 1.202 . S
C2114 C570 1.233 . S
C2144 N855 1.857 . S
C2139 C203 1.871 . S
C2169 C108 1.727 . S
C2174 N819 1.744 . S
C2204 N832 1.376 . S
C2199 C164 1.407 . S
C2229 C178 1.921 . S
C2234 N566 1.879 . S
C2264 C860 1.368 . S
C2259 C190 1.383 . S
C2289 C199 1.748 . S
C2294 N520 1.730 . S
C2319 C134 1.216 . S
C2324 C791 1.269 . S
C2349 C152 1.201 . S
C2354 C653 1.211 . S
C2379 C125 1.531 . S
C2384 C607 1.523 . S
C2409 C216 2.015 . S
C2414 C745 2.011 . S
C2444 C777 0.964 . S
C2439 C225 0.950 . S
C2469 C243 1.965 . S
C2474 N694 1.939 . S
C2499 C251 1.318 . S
C2504 N727 1.356 . S
C2529 C264 1.077 . S
C2534 C731 1.095 . S
C2559 C281 1.564 . S
C2564 N740 1.541 . S
C2594 N773 1.376 . S
C2589 C295 1.417 . S
C2619 C308 1.846 . S
C2624 C699 1.863 . S
C2654 N888 1.862 . S
C2649 C217 1.913 . S
C2679 C230 1.358 . S
C2684 N625 1.310 . S
C2714 N911 1.800 . S
C2709 C242 1.850 . S
C2739 C255 1.568 . S
C2744 N681 1.546 . S
C2769 C269 1.307 . S
C2774 C929 1.310 . S
C2799 C277 1.492 . S
C2804 C547 1.538 . S
C2834 N947 1.206 . S
C2829 C290 1.170 . S
C2859 C307 1.968 . S
C2864 C584 1.963 . S
C2894 C685 1.886 . S
C2889 C212 1.806 . S
C2924 N543 1.432 . S
C2919 C268 1.452 . S
C2949 C282 1.814 . S
C2954 C952 1.828 . S
C2979 C294 1.427 . S
C2984 N579 1.342 . S
C3014 N924 1.871 . S
C3009 C303 1.850 . S
C3044 C630 1.455 . S
C3039 C238 1.402 . S
C3074 C915 1.155 . S
C3069 C256 1.141 . S
C3104 C892 1.437 . S
C3099 C229 1.454 . S
C3129 C320 1.858 . S
C3134 N474 1.815 . S
C3159 C329 0.999 . S
C3164 C501 1.005 . S
C3194 C423 2.066 . S
C3189 C347 2.056 . S
C3224 N441 1.402 . S
C3219 C355 1.310 . S
C3254 C446 1.086 . S
C3249 C368 1.046 . S
C3284 C478 1.630 1_556 S
C3279 C385 1.630 . S
C3314 N497 1.407 . S
C3309 C399 1.444 . S
C3339 C412 1.886 . S
C3344 N418 1.837 1_556 S
C3369 C321 1.761 . S
C3374 N934 1.721 . S
C3404 N842 1.394 . S
C3399 C334 1.423 . S
C3434 C961 1.792 . S
C3429 C342 1.769 . S
C3464 C869 1.362 . S
C3459 C359 1.391 . S
C3489 C373 1.351 . S
C3494 C883 1.352 . S
C3524 C800 1.457 . S
C3519 C381 1.417 . S
C3554 C906 1.272 . S
C3549 C394 1.227 . S
C3579 C411 1.902 . S
C3584 N809 1.881 . S
C3614 N865 1.708 . S
C3609 C316 1.691 . S
C3644 N796 1.468 . S
C3639 C372 1.489 . S
C3674 N901 1.836 . S
C3669 C386 1.861 . S
C3699 C398 1.343 . S
C3704 C814 1.334 . S
C3729 C407 1.824 . S
C3734 N878 1.850 . S
C3759 C346 1.709 . S
C3764 C846 1.698 . S
C3789 C360 1.135 . S
C3794 N957 1.112 . S
C3824 C938 1.522 . S
C3819 C333 1.544 . S
