# Generated by pormake.
# Topology zzz, (3,6)-cn, num edge types: 1
# Building blocks:
#     Node 0, Type 0, BuildingBlock: QEWDON_clean_linker_0, # of connection points: 3
#     Node 1, Type 0, BuildingBlock: QEWDON_clean_linker_0, # of connection points: 3
#     Node 2, Type 0, BuildingBlock: QEWDON_clean_linker_0, # of connection points: 3
#     Node 3, Type 0, BuildingBlock: QEWDON_clean_linker_0, # of connection points: 3
#     Node 4, Type 0, BuildingBlock: QEWDON_clean_linker_0, # of connection points: 3
#     Node 5, Type 0, BuildingBlock: QEWDON_clean_linker_0, # of connection points: 3
#     Node 6, Type 0, BuildingBlock: QEWDON_clean_linker_0, # of connection points: 3
#     Node 7, Type 0, BuildingBlock: QEWDON_clean_linker_0, # of connection points: 3
#     Node 8, Type 1, BuildingBlock: BETFAJ_clean_sbu_0, # of connection points: 6
#     Node 9, Type 1, BuildingBlock: BETFAJ_clean_sbu_0, # of connection points: 6
#     Node 10, Type 1, BuildingBlock: BETFAJ_clean_sbu_0, # of connection points: 6
#     Node 11, Type 1, BuildingBlock: BETFAJ_clean_sbu_0, # of connection points: 6
#     Edge 12, Type (0, 1), BuildingBlock: XIVTED_clean_linker_0, # of connection points: 2
#     Edge 13, Type (0, 1), BuildingBlock: XIVTED_clean_linker_0, # of connection points: 2
#     Edge 14, Type (0, 1), BuildingBlock: XIVTED_clean_linker_0, # of connection points: 2
#     Edge 15, Type (0, 1), BuildingBlock: XIVTED_clean_linker_0, # of connection points: 2
#     Edge 16, Type (0, 1), BuildingBlock: XIVTED_clean_linker_0, # of connection points: 2
#     Edge 17, Type (0, 1), BuildingBlock: XIVTED_clean_linker_0, # of connection points: 2
#     Edge 18, Type (0, 1), BuildingBlock: XIVTED_clean_linker_0, # of connection points: 2
#     Edge 19, Type (0, 1), BuildingBlock: XIVTED_clean_linker_0, # of connection points: 2
#     Edge 20, Type (0, 1), BuildingBlock: XIVTED_clean_linker_0, # of connection points: 2
#     Edge 21, Type (0, 1), BuildingBlock: XIVTED_clean_linker_0, # of connection points: 2
#     Edge 22, Type (0, 1), BuildingBlock: XIVTED_clean_linker_0, # of connection points: 2
#     Edge 23, Type (0, 1), BuildingBlock: XIVTED_clean_linker_0, # of connection points: 2
#     Edge 24, Type (0, 1), BuildingBlock: XIVTED_clean_linker_0, # of connection points: 2
#     Edge 25, Type (0, 1), BuildingBlock: XIVTED_clean_linker_0, # of connection points: 2
#     Edge 26, Type (0, 1), BuildingBlock: XIVTED_clean_linker_0, # of connection points: 2
#     Edge 27, Type (0, 1), BuildingBlock: XIVTED_clean_linker_0, # of connection points: 2
#     Edge 28, Type (0, 1), BuildingBlock: XIVTED_clean_linker_0, # of connection points: 2
#     Edge 29, Type (0, 1), BuildingBlock: XIVTED_clean_linker_0, # of connection points: 2
#     Edge 30, Type (0, 1), BuildingBlock: XIVTED_clean_linker_0, # of connection points: 2
#     Edge 31, Type (0, 1), BuildingBlock: XIVTED_clean_linker_0, # of connection points: 2
#     Edge 32, Type (0, 1), BuildingBlock: XIVTED_clean_linker_0, # of connection points: 2
#     Edge 33, Type (0, 1), BuildingBlock: XIVTED_clean_linker_0, # of connection points: 2
#     Edge 34, Type (0, 1), BuildingBlock: XIVTED_clean_linker_0, # of connection points: 2
#     Edge 35, Type (0, 1), BuildingBlock: XIVTED_clean_linker_0, # of connection points: 2
# Relax obj value: 0.176
# Max RMSD: 0.174
# Mean RMSD: 0.125
data_MOF--net-zzz--node1-BETFAJ_clean_sbu_0--node2-QEWDON_clean_linker_0--edge1-XIVTED_clean_linker_0
_symmetry_space_group_name_H-M    P1
_symmetry_Int_Tables_number       1
_symmetry_cell_setting            triclinic
loop_
_symmetry_equiv_pos_as_xyz
'x, y, z'
_cell_length_a     56.253792
_cell_length_b     56.209618
_cell_length_c     12.767404
_cell_angle_alpha  90.016731
_cell_angle_beta   89.997665
_cell_angle_gamma 89.853433
loop_
_atom_site_label
_atom_site_type_symbol
_atom_site_fract_x
_atom_site_fract_y
_atom_site_fract_z
_atom_type_partial_charge
H0 H 0.75041 0.4872 0.28817 0.0
C1 C 0.76439 0.49526 0.33413 0.0
C2 C 0.78685 0.48439 0.33442 0.0
C3 C 0.76009 0.51595 0.39444 0.0
H4 H 0.82267 0.48575 0.39338 0.0
C5 C 0.80517 0.49396 0.39509 0.0
C6 C 0.80184 0.5146 0.45351 0.0
C7 C 0.77939 0.5258 0.45255 0.0
C8 C 0.73545 0.52658 0.39981 0.0
H9 H 0.77719 0.54213 0.49641 0.0
C10 C 0.71868 0.52414 0.31691 0.0
C11 C 0.69511 0.53292 0.32687 0.0
C12 C 0.72808 0.5384 0.49159 0.0
H13 H 0.73976 0.54009 0.55846 0.0
C14 C 0.70521 0.54773 0.50038 0.0
H15 H 0.72372 0.5152 0.24524 0.0
C16 C 0.68889 0.54506 0.41924 0.0
H17 H 0.67132 0.55266 0.42902 0.0
H18 H 0.69997 0.55688 0.57138 0.0
H19 H 0.98428 0.75223 0.21631 0.0
C20 C 0.98684 0.76709 0.2688 0.0
C21 C 0.98028 0.78957 0.23274 0.0
C22 C 0.99621 0.76399 0.37066 0.0
H23 H 0.97782 0.82673 0.26812 0.0
C24 C 0.98223 0.80926 0.29882 0.0
C25 C 0.99103 0.8072 0.40086 0.0
C26 C 0.99861 0.78453 0.43588 0.0
C27 C 1.00271 0.73931 0.40804 0.0
H28 H 1.00621 0.78311 0.51341 0.0
C29 C 1.00809 0.72062 0.33649 0.0
C30 C 1.01173 0.69696 0.37081 0.0
C31 C 1.00224 0.73376 0.51559 0.0
H32 H 0.99765 0.74698 0.57371 0.0
C33 C 1.00696 0.71069 0.55038 0.0
H34 H 1.00899 0.72418 0.25352 0.0
C35 C 1.01153 0.69244 0.47905 0.0
H36 H 1.01489 0.67473 0.50904 0.0
H37 H 1.00661 0.70681 0.63342 0.0
H38 H 0.78728 0.05533 0.22796 0.0
C39 C 0.77252 0.04658 0.26608 0.0
C40 C 0.75035 0.05798 0.26646 0.0
C41 C 0.77552 0.02434 0.31634 0.0
H42 H 0.71373 0.05591 0.3141 0.0
C43 C 0.73101 0.04725 0.31614 0.0
C44 C 0.73316 0.02522 0.36498 0.0
C45 C 0.75541 1.0137 0.36539 0.0
C46 C 0.79961 1.0127 0.32005 0.0
H47 H 0.75678 0.99637 0.40186 0.0
C48 C 0.81678 1.01609 0.23971 0.0
C49 C 0.83989 1.00624 0.24813 0.0
C50 C 0.80601 0.9988 0.40738 0.0
H51 H 0.79389 0.99624 0.47217 0.0
C52 C 0.82847 0.98841 0.41431 0.0
H53 H 0.81243 0.02663 0.17145 0.0
C54 C 0.84526 0.99208 0.33582 0.0
H55 H 0.86255 0.98375 0.34395 0.0
H56 H 0.83303 0.97769 0.48185 0.0
H57 H 0.48609 0.79259 0.2566 0.0
C58 C 0.49445 0.77799 0.29805 0.0
C59 C 0.48512 0.7551 0.28603 0.0
C60 C 0.514 0.78199 0.36531 0.0
H61 H 0.48841 0.71818 0.32767 0.0
C62 C 0.49542 0.73597 0.33934 0.0
C63 C 0.51495 0.73909 0.405 0.0
C64 C 0.52422 0.76218 0.41882 0.0
C65 C 0.5229 0.80689 0.38227 0.0
H66 H 0.53952 0.76453 0.46917 0.0
C67 C 0.52215 0.82429 0.3016 0.0
C68 C 0.5288 0.84823 0.32081 0.0
C69 C 0.53102 0.81381 0.48183 0.0
H70 H 0.53141 0.80132 0.54636 0.0
C71 C 0.53794 0.8372 0.50101 0.0
H72 H 0.51661 0.81916 0.22366 0.0
C73 C 0.53668 0.85428 0.42197 0.0
H74 H 0.54138 0.87241 0.44143 0.0
H75 H 0.54385 0.84228 0.57853 0.0
H76 H 0.29055 0.52027 0.29159 0.0
C77 C 0.2763 0.5178 0.23575 0.0
C78 C 0.25396 0.51219 0.27519 0.0
C79 C 0.2799 0.52142 0.12745 0.0
H80 H 0.21698 0.5078 0.24077 0.0
C81 C 0.23444 0.51123 0.2079 0.0
C82 C 0.23651 0.51693 0.10156 0.0
C83 C 0.25953 0.52111 0.06018 0.0
C84 C 0.30461 0.52766 0.09012 0.0
H85 H 0.26124 0.52487 0.97747 0.0
C86 C 0.32501 0.52098 0.14915 0.0
C87 C 0.34783 0.53019 0.1268 0.0
C88 C 0.3081 0.54207 0.00137 0.0
H89 H 0.29329 0.54804 0.95416 0.0
C90 C 0.33084 0.54996 0.97446 0.0
H91 H 0.32324 0.50882 0.21424 0.0
C92 C 0.35046 0.54445 0.03719 0.0
H93 H 0.36751 0.55209 0.01717 0.0
H94 H 0.33314 0.56125 0.90653 0.0
H95 H 0.0458 0.28646 0.24854 0.0
C96 C 0.04191 0.27477 0.18342 0.0
C97 C 0.05669 0.25492 0.1673 0.0
C98 C 0.02134 0.2784 0.12173 0.0
H99 H 0.06134 0.22242 0.07958 0.0
C100 C 0.05096 0.23861 0.08812 0.0
C101 C 0.03016 0.24085 0.02969 0.0
C102 C 1.01559 0.26095 0.04488 0.0
C103 C 1.0049 0.29902 0.14478 0.0
H104 H 0.99971 0.26253 0.99767 0.0
C105 C 1.01321 0.32045 0.1914 0.0
C106 C 0.99734 0.33915 0.21738 0.0
C107 C 0.98035 0.29702 0.12452 0.0
H108 H 0.97276 0.28086 0.09333 0.0
C109 C 0.96479 0.31563 0.14749 0.0
H110 H 0.03195 0.32283 0.20701 0.0
C111 C 0.97312 0.33645 0.19356 0.0
H112 H 0.96036 0.35018 0.21363 0.0
H113 H 0.94599 0.31368 0.13159 0.0
H114 H 0.25098 0.99833 0.20401 0.0
C115 C 0.26609 1.00642 0.16554 0.0
C116 C 0.28799 0.99455 0.16838 0.0
C117 C 0.26372 0.0282 0.111 0.0
H118 H 0.32478 0.99535 0.12247 0.0
C119 C 0.30772 1.0044 0.11816 0.0
C120 C 0.30617 0.02597 0.06496 0.0
C121 C 0.28416 0.03792 0.06103 0.0
C122 C 0.23983 0.04007 0.10264 0.0
H123 H 0.28317 0.05483 0.02069 0.0
C124 C 0.22245 0.03812 0.18296 0.0
C125 C 0.19936 0.04764 0.16939 0.0
C126 C 0.23374 0.05244 0.01054 0.0
H127 H 0.24612 0.0539 0.94601 0.0
C128 C 0.21122 0.06248 0.99841 0.0
H129 H 0.22657 0.02882 0.25497 0.0
C130 C 0.19414 0.06001 0.07659 0.0
H131 H 0.17671 0.06778 0.06435 0.0
H132 H 0.20684 0.0719 0.92698 0.0
H133 H 0.55723 0.24656 0.14413 0.0
C134 C 0.54992 0.26162 0.10204 0.0
C135 C 0.56133 0.28365 0.11081 0.0
C136 C 0.52943 0.25908 0.03907 0.0
H137 H 0.5606 0.32062 0.06603 0.0
C138 C 0.55232 0.30333 0.05642 0.0
C139 C 0.53182 0.3017 0.99571 0.0
C140 C 0.52027 0.27955 0.98684 0.0
C141 C 0.51833 0.23496 0.02571 0.0
H142 H 0.50419 0.27842 0.94054 0.0
C143 C 0.51877 0.21766 0.10686 0.0
C144 C 0.51016 0.19426 0.09028 0.0
C145 C 0.50844 0.22855 0.92861 0.0
H146 H 0.50818 0.24094 0.86371 0.0
C147 C 0.49956 0.20572 0.91218 0.0
H148 H 0.52561 0.22244 0.18319 0.0
C149 C 0.50057 0.18869 0.99146 0.0
H150 H 0.49431 0.17094 0.97392 0.0
H151 H 0.4923 0.20102 0.83645 0.0
Sm152 Sm 0.02729 1.01795 0.81286 0.0
Sm153 Sm 1.00965 0.0329 0.58294 0.0
C154 C 0.02975 0.99244 0.983 0.0
C155 C 1.01833 0.96894 0.98896 0.0
C156 C 0.99603 0.96564 0.94114 0.0
C157 C 0.98768 0.94288 0.9191 0.0
C158 C 1.00135 0.92282 0.94493 0.0
C159 C 0.02315 0.92608 0.99742 0.0
C160 C 0.03162 0.94895 0.01875 0.0
C161 C 0.06239 0.03062 0.67419 0.0
C162 C 1.01035 0.97657 0.63327 0.0
C163 C 1.01484 0.05281 0.39879 0.0
C164 C 0.02909 0.07441 0.37725 0.0
C165 C 0.05373 0.07275 0.35839 0.0
C166 C 0.06813 0.093 0.36381 0.0
C167 C 0.05811 0.11524 0.38804 0.0
C168 C 0.03333 0.1171 0.39945 0.0
C169 C 1.01899 0.09699 0.39366 0.0
C170 C 0.97116 0.02722 0.71629 0.0
C171 C 1.0194 0.07366 0.76949 0.0
O172 O 1.01533 1.01076 0.97572 0.0
O173 O 0.04746 0.99342 0.91651 0.0
O174 O 0.04382 1.01893 0.6533 0.0
O175 O 0.06364 0.03511 0.77428 0.0
O176 O 1.01715 0.98242 0.72949 0.0
O177 O 1.00663 0.99261 0.55898 0.0
O178 O 0.02684 0.03379 0.42626 0.0
O179 O 0.99577 0.05605 0.45622 0.0
O180 O 0.99297 0.02507 0.73552 0.0
O181 O 0.96865 0.03196 0.61696 0.0
O182 O 0.02023 0.068 0.66851 0.0
O183 O 1.01893 0.05726 0.8439 0.0
H184 H 0.98562 0.98067 0.91433 0.0
H185 H 0.97094 0.94108 0.87801 0.0
H186 H 0.03386 0.91096 0.02091 0.0
H187 H 0.04903 0.95104 0.0538 0.0
H188 H 0.06203 0.05567 0.34408 0.0
H189 H 0.08714 0.09112 0.35286 0.0
H190 H 0.02499 0.13416 0.4144 0.0
H191 H 1.00009 0.09904 0.40717 0.0
Sm192 Sm 0.52942 0.03574 0.81543 0.0
Sm193 Sm 0.50951 1.00888 0.60485 0.0
C194 C 0.54977 0.04747 0.99363 0.0
C195 C 0.56987 0.0636 0.01135 0.0
C196 C 0.57888 0.07689 0.92724 0.0
C197 C 0.59961 0.09017 0.93866 0.0
C198 C 0.61195 0.09019 0.03424 0.0
C199 C 0.60228 0.07766 0.1199 0.0
C200 C 0.58138 0.06443 0.10841 0.0
C201 C 0.52552 0.06749 0.64816 0.0
C202 C 0.5672 1.01647 0.63398 0.0
C203 C 0.48878 0.99713 0.42763 0.0
C204 C 0.46827 0.98142 0.41217 0.0
C205 C 0.45916 0.96875 0.49791 0.0
C206 C 0.43793 0.95616 0.48908 0.0
C207 C 0.4252 0.95625 0.39453 0.0
C208 C 0.43498 0.96808 0.30715 0.0
C209 C 0.45637 0.98061 0.31605 0.0
C210 C 0.51361 0.97708 0.77196 0.0
C211 C 0.47168 0.02843 0.78544 0.0
O212 O 0.55516 0.02796 0.94238 0.0
O213 O 0.53018 0.05761 0.96004 0.0
O214 O 0.52063 0.04565 0.64914 0.0
O215 O 0.53274 0.07336 0.74084 0.0
O216 O 0.56367 0.02267 0.73309 0.0
O217 O 0.54947 1.01289 0.56714 0.0
O218 O 0.48393 1.01695 0.47766 0.0
O219 O 0.50822 0.98668 0.46122 0.0
O220 O 0.51833 0.99896 0.77116 0.0
O221 O 0.50647 0.9712 0.67919 0.0
O222 O 0.47529 0.02201 0.68673 0.0
O223 O 0.48935 0.03205 0.85251 0.0
H224 H 0.5704 0.07628 0.85131 0.0
H225 H 0.60643 0.09974 0.87151 0.0
H226 H 0.61153 0.07695 0.19421 0.0
H227 H 0.57476 0.05415 0.17392 0.0
H228 H 0.46794 0.96938 0.57319 0.0
H229 H 0.43103 0.94713 0.5575 0.0
H230 H 0.42544 0.96886 0.23355 0.0
H231 H 0.46304 0.99045 0.24934 0.0
Sm232 Sm 0.51284 0.52965 0.82588 0.0
Sm233 Sm 0.53715 0.51349 0.59856 0.0
C234 C 0.50511 0.55098 0.00519 0.0
C235 C 0.49322 0.57419 0.02273 0.0
C236 C 0.5048 0.59541 0.995 0.0
C237 C 0.49253 0.61695 0.99461 0.0
C238 C 0.46838 0.61795 0.02242 0.0
C239 C 0.45698 0.59695 0.0546 0.0
C240 C 0.46928 0.57525 0.05451 0.0
C241 C 0.47923 0.52612 0.6661 0.0
C242 C 0.52847 0.57039 0.64404 0.0
C243 C 0.54288 0.49124 0.41927 0.0
C244 C 0.5507 0.4664 0.40408 0.0
C245 C 0.54202 0.44865 0.47092 0.0
C246 C 0.55172 0.42591 0.47003 0.0
C247 C 0.56977 0.41971 0.39878 0.0
C248 C 0.5779 0.43736 0.32866 0.0
C249 C 0.56867 0.46058 0.33237 0.0
C250 C 0.57069 0.51768 0.75822 0.0
C251 C 0.52288 0.47291 0.78382 0.0
O252 O 0.52578 0.55172 0.95745 0.0
O253 O 0.49143 0.53373 0.97108 0.0
O254 O 0.50139 0.52312 0.66094 0.0
O255 O 0.47398 0.53109 0.76269 0.0
O256 O 0.52229 0.56522 0.74214 0.0
O257 O 0.53323 0.55387 0.57231 0.0
O258 O 0.52199 0.49397 0.46358 0.0
O259 O 0.55903 0.50566 0.45726 0.0
O260 O 0.54845 0.51996 0.76304 0.0
O261 O 0.5762 0.51315 0.6613 0.0
O262 O 0.5291 0.47822 0.68613 0.0
O263 O 0.51732 0.4893 0.85481 0.0
H264 H 0.52324 0.59541 0.9706 0.0
H265 H 0.50208 0.63291 0.97283 0.0
H266 H 0.43845 0.59722 0.07758 0.0
H267 H 0.45987 0.5592 0.07627 0.0
H268 H 0.52799 0.45239 0.52639 0.0
H269 H 0.5451 0.41341 0.5272 0.0
H270 H 0.59129 0.43338 0.27039 0.0
H271 H 0.57574 0.47401 0.28017 0.0
Sm272 Sm 1.01193 0.50569 0.87527 0.0
Sm273 Sm 0.02498 0.53167 0.67506 0.0
C274 C 0.99175 0.48756 0.0441 0.0
C275 C 0.97034 0.47289 0.0532 0.0
C276 C 0.95947 0.46945 0.1505 0.0
C277 C 0.93751 0.45794 0.15648 0.0
C278 C 0.92607 0.44978 0.065 0.0
C279 C 0.9377 0.45229 0.96822 0.0
C280 C 0.95962 0.46379 0.9624 0.0
C281 C 0.02197 0.47644 0.70735 0.0
C282 C 0.96858 0.5249 0.71442 0.0
C283 C 0.04645 0.53825 0.49599 0.0
C284 C 0.07184 0.54399 0.48891 0.0
C285 C 0.0865 0.52943 0.42754 0.0
C286 C 0.11065 0.52741 0.45093 0.0
C287 C 0.12046 0.54003 0.53564 0.0
C288 C 0.10634 0.55648 0.58984 0.0
C289 C 0.08215 0.55839 0.56691 0.0
C290 C 0.02469 0.56561 0.83265 0.0
C291 C 0.06689 0.51849 0.84613 0.0
O292 O 0.98801 0.5094 0.01275 0.0
O293 O 1.00971 0.4775 0.99654 0.0
O294 O 1.00956 0.49519 0.70431 0.0
O295 O 0.02979 0.47277 0.80142 0.0
O296 O 0.97473 0.51467 0.80419 0.0
O297 O 0.9847 0.53264 0.64726 0.0
O298 O 0.04266 0.517 0.53442 0.0
O299 O 0.03249 0.55456 0.53665 0.0
O300 O 0.02021 0.54376 0.84427 0.0
O301 O 0.0288 0.5702 0.73495 0.0
O302 O 0.06124 0.51978 0.74589 0.0
O303 O 0.05008 0.51693 0.91803 0.0
H304 H 0.9675 0.47645 0.22119 0.0
H305 H 0.9289 0.45666 0.23213 0.0
H306 H 0.9295 0.44606 0.89657 0.0
H307 H 0.96783 0.46632 0.88643 0.0
H308 H 0.07892 0.51795 0.36816 0.0
H309 H 0.12141 0.51505 0.40612 0.0
H310 H 0.11355 0.56651 0.65492 0.0
H311 H 0.07121 0.56951 0.6168 0.0
H312 H 0.20094 0.05473 0.38352 0.0
H313 H 0.06659 1.01254 0.47639 0.0
H314 H 0.15391 0.03264 0.13544 0.0
H315 H 0.10461 0.05426 0.7045 0.0
H316 H 0.10008 1.01641 0.3561 0.0
H317 H 0.16782 0.05092 0.5087 0.0
C318 C 0.18373 0.04891 0.35559 0.0
C319 C 0.18017 0.04412 0.24872 0.0
C320 C 0.10112 0.02486 0.43221 0.0
C321 C 0.14228 0.03969 0.39113 0.0
C322 C 0.08187 0.0228 0.50077 0.0
C323 C 0.08256 0.03347 0.60004 0.0
C324 C 0.12152 0.03738 0.46331 0.0
C325 C 0.10324 0.04591 0.62834 0.0
C326 C 0.16481 0.04691 0.42681 0.0
C327 C 0.15743 0.03678 0.21679 0.0
N328 N 0.12192 0.04748 0.5605 0.0
N329 N 0.13946 0.03475 0.28742 0.0
H330 H 0.47932 0.15694 0.13008 0.0
H331 H 0.54828 0.10951 0.6337 0.0
H332 H 0.5449 0.18778 0.24119 0.0
H333 H 0.49951 0.06496 0.463 0.0
H334 H 0.54478 0.13978 0.49796 0.0
H335 H 0.48385 0.12489 0.25788 0.0
C336 C 0.49477 0.15704 0.18061 0.0
C337 C 0.51183 0.17532 0.17334 0.0
C338 C 0.53492 0.12338 0.48941 0.0
C339 C 0.51674 0.13856 0.32246 0.0
C340 C 0.53687 0.10603 0.56707 0.0
C341 C 0.52417 0.08462 0.55972 0.0
C342 C 0.51978 0.11964 0.40372 0.0
C343 C 0.5097 0.08115 0.47147 0.0
C344 C 0.49725 0.13866 0.25398 0.0
C345 C 0.53104 0.17449 0.24389 0.0
N346 N 0.5077 0.0986 0.39726 0.0
N347 N 0.5329 0.15655 0.31522 0.0
H348 H 0.3962 0.52548 0.0843 0.0
H349 H 0.43186 0.52269 0.69275 0.0
H350 H 0.34645 0.52749 0.34179 0.0
H351 H 0.48479 0.52481 0.44883 0.0
H352 H 0.40082 0.52165 0.56083 0.0
H353 H 0.42896 0.52294 0.21093 0.0
C354 C 0.39204 0.5253 0.16708 0.0
C355 C 0.36824 0.52664 0.20152 0.0
C356 C 0.41916 0.5222 0.53528 0.0
C357 C 0.40592 0.52348 0.34729 0.0
C358 C 0.437 0.52277 0.61096 0.0
C359 C 0.46105 0.52373 0.58207 0.0
C360 C 0.42514 0.52278 0.42855 0.0
C361 C 0.46651 0.52379 0.47461 0.0
C362 C 0.41084 0.52374 0.23937 0.0
C363 C 0.36424 0.52602 0.31025 0.0
N364 N 0.44867 0.52345 0.40157 0.0
N365 N 0.38276 0.52456 0.37846 0.0
H366 H 0.98391 0.38568 0.18427 0.0
H367 H 0.04472 0.4335 0.71146 0.0
H368 H 0.02852 0.34249 0.3831 0.0
H369 H 0.99928 0.47659 0.51618 0.0
H370 H 0.04201 0.40125 0.58344 0.0
H371 H 0.9924 0.42014 0.29489 0.0
C372 C 0.99566 0.38345 0.25079 0.0
C373 C 1.00531 0.36097 0.27473 0.0
C374 C 0.03275 0.41779 0.56795 0.0
C375 C 1.01513 0.4006 0.40249 0.0
C376 C 0.03431 0.43626 0.64111 0.0
C377 C 0.02208 0.45775 0.62494 0.0
C378 C 1.01878 0.4207 0.47757 0.0
C379 C 1.00893 0.4603 0.53207 0.0
C380 C 1.00052 0.4032 0.31395 0.0
C381 C 0.02074 0.35939 0.36105 0.0
N382 N 1.0075 0.44196 0.46235 0.0
N383 N 0.02496 0.37882 0.42221 0.0
H384 H 0.88702 1.01571 0.28231 0.0
H385 H 0.92365 0.02238 0.6753 0.0
H386 H 0.83622 1.00767 0.03166 0.0
H387 H 0.97357 0.02613 0.93037 0.0
H388 H 0.89116 1.01818 0.80243 0.0
H389 H 0.91849 0.02082 0.15335 0.0
C390 C 0.88244 1.01491 0.19999 0.0
C391 C 0.85883 1.01094 0.16828 0.0
C392 C 0.90923 1.01981 0.83068 0.0
C393 C 0.89512 1.01712 0.01882 0.0
C394 C 0.92779 0.0222 0.75815 0.0
C395 C 0.95142 0.02426 0.79239 0.0
C396 C 0.91431 1.01966 0.93852 0.0
C397 C 0.95573 0.02409 0.90052 0.0
C398 C 0.90049 1.01795 0.12616 0.0
C399 C 0.85407 1.01076 0.06011 0.0
N400 N 0.93741 0.02184 0.96954 0.0
N401 N 0.87204 1.01368 0.98939 0.0
H402 H 0.49555 0.85246 0.16232 0.0
H403 H 0.53798 0.9809 0.9609 0.0
H404 H 0.55726 0.8878 0.28943 0.0
H405 H 0.49354 0.93361 0.78166 0.0
H406 H 0.54191 0.94967 0.09613 0.0
H407 H 0.49164 0.88435 0.03369 0.0
C408 C 0.50846 0.86672 0.16303 0.0
C409 C 0.52679 0.86716 0.23789 0.0
C410 C 0.53126 0.94624 0.02714 0.0
C411 C 0.52192 0.90442 0.09122 0.0
C412 C 0.52893 0.96409 0.95045 0.0
C413 C 0.51548 0.95983 0.85981 0.0
C414 C 0.51976 0.92419 0.01348 0.0
C415 C 0.50418 0.93766 0.85 0.0
C416 C 0.50606 0.88511 0.0898 0.0
C417 C 0.54254 0.88668 0.23516 0.0
N418 N 0.50652 0.9208 0.92556 0.0
N419 N 0.53969 0.90449 0.16369 0.0
H420 H 0.64744 0.52311 0.35063 0.0
H421 H 0.61844 0.52128 0.7363 0.0
H422 H 0.7003 0.5347 0.11112 0.0
H423 H 0.56385 0.52049 0.97314 0.0
H424 H 0.6486 0.52445 0.87287 0.0
H425 H 0.61699 0.52016 0.2151 0.0
C426 C 0.65273 0.52516 0.2696 0.0
C427 C 0.67666 0.52946 0.24306 0.0
C428 C 0.63006 0.52371 0.89543 0.0
C429 C 0.64152 0.5257 0.08623 0.0
C430 C 0.61276 0.52191 0.81733 0.0
C431 C 0.58851 0.52079 0.84317 0.0
C432 C 0.62324 0.52418 0.00116 0.0
C433 C 0.58229 0.52158 0.94961 0.0
C434 C 0.63523 0.52337 0.19207 0.0
C435 C 0.68225 0.53125 0.13601 0.0
N436 N 0.59955 0.52313 0.02471 0.0
N437 N 0.66486 0.52943 0.06192 0.0
H438 H 0.99471 0.65111 0.38549 0.0
H439 H 0.03821 0.61176 0.81436 0.0
H440 H 0.03534 0.69654 0.18023 0.0
H441 H 1.0098 0.56203 0.03858 0.0
H442 H 0.03612 0.64316 0.94612 0.0
H443 H 0.9991 0.61866 0.25977 0.0
C444 C 1.00478 0.6543 0.31465 0.0
C445 C 1.01472 0.67683 0.2944 0.0
C446 C 0.03041 0.6254 0.96703 0.0
C447 C 1.01935 0.6395 0.14806 0.0
C448 C 0.03156 0.60742 0.89165 0.0
C449 C 0.02411 0.58421 0.91535 0.0
C450 C 0.02153 0.62033 0.06733 0.0
C451 C 1.01573 0.57967 0.01696 0.0
C452 C 1.00713 0.6357 0.24241 0.0
C453 C 0.02704 0.67976 0.19938 0.0
N454 N 1.01453 0.59759 0.08904 0.0
N455 N 0.02892 0.6614 0.13001 0.0
H456 H 0.05099 0.25318 0.37953 0.0
H457 H 0.09445 0.13032 0.26094 0.0
H458 H 0.10206 0.23772 0.13745 0.0
H459 H 0.0557 0.14933 0.53997 0.0
H460 H 0.11043 0.17062 0.25346 0.0
H461 H 0.06669 0.2204 0.482 0.0
C462 C 0.06636 0.24367 0.34997 0.0
C463 C 0.07428 0.24717 0.24698 0.0
C464 C 0.09897 0.16587 0.31828 0.0
C465 C 0.09138 0.20875 0.36098 0.0
C466 C 0.08984 0.1428 0.3224 0.0
C467 C 0.07291 0.13688 0.39852 0.0
C468 C 0.09067 0.18314 0.38947 0.0
C469 C 0.06789 0.15358 0.47723 0.0
C470 C 0.07517 0.22458 0.40813 0.0
C471 C 0.09467 0.23471 0.21462 0.0
N472 N 0.07619 0.17614 0.46913 0.0
N473 N 0.1018 0.2152 0.26899 0.0
H474 H 0.29813 0.94999 0.09814 0.0
H475 H 0.39061 0.96034 0.54453 0.0
H476 H 0.28966 0.99107 0.38009 0.0
H477 H 0.40316 0.93148 0.23605 0.0
H478 H 0.34814 0.95442 0.52021 0.0
H479 H 0.32798 0.92552 0.18584 0.0
C480 C 0.30151 0.9529 0.18072 0.0
C481 C 0.29215 0.97299 0.23129 0.0
C482 C 0.36021 0.94872 0.45898 0.0
C483 C 0.32687 0.94597 0.33014 0.0
C484 C 0.38456 0.95204 0.47282 0.0
C485 C 0.40047 0.94707 0.39073 0.0
C486 C 0.35167 0.94074 0.3619 0.0
C487 C 0.39145 0.93635 0.29989 0.0
C488 C 0.31886 0.93917 0.23035 0.0
C489 C 0.29696 0.97601 0.33799 0.0
N490 N 0.3676 0.93404 0.28693 0.0
N491 N 0.31474 0.96323 0.38308 0.0
H492 H 0.55823 0.27611 0.32016 0.0
H493 H 0.61399 0.40309 0.33273 0.0
H494 H 0.60564 0.30312 0.08411 0.0
H495 H 0.54689 0.37835 0.45772 0.0
H496 H 0.62566 0.36157 0.30484 0.0
H497 H 0.57297 0.30603 0.44182 0.0
C498 C 0.57282 0.28738 0.29577 0.0
C499 C 0.57979 0.2882 0.19055 0.0
C500 C 0.60876 0.36549 0.34171 0.0
C501 C 0.59584 0.32288 0.32685 0.0
C502 C 0.60178 0.38921 0.35576 0.0
C503 C 0.57903 0.39472 0.39533 0.0
C504 C 0.5931 0.34715 0.36938 0.0
C505 C 0.56463 0.37562 0.42772 0.0
C506 C 0.58101 0.30473 0.36491 0.0
C507 C 0.59911 0.30277 0.16388 0.0
N508 N 0.57183 0.35289 0.41306 0.0
N509 N 0.60574 0.32046 0.23013 0.0
H510 H 0.23919 0.47491 0.39495 0.0
H511 H 0.15592 0.57166 0.58373 0.0
H512 H 0.25659 0.54934 0.40967 0.0
H513 H 0.14049 0.49666 0.57044 0.0
H514 H 0.19821 0.56222 0.60155 0.0
H515 H 0.21225 0.48011 0.54279 0.0
C516 C 0.23818 0.49212 0.43303 0.0
C517 C 0.24928 0.51193 0.38849 0.0
C518 C 0.18554 0.54777 0.59756 0.0
C519 C 0.21741 0.51843 0.55143 0.0
C520 C 0.16143 0.55319 0.58684 0.0
C521 C 0.14502 0.5349 0.56976 0.0
C522 C 0.19311 0.52395 0.58913 0.0
C523 C 0.15287 0.51129 0.57766 0.0
C524 C 0.22261 0.49521 0.51681 0.0
C525 C 0.24773 0.53378 0.44069 0.0
N526 N 0.17643 0.50648 0.58428 0.0
N527 N 0.23121 0.53673 0.51709 0.0
H528 H 1.00919 0.78408 0.06454 0.0
H529 H 0.95557 0.90612 0.9547 0.0
H530 H 0.93883 0.80687 0.15157 0.0
H531 H 0.02694 0.88419 0.87558 0.0
H532 H 0.94313 0.86477 0.94992 0.0
H533 H 1.00858 0.81215 0.91891 0.0
C534 C 0.99305 0.79405 0.04924 0.0
C535 C 0.97442 0.79403 0.12201 0.0
C536 C 0.96142 0.86897 0.93123 0.0
C537 C 0.97401 0.82684 0.95997 0.0
C538 C 0.96858 0.89268 0.93399 0.0
C539 C 0.99263 0.89854 0.92054 0.0
C540 C 0.97855 0.85098 0.91786 0.0
C541 C 1.00848 0.88033 0.8922 0.0
C542 C 0.99279 0.81035 0.96683 0.0
C543 C 0.95383 0.80702 0.09841 0.0
N544 N 1.00131 0.85729 0.89461 0.0
N545 N 0.95449 0.82364 0.02151 0.0
H546 H 0.73775 0.1017 0.33993 0.0
H547 H 0.64729 0.08834 0.88677 0.0
H548 H 0.74938 0.06247 0.05506 0.0
H549 H 0.63224 0.11515 0.19668 0.0
H550 H 0.68932 0.09629 0.9146 0.0
H551 H 0.70682 0.12483 0.2525 0.0
C552 C 0.73479 0.09899 0.25692 0.0
C553 C 0.74539 0.07964 0.20531 0.0
C554 C 0.67677 0.10108 0.97545 0.0
C555 C 0.70951 0.10513 0.10659 0.0
C556 C 0.65267 0.0966 0.95961 0.0
C557 C 0.63624 0.10041 0.0409 0.0
C558 C 0.68455 0.1091 0.07371 0.0
C559 C 0.6444 0.11115 0.1333 0.0
C560 C 0.71684 0.11192 0.2074 0.0
C561 C 0.74111 0.0769 0.098 0.0
N562 N 0.66805 0.11462 0.14812 0.0
N563 N 0.72277 0.08885 0.05292 0.0
H564 H 0.44023 0.74029 0.32948 0.0
H565 H 0.47057 0.65354 0.87594 0.0
H566 H 0.48783 0.75489 0.07387 0.0
H567 H 0.43792 0.63564 0.17123 0.0
H568 H 0.45965 0.69518 0.90373 0.0
H569 H 0.42124 0.70939 0.22464 0.0
C570 C 0.4457 0.73796 0.24874 0.0
C571 C 0.46606 0.74948 0.211 0.0
C572 C 0.45423 0.68203 0.96092 0.0
C573 C 0.44529 0.71365 0.09296 0.0
C574 C 0.46062 0.6583 0.94558 0.0
C575 C 0.45601 0.6413 0.02359 0.0
C576 C 0.44338 0.6888 0.05534 0.0
C577 C 0.4423 0.64823 0.11012 0.0
C578 C 0.4351 0.72007 0.18937 0.0
C579 C 0.47246 0.74595 0.10622 0.0
N580 N 0.437 0.67158 0.12501 0.0
N581 N 0.46271 0.72765 0.05181 0.0
H582 H 0.80122 0.43958 0.38571 0.0
H583 H 0.88986 0.46041 0.92917 0.0
H584 H 0.78895 0.48578 0.12232 0.0
H585 H 0.90482 0.42098 0.21178 0.0
H586 H 0.8475 0.45553 0.96119 0.0
H587 H 0.83115 0.41809 0.2843 0.0
C588 C 0.80393 0.44433 0.30433 0.0
C589 C 0.79318 0.4648 0.26283 0.0
C590 C 0.86002 0.44739 0.01484 0.0
C591 C 0.82804 0.44118 0.14843 0.0
C592 C 0.8843 0.45007 0.99639 0.0
C593 C 0.90097 0.44169 0.0697 0.0
C594 C 0.85233 0.43657 0.10795 0.0
C595 C 0.89258 0.42846 0.15518 0.0
C596 C 0.82127 0.4323 0.24684 0.0
C597 C 0.79721 0.47028 0.15738 0.0
N598 N 0.86884 0.42678 0.17324 0.0
N599 N 0.81498 0.45907 0.1047 0.0
H600 H 0.99498 0.20969 0.07814 0.0
H601 H 0.03296 0.11218 0.651 0.0
H602 H 0.0499 0.22261 0.85045 0.0
H603 H 1.00496 0.09391 0.95512 0.0
H604 H 0.0321 0.15434 0.70143 0.0
H605 H 0.99047 0.16911 0.00912 0.0
C606 C 1.00542 0.20427 0.01086 0.0
C607 C 0.0225 0.21967 0.96851 0.0
C608 C 0.02614 0.14106 0.75683 0.0
C609 C 1.01789 0.17311 0.89085 0.0
C610 C 0.02658 0.11698 0.72825 0.0
C611 C 1.01918 0.09934 0.79921 0.0
C612 C 1.0178 0.14772 0.85632 0.0
C613 C 1.01106 0.10678 0.89817 0.0
C614 C 1.00313 0.181 0.9727 0.0
C615 C 0.0362 0.21144 0.88385 0.0
N616 N 1.0105 0.13035 0.92353 0.0
N617 N 0.03364 0.18874 0.84789 0.0
H618 H 0.34439 0.0451 0.16343 0.0
H619 H 0.4304 0.02175 0.67364 0.0
H620 H 0.31904 0.02471 0.8584 0.0
H621 H 0.45543 0.04224 0.98027 0.0
H622 H 0.3895 0.02619 0.73495 0.0
H623 H 0.38467 0.04875 0.09222 0.0
C624 C 0.34723 0.04224 0.08043 0.0
C625 C 0.32831 0.03509 0.01615 0.0
C626 C 0.40392 0.02985 0.78873 0.0
C627 C 0.3746 0.03818 0.93458 0.0
C628 C 0.42738 0.02727 0.75384 0.0
C629 C 0.44661 0.03153 0.82183 0.0
C630 C 0.39942 0.03674 0.89269 0.0
C631 C 0.44133 0.03866 0.92485 0.0
C632 C 0.37028 0.04399 0.04001 0.0
C633 C 0.33305 0.03079 0.90993 0.0
N634 N 0.41832 0.04094 0.95705 0.0
N635 N 0.35575 0.03216 0.87269 0.0
H636 H 0.50072 0.33411 0.07762 0.0
H637 H 0.54727 0.43646 0.69251 0.0
H638 H 0.5458 0.3214 0.81108 0.0
H639 H 0.49794 0.45049 0.94319 0.0
H640 H 0.5451 0.39406 0.73088 0.0
H641 H 0.49663 0.37595 0.02393 0.0
C642 C 0.50896 0.33994 0.00539 0.0
C643 C 0.52307 0.32411 0.94699 0.0
C644 C 0.53457 0.40628 0.77735 0.0
C645 C 0.51947 0.37225 0.88763 0.0
C646 C 0.53568 0.43058 0.75481 0.0
C647 C 0.52239 0.44715 0.8129 0.0
C648 C 0.52021 0.39817 0.85995 0.0
C649 C 0.50847 0.43843 0.89593 0.0
C650 C 0.50695 0.36391 0.97564 0.0
C651 C 0.53424 0.33284 0.85665 0.0
N652 N 0.50773 0.41458 0.91691 0.0
N653 N 0.53236 0.35627 0.83031 0.0
H654 H 0.2213 0.4975 0.91122 0.0
H655 H 0.08586 0.52956 0.03796 0.0
H656 H 0.19929 0.54479 0.15896 0.0
H657 H 0.10655 0.50876 0.72583 0.0
H658 H 0.12783 0.53132 0.08725 0.0
H659 H 0.18031 0.49887 0.84042 0.0
C660 C 0.20806 0.50848 0.94952 0.0
C661 C 0.21376 0.52079 0.04212 0.0
C662 C 0.12326 0.52642 0.00774 0.0
C663 C 0.16679 0.52181 0.96392 0.0
C664 C 0.09921 0.52527 0.97974 0.0
C665 C 0.09253 0.51905 0.87747 0.0
C666 C 0.14102 0.52094 0.93376 0.0
C667 C 0.11083 0.51379 0.80544 0.0
C668 C 0.18462 0.5091 0.90971 0.0
C669 C 0.19572 0.53466 0.08853 0.0
N670 N 0.13418 0.51467 0.83502 0.0
N671 N 0.17319 0.53447 0.05024 0.0
H672 H 0.02835 0.82412 0.52292 0.0
H673 H 0.98261 0.95675 0.47979 0.0
H674 H 0.95727 0.8418 0.42253 0.0
H675 H 0.02997 0.93759 0.73195 0.0
H676 H 0.97688 0.91444 0.44184 0.0
H677 H 0.03256 0.86495 0.59214 0.0
C678 C 1.01348 0.83632 0.51739 0.0
C679 C 0.99257 0.82954 0.46504 0.0
C680 C 0.98849 0.91949 0.50572 0.0
C681 C 0.9976 0.87637 0.54044 0.0
C682 C 0.99188 0.94368 0.52697 0.0
C683 C 1.00682 0.95084 0.60907 0.0
C684 C 1.00051 0.90217 0.56517 0.0
C685 C 1.01825 0.93293 0.66795 0.0
C686 C 1.01597 0.85968 0.55606 0.0
C687 C 0.97394 0.8463 0.45991 0.0
N688 N 1.01509 0.90945 0.64418 0.0
N689 N 0.97707 0.86892 0.49482 0.0
H690 H 0.72117 0.02245 0.57237 0.0
H691 H 0.583 1.00441 0.43661 0.0
H692 H 0.69467 1.00758 0.26302 0.0
H693 H 0.60874 0.02218 0.74538 0.0
H694 H 0.62411 1.00115 0.37608 0.0
H695 H 0.68082 1.01702 0.64248 0.0
C696 C 0.707 1.01715 0.51993 0.0
C697 C 0.71129 1.01503 0.41214 0.0
C698 C 0.62079 1.00563 0.45727 0.0
C699 C 0.66492 1.00972 0.49061 0.0
C700 C 0.59724 1.00755 0.49199 0.0
C701 C 0.59221 1.01371 0.59638 0.0
C702 C 0.63964 1.0099 0.52713 0.0
C703 C 0.6116 1.01747 0.66413 0.0
C704 C 0.68389 1.0144 0.55956 0.0
C705 C 0.69215 1.00895 0.34689 0.0
N706 N 0.63436 1.01561 0.62831 0.0
N707 N 0.66983 1.00673 0.38685 0.0
H708 H 0.51108 0.72449 0.60933 0.0
H709 H 0.54288 0.58957 0.45591 0.0
H710 H 0.53904 0.70319 0.30975 0.0
H711 H 0.51749 0.6101 0.76203 0.0
H712 H 0.54437 0.63152 0.40644 0.0
H713 H 0.51706 0.68364 0.67389 0.0
C714 C 0.51932 0.71142 0.55852 0.0
C715 C 0.52501 0.71732 0.45473 0.0
C716 C 0.53859 0.6269 0.4847 0.0
C717 C 0.53101 0.6703 0.5262 0.0
C718 C 0.53766 0.60284 0.51304 0.0
C719 C 0.52996 0.59606 0.6134 0.0
C720 C 0.53168 0.64456 0.55678 0.0
C721 C 0.52352 0.61431 0.68373 0.0
C722 C 0.52241 0.688 0.59474 0.0
C723 C 0.53483 0.69947 0.39088 0.0
N724 N 0.52441 0.6376 0.65398 0.0
N725 N 0.5373 0.67682 0.42717 0.0
H726 H 0.83491 0.54625 0.38409 0.0
H727 H 0.92996 0.50716 0.8216 0.0
H728 H 0.81784 0.50149 0.64671 0.0
H729 H 0.94809 0.54689 0.54372 0.0
H730 H 0.88805 0.50905 0.77089 0.0
H731 H 0.8751 0.55167 0.45515 0.0
C732 C 0.83938 0.53834 0.45894 0.0
C733 C 0.82285 0.5239 0.51103 0.0
C734 C 0.90116 0.5175 0.72129 0.0
C735 C 0.86919 0.52911 0.5909 0.0
C736 C 0.92519 0.51643 0.75023 0.0
C737 C 0.94279 0.5268 0.68678 0.0
C738 C 0.89447 0.52908 0.62812 0.0
C739 C 0.9353 0.53852 0.59511 0.0
C740 C 0.86244 0.54111 0.49876 0.0
C741 C 0.82987 0.51324 0.60558 0.0
N742 N 0.91182 0.53927 0.56855 0.0
N743 N 0.8525 0.5159 0.64202 0.0
loop_
_geom_bond_atom_site_label_1
_geom_bond_atom_site_label_2
_geom_bond_distance
_geom_bond_site_symmetry_2
_ccdc_geom_bond_type
H0 C1 0.949 . S
C1 H0 0.949 . S
C1 C2 1.395 . S
C1 C3 1.391 . S
C2 C1 1.395 . S
C2 C5 1.390 . S
C3 C1 1.391 . S
C3 C7 1.387 . S
C3 C8 1.491 . S
H4 C5 0.950 . S
C5 C2 1.390 . S
C5 H4 0.950 . S
C5 C6 1.378 . S
C6 C5 1.378 . S
C6 C7 1.409 . S
C7 C3 1.387 . S
C7 C6 1.409 . S
C7 H9 0.951 . S
C8 C3 1.491 . S
C8 C10 1.382 . S
C8 C12 1.404 . S
H9 C7 0.951 . S
C10 C8 1.382 . S
C10 C11 1.390 . S
C10 H15 0.949 . S
C11 C10 1.390 . S
C11 C16 1.399 . S
C12 C8 1.404 . S
C12 H13 0.950 . S
C12 C14 1.375 . S
H13 C12 0.950 . S
C14 C12 1.375 . S
C14 C16 1.382 . S
C14 H18 0.950 . S
H15 C10 0.949 . S
C16 C11 1.399 . S
C16 C14 1.382 . S
C16 H17 0.952 . S
H17 C16 0.952 . S
H18 C14 0.950 . S
H19 C20 0.949 . S
C20 H19 0.949 . S
C20 C21 1.395 . S
C20 C22 1.391 . S
C21 C20 1.395 . S
C21 C24 1.390 1_655 S
C22 C20 1.391 . S
C22 C26 1.387 . S
C22 C27 1.491 . S
H23 C24 0.950 . S
C24 C21 1.390 1_455 S
C24 H23 0.950 . S
C24 C25 1.377 1_455 S
C25 C24 1.377 1_655 S
C25 C26 1.413 . S
C26 C22 1.387 . S
C26 C25 1.413 . S
C26 H28 0.951 . S
C27 C22 1.491 . S
C27 C29 1.382 . S
C27 C31 1.404 . S
H28 C26 0.951 . S
C29 C27 1.382 . S
C29 C30 1.390 . S
C29 H34 0.949 1_655 S
C30 C29 1.390 . S
C30 C35 1.399 . S
C31 C27 1.404 . S
C31 H32 0.950 . S
C31 C33 1.375 . S
H32 C31 0.950 . S
C33 C31 1.375 . S
C33 C35 1.382 . S
C33 H37 0.950 . S
H34 C29 0.949 1_455 S
C35 C30 1.399 . S
C35 C33 1.382 . S
C35 H36 0.952 . S
H36 C35 0.952 . S
H37 C33 0.950 . S
H38 C39 0.949 . S
C39 H38 0.949 . S
C39 C40 1.395 . S
C39 C41 1.391 . S
C40 C39 1.395 . S
C40 C43 1.390 1_565 S
C41 C39 1.391 . S
C41 C45 1.387 . S
C41 C46 1.491 . S
H42 C43 0.950 . S
C43 C40 1.390 1_545 S
C43 H42 0.950 . S
C43 C44 1.377 1_545 S
C44 C43 1.377 1_565 S
C44 C45 1.413 . S
C45 C41 1.387 . S
C45 C44 1.413 . S
C45 H47 0.951 . S
C46 C41 1.491 . S
C46 C48 1.382 . S
C46 C50 1.404 . S
H47 C45 0.951 . S
C48 C46 1.382 . S
C48 C49 1.390 . S
C48 H53 0.949 1_565 S
C49 C48 1.390 . S
C49 C54 1.399 . S
C50 C46 1.404 . S
C50 H51 0.950 . S
C50 C52 1.375 . S
H51 C50 0.950 . S
C52 C50 1.375 . S
C52 C54 1.382 . S
C52 H56 0.950 . S
H53 C48 0.949 1_545 S
C54 C49 1.399 . S
C54 C52 1.382 . S
C54 H55 0.952 . S
H55 C54 0.952 . S
H56 C52 0.950 . S
H57 C58 0.949 . S
C58 H57 0.949 . S
C58 C59 1.395 . S
C58 C60 1.391 . S
C59 C58 1.395 . S
C59 C62 1.390 . S
C60 C58 1.391 . S
C60 C64 1.387 . S
C60 C65 1.491 . S
H61 C62 0.950 . S
C62 C59 1.390 . S
C62 H61 0.950 . S
C62 C63 1.378 . S
C63 C62 1.378 . S
C63 C64 1.409 . S
C64 C60 1.387 . S
C64 C63 1.409 . S
C64 H66 0.951 . S
C65 C60 1.491 . S
C65 C67 1.382 . S
C65 C69 1.404 . S
H66 C64 0.951 . S
C67 C65 1.382 . S
C67 C68 1.390 . S
C67 H72 0.949 . S
C68 C67 1.390 . S
C68 C73 1.399 . S
C69 C65 1.404 . S
C69 H70 0.950 . S
C69 C71 1.375 . S
H70 C69 0.950 . S
C71 C69 1.375 . S
C71 C73 1.382 . S
C71 H75 0.950 . S
H72 C67 0.949 . S
C73 C68 1.399 . S
C73 C71 1.382 . S
C73 H74 0.952 . S
H74 C73 0.952 . S
H75 C71 0.950 . S
H76 C77 0.949 . S
C77 H76 0.949 . S
C77 C78 1.395 . S
C77 C79 1.391 1_554 S
C78 C77 1.395 . S
C78 C81 1.390 1_554 S
C79 C77 1.391 1_556 S
C79 C83 1.387 . S
C79 C84 1.491 . S
H80 C81 0.950 . S
C81 C78 1.390 1_556 S
C81 H80 0.950 . S
C81 C82 1.378 . S
C82 C81 1.378 . S
C82 C83 1.409 . S
C83 C79 1.387 . S
C83 C82 1.409 . S
C83 H85 0.951 . S
C84 C79 1.491 . S
C84 C86 1.382 1_556 S
C84 C88 1.404 . S
H85 C83 0.951 . S
C86 C84 1.382 1_554 S
C86 C87 1.390 . S
C86 H91 0.949 . S
C87 C86 1.390 . S
C87 C92 1.399 1_554 S
C88 C84 1.404 . S
C88 H89 0.950 . S
C88 C90 1.375 . S
H89 C88 0.950 . S
C90 C88 1.375 . S
C90 C92 1.382 . S
C90 H94 0.950 . S
H91 C86 0.949 . S
C92 C87 1.399 1_556 S
C92 C90 1.382 . S
C92 H93 0.952 . S
H93 C92 0.952 . S
H94 C90 0.950 . S
H95 C96 0.949 . S
C96 H95 0.949 . S
C96 C97 1.395 1_655 S
C96 C98 1.391 1_554 S
C97 C96 1.395 1_455 S
C97 C100 1.390 1_554 S
C98 C96 1.391 1_556 S
C98 C102 1.387 . S
C98 C103 1.491 . S
H99 C100 0.950 . S
C100 C97 1.390 1_556 S
C100 H99 0.950 . S
C100 C101 1.377 1_455 S
C101 C100 1.377 1_655 S
C101 C102 1.411 . S
C102 C98 1.387 . S
C102 C101 1.411 . S
C102 H104 0.951 . S
C103 C98 1.491 . S
C103 C105 1.402 1_556 S
C103 C107 1.404 . S
H104 C102 0.951 . S
C105 C103 1.402 1_554 S
C105 C106 1.400 . S
C105 H110 0.920 1_655 S
C106 C105 1.400 . S
C106 C111 1.399 1_554 S
C107 C103 1.404 . S
C107 H108 0.950 . S
C107 C109 1.375 . S
H108 C107 0.950 . S
C109 C107 1.375 . S
C109 C111 1.382 . S
C109 H113 0.950 . S
H110 C105 0.920 1_455 S
C111 C106 1.399 1_556 S
C111 C109 1.382 . S
C111 H112 0.952 . S
H112 C111 0.952 . S
H113 C109 0.950 . S
H114 C115 0.949 . S
C115 H114 0.949 . S
C115 C116 1.395 1_565 S
C115 C117 1.391 1_554 S
C116 C115 1.395 1_545 S
C116 C119 1.390 1_554 S
C117 C115 1.391 1_556 S
C117 C121 1.387 . S
C117 C122 1.491 . S
H118 C119 0.950 . S
C119 C116 1.390 1_556 S
C119 H118 0.950 . S
C119 C120 1.377 1_545 S
C120 C119 1.377 1_565 S
C120 C121 1.411 . S
C121 C117 1.387 . S
C121 C120 1.411 . S
C121 H123 0.951 . S
C122 C117 1.491 . S
C122 C124 1.402 1_556 S
C122 C126 1.404 . S
H123 C121 0.951 . S
C124 C122 1.402 1_554 S
C124 C125 1.400 . S
C124 H129 0.920 1_565 S
C125 C124 1.400 . S
C125 C130 1.399 1_554 S
C126 C122 1.404 . S
C126 H127 0.950 . S
C126 C128 1.375 . S
H127 C126 0.950 . S
C128 C126 1.375 . S
C128 C130 1.382 . S
C128 H132 0.950 . S
H129 C124 0.920 1_545 S
C130 C125 1.399 1_556 S
C130 C128 1.382 . S
C130 H131 0.952 . S
H131 C130 0.952 . S
H132 C128 0.950 . S
H133 C134 0.949 . S
C134 H133 0.949 . S
C134 C135 1.395 . S
C134 C136 1.391 1_554 S
C135 C134 1.395 . S
C135 C138 1.390 1_554 S
C136 C134 1.391 1_556 S
C136 C140 1.387 . S
C136 C141 1.491 . S
H137 C138 0.950 . S
C138 C135 1.390 1_556 S
C138 H137 0.950 . S
C138 C139 1.378 . S
C139 C138 1.378 . S
C139 C140 1.409 . S
C140 C136 1.387 . S
C140 C139 1.409 . S
C140 H142 0.951 . S
C141 C136 1.491 . S
C141 C143 1.382 1_556 S
C141 C145 1.404 . S
H142 C140 0.951 . S
C143 C141 1.382 1_554 S
C143 C144 1.390 . S
C143 H148 0.949 . S
C144 C143 1.390 . S
C144 C149 1.399 1_554 S
C145 C141 1.404 . S
C145 H146 0.950 . S
C145 C147 1.375 . S
H146 C145 0.950 . S
C147 C145 1.375 . S
C147 C149 1.382 . S
C147 H151 0.950 . S
H148 C143 0.949 . S
C149 C144 1.399 1_556 S
C149 C147 1.382 . S
C149 H150 0.952 . S
H150 C149 0.952 . S
H151 C147 0.950 . S
Sm152 C154 2.846 . S
Sm152 O172 2.534 1_455 S
Sm152 O173 2.450 . S
Sm152 O174 2.681 1_565 S
Sm152 O175 2.464 . S
Sm152 O176 2.396 . S
Sm152 O180 2.386 1_455 S
Sm152 O183 2.408 1_565 S
Sm153 C163 2.846 . S
Sm153 O174 2.386 1_655 S
Sm153 O177 2.408 1_545 S
Sm153 O178 2.530 1_655 S
Sm153 O179 2.450 . S
Sm153 O180 2.681 1_545 S
Sm153 O181 2.464 . S
Sm153 O182 2.396 . S
C154 Sm152 2.846 . S
C154 C155 1.506 1_556 S
C154 O172 1.242 1_455 S
C154 O173 1.242 . S
C155 C154 1.506 1_554 S
C155 C156 1.358 . S
C155 C160 1.382 . S
C156 C155 1.358 . S
C156 C157 1.385 . S
C156 H184 0.930 1_455 S
C157 C156 1.385 . S
C157 C158 1.395 . S
C157 H185 0.929 1_455 S
C158 C157 1.395 . S
C158 C159 1.335 . S
C159 C158 1.335 . S
C159 C160 1.398 . S
C159 H186 0.930 . S
C160 C155 1.382 . S
C160 C159 1.398 . S
C160 H187 0.929 . S
C161 O174 1.271 1_565 S
C161 O175 1.251 . S
C162 O176 1.252 1_655 S
C162 O177 1.272 . S
C163 Sm153 2.846 . S
C163 C164 1.506 . S
C163 O178 1.231 1_655 S
C163 O179 1.242 . S
C164 C163 1.506 . S
C164 C165 1.358 . S
C164 C169 1.382 . S
C165 C164 1.358 . S
C165 C166 1.385 . S
C165 H188 0.930 1_655 S
C166 C165 1.385 . S
C166 C167 1.395 . S
C166 H189 0.929 1_655 S
C167 C166 1.395 . S
C167 C168 1.335 . S
C168 C167 1.335 . S
C168 C169 1.398 . S
C168 H190 0.930 . S
C169 C164 1.382 . S
C169 C168 1.398 . S
C169 H191 0.929 . S
C170 O180 1.271 1_545 S
C170 O181 1.251 . S
C171 O182 1.252 1_455 S
C171 O183 1.272 . S
O172 Sm152 2.534 1_655 S
O172 C154 1.242 1_655 S
O173 Sm152 2.450 . S
O173 C154 1.242 . S
O174 Sm152 2.681 1_545 S
O174 Sm153 2.386 1_455 S
O174 C161 1.271 1_545 S
O175 Sm152 2.464 . S
O175 C161 1.251 . S
O176 Sm152 2.396 . S
O176 C162 1.252 1_455 S
O177 Sm153 2.408 1_565 S
O177 C162 1.272 . S
O178 Sm153 2.530 1_455 S
O178 C163 1.231 1_455 S
O179 Sm153 2.450 . S
O179 C163 1.242 . S
O180 Sm152 2.386 1_655 S
O180 Sm153 2.681 1_565 S
O180 C170 1.271 1_565 S
O181 Sm153 2.464 . S
O181 C170 1.251 . S
O182 Sm153 2.396 . S
O182 C171 1.252 1_655 S
O183 Sm152 2.408 1_545 S
O183 C171 1.272 . S
H184 C156 0.930 1_655 S
H185 C157 0.929 1_655 S
H186 C159 0.930 . S
H187 C160 0.929 . S
H188 C165 0.930 1_455 S
H189 C166 0.929 1_455 S
H190 C168 0.930 . S
H191 C169 0.929 . S
Sm192 C194 2.846 . S
Sm192 O212 2.533 1_545 S
Sm192 O213 2.450 . S
Sm192 O214 2.681 . S
Sm192 O215 2.464 . S
Sm192 O216 2.396 . S
Sm192 O220 2.386 1_545 S
Sm192 O223 2.408 . S
Sm193 C203 2.846 . S
Sm193 O214 2.386 1_565 S
Sm193 O217 2.408 . S
Sm193 O218 2.529 1_565 S
Sm193 O219 2.450 . S
Sm193 O220 2.681 . S
Sm193 O221 2.464 . S
Sm193 O222 2.396 . S
C194 Sm192 2.846 . S
C194 C195 1.506 1_556 S
C194 O212 1.239 1_545 S
C194 O213 1.242 . S
C195 C194 1.506 1_554 S
C195 C196 1.358 . S
C195 C200 1.382 . S
C196 C195 1.358 . S
C196 C197 1.385 . S
C196 H224 0.930 1_545 S
C197 C196 1.385 . S
C197 C198 1.395 . S
C197 H225 0.929 1_545 S
C198 C197 1.395 . S
C198 C199 1.335 . S
C199 C198 1.335 . S
C199 C200 1.398 . S
C199 H226 0.930 . S
C200 C195 1.382 . S
C200 C199 1.398 . S
C200 H227 0.929 . S
C201 O214 1.271 . S
C201 O215 1.251 . S
C202 O216 1.252 1_565 S
C202 O217 1.272 . S
C203 Sm193 2.846 . S
C203 C204 1.506 . S
C203 O218 1.228 1_565 S
C203 O219 1.242 . S
C204 C203 1.506 . S
C204 C205 1.358 . S
C204 C209 1.382 . S
C205 C204 1.358 . S
C205 C206 1.385 . S
C205 H228 0.930 1_565 S
C206 C205 1.385 . S
C206 C207 1.395 . S
C206 H229 0.929 1_565 S
C207 C206 1.395 . S
C207 C208 1.335 . S
C208 C207 1.335 . S
C208 C209 1.398 . S
C208 H230 0.930 . S
C209 C204 1.382 . S
C209 C208 1.398 . S
C209 H231 0.929 . S
C210 O220 1.271 . S
C210 O221 1.251 . S
C211 O222 1.252 1_545 S
C211 O223 1.272 . S
O212 Sm192 2.533 1_565 S
O212 C194 1.239 1_565 S
O213 Sm192 2.450 . S
O213 C194 1.242 . S
O214 Sm192 2.681 . S
O214 Sm193 2.386 1_545 S
O214 C201 1.271 . S
O215 Sm192 2.464 . S
O215 C201 1.251 . S
O216 Sm192 2.396 . S
O216 C202 1.252 1_545 S
O217 Sm193 2.408 . S
O217 C202 1.272 . S
O218 Sm193 2.529 1_545 S
O218 C203 1.228 1_545 S
O219 Sm193 2.450 . S
O219 C203 1.242 . S
O220 Sm192 2.386 1_565 S
O220 Sm193 2.681 . S
O220 C210 1.271 . S
O221 Sm193 2.464 . S
O221 C210 1.251 . S
O222 Sm193 2.396 . S
O222 C211 1.252 1_565 S
O223 Sm192 2.408 . S
O223 C211 1.272 . S
H224 C196 0.930 1_565 S
H225 C197 0.929 1_565 S
H226 C199 0.930 . S
H227 C200 0.929 . S
H228 C205 0.930 1_545 S
H229 C206 0.929 1_545 S
H230 C208 0.930 . S
H231 C209 0.929 . S
Sm232 C234 2.846 . S
Sm232 O252 2.543 . S
Sm232 O253 2.450 . S
Sm232 O254 2.681 . S
Sm232 O255 2.464 . S
Sm232 O256 2.396 . S
Sm232 O260 2.386 . S
Sm232 O263 2.408 . S
Sm233 C243 2.846 . S
Sm233 O254 2.386 . S
Sm233 O257 2.408 . S
Sm233 O258 2.543 . S
Sm233 O259 2.450 . S
Sm233 O260 2.681 . S
Sm233 O261 2.464 . S
Sm233 O262 2.396 . S
C234 Sm232 2.846 . S
C234 C235 1.506 1_556 S
C234 O252 1.261 . S
C234 O253 1.242 . S
C235 C234 1.506 1_554 S
C235 C236 1.358 . S
C235 C240 1.382 . S
C236 C235 1.358 . S
C236 C237 1.385 . S
C236 H264 0.930 . S
C237 C236 1.385 . S
C237 C238 1.395 . S
C237 H265 0.929 . S
C238 C237 1.395 . S
C238 C239 1.335 . S
C239 C238 1.335 . S
C239 C240 1.398 . S
C239 H266 0.930 . S
C240 C235 1.382 . S
C240 C239 1.398 . S
C240 H267 0.929 . S
C241 O254 1.271 . S
C241 O255 1.251 . S
C242 O256 1.252 . S
C242 O257 1.272 . S
C243 Sm233 2.846 . S
C243 C244 1.506 . S
C243 O258 1.261 . S
C243 O259 1.242 . S
C244 C243 1.506 . S
C244 C245 1.358 . S
C244 C249 1.382 . S
C245 C244 1.358 . S
C245 C246 1.385 . S
C245 H268 0.930 . S
C246 C245 1.385 . S
C246 C247 1.395 . S
C246 H269 0.929 . S
C247 C246 1.395 . S
C247 C248 1.335 . S
C248 C247 1.335 . S
C248 C249 1.398 . S
C248 H270 0.930 . S
C249 C244 1.382 . S
C249 C248 1.398 . S
C249 H271 0.929 . S
C250 O260 1.271 . S
C250 O261 1.251 . S
C251 O262 1.252 . S
C251 O263 1.272 . S
O252 Sm232 2.543 . S
O252 C234 1.261 . S
O253 Sm232 2.450 . S
O253 C234 1.242 . S
O254 Sm232 2.681 . S
O254 Sm233 2.386 . S
O254 C241 1.271 . S
O255 Sm232 2.464 . S
O255 C241 1.251 . S
O256 Sm232 2.396 . S
O256 C242 1.252 . S
O257 Sm233 2.408 . S
O257 C242 1.272 . S
O258 Sm233 2.543 . S
O258 C243 1.261 . S
O259 Sm233 2.450 . S
O259 C243 1.242 . S
O260 Sm232 2.386 . S
O260 Sm233 2.681 . S
O260 C250 1.271 . S
O261 Sm233 2.464 . S
O261 C250 1.251 . S
O262 Sm233 2.396 . S
O262 C251 1.252 . S
O263 Sm232 2.408 . S
O263 C251 1.272 . S
H264 C236 0.930 . S
H265 C237 0.929 . S
H266 C239 0.930 . S
H267 C240 0.929 . S
H268 C245 0.930 . S
H269 C246 0.929 . S
H270 C248 0.930 . S
H271 C249 0.929 . S
Sm272 C274 2.846 . S
Sm272 O292 2.543 . S
Sm272 O293 2.450 . S
Sm272 O294 2.681 1_655 S
Sm272 O295 2.464 . S
Sm272 O296 2.396 . S
Sm272 O300 2.386 . S
Sm272 O303 2.408 1_655 S
Sm273 C283 2.846 . S
Sm273 O294 2.386 . S
Sm273 O297 2.408 1_455 S
Sm273 O298 2.543 . S
Sm273 O299 2.450 . S
Sm273 O300 2.681 1_455 S
Sm273 O301 2.464 . S
Sm273 O302 2.396 . S
C274 Sm272 2.846 . S
C274 C275 1.506 1_556 S
C274 O292 1.261 . S
C274 O293 1.242 . S
C275 C274 1.506 1_554 S
C275 C276 1.358 . S
C275 C280 1.382 . S
C276 C275 1.358 . S
C276 C277 1.385 . S
C276 H304 0.930 . S
C277 C276 1.385 . S
C277 C278 1.395 . S
C277 H305 0.929 . S
C278 C277 1.395 . S
C278 C279 1.335 . S
C279 C278 1.335 . S
C279 C280 1.398 . S
C279 H306 0.930 . S
C280 C275 1.382 . S
C280 C279 1.398 . S
C280 H307 0.929 . S
C281 O294 1.258 1_655 S
C281 O295 1.274 . S
C282 O296 1.252 . S
C282 O297 1.272 . S
C283 Sm273 2.846 . S
C283 C284 1.506 . S
C283 O298 1.261 . S
C283 O299 1.242 . S
C284 C283 1.506 . S
C284 C285 1.358 . S
C284 C289 1.382 . S
C285 C284 1.358 . S
C285 C286 1.385 . S
C285 H308 0.930 . S
C286 C285 1.385 . S
C286 C287 1.395 . S
C286 H309 0.929 . S
C287 C286 1.395 . S
C287 C288 1.335 . S
C288 C287 1.335 . S
C288 C289 1.398 . S
C288 H310 0.930 . S
C289 C284 1.382 . S
C289 C288 1.398 . S
C289 H311 0.929 . S
C290 O300 1.271 1_455 S
C290 O301 1.251 . S
C291 O302 1.252 . S
C291 O303 1.272 . S
O292 Sm272 2.543 . S
O292 C274 1.261 . S
O293 Sm272 2.450 . S
O293 C274 1.242 . S
O294 Sm272 2.681 1_455 S
O294 Sm273 2.386 . S
O294 C281 1.258 1_455 S
O295 Sm272 2.464 . S
O295 C281 1.274 . S
O296 Sm272 2.396 . S
O296 C282 1.252 . S
O297 Sm273 2.408 1_655 S
O297 C282 1.272 . S
O298 Sm273 2.543 . S
O298 C283 1.261 . S
O299 Sm273 2.450 . S
O299 C283 1.242 . S
O300 Sm272 2.386 . S
O300 Sm273 2.681 1_655 S
O300 C290 1.271 1_655 S
O301 Sm273 2.464 . S
O301 C290 1.251 . S
O302 Sm273 2.396 . S
O302 C291 1.252 . S
O303 Sm272 2.408 1_455 S
O303 C291 1.272 . S
H304 C276 0.930 . S
H305 C277 0.929 . S
H306 C279 0.930 . S
H307 C280 0.929 . S
H308 C285 0.930 . S
H309 C286 0.929 . S
H310 C288 0.930 . S
H311 C289 0.929 . S
H312 C318 0.930 . S
H313 C322 0.930 . S
H314 C327 0.929 . S
H315 C325 0.929 . S
H316 C320 0.929 . S
H317 C326 0.929 . S
C318 H312 0.930 . S
C318 C319 1.397 . S
C318 C326 1.378 . S
C319 C318 1.397 . S
C319 C327 1.403 1_545 S
C320 H316 0.929 . S
C320 C322 1.378 . S
C320 C324 1.349 1_565 S
C321 C324 1.463 . S
C321 C326 1.350 . S
C321 N329 1.427 1_545 S
C322 H313 0.930 . S
C322 C320 1.378 . S
C322 C323 1.338 1_565 S
C323 C322 1.338 1_545 S
C323 C325 1.462 . S
C324 C320 1.349 1_545 S
C324 C321 1.463 . S
C324 N328 1.428 . S
C325 H315 0.929 . S
C325 C323 1.462 . S
C325 N328 1.384 . S
C326 H317 0.929 . S
C326 C318 1.378 . S
C326 C321 1.350 . S
C327 H314 0.929 . S
C327 C319 1.403 1_565 S
C327 N329 1.384 . S
N328 C324 1.428 . S
N328 C325 1.384 . S
N329 C321 1.427 1_565 S
N329 C327 1.384 . S
H330 C336 0.930 . S
H331 C340 0.930 . S
H332 C345 0.929 . S
H333 C343 0.929 . S
H334 C338 0.929 . S
H335 C344 0.929 . S
C336 H330 0.930 . S
C336 C337 1.367 . S
C336 C344 1.378 . S
C337 C336 1.367 . S
C337 C345 1.433 . S
C338 H334 0.929 . S
C338 C340 1.378 . S
C338 C342 1.350 . S
C339 C342 1.463 . S
C339 C344 1.350 . S
C339 N347 1.427 . S
C340 H331 0.930 . S
C340 C338 1.378 . S
C340 C341 1.367 . S
C341 C340 1.367 . S
C341 C343 1.433 . S
C342 C338 1.350 . S
C342 C339 1.463 . S
C342 N346 1.427 . S
C343 H333 0.929 . S
C343 C341 1.433 . S
C343 N346 1.384 . S
C344 H335 0.929 . S
C344 C336 1.378 . S
C344 C339 1.350 . S
C345 H332 0.929 . S
C345 C337 1.433 . S
C345 N347 1.384 . S
N346 C342 1.427 . S
N346 C343 1.384 . S
N347 C339 1.427 . S
N347 C345 1.384 . S
H348 C354 0.930 . S
H349 C358 0.930 . S
H350 C363 0.929 . S
H351 C361 0.929 . S
H352 C356 0.929 . S
H353 C362 0.929 . S
C354 H348 0.930 . S
C354 C355 1.367 . S
C354 C362 1.378 . S
C355 C354 1.367 . S
C355 C363 1.433 . S
C356 H352 0.929 . S
C356 C358 1.378 . S
C356 C360 1.350 . S
C357 C360 1.463 . S
C357 C362 1.350 . S
C357 N365 1.427 . S
C358 H349 0.930 . S
C358 C356 1.378 . S
C358 C359 1.367 . S
C359 C358 1.367 . S
C359 C361 1.433 . S
C360 C356 1.350 . S
C360 C357 1.463 . S
C360 N364 1.427 . S
C361 H351 0.929 . S
C361 C359 1.433 . S
C361 N364 1.384 . S
C362 H353 0.929 . S
C362 C354 1.378 . S
C362 C357 1.350 . S
C363 H350 0.929 . S
C363 C355 1.433 . S
C363 N365 1.384 . S
N364 C360 1.427 . S
N364 C361 1.384 . S
N365 C357 1.427 . S
N365 C363 1.384 . S
H366 C372 0.930 . S
H367 C376 0.930 . S
H368 C381 0.929 . S
H369 C379 0.929 . S
H370 C374 0.929 . S
H371 C380 0.929 . S
C372 H366 0.930 . S
C372 C373 1.367 1_655 S
C372 C380 1.378 . S
C373 C372 1.367 1_455 S
C373 C381 1.433 . S
C374 H370 0.929 . S
C374 C376 1.378 . S
C374 C378 1.350 . S
C375 C378 1.463 . S
C375 C380 1.344 1_455 S
C375 N383 1.433 . S
C376 H367 0.930 . S
C376 C374 1.378 . S
C376 C377 1.367 . S
C377 C376 1.367 . S
C377 C379 1.433 1_455 S
C378 C374 1.350 . S
C378 C375 1.463 . S
C378 N382 1.427 1_455 S
C379 H369 0.929 . S
C379 C377 1.433 1_655 S
C379 N382 1.384 . S
C380 H371 0.929 . S
C380 C372 1.378 . S
C380 C375 1.344 1_655 S
C381 H368 0.929 . S
C381 C373 1.433 . S
C381 N383 1.384 . S
N382 C378 1.427 1_655 S
N382 C379 1.384 . S
N383 C375 1.433 . S
N383 C381 1.384 . S
H384 C390 0.930 . S
H385 C394 0.930 . S
H386 C399 0.929 . S
H387 C397 0.929 . S
H388 C392 0.928 1_554 S
H389 C398 0.929 . S
C390 H384 0.930 . S
C390 C391 1.379 . S
C390 C398 1.378 . S
C391 C390 1.379 . S
C391 C399 1.421 1_545 S
C392 H388 0.928 1_556 S
C392 C394 1.378 . S
C392 C396 1.350 1_556 S
C393 C396 1.462 1_545 S
C393 C398 1.355 . S
C393 N401 1.422 1_545 S
C394 H385 0.930 . S
C394 C392 1.378 . S
C394 C395 1.367 . S
C395 C394 1.367 . S
C395 C397 1.433 1_565 S
C396 C392 1.350 1_554 S
C396 C393 1.462 1_565 S
C396 N400 1.427 1_565 S
C397 H387 0.929 . S
C397 C395 1.433 1_545 S
C397 N400 1.384 1_556 S
C398 H389 0.929 . S
C398 C390 1.378 . S
C398 C393 1.355 . S
C399 H386 0.929 . S
C399 C391 1.421 1_565 S
C399 N401 1.384 . S
N400 C396 1.427 1_545 S
N400 C397 1.384 1_554 S
N401 C393 1.422 1_565 S
N401 C399 1.384 . S
H402 C408 0.930 . S
H403 C412 0.930 1_554 S
H404 C417 0.929 . S
H405 C415 0.929 . S
H406 C410 0.929 . S
H407 C416 0.929 . S
C408 H402 0.930 . S
C408 C409 1.367 . S
C408 C416 1.378 . S
C409 C408 1.367 . S
C409 C417 1.433 . S
C410 H406 0.929 . S
C410 C412 1.378 1_554 S
C410 C414 1.350 . S
C411 C414 1.463 . S
C411 C416 1.350 . S
C411 N419 1.427 . S
C412 H403 0.930 1_556 S
C412 C410 1.378 1_556 S
C412 C413 1.367 . S
C413 C412 1.367 . S
C413 C415 1.433 . S
C414 C410 1.350 . S
C414 C411 1.463 . S
C414 N418 1.427 1_554 S
C415 H405 0.929 . S
C415 C413 1.433 . S
C415 N418 1.384 . S
C416 H407 0.929 . S
C416 C408 1.378 . S
C416 C411 1.350 . S
C417 H404 0.929 . S
C417 C409 1.433 . S
C417 N419 1.384 . S
N418 C414 1.427 1_556 S
N418 C415 1.384 . S
N419 C411 1.427 . S
N419 C417 1.384 . S
H420 C426 0.930 . S
H421 C430 0.930 . S
H422 C435 0.929 . S
H423 C433 0.929 . S
H424 C428 0.929 . S
H425 C434 0.929 . S
C426 H420 0.930 . S
C426 C427 1.367 . S
C426 C434 1.378 . S
C427 C426 1.367 . S
C427 C435 1.433 . S
C428 H424 0.929 . S
C428 C430 1.378 1_554 S
C428 C432 1.350 . S
C429 C432 1.463 . S
C429 C434 1.350 . S
C429 N437 1.427 . S
C430 H421 0.930 . S
C430 C428 1.378 1_556 S
C430 C431 1.367 . S
C431 C430 1.367 . S
C431 C433 1.433 . S
C432 C428 1.350 . S
C432 C429 1.463 . S
C432 N436 1.427 . S
C433 H423 0.929 . S
C433 C431 1.433 . S
C433 N436 1.384 1_556 S
C434 H425 0.929 . S
C434 C426 1.378 . S
C434 C429 1.350 . S
C435 H422 0.929 . S
C435 C427 1.433 . S
C435 N437 1.384 . S
N436 C432 1.427 . S
N436 C433 1.384 1_554 S
N437 C429 1.427 . S
N437 C435 1.384 . S
H438 C444 0.930 . S
H439 C448 0.930 . S
H440 C453 0.929 . S
H441 C451 0.929 . S
H442 C446 0.929 . S
H443 C452 0.929 . S
C444 H438 0.930 . S
C444 C445 1.387 . S
C444 C452 1.378 . S
C445 C444 1.387 . S
C445 C453 1.414 1_655 S
C446 H442 0.929 . S
C446 C448 1.378 . S
C446 C450 1.339 1_456 S
C447 C450 1.463 . S
C447 C452 1.350 . S
C447 N455 1.427 1_655 S
C448 H439 0.930 . S
C448 C446 1.378 . S
C448 C449 1.336 1_455 S
C449 C448 1.336 1_655 S
C449 C451 1.465 . S
C450 C446 1.339 1_654 S
C450 C447 1.463 . S
C450 N454 1.438 . S
C451 H441 0.929 . S
C451 C449 1.465 . S
C451 N454 1.384 1_556 S
C452 H443 0.929 . S
C452 C444 1.378 . S
C452 C447 1.350 . S
C453 H440 0.929 . S
C453 C445 1.414 1_455 S
C453 N455 1.384 . S
N454 C450 1.438 . S
N454 C451 1.384 1_554 S
N455 C447 1.427 1_455 S
N455 C453 1.384 . S
H456 C462 0.930 . S
H457 C466 0.930 . S
H458 C471 0.929 . S
H459 C469 0.929 . S
H460 C464 0.930 . S
H461 C470 0.929 . S
C462 H456 0.930 . S
C462 C463 1.338 1_655 S
C462 C470 1.378 . S
C463 C462 1.338 1_455 S
C463 C471 1.451 . S
C464 H460 0.930 . S
C464 C466 1.378 . S
C464 C468 1.350 . S
C465 C468 1.463 . S
C465 C470 1.350 . S
C465 N473 1.427 1_655 S
C466 H457 0.930 . S
C466 C464 1.378 . S
C466 C467 1.367 . S
C467 C466 1.367 . S
C467 C469 1.433 . S
C468 C464 1.350 . S
C468 C465 1.463 . S
C468 N472 1.427 . S
C469 H459 0.929 . S
C469 C467 1.433 . S
C469 N472 1.384 . S
C470 H461 0.929 . S
C470 C462 1.378 . S
C470 C465 1.350 . S
C471 H458 0.929 . S
C471 C463 1.451 . S
C471 N473 1.384 . S
N472 C468 1.427 . S
N472 C469 1.384 . S
N473 C465 1.427 1_455 S
N473 C471 1.384 . S
H474 C480 0.930 . S
H475 C484 0.930 . S
H476 C489 0.929 . S
H477 C487 0.929 . S
H478 C482 0.929 1_545 S
H479 C488 0.929 . S
C480 H474 0.930 . S
C480 C481 1.337 1_565 S
C480 C488 1.378 . S
C481 C480 1.337 1_545 S
C481 C489 1.454 . S
C482 H478 0.929 1_565 S
C482 C484 1.378 . S
C482 C486 1.350 . S
C483 C486 1.463 . S
C483 C488 1.350 . S
C483 N491 1.427 1_565 S
C484 H475 0.930 . S
C484 C482 1.378 . S
C484 C485 1.367 . S
C485 C484 1.367 . S
C485 C487 1.433 . S
C486 C482 1.350 . S
C486 C483 1.463 . S
C486 N490 1.427 . S
C487 H477 0.929 . S
C487 C485 1.433 . S
C487 N490 1.384 . S
C488 H479 0.929 . S
C488 C480 1.378 . S
C488 C483 1.350 . S
C489 H476 0.929 . S
C489 C481 1.454 . S
C489 N491 1.384 . S
N490 C486 1.427 . S
N490 C487 1.384 . S
N491 C483 1.427 1_545 S
N491 C489 1.384 . S
H492 C498 0.930 . S
H493 C502 0.930 . S
H494 C507 0.929 . S
H495 C505 0.929 . S
H496 C500 0.929 . S
H497 C506 0.929 . S
C498 H492 0.930 . S
C498 C499 1.367 . S
C498 C506 1.378 . S
C499 C498 1.367 . S
C499 C507 1.433 . S
C500 H496 0.929 . S
C500 C502 1.378 . S
C500 C504 1.350 . S
C501 C504 1.463 . S
C501 C506 1.350 . S
C501 N509 1.427 . S
C502 H493 0.930 . S
C502 C500 1.378 . S
C502 C503 1.367 . S
C503 C502 1.367 . S
C503 C505 1.433 . S
C504 C500 1.350 . S
C504 C501 1.463 . S
C504 N508 1.427 . S
C505 H495 0.929 . S
C505 C503 1.433 . S
C505 N508 1.384 . S
C506 H497 0.929 . S
C506 C498 1.378 . S
C506 C501 1.350 . S
C507 H494 0.929 . S
C507 C499 1.433 . S
C507 N509 1.384 . S
N508 C504 1.427 . S
N508 C505 1.384 . S
N509 C501 1.427 . S
N509 C507 1.384 . S
H510 C516 0.930 . S
H511 C520 0.930 . S
H512 C525 0.929 . S
H513 C523 0.929 . S
H514 C518 0.929 . S
H515 C524 0.929 . S
C516 H510 0.930 . S
C516 C517 1.367 . S
C516 C524 1.378 . S
C517 C516 1.367 . S
C517 C525 1.433 . S
C518 H514 0.929 . S
C518 C520 1.378 . S
C518 C522 1.350 . S
C519 C522 1.463 . S
C519 C524 1.350 . S
C519 N527 1.427 . S
C520 H511 0.930 . S
C520 C518 1.378 . S
C520 C521 1.367 . S
C521 C520 1.367 . S
C521 C523 1.433 . S
C522 C518 1.350 . S
C522 C519 1.463 . S
C522 N526 1.427 . S
C523 H513 0.929 . S
C523 C521 1.433 . S
C523 N526 1.384 . S
C524 H515 0.929 . S
C524 C516 1.378 . S
C524 C519 1.350 . S
C525 H512 0.929 . S
C525 C517 1.433 . S
C525 N527 1.384 . S
N526 C522 1.427 . S
N526 C523 1.384 . S
N527 C519 1.427 . S
N527 C525 1.384 . S
H528 C534 0.930 . S
H529 C538 0.930 . S
H530 C543 0.929 . S
H531 C541 0.929 1_556 S
H532 C536 0.929 . S
H533 C542 0.929 . S
C534 H528 0.930 . S
C534 C535 1.367 1_455 S
C534 C542 1.378 . S
C535 C534 1.367 1_655 S
C535 C543 1.433 . S
C536 H532 0.929 . S
C536 C538 1.378 . S
C536 C540 1.350 . S
C537 C540 1.463 . S
C537 C542 1.350 . S
C537 N545 1.427 . S
C538 H529 0.930 . S
C538 C536 1.378 . S
C538 C539 1.367 . S
C539 C538 1.367 . S
C539 C541 1.433 . S
C540 C536 1.350 . S
C540 C537 1.463 . S
C540 N544 1.427 . S
C541 H531 0.929 1_554 S
C541 C539 1.433 . S
C541 N544 1.384 . S
C542 H533 0.929 . S
C542 C534 1.378 . S
C542 C537 1.350 . S
C543 H530 0.929 . S
C543 C535 1.433 . S
C543 N545 1.384 1_655 S
N544 C540 1.427 . S
N544 C541 1.384 . S
N545 C537 1.427 . S
N545 C543 1.384 1_455 S
H546 C552 0.930 . S
H547 C556 0.930 1_565 S
H548 C561 0.929 . S
H549 C559 0.929 . S
H550 C554 0.929 1_565 S
H551 C560 0.929 . S
C552 H546 0.930 . S
C552 C553 1.340 1_545 S
C552 C560 1.378 . S
C553 C552 1.340 1_565 S
C553 C561 1.453 . S
C554 H550 0.929 1_545 S
C554 C556 1.378 . S
C554 C558 1.350 . S
C555 C558 1.463 . S
C555 C560 1.350 . S
C555 N563 1.427 1_545 S
C556 H547 0.930 1_545 S
C556 C554 1.378 . S
C556 C557 1.367 . S
C557 C556 1.367 . S
C557 C559 1.433 . S
C558 C554 1.350 . S
C558 C555 1.463 . S
C558 N562 1.427 . S
C559 H549 0.929 . S
C559 C557 1.433 . S
C559 N562 1.384 . S
C560 H551 0.929 . S
C560 C552 1.378 . S
C560 C555 1.350 . S
C561 H548 0.929 . S
C561 C553 1.453 . S
C561 N563 1.384 . S
N562 C558 1.427 . S
N562 C559 1.384 . S
N563 C555 1.427 1_565 S
N563 C561 1.384 . S
H564 C570 0.930 . S
H565 C574 0.930 1_556 S
H566 C579 0.929 . S
H567 C577 0.929 . S
H568 C572 0.929 . S
H569 C578 0.929 . S
C570 H564 0.930 . S
C570 C571 1.367 . S
C570 C578 1.378 . S
C571 C570 1.367 . S
C571 C579 1.433 . S
C572 H568 0.929 . S
C572 C574 1.378 . S
C572 C576 1.350 . S
C573 C576 1.463 . S
C573 C578 1.350 . S
C573 N581 1.427 . S
C574 H565 0.930 1_554 S
C574 C572 1.378 . S
C574 C575 1.367 . S
C575 C574 1.367 . S
C575 C577 1.433 . S
C576 C572 1.350 . S
C576 C573 1.463 . S
C576 N580 1.427 . S
C577 H567 0.929 . S
C577 C575 1.433 . S
C577 N580 1.384 . S
C578 H569 0.929 . S
C578 C570 1.378 . S
C578 C573 1.350 . S
C579 H566 0.929 . S
C579 C571 1.433 . S
C579 N581 1.384 . S
N580 C576 1.427 . S
N580 C577 1.384 . S
N581 C573 1.427 . S
N581 C579 1.384 . S
H582 C588 0.930 . S
H583 C592 0.930 1_556 S
H584 C597 0.929 . S
H585 C595 0.929 . S
H586 C590 0.929 . S
H587 C596 0.929 . S
C588 H582 0.930 . S
C588 C589 1.367 . S
C588 C596 1.378 . S
C589 C588 1.367 . S
C589 C597 1.433 . S
C590 H586 0.929 . S
C590 C592 1.378 . S
C590 C594 1.350 . S
C591 C594 1.463 . S
C591 C596 1.350 . S
C591 N599 1.427 . S
C592 H583 0.930 1_554 S
C592 C590 1.378 . S
C592 C593 1.367 . S
C593 C592 1.367 . S
C593 C595 1.433 . S
C594 C590 1.350 . S
C594 C591 1.463 . S
C594 N598 1.427 . S
C595 H585 0.929 . S
C595 C593 1.433 . S
C595 N598 1.384 . S
C596 H587 0.929 . S
C596 C588 1.378 . S
C596 C591 1.350 . S
C597 H584 0.929 . S
C597 C589 1.433 . S
C597 N599 1.384 . S
N598 C594 1.427 . S
N598 C595 1.384 . S
N599 C591 1.427 . S
N599 C597 1.384 . S
H600 C606 0.930 . S
H601 C610 0.930 . S
H602 C615 0.929 . S
H603 C613 0.929 . S
H604 C608 0.929 . S
H605 C614 0.929 . S
C606 H600 0.930 . S
C606 C607 1.367 1_655 S
C606 C614 1.378 . S
C607 C606 1.367 1_455 S
C607 C615 1.433 . S
C608 H604 0.929 . S
C608 C610 1.378 . S
C608 C612 1.350 . S
C609 C612 1.463 . S
C609 C614 1.350 1_455 S
C609 N617 1.427 . S
C610 H601 0.930 . S
C610 C608 1.378 . S
C610 C611 1.367 . S
C611 C610 1.367 . S
C611 C613 1.433 1_455 S
C612 C608 1.350 . S
C612 C609 1.463 . S
C612 N616 1.427 1_455 S
C613 H603 0.929 . S
C613 C611 1.433 1_655 S
C613 N616 1.384 . S
C614 H605 0.929 . S
C614 C606 1.378 . S
C614 C609 1.350 1_655 S
C615 H602 0.929 . S
C615 C607 1.433 . S
C615 N617 1.384 . S
N616 C612 1.427 1_655 S
N616 C613 1.384 . S
N617 C609 1.427 . S
N617 C615 1.384 . S
H618 C624 0.930 . S
H619 C628 0.930 . S
H620 C633 0.929 . S
H621 C631 0.929 . S
H622 C626 0.929 . S
H623 C632 0.929 . S
C624 H618 0.930 . S
C624 C625 1.367 . S
C624 C632 1.378 . S
C625 C624 1.367 . S
C625 C633 1.433 1_545 S
C626 H622 0.929 . S
C626 C628 1.378 . S
C626 C630 1.350 1_565 S
C627 C630 1.463 . S
C627 C632 1.350 . S
C627 N635 1.427 1_545 S
C628 H619 0.930 . S
C628 C626 1.378 . S
C628 C629 1.367 1_565 S
C629 C628 1.367 1_545 S
C629 C631 1.433 . S
C630 C626 1.350 1_545 S
C630 C627 1.463 . S
C630 N634 1.427 . S
C631 H621 0.929 . S
C631 C629 1.433 . S
C631 N634 1.384 . S
C632 H623 0.929 . S
C632 C624 1.378 . S
C632 C627 1.350 . S
C633 H620 0.929 . S
C633 C625 1.433 1_565 S
C633 N635 1.384 . S
N634 C630 1.427 . S
N634 C631 1.384 . S
N635 C627 1.427 1_565 S
N635 C633 1.384 . S
H636 C642 0.930 . S
H637 C646 0.930 . S
H638 C651 0.929 . S
H639 C649 0.929 . S
H640 C644 0.929 . S
H641 C650 0.929 . S
C642 H636 0.930 . S
C642 C643 1.367 . S
C642 C650 1.378 . S
C643 C642 1.367 . S
C643 C651 1.433 . S
C644 H640 0.929 . S
C644 C646 1.378 . S
C644 C648 1.350 . S
C645 C648 1.463 . S
C645 C650 1.350 . S
C645 N653 1.427 . S
C646 H637 0.930 . S
C646 C644 1.378 . S
C646 C647 1.367 . S
C647 C646 1.367 . S
C647 C649 1.433 . S
C648 C644 1.350 . S
C648 C645 1.463 . S
C648 N652 1.427 . S
C649 H639 0.929 . S
C649 C647 1.433 . S
C649 N652 1.384 . S
C650 H641 0.929 . S
C650 C642 1.378 . S
C650 C645 1.350 . S
C651 H638 0.929 . S
C651 C643 1.433 . S
C651 N653 1.384 . S
N652 C648 1.427 . S
N652 C649 1.384 . S
N653 C645 1.427 . S
N653 C651 1.384 . S
H654 C660 0.930 . S
H655 C664 0.930 . S
H656 C669 0.929 . S
H657 C667 0.929 . S
H658 C662 0.929 . S
H659 C668 0.929 . S
C660 H654 0.930 . S
C660 C661 1.367 . S
C660 C668 1.378 . S
C661 C660 1.367 . S
C661 C669 1.433 . S
C662 H658 0.929 . S
C662 C664 1.378 . S
C662 C666 1.350 . S
C663 C666 1.463 . S
C663 C668 1.350 . S
C663 N671 1.427 . S
C664 H655 0.930 . S
C664 C662 1.378 . S
C664 C665 1.367 . S
C665 C664 1.367 . S
C665 C667 1.433 . S
C666 C662 1.350 . S
C666 C663 1.463 . S
C666 N670 1.427 . S
C667 H657 0.929 . S
C667 C665 1.433 . S
C667 N670 1.384 . S
C668 H659 0.929 . S
C668 C660 1.378 . S
C668 C663 1.350 . S
C669 H656 0.929 . S
C669 C661 1.433 . S
C669 N671 1.384 . S
N670 C666 1.427 . S
N670 C667 1.384 . S
N671 C663 1.427 . S
N671 C669 1.384 . S
H672 C678 0.930 . S
H673 C682 0.930 . S
H674 C687 0.929 . S
H675 C685 0.929 . S
H676 C680 0.929 . S
H677 C686 0.929 . S
C678 H672 0.930 . S
C678 C679 1.367 1_455 S
C678 C686 1.378 . S
C679 C678 1.367 1_655 S
C679 C687 1.433 . S
C680 H676 0.929 . S
C680 C682 1.378 . S
C680 C684 1.350 . S
C681 C684 1.463 . S
C681 C686 1.350 1_655 S
C681 N689 1.427 . S
C682 H673 0.930 . S
C682 C680 1.378 . S
C682 C683 1.367 . S
C683 C682 1.367 . S
C683 C685 1.433 1_655 S
C684 C680 1.350 . S
C684 C681 1.463 . S
C684 N688 1.427 1_655 S
C685 H675 0.929 . S
C685 C683 1.433 1_455 S
C685 N688 1.384 . S
C686 H677 0.929 . S
C686 C678 1.378 . S
C686 C681 1.350 1_455 S
C687 H674 0.929 . S
C687 C679 1.433 . S
C687 N689 1.384 . S
N688 C684 1.427 1_455 S
N688 C685 1.384 . S
N689 C681 1.427 . S
N689 C687 1.384 . S
H690 C696 0.930 . S
H691 C700 0.930 . S
H692 C705 0.929 . S
H693 C703 0.929 . S
H694 C698 0.929 . S
H695 C704 0.929 . S
C696 H690 0.930 . S
C696 C697 1.367 1_545 S
C696 C704 1.378 . S
C697 C696 1.367 1_565 S
C697 C705 1.433 . S
C698 H694 0.929 . S
C698 C700 1.378 . S
C698 C702 1.350 . S
C699 C702 1.463 . S
C699 C704 1.350 1_565 S
C699 N707 1.427 . S
C700 H691 0.930 . S
C700 C698 1.378 . S
C700 C701 1.367 . S
C701 C700 1.367 . S
C701 C703 1.433 1_565 S
C702 C698 1.350 . S
C702 C699 1.463 . S
C702 N706 1.427 1_565 S
C703 H693 0.929 . S
C703 C701 1.433 1_545 S
C703 N706 1.384 . S
C704 H695 0.929 . S
C704 C696 1.378 . S
C704 C699 1.350 1_545 S
C705 H692 0.929 . S
C705 C697 1.433 . S
C705 N707 1.384 . S
N706 C702 1.427 1_545 S
N706 C703 1.384 . S
N707 C699 1.427 . S
N707 C705 1.384 . S
H708 C714 0.930 . S
H709 C718 0.930 . S
H710 C723 0.929 . S
H711 C721 0.929 . S
H712 C716 0.929 . S
H713 C722 0.929 . S
C714 H708 0.930 . S
C714 C715 1.367 . S
C714 C722 1.378 . S
C715 C714 1.367 . S
C715 C723 1.433 . S
C716 H712 0.929 . S
C716 C718 1.378 . S
C716 C720 1.350 . S
C717 C720 1.463 . S
C717 C722 1.350 . S
C717 N725 1.427 . S
C718 H709 0.930 . S
C718 C716 1.378 . S
C718 C719 1.367 . S
C719 C718 1.367 . S
C719 C721 1.433 . S
C720 C716 1.350 . S
C720 C717 1.463 . S
C720 N724 1.427 . S
C721 H711 0.929 . S
C721 C719 1.433 . S
C721 N724 1.384 . S
C722 H713 0.929 . S
C722 C714 1.378 . S
C722 C717 1.350 . S
C723 H710 0.929 . S
C723 C715 1.433 . S
C723 N725 1.384 . S
N724 C720 1.427 . S
N724 C721 1.384 . S
N725 C717 1.427 . S
N725 C723 1.384 . S
H726 C732 0.930 . S
H727 C736 0.930 . S
H728 C741 0.929 . S
H729 C739 0.929 . S
H730 C734 0.929 . S
H731 C740 0.929 . S
C732 H726 0.930 . S
C732 C733 1.367 . S
C732 C740 1.378 . S
C733 C732 1.367 . S
C733 C741 1.433 . S
C734 H730 0.929 . S
C734 C736 1.378 . S
C734 C738 1.350 . S
C735 C738 1.463 . S
C735 C740 1.350 . S
C735 N743 1.427 . S
C736 H727 0.930 . S
C736 C734 1.378 . S
C736 C737 1.367 . S
C737 C736 1.367 . S
C737 C739 1.433 . S
C738 C734 1.350 . S
C738 C735 1.463 . S
C738 N742 1.427 . S
C739 H729 0.929 . S
C739 C737 1.433 . S
C739 N742 1.384 . S
C740 H731 0.929 . S
C740 C732 1.378 . S
C740 C735 1.350 . S
C741 H728 0.929 . S
C741 C733 1.433 . S
C741 N743 1.384 . S
N742 C738 1.427 . S
N742 C739 1.384 . S
N743 C735 1.427 . S
N743 C741 1.384 . S
C319 C125 1.905 1_545 S
C323 C161 1.940 1_545 S
C341 C201 1.951 . S
C337 C144 1.910 . S
C359 C241 1.949 . S
C355 C87 1.919 . S
C377 C281 1.944 1_455 S
C373 C106 1.906 1_455 S
C395 C170 1.948 1_565 S
C391 C49 1.910 1_545 S
C409 C68 1.908 . S
C413 C210 1.953 . S
C427 C11 1.912 . S
C431 C250 1.954 . S
C445 C30 1.908 . S
C449 C290 1.946 1_655 S
C467 C167 0.530 . S
C463 C97 0.582 . S
C485 C207 0.530 . S
C481 C116 0.582 . S
C503 C247 0.548 . S
C499 C135 0.569 . S
C517 C78 0.592 . S
C521 C287 0.549 . S
C535 C21 0.592 . S
C539 C158 0.539 . S
C557 C198 0.526 . S
C553 C40 0.574 . S
C575 C238 0.535 . S
C571 C59 0.555 . S
C589 C2 0.552 . S
C593 C278 0.532 . S
C607 C101 2.055 1_455 S
C611 C171 2.278 . S
C625 C120 2.052 1_545 S
C629 C211 2.272 . S
C647 C251 2.271 . S
C643 C139 2.043 . S
C665 C291 2.279 . S
C661 C82 2.062 . S
C679 C25 2.059 . S
C683 C162 2.294 . S
C701 C202 2.277 . S
C697 C44 2.061 . S
C719 C242 2.273 . S
C715 C63 2.046 . S
C733 C6 2.050 . S
C737 C282 2.282 . S
