# Generated by pormake.
# Topology pts, (4,4)-cn, num edge types: 1
# Building blocks:
#     Node 0, Type 0, BuildingBlock: KUFVIS_clean_linker_0, # of connection points: 4
#     Node 1, Type 0, BuildingBlock: KUFVIS_clean_linker_0, # of connection points: 4
#     Node 2, Type 1, BuildingBlock: UXUYUI_clean_sbu_0, # of connection points: 4
#     Node 3, Type 1, BuildingBlock: UXUYUI_clean_sbu_0, # of connection points: 4
#     Edge 4, Type (0, 1), BuildingBlock: AJUNOK_clean_linker_0, # of connection points: 2
#     Edge 5, Type (0, 1), BuildingBlock: AJUNOK_clean_linker_0, # of connection points: 2
#     Edge 6, Type (0, 1), BuildingBlock: AJUNOK_clean_linker_0, # of connection points: 2
#     Edge 7, Type (0, 1), BuildingBlock: AJUNOK_clean_linker_0, # of connection points: 2
#     Edge 8, Type (0, 1), BuildingBlock: AJUNOK_clean_linker_0, # of connection points: 2
#     Edge 9, Type (0, 1), BuildingBlock: AJUNOK_clean_linker_0, # of connection points: 2
#     Edge 10, Type (0, 1), BuildingBlock: AJUNOK_clean_linker_0, # of connection points: 2
#     Edge 11, Type (0, 1), BuildingBlock: AJUNOK_clean_linker_0, # of connection points: 2
# Relax obj value: 0.008
# Max RMSD: 0.067
# Mean RMSD: 0.060
data_MOF--net-pts--node1-UXUYUI_clean_sbu_0--node2-KUFVIS_clean_linker_0--edge1-AJUNOK_clean_linker_0
_symmetry_space_group_name_H-M    P1
_symmetry_Int_Tables_number       1
_symmetry_cell_setting            triclinic
loop_
_symmetry_equiv_pos_as_xyz
'x, y, z'
_cell_length_a     24.310681
_cell_length_b     24.286438
_cell_length_c     34.261215
_cell_angle_alpha  89.954256
_cell_angle_beta   89.640455
_cell_angle_gamma 90.060528
loop_
_atom_site_label
_atom_site_type_symbol
_atom_site_fract_x
_atom_site_fract_y
_atom_site_fract_z
_atom_type_partial_charge
H0 H 0.34819 0.04354 -0.0098 0.0
H1 H 0.49636 1.02108 0.92416 0.0
H2 H 0.50268 0.06139 0.04754 0.0
H3 H 0.58204 1.01819 0.04498 0.0
H4 H 0.73088 0.03939 -0.02035 0.0
H5 H 0.57709 0.06286 0.9222 0.0
C6 C 0.39281 0.0429 -0.01116 0.0
C7 C 0.42281 0.05221 0.02275 0.0
C8 C 0.41916 1.03248 0.95332 0.0
C9 C 0.47687 1.03118 0.9517 0.0
C10 C 0.50858 0.04136 -0.01446 0.0
C11 C 0.48046 0.05211 0.0211 0.0
C12 C 0.57043 0.04061 -0.01617 0.0
C13 C 0.60175 1.02857 0.01756 0.0
C14 C 0.6594 1.02844 0.01599 0.0
C15 C 0.68623 0.0396 -0.0192 0.0
C16 C 0.65664 0.05127 0.94709 0.0
C17 C 0.59897 0.05209 0.94851 0.0
H18 H 1.02967 0.73577 0.48265 0.0
H19 H 0.06321 0.5867 0.54411 0.0
H20 H 1.01419 0.583 0.42224 0.0
H21 H 0.05403 0.5039 0.42033 0.0
H22 H 0.06029 0.35319 0.4843 0.0
H23 H 1.03215 0.503 0.54641 0.0
C24 C 1.03196 0.69112 0.4829 0.0
C25 C 1.02142 0.66199 0.44875 0.0
C26 C 0.04598 0.66395 0.51725 0.0
C27 C 0.05 0.60632 0.51745 0.0
C28 C 0.03885 0.57521 0.48331 0.0
C29 C 1.02423 0.6043 0.44894 0.0
C30 C 0.04358 0.51324 0.48346 0.0
C31 C 0.0513 0.48337 0.44826 0.0
C32 C 0.05637 0.42585 0.44864 0.0
C33 C 0.0563 0.39771 0.48408 0.0
C34 C 0.04845 0.42573 0.51914 0.0
C35 C 0.04065 0.48295 0.51887 0.0
Li36 Li 0.03932 0.0945 0.25787 0.0
Li37 Li 0.03586 0.98964 0.2559 0.0
Li38 Li 0.08988 0.04273 0.20978 0.0
Li39 Li 0.99167 0.03952 0.20444 0.0
C40 C 0.15243 1.03188 0.27232 0.0
N41 N 0.26439 1.0152 0.27834 0.0
C42 C 0.17431 0.97912 0.26753 0.0
C43 C 0.18732 0.0761 0.28048 0.0
C44 C 0.23108 0.97156 0.2706 0.0
C45 C 0.24386 0.06682 0.28334 0.0
C46 C 0.94332 1.02525 0.2921 0.0
C47 C 0.87927 0.96019 0.32024 0.0
N48 N 0.88332 0.98638 0.35517 0.0
C49 C 0.94643 0.05181 0.3282 0.0
C50 C 0.90905 0.97937 0.28797 0.0
C51 C 0.91589 1.03145 0.35975 0.0
C52 C 1.01732 0.20641 0.2749 0.0
N53 N 0.04011 0.15924 0.28873 0.0
C54 C 0.07038 0.20544 0.34619 0.0
C55 C 0.06631 0.15786 0.3236 0.0
C56 C 0.04778 0.25511 0.33258 0.0
C57 C 1.02112 0.25524 0.2963 0.0
H58 H 0.99692 0.20625 0.24693 0.0
H59 H 0.08412 0.1197 0.33381 0.0
C60 C 1.03421 0.87424 0.26958 0.0
N61 N 1.03224 0.9245 0.28709 0.0
C62 C 1.02805 0.82622 0.29169 0.0
C63 C 1.02014 0.88252 0.34958 0.0
C64 C 1.02699 0.92933 0.32644 0.0
C65 C 1.0197 0.83023 0.3321 0.0
H66 H 0.0404 0.87133 0.23842 0.0
H67 H 1.02756 0.9696 0.33981 0.0
C68 C 0.06329 0.13339 0.16976 0.0
N69 N 0.1133 0.18764 0.10807 0.0
C70 C 0.07027 0.10691 0.13389 0.0
C71 C 0.08168 0.18758 0.17424 0.0
C72 C 0.09572 0.13495 0.10307 0.0
C73 C 0.10683 0.2143 0.14269 0.0
C74 C 1.01954 0.9453 0.17158 0.0
C75 C 0.04098 0.94286 0.13365 0.0
C76 C 0.9718 0.91576 0.18081 0.0
C77 C 1.01399 0.91132 0.10554 0.0
C78 C 0.94595 0.88481 0.15188 0.0
N79 N 0.96739 0.88326 0.11514 0.0
C80 C 0.18 1.00041 0.16554 0.0
C81 C 0.1894 0.09361 0.18478 0.0
C82 C 0.23011 1.00272 0.14544 0.0
N83 N 0.16001 0.04592 0.18378 0.0
C84 C 0.23953 0.09785 0.16495 0.0
C85 C 0.26011 0.0522 0.14454 0.0
H86 H 0.15678 0.96246 0.16631 0.0
H87 H 0.17366 0.12861 0.20076 0.0
C88 C 0.87715 0.04032 0.1909 0.0
N89 N 0.92699 0.03834 0.17261 0.0
C90 C 0.82863 1.03496 0.16955 0.0
C91 C 0.88351 1.02714 0.1108 0.0
C92 C 0.93083 1.03313 0.13319 0.0
C93 C 0.83168 1.02712 0.12908 0.0
H94 H 0.87496 0.04549 0.22216 0.0
H95 H 0.97055 1.03244 0.11906 0.0
O96 O 0.0972 0.04031 0.2683 0.0
O97 O 0.97344 0.04428 0.26098 0.0
O98 O 0.03912 0.10626 0.20044 0.0
O99 O 0.04495 0.97654 0.19948 0.0
H100 H 0.14778 0.94455 0.26102 0.0
H101 H 0.17098 0.11725 0.28402 0.0
H102 H 0.24868 0.93103 0.2667 0.0
H103 H 0.27144 0.1007 0.28938 0.0
H104 H 0.85294 0.92448 0.3175 0.0
H105 H 0.97234 0.08756 0.33192 0.0
H106 H 0.90561 0.95861 0.26022 0.0
H107 H 0.91817 0.05144 0.3879 0.0
H108 H 0.09067 0.20325 0.3742 0.0
H109 H 1.00404 0.29273 0.28432 0.0
H110 H 1.029 0.7865 0.27735 0.0
H111 H 1.01566 0.88711 0.38089 0.0
H112 H 0.0575 0.06471 0.13019 0.0
H113 H 0.07719 0.20863 0.20185 0.0
H114 H 0.10178 0.11471 0.07527 0.0
H115 H 0.1214 0.25615 0.14578 0.0
H116 H 0.07767 0.96555 0.12575 0.0
H117 H 0.95466 0.91705 0.20995 0.0
H118 H 1.02998 0.90934 0.07604 0.0
H119 H 0.90878 0.86209 0.15862 0.0
H120 H 0.24421 0.96678 0.12961 0.0
H121 H 0.26163 0.1366 0.1651 0.0
H122 H 0.78928 0.03588 0.18454 0.0
H123 H 0.8874 1.02269 0.07944 0.0
Li124 Li 0.99 0.04403 0.75956 0.0
Li125 Li 0.08811 0.04018 0.76282 0.0
Li126 Li 0.03971 0.09512 0.71023 0.0
Li127 Li 0.04184 0.99075 0.71263 0.0
C128 C 1.01555 0.13846 0.79502 0.0
N129 N 0.96126 0.20129 0.85033 0.0
C130 C 1.00687 0.11782 0.83265 0.0
C131 C 0.99699 0.19127 0.78561 0.0
C132 C 0.97917 0.15012 0.86016 0.0
C133 C 0.9696 0.22236 0.81398 0.0
C134 C 0.06208 0.9497 0.79805 0.0
C135 C 0.13758 0.89259 0.81897 0.0
N136 N 0.11854 0.8953 0.85632 0.0
C137 C 0.04324 0.95184 0.83667 0.0
C138 C 0.10958 0.91969 0.78912 0.0
C139 C 0.07233 0.92405 0.86569 0.0
C140 C 0.90208 1.00321 0.80692 0.0
N141 N 0.9206 0.04763 0.78656 0.0
C142 C 0.84014 0.09889 0.80398 0.0
C143 C 0.88991 0.09429 0.78375 0.0
C144 C 0.82154 0.05479 0.82699 0.0
C145 C 0.85248 1.00599 0.82761 0.0
H146 H 0.926 0.96574 0.80729 0.0
H147 H 0.90427 0.12816 0.76594 0.0
C148 C 0.20303 1.03455 0.77566 0.0
N149 N 0.15344 0.03987 0.79395 0.0
C150 C 0.25137 1.03048 0.79737 0.0
C151 C 0.19681 0.03844 0.85628 0.0
C152 C 0.14972 0.04293 0.83348 0.0
C153 C 0.24836 1.03177 0.83822 0.0
H154 H 0.2051 1.03289 0.74421 0.0
H155 H 0.11013 0.04769 0.84742 0.0
C156 C 0.92574 1.02868 0.69806 0.0
N157 N 0.81537 1.00242 0.69359 0.0
C158 C 0.90826 0.97451 0.70425 0.0
C159 C 0.88714 0.06949 0.6895 0.0
C160 C 0.85227 0.96208 0.70188 0.0
C161 C 0.83151 0.05538 0.68739 0.0
C162 C 0.1308 1.02444 0.67342 0.0
C163 C 0.12446 0.05109 0.63755 0.0
C164 C 0.16363 0.97731 0.67569 0.0
C165 C 0.15061 1.02976 0.60443 0.0
C166 C 0.18899 0.95721 0.64189 0.0
N167 N 0.18199 0.98362 0.60726 0.0
C168 C 0.07627 0.20115 0.68926 0.0
C169 C 1.00496 0.16568 0.64958 0.0
C170 C 0.07692 0.2503 0.66803 0.0
N171 N 0.04057 0.16025 0.67973 0.0
C172 C 1.00403 0.21419 0.6277 0.0
C173 C 0.04021 0.25732 0.63696 0.0
H174 H 0.10408 0.19555 0.71347 0.0
H175 H 0.97765 0.13212 0.64231 0.0
C176 C 0.04647 0.87539 0.69839 0.0
N177 N 0.04311 0.9258 0.6812 0.0
C178 C 0.05018 0.82783 0.6756 0.0
C179 C 0.04494 0.88486 0.61789 0.0
C180 C 0.04098 0.93119 0.64177 0.0
C181 C 0.05001 0.83241 0.63481 0.0
H182 H 0.04638 0.87198 0.7298 0.0
H183 H 0.03683 0.97161 0.62888 0.0
O184 O 0.0418 0.10717 0.76743 0.0
O185 O 1.03465 0.97732 0.76923 0.0
O186 O 0.98023 0.04184 0.70131 0.0
O187 O 0.10488 0.04432 0.70607 0.0
H188 H 1.02009 0.07678 0.84025 0.0
H189 H 1.00317 0.20787 0.75661 0.0
H190 H 0.97163 0.13438 0.88926 0.0
H191 H 0.95479 0.26318 0.80704 0.0
H192 H 0.17459 0.86958 0.81246 0.0
H193 H 1.00705 0.97531 0.84439 0.0
H194 H 0.12515 0.91801 0.75954 0.0
H195 H 0.05834 0.9256 0.8957 0.0
H196 H 0.81678 0.13673 0.80202 0.0
H197 H 0.83933 0.97095 0.8449 0.0
H198 H 0.29044 1.02528 0.78246 0.0
H199 H 0.19302 0.04024 0.88778 0.0
H200 H 0.93751 0.94257 0.71136 0.0
H201 H 0.89984 0.11177 0.68517 0.0
H202 H 0.83812 0.92039 0.7068 0.0
H203 H 0.80113 0.08658 0.68102 0.0
H204 H 0.09933 0.0876 0.63519 0.0
H205 H 0.16903 0.95612 0.70315 0.0
H206 H 0.14584 0.04983 0.57646 0.0
H207 H 0.21414 0.92055 0.64319 0.0
H208 H 0.10571 0.28249 0.67579 0.0
H209 H 0.97623 0.21742 0.60323 0.0
H210 H 0.05394 0.78808 0.68968 0.0
H211 H 0.04373 0.88991 0.58649 0.0
C212 C 0.35184 0.10122 0.06206 0.0
C213 C 0.39185 0.05958 0.05965 0.0
C214 C 0.31146 0.10047 0.09137 0.0
C215 C 0.30936 0.05769 0.11905 0.0
H216 H 0.34973 0.13266 0.03966 0.0
H217 H 0.27954 0.13155 0.09071 0.0
S218 S 0.40906 0.94304 0.12825 0.0
N219 N 0.43031 0.9776 0.08942 0.0
N220 N 0.3544 0.97619 0.14485 0.0
C221 C 0.35149 1.01804 0.11861 0.0
C222 C 0.39288 1.01908 0.08886 0.0
C223 C 0.09503 0.36584 0.56749 0.0
C224 C 0.04703 0.39299 0.55543 0.0
C225 C 0.09285 0.3241 0.5957 0.0
C226 C 0.04241 0.3075 0.6123 0.0
H227 H 0.13408 0.37501 0.5535 0.0
H228 H 0.13043 0.30247 0.60283 0.0
S229 S 0.90586 0.36944 0.59294 0.0
N230 N 0.94849 0.4035 0.56393 0.0
N231 N 0.94407 0.32482 0.61707 0.0
C232 C 0.99455 0.33647 0.60195 0.0
C233 C 0.99695 0.37935 0.57348 0.0
C234 C 0.69616 0.05974 0.07999 0.0
C235 C 0.69363 1.01915 0.05084 0.0
C236 C 0.73934 0.06026 0.10704 0.0
C237 C 0.78128 1.02037 0.10547 0.0
H238 H 0.66697 0.09342 0.08009 0.0
H239 H 0.74186 0.09403 0.12759 0.0
S240 S 0.7878 0.9005 0.03871 0.0
N241 N 0.7325 0.93466 0.0249 0.0
N242 N 0.81337 0.93528 0.07584 0.0
C243 C 0.77653 0.9772 0.07844 0.0
C244 C 0.7327 0.97666 0.05109 0.0
C245 C 0.09342 0.74133 0.55061 0.0
C246 C 0.05527 0.69781 0.55248 0.0
C247 C 0.0932 0.78326 0.57858 0.0
C248 C 0.05487 0.78317 0.60948 0.0
H249 H 0.12154 0.74459 0.52604 0.0
H250 H 0.12182 0.81719 0.57515 0.0
S251 S 0.94911 0.67628 0.62897 0.0
N252 N 0.98057 0.65512 0.58882 0.0
N253 N 0.98012 0.73404 0.64173 0.0
C254 C 1.01886 0.73803 0.61312 0.0
C255 C 1.01911 0.69525 0.58452 0.0
C256 C 0.34106 0.98601 0.92017 0.0
C257 C 0.38443 1.02436 0.91842 0.0
C258 C 0.29865 0.98689 0.89277 0.0
C259 C 0.29822 1.02594 0.8625 0.0
H260 H 0.33829 0.95716 0.94425 0.0
H261 H 0.26475 0.95825 0.89623 0.0
S262 S 0.40468 0.13204 0.84304 0.0
N263 N 0.42648 0.09986 0.88253 0.0
N264 N 0.34677 0.10123 0.83057 0.0
C265 C 0.34326 0.06198 0.85876 0.0
C266 C 0.38647 0.0612 0.88684 0.0
C267 C 0.10386 0.36076 0.40369 0.0
C268 C 0.05745 0.3929 0.41246 0.0
C269 C 0.10115 0.31829 0.37611 0.0
C270 C 0.05165 0.30581 0.35682 0.0
H271 H 0.14167 0.3667 0.41974 0.0
H272 H 0.13758 0.29361 0.37101 0.0
S273 S 0.91899 0.37964 0.36913 0.0
N274 N 0.96156 0.41168 0.39886 0.0
N275 N 0.95562 0.33089 0.34772 0.0
C276 C 1.00563 0.33957 0.36411 0.0
C277 C 1.00874 0.3833 0.39185 0.0
C278 C 0.69039 1.01917 0.88228 0.0
C279 C 0.68813 0.06076 0.91071 0.0
C280 C 0.73204 1.01898 0.85371 0.0
C281 C 0.77244 0.06058 0.85259 0.0
H282 H 0.66229 0.98457 0.88388 0.0
H283 H 0.73414 0.98481 0.83346 0.0
S284 S 0.78148 0.18072 0.91906 0.0
N285 N 0.72703 0.14622 0.93464 0.0
N286 N 0.80533 0.1461 0.88111 0.0
C287 C 0.76828 0.10423 0.87939 0.0
C288 C 0.72609 0.10423 0.90844 0.0
C289 C 0.05182 0.69578 0.38343 0.0
C290 C 1.01131 0.69415 0.41287 0.0
C291 C 0.05239 0.73821 0.35555 0.0
C292 C 1.01263 0.7803 0.35651 0.0
H293 H 0.08559 0.66671 0.38382 0.0
H294 H 0.08621 0.74016 0.33485 0.0
S295 S 0.89273 0.78873 0.42358 0.0
N296 N 0.92676 0.73374 0.4383 0.0
N297 N 0.92758 0.81327 0.38584 0.0
C298 C 0.96939 0.77627 0.38375 0.0
C299 C 0.96875 0.73315 0.41192 0.0
loop_
_geom_bond_atom_site_label_1
_geom_bond_atom_site_label_2
_geom_bond_distance
_geom_bond_site_symmetry_2
_ccdc_geom_bond_type
H0 C6 0.929 1_565 S
H1 C9 0.931 . S
H2 C11 0.930 1_565 S
H3 C13 0.930 . S
H4 C15 0.930 . S
H5 C17 0.928 1_565 S
C6 H0 0.929 1_545 S
C6 C7 1.380 1_545 S
C6 C8 1.394 1_554 S
C7 C6 1.380 1_565 S
C7 C11 1.382 1_565 S
C8 C6 1.394 1_556 S
C8 C9 1.400 . S
C9 H1 0.931 . S
C9 C8 1.400 . S
C9 C10 1.375 1_556 S
C10 C9 1.375 1_554 S
C10 C11 1.417 . S
C10 C12 1.501 . S
C11 H2 0.930 1_545 S
C11 C7 1.382 1_545 S
C11 C10 1.417 . S
C12 C10 1.501 . S
C12 C13 1.384 . S
C12 C17 1.410 1_554 S
C13 H3 0.930 . S
C13 C12 1.384 . S
C13 C14 1.389 . S
C14 C13 1.389 . S
C14 C15 1.405 . S
C15 H4 0.930 . S
C15 C14 1.405 . S
C15 C16 1.365 1_554 S
C16 C15 1.365 1_556 S
C16 C17 1.400 . S
C17 H5 0.928 1_545 S
C17 C12 1.410 1_556 S
C17 C16 1.400 . S
H18 C24 0.930 . S
H19 C27 0.931 . S
H20 C29 0.931 . S
H21 C31 0.930 . S
H22 C33 0.930 . S
H23 C35 0.931 . S
C24 H18 0.930 . S
C24 C25 1.380 . S
C24 C26 1.394 1_455 S
C25 C24 1.380 . S
C25 C29 1.382 . S
C26 C24 1.394 1_655 S
C26 C27 1.400 . S
C27 H19 0.931 . S
C27 C26 1.400 . S
C27 C28 1.375 1_655 S
C28 C27 1.375 1_455 S
C28 C29 1.415 . S
C28 C30 1.501 . S
C29 H20 0.931 . S
C29 C25 1.382 . S
C29 C28 1.415 . S
C30 C28 1.501 . S
C30 C31 1.384 1_455 S
C30 C35 1.408 . S
C31 H21 0.930 . S
C31 C30 1.384 1_655 S
C31 C32 1.389 . S
C32 C31 1.389 . S
C32 C33 1.405 1_655 S
C33 H22 0.930 . S
C33 C32 1.405 1_455 S
C33 C34 1.364 . S
C34 C33 1.364 . S
C34 C35 1.400 . S
C35 H23 0.931 . S
C35 C30 1.408 . S
C35 C34 1.400 . S
Li36 N53 1.990 . S
Li36 O96 1.973 . S
Li36 O97 1.970 1_455 S
Li36 O98 1.961 . S
Li37 N61 1.990 1_455 S
Li37 O96 1.955 1_565 S
Li37 O97 1.956 1_465 S
Li37 O99 1.961 . S
Li38 N83 1.990 . S
Li38 O96 1.962 . S
Li38 O98 1.956 . S
Li38 O99 1.970 1_545 S
Li39 N89 1.989 1_545 S
Li39 O97 1.962 . S
Li39 O98 1.985 1_655 S
Li39 O99 1.943 1_645 S
C40 C42 1.348 1_545 S
C40 C43 1.356 . S
C40 O96 1.326 . S
N41 C44 1.314 1_545 S
N41 C45 1.279 . S
C42 C40 1.348 1_565 S
C42 C44 1.353 . S
C42 H100 0.929 . S
C43 C40 1.356 . S
C43 C45 1.358 . S
C43 H101 0.930 . S
C44 N41 1.314 1_565 S
C44 C42 1.353 . S
C44 H102 0.930 . S
C45 N41 1.279 . S
C45 C43 1.358 . S
C45 H103 0.930 . S
C46 C49 1.348 . S
C46 C50 1.356 1_545 S
C46 O97 1.325 . S
C47 N48 1.279 . S
C47 C50 1.358 . S
C47 H104 0.930 . S
N48 C47 1.279 . S
N48 C51 1.314 1_565 S
C49 C46 1.348 . S
C49 C51 1.353 . S
C49 H105 0.929 . S
C50 C46 1.356 1_565 S
C50 C47 1.358 . S
C50 H106 0.930 . S
C51 N48 1.314 1_545 S
C51 C49 1.353 . S
C51 H107 0.930 . S
C52 N53 1.314 1_655 S
C52 C57 1.353 . S
C52 H58 0.930 . S
N53 Li36 1.990 . S
N53 C52 1.314 1_455 S
N53 C55 1.279 . S
C54 C55 1.358 . S
C54 C56 1.356 . S
C54 H108 0.930 . S
C55 N53 1.279 . S
C55 C54 1.358 . S
C55 H59 0.930 . S
C56 C54 1.356 . S
C56 C57 1.348 1_455 S
C57 C52 1.353 . S
C57 C56 1.348 1_655 S
C57 H109 0.929 . S
H58 C52 0.930 . S
H59 C55 0.930 . S
C60 N61 1.315 1_455 S
C60 C62 1.353 . S
C60 H66 0.930 . S
N61 Li37 1.990 1_655 S
N61 C60 1.315 1_655 S
N61 C64 1.278 . S
C62 C60 1.353 . S
C62 C65 1.348 . S
C62 H110 0.929 . S
C63 C64 1.358 . S
C63 C65 1.356 1_655 S
C63 H111 0.930 . S
C64 N61 1.278 . S
C64 C63 1.358 . S
C64 H67 0.930 . S
C65 C62 1.348 . S
C65 C63 1.356 1_455 S
H66 C60 0.930 . S
H67 C64 0.930 . S
C68 C70 1.348 1_455 S
C68 C71 1.356 . S
C68 O98 1.325 . S
N69 C72 1.314 1_455 S
N69 C73 1.279 . S
C70 C68 1.348 1_655 S
C70 C72 1.353 . S
C70 H112 0.929 . S
C71 C68 1.356 . S
C71 C73 1.358 . S
C71 H113 0.930 . S
C72 N69 1.314 1_655 S
C72 C70 1.353 . S
C72 H114 0.930 . S
C73 N69 1.279 . S
C73 C71 1.358 . S
C73 H115 0.930 . S
C74 C75 1.348 . S
C74 C76 1.356 1_455 S
C74 O99 1.325 . S
C75 C74 1.348 . S
C75 C77 1.353 . S
C75 H116 0.929 . S
C76 C74 1.356 1_655 S
C76 C78 1.358 . S
C76 H117 0.930 . S
C77 C75 1.353 . S
C77 N79 1.313 . S
C77 H118 0.930 . S
C78 C76 1.358 . S
C78 N79 1.280 1_655 S
C78 H119 0.930 . S
N79 C77 1.313 . S
N79 C78 1.280 1_455 S
C80 C82 1.353 . S
C80 N83 1.314 1_565 S
C80 H86 0.930 . S
C81 N83 1.279 . S
C81 C84 1.358 . S
C81 H87 0.930 . S
C82 C80 1.353 . S
C82 C85 1.348 1_565 S
C82 H120 0.929 . S
N83 Li38 1.990 . S
N83 C80 1.314 1_545 S
N83 C81 1.279 . S
C84 C81 1.358 . S
C84 C85 1.356 . S
C84 H121 0.930 . S
C85 C82 1.348 1_545 S
C85 C84 1.356 . S
H86 C80 0.930 . S
H87 C81 0.930 . S
C88 N89 1.314 1_545 S
C88 C90 1.353 . S
C88 H94 0.930 . S
N89 Li39 1.989 1_565 S
N89 C88 1.314 1_565 S
N89 C92 1.279 . S
C90 C88 1.353 . S
C90 C93 1.348 . S
C90 H122 0.929 . S
C91 C92 1.358 . S
C91 C93 1.356 1_565 S
C91 H123 0.930 . S
C92 N89 1.279 . S
C92 C91 1.358 . S
C92 H95 0.930 . S
C93 C90 1.348 . S
C93 C91 1.356 1_545 S
H94 C88 0.930 . S
H95 C92 0.930 . S
O96 Li36 1.973 . S
O96 Li37 1.955 1_545 S
O96 Li38 1.962 . S
O96 C40 1.326 . S
O97 Li36 1.970 1_655 S
O97 Li37 1.956 1_645 S
O97 Li39 1.962 . S
O97 C46 1.325 . S
O98 Li36 1.961 . S
O98 Li38 1.956 . S
O98 Li39 1.985 1_455 S
O98 C68 1.325 . S
O99 Li37 1.961 . S
O99 Li38 1.970 1_565 S
O99 Li39 1.943 1_465 S
O99 C74 1.325 . S
H100 C42 0.929 . S
H101 C43 0.930 . S
H102 C44 0.930 . S
H103 C45 0.930 . S
H104 C47 0.930 . S
H105 C49 0.929 . S
H106 C50 0.930 . S
H107 C51 0.930 . S
H108 C54 0.930 . S
H109 C57 0.929 . S
H110 C62 0.929 . S
H111 C63 0.930 . S
H112 C70 0.929 . S
H113 C71 0.930 . S
H114 C72 0.930 . S
H115 C73 0.930 . S
H116 C75 0.929 . S
H117 C76 0.930 . S
H118 C77 0.930 . S
H119 C78 0.930 . S
H120 C82 0.929 . S
H121 C84 0.930 . S
H122 C90 0.929 . S
H123 C91 0.930 . S
Li124 N141 1.990 . S
Li124 O184 1.956 1_655 S
Li124 O185 1.970 1_645 S
Li124 O186 1.961 . S
Li125 N149 1.990 1_545 S
Li125 O184 1.970 . S
Li125 O185 1.956 1_545 S
Li125 O187 1.961 . S
Li126 N171 1.990 1_455 S
Li126 O184 1.961 . S
Li126 O186 1.956 1_455 S
Li126 O187 1.970 . S
Li127 N177 1.990 . S
Li127 O185 1.961 . S
Li127 O186 1.970 1_465 S
Li127 O187 1.956 1_565 S
C128 C130 1.348 . S
C128 C131 1.356 1_455 S
C128 O184 1.325 . S
N129 C132 1.311 1_655 S
N129 C133 1.282 . S
C130 C128 1.348 . S
C130 C132 1.353 . S
C130 H188 0.929 . S
C131 C128 1.356 1_655 S
C131 C133 1.358 . S
C131 H189 0.930 . S
C132 N129 1.311 1_455 S
C132 C130 1.353 . S
C132 H190 0.930 . S
C133 N129 1.282 . S
C133 C131 1.358 . S
C133 H191 0.930 . S
C134 C137 1.348 1_455 S
C134 C138 1.356 . S
C134 O185 1.325 . S
C135 N136 1.279 . S
C135 C138 1.358 . S
C135 H192 0.930 . S
N136 C135 1.279 . S
N136 C139 1.314 1_455 S
C137 C134 1.348 1_655 S
C137 C139 1.353 . S
C137 H193 0.929 . S
C138 C134 1.356 . S
C138 C135 1.358 . S
C138 H194 0.930 . S
C139 N136 1.314 1_655 S
C139 C137 1.353 . S
C139 H195 0.930 . S
C140 N141 1.314 1_565 S
C140 C145 1.353 . S
C140 H146 0.930 . S
N141 Li124 1.990 . S
N141 C140 1.314 1_545 S
N141 C143 1.279 . S
C142 C143 1.358 . S
C142 C144 1.356 . S
C142 H196 0.930 . S
C143 N141 1.279 . S
C143 C142 1.358 . S
C143 H147 0.930 . S
C144 C142 1.356 . S
C144 C145 1.348 1_545 S
C145 C140 1.353 . S
C145 C144 1.348 1_565 S
C145 H197 0.929 . S
H146 C140 0.930 . S
H147 C143 0.930 . S
C148 N149 1.314 1_545 S
C148 C150 1.353 . S
C148 H154 0.930 . S
N149 Li125 1.990 1_565 S
N149 C148 1.314 1_565 S
N149 C152 1.279 . S
C150 C148 1.353 . S
C150 C153 1.348 . S
C150 H198 0.929 . S
C151 C152 1.358 . S
C151 C153 1.356 1_565 S
C151 H199 0.930 . S
C152 N149 1.279 . S
C152 C151 1.358 . S
C152 H155 0.930 . S
C153 C150 1.348 . S
C153 C151 1.356 1_545 S
H154 C148 0.930 . S
H155 C152 0.930 . S
C156 C158 1.348 1_545 S
C156 C159 1.356 . S
C156 O186 1.325 . S
N157 C160 1.314 1_545 S
N157 C161 1.279 . S
C158 C156 1.348 1_565 S
C158 C160 1.353 . S
C158 H200 0.929 . S
C159 C156 1.356 . S
C159 C161 1.358 . S
C159 H201 0.930 . S
C160 N157 1.314 1_565 S
C160 C158 1.353 . S
C160 H202 0.930 . S
C161 N157 1.279 . S
C161 C159 1.358 . S
C161 H203 0.930 . S
C162 C163 1.348 . S
C162 C164 1.356 1_545 S
C162 O187 1.325 . S
C163 C162 1.348 . S
C163 C165 1.353 . S
C163 H204 0.929 . S
C164 C162 1.356 1_565 S
C164 C166 1.358 . S
C164 H205 0.930 . S
C165 C163 1.353 . S
C165 N167 1.314 1_545 S
C165 H206 0.930 . S
C166 C164 1.358 . S
C166 N167 1.279 . S
C166 H207 0.930 . S
N167 C165 1.314 1_565 S
N167 C166 1.279 . S
C168 C170 1.353 . S
C168 N171 1.313 1_455 S
C168 H174 0.930 . S
C169 N171 1.281 . S
C169 C172 1.358 . S
C169 H175 0.930 . S
C170 C168 1.353 . S
C170 C173 1.348 . S
C170 H208 0.929 . S
N171 Li126 1.990 1_655 S
N171 C168 1.313 1_655 S
N171 C169 1.281 . S
C172 C169 1.358 . S
C172 C173 1.356 1_655 S
C172 H209 0.930 . S
C173 C170 1.348 . S
C173 C172 1.356 1_455 S
H174 C168 0.930 . S
H175 C169 0.930 . S
C176 N177 1.314 1_655 S
C176 C178 1.353 . S
C176 H182 0.930 . S
N177 Li127 1.990 . S
N177 C176 1.314 1_455 S
N177 C180 1.279 . S
C178 C176 1.353 . S
C178 C181 1.348 1_655 S
C178 H210 0.929 . S
C179 C180 1.358 . S
C179 C181 1.356 . S
C179 H211 0.930 . S
C180 N177 1.279 . S
C180 C179 1.358 . S
C180 H183 0.930 . S
C181 C178 1.348 1_455 S
C181 C179 1.356 . S
H182 C176 0.930 . S
H183 C180 0.930 . S
O184 Li124 1.956 1_455 S
O184 Li125 1.970 . S
O184 Li126 1.961 . S
O184 C128 1.325 . S
O185 Li124 1.970 1_465 S
O185 Li125 1.956 1_565 S
O185 Li127 1.961 . S
O185 C134 1.325 . S
O186 Li124 1.961 . S
O186 Li126 1.956 1_655 S
O186 Li127 1.970 1_645 S
O186 C156 1.325 . S
O187 Li125 1.961 . S
O187 Li126 1.970 . S
O187 Li127 1.956 1_545 S
O187 C162 1.325 . S
H188 C130 0.929 . S
H189 C131 0.930 . S
H190 C132 0.930 . S
H191 C133 0.930 . S
H192 C135 0.930 . S
H193 C137 0.929 . S
H194 C138 0.930 . S
H195 C139 0.930 . S
H196 C142 0.930 . S
H197 C145 0.929 . S
H198 C150 0.929 . S
H199 C151 0.930 . S
H200 C158 0.929 . S
H201 C159 0.930 . S
H202 C160 0.930 . S
H203 C161 0.930 . S
H204 C163 0.929 . S
H205 C164 0.930 . S
H206 C165 0.930 . S
H207 C166 0.930 . S
H208 C170 0.929 . S
H209 C172 0.930 . S
H210 C178 0.929 . S
H211 C179 0.930 . S
C212 C213 1.369 1_545 S
C212 C214 1.419 . S
C212 H216 0.930 . S
C213 C212 1.369 1_565 S
C213 C222 1.429 . S
C214 C212 1.419 . S
C214 C215 1.367 . S
C214 H217 0.929 . S
C215 C214 1.367 . S
C215 C221 1.424 1_545 S
H216 C212 0.930 . S
H217 C214 0.929 . S
S218 N219 1.613 . S
S218 N220 1.610 . S
N219 S218 1.613 . S
N219 C222 1.350 . S
N220 S218 1.610 . S
N220 C221 1.351 . S
C221 C215 1.424 1_565 S
C221 N220 1.351 . S
C221 C222 1.434 . S
C222 C213 1.429 . S
C222 N219 1.350 . S
C222 C221 1.434 . S
C223 C224 1.369 . S
C223 C225 1.419 . S
C223 H227 0.930 . S
C224 C223 1.369 . S
C224 C233 1.429 1_455 S
C225 C223 1.419 . S
C225 C226 1.363 . S
C225 H228 0.929 . S
C226 C225 1.363 . S
C226 C232 1.428 1_455 S
H227 C223 0.930 . S
H228 C225 0.929 . S
S229 N230 1.613 . S
S229 N231 1.610 . S
N230 S229 1.613 . S
N230 C233 1.350 . S
N231 S229 1.610 . S
N231 C232 1.351 . S
C232 C226 1.428 1_655 S
C232 N231 1.351 . S
C232 C233 1.434 . S
C233 C224 1.429 1_655 S
C233 N230 1.350 . S
C233 C232 1.434 . S
C234 C235 1.369 . S
C234 C236 1.419 . S
C234 H238 0.930 . S
C235 C234 1.369 . S
C235 C244 1.429 1_545 S
C236 C234 1.419 . S
C236 C237 1.363 . S
C236 H239 0.929 . S
C237 C236 1.363 . S
C237 C243 1.428 1_545 S
H238 C234 0.930 . S
H239 C236 0.929 . S
S240 N241 1.613 . S
S240 N242 1.610 . S
N241 S240 1.613 . S
N241 C244 1.350 . S
N242 S240 1.610 . S
N242 C243 1.351 . S
C243 C237 1.428 1_565 S
C243 N242 1.351 . S
C243 C244 1.434 . S
C244 C235 1.429 1_565 S
C244 N241 1.350 . S
C244 C243 1.434 . S
C245 C246 1.363 1_455 S
C245 C247 1.419 . S
C245 H249 0.930 . S
C246 C245 1.363 1_655 S
C246 C255 1.435 . S
C247 C245 1.419 . S
C247 C248 1.363 . S
C247 H250 0.929 . S
C248 C247 1.363 . S
C248 C254 1.428 1_455 S
H249 C245 0.930 . S
H250 C247 0.929 . S
S251 N252 1.613 . S
S251 N253 1.610 . S
N252 S251 1.613 . S
N252 C255 1.350 . S
N253 S251 1.610 . S
N253 C254 1.351 . S
C254 C248 1.428 1_655 S
C254 N253 1.351 . S
C254 C255 1.434 . S
C255 C246 1.435 . S
C255 N252 1.350 . S
C255 C254 1.434 . S
C256 C257 1.369 1_565 S
C256 C258 1.419 . S
C256 H260 0.930 . S
C257 C256 1.369 1_545 S
C257 C266 1.429 . S
C258 C256 1.419 . S
C258 C259 1.363 1_565 S
C258 H261 0.929 . S
C259 C258 1.363 1_545 S
C259 C265 1.428 . S
H260 C256 0.930 . S
H261 C258 0.929 . S
S262 N263 1.613 . S
S262 N264 1.610 . S
N263 S262 1.613 . S
N263 C266 1.350 . S
N264 S262 1.610 . S
N264 C265 1.351 . S
C265 C259 1.428 . S
C265 N264 1.351 . S
C265 C266 1.434 . S
C266 C257 1.429 . S
C266 N263 1.350 . S
C266 C265 1.434 . S
C267 C268 1.365 1_455 S
C267 C269 1.419 . S
C267 H271 0.930 . S
C268 C267 1.365 1_655 S
C268 C277 1.432 . S
C269 C267 1.419 . S
C269 C270 1.363 . S
C269 H272 0.929 . S
C270 C269 1.363 . S
C270 C276 1.428 1_455 S
H271 C267 0.930 . S
H272 C269 0.929 . S
S273 N274 1.613 . S
S273 N275 1.610 . S
N274 S273 1.613 . S
N274 C277 1.350 . S
N275 S273 1.610 . S
N275 C276 1.351 . S
C276 C270 1.428 1_655 S
C276 N275 1.351 . S
C276 C277 1.434 . S
C277 C268 1.432 . S
C277 N274 1.350 . S
C277 C276 1.434 . S
C278 C279 1.369 . S
C278 C280 1.419 . S
C278 H282 0.930 . S
C279 C278 1.369 . S
C279 C288 1.429 1_565 S
C280 C278 1.419 . S
C280 C281 1.363 1_565 S
C280 H283 0.929 . S
C281 C280 1.363 1_545 S
C281 C287 1.428 . S
H282 C278 0.930 . S
H283 C280 0.929 . S
S284 N285 1.613 . S
S284 N286 1.610 . S
N285 S284 1.613 . S
N285 C288 1.350 . S
N286 S284 1.610 . S
N286 C287 1.351 . S
C287 C281 1.428 . S
C287 N286 1.351 . S
C287 C288 1.434 . S
C288 C279 1.429 1_545 S
C288 N285 1.350 . S
C288 C287 1.434 . S
C289 C290 1.369 . S
C289 C291 1.419 . S
C289 H293 0.930 . S
C290 C289 1.369 . S
C290 C299 1.429 1_455 S
C291 C289 1.419 . S
C291 C292 1.363 . S
C291 H294 0.929 . S
C292 C291 1.363 . S
C292 C298 1.428 1_455 S
H293 C289 0.930 . S
H294 C291 0.929 . S
S295 N296 1.613 . S
S295 N297 1.610 . S
N296 S295 1.613 . S
N296 C299 1.350 . S
N297 S295 1.610 . S
N297 C298 1.351 . S
C298 C292 1.428 1_655 S
C298 N297 1.351 . S
C298 C299 1.434 . S
C299 C290 1.429 1_655 S
C299 N296 1.350 . S
C299 C298 1.434 . S
C215 C85 1.545 . S
C213 C7 1.489 . S
C226 C173 1.541 . S
C224 C34 1.484 . S
C237 C93 1.547 . S
C235 C14 1.496 . S
C248 C181 1.539 . S
C246 C26 1.482 . S
C259 C153 1.539 . S
C257 C8 1.487 . S
C270 C56 1.548 . S
C268 C32 1.489 . S
C281 C144 1.541 . S
C279 C16 1.477 1_565 S
C290 C25 1.489 . S
C292 C65 1.545 . S
