# Generated by pormake.
# Topology eea, (3,6)-cn, num edge types: 1
# Building blocks:
#     Node 0, Type 0, BuildingBlock: BETDIP_clean_linker_0, # of connection points: 3
#     Node 1, Type 0, BuildingBlock: BETDIP_clean_linker_0, # of connection points: 3
#     Node 2, Type 0, BuildingBlock: BETDIP_clean_linker_0, # of connection points: 3
#     Node 3, Type 0, BuildingBlock: BETDIP_clean_linker_0, # of connection points: 3
#     Node 4, Type 0, BuildingBlock: BETDIP_clean_linker_0, # of connection points: 3
#     Node 5, Type 0, BuildingBlock: BETDIP_clean_linker_0, # of connection points: 3
#     Node 6, Type 0, BuildingBlock: BETDIP_clean_linker_0, # of connection points: 3
#     Node 7, Type 0, BuildingBlock: BETDIP_clean_linker_0, # of connection points: 3
#     Node 8, Type 0, BuildingBlock: BETDIP_clean_linker_0, # of connection points: 3
#     Node 9, Type 0, BuildingBlock: BETDIP_clean_linker_0, # of connection points: 3
#     Node 10, Type 0, BuildingBlock: BETDIP_clean_linker_0, # of connection points: 3
#     Node 11, Type 0, BuildingBlock: BETDIP_clean_linker_0, # of connection points: 3
#     Node 12, Type 0, BuildingBlock: BETDIP_clean_linker_0, # of connection points: 3
#     Node 13, Type 0, BuildingBlock: BETDIP_clean_linker_0, # of connection points: 3
#     Node 14, Type 0, BuildingBlock: BETDIP_clean_linker_0, # of connection points: 3
#     Node 15, Type 0, BuildingBlock: BETDIP_clean_linker_0, # of connection points: 3
#     Node 16, Type 0, BuildingBlock: BETDIP_clean_linker_0, # of connection points: 3
#     Node 17, Type 0, BuildingBlock: BETDIP_clean_linker_0, # of connection points: 3
#     Node 18, Type 1, BuildingBlock: CIFDUS_clean_sbu_1, # of connection points: 6
#     Node 19, Type 1, BuildingBlock: CIFDUS_clean_sbu_1, # of connection points: 6
#     Node 20, Type 1, BuildingBlock: CIFDUS_clean_sbu_1, # of connection points: 6
#     Node 21, Type 1, BuildingBlock: CIFDUS_clean_sbu_1, # of connection points: 6
#     Node 22, Type 1, BuildingBlock: CIFDUS_clean_sbu_1, # of connection points: 6
#     Node 23, Type 1, BuildingBlock: CIFDUS_clean_sbu_1, # of connection points: 6
#     Node 24, Type 1, BuildingBlock: CIFDUS_clean_sbu_1, # of connection points: 6
#     Node 25, Type 1, BuildingBlock: CIFDUS_clean_sbu_1, # of connection points: 6
#     Node 26, Type 1, BuildingBlock: CIFDUS_clean_sbu_1, # of connection points: 6
#     Edge 27, Type (0, 1), BuildingBlock: ZUJKAS_clean_linker_0, # of connection points: 2
#     Edge 28, Type (0, 1), BuildingBlock: ZUJKAS_clean_linker_0, # of connection points: 2
#     Edge 29, Type (0, 1), BuildingBlock: ZUJKAS_clean_linker_0, # of connection points: 2
#     Edge 30, Type (0, 1), BuildingBlock: ZUJKAS_clean_linker_0, # of connection points: 2
#     Edge 31, Type (0, 1), BuildingBlock: ZUJKAS_clean_linker_0, # of connection points: 2
#     Edge 32, Type (0, 1), BuildingBlock: ZUJKAS_clean_linker_0, # of connection points: 2
#     Edge 33, Type (0, 1), BuildingBlock: ZUJKAS_clean_linker_0, # of connection points: 2
#     Edge 34, Type (0, 1), BuildingBlock: ZUJKAS_clean_linker_0, # of connection points: 2
#     Edge 35, Type (0, 1), BuildingBlock: ZUJKAS_clean_linker_0, # of connection points: 2
#     Edge 36, Type (0, 1), BuildingBlock: ZUJKAS_clean_linker_0, # of connection points: 2
#     Edge 37, Type (0, 1), BuildingBlock: ZUJKAS_clean_linker_0, # of connection points: 2
#     Edge 38, Type (0, 1), BuildingBlock: ZUJKAS_clean_linker_0, # of connection points: 2
#     Edge 39, Type (0, 1), BuildingBlock: ZUJKAS_clean_linker_0, # of connection points: 2
#     Edge 40, Type (0, 1), BuildingBlock: ZUJKAS_clean_linker_0, # of connection points: 2
#     Edge 41, Type (0, 1), BuildingBlock: ZUJKAS_clean_linker_0, # of connection points: 2
#     Edge 42, Type (0, 1), BuildingBlock: ZUJKAS_clean_linker_0, # of connection points: 2
#     Edge 43, Type (0, 1), BuildingBlock: ZUJKAS_clean_linker_0, # of connection points: 2
#     Edge 44, Type (0, 1), BuildingBlock: ZUJKAS_clean_linker_0, # of connection points: 2
#     Edge 45, Type (0, 1), BuildingBlock: ZUJKAS_clean_linker_0, # of connection points: 2
#     Edge 46, Type (0, 1), BuildingBlock: ZUJKAS_clean_linker_0, # of connection points: 2
#     Edge 47, Type (0, 1), BuildingBlock: ZUJKAS_clean_linker_0, # of connection points: 2
#     Edge 48, Type (0, 1), BuildingBlock: ZUJKAS_clean_linker_0, # of connection points: 2
#     Edge 49, Type (0, 1), BuildingBlock: ZUJKAS_clean_linker_0, # of connection points: 2
#     Edge 50, Type (0, 1), BuildingBlock: ZUJKAS_clean_linker_0, # of connection points: 2
#     Edge 51, Type (0, 1), BuildingBlock: ZUJKAS_clean_linker_0, # of connection points: 2
#     Edge 52, Type (0, 1), BuildingBlock: ZUJKAS_clean_linker_0, # of connection points: 2
#     Edge 53, Type (0, 1), BuildingBlock: ZUJKAS_clean_linker_0, # of connection points: 2
#     Edge 54, Type (0, 1), BuildingBlock: ZUJKAS_clean_linker_0, # of connection points: 2
#     Edge 55, Type (0, 1), BuildingBlock: ZUJKAS_clean_linker_0, # of connection points: 2
#     Edge 56, Type (0, 1), BuildingBlock: ZUJKAS_clean_linker_0, # of connection points: 2
#     Edge 57, Type (0, 1), BuildingBlock: ZUJKAS_clean_linker_0, # of connection points: 2
#     Edge 58, Type (0, 1), BuildingBlock: ZUJKAS_clean_linker_0, # of connection points: 2
#     Edge 59, Type (0, 1), BuildingBlock: ZUJKAS_clean_linker_0, # of connection points: 2
#     Edge 60, Type (0, 1), BuildingBlock: ZUJKAS_clean_linker_0, # of connection points: 2
#     Edge 61, Type (0, 1), BuildingBlock: ZUJKAS_clean_linker_0, # of connection points: 2
#     Edge 62, Type (0, 1), BuildingBlock: ZUJKAS_clean_linker_0, # of connection points: 2
#     Edge 63, Type (0, 1), BuildingBlock: ZUJKAS_clean_linker_0, # of connection points: 2
#     Edge 64, Type (0, 1), BuildingBlock: ZUJKAS_clean_linker_0, # of connection points: 2
#     Edge 65, Type (0, 1), BuildingBlock: ZUJKAS_clean_linker_0, # of connection points: 2
#     Edge 66, Type (0, 1), BuildingBlock: ZUJKAS_clean_linker_0, # of connection points: 2
#     Edge 67, Type (0, 1), BuildingBlock: ZUJKAS_clean_linker_0, # of connection points: 2
#     Edge 68, Type (0, 1), BuildingBlock: ZUJKAS_clean_linker_0, # of connection points: 2
#     Edge 69, Type (0, 1), BuildingBlock: ZUJKAS_clean_linker_0, # of connection points: 2
#     Edge 70, Type (0, 1), BuildingBlock: ZUJKAS_clean_linker_0, # of connection points: 2
#     Edge 71, Type (0, 1), BuildingBlock: ZUJKAS_clean_linker_0, # of connection points: 2
#     Edge 72, Type (0, 1), BuildingBlock: ZUJKAS_clean_linker_0, # of connection points: 2
#     Edge 73, Type (0, 1), BuildingBlock: ZUJKAS_clean_linker_0, # of connection points: 2
#     Edge 74, Type (0, 1), BuildingBlock: ZUJKAS_clean_linker_0, # of connection points: 2
#     Edge 75, Type (0, 1), BuildingBlock: ZUJKAS_clean_linker_0, # of connection points: 2
#     Edge 76, Type (0, 1), BuildingBlock: ZUJKAS_clean_linker_0, # of connection points: 2
#     Edge 77, Type (0, 1), BuildingBlock: ZUJKAS_clean_linker_0, # of connection points: 2
#     Edge 78, Type (0, 1), BuildingBlock: ZUJKAS_clean_linker_0, # of connection points: 2
#     Edge 79, Type (0, 1), BuildingBlock: ZUJKAS_clean_linker_0, # of connection points: 2
#     Edge 80, Type (0, 1), BuildingBlock: ZUJKAS_clean_linker_0, # of connection points: 2
# Relax obj value: 0.088
# Max RMSD: 0.118
# Mean RMSD: 0.105
data_MOF--net-eea--node1-CIFDUS_clean_sbu_1--node2-BETDIP_clean_linker_0--edge1-ZUJKAS_clean_linker_0
_symmetry_space_group_name_H-M    P1
_symmetry_Int_Tables_number       1
_symmetry_cell_setting            triclinic
loop_
_symmetry_equiv_pos_as_xyz
'x, y, z'
_cell_length_a     75.106942
_cell_length_b     74.481403
_cell_length_c     58.360531
_cell_angle_alpha  90.247917
_cell_angle_beta   90.202609
_cell_angle_gamma 120.01807
loop_
_atom_site_label
_atom_site_type_symbol
_atom_site_fract_x
_atom_site_fract_y
_atom_site_fract_z
_atom_type_partial_charge
H0 H 0.22879 0.11536 0.34411 0.0
H1 H 0.25577 0.15652 0.40223 0.0
H2 H 0.25991 0.10154 0.39737 0.0
H3 H 0.22727 0.15846 0.39762 0.0
C4 C 0.22676 0.1606 0.37927 0.0
C5 C 0.23776 0.11965 0.35982 0.0
C6 C 0.24482 0.10672 0.36868 0.0
C7 C 0.24136 0.13757 0.3719 0.0
C8 C 0.25267 0.14279 0.39261 0.0
C9 C 0.25919 0.12971 0.40173 0.0
C10 C 0.25553 0.112 0.38962 0.0
N11 N 0.23234 0.14932 0.36394 0.0
H12 H 0.90325 0.11583 0.34117 0.0
H13 H 0.85561 0.10788 0.38768 0.0
H14 H 0.9167 0.15888 0.3969 0.0
H15 H 0.8454 0.07577 0.3848 0.0
C16 C 0.84851 0.07244 0.36767 0.0
C17 C 0.89814 0.12104 0.35579 0.0
C18 C 0.91195 0.13963 0.36722 0.0
C19 C 0.87809 0.10858 0.36408 0.0
C20 C 0.87153 0.11597 0.38259 0.0
C21 C 0.88547 0.13337 0.3954 0.0
C22 C 0.90566 0.14531 0.38735 0.0
N23 N 0.86534 0.08811 0.35505 0.0
H24 H 0.89774 0.78634 0.34337 0.0
H25 H 0.91148 0.75818 0.40008 0.0
H26 H 0.85272 0.75444 0.39558 0.0
H27 H 0.94323 0.78394 0.39368 0.0
C28 C 0.94458 0.78508 0.37515 0.0
C29 C 0.89309 0.77722 0.3589 0.0
C30 C 0.87343 0.7703 0.36789 0.0
C31 C 0.90711 0.77319 0.37048 0.0
C32 C 0.90109 0.7618 0.39102 0.0
C33 C 0.88149 0.75498 0.40013 0.0
C34 C 0.86766 0.75904 0.38828 0.0
N35 N 0.92728 0.78125 0.36152 0.0
H36 H 0.11849 0.2318 0.68227 0.0
H37 H 0.16261 0.26215 0.62854 0.0
H38 H 0.10487 0.26063 0.62627 0.0
H39 H 0.1636 0.23194 0.63314 0.0
C40 C 0.16578 0.23228 0.6516 0.0
C41 C 0.12316 0.24098 0.66678 0.0
C42 C 0.10953 0.24599 0.65575 0.0
C43 C 0.14211 0.2462 0.65671 0.0
C44 C 0.14796 0.25781 0.63636 0.0
C45 C 0.13446 0.26276 0.62521 0.0
C46 C 0.11538 0.25695 0.63505 0.0
N47 N 0.15427 0.23818 0.666 0.0
H48 H 0.79097 0.89711 0.67953 0.0
H49 H 0.75521 0.9073 0.62873 0.0
H50 H 0.75524 0.84979 0.62971 0.0
H51 H 0.78228 0.9386 0.6298 0.0
C52 C 0.78579 0.94192 0.64791 0.0
C53 C 0.77996 0.89148 0.6655 0.0
C54 C 0.77295 0.87154 0.65638 0.0
C55 C 0.77394 0.90471 0.65539 0.0
C56 C 0.76015 0.89741 0.63663 0.0
C57 C 0.7538 0.87788 0.62685 0.0
C58 C 0.75985 0.86484 0.63724 0.0
N59 N 0.78323 0.92576 0.6629 0.0
H60 H 0.12465 0.89951 0.67862 0.0
H61 H 0.11033 0.85454 0.62457 0.0
H62 H 0.16919 0.91019 0.62667 0.0
H63 H 0.07915 0.85333 0.62873 0.0
C64 C 0.07738 0.85162 0.64721 0.0
C65 C 0.12921 0.89429 0.66356 0.0
C66 C 0.14896 0.90664 0.65436 0.0
C67 C 0.11505 0.87554 0.65277 0.0
C68 C 0.12097 0.86909 0.63285 0.0
C69 C 0.14055 0.88145 0.62336 0.0
C70 C 0.15442 0.90002 0.63444 0.0
N71 N 0.09473 0.86379 0.66159 0.0
H72 H 0.89166 0.44686 0.67914 0.0
H73 H 0.92332 0.49131 0.73351 0.0
H74 H 0.92348 0.43402 0.73218 0.0
H75 H 0.92354 0.51401 0.70861 0.0
C76 C 0.90877 0.50545 0.69995 0.0
C77 C 0.90163 0.45184 0.6941 0.0
C78 C 0.90691 0.43814 0.70451 0.0
C79 C 0.90809 0.4715 0.70388 0.0
C80 C 0.91965 0.47713 0.72452 0.0
C81 C 0.92496 0.46347 0.73481 0.0
C82 C 0.91938 0.44458 0.72411 0.0
N83 N 0.90083 0.48421 0.69413 0.0
H84 H 0.5716 0.44791 0.67363 0.0
H85 H 0.52706 0.43174 0.72703 0.0
H86 H 0.58012 0.49299 0.72524 0.0
H87 H 0.50594 0.41415 0.68935 0.0
C88 C 0.51456 0.40599 0.68893 0.0
C89 C 0.56627 0.45232 0.68871 0.0
C90 C 0.57792 0.47239 0.69797 0.0
C91 C 0.54755 0.43794 0.69863 0.0
C92 C 0.54087 0.44334 0.71864 0.0
C93 C 0.55277 0.46305 0.72873 0.0
C94 C 0.57092 0.47765 0.7178 0.0
N95 N 0.53638 0.41755 0.6894 0.0
H96 H 0.562 0.11814 0.67807 0.0
H97 H 0.57843 0.09132 0.73396 0.0
H98 H 0.51977 0.08767 0.73333 0.0
H99 H 0.60937 0.11901 0.72675 0.0
C100 C 0.61035 0.11891 0.70819 0.0
C101 C 0.55801 0.10927 0.69376 0.0
C102 C 0.53901 0.10318 0.70432 0.0
C103 C 0.57259 0.10545 0.7045 0.0
C104 C 0.56758 0.09462 0.72542 0.0
C105 C 0.54852 0.08813 0.73567 0.0
C106 C 0.53426 0.09217 0.72493 0.0
N107 N 0.59251 0.11358 0.69471 0.0
H108 H 0.78408 0.5628 0.01509 0.0
H109 H 0.82771 0.59023 0.96048 0.0
H110 H 0.77246 0.59366 0.95972 0.0
H111 H 0.84906 0.58794 0.98336 0.0
C112 C 0.84027 0.57446 0.99401 0.0
C113 C 0.7889 0.5716 -0.00066 0.0
C114 C 0.77628 0.57825 0.98894 0.0
C115 C 0.80771 0.57612 0.98951 0.0
C116 C 0.81361 0.58708 0.96873 0.0
C117 C 0.80105 0.5935 0.95783 0.0
C118 C 0.78258 0.58935 0.9683 0.0
N119 N 0.81967 0.56838 0.00011 0.0
H120 H 0.45579 0.22739 0.01303 0.0
H121 H 0.42413 0.24235 0.96164 0.0
H122 H 0.42249 0.18396 0.9588 0.0
H123 H 0.45665 0.2719 0.96335 0.0
C124 C 0.45699 0.27489 0.98166 0.0
C125 C 0.44557 0.22291 0.99831 0.0
C126 C 0.4386 0.2035 0.98773 0.0
C127 C 0.44078 0.23723 0.98865 0.0
C128 C 0.42818 0.23153 0.96898 0.0
C129 C 0.42175 0.21252 0.95788 0.0
C130 C 0.42666 0.19838 0.96766 0.0
N131 N 0.4505 0.25801 0.99708 0.0
H132 H 0.79029 0.23209 0.01074 0.0
H133 H 0.77654 0.18709 0.95686 0.0
H134 H 0.8354 0.24256 0.95947 0.0
H135 H 0.74519 0.18434 0.96106 0.0
C136 C 0.74344 0.18329 0.97956 0.0
C137 C 0.79502 0.22683 0.99583 0.0
C138 C 0.81484 0.23919 0.98682 0.0
C139 C 0.78097 0.20804 0.98505 0.0
C140 C 0.78705 0.2016 0.96527 0.0
C141 C 0.80669 0.21396 0.95601 0.0
C142 C 0.82054 0.23249 0.96713 0.0
N143 N 0.76063 0.19626 0.99378 0.0
H144 H 0.56395 0.78184 0.00718 0.0
H145 H 0.59241 0.82503 0.06291 0.0
H146 H 0.59572 0.76908 0.06026 0.0
H147 H 0.55226 0.81338 0.05768 0.0
C148 C 0.55675 0.82134 0.04133 0.0
C149 C 0.57341 0.78661 0.02253 0.0
C150 C 0.58025 0.77373 0.03191 0.0
C151 C 0.57766 0.80502 0.03385 0.0
C152 C 0.58927 0.81083 0.05428 0.0
C153 C 0.5962 0.79812 0.06384 0.0
C154 C 0.59168 0.77972 0.05236 0.0
N155 N 0.56848 0.81656 0.02602 0.0
H156 H 0.23482 0.78357 0.00502 0.0
H157 H 0.19099 0.76795 0.05947 0.0
H158 H 0.24905 0.82447 0.06301 0.0
H159 H 0.16828 0.74922 0.0299 0.0
C160 C 0.17677 0.74208 0.0232 0.0
C161 C 0.23032 0.78752 0.02105 0.0
C162 C 0.24415 0.80574 0.03286 0.0
C163 C 0.21096 0.77391 0.0303 0.0
C164 C 0.20545 0.77876 0.05156 0.0
C165 C 0.2192 0.79689 0.06354 0.0
C166 C 0.2384 0.81036 0.05393 0.0
N167 N 0.1982 0.75459 0.0191 0.0
H168 H 0.22862 0.45127 0.00916 0.0
H169 H 0.24258 0.42116 0.0637 0.0
H170 H 0.18596 0.42174 0.06432 0.0
H171 H 0.27379 0.44954 0.05855 0.0
C172 C 0.27548 0.45007 0.04005 0.0
C173 C 0.22413 0.44199 0.02456 0.0
C174 C 0.20534 0.43669 0.0352 0.0
C175 C 0.23797 0.43693 0.03498 0.0
C176 C 0.23226 0.42535 0.05541 0.0
C177 C 0.21361 0.42006 0.06596 0.0
C178 C 0.20018 0.4255 0.0557 0.0
N179 N 0.25811 0.44503 0.02584 0.0
H180 H 0.45052 0.89638 0.34638 0.0
H181 H 0.49626 0.92672 0.29427 0.0
H182 H 0.44096 0.93007 0.29253 0.0
H183 H 0.49891 0.89843 0.29915 0.0
C184 C 0.49925 0.89732 0.31768 0.0
C185 C 0.45598 0.90615 0.33137 0.0
C186 C 0.44346 0.91279 0.32068 0.0
C187 C 0.47487 0.91071 0.32168 0.0
C188 C 0.48168 0.92296 0.3018 0.0
C189 C 0.46934 0.9296 0.29086 0.0
C190 C 0.45048 0.92479 0.30072 0.0
N191 N 0.48621 0.90184 0.33123 0.0
H192 H 0.1255 0.56415 0.34601 0.0
H193 H 0.09 0.57331 0.29383 0.0
H194 H 0.09084 0.51636 0.29609 0.0
H195 H 0.11543 0.60505 0.29569 0.0
C196 C 0.11907 0.60836 0.31378 0.0
C197 C 0.11492 0.55841 0.3316 0.0
C198 C 0.10801 0.53832 0.32292 0.0
C199 C 0.10879 0.57141 0.32101 0.0
C200 C 0.09521 0.56378 0.30207 0.0
C201 C 0.08926 0.54426 0.29259 0.0
C202 C 0.09531 0.53145 0.30344 0.0
N203 N 0.11743 0.59241 0.32854 0.0
H204 H 0.45717 0.56476 0.34259 0.0
H205 H 0.44386 0.51907 0.2896 0.0
H206 H 0.50184 0.57541 0.29076 0.0
H207 H 0.41214 0.50943 0.29655 0.0
C208 C 0.41055 0.51262 0.31434 0.0
C209 C 0.46186 0.55946 0.32769 0.0
C210 C 0.48159 0.57194 0.31845 0.0
C211 C 0.44787 0.54042 0.31731 0.0
C212 C 0.45403 0.53382 0.29769 0.0
C213 C 0.47346 0.5464 0.28799 0.0
C214 C 0.48718 0.5652 0.29873 0.0
N215 N 0.42763 0.52872 0.32648 0.0
O216 O 0.46053 0.9801 0.00658 0.0
Mn217 Mn 0.48948 0.00683 0.01057 0.0
O218 O 0.43831 0.98405 0.02884 0.0
Mn219 Mn 0.45794 0.00828 0.04264 0.0
O220 O 0.51887 0.03297 0.0139 0.0
O221 O 0.50233 0.99018 0.99908 0.0
Mn222 Mn 0.51667 0.00301 0.97467 0.0
O223 O 0.48655 0.01647 0.9774 0.0
O224 O 0.53647 0.02921 0.98469 0.0
O225 O 0.49212 0.9977 0.04415 0.0
O226 O 0.47169 0.00446 0.06636 0.0
O227 O 0.52069 0.98097 0.97816 0.0
O228 O 0.49844 0.00191 0.95302 0.0
C229 C 0.47095 0.03708 0.02579 0.0
C230 C 0.44242 0.97374 0.01452 0.0
C231 C 0.53522 0.03933 0.00175 0.0
C232 C 0.50893 0.97727 0.99575 0.0
C233 C 0.48864 0.01131 0.95697 0.0
C234 C 0.48466 0.9984 0.0638 0.0
O235 O 0.47646 0.02336 0.02196 0.0
O236 O 0.45667 0.03204 0.04092 0.0
O237 O 0.03503 0.48534 0.00976 0.0
Mn238 Mn 0.00876 0.48818 0.0123 0.0
O239 O 0.03153 0.46356 0.03828 0.0
Mn240 Mn 0.00508 0.45662 0.04678 0.0
O241 O 0.98231 0.49094 0.01525 0.0
O242 O 0.02568 0.51801 0.00227 0.0
Mn243 Mn 0.01226 0.52274 0.9806 0.0
O244 O 1.00074 0.47751 0.97815 0.0
O245 O 0.9876 0.51778 0.99292 0.0
O246 O 0.01704 0.4999 0.04605 0.0
O247 O 0.003 0.47269 0.06925 0.0
O248 O 0.03605 0.54749 0.98484 0.0
O249 O 0.01018 0.50584 0.95658 0.0
C250 C 0.97977 0.43804 0.02557 0.0
C251 C 0.04172 0.47555 0.0219 0.0
C252 C 0.9767 0.50331 0.00685 0.0
C253 C 0.03995 0.53718 -0.00011 0.0
C254 C 0.0036 0.48655 0.95863 0.0
C255 C 0.01155 0.49201 0.06607 0.0
O256 O 0.99196 0.45782 0.02207 0.0
O257 O 0.98418 0.43028 0.04306 0.0
O258 O 0.55883 0.53351 0.01113 0.0
Mn259 Mn 0.52842 0.52776 0.00659 0.0
O260 O 0.57861 0.56155 0.98955 0.0
Mn261 Mn 0.55779 0.56389 0.97578 0.0
O262 O 0.49876 0.52381 0.00077 0.0
O263 O 0.51846 0.49768 0.01712 0.0
Mn264 Mn 0.49476 0.49242 0.02953 0.0
O265 O 0.52811 0.53711 0.04045 0.0
O266 O 0.47681 0.4908 0.00731 0.0
O267 O 0.52816 0.51783 0.97259 0.0
O268 O 0.54554 0.54643 0.95119 0.0
O269 O 0.49504 0.46911 0.03532 0.0
O270 O 0.49898 0.51023 0.05366 0.0
C271 C 0.54269 0.57628 0.99532 0.0
C272 C 0.57652 0.54746 0.00345 0.0
C273 C 0.48075 0.50788 0.99876 0.0
C274 C 0.51204 0.47859 0.02387 0.0
C275 C 0.51433 0.5284 0.05595 0.0
C276 C 0.53463 0.52687 0.95317 0.0
O277 O 0.53902 0.55739 0.99696 0.0
O278 O 0.55613 0.58738 0.98004 0.0
O279 O 0.12966 0.31354 0.34106 0.0
Mn280 Mn 0.15777 0.34117 0.34536 0.0
O281 O 0.11142 0.31417 0.37106 0.0
Mn282 Mn 0.12953 0.3414 0.37944 0.0
O283 O 0.186 0.36908 0.35019 0.0
O284 O 0.17209 0.32575 0.33467 0.0
Mn285 Mn 0.19215 0.34183 0.31613 0.0
O286 O 0.1555 0.34942 0.3114 0.0
O287 O 0.21034 0.36482 0.33276 0.0
O288 O 0.16142 0.33241 0.37877 0.0
O289 O 0.14796 0.3457 0.40221 0.0
O290 O 0.19299 0.31777 0.31729 0.0
O291 O 0.17975 0.34656 0.29155 0.0
C292 C 0.13258 0.36641 0.36118 0.0
C293 C 0.11351 0.30509 0.35362 0.0
C294 C 0.2049 0.37516 0.34539 0.0
C295 C 0.17744 0.31195 0.3308 0.0
C296 C 0.16479 0.34997 0.29265 0.0
C297 C 0.15935 0.33805 0.3989 0.0
O298 O 0.14236 0.35663 0.35503 0.0
O299 O 0.12052 0.35941 0.37876 0.0
O300 O 0.70029 0.81522 0.34008 0.0
Mn301 Mn 0.67478 0.81914 0.346 0.0
O302 O 0.69253 0.78418 0.35434 0.0
Mn303 Mn 0.6709 0.78149 0.37159 0.0
O304 O 0.64946 0.82341 0.35169 0.0
O305 O 0.6932 0.84962 0.33814 0.0
Mn306 Mn 0.67958 0.8556 0.31777 0.0
O307 O 0.66514 0.81061 0.31169 0.0
O308 O 0.65559 0.85142 0.33103 0.0
O309 O 0.68377 0.82705 0.38052 0.0
O310 O 0.67798 0.79764 0.39771 0.0
O311 O 0.70345 0.87985 0.32183 0.0
O312 O 0.67587 0.83999 0.29202 0.0
C313 C 0.64186 0.76966 0.35568 0.0
C314 C 0.70421 0.80044 0.34311 0.0
C315 C 0.64448 0.83665 0.3445 0.0
C316 C 0.70746 0.86895 0.33596 0.0
C317 C 0.66751 0.82042 0.29285 0.0
C318 C 0.68383 0.8169 0.39832 0.0
O319 O 0.65655 0.78878 0.3539 0.0
O320 O 0.64584 0.75805 0.36868 0.0
O321 O 0.22521 0.86459 0.34562 0.0
Mn322 Mn 0.19575 0.86081 0.34172 0.0
O323 O 0.24426 0.88785 0.31857 0.0
Mn324 Mn 0.22448 0.89367 0.30768 0.0
O325 O 0.1665 0.85754 0.33697 0.0
O326 O 0.18363 0.8312 0.3529 0.0
Mn327 Mn 0.16365 0.82642 0.37203 0.0
O328 O 0.19718 0.87203 0.3754 0.0
O329 O 0.14391 0.82895 0.35593 0.0
O330 O 0.19361 0.84906 0.30814 0.0
O331 O 0.20774 0.87645 0.28478 0.0
O332 O 0.16417 0.80226 0.37136 0.0
O333 O 0.17513 0.84443 0.39626 0.0
C334 C 0.21408 0.90992 0.32852 0.0
C335 C 0.24213 0.87536 0.33464 0.0
C336 C 0.14808 0.844 0.34265 0.0
C337 C 0.179 0.81222 0.35701 0.0
C338 C 0.18845 0.86354 0.39444 0.0
C339 C 0.19702 0.85707 0.28801 0.0
O340 O 0.2083 0.89047 0.33096 0.0
O341 O 0.22701 0.91918 0.31214 0.0
O342 O 0.79483 0.6478 0.67287 0.0
Mn343 Mn 0.82334 0.67501 0.6786 0.0
O344 O 0.77058 0.65285 0.68907 0.0
Mn345 Mn 0.78886 0.67576 0.70587 0.0
O346 O 0.85211 0.70193 0.68406 0.0
O347 O 0.83707 0.65852 0.66932 0.0
Mn348 Mn 0.85574 0.67321 0.64858 0.0
O349 O 0.82241 0.68393 0.64465 0.0
O350 O 0.87467 0.69777 0.66249 0.0
O351 O 0.82417 0.66674 0.71289 0.0
O352 O 0.80044 0.67125 0.73146 0.0
O353 O 0.85768 0.64994 0.65196 0.0
O354 O 0.84218 0.67559 0.62358 0.0
C355 C 0.80403 0.70524 0.69038 0.0
C356 C 0.77592 0.64223 0.67678 0.0
C357 C 0.87042 0.70803 0.67676 0.0
C358 C 0.84306 0.64503 0.6666 0.0
C359 C 0.82935 0.68187 0.62533 0.0
C360 C 0.81506 0.66725 0.73136 0.0
O361 O 0.80949 0.69137 0.68763 0.0
O362 O 0.78832 0.6999 0.70349 0.0
O363 O 0.3667 0.14851 0.67496 0.0
Mn364 Mn 0.34063 0.15147 0.67821 0.0
O365 O 0.36575 0.13045 0.70599 0.0
Mn366 Mn 0.33844 0.12042 0.71385 0.0
O367 O 0.31483 0.15516 0.6812 0.0
O368 O 0.35731 0.18088 0.6665 0.0
Mn369 Mn 0.34411 0.18345 0.64292 0.0
O370 O 0.3312 0.13875 0.64483 0.0
O371 O 0.31886 0.17831 0.65392 0.0
O372 O 0.34932 0.16367 0.71201 0.0
O373 O 0.33484 0.13616 0.73544 0.0
O374 O 0.36691 0.20906 0.64666 0.0
O375 O 0.34348 0.16566 0.62079 0.0
C376 C 0.31678 0.10273 0.68755 0.0
C377 C 0.37481 0.14093 0.68832 0.0
C378 C 0.30881 0.16619 0.6703 0.0
C379 C 0.37064 0.20035 0.66371 0.0
C380 C 0.3352 0.14637 0.62449 0.0
C381 C 0.34341 0.15561 0.7321 0.0
O382 O 0.32409 0.12241 0.69084 0.0
O383 O 0.32116 0.09384 0.70386 0.0
O384 O 0.8911 0.19706 0.68029 0.0
Mn385 Mn 0.86221 0.19445 0.67456 0.0
O386 O 0.91464 0.22595 0.66235 0.0
Mn387 Mn 0.89591 0.23052 0.64673 0.0
O388 O 0.8332 0.19173 0.66865 0.0
O389 O 0.84916 0.16434 0.68419 0.0
Mn390 Mn 0.82902 0.15937 0.70325 0.0
O391 O 0.86257 0.20428 0.70852 0.0
O392 O 0.80999 0.16319 0.68736 0.0
O393 O 0.86217 0.18506 0.64025 0.0
O394 O 0.88443 0.21394 0.62137 0.0
O395 O 0.82878 0.13485 0.70125 0.0
O396 O 0.84046 0.17616 0.7285 0.0
C397 C 0.88011 0.24365 0.66362 0.0
C398 C 0.90977 0.21031 0.67498 0.0
C399 C 0.81459 0.1784 0.67415 0.0
C400 C 0.84401 0.1451 0.68747 0.0
C401 C 0.85396 0.19524 0.72733 0.0
C402 C 0.87129 0.19465 0.62174 0.0
O403 O 0.87543 0.22448 0.66546 0.0
O404 O 0.89545 0.25476 0.65031 0.0
H405 H 0.27997 0.8187 0.05578 0.0
H406 H 0.31459 0.8444 0.04367 0.0
H407 H 0.29049 0.84981 0.97847 0.0
H408 H 0.25555 0.824 0.99069 0.0
H409 H 0.33857 0.84571 0.00565 0.0
H410 H 0.32019 0.9095 0.00549 0.0
H411 H 0.30365 0.88475 0.0186 0.0
H412 H 0.30406 0.88718 0.98799 0.0
C413 C 0.28209 0.82528 0.0388 0.0
C414 C 0.26515 0.81958 0.02422 0.0
C415 C 0.30185 0.83986 0.03187 0.0
C416 C 0.30505 0.84915 0.0103 0.0
C417 C 0.28827 0.84295 0.99529 0.0
H418 H 0.42245 0.9595 0.97353 0.0
H419 H 0.38952 0.92706 0.96745 0.0
C420 C 0.26841 0.82816 0.00219 0.0
C421 C 0.32591 0.86603 0.00435 0.0
H422 H 0.35443 0.91859 0.99862 0.0
C423 C 0.34201 0.86161 0.00369 0.0
C424 C 0.33034 0.88676 0.00202 0.0
C425 C 0.31374 0.89249 0.00371 0.0
C426 C 0.36254 0.87749 0.00149 0.0
C427 C 0.36699 0.89824 -7e-05 0.0
C428 C 0.35086 0.90259 -0.00046 0.0
C429 C 0.38825 0.91585 0.0019 0.0
C430 C 0.37939 0.87209 0.00163 0.0
C431 C 0.39842 0.91998 0.0231 0.0
C432 C 0.41691 0.93841 0.02659 0.0
C433 C 0.42563 0.95286 0.00886 0.0
C434 C 0.41609 0.94832 0.98725 0.0
C435 C 0.39733 0.92993 0.98384 0.0
H436 H 0.37341 0.8555 0.99729 0.0
H437 H 0.39166 0.88188 0.98933 0.0
H438 H 0.3864 0.87507 0.01901 0.0
H439 H 0.39148 0.90949 0.03734 0.0
H440 H 0.42395 0.94184 0.04348 0.0
H441 H 0.19168 0.45803 0.05999 0.0
H442 H 0.16644 0.46785 0.04889 0.0
H443 H 0.16355 0.44374 0.98078 0.0
H444 H 0.18875 0.43334 0.99214 0.0
H445 H 0.1666 0.4938 0.01552 0.0
H446 H 0.10329 0.41258 0.00136 0.0
H447 H 0.12706 0.4186 0.01549 0.0
H448 H 0.12626 0.42073 0.98492 0.0
C449 C 0.18572 0.45486 0.04261 0.0
C450 C 0.19195 0.44469 0.02698 0.0
C451 C 0.17136 0.46056 0.03626 0.0
C452 C 0.16288 0.45627 0.01412 0.0
C453 C 0.16966 0.44688 0.99808 0.0
H454 H 0.05845 0.47557 0.98017 0.0
H455 H 0.08955 0.47301 0.97353 0.0
C456 C 0.18416 0.44114 0.00447 0.0
C457 C 0.14653 0.46126 0.00859 0.0
H458 H 0.09477 0.43884 0.99922 0.0
C459 C 0.15097 0.48184 0.01148 0.0
C460 C 0.12609 0.44559 0.00356 0.0
C461 C 0.12023 0.42309 0.00129 0.0
C462 C 0.13542 0.48702 0.01043 0.0
C463 C 0.11494 0.47127 0.00625 0.0
C464 C 0.11059 0.45089 0.00216 0.0
C465 C 0.09755 0.47502 0.00946 0.0
C466 C 0.14077 0.50913 0.01481 0.0
C467 C 0.09204 0.47723 0.03177 0.0
C468 C 0.07435 0.47841 0.03556 0.0
C469 C 0.06194 0.47767 0.0171 0.0
C470 C 0.06794 0.47644 0.99463 0.0
C471 C 0.08555 0.47485 0.99085 0.0
H472 H 0.15749 0.52012 0.01282 0.0
H473 H 0.13209 0.51364 0.00297 0.0
H474 H 0.13641 0.51056 0.0326 0.0
H475 H 0.10103 0.47724 0.04634 0.0
H476 H 0.07003 0.47934 0.05304 0.0
H477 H 0.6036 0.75582 0.02354 0.0
H478 H 0.59114 0.71867 0.01875 0.0
H479 H 0.52869 0.70646 0.01647 0.0
H480 H 0.54103 0.74363 0.02138 0.0
H481 H 0.5481 0.68625 0.0548 0.0
H482 H 0.5521 0.6753 0.96078 0.0
H483 H 0.57176 0.6985 0.97477 0.0
H484 H 0.54625 0.69443 0.97194 0.0
C485 C 0.58725 0.74526 0.02137 0.0
C486 C 0.57327 0.75258 0.02286 0.0
C487 C 0.58018 0.72409 0.01877 0.0
C488 C 0.55903 0.70993 0.01753 0.0
C489 C 0.54508 0.71725 0.01747 0.0
H490 H 0.5092 0.58002 0.98779 0.0
H491 H 0.50863 0.61162 0.99798 0.0
C492 C 0.55215 0.73847 0.02 0.0
C493 C 0.55154 0.68743 0.01814 0.0
H494 H 0.54279 0.64641 0.98432 0.0
C495 C 0.54668 0.6774 0.03941 0.0
C496 C 0.54987 0.67613 0.99806 0.0
C497 C 0.55521 0.68649 0.97498 0.0
C498 C 0.54035 0.65621 0.04112 0.0
C499 C 0.53894 0.64487 0.02102 0.0
C500 C 0.54354 0.65498 -0.00028 0.0
C501 C 0.53445 0.62303 0.02146 0.0
C502 C 0.53536 0.64624 0.06442 0.0
C503 C 0.54801 0.61812 0.0327 0.0
C504 C 0.54796 0.59978 0.02727 0.0
C505 C 0.5346 0.58631 0.0103 0.0
C506 C 0.51934 0.58992 0.0013 0.0
C507 C 0.51926 0.60817 0.00685 0.0
H508 H 0.53069 0.65469 0.07648 0.0
H509 H 0.52288 0.6298 0.06335 0.0
H510 H 0.54927 0.6467 0.07164 0.0
H511 H 0.56011 0.6294 0.04372 0.0
H512 H 0.56022 0.5976 0.03399 0.0
H513 H 0.80716 0.27102 0.99279 0.0
H514 H 0.83304 0.30796 0.99656 0.0
H515 H 0.88069 0.29206 0.00309 0.0
H516 H 0.85496 0.25525 0.99913 0.0
H517 H 0.86575 0.33286 0.0294 0.0
H518 H 0.8952 0.32753 0.94408 0.0
H519 H 0.87069 0.30764 0.95479 0.0
H520 H 0.8941 0.30911 0.96458 0.0
C521 C 0.82307 0.27541 0.99582 0.0
C522 C 0.82912 0.26035 0.99557 0.0
C523 C 0.83784 0.29649 0.99776 0.0
C524 C 0.8588 0.30272 -0.00053 0.0
C525 C 0.86463 0.28758 0.00126 0.0
H526 H 0.97739 0.40483 0.00516 0.0
H527 H 0.94571 0.37347 0.99483 0.0
C528 C 0.84994 0.26658 0.99922 0.0
C529 C 0.87474 0.32493 0.99777 0.0
H530 H 0.9155 0.35865 0.96532 0.0
C531 C 0.87652 0.33865 0.0153 0.0
C532 C 0.8886 0.33238 0.9792 0.0
C533 C 0.887 0.31846 0.95946 0.0
C534 C 0.89265 0.35939 0.01555 0.0
C535 C 0.907 0.36674 0.9973 0.0
C536 C 0.9045 0.35315 0.97921 0.0
C537 C 0.92636 0.38722 0.99842 0.0
C538 C 0.89484 0.37275 0.03609 0.0
C539 C 0.92643 0.40596 0.00222 0.0
C540 C 0.94477 0.42409 0.00829 0.0
C541 C 0.96318 0.42365 0.01014 0.0
C542 C 0.96339 0.4056 0.00361 0.0
C543 C 0.9452 0.38758 0.99787 0.0
H544 H 0.885 0.36348 0.05055 0.0
H545 H 0.91104 0.38136 0.04218 0.0
H546 H 0.89016 0.38418 0.03123 0.0
H547 H 0.91217 0.40626 0.00198 0.0
H548 H 0.94419 0.43776 0.01355 0.0
H549 H 0.7598 0.60324 0.99592 0.0
H550 H 0.72428 0.59259 0.00633 0.0
H551 H 0.71063 0.52935 0.01286 0.0
H552 H 0.74623 0.53991 0.00265 0.0
H553 H 0.6859 0.54245 0.97845 0.0
H554 H 0.6897 0.56512 0.07012 0.0
H555 H 0.71026 0.58252 0.05162 0.0
H556 H 0.70715 0.55758 0.05796 0.0
C557 C 0.74932 0.58713 -2e-05 0.0
C558 C 0.75575 0.57239 0.99842 0.0
C559 C 0.7291 0.5811 0.00601 0.0
C560 C 0.71493 0.56022 0.01044 0.0
C561 C 0.72144 0.54556 0.00969 0.0
H562 H 0.58128 0.51696 0.02521 0.0
H563 H 0.61363 0.51623 0.02973 0.0
C564 C 0.74176 0.55163 0.00393 0.0
C565 C 0.69291 0.55358 0.01324 0.0
H566 H 0.65912 0.55699 0.04955 0.0
C567 C 0.67986 0.54512 0.99416 0.0
C568 C 0.6852 0.55723 0.03371 0.0
C569 C 0.69869 0.56601 0.05466 0.0
C570 C 0.65955 0.54121 0.99465 0.0
C571 C 0.6521 0.54576 0.01478 0.0
C572 C 0.66482 0.55327 0.03425 0.0
C573 C 0.63266 0.54627 0.01436 0.0
C574 C 0.64654 0.53347 0.9732 0.0
C575 C 0.63288 0.56354 0.00481 0.0
C576 C 0.61473 0.56409 0.0024 0.0
C577 C 0.59572 0.54726 0.00933 0.0
C578 C 0.59559 0.53017 0.01974 0.0
C579 C 0.61401 0.5297 0.02226 0.0
H580 H 0.65294 0.52698 0.96063 0.0
H581 H 0.63057 0.5214 0.97741 0.0
H582 H 0.64589 0.54656 0.96501 0.0
H583 H 0.64712 0.57648 0.99867 0.0
H584 H 0.61565 0.57763 0.99444 0.0
H585 H 0.42225 0.17169 0.0184 0.0
H586 H 0.43274 0.14555 0.02415 0.0
H587 H 0.48204 0.17762 0.97587 0.0
H588 H 0.47205 0.20395 0.97095 0.0
H589 H 0.43235 0.11934 0.99384 0.0
H590 H 0.51222 0.16679 0.02482 0.0
H591 H 0.49469 0.17667 0.02361 0.0
H592 H 0.50868 0.17689 0.99846 0.0
C593 C 0.43573 0.1734 0.00971 0.0
C594 C 0.44667 0.18992 0.99463 0.0
C595 C 0.44161 0.15843 0.0128 0.0
C596 C 0.4584 0.15974 0.00069 0.0
C597 C 0.46947 0.17654 0.98594 0.0
H598 H 0.46384 0.04524 0.98218 0.0
H599 H 0.46335 0.07696 0.9719 0.0
C600 C 0.46375 0.19156 0.98307 0.0
C601 C 0.46344 0.14283 0.00195 0.0
H602 H 0.50324 0.13355 0.00906 0.0
C603 C 0.44781 0.12239 0.99741 0.0
C604 C 0.48355 0.14675 0.00676 0.0
C605 C 0.50066 0.16794 0.01394 0.0
C606 C 0.45169 0.10578 0.99763 0.0
C607 C 0.47209 0.10985 0.00134 0.0
C608 C 0.4877 0.13036 0.00571 0.0
C609 C 0.47711 0.09293 0.00389 0.0
C610 C 0.43364 0.08408 0.99483 0.0
C611 C 0.48727 0.09231 0.02386 0.0
C612 C 0.48847 0.07471 0.02911 0.0
C613 C 0.47936 0.05728 0.01467 0.0
C614 C 0.47131 0.05866 0.99342 0.0
C615 C 0.47049 0.07656 0.98789 0.0
H616 H 0.4188 0.08343 0.99836 0.0
H617 H 0.43304 0.07877 0.97691 0.0
H618 H 0.435 0.0731 0.00651 0.0
H619 H 0.49276 0.1047 0.03645 0.0
H620 H 0.49441 0.07384 0.04578 0.0
H621 H 0.70921 0.15962 0.95492 0.0
H622 H 0.67448 0.13627 0.96861 0.0
H623 H 0.69584 0.15149 0.03853 0.0
H624 H 0.73088 0.17524 0.0248 0.0
H625 H 0.66169 0.10143 0.99793 0.0
H626 H 0.64576 0.16112 0.03487 0.0
H627 H 0.66641 0.16783 0.01485 0.0
H628 H 0.66877 0.16117 0.04375 0.0
C629 C 0.70652 0.15806 0.97322 0.0
C630 C 0.72268 0.16932 0.98877 0.0
C631 C 0.68669 0.14468 0.98102 0.0
C632 C 0.68254 0.14228 0.00456 0.0
C633 C 0.69867 0.15337 0.02027 0.0
H634 H 0.55419 0.05117 0.04372 0.0
H635 H 0.59066 0.07729 0.05024 0.0
C636 C 0.71866 0.16685 0.01242 0.0
C637 C 0.66119 0.12791 0.01208 0.0
H638 H 0.61791 0.12707 0.03164 0.0
C639 C 0.65223 0.10693 0.00582 0.0
C640 C 0.64888 0.13513 0.02239 0.0
C641 C 0.65779 0.15755 0.02933 0.0
C642 C 0.63109 0.09327 0.00838 0.0
C643 C 0.61857 0.1008 0.01726 0.0
C644 C 0.62764 0.12142 0.02488 0.0
C645 C 0.59593 0.0882 0.01528 0.0
C646 C 0.62201 0.0711 0.0003 0.0
C647 C 0.58679 0.08644 0.9938 0.0
C648 C 0.56621 0.07169 0.99009 0.0
C649 C 0.55431 0.05853 0.00785 0.0
C650 C 0.56297 0.06141 0.02989 0.0
C651 C 0.58378 0.07616 0.03358 0.0
H652 H 0.634 0.06668 0.9979 0.0
H653 H 0.61049 0.06033 0.01273 0.0
H654 H 0.61402 0.06914 0.98366 0.0
H655 H 0.59595 0.0956 0.9795 0.0
H656 H 0.55991 0.06964 0.97291 0.0
H657 H 0.82735 0.54335 0.02627 0.0
H658 H 0.84566 0.52529 0.03856 0.0
H659 H 0.89428 0.56146 0.991 0.0
H660 H 0.87627 0.57953 0.97885 0.0
H661 H 0.85963 0.50242 0.00835 0.0
H662 H 0.92369 0.56858 0.05441 0.0
H663 H 0.89908 0.5668 0.04942 0.0
H664 H 0.91781 0.5752 0.02694 0.0
C665 C 0.84195 0.54743 0.01851 0.0
C666 C 0.85052 0.56296 0.00174 0.0
C667 C 0.85238 0.53714 0.02556 0.0
C668 C 0.87148 0.54233 0.01597 0.0
C669 C 0.87979 0.55757 0.99898 0.0
H670 H 0.94831 0.50081 0.97697 0.0
H671 H 0.91895 0.50527 0.98503 0.0
C672 C 0.86946 0.56782 0.992 0.0
C673 C 0.88274 0.53156 0.02277 0.0
H674 H 0.93017 0.54184 0.04093 0.0
C675 C 0.87484 0.51082 0.01605 0.0
C676 C 0.90244 0.54244 0.03311 0.0
C677 C 0.91122 0.56444 0.04161 0.0
C678 C 0.88691 0.5013 0.01753 0.0
C679 C 0.90735 0.51287 0.02583 0.0
C680 C 0.91453 0.53297 0.03448 0.0
C681 C 0.92257 0.50604 0.02189 0.0
C682 C 0.87804 0.47928 0.00912 0.0
C683 C 0.93429 0.5047 0.03998 0.0
C684 C 0.95109 0.50191 0.03535 0.0
C685 C 0.95656 0.50093 0.01258 0.0
C686 C 0.94425 0.50133 0.99467 0.0
C687 C 0.92741 0.50379 0.99927 0.0
H688 H 0.86105 0.47047 0.01101 0.0
H689 H 0.88154 0.47939 0.99065 0.0
H690 H 0.88474 0.4711 0.01854 0.0
H691 H 0.93096 0.50668 0.05755 0.0
H692 H 0.9606 0.50199 0.04939 0.0
H693 H 0.46212 0.29135 0.02563 0.0
H694 H 0.47642 0.32829 0.03577 0.0
H695 H 0.48497 0.34402 0.96408 0.0
H696 H 0.47078 0.3076 0.95396 0.0
H697 H 0.51731 0.36408 0.0219 0.0
H698 H 0.45074 0.36963 0.98961 0.0
H699 H 0.44889 0.34527 0.9972 0.0
H700 H 0.45945 0.35701 0.97005 0.0
C701 C 0.46708 0.30275 0.01212 0.0
C702 C 0.46539 0.29669 0.98899 0.0
C703 C 0.47524 0.32378 0.01791 0.0
C704 C 0.48159 0.33881 0.00062 0.0
C705 C 0.47995 0.33265 0.97765 0.0
H706 H 0.51843 0.46644 0.98224 0.0
H707 H 0.51587 0.43263 0.97645 0.0
C708 C 0.4719 0.31185 0.97191 0.0
C709 C 0.49007 0.36109 0.00598 0.0
H710 H 0.48205 0.40139 0.99488 0.0
C711 C 0.50959 0.3723 0.01625 0.0
C712 C 0.47991 0.37169 0.99857 0.0
C713 C 0.4585 0.36028 0.98843 0.0
C714 C 0.51963 0.39405 0.01836 0.0
C715 C 0.50977 0.40475 0.01012 0.0
C716 C 0.48992 0.39333 0.00059 0.0
C717 C 0.51875 0.42757 0.01247 0.0
C718 C 0.5409 0.40533 0.02879 0.0
C719 C 0.523 0.43674 0.03433 0.0
C720 C 0.52503 0.45627 0.03748 0.0
C721 C 0.52239 0.46674 0.01895 0.0
C722 C 0.52093 0.45889 0.99673 0.0
C723 C 0.51908 0.43937 0.99351 0.0
H724 H 0.54883 0.39619 0.02703 0.0
H725 H 0.55051 0.42072 0.02079 0.0
H726 H 0.53964 0.40772 0.04737 0.0
H727 H 0.52249 0.42796 0.04929 0.0
H728 H 0.52579 0.46186 0.05484 0.0
H729 H 0.13689 0.71518 0.0321 0.0
H730 H 0.11888 0.67728 0.03014 0.0
H731 H 0.17415 0.67951 0.00598 0.0
H732 H 0.19237 0.71753 0.00818 0.0
H733 H 0.11277 0.65161 0.99221 0.0
H734 H 0.15733 0.63981 0.06108 0.0
H735 H 0.15808 0.66423 0.05717 0.0
H736 H 0.17184 0.65667 0.038 0.0
C737 C 0.14518 0.70758 0.02631 0.0
C738 C 0.16601 0.71926 0.02041 0.0
C739 C 0.1349 0.68595 0.02523 0.0
C740 C 0.14527 0.67557 0.01831 0.0
C741 C 0.16599 0.6872 0.01185 0.0
H742 H 0.07667 0.54518 0.98396 0.0
H743 H 0.10755 0.57866 0.9911 0.0
C744 C 0.17632 0.70892 0.01295 0.0
C745 C 0.13402 0.65256 0.01765 0.0
H746 H 0.13021 0.60971 0.0438 0.0
C747 C 0.1167 0.64246 0.00333 0.0
C748 C 0.13921 0.64066 0.0322 0.0
C749 C 0.15754 0.65081 0.04813 0.0
C750 C 0.10414 0.62084 0.00353 0.0
C751 C 0.109 0.60897 0.01847 0.0
C752 C 0.12659 0.61892 0.03241 0.0
C753 C 0.09495 0.58633 0.02029 0.0
C754 C 0.08536 0.61077 0.98817 0.0
C755 C 0.07841 0.57885 0.03559 0.0
C756 C 0.06078 0.55957 0.03163 0.0
C757 C 0.05959 0.54776 0.01228 0.0
C758 C 0.07737 0.55384 0.99923 0.0
C759 C 0.09497 0.57311 0.00314 0.0
H760 H 0.08331 0.62231 0.97823 0.0
H761 H 0.08669 0.60005 0.97594 0.0
H762 H 0.07136 0.60146 0.99857 0.0
H763 H 0.07812 0.5889 0.04888 0.0
H764 H 0.04716 0.55541 0.04166 0.0
H765 H 0.30944 0.46002 0.06472 0.0
H766 H 0.34444 0.47272 0.05119 0.0
H767 H 0.32396 0.46981 0.98143 0.0
H768 H 0.28864 0.45707 0.99498 0.0
H769 H 0.3573 0.45213 0.01999 0.0
H770 H 0.3745 0.52981 0.98926 0.0
H771 H 0.3537 0.51462 0.00871 0.0
H772 H 0.35116 0.50772 0.97891 0.0
C773 C 0.31239 0.46214 0.04648 0.0
C774 C 0.29638 0.45764 0.03092 0.0
C775 C 0.33238 0.4694 0.03879 0.0
C776 C 0.33683 0.47243 0.01535 0.0
C777 C 0.32087 0.46787 -0.00037 0.0
H778 H 0.45211 0.4863 0.96617 0.0
H779 H 0.41672 0.47977 0.96611 0.0
C780 C 0.30072 0.4605 0.00737 0.0
C781 C 0.35818 0.47975 0.00772 0.0
H782 H 0.4009 0.52152 0.98572 0.0
C783 C 0.36677 0.46719 0.01225 0.0
C784 C 0.37054 0.49955 0.99797 0.0
C785 C 0.36216 0.51386 0.99351 0.0
C786 C 0.38747 0.47396 0.00754 0.0
C787 C 0.39986 0.49373 0.99768 0.0
C788 C 0.39128 0.50629 0.99302 0.0
C789 C 0.42199 0.50171 0.99332 0.0
C790 C 0.39613 0.4602 0.0139 0.0
C791 C 0.43695 0.51731 0.00747 0.0
C792 C 0.45731 0.52144 0.00708 0.0
C793 C 0.46283 0.50988 0.99267 0.0
C794 C 0.44825 0.49561 0.97714 0.0
C795 C 0.42802 0.49173 0.97728 0.0
H796 H 0.3855 0.44709 0.02494 0.0
H797 H 0.39889 0.45365 0.99809 0.0
H798 H 0.41106 0.46927 0.02304 0.0
H799 H 0.43256 0.5251 0.02005 0.0
H800 H 0.46816 0.5321 0.01964 0.0
H801 H 0.52611 0.82359 0.06201 0.0
H802 H 0.51449 0.84843 0.05561 0.0
H803 H 0.55977 0.87746 0.00247 0.0
H804 H 0.57084 0.85181 0.00823 0.0
H805 H 0.53549 0.88836 0.06253 0.0
H806 H 0.51052 0.87422 0.97146 0.0
H807 H 0.51615 0.85687 0.98728 0.0
H808 H 0.53669 0.88053 0.97571 0.0
C809 C 0.53335 0.83506 0.04869 0.0
C810 C 0.54927 0.83575 0.03557 0.0
C811 C 0.52674 0.8493 0.04508 0.0
C812 C 0.53611 0.86478 0.02846 0.0
C813 C 0.55195 0.86539 0.01504 0.0
H814 H 0.53546 0.98003 0.02809 0.0
H815 H 0.54054 0.95134 0.03875 0.0
C816 C 0.55836 0.85082 0.01842 0.0
C817 C 0.52996 0.88086 0.02654 0.0
H818 H 0.51216 0.9037 0.98947 0.0
C819 C 0.53022 0.89157 0.04656 0.0
C820 C 0.52295 0.885 0.00578 0.0
C821 C 0.52135 0.87342 0.98388 0.0
C822 C 0.52367 0.90622 0.04646 0.0
C823 C 0.51724 0.91083 0.02559 0.0
C824 C 0.51694 0.90011 0.00554 0.0
C825 C 0.51191 0.92752 0.02373 0.0
C826 C 0.52341 0.91628 0.06886 0.0
C827 C 0.49381 0.92379 0.01237 0.0
C828 C 0.491 0.94035 0.00613 0.0
C829 C 0.50615 0.96078 0.01137 0.0
C830 C 0.52323 0.96432 0.02462 0.0
C831 C 0.52621 0.94787 0.03056 0.0
H832 H 0.52132 0.906 0.08358 0.0
H833 H 0.53838 0.93074 0.07132 0.0
H834 H 0.51097 0.9202 0.0692 0.0
H835 H 0.48257 0.90824 0.00688 0.0
H836 H 0.47806 0.93733 0.99525 0.0
H837 H 0.94712 0.15249 0.39179 0.0
H838 H 0.98223 0.17779 0.38061 0.0
H839 H 0.96038 0.18222 0.3136 0.0
H840 H 0.925 0.1568 0.32485 0.0
H841 H 0.0074 0.17833 0.34399 0.0
H842 H 0.98982 0.24255 0.33894 0.0
H843 H 0.97272 0.21815 0.35243 0.0
H844 H 0.97409 0.21986 0.32176 0.0
C845 C 0.94984 0.15871 0.3746 0.0
C846 C 0.93338 0.15282 0.35921 0.0
C847 C 0.96989 0.17312 0.36821 0.0
C848 C 0.97389 0.18209 0.34639 0.0
C849 C 0.95759 0.17565 0.33062 0.0
H850 H 0.09497 0.29018 0.31181 0.0
H851 H 0.06142 0.25861 0.30504 0.0
C852 C 0.93746 0.16104 0.33697 0.0
C853 C 0.99505 0.1988 0.34088 0.0
H854 H 0.02425 0.25129 0.33421 0.0
C855 C 0.01105 0.19422 0.34143 0.0
C856 C 0.9998 0.21957 0.33766 0.0
C857 C 0.98329 0.22549 0.33779 0.0
C858 C 0.03171 0.20995 0.33967 0.0
C859 C 0.03648 0.23075 0.33739 0.0
C860 C 0.02048 0.23526 0.33572 0.0
C861 C 0.05782 0.24822 0.34017 0.0
C862 C 0.0484 0.20436 0.34105 0.0
C863 C 0.06692 0.25257 0.362 0.0
C864 C 0.08576 0.27052 0.36589 0.0
C865 C 0.09603 0.28439 0.34797 0.0
C866 C 0.0875 0.27954 0.32579 0.0
C867 C 0.06833 0.26165 0.32197 0.0
H868 H 0.04235 0.18763 0.33743 0.0
H869 H 0.0609 0.21369 0.32877 0.0
H870 H 0.05514 0.20784 0.35857 0.0
H871 H 0.05896 0.24254 0.3763 0.0
H872 H 0.09197 0.274 0.38317 0.0
H873 H 0.84049 0.74775 0.33998 0.0
H874 H 0.81387 0.75622 0.32927 0.0
H875 H 0.84748 0.81472 0.36519 0.0
H876 H 0.87429 0.80648 0.37519 0.0
H877 H 0.79059 0.76225 0.36043 0.0
H878 H 0.83173 0.83279 0.30718 0.0
H879 H 0.84219 0.81613 0.31331 0.0
H880 H 0.84381 0.83464 0.33434 0.0
C881 C 0.84242 0.76269 0.34483 0.0
C882 C 0.8595 0.77672 0.35789 0.0
C883 C 0.82723 0.76747 0.33887 0.0
C884 C 0.82886 0.78628 0.34609 0.0
C885 C 0.8462 0.80045 0.3588 0.0
H886 H 0.74266 0.8317 0.3538 0.0
H887 H 0.77411 0.82928 0.35264 0.0
C888 C 0.86147 0.79574 0.36454 0.0
C889 C 0.81146 0.79007 0.34243 0.0
H890 H 0.79837 0.82431 0.3202 0.0
C891 C 0.79224 0.7757 0.3514 0.0
C892 C 0.81375 0.80785 0.33106 0.0
C893 C 0.83394 0.82366 0.32075 0.0
C894 C 0.77529 0.77868 0.34953 0.0
C895 C 0.77745 0.79626 0.33777 0.0
C896 C 0.79671 0.81076 0.32899 0.0
C897 C 0.75981 0.79976 0.33472 0.0
C898 C 0.75539 0.76323 0.3608 0.0
C899 C 0.74177 0.78463 0.32384 0.0
C900 C 0.72389 0.78591 0.3247 0.0
C901 C 0.7239 0.80264 0.33585 0.0
C902 C 0.74242 0.81884 0.34476 0.0
C903 C 0.7603 0.81736 0.34427 0.0
H904 H 0.75795 0.75435 0.3744 0.0
H905 H 0.74754 0.77105 0.36852 0.0
H906 H 0.74497 0.75195 0.34774 0.0
H907 H 0.74121 0.7712 0.31584 0.0
H908 H 0.70971 0.77318 0.31787 0.0
H909 H 0.20649 0.07626 0.35532 0.0
H910 H 0.19552 0.0395 0.34921 0.0
H911 H 0.25852 0.05377 0.35459 0.0
H912 H 0.26961 0.09047 0.36037 0.0
H913 H 0.21438 0.0178 0.31627 0.0
H914 H 0.22119 0.01332 0.41082 0.0
H915 H 0.21702 0.03281 0.39754 0.0
H916 H 0.24183 0.0349 0.39619 0.0
C917 C 0.21805 0.07167 0.3543 0.0
C918 C 0.23888 0.08618 0.35848 0.0
C919 C 0.21176 0.05067 0.35102 0.0
C920 C 0.22621 0.04398 0.35188 0.0
C921 C 0.24715 0.05867 0.35411 0.0
H922 H 0.23835 0.93803 0.35983 0.0
H923 H 0.23719 0.96946 0.36864 0.0
C924 C 0.25345 0.0796 0.35732 0.0
C925 C 0.21945 0.02162 0.35262 0.0
H926 H 0.21477 0.98379 0.38909 0.0
C927 C 0.21413 0.01019 0.33216 0.0
C928 C 0.21937 0.01195 0.37343 0.0
C929 C 0.22504 0.02376 0.39584 0.0
C930 C 0.20951 0.98942 0.3318 0.0
C931 C 0.20957 0.97967 0.35266 0.0
C932 C 0.21439 0.99109 0.3732 0.0
C933 C 0.20732 0.95865 0.353 0.0
C934 C 0.20585 0.97857 0.30891 0.0
C935 C 0.19015 0.9414 0.3431 0.0
C936 C 0.1908 0.92329 0.33813 0.0
C937 C 0.20847 0.92219 0.3434 0.0
C938 C 0.2244 0.93838 0.356 0.0
C939 C 0.22384 0.95647 0.36078 0.0
H940 H 0.21079 0.98962 0.2944 0.0
H941 H 0.21424 0.96984 0.30787 0.0
H942 H 0.18919 0.96741 0.30673 0.0
H943 H 0.17697 0.94251 0.33754 0.0
H944 H 0.1785 0.91116 0.32803 0.0
H945 H 0.52259 0.58935 0.32769 0.0
H946 H 0.54735 0.62626 0.33339 0.0
H947 H 0.49775 0.63964 0.33343 0.0
H948 H 0.47288 0.6027 0.32753 0.0
H949 H 0.53134 0.66263 0.30026 0.0
H950 H 0.55927 0.66593 0.38947 0.0
H951 H 0.55837 0.64601 0.37116 0.0
H952 H 0.53487 0.64499 0.37933 0.0
C953 C 0.51694 0.60012 0.32948 0.0
C954 C 0.49581 0.59318 0.32719 0.0
C955 C 0.53109 0.62117 0.33272 0.0
C956 C 0.52436 0.63565 0.33377 0.0
C957 C 0.50321 0.62867 0.33265 0.0
H958 H 0.60545 0.76325 0.37132 0.0
H959 H 0.57326 0.73141 0.36248 0.0
C960 C 0.48902 0.60757 0.32954 0.0
C961 C 0.53948 0.65816 0.33432 0.0
H962 H 0.57717 0.69624 0.3672 0.0
C963 C 0.54123 0.67009 0.31497 0.0
C964 C 0.55246 0.66771 0.35343 0.0
C965 C 0.55115 0.6556 0.37463 0.0
C966 C 0.55583 0.69137 0.31416 0.0
C967 C 0.56887 0.70092 0.33326 0.0
C968 C 0.56696 0.68896 0.35266 0.0
C969 C 0.58543 0.72302 0.33342 0.0
C970 C 0.55722 0.70342 0.29291 0.0
C971 C 0.60244 0.72968 0.3189 0.0
C972 C 0.62072 0.74816 0.32369 0.0
C973 C 0.62226 0.76 0.34318 0.0
C974 C 0.6045 0.75467 0.35588 0.0
C975 C 0.5862 0.73627 0.35106 0.0
H976 H 0.54298 0.69533 0.28234 0.0
H977 H 0.56009 0.71916 0.29739 0.0
H978 H 0.57024 0.70519 0.28233 0.0
H979 H 0.60235 0.71962 0.30541 0.0
H980 H 0.63437 0.75163 0.31404 0.0
H981 H 0.40884 0.89653 0.29458 0.0
H982 H 0.37405 0.88657 0.30632 0.0
H983 H 0.39459 0.90203 0.37648 0.0
H984 H 0.42994 0.91261 0.36461 0.0
H985 H 0.34827 0.85656 0.33721 0.0
H986 H 0.36558 0.93564 0.36398 0.0
H987 H 0.38334 0.93138 0.3473 0.0
H988 H 0.38038 0.92558 0.37732 0.0
C989 C 0.40604 0.89798 0.31251 0.0
C990 C 0.42219 0.90567 0.32863 0.0
C991 C 0.3861 0.89212 0.31922 0.0
C992 C 0.38175 0.89378 0.34222 0.0
C993 C 0.39768 0.90092 0.35858 0.0
H994 H 0.2578 0.87335 0.3767 0.0
H995 H 0.29109 0.87513 0.38384 0.0
C996 C 0.41779 0.90679 0.35183 0.0
C997 C 0.36044 0.88818 0.34844 0.0
H998 H 0.33092 0.9095 0.36291 0.0
C999 C 0.34449 0.86803 0.34332 0.0
C1000 C 0.35553 0.90317 0.35635 0.0
C1001 C 0.37203 0.92522 0.36146 0.0
C1002 C 0.3238 0.86277 0.34471 0.0
C1003 C 0.31892 0.87803 0.35142 0.0
C1004 C 0.33476 0.8978 0.35797 0.0
C1005 C 0.29801 0.87489 0.34791 0.0
C1006 C 0.30728 0.8412 0.33792 0.0
C1007 C 0.29096 0.87401 0.32546 0.0
C1008 C 0.27232 0.87326 0.32142 0.0
C1009 C 0.26021 0.87318 0.33974 0.0
C1010 C 0.26679 0.87319 0.36232 0.0
C1011 C 0.28578 0.87431 0.36638 0.0
H1012 H 0.31284 0.82993 0.33919 0.0
H1013 H 0.29348 0.83585 0.34884 0.0
H1014 H 0.30263 0.84132 0.31988 0.0
H1015 H 0.30026 0.87466 0.31099 0.0
H1016 H 0.26758 0.87324 0.30385 0.0
H1017 H 0.0857 0.5014 0.3441 0.0
H1018 H 0.09529 0.47462 0.34839 0.0
H1019 H 0.15607 0.51717 0.32343 0.0
H1020 H 0.14658 0.54414 0.31973 0.0
H1021 H 0.10607 0.4606 0.30962 0.0
H1022 H 0.16834 0.48807 0.37523 0.0
H1023 H 0.15139 0.49865 0.37299 0.0
H1024 H 0.1719 0.50607 0.35288 0.0
C1025 C 0.10136 0.50524 0.34052 0.0
C1026 C 0.11552 0.52482 0.33192 0.0
C1027 C 0.10679 0.48993 0.34275 0.0
C1028 C 0.12641 0.49388 0.33624 0.0
C1029 C 0.14099 0.51387 0.32896 0.0
H1030 H 0.16512 0.39936 0.33905 0.0
H1031 H 0.16599 0.43162 0.3271 0.0
C1032 C 0.1356 0.52929 0.32694 0.0
C1033 C 0.1305 0.47639 0.33436 0.0
H1034 H 0.15939 0.45668 0.35612 0.0
C1035 C 0.11784 0.45982 0.31969 0.0
C1036 C 0.14616 0.47559 0.34704 0.0
C1037 C 0.16018 0.49295 0.36306 0.0
C1038 C 0.11983 0.44213 0.31804 0.0
C1039 C 0.13465 0.44072 0.33178 0.0
C1040 C 0.14809 0.45777 0.34551 0.0
C1041 C 0.13403 0.42063 0.33512 0.0
C1042 C 0.10565 0.42494 0.3019 0.0
C1043 C 0.11579 0.40372 0.34302 0.0
C1044 C 0.11525 0.38553 0.34943 0.0
C1045 C 0.13303 0.38379 0.3486 0.0
C1046 C 0.15116 0.40023 0.3396 0.0
C1047 C 0.15169 0.41867 0.33302 0.0
H1048 H 0.10174 0.43128 0.28672 0.0
H1049 H 0.11256 0.41562 0.29593 0.0
H1050 H 0.09105 0.41456 0.31083 0.0
H1051 H 0.10213 0.40492 0.34547 0.0
H1052 H 0.10102 0.37314 0.35632 0.0
H1053 H 0.39658 0.51844 0.35605 0.0
H1054 H 0.36131 0.49851 0.37095 0.0
H1055 H 0.34269 0.46013 0.31017 0.0
H1056 H 0.3776 0.47992 0.29522 0.0
H1057 H 0.32299 0.49167 0.34653 0.0
H1058 H 0.32351 0.4191 0.36597 0.0
H1059 H 0.34678 0.44398 0.36386 0.0
H1060 H 0.33369 0.42987 0.33835 0.0
C1061 C 0.38497 0.50568 0.34597 0.0
C1062 C 0.3898 0.50067 0.32447 0.0
C1063 C 0.36486 0.49436 0.35447 0.0
C1064 C 0.34947 0.47775 0.34173 0.0
C1065 C 0.35439 0.47272 0.32038 0.0
H1066 H 0.22236 0.41019 0.32084 0.0
H1067 H 0.25768 0.43847 0.32551 0.0
C1068 C 0.37431 0.48408 0.31185 0.0
C1069 C 0.32802 0.46579 0.35005 0.0
H1070 H 0.29058 0.41637 0.36205 0.0
C1071 C 0.31593 0.47529 0.35042 0.0
C1072 C 0.31891 0.44451 0.35533 0.0
C1073 C 0.3314 0.43374 0.35609 0.0
C1074 C 0.29466 0.46375 0.35459 0.0
C1075 C 0.28525 0.44211 0.35822 0.0
C1076 C 0.29766 0.43293 0.35924 0.0
C1077 C 0.26251 0.4282 0.35843 0.0
C1078 C 0.28246 0.4748 0.35455 0.0
C1079 C 0.25309 0.41318 0.37562 0.0
C1080 C 0.23281 0.39691 0.37286 0.0
C1081 C 0.22163 0.3955 0.35296 0.0
C1082 C 0.23045 0.41137 0.3367 0.0
C1083 C 0.25072 0.42754 0.33936 0.0
H1084 H 0.29212 0.4912 0.36019 0.0
H1085 H 0.27708 0.4749 0.33684 0.0
H1086 H 0.26885 0.46705 0.36588 0.0
H1087 H 0.2619 0.41324 0.39039 0.0
H1088 H 0.22654 0.38448 0.38526 0.0
H1089 H 0.50165 0.88621 0.36238 0.0
H1090 H 0.52427 0.87357 0.37686 0.0
H1091 H 0.54996 0.88007 0.30941 0.0
H1092 H 0.52745 0.89237 0.2949 0.0
H1093 H 0.52728 0.83668 0.35404 0.0
H1094 H 0.59971 0.91279 0.3574 0.0
H1095 H 0.5746 0.91042 0.3595 0.0
H1096 H 0.58407 0.90791 0.33217 0.0
C1097 C 0.51219 0.88499 0.35073 0.0
C1098 C 0.51285 0.89025 0.32751 0.0
C1099 C 0.52504 0.87777 0.35899 0.0
C1100 C 0.53883 0.87605 0.34419 0.0
C1101 C 0.53953 0.88145 0.32112 0.0
H1102 H 0.61403 0.82861 0.31492 0.0
H1103 H 0.58567 0.83533 0.32086 0.0
C1104 C 0.52665 0.88843 0.31286 0.0
C1105 C 0.55233 0.86815 0.35221 0.0
H1106 H 0.60305 0.88253 0.35692 0.0
C1107 C 0.54381 0.84672 0.35531 0.0
C1108 C 0.57387 0.8813 0.35371 0.0
C1109 C 0.58368 0.90443 0.35069 0.0
C1110 C 0.55646 0.83799 0.35843 0.0
C1111 C 0.57802 0.85105 0.35863 0.0
C1112 C 0.58647 0.87258 0.35696 0.0
C1113 C 0.59213 0.84265 0.3569 0.0
C1114 C 0.54687 0.81481 0.36033 0.0
C1115 C 0.60473 0.84393 0.37543 0.0
C1116 C 0.6208 0.83973 0.37212 0.0
C1117 C 0.6245 0.83454 0.3502 0.0
C1118 C 0.61115 0.83217 0.33207 0.0
C1119 C 0.59503 0.83608 0.33542 0.0
H1120 H 0.53012 0.80714 0.36378 0.0
H1121 H 0.54915 0.80852 0.34402 0.0
H1122 H 0.55448 0.81087 0.3742 0.0
H1123 H 0.6028 0.84921 0.39207 0.0
H1124 H 0.63123 0.8421 0.38618 0.0
H1125 H 0.13776 0.62741 0.35496 0.0
H1126 H 0.15303 0.66459 0.36442 0.0
H1127 H 0.13396 0.67502 0.2984 0.0
H1128 H 0.11893 0.63836 0.28894 0.0
H1129 H 0.18481 0.6993 0.33678 0.0
H1130 H 0.11285 0.70216 0.34543 0.0
H1131 H 0.11371 0.67846 0.34835 0.0
H1132 H 0.1132 0.68824 0.32038 0.0
C1133 C 0.13672 0.63767 0.34263 0.0
C1134 C 0.12725 0.6301 0.32118 0.0
C1135 C 0.14546 0.65885 0.348 0.0
C1136 C 0.14449 0.67248 0.33212 0.0
C1137 C 0.13468 0.66474 0.31097 0.0
H1138 H 0.1728 0.79702 0.31375 0.0
H1139 H 0.16882 0.7629 0.30588 0.0
C1140 C 0.12617 0.64381 0.30557 0.0
C1141 C 0.15427 0.69503 0.33671 0.0
H1142 H 0.14336 0.73427 0.33786 0.0
C1143 C 0.17582 0.70702 0.33735 0.0
C1144 C 0.14246 0.70497 0.33748 0.0
C1145 C 0.11926 0.6928 0.33811 0.0
C1146 C 0.18589 0.72884 0.33751 0.0
C1147 C 0.17403 0.73877 0.3371 0.0
C1148 C 0.15247 0.72667 0.33747 0.0
C1149 C 0.18327 0.76167 0.33755 0.0
C1150 C 0.20906 0.74103 0.33741 0.0
C1151 C 0.1943 0.77303 0.35693 0.0
C1152 C 0.19692 0.7927 0.36115 0.0
C1153 C 0.18827 0.80108 0.34626 0.0
C1154 C 0.17995 0.79108 0.32528 0.0
C1155 C 0.17735 0.77139 0.321 0.0
H1156 H 0.21568 0.73145 0.33137 0.0
H1157 H 0.21479 0.75491 0.32636 0.0
H1158 H 0.21474 0.74635 0.35512 0.0
H1159 H 0.1988 0.76585 0.37009 0.0
H1160 H 0.20305 0.79996 0.37765 0.0
H1161 H 0.85545 0.05126 0.3326 0.0
H1162 H 0.83497 0.0136 0.32467 0.0
H1163 H 0.79331 0.00723 0.37883 0.0
H1164 H 0.81336 0.04425 0.38666 0.0
H1165 H 0.82578 0.98069 0.35801 0.0
H1166 H 0.75513 0.97689 0.32405 0.0
H1167 H 0.7797 1.00061 0.32457 0.0
H1168 H 0.76408 0.99204 0.34989 0.0
C1169 C 0.84172 0.04178 0.34248 0.0
C1170 C 0.83591 0.05058 0.36022 0.0
C1171 C 0.83014 0.02034 0.33805 0.0
C1172 C 0.81254 0.00769 0.35108 0.0
C1173 C 0.80663 0.0167 0.36836 0.0
H1174 H 0.71506 0.88786 0.37717 0.0
H1175 H 0.7456 0.92192 0.38265 0.0
C1176 C 0.81815 0.03786 0.37285 0.0
C1177 C 0.8005 0.98488 0.3479 0.0
H1178 H 0.75106 0.94562 0.34083 0.0
C1179 C 0.80952 0.97293 0.35381 0.0
C1180 C 0.77932 0.97483 0.34238 0.0
C1181 C 0.76903 0.98675 0.33464 0.0
C1182 C 0.79757 0.9512 0.3557 0.0
C1183 C 0.77616 0.94136 0.35164 0.0
C1184 C 0.76741 0.95326 0.34455 0.0
C1185 C 0.76219 0.91872 0.35418 0.0
C1186 C 0.80764 0.93896 0.36286 0.0
C1187 C 0.76218 0.90495 0.33771 0.0
C1188 C 0.7448 0.88529 0.33486 0.0
C1189 C 0.72718 0.87939 0.34817 0.0
C1190 C 0.72854 0.89186 0.36694 0.0
C1191 C 0.74589 0.91152 0.36981 0.0
H1192 H 0.82375 0.94915 0.36876 0.0
H1193 H 0.79877 0.92808 0.37682 0.0
H1194 H 0.80775 0.92959 0.34809 0.0
H1195 H 0.77449 0.91021 0.32534 0.0
H1196 H 0.74399 0.87611 0.32001 0.0
H1197 H 0.95645 0.79333 0.32985 0.0
H1198 H 0.9911 0.80538 0.31455 0.0
H1199 H 0.01318 0.80463 0.38264 0.0
H1200 H 0.97884 0.79275 0.39799 0.0
H1201 H 0.03086 0.8437 0.33208 0.0
H1202 H 0.02911 0.76851 0.33975 0.0
H1203 H 0.00601 0.77026 0.33767 0.0
H1204 H 0.01992 0.77604 0.36431 0.0
C1205 C 0.96871 0.79572 0.34151 0.0
C1206 C 0.96504 0.79211 0.36512 0.0
C1207 C 0.98844 0.80261 0.33276 0.0
C1208 C 0.00456 0.80572 0.34749 0.0
C1209 C 1.00085 0.80213 0.371 0.0
H1210 H 0.13031 0.86155 0.36675 0.0
H1211 H 0.09514 0.85481 0.36142 0.0
C1212 C 0.98128 0.79539 0.37973 0.0
C1213 C 0.0255 0.81298 0.33876 0.0
H1214 H 0.06213 0.79879 0.33596 0.0
C1215 C 0.03764 0.83383 0.33241 0.0
C1216 C 0.0342 0.8 0.33916 0.0
C1217 C 0.02163 0.77739 0.34541 0.0
C1218 C 0.0587 0.84234 0.32784 0.0
C1219 C 0.06764 0.82963 0.32961 0.0
C1220 C 0.05519 0.80849 0.33455 0.0
C1221 C 0.09016 0.83823 0.32934 0.0
C1222 C 0.07145 0.86497 0.32193 0.0
C1223 C 0.09918 0.83166 0.31271 0.0
C1224 C 0.11936 0.83569 0.31567 0.0
C1225 C 0.13062 0.84622 0.33531 0.0
C1226 C 0.12207 0.85395 0.35113 0.0
C1227 C 0.10198 0.85004 0.34813 0.0
H1228 H 0.06171 0.87153 0.31642 0.0
H1229 H 0.08046 0.87375 0.33723 0.0
H1230 H 0.08247 0.86723 0.30808 0.0
H1231 H 0.09018 0.82229 0.29827 0.0
H1232 H 0.12555 0.82915 0.3036 0.0
H1233 H 0.21943 0.18525 0.40629 0.0
H1234 H 0.20593 0.20783 0.39578 0.0
H1235 H 0.20324 0.19015 0.32484 0.0
H1236 H 0.21699 0.16732 0.33535 0.0
H1237 H 0.22417 0.24158 0.36127 0.0
H1238 H 0.14356 0.17979 0.34243 0.0
H1239 H 0.16058 0.1747 0.35964 0.0
H1240 H 0.16456 0.17841 0.32937 0.0
C1241 C 0.21597 0.18614 0.38843 0.0
C1242 C 0.21913 0.17447 0.37167 0.0
C1243 C 0.20826 0.19904 0.38247 0.0
C1244 C 0.20336 0.20044 0.35963 0.0
C1245 C 0.2067 0.18903 0.34263 0.0
H1246 H 0.15725 0.27699 0.30603 0.0
H1247 H 0.16002 0.24641 0.31427 0.0
C1248 C 0.21462 0.17611 0.34862 0.0
C1249 C 0.19509 0.21428 0.35416 0.0
H1250 H 0.15037 0.21431 0.34323 0.0
C1251 C 0.20807 0.23566 0.35719 0.0
C1252 C 0.17414 0.20646 0.3486 0.0
C1253 C 0.15976 0.18358 0.34484 0.0
C1254 C 0.20061 0.24949 0.35523 0.0
C1255 C 0.17935 0.24161 0.35109 0.0
C1256 C 0.1665 0.22025 0.34716 0.0
C1257 C 0.17081 0.25574 0.34908 0.0
C1258 C 0.21575 0.27245 0.35716 0.0
C1259 C 0.17383 0.27001 0.36667 0.0
C1260 C 0.17225 0.28759 0.36193 0.0
C1261 C 0.16733 0.29077 0.33969 0.0
C1262 C 0.16093 0.27475 0.32339 0.0
C1263 C 0.16274 0.25735 0.328 0.0
H1264 H 0.23179 0.276 0.35418 0.0
H1265 H 0.21208 0.28135 0.34465 0.0
H1266 H 0.21507 0.27793 0.37467 0.0
H1267 H 0.17949 0.2687 0.38331 0.0
H1268 H 0.1775 0.29984 0.37468 0.0
H1269 H 0.60943 0.46599 0.68568 0.0
H1270 H 0.64462 0.49241 0.67562 0.0
H1271 H 0.6272 0.53945 0.6783 0.0
H1272 H 0.59212 0.5132 0.68858 0.0
H1273 H 0.66305 0.52314 0.64082 0.0
H1274 H 0.67228 0.55786 0.72749 0.0
H1275 H 0.65085 0.53275 0.71997 0.0
H1276 H 0.65092 0.556 0.71158 0.0
C1277 C 0.61302 0.4819 0.68364 0.0
C1278 C 0.59813 0.48761 0.68822 0.0
C1279 C 0.63312 0.49697 0.67796 0.0
C1280 C 0.6386 0.51792 0.67672 0.0
C1281 C 0.62339 0.52342 0.67969 0.0
H1282 H 0.74177 0.6359 0.65452 0.0
H1283 H 0.70951 0.60298 0.65074 0.0
C1284 C 0.60338 0.50842 0.68552 0.0
C1285 C 0.66043 0.53425 0.67409 0.0
H1286 H 0.69891 0.57706 0.7008 0.0
C1287 C 0.67098 0.53483 0.65399 0.0
C1288 C 0.67083 0.54931 0.69146 0.0
C1289 C 0.66073 0.54889 0.71394 0.0
C1290 C 0.69141 0.55068 0.65048 0.0
C1291 C 0.70141 0.56609 0.66748 0.0
C1292 C 0.69111 0.56513 0.68781 0.0
C1293 C 0.72194 0.58446 0.66405 0.0
C1294 C 0.70214 0.55128 0.6285 0.0
C1295 C 0.73978 0.58474 0.67192 0.0
C1296 C 0.75839 0.60358 0.67378 0.0
C1297 C 0.75912 0.62226 0.66818 0.0
C1298 C 0.74158 0.62166 0.65877 0.0
C1299 C 0.72317 0.6029 0.65664 0.0
H1300 H 0.69261 0.53762 0.61734 0.0
H1301 H 0.70582 0.5656 0.61898 0.0
H1302 H 0.7169 0.55188 0.63241 0.0
H1303 H 0.73898 0.57064 0.67801 0.0
H1304 H 0.77163 0.60374 0.68144 0.0
H1305 H 0.52459 0.1241 0.72856 0.0
H1306 H 0.49908 0.13341 0.7169 0.0
H1307 H 0.49617 0.10805 0.64948 0.0
H1308 H 0.52179 0.09835 0.66134 0.0
H1309 H 0.49969 0.15892 0.68155 0.0
H1310 H 0.43571 0.07743 0.67136 0.0
H1311 H 0.45942 0.08386 0.68593 0.0
H1312 H 0.45869 0.08475 0.65523 0.0
C1313 C 0.51855 0.12053 0.71122 0.0
C1314 C 0.52497 0.11032 0.6959 0.0
C1315 C 0.50404 0.12593 0.70455 0.0
C1316 C 0.49554 0.12122 0.68243 0.0
C1317 C 0.50236 0.11158 0.66675 0.0
H1318 H 0.38974 0.13741 0.64675 0.0
H1319 H 0.42078 0.13474 0.64038 0.0
C1320 C 0.51706 0.10621 0.67344 0.0
C1321 C 0.47926 0.12616 0.67647 0.0
H1322 H 0.42741 0.10378 0.66792 0.0
C1323 C 0.48395 0.1469 0.67811 0.0
C1324 C 0.4587 0.11043 0.67217 0.0
C1325 C 0.45266 0.08783 0.67119 0.0
C1326 C 0.46853 0.15224 0.67648 0.0
C1327 C 0.44791 0.13645 0.67311 0.0
C1328 C 0.44331 0.11585 0.67027 0.0
C1329 C 0.43068 0.14057 0.67583 0.0
C1330 C 0.47423 0.17462 0.67928 0.0
C1331 C 0.42625 0.145 0.69774 0.0
C1332 C 0.40859 0.14628 0.70141 0.0
C1333 C 0.39512 0.14338 0.68319 0.0
C1334 C 0.40006 0.13999 0.66099 0.0
C1335 C 0.41765 0.13833 0.65738 0.0
H1336 H 0.49085 0.1853 0.67612 0.0
H1337 H 0.46508 0.17852 0.66742 0.0
H1338 H 0.47082 0.17725 0.69707 0.0
H1339 H 0.436 0.14656 0.71223 0.0
H1340 H 0.40507 0.14884 0.71869 0.0
H1341 H 0.88557 0.40525 0.7318 0.0
H1342 H 0.8752 0.36922 0.72416 0.0
H1343 H 0.89559 0.38449 0.65424 0.0
H1344 H 0.907 0.42124 0.6623 0.0
H1345 H 0.84895 0.33984 0.69628 0.0
H1346 H 0.92861 0.35851 0.67538 0.0
H1347 H 0.92298 0.3777 0.6866 0.0
H1348 H 0.91815 0.37018 0.6569 0.0
C1349 C 0.88771 0.40092 0.71471 0.0
C1350 C 0.89738 0.41604 0.69772 0.0
C1351 C 0.8817 0.38029 0.71034 0.0
C1352 C 0.88498 0.37416 0.68878 0.0
C1353 C 0.89338 0.38896 0.67119 0.0
H1354 H 0.84884 0.24852 0.64842 0.0
H1355 H 0.84646 0.27943 0.6571 0.0
C1356 C 0.89963 0.40986 0.67567 0.0
C1357 C 0.88042 0.35244 0.68567 0.0
H1358 H 0.90303 0.32329 0.67514 0.0
C1359 C 0.86074 0.33621 0.69148 0.0
C1360 C 0.89593 0.34773 0.67984 0.0
C1361 C 0.91765 0.36441 0.67452 0.0
C1362 C 0.85623 0.31549 0.69188 0.0
C1363 C 0.87168 0.31085 0.68596 0.0
C1364 C 0.89124 0.32697 0.67981 0.0
C1365 C 0.86801 0.28937 0.68545 0.0
C1366 C 0.83523 0.29876 0.69932 0.0
C1367 C 0.87987 0.28403 0.69945 0.0
C1368 C 0.88094 0.26619 0.69473 0.0
C1369 C 0.87033 0.2536 0.67584 0.0
C1370 C 0.85669 0.25768 0.66348 0.0
C1371 C 0.85552 0.27548 0.66827 0.0
H1372 H 0.82637 0.30529 0.70756 0.0
H1373 H 0.82644 0.28952 0.68413 0.0
H1374 H 0.83657 0.28808 0.71152 0.0
H1375 H 0.88967 0.29459 0.71276 0.0
H1376 H 0.89199 0.26366 0.70407 0.0
H1377 H 0.18904 0.92194 0.66618 0.0
H1378 H 0.2154 0.95857 0.66953 0.0
H1379 H 0.1686 0.97577 0.66418 0.0
H1380 H 0.14211 0.93901 0.66082 0.0
H1381 H 0.21924 0.98593 0.63161 0.0
H1382 H 0.2086 0.01421 0.7161 0.0
H1383 H 0.19995 0.98715 0.71065 0.0
H1384 H 0.18605 0.99874 0.69878 0.0
C1385 C 0.18432 0.93351 0.66654 0.0
C1386 C 0.16356 0.92768 0.66327 0.0
C1387 C 0.19938 0.95442 0.6683 0.0
C1388 C 0.19396 0.96988 0.66698 0.0
C1389 C 0.17308 0.96406 0.66545 0.0
H1390 H 0.28112 0.10293 0.67797 0.0
H1391 H 0.24886 0.07162 0.66698 0.0
C1392 C 0.15795 0.94307 0.66369 0.0
C1393 C 0.21032 0.99186 0.66453 0.0
H1394 H 0.23454 0.03855 0.69229 0.0
C1395 C 0.22252 0.99752 0.64479 0.0
C1396 C 0.2143 0.00698 0.68153 0.0
C1397 C 0.20167 0.00159 0.70307 0.0
C1398 C 0.23894 0.01779 0.64179 0.0
C1399 C 0.24368 0.03276 0.65933 0.0
C1400 C 0.23092 0.02723 0.67872 0.0
C1401 C 0.26314 0.0532 0.6595 0.0
C1402 C 0.25102 0.0228 0.61984 0.0
C1403 C 0.28202 0.05375 0.65755 0.0
C1404 C 0.30036 0.0717 0.6632 0.0
C1405 C 0.30023 0.08937 0.67145 0.0
C1406 C 0.28169 0.08966 0.6712 0.0
C1407 C 0.26322 0.07163 0.66532 0.0
H1408 H 0.24096 0.0136 0.60528 0.0
H1409 H 0.25837 0.03951 0.6156 0.0
H1410 H 0.26315 0.01852 0.62163 0.0
H1411 H 0.28255 0.03979 0.65374 0.0
H1412 H 0.31441 0.07096 0.66365 0.0
H1413 H 0.09729 0.24968 0.69901 0.0
H1414 H 0.06205 0.23909 0.71141 0.0
H1415 H 0.03929 0.21487 0.64369 0.0
H1416 H 0.07407 0.2251 0.63142 0.0
H1417 H 0.03622 0.25278 0.69125 0.0
H1418 H 1.00013 0.16743 0.68536 0.0
H1419 H 0.02766 0.18441 0.68693 0.0
H1420 H 0.01422 0.1803 0.6601 0.0
C1421 C 0.08465 0.24177 0.68698 0.0
C1422 C 0.08836 0.23826 0.66426 0.0
C1423 C 0.06461 0.23581 0.69402 0.0
C1424 C 0.04804 0.22592 0.67855 0.0
C1425 C 0.05176 0.22209 0.65604 0.0
H1426 H 0.92861 0.19721 0.64624 0.0
H1427 H 0.96176 0.19915 0.65216 0.0
C1428 C 0.07167 0.22812 0.64899 0.0
C1429 C 0.02695 0.22078 0.68504 0.0
H1430 H 0.97714 0.1812 0.68339 0.0
C1431 C 0.0233 0.23708 0.69016 0.0
C1432 C 0.01016 0.20029 0.68345 0.0
C1433 C 0.01323 0.18208 0.67887 0.0
C1434 C 0.00318 0.23362 0.69217 0.0
C1435 C 0.98633 0.21323 0.68947 0.0
C1436 C 0.99006 0.1968 0.68555 0.0
C1437 C 0.96491 0.2091 0.68758 0.0
C1438 C 1.00009 0.25198 0.69555 0.0
C1439 C 0.95526 0.21324 0.70582 0.0
C1440 C 0.93616 0.21198 0.70246 0.0
C1441 C 0.92655 0.20644 0.68089 0.0
C1442 C 0.93565 0.20117 0.66312 0.0
C1443 C 0.95461 0.20237 0.66647 0.0
H1444 H 0.01464 0.26698 0.69371 0.0
H1445 H 0.9887 0.25147 0.68298 0.0
H1446 H 0.99401 0.25144 0.71298 0.0
H1447 H 0.96287 0.21823 0.72232 0.0
H1448 H 0.92952 0.21647 0.71622 0.0
H1449 H 0.75822 0.84088 0.6884 0.0
H1450 H 0.76948 0.81538 0.69438 0.0
H1451 H 0.81713 0.84671 0.6441 0.0
H1452 H 0.80643 0.87248 0.639 0.0
H1453 H 0.76827 0.78876 0.66441 0.0
H1454 H 0.84922 0.83708 0.69165 0.0
H1455 H 0.83161 0.84689 0.69106 0.0
H1456 H 0.8446 0.84642 0.66534 0.0
C1457 C 0.77158 0.84265 0.67938 0.0
C1458 C 0.78185 0.85879 0.66369 0.0
C1459 C 0.77789 0.82803 0.68259 0.0
C1460 C 0.79441 0.82927 0.66995 0.0
C1461 C 0.80484 0.84573 0.65461 0.0
H1462 H 0.7995 0.71585 0.64717 0.0
H1463 H 0.80017 0.74843 0.63871 0.0
C1464 C 0.79871 0.86044 0.65165 0.0
C1465 C 0.7996 0.81246 0.67112 0.0
H1466 H 0.83967 0.80334 0.67677 0.0
C1467 C 0.78386 0.79194 0.66731 0.0
C1468 C 0.81989 0.81653 0.6751 0.0
C1469 C 0.83722 0.8379 0.68127 0.0
C1470 C 0.78784 0.77541 0.66723 0.0
C1471 C 0.80836 0.77961 0.67 0.0
C1472 C 0.82406 0.80014 0.67399 0.0
C1473 C 0.81342 0.7627 0.67151 0.0
C1474 C 0.76983 0.75361 0.66507 0.0
C1475 C 0.82291 0.76093 0.69146 0.0
C1476 C 0.8233 0.74272 0.69581 0.0
C1477 C 0.8141 0.72598 0.6804 0.0
C1478 C 0.80703 0.72871 0.65914 0.0
C1479 C 0.8069 0.74711 0.6546 0.0
H1480 H 0.75505 0.75288 0.66921 0.0
H1481 H 0.76873 0.74807 0.64716 0.0
H1482 H 0.77169 0.74285 0.67662 0.0
H1483 H 0.82829 0.77279 0.70468 0.0
H1484 H 0.82847 0.7408 0.71251 0.0
H1485 H 0.06501 0.84011 0.69208 0.0
H1486 H 0.02973 0.81647 0.70532 0.0
H1487 H 0.00754 0.80926 0.63572 0.0
H1488 H 0.04247 0.8323 0.62249 0.0
H1489 H 0.99341 0.81881 0.70096 0.0
H1490 H 0.98491 0.74958 0.6556 0.0
H1491 H 0.00961 0.77261 0.66005 0.0
H1492 H 0.9932 0.7712 0.6367 0.0
C1493 C 0.05256 0.83344 0.67968 0.0
C1494 C 0.05644 0.83795 0.65622 0.0
C1495 C 0.03245 0.81997 0.68724 0.0
C1496 C 0.01604 0.81081 0.67145 0.0
C1497 C 0.01998 0.81573 0.64816 0.0
H1498 H 0.88849 0.74388 0.65347 0.0
H1499 H 0.92452 0.77113 0.65778 0.0
C1500 C 0.03994 0.82899 0.64063 0.0
C1501 C 0.99466 0.79622 0.67886 0.0
H1502 H 0.95348 0.74869 0.66605 0.0
C1503 C 0.98476 0.80333 0.6937 0.0
C1504 C 0.98341 0.77591 0.6696 0.0
C1505 C 0.9934 0.76679 0.6548 0.0
C1506 C 0.96358 0.79111 0.69827 0.0
C1507 C 0.95218 0.77147 0.68768 0.0
C1508 C 0.96229 0.76392 0.67392 0.0
C1509 C 0.9295 0.75887 0.68913 0.0
C1510 C 0.95324 0.79941 0.71361 0.0
C1511 C 0.92018 0.74353 0.70592 0.0
C1512 C 0.89949 0.72807 0.7036 0.0
C1513 C 0.88798 0.72781 0.68445 0.0
C1514 C 0.8969 0.74413 0.66872 0.0
C1515 C 0.9175 0.75958 0.67107 0.0
H1516 H 0.96441 0.8145 0.72161 0.0
H1517 H 0.94184 0.80145 0.70349 0.0
H1518 H 0.94474 0.78806 0.72734 0.0
H1519 H 0.9293 0.74258 0.71978 0.0
H1520 H 0.8931 0.71528 0.71554 0.0
H1521 H 0.18702 0.21943 0.62629 0.0
H1522 H 0.21016 0.20738 0.63916 0.0
H1523 H 0.19935 0.21696 0.70951 0.0
H1524 H 0.17582 0.22901 0.6966 0.0
H1525 H 0.24648 0.23053 0.667 0.0
H1526 H 0.18864 0.15591 0.70651 0.0
H1527 H 0.18127 0.16938 0.68632 0.0
H1528 H 0.18898 0.17939 0.71485 0.0
C1529 C 0.1895 0.21892 0.64452 0.0
C1530 C 0.1796 0.22507 0.66043 0.0
C1531 C 0.20274 0.21206 0.65185 0.0
C1532 C 0.20636 0.21114 0.67527 0.0
C1533 C 0.19655 0.21732 0.69135 0.0
H1534 H 0.30063 0.1776 0.71161 0.0
H1535 H 0.27461 0.18792 0.7185 0.0
C1536 C 0.1832 0.22426 0.68397 0.0
C1537 C 0.22079 0.20399 0.68224 0.0
H1538 H 0.22221 0.16158 0.70206 0.0
C1539 C 0.24131 0.21568 0.67517 0.0
C1540 C 0.21395 0.18458 0.69282 0.0
C1541 C 0.192 0.17143 0.70055 0.0
C1542 C 0.25489 0.20802 0.67735 0.0
C1543 C 0.24775 0.18813 0.68673 0.0
C1544 C 0.22758 0.17686 0.69495 0.0
C1545 C 0.26037 0.17803 0.68507 0.0
C1546 C 0.27652 0.22069 0.66842 0.0
C1547 C 0.26041 0.16845 0.66436 0.0
C1548 C 0.27522 0.16275 0.66038 0.0
C1549 C 0.29002 0.16622 0.6772 0.0
C1550 C 0.28903 0.17433 0.69863 0.0
C1551 C 0.2743 0.18034 0.70251 0.0
H1552 H 0.28039 0.23673 0.66397 0.0
H1553 H 0.28773 0.22146 0.6814 0.0
H1554 H 0.27824 0.2131 0.65284 0.0
H1555 H 0.24985 0.16669 0.65068 0.0
H1556 H 0.27593 0.15681 0.64363 0.0
H1557 H 0.8053 0.96095 0.68877 0.0
H1558 H 0.82094 0.99818 0.69826 0.0
H1559 H 0.80097 0.00871 0.63285 0.0
H1560 H 0.78566 0.97202 0.62331 0.0
H1561 H 0.85238 0.03336 0.66887 0.0
H1562 H 0.78024 0.03505 0.68243 0.0
H1563 H 0.78176 0.0117 0.68525 0.0
H1564 H 0.7797 0.02069 0.65736 0.0
C1565 C 0.80416 0.97125 0.67658 0.0
C1566 C 0.79432 0.96371 0.65528 0.0
C1567 C 0.81313 0.99245 0.68196 0.0
C1568 C 0.81199 0.0061 0.66625 0.0
C1569 C 0.80187 0.9984 0.64525 0.0
H1570 H 0.83731 0.12859 0.6449 0.0
H1571 H 0.83415 0.09466 0.63839 0.0
C1572 C 0.79317 0.97746 0.63982 0.0
C1573 C 0.8217 0.02861 0.67091 0.0
H1574 H 0.81006 0.0673 0.67333 0.0
C1575 C 0.84322 0.04087 0.67023 0.0
C1576 C 0.80967 0.03824 0.67273 0.0
C1577 C 0.78656 0.02576 0.67472 0.0
C1578 C 0.85297 0.06267 0.67 0.0
C1579 C 0.84081 0.07226 0.67046 0.0
C1580 C 0.81935 0.05991 0.6723 0.0
C1581 C 0.84965 0.09507 0.66988 0.0
C1582 C 0.87607 0.07523 0.66845 0.0
C1583 C 0.86099 0.10727 0.68869 0.0
C1584 C 0.86313 0.12684 0.69214 0.0
C1585 C 0.8537 0.13425 0.67704 0.0
C1586 C 0.84506 0.12341 0.65655 0.0
C1587 C 0.84294 0.10383 0.65304 0.0
H1588 H 0.8828 0.0656 0.66295 0.0
H1589 H 0.88086 0.08824 0.65627 0.0
H1590 H 0.88252 0.08193 0.68556 0.0
H1591 H 0.8661 0.10079 0.70203 0.0
H1592 H 0.86949 0.13475 0.70829 0.0
H1593 H 0.52801 0.37931 0.70146 0.0
H1594 H 0.50779 0.34123 0.70209 0.0
H1595 H 0.4556 0.34313 0.674 0.0
H1596 H 0.47557 0.38119 0.67382 0.0
H1597 H 0.46012 0.31814 0.72499 0.0
H1598 H 0.47328 0.2999 0.6362 0.0
H1599 H 0.49234 0.32241 0.65183 0.0
H1600 H 0.46993 0.32203 0.64058 0.0
C1601 C 0.51231 0.37158 0.69515 0.0
C1602 C 0.50329 0.3831 0.68754 0.0
C1603 C 0.5008 0.34988 0.69559 0.0
C1604 C 0.48027 0.33948 0.68807 0.0
C1605 C 0.47144 0.35095 0.67987 0.0
H1606 H 0.36975 0.22634 0.69463 0.0
H1607 H 0.39949 0.25938 0.70498 0.0
C1608 C 0.48282 0.37261 0.67978 0.0
C1609 C 0.46758 0.31666 0.68975 0.0
H1610 H 0.44717 0.27253 0.65742 0.0
C1611 C 0.45747 0.30803 0.71037 0.0
C1612 C 0.46449 0.30362 0.67077 0.0
C1613 C 0.4756 0.3123 0.64853 0.0
C1614 C 0.44359 0.28666 0.71226 0.0
C1615 C 0.43933 0.27365 0.69277 0.0
C1616 C 0.45032 0.28231 0.67245 0.0
C1617 C 0.42196 0.25179 0.69201 0.0
C1618 C 0.43357 0.27841 0.73511 0.0
C1619 C 0.4244 0.23598 0.68181 0.0
C1620 C 0.40716 0.21702 0.67555 0.0
C1621 C 0.38729 0.21353 0.67966 0.0
C1622 C 0.38495 0.2284 0.692 0.0
C1623 C 0.40206 0.24743 0.69786 0.0
H1624 H 0.44419 0.28739 0.7494 0.0
H1625 H 0.41983 0.28023 0.73663 0.0
H1626 H 0.42878 0.26179 0.73718 0.0
H1627 H 0.43954 0.23892 0.67703 0.0
H1628 H 0.40932 0.20604 0.66541 0.0
H1629 H 0.62179 0.12431 0.66249 0.0
H1630 H 0.65649 0.13605 0.64736 0.0
H1631 H 0.67938 0.14047 0.71622 0.0
H1632 H 0.64507 0.12893 0.73134 0.0
H1633 H 0.6961 0.17588 0.66221 0.0
H1634 H 0.69618 0.10247 0.6784 0.0
H1635 H 0.67274 0.10347 0.67518 0.0
H1636 H 0.68697 0.11149 0.70164 0.0
C1637 C 0.63425 0.12779 0.67434 0.0
C1638 C 0.63079 0.12572 0.6981 0.0
C1639 C 0.65401 0.1345 0.66569 0.0
C1640 C 0.67041 0.13897 0.68071 0.0
C1641 C 0.66689 0.13691 0.70436 0.0
H1642 H 0.79798 0.19819 0.69638 0.0
H1643 H 0.76241 0.19057 0.69208 0.0
C1644 C 0.64731 0.13036 0.71296 0.0
C1645 C 0.69142 0.14602 0.67215 0.0
H1646 H 0.72881 0.13275 0.6725 0.0
C1647 C 0.70319 0.16635 0.66399 0.0
C1648 C 0.70057 0.13353 0.67447 0.0
C1649 C 0.68846 0.11145 0.68273 0.0
C1650 C 0.72426 0.17488 0.65932 0.0
C1651 C 0.73363 0.16273 0.66284 0.0
C1652 C 0.72157 0.14204 0.66978 0.0
C1653 C 0.7562 0.17155 0.66169 0.0
C1654 C 0.73655 0.19697 0.65126 0.0
C1655 C 0.76469 0.16394 0.6456 0.0
C1656 C 0.7851 0.1685 0.64792 0.0
C1657 C 0.79722 0.18066 0.66637 0.0
C1658 C 0.78915 0.18941 0.68153 0.0
C1659 C 0.76879 0.18494 0.67918 0.0
H1660 H 0.72648 0.20297 0.64519 0.0
H1661 H 0.74616 0.20695 0.66565 0.0
H1662 H 0.74702 0.1982 0.6372 0.0
H1663 H 0.75514 0.15338 0.63217 0.0
H1664 H 0.79083 0.16107 0.63648 0.0
H1665 H 0.91717 0.54243 0.71726 0.0
H1666 H 0.89816 0.56079 0.71179 0.0
H1667 H 0.85493 0.51149 0.66759 0.0
H1668 H 0.87375 0.49271 0.67351 0.0
H1669 H 0.8907 0.57446 0.67022 0.0
H1670 H 0.8172 0.51916 0.71285 0.0
H1671 H 0.84053 0.51822 0.71734 0.0
H1672 H 0.82663 0.50918 0.6908 0.0
C1673 C 0.90358 0.53547 0.70642 0.0
C1674 C 0.89692 0.51616 0.69588 0.0
C1675 C 0.89271 0.54595 0.70333 0.0
C1676 C 0.87497 0.53741 0.68953 0.0
C1677 C 0.86832 0.51816 0.67872 0.0
H1678 H 0.81496 0.60723 0.65076 0.0
H1679 H 0.81846 0.57673 0.65761 0.0
C1680 C 0.87915 0.50752 0.68199 0.0
C1681 C 0.86418 0.54935 0.68616 0.0
H1682 H 0.82064 0.55075 0.70012 0.0
C1683 C 0.87532 0.56918 0.67659 0.0
C1684 C 0.84399 0.54233 0.6942 0.0
C1685 C 0.83132 0.52111 0.7045 0.0
C1686 C 0.86718 0.58248 0.67566 0.0
C1687 C 0.84752 0.57597 0.68494 0.0
C1688 C 0.83586 0.55577 0.69344 0.0
C1689 C 0.83947 0.5905 0.68619 0.0
C1690 C 0.87988 0.60364 0.6651 0.0
C1691 C 0.84875 0.60758 0.70121 0.0
C1692 C 0.84651 0.62489 0.6975 0.0
C1693 C 0.83506 0.62531 0.67868 0.0
C1694 C 0.8235 0.6071 0.66571 0.0
C1695 C 0.82571 0.58975 0.66941 0.0
H1696 H 0.89268 0.60466 0.65463 0.0
H1697 H 0.87016 0.60747 0.6541 0.0
H1698 H 0.88659 0.6155 0.67894 0.0
H1699 H 0.85945 0.60842 0.71425 0.0
H1700 H 0.85598 0.63889 0.70736 0.0
H1701 H 0.50752 0.95948 0.27587 0.0
H1702 H 0.51695 0.97353 0.23698 0.0
H1703 H 0.45377 0.9363 0.21533 0.0
H1704 H 0.44426 0.92179 0.25372 0.0
H1705 H 0.4969 0.93933 0.18931 0.0
H1706 H 0.48584 0.00738 0.20185 0.0
H1707 H 0.49541 0.99809 0.22467 0.0
H1708 H 0.46898 0.98329 0.21606 0.0
C1709 C 0.49565 0.95426 0.26281 0.0
C1710 C 0.47512 0.93955 0.26796 0.0
C1711 C 0.50106 0.96233 0.24067 0.0
C1712 C 0.48604 0.95584 0.22342 0.0
C1713 C 0.46555 0.94145 0.22851 0.0
H1714 H 0.45608 0.97171 0.0923 0.0
H1715 H 0.461 0.96229 0.13068 0.0
C1716 C 0.46013 0.93336 0.25053 0.0
C1717 C 0.49146 0.96389 0.19988 0.0
H1718 H 0.49053 0.99937 0.16394 0.0
C1719 C 0.49605 0.95277 0.18377 0.0
C1720 C 0.49006 0.98124 0.19286 0.0
C1721 C 0.48485 0.99334 0.20966 0.0
C1722 C 0.49842 0.95812 0.16046 0.0
C1723 C 0.49629 0.97502 0.15331 0.0
C1724 C 0.49253 0.98663 0.16961 0.0
C1725 C 0.49417 0.97865 0.12885 0.0
C1726 C 0.50189 0.94499 0.14333 0.0
C1727 C 0.5113 0.99042 0.1148 0.0
C1728 C 0.50851 0.99583 0.09253 0.0
C1729 C 0.4886 0.98958 0.08445 0.0
C1730 C 0.47161 0.9768 0.09819 0.0
C1731 C 0.47437 0.97143 0.12012 0.0
H1732 H 0.50392 0.93276 0.1517 0.0
H1733 H 0.48856 0.93748 0.13137 0.0
H1734 H 0.51573 0.95496 0.13298 0.0
H1735 H 0.52671 0.9961 0.12138 0.0
H1736 H 0.52181 0.00582 0.08229 0.0
H1737 H 0.10119 0.53027 0.25608 0.0
H1738 H 0.08782 0.52457 0.21694 0.0
H1739 H 0.042 0.53997 0.23783 0.0
H1740 H 0.05569 0.54617 0.27713 0.0
H1741 H 0.05108 0.49819 0.1988 0.0
H1742 H 0.06847 0.57898 0.18474 0.0
H1743 H 0.07805 0.57163 0.20924 0.0
H1744 H 0.05208 0.56684 0.20883 0.0
C1745 C 0.08808 0.53217 0.25241 0.0
C1746 C 0.07944 0.53864 0.26962 0.0
C1747 C 0.08055 0.52904 0.23001 0.0
C1748 C 0.06421 0.53229 0.22435 0.0
C1749 C 0.05501 0.53797 0.24169 0.0
H1750 H 0.98914 0.48871 0.10348 0.0
H1751 H 0.00286 0.50156 0.14193 0.0
C1752 C 0.0627 0.54133 0.26412 0.0
C1753 C 0.05687 0.52957 0.20028 0.0
H1754 H 0.04883 0.55431 0.1556 0.0
C1755 C 0.05065 0.51049 0.18937 0.0
C1756 C 0.05666 0.54577 0.18785 0.0
C1757 C 0.06436 0.56703 0.19816 0.0
C1758 C 0.04378 0.50701 0.16656 0.0
C1759 C 0.04285 0.52293 0.15447 0.0
C1760 C 0.04942 0.54214 0.1651 0.0
C1761 C 0.03446 0.51934 0.13093 0.0
C1762 C 0.03759 0.48636 0.15541 0.0
C1763 C 0.04765 0.52614 0.11199 0.0
C1764 C 0.03978 0.51912 0.08991 0.0
C1765 C 0.0187 0.50508 0.08675 0.0
C1766 C 0.00541 0.49969 0.10554 0.0
C1767 C 0.01323 0.50687 0.12746 0.0
H1768 H 0.04153 0.47658 0.16623 0.0
H1769 H 0.02075 0.47782 0.15226 0.0
H1770 H 0.04529 0.48875 0.13858 0.0
H1771 H 0.06412 0.53569 0.11445 0.0
H1772 H 0.05035 0.52311 0.07573 0.0
H1773 H 0.44885 0.53231 0.24998 0.0
H1774 H 0.45935 0.53103 0.21072 0.0
H1775 H 0.52067 0.54979 0.23455 0.0
H1776 H 0.51011 0.55045 0.27401 0.0
H1777 H 0.48998 0.5665 0.18944 0.0
H1778 H 0.50929 0.50356 0.18863 0.0
H1779 H 0.49393 0.50597 0.21084 0.0
H1780 H 0.52139 0.52245 0.21114 0.0
C1781 C 0.46437 0.53544 0.247 0.0
C1782 C 0.47868 0.54156 0.2651 0.0
C1783 C 0.4704 0.53491 0.22451 0.0
C1784 C 0.49078 0.54034 0.21972 0.0
C1785 C 0.50481 0.54532 0.23787 0.0
H1786 H 0.54691 0.54739 0.08588 0.0
H1787 H 0.54453 0.55506 0.12651 0.0
C1788 C 0.49879 0.54583 0.26039 0.0
C1789 C 0.49776 0.54274 0.19565 0.0
H1790 H 0.51756 0.5243 0.15545 0.0
C1791 C 0.49606 0.5573 0.18201 0.0
C1792 C 0.50594 0.53094 0.18612 0.0
C1793 C 0.50763 0.51472 0.19984 0.0
C1794 C 0.50202 0.56017 0.15897 0.0
C1795 C 0.50963 0.54794 0.1492 0.0
C1796 C 0.51192 0.53382 0.16303 0.0
C1797 C 0.51275 0.54755 0.12417 0.0
C1798 C 0.49995 0.57618 0.14528 0.0
C1799 C 0.49594 0.54147 0.10935 0.0
C1800 C 0.49734 0.53726 0.08638 0.0
C1801 C 0.51553 0.53893 0.07775 0.0
C1802 C 0.53287 0.54637 0.09209 0.0
C1803 C 0.53143 0.55052 0.11528 0.0
H1804 H 0.5012 0.58886 0.1565 0.0
H1805 H 0.51182 0.58302 0.13175 0.0
H1806 H 0.48455 0.56872 0.13697 0.0
H1807 H 0.48126 0.53861 0.11583 0.0
H1808 H 0.48371 0.53133 0.07566 0.0
H1809 H 0.96053 0.49647 0.75224 0.0
H1810 H 0.9753 0.49891 0.79082 0.0
H1811 H 0.92259 0.44024 0.80852 0.0
H1812 H 0.9079 0.43779 0.7705 0.0
H1813 H 0.95443 0.49398 0.8379 0.0
H1814 H 0.97576 0.43425 0.81695 0.0
H1815 H 0.97209 0.44936 0.79524 0.0
H1816 H 0.95025 0.42826 0.80873 0.0
C1817 C 0.95207 0.48432 0.76456 0.0
C1818 C 0.93326 0.46682 0.75843 0.0
C1819 C 0.96049 0.48566 0.78645 0.0
C1820 C 0.95013 0.46954 0.80224 0.0
C1821 C 0.93094 0.45263 0.79641 0.0
H1822 H 0.9645 0.45759 0.94753 0.0
H1823 H 0.95083 0.45092 0.90819 0.0
C1824 C 0.92259 0.45128 0.77474 0.0
C1825 C 0.95928 0.46975 0.82475 0.0
H1826 H 0.97799 0.44406 0.85606 0.0
C1827 C 0.95973 0.4832 0.84188 0.0
C1828 C 0.96607 0.45558 0.82977 0.0
C1829 C 0.96621 0.4411 0.8117 0.0
C1830 C 0.96647 0.48255 0.86416 0.0
C1831 C 0.97282 0.46804 0.86931 0.0
C1832 C 0.97279 0.4549 0.85206 0.0
C1833 C 0.98074 0.46737 0.8923 0.0
C1834 C 0.96685 0.49738 0.88211 0.0
C1835 C 0.00201 0.47762 0.8961 0.0
C1836 C 0.00979 0.48133 0.91844 0.0
C1837 C 0.99638 0.47464 0.93721 0.0
C1838 C 0.97513 0.46241 0.93332 0.0
C1839 C 0.96732 0.45889 0.91091 0.0
H1840 H 0.96327 0.50897 0.8748 0.0
H1841 H 0.95537 0.48854 0.89553 0.0
H1842 H 0.98221 0.50571 0.89052 0.0
H1843 H 0.01255 0.48427 0.88191 0.0
H1844 H 0.0262 0.49119 0.92108 0.0
H1845 H 0.57879 0.48457 0.76419 0.0
H1846 H 0.57014 0.49212 0.80185 0.0
H1847 H 0.50582 0.45929 0.78366 0.0
H1848 H 0.51435 0.45214 0.74536 0.0
H1849 H 0.54531 0.51314 0.81066 0.0
H1850 H 0.5127 0.43365 0.84658 0.0
H1851 H 0.53043 0.44236 0.82288 0.0
H1852 H 0.50448 0.43663 0.81849 0.0
C1853 C 0.5628 0.47922 0.76792 0.0
C1854 C 0.54728 0.46788 0.75157 0.0
C1855 C 0.55789 0.48339 0.78959 0.0
C1856 C 0.53736 0.47612 0.79555 0.0
C1857 C 0.52175 0.46482 0.77941 0.0
H1858 H 0.4991 0.49676 0.93218 0.0
H1859 H 0.49669 0.48234 0.89329 0.0
C1860 C 0.52666 0.46074 0.75757 0.0
C1861 C 0.53261 0.48085 0.81862 0.0
H1862 H 0.51592 0.46 0.87166 0.0
C1863 C 0.5386 0.50148 0.82392 0.0
C1864 C 0.52383 0.46557 0.83581 0.0
C1865 C 0.51751 0.44327 0.83087 0.0
C1866 C 0.53658 0.50738 0.84616 0.0
C1867 C 0.52872 0.4923 0.86367 0.0
C1868 C 0.5219 0.47149 0.85819 0.0
C1869 C 0.52962 0.49847 0.88801 0.0
C1870 C 0.54334 0.52986 0.85085 0.0
C1871 C 0.54885 0.51145 0.89812 0.0
C1872 C 0.55019 0.51964 0.91994 0.0
C1873 C 0.53235 0.51474 0.9323 0.0
C1874 C 0.51303 0.5006 0.92296 0.0
C1875 C 0.51168 0.49249 0.9008 0.0
H1876 H 0.54313 0.53795 0.83499 0.0
H1877 H 0.53334 0.53134 0.86379 0.0
H1878 H 0.55933 0.53784 0.85761 0.0
H1879 H 0.56287 0.51591 0.88874 0.0
H1880 H 0.56525 0.53044 0.9269 0.0
H1881 H 0.56737 0.10811 0.77496 0.0
H1882 H 0.55599 0.09641 0.81429 0.0
H1883 H 0.50805 0.03766 0.78805 0.0
H1884 H 0.51911 0.04952 0.74868 0.0
H1885 H 0.51085 0.0807 0.82794 0.0
H1886 H 0.54024 0.02635 0.84266 0.0
H1887 H 0.55191 0.04747 0.82253 0.0
H1888 H 0.52819 0.0245 0.81532 0.0
C1889 C 0.55474 0.09252 0.77772 0.0
C1890 C 0.54418 0.07957 0.75901 0.0
C1891 C 0.54818 0.08594 0.80008 0.0
C1892 C 0.53121 0.06622 0.80396 0.0
C1893 C 0.52123 0.05291 0.78531 0.0
H1894 H 0.46742 0.99177 0.91864 0.0
H1895 H 0.47529 0.00732 0.88058 0.0
C1896 C 0.52757 0.05962 0.76294 0.0
C1897 C 0.52301 0.05995 0.82732 0.0
H1898 H 0.51702 0.0263 0.86992 0.0
C1899 C 0.51224 0.06889 0.83727 0.0
C1900 C 0.52499 0.04464 0.83929 0.0
C1901 C 0.53707 0.03521 0.82958 0.0
C1902 C 0.50278 0.06236 0.85873 0.0
C1903 C 0.50434 0.04666 0.87049 0.0
C1904 C 0.51557 0.03813 0.8607 0.0
C1905 C 0.49466 0.03868 0.89306 0.0
C1906 C 0.49074 0.07185 0.86838 0.0
C1907 C 0.5017 0.05137 0.91271 0.0
C1908 C 0.49673 0.04251 0.93454 0.0
C1909 C 0.48504 0.02086 0.93686 0.0
C1910 C 0.4762 0.00851 0.91726 0.0
C1911 C 0.48093 0.01737 0.89552 0.0
H1912 H 0.48734 0.08041 0.85514 0.0
H1913 H 0.47604 0.05972 0.87583 0.0
H1914 H 0.49984 0.08293 0.88227 0.0
H1915 H 0.51255 0.0678 0.91122 0.0
H1916 H 0.50412 0.05228 0.94938 0.0
H1917 H 0.111 0.24708 0.587 0.0
H1918 H 0.11928 0.26023 0.54791 0.0
H1919 H 0.17649 0.31201 0.57196 0.0
H1920 H 0.16856 0.29829 0.61109 0.0
H1921 H 0.125 0.29466 0.52938 0.0
H1922 H 0.19704 0.29178 0.52058 0.0
H1923 H 0.17984 0.2802 0.54441 0.0
H1924 H 0.19772 0.30767 0.54413 0.0
C1925 C 0.12532 0.2613 0.58391 0.0
C1926 C 0.13919 0.27169 0.60195 0.0
C1927 C 0.13007 0.26877 0.56159 0.0
C1928 C 0.1487 0.28688 0.55687 0.0
C1929 C 0.16232 0.29766 0.57504 0.0
H1930 H 0.17817 0.36147 0.43624 0.0
H1931 H 0.17798 0.34839 0.4747 0.0
C1932 C 0.15773 0.28995 0.59738 0.0
C1933 C 0.1535 0.29452 0.53297 0.0
H1934 H 0.18924 0.30837 0.49051 0.0
C1935 C 0.139 0.29754 0.5209 0.0
C1936 C 0.17171 0.29812 0.52178 0.0
C1937 C 0.18737 0.29408 0.5333 0.0
C1938 C 0.14234 0.30429 0.49812 0.0
C1939 C 0.16072 0.30833 0.48721 0.0
C1940 C 0.17519 0.30524 0.49907 0.0
C1941 C 0.16522 0.31653 0.46369 0.0
C1942 C 0.12624 0.30713 0.48576 0.0
C1943 C 0.15909 0.30301 0.44475 0.0
C1944 C 0.15952 0.31051 0.42267 0.0
C1945 C 0.16587 0.33155 0.41949 0.0
C1946 C 0.17348 0.34524 0.43829 0.0
C1947 C 0.17325 0.33779 0.46023 0.0
H1948 H 0.11234 0.3024 0.49635 0.0
H1949 H 0.13278 0.32366 0.48102 0.0
H1950 H 0.12158 0.29786 0.46965 0.0
H1951 H 0.15269 0.2865 0.44723 0.0
H1952 H 0.15309 0.29961 0.40852 0.0
H1953 H 0.76344 0.86154 0.59041 0.0
H1954 H 0.74912 0.85531 0.55169 0.0
H1955 H 0.70774 0.8767 0.57204 0.0
H1956 H 0.7219 0.88285 0.61122 0.0
H1957 H 0.69249 0.83358 0.54436 0.0
H1958 H 0.75586 0.90597 0.50695 0.0
H1959 H 0.7627 0.89226 0.52729 0.0
H1960 H 0.74836 0.90423 0.53664 0.0
C1961 C 0.75103 0.86458 0.58685 0.0
C1962 C 0.74367 0.87252 0.60396 0.0
C1963 C 0.74306 0.86124 0.56464 0.0
C1964 C 0.72759 0.86577 0.55907 0.0
C1965 C 0.71982 0.87328 0.57609 0.0
H1966 H 0.68544 0.8527 0.41451 0.0
H1967 H 0.69481 0.86708 0.45375 0.0
C1968 C 0.72789 0.87676 0.59839 0.0
C1969 C 0.71949 0.8622 0.5354 0.0
H1970 H 0.7332 0.87989 0.48077 0.0
C1971 C 0.70111 0.84388 0.53048 0.0
C1972 C 0.73084 0.87574 0.51744 0.0
C1973 C 0.75051 0.89576 0.52219 0.0
C1974 C 0.6943 0.83818 0.5078 0.0
C1975 C 0.70627 0.85112 0.48967 0.0
C1976 C 0.72406 0.87004 0.4947 0.0
C1977 C 0.70189 0.84384 0.46558 0.0
C1978 C 0.67474 0.81793 0.50338 0.0
C1979 C 0.70355 0.82662 0.45919 0.0
C1980 C 0.69823 0.81846 0.43714 0.0
C1981 C 0.69127 0.82742 0.42079 0.0
C1982 C 0.69064 0.84541 0.42678 0.0
C1983 C 0.69592 0.85358 0.44913 0.0
H1984 H 0.66449 0.81301 0.51853 0.0
H1985 H 0.66624 0.8191 0.48838 0.0
H1986 H 0.67865 0.80568 0.49969 0.0
H1987 H 0.70864 0.81922 0.47145 0.0
H1988 H 0.69935 0.80486 0.433 0.0
H1989 H 0.17748 0.88585 0.61 0.0
H1990 H 0.18866 0.88556 0.57079 0.0
H1991 H 0.12731 0.86531 0.54595 0.0
H1992 H 0.1162 0.86649 0.58498 0.0
H1993 H 0.17617 0.85605 0.53574 0.0
H1994 H 0.16179 0.91989 0.51225 0.0
H1995 H 0.16158 0.91217 0.54157 0.0
H1996 H 0.13979 0.89714 0.52313 0.0
C1997 C 0.16632 0.8812 0.59621 0.0
C1998 C 0.14605 0.87663 0.60059 0.0
C1999 C 0.17272 0.88096 0.57383 0.0
C2000 C 0.15898 0.87605 0.55542 0.0
C2001 C 0.13831 0.86973 0.55989 0.0
H2002 H 0.16023 0.87183 0.41046 0.0
H2003 H 0.15606 0.87802 0.45048 0.0
C2004 C 0.13191 0.87011 0.58227 0.0
C2005 C 0.16656 0.8786 0.53156 0.0
H2006 H 0.17171 0.90528 0.48231 0.0
C2007 C 0.17531 0.86686 0.52402 0.0
C2008 C 0.16553 0.89286 0.51644 0.0
C2009 C 0.15684 0.90638 0.52376 0.0
C2010 C 0.18222 0.86825 0.5014 0.0
C2011 C 0.18105 0.88242 0.48611 0.0
C2012 C 0.17279 0.89457 0.49398 0.0
C2013 C 0.18586 0.88305 0.46128 0.0
C2014 C 0.18972 0.85375 0.49393 0.0
C2015 C 0.20459 0.88525 0.45354 0.0
C2016 C 0.20686 0.88138 0.43047 0.0
C2017 C 0.19069 0.87602 0.41488 0.0
C2018 C 0.17305 0.87631 0.42215 0.0
C2019 C 0.17059 0.87966 0.44512 0.0
H2020 H 0.18491 0.84062 0.50597 0.0
H2021 H 0.18383 0.8473 0.47658 0.0
H2022 H 0.20677 0.86239 0.49347 0.0
H2023 H 0.21693 0.88865 0.46552 0.0
H2024 H 0.22046 0.8809 0.4253 0.0
H2025 H 0.62668 0.79086 0.07886 0.0
H2026 H 0.63731 0.79091 0.11834 0.0
H2027 H 0.60017 0.81684 0.1407 0.0
H2028 H 0.58797 0.81509 0.10153 0.0
H2029 H 0.65671 0.81878 0.15012 0.0
H2030 H 0.57716 0.76696 0.1803 0.0
H2031 H 0.58313 0.7724 0.15035 0.0
H2032 H 0.58077 0.79071 0.1685 0.0
C2033 C 0.62059 0.79642 0.09217 0.0
C2034 C 0.60598 0.80241 0.08699 0.0
C2035 C 0.62684 0.79659 0.11475 0.0
C2036 C 0.61894 0.80313 0.13263 0.0
C2037 C 0.60582 0.81091 0.12731 0.0
H2038 H 0.63582 0.82228 0.27537 0.0
H2039 H 0.62292 0.81412 0.23623 0.0
C2040 C 0.59918 0.81031 0.10476 0.0
C2041 C 0.62421 0.80138 0.15675 0.0
H2042 H 0.60331 0.78149 0.20888 0.0
C2043 C 0.64504 0.81046 0.16294 0.0
C2044 C 0.60895 0.79037 0.17342 0.0
C2045 C 0.58626 0.77939 0.16778 0.0
C2046 C 0.65108 0.8096 0.18551 0.0
C2047 C 0.63582 0.79895 0.20229 0.0
C2048 C 0.61498 0.78945 0.19596 0.0
C2049 C 0.64107 0.8 0.22699 0.0
C2050 C 0.67374 0.82093 0.19132 0.0
C2051 C 0.65474 0.79373 0.2353 0.0
C2052 C 0.66235 0.79863 0.25784 0.0
C2053 C 0.65597 0.80943 0.27221 0.0
C2054 C 0.64086 0.81384 0.26451 0.0
C2055 C 0.63351 0.80922 0.24213 0.0
H2056 H 0.68313 0.83179 0.17757 0.0
H2057 H 0.67677 0.82988 0.20754 0.0
H2058 H 0.67896 0.80951 0.19357 0.0
H2059 H 0.66031 0.78605 0.22405 0.0
H2060 H 0.6741 0.79523 0.26347 0.0
H2061 H 0.24376 0.80857 0.10146 0.0
H2062 H 0.23599 0.81566 0.1399 0.0
H2063 H 0.17597 0.80238 0.11672 0.0
H2064 H 0.1836 0.79492 0.07812 0.0
H2065 H 0.22701 0.84477 0.15428 0.0
H2066 H 0.16183 0.76618 0.17304 0.0
H2067 H 0.17869 0.77126 0.14896 0.0
H2068 H 0.15857 0.77764 0.14752 0.0
C2069 C 0.22891 0.8072 0.10453 0.0
C2070 C 0.21426 0.80117 0.08681 0.0
C2071 C 0.22447 0.81119 0.12652 0.0
C2072 C 0.20529 0.80925 0.1313 0.0
C2073 C 0.19068 0.80347 0.11358 0.0
H2074 H 0.17783 0.86022 0.25032 0.0
H2075 H 0.17756 0.84624 0.21216 0.0
C2076 C 0.19506 0.79929 0.09154 0.0
C2077 C 0.20098 0.81377 0.15478 0.0
H2078 H 0.16901 0.79257 0.20062 0.0
C2079 C 0.21433 0.83335 0.16438 0.0
C2080 C 0.18451 0.79878 0.16803 0.0
C2081 C 0.17017 0.77722 0.15899 0.0
C2082 C 0.21159 0.83837 0.18678 0.0
C2083 C 0.195 0.82349 0.19988 0.0
C2084 C 0.18166 0.80391 0.19042 0.0
C2085 C 0.19141 0.82837 0.2234 0.0
C2086 C 0.22656 0.85948 0.19651 0.0
C2087 C 0.19834 0.82205 0.24244 0.0
C2088 C 0.19816 0.82973 0.26436 0.0
C2089 C 0.19123 0.84395 0.26731 0.0
C2090 C 0.18305 0.84911 0.24844 0.0
C2091 C 0.18301 0.84126 0.22667 0.0
H2092 H 0.23961 0.86866 0.18479 0.0
H2093 H 0.21848 0.86828 0.19974 0.0
H2094 H 0.23276 0.85781 0.21318 0.0
H2095 H 0.20501 0.81221 0.24014 0.0
H2096 H 0.20498 0.82593 0.27857 0.0
H2097 H 0.19974 0.3803 0.08028 0.0
H2098 H 0.1884 0.3669 0.11931 0.0
H2099 H 0.20666 0.42875 0.14297 0.0
H2100 H 0.21763 0.44196 0.10417 0.0
H2101 H 0.2098 0.37893 0.16336 0.0
H2102 H 0.14473 0.39425 0.15839 0.0
H2103 H 0.15845 0.39351 0.13338 0.0
H2104 H 0.16938 0.41609 0.1516 0.0
C2105 C 0.20154 0.39094 0.094 0.0
C2106 C 0.2094 0.41205 0.08949 0.0
C2107 C 0.19506 0.38334 0.11615 0.0
C2108 C 0.19632 0.39682 0.13383 0.0
C2109 C 0.20517 0.41807 0.12945 0.0
H2110 H 0.17307 0.38809 0.279 0.0
H2111 H 0.17848 0.3993 0.23884 0.0
C2112 C 0.21154 0.4256 0.10741 0.0
C2113 C 0.1878 0.38877 0.15675 0.0
H2114 H 0.15174 0.38509 0.19495 0.0
C2115 C 0.197 0.38008 0.17022 0.0
C2116 C 0.17113 0.3904 0.1656 0.0
C2117 C 0.16019 0.3989 0.15145 0.0
C2118 C 0.19025 0.37341 0.19261 0.0
C2119 C 0.1737 0.37521 0.20151 0.0
C2120 C 0.16441 0.38376 0.188 0.0
C2121 C 0.16603 0.36829 0.22495 0.0
C2122 C 0.20115 0.36489 0.20681 0.0
C2123 C 0.15601 0.34713 0.23017 0.0
C2124 C 0.15266 0.34076 0.25296 0.0
C2125 C 0.15919 0.35545 0.2708 0.0
C2126 C 0.16735 0.37647 0.2655 0.0
C2127 C 0.17073 0.38288 0.24262 0.0
H2128 H 0.21588 0.368 0.19896 0.0
H2129 H 0.20435 0.3717 0.22434 0.0
H2130 H 0.19111 0.34785 0.20842 0.0
H2131 H 0.15217 0.33568 0.21671 0.0
H2132 H 0.14684 0.32452 0.2567 0.0
H2133 H 0.79665 0.62553 0.94076 0.0
H2134 H 0.80421 0.63968 0.90184 0.0
H2135 H 0.82601 0.5978 0.88403 0.0
H2136 H 0.81764 0.58293 0.92221 0.0
H2137 H 0.84178 0.65833 0.87675 0.0
H2138 H 0.78203 0.58541 0.83536 0.0
H2139 H 0.78267 0.58999 0.86582 0.0
H2140 H 0.79986 0.5825 0.85334 0.0
C2141 C 0.80292 0.61924 0.9285 0.0
C2142 C 0.80652 0.60306 0.93467 0.0
C2143 C 0.80738 0.62745 0.90635 0.0
C2144 C 0.81543 0.61959 0.89 0.0
C2145 C 0.81952 0.60387 0.89628 0.0
H2146 H 0.83125 0.64214 0.74173 0.0
H2147 H 0.83602 0.63197 0.78039 0.0
C2148 C 0.81496 0.59558 0.91827 0.0
C2149 C 0.81914 0.62741 0.86619 0.0
H2150 H 0.80386 0.61256 0.81083 0.0
C2151 C 0.83355 0.64833 0.86231 0.0
C2152 C 0.80849 0.61427 0.84739 0.0
C2153 C 0.79227 0.59184 0.85061 0.0
C2154 C 0.83749 0.65652 0.84007 0.0
C2155 C 0.82648 0.64349 0.82132 0.0
C2156 C 0.81247 0.62245 0.82518 0.0
C2157 C 0.82704 0.65179 0.79813 0.0
C2158 C 0.85332 0.67907 0.8369 0.0
C2159 C 0.82068 0.6664 0.79536 0.0
C2160 C 0.81791 0.67209 0.77355 0.0
C2161 C 0.82128 0.66319 0.75392 0.0
C2162 C 0.82862 0.64928 0.75656 0.0
C2163 C 0.83129 0.64346 0.77859 0.0
H2164 H 0.86519 0.68467 0.85067 0.0
H2165 H 0.86104 0.68176 0.82004 0.0
H2166 H 0.84564 0.68848 0.8378 0.0
H2167 H 0.81684 0.67268 0.81008 0.0
H2168 H 0.81239 0.68298 0.77209 0.0
H2169 H 0.43422 0.23968 0.92244 0.0
H2170 H 0.42067 0.23343 0.88329 0.0
H2171 H 0.37588 0.1706 0.90079 0.0
H2172 H 0.38926 0.17676 0.94031 0.0
H2173 H 0.41187 0.18985 0.85434 0.0
H2174 H 0.35009 0.20936 0.86837 0.0
H2175 H 0.37376 0.22198 0.88476 0.0
H2176 H 0.35547 0.19527 0.8898 0.0
C2177 C 0.42124 0.22462 0.91812 0.0
C2178 C 0.41261 0.20877 0.93454 0.0
C2179 C 0.41368 0.22106 0.89571 0.0
C2180 C 0.39731 0.20163 0.88932 0.0
C2181 C 0.38854 0.18572 0.90556 0.0
H2182 H 0.3224 0.1476 0.77168 0.0
H2183 H 0.33668 0.16208 0.80926 0.0
C2184 C 0.39618 0.18925 0.92804 0.0
C2185 C 0.38958 0.19802 0.86551 0.0
H2186 H 0.35344 0.19924 0.83109 0.0
C2187 C 0.39917 0.19197 0.84912 0.0
C2188 C 0.37305 0.20083 0.859 0.0
C2189 C 0.36238 0.20725 0.87629 0.0
C2190 C 0.39226 0.18815 0.82627 0.0
C2191 C 0.3757 0.19105 0.81963 0.0
C2192 C 0.36632 0.19736 0.83611 0.0
C2193 C 0.36635 0.18525 0.79641 0.0
C2194 C 0.40219 0.18021 0.80972 0.0
C2195 C 0.37788 0.19431 0.77653 0.0
C2196 C 0.36965 0.18604 0.75486 0.0
C2197 C 0.34984 0.16865 0.75295 0.0
C2198 C 0.33775 0.16096 0.77271 0.0
C2199 C 0.34592 0.16918 0.79421 0.0
H2200 H 0.41162 0.17469 0.8187 0.0
H2201 H 0.39039 0.16727 0.79912 0.0
H2202 H 0.41244 0.19291 0.79806 0.0
H2203 H 0.39354 0.20706 0.77785 0.0
H2204 H 0.37932 0.19218 0.73991 0.0
H2205 H 0.84262 0.21577 0.94347 0.0
H2206 H 0.85397 0.21475 0.90437 0.0
H2207 H 0.79474 0.20105 0.87807 0.0
H2208 H 0.78333 0.20223 0.91702 0.0
H2209 H 0.83363 0.18174 0.86671 0.0
H2210 H 0.84019 0.25813 0.84861 0.0
H2211 H 0.83984 0.24919 0.87744 0.0
H2212 H 0.8165 0.23846 0.86093 0.0
C2213 C 0.83192 0.2122 0.92936 0.0
C2214 C 0.81215 0.20922 0.93326 0.0
C2215 C 0.83841 0.21162 0.90711 0.0
C2216 C 0.82528 0.20818 0.88843 0.0
C2217 C 0.80513 0.20395 0.89233 0.0
H2218 H 0.83057 0.21034 0.74289 0.0
H2219 H 0.82659 0.21645 0.78319 0.0
C2220 C 0.79859 0.20442 0.91459 0.0
C2221 C 0.83303 0.21022 0.86481 0.0
H2222 H 0.84652 0.24141 0.81788 0.0
C2223 C 0.83661 0.19481 0.856 0.0
C2224 C 0.83678 0.22731 0.85103 0.0
C2225 C 0.83328 0.24434 0.85992 0.0
C2226 C 0.84322 0.19564 0.83335 0.0
C2227 C 0.84712 0.21284 0.81949 0.0
C2228 C 0.84382 0.22842 0.82856 0.0
C2229 C 0.8526 0.21384 0.79491 0.0
C2230 C 0.84493 0.17756 0.82425 0.0
C2231 C 0.86942 0.21185 0.78786 0.0
C2232 C 0.8716 0.20821 0.76476 0.0
C2233 C 0.85735 0.20719 0.74847 0.0
C2234 C 0.84197 0.2115 0.75517 0.0
C2235 C 0.83959 0.21479 0.77823 0.0
H2236 H 0.83643 0.16355 0.83504 0.0
H2237 H 0.83887 0.17352 0.80645 0.0
H2238 H 0.86134 0.18175 0.82419 0.0
H2239 H 0.88003 0.21171 0.80037 0.0
H2240 H 0.88335 0.20454 0.75995 0.0
H2241 H 0.23627 0.11041 0.43845 0.0
H2242 H 0.24817 0.11056 0.47764 0.0
H2243 H 0.31043 0.15377 0.45744 0.0
H2244 H 0.29836 0.15378 0.41815 0.0
H2245 H 0.27537 0.09776 0.48993 0.0
H2246 H 0.30443 0.17931 0.51702 0.0
H2247 H 0.28789 0.1679 0.49235 0.0
H2248 H 0.31493 0.17681 0.4904 0.0
C2249 C 0.25242 0.12024 0.44261 0.0
C2250 C 0.26645 0.13222 0.4256 0.0
C2251 C 0.25921 0.12025 0.46488 0.0
C2252 C 0.28015 0.13225 0.4705 0.0
C2253 C 0.29416 0.14466 0.45356 0.0
H2254 H 0.35585 0.14715 0.58652 0.0
H2255 H 0.34084 0.13957 0.54802 0.0
C2256 C 0.28733 0.14466 0.4312 0.0
C2257 C 0.28735 0.13065 0.49367 0.0
H2258 H 0.31303 0.15894 0.54102 0.0
C2259 C 0.28349 0.11111 0.50118 0.0
C2260 C 0.29781 0.14806 0.50835 0.0
C2261 C 0.30136 0.16917 0.50176 0.0
C2262 C 0.29027 0.10863 0.52278 0.0
C2263 C 0.30117 0.12611 0.53713 0.0
C2264 C 0.30478 0.14559 0.5298 0.0
C2265 C 0.30942 0.12486 0.55974 0.0
C2266 C 0.28616 0.08752 0.53006 0.0
C2267 C 0.29659 0.11783 0.57899 0.0
C2268 C 0.30518 0.12186 0.60109 0.0
C2269 C 0.32663 0.13319 0.60402 0.0
C2270 C 0.33928 0.1381 0.58468 0.0
C2271 C 0.33073 0.13402 0.56269 0.0
H2272 H 0.27871 0.07571 0.51625 0.0
H2273 H 0.30081 0.08831 0.53513 0.0
H2274 H 0.276 0.08245 0.54527 0.0
H2275 H 0.28009 0.11087 0.577 0.0
H2276 H 0.29513 0.11837 0.61571 0.0
H2277 H 0.85927 0.10503 0.42641 0.0
H2278 H 0.84974 0.11129 0.464 0.0
H2279 H 0.8897 0.17711 0.45541 0.0
H2280 H 0.89806 0.17115 0.41675 0.0
H2281 H 0.8727 0.12659 0.50005 0.0
H2282 H 0.84027 0.17695 0.47984 0.0
H2283 H 0.84552 0.16313 0.45787 0.0
H2284 H 0.86581 0.18753 0.4689 0.0
C2285 C 0.86555 0.12095 0.43203 0.0
C2286 C 0.87925 0.13761 0.41817 0.0
C2287 C 0.86024 0.12446 0.45378 0.0
C2288 C 0.86867 0.14467 0.46247 0.0
C2289 C 0.88248 0.16138 0.44886 0.0
H2290 H 0.8964 0.20772 0.58506 0.0
H2291 H 0.89121 0.19163 0.54774 0.0
C2292 C 0.88754 0.15791 0.42684 0.0
C2293 C 0.86409 0.14805 0.48635 0.0
H2294 H 0.85096 0.17768 0.51912 0.0
C2295 C 0.86747 0.1374 0.50416 0.0
C2296 C 0.85707 0.162 0.49178 0.0
C2297 C 0.85175 0.17287 0.47354 0.0
C2298 C 0.86526 0.14131 0.52723 0.0
C2299 C 0.85958 0.15624 0.5326 0.0
C2300 C 0.85519 0.16611 0.51486 0.0
C2301 C 0.86209 0.16476 0.55605 0.0
C2302 C 0.87024 0.13049 0.54582 0.0
C2303 C 0.84745 0.1547 0.57335 0.0
C2304 C 0.85034 0.16397 0.59515 0.0
C2305 C 0.86781 0.18342 0.59964 0.0
C2306 C 0.88253 0.19295 0.58223 0.0
C2307 C 0.87967 0.18376 0.56079 0.0
H2308 H 0.87362 0.11862 0.53883 0.0
H2309 H 0.88379 0.14207 0.55581 0.0
H2310 H 0.85712 0.12286 0.55783 0.0
H2311 H 0.83377 0.13992 0.5699 0.0
H2312 H 0.83879 0.15622 0.6082 0.0
H2313 H 0.90373 0.76953 0.43958 0.0
H2314 H 0.89245 0.7568 0.47858 0.0
H2315 H 0.83551 0.70691 0.45158 0.0
H2316 H 0.84661 0.71964 0.41253 0.0
H2317 H 0.84668 0.74767 0.49483 0.0
H2318 H 0.8665 0.68503 0.50082 0.0
H2319 H 0.88113 0.70775 0.48341 0.0
H2320 H 0.85594 0.68821 0.47434 0.0
C2321 C 0.889 0.7556 0.44196 0.0
C2322 C 0.876 0.74553 0.42312 0.0
C2323 C 0.88255 0.74847 0.46418 0.0
C2324 C 0.86316 0.73104 0.46779 0.0
C2325 C 0.85051 0.72043 0.449 0.0
H2326 H 0.80709 0.65968 0.58861 0.0
H2327 H 0.81207 0.67283 0.54941 0.0
C2328 C 0.85685 0.72767 0.42679 0.0
C2329 C 0.85559 0.72448 0.49127 0.0
H2330 H 0.84893 0.68905 0.53188 0.0
C2331 C 0.8471 0.73485 0.50305 0.0
C2332 C 0.85621 0.70778 0.50167 0.0
C2333 C 0.86548 0.69648 0.48957 0.0
C2334 C 0.83883 0.72866 0.52506 0.0
C2335 C 0.83945 0.7119 0.5356 0.0
C2336 C 0.84817 0.70171 0.52373 0.0
C2337 C 0.83197 0.70496 0.55922 0.0
C2338 C 0.82917 0.73987 0.53652 0.0
C2339 C 0.8404 0.71877 0.57785 0.0
C2340 C 0.83692 0.7113 0.60028 0.0
C2341 C 0.82536 0.68991 0.60429 0.0
C2342 C 0.81565 0.67628 0.58587 0.0
C2343 C 0.81875 0.68378 0.5635 0.0
H2344 H 0.8238 0.74715 0.52372 0.0
H2345 H 0.81594 0.72924 0.54732 0.0
H2346 H 0.84082 0.75243 0.54761 0.0
H2347 H 0.85105 0.73508 0.57507 0.0
H2348 H 0.84506 0.72198 0.61424 0.0
loop_
_geom_bond_atom_site_label_1
_geom_bond_atom_site_label_2
_geom_bond_distance
_geom_bond_site_symmetry_2
_ccdc_geom_bond_type
H0 C5 0.930 . S
H1 C8 0.930 . S
H2 C10 0.930 . S
H3 C4 1.016 . S
C4 H3 1.016 . S
C4 N11 1.286 . S
C5 H0 0.930 . S
C5 C6 1.397 . S
C5 C7 1.361 . S
C6 C5 1.397 . S
C6 C10 1.390 . S
C7 C5 1.361 . S
C7 C8 1.393 . S
C7 N11 1.413 . S
C8 H1 0.930 . S
C8 C7 1.393 . S
C8 C9 1.399 . S
C9 C8 1.399 . S
C9 C10 1.381 . S
C10 H2 0.930 . S
C10 C6 1.390 . S
C10 C9 1.381 . S
N11 C4 1.286 . S
N11 C7 1.413 . S
H12 C17 0.930 . S
H13 C20 0.930 . S
H14 C22 0.930 . S
H15 C16 1.016 . S
C16 H15 1.016 . S
C16 N23 1.286 . S
C17 H12 0.930 . S
C17 C18 1.397 . S
C17 C19 1.361 . S
C18 C17 1.397 . S
C18 C22 1.390 . S
C19 C17 1.361 . S
C19 C20 1.393 . S
C19 N23 1.413 . S
C20 H13 0.930 . S
C20 C19 1.393 . S
C20 C21 1.399 . S
C21 C20 1.399 . S
C21 C22 1.381 . S
C22 H14 0.930 . S
C22 C18 1.390 . S
C22 C21 1.381 . S
N23 C16 1.286 . S
N23 C19 1.413 . S
H24 C29 0.930 . S
H25 C32 0.930 . S
H26 C34 0.930 . S
H27 C28 1.016 . S
C28 H27 1.016 . S
C28 N35 1.286 . S
C29 H24 0.930 . S
C29 C30 1.397 . S
C29 C31 1.361 . S
C30 C29 1.397 . S
C30 C34 1.390 . S
C31 C29 1.361 . S
C31 C32 1.393 . S
C31 N35 1.413 . S
C32 H25 0.930 . S
C32 C31 1.393 . S
C32 C33 1.399 . S
C33 C32 1.399 . S
C33 C34 1.381 . S
C34 H26 0.930 . S
C34 C30 1.390 . S
C34 C33 1.381 . S
N35 C28 1.286 . S
N35 C31 1.413 . S
H36 C41 0.930 . S
H37 C44 0.930 . S
H38 C46 0.930 . S
H39 C40 1.016 . S
C40 H39 1.016 . S
C40 N47 1.286 . S
C41 H36 0.930 . S
C41 C42 1.397 . S
C41 C43 1.361 . S
C42 C41 1.397 . S
C42 C46 1.390 . S
C43 C41 1.361 . S
C43 C44 1.393 . S
C43 N47 1.413 . S
C44 H37 0.930 . S
C44 C43 1.393 . S
C44 C45 1.399 . S
C45 C44 1.399 . S
C45 C46 1.381 . S
C46 H38 0.930 . S
C46 C42 1.390 . S
C46 C45 1.381 . S
N47 C40 1.286 . S
N47 C43 1.413 . S
H48 C53 0.930 . S
H49 C56 0.930 . S
H50 C58 0.930 . S
H51 C52 1.016 . S
C52 H51 1.016 . S
C52 N59 1.286 . S
C53 H48 0.930 . S
C53 C54 1.397 . S
C53 C55 1.361 . S
C54 C53 1.397 . S
C54 C58 1.390 . S
C55 C53 1.361 . S
C55 C56 1.393 . S
C55 N59 1.413 . S
C56 H49 0.930 . S
C56 C55 1.393 . S
C56 C57 1.399 . S
C57 C56 1.399 . S
C57 C58 1.381 . S
C58 H50 0.930 . S
C58 C54 1.390 . S
C58 C57 1.381 . S
N59 C52 1.286 . S
N59 C55 1.413 . S
H60 C65 0.930 . S
H61 C68 0.930 . S
H62 C70 0.930 . S
H63 C64 1.016 . S
C64 H63 1.016 . S
C64 N71 1.286 . S
C65 H60 0.930 . S
C65 C66 1.397 . S
C65 C67 1.361 . S
C66 C65 1.397 . S
C66 C70 1.390 . S
C67 C65 1.361 . S
C67 C68 1.393 . S
C67 N71 1.413 . S
C68 H61 0.930 . S
C68 C67 1.393 . S
C68 C69 1.399 . S
C69 C68 1.399 . S
C69 C70 1.381 . S
C70 H62 0.930 . S
C70 C66 1.390 . S
C70 C69 1.381 . S
N71 C64 1.286 . S
N71 C67 1.413 . S
H72 C77 0.930 . S
H73 C80 0.930 . S
H74 C82 0.930 . S
H75 C76 1.016 . S
C76 H75 1.016 . S
C76 N83 1.286 . S
C77 H72 0.930 . S
C77 C78 1.397 . S
C77 C79 1.361 . S
C78 C77 1.397 . S
C78 C82 1.390 . S
C79 C77 1.361 . S
C79 C80 1.393 . S
C79 N83 1.413 . S
C80 H73 0.930 . S
C80 C79 1.393 . S
C80 C81 1.399 . S
C81 C80 1.399 . S
C81 C82 1.381 . S
C82 H74 0.930 . S
C82 C78 1.390 . S
C82 C81 1.381 . S
N83 C76 1.286 . S
N83 C79 1.413 . S
H84 C89 0.930 . S
H85 C92 0.930 . S
H86 C94 0.930 . S
H87 C88 1.016 . S
C88 H87 1.016 . S
C88 N95 1.286 . S
C89 H84 0.930 . S
C89 C90 1.397 . S
C89 C91 1.361 . S
C90 C89 1.397 . S
C90 C94 1.390 . S
C91 C89 1.361 . S
C91 C92 1.393 . S
C91 N95 1.413 . S
C92 H85 0.930 . S
C92 C91 1.393 . S
C92 C93 1.399 . S
C93 C92 1.399 . S
C93 C94 1.381 . S
C94 H86 0.930 . S
C94 C90 1.390 . S
C94 C93 1.381 . S
N95 C88 1.286 . S
N95 C91 1.413 . S
H96 C101 0.930 . S
H97 C104 0.930 . S
H98 C106 0.930 . S
H99 C100 1.016 . S
C100 H99 1.016 . S
C100 N107 1.286 . S
C101 H96 0.930 . S
C101 C102 1.397 . S
C101 C103 1.361 . S
C102 C101 1.397 . S
C102 C106 1.390 . S
C103 C101 1.361 . S
C103 C104 1.393 . S
C103 N107 1.413 . S
C104 H97 0.930 . S
C104 C103 1.393 . S
C104 C105 1.399 . S
C105 C104 1.399 . S
C105 C106 1.381 . S
C106 H98 0.930 . S
C106 C102 1.390 . S
C106 C105 1.381 . S
N107 C100 1.286 . S
N107 C103 1.413 . S
H108 C113 0.930 . S
H109 C116 0.930 . S
H110 C118 0.930 . S
H111 C112 1.016 1_556 S
C112 H111 1.016 1_554 S
C112 N119 1.286 . S
C113 H108 0.930 . S
C113 C114 1.397 1_554 S
C113 C115 1.361 1_554 S
C114 C113 1.397 1_556 S
C114 C118 1.390 . S
C115 C113 1.361 1_556 S
C115 C116 1.393 . S
C115 N119 1.413 1_556 S
C116 H109 0.930 . S
C116 C115 1.393 . S
C116 C117 1.399 . S
C117 C116 1.399 . S
C117 C118 1.381 . S
C118 H110 0.930 . S
C118 C114 1.390 . S
C118 C117 1.381 . S
N119 C112 1.286 . S
N119 C115 1.413 1_554 S
H120 C125 0.930 . S
H121 C128 0.930 . S
H122 C130 0.930 . S
H123 C124 1.016 1_556 S
C124 H123 1.016 1_554 S
C124 N131 1.286 . S
C125 H120 0.930 . S
C125 C126 1.397 1_554 S
C125 C127 1.364 . S
C126 C125 1.397 1_556 S
C126 C130 1.390 . S
C127 C125 1.364 . S
C127 C128 1.386 1_554 S
C127 N131 1.417 . S
C128 H121 0.930 . S
C128 C127 1.386 1_556 S
C128 C129 1.399 . S
C129 C128 1.399 . S
C129 C130 1.381 . S
C130 H122 0.930 . S
C130 C126 1.390 . S
C130 C129 1.381 . S
N131 C124 1.286 . S
N131 C127 1.417 . S
H132 C137 0.930 . S
H133 C140 0.930 . S
H134 C142 0.930 . S
H135 C136 1.016 . S
C136 H135 1.016 . S
C136 N143 1.286 1_556 S
C137 H132 0.930 . S
C137 C138 1.397 1_554 S
C137 C139 1.361 1_554 S
C138 C137 1.397 1_556 S
C138 C142 1.390 . S
C139 C137 1.361 1_556 S
C139 C140 1.393 . S
C139 N143 1.413 1_556 S
C140 H133 0.930 . S
C140 C139 1.393 . S
C140 C141 1.399 . S
C141 C140 1.399 . S
C141 C142 1.381 . S
C142 H134 0.930 . S
C142 C138 1.390 . S
C142 C141 1.381 . S
N143 C136 1.286 1_554 S
N143 C139 1.413 1_554 S
H144 C149 0.930 . S
H145 C152 0.930 . S
H146 C154 0.930 . S
H147 C148 1.016 . S
C148 H147 1.016 . S
C148 N155 1.286 . S
C149 H144 0.930 . S
C149 C150 1.397 . S
C149 C151 1.361 . S
C150 C149 1.397 . S
C150 C154 1.390 . S
C151 C149 1.361 . S
C151 C152 1.393 . S
C151 N155 1.413 . S
C152 H145 0.930 . S
C152 C151 1.393 . S
C152 C153 1.399 . S
C153 C152 1.399 . S
C153 C154 1.381 . S
C154 H146 0.930 . S
C154 C150 1.390 . S
C154 C153 1.381 . S
N155 C148 1.286 . S
N155 C151 1.413 . S
H156 C161 0.930 1_556 S
H157 C164 0.930 . S
H158 C166 0.930 . S
H159 C160 1.016 . S
C160 H159 1.016 . S
C160 N167 1.286 . S
C161 H156 0.930 1_554 S
C161 C162 1.397 . S
C161 C163 1.361 . S
C162 C161 1.397 . S
C162 C166 1.390 . S
C163 C161 1.361 . S
C163 C164 1.393 . S
C163 N167 1.413 . S
C164 H157 0.930 . S
C164 C163 1.393 . S
C164 C165 1.399 . S
C165 C164 1.399 . S
C165 C166 1.381 . S
C166 H158 0.930 . S
C166 C162 1.390 . S
C166 C165 1.381 . S
N167 C160 1.286 . S
N167 C163 1.413 . S
H168 C173 0.930 . S
H169 C176 0.930 . S
H170 C178 0.930 . S
H171 C172 1.016 . S
C172 H171 1.016 . S
C172 N179 1.286 . S
C173 H168 0.930 . S
C173 C174 1.397 . S
C173 C175 1.361 . S
C174 C173 1.397 . S
C174 C178 1.390 . S
C175 C173 1.361 . S
C175 C176 1.393 . S
C175 N179 1.413 . S
C176 H169 0.930 . S
C176 C175 1.393 . S
C176 C177 1.399 . S
C177 C176 1.399 . S
C177 C178 1.381 . S
C178 H170 0.930 . S
C178 C174 1.390 . S
C178 C177 1.381 . S
N179 C172 1.286 . S
N179 C175 1.413 . S
H180 C185 0.930 . S
H181 C188 0.930 . S
H182 C190 0.930 . S
H183 C184 1.016 . S
C184 H183 1.016 . S
C184 N191 1.286 . S
C185 H180 0.930 . S
C185 C186 1.397 . S
C185 C187 1.361 . S
C186 C185 1.397 . S
C186 C190 1.390 . S
C187 C185 1.361 . S
C187 C188 1.393 . S
C187 N191 1.413 . S
C188 H181 0.930 . S
C188 C187 1.393 . S
C188 C189 1.399 . S
C189 C188 1.399 . S
C189 C190 1.381 . S
C190 H182 0.930 . S
C190 C186 1.390 . S
C190 C189 1.381 . S
N191 C184 1.286 . S
N191 C187 1.413 . S
H192 C197 0.930 . S
H193 C200 0.930 . S
H194 C202 0.930 . S
H195 C196 1.016 . S
C196 H195 1.016 . S
C196 N203 1.286 . S
C197 H192 0.930 . S
C197 C198 1.397 . S
C197 C199 1.361 . S
C198 C197 1.397 . S
C198 C202 1.390 . S
C199 C197 1.361 . S
C199 C200 1.393 . S
C199 N203 1.413 . S
C200 H193 0.930 . S
C200 C199 1.393 . S
C200 C201 1.399 . S
C201 C200 1.399 . S
C201 C202 1.381 . S
C202 H194 0.930 . S
C202 C198 1.390 . S
C202 C201 1.381 . S
N203 C196 1.286 . S
N203 C199 1.413 . S
H204 C209 0.930 . S
H205 C212 0.930 . S
H206 C214 0.930 . S
H207 C208 1.016 . S
C208 H207 1.016 . S
C208 N215 1.286 . S
C209 H204 0.930 . S
C209 C210 1.397 . S
C209 C211 1.361 . S
C210 C209 1.397 . S
C210 C214 1.390 . S
C211 C209 1.361 . S
C211 C212 1.393 . S
C211 N215 1.413 . S
C212 H205 0.930 . S
C212 C211 1.393 . S
C212 C213 1.399 . S
C213 C212 1.399 . S
C213 C214 1.381 . S
C214 H206 0.930 . S
C214 C210 1.390 . S
C214 C213 1.381 . S
N215 C208 1.286 . S
N215 C211 1.413 . S
O216 Mn217 2.163 1_565 S
O216 C230 1.244 . S
Mn217 O216 2.163 1_545 S
Mn217 O220 2.160 . S
Mn217 O221 2.221 1_545 S
Mn217 O223 2.163 1_554 S
Mn217 O225 2.160 . S
Mn217 O235 2.221 . S
O218 Mn219 2.087 1_565 S
O218 C230 1.256 . S
Mn219 O218 2.087 1_545 S
Mn219 O226 2.089 1_545 S
Mn219 O235 2.290 . S
Mn219 O236 2.251 . S
O220 Mn217 2.160 . S
O220 C231 1.239 . S
O221 Mn217 2.221 1_565 S
O221 Mn222 2.290 1_564 S
O221 C232 1.278 . S
Mn222 O221 2.290 1_546 S
Mn222 O224 2.089 . S
Mn222 O227 2.251 1_545 S
Mn222 O228 2.087 . S
O223 Mn217 2.163 1_556 S
O223 C233 1.244 . S
O224 Mn222 2.089 . S
O224 C231 1.256 1_556 S
O225 Mn217 2.160 . S
O225 C234 1.239 1_545 S
O226 Mn219 2.089 1_565 S
O226 C234 1.256 . S
O227 Mn222 2.251 1_565 S
O227 C232 1.241 1_556 S
O228 Mn222 2.087 . S
O228 C233 1.256 . S
C229 O235 1.278 . S
C229 O236 1.241 . S
C230 O216 1.244 . S
C230 O218 1.256 . S
C231 O220 1.239 . S
C231 O224 1.256 1_554 S
C232 O221 1.278 . S
C232 O227 1.241 1_554 S
C233 O223 1.244 . S
C233 O228 1.256 . S
C234 O225 1.239 1_565 S
C234 O226 1.256 . S
O235 Mn217 2.221 . S
O235 Mn219 2.290 . S
O235 C229 1.278 . S
O236 Mn219 2.251 . S
O236 C229 1.241 . S
O237 Mn238 2.163 . S
O237 C251 1.244 . S
Mn238 O237 2.163 . S
Mn238 O241 2.160 1_455 S
Mn238 O242 2.221 . S
Mn238 O244 2.163 1_454 S
Mn238 O246 2.160 . S
Mn238 O256 2.221 1_455 S
O239 Mn240 2.087 . S
O239 C251 1.256 . S
Mn240 O239 2.087 . S
Mn240 O247 2.089 . S
Mn240 O256 2.290 1_455 S
Mn240 O257 2.251 1_455 S
O241 Mn238 2.160 1_655 S
O241 C252 1.239 . S
O242 Mn238 2.221 . S
O242 Mn243 2.290 1_554 S
O242 C253 1.278 . S
Mn243 O242 2.290 1_556 S
Mn243 O245 2.089 1_455 S
Mn243 O248 2.251 . S
Mn243 O249 2.087 . S
O244 Mn238 2.163 1_656 S
O244 C254 1.244 . S
O245 Mn243 2.089 1_655 S
O245 C252 1.256 1_556 S
O246 Mn238 2.160 . S
O246 C255 1.239 . S
O247 Mn240 2.089 . S
O247 C255 1.256 . S
O248 Mn243 2.251 . S
O248 C253 1.241 1_556 S
O249 Mn243 2.087 . S
O249 C254 1.256 1_455 S
C250 O256 1.278 . S
C250 O257 1.241 . S
C251 O237 1.244 . S
C251 O239 1.256 . S
C252 O241 1.239 . S
C252 O245 1.256 1_554 S
C253 O242 1.278 . S
C253 O248 1.241 1_554 S
C254 O244 1.244 . S
C254 O249 1.256 1_655 S
C255 O246 1.239 . S
C255 O247 1.256 . S
O256 Mn238 2.221 1_655 S
O256 Mn240 2.290 1_655 S
O256 C250 1.278 . S
O257 Mn240 2.251 1_655 S
O257 C250 1.241 . S
O258 Mn259 2.163 . S
O258 C272 1.244 . S
Mn259 O258 2.163 . S
Mn259 O262 2.160 . S
Mn259 O263 2.221 . S
Mn259 O265 2.163 . S
Mn259 O267 2.160 1_554 S
Mn259 O277 2.221 1_554 S
O260 Mn261 2.087 . S
O260 C272 1.256 1_556 S
Mn261 O260 2.087 . S
Mn261 O268 2.089 . S
Mn261 O277 2.290 . S
Mn261 O278 2.251 1_556 S
O262 Mn259 2.160 . S
O262 C273 1.239 . S
O263 Mn259 2.221 . S
O263 Mn264 2.290 . S
O263 C274 1.278 . S
Mn264 O263 2.290 . S
Mn264 O266 2.089 . S
Mn264 O269 2.251 . S
Mn264 O270 2.087 . S
O265 Mn259 2.163 . S
O265 C275 1.244 . S
O266 Mn264 2.089 . S
O266 C273 1.256 . S
O267 Mn259 2.160 1_556 S
O267 C276 1.239 . S
O268 Mn261 2.089 . S
O268 C276 1.256 . S
O269 Mn264 2.251 . S
O269 C274 1.241 . S
O270 Mn264 2.087 . S
O270 C275 1.256 . S
C271 O277 1.278 1_554 S
C271 O278 1.241 . S
C272 O258 1.244 . S
C272 O260 1.256 1_554 S
C273 O262 1.239 . S
C273 O266 1.256 . S
C274 O263 1.278 . S
C274 O269 1.241 . S
C275 O265 1.244 . S
C275 O270 1.256 . S
C276 O267 1.239 . S
C276 O268 1.256 . S
O277 Mn259 2.221 1_556 S
O277 Mn261 2.290 . S
O277 C271 1.278 1_556 S
O278 Mn261 2.251 1_554 S
O278 C271 1.241 . S
O279 Mn280 2.163 . S
O279 C293 1.244 . S
Mn280 O279 2.163 . S
Mn280 O283 2.160 . S
Mn280 O284 2.221 . S
Mn280 O286 2.163 . S
Mn280 O288 2.160 . S
Mn280 O298 2.221 . S
O281 Mn282 2.087 . S
O281 C293 1.256 . S
Mn282 O281 2.087 . S
Mn282 O289 2.089 . S
Mn282 O298 2.290 . S
Mn282 O299 2.251 . S
O283 Mn280 2.160 . S
O283 C294 1.239 . S
O284 Mn280 2.221 . S
O284 Mn285 2.290 . S
O284 C295 1.278 . S
Mn285 O284 2.290 . S
Mn285 O287 2.089 . S
Mn285 O290 2.251 . S
Mn285 O291 2.087 . S
O286 Mn280 2.163 . S
O286 C296 1.244 . S
O287 Mn285 2.089 . S
O287 C294 1.256 . S
O288 Mn280 2.160 . S
O288 C297 1.239 . S
O289 Mn282 2.089 . S
O289 C297 1.256 . S
O290 Mn285 2.251 . S
O290 C295 1.241 . S
O291 Mn285 2.087 . S
O291 C296 1.256 . S
C292 O298 1.278 . S
C292 O299 1.241 . S
C293 O279 1.244 . S
C293 O281 1.256 . S
C294 O283 1.239 . S
C294 O287 1.256 . S
C295 O284 1.278 . S
C295 O290 1.241 . S
C296 O286 1.244 . S
C296 O291 1.256 . S
C297 O288 1.239 . S
C297 O289 1.256 . S
O298 Mn280 2.221 . S
O298 Mn282 2.290 . S
O298 C292 1.278 . S
O299 Mn282 2.251 . S
O299 C292 1.241 . S
O300 Mn301 2.163 . S
O300 C314 1.244 . S
Mn301 O300 2.163 . S
Mn301 O304 2.160 . S
Mn301 O305 2.221 . S
Mn301 O307 2.163 . S
Mn301 O309 2.160 . S
Mn301 O319 2.221 . S
O302 Mn303 2.087 . S
O302 C314 1.256 . S
Mn303 O302 2.087 . S
Mn303 O310 2.089 . S
Mn303 O319 2.290 . S
Mn303 O320 2.251 . S
O304 Mn301 2.160 . S
O304 C315 1.239 . S
O305 Mn301 2.221 . S
O305 Mn306 2.290 . S
O305 C316 1.278 . S
Mn306 O305 2.290 . S
Mn306 O308 2.089 . S
Mn306 O311 2.251 . S
Mn306 O312 2.087 . S
O307 Mn301 2.163 . S
O307 C317 1.244 . S
O308 Mn306 2.089 . S
O308 C315 1.256 . S
O309 Mn301 2.160 . S
O309 C318 1.239 . S
O310 Mn303 2.089 . S
O310 C318 1.256 . S
O311 Mn306 2.251 . S
O311 C316 1.241 . S
O312 Mn306 2.087 . S
O312 C317 1.256 . S
C313 O319 1.278 . S
C313 O320 1.241 . S
C314 O300 1.244 . S
C314 O302 1.256 . S
C315 O304 1.239 . S
C315 O308 1.256 . S
C316 O305 1.278 . S
C316 O311 1.241 . S
C317 O307 1.244 . S
C317 O312 1.256 . S
C318 O309 1.239 . S
C318 O310 1.256 . S
O319 Mn301 2.221 . S
O319 Mn303 2.290 . S
O319 C313 1.278 . S
O320 Mn303 2.251 . S
O320 C313 1.241 . S
O321 Mn322 2.163 . S
O321 C335 1.244 . S
Mn322 O321 2.163 . S
Mn322 O325 2.160 . S
Mn322 O326 2.221 . S
Mn322 O328 2.163 . S
Mn322 O330 2.160 . S
Mn322 O340 2.221 . S
O323 Mn324 2.087 . S
O323 C335 1.256 . S
Mn324 O323 2.087 . S
Mn324 O331 2.089 . S
Mn324 O340 2.290 . S
Mn324 O341 2.251 . S
O325 Mn322 2.160 . S
O325 C336 1.239 . S
O326 Mn322 2.221 . S
O326 Mn327 2.290 . S
O326 C337 1.278 . S
Mn327 O326 2.290 . S
Mn327 O329 2.089 . S
Mn327 O332 2.251 . S
Mn327 O333 2.087 . S
O328 Mn322 2.163 . S
O328 C338 1.244 . S
O329 Mn327 2.089 . S
O329 C336 1.256 . S
O330 Mn322 2.160 . S
O330 C339 1.239 . S
O331 Mn324 2.089 . S
O331 C339 1.256 . S
O332 Mn327 2.251 . S
O332 C337 1.241 . S
O333 Mn327 2.087 . S
O333 C338 1.256 . S
C334 O340 1.278 . S
C334 O341 1.241 . S
C335 O321 1.244 . S
C335 O323 1.256 . S
C336 O325 1.239 . S
C336 O329 1.256 . S
C337 O326 1.278 . S
C337 O332 1.241 . S
C338 O328 1.244 . S
C338 O333 1.256 . S
C339 O330 1.239 . S
C339 O331 1.256 . S
O340 Mn322 2.221 . S
O340 Mn324 2.290 . S
O340 C334 1.278 . S
O341 Mn324 2.251 . S
O341 C334 1.241 . S
O342 Mn343 2.163 . S
O342 C356 1.244 . S
Mn343 O342 2.163 . S
Mn343 O346 2.160 . S
Mn343 O347 2.221 . S
Mn343 O349 2.163 . S
Mn343 O351 2.160 . S
Mn343 O361 2.221 . S
O344 Mn345 2.087 . S
O344 C356 1.256 . S
Mn345 O344 2.087 . S
Mn345 O352 2.089 . S
Mn345 O361 2.290 . S
Mn345 O362 2.251 . S
O346 Mn343 2.160 . S
O346 C357 1.239 . S
O347 Mn343 2.221 . S
O347 Mn348 2.290 . S
O347 C358 1.278 . S
Mn348 O347 2.290 . S
Mn348 O350 2.089 . S
Mn348 O353 2.251 . S
Mn348 O354 2.087 . S
O349 Mn343 2.163 . S
O349 C359 1.244 . S
O350 Mn348 2.089 . S
O350 C357 1.256 . S
O351 Mn343 2.160 . S
O351 C360 1.239 . S
O352 Mn345 2.089 . S
O352 C360 1.256 . S
O353 Mn348 2.251 . S
O353 C358 1.241 . S
O354 Mn348 2.087 . S
O354 C359 1.256 . S
C355 O361 1.278 . S
C355 O362 1.241 . S
C356 O342 1.244 . S
C356 O344 1.256 . S
C357 O346 1.239 . S
C357 O350 1.256 . S
C358 O347 1.278 . S
C358 O353 1.241 . S
C359 O349 1.244 . S
C359 O354 1.256 . S
C360 O351 1.239 . S
C360 O352 1.256 . S
O361 Mn343 2.221 . S
O361 Mn345 2.290 . S
O361 C355 1.278 . S
O362 Mn345 2.251 . S
O362 C355 1.241 . S
O363 Mn364 2.163 . S
O363 C377 1.244 . S
Mn364 O363 2.163 . S
Mn364 O367 2.160 . S
Mn364 O368 2.221 . S
Mn364 O370 2.163 . S
Mn364 O372 2.160 . S
Mn364 O382 2.221 . S
O365 Mn366 2.087 . S
O365 C377 1.256 . S
Mn366 O365 2.087 . S
Mn366 O373 2.089 . S
Mn366 O382 2.290 . S
Mn366 O383 2.251 . S
O367 Mn364 2.160 . S
O367 C378 1.239 . S
O368 Mn364 2.221 . S
O368 Mn369 2.290 . S
O368 C379 1.278 . S
Mn369 O368 2.290 . S
Mn369 O371 2.089 . S
Mn369 O374 2.251 . S
Mn369 O375 2.087 . S
O370 Mn364 2.163 . S
O370 C380 1.244 . S
O371 Mn369 2.089 . S
O371 C378 1.256 . S
O372 Mn364 2.160 . S
O372 C381 1.239 . S
O373 Mn366 2.089 . S
O373 C381 1.256 . S
O374 Mn369 2.251 . S
O374 C379 1.241 . S
O375 Mn369 2.087 . S
O375 C380 1.256 . S
C376 O382 1.278 . S
C376 O383 1.241 . S
C377 O363 1.244 . S
C377 O365 1.256 . S
C378 O367 1.239 . S
C378 O371 1.256 . S
C379 O368 1.278 . S
C379 O374 1.241 . S
C380 O370 1.244 . S
C380 O375 1.256 . S
C381 O372 1.239 . S
C381 O373 1.256 . S
O382 Mn364 2.221 . S
O382 Mn366 2.290 . S
O382 C376 1.278 . S
O383 Mn366 2.251 . S
O383 C376 1.241 . S
O384 Mn385 2.163 . S
O384 C398 1.244 . S
Mn385 O384 2.163 . S
Mn385 O388 2.160 . S
Mn385 O389 2.221 . S
Mn385 O391 2.163 . S
Mn385 O393 2.160 . S
Mn385 O403 2.221 . S
O386 Mn387 2.087 . S
O386 C398 1.256 . S
Mn387 O386 2.087 . S
Mn387 O394 2.089 . S
Mn387 O403 2.290 . S
Mn387 O404 2.251 . S
O388 Mn385 2.160 . S
O388 C399 1.239 . S
O389 Mn385 2.221 . S
O389 Mn390 2.290 . S
O389 C400 1.278 . S
Mn390 O389 2.290 . S
Mn390 O392 2.089 . S
Mn390 O395 2.251 . S
Mn390 O396 2.087 . S
O391 Mn385 2.163 . S
O391 C401 1.244 . S
O392 Mn390 2.089 . S
O392 C399 1.256 . S
O393 Mn385 2.160 . S
O393 C402 1.239 . S
O394 Mn387 2.089 . S
O394 C402 1.256 . S
O395 Mn390 2.251 . S
O395 C400 1.241 . S
O396 Mn390 2.087 . S
O396 C401 1.256 . S
C397 O403 1.278 . S
C397 O404 1.241 . S
C398 O384 1.244 . S
C398 O386 1.256 . S
C399 O388 1.239 . S
C399 O392 1.256 . S
C400 O389 1.278 . S
C400 O395 1.241 . S
C401 O391 1.244 . S
C401 O396 1.256 . S
C402 O393 1.239 . S
C402 O394 1.256 . S
O403 Mn385 2.221 . S
O403 Mn387 2.290 . S
O403 C397 1.278 . S
O404 Mn387 2.251 . S
O404 C397 1.241 . S
H405 C413 0.929 . S
H406 C415 0.930 . S
H407 C417 0.930 1_556 S
H408 C420 0.929 1_556 S
H409 C423 0.930 . S
H410 C425 0.960 . S
H411 C425 0.960 . S
H412 C425 0.960 . S
C413 H405 0.929 . S
C413 C414 1.377 . S
C413 C415 1.384 . S
C414 C413 1.377 . S
C414 C420 1.390 . S
C415 H406 0.930 . S
C415 C413 1.384 . S
C415 C416 1.372 . S
C416 C415 1.372 . S
C416 C417 1.400 . S
C416 C421 1.490 . S
C417 H407 0.930 1_554 S
C417 C416 1.400 . S
C417 C420 1.386 . S
H418 C434 0.930 . S
H419 C435 0.931 . S
C420 H408 0.929 1_554 S
C420 C414 1.390 . S
C420 C417 1.386 . S
C421 C416 1.490 . S
C421 C423 1.395 . S
C421 C424 1.403 . S
H422 C428 0.930 . S
C423 H409 0.930 . S
C423 C421 1.395 . S
C423 C426 1.403 . S
C424 C421 1.403 . S
C424 C425 1.524 . S
C424 C428 1.400 . S
C425 H410 0.960 . S
C425 H411 0.960 . S
C425 H412 0.960 . S
C425 C424 1.524 . S
C426 C423 1.403 . S
C426 C427 1.392 . S
C426 C430 1.495 . S
C427 C426 1.392 . S
C427 C428 1.385 . S
C427 C429 1.478 . S
C428 H422 0.930 . S
C428 C424 1.400 . S
C428 C427 1.385 . S
C429 C427 1.478 . S
C429 C431 1.381 . S
C429 C435 1.383 1_554 S
C430 C426 1.495 . S
C430 H436 0.959 . S
C430 H437 0.961 . S
C430 H438 0.960 . S
C431 C429 1.381 . S
C431 C432 1.394 . S
C431 H439 0.930 . S
C432 C431 1.394 . S
C432 C433 1.383 . S
C432 H440 0.929 . S
C433 C432 1.383 . S
C433 C434 1.377 1_554 S
C434 H418 0.930 . S
C434 C433 1.377 1_556 S
C434 C435 1.379 . S
C435 H419 0.931 . S
C435 C429 1.383 1_556 S
C435 C434 1.379 . S
H436 C430 0.959 . S
H437 C430 0.961 . S
H438 C430 0.960 . S
H439 C431 0.930 . S
H440 C432 0.929 . S
H441 C449 0.929 . S
H442 C451 0.930 . S
H443 C453 0.930 1_556 S
H444 C456 0.929 1_556 S
H445 C459 0.930 . S
H446 C461 0.960 . S
H447 C461 0.960 . S
H448 C461 0.960 . S
C449 H441 0.929 . S
C449 C450 1.377 . S
C449 C451 1.384 . S
C450 C449 1.377 . S
C450 C456 1.390 . S
C451 H442 0.930 . S
C451 C449 1.384 . S
C451 C452 1.372 . S
C452 C451 1.372 . S
C452 C453 1.400 . S
C452 C457 1.490 . S
C453 H443 0.930 1_554 S
C453 C452 1.400 . S
C453 C456 1.386 . S
H454 C470 0.930 . S
H455 C471 0.931 . S
C456 H444 0.929 1_554 S
C456 C450 1.390 . S
C456 C453 1.386 . S
C457 C452 1.490 . S
C457 C459 1.395 . S
C457 C460 1.403 . S
H458 C464 0.930 . S
C459 H445 0.930 . S
C459 C457 1.395 . S
C459 C462 1.403 . S
C460 C457 1.403 . S
C460 C461 1.524 . S
C460 C464 1.400 . S
C461 H446 0.960 . S
C461 H447 0.960 . S
C461 H448 0.960 . S
C461 C460 1.524 . S
C462 C459 1.403 . S
C462 C463 1.392 . S
C462 C466 1.495 . S
C463 C462 1.392 . S
C463 C464 1.385 . S
C463 C465 1.478 . S
C464 H458 0.930 . S
C464 C460 1.400 . S
C464 C463 1.385 . S
C465 C463 1.478 . S
C465 C467 1.381 . S
C465 C471 1.383 1_554 S
C466 C462 1.495 . S
C466 H472 0.959 . S
C466 H473 0.961 . S
C466 H474 0.960 . S
C467 C465 1.381 . S
C467 C468 1.394 . S
C467 H475 0.930 . S
C468 C467 1.394 . S
C468 C469 1.383 . S
C468 H476 0.929 . S
C469 C468 1.383 . S
C469 C470 1.377 1_554 S
C470 H454 0.930 . S
C470 C469 1.377 1_556 S
C470 C471 1.379 . S
C471 H455 0.931 . S
C471 C465 1.383 1_556 S
C471 C470 1.379 . S
H472 C466 0.959 . S
H473 C466 0.961 . S
H474 C466 0.960 . S
H475 C467 0.930 . S
H476 C468 0.929 . S
H477 C485 0.929 . S
H478 C487 0.930 . S
H479 C489 0.944 . S
H480 C492 0.929 . S
H481 C495 0.930 . S
H482 C497 0.960 . S
H483 C497 0.960 . S
H484 C497 0.960 . S
C485 H477 0.929 . S
C485 C486 1.377 . S
C485 C487 1.384 . S
C486 C485 1.377 . S
C486 C492 1.390 . S
C487 H478 0.930 . S
C487 C485 1.384 . S
C487 C488 1.372 . S
C488 C487 1.372 . S
C488 C489 1.400 . S
C488 C493 1.490 . S
C489 H479 0.944 . S
C489 C488 1.400 . S
C489 C492 1.386 . S
H490 C506 0.930 1_556 S
H491 C507 0.931 . S
C492 H480 0.929 . S
C492 C486 1.390 . S
C492 C489 1.386 . S
C493 C488 1.490 . S
C493 C495 1.395 . S
C493 C496 1.403 . S
H494 C500 0.930 1_556 S
C495 H481 0.930 . S
C495 C493 1.395 . S
C495 C498 1.403 . S
C496 C493 1.403 . S
C496 C497 1.524 1_554 S
C496 C500 1.400 . S
C497 H482 0.960 . S
C497 H483 0.960 . S
C497 H484 0.960 . S
C497 C496 1.524 1_556 S
C498 C495 1.403 . S
C498 C499 1.392 . S
C498 C502 1.495 . S
C499 C498 1.392 . S
C499 C500 1.385 . S
C499 C501 1.478 . S
C500 H494 0.930 1_554 S
C500 C496 1.400 . S
C500 C499 1.385 . S
C501 C499 1.478 . S
C501 C503 1.381 . S
C501 C507 1.383 . S
C502 C498 1.495 . S
C502 H508 0.959 . S
C502 H509 0.961 . S
C502 H510 0.960 . S
C503 C501 1.381 . S
C503 C504 1.394 . S
C503 H511 0.930 . S
C504 C503 1.394 . S
C504 C505 1.383 . S
C504 H512 0.929 . S
C505 C504 1.383 . S
C505 C506 1.377 . S
C506 H490 0.930 1_554 S
C506 C505 1.377 . S
C506 C507 1.379 . S
C507 H491 0.931 . S
C507 C501 1.383 . S
C507 C506 1.379 . S
H508 C502 0.959 . S
H509 C502 0.961 . S
H510 C502 0.960 . S
H511 C503 0.930 . S
H512 C504 0.929 . S
H513 C521 0.929 . S
H514 C523 0.930 . S
H515 C525 0.930 . S
H516 C528 0.929 . S
H517 C531 0.930 . S
H518 C533 0.960 . S
H519 C533 0.960 . S
H520 C533 0.960 . S
C521 H513 0.929 . S
C521 C522 1.377 . S
C521 C523 1.384 . S
C522 C521 1.377 . S
C522 C528 1.390 1_556 S
C523 H514 0.930 . S
C523 C521 1.384 . S
C523 C524 1.372 . S
C524 C523 1.372 . S
C524 C525 1.400 1_556 S
C524 C529 1.488 1_556 S
C525 H515 0.930 . S
C525 C524 1.400 1_554 S
C525 C528 1.386 . S
H526 C542 0.930 . S
H527 C543 0.931 . S
C528 H516 0.929 . S
C528 C522 1.390 1_554 S
C528 C525 1.386 . S
C529 C524 1.488 1_554 S
C529 C531 1.419 . S
C529 C532 1.382 1_554 S
H530 C536 0.930 . S
C531 H517 0.930 . S
C531 C529 1.419 . S
C531 C534 1.403 . S
C532 C529 1.382 1_556 S
C532 C533 1.524 . S
C532 C536 1.400 . S
C533 H518 0.960 . S
C533 H519 0.960 . S
C533 H520 0.960 . S
C533 C532 1.524 . S
C534 C531 1.403 . S
C534 C535 1.392 . S
C534 C538 1.495 . S
C535 C534 1.392 . S
C535 C536 1.385 1_554 S
C535 C537 1.478 . S
C536 H530 0.930 . S
C536 C532 1.400 . S
C536 C535 1.385 1_556 S
C537 C535 1.478 . S
C537 C539 1.381 . S
C537 C543 1.383 . S
C538 C534 1.495 . S
C538 H544 0.959 . S
C538 H545 0.961 . S
C538 H546 0.960 . S
C539 C537 1.381 . S
C539 C540 1.394 . S
C539 H547 0.930 1_554 S
C540 C539 1.394 . S
C540 C541 1.383 . S
C540 H548 0.929 1_554 S
C541 C540 1.383 . S
C541 C542 1.377 . S
C542 H526 0.930 . S
C542 C541 1.377 . S
C542 C543 1.379 . S
C543 H527 0.931 . S
C543 C537 1.383 . S
C543 C542 1.379 . S
H544 C538 0.959 . S
H545 C538 0.961 . S
H546 C538 0.960 . S
H547 C539 0.930 1_556 S
H548 C540 0.929 1_556 S
H549 C557 0.929 . S
H550 C559 0.930 . S
H551 C561 0.930 . S
H552 C564 0.929 . S
H553 C567 0.930 . S
H554 C569 0.960 . S
H555 C569 0.960 . S
H556 C569 0.960 . S
C557 H549 0.929 . S
C557 C558 1.382 . S
C557 C559 1.384 . S
C558 C557 1.382 . S
C558 C564 1.384 1_556 S
C559 H550 0.930 . S
C559 C557 1.384 . S
C559 C560 1.350 1_556 S
C560 C559 1.350 1_554 S
C560 C561 1.421 . S
C560 C565 1.490 . S
C561 H551 0.930 . S
C561 C560 1.421 . S
C561 C564 1.386 . S
H562 C578 0.930 . S
H563 C579 0.931 . S
C564 H552 0.929 . S
C564 C558 1.384 1_554 S
C564 C561 1.386 . S
C565 C560 1.490 . S
C565 C567 1.358 1_554 S
C565 C568 1.439 . S
H566 C572 0.930 . S
C567 H553 0.930 . S
C567 C565 1.358 1_556 S
C567 C570 1.403 . S
C568 C565 1.439 . S
C568 C569 1.524 . S
C568 C572 1.400 . S
C569 H554 0.960 . S
C569 H555 0.960 . S
C569 H556 0.960 . S
C569 C568 1.524 . S
C570 C567 1.403 . S
C570 C571 1.420 . S
C570 C574 1.495 . S
C571 C570 1.420 . S
C571 C572 1.358 1_556 S
C571 C573 1.476 1_556 S
C572 H566 0.930 . S
C572 C568 1.400 . S
C572 C571 1.358 1_554 S
C573 C571 1.476 1_554 S
C573 C575 1.377 1_554 S
C573 C579 1.388 . S
C574 C570 1.495 . S
C574 H580 0.959 . S
C574 H581 0.961 . S
C574 H582 0.960 . S
C575 C573 1.377 1_556 S
C575 C576 1.394 . S
C575 H583 0.930 . S
C576 C575 1.394 . S
C576 C577 1.383 1_556 S
C576 H584 0.929 . S
C577 C576 1.383 1_554 S
C577 C578 1.377 . S
C578 H562 0.930 . S
C578 C577 1.377 . S
C578 C579 1.379 . S
C579 H563 0.931 . S
C579 C573 1.388 . S
C579 C578 1.379 . S
H580 C574 0.959 . S
H581 C574 0.961 . S
H582 C574 0.960 . S
H583 C575 0.930 . S
H584 C576 0.929 . S
H585 C593 0.929 . S
H586 C595 0.930 . S
H587 C597 0.930 . S
H588 C600 0.929 . S
H589 C603 0.928 1_556 S
H590 C605 0.960 . S
H591 C605 0.960 . S
H592 C605 0.960 . S
C593 H585 0.929 . S
C593 C594 1.377 . S
C593 C595 1.384 . S
C594 C593 1.377 . S
C594 C600 1.390 1_554 S
C595 H586 0.930 . S
C595 C593 1.384 . S
C595 C596 1.372 . S
C596 C595 1.372 . S
C596 C597 1.400 1_554 S
C596 C601 1.490 . S
C597 H587 0.930 . S
C597 C596 1.400 1_556 S
C597 C600 1.386 . S
H598 C614 0.930 . S
H599 C615 0.931 . S
C600 H588 0.929 . S
C600 C594 1.390 1_556 S
C600 C597 1.386 . S
C601 C596 1.490 . S
C601 C603 1.397 . S
C601 C604 1.403 . S
H602 C608 0.930 . S
C603 H589 0.928 1_554 S
C603 C601 1.397 . S
C603 C606 1.403 . S
C604 C601 1.403 . S
C604 C605 1.524 . S
C604 C608 1.400 . S
C605 H590 0.960 . S
C605 H591 0.960 . S
C605 H592 0.960 . S
C605 C604 1.524 . S
C606 C603 1.403 . S
C606 C607 1.394 . S
C606 C610 1.494 1_554 S
C607 C606 1.394 . S
C607 C608 1.385 . S
C607 C609 1.478 . S
C608 H602 0.930 . S
C608 C604 1.400 . S
C608 C607 1.385 . S
C609 C607 1.478 . S
C609 C611 1.381 . S
C609 C615 1.383 1_554 S
C610 C606 1.494 1_556 S
C610 H616 0.959 . S
C610 H617 0.961 . S
C610 H618 0.960 1_556 S
C611 C609 1.381 . S
C611 C612 1.394 . S
C611 H619 0.930 . S
C612 C611 1.394 . S
C612 C613 1.383 . S
C612 H620 0.929 . S
C613 C612 1.383 . S
C613 C614 1.377 1_554 S
C614 H598 0.930 . S
C614 C613 1.377 1_556 S
C614 C615 1.379 . S
C615 H599 0.931 . S
C615 C609 1.383 1_556 S
C615 C614 1.379 . S
H616 C610 0.959 . S
H617 C610 0.961 . S
H618 C610 0.960 1_554 S
H619 C611 0.930 . S
H620 C612 0.929 . S
H621 C629 0.929 . S
H622 C631 0.930 . S
H623 C633 0.930 . S
H624 C636 0.929 . S
H625 C639 0.930 . S
H626 C641 0.960 . S
H627 C641 0.960 . S
H628 C641 0.960 . S
C629 H621 0.929 . S
C629 C630 1.377 1_556 S
C629 C631 1.384 . S
C630 C629 1.377 1_554 S
C630 C636 1.390 . S
C631 H622 0.930 . S
C631 C629 1.384 . S
C631 C632 1.372 1_556 S
C632 C631 1.372 1_554 S
C632 C633 1.400 . S
C632 C637 1.490 . S
C633 H623 0.930 . S
C633 C632 1.400 . S
C633 C636 1.386 . S
H634 C650 0.930 . S
H635 C651 0.931 . S
C636 H624 0.929 . S
C636 C630 1.390 . S
C636 C633 1.386 . S
C637 C632 1.490 . S
C637 C639 1.395 1_554 S
C637 C640 1.403 . S
H638 C644 0.930 . S
C639 H625 0.930 . S
C639 C637 1.395 1_556 S
C639 C642 1.403 . S
C640 C637 1.403 . S
C640 C641 1.524 . S
C640 C644 1.400 . S
C641 H626 0.960 . S
C641 H627 0.960 . S
C641 H628 0.960 . S
C641 C640 1.524 . S
C642 C639 1.403 . S
C642 C643 1.392 1_556 S
C642 C646 1.495 . S
C643 C642 1.392 1_554 S
C643 C644 1.385 . S
C643 C645 1.478 . S
C644 H638 0.930 . S
C644 C640 1.400 . S
C644 C643 1.385 . S
C645 C643 1.478 . S
C645 C647 1.381 1_554 S
C645 C651 1.383 . S
C646 C642 1.495 . S
C646 H652 0.959 . S
C646 H653 0.961 . S
C646 H654 0.960 . S
C647 C645 1.381 1_556 S
C647 C648 1.394 . S
C647 H655 0.930 . S
C648 C647 1.394 . S
C648 C649 1.383 1_556 S
C648 H656 0.929 . S
C649 C648 1.383 1_554 S
C649 C650 1.377 . S
C650 H634 0.930 . S
C650 C649 1.377 . S
C650 C651 1.379 . S
C651 H635 0.931 . S
C651 C645 1.383 . S
C651 C650 1.379 . S
H652 C646 0.959 . S
H653 C646 0.961 . S
H654 C646 0.960 . S
H655 C647 0.930 . S
H656 C648 0.929 . S
H657 C665 0.929 . S
H658 C667 0.930 . S
H659 C669 0.930 . S
H660 C672 0.929 . S
H661 C675 0.924 1_556 S
H662 C677 0.960 . S
H663 C677 0.960 . S
H664 C677 0.960 . S
C665 H657 0.929 . S
C665 C666 1.377 . S
C665 C667 1.384 . S
C666 C665 1.377 . S
C666 C672 1.390 1_554 S
C667 H658 0.930 . S
C667 C665 1.384 . S
C667 C668 1.372 . S
C668 C667 1.372 . S
C668 C669 1.400 1_554 S
C668 C673 1.490 . S
C669 H659 0.930 . S
C669 C668 1.400 1_556 S
C669 C672 1.386 . S
H670 C686 0.930 . S
H671 C687 0.931 . S
C672 H660 0.929 . S
C672 C666 1.390 1_556 S
C672 C669 1.386 . S
C673 C668 1.490 . S
C673 C675 1.395 . S
C673 C676 1.403 . S
H674 C680 0.930 . S
C675 H661 0.924 1_554 S
C675 C673 1.395 . S
C675 C678 1.403 . S
C676 C673 1.403 . S
C676 C677 1.524 . S
C676 C680 1.400 . S
C677 H662 0.960 . S
C677 H663 0.960 . S
C677 H664 0.960 . S
C677 C676 1.524 . S
C678 C675 1.403 . S
C678 C679 1.392 . S
C678 C682 1.495 1_554 S
C679 C678 1.392 . S
C679 C680 1.385 . S
C679 C681 1.478 . S
C680 H674 0.930 . S
C680 C676 1.400 . S
C680 C679 1.385 . S
C681 C679 1.478 . S
C681 C683 1.381 . S
C681 C687 1.383 1_554 S
C682 C678 1.495 1_556 S
C682 H688 0.959 . S
C682 H689 0.961 . S
C682 H690 0.960 1_556 S
C683 C681 1.381 . S
C683 C684 1.394 . S
C683 H691 0.930 . S
C684 C683 1.394 . S
C684 C685 1.383 . S
C684 H692 0.929 . S
C685 C684 1.383 . S
C685 C686 1.377 1_554 S
C686 H670 0.930 . S
C686 C685 1.377 1_556 S
C686 C687 1.379 . S
C687 H671 0.931 . S
C687 C681 1.383 1_556 S
C687 C686 1.379 . S
H688 C682 0.959 . S
H689 C682 0.961 . S
H690 C682 0.960 1_554 S
H691 C683 0.930 . S
H692 C684 0.929 . S
H693 C701 0.929 . S
H694 C703 0.930 . S
H695 C705 0.930 . S
H696 C708 0.929 . S
H697 C711 0.930 . S
H698 C713 0.960 . S
H699 C713 0.960 . S
H700 C713 0.960 . S
C701 H693 0.929 . S
C701 C702 1.377 . S
C701 C703 1.384 . S
C702 C701 1.377 . S
C702 C708 1.390 1_554 S
C703 H694 0.930 . S
C703 C701 1.384 . S
C703 C704 1.372 . S
C704 C703 1.372 . S
C704 C705 1.400 1_554 S
C704 C709 1.490 . S
C705 H695 0.930 . S
C705 C704 1.400 1_556 S
C705 C708 1.386 . S
H706 C722 0.930 . S
H707 C723 0.931 . S
C708 H696 0.929 . S
C708 C702 1.390 1_556 S
C708 C705 1.386 . S
C709 C704 1.490 . S
C709 C711 1.395 . S
C709 C712 1.404 1_554 S
H710 C716 0.930 1_556 S
C711 H697 0.930 . S
C711 C709 1.395 . S
C711 C714 1.403 . S
C712 C709 1.404 1_556 S
C712 C713 1.522 . S
C712 C716 1.400 1_556 S
C713 H698 0.960 . S
C713 H699 0.960 . S
C713 H700 0.960 . S
C713 C712 1.522 . S
C714 C711 1.403 . S
C714 C715 1.392 . S
C714 C718 1.495 . S
C715 C714 1.392 . S
C715 C716 1.385 . S
C715 C717 1.478 . S
C716 H710 0.930 1_554 S
C716 C712 1.400 1_554 S
C716 C715 1.385 . S
C717 C715 1.478 . S
C717 C719 1.381 . S
C717 C723 1.383 1_554 S
C718 C714 1.495 . S
C718 H724 0.959 . S
C718 H725 0.961 . S
C718 H726 0.960 . S
C719 C717 1.381 . S
C719 C720 1.394 . S
C719 H727 0.930 . S
C720 C719 1.394 . S
C720 C721 1.383 . S
C720 H728 0.929 . S
C721 C720 1.383 . S
C721 C722 1.377 1_554 S
C722 H706 0.930 . S
C722 C721 1.377 1_556 S
C722 C723 1.379 . S
C723 H707 0.931 . S
C723 C717 1.383 1_556 S
C723 C722 1.379 . S
H724 C718 0.959 . S
H725 C718 0.961 . S
H726 C718 0.960 . S
H727 C719 0.930 . S
H728 C720 0.929 . S
H729 C737 0.929 . S
H730 C739 0.930 . S
H731 C741 0.930 . S
H732 C744 0.929 . S
H733 C747 0.930 . S
H734 C749 0.960 . S
H735 C749 0.960 . S
H736 C749 0.960 . S
C737 H729 0.929 . S
C737 C738 1.377 . S
C737 C739 1.384 . S
C738 C737 1.377 . S
C738 C744 1.390 . S
C739 H730 0.930 . S
C739 C737 1.384 . S
C739 C740 1.372 . S
C740 C739 1.372 . S
C740 C741 1.400 . S
C740 C745 1.490 . S
C741 H731 0.930 . S
C741 C740 1.400 . S
C741 C744 1.386 . S
H742 C758 0.930 . S
H743 C759 0.931 . S
C744 H732 0.929 . S
C744 C738 1.390 . S
C744 C741 1.386 . S
C745 C740 1.490 . S
C745 C747 1.395 1_554 S
C745 C748 1.403 . S
H746 C752 0.930 . S
C747 H733 0.930 . S
C747 C745 1.395 1_556 S
C747 C750 1.403 . S
C748 C745 1.403 . S
C748 C749 1.524 . S
C748 C752 1.400 . S
C749 H734 0.960 . S
C749 H735 0.960 . S
C749 H736 0.960 . S
C749 C748 1.524 . S
C750 C747 1.403 . S
C750 C751 1.392 1_556 S
C750 C754 1.495 . S
C751 C750 1.392 1_554 S
C751 C752 1.385 . S
C751 C753 1.478 . S
C752 H746 0.930 . S
C752 C748 1.400 . S
C752 C751 1.385 . S
C753 C751 1.478 . S
C753 C755 1.381 . S
C753 C759 1.383 1_554 S
C754 C750 1.495 . S
C754 H760 0.959 . S
C754 H761 0.961 . S
C754 H762 0.960 . S
C755 C753 1.381 . S
C755 C756 1.394 . S
C755 H763 0.930 . S
C756 C755 1.394 . S
C756 C757 1.383 . S
C756 H764 0.929 . S
C757 C756 1.383 . S
C757 C758 1.377 1_554 S
C758 H742 0.930 . S
C758 C757 1.377 1_556 S
C758 C759 1.379 . S
C759 H743 0.931 . S
C759 C753 1.383 1_556 S
C759 C758 1.379 . S
H760 C754 0.959 . S
H761 C754 0.961 . S
H762 C754 0.960 . S
H763 C755 0.930 . S
H764 C756 0.929 . S
H765 C773 0.929 . S
H766 C775 0.930 . S
H767 C777 0.930 . S
H768 C780 0.929 . S
H769 C783 0.930 . S
H770 C785 0.960 1_556 S
H771 C785 0.960 . S
H772 C785 0.960 1_556 S
C773 H765 0.929 . S
C773 C774 1.377 . S
C773 C775 1.384 . S
C774 C773 1.377 . S
C774 C780 1.390 1_554 S
C775 H766 0.930 . S
C775 C773 1.384 . S
C775 C776 1.372 . S
C776 C775 1.372 . S
C776 C777 1.400 1_554 S
C776 C781 1.490 . S
C777 H767 0.930 . S
C777 C776 1.400 1_556 S
C777 C780 1.386 . S
H778 C794 0.930 . S
H779 C795 0.931 . S
C780 H768 0.929 . S
C780 C774 1.390 1_556 S
C780 C777 1.386 . S
C781 C776 1.490 . S
C781 C783 1.395 . S
C781 C784 1.403 . S
H782 C788 0.930 . S
C783 H769 0.930 . S
C783 C781 1.395 . S
C783 C786 1.403 . S
C784 C781 1.403 . S
C784 C785 1.524 . S
C784 C788 1.400 . S
C785 H770 0.960 1_554 S
C785 H771 0.960 . S
C785 H772 0.960 1_554 S
C785 C784 1.524 . S
C786 C783 1.403 . S
C786 C787 1.392 . S
C786 C790 1.495 . S
C787 C786 1.392 . S
C787 C788 1.385 . S
C787 C789 1.478 . S
C788 H782 0.930 . S
C788 C784 1.400 . S
C788 C787 1.385 . S
C789 C787 1.478 . S
C789 C791 1.381 . S
C789 C795 1.383 1_554 S
C790 C786 1.495 . S
C790 H796 0.959 . S
C790 H797 0.961 . S
C790 H798 0.960 . S
C791 C789 1.381 . S
C791 C792 1.394 . S
C791 H799 0.930 . S
C792 C791 1.394 . S
C792 C793 1.383 . S
C792 H800 0.929 . S
C793 C792 1.383 . S
C793 C794 1.377 1_554 S
C794 H778 0.930 . S
C794 C793 1.377 1_556 S
C794 C795 1.379 . S
C795 H779 0.931 . S
C795 C789 1.383 1_556 S
C795 C794 1.379 . S
H796 C790 0.959 . S
H797 C790 0.961 . S
H798 C790 0.960 . S
H799 C791 0.930 . S
H800 C792 0.929 . S
H801 C809 0.929 . S
H802 C811 0.930 . S
H803 C813 0.951 . S
H804 C816 0.928 . S
H805 C819 0.930 . S
H806 C821 0.960 . S
H807 C821 0.960 . S
H808 C821 0.960 . S
C809 H801 0.929 . S
C809 C810 1.377 . S
C809 C811 1.384 . S
C810 C809 1.377 . S
C810 C816 1.391 1_554 S
C811 H802 0.930 . S
C811 C809 1.384 . S
C811 C812 1.372 . S
C812 C811 1.372 . S
C812 C813 1.380 1_554 S
C812 C817 1.490 . S
C813 H803 0.951 . S
C813 C812 1.380 1_556 S
C813 C816 1.385 . S
H814 C830 0.930 . S
H815 C831 0.928 1_556 S
C816 H804 0.928 . S
C816 C810 1.391 1_556 S
C816 C813 1.385 . S
C817 C812 1.490 . S
C817 C819 1.395 . S
C817 C820 1.403 1_554 S
H818 C824 0.930 . S
C819 H805 0.930 . S
C819 C817 1.395 . S
C819 C822 1.403 . S
C820 C817 1.403 1_556 S
C820 C821 1.524 . S
C820 C824 1.400 . S
C821 H806 0.960 . S
C821 H807 0.960 . S
C821 H808 0.960 . S
C821 C820 1.524 . S
C822 C819 1.403 . S
C822 C823 1.392 . S
C822 C826 1.495 . S
C823 C822 1.392 . S
C823 C824 1.385 1_554 S
C823 C825 1.478 . S
C824 H818 0.930 . S
C824 C820 1.400 . S
C824 C823 1.385 1_556 S
C825 C823 1.478 . S
C825 C827 1.381 . S
C825 C831 1.386 . S
C826 C822 1.495 . S
C826 H832 0.959 . S
C826 H833 0.961 . S
C826 H834 0.960 . S
C827 C825 1.381 . S
C827 C828 1.394 . S
C827 H835 0.930 . S
C828 C827 1.394 . S
C828 C829 1.383 . S
C828 H836 0.929 . S
C829 C828 1.383 . S
C829 C830 1.377 1_554 S
C830 H814 0.930 . S
C830 C829 1.377 1_556 S
C830 C831 1.379 1_556 S
C831 H815 0.928 1_554 S
C831 C825 1.386 . S
C831 C830 1.379 1_554 S
H832 C826 0.959 . S
H833 C826 0.961 . S
H834 C826 0.960 . S
H835 C827 0.930 . S
H836 C828 0.929 . S
H837 C845 0.929 . S
H838 C847 0.930 . S
H839 C849 0.930 . S
H840 C852 0.929 . S
H841 C855 0.930 . S
H842 C857 0.960 . S
H843 C857 0.960 . S
H844 C857 0.960 . S
C845 H837 0.929 . S
C845 C846 1.377 . S
C845 C847 1.384 . S
C846 C845 1.377 . S
C846 C852 1.390 . S
C847 H838 0.930 . S
C847 C845 1.384 . S
C847 C848 1.372 . S
C848 C847 1.372 . S
C848 C849 1.400 . S
C848 C853 1.490 . S
C849 H839 0.930 . S
C849 C848 1.400 . S
C849 C852 1.386 . S
H850 C866 0.930 . S
H851 C867 0.931 . S
C852 H840 0.929 . S
C852 C846 1.390 . S
C852 C849 1.386 . S
C853 C848 1.490 . S
C853 C855 1.395 1_655 S
C853 C856 1.403 . S
H854 C860 0.930 . S
C855 H841 0.930 . S
C855 C853 1.395 1_455 S
C855 C858 1.403 . S
C856 C853 1.403 . S
C856 C857 1.524 . S
C856 C860 1.400 1_655 S
C857 H842 0.960 . S
C857 H843 0.960 . S
C857 H844 0.960 . S
C857 C856 1.524 . S
C858 C855 1.403 . S
C858 C859 1.392 . S
C858 C862 1.495 . S
C859 C858 1.392 . S
C859 C860 1.385 . S
C859 C861 1.478 . S
C860 H854 0.930 . S
C860 C856 1.400 1_455 S
C860 C859 1.385 . S
C861 C859 1.478 . S
C861 C863 1.381 . S
C861 C867 1.383 . S
C862 C858 1.495 . S
C862 H868 0.959 . S
C862 H869 0.961 . S
C862 H870 0.960 . S
C863 C861 1.381 . S
C863 C864 1.394 . S
C863 H871 0.930 . S
C864 C863 1.394 . S
C864 C865 1.383 . S
C864 H872 0.929 . S
C865 C864 1.383 . S
C865 C866 1.377 . S
C866 H850 0.930 . S
C866 C865 1.377 . S
C866 C867 1.379 . S
C867 H851 0.931 . S
C867 C861 1.383 . S
C867 C866 1.379 . S
H868 C862 0.959 . S
H869 C862 0.961 . S
H870 C862 0.960 . S
H871 C863 0.930 . S
H872 C864 0.929 . S
H873 C881 0.929 . S
H874 C883 0.930 . S
H875 C885 0.930 . S
H876 C888 0.929 . S
H877 C891 0.930 . S
H878 C893 0.960 . S
H879 C893 0.960 . S
H880 C893 0.960 . S
C881 H873 0.929 . S
C881 C882 1.377 . S
C881 C883 1.384 . S
C882 C881 1.377 . S
C882 C888 1.390 . S
C883 H874 0.930 . S
C883 C881 1.384 . S
C883 C884 1.372 . S
C884 C883 1.372 . S
C884 C885 1.400 . S
C884 C889 1.490 . S
C885 H875 0.930 . S
C885 C884 1.400 . S
C885 C888 1.386 . S
H886 C902 0.930 . S
H887 C903 0.931 . S
C888 H876 0.929 . S
C888 C882 1.390 . S
C888 C885 1.386 . S
C889 C884 1.490 . S
C889 C891 1.395 . S
C889 C892 1.403 . S
H890 C896 0.930 . S
C891 H877 0.930 . S
C891 C889 1.395 . S
C891 C894 1.403 . S
C892 C889 1.403 . S
C892 C893 1.524 . S
C892 C896 1.400 . S
C893 H878 0.960 . S
C893 H879 0.960 . S
C893 H880 0.960 . S
C893 C892 1.524 . S
C894 C891 1.403 . S
C894 C895 1.392 . S
C894 C898 1.495 . S
C895 C894 1.392 . S
C895 C896 1.385 . S
C895 C897 1.478 . S
C896 H890 0.930 . S
C896 C892 1.400 . S
C896 C895 1.385 . S
C897 C895 1.478 . S
C897 C899 1.381 . S
C897 C903 1.383 . S
C898 C894 1.495 . S
C898 H904 0.959 . S
C898 H905 0.961 . S
C898 H906 0.960 . S
C899 C897 1.381 . S
C899 C900 1.394 . S
C899 H907 0.930 . S
C900 C899 1.394 . S
C900 C901 1.383 . S
C900 H908 0.929 . S
C901 C900 1.383 . S
C901 C902 1.377 . S
C902 H886 0.930 . S
C902 C901 1.377 . S
C902 C903 1.379 . S
C903 H887 0.931 . S
C903 C897 1.383 . S
C903 C902 1.379 . S
H904 C898 0.959 . S
H905 C898 0.961 . S
H906 C898 0.960 . S
H907 C899 0.930 . S
H908 C900 0.929 . S
H909 C917 0.929 . S
H910 C919 0.930 . S
H911 C921 0.930 . S
H912 C924 0.929 . S
H913 C927 0.930 . S
H914 C929 0.960 . S
H915 C929 0.960 . S
H916 C929 0.960 . S
C917 H909 0.929 . S
C917 C918 1.377 . S
C917 C919 1.384 . S
C918 C917 1.377 . S
C918 C924 1.390 . S
C919 H910 0.930 . S
C919 C917 1.384 . S
C919 C920 1.372 . S
C920 C919 1.372 . S
C920 C921 1.400 . S
C920 C925 1.490 . S
C921 H911 0.930 . S
C921 C920 1.400 . S
C921 C924 1.386 . S
H922 C938 0.930 . S
H923 C939 0.931 . S
C924 H912 0.929 . S
C924 C918 1.390 . S
C924 C921 1.386 . S
C925 C920 1.490 . S
C925 C927 1.395 . S
C925 C928 1.403 . S
H926 C932 0.930 . S
C927 H913 0.930 . S
C927 C925 1.395 . S
C927 C930 1.403 1_545 S
C928 C925 1.403 . S
C928 C929 1.524 . S
C928 C932 1.400 1_545 S
C929 H914 0.960 . S
C929 H915 0.960 . S
C929 H916 0.960 . S
C929 C928 1.524 . S
C930 C927 1.403 1_565 S
C930 C931 1.392 . S
C930 C934 1.495 . S
C931 C930 1.392 . S
C931 C932 1.385 . S
C931 C933 1.478 . S
C932 H926 0.930 . S
C932 C928 1.400 1_565 S
C932 C931 1.385 . S
C933 C931 1.478 . S
C933 C935 1.381 . S
C933 C939 1.383 . S
C934 C930 1.495 . S
C934 H940 0.959 . S
C934 H941 0.961 . S
C934 H942 0.960 . S
C935 C933 1.381 . S
C935 C936 1.394 . S
C935 H943 0.930 . S
C936 C935 1.394 . S
C936 C937 1.383 . S
C936 H944 0.929 . S
C937 C936 1.383 . S
C937 C938 1.377 . S
C938 H922 0.930 . S
C938 C937 1.377 . S
C938 C939 1.379 . S
C939 H923 0.931 . S
C939 C933 1.383 . S
C939 C938 1.379 . S
H940 C934 0.959 . S
H941 C934 0.961 . S
H942 C934 0.960 . S
H943 C935 0.930 . S
H944 C936 0.929 . S
H945 C953 0.929 . S
H946 C955 0.930 . S
H947 C957 0.930 . S
H948 C960 0.929 . S
H949 C963 0.930 . S
H950 C965 0.960 . S
H951 C965 0.960 . S
H952 C965 0.960 . S
C953 H945 0.929 . S
C953 C954 1.377 . S
C953 C955 1.384 . S
C954 C953 1.377 . S
C954 C960 1.390 . S
C955 H946 0.930 . S
C955 C953 1.384 . S
C955 C956 1.372 . S
C956 C955 1.372 . S
C956 C957 1.400 . S
C956 C961 1.490 . S
C957 H947 0.930 . S
C957 C956 1.400 . S
C957 C960 1.386 . S
H958 C974 0.930 . S
H959 C975 0.931 . S
C960 H948 0.929 . S
C960 C954 1.390 . S
C960 C957 1.386 . S
C961 C956 1.490 . S
C961 C963 1.395 . S
C961 C964 1.403 . S
H962 C968 0.930 . S
C963 H949 0.930 . S
C963 C961 1.395 . S
C963 C966 1.403 . S
C964 C961 1.403 . S
C964 C965 1.524 . S
C964 C968 1.400 . S
C965 H950 0.960 . S
C965 H951 0.960 . S
C965 H952 0.960 . S
C965 C964 1.524 . S
C966 C963 1.403 . S
C966 C967 1.392 . S
C966 C970 1.495 . S
C967 C966 1.392 . S
C967 C968 1.385 . S
C967 C969 1.478 . S
C968 H962 0.930 . S
C968 C964 1.400 . S
C968 C967 1.385 . S
C969 C967 1.478 . S
C969 C971 1.381 . S
C969 C975 1.383 . S
C970 C966 1.495 . S
C970 H976 0.959 . S
C970 H977 0.961 . S
C970 H978 0.960 . S
C971 C969 1.381 . S
C971 C972 1.394 . S
C971 H979 0.930 . S
C972 C971 1.394 . S
C972 C973 1.383 . S
C972 H980 0.929 . S
C973 C972 1.383 . S
C973 C974 1.377 . S
C974 H958 0.930 . S
C974 C973 1.377 . S
C974 C975 1.379 . S
C975 H959 0.931 . S
C975 C969 1.383 . S
C975 C974 1.379 . S
H976 C970 0.959 . S
H977 C970 0.961 . S
H978 C970 0.960 . S
H979 C971 0.930 . S
H980 C972 0.929 . S
H981 C989 0.929 . S
H982 C991 0.930 . S
H983 C993 0.930 . S
H984 C996 0.929 . S
H985 C999 0.930 . S
H986 C1001 0.960 . S
H987 C1001 0.960 . S
H988 C1001 0.960 . S
C989 H981 0.929 . S
C989 C990 1.377 . S
C989 C991 1.384 . S
C990 C989 1.377 . S
C990 C996 1.390 . S
C991 H982 0.930 . S
C991 C989 1.384 . S
C991 C992 1.372 . S
C992 C991 1.372 . S
C992 C993 1.400 . S
C992 C997 1.490 . S
C993 H983 0.930 . S
C993 C992 1.400 . S
C993 C996 1.386 . S
H994 C1010 0.930 . S
H995 C1011 0.931 . S
C996 H984 0.929 . S
C996 C990 1.390 . S
C996 C993 1.386 . S
C997 C992 1.490 . S
C997 C999 1.395 . S
C997 C1000 1.403 . S
H998 C1004 0.930 . S
C999 H985 0.930 . S
C999 C997 1.395 . S
C999 C1002 1.403 . S
C1000 C997 1.403 . S
C1000 C1001 1.524 . S
C1000 C1004 1.400 . S
C1001 H986 0.960 . S
C1001 H987 0.960 . S
C1001 H988 0.960 . S
C1001 C1000 1.524 . S
C1002 C999 1.403 . S
C1002 C1003 1.392 . S
C1002 C1006 1.495 . S
C1003 C1002 1.392 . S
C1003 C1004 1.385 . S
C1003 C1005 1.478 . S
C1004 H998 0.930 . S
C1004 C1000 1.400 . S
C1004 C1003 1.385 . S
C1005 C1003 1.478 . S
C1005 C1007 1.381 . S
C1005 C1011 1.383 . S
C1006 C1002 1.495 . S
C1006 H1012 0.959 . S
C1006 H1013 0.961 . S
C1006 H1014 0.960 . S
C1007 C1005 1.381 . S
C1007 C1008 1.394 . S
C1007 H1015 0.930 . S
C1008 C1007 1.394 . S
C1008 C1009 1.383 . S
C1008 H1016 0.929 . S
C1009 C1008 1.383 . S
C1009 C1010 1.377 . S
C1010 H994 0.930 . S
C1010 C1009 1.377 . S
C1010 C1011 1.379 . S
C1011 H995 0.931 . S
C1011 C1005 1.383 . S
C1011 C1010 1.379 . S
H1012 C1006 0.959 . S
H1013 C1006 0.961 . S
H1014 C1006 0.960 . S
H1015 C1007 0.930 . S
H1016 C1008 0.929 . S
H1017 C1025 0.929 . S
H1018 C1027 0.930 . S
H1019 C1029 0.930 . S
H1020 C1032 0.929 . S
H1021 C1035 0.930 . S
H1022 C1037 0.960 . S
H1023 C1037 0.960 . S
H1024 C1037 0.960 . S
C1025 H1017 0.929 . S
C1025 C1026 1.377 . S
C1025 C1027 1.384 . S
C1026 C1025 1.377 . S
C1026 C1032 1.390 . S
C1027 H1018 0.930 . S
C1027 C1025 1.384 . S
C1027 C1028 1.372 . S
C1028 C1027 1.372 . S
C1028 C1029 1.400 . S
C1028 C1033 1.490 . S
C1029 H1019 0.930 . S
C1029 C1028 1.400 . S
C1029 C1032 1.386 . S
H1030 C1046 0.930 . S
H1031 C1047 0.931 . S
C1032 H1020 0.929 . S
C1032 C1026 1.390 . S
C1032 C1029 1.386 . S
C1033 C1028 1.490 . S
C1033 C1035 1.395 . S
C1033 C1036 1.403 . S
H1034 C1040 0.930 . S
C1035 H1021 0.930 . S
C1035 C1033 1.395 . S
C1035 C1038 1.403 . S
C1036 C1033 1.403 . S
C1036 C1037 1.524 . S
C1036 C1040 1.400 . S
C1037 H1022 0.960 . S
C1037 H1023 0.960 . S
C1037 H1024 0.960 . S
C1037 C1036 1.524 . S
C1038 C1035 1.403 . S
C1038 C1039 1.392 . S
C1038 C1042 1.495 . S
C1039 C1038 1.392 . S
C1039 C1040 1.385 . S
C1039 C1041 1.478 . S
C1040 H1034 0.930 . S
C1040 C1036 1.400 . S
C1040 C1039 1.385 . S
C1041 C1039 1.478 . S
C1041 C1043 1.381 . S
C1041 C1047 1.383 . S
C1042 C1038 1.495 . S
C1042 H1048 0.959 . S
C1042 H1049 0.961 . S
C1042 H1050 0.960 . S
C1043 C1041 1.381 . S
C1043 C1044 1.394 . S
C1043 H1051 0.930 . S
C1044 C1043 1.394 . S
C1044 C1045 1.383 . S
C1044 H1052 0.929 . S
C1045 C1044 1.383 . S
C1045 C1046 1.377 . S
C1046 H1030 0.930 . S
C1046 C1045 1.377 . S
C1046 C1047 1.379 . S
C1047 H1031 0.931 . S
C1047 C1041 1.383 . S
C1047 C1046 1.379 . S
H1048 C1042 0.959 . S
H1049 C1042 0.961 . S
H1050 C1042 0.960 . S
H1051 C1043 0.930 . S
H1052 C1044 0.929 . S
H1053 C1061 0.929 . S
H1054 C1063 0.930 . S
H1055 C1065 0.930 . S
H1056 C1068 0.929 . S
H1057 C1071 0.930 . S
H1058 C1073 0.960 . S
H1059 C1073 0.960 . S
H1060 C1073 0.960 . S
C1061 H1053 0.929 . S
C1061 C1062 1.377 . S
C1061 C1063 1.384 . S
C1062 C1061 1.377 . S
C1062 C1068 1.390 . S
C1063 H1054 0.930 . S
C1063 C1061 1.384 . S
C1063 C1064 1.372 . S
C1064 C1063 1.372 . S
C1064 C1065 1.400 . S
C1064 C1069 1.490 . S
C1065 H1055 0.930 . S
C1065 C1064 1.400 . S
C1065 C1068 1.386 . S
H1066 C1082 0.930 . S
H1067 C1083 0.931 . S
C1068 H1056 0.929 . S
C1068 C1062 1.390 . S
C1068 C1065 1.386 . S
C1069 C1064 1.490 . S
C1069 C1071 1.395 . S
C1069 C1072 1.403 . S
H1070 C1076 0.930 . S
C1071 H1057 0.930 . S
C1071 C1069 1.395 . S
C1071 C1074 1.403 . S
C1072 C1069 1.403 . S
C1072 C1073 1.524 . S
C1072 C1076 1.400 . S
C1073 H1058 0.960 . S
C1073 H1059 0.960 . S
C1073 H1060 0.960 . S
C1073 C1072 1.524 . S
C1074 C1071 1.403 . S
C1074 C1075 1.392 . S
C1074 C1078 1.495 . S
C1075 C1074 1.392 . S
C1075 C1076 1.385 . S
C1075 C1077 1.478 . S
C1076 H1070 0.930 . S
C1076 C1072 1.400 . S
C1076 C1075 1.385 . S
C1077 C1075 1.478 . S
C1077 C1079 1.381 . S
C1077 C1083 1.383 . S
C1078 C1074 1.495 . S
C1078 H1084 0.959 . S
C1078 H1085 0.961 . S
C1078 H1086 0.960 . S
C1079 C1077 1.381 . S
C1079 C1080 1.394 . S
C1079 H1087 0.930 . S
C1080 C1079 1.394 . S
C1080 C1081 1.383 . S
C1080 H1088 0.929 . S
C1081 C1080 1.383 . S
C1081 C1082 1.377 . S
C1082 H1066 0.930 . S
C1082 C1081 1.377 . S
C1082 C1083 1.379 . S
C1083 H1067 0.931 . S
C1083 C1077 1.383 . S
C1083 C1082 1.379 . S
H1084 C1078 0.959 . S
H1085 C1078 0.961 . S
H1086 C1078 0.960 . S
H1087 C1079 0.930 . S
H1088 C1080 0.929 . S
H1089 C1097 0.929 . S
H1090 C1099 0.930 . S
H1091 C1101 0.930 . S
H1092 C1104 0.929 . S
H1093 C1107 0.930 . S
H1094 C1109 0.960 . S
H1095 C1109 0.960 . S
H1096 C1109 0.960 . S
C1097 H1089 0.929 . S
C1097 C1098 1.377 . S
C1097 C1099 1.384 . S
C1098 C1097 1.377 . S
C1098 C1104 1.390 . S
C1099 H1090 0.930 . S
C1099 C1097 1.384 . S
C1099 C1100 1.372 . S
C1100 C1099 1.372 . S
C1100 C1101 1.400 . S
C1100 C1105 1.490 . S
C1101 H1091 0.930 . S
C1101 C1100 1.400 . S
C1101 C1104 1.386 . S
H1102 C1118 0.930 . S
H1103 C1119 0.931 . S
C1104 H1092 0.929 . S
C1104 C1098 1.390 . S
C1104 C1101 1.386 . S
C1105 C1100 1.490 . S
C1105 C1107 1.395 . S
C1105 C1108 1.403 . S
H1106 C1112 0.930 . S
C1107 H1093 0.930 . S
C1107 C1105 1.395 . S
C1107 C1110 1.403 . S
C1108 C1105 1.403 . S
C1108 C1109 1.524 . S
C1108 C1112 1.400 . S
C1109 H1094 0.960 . S
C1109 H1095 0.960 . S
C1109 H1096 0.960 . S
C1109 C1108 1.524 . S
C1110 C1107 1.403 . S
C1110 C1111 1.392 . S
C1110 C1114 1.495 . S
C1111 C1110 1.392 . S
C1111 C1112 1.385 . S
C1111 C1113 1.478 . S
C1112 H1106 0.930 . S
C1112 C1108 1.400 . S
C1112 C1111 1.385 . S
C1113 C1111 1.478 . S
C1113 C1115 1.381 . S
C1113 C1119 1.383 . S
C1114 C1110 1.495 . S
C1114 H1120 0.959 . S
C1114 H1121 0.961 . S
C1114 H1122 0.960 . S
C1115 C1113 1.381 . S
C1115 C1116 1.394 . S
C1115 H1123 0.930 . S
C1116 C1115 1.394 . S
C1116 C1117 1.383 . S
C1116 H1124 0.929 . S
C1117 C1116 1.383 . S
C1117 C1118 1.377 . S
C1118 H1102 0.930 . S
C1118 C1117 1.377 . S
C1118 C1119 1.379 . S
C1119 H1103 0.931 . S
C1119 C1113 1.383 . S
C1119 C1118 1.379 . S
H1120 C1114 0.959 . S
H1121 C1114 0.961 . S
H1122 C1114 0.960 . S
H1123 C1115 0.930 . S
H1124 C1116 0.929 . S
H1125 C1133 0.929 . S
H1126 C1135 0.930 . S
H1127 C1137 0.930 . S
H1128 C1140 0.929 . S
H1129 C1143 0.930 . S
H1130 C1145 0.960 . S
H1131 C1145 0.960 . S
H1132 C1145 0.960 . S
C1133 H1125 0.929 . S
C1133 C1134 1.377 . S
C1133 C1135 1.384 . S
C1134 C1133 1.377 . S
C1134 C1140 1.390 . S
C1135 H1126 0.930 . S
C1135 C1133 1.384 . S
C1135 C1136 1.372 . S
C1136 C1135 1.372 . S
C1136 C1137 1.400 . S
C1136 C1141 1.490 . S
C1137 H1127 0.930 . S
C1137 C1136 1.400 . S
C1137 C1140 1.386 . S
H1138 C1154 0.930 . S
H1139 C1155 0.931 . S
C1140 H1128 0.929 . S
C1140 C1134 1.390 . S
C1140 C1137 1.386 . S
C1141 C1136 1.490 . S
C1141 C1143 1.395 . S
C1141 C1144 1.403 . S
H1142 C1148 0.930 . S
C1143 H1129 0.930 . S
C1143 C1141 1.395 . S
C1143 C1146 1.403 . S
C1144 C1141 1.403 . S
C1144 C1145 1.524 . S
C1144 C1148 1.400 . S
C1145 H1130 0.960 . S
C1145 H1131 0.960 . S
C1145 H1132 0.960 . S
C1145 C1144 1.524 . S
C1146 C1143 1.403 . S
C1146 C1147 1.392 . S
C1146 C1150 1.495 . S
C1147 C1146 1.392 . S
C1147 C1148 1.385 . S
C1147 C1149 1.478 . S
C1148 H1142 0.930 . S
C1148 C1144 1.400 . S
C1148 C1147 1.385 . S
C1149 C1147 1.478 . S
C1149 C1151 1.381 . S
C1149 C1155 1.383 . S
C1150 C1146 1.495 . S
C1150 H1156 0.959 . S
C1150 H1157 0.961 . S
C1150 H1158 0.960 . S
C1151 C1149 1.381 . S
C1151 C1152 1.394 . S
C1151 H1159 0.930 . S
C1152 C1151 1.394 . S
C1152 C1153 1.383 . S
C1152 H1160 0.929 . S
C1153 C1152 1.383 . S
C1153 C1154 1.377 . S
C1154 H1138 0.930 . S
C1154 C1153 1.377 . S
C1154 C1155 1.379 . S
C1155 H1139 0.931 . S
C1155 C1149 1.383 . S
C1155 C1154 1.379 . S
H1156 C1150 0.959 . S
H1157 C1150 0.961 . S
H1158 C1150 0.960 . S
H1159 C1151 0.930 . S
H1160 C1152 0.929 . S
H1161 C1169 0.929 . S
H1162 C1171 0.930 . S
H1163 C1173 0.930 . S
H1164 C1176 0.929 . S
H1165 C1179 0.930 . S
H1166 C1181 0.960 . S
H1167 C1181 0.960 . S
H1168 C1181 0.947 1_545 S
C1169 H1161 0.929 . S
C1169 C1170 1.377 . S
C1169 C1171 1.384 . S
C1170 C1169 1.377 . S
C1170 C1176 1.390 . S
C1171 H1162 0.930 . S
C1171 C1169 1.384 . S
C1171 C1172 1.372 . S
C1172 C1171 1.372 . S
C1172 C1173 1.400 . S
C1172 C1177 1.490 1_545 S
C1173 H1163 0.930 . S
C1173 C1172 1.400 . S
C1173 C1176 1.386 . S
H1174 C1190 0.930 . S
H1175 C1191 0.931 . S
C1176 H1164 0.929 . S
C1176 C1170 1.390 . S
C1176 C1173 1.386 . S
C1177 C1172 1.490 1_565 S
C1177 C1179 1.395 . S
C1177 C1180 1.403 . S
H1178 C1184 0.930 . S
C1179 H1165 0.930 . S
C1179 C1177 1.395 . S
C1179 C1182 1.403 . S
C1180 C1177 1.403 . S
C1180 C1181 1.524 . S
C1180 C1184 1.400 . S
C1181 H1166 0.960 . S
C1181 H1167 0.960 . S
C1181 H1168 0.947 1_565 S
C1181 C1180 1.524 . S
C1182 C1179 1.403 . S
C1182 C1183 1.392 . S
C1182 C1186 1.495 . S
C1183 C1182 1.392 . S
C1183 C1184 1.385 . S
C1183 C1185 1.478 . S
C1184 H1178 0.930 . S
C1184 C1180 1.400 . S
C1184 C1183 1.385 . S
C1185 C1183 1.478 . S
C1185 C1187 1.381 . S
C1185 C1191 1.383 . S
C1186 C1182 1.495 . S
C1186 H1192 0.959 . S
C1186 H1193 0.961 . S
C1186 H1194 0.960 . S
C1187 C1185 1.381 . S
C1187 C1188 1.394 . S
C1187 H1195 0.930 . S
C1188 C1187 1.394 . S
C1188 C1189 1.383 . S
C1188 H1196 0.929 . S
C1189 C1188 1.383 . S
C1189 C1190 1.377 . S
C1190 H1174 0.930 . S
C1190 C1189 1.377 . S
C1190 C1191 1.379 . S
C1191 H1175 0.931 . S
C1191 C1185 1.383 . S
C1191 C1190 1.379 . S
H1192 C1186 0.959 . S
H1193 C1186 0.961 . S
H1194 C1186 0.960 . S
H1195 C1187 0.930 . S
H1196 C1188 0.929 . S
H1197 C1205 0.929 . S
H1198 C1207 0.930 . S
H1199 C1209 0.930 . S
H1200 C1212 0.929 . S
H1201 C1215 0.930 . S
H1202 C1217 0.960 . S
H1203 C1217 0.960 . S
H1204 C1217 0.960 . S
C1205 H1197 0.929 . S
C1205 C1206 1.377 . S
C1205 C1207 1.384 . S
C1206 C1205 1.377 . S
C1206 C1212 1.390 . S
C1207 H1198 0.930 . S
C1207 C1205 1.384 . S
C1207 C1208 1.372 . S
C1208 C1207 1.372 . S
C1208 C1209 1.400 . S
C1208 C1213 1.490 1_655 S
C1209 H1199 0.930 . S
C1209 C1208 1.400 . S
C1209 C1212 1.386 . S
H1210 C1226 0.930 . S
H1211 C1227 0.931 . S
C1212 H1200 0.929 . S
C1212 C1206 1.390 . S
C1212 C1209 1.386 . S
C1213 C1208 1.490 1_455 S
C1213 C1215 1.395 . S
C1213 C1216 1.403 . S
H1214 C1220 0.930 . S
C1215 H1201 0.930 . S
C1215 C1213 1.395 . S
C1215 C1218 1.403 . S
C1216 C1213 1.403 . S
C1216 C1217 1.524 . S
C1216 C1220 1.400 . S
C1217 H1202 0.960 . S
C1217 H1203 0.960 . S
C1217 H1204 0.960 . S
C1217 C1216 1.524 . S
C1218 C1215 1.403 . S
C1218 C1219 1.392 . S
C1218 C1222 1.495 . S
C1219 C1218 1.392 . S
C1219 C1220 1.385 . S
C1219 C1221 1.478 . S
C1220 H1214 0.930 . S
C1220 C1216 1.400 . S
C1220 C1219 1.385 . S
C1221 C1219 1.478 . S
C1221 C1223 1.381 . S
C1221 C1227 1.383 . S
C1222 C1218 1.495 . S
C1222 H1228 0.959 . S
C1222 H1229 0.961 . S
C1222 H1230 0.960 . S
C1223 C1221 1.381 . S
C1223 C1224 1.394 . S
C1223 H1231 0.930 . S
C1224 C1223 1.394 . S
C1224 C1225 1.383 . S
C1224 H1232 0.929 . S
C1225 C1224 1.383 . S
C1225 C1226 1.377 . S
C1226 H1210 0.930 . S
C1226 C1225 1.377 . S
C1226 C1227 1.379 . S
C1227 H1211 0.931 . S
C1227 C1221 1.383 . S
C1227 C1226 1.379 . S
H1228 C1222 0.959 . S
H1229 C1222 0.961 . S
H1230 C1222 0.960 . S
H1231 C1223 0.930 . S
H1232 C1224 0.929 . S
H1233 C1241 0.929 . S
H1234 C1243 0.930 . S
H1235 C1245 0.930 . S
H1236 C1248 0.929 . S
H1237 C1251 0.930 . S
H1238 C1253 0.960 . S
H1239 C1253 0.960 . S
H1240 C1253 0.960 . S
C1241 H1233 0.929 . S
C1241 C1242 1.377 . S
C1241 C1243 1.384 . S
C1242 C1241 1.377 . S
C1242 C1248 1.390 . S
C1243 H1234 0.930 . S
C1243 C1241 1.384 . S
C1243 C1244 1.372 . S
C1244 C1243 1.372 . S
C1244 C1245 1.400 . S
C1244 C1249 1.490 . S
C1245 H1235 0.930 . S
C1245 C1244 1.400 . S
C1245 C1248 1.386 . S
H1246 C1262 0.930 . S
H1247 C1263 0.931 . S
C1248 H1236 0.929 . S
C1248 C1242 1.390 . S
C1248 C1245 1.386 . S
C1249 C1244 1.490 . S
C1249 C1251 1.395 . S
C1249 C1252 1.403 . S
H1250 C1256 0.930 . S
C1251 H1237 0.930 . S
C1251 C1249 1.395 . S
C1251 C1254 1.403 . S
C1252 C1249 1.403 . S
C1252 C1253 1.524 . S
C1252 C1256 1.400 . S
C1253 H1238 0.960 . S
C1253 H1239 0.960 . S
C1253 H1240 0.960 . S
C1253 C1252 1.524 . S
C1254 C1251 1.403 . S
C1254 C1255 1.392 . S
C1254 C1258 1.495 . S
C1255 C1254 1.392 . S
C1255 C1256 1.385 . S
C1255 C1257 1.478 . S
C1256 H1250 0.930 . S
C1256 C1252 1.400 . S
C1256 C1255 1.385 . S
C1257 C1255 1.478 . S
C1257 C1259 1.381 . S
C1257 C1263 1.383 . S
C1258 C1254 1.495 . S
C1258 H1264 0.959 . S
C1258 H1265 0.961 . S
C1258 H1266 0.960 . S
C1259 C1257 1.381 . S
C1259 C1260 1.394 . S
C1259 H1267 0.930 . S
C1260 C1259 1.394 . S
C1260 C1261 1.383 . S
C1260 H1268 0.929 . S
C1261 C1260 1.383 . S
C1261 C1262 1.377 . S
C1262 H1246 0.930 . S
C1262 C1261 1.377 . S
C1262 C1263 1.379 . S
C1263 H1247 0.931 . S
C1263 C1257 1.383 . S
C1263 C1262 1.379 . S
H1264 C1258 0.959 . S
H1265 C1258 0.961 . S
H1266 C1258 0.960 . S
H1267 C1259 0.930 . S
H1268 C1260 0.929 . S
H1269 C1277 0.929 . S
H1270 C1279 0.930 . S
H1271 C1281 0.930 . S
H1272 C1284 0.929 . S
H1273 C1287 0.930 . S
H1274 C1289 0.960 . S
H1275 C1289 0.960 . S
H1276 C1289 0.960 . S
C1277 H1269 0.929 . S
C1277 C1278 1.377 . S
C1277 C1279 1.384 . S
C1278 C1277 1.377 . S
C1278 C1284 1.390 . S
C1279 H1270 0.930 . S
C1279 C1277 1.384 . S
C1279 C1280 1.372 . S
C1280 C1279 1.372 . S
C1280 C1281 1.400 . S
C1280 C1285 1.490 . S
C1281 H1271 0.930 . S
C1281 C1280 1.400 . S
C1281 C1284 1.386 . S
H1282 C1298 0.930 . S
H1283 C1299 0.931 . S
C1284 H1272 0.929 . S
C1284 C1278 1.390 . S
C1284 C1281 1.386 . S
C1285 C1280 1.490 . S
C1285 C1287 1.395 . S
C1285 C1288 1.403 . S
H1286 C1292 0.930 . S
C1287 H1273 0.930 . S
C1287 C1285 1.395 . S
C1287 C1290 1.403 . S
C1288 C1285 1.403 . S
C1288 C1289 1.524 . S
C1288 C1292 1.400 . S
C1289 H1274 0.960 . S
C1289 H1275 0.960 . S
C1289 H1276 0.960 . S
C1289 C1288 1.524 . S
C1290 C1287 1.403 . S
C1290 C1291 1.392 . S
C1290 C1294 1.495 . S
C1291 C1290 1.392 . S
C1291 C1292 1.385 . S
C1291 C1293 1.478 . S
C1292 H1286 0.930 . S
C1292 C1288 1.400 . S
C1292 C1291 1.385 . S
C1293 C1291 1.478 . S
C1293 C1295 1.381 . S
C1293 C1299 1.383 . S
C1294 C1290 1.495 . S
C1294 H1300 0.959 . S
C1294 H1301 0.961 . S
C1294 H1302 0.960 . S
C1295 C1293 1.381 . S
C1295 C1296 1.394 . S
C1295 H1303 0.930 . S
C1296 C1295 1.394 . S
C1296 C1297 1.383 . S
C1296 H1304 0.929 . S
C1297 C1296 1.383 . S
C1297 C1298 1.377 . S
C1298 H1282 0.930 . S
C1298 C1297 1.377 . S
C1298 C1299 1.379 . S
C1299 H1283 0.931 . S
C1299 C1293 1.383 . S
C1299 C1298 1.379 . S
H1300 C1294 0.959 . S
H1301 C1294 0.961 . S
H1302 C1294 0.960 . S
H1303 C1295 0.930 . S
H1304 C1296 0.929 . S
H1305 C1313 0.929 . S
H1306 C1315 0.930 . S
H1307 C1317 0.930 . S
H1308 C1320 0.929 . S
H1309 C1323 0.930 . S
H1310 C1325 0.960 . S
H1311 C1325 0.960 . S
H1312 C1325 0.960 . S
C1313 H1305 0.929 . S
C1313 C1314 1.377 . S
C1313 C1315 1.384 . S
C1314 C1313 1.377 . S
C1314 C1320 1.390 . S
C1315 H1306 0.930 . S
C1315 C1313 1.384 . S
C1315 C1316 1.372 . S
C1316 C1315 1.372 . S
C1316 C1317 1.400 . S
C1316 C1321 1.490 . S
C1317 H1307 0.930 . S
C1317 C1316 1.400 . S
C1317 C1320 1.386 . S
H1318 C1334 0.930 . S
H1319 C1335 0.931 . S
C1320 H1308 0.929 . S
C1320 C1314 1.390 . S
C1320 C1317 1.386 . S
C1321 C1316 1.490 . S
C1321 C1323 1.395 . S
C1321 C1324 1.403 . S
H1322 C1328 0.930 . S
C1323 H1309 0.930 . S
C1323 C1321 1.395 . S
C1323 C1326 1.403 . S
C1324 C1321 1.403 . S
C1324 C1325 1.524 . S
C1324 C1328 1.400 . S
C1325 H1310 0.960 . S
C1325 H1311 0.960 . S
C1325 H1312 0.960 . S
C1325 C1324 1.524 . S
C1326 C1323 1.403 . S
C1326 C1327 1.392 . S
C1326 C1330 1.495 . S
C1327 C1326 1.392 . S
C1327 C1328 1.385 . S
C1327 C1329 1.478 . S
C1328 H1322 0.930 . S
C1328 C1324 1.400 . S
C1328 C1327 1.385 . S
C1329 C1327 1.478 . S
C1329 C1331 1.381 . S
C1329 C1335 1.383 . S
C1330 C1326 1.495 . S
C1330 H1336 0.959 . S
C1330 H1337 0.961 . S
C1330 H1338 0.960 . S
C1331 C1329 1.381 . S
C1331 C1332 1.394 . S
C1331 H1339 0.930 . S
C1332 C1331 1.394 . S
C1332 C1333 1.383 . S
C1332 H1340 0.929 . S
C1333 C1332 1.383 . S
C1333 C1334 1.377 . S
C1334 H1318 0.930 . S
C1334 C1333 1.377 . S
C1334 C1335 1.379 . S
C1335 H1319 0.931 . S
C1335 C1329 1.383 . S
C1335 C1334 1.379 . S
H1336 C1330 0.959 . S
H1337 C1330 0.961 . S
H1338 C1330 0.960 . S
H1339 C1331 0.930 . S
H1340 C1332 0.929 . S
H1341 C1349 0.929 . S
H1342 C1351 0.930 . S
H1343 C1353 0.930 . S
H1344 C1356 0.929 . S
H1345 C1359 0.930 . S
H1346 C1361 0.960 . S
H1347 C1361 0.960 . S
H1348 C1361 0.960 . S
C1349 H1341 0.929 . S
C1349 C1350 1.377 . S
C1349 C1351 1.384 . S
C1350 C1349 1.377 . S
C1350 C1356 1.390 . S
C1351 H1342 0.930 . S
C1351 C1349 1.384 . S
C1351 C1352 1.372 . S
C1352 C1351 1.372 . S
C1352 C1353 1.400 . S
C1352 C1357 1.490 . S
C1353 H1343 0.930 . S
C1353 C1352 1.400 . S
C1353 C1356 1.386 . S
H1354 C1370 0.930 . S
H1355 C1371 0.931 . S
C1356 H1344 0.929 . S
C1356 C1350 1.390 . S
C1356 C1353 1.386 . S
C1357 C1352 1.490 . S
C1357 C1359 1.395 . S
C1357 C1360 1.403 . S
H1358 C1364 0.930 . S
C1359 H1345 0.930 . S
C1359 C1357 1.395 . S
C1359 C1362 1.403 . S
C1360 C1357 1.403 . S
C1360 C1361 1.524 . S
C1360 C1364 1.400 . S
C1361 H1346 0.960 . S
C1361 H1347 0.960 . S
C1361 H1348 0.960 . S
C1361 C1360 1.524 . S
C1362 C1359 1.403 . S
C1362 C1363 1.392 . S
C1362 C1366 1.495 . S
C1363 C1362 1.392 . S
C1363 C1364 1.385 . S
C1363 C1365 1.478 . S
C1364 H1358 0.930 . S
C1364 C1360 1.400 . S
C1364 C1363 1.385 . S
C1365 C1363 1.478 . S
C1365 C1367 1.381 . S
C1365 C1371 1.383 . S
C1366 C1362 1.495 . S
C1366 H1372 0.959 . S
C1366 H1373 0.961 . S
C1366 H1374 0.960 . S
C1367 C1365 1.381 . S
C1367 C1368 1.394 . S
C1367 H1375 0.930 . S
C1368 C1367 1.394 . S
C1368 C1369 1.383 . S
C1368 H1376 0.929 . S
C1369 C1368 1.383 . S
C1369 C1370 1.377 . S
C1370 H1354 0.930 . S
C1370 C1369 1.377 . S
C1370 C1371 1.379 . S
C1371 H1355 0.931 . S
C1371 C1365 1.383 . S
C1371 C1370 1.379 . S
H1372 C1366 0.959 . S
H1373 C1366 0.961 . S
H1374 C1366 0.960 . S
H1375 C1367 0.930 . S
H1376 C1368 0.929 . S
H1377 C1385 0.929 . S
H1378 C1387 0.930 . S
H1379 C1389 0.930 . S
H1380 C1392 0.929 . S
H1381 C1395 0.930 . S
H1382 C1397 0.960 1_545 S
H1383 C1397 0.960 . S
H1384 C1397 0.960 . S
C1385 H1377 0.929 . S
C1385 C1386 1.377 . S
C1385 C1387 1.384 . S
C1386 C1385 1.377 . S
C1386 C1392 1.390 . S
C1387 H1378 0.930 . S
C1387 C1385 1.384 . S
C1387 C1388 1.372 . S
C1388 C1387 1.372 . S
C1388 C1389 1.400 . S
C1388 C1393 1.490 . S
C1389 H1379 0.930 . S
C1389 C1388 1.400 . S
C1389 C1392 1.386 . S
H1390 C1406 0.930 . S
H1391 C1407 0.931 . S
C1392 H1380 0.929 . S
C1392 C1386 1.390 . S
C1392 C1389 1.386 . S
C1393 C1388 1.490 . S
C1393 C1395 1.395 . S
C1393 C1396 1.403 . S
H1394 C1400 0.930 . S
C1395 H1381 0.930 . S
C1395 C1393 1.395 . S
C1395 C1398 1.403 1_565 S
C1396 C1393 1.403 . S
C1396 C1397 1.524 . S
C1396 C1400 1.400 1_565 S
C1397 H1382 0.960 1_565 S
C1397 H1383 0.960 . S
C1397 H1384 0.960 . S
C1397 C1396 1.524 . S
C1398 C1395 1.403 1_545 S
C1398 C1399 1.392 . S
C1398 C1402 1.495 . S
C1399 C1398 1.392 . S
C1399 C1400 1.385 . S
C1399 C1401 1.478 . S
C1400 H1394 0.930 . S
C1400 C1396 1.400 1_545 S
C1400 C1399 1.385 . S
C1401 C1399 1.478 . S
C1401 C1403 1.381 . S
C1401 C1407 1.383 . S
C1402 C1398 1.495 . S
C1402 H1408 0.959 . S
C1402 H1409 0.961 . S
C1402 H1410 0.960 . S
C1403 C1401 1.381 . S
C1403 C1404 1.394 . S
C1403 H1411 0.930 . S
C1404 C1403 1.394 . S
C1404 C1405 1.383 . S
C1404 H1412 0.929 . S
C1405 C1404 1.383 . S
C1405 C1406 1.377 . S
C1406 H1390 0.930 . S
C1406 C1405 1.377 . S
C1406 C1407 1.379 . S
C1407 H1391 0.931 . S
C1407 C1401 1.383 . S
C1407 C1406 1.379 . S
H1408 C1402 0.959 . S
H1409 C1402 0.961 . S
H1410 C1402 0.960 . S
H1411 C1403 0.930 . S
H1412 C1404 0.929 . S
H1413 C1421 0.929 . S
H1414 C1423 0.930 . S
H1415 C1425 0.930 . S
H1416 C1428 0.929 . S
H1417 C1431 0.930 . S
H1418 C1433 0.967 . S
H1419 C1433 0.960 . S
H1420 C1433 0.960 . S
C1421 H1413 0.929 . S
C1421 C1422 1.377 . S
C1421 C1423 1.384 . S
C1422 C1421 1.377 . S
C1422 C1428 1.390 . S
C1423 H1414 0.930 . S
C1423 C1421 1.384 . S
C1423 C1424 1.372 . S
C1424 C1423 1.372 . S
C1424 C1425 1.400 . S
C1424 C1429 1.490 . S
C1425 H1415 0.930 . S
C1425 C1424 1.400 . S
C1425 C1428 1.386 . S
H1426 C1442 0.930 . S
H1427 C1443 0.931 . S
C1428 H1416 0.929 . S
C1428 C1422 1.390 . S
C1428 C1425 1.386 . S
C1429 C1424 1.490 . S
C1429 C1431 1.395 . S
C1429 C1432 1.403 . S
H1430 C1436 0.930 . S
C1431 H1417 0.930 . S
C1431 C1429 1.395 . S
C1431 C1434 1.403 . S
C1432 C1429 1.403 . S
C1432 C1433 1.524 . S
C1432 C1436 1.400 1_455 S
C1433 H1418 0.967 . S
C1433 H1419 0.960 . S
C1433 H1420 0.960 . S
C1433 C1432 1.524 . S
C1434 C1431 1.403 . S
C1434 C1435 1.392 1_455 S
C1434 C1438 1.495 . S
C1435 C1434 1.392 1_655 S
C1435 C1436 1.385 . S
C1435 C1437 1.478 . S
C1436 H1430 0.930 . S
C1436 C1432 1.400 1_655 S
C1436 C1435 1.385 . S
C1437 C1435 1.478 . S
C1437 C1439 1.381 . S
C1437 C1443 1.383 . S
C1438 C1434 1.495 . S
C1438 H1444 0.959 . S
C1438 H1445 0.961 1_455 S
C1438 H1446 0.960 1_455 S
C1439 C1437 1.381 . S
C1439 C1440 1.394 . S
C1439 H1447 0.930 . S
C1440 C1439 1.394 . S
C1440 C1441 1.383 . S
C1440 H1448 0.929 . S
C1441 C1440 1.383 . S
C1441 C1442 1.377 . S
C1442 H1426 0.930 . S
C1442 C1441 1.377 . S
C1442 C1443 1.379 . S
C1443 H1427 0.931 . S
C1443 C1437 1.383 . S
C1443 C1442 1.379 . S
H1444 C1438 0.959 . S
H1445 C1438 0.961 1_655 S
H1446 C1438 0.960 1_655 S
H1447 C1439 0.930 . S
H1448 C1440 0.929 . S
H1449 C1457 0.929 . S
H1450 C1459 0.930 . S
H1451 C1461 0.930 . S
H1452 C1464 0.929 . S
H1453 C1467 0.930 . S
H1454 C1469 0.960 . S
H1455 C1469 0.960 . S
H1456 C1469 0.960 . S
C1457 H1449 0.929 . S
C1457 C1458 1.377 . S
C1457 C1459 1.384 . S
C1458 C1457 1.377 . S
C1458 C1464 1.390 . S
C1459 H1450 0.930 . S
C1459 C1457 1.384 . S
C1459 C1460 1.372 . S
C1460 C1459 1.372 . S
C1460 C1461 1.400 . S
C1460 C1465 1.490 . S
C1461 H1451 0.930 . S
C1461 C1460 1.400 . S
C1461 C1464 1.386 . S
H1462 C1478 0.930 . S
H1463 C1479 0.931 . S
C1464 H1452 0.929 . S
C1464 C1458 1.390 . S
C1464 C1461 1.386 . S
C1465 C1460 1.490 . S
C1465 C1467 1.395 . S
C1465 C1468 1.403 . S
H1466 C1472 0.930 . S
C1467 H1453 0.930 . S
C1467 C1465 1.395 . S
C1467 C1470 1.403 . S
C1468 C1465 1.403 . S
C1468 C1469 1.524 . S
C1468 C1472 1.400 . S
C1469 H1454 0.960 . S
C1469 H1455 0.960 . S
C1469 H1456 0.960 . S
C1469 C1468 1.524 . S
C1470 C1467 1.403 . S
C1470 C1471 1.392 . S
C1470 C1474 1.495 . S
C1471 C1470 1.392 . S
C1471 C1472 1.385 . S
C1471 C1473 1.478 . S
C1472 H1466 0.930 . S
C1472 C1468 1.400 . S
C1472 C1471 1.385 . S
C1473 C1471 1.478 . S
C1473 C1475 1.381 . S
C1473 C1479 1.383 . S
C1474 C1470 1.495 . S
C1474 H1480 0.959 . S
C1474 H1481 0.961 . S
C1474 H1482 0.960 . S
C1475 C1473 1.381 . S
C1475 C1476 1.394 . S
C1475 H1483 0.930 . S
C1476 C1475 1.394 . S
C1476 C1477 1.383 . S
C1476 H1484 0.929 . S
C1477 C1476 1.383 . S
C1477 C1478 1.377 . S
C1478 H1462 0.930 . S
C1478 C1477 1.377 . S
C1478 C1479 1.379 . S
C1479 H1463 0.931 . S
C1479 C1473 1.383 . S
C1479 C1478 1.379 . S
H1480 C1474 0.959 . S
H1481 C1474 0.961 . S
H1482 C1474 0.960 . S
H1483 C1475 0.930 . S
H1484 C1476 0.929 . S
H1485 C1493 0.929 . S
H1486 C1495 0.930 . S
H1487 C1497 0.930 . S
H1488 C1500 0.929 . S
H1489 C1503 0.930 . S
H1490 C1505 0.960 . S
H1491 C1505 0.960 1_455 S
H1492 C1505 0.960 1_455 S
C1493 H1485 0.929 . S
C1493 C1494 1.377 . S
C1493 C1495 1.384 . S
C1494 C1493 1.377 . S
C1494 C1500 1.390 . S
C1495 H1486 0.930 . S
C1495 C1493 1.384 . S
C1495 C1496 1.372 . S
C1496 C1495 1.372 . S
C1496 C1497 1.400 . S
C1496 C1501 1.490 1_455 S
C1497 H1487 0.930 . S
C1497 C1496 1.400 . S
C1497 C1500 1.386 . S
H1498 C1514 0.930 . S
H1499 C1515 0.931 . S
C1500 H1488 0.929 . S
C1500 C1494 1.390 . S
C1500 C1497 1.386 . S
C1501 C1496 1.490 1_655 S
C1501 C1503 1.395 . S
C1501 C1504 1.403 . S
H1502 C1508 0.930 . S
C1503 H1489 0.930 . S
C1503 C1501 1.395 . S
C1503 C1506 1.403 . S
C1504 C1501 1.403 . S
C1504 C1505 1.524 . S
C1504 C1508 1.400 . S
C1505 H1490 0.960 . S
C1505 H1491 0.960 1_655 S
C1505 H1492 0.960 1_655 S
C1505 C1504 1.524 . S
C1506 C1503 1.403 . S
C1506 C1507 1.392 . S
C1506 C1510 1.495 . S
C1507 C1506 1.392 . S
C1507 C1508 1.385 . S
C1507 C1509 1.478 . S
C1508 H1502 0.930 . S
C1508 C1504 1.400 . S
C1508 C1507 1.385 . S
C1509 C1507 1.478 . S
C1509 C1511 1.381 . S
C1509 C1515 1.383 . S
C1510 C1506 1.495 . S
C1510 H1516 0.959 . S
C1510 H1517 0.961 . S
C1510 H1518 0.960 . S
C1511 C1509 1.381 . S
C1511 C1512 1.394 . S
C1511 H1519 0.930 . S
C1512 C1511 1.394 . S
C1512 C1513 1.383 . S
C1512 H1520 0.929 . S
C1513 C1512 1.383 . S
C1513 C1514 1.377 . S
C1514 H1498 0.930 . S
C1514 C1513 1.377 . S
C1514 C1515 1.379 . S
C1515 H1499 0.931 . S
C1515 C1509 1.383 . S
C1515 C1514 1.379 . S
H1516 C1510 0.959 . S
H1517 C1510 0.961 . S
H1518 C1510 0.960 . S
H1519 C1511 0.930 . S
H1520 C1512 0.929 . S
H1521 C1529 0.929 . S
H1522 C1531 0.930 . S
H1523 C1533 0.930 . S
H1524 C1536 0.929 . S
H1525 C1539 0.930 . S
H1526 C1541 0.960 . S
H1527 C1541 0.960 . S
H1528 C1541 0.960 . S
C1529 H1521 0.929 . S
C1529 C1530 1.377 . S
C1529 C1531 1.384 . S
C1530 C1529 1.377 . S
C1530 C1536 1.390 . S
C1531 H1522 0.930 . S
C1531 C1529 1.384 . S
C1531 C1532 1.372 . S
C1532 C1531 1.372 . S
C1532 C1533 1.400 . S
C1532 C1537 1.490 . S
C1533 H1523 0.930 . S
C1533 C1532 1.400 . S
C1533 C1536 1.386 . S
H1534 C1550 0.930 . S
H1535 C1551 0.931 . S
C1536 H1524 0.929 . S
C1536 C1530 1.390 . S
C1536 C1533 1.386 . S
C1537 C1532 1.490 . S
C1537 C1539 1.395 . S
C1537 C1540 1.403 . S
H1538 C1544 0.930 . S
C1539 H1525 0.930 . S
C1539 C1537 1.395 . S
C1539 C1542 1.403 . S
C1540 C1537 1.403 . S
C1540 C1541 1.524 . S
C1540 C1544 1.400 . S
C1541 H1526 0.960 . S
C1541 H1527 0.960 . S
C1541 H1528 0.960 . S
C1541 C1540 1.524 . S
C1542 C1539 1.403 . S
C1542 C1543 1.392 . S
C1542 C1546 1.495 . S
C1543 C1542 1.392 . S
C1543 C1544 1.385 . S
C1543 C1545 1.478 . S
C1544 H1538 0.930 . S
C1544 C1540 1.400 . S
C1544 C1543 1.385 . S
C1545 C1543 1.478 . S
C1545 C1547 1.381 . S
C1545 C1551 1.383 . S
C1546 C1542 1.495 . S
C1546 H1552 0.959 . S
C1546 H1553 0.961 . S
C1546 H1554 0.960 . S
C1547 C1545 1.381 . S
C1547 C1548 1.394 . S
C1547 H1555 0.930 . S
C1548 C1547 1.394 . S
C1548 C1549 1.383 . S
C1548 H1556 0.929 . S
C1549 C1548 1.383 . S
C1549 C1550 1.377 . S
C1550 H1534 0.930 . S
C1550 C1549 1.377 . S
C1550 C1551 1.379 . S
C1551 H1535 0.931 . S
C1551 C1545 1.383 . S
C1551 C1550 1.379 . S
H1552 C1546 0.959 . S
H1553 C1546 0.961 . S
H1554 C1546 0.960 . S
H1555 C1547 0.930 . S
H1556 C1548 0.929 . S
H1557 C1565 0.929 . S
H1558 C1567 0.930 . S
H1559 C1569 0.930 . S
H1560 C1572 0.929 . S
H1561 C1575 0.930 . S
H1562 C1577 0.960 . S
H1563 C1577 0.960 . S
H1564 C1577 0.960 . S
C1565 H1557 0.929 . S
C1565 C1566 1.377 . S
C1565 C1567 1.384 . S
C1566 C1565 1.377 . S
C1566 C1572 1.390 . S
C1567 H1558 0.930 . S
C1567 C1565 1.384 . S
C1567 C1568 1.372 1_565 S
C1568 C1567 1.372 1_545 S
C1568 C1569 1.400 1_545 S
C1568 C1573 1.490 . S
C1569 H1559 0.930 . S
C1569 C1568 1.400 1_565 S
C1569 C1572 1.386 . S
H1570 C1586 0.930 . S
H1571 C1587 0.931 . S
C1572 H1560 0.929 . S
C1572 C1566 1.390 . S
C1572 C1569 1.386 . S
C1573 C1568 1.490 . S
C1573 C1575 1.395 . S
C1573 C1576 1.403 . S
H1574 C1580 0.930 . S
C1575 H1561 0.930 . S
C1575 C1573 1.395 . S
C1575 C1578 1.403 . S
C1576 C1573 1.403 . S
C1576 C1577 1.524 . S
C1576 C1580 1.400 . S
C1577 H1562 0.960 . S
C1577 H1563 0.960 . S
C1577 H1564 0.960 . S
C1577 C1576 1.524 . S
C1578 C1575 1.403 . S
C1578 C1579 1.392 . S
C1578 C1582 1.495 . S
C1579 C1578 1.392 . S
C1579 C1580 1.385 . S
C1579 C1581 1.478 . S
C1580 H1574 0.930 . S
C1580 C1576 1.400 . S
C1580 C1579 1.385 . S
C1581 C1579 1.478 . S
C1581 C1583 1.381 . S
C1581 C1587 1.383 . S
C1582 C1578 1.495 . S
C1582 H1588 0.959 . S
C1582 H1589 0.961 . S
C1582 H1590 0.960 . S
C1583 C1581 1.381 . S
C1583 C1584 1.394 . S
C1583 H1591 0.930 . S
C1584 C1583 1.394 . S
C1584 C1585 1.383 . S
C1584 H1592 0.929 . S
C1585 C1584 1.383 . S
C1585 C1586 1.377 . S
C1586 H1570 0.930 . S
C1586 C1585 1.377 . S
C1586 C1587 1.379 . S
C1587 H1571 0.931 . S
C1587 C1581 1.383 . S
C1587 C1586 1.379 . S
H1588 C1582 0.959 . S
H1589 C1582 0.961 . S
H1590 C1582 0.960 . S
H1591 C1583 0.930 . S
H1592 C1584 0.929 . S
H1593 C1601 0.929 . S
H1594 C1603 0.930 . S
H1595 C1605 0.930 . S
H1596 C1608 0.929 . S
H1597 C1611 0.930 . S
H1598 C1613 0.960 . S
H1599 C1613 0.960 . S
H1600 C1613 0.960 . S
C1601 H1593 0.929 . S
C1601 C1602 1.377 . S
C1601 C1603 1.384 . S
C1602 C1601 1.377 . S
C1602 C1608 1.390 . S
C1603 H1594 0.930 . S
C1603 C1601 1.384 . S
C1603 C1604 1.372 . S
C1604 C1603 1.372 . S
C1604 C1605 1.400 . S
C1604 C1609 1.490 . S
C1605 H1595 0.930 . S
C1605 C1604 1.400 . S
C1605 C1608 1.386 . S
H1606 C1622 0.930 . S
H1607 C1623 0.931 . S
C1608 H1596 0.929 . S
C1608 C1602 1.390 . S
C1608 C1605 1.386 . S
C1609 C1604 1.490 . S
C1609 C1611 1.395 . S
C1609 C1612 1.403 . S
H1610 C1616 0.930 . S
C1611 H1597 0.930 . S
C1611 C1609 1.395 . S
C1611 C1614 1.403 . S
C1612 C1609 1.403 . S
C1612 C1613 1.524 . S
C1612 C1616 1.400 . S
C1613 H1598 0.960 . S
C1613 H1599 0.960 . S
C1613 H1600 0.960 . S
C1613 C1612 1.524 . S
C1614 C1611 1.403 . S
C1614 C1615 1.392 . S
C1614 C1618 1.495 . S
C1615 C1614 1.392 . S
C1615 C1616 1.385 . S
C1615 C1617 1.478 . S
C1616 H1610 0.930 . S
C1616 C1612 1.400 . S
C1616 C1615 1.385 . S
C1617 C1615 1.478 . S
C1617 C1619 1.381 . S
C1617 C1623 1.383 . S
C1618 C1614 1.495 . S
C1618 H1624 0.959 . S
C1618 H1625 0.961 . S
C1618 H1626 0.960 . S
C1619 C1617 1.381 . S
C1619 C1620 1.394 . S
C1619 H1627 0.930 . S
C1620 C1619 1.394 . S
C1620 C1621 1.383 . S
C1620 H1628 0.929 . S
C1621 C1620 1.383 . S
C1621 C1622 1.377 . S
C1622 H1606 0.930 . S
C1622 C1621 1.377 . S
C1622 C1623 1.379 . S
C1623 H1607 0.931 . S
C1623 C1617 1.383 . S
C1623 C1622 1.379 . S
H1624 C1618 0.959 . S
H1625 C1618 0.961 . S
H1626 C1618 0.960 . S
H1627 C1619 0.930 . S
H1628 C1620 0.929 . S
H1629 C1637 0.929 . S
H1630 C1639 0.930 . S
H1631 C1641 0.930 . S
H1632 C1644 0.929 . S
H1633 C1647 0.930 . S
H1634 C1649 0.960 . S
H1635 C1649 0.960 . S
H1636 C1649 0.960 . S
C1637 H1629 0.929 . S
C1637 C1638 1.377 . S
C1637 C1639 1.384 . S
C1638 C1637 1.377 . S
C1638 C1644 1.390 . S
C1639 H1630 0.930 . S
C1639 C1637 1.384 . S
C1639 C1640 1.372 . S
C1640 C1639 1.372 . S
C1640 C1641 1.400 . S
C1640 C1645 1.490 . S
C1641 H1631 0.930 . S
C1641 C1640 1.400 . S
C1641 C1644 1.386 . S
H1642 C1658 0.930 . S
H1643 C1659 0.931 . S
C1644 H1632 0.929 . S
C1644 C1638 1.390 . S
C1644 C1641 1.386 . S
C1645 C1640 1.490 . S
C1645 C1647 1.395 . S
C1645 C1648 1.403 . S
H1646 C1652 0.930 . S
C1647 H1633 0.930 . S
C1647 C1645 1.395 . S
C1647 C1650 1.403 . S
C1648 C1645 1.403 . S
C1648 C1649 1.524 . S
C1648 C1652 1.400 . S
C1649 H1634 0.960 . S
C1649 H1635 0.960 . S
C1649 H1636 0.960 . S
C1649 C1648 1.524 . S
C1650 C1647 1.403 . S
C1650 C1651 1.392 . S
C1650 C1654 1.495 . S
C1651 C1650 1.392 . S
C1651 C1652 1.385 . S
C1651 C1653 1.478 . S
C1652 H1646 0.930 . S
C1652 C1648 1.400 . S
C1652 C1651 1.385 . S
C1653 C1651 1.478 . S
C1653 C1655 1.381 . S
C1653 C1659 1.383 . S
C1654 C1650 1.495 . S
C1654 H1660 0.959 . S
C1654 H1661 0.961 . S
C1654 H1662 0.960 . S
C1655 C1653 1.381 . S
C1655 C1656 1.394 . S
C1655 H1663 0.930 . S
C1656 C1655 1.394 . S
C1656 C1657 1.383 . S
C1656 H1664 0.929 . S
C1657 C1656 1.383 . S
C1657 C1658 1.377 . S
C1658 H1642 0.930 . S
C1658 C1657 1.377 . S
C1658 C1659 1.379 . S
C1659 H1643 0.931 . S
C1659 C1653 1.383 . S
C1659 C1658 1.379 . S
H1660 C1654 0.959 . S
H1661 C1654 0.961 . S
H1662 C1654 0.960 . S
H1663 C1655 0.930 . S
H1664 C1656 0.929 . S
H1665 C1673 0.929 . S
H1666 C1675 0.930 . S
H1667 C1677 0.930 . S
H1668 C1680 0.929 . S
H1669 C1683 0.930 . S
H1670 C1685 0.960 . S
H1671 C1685 0.960 . S
H1672 C1685 0.960 . S
C1673 H1665 0.929 . S
C1673 C1674 1.377 . S
C1673 C1675 1.384 . S
C1674 C1673 1.377 . S
C1674 C1680 1.390 . S
C1675 H1666 0.930 . S
C1675 C1673 1.384 . S
C1675 C1676 1.372 . S
C1676 C1675 1.372 . S
C1676 C1677 1.400 . S
C1676 C1681 1.490 . S
C1677 H1667 0.930 . S
C1677 C1676 1.400 . S
C1677 C1680 1.386 . S
H1678 C1694 0.930 . S
H1679 C1695 0.931 . S
C1680 H1668 0.929 . S
C1680 C1674 1.390 . S
C1680 C1677 1.386 . S
C1681 C1676 1.490 . S
C1681 C1683 1.395 . S
C1681 C1684 1.403 . S
H1682 C1688 0.930 . S
C1683 H1669 0.930 . S
C1683 C1681 1.395 . S
C1683 C1686 1.403 . S
C1684 C1681 1.403 . S
C1684 C1685 1.524 . S
C1684 C1688 1.400 . S
C1685 H1670 0.960 . S
C1685 H1671 0.960 . S
C1685 H1672 0.960 . S
C1685 C1684 1.524 . S
C1686 C1683 1.403 . S
C1686 C1687 1.392 . S
C1686 C1690 1.495 . S
C1687 C1686 1.392 . S
C1687 C1688 1.385 . S
C1687 C1689 1.478 . S
C1688 H1682 0.930 . S
C1688 C1684 1.400 . S
C1688 C1687 1.385 . S
C1689 C1687 1.478 . S
C1689 C1691 1.381 . S
C1689 C1695 1.383 . S
C1690 C1686 1.495 . S
C1690 H1696 0.959 . S
C1690 H1697 0.961 . S
C1690 H1698 0.960 . S
C1691 C1689 1.381 . S
C1691 C1692 1.394 . S
C1691 H1699 0.930 . S
C1692 C1691 1.394 . S
C1692 C1693 1.383 . S
C1692 H1700 0.929 . S
C1693 C1692 1.383 . S
C1693 C1694 1.377 . S
C1694 H1678 0.930 . S
C1694 C1693 1.377 . S
C1694 C1695 1.379 . S
C1695 H1679 0.931 . S
C1695 C1689 1.383 . S
C1695 C1694 1.379 . S
H1696 C1690 0.959 . S
H1697 C1690 0.961 . S
H1698 C1690 0.960 . S
H1699 C1691 0.930 . S
H1700 C1692 0.929 . S
H1701 C1709 0.929 . S
H1702 C1711 0.930 . S
H1703 C1713 0.930 . S
H1704 C1716 0.929 . S
H1705 C1719 0.930 . S
H1706 C1721 0.960 . S
H1707 C1721 0.960 . S
H1708 C1721 0.960 . S
C1709 H1701 0.929 . S
C1709 C1710 1.377 . S
C1709 C1711 1.384 . S
C1710 C1709 1.377 . S
C1710 C1716 1.390 . S
C1711 H1702 0.930 . S
C1711 C1709 1.384 . S
C1711 C1712 1.372 . S
C1712 C1711 1.372 . S
C1712 C1713 1.400 . S
C1712 C1717 1.490 . S
C1713 H1703 0.930 . S
C1713 C1712 1.400 . S
C1713 C1716 1.386 . S
H1714 C1730 0.930 . S
H1715 C1731 0.931 . S
C1716 H1704 0.929 . S
C1716 C1710 1.390 . S
C1716 C1713 1.386 . S
C1717 C1712 1.490 . S
C1717 C1719 1.395 . S
C1717 C1720 1.403 . S
H1718 C1724 0.930 . S
C1719 H1705 0.930 . S
C1719 C1717 1.395 . S
C1719 C1722 1.403 . S
C1720 C1717 1.403 . S
C1720 C1721 1.524 . S
C1720 C1724 1.400 . S
C1721 H1706 0.960 . S
C1721 H1707 0.960 . S
C1721 H1708 0.960 . S
C1721 C1720 1.524 . S
C1722 C1719 1.403 . S
C1722 C1723 1.392 . S
C1722 C1726 1.495 . S
C1723 C1722 1.392 . S
C1723 C1724 1.385 . S
C1723 C1725 1.478 . S
C1724 H1718 0.930 . S
C1724 C1720 1.400 . S
C1724 C1723 1.385 . S
C1725 C1723 1.478 . S
C1725 C1727 1.381 . S
C1725 C1731 1.383 . S
C1726 C1722 1.495 . S
C1726 H1732 0.959 . S
C1726 H1733 0.961 . S
C1726 H1734 0.960 . S
C1727 C1725 1.381 . S
C1727 C1728 1.394 . S
C1727 H1735 0.930 . S
C1728 C1727 1.394 . S
C1728 C1729 1.383 . S
C1728 H1736 0.929 . S
C1729 C1728 1.383 . S
C1729 C1730 1.377 . S
C1730 H1714 0.930 . S
C1730 C1729 1.377 . S
C1730 C1731 1.379 . S
C1731 H1715 0.931 . S
C1731 C1725 1.383 . S
C1731 C1730 1.379 . S
H1732 C1726 0.959 . S
H1733 C1726 0.961 . S
H1734 C1726 0.960 . S
H1735 C1727 0.930 . S
H1736 C1728 0.929 . S
H1737 C1745 0.929 . S
H1738 C1747 0.930 . S
H1739 C1749 0.930 . S
H1740 C1752 0.929 . S
H1741 C1755 0.930 . S
H1742 C1757 0.960 . S
H1743 C1757 0.960 . S
H1744 C1757 0.960 . S
C1745 H1737 0.929 . S
C1745 C1746 1.377 . S
C1745 C1747 1.384 . S
C1746 C1745 1.377 . S
C1746 C1752 1.390 . S
C1747 H1738 0.930 . S
C1747 C1745 1.384 . S
C1747 C1748 1.372 . S
C1748 C1747 1.372 . S
C1748 C1749 1.400 . S
C1748 C1753 1.490 . S
C1749 H1739 0.930 . S
C1749 C1748 1.400 . S
C1749 C1752 1.386 . S
H1750 C1766 0.865 1_655 S
H1751 C1767 0.931 . S
C1752 H1740 0.929 . S
C1752 C1746 1.390 . S
C1752 C1749 1.386 . S
C1753 C1748 1.490 . S
C1753 C1755 1.395 . S
C1753 C1756 1.403 . S
H1754 C1760 0.930 . S
C1755 H1741 0.930 . S
C1755 C1753 1.395 . S
C1755 C1758 1.403 . S
C1756 C1753 1.403 . S
C1756 C1757 1.524 . S
C1756 C1760 1.400 . S
C1757 H1742 0.960 . S
C1757 H1743 0.960 . S
C1757 H1744 0.960 . S
C1757 C1756 1.524 . S
C1758 C1755 1.403 . S
C1758 C1759 1.392 . S
C1758 C1762 1.495 . S
C1759 C1758 1.392 . S
C1759 C1760 1.385 . S
C1759 C1761 1.478 . S
C1760 H1754 0.930 . S
C1760 C1756 1.400 . S
C1760 C1759 1.385 . S
C1761 C1759 1.478 . S
C1761 C1763 1.381 . S
C1761 C1767 1.383 . S
C1762 C1758 1.495 . S
C1762 H1768 0.959 . S
C1762 H1769 0.961 . S
C1762 H1770 0.960 . S
C1763 C1761 1.381 . S
C1763 C1764 1.394 . S
C1763 H1771 0.930 . S
C1764 C1763 1.394 . S
C1764 C1765 1.383 . S
C1764 H1772 0.929 . S
C1765 C1764 1.383 . S
C1765 C1766 1.377 . S
C1766 H1750 0.865 1_455 S
C1766 C1765 1.377 . S
C1766 C1767 1.379 . S
C1767 H1751 0.931 . S
C1767 C1761 1.383 . S
C1767 C1766 1.379 . S
H1768 C1762 0.959 . S
H1769 C1762 0.961 . S
H1770 C1762 0.960 . S
H1771 C1763 0.930 . S
H1772 C1764 0.929 . S
H1773 C1781 0.929 . S
H1774 C1783 0.930 . S
H1775 C1785 0.930 . S
H1776 C1788 0.929 . S
H1777 C1791 0.930 . S
H1778 C1793 0.960 . S
H1779 C1793 0.960 . S
H1780 C1793 0.960 . S
C1781 H1773 0.929 . S
C1781 C1782 1.377 . S
C1781 C1783 1.384 . S
C1782 C1781 1.377 . S
C1782 C1788 1.390 . S
C1783 H1774 0.930 . S
C1783 C1781 1.384 . S
C1783 C1784 1.372 . S
C1784 C1783 1.372 . S
C1784 C1785 1.400 . S
C1784 C1789 1.490 . S
C1785 H1775 0.930 . S
C1785 C1784 1.400 . S
C1785 C1788 1.386 . S
H1786 C1802 0.930 . S
H1787 C1803 0.931 . S
C1788 H1776 0.929 . S
C1788 C1782 1.390 . S
C1788 C1785 1.386 . S
C1789 C1784 1.490 . S
C1789 C1791 1.395 . S
C1789 C1792 1.403 . S
H1790 C1796 0.930 . S
C1791 H1777 0.930 . S
C1791 C1789 1.395 . S
C1791 C1794 1.403 . S
C1792 C1789 1.403 . S
C1792 C1793 1.524 . S
C1792 C1796 1.400 . S
C1793 H1778 0.960 . S
C1793 H1779 0.960 . S
C1793 H1780 0.960 . S
C1793 C1792 1.524 . S
C1794 C1791 1.403 . S
C1794 C1795 1.392 . S
C1794 C1798 1.495 . S
C1795 C1794 1.392 . S
C1795 C1796 1.385 . S
C1795 C1797 1.478 . S
C1796 H1790 0.930 . S
C1796 C1792 1.400 . S
C1796 C1795 1.385 . S
C1797 C1795 1.478 . S
C1797 C1799 1.381 . S
C1797 C1803 1.383 . S
C1798 C1794 1.495 . S
C1798 H1804 0.959 . S
C1798 H1805 0.961 . S
C1798 H1806 0.960 . S
C1799 C1797 1.381 . S
C1799 C1800 1.394 . S
C1799 H1807 0.930 . S
C1800 C1799 1.394 . S
C1800 C1801 1.383 . S
C1800 H1808 0.929 . S
C1801 C1800 1.383 . S
C1801 C1802 1.377 . S
C1802 H1786 0.930 . S
C1802 C1801 1.377 . S
C1802 C1803 1.379 . S
C1803 H1787 0.931 . S
C1803 C1797 1.383 . S
C1803 C1802 1.379 . S
H1804 C1798 0.959 . S
H1805 C1798 0.961 . S
H1806 C1798 0.960 . S
H1807 C1799 0.930 . S
H1808 C1800 0.929 . S
H1809 C1817 0.929 . S
H1810 C1819 0.930 . S
H1811 C1821 0.930 . S
H1812 C1824 0.929 . S
H1813 C1827 0.930 . S
H1814 C1829 0.960 . S
H1815 C1829 0.960 . S
H1816 C1829 0.960 . S
C1817 H1809 0.929 . S
C1817 C1818 1.377 . S
C1817 C1819 1.384 . S
C1818 C1817 1.377 . S
C1818 C1824 1.390 . S
C1819 H1810 0.930 . S
C1819 C1817 1.384 . S
C1819 C1820 1.372 . S
C1820 C1819 1.372 . S
C1820 C1821 1.400 . S
C1820 C1825 1.490 . S
C1821 H1811 0.930 . S
C1821 C1820 1.400 . S
C1821 C1824 1.386 . S
H1822 C1838 0.930 . S
H1823 C1839 0.931 . S
C1824 H1812 0.929 . S
C1824 C1818 1.390 . S
C1824 C1821 1.386 . S
C1825 C1820 1.490 . S
C1825 C1827 1.395 . S
C1825 C1828 1.403 . S
H1826 C1832 0.930 . S
C1827 H1813 0.930 . S
C1827 C1825 1.395 . S
C1827 C1830 1.403 . S
C1828 C1825 1.403 . S
C1828 C1829 1.524 . S
C1828 C1832 1.400 . S
C1829 H1814 0.960 . S
C1829 H1815 0.960 . S
C1829 H1816 0.960 . S
C1829 C1828 1.524 . S
C1830 C1827 1.403 . S
C1830 C1831 1.392 . S
C1830 C1834 1.495 . S
C1831 C1830 1.392 . S
C1831 C1832 1.385 . S
C1831 C1833 1.478 . S
C1832 H1826 0.930 . S
C1832 C1828 1.400 . S
C1832 C1831 1.385 . S
C1833 C1831 1.478 . S
C1833 C1835 1.381 . S
C1833 C1839 1.383 . S
C1834 C1830 1.495 . S
C1834 H1840 0.959 . S
C1834 H1841 0.961 . S
C1834 H1842 0.960 . S
C1835 C1833 1.381 . S
C1835 C1836 1.420 . S
C1835 H1843 0.936 . S
C1836 C1835 1.420 . S
C1836 C1837 1.396 . S
C1836 H1844 0.895 1_655 S
C1837 C1836 1.396 . S
C1837 C1838 1.377 . S
C1838 H1822 0.930 . S
C1838 C1837 1.377 . S
C1838 C1839 1.379 . S
C1839 H1823 0.931 . S
C1839 C1833 1.383 . S
C1839 C1838 1.379 . S
H1840 C1834 0.959 . S
H1841 C1834 0.961 . S
H1842 C1834 0.960 . S
H1843 C1835 0.936 . S
H1844 C1836 0.895 1_455 S
H1845 C1853 0.929 . S
H1846 C1855 0.930 . S
H1847 C1857 0.930 . S
H1848 C1860 0.929 . S
H1849 C1863 0.930 . S
H1850 C1865 0.960 . S
H1851 C1865 0.960 . S
H1852 C1865 0.960 . S
C1853 H1845 0.929 . S
C1853 C1854 1.377 . S
C1853 C1855 1.384 . S
C1854 C1853 1.377 . S
C1854 C1860 1.390 . S
C1855 H1846 0.930 . S
C1855 C1853 1.384 . S
C1855 C1856 1.372 . S
C1856 C1855 1.372 . S
C1856 C1857 1.400 . S
C1856 C1861 1.490 . S
C1857 H1847 0.930 . S
C1857 C1856 1.400 . S
C1857 C1860 1.386 . S
H1858 C1874 0.930 . S
H1859 C1875 0.931 . S
C1860 H1848 0.929 . S
C1860 C1854 1.390 . S
C1860 C1857 1.386 . S
C1861 C1856 1.490 . S
C1861 C1863 1.395 . S
C1861 C1864 1.403 . S
H1862 C1868 0.930 . S
C1863 H1849 0.930 . S
C1863 C1861 1.395 . S
C1863 C1866 1.403 . S
C1864 C1861 1.403 . S
C1864 C1865 1.524 . S
C1864 C1868 1.400 . S
C1865 H1850 0.960 . S
C1865 H1851 0.960 . S
C1865 H1852 0.960 . S
C1865 C1864 1.524 . S
C1866 C1863 1.403 . S
C1866 C1867 1.392 . S
C1866 C1870 1.495 . S
C1867 C1866 1.392 . S
C1867 C1868 1.385 . S
C1867 C1869 1.478 . S
C1868 H1862 0.930 . S
C1868 C1864 1.400 . S
C1868 C1867 1.385 . S
C1869 C1867 1.478 . S
C1869 C1871 1.381 . S
C1869 C1875 1.383 . S
C1870 C1866 1.495 . S
C1870 H1876 0.959 . S
C1870 H1877 0.961 . S
C1870 H1878 0.960 . S
C1871 C1869 1.381 . S
C1871 C1872 1.394 . S
C1871 H1879 0.930 . S
C1872 C1871 1.394 . S
C1872 C1873 1.383 . S
C1872 H1880 0.929 . S
C1873 C1872 1.383 . S
C1873 C1874 1.377 . S
C1874 H1858 0.930 . S
C1874 C1873 1.377 . S
C1874 C1875 1.379 . S
C1875 H1859 0.931 . S
C1875 C1869 1.383 . S
C1875 C1874 1.379 . S
H1876 C1870 0.959 . S
H1877 C1870 0.961 . S
H1878 C1870 0.960 . S
H1879 C1871 0.930 . S
H1880 C1872 0.929 . S
H1881 C1889 0.929 . S
H1882 C1891 0.930 . S
H1883 C1893 0.930 . S
H1884 C1896 0.929 . S
H1885 C1899 0.930 . S
H1886 C1901 0.960 . S
H1887 C1901 0.960 . S
H1888 C1901 0.960 . S
C1889 H1881 0.929 . S
C1889 C1890 1.377 . S
C1889 C1891 1.384 . S
C1890 C1889 1.377 . S
C1890 C1896 1.390 . S
C1891 H1882 0.930 . S
C1891 C1889 1.384 . S
C1891 C1892 1.372 . S
C1892 C1891 1.372 . S
C1892 C1893 1.400 . S
C1892 C1897 1.490 . S
C1893 H1883 0.930 . S
C1893 C1892 1.400 . S
C1893 C1896 1.386 . S
H1894 C1910 0.930 1_565 S
H1895 C1911 0.931 . S
C1896 H1884 0.929 . S
C1896 C1890 1.390 . S
C1896 C1893 1.386 . S
C1897 C1892 1.490 . S
C1897 C1899 1.395 . S
C1897 C1900 1.403 . S
H1898 C1904 0.930 . S
C1899 H1885 0.930 . S
C1899 C1897 1.395 . S
C1899 C1902 1.403 . S
C1900 C1897 1.403 . S
C1900 C1901 1.524 . S
C1900 C1904 1.400 . S
C1901 H1886 0.960 . S
C1901 H1887 0.960 . S
C1901 H1888 0.960 . S
C1901 C1900 1.524 . S
C1902 C1899 1.403 . S
C1902 C1903 1.392 . S
C1902 C1906 1.495 . S
C1903 C1902 1.392 . S
C1903 C1904 1.385 . S
C1903 C1905 1.478 . S
C1904 H1898 0.930 . S
C1904 C1900 1.400 . S
C1904 C1903 1.385 . S
C1905 C1903 1.478 . S
C1905 C1907 1.381 . S
C1905 C1911 1.383 . S
C1906 C1902 1.495 . S
C1906 H1912 0.959 . S
C1906 H1913 0.961 . S
C1906 H1914 0.960 . S
C1907 C1905 1.381 . S
C1907 C1908 1.394 . S
C1907 H1915 0.930 . S
C1908 C1907 1.394 . S
C1908 C1909 1.383 . S
C1908 H1916 0.929 . S
C1909 C1908 1.383 . S
C1909 C1910 1.377 . S
C1910 H1894 0.930 1_545 S
C1910 C1909 1.377 . S
C1910 C1911 1.379 . S
C1911 H1895 0.931 . S
C1911 C1905 1.383 . S
C1911 C1910 1.379 . S
H1912 C1906 0.959 . S
H1913 C1906 0.961 . S
H1914 C1906 0.960 . S
H1915 C1907 0.930 . S
H1916 C1908 0.929 . S
H1917 C1925 0.929 . S
H1918 C1927 0.930 . S
H1919 C1929 0.930 . S
H1920 C1932 0.929 . S
H1921 C1935 0.930 . S
H1922 C1937 0.960 . S
H1923 C1937 0.960 . S
H1924 C1937 0.960 . S
C1925 H1917 0.929 . S
C1925 C1926 1.377 . S
C1925 C1927 1.384 . S
C1926 C1925 1.377 . S
C1926 C1932 1.390 . S
C1927 H1918 0.930 . S
C1927 C1925 1.384 . S
C1927 C1928 1.372 . S
C1928 C1927 1.372 . S
C1928 C1929 1.400 . S
C1928 C1933 1.490 . S
C1929 H1919 0.930 . S
C1929 C1928 1.400 . S
C1929 C1932 1.386 . S
H1930 C1946 0.930 . S
H1931 C1947 0.931 . S
C1932 H1920 0.929 . S
C1932 C1926 1.390 . S
C1932 C1929 1.386 . S
C1933 C1928 1.490 . S
C1933 C1935 1.395 . S
C1933 C1936 1.403 . S
H1934 C1940 0.930 . S
C1935 H1921 0.930 . S
C1935 C1933 1.395 . S
C1935 C1938 1.403 . S
C1936 C1933 1.403 . S
C1936 C1937 1.524 . S
C1936 C1940 1.400 . S
C1937 H1922 0.960 . S
C1937 H1923 0.960 . S
C1937 H1924 0.960 . S
C1937 C1936 1.524 . S
C1938 C1935 1.403 . S
C1938 C1939 1.392 . S
C1938 C1942 1.495 . S
C1939 C1938 1.392 . S
C1939 C1940 1.385 . S
C1939 C1941 1.478 . S
C1940 H1934 0.930 . S
C1940 C1936 1.400 . S
C1940 C1939 1.385 . S
C1941 C1939 1.478 . S
C1941 C1943 1.381 . S
C1941 C1947 1.383 . S
C1942 C1938 1.495 . S
C1942 H1948 0.959 . S
C1942 H1949 0.961 . S
C1942 H1950 0.960 . S
C1943 C1941 1.381 . S
C1943 C1944 1.394 . S
C1943 H1951 0.930 . S
C1944 C1943 1.394 . S
C1944 C1945 1.383 . S
C1944 H1952 0.929 . S
C1945 C1944 1.383 . S
C1945 C1946 1.377 . S
C1946 H1930 0.930 . S
C1946 C1945 1.377 . S
C1946 C1947 1.379 . S
C1947 H1931 0.931 . S
C1947 C1941 1.383 . S
C1947 C1946 1.379 . S
H1948 C1942 0.959 . S
H1949 C1942 0.961 . S
H1950 C1942 0.960 . S
H1951 C1943 0.930 . S
H1952 C1944 0.929 . S
H1953 C1961 0.929 . S
H1954 C1963 0.930 . S
H1955 C1965 0.930 . S
H1956 C1968 0.929 . S
H1957 C1971 0.930 . S
H1958 C1973 0.960 . S
H1959 C1973 0.960 . S
H1960 C1973 0.960 . S
C1961 H1953 0.929 . S
C1961 C1962 1.377 . S
C1961 C1963 1.384 . S
C1962 C1961 1.377 . S
C1962 C1968 1.390 . S
C1963 H1954 0.930 . S
C1963 C1961 1.384 . S
C1963 C1964 1.372 . S
C1964 C1963 1.372 . S
C1964 C1965 1.400 . S
C1964 C1969 1.490 . S
C1965 H1955 0.930 . S
C1965 C1964 1.400 . S
C1965 C1968 1.386 . S
H1966 C1982 0.930 . S
H1967 C1983 0.931 . S
C1968 H1956 0.929 . S
C1968 C1962 1.390 . S
C1968 C1965 1.386 . S
C1969 C1964 1.490 . S
C1969 C1971 1.395 . S
C1969 C1972 1.403 . S
H1970 C1976 0.930 . S
C1971 H1957 0.930 . S
C1971 C1969 1.395 . S
C1971 C1974 1.403 . S
C1972 C1969 1.403 . S
C1972 C1973 1.524 . S
C1972 C1976 1.400 . S
C1973 H1958 0.960 . S
C1973 H1959 0.960 . S
C1973 H1960 0.960 . S
C1973 C1972 1.524 . S
C1974 C1971 1.403 . S
C1974 C1975 1.392 . S
C1974 C1978 1.495 . S
C1975 C1974 1.392 . S
C1975 C1976 1.385 . S
C1975 C1977 1.478 . S
C1976 H1970 0.930 . S
C1976 C1972 1.400 . S
C1976 C1975 1.385 . S
C1977 C1975 1.478 . S
C1977 C1979 1.381 . S
C1977 C1983 1.383 . S
C1978 C1974 1.495 . S
C1978 H1984 0.959 . S
C1978 H1985 0.961 . S
C1978 H1986 0.960 . S
C1979 C1977 1.381 . S
C1979 C1980 1.394 . S
C1979 H1987 0.930 . S
C1980 C1979 1.394 . S
C1980 C1981 1.383 . S
C1980 H1988 0.929 . S
C1981 C1980 1.383 . S
C1981 C1982 1.377 . S
C1982 H1966 0.930 . S
C1982 C1981 1.377 . S
C1982 C1983 1.379 . S
C1983 H1967 0.931 . S
C1983 C1977 1.383 . S
C1983 C1982 1.379 . S
H1984 C1978 0.959 . S
H1985 C1978 0.961 . S
H1986 C1978 0.960 . S
H1987 C1979 0.930 . S
H1988 C1980 0.929 . S
H1989 C1997 0.929 . S
H1990 C1999 0.930 . S
H1991 C2001 0.930 . S
H1992 C2004 0.929 . S
H1993 C2007 0.930 . S
H1994 C2009 0.960 . S
H1995 C2009 0.960 . S
H1996 C2009 0.960 . S
C1997 H1989 0.929 . S
C1997 C1998 1.377 . S
C1997 C1999 1.384 . S
C1998 C1997 1.377 . S
C1998 C2004 1.390 . S
C1999 H1990 0.930 . S
C1999 C1997 1.384 . S
C1999 C2000 1.372 . S
C2000 C1999 1.372 . S
C2000 C2001 1.400 . S
C2000 C2005 1.490 . S
C2001 H1991 0.930 . S
C2001 C2000 1.400 . S
C2001 C2004 1.386 . S
H2002 C2018 0.930 . S
H2003 C2019 0.931 . S
C2004 H1992 0.929 . S
C2004 C1998 1.390 . S
C2004 C2001 1.386 . S
C2005 C2000 1.490 . S
C2005 C2007 1.395 . S
C2005 C2008 1.403 . S
H2006 C2012 0.930 . S
C2007 H1993 0.930 . S
C2007 C2005 1.395 . S
C2007 C2010 1.403 . S
C2008 C2005 1.403 . S
C2008 C2009 1.524 . S
C2008 C2012 1.400 . S
C2009 H1994 0.960 . S
C2009 H1995 0.960 . S
C2009 H1996 0.960 . S
C2009 C2008 1.524 . S
C2010 C2007 1.403 . S
C2010 C2011 1.392 . S
C2010 C2014 1.495 . S
C2011 C2010 1.392 . S
C2011 C2012 1.385 . S
C2011 C2013 1.478 . S
C2012 H2006 0.930 . S
C2012 C2008 1.400 . S
C2012 C2011 1.385 . S
C2013 C2011 1.478 . S
C2013 C2015 1.381 . S
C2013 C2019 1.383 . S
C2014 C2010 1.495 . S
C2014 H2020 0.959 . S
C2014 H2021 0.961 . S
C2014 H2022 0.960 . S
C2015 C2013 1.381 . S
C2015 C2016 1.394 . S
C2015 H2023 0.930 . S
C2016 C2015 1.394 . S
C2016 C2017 1.383 . S
C2016 H2024 0.929 . S
C2017 C2016 1.383 . S
C2017 C2018 1.377 . S
C2018 H2002 0.930 . S
C2018 C2017 1.377 . S
C2018 C2019 1.379 . S
C2019 H2003 0.931 . S
C2019 C2013 1.383 . S
C2019 C2018 1.379 . S
H2020 C2014 0.959 . S
H2021 C2014 0.961 . S
H2022 C2014 0.960 . S
H2023 C2015 0.930 . S
H2024 C2016 0.929 . S
H2025 C2033 0.929 . S
H2026 C2035 0.930 . S
H2027 C2037 0.930 . S
H2028 C2040 0.929 . S
H2029 C2043 0.930 . S
H2030 C2045 0.960 . S
H2031 C2045 0.960 . S
H2032 C2045 0.960 . S
C2033 H2025 0.929 . S
C2033 C2034 1.377 . S
C2033 C2035 1.384 . S
C2034 C2033 1.377 . S
C2034 C2040 1.390 . S
C2035 H2026 0.930 . S
C2035 C2033 1.384 . S
C2035 C2036 1.372 . S
C2036 C2035 1.372 . S
C2036 C2037 1.400 . S
C2036 C2041 1.490 . S
C2037 H2027 0.930 . S
C2037 C2036 1.400 . S
C2037 C2040 1.386 . S
H2038 C2054 0.930 . S
H2039 C2055 0.931 . S
C2040 H2028 0.929 . S
C2040 C2034 1.390 . S
C2040 C2037 1.386 . S
C2041 C2036 1.490 . S
C2041 C2043 1.395 . S
C2041 C2044 1.403 . S
H2042 C2048 0.930 . S
C2043 H2029 0.930 . S
C2043 C2041 1.395 . S
C2043 C2046 1.403 . S
C2044 C2041 1.403 . S
C2044 C2045 1.524 . S
C2044 C2048 1.400 . S
C2045 H2030 0.960 . S
C2045 H2031 0.960 . S
C2045 H2032 0.960 . S
C2045 C2044 1.524 . S
C2046 C2043 1.403 . S
C2046 C2047 1.392 . S
C2046 C2050 1.495 . S
C2047 C2046 1.392 . S
C2047 C2048 1.385 . S
C2047 C2049 1.478 . S
C2048 H2042 0.930 . S
C2048 C2044 1.400 . S
C2048 C2047 1.385 . S
C2049 C2047 1.478 . S
C2049 C2051 1.381 . S
C2049 C2055 1.383 . S
C2050 C2046 1.495 . S
C2050 H2056 0.959 . S
C2050 H2057 0.961 . S
C2050 H2058 0.960 . S
C2051 C2049 1.381 . S
C2051 C2052 1.394 . S
C2051 H2059 0.930 . S
C2052 C2051 1.394 . S
C2052 C2053 1.383 . S
C2052 H2060 0.929 . S
C2053 C2052 1.383 . S
C2053 C2054 1.377 . S
C2054 H2038 0.930 . S
C2054 C2053 1.377 . S
C2054 C2055 1.379 . S
C2055 H2039 0.931 . S
C2055 C2049 1.383 . S
C2055 C2054 1.379 . S
H2056 C2050 0.959 . S
H2057 C2050 0.961 . S
H2058 C2050 0.960 . S
H2059 C2051 0.930 . S
H2060 C2052 0.929 . S
H2061 C2069 0.929 . S
H2062 C2071 0.930 . S
H2063 C2073 0.930 . S
H2064 C2076 0.929 . S
H2065 C2079 0.930 . S
H2066 C2081 0.960 . S
H2067 C2081 0.960 . S
H2068 C2081 0.960 . S
C2069 H2061 0.929 . S
C2069 C2070 1.377 . S
C2069 C2071 1.384 . S
C2070 C2069 1.377 . S
C2070 C2076 1.390 . S
C2071 H2062 0.930 . S
C2071 C2069 1.384 . S
C2071 C2072 1.372 . S
C2072 C2071 1.372 . S
C2072 C2073 1.400 . S
C2072 C2077 1.490 . S
C2073 H2063 0.930 . S
C2073 C2072 1.400 . S
C2073 C2076 1.386 . S
H2074 C2090 0.930 . S
H2075 C2091 0.931 . S
C2076 H2064 0.929 . S
C2076 C2070 1.390 . S
C2076 C2073 1.386 . S
C2077 C2072 1.490 . S
C2077 C2079 1.395 . S
C2077 C2080 1.403 . S
H2078 C2084 0.930 . S
C2079 H2065 0.930 . S
C2079 C2077 1.395 . S
C2079 C2082 1.403 . S
C2080 C2077 1.403 . S
C2080 C2081 1.524 . S
C2080 C2084 1.400 . S
C2081 H2066 0.960 . S
C2081 H2067 0.960 . S
C2081 H2068 0.960 . S
C2081 C2080 1.524 . S
C2082 C2079 1.403 . S
C2082 C2083 1.392 . S
C2082 C2086 1.495 . S
C2083 C2082 1.392 . S
C2083 C2084 1.385 . S
C2083 C2085 1.478 . S
C2084 H2078 0.930 . S
C2084 C2080 1.400 . S
C2084 C2083 1.385 . S
C2085 C2083 1.478 . S
C2085 C2087 1.381 . S
C2085 C2091 1.383 . S
C2086 C2082 1.495 . S
C2086 H2092 0.959 . S
C2086 H2093 0.961 . S
C2086 H2094 0.960 . S
C2087 C2085 1.381 . S
C2087 C2088 1.394 . S
C2087 H2095 0.930 . S
C2088 C2087 1.394 . S
C2088 C2089 1.383 . S
C2088 H2096 0.929 . S
C2089 C2088 1.383 . S
C2089 C2090 1.377 . S
C2090 H2074 0.930 . S
C2090 C2089 1.377 . S
C2090 C2091 1.379 . S
C2091 H2075 0.931 . S
C2091 C2085 1.383 . S
C2091 C2090 1.379 . S
H2092 C2086 0.959 . S
H2093 C2086 0.961 . S
H2094 C2086 0.960 . S
H2095 C2087 0.930 . S
H2096 C2088 0.929 . S
H2097 C2105 0.929 . S
H2098 C2107 0.930 . S
H2099 C2109 0.930 . S
H2100 C2112 0.929 . S
H2101 C2115 0.930 . S
H2102 C2117 0.960 . S
H2103 C2117 0.960 . S
H2104 C2117 0.960 . S
C2105 H2097 0.929 . S
C2105 C2106 1.377 . S
C2105 C2107 1.384 . S
C2106 C2105 1.377 . S
C2106 C2112 1.390 . S
C2107 H2098 0.930 . S
C2107 C2105 1.384 . S
C2107 C2108 1.372 . S
C2108 C2107 1.372 . S
C2108 C2109 1.400 . S
C2108 C2113 1.490 . S
C2109 H2099 0.930 . S
C2109 C2108 1.400 . S
C2109 C2112 1.386 . S
H2110 C2126 0.930 . S
H2111 C2127 0.931 . S
C2112 H2100 0.929 . S
C2112 C2106 1.390 . S
C2112 C2109 1.386 . S
C2113 C2108 1.490 . S
C2113 C2115 1.395 . S
C2113 C2116 1.403 . S
H2114 C2120 0.930 . S
C2115 H2101 0.930 . S
C2115 C2113 1.395 . S
C2115 C2118 1.403 . S
C2116 C2113 1.403 . S
C2116 C2117 1.524 . S
C2116 C2120 1.400 . S
C2117 H2102 0.960 . S
C2117 H2103 0.960 . S
C2117 H2104 0.960 . S
C2117 C2116 1.524 . S
C2118 C2115 1.403 . S
C2118 C2119 1.392 . S
C2118 C2122 1.495 . S
C2119 C2118 1.392 . S
C2119 C2120 1.385 . S
C2119 C2121 1.478 . S
C2120 H2114 0.930 . S
C2120 C2116 1.400 . S
C2120 C2119 1.385 . S
C2121 C2119 1.478 . S
C2121 C2123 1.381 . S
C2121 C2127 1.383 . S
C2122 C2118 1.495 . S
C2122 H2128 0.959 . S
C2122 H2129 0.961 . S
C2122 H2130 0.960 . S
C2123 C2121 1.381 . S
C2123 C2124 1.394 . S
C2123 H2131 0.930 . S
C2124 C2123 1.394 . S
C2124 C2125 1.383 . S
C2124 H2132 0.929 . S
C2125 C2124 1.383 . S
C2125 C2126 1.377 . S
C2126 H2110 0.930 . S
C2126 C2125 1.377 . S
C2126 C2127 1.379 . S
C2127 H2111 0.931 . S
C2127 C2121 1.383 . S
C2127 C2126 1.379 . S
H2128 C2122 0.959 . S
H2129 C2122 0.961 . S
H2130 C2122 0.960 . S
H2131 C2123 0.930 . S
H2132 C2124 0.929 . S
H2133 C2141 0.929 . S
H2134 C2143 0.930 . S
H2135 C2145 0.930 . S
H2136 C2148 0.929 . S
H2137 C2151 0.930 . S
H2138 C2153 0.960 . S
H2139 C2153 0.960 . S
H2140 C2153 0.960 . S
C2141 H2133 0.929 . S
C2141 C2142 1.377 . S
C2141 C2143 1.384 . S
C2142 C2141 1.377 . S
C2142 C2148 1.390 . S
C2143 H2134 0.930 . S
C2143 C2141 1.384 . S
C2143 C2144 1.372 . S
C2144 C2143 1.372 . S
C2144 C2145 1.400 . S
C2144 C2149 1.490 . S
C2145 H2135 0.930 . S
C2145 C2144 1.400 . S
C2145 C2148 1.386 . S
H2146 C2162 0.930 . S
H2147 C2163 0.931 . S
C2148 H2136 0.929 . S
C2148 C2142 1.390 . S
C2148 C2145 1.386 . S
C2149 C2144 1.490 . S
C2149 C2151 1.395 . S
C2149 C2152 1.403 . S
H2150 C2156 0.930 . S
C2151 H2137 0.930 . S
C2151 C2149 1.395 . S
C2151 C2154 1.403 . S
C2152 C2149 1.403 . S
C2152 C2153 1.524 . S
C2152 C2156 1.400 . S
C2153 H2138 0.960 . S
C2153 H2139 0.960 . S
C2153 H2140 0.960 . S
C2153 C2152 1.524 . S
C2154 C2151 1.403 . S
C2154 C2155 1.392 . S
C2154 C2158 1.495 . S
C2155 C2154 1.392 . S
C2155 C2156 1.385 . S
C2155 C2157 1.478 . S
C2156 H2150 0.930 . S
C2156 C2152 1.400 . S
C2156 C2155 1.385 . S
C2157 C2155 1.478 . S
C2157 C2159 1.381 . S
C2157 C2163 1.383 . S
C2158 C2154 1.495 . S
C2158 H2164 0.959 . S
C2158 H2165 0.961 . S
C2158 H2166 0.960 . S
C2159 C2157 1.381 . S
C2159 C2160 1.394 . S
C2159 H2167 0.930 . S
C2160 C2159 1.394 . S
C2160 C2161 1.383 . S
C2160 H2168 0.929 . S
C2161 C2160 1.383 . S
C2161 C2162 1.377 . S
C2162 H2146 0.930 . S
C2162 C2161 1.377 . S
C2162 C2163 1.379 . S
C2163 H2147 0.931 . S
C2163 C2157 1.383 . S
C2163 C2162 1.379 . S
H2164 C2158 0.959 . S
H2165 C2158 0.961 . S
H2166 C2158 0.960 . S
H2167 C2159 0.930 . S
H2168 C2160 0.929 . S
H2169 C2177 0.929 . S
H2170 C2179 0.930 . S
H2171 C2181 0.930 . S
H2172 C2184 0.929 . S
H2173 C2187 0.930 . S
H2174 C2189 0.960 . S
H2175 C2189 0.960 . S
H2176 C2189 0.960 . S
C2177 H2169 0.929 . S
C2177 C2178 1.377 . S
C2177 C2179 1.384 . S
C2178 C2177 1.377 . S
C2178 C2184 1.390 . S
C2179 H2170 0.930 . S
C2179 C2177 1.384 . S
C2179 C2180 1.372 . S
C2180 C2179 1.372 . S
C2180 C2181 1.400 . S
C2180 C2185 1.490 . S
C2181 H2171 0.930 . S
C2181 C2180 1.400 . S
C2181 C2184 1.386 . S
H2182 C2198 0.930 . S
H2183 C2199 0.931 . S
C2184 H2172 0.929 . S
C2184 C2178 1.390 . S
C2184 C2181 1.386 . S
C2185 C2180 1.490 . S
C2185 C2187 1.395 . S
C2185 C2188 1.403 . S
H2186 C2192 0.930 . S
C2187 H2173 0.930 . S
C2187 C2185 1.395 . S
C2187 C2190 1.403 . S
C2188 C2185 1.403 . S
C2188 C2189 1.524 . S
C2188 C2192 1.400 . S
C2189 H2174 0.960 . S
C2189 H2175 0.960 . S
C2189 H2176 0.960 . S
C2189 C2188 1.524 . S
C2190 C2187 1.403 . S
C2190 C2191 1.392 . S
C2190 C2194 1.495 . S
C2191 C2190 1.392 . S
C2191 C2192 1.385 . S
C2191 C2193 1.478 . S
C2192 H2186 0.930 . S
C2192 C2188 1.400 . S
C2192 C2191 1.385 . S
C2193 C2191 1.478 . S
C2193 C2195 1.381 . S
C2193 C2199 1.383 . S
C2194 C2190 1.495 . S
C2194 H2200 0.959 . S
C2194 H2201 0.961 . S
C2194 H2202 0.960 . S
C2195 C2193 1.381 . S
C2195 C2196 1.394 . S
C2195 H2203 0.930 . S
C2196 C2195 1.394 . S
C2196 C2197 1.383 . S
C2196 H2204 0.929 . S
C2197 C2196 1.383 . S
C2197 C2198 1.377 . S
C2198 H2182 0.930 . S
C2198 C2197 1.377 . S
C2198 C2199 1.379 . S
C2199 H2183 0.931 . S
C2199 C2193 1.383 . S
C2199 C2198 1.379 . S
H2200 C2194 0.959 . S
H2201 C2194 0.961 . S
H2202 C2194 0.960 . S
H2203 C2195 0.930 . S
H2204 C2196 0.929 . S
H2205 C2213 0.929 . S
H2206 C2215 0.930 . S
H2207 C2217 0.930 . S
H2208 C2220 0.929 . S
H2209 C2223 0.930 . S
H2210 C2225 0.960 . S
H2211 C2225 0.960 . S
H2212 C2225 0.960 . S
C2213 H2205 0.929 . S
C2213 C2214 1.377 . S
C2213 C2215 1.384 . S
C2214 C2213 1.377 . S
C2214 C2220 1.390 . S
C2215 H2206 0.930 . S
C2215 C2213 1.384 . S
C2215 C2216 1.372 . S
C2216 C2215 1.372 . S
C2216 C2217 1.400 . S
C2216 C2221 1.490 . S
C2217 H2207 0.930 . S
C2217 C2216 1.400 . S
C2217 C2220 1.386 . S
H2218 C2234 0.930 . S
H2219 C2235 0.931 . S
C2220 H2208 0.929 . S
C2220 C2214 1.390 . S
C2220 C2217 1.386 . S
C2221 C2216 1.490 . S
C2221 C2223 1.395 . S
C2221 C2224 1.403 . S
H2222 C2228 0.930 . S
C2223 H2209 0.930 . S
C2223 C2221 1.395 . S
C2223 C2226 1.403 . S
C2224 C2221 1.403 . S
C2224 C2225 1.524 . S
C2224 C2228 1.400 . S
C2225 H2210 0.960 . S
C2225 H2211 0.960 . S
C2225 H2212 0.960 . S
C2225 C2224 1.524 . S
C2226 C2223 1.403 . S
C2226 C2227 1.392 . S
C2226 C2230 1.495 . S
C2227 C2226 1.392 . S
C2227 C2228 1.385 . S
C2227 C2229 1.478 . S
C2228 H2222 0.930 . S
C2228 C2224 1.400 . S
C2228 C2227 1.385 . S
C2229 C2227 1.478 . S
C2229 C2231 1.381 . S
C2229 C2235 1.383 . S
C2230 C2226 1.495 . S
C2230 H2236 0.959 . S
C2230 H2237 0.961 . S
C2230 H2238 0.960 . S
C2231 C2229 1.381 . S
C2231 C2232 1.394 . S
C2231 H2239 0.930 . S
C2232 C2231 1.394 . S
C2232 C2233 1.383 . S
C2232 H2240 0.929 . S
C2233 C2232 1.383 . S
C2233 C2234 1.377 . S
C2234 H2218 0.930 . S
C2234 C2233 1.377 . S
C2234 C2235 1.379 . S
C2235 H2219 0.931 . S
C2235 C2229 1.383 . S
C2235 C2234 1.379 . S
H2236 C2230 0.959 . S
H2237 C2230 0.961 . S
H2238 C2230 0.960 . S
H2239 C2231 0.930 . S
H2240 C2232 0.929 . S
H2241 C2249 0.929 . S
H2242 C2251 0.930 . S
H2243 C2253 0.930 . S
H2244 C2256 0.929 . S
H2245 C2259 0.930 . S
H2246 C2261 0.960 . S
H2247 C2261 0.960 . S
H2248 C2261 0.960 . S
C2249 H2241 0.929 . S
C2249 C2250 1.377 . S
C2249 C2251 1.384 . S
C2250 C2249 1.377 . S
C2250 C2256 1.390 . S
C2251 H2242 0.930 . S
C2251 C2249 1.384 . S
C2251 C2252 1.372 . S
C2252 C2251 1.372 . S
C2252 C2253 1.400 . S
C2252 C2257 1.490 . S
C2253 H2243 0.930 . S
C2253 C2252 1.400 . S
C2253 C2256 1.386 . S
H2254 C2270 0.930 . S
H2255 C2271 0.931 . S
C2256 H2244 0.929 . S
C2256 C2250 1.390 . S
C2256 C2253 1.386 . S
C2257 C2252 1.490 . S
C2257 C2259 1.395 . S
C2257 C2260 1.403 . S
H2258 C2264 0.930 . S
C2259 H2245 0.930 . S
C2259 C2257 1.395 . S
C2259 C2262 1.403 . S
C2260 C2257 1.403 . S
C2260 C2261 1.524 . S
C2260 C2264 1.400 . S
C2261 H2246 0.960 . S
C2261 H2247 0.960 . S
C2261 H2248 0.960 . S
C2261 C2260 1.524 . S
C2262 C2259 1.403 . S
C2262 C2263 1.392 . S
C2262 C2266 1.495 . S
C2263 C2262 1.392 . S
C2263 C2264 1.385 . S
C2263 C2265 1.478 . S
C2264 H2258 0.930 . S
C2264 C2260 1.400 . S
C2264 C2263 1.385 . S
C2265 C2263 1.478 . S
C2265 C2267 1.381 . S
C2265 C2271 1.383 . S
C2266 C2262 1.495 . S
C2266 H2272 0.959 . S
C2266 H2273 0.961 . S
C2266 H2274 0.960 . S
C2267 C2265 1.381 . S
C2267 C2268 1.394 . S
C2267 H2275 0.930 . S
C2268 C2267 1.394 . S
C2268 C2269 1.383 . S
C2268 H2276 0.929 . S
C2269 C2268 1.383 . S
C2269 C2270 1.377 . S
C2270 H2254 0.930 . S
C2270 C2269 1.377 . S
C2270 C2271 1.379 . S
C2271 H2255 0.931 . S
C2271 C2265 1.383 . S
C2271 C2270 1.379 . S
H2272 C2266 0.959 . S
H2273 C2266 0.961 . S
H2274 C2266 0.960 . S
H2275 C2267 0.930 . S
H2276 C2268 0.929 . S
H2277 C2285 0.929 . S
H2278 C2287 0.930 . S
H2279 C2289 0.930 . S
H2280 C2292 0.929 . S
H2281 C2295 0.930 . S
H2282 C2297 0.960 . S
H2283 C2297 0.960 . S
H2284 C2297 0.960 . S
C2285 H2277 0.929 . S
C2285 C2286 1.377 . S
C2285 C2287 1.384 . S
C2286 C2285 1.377 . S
C2286 C2292 1.390 . S
C2287 H2278 0.930 . S
C2287 C2285 1.384 . S
C2287 C2288 1.372 . S
C2288 C2287 1.372 . S
C2288 C2289 1.400 . S
C2288 C2293 1.490 . S
C2289 H2279 0.930 . S
C2289 C2288 1.400 . S
C2289 C2292 1.386 . S
H2290 C2306 0.930 . S
H2291 C2307 0.931 . S
C2292 H2280 0.929 . S
C2292 C2286 1.390 . S
C2292 C2289 1.386 . S
C2293 C2288 1.490 . S
C2293 C2295 1.395 . S
C2293 C2296 1.403 . S
H2294 C2300 0.930 . S
C2295 H2281 0.930 . S
C2295 C2293 1.395 . S
C2295 C2298 1.403 . S
C2296 C2293 1.403 . S
C2296 C2297 1.524 . S
C2296 C2300 1.400 . S
C2297 H2282 0.960 . S
C2297 H2283 0.960 . S
C2297 H2284 0.960 . S
C2297 C2296 1.524 . S
C2298 C2295 1.403 . S
C2298 C2299 1.392 . S
C2298 C2302 1.495 . S
C2299 C2298 1.392 . S
C2299 C2300 1.385 . S
C2299 C2301 1.478 . S
C2300 H2294 0.930 . S
C2300 C2296 1.400 . S
C2300 C2299 1.385 . S
C2301 C2299 1.478 . S
C2301 C2303 1.381 . S
C2301 C2307 1.383 . S
C2302 C2298 1.495 . S
C2302 H2308 0.959 . S
C2302 H2309 0.961 . S
C2302 H2310 0.960 . S
C2303 C2301 1.381 . S
C2303 C2304 1.394 . S
C2303 H2311 0.930 . S
C2304 C2303 1.394 . S
C2304 C2305 1.383 . S
C2304 H2312 0.929 . S
C2305 C2304 1.383 . S
C2305 C2306 1.377 . S
C2306 H2290 0.930 . S
C2306 C2305 1.377 . S
C2306 C2307 1.379 . S
C2307 H2291 0.931 . S
C2307 C2301 1.383 . S
C2307 C2306 1.379 . S
H2308 C2302 0.959 . S
H2309 C2302 0.961 . S
H2310 C2302 0.960 . S
H2311 C2303 0.930 . S
H2312 C2304 0.929 . S
H2313 C2321 0.929 . S
H2314 C2323 0.930 . S
H2315 C2325 0.930 . S
H2316 C2328 0.929 . S
H2317 C2331 0.930 . S
H2318 C2333 0.960 . S
H2319 C2333 0.960 . S
H2320 C2333 0.960 . S
C2321 H2313 0.929 . S
C2321 C2322 1.377 . S
C2321 C2323 1.384 . S
C2322 C2321 1.377 . S
C2322 C2328 1.390 . S
C2323 H2314 0.930 . S
C2323 C2321 1.384 . S
C2323 C2324 1.372 . S
C2324 C2323 1.372 . S
C2324 C2325 1.400 . S
C2324 C2329 1.490 . S
C2325 H2315 0.930 . S
C2325 C2324 1.400 . S
C2325 C2328 1.386 . S
H2326 C2342 0.930 . S
H2327 C2343 0.931 . S
C2328 H2316 0.929 . S
C2328 C2322 1.390 . S
C2328 C2325 1.386 . S
C2329 C2324 1.490 . S
C2329 C2331 1.395 . S
C2329 C2332 1.403 . S
H2330 C2336 0.930 . S
C2331 H2317 0.930 . S
C2331 C2329 1.395 . S
C2331 C2334 1.403 . S
C2332 C2329 1.403 . S
C2332 C2333 1.524 . S
C2332 C2336 1.400 . S
C2333 H2318 0.960 . S
C2333 H2319 0.960 . S
C2333 H2320 0.960 . S
C2333 C2332 1.524 . S
C2334 C2331 1.403 . S
C2334 C2335 1.392 . S
C2334 C2338 1.495 . S
C2335 C2334 1.392 . S
C2335 C2336 1.385 . S
C2335 C2337 1.478 . S
C2336 H2330 0.930 . S
C2336 C2332 1.400 . S
C2336 C2335 1.385 . S
C2337 C2335 1.478 . S
C2337 C2339 1.381 . S
C2337 C2343 1.383 . S
C2338 C2334 1.495 . S
C2338 H2344 0.959 . S
C2338 H2345 0.961 . S
C2338 H2346 0.960 . S
C2339 C2337 1.381 . S
C2339 C2340 1.394 . S
C2339 H2347 0.930 . S
C2340 C2339 1.394 . S
C2340 C2341 1.383 . S
C2340 H2348 0.929 . S
C2341 C2340 1.383 . S
C2341 C2342 1.377 . S
C2342 H2326 0.930 . S
C2342 C2341 1.377 . S
C2342 C2343 1.379 . S
C2343 H2327 0.931 . S
C2343 C2337 1.383 . S
C2343 C2342 1.379 . S
H2344 C2338 0.959 . S
H2345 C2338 0.961 . S
H2346 C2338 0.960 . S
H2347 C2339 0.930 . S
H2348 C2340 0.929 . S
C414 C162 1.400 . S
C433 C230 1.402 . S
C450 C174 1.383 . S
C469 C251 1.379 . S
C486 C150 1.335 . S
C505 C271 1.237 . S
C522 C138 1.330 . S
C541 C250 1.183 . S
C577 C272 1.368 . S
C558 C114 1.406 . S
C594 C126 1.357 1_554 S
C613 C229 1.177 . S
C649 C231 1.331 . S
C630 C136 1.397 1_554 S
C685 C252 1.384 . S
C666 C112 1.395 . S
C702 C124 1.455 . S
C721 C274 1.272 . S
C738 C160 1.417 . S
C757 C253 1.183 . S
C774 C172 1.367 . S
C793 C273 1.309 . S
C829 C232 1.260 . S
C810 C148 1.437 . S
C865 C293 1.402 . S
C846 C18 1.401 . S
C882 C30 1.390 . S
C901 C314 1.326 . S
C918 C6 1.333 . S
C937 C334 1.167 . S
C954 C210 1.333 . S
C973 C313 1.236 . S
C990 C186 1.400 . S
C1009 C335 1.393 . S
C1026 C198 1.357 . S
C1045 C292 1.192 . S
C1062 C208 1.407 . S
C1081 C294 1.393 . S
C1098 C184 1.394 . S
C1117 C315 1.395 . S
C1153 C337 1.299 . S
C1134 C196 1.458 . S
C1170 C16 1.428 . S
C1189 C316 1.291 . S
C1225 C336 1.374 . S
C1206 C28 1.375 . S
C1242 C4 1.433 . S
C1261 C295 1.212 . S
C1297 C356 1.395 . S
C1278 C90 1.402 . S
C1314 C102 1.383 . S
C1333 C377 1.380 . S
C1369 C397 1.244 . S
C1350 C78 1.331 . S
C1405 C376 1.191 . S
C1386 C66 1.337 . S
C1441 C398 1.345 . S
C1422 C42 1.406 . S
C1458 C54 1.357 . S
C1477 C355 1.172 . S
C1494 C64 1.404 . S
C1513 C357 1.400 . S
C1530 C40 1.385 . S
C1549 C378 1.332 . S
C1585 C400 1.303 . S
C1566 C52 1.458 . S
C1602 C88 1.421 . S
C1621 C379 1.237 . S
C1638 C100 1.375 . S
C1657 C399 1.375 . S
C1674 C76 1.432 . S
C1693 C358 1.192 . S
C1710 C189 1.494 . S
C1729 C234 1.482 . S
C1765 C255 1.495 . S
C1746 C201 1.529 . S
C1782 C213 1.565 . S
C1801 C275 1.517 . S
C1818 C81 1.638 . S
C1837 C254 1.553 . S
C1854 C93 1.565 . S
C1873 C276 1.535 . S
C1909 C233 1.565 . S
C1890 C105 1.597 . S
C1926 C45 1.491 . S
C1945 C297 1.455 . S
C1962 C57 1.528 . S
C1981 C318 1.504 . S
C1998 C69 1.561 . S
C2017 C338 1.494 . S
C2034 C153 1.635 . S
C2053 C317 1.573 . S
C2089 C339 1.529 . S
C2070 C165 1.566 . S
C2106 C177 1.597 . S
C2125 C296 1.512 . S
C2142 C117 1.490 . S
C2161 C360 1.479 . S
C2178 C129 1.531 . S
C2197 C381 1.499 . S
C2233 C401 1.483 . S
C2214 C141 1.561 . S
C2250 C9 1.637 . S
C2269 C380 1.601 . S
C2286 C21 1.568 . S
C2305 C402 1.550 . S
C2322 C33 1.598 . S
C2341 C359 1.563 . S
