# Generated by pormake.
# Topology rtl, (3,6)-cn, num edge types: 1
# Building blocks:
#     Node 0, Type 0, BuildingBlock: PAMTOO_clean_linker_0, # of connection points: 3
#     Node 1, Type 0, BuildingBlock: PAMTOO_clean_linker_0, # of connection points: 3
#     Node 2, Type 0, BuildingBlock: PAMTOO_clean_linker_0, # of connection points: 3
#     Node 3, Type 0, BuildingBlock: PAMTOO_clean_linker_0, # of connection points: 3
#     Node 4, Type 1, BuildingBlock: KUMBOL_clean_sbu_1, # of connection points: 6
#     Node 5, Type 1, BuildingBlock: KUMBOL_clean_sbu_1, # of connection points: 6
#     Edge 6, Type (0, 1), BuildingBlock: OJICUG_clean_linker_0, # of connection points: 2
#     Edge 7, Type (0, 1), BuildingBlock: OJICUG_clean_linker_0, # of connection points: 2
#     Edge 8, Type (0, 1), BuildingBlock: OJICUG_clean_linker_0, # of connection points: 2
#     Edge 9, Type (0, 1), BuildingBlock: OJICUG_clean_linker_0, # of connection points: 2
#     Edge 10, Type (0, 1), BuildingBlock: OJICUG_clean_linker_0, # of connection points: 2
#     Edge 11, Type (0, 1), BuildingBlock: OJICUG_clean_linker_0, # of connection points: 2
#     Edge 12, Type (0, 1), BuildingBlock: OJICUG_clean_linker_0, # of connection points: 2
#     Edge 13, Type (0, 1), BuildingBlock: OJICUG_clean_linker_0, # of connection points: 2
#     Edge 14, Type (0, 1), BuildingBlock: OJICUG_clean_linker_0, # of connection points: 2
#     Edge 15, Type (0, 1), BuildingBlock: OJICUG_clean_linker_0, # of connection points: 2
#     Edge 16, Type (0, 1), BuildingBlock: OJICUG_clean_linker_0, # of connection points: 2
#     Edge 17, Type (0, 1), BuildingBlock: OJICUG_clean_linker_0, # of connection points: 2
# Relax obj value: 0.053
# Max RMSD: 0.238
# Mean RMSD: 0.175
data_MOF--net-rtl--node1-KUMBOL_clean_sbu_1--node2-PAMTOO_clean_linker_0--edge1-OJICUG_clean_linker_0
_symmetry_space_group_name_H-M    P1
_symmetry_Int_Tables_number       1
_symmetry_cell_setting            triclinic
loop_
_symmetry_equiv_pos_as_xyz
'x, y, z'
_cell_length_a     25.370279
_cell_length_b     26.056654
_cell_length_c     20.796752
_cell_angle_alpha  75.151539
_cell_angle_beta   98.007688
_cell_angle_gamma 92.206188
loop_
_atom_site_label
_atom_site_type_symbol
_atom_site_fract_x
_atom_site_fract_y
_atom_site_fract_z
_atom_type_partial_charge
H0 H 0.15743 0.93611 0.97561 0.0
H1 H 0.26289 0.82323 0.1191 0.0
H2 H 0.25395 0.83401 0.90811 0.0
H3 H 0.25473 0.72977 0.99015 0.0
C4 C 0.28435 0.73308 0.03378 0.0
O5 O 0.29927 0.78537 0.02799 0.0
H6 H 0.26511 0.71809 0.08 0.0
C7 C 0.18806 0.90597 0.98701 0.0
C8 C 0.20392 0.88857 0.93443 0.0
C9 C 0.20878 0.88289 0.05401 0.0
C10 C 0.24636 0.84176 0.06782 0.0
C11 C 0.26294 0.82458 0.01504 0.0
C12 C 0.2416 0.84795 0.94852 0.0
H13 H 0.64959 0.60431 0.67801 0.0
H14 H 0.76222 0.7165 0.58307 0.0
H15 H 0.72393 0.72094 0.77599 0.0
H16 H 0.74671 0.83107 0.68798 0.0
C17 C 0.76738 0.81668 0.65219 0.0
O18 O 0.78138 0.76415 0.6798 0.0
H19 H 0.73917 0.82087 0.60503 0.0
C20 C 0.67611 0.63794 0.67807 0.0
C21 C 0.68249 0.66059 0.73331 0.0
C22 C 0.70476 0.65787 0.62356 0.0
C23 C 0.7394 0.70112 0.62429 0.0
C24 C 0.74621 0.72383 0.67897 0.0
C25 C 0.71806 0.70342 0.73354 0.0
H26 H 0.9015 0.1011 0.15391 0.0
H27 H 0.8006 0.21775 0.0096 0.0
H28 H 0.81516 0.2123 0.21968 0.0
H29 H 0.70952 0.22423 0.15357 0.0
C30 C 0.71527 0.25095 0.10385 0.0
O31 O 0.7688 0.25987 0.09992 0.0
H32 H 0.69779 0.23081 0.0646 0.0
C33 C 0.873 0.13325 0.14223 0.0
C34 C 0.85978 0.15298 0.19435 0.0
C35 C 0.85245 0.15634 0.07526 0.0
C36 C 0.81729 0.19952 0.06092 0.0
C37 C 0.80345 0.2192 0.11321 0.0
C38 C 0.82548 0.19652 0.17965 0.0
H39 H 0.41355 0.42545 0.42339 0.0
H40 H 0.30538 0.31992 0.53756 0.0
H41 H 0.32918 0.30508 0.34289 0.0
H42 H 0.21901 0.28246 0.37427 0.0
C43 C 0.22722 0.27087 0.43005 0.0
O44 O 0.28139 0.26482 0.44936 0.0
H45 H 0.21211 0.30313 0.44882 0.0
C46 C 0.3848 0.39333 0.42859 0.0
C47 C 0.37283 0.36879 0.37567 0.0
C48 C 0.36046 0.37717 0.48728 0.0
C49 C 0.32557 0.33327 0.49364 0.0
C50 C 0.31502 0.30688 0.44221 0.0
C51 C 0.33861 0.32467 0.38318 0.0
C52 C 0.95029 0.181 0.51302 0.0
C53 C 0.86047 0.16573 0.4636 0.0
C54 C 0.90787 0.14664 0.50571 0.0
C55 C 0.85652 0.21954 0.42863 0.0
C56 C 0.94638 0.2351 0.47819 0.0
C57 C 0.89934 0.25411 0.43589 0.0
N58 N 0.99578 0.16127 0.55302 0.0
C59 C 0.03794 0.19372 0.56274 0.0
C60 C 0.99007 0.26839 0.48654 0.0
C61 C 0.03594 0.24764 0.52931 0.0
Gd62 Gd 0.061 0.96422 0.52691 0.0
Gd63 Gd 0.99632 0.07009 0.60458 0.0
N64 N 0.91364 0.09426 0.5382 0.0
C65 C 0.81853 0.13008 0.45758 0.0
C66 C 0.87185 0.06005 0.53522 0.0
C67 C 0.82406 0.07716 0.4942 0.0
H68 H 0.87455 0.01984 0.56509 0.0
H69 H 0.79133 0.04958 0.4913 0.0
H70 H 0.18163 0.02049 0.55884 0.0
H71 H 0.07275 0.17815 0.59731 0.0
H72 H 0.26701 0.99484 0.62936 0.0
H73 H 0.78151 0.14315 0.42566 0.0
H74 H 0.82053 0.23481 0.39576 0.0
H75 H 0.98602 0.85428 0.5488 0.0
H76 H 0.98866 0.31017 0.46058 0.0
H77 H 0.06967 0.27319 0.53681 0.0
H78 H 0.24585 0.80991 0.73366 0.0
H79 H 0.8957 0.2955 0.40851 0.0
H80 H 0.07844 0.72738 0.6838 0.0
H81 H 0.99391 0.76036 0.61291 0.0
N82 N 0.06452 0.87446 0.58478 0.0
C83 C 0.11176 0.85702 0.62219 0.0
C84 C 0.02267 0.8405 0.58058 0.0
C85 C 0.07511 0.76868 0.65598 0.0
C86 C 0.02724 0.78718 0.61625 0.0
C87 C 0.11813 0.80364 0.65935 0.0
H88 H 0.17232 0.74622 0.72835 0.0
N89 N 0.14534 0.94494 0.5908 0.0
C90 C 0.15331 0.8932 0.62529 0.0
C91 C 0.24309 0.91381 0.66764 0.0
C92 C 0.20219 0.87649 0.66543 0.0
C93 C 0.18604 0.98078 0.59023 0.0
C94 C 0.23513 0.96602 0.62934 0.0
O95 O 0.99232 0.08753 0.49211 0.0
O96 O 0.98628 1.00591 0.46828 0.0
O97 O 0.11233 0.97531 0.44941 0.0
O98 O 0.05337 0.91274 0.45866 0.0
O99 O 0.96552 0.98497 0.62729 0.0
O100 O 0.97352 0.95203 0.53573 0.0
O101 O 0.06341 0.94757 0.63961 0.0
O102 O 0.0721 0.0298 0.66094 0.0
O103 O 0.94473 0.05458 0.68203 0.0
O104 O 1.00221 0.11855 0.67621 0.0
O105 O 0.09008 0.04974 0.50085 0.0
O106 O 0.08353 0.08166 0.59338 0.0
C107 C 0.97657 0.05709 0.45184 0.0
C108 C 0.95105 0.95198 0.58923 0.0
C109 C 0.07578 0.9525 0.35073 0.0
C110 C 0.09721 0.95123 0.24055 0.0
C111 C 0.0216 1.00217 0.25027 0.0
C112 C 0.03272 0.98619 0.32008 0.0
C113 C 0.05373 0.98501 0.21059 0.0
C114 C 0.10774 0.93475 0.31093 0.0
C115 C 0.08954 0.93802 0.42393 0.0
C116 C 0.20865 0.82333 0.70236 0.0
C117 C 0.16677 0.78703 0.6993 0.0
H118 H 0.28116 0.90257 0.69798 0.0
C119 C 0.08118 0.97854 0.67863 0.0
C120 C 0.10281 0.08442 0.53694 0.0
C121 C 0.97928 0.07541 0.78264 0.0
C122 C 0.95868 0.07831 0.89243 0.0
C123 C 0.03021 0.02206 0.88326 0.0
C124 C 1.01988 0.0387 0.8134 0.0
C125 C 0.99968 0.04153 0.92272 0.0
C126 C 0.94901 0.09539 0.82213 0.0
C127 C 0.96623 0.09134 0.70953 0.0
H128 H 0.98826 0.02819 0.22688 0.0
H129 H 1.00816 1.00046 0.35017 0.0
H130 H 0.04441 0.99787 0.15647 0.0
H131 H 0.14154 0.90934 0.33469 0.0
H132 H 0.06168 0.99376 0.90685 0.0
H133 H 0.04302 0.02262 0.7834 0.0
H134 H 1.00832 0.02815 0.97687 0.0
H135 H 0.91708 0.12317 0.79812 0.0
C136 C 0.67341 0.62453 0.07203 0.0
C137 C 0.64303 0.71564 0.04225 0.0
C138 C 0.63346 0.66083 0.06658 0.0
C139 C 0.69239 0.73297 0.02104 0.0
C140 C 0.7237 0.64181 0.05321 0.0
C141 C 0.73266 0.69615 0.02664 0.0
N142 N 0.66336 0.5722 0.09689 0.0
C143 C 0.70239 0.53519 0.10785 0.0
C144 C 0.76359 0.60393 0.0623 0.0
C145 C 0.753 0.55042 0.09031 0.0
Gd146 Gd 0.47718 0.48873 0.99521 0.0
Gd147 Gd 0.57821 0.54973 0.12572 0.0
N148 N 0.58643 0.64282 0.08854 0.0
C149 C 0.60338 0.75153 0.04207 0.0
C150 C 0.54953 0.67801 0.09346 0.0
C151 C 0.55682 0.73264 0.06887 0.0
H152 H 0.51495 0.66458 0.1179 0.0
H153 H 0.52692 0.76019 0.07179 0.0
H154 H 0.51458 0.36177 0.03722 0.0
H155 H 0.6944 0.49389 0.12995 0.0
H156 H 0.48093 0.27435 0.09644 0.0
H157 H 0.60918 0.79393 0.02381 0.0
H158 H 0.70025 0.77488 0.00175 0.0
H159 H 0.36952 0.56977 0.95281 0.0
H160 H 0.80278 0.61561 0.04859 0.0
H161 H 0.78376 0.52094 0.0984 0.0
H162 H 0.31196 0.31426 0.1515 0.0
H163 H 0.77087 0.71017 0.01128 0.0
H164 H 0.24668 0.49199 0.06369 0.0
H165 H 0.28075 0.57161 0.98746 0.0
N166 N 0.38921 0.49358 0.0174 0.0
C167 C 0.36931 0.44771 0.05387 0.0
C168 C 0.35673 0.53637 0.98987 0.0
C169 C 0.28652 0.49177 0.05058 0.0
C170 C 0.30568 0.53686 0.0078 0.0
C171 C 0.31768 0.44582 0.0723 0.0
H172 H 0.25867 0.39576 0.12457 0.0
N173 N 0.4484 0.40422 0.04933 0.0
C174 C 0.39916 0.40149 0.06883 0.0
C175 C 0.40873 0.30663 0.11375 0.0
C176 C 0.37845 0.35266 0.10287 0.0
C177 C 0.47685 0.35925 0.05633 0.0
C178 C 0.4578 0.30986 0.08953 0.0
O179 O 0.6007 0.55323 0.02283 0.0
O180 O 0.52 0.56584 0.95627 0.0
O181 O 0.50114 0.46929 0.90732 0.0
O182 O 0.41813 0.47306 0.91725 0.0
O183 O 0.49287 0.57917 0.10089 0.0
O184 O 0.46311 0.57521 0.992 0.0
O185 O 0.49381 0.44771 0.10633 0.0
O186 O 0.49793 0.51871 0.15053 0.0
O187 O 0.60028 0.58417 0.21064 0.0
O188 O 0.60882 0.49966 0.2233 0.0
O189 O 0.56075 0.45634 0.01621 0.0
O190 O 0.59675 0.46568 0.12225 0.0
C191 C 0.57212 0.57079 0.96383 0.0
C192 C 0.4621 0.59625 0.04317 0.0
C193 C 0.43959 0.49699 0.80852 0.0
C194 C 0.40865 0.4949 0.6925 0.0
C195 C 0.41041 0.57813 0.72635 0.0
C196 C 0.43021 0.55174 0.79196 0.0
C197 C 0.3989 0.55 0.67721 0.0
C198 C 0.43001 0.46904 0.75874 0.0
C199 C 0.45235 0.46744 0.8788 0.0
C200 C 0.32822 0.35127 0.12436 0.0
C201 C 0.29797 0.39776 0.10925 0.0
H202 H 0.39419 0.26834 0.1397 0.0
C203 C 0.48301 0.4699 0.15261 0.0
C204 C 0.59451 0.44262 0.07204 0.0
C205 C 0.66406 0.53939 0.29971 0.0
C206 C 0.70564 0.56072 0.40296 0.0
C207 C 0.75431 0.51065 0.34658 0.0
C208 C 0.71065 0.51317 0.29682 0.0
C209 C 0.75175 0.53382 0.39972 0.0
C210 C 0.66207 0.56371 0.35238 0.0
C211 C 0.61568 0.53906 0.25162 0.0
H212 H 0.40243 0.62029 0.71394 0.0
H213 H 0.43652 0.57361 0.83024 0.0
H214 H 0.38114 0.57155 0.62778 0.0
H215 H 0.43837 0.4269 0.77255 0.0
H216 H 0.79007 0.49018 0.34434 0.0
H217 H 0.71305 0.49399 0.2569 0.0
H218 H 0.78591 0.53116 0.43799 0.0
H219 H 0.62597 0.58357 0.35514 0.0
C220 C 0.196 0.20299 0.52776 0.0
C221 C 0.19855 0.2201 0.45849 0.0
H222 H 0.16455 0.14591 0.60735 0.0
C223 C 0.1724 0.19032 0.41602 0.0
H224 H 0.21623 0.22516 0.56149 0.0
C225 C 0.14256 0.14541 0.44197 0.0
C226 C 0.13821 0.12935 0.51096 0.0
H227 H 0.174 0.20249 0.36247 0.0
H228 H 0.12158 0.12421 0.40757 0.0
C229 C 0.16627 0.1579 0.55381 0.0
C230 C 0.35185 0.69845 0.9766 0.0
C231 C 0.33234 0.70007 0.03607 0.0
H232 H 0.40875 0.66455 0.93205 0.0
C233 C 0.35811 0.67046 0.09775 0.0
H234 H 0.33302 0.7217 0.92853 0.0
C235 C 0.40106 0.63786 0.09982 0.0
C236 C 0.41936 0.63436 0.04024 0.0
H237 H 0.34428 0.6717 0.14431 0.0
H238 H 0.41905 0.61436 0.14818 0.0
C239 C 0.39503 0.66586 0.97865 0.0
C240 C 0.83583 0.85578 0.57538 0.0
C241 C 0.81638 0.84981 0.63692 0.0
H242 H 0.89313 0.89319 0.51148 0.0
C243 C 0.84315 0.87521 0.68397 0.0
H244 H 0.81616 0.83604 0.53862 0.0
C245 C 0.8873 0.90767 0.66878 0.0
C246 C 0.90601 0.91504 0.60638 0.0
H247 H 0.82935 0.87062 0.73214 0.0
H248 H 0.90649 0.92732 0.70589 0.0
C249 C 0.88002 0.88828 0.56008 0.0
C250 C 0.66101 0.32895 0.03189 0.0
C251 C 0.68731 0.30269 0.09493 0.0
H252 H 0.61132 0.39369 0.97516 0.0
C253 C 0.68671 0.32498 0.1496 0.0
H254 H 0.66172 0.31299 0.98878 0.0
C255 C 0.6579 0.37143 0.14204 0.0
C256 C 0.62934 0.39643 0.07954 0.0
H257 H 0.70749 0.3057 0.19849 0.0
H258 H 0.65689 0.38686 0.18551 0.0
C259 C 0.63219 0.37519 0.02429 0.0
C260 C 0.17772 0.95478 0.09968 0.0
C261 C 0.18803 0.90062 0.10815 0.0
H262 H 0.1409 1.01304 0.1348 0.0
C263 C 0.17268 0.86358 0.16456 0.0
H264 H 0.19 0.98445 0.05751 0.0
C265 C 0.14484 0.88017 0.20928 0.0
C266 C 0.1316 0.93395 0.198 0.0
H267 H 0.17968 0.82157 0.17221 0.0
H268 H 0.13147 0.85066 0.2508 0.0
C269 C 0.14954 0.9712 0.1438 0.0
C270 C 0.59794 0.63412 0.78413 0.0
C271 C 0.65376 0.63814 0.7919 0.0
H272 H 0.52821 0.61112 0.83237 0.0
C273 C 0.68235 0.61977 0.85609 0.0
H274 H 0.57498 0.648 0.73504 0.0
C275 C 0.65579 0.59733 0.9113 0.0
C276 C 0.59986 0.59422 0.90432 0.0
H277 H 0.72544 0.6217 0.86333 0.0
H278 H 0.67937 0.58185 0.95932 0.0
C279 C 0.57122 0.61294 0.83988 0.0
C280 C 0.91569 0.1606 0.29967 0.0
C281 C 0.88479 0.12915 0.26333 0.0
H282 H 0.97089 0.16202 0.38655 0.0
C283 C 0.88278 0.07395 0.29004 0.0
H284 H 0.91839 0.20315 0.27943 0.0
C285 C 0.91205 0.05038 0.35186 0.0
C286 C 0.94449 0.0816 0.38727 0.0
H287 H 0.85919 0.04902 0.26248 0.0
H288 H 0.90979 1.00774 0.37144 0.0
C289 C 0.94578 0.13696 0.36078 0.0
C290 C 0.38353 0.46175 0.52283 0.0
C291 C 0.37114 0.40717 0.54026 0.0
H292 H 0.40809 0.53079 0.55575 0.0
C293 C 0.36996 0.38193 0.60848 0.0
H294 H 0.38323 0.4836 0.47097 0.0
C295 C 0.38115 0.41033 0.65754 0.0
C296 C 0.39545 0.46451 0.64016 0.0
H297 H 0.36103 0.34001 0.62448 0.0
H298 H 0.37817 0.38948 0.70906 0.0
C299 C 0.3966 0.48957 0.57191 0.0
C300 C 0.68954 0.66245 0.5005 0.0
C301 C 0.70103 0.63219 0.56719 0.0
H302 H 0.6812 0.66314 0.39612 0.0
C303 C 0.71243 0.57794 0.57959 0.0
H304 H 0.6807 0.70438 0.48975 0.0
C305 C 0.71386 0.5547 0.52619 0.0
C306 C 0.70279 0.58504 0.45949 0.0
H307 H 0.72187 0.55393 0.63057 0.0
H308 H 0.72365 0.51299 0.53696 0.0
C309 C 0.68978 0.63893 0.44712 0.0
C310 C 0.88904 0.17189 0.96574 0.0
C311 C 0.87125 0.13645 0.02169 0.0
H312 H 0.93132 0.18113 0.88103 0.0
C313 C 0.87806 0.0816 0.03087 0.0
H314 H 0.88478 0.21435 0.9577 0.0
C315 C 0.90536 0.06276 0.98792 0.0
C316 C 0.9258 0.09829 0.93424 0.0
H317 H 0.8639 0.05325 0.07287 0.0
H318 H 0.91131 0.02039 0.99736 0.0
C319 C 0.91599 0.15292 0.92221 0.0
C320 C 0.39061 0.44707 0.28395 0.0
C321 C 0.39505 0.3921 0.3123 0.0
H322 H 0.41479 0.5144 0.21117 0.0
C323 C 0.42521 0.36171 0.28389 0.0
H324 H 0.36704 0.47129 0.3044 0.0
C325 C 0.45304 0.38664 0.23046 0.0
C326 C 0.45056 0.44205 0.20461 0.0
H327 H 0.42934 0.3193 0.30506 0.0
H328 H 0.47798 0.36296 0.21104 0.0
C329 C 0.41815 0.47177 0.23088 0.0
C330 C 0.14715 0.878 0.83101 0.0
C331 C 0.17761 0.91092 0.86566 0.0
H332 H 0.09059 0.87392 0.74619 0.0
C333 C 0.17753 0.96599 0.83782 0.0
H334 H 0.14593 0.83549 0.85234 0.0
C335 C 0.1469 0.98796 0.77639 0.0
C336 C 0.11499 0.95526 0.74251 0.0
H337 H 0.20051 0.99204 0.86425 0.0
H338 H 0.14754 0.0306 0.75606 0.0
C339 C 0.11552 0.90006 0.77038 0.0
loop_
_geom_bond_atom_site_label_1
_geom_bond_atom_site_label_2
_geom_bond_distance
_geom_bond_site_symmetry_2
_ccdc_geom_bond_type
H0 C7 0.929 . S
H1 C10 0.930 . S
H2 C12 0.929 . S
H3 C4 0.969 . S
C4 H3 0.969 . S
C4 O5 1.550 . S
C4 H6 0.973 . S
O5 C4 1.550 . S
O5 C11 1.412 . S
H6 C4 0.973 . S
C7 H0 0.929 . S
C7 C8 1.400 1_554 S
C7 C9 1.364 . S
C8 C7 1.400 1_556 S
C8 C12 1.377 . S
C9 C7 1.364 . S
C9 C10 1.374 . S
C10 H1 0.930 . S
C10 C9 1.374 . S
C10 C11 1.383 . S
C11 O5 1.412 . S
C11 C10 1.383 . S
C11 C12 1.394 1_554 S
C12 H2 0.929 . S
C12 C8 1.377 . S
C12 C11 1.394 1_556 S
H13 C20 0.929 . S
H14 C23 0.930 . S
H15 C25 0.929 . S
H16 C17 0.969 . S
C17 H16 0.969 . S
C17 O18 1.550 . S
C17 H19 0.973 . S
O18 C17 1.550 . S
O18 C24 1.412 . S
H19 C17 0.973 . S
C20 H13 0.929 . S
C20 C21 1.400 . S
C20 C22 1.364 . S
C21 C20 1.400 . S
C21 C25 1.377 . S
C22 C20 1.364 . S
C22 C23 1.374 . S
C23 H14 0.930 . S
C23 C22 1.374 . S
C23 C24 1.383 . S
C24 O18 1.412 . S
C24 C23 1.383 . S
C24 C25 1.394 . S
C25 H15 0.929 . S
C25 C21 1.377 . S
C25 C24 1.394 . S
H26 C33 0.929 . S
H27 C36 0.930 . S
H28 C38 0.929 . S
H29 C30 0.969 . S
C30 H29 0.969 . S
C30 O31 1.550 . S
C30 H32 0.973 . S
O31 C30 1.550 . S
O31 C37 1.412 . S
H32 C30 0.973 . S
C33 H26 0.929 . S
C33 C34 1.400 . S
C33 C35 1.364 . S
C34 C33 1.400 . S
C34 C38 1.377 . S
C35 C33 1.364 . S
C35 C36 1.374 . S
C36 H27 0.930 . S
C36 C35 1.374 . S
C36 C37 1.383 . S
C37 O31 1.412 . S
C37 C36 1.383 . S
C37 C38 1.394 . S
C38 H28 0.929 . S
C38 C34 1.377 . S
C38 C37 1.394 . S
H39 C46 0.929 . S
H40 C49 0.930 . S
H41 C51 0.929 . S
H42 C43 0.969 . S
C43 H42 0.969 . S
C43 O44 1.550 . S
C43 H45 0.973 . S
O44 C43 1.550 . S
O44 C50 1.412 . S
H45 C43 0.973 . S
C46 H39 0.929 . S
C46 C47 1.400 . S
C46 C48 1.364 . S
C47 C46 1.400 . S
C47 C51 1.377 . S
C48 C46 1.364 . S
C48 C49 1.374 . S
C49 H40 0.930 . S
C49 C48 1.374 . S
C49 C50 1.383 . S
C50 O44 1.412 . S
C50 C49 1.383 . S
C50 C51 1.394 . S
C51 H41 0.929 . S
C51 C47 1.377 . S
C51 C50 1.394 . S
C52 C54 1.422 . S
C52 C56 1.415 . S
C52 N58 1.369 . S
C53 C54 1.421 . S
C53 C55 1.417 . S
C53 C65 1.422 . S
C54 C52 1.422 . S
C54 C53 1.421 . S
C54 N64 1.359 . S
C55 C53 1.417 . S
C55 C57 1.329 . S
C55 H74 0.930 . S
C56 C52 1.415 . S
C56 C57 1.437 . S
C56 C60 1.413 . S
C57 C55 1.329 . S
C57 C56 1.437 . S
C57 H79 0.929 . S
N58 C52 1.369 . S
N58 C59 1.338 1_655 S
N58 Gd63 2.622 . S
C59 N58 1.338 1_455 S
C59 C61 1.378 . S
C59 H71 0.929 . S
C60 C56 1.413 . S
C60 C61 1.348 1_655 S
C60 H76 0.931 . S
C61 C59 1.378 . S
C61 C60 1.348 1_455 S
C61 H77 0.930 . S
Gd62 N82 2.622 . S
Gd62 N89 2.570 . S
Gd62 O96 2.353 1_465 S
Gd62 O97 2.468 . S
Gd62 O98 2.427 . S
Gd62 O100 2.388 1_455 S
Gd62 O101 2.386 . S
Gd62 O105 2.307 1_565 S
Gd62 C115 2.805 . S
Gd63 N58 2.622 . S
Gd63 N64 2.570 . S
Gd63 O95 2.386 . S
Gd63 O99 2.307 1_545 S
Gd63 O102 2.353 1_655 S
Gd63 O103 2.468 . S
Gd63 O104 2.427 . S
Gd63 O106 2.388 1_655 S
Gd63 C127 2.805 . S
N64 C54 1.359 . S
N64 Gd63 2.570 . S
N64 C66 1.343 . S
C65 C53 1.422 . S
C65 C67 1.321 . S
C65 H73 0.931 . S
C66 N64 1.343 . S
C66 C67 1.390 . S
C66 H68 0.931 . S
C67 C65 1.321 . S
C67 C66 1.390 . S
C67 H69 0.930 . S
H68 C66 0.931 . S
H69 C67 0.930 . S
H70 C93 0.931 . S
H71 C59 0.929 . S
H72 C94 0.930 . S
H73 C65 0.931 . S
H74 C55 0.930 . S
H75 C84 0.929 1_655 S
H76 C60 0.931 . S
H77 C61 0.930 . S
H78 C116 0.930 . S
H79 C57 0.929 . S
H80 C85 0.931 . S
H81 C86 0.930 1_655 S
N82 Gd62 2.622 . S
N82 C83 1.369 . S
N82 C84 1.338 . S
C83 N82 1.369 . S
C83 C87 1.415 . S
C83 C90 1.422 . S
C84 H75 0.929 1_455 S
C84 N82 1.338 . S
C84 C86 1.378 . S
C85 H80 0.931 . S
C85 C86 1.348 . S
C85 C87 1.413 . S
C86 H81 0.930 1_455 S
C86 C84 1.378 . S
C86 C85 1.348 . S
C87 C83 1.415 . S
C87 C85 1.413 . S
C87 C117 1.437 . S
H88 C117 0.929 . S
N89 Gd62 2.570 . S
N89 C90 1.359 . S
N89 C93 1.343 . S
C90 C83 1.422 . S
C90 N89 1.359 . S
C90 C92 1.421 . S
C91 C92 1.422 . S
C91 C94 1.321 . S
C91 H118 0.931 . S
C92 C90 1.421 . S
C92 C91 1.422 . S
C92 C116 1.417 . S
C93 H70 0.931 . S
C93 N89 1.343 . S
C93 C94 1.390 . S
C94 H72 0.930 . S
C94 C91 1.321 . S
C94 C93 1.390 . S
O95 Gd63 2.386 . S
O95 C107 1.265 . S
O96 Gd62 2.353 1_645 S
O96 C107 1.242 . S
O97 Gd62 2.468 . S
O97 C115 1.263 . S
O98 Gd62 2.427 . S
O98 C115 1.252 . S
O99 Gd63 2.307 1_565 S
O99 C108 1.261 . S
O100 Gd62 2.388 1_655 S
O100 C108 1.252 . S
O101 Gd62 2.386 . S
O101 C119 1.265 . S
O102 Gd63 2.353 1_455 S
O102 C119 1.242 1_545 S
O103 Gd63 2.468 . S
O103 C127 1.263 . S
O104 Gd63 2.427 . S
O104 C127 1.252 . S
O105 Gd62 2.307 1_545 S
O105 C120 1.261 . S
O106 Gd63 2.388 1_455 S
O106 C120 1.252 . S
C107 O95 1.265 . S
C107 O96 1.242 . S
C108 O99 1.261 . S
C108 O100 1.252 . S
C109 C112 1.394 . S
C109 C114 1.370 . S
C109 C115 1.500 . S
C110 C113 1.383 . S
C110 C114 1.395 . S
C111 C112 1.396 . S
C111 C113 1.365 . S
C111 H128 0.929 . S
C112 C109 1.394 . S
C112 C111 1.396 . S
C112 H129 0.930 . S
C113 C110 1.383 . S
C113 C111 1.365 . S
C113 H130 0.931 . S
C114 C109 1.370 . S
C114 C110 1.395 . S
C114 H131 0.930 . S
C115 Gd62 2.805 . S
C115 O97 1.263 . S
C115 O98 1.252 . S
C115 C109 1.500 . S
C116 H78 0.930 . S
C116 C92 1.417 . S
C116 C117 1.329 . S
C117 C87 1.437 . S
C117 H88 0.929 . S
C117 C116 1.329 . S
H118 C91 0.931 . S
C119 O101 1.265 . S
C119 O102 1.242 1_565 S
C120 O105 1.261 . S
C120 O106 1.252 . S
C121 C124 1.394 . S
C121 C126 1.370 . S
C121 C127 1.500 . S
C122 C125 1.383 . S
C122 C126 1.395 . S
C123 C124 1.396 . S
C123 C125 1.365 . S
C123 H132 0.929 . S
C124 C121 1.394 . S
C124 C123 1.396 . S
C124 H133 0.930 . S
C125 C122 1.383 . S
C125 C123 1.365 . S
C125 H134 0.931 . S
C126 C121 1.370 . S
C126 C122 1.395 . S
C126 H135 0.930 . S
C127 Gd63 2.805 . S
C127 O103 1.263 . S
C127 O104 1.252 . S
C127 C121 1.500 . S
H128 C111 0.929 . S
H129 C112 0.930 . S
H130 C113 0.931 . S
H131 C114 0.930 . S
H132 C123 0.929 . S
H133 C124 0.930 . S
H134 C125 0.931 . S
H135 C126 0.930 . S
C136 C138 1.422 . S
C136 C140 1.415 . S
C136 N142 1.369 . S
C137 C138 1.421 . S
C137 C139 1.417 . S
C137 C149 1.422 . S
C138 C136 1.422 . S
C138 C137 1.421 . S
C138 N148 1.359 . S
C139 C137 1.417 . S
C139 C141 1.329 . S
C139 H158 0.930 . S
C140 C136 1.415 . S
C140 C141 1.437 . S
C140 C144 1.413 . S
C141 C139 1.329 . S
C141 C140 1.437 . S
C141 H163 0.929 . S
N142 C136 1.369 . S
N142 C143 1.338 . S
N142 Gd147 2.622 . S
C143 N142 1.338 . S
C143 C145 1.378 . S
C143 H155 0.929 . S
C144 C140 1.413 . S
C144 C145 1.348 . S
C144 H160 0.931 . S
C145 C143 1.378 . S
C145 C144 1.348 . S
C145 H161 0.930 . S
Gd146 N166 2.622 . S
Gd146 N173 2.570 1_556 S
Gd146 O180 2.353 . S
Gd146 O181 2.468 . S
Gd146 O182 2.427 . S
Gd146 O184 2.388 1_556 S
Gd146 O185 2.386 1_556 S
Gd146 O189 2.307 1_556 S
Gd146 C199 2.805 . S
Gd147 N142 2.622 . S
Gd147 N148 2.570 . S
Gd147 O179 2.386 . S
Gd147 O183 2.307 . S
Gd147 O186 2.353 . S
Gd147 O187 2.468 . S
Gd147 O188 2.427 . S
Gd147 O190 2.388 . S
Gd147 C211 2.805 . S
N148 C138 1.359 . S
N148 Gd147 2.570 . S
N148 C150 1.343 . S
C149 C137 1.422 . S
C149 C151 1.321 . S
C149 H157 0.931 . S
C150 N148 1.343 . S
C150 C151 1.390 . S
C150 H152 0.931 . S
C151 C149 1.321 . S
C151 C150 1.390 . S
C151 H153 0.930 . S
H152 C150 0.931 . S
H153 C151 0.930 . S
H154 C177 0.931 . S
H155 C143 0.929 . S
H156 C178 0.930 . S
H157 C149 0.931 . S
H158 C139 0.930 . S
H159 C168 0.929 . S
H160 C144 0.931 . S
H161 C145 0.930 . S
H162 C200 0.930 . S
H163 C141 0.929 . S
H164 C169 0.931 . S
H165 C170 0.930 . S
N166 Gd146 2.622 . S
N166 C167 1.369 1_556 S
N166 C168 1.338 . S
C167 N166 1.369 1_554 S
C167 C171 1.415 . S
C167 C174 1.422 . S
C168 H159 0.929 . S
C168 N166 1.338 . S
C168 C170 1.378 . S
C169 H164 0.931 . S
C169 C170 1.348 1_554 S
C169 C171 1.413 . S
C170 H165 0.930 . S
C170 C168 1.378 . S
C170 C169 1.348 1_556 S
C171 C167 1.415 . S
C171 C169 1.413 . S
C171 C201 1.437 . S
H172 C201 0.929 . S
N173 Gd146 2.570 1_554 S
N173 C174 1.359 . S
N173 C177 1.343 . S
C174 C167 1.422 . S
C174 N173 1.359 . S
C174 C176 1.421 . S
C175 C176 1.422 . S
C175 C178 1.321 . S
C175 H202 0.931 . S
C176 C174 1.421 . S
C176 C175 1.422 . S
C176 C200 1.417 . S
C177 H154 0.931 . S
C177 N173 1.343 . S
C177 C178 1.390 . S
C178 H156 0.930 . S
C178 C175 1.321 . S
C178 C177 1.390 . S
O179 Gd147 2.386 . S
O179 C191 1.265 1_554 S
O180 Gd146 2.353 . S
O180 C191 1.242 . S
O181 Gd146 2.468 . S
O181 C199 1.263 . S
O182 Gd146 2.427 . S
O182 C199 1.252 . S
O183 Gd147 2.307 . S
O183 C192 1.261 . S
O184 Gd146 2.388 1_554 S
O184 C192 1.252 . S
O185 Gd146 2.386 1_554 S
O185 C203 1.265 . S
O186 Gd147 2.353 . S
O186 C203 1.242 . S
O187 Gd147 2.468 . S
O187 C211 1.263 . S
O188 Gd147 2.427 . S
O188 C211 1.252 . S
O189 Gd146 2.307 1_554 S
O189 C204 1.261 . S
O190 Gd147 2.388 . S
O190 C204 1.252 . S
C191 O179 1.265 1_556 S
C191 O180 1.242 . S
C192 O183 1.261 . S
C192 O184 1.252 . S
C193 C196 1.394 . S
C193 C198 1.370 . S
C193 C199 1.500 . S
C194 C197 1.383 . S
C194 C198 1.395 . S
C195 C196 1.396 . S
C195 C197 1.365 . S
C195 H212 0.929 . S
C196 C193 1.394 . S
C196 C195 1.396 . S
C196 H213 0.930 . S
C197 C194 1.383 . S
C197 C195 1.365 . S
C197 H214 0.931 . S
C198 C193 1.370 . S
C198 C194 1.395 . S
C198 H215 0.930 . S
C199 Gd146 2.805 . S
C199 O181 1.263 . S
C199 O182 1.252 . S
C199 C193 1.500 . S
C200 H162 0.930 . S
C200 C176 1.417 . S
C200 C201 1.329 . S
C201 C171 1.437 . S
C201 H172 0.929 . S
C201 C200 1.329 . S
H202 C175 0.931 . S
C203 O185 1.265 . S
C203 O186 1.242 . S
C204 O189 1.261 . S
C204 O190 1.252 . S
C205 C208 1.394 . S
C205 C210 1.370 . S
C205 C211 1.500 . S
C206 C209 1.383 . S
C206 C210 1.395 . S
C207 C208 1.396 . S
C207 C209 1.365 . S
C207 H216 0.929 . S
C208 C205 1.394 . S
C208 C207 1.396 . S
C208 H217 0.930 . S
C209 C206 1.383 . S
C209 C207 1.365 . S
C209 H218 0.931 . S
C210 C205 1.370 . S
C210 C206 1.395 . S
C210 H219 0.930 . S
C211 Gd147 2.805 . S
C211 O187 1.263 . S
C211 O188 1.252 . S
C211 C205 1.500 . S
H212 C195 0.929 . S
H213 C196 0.930 . S
H214 C197 0.931 . S
H215 C198 0.930 . S
H216 C207 0.929 . S
H217 C208 0.930 . S
H218 C209 0.931 . S
H219 C210 0.930 . S
C220 C221 1.387 . S
C220 H224 0.950 . S
C220 C229 1.390 . S
C221 C220 1.387 . S
C221 C223 1.387 . S
H222 C229 0.950 . S
C223 C221 1.387 . S
C223 C225 1.390 . S
C223 H227 0.950 . S
H224 C220 0.950 . S
C225 C223 1.390 . S
C225 C226 1.387 . S
C225 H228 0.950 . S
C226 C225 1.387 . S
C226 C229 1.387 . S
H227 C223 0.950 . S
H228 C225 0.950 . S
C229 C220 1.390 . S
C229 H222 0.950 . S
C229 C226 1.387 . S
C230 C231 1.371 1_556 S
C230 H234 0.961 . S
C230 C239 1.396 . S
C231 C230 1.371 1_554 S
C231 C233 1.387 . S
H232 C239 0.950 . S
C233 C231 1.387 . S
C233 C235 1.390 . S
C233 H237 0.950 . S
H234 C230 0.961 . S
C235 C233 1.390 . S
C235 C236 1.387 . S
C235 H238 0.950 . S
C236 C235 1.387 . S
C236 C239 1.387 1_554 S
H237 C233 0.950 . S
H238 C235 0.950 . S
C239 C230 1.396 . S
C239 H232 0.950 . S
C239 C236 1.387 1_556 S
C240 C241 1.387 . S
C240 H244 0.950 . S
C240 C249 1.390 . S
C241 C240 1.387 . S
C241 C243 1.387 . S
H242 C249 0.950 . S
C243 C241 1.387 . S
C243 C245 1.390 . S
C243 H247 0.950 . S
H244 C240 0.950 . S
C245 C243 1.390 . S
C245 C246 1.387 . S
C245 H248 0.950 . S
C246 C245 1.387 . S
C246 C249 1.387 . S
H247 C243 0.950 . S
H248 C245 0.950 . S
C249 C240 1.390 . S
C249 H242 0.950 . S
C249 C246 1.387 . S
C250 C251 1.387 . S
C250 H254 0.950 1_554 S
C250 C259 1.390 . S
C251 C250 1.387 . S
C251 C253 1.387 . S
H252 C259 0.950 1_556 S
C253 C251 1.387 . S
C253 C255 1.390 . S
C253 H257 0.950 . S
H254 C250 0.950 1_556 S
C255 C253 1.390 . S
C255 C256 1.387 . S
C255 H258 0.950 . S
C256 C255 1.387 . S
C256 C259 1.387 . S
H257 C253 0.950 . S
H258 C255 0.950 . S
C259 C250 1.390 . S
C259 H252 0.950 1_554 S
C259 C256 1.387 . S
C260 C261 1.387 . S
C260 H264 0.950 . S
C260 C269 1.390 . S
C261 C260 1.387 . S
C261 C263 1.387 . S
H262 C269 0.950 . S
C263 C261 1.387 . S
C263 C265 1.390 . S
C263 H267 0.950 . S
H264 C260 0.950 . S
C265 C263 1.390 . S
C265 C266 1.387 . S
C265 H268 0.950 . S
C266 C265 1.387 . S
C266 C269 1.387 . S
H267 C263 0.950 . S
H268 C265 0.950 . S
C269 C260 1.390 . S
C269 H262 0.950 . S
C269 C266 1.387 . S
C270 C271 1.387 . S
C270 H274 0.950 . S
C270 C279 1.390 . S
C271 C270 1.387 . S
C271 C273 1.387 . S
H272 C279 0.950 . S
C273 C271 1.387 . S
C273 C275 1.390 . S
C273 H277 0.950 . S
H274 C270 0.950 . S
C275 C273 1.390 . S
C275 C276 1.387 . S
C275 H278 0.950 . S
C276 C275 1.387 . S
C276 C279 1.387 . S
H277 C273 0.950 . S
H278 C275 0.950 . S
C279 C270 1.390 . S
C279 H272 0.950 . S
C279 C276 1.387 . S
C280 C281 1.387 . S
C280 H284 0.950 . S
C280 C289 1.390 . S
C281 C280 1.387 . S
C281 C283 1.387 . S
H282 C289 0.950 . S
C283 C281 1.387 . S
C283 C285 1.390 . S
C283 H287 0.950 . S
H284 C280 0.950 . S
C285 C283 1.390 . S
C285 C286 1.387 . S
C285 H288 0.950 1_545 S
C286 C285 1.387 . S
C286 C289 1.387 . S
H287 C283 0.950 . S
H288 C285 0.950 1_565 S
C289 C280 1.390 . S
C289 H282 0.950 . S
C289 C286 1.387 . S
C290 C291 1.387 . S
C290 H294 0.950 . S
C290 C299 1.390 . S
C291 C290 1.387 . S
C291 C293 1.387 . S
H292 C299 0.950 . S
C293 C291 1.387 . S
C293 C295 1.390 . S
C293 H297 0.950 . S
H294 C290 0.950 . S
C295 C293 1.390 . S
C295 C296 1.387 . S
C295 H298 0.950 . S
C296 C295 1.387 . S
C296 C299 1.387 . S
H297 C293 0.950 . S
H298 C295 0.950 . S
C299 C290 1.390 . S
C299 H292 0.950 . S
C299 C296 1.387 . S
C300 C301 1.387 . S
C300 H304 0.950 . S
C300 C309 1.390 . S
C301 C300 1.387 . S
C301 C303 1.387 . S
H302 C309 0.950 . S
C303 C301 1.387 . S
C303 C305 1.390 . S
C303 H307 0.950 . S
H304 C300 0.950 . S
C305 C303 1.390 . S
C305 C306 1.387 . S
C305 H308 0.950 . S
C306 C305 1.387 . S
C306 C309 1.387 . S
H307 C303 0.950 . S
H308 C305 0.950 . S
C309 C300 1.390 . S
C309 H302 0.950 . S
C309 C306 1.387 . S
C310 C311 1.387 . S
C310 H314 0.950 . S
C310 C319 1.390 . S
C311 C310 1.387 . S
C311 C313 1.387 1_556 S
H312 C319 0.950 . S
C313 C311 1.387 1_554 S
C313 C315 1.390 1_554 S
C313 H317 0.950 . S
H314 C310 0.950 . S
C315 C313 1.390 1_556 S
C315 C316 1.387 . S
C315 H318 0.950 . S
C316 C315 1.387 . S
C316 C319 1.387 . S
H317 C313 0.950 . S
H318 C315 0.950 . S
C319 C310 1.390 . S
C319 H312 0.950 . S
C319 C316 1.387 . S
C320 C321 1.387 . S
C320 H324 0.950 . S
C320 C329 1.390 . S
C321 C320 1.387 . S
C321 C323 1.387 . S
H322 C329 0.950 . S
C323 C321 1.387 . S
C323 C325 1.390 . S
C323 H327 0.950 . S
H324 C320 0.950 . S
C325 C323 1.390 . S
C325 C326 1.387 . S
C325 H328 0.950 . S
C326 C325 1.387 . S
C326 C329 1.387 . S
H327 C323 0.950 . S
H328 C325 0.950 . S
C329 C320 1.390 . S
C329 H322 0.950 . S
C329 C326 1.387 . S
C330 C331 1.387 . S
C330 H334 0.950 . S
C330 C339 1.390 . S
C331 C330 1.387 . S
C331 C333 1.387 . S
H332 C339 0.950 . S
C333 C331 1.387 . S
C333 C335 1.390 . S
C333 H337 0.950 . S
H334 C330 0.950 . S
C335 C333 1.390 . S
C335 C336 1.387 . S
C335 H338 0.950 1_565 S
C336 C335 1.387 . S
C336 C339 1.387 . S
H337 C333 0.950 . S
H338 C335 0.950 1_545 S
C339 C330 1.390 . S
C339 H332 0.950 . S
C339 C336 1.387 . S
C226 C120 1.633 . S
C221 C43 1.539 . S
C231 C4 1.576 . S
C236 C192 1.627 . S
C241 C17 1.575 . S
C246 C108 1.634 . S
C251 C30 1.631 . S
C256 C204 1.627 . S
C266 C110 1.380 . S
C261 C9 1.560 . S
C276 C191 1.653 . S
C271 C21 1.647 . S
C281 C34 1.615 . S
C286 C107 1.629 . S
C291 C48 1.571 . S
C296 C194 1.392 . S
C306 C206 1.392 . S
C301 C22 1.571 . S
C316 C122 1.377 . S
C311 C35 1.560 1_556 S
C326 C203 1.654 . S
C321 C47 1.642 . S
C331 C8 1.609 . S
C336 C119 1.629 . S
