# Generated by pormake.
# Topology rtl, (3,6)-cn, num edge types: 1
# Building blocks:
#     Node 0, Type 0, BuildingBlock: QEWDON_clean_linker_0, # of connection points: 3
#     Node 1, Type 0, BuildingBlock: QEWDON_clean_linker_0, # of connection points: 3
#     Node 2, Type 0, BuildingBlock: QEWDON_clean_linker_0, # of connection points: 3
#     Node 3, Type 0, BuildingBlock: QEWDON_clean_linker_0, # of connection points: 3
#     Node 4, Type 1, BuildingBlock: KUMBUR_clean_sbu_1, # of connection points: 6
#     Node 5, Type 1, BuildingBlock: KUMBUR_clean_sbu_1, # of connection points: 6
#     Edge 6, Type (0, 1), BuildingBlock: XIVTED_clean_linker_0, # of connection points: 2
#     Edge 7, Type (0, 1), BuildingBlock: XIVTED_clean_linker_0, # of connection points: 2
#     Edge 8, Type (0, 1), BuildingBlock: XIVTED_clean_linker_0, # of connection points: 2
#     Edge 9, Type (0, 1), BuildingBlock: XIVTED_clean_linker_0, # of connection points: 2
#     Edge 10, Type (0, 1), BuildingBlock: XIVTED_clean_linker_0, # of connection points: 2
#     Edge 11, Type (0, 1), BuildingBlock: XIVTED_clean_linker_0, # of connection points: 2
#     Edge 12, Type (0, 1), BuildingBlock: XIVTED_clean_linker_0, # of connection points: 2
#     Edge 13, Type (0, 1), BuildingBlock: XIVTED_clean_linker_0, # of connection points: 2
#     Edge 14, Type (0, 1), BuildingBlock: XIVTED_clean_linker_0, # of connection points: 2
#     Edge 15, Type (0, 1), BuildingBlock: XIVTED_clean_linker_0, # of connection points: 2
#     Edge 16, Type (0, 1), BuildingBlock: XIVTED_clean_linker_0, # of connection points: 2
#     Edge 17, Type (0, 1), BuildingBlock: XIVTED_clean_linker_0, # of connection points: 2
# Relax obj value: 0.085
# Max RMSD: 0.274
# Mean RMSD: 0.209
data_MOF--net-rtl--node1-KUMBUR_clean_sbu_1--node2-QEWDON_clean_linker_0--edge1-XIVTED_clean_linker_0
_symmetry_space_group_name_H-M    P1
_symmetry_Int_Tables_number       1
_symmetry_cell_setting            triclinic
loop_
_symmetry_equiv_pos_as_xyz
'x, y, z'
_cell_length_a     37.502533
_cell_length_b     37.457532
_cell_length_c     26.861204
_cell_angle_alpha  79.003368
_cell_angle_beta   100.7598
_cell_angle_gamma 91.717996
loop_
_atom_site_label
_atom_site_type_symbol
_atom_site_fract_x
_atom_site_fract_y
_atom_site_fract_z
_atom_type_partial_charge
H0 H 0.23972 0.85412 0.10728 0.0
C1 C 0.22841 0.86016 0.06638 0.0
C2 C 0.19535 0.8793 0.04929 0.0
C3 C 0.24815 0.85053 0.03092 0.0
H4 H 0.15638 0.90279 0.98206 0.0
C5 C 0.18185 0.88809 0.9961 0.0
C6 C 0.2011 0.87902 0.96026 0.0
C7 C 0.23401 0.85964 0.97767 0.0
C8 C 0.28569 0.83592 0.04988 0.0
H9 H 0.24957 0.85376 0.94996 0.0
C10 C 0.2972 0.8033 0.03827 0.0
C11 C 0.33248 0.78942 0.06018 0.0
C12 C 0.31025 0.85495 0.08149 0.0
H13 H 0.30229 0.88025 0.09038 0.0
C14 C 0.34527 0.84173 0.10194 0.0
H15 H 0.2785 0.78818 0.0143 0.0
C16 C 0.35624 0.80911 0.09175 0.0
H17 H 0.38348 0.79913 0.10868 0.0
H18 H 0.36388 0.85666 0.12624 0.0
H19 H 0.75581 0.70012 0.61186 0.0
C20 C 0.73615 0.69513 0.6372 0.0
C21 C 0.70323 0.67734 0.62201 0.0
C22 C 0.74519 0.70381 0.68675 0.0
H23 H 0.65387 0.6552 0.64637 0.0
C24 C 0.67906 0.66911 0.65708 0.0
C25 C 0.68788 0.67689 0.70703 0.0
C26 C 0.72049 0.69505 0.72084 0.0
C27 C 0.7821 0.71752 0.70609 0.0
H28 H 0.72717 0.70147 0.75917 0.0
C29 C 0.79966 0.74565 0.67639 0.0
C30 C 0.83455 0.75788 0.69689 0.0
C31 C 0.80022 0.70155 0.75576 0.0
H32 H 0.78818 0.67931 0.77905 0.0
C33 C 0.83418 0.71372 0.77618 0.0
H34 H 0.78626 0.7579 0.63785 0.0
C35 C 0.85105 0.74172 0.7474 0.0
H36 H 0.87709 0.75098 0.76526 0.0
H37 H 0.8475 0.70142 0.81471 0.0
H38 H 0.80063 0.19937 0.13355 0.0
C39 C 0.81475 0.19441 0.10378 0.0
C40 C 0.8495 0.1783 0.11763 0.0
C41 C 0.79743 0.20226 0.05172 0.0
H42 H 0.89326 0.15726 0.08972 0.0
C43 C 0.86686 0.17045 0.07894 0.0
C44 C 0.84974 0.17739 0.02689 0.0
C45 C 0.81523 0.19386 0.01349 0.0
C46 C 0.75877 0.21391 0.03766 0.0
H47 H 0.80134 0.19844 0.9736 0.0
C48 C 0.74676 0.24683 0.04769 0.0
C49 C 0.71 0.2576 0.03097 0.0
C50 C 0.73354 0.1915 0.01287 0.0
H51 H 0.74207 0.16598 0.0053 0.0
C52 C 0.69713 0.2016 0.99781 0.0
H53 H 0.76605 0.26453 0.06626 0.0
C54 C 0.68545 0.23445 0.00644 0.0
H55 H 0.65707 0.24194 0.99364 0.0
H56 H 0.67793 0.18406 0.97885 0.0
H57 H 0.34564 0.30634 0.52601 0.0
C58 C 0.34917 0.32059 0.48816 0.0
C59 C 0.36305 0.35619 0.48212 0.0
C60 C 0.34334 0.30203 0.44646 0.0
H61 H 0.37969 0.40104 0.42853 0.0
C62 C 0.36892 0.37367 0.43322 0.0
C63 C 0.36377 0.35556 0.39132 0.0
C64 C 0.35107 0.31956 0.39834 0.0
C65 C 0.33655 0.26232 0.45554 0.0
H66 H 0.34818 0.30473 0.36689 0.0
C67 C 0.30265 0.24733 0.46414 0.0
C68 C 0.29733 0.20925 0.47058 0.0
C69 C 0.36506 0.23908 0.45497 0.0
H70 H 0.39127 0.25005 0.44868 0.0
C71 C 0.36023 0.20159 0.46282 0.0
H72 H 0.2804 0.26517 0.46402 0.0
C73 C 0.32673 0.18677 0.47046 0.0
H74 H 0.32382 0.15747 0.47632 0.0
H75 H 0.3825 0.18391 0.46267 0.0
Tb76 Tb 0.03678 0.9852 0.50009 0.0
C77 C 0.94218 0.11022 0.49535 0.0
N78 N 0.97746 0.10905 0.51905 0.0
C79 C 0.98603 0.16992 0.47555 0.0
C80 C 0.92768 0.14087 0.45885 0.0
C81 C 0.99921 0.13871 0.51121 0.0
C82 C 0.95022 0.17085 0.44876 0.0
C83 C 0.8836 0.08102 0.48558 0.0
C84 C 0.9207 0.08058 0.50831 0.0
C85 C 0.86926 0.11071 0.44729 0.0
C86 C 0.89127 0.14062 0.43398 0.0
Tb87 Tb 0.99723 0.05679 0.57487 0.0
N88 N 0.93564 0.05248 0.54565 0.0
C89 C 0.86174 0.05237 0.50354 0.0
C90 C 0.91335 0.02688 0.56727 0.0
C91 C 0.87651 0.0257 0.54549 0.0
H92 H 0.0269 0.138 0.53184 0.0
H93 H 0.85938 1.0046 0.5618 0.0
H94 H 0.96457 0.9483 0.43931 0.0
H95 H 0.16144 0.91816 0.60648 0.0
H96 H 0.92338 1.00754 0.60198 0.0
H97 H 0.83311 0.05164 0.48715 0.0
H98 H 0.12419 0.96875 0.54935 0.0
H99 H 1.00352 0.19314 0.46862 0.0
H100 H 0.84095 0.11128 0.42887 0.0
H101 H 0.87971 0.16366 0.40518 0.0
H102 H 0.93309 0.88887 0.44916 0.0
H103 H 0.94014 0.19494 0.42092 0.0
H104 H 0.13257 0.85944 0.63544 0.0
N105 N 1.00779 0.9306 0.50192 0.0
C106 C 0.02409 0.9021 0.53666 0.0
C107 C 0.95859 0.89228 0.47428 0.0
C108 C 1.00757 0.86769 0.54338 0.0
C109 C 0.97642 0.9258 0.46877 0.0
C110 C 0.97383 0.8633 0.51261 0.0
N111 N 0.07461 0.93958 0.54935 0.0
C112 C 0.11145 0.94321 0.56228 0.0
C113 C 0.07911 0.87692 0.59291 0.0
C114 C 0.05905 0.90672 0.56125 0.0
C115 C 0.11614 0.88161 0.61092 0.0
C116 C 0.13256 0.91468 0.59452 0.0
H117 H 0.9601 0.83733 0.51666 0.0
H118 H 1.01375 0.81194 0.58491 0.0
H119 H 0.07669 0.81999 0.62816 0.0
O120 O 0.0495 0.01536 0.43115 0.0
O121 O 0.06734 0.99191 0.57584 0.0
O122 O 0.02786 1.00991 0.62413 0.0
O123 O 0.0558 0.95744 0.44891 0.0
O124 O 0.07176 0.03243 0.51226 0.0
O125 O 0.05184 0.0724 0.55976 0.0
O126 O 0.96828 0.07581 0.62499 0.0
O127 O 1.00323 0.06777 0.49315 0.0
O128 O 0.98676 0.01529 0.46453 0.0
O129 O 0.02482 0.08701 0.62855 0.0
O130 O 0.98413 0.99869 0.59561 0.0
O131 O 0.98174 0.984 0.5168 0.0
C132 C 0.0575 0.99356 0.61985 0.0
C133 C 0.04124 0.98422 0.36115 0.0
C134 C 0.04825 0.96934 0.27876 0.0
C135 C 1.01197 0.98003 0.25848 0.0
C136 C 1.00503 0.9944 0.3404 0.0
C137 C 0.99055 0.99234 0.28923 0.0
C138 C 0.06263 0.97146 0.33041 0.0
C139 C 0.07514 0.06192 0.53365 0.0
C140 C 0.05733 0.98664 0.41467 0.0
C141 C 0.02616 0.83851 0.57848 0.0
C142 C 0.06199 0.84311 0.60315 0.0
C143 C 0.98526 0.05077 0.45795 0.0
C144 C 1.00279 0.07802 0.7071 0.0
C145 C 0.98515 0.08139 0.7895 0.0
C146 C 1.01337 0.05675 0.8148 0.0
C147 C 0.03034 0.0531 0.73339 0.0
C148 C 0.98025 0.09215 0.73534 0.0
C149 C 0.03565 0.04274 0.7869 0.0
C150 C 0.97553 0.97572 0.5639 0.0
C151 C 0.99693 0.08887 0.65032 0.0
H152 H 1.00002 0.97846 0.21901 0.0
H153 H 0.98805 1.00399 0.36365 0.0
H154 H 0.96263 1.00031 0.27332 0.0
H155 H 0.09067 0.96379 0.3465 0.0
H156 H 0.01848 0.04844 0.8564 0.0
H157 H 0.0478 0.04163 0.71261 0.0
H158 H 0.95857 0.11089 0.715 0.0
H159 H 0.05715 0.02372 0.80686 0.0
Tb160 Tb 0.4851 0.50371 0.9974 0.0
C161 C 0.6158 0.59587 0.05964 0.0
N162 N 0.61098 0.55993 0.07707 0.0
C163 C 0.67034 0.54682 0.0637 0.0
C164 C 0.64759 0.60865 0.04144 0.0
C165 C 0.63805 0.53542 0.0807 0.0
C166 C 0.67496 0.58354 0.04337 0.0
C167 C 0.59279 0.6574 0.04398 0.0
C168 C 0.5887 0.61972 0.06066 0.0
C169 C 0.62375 0.67032 0.02381 0.0
C170 C 0.65113 0.64597 0.0226 0.0
Tb171 Tb 0.5576 0.54385 0.10435 0.0
N172 N 0.55943 0.60613 0.08102 0.0
C173 C 0.56636 0.68102 0.04991 0.0
C174 C 0.53561 0.6294 0.09148 0.0
C175 C 0.53803 0.66697 0.07475 0.0
H176 H 0.63461 0.50705 0.0964 0.0
H177 H 0.51847 0.6851 0.08203 0.0
H178 H 0.41519 0.56297 0.9674 0.0
H179 H 0.48433 0.35806 0.05618 0.0
H180 H 0.51516 0.61932 0.1139 0.0
H181 H 0.56846 0.71016 0.03761 0.0
H182 H 0.50869 0.4175 0.01937 0.0
H183 H 0.69154 0.52727 0.06606 0.0
H184 H 0.62721 0.69915 0.01033 0.0
H185 H 0.67519 0.65635 0.00792 0.0
H186 H 0.35544 0.56655 0.9915 0.0
H187 H 0.69988 0.59225 0.02989 0.0
H188 H 0.42585 0.35553 0.08697 0.0
N189 N 0.42729 0.5098 0.01194 0.0
C190 C 0.41276 0.47909 0.03599 0.0
C191 C 0.37159 0.54196 0.00528 0.0
C192 C 0.37786 0.47917 0.04841 0.0
C193 C 0.40604 0.54017 0.99292 0.0
C194 C 0.35776 0.51156 0.03425 0.0
N195 N 0.46499 0.44788 0.03099 0.0
C196 C 0.48322 0.41646 0.0329 0.0
C197 C 0.41691 0.41376 0.06586 0.0
C198 C 0.43184 0.44683 0.04457 0.0
C199 C 0.43638 0.38155 0.07078 0.0
C200 C 0.46945 0.38287 0.05354 0.0
H201 H 0.33085 0.51283 0.0431 0.0
H202 H 0.33699 0.44625 0.0828 0.0
H203 H 0.37128 0.3889 0.09816 0.0
O204 O 0.50031 0.48391 0.93606 0.0
O205 O 0.49858 0.47572 0.07856 0.0
O206 O 0.50701 0.5207 0.12589 0.0
O207 O 0.44534 0.49966 0.93219 0.0
O208 O 0.54072 0.48202 0.0129 0.0
O209 O 0.56853 0.48745 0.09679 0.0
O210 O 0.5731 0.56856 0.16916 0.0
O211 O 0.56772 0.54549 0.02573 0.0
O212 O 0.51255 0.55467 0.97115 0.0
O213 O 0.58683 0.5129 0.17311 0.0
O214 O 0.50045 0.5617 0.08894 0.0
O215 O 0.47869 0.5612 1.00273 0.0
C216 C 0.49348 0.48908 0.11831 0.0
C217 C 0.46545 0.50452 0.85351 0.0
C218 C 0.45009 0.49887 0.76294 0.0
C219 C 0.46054 0.53528 0.74888 0.0
C220 C 0.4755 0.54078 0.83883 0.0
C221 C 0.47307 0.55604 0.78664 0.0
C222 C 0.4526 0.48375 0.81561 0.0
C223 C 0.56551 0.47235 0.05525 0.0
C224 C 0.46798 0.48777 0.90804 0.0
C225 C 0.36357 0.44663 0.07235 0.0
C226 C 0.38301 0.41395 0.08091 0.0
C227 C 0.54786 0.55968 0.98097 0.0
C228 C 0.62651 0.54698 0.22694 0.0
C229 C 0.66282 0.57333 0.2967 0.0
C230 C 0.69452 0.56262 0.2825 0.0
C231 C 0.65857 0.53571 0.2145 0.0
C232 C 0.62883 0.56547 0.26847 0.0
C233 C 0.69232 0.5438 0.24187 0.0
C234 C 0.47885 0.57452 0.04481 0.0
C235 C 0.59039 0.54014 0.19734 0.0
H236 H 0.45866 0.54783 0.70866 0.0
H237 H 0.48511 0.55716 0.86766 0.0
H238 H 0.4809 0.58405 0.77542 0.0
H239 H 0.44516 0.45561 0.82726 0.0
H240 H 0.72104 0.56795 0.30369 0.0
H241 H 0.65766 0.5205 0.18399 0.0
H242 H 0.60414 0.57396 0.27854 0.0
H243 H 0.71691 0.53514 0.23185 0.0
H244 H 0.26346 0.15774 0.41985 0.0
H245 H 0.09762 0.12375 0.57326 0.0
H246 H 0.24957 0.22098 0.53331 0.0
H247 H 0.12655 0.05379 0.4763 0.0
H248 H 0.14964 0.16259 0.55616 0.0
H249 H 0.20922 0.12351 0.43536 0.0
C250 C 0.24886 0.16452 0.44803 0.0
C251 C 0.26146 0.19199 0.47582 0.0
C252 C 0.14452 0.13868 0.53879 0.0
C253 C 0.19874 0.15253 0.49403 0.0
C254 C 0.11484 0.1164 0.54858 0.0
C255 C 0.10746 0.08521 0.52633 0.0
C256 C 0.16687 0.12991 0.5062 0.0
C257 C 0.13089 0.07731 0.4946 0.0
C258 C 0.2178 0.14488 0.45694 0.0
C259 C 0.24085 0.20002 0.51104 0.0
N260 N 0.15925 0.09945 0.4855 0.0
N261 N 0.21063 0.18018 0.51948 0.0
H262 H 0.34056 0.76811 0.97021 0.0
H263 H 0.44871 0.58659 0.12482 0.0
H264 H 0.3549 0.73075 0.13463 0.0
H265 H 0.44819 0.62779 0.96346 0.0
H266 H 0.40746 0.63544 0.12562 0.0
H267 H 0.37233 0.71305 0.96322 0.0
C268 C 0.34966 0.7479 0.00458 0.0
C269 C 0.34515 0.75386 0.05306 0.0
C270 C 0.41615 0.63386 0.08986 0.0
C271 C 0.38177 0.69135 0.04563 0.0
C272 C 0.43983 0.60596 0.08944 0.0
C273 C 0.4522 0.60328 0.04412 0.0
C274 C 0.4046 0.65961 0.04462 0.0
C275 C 0.43934 0.62891 0.99926 0.0
C276 C 0.36805 0.7167 1.0007 0.0
C277 C 0.35788 0.72716 0.09655 0.0
N278 N 0.41642 0.65617 1.00068 0.0
N279 N 0.3757 0.69729 0.09184 0.0
H280 H 0.90753 0.76264 0.69553 0.0
H281 H 0.90992 0.95593 0.51314 0.0
H282 H 0.80714 0.82153 0.63121 0.0
H283 H 0.99144 0.92234 0.6489 0.0
H284 H 0.87401 0.90172 0.53974 0.0
H285 H 0.94103 0.81536 0.66063 0.0
C286 C 0.89238 0.78659 0.67398 0.0
C287 C 0.85428 0.78777 0.66769 0.0
C288 C 0.89975 0.9063 0.56358 0.0
C289 C 0.89291 0.84815 0.62625 0.0
C290 C 0.92021 0.93704 0.54846 0.0
C291 C 0.95354 0.94345 0.57909 0.0
C292 C 0.91331 0.88141 0.60883 0.0
C293 C 0.96578 0.91836 0.62448 0.0
C294 C 0.91166 0.81665 0.65398 0.0
C295 C 0.83639 0.81927 0.63737 0.0
N296 N 0.94587 0.88823 0.6377 0.0
N297 N 0.85587 0.84832 0.61796 0.0
H298 H 0.67623 0.30945 0.95364 0.0
H299 H 0.61429 0.433 0.13632 0.0
H300 H 0.7119 0.28681 0.11857 0.0
H301 H 0.57647 0.44532 0.97195 0.0
H302 H 0.65482 0.38351 0.13204 0.0
H303 H 0.64527 0.36396 0.96069 0.0
C304 C 0.67786 0.31632 0.9914 0.0
C305 C 0.69649 0.29353 0.03557 0.0
C306 C 0.6377 0.39725 0.09701 0.0
C307 C 0.66034 0.35592 0.04436 0.0
C308 C 0.61456 0.4255 0.0994 0.0
C309 C 0.59155 0.44326 0.05454 0.0
C310 C 0.63798 0.38694 0.04937 0.0
C311 C 0.59324 0.43237 0.00778 0.0
C312 C 0.66003 0.34741 0.99553 0.0
C313 C 0.6979 0.30379 0.08357 0.0
N314 N 0.61583 0.40506 0.00656 0.0
N315 N 0.67967 0.33408 0.08683 0.0
H316 H 0.18496 0.84381 0.14556 0.0
H317 H 0.05373 0.99883 0.17916 0.0
H318 H 0.16152 0.94506 0.03741 0.0
H319 H 0.09479 0.91061 0.3034 0.0
H320 H 0.09067 0.97712 0.12506 0.0
H321 H 0.1506 0.86581 0.20315 0.0
C322 C 0.1728 0.87068 0.13398 0.0
C323 C 0.1758 0.89234 0.0861 0.0
C324 C 0.09172 0.9625 0.16419 0.0
C325 C 0.13612 0.9175 0.15157 0.0
C326 C 0.07043 0.97478 0.19499 0.0
C327 C 0.07107 0.95647 0.24585 0.0
C328 C 0.1137 0.93142 0.18406 0.0
C329 C 0.09368 0.92571 0.26453 0.0
C330 C 0.15307 0.88316 0.16679 0.0
C331 C 0.15923 0.9269 0.07317 0.0
N332 N 0.11394 0.91403 0.23357 0.0
N333 N 0.14003 0.93824 0.10547 0.0
H334 H 0.61312 0.67783 0.69808 0.0
H335 H 0.61701 0.54717 0.97111 0.0
H336 H 0.71122 0.64171 0.80616 0.0
H337 H 0.52189 0.61067 0.89348 0.0
H338 H 0.65013 0.57765 0.90561 0.0
H339 H 0.57743 0.64997 0.76356 0.0
C340 C 0.62715 0.66422 0.73556 0.0
C341 C 0.6653 0.66235 0.74667 0.0
C342 C 0.62206 0.58514 0.90278 0.0
C343 C 0.62466 0.6301 0.82135 0.0
C344 C 0.60315 0.56789 0.94055 0.0
C345 C 0.56685 0.57695 0.93866 0.0
C346 C 0.60447 0.61133 0.86168 0.0
C347 C 0.5499 0.60289 0.89655 0.0
C348 C 0.60677 0.64845 0.77291 0.0
C349 C 0.68198 0.64439 0.79597 0.0
N350 N 0.56884 0.6192 0.85963 0.0
N351 N 0.66162 0.62884 0.83114 0.0
H352 H 0.82001 0.1346 0.19305 0.0
H353 H 1.00294 0.11634 0.40464 0.0
H354 H 0.91818 0.19152 0.16573 0.0
H355 H 0.92136 0.03287 0.40139 0.0
H356 H 0.96784 0.15155 0.32503 0.0
H357 H 0.8521 0.10522 0.27873 0.0
C358 C 0.84808 0.14152 0.20562 0.0
C359 C 0.86653 0.1655 0.17242 0.0
C360 C 0.95764 0.12553 0.34173 0.0
C361 C 0.90339 0.1318 0.26974 0.0
C362 C 0.97761 0.10549 0.38705 0.0
C363 C 0.96497 0.0717 0.40927 0.0
C364 C 0.92461 0.11183 0.31888 0.0
C365 C 0.9321 0.05872 0.38505 0.0
C366 C 0.86645 0.12447 0.25416 0.0
C367 C 0.90306 0.17311 0.19021 0.0
N368 N 0.9129 0.0789 0.34126 0.0
N369 N 0.92033 0.15626 0.23761 0.0
H370 H 0.32886 0.36045 0.56369 0.0
H371 H 0.47879 0.49531 0.67768 0.0
H372 H 0.42651 0.39225 0.50383 0.0
H373 H 0.39253 0.45148 0.75695 0.0
H374 H 0.45775 0.45897 0.61182 0.0
H375 H 0.35 0.39377 0.63432 0.0
C376 C 0.35473 0.37427 0.5655 0.0
C377 C 0.37557 0.37416 0.52719 0.0
C378 C 0.44337 0.45716 0.64362 0.0
C379 C 0.39977 0.41231 0.60737 0.0
C380 C 0.45527 0.47816 0.68108 0.0
C381 C 0.43734 0.47658 0.72282 0.0
C382 C 0.4131 0.43443 0.64748 0.0
C383 C 0.40732 0.45333 0.7256 0.0
C384 C 0.36672 0.39335 0.60565 0.0
C385 C 0.40898 0.39241 0.53156 0.0
N386 N 0.39602 0.43327 0.68832 0.0
N387 N 0.41984 0.41083 0.57053 0.0
H388 H 0.71992 0.71037 0.52787 0.0
H389 H 0.62486 0.55807 0.37593 0.0
H390 H 0.6692 0.61431 0.60054 0.0
H391 H 0.70717 0.62965 0.32089 0.0
H392 H 0.63273 0.58526 0.45328 0.0
H393 H 0.70849 0.68714 0.44702 0.0
C394 C 0.70639 0.68449 0.52706 0.0
C395 C 0.6954 0.66452 0.57153 0.0
C396 C 0.64896 0.59513 0.42416 0.0
C397 C 0.68161 0.63817 0.4785 0.0
C398 C 0.64428 0.57981 0.37984 0.0
C399 C 0.66548 0.5915 0.34198 0.0
C400 C 0.67473 0.62271 0.43052 0.0
C401 C 0.69054 0.61955 0.34939 0.0
C402 C 0.69974 0.67135 0.48073 0.0
C403 C 0.67748 0.63133 0.5674 0.0
N404 N 0.69445 0.63423 0.39273 0.0
N405 N 0.67111 0.61934 0.52189 0.0
H406 H 0.85768 0.21322 0.92973 0.0
H407 H 0.95741 0.0434 0.87117 0.0
H408 H 0.87985 0.11072 0.03499 0.0
H409 H 0.95752 0.15079 0.77778 0.0
H410 H 0.9223 0.06675 0.92567 0.0
H411 H 0.88762 0.19004 0.86798 0.0
C412 C 0.8687 0.18585 0.93973 0.0
C413 C 0.86668 0.16404 0.98786 0.0
C414 C 0.9299 0.0853 0.89326 0.0
C415 C 0.90062 0.13732 0.91752 0.0
C416 C 0.95015 0.07198 0.86213 0.0
C417 C 0.96106 0.09523 0.82016 0.0
C418 C 0.92013 0.12225 0.88255 0.0
C419 C 0.94975 0.13182 0.80965 0.0
C420 C 0.88587 0.1727 0.90462 0.0
C421 C 0.88139 0.12876 0.99882 0.0
N422 N 0.93009 0.14427 0.84082 0.0
N423 N 0.89765 0.11659 0.96406 0.0
H424 H 0.35148 0.42577 0.33917 0.0
H425 H 0.49199 0.4154 0.15083 0.0
H426 H 0.40493 0.32655 0.33393 0.0
H427 H 0.44722 0.51541 0.17008 0.0
H428 H 0.45561 0.3813 0.21079 0.0
H429 H 0.38063 0.45767 0.26936 0.0
C430 C 0.36904 0.41058 0.32289 0.0
C431 C 0.37597 0.37345 0.34283 0.0
C432 C 0.45367 0.41069 0.20189 0.0
C433 C 0.40977 0.40997 0.26286 0.0
C434 C 0.47437 0.43012 0.16763 0.0
C435 C 0.47246 0.4682 0.15546 0.0
C436 C 0.43095 0.42952 0.22431 0.0
C437 C 0.44961 0.48604 0.17873 0.0
C438 C 0.38576 0.42884 0.28307 0.0
C439 C 0.39861 0.3551 0.31967 0.0
N440 N 0.42972 0.46657 0.21194 0.0
N441 N 0.41497 0.37361 0.2813 0.0
H442 H 0.17036 0.84227 0.88397 0.0
H443 H 0.10718 0.02686 0.68258 0.0
H444 H 0.19967 0.94951 0.91276 0.0
H445 H 0.06243 0.92196 0.66448 0.0
H446 H 0.14751 0.99805 0.7621 0.0
H447 H 0.13791 0.86971 0.79722 0.0
C448 C 0.17065 0.87151 0.87139 0.0
C449 C 0.18775 0.89377 0.90502 0.0
C450 C 0.12904 0.98122 0.74067 0.0
C451 C 0.15036 0.92532 0.80702 0.0
C452 C 0.10602 0.9977 0.69554 0.0
C453 C 0.08168 0.97659 0.66748 0.0
C454 C 0.12772 0.94332 0.75757 0.0
C455 C 0.08114 0.93895 0.6852 0.0
C456 C 0.15189 0.8872 0.82226 0.0
C457 C 0.18691 0.93153 0.88759 0.0
N458 N 0.10382 0.92343 0.72923 0.0
N459 N 0.16837 0.94613 0.83995 0.0
loop_
_geom_bond_atom_site_label_1
_geom_bond_atom_site_label_2
_geom_bond_distance
_geom_bond_site_symmetry_2
_ccdc_geom_bond_type
H0 C1 0.949 . S
C1 H0 0.949 . S
C1 C2 1.395 . S
C1 C3 1.391 . S
C2 C1 1.395 . S
C2 C5 1.390 . S
C3 C1 1.391 . S
C3 C7 1.387 1_554 S
C3 C8 1.491 . S
H4 C5 0.950 . S
C5 C2 1.390 . S
C5 H4 0.950 . S
C5 C6 1.378 1_554 S
C6 C5 1.378 1_556 S
C6 C7 1.409 . S
C7 C3 1.387 1_556 S
C7 C6 1.409 . S
C7 H9 0.951 . S
C8 C3 1.491 . S
C8 C10 1.382 . S
C8 C12 1.404 1_554 S
H9 C7 0.951 . S
C10 C8 1.382 . S
C10 C11 1.390 . S
C10 H15 0.949 . S
C11 C10 1.390 . S
C11 C16 1.399 . S
C12 C8 1.404 1_556 S
C12 H13 0.950 . S
C12 C14 1.375 . S
H13 C12 0.950 . S
C14 C12 1.375 . S
C14 C16 1.382 1_556 S
C14 H18 0.950 . S
H15 C10 0.949 . S
C16 C11 1.399 . S
C16 C14 1.382 1_554 S
C16 H17 0.952 . S
H17 C16 0.952 . S
H18 C14 0.950 . S
H19 C20 0.949 . S
C20 H19 0.949 . S
C20 C21 1.395 . S
C20 C22 1.391 . S
C21 C20 1.395 . S
C21 C24 1.390 . S
C22 C20 1.391 . S
C22 C26 1.387 . S
C22 C27 1.491 . S
H23 C24 0.950 . S
C24 C21 1.390 . S
C24 H23 0.950 . S
C24 C25 1.378 . S
C25 C24 1.378 . S
C25 C26 1.409 . S
C26 C22 1.387 . S
C26 C25 1.409 . S
C26 H28 0.951 . S
C27 C22 1.491 . S
C27 C29 1.382 . S
C27 C31 1.404 . S
H28 C26 0.951 . S
C29 C27 1.382 . S
C29 C30 1.390 . S
C29 H34 0.949 . S
C30 C29 1.390 . S
C30 C35 1.399 . S
C31 C27 1.404 . S
C31 H32 0.950 . S
C31 C33 1.375 . S
H32 C31 0.950 . S
C33 C31 1.375 . S
C33 C35 1.382 . S
C33 H37 0.950 . S
H34 C29 0.949 . S
C35 C30 1.399 . S
C35 C33 1.382 . S
C35 H36 0.952 . S
H36 C35 0.952 . S
H37 C33 0.950 . S
H38 C39 0.949 . S
C39 H38 0.949 . S
C39 C40 1.395 . S
C39 C41 1.391 . S
C40 C39 1.395 . S
C40 C43 1.390 . S
C41 C39 1.391 . S
C41 C45 1.387 1_554 S
C41 C46 1.491 . S
H42 C43 0.950 . S
C43 C40 1.390 . S
C43 H42 0.950 . S
C43 C44 1.378 . S
C44 C43 1.378 . S
C44 C45 1.409 1_554 S
C45 C41 1.387 1_556 S
C45 C44 1.409 1_556 S
C45 H47 0.951 . S
C46 C41 1.491 . S
C46 C48 1.382 . S
C46 C50 1.404 1_554 S
H47 C45 0.951 . S
C48 C46 1.382 . S
C48 C49 1.390 . S
C48 H53 0.949 . S
C49 C48 1.390 . S
C49 C54 1.399 1_554 S
C50 C46 1.404 1_556 S
C50 H51 0.950 . S
C50 C52 1.375 . S
H51 C50 0.950 . S
C52 C50 1.375 . S
C52 C54 1.382 . S
C52 H56 0.950 . S
H53 C48 0.949 . S
C54 C49 1.399 1_556 S
C54 C52 1.382 . S
C54 H55 0.952 . S
H55 C54 0.952 . S
H56 C52 0.950 . S
H57 C58 0.949 . S
C58 H57 0.949 . S
C58 C59 1.395 . S
C58 C60 1.391 . S
C59 C58 1.395 . S
C59 C62 1.390 . S
C60 C58 1.391 . S
C60 C64 1.387 . S
C60 C65 1.491 . S
H61 C62 0.950 . S
C62 C59 1.390 . S
C62 H61 0.950 . S
C62 C63 1.378 . S
C63 C62 1.378 . S
C63 C64 1.409 . S
C64 C60 1.387 . S
C64 C63 1.409 . S
C64 H66 0.951 . S
C65 C60 1.491 . S
C65 C67 1.382 . S
C65 C69 1.404 . S
H66 C64 0.951 . S
C67 C65 1.382 . S
C67 C68 1.390 . S
C67 H72 0.949 . S
C68 C67 1.390 . S
C68 C73 1.399 . S
C69 C65 1.404 . S
C69 H70 0.950 . S
C69 C71 1.375 . S
H70 C69 0.950 . S
C71 C69 1.375 . S
C71 C73 1.382 . S
C71 H75 0.950 . S
H72 C67 0.949 . S
C73 C68 1.399 . S
C73 C71 1.382 . S
C73 H74 0.952 . S
H74 C73 0.952 . S
H75 C71 0.950 . S
Tb76 N105 2.617 . S
Tb76 N111 2.572 . S
Tb76 O120 2.465 . S
Tb76 O121 2.387 . S
Tb76 O123 2.428 . S
Tb76 O124 2.308 1_565 S
Tb76 O128 2.349 1_465 S
Tb76 O131 2.393 1_455 S
Tb76 C140 2.802 . S
C77 N78 1.379 . S
C77 C80 1.416 . S
C77 C84 1.424 . S
N78 C77 1.379 . S
N78 C81 1.334 1_655 S
N78 Tb87 2.617 . S
C79 C81 1.390 . S
C79 C82 1.339 1_455 S
C79 H99 0.930 . S
C80 C77 1.416 . S
C80 C82 1.416 . S
C80 C86 1.448 . S
C81 N78 1.334 1_455 S
C81 C79 1.390 . S
C81 H92 0.930 . S
C82 C79 1.339 1_655 S
C82 C80 1.416 . S
C82 H103 0.930 . S
C83 C84 1.413 . S
C83 C85 1.427 . S
C83 C89 1.416 . S
C84 C77 1.424 . S
C84 C83 1.413 . S
C84 N88 1.361 . S
C85 C83 1.427 . S
C85 C86 1.328 . S
C85 H100 0.929 . S
C86 C80 1.448 . S
C86 C85 1.328 . S
C86 H101 0.930 . S
Tb87 N78 2.617 . S
Tb87 N88 2.572 . S
Tb87 O122 2.349 1_655 S
Tb87 O125 2.393 1_655 S
Tb87 O126 2.465 . S
Tb87 O127 2.387 . S
Tb87 O129 2.428 . S
Tb87 O130 2.308 1_545 S
Tb87 C151 2.802 . S
N88 C84 1.361 . S
N88 Tb87 2.572 . S
N88 C90 1.340 . S
C89 C83 1.416 . S
C89 C91 1.332 . S
C89 H97 0.931 . S
C90 N88 1.340 . S
C90 C91 1.407 . S
C90 H96 0.930 . S
C91 C89 1.332 . S
C91 C90 1.407 . S
C91 H93 0.929 . S
H92 C81 0.930 . S
H93 C91 0.929 . S
H94 C109 0.930 1_655 S
H95 C116 0.929 . S
H96 C90 0.930 . S
H97 C89 0.931 . S
H98 C112 0.930 . S
H99 C79 0.930 . S
H100 C85 0.929 . S
H101 C86 0.930 . S
H102 C107 0.930 1_655 S
H103 C82 0.930 . S
H104 C115 0.931 . S
N105 Tb76 2.617 . S
N105 C106 1.379 . S
N105 C109 1.334 . S
C106 N105 1.379 . S
C106 C108 1.416 . S
C106 C114 1.424 . S
C107 H102 0.930 1_455 S
C107 C109 1.390 . S
C107 C110 1.339 . S
C108 C106 1.416 . S
C108 C110 1.416 . S
C108 C141 1.448 . S
C109 H94 0.930 1_455 S
C109 N105 1.334 . S
C109 C107 1.390 . S
C110 C107 1.339 . S
C110 C108 1.416 . S
C110 H117 0.930 . S
N111 Tb76 2.572 . S
N111 C112 1.340 . S
N111 C114 1.361 . S
C112 H98 0.930 . S
C112 N111 1.340 . S
C112 C116 1.407 . S
C113 C114 1.413 . S
C113 C115 1.416 . S
C113 C142 1.427 . S
C114 C106 1.424 . S
C114 N111 1.361 . S
C114 C113 1.413 . S
C115 H104 0.931 . S
C115 C113 1.416 . S
C115 C116 1.332 . S
C116 H95 0.929 . S
C116 C112 1.407 . S
C116 C115 1.332 . S
H117 C110 0.930 . S
H118 C141 0.930 . S
H119 C142 0.929 . S
O120 Tb76 2.465 . S
O120 C140 1.264 . S
O121 Tb76 2.387 . S
O121 C132 1.264 . S
O122 Tb87 2.349 1_455 S
O122 C132 1.243 1_545 S
O123 Tb76 2.428 . S
O123 C140 1.256 . S
O124 Tb76 2.308 1_545 S
O124 C139 1.266 . S
O125 Tb87 2.393 1_455 S
O125 C139 1.248 . S
O126 Tb87 2.465 . S
O126 C151 1.264 . S
O127 Tb87 2.387 . S
O127 C143 1.264 . S
O128 Tb76 2.349 1_645 S
O128 C143 1.243 . S
O129 Tb87 2.428 . S
O129 C151 1.256 . S
O130 Tb87 2.308 1_565 S
O130 C150 1.266 . S
O131 Tb76 2.393 1_655 S
O131 C150 1.248 . S
C132 O121 1.264 . S
C132 O122 1.243 1_565 S
C133 C136 1.399 . S
C133 C138 1.383 . S
C133 C140 1.496 . S
C134 C135 1.399 . S
C134 C138 1.389 . S
C135 C134 1.399 . S
C135 C137 1.380 . S
C135 H152 0.929 . S
C136 C133 1.399 . S
C136 C137 1.392 . S
C136 H153 0.929 . S
C137 C135 1.380 . S
C137 C136 1.392 . S
C137 H154 0.929 . S
C138 C133 1.383 . S
C138 C134 1.389 . S
C138 H155 0.931 . S
C139 O124 1.266 . S
C139 O125 1.248 . S
C140 Tb76 2.802 . S
C140 O120 1.264 . S
C140 O123 1.256 . S
C140 C133 1.496 . S
C141 C108 1.448 . S
C141 H118 0.930 . S
C141 C142 1.328 . S
C142 C113 1.427 . S
C142 H119 0.929 . S
C142 C141 1.328 . S
C143 O127 1.264 . S
C143 O128 1.243 . S
C144 C147 1.399 . S
C144 C148 1.383 . S
C144 C151 1.496 . S
C145 C146 1.399 . S
C145 C148 1.389 . S
C146 C145 1.399 . S
C146 C149 1.380 . S
C146 H156 0.929 . S
C147 C144 1.399 . S
C147 C149 1.392 . S
C147 H157 0.929 . S
C148 C144 1.383 . S
C148 C145 1.389 . S
C148 H158 0.931 . S
C149 C146 1.380 . S
C149 C147 1.392 . S
C149 H159 0.929 . S
C150 O130 1.266 . S
C150 O131 1.248 . S
C151 Tb87 2.802 . S
C151 O126 1.264 . S
C151 O129 1.256 . S
C151 C144 1.496 . S
H152 C135 0.929 . S
H153 C136 0.929 . S
H154 C137 0.929 . S
H155 C138 0.931 . S
H156 C146 0.929 . S
H157 C147 0.929 . S
H158 C148 0.931 . S
H159 C149 0.929 . S
Tb160 N189 2.608 1_556 S
Tb160 N195 2.569 1_556 S
Tb160 O204 2.484 . S
Tb160 O205 2.365 1_556 S
Tb160 O207 2.447 . S
Tb160 O208 2.304 1_556 S
Tb160 O212 2.360 . S
Tb160 O215 2.385 1_556 S
Tb160 C224 2.824 . S
C161 N162 1.379 . S
C161 C164 1.416 . S
C161 C168 1.424 . S
N162 C161 1.379 . S
N162 C165 1.334 . S
N162 Tb171 2.617 . S
C163 C165 1.390 . S
C163 C166 1.339 . S
C163 H183 0.930 . S
C164 C161 1.416 . S
C164 C166 1.416 . S
C164 C170 1.448 . S
C165 N162 1.334 . S
C165 C163 1.390 . S
C165 H176 0.930 . S
C166 C163 1.339 . S
C166 C164 1.416 . S
C166 H187 0.930 . S
C167 C168 1.413 . S
C167 C169 1.427 . S
C167 C173 1.416 . S
C168 C161 1.424 . S
C168 C167 1.413 . S
C168 N172 1.361 . S
C169 C167 1.427 . S
C169 C170 1.328 . S
C169 H184 0.929 . S
C170 C164 1.448 . S
C170 C169 1.328 . S
C170 H185 0.930 . S
Tb171 N162 2.617 . S
Tb171 N172 2.572 . S
Tb171 O206 2.349 . S
Tb171 O209 2.393 . S
Tb171 O210 2.465 . S
Tb171 O211 2.387 . S
Tb171 O213 2.428 . S
Tb171 O214 2.308 . S
Tb171 C235 2.802 . S
N172 C168 1.361 . S
N172 Tb171 2.572 . S
N172 C174 1.340 . S
C173 C167 1.416 . S
C173 C175 1.332 . S
C173 H181 0.931 . S
C174 N172 1.340 . S
C174 C175 1.407 . S
C174 H180 0.930 . S
C175 C173 1.332 . S
C175 C174 1.407 . S
C175 H177 0.929 . S
H176 C165 0.930 . S
H177 C175 0.929 . S
H178 C193 0.930 . S
H179 C200 0.929 . S
H180 C174 0.930 . S
H181 C173 0.931 . S
H182 C196 0.930 . S
H183 C163 0.930 . S
H184 C169 0.929 . S
H185 C170 0.930 . S
H186 C191 0.930 . S
H187 C166 0.930 . S
H188 C199 0.931 . S
N189 Tb160 2.608 1_554 S
N189 C190 1.385 . S
N189 C193 1.336 1_554 S
C190 N189 1.385 . S
C190 C192 1.416 . S
C190 C198 1.424 . S
C191 H186 0.930 . S
C191 C193 1.390 . S
C191 C194 1.339 1_556 S
C192 C190 1.416 . S
C192 C194 1.416 . S
C192 C225 1.448 . S
C193 H178 0.930 . S
C193 N189 1.336 1_556 S
C193 C191 1.390 . S
C194 C191 1.339 1_554 S
C194 C192 1.416 . S
C194 H201 0.930 . S
N195 Tb160 2.569 1_554 S
N195 C196 1.340 . S
N195 C198 1.361 . S
C196 H182 0.930 . S
C196 N195 1.340 . S
C196 C200 1.407 . S
C197 C198 1.413 . S
C197 C199 1.416 . S
C197 C226 1.427 . S
C198 C190 1.424 . S
C198 N195 1.361 . S
C198 C197 1.413 . S
C199 H188 0.931 . S
C199 C197 1.416 . S
C199 C200 1.332 . S
C200 H179 0.929 . S
C200 C196 1.407 . S
C200 C199 1.332 . S
H201 C194 0.930 . S
H202 C225 0.930 . S
H203 C226 0.929 . S
O204 Tb160 2.484 . S
O204 C224 1.264 . S
O205 Tb160 2.365 1_554 S
O205 C216 1.264 . S
O206 Tb171 2.349 . S
O206 C216 1.243 . S
O207 Tb160 2.447 . S
O207 C224 1.256 . S
O208 Tb160 2.304 1_554 S
O208 C223 1.266 . S
O209 Tb171 2.393 . S
O209 C223 1.248 . S
O210 Tb171 2.465 . S
O210 C235 1.264 . S
O211 Tb171 2.387 . S
O211 C227 1.264 1_554 S
O212 Tb160 2.360 . S
O212 C227 1.243 . S
O213 Tb171 2.428 . S
O213 C235 1.256 . S
O214 Tb171 2.308 . S
O214 C234 1.266 . S
O215 Tb160 2.385 1_554 S
O215 C234 1.248 . S
C216 O205 1.264 . S
C216 O206 1.243 . S
C217 C220 1.399 . S
C217 C222 1.383 . S
C217 C224 1.496 . S
C218 C219 1.399 . S
C218 C222 1.389 . S
C219 C218 1.399 . S
C219 C221 1.380 . S
C219 H236 0.929 . S
C220 C217 1.399 . S
C220 C221 1.392 . S
C220 H237 0.929 . S
C221 C219 1.380 . S
C221 C220 1.392 . S
C221 H238 0.929 . S
C222 C217 1.383 . S
C222 C218 1.389 . S
C222 H239 0.931 . S
C223 O208 1.266 . S
C223 O209 1.248 . S
C224 Tb160 2.824 . S
C224 O204 1.264 . S
C224 O207 1.256 . S
C224 C217 1.496 . S
C225 C192 1.448 . S
C225 H202 0.930 . S
C225 C226 1.328 . S
C226 C197 1.427 . S
C226 H203 0.929 . S
C226 C225 1.328 . S
C227 O211 1.264 1_556 S
C227 O212 1.243 . S
C228 C231 1.399 . S
C228 C232 1.383 . S
C228 C235 1.496 . S
C229 C230 1.399 . S
C229 C232 1.389 . S
C230 C229 1.399 . S
C230 C233 1.380 . S
C230 H240 0.929 . S
C231 C228 1.399 . S
C231 C233 1.392 . S
C231 H241 0.929 . S
C232 C228 1.383 . S
C232 C229 1.389 . S
C232 H242 0.931 . S
C233 C230 1.380 . S
C233 C231 1.392 . S
C233 H243 0.929 . S
C234 O214 1.266 . S
C234 O215 1.248 . S
C235 Tb171 2.802 . S
C235 O210 1.264 . S
C235 O213 1.256 . S
C235 C228 1.496 . S
H236 C219 0.929 . S
H237 C220 0.929 . S
H238 C221 0.929 . S
H239 C222 0.931 . S
H240 C230 0.929 . S
H241 C231 0.929 . S
H242 C232 0.931 . S
H243 C233 0.929 . S
H244 C250 0.930 . S
H245 C254 0.930 . S
H246 C259 0.929 . S
H247 C257 0.929 . S
H248 C252 0.929 . S
H249 C258 0.929 . S
C250 H244 0.930 . S
C250 C251 1.367 . S
C250 C258 1.378 . S
C251 C250 1.367 . S
C251 C259 1.433 . S
C252 H248 0.929 . S
C252 C254 1.378 . S
C252 C256 1.350 . S
C253 C256 1.463 . S
C253 C258 1.350 . S
C253 N261 1.427 . S
C254 H245 0.930 . S
C254 C252 1.378 . S
C254 C255 1.367 . S
C255 C254 1.367 . S
C255 C257 1.433 . S
C256 C252 1.350 . S
C256 C253 1.463 . S
C256 N260 1.427 . S
C257 H247 0.929 . S
C257 C255 1.433 . S
C257 N260 1.384 . S
C258 H249 0.929 . S
C258 C250 1.378 . S
C258 C253 1.350 . S
C259 H246 0.929 . S
C259 C251 1.433 . S
C259 N261 1.384 . S
N260 C256 1.427 . S
N260 C257 1.384 . S
N261 C253 1.427 . S
N261 C259 1.384 . S
H262 C268 0.930 1_556 S
H263 C272 0.930 . S
H264 C277 0.929 . S
H265 C275 0.929 1_556 S
H266 C270 0.929 . S
H267 C276 0.929 1_556 S
C268 H262 0.930 1_554 S
C268 C269 1.367 . S
C268 C276 1.378 . S
C269 C268 1.367 . S
C269 C277 1.433 . S
C270 H266 0.929 . S
C270 C272 1.378 . S
C270 C274 1.350 . S
C271 C274 1.463 . S
C271 C276 1.350 . S
C271 N279 1.427 . S
C272 H263 0.930 . S
C272 C270 1.378 . S
C272 C273 1.367 . S
C273 C272 1.367 . S
C273 C275 1.433 . S
C274 C270 1.350 . S
C274 C271 1.463 . S
C274 N278 1.427 . S
C275 H265 0.929 1_554 S
C275 C273 1.433 . S
C275 N278 1.384 . S
C276 H267 0.929 1_554 S
C276 C268 1.378 . S
C276 C271 1.350 . S
C277 H264 0.929 . S
C277 C269 1.433 . S
C277 N279 1.384 . S
N278 C274 1.427 . S
N278 C275 1.384 . S
N279 C271 1.427 . S
N279 C277 1.384 . S
H280 C286 0.930 . S
H281 C290 0.930 . S
H282 C295 0.929 . S
H283 C293 0.929 . S
H284 C288 0.929 . S
H285 C294 0.929 . S
C286 H280 0.930 . S
C286 C287 1.367 . S
C286 C294 1.378 . S
C287 C286 1.367 . S
C287 C295 1.433 . S
C288 H284 0.929 . S
C288 C290 1.378 . S
C288 C292 1.350 . S
C289 C292 1.463 . S
C289 C294 1.350 . S
C289 N297 1.427 . S
C290 H281 0.930 . S
C290 C288 1.378 . S
C290 C291 1.367 . S
C291 C290 1.367 . S
C291 C293 1.433 . S
C292 C288 1.350 . S
C292 C289 1.463 . S
C292 N296 1.427 . S
C293 H283 0.929 . S
C293 C291 1.433 . S
C293 N296 1.384 . S
C294 H285 0.929 . S
C294 C286 1.378 . S
C294 C289 1.350 . S
C295 H282 0.929 . S
C295 C287 1.433 . S
C295 N297 1.384 . S
N296 C292 1.427 . S
N296 C293 1.384 . S
N297 C289 1.427 . S
N297 C295 1.384 . S
H298 C304 0.948 . S
H299 C308 0.930 . S
H300 C313 0.929 . S
H301 C311 0.929 1_556 S
H302 C306 0.929 . S
H303 C312 0.929 1_556 S
C304 H298 0.948 . S
C304 C305 1.355 1_556 S
C304 C312 1.373 1_556 S
C305 C304 1.355 1_554 S
C305 C313 1.433 . S
C306 H302 0.929 . S
C306 C308 1.378 . S
C306 C310 1.350 . S
C307 C310 1.463 . S
C307 C312 1.350 . S
C307 N315 1.427 . S
C308 H299 0.930 . S
C308 C306 1.378 . S
C308 C309 1.367 . S
C309 C308 1.367 . S
C309 C311 1.433 . S
C310 C306 1.350 . S
C310 C307 1.463 . S
C310 N314 1.427 . S
C311 H301 0.929 1_554 S
C311 C309 1.433 . S
C311 N314 1.384 . S
C312 H303 0.929 1_554 S
C312 C304 1.373 1_554 S
C312 C307 1.350 . S
C313 H300 0.929 . S
C313 C305 1.433 . S
C313 N315 1.384 . S
N314 C310 1.427 . S
N314 C311 1.384 . S
N315 C307 1.427 . S
N315 C313 1.384 . S
H316 C322 0.930 . S
H317 C326 0.930 . S
H318 C331 0.929 . S
H319 C329 0.929 . S
H320 C324 0.929 . S
H321 C330 0.929 . S
C322 H316 0.930 . S
C322 C323 1.367 . S
C322 C330 1.378 . S
C323 C322 1.367 . S
C323 C331 1.433 . S
C324 H320 0.929 . S
C324 C326 1.378 . S
C324 C328 1.350 . S
C325 C328 1.463 . S
C325 C330 1.350 . S
C325 N333 1.427 . S
C326 H317 0.930 . S
C326 C324 1.378 . S
C326 C327 1.367 . S
C327 C326 1.367 . S
C327 C329 1.433 . S
C328 C324 1.350 . S
C328 C325 1.463 . S
C328 N332 1.427 . S
C329 H319 0.929 . S
C329 C327 1.433 . S
C329 N332 1.384 . S
C330 H321 0.929 . S
C330 C322 1.378 . S
C330 C325 1.350 . S
C331 H318 0.929 . S
C331 C323 1.433 . S
C331 N333 1.384 . S
N332 C328 1.427 . S
N332 C329 1.384 . S
N333 C325 1.427 . S
N333 C331 1.384 . S
H334 C340 0.930 . S
H335 C344 0.930 . S
H336 C349 0.929 . S
H337 C347 0.929 . S
H338 C342 0.929 . S
H339 C348 0.929 . S
C340 H334 0.930 . S
C340 C341 1.367 . S
C340 C348 1.378 . S
C341 C340 1.367 . S
C341 C349 1.433 . S
C342 H338 0.929 . S
C342 C344 1.378 . S
C342 C346 1.350 . S
C343 C346 1.463 . S
C343 C348 1.350 . S
C343 N351 1.427 . S
C344 H335 0.930 . S
C344 C342 1.378 . S
C344 C345 1.367 . S
C345 C344 1.367 . S
C345 C347 1.433 . S
C346 C342 1.350 . S
C346 C343 1.463 . S
C346 N350 1.427 . S
C347 H337 0.929 . S
C347 C345 1.433 . S
C347 N350 1.384 . S
C348 H339 0.929 . S
C348 C340 1.378 . S
C348 C343 1.350 . S
C349 H336 0.929 . S
C349 C341 1.433 . S
C349 N351 1.384 . S
N350 C346 1.427 . S
N350 C347 1.384 . S
N351 C343 1.427 . S
N351 C349 1.384 . S
H352 C358 0.930 . S
H353 C362 0.930 . S
H354 C367 0.929 . S
H355 C365 0.929 . S
H356 C360 0.929 . S
H357 C366 0.929 . S
C358 H352 0.930 . S
C358 C359 1.367 . S
C358 C366 1.378 . S
C359 C358 1.367 . S
C359 C367 1.433 . S
C360 H356 0.929 . S
C360 C362 1.378 . S
C360 C364 1.350 . S
C361 C364 1.463 . S
C361 C366 1.350 . S
C361 N369 1.427 . S
C362 H353 0.930 . S
C362 C360 1.378 . S
C362 C363 1.367 . S
C363 C362 1.367 . S
C363 C365 1.433 . S
C364 C360 1.350 . S
C364 C361 1.463 . S
C364 N368 1.427 . S
C365 H355 0.929 . S
C365 C363 1.433 . S
C365 N368 1.384 . S
C366 H357 0.929 . S
C366 C358 1.378 . S
C366 C361 1.350 . S
C367 H354 0.929 . S
C367 C359 1.433 . S
C367 N369 1.384 . S
N368 C364 1.427 . S
N368 C365 1.384 . S
N369 C361 1.427 . S
N369 C367 1.384 . S
H370 C376 0.930 . S
H371 C380 0.930 . S
H372 C385 0.929 . S
H373 C383 0.929 . S
H374 C378 0.929 . S
H375 C384 0.929 . S
C376 H370 0.930 . S
C376 C377 1.367 . S
C376 C384 1.378 . S
C377 C376 1.367 . S
C377 C385 1.433 . S
C378 H374 0.929 . S
C378 C380 1.378 . S
C378 C382 1.350 . S
C379 C382 1.463 . S
C379 C384 1.350 . S
C379 N387 1.427 . S
C380 H371 0.930 . S
C380 C378 1.378 . S
C380 C381 1.367 . S
C381 C380 1.367 . S
C381 C383 1.433 . S
C382 C378 1.350 . S
C382 C379 1.463 . S
C382 N386 1.427 . S
C383 H373 0.929 . S
C383 C381 1.433 . S
C383 N386 1.384 . S
C384 H375 0.929 . S
C384 C376 1.378 . S
C384 C379 1.350 . S
C385 H372 0.929 . S
C385 C377 1.433 . S
C385 N387 1.384 . S
N386 C382 1.427 . S
N386 C383 1.384 . S
N387 C379 1.427 . S
N387 C385 1.384 . S
H388 C394 0.930 . S
H389 C398 0.930 . S
H390 C403 0.929 . S
H391 C401 0.929 . S
H392 C396 0.929 . S
H393 C402 0.929 . S
C394 H388 0.930 . S
C394 C395 1.367 . S
C394 C402 1.378 . S
C395 C394 1.367 . S
C395 C403 1.433 . S
C396 H392 0.929 . S
C396 C398 1.378 . S
C396 C400 1.350 . S
C397 C400 1.463 . S
C397 C402 1.350 . S
C397 N405 1.427 . S
C398 H389 0.930 . S
C398 C396 1.378 . S
C398 C399 1.367 . S
C399 C398 1.367 . S
C399 C401 1.433 . S
C400 C396 1.350 . S
C400 C397 1.463 . S
C400 N404 1.427 . S
C401 H391 0.929 . S
C401 C399 1.433 . S
C401 N404 1.384 . S
C402 H393 0.929 . S
C402 C394 1.378 . S
C402 C397 1.350 . S
C403 H390 0.929 . S
C403 C395 1.433 . S
C403 N405 1.384 . S
N404 C400 1.427 . S
N404 C401 1.384 . S
N405 C397 1.427 . S
N405 C403 1.384 . S
H406 C412 0.930 . S
H407 C416 0.930 . S
H408 C421 0.929 . S
H409 C419 0.929 . S
H410 C414 0.929 . S
H411 C420 0.929 . S
C412 H406 0.930 . S
C412 C413 1.367 . S
C412 C420 1.378 . S
C413 C412 1.367 . S
C413 C421 1.433 . S
C414 H410 0.929 . S
C414 C416 1.378 . S
C414 C418 1.350 . S
C415 C418 1.463 . S
C415 C420 1.350 . S
C415 N423 1.427 . S
C416 H407 0.930 . S
C416 C414 1.378 . S
C416 C417 1.367 . S
C417 C416 1.367 . S
C417 C419 1.433 . S
C418 C414 1.350 . S
C418 C415 1.463 . S
C418 N422 1.427 . S
C419 H409 0.929 . S
C419 C417 1.433 . S
C419 N422 1.384 . S
C420 H411 0.929 . S
C420 C412 1.378 . S
C420 C415 1.350 . S
C421 H408 0.929 . S
C421 C413 1.433 . S
C421 N423 1.384 . S
N422 C418 1.427 . S
N422 C419 1.384 . S
N423 C415 1.427 . S
N423 C421 1.384 . S
H424 C430 0.930 . S
H425 C434 0.930 . S
H426 C439 0.929 . S
H427 C437 0.929 . S
H428 C432 0.929 . S
H429 C438 0.929 . S
C430 H424 0.930 . S
C430 C431 1.367 . S
C430 C438 1.378 . S
C431 C430 1.367 . S
C431 C439 1.433 . S
C432 H428 0.929 . S
C432 C434 1.378 . S
C432 C436 1.350 . S
C433 C436 1.463 . S
C433 C438 1.350 . S
C433 N441 1.427 . S
C434 H425 0.930 . S
C434 C432 1.378 . S
C434 C435 1.367 . S
C435 C434 1.367 . S
C435 C437 1.433 . S
C436 C432 1.350 . S
C436 C433 1.463 . S
C436 N440 1.427 . S
C437 H427 0.929 . S
C437 C435 1.433 . S
C437 N440 1.384 . S
C438 H429 0.929 . S
C438 C430 1.378 . S
C438 C433 1.350 . S
C439 H426 0.929 . S
C439 C431 1.433 . S
C439 N441 1.384 . S
N440 C436 1.427 . S
N440 C437 1.384 . S
N441 C433 1.427 . S
N441 C439 1.384 . S
H442 C448 0.930 . S
H443 C452 0.930 1_545 S
H444 C457 0.929 . S
H445 C455 0.929 . S
H446 C450 0.929 . S
H447 C456 0.929 . S
C448 H442 0.930 . S
C448 C449 1.367 . S
C448 C456 1.378 . S
C449 C448 1.367 . S
C449 C457 1.433 . S
C450 H446 0.929 . S
C450 C452 1.378 . S
C450 C454 1.350 . S
C451 C454 1.463 . S
C451 C456 1.350 . S
C451 N459 1.427 . S
C452 H443 0.930 1_565 S
C452 C450 1.378 . S
C452 C453 1.367 . S
C453 C452 1.367 . S
C453 C455 1.433 . S
C454 C450 1.350 . S
C454 C451 1.463 . S
C454 N458 1.427 . S
C455 H445 0.929 . S
C455 C453 1.433 . S
C455 N458 1.384 . S
C456 H447 0.929 . S
C456 C448 1.378 . S
C456 C451 1.350 . S
C457 H444 0.929 . S
C457 C449 1.433 . S
C457 N459 1.384 . S
N458 C454 1.427 . S
N458 C455 1.384 . S
N459 C451 1.427 . S
N459 C457 1.384 . S
C255 C139 1.691 . S
C251 C68 1.657 . S
C269 C11 1.560 . S
C273 C234 1.714 . S
C287 C30 1.616 . S
C291 C150 1.718 . S
C305 C49 1.610 . S
C309 C223 1.667 . S
C327 C134 1.512 . S
C323 C2 1.677 . S
C345 C227 1.788 . S
C341 C25 1.787 . S
C359 C40 1.692 . S
C363 C143 1.713 . S
C377 C59 1.669 . S
C381 C218 1.513 . S
C399 C229 1.434 . S
C395 C21 1.607 . S
C417 C145 1.434 . S
C413 C44 1.611 1_556 S
C435 C216 1.680 . S
C431 C63 1.678 . S
C449 C6 1.634 . S
C453 C132 1.643 . S
