# Generated by pormake.
# Topology nom, (4,4)-cn, num edge types: 1
# Building blocks:
#     Node 0, Type 0, BuildingBlock: KUFVIS_clean_linker_0, # of connection points: 4
#     Node 1, Type 0, BuildingBlock: KUFVIS_clean_linker_0, # of connection points: 4
#     Node 2, Type 0, BuildingBlock: KUFVIS_clean_linker_0, # of connection points: 4
#     Node 3, Type 0, BuildingBlock: KUFVIS_clean_linker_0, # of connection points: 4
#     Node 4, Type 0, BuildingBlock: KUFVIS_clean_linker_0, # of connection points: 4
#     Node 5, Type 0, BuildingBlock: KUFVIS_clean_linker_0, # of connection points: 4
#     Node 6, Type 1, BuildingBlock: CEKHIL_clean_sbu_0, # of connection points: 4
#     Node 7, Type 1, BuildingBlock: CEKHIL_clean_sbu_0, # of connection points: 4
#     Node 8, Type 1, BuildingBlock: CEKHIL_clean_sbu_0, # of connection points: 4
#     Node 9, Type 1, BuildingBlock: CEKHIL_clean_sbu_0, # of connection points: 4
#     Node 10, Type 1, BuildingBlock: CEKHIL_clean_sbu_0, # of connection points: 4
#     Node 11, Type 1, BuildingBlock: CEKHIL_clean_sbu_0, # of connection points: 4
#     Edge 12, Type (0, 1), BuildingBlock: OJICUG_clean_linker_0, # of connection points: 2
#     Edge 13, Type (0, 1), BuildingBlock: OJICUG_clean_linker_0, # of connection points: 2
#     Edge 14, Type (0, 1), BuildingBlock: OJICUG_clean_linker_0, # of connection points: 2
#     Edge 15, Type (0, 1), BuildingBlock: OJICUG_clean_linker_0, # of connection points: 2
#     Edge 16, Type (0, 1), BuildingBlock: OJICUG_clean_linker_0, # of connection points: 2
#     Edge 17, Type (0, 1), BuildingBlock: OJICUG_clean_linker_0, # of connection points: 2
#     Edge 18, Type (0, 1), BuildingBlock: OJICUG_clean_linker_0, # of connection points: 2
#     Edge 19, Type (0, 1), BuildingBlock: OJICUG_clean_linker_0, # of connection points: 2
#     Edge 20, Type (0, 1), BuildingBlock: OJICUG_clean_linker_0, # of connection points: 2
#     Edge 21, Type (0, 1), BuildingBlock: OJICUG_clean_linker_0, # of connection points: 2
#     Edge 22, Type (0, 1), BuildingBlock: OJICUG_clean_linker_0, # of connection points: 2
#     Edge 23, Type (0, 1), BuildingBlock: OJICUG_clean_linker_0, # of connection points: 2
#     Edge 24, Type (0, 1), BuildingBlock: OJICUG_clean_linker_0, # of connection points: 2
#     Edge 25, Type (0, 1), BuildingBlock: OJICUG_clean_linker_0, # of connection points: 2
#     Edge 26, Type (0, 1), BuildingBlock: OJICUG_clean_linker_0, # of connection points: 2
#     Edge 27, Type (0, 1), BuildingBlock: OJICUG_clean_linker_0, # of connection points: 2
#     Edge 28, Type (0, 1), BuildingBlock: OJICUG_clean_linker_0, # of connection points: 2
#     Edge 29, Type (0, 1), BuildingBlock: OJICUG_clean_linker_0, # of connection points: 2
#     Edge 30, Type (0, 1), BuildingBlock: OJICUG_clean_linker_0, # of connection points: 2
#     Edge 31, Type (0, 1), BuildingBlock: OJICUG_clean_linker_0, # of connection points: 2
#     Edge 32, Type (0, 1), BuildingBlock: OJICUG_clean_linker_0, # of connection points: 2
#     Edge 33, Type (0, 1), BuildingBlock: OJICUG_clean_linker_0, # of connection points: 2
#     Edge 34, Type (0, 1), BuildingBlock: OJICUG_clean_linker_0, # of connection points: 2
#     Edge 35, Type (0, 1), BuildingBlock: OJICUG_clean_linker_0, # of connection points: 2
# Relax obj value: 0.005
# Max RMSD: 0.052
# Mean RMSD: 0.042
data_MOF--net-nom--node1-CEKHIL_clean_sbu_0--node2-KUFVIS_clean_linker_0--edge1-OJICUG_clean_linker_0
_symmetry_space_group_name_H-M    P1
_symmetry_Int_Tables_number       1
_symmetry_cell_setting            triclinic
loop_
_symmetry_equiv_pos_as_xyz
'x, y, z'
_cell_length_a     33.353804
_cell_length_b     32.898768
_cell_length_c     34.810409
_cell_angle_alpha  89.979561
_cell_angle_beta   90.064638
_cell_angle_gamma 121.63544
loop_
_atom_site_label
_atom_site_type_symbol
_atom_site_fract_x
_atom_site_fract_y
_atom_site_fract_z
_atom_type_partial_charge
H0 H 0.19661 0.63941 0.36188 0.0
H1 H 0.10165 0.61696 0.27064 0.0
H2 H 0.05106 0.57642 0.38807 0.0
H3 H 0.98608 0.5683 0.3695 0.0
H4 H 0.8885 0.51553 0.2763 0.0
H5 H 1.03196 0.56272 0.25374 0.0
C6 C 0.16088 0.6259 0.352 0.0
C7 C 0.12463 0.60836 0.37876 0.0
C8 C 0.15252 0.62786 0.31307 0.0
C9 C 0.1066 0.61294 0.30075 0.0
C10 C 0.06808 0.5927 0.32709 0.0
C11 C 0.07835 0.59134 0.36653 0.0
C12 C 1.01782 0.57214 0.31333 0.0
C13 C 0.98026 0.5616 0.33905 0.0
C14 C 0.93367 0.54045 0.32555 0.0
C15 C 0.92464 0.53267 0.28637 0.0
C16 C 0.96007 0.54103 0.26064 0.0
C17 C 1.00615 0.55971 0.27411 0.0
H18 H 0.56469 0.18118 0.51857 0.0
H19 H 0.50766 0.08201 0.42594 0.0
H20 H 0.51281 0.0346 0.54162 0.0
H21 H 0.45868 0.96416 0.52466 0.0
H22 H 0.43023 0.86745 0.43226 0.0
H23 H 0.49637 1.01553 0.40698 0.0
C24 C 0.54651 0.14443 0.50862 0.0
C25 C 0.53693 0.1082 0.53449 0.0
C26 C 0.53822 0.13522 0.4695 0.0
C27 C 0.51502 0.08779 0.45629 0.0
C28 C 0.50369 0.04943 0.48204 0.0
C29 C 0.5167 0.06114 0.5212 0.0
C30 C 0.48168 0.9983 0.46814 0.0
C31 C 0.46145 0.95909 0.49436 0.0
C32 C 0.44475 0.91225 0.48157 0.0
C33 C 0.44515 0.90381 0.44244 0.0
C34 C 0.4628 0.9408 0.41591 0.0
C35 C 0.48149 0.98785 0.42851 0.0
H36 H 0.57654 0.40577 0.59878 0.0
H37 H 0.50808 0.43066 0.69125 0.0
H38 H 0.49774 0.4709 0.57404 0.0
H39 H 0.44068 0.47775 0.59303 0.0
H40 H 0.40297 0.53604 0.6855 0.0
H41 H 0.4961 0.48668 0.70798 0.0
C42 C 0.55517 0.41958 0.60896 0.0
C43 C 0.53711 0.43763 0.5826 0.0
C44 C 0.54569 0.41802 0.64802 0.0
C45 C 0.51626 0.43398 0.66097 0.0
C46 C 0.49852 0.45442 0.6349 0.0
C47 C 0.50937 0.45543 0.59533 0.0
C48 C 0.4704 0.47581 0.64886 0.0
C49 C 0.44317 0.48585 0.6233 0.0
C50 C 0.41972 0.50835 0.63661 0.0
C51 C 0.42039 0.51785 0.6756 0.0
C52 C 0.44748 0.50967 0.70124 0.0
C53 C 0.47309 0.48965 0.68785 0.0
H54 H 0.1983 0.54002 0.7764 0.0
H55 H 0.10084 0.48747 0.86953 0.0
H56 H 0.05492 0.49342 0.75378 0.0
H57 H 0.98524 0.43887 0.77063 0.0
H58 H 0.89041 0.41675 0.8617 0.0
H59 H 0.03604 0.47986 0.88803 0.0
C60 C 0.16217 0.52298 0.78645 0.0
C61 C 0.12677 0.51482 0.7607 0.0
C62 C 0.1532 0.51518 0.82561 0.0
C63 C 0.10665 0.49419 0.83909 0.0
C64 C 0.06909 0.48382 0.81335 0.0
C65 C 0.08073 0.49628 0.77415 0.0
C66 C 1.01888 0.46335 0.82708 0.0
C67 C 0.98033 0.44301 0.80071 0.0
C68 C 0.93443 0.42812 0.81297 0.0
C69 C 0.92614 0.43025 0.85188 0.0
C70 C 0.96243 0.4479 0.87867 0.0
C71 C 1.00869 0.46487 0.86649 0.0
H72 H 0.522 0.87418 0.01867 0.0
H73 H 0.57925 0.97341 0.92616 0.0
H74 H 0.57386 1.02077 0.04176 0.0
H75 H 0.62808 0.09125 0.02486 0.0
H76 H 0.65657 0.1879 0.93238 0.0
H77 H 0.59033 0.03979 0.90716 0.0
C78 C 0.5402 0.91094 0.00875 0.0
C79 C 0.54973 0.94716 0.03462 0.0
C80 C 0.54858 0.92017 0.96965 0.0
C81 C 0.57181 0.96761 0.95649 0.0
C82 C 0.58307 1.00596 0.98222 0.0
C83 C 0.56999 0.99423 0.02135 0.0
C84 C 0.60508 0.05707 0.96833 0.0
C85 C 0.62533 0.0963 -0.00546 0.0
C86 C 0.64205 0.14314 0.98173 0.0
C87 C 0.64164 0.15154 0.94258 0.0
C88 C 0.62395 0.11453 0.91606 0.0
C89 C 0.60525 0.06748 0.92869 0.0
H90 H 0.5106 0.64999 0.09867 0.0
H91 H 0.57884 0.62484 0.19132 0.0
H92 H 0.5895 0.58501 0.07409 0.0
H93 H 0.64631 0.57783 0.09317 0.0
H94 H 0.68391 0.51934 0.18566 0.0
H95 H 0.59114 0.56908 0.20808 0.0
C96 C 0.53196 0.63618 0.10891 0.0
C97 C 0.55011 0.61824 0.08258 0.0
C98 C 0.54133 0.63761 0.14799 0.0
C99 C 0.57076 0.62162 0.16102 0.0
C100 C 0.58859 0.6013 0.13496 0.0
C101 C 0.57783 0.60041 0.09537 0.0
C102 C 0.61668 0.57985 0.14897 0.0
C103 C 0.64383 0.56972 0.12343 0.0
C104 C 0.66717 0.54711 0.13675 0.0
C105 C 0.66655 0.5376 0.17575 0.0
C106 C 0.6396 0.54592 0.20137 0.0
C107 C 0.61406 0.56603 0.18796 0.0
Co108 Co 0.66579 0.40073 0.38996 0.0
O109 O 0.7164 0.40492 0.35979 0.0
O110 O 0.72537 0.45732 0.40405 0.0
C111 C 0.63164 0.32229 0.40432 0.0
O112 O 0.62426 0.40836 0.42844 0.0
Co113 Co 0.56011 0.33575 0.36875 0.0
O114 O 0.54739 0.35526 0.41873 0.0
C115 C 0.61839 0.42867 0.32951 0.0
C116 C 0.7446 0.44348 0.37901 0.0
C117 C 0.58066 0.38935 0.43772 0.0
O118 O 0.65409 0.43828 0.35056 0.0
O119 O 0.57905 0.38879 0.33092 0.0
O120 O 0.66799 0.35456 0.42346 0.0
O121 O 0.61887 0.33771 0.37552 0.0
Co122 Co 0.29898 0.64933 0.56765 0.0
O123 O 0.34569 0.64561 0.5976 0.0
O124 O 0.29834 0.59138 0.55523 0.0
C125 C 0.34673 0.72688 0.55084 0.0
O126 O 0.24836 0.6409 0.52988 0.0
Co127 Co 0.26361 0.71725 0.58775 0.0
O128 O 0.22813 0.69543 0.53895 0.0
C129 C 0.22542 0.62588 0.62951 0.0
C130 C 0.33264 0.6059 0.5797 0.0
C131 C 0.22454 0.66013 0.52072 0.0
O132 O 0.24974 0.61448 0.60845 0.0
O133 O 0.22829 0.66617 0.62716 0.0
O134 O 0.3481 0.69325 0.53247 0.0
O135 O 0.31907 0.71327 0.58027 0.0
Co136 Co 0.67657 0.28869 0.72293 0.0
O137 O 0.67608 0.33647 0.69115 0.0
O138 O 0.62115 0.29193 0.73374 0.0
C139 C 0.75314 0.33462 0.74046 0.0
O140 O 0.66519 0.23782 0.76223 0.0
Co141 Co 0.73962 0.24729 0.70593 0.0
O142 O 0.71613 0.21322 0.75531 0.0
C143 C 0.6502 0.21054 0.66343 0.0
C144 C 0.63734 0.32604 0.70849 0.0
C145 C 0.68206 0.21217 0.7727 0.0
O146 O 0.6408 0.23771 0.68304 0.0
O147 O 0.68883 0.2113 0.66676 0.0
O148 O 0.72077 0.33858 0.75762 0.0
O149 O 0.73906 0.30565 0.71155 0.0
Co150 Co 0.42129 0.65484 0.88971 0.0
O151 O 0.37056 0.65056 0.85955 0.0
O152 O 0.36181 0.5982 0.90379 0.0
C153 C 0.45535 0.73325 0.90414 0.0
O154 O 0.46294 0.6473 0.92819 0.0
Co155 Co 0.52691 0.71995 0.86858 0.0
O156 O 0.53976 0.70056 0.91861 0.0
C157 C 0.46869 0.62701 0.8293 0.0
C158 C 0.34246 0.612 0.87878 0.0
C159 C 0.50655 0.6664 0.93754 0.0
O160 O 0.43299 0.61735 0.8503 0.0
O161 O 0.508 0.66691 0.83076 0.0
O162 O 0.41906 0.70093 0.92324 0.0
O163 O 0.46811 0.71789 0.87531 0.0
Co164 Co 0.78794 0.40638 0.06733 0.0
O165 O 0.74123 0.40994 0.09732 0.0
O166 O 0.78833 0.46422 0.05494 0.0
C167 C 0.7403 0.32877 0.05057 0.0
O168 O 0.83853 0.41495 0.02955 0.0
Co169 Co 0.82366 0.33871 0.08744 0.0
O170 O 0.85909 0.36067 0.0387 0.0
C171 C 0.86166 0.43005 0.12923 0.0
C172 C 0.75411 0.44963 0.07945 0.0
C173 C 0.86249 0.39588 0.02045 0.0
O174 O 0.83725 0.44136 0.10813 0.0
O175 O 0.8589 0.38982 0.12689 0.0
O176 O 0.73876 0.36231 0.03218 0.0
O177 O 0.76807 0.3425 0.07997 0.0
Co178 Co 0.41008 0.7665 0.22283 0.0
O179 O 0.41054 0.71869 0.19108 0.0
O180 O 0.46554 0.76328 0.23369 0.0
C181 C 0.33354 0.7206 0.24035 0.0
O182 O 0.42151 0.81739 0.26211 0.0
Co183 Co 0.34698 0.80785 0.2057 0.0
O184 O 0.37054 0.84197 0.25509 0.0
C185 C 0.43635 0.84462 0.1633 0.0
C186 C 0.44933 0.72916 0.20843 0.0
C187 C 0.40465 0.84304 0.27253 0.0
O188 O 0.44578 0.81746 0.18294 0.0
O189 O 0.39773 0.84384 0.16658 0.0
O190 O 0.36594 0.71663 0.25752 0.0
O191 O 0.34757 0.74951 0.21143 0.0
C192 C 0.22295 0.62742 0.29041 0.0
C193 C 0.1934 0.64579 0.2867 0.0
H194 H 0.29047 0.63721 0.27928 0.0
C195 C 0.20813 0.68621 0.26353 0.0
H196 H 0.21232 0.59606 0.30784 0.0
C197 C 0.25314 0.70971 0.24671 0.0
C198 C 0.28401 0.69337 0.25337 0.0
H199 H 0.18621 0.70131 0.26047 0.0
H200 H 0.26468 0.74202 0.23036 0.0
C201 C 0.26785 0.6512 0.27434 0.0
C202 C 0.5356 0.19344 0.42406 0.0
C203 C 0.56139 0.17723 0.44368 0.0
H204 H 0.53801 0.2528 0.39558 0.0
C205 C 0.61061 0.20718 0.44615 0.0
H206 H 0.49758 0.17126 0.42238 0.0
C207 C 0.63327 0.25379 0.43228 0.0
C208 C 0.60742 0.27122 0.41475 0.0
H209 H 0.63121 0.19553 0.46138 0.0
H210 H 0.67096 0.2767 0.43637 0.0
C211 C 0.55865 0.24014 0.40921 0.0
C212 C 0.35389 0.50481 0.59858 0.0
C213 C 0.40101 0.53046 0.6109 0.0
H214 H 0.29507 0.50885 0.57823 0.0
C215 C 0.42651 0.58052 0.60841 0.0
H216 H 0.3332 0.4663 0.60121 0.0
C217 C 0.40447 0.60472 0.59692 0.0
C218 C 0.35665 0.5794 0.58679 0.0
H219 H 0.46261 0.6011 0.61849 0.0
H220 H 0.42447 0.6434 0.59736 0.0
C221 C 0.33201 0.52918 0.586 0.0
C222 C 0.8787 0.36938 0.76364 0.0
C223 C 0.89349 0.40999 0.78658 0.0
H224 H 0.82203 0.31324 0.73071 0.0
C225 C 0.86391 0.42835 0.79011 0.0
H226 H 0.90064 0.3543 0.76073 0.0
C227 C 0.81893 0.40437 0.77411 0.0
C228 C 0.80274 0.36202 0.75339 0.0
H229 H 0.87459 0.45985 0.80737 0.0
H230 H 0.7963 0.41836 0.77892 0.0
C231 C 0.83362 0.34569 0.74687 0.0
C232 C 0.5513 0.86208 0.92417 0.0
C233 C 0.52545 0.8782 0.94379 0.0
H234 H 0.54896 0.80283 0.89559 0.0
C235 C 0.47624 0.8482 0.94613 0.0
H236 H 0.58931 0.8843 0.92257 0.0
C237 C 0.45363 0.80164 0.93216 0.0
C238 C 0.47952 0.78429 0.91463 0.0
H239 H 0.45561 0.85978 0.96135 0.0
H240 H 0.41594 0.77869 0.93615 0.0
C241 C 0.52829 0.81543 0.90921 0.0
C242 C 0.66037 0.47485 0.10873 0.0
C243 C 0.68577 0.52493 0.11104 0.0
H244 H 0.66247 0.41201 0.09767 0.0
C245 C 0.73274 0.55061 0.09842 0.0
H246 H 0.62439 0.45425 0.11902 0.0
C247 C 0.75458 0.52627 0.08571 0.0
C248 C 0.73007 0.47606 0.08667 0.0
H249 H 0.75336 0.58915 0.10088 0.0
H250 H 0.79142 0.54664 0.07771 0.0
C251 C 0.68238 0.45069 0.0971 0.0
C252 C 0.44209 0.83872 0.50274 0.0
C253 C 0.42601 0.8703 0.50751 0.0
H254 H 0.42899 0.76851 0.51197 0.0
C255 C 0.38648 0.85633 0.53081 0.0
H256 H 0.47268 0.8487 0.48512 0.0
C257 C 0.36155 0.81018 0.54664 0.0
C258 C 0.37551 0.77738 0.53879 0.0
H259 H 0.37311 0.87978 0.53462 0.0
H260 H 0.32996 0.79932 0.5631 0.0
C261 C 0.41683 0.79266 0.51777 0.0
C262 C 0.61791 0.42235 0.67177 0.0
C263 C 0.56868 0.40011 0.67365 0.0
H264 H 0.67781 0.41598 0.68067 0.0
C265 C 0.54242 0.35538 0.69166 0.0
H266 H 0.63891 0.45668 0.65776 0.0
C267 C 0.56489 0.33192 0.70505 0.0
C268 C 0.61369 0.3526 0.69987 0.0
H269 H 0.50438 0.33715 0.69285 0.0
H270 H 0.54376 0.29647 0.71718 0.0
C271 C 0.64008 0.39873 0.68438 0.0
C272 C 0.22204 0.58764 0.85235 0.0
C273 C 0.19507 0.53751 0.85098 0.0
H274 H 0.29005 0.65027 0.8613 0.0
C275 C 0.21549 0.51172 0.86334 0.0
H276 H 0.20739 0.60829 0.84214 0.0
C277 C 0.26298 0.5359 0.8748 0.0
C278 C 0.29088 0.58603 0.87274 0.0
H279 H 0.1958 0.47312 0.8615 0.0
H280 H 0.27866 0.51538 0.88262 0.0
C281 C 0.26954 0.61162 0.86264 0.0
C282 C 0.70052 0.19926 0.03083 0.0
C283 C 0.66083 0.18514 0.00762 0.0
H284 H 0.75724 0.25645 0.06292 0.0
C285 C 0.64467 0.21666 0.00283 0.0
H286 H 0.71396 0.17585 0.03465 0.0
C287 C 0.67 0.2628 0.01772 0.0
C288 C 0.71148 0.27821 0.03864 0.0
H289 H 0.61397 0.20657 0.98526 0.0
H290 H 0.65778 0.28689 0.01189 0.0
C291 C 0.72552 0.24549 0.04654 0.0
C292 C 0.54439 0.70001 0.19177 0.0
C293 C 0.51822 0.65537 0.17357 0.0
H294 H 0.54291 0.75875 0.21742 0.0
C295 C 0.46899 0.63311 0.1715 0.0
H296 H 0.58243 0.71826 0.1931 0.0
C297 C 0.44674 0.65663 0.18412 0.0
C298 C 0.47304 0.70268 0.1998 0.0
H299 H 0.44805 0.59884 0.15735 0.0
H300 H 0.40901 0.63937 0.18027 0.0
C301 C 0.52183 0.72337 0.20515 0.0
C302 C 0.87154 0.54375 0.36354 0.0
C303 C 0.89184 0.51798 0.3509 0.0
H304 H 0.80852 0.54007 0.38314 0.0
C305 C 0.86483 0.46785 0.35209 0.0
H306 H 0.89126 0.58237 0.36186 0.0
C307 C 0.8174 0.44386 0.3625 0.0
C308 C 0.79615 0.46944 0.37289 0.0
H309 H 0.8794 0.44722 0.34168 0.0
H310 H 0.79685 0.40523 0.36102 0.0
C311 C 0.82411 0.51956 0.3751 0.0
C312 C 0.16229 0.58918 0.4314 0.0
C313 C 0.13787 0.61114 0.41954 0.0
H314 H 0.20902 0.58752 0.47251 0.0
C315 C 0.1376 0.64533 0.44332 0.0
H316 H 0.16343 0.56315 0.41311 0.0
C317 C 0.1644 0.66005 0.47706 0.0
C318 C 0.19186 0.64072 0.48752 0.0
H319 H 0.11973 0.66334 0.43432 0.0
H320 H 0.16526 0.68815 0.49393 0.0
C321 C 0.18893 0.6037 0.46511 0.0
C322 C 0.54693 0.15353 0.59465 0.0
C323 C 0.55621 0.12285 0.57368 0.0
H324 H 0.56948 0.2056 0.63938 0.0
C325 C 0.59263 0.11643 0.5857 0.0
H326 H 0.51914 0.15923 0.58564 0.0
C327 C 0.62199 0.14349 0.61605 0.0
C328 C 0.61528 0.17732 0.63497 0.0
H329 H 0.60085 0.09349 0.56966 0.0
H330 H 0.65128 0.13946 0.6234 0.0
C331 C 0.57612 0.18045 0.6251 0.0
C332 C 0.41475 0.52117 0.76175 0.0
C333 C 0.45418 0.53023 0.74013 0.0
H334 H 0.38826 0.54472 0.80691 0.0
C335 C 0.49904 0.5673 0.75138 0.0
H336 H 0.37975 0.49284 0.75339 0.0
C337 C 0.50395 0.5975 0.7816 0.0
C338 C 0.46406 0.59098 0.80121 0.0
H339 H 0.52988 0.57536 0.73487 0.0
H340 H 0.53883 0.6273 0.78835 0.0
C341 C 0.41963 0.55117 0.79212 0.0
C342 C 0.94964 0.41107 0.94327 0.0
C343 C 0.94921 0.44516 0.91943 0.0
H344 H 0.9221 0.36825 -0.00615 0.0
C345 C 0.92461 0.46694 0.9312 0.0
H346 H 0.96766 0.3932 0.93434 0.0
C347 C 0.89794 0.45232 0.96485 0.0
C348 C 0.89517 0.4154 0.9873 0.0
H349 H 0.92333 0.49287 0.91287 0.0
H350 H 0.87771 0.46836 0.97217 0.0
C351 C 0.92283 0.39627 0.97694 0.0
C352 C 0.49389 0.93876 0.08564 0.0
C353 C 0.53041 0.93246 0.07377 0.0
H354 H 0.43514 0.91558 0.12315 0.0
C355 C 0.53973 0.90184 0.0948 0.0
H356 H 0.48563 0.96165 0.06954 0.0
C357 C 0.51051 0.87485 0.12517 0.0
C358 C 0.47127 0.87786 0.1349 0.0
H359 H 0.56759 0.89622 0.0859 0.0
H360 H 0.5172 0.84975 0.13951 0.0
C361 C 0.4645 0.91164 0.11591 0.0
C362 C 0.6724 0.53439 0.2619 0.0
C363 C 0.63294 0.5254 0.24027 0.0
H364 H 0.69888 0.5108 0.30711 0.0
C365 C 0.58807 0.48844 0.25153 0.0
H366 H 0.70741 0.56263 0.25353 0.0
C367 C 0.58316 0.45827 0.28179 0.0
C368 C 0.62305 0.4647 0.30141 0.0
H369 H 0.55722 0.48044 0.23501 0.0
H370 H 0.54825 0.42854 0.28854 0.0
C371 C 0.66751 0.50442 0.2923 0.0
C372 C 0.47733 0.90102 0.36184 0.0
C373 C 0.45821 0.92767 0.37496 0.0
H374 H 0.47531 0.85318 0.31933 0.0
C375 C 0.42531 0.93077 0.35211 0.0
H376 H 0.50237 0.89775 0.37937 0.0
C377 C 0.40905 0.90457 0.31801 0.0
C378 C 0.42555 0.87493 0.30624 0.0
H379 H 0.40953 0.95044 0.36208 0.0
H380 H 0.38202 0.90594 0.30183 0.0
C381 C 0.46128 0.875 0.32775 0.0
C382 C 0.59387 0.45692 0.52948 0.0
C383 C 0.54693 0.43522 0.54168 0.0
H384 H 0.64142 0.4594 0.48719 0.0
C385 C 0.51073 0.40222 0.51759 0.0
H386 H 0.62234 0.48207 0.54796 0.0
C387 C 0.52154 0.38847 0.48301 0.0
C388 C 0.56878 0.40763 0.47202 0.0
H389 H 0.47435 0.38448 0.52684 0.0
H390 H 0.49293 0.36131 0.4658 0.0
C391 C 0.60472 0.44339 0.49494 0.0
C392 C 0.17068 0.52351 0.7003 0.0
C393 C 0.14125 0.53392 0.72141 0.0
H394 H 0.22058 0.5445 0.65463 0.0
C395 C 0.13494 0.57071 0.70895 0.0
H396 H 0.17618 0.49535 0.70959 0.0
C397 C 0.16083 0.59933 0.67791 0.0
C398 C 0.1933 0.59147 0.65868 0.0
H399 H 0.11289 0.57977 0.72503 0.0
H400 H 0.15692 0.62896 0.67014 0.0
C401 C 0.19637 0.55193 0.6691 0.0
C402 C 0.66145 0.12453 0.85235 0.0
C403 C 0.62853 0.12762 0.87511 0.0
H404 H 0.70475 0.14935 0.80216 0.0
C405 C 0.60938 0.15422 0.8619 0.0
H406 H 0.67725 0.10489 0.8624 0.0
C407 C 0.62542 0.18022 0.82782 0.0
C408 C 0.66117 0.1803 0.8064 0.0
H409 H 0.58432 0.15749 0.87936 0.0
H410 H 0.61137 0.20201 0.81933 0.0
C411 C 0.6777 0.1507 0.81825 0.0
C412 C 0.49342 0.59885 0.02929 0.0
C413 C 0.54035 0.6207 0.04164 0.0
H414 H 0.44587 0.59618 0.98683 0.0
C415 C 0.57655 0.65382 0.01767 0.0
H416 H 0.46497 0.5736 0.04768 0.0
C417 C 0.56573 0.66752 0.98303 0.0
C418 C 0.51849 0.64819 0.97189 0.0
H419 H 0.61291 0.67167 0.02703 0.0
H420 H 0.59432 0.69478 0.9659 0.0
C421 C 0.48257 0.61232 -0.0053 0.0
C422 C 0.91601 0.53225 0.20022 0.0
C423 C 0.9456 0.52199 0.22132 0.0
H424 H 0.86605 0.51115 0.15449 0.0
C425 C 0.95216 0.48541 0.20877 0.0
H426 H 0.91033 0.56026 0.20956 0.0
C427 C 0.92635 0.45681 0.17766 0.0
C428 C 0.89372 0.46449 0.15845 0.0
H429 H 0.97434 0.47647 0.22485 0.0
H430 H 0.93044 0.42732 0.16984 0.0
C431 C 0.8904 0.50386 0.16895 0.0
loop_
_geom_bond_atom_site_label_1
_geom_bond_atom_site_label_2
_geom_bond_distance
_geom_bond_site_symmetry_2
_ccdc_geom_bond_type
H0 C6 0.930 . S
H1 C9 0.931 . S
H2 C11 0.931 . S
H3 C13 0.930 . S
H4 C15 0.930 . S
H5 C17 0.931 . S
C6 H0 0.930 . S
C6 C7 1.380 . S
C6 C8 1.394 . S
C7 C6 1.380 . S
C7 C11 1.382 . S
C8 C6 1.394 . S
C8 C9 1.400 . S
C9 H1 0.931 . S
C9 C8 1.400 . S
C9 C10 1.375 . S
C10 C9 1.375 . S
C10 C11 1.415 . S
C10 C12 1.501 1_455 S
C11 H2 0.931 . S
C11 C7 1.382 . S
C11 C10 1.415 . S
C12 C10 1.501 1_655 S
C12 C13 1.384 . S
C12 C17 1.408 . S
C13 H3 0.930 . S
C13 C12 1.384 . S
C13 C14 1.389 . S
C14 C13 1.389 . S
C14 C15 1.405 . S
C15 H4 0.930 . S
C15 C14 1.405 . S
C15 C16 1.364 . S
C16 C15 1.364 . S
C16 C17 1.400 . S
C17 H5 0.931 . S
C17 C12 1.408 . S
C17 C16 1.400 . S
H18 C24 0.930 . S
H19 C27 0.931 . S
H20 C29 0.931 . S
H21 C31 0.930 . S
H22 C33 0.930 . S
H23 C35 0.931 . S
C24 H18 0.930 . S
C24 C25 1.380 . S
C24 C26 1.394 . S
C25 C24 1.380 . S
C25 C29 1.382 . S
C26 C24 1.394 . S
C26 C27 1.400 . S
C27 H19 0.931 . S
C27 C26 1.400 . S
C27 C28 1.375 . S
C28 C27 1.375 . S
C28 C29 1.415 . S
C28 C30 1.501 1_545 S
C29 H20 0.931 . S
C29 C25 1.382 . S
C29 C28 1.415 . S
C30 C28 1.501 1_565 S
C30 C31 1.384 . S
C30 C35 1.408 . S
C31 H21 0.930 . S
C31 C30 1.384 . S
C31 C32 1.389 . S
C32 C31 1.389 . S
C32 C33 1.405 . S
C33 H22 0.930 . S
C33 C32 1.405 . S
C33 C34 1.364 . S
C34 C33 1.364 . S
C34 C35 1.400 . S
C35 H23 0.931 . S
C35 C30 1.408 . S
C35 C34 1.400 . S
H36 C42 0.930 . S
H37 C45 0.931 . S
H38 C47 0.931 . S
H39 C49 0.930 . S
H40 C51 0.930 . S
H41 C53 0.931 . S
C42 H36 0.930 . S
C42 C43 1.380 . S
C42 C44 1.394 . S
C43 C42 1.380 . S
C43 C47 1.382 . S
C44 C42 1.394 . S
C44 C45 1.400 . S
C45 H37 0.931 . S
C45 C44 1.400 . S
C45 C46 1.375 . S
C46 C45 1.375 . S
C46 C47 1.415 . S
C46 C48 1.501 . S
C47 H38 0.931 . S
C47 C43 1.382 . S
C47 C46 1.415 . S
C48 C46 1.501 . S
C48 C49 1.384 . S
C48 C53 1.408 . S
C49 H39 0.930 . S
C49 C48 1.384 . S
C49 C50 1.389 . S
C50 C49 1.389 . S
C50 C51 1.405 . S
C51 H40 0.930 . S
C51 C50 1.405 . S
C51 C52 1.364 . S
C52 C51 1.364 . S
C52 C53 1.400 . S
C53 H41 0.931 . S
C53 C48 1.408 . S
C53 C52 1.400 . S
H54 C60 0.930 . S
H55 C63 0.931 . S
H56 C65 0.931 . S
H57 C67 0.930 . S
H58 C69 0.930 . S
H59 C71 0.931 . S
C60 H54 0.930 . S
C60 C61 1.380 . S
C60 C62 1.394 . S
C61 C60 1.380 . S
C61 C65 1.382 . S
C62 C60 1.394 . S
C62 C63 1.400 . S
C63 H55 0.931 . S
C63 C62 1.400 . S
C63 C64 1.375 . S
C64 C63 1.375 . S
C64 C65 1.415 . S
C64 C66 1.501 1_455 S
C65 H56 0.931 . S
C65 C61 1.382 . S
C65 C64 1.415 . S
C66 C64 1.501 1_655 S
C66 C67 1.384 . S
C66 C71 1.408 . S
C67 H57 0.930 . S
C67 C66 1.384 . S
C67 C68 1.389 . S
C68 C67 1.389 . S
C68 C69 1.405 . S
C69 H58 0.930 . S
C69 C68 1.405 . S
C69 C70 1.364 . S
C70 C69 1.364 . S
C70 C71 1.400 . S
C71 H59 0.931 . S
C71 C66 1.408 . S
C71 C70 1.400 . S
H72 C78 0.930 . S
H73 C81 0.931 . S
H74 C83 0.931 . S
H75 C85 0.930 . S
H76 C87 0.930 . S
H77 C89 0.931 . S
C78 H72 0.930 . S
C78 C79 1.380 . S
C78 C80 1.394 1_554 S
C79 C78 1.380 . S
C79 C83 1.382 . S
C80 C78 1.394 1_556 S
C80 C81 1.400 . S
C81 H73 0.931 . S
C81 C80 1.400 . S
C81 C82 1.375 . S
C82 C81 1.375 . S
C82 C83 1.415 1_556 S
C82 C84 1.501 1_565 S
C83 H74 0.931 . S
C83 C79 1.382 . S
C83 C82 1.415 1_554 S
C84 C82 1.501 1_545 S
C84 C85 1.384 1_556 S
C84 C89 1.408 . S
C85 H75 0.930 . S
C85 C84 1.384 1_554 S
C85 C86 1.389 . S
C86 C85 1.389 . S
C86 C87 1.405 1_554 S
C87 H76 0.930 . S
C87 C86 1.405 1_556 S
C87 C88 1.364 . S
C88 C87 1.364 . S
C88 C89 1.400 . S
C89 H77 0.931 . S
C89 C84 1.408 . S
C89 C88 1.400 . S
H90 C96 0.930 . S
H91 C99 0.931 . S
H92 C101 0.931 . S
H93 C103 0.930 . S
H94 C105 0.930 . S
H95 C107 0.931 . S
C96 H90 0.930 . S
C96 C97 1.380 . S
C96 C98 1.394 . S
C97 C96 1.380 . S
C97 C101 1.382 . S
C98 C96 1.394 . S
C98 C99 1.400 . S
C99 H91 0.931 . S
C99 C98 1.400 . S
C99 C100 1.375 . S
C100 C99 1.375 . S
C100 C101 1.415 . S
C100 C102 1.501 . S
C101 H92 0.931 . S
C101 C97 1.382 . S
C101 C100 1.415 . S
C102 C100 1.501 . S
C102 C103 1.384 . S
C102 C107 1.408 . S
C103 H93 0.930 . S
C103 C102 1.384 . S
C103 C104 1.389 . S
C104 C103 1.389 . S
C104 C105 1.405 . S
C105 H94 0.930 . S
C105 C104 1.405 . S
C105 C106 1.364 . S
C106 C105 1.364 . S
C106 C107 1.400 . S
C107 H95 0.931 . S
C107 C102 1.408 . S
C107 C106 1.400 . S
Co108 O109 2.216 . S
Co108 O110 2.091 . S
Co108 O112 2.004 . S
Co108 O118 2.021 . S
Co108 O120 2.137 . S
Co108 O121 2.244 . S
O109 Co108 2.216 . S
O109 C116 1.247 . S
O110 Co108 2.091 . S
O110 C116 1.261 . S
C111 O120 1.247 . S
C111 O121 1.272 . S
O112 Co108 2.004 . S
O112 C117 1.259 . S
Co113 O114 2.061 . S
Co113 O119 2.052 . S
Co113 O121 2.135 . S
O114 Co113 2.061 . S
O114 C117 1.235 . S
C115 O118 1.238 . S
C115 O119 1.241 . S
C116 O109 1.247 . S
C116 O110 1.261 . S
C117 O112 1.259 . S
C117 O114 1.235 . S
O118 Co108 2.021 . S
O118 C115 1.238 . S
O119 Co113 2.052 . S
O119 C115 1.241 . S
O120 Co108 2.137 . S
O120 C111 1.247 . S
O121 Co108 2.244 . S
O121 C111 1.272 . S
O121 Co113 2.135 . S
Co122 O123 2.216 . S
Co122 O124 2.091 . S
Co122 O126 2.004 . S
Co122 O132 2.021 . S
Co122 O134 2.137 . S
Co122 O135 2.244 . S
O123 Co122 2.216 . S
O123 C130 1.247 . S
O124 Co122 2.091 . S
O124 C130 1.261 . S
C125 O134 1.247 . S
C125 O135 1.272 . S
O126 Co122 2.004 . S
O126 C131 1.259 . S
Co127 O128 2.061 . S
Co127 O133 2.052 . S
Co127 O135 2.135 . S
O128 Co127 2.061 . S
O128 C131 1.235 . S
C129 O132 1.238 . S
C129 O133 1.241 . S
C130 O123 1.247 . S
C130 O124 1.261 . S
C131 O126 1.259 . S
C131 O128 1.235 . S
O132 Co122 2.021 . S
O132 C129 1.238 . S
O133 Co127 2.052 . S
O133 C129 1.241 . S
O134 Co122 2.137 . S
O134 C125 1.247 . S
O135 Co122 2.244 . S
O135 C125 1.272 . S
O135 Co127 2.135 . S
Co136 O137 2.216 . S
Co136 O138 2.091 . S
Co136 O140 2.004 . S
Co136 O146 2.021 . S
Co136 O148 2.137 . S
Co136 O149 2.244 . S
O137 Co136 2.216 . S
O137 C144 1.247 . S
O138 Co136 2.091 . S
O138 C144 1.261 . S
C139 O148 1.247 . S
C139 O149 1.272 . S
O140 Co136 2.004 . S
O140 C145 1.259 . S
Co141 O142 2.061 . S
Co141 O147 2.052 . S
Co141 O149 2.135 . S
O142 Co141 2.061 . S
O142 C145 1.235 . S
C143 O146 1.238 . S
C143 O147 1.241 . S
C144 O137 1.247 . S
C144 O138 1.261 . S
C145 O140 1.259 . S
C145 O142 1.235 . S
O146 Co136 2.021 . S
O146 C143 1.238 . S
O147 Co141 2.052 . S
O147 C143 1.241 . S
O148 Co136 2.137 . S
O148 C139 1.247 . S
O149 Co136 2.244 . S
O149 C139 1.272 . S
O149 Co141 2.135 . S
Co150 O151 2.216 . S
Co150 O152 2.091 . S
Co150 O154 2.004 . S
Co150 O160 2.021 . S
Co150 O162 2.137 . S
Co150 O163 2.244 . S
O151 Co150 2.216 . S
O151 C158 1.247 . S
O152 Co150 2.091 . S
O152 C158 1.261 . S
C153 O162 1.247 . S
C153 O163 1.272 . S
O154 Co150 2.004 . S
O154 C159 1.259 . S
Co155 O156 2.061 . S
Co155 O161 2.052 . S
Co155 O163 2.135 . S
O156 Co155 2.061 . S
O156 C159 1.235 . S
C157 O160 1.238 . S
C157 O161 1.241 . S
C158 O151 1.247 . S
C158 O152 1.261 . S
C159 O154 1.259 . S
C159 O156 1.235 . S
O160 Co150 2.021 . S
O160 C157 1.238 . S
O161 Co155 2.052 . S
O161 C157 1.241 . S
O162 Co150 2.137 . S
O162 C153 1.247 . S
O163 Co150 2.244 . S
O163 C153 1.272 . S
O163 Co155 2.135 . S
Co164 O165 2.216 . S
Co164 O166 2.091 . S
Co164 O168 2.004 . S
Co164 O174 2.021 . S
Co164 O176 2.137 . S
Co164 O177 2.244 . S
O165 Co164 2.216 . S
O165 C172 1.247 . S
O166 Co164 2.091 . S
O166 C172 1.261 . S
C167 O176 1.247 . S
C167 O177 1.272 . S
O168 Co164 2.004 . S
O168 C173 1.259 . S
Co169 O170 2.061 . S
Co169 O175 2.052 . S
Co169 O177 2.135 . S
O170 Co169 2.061 . S
O170 C173 1.235 . S
C171 O174 1.238 . S
C171 O175 1.241 . S
C172 O165 1.247 . S
C172 O166 1.261 . S
C173 O168 1.259 . S
C173 O170 1.235 . S
O174 Co164 2.021 . S
O174 C171 1.238 . S
O175 Co169 2.052 . S
O175 C171 1.241 . S
O176 Co164 2.137 . S
O176 C167 1.247 . S
O177 Co164 2.244 . S
O177 C167 1.272 . S
O177 Co169 2.135 . S
Co178 O179 2.216 . S
Co178 O180 2.091 . S
Co178 O182 2.004 . S
Co178 O188 2.021 . S
Co178 O190 2.137 . S
Co178 O191 2.244 . S
O179 Co178 2.216 . S
O179 C186 1.247 . S
O180 Co178 2.091 . S
O180 C186 1.261 . S
C181 O190 1.247 . S
C181 O191 1.272 . S
O182 Co178 2.004 . S
O182 C187 1.259 . S
Co183 O184 2.061 . S
Co183 O189 2.052 . S
Co183 O191 2.135 . S
O184 Co183 2.061 . S
O184 C187 1.235 . S
C185 O188 1.238 . S
C185 O189 1.241 . S
C186 O179 1.247 . S
C186 O180 1.261 . S
C187 O182 1.259 . S
C187 O184 1.235 . S
O188 Co178 2.021 . S
O188 C185 1.238 . S
O189 Co183 2.052 . S
O189 C185 1.241 . S
O190 Co178 2.137 . S
O190 C181 1.247 . S
O191 Co178 2.244 . S
O191 C181 1.272 . S
O191 Co183 2.135 . S
C192 C193 1.387 . S
C192 H196 0.950 . S
C192 C201 1.390 . S
C193 C192 1.387 . S
C193 C195 1.387 . S
H194 C201 0.950 . S
C195 C193 1.387 . S
C195 C197 1.390 . S
C195 H199 0.950 . S
H196 C192 0.950 . S
C197 C195 1.390 . S
C197 C198 1.387 . S
C197 H200 0.950 . S
C198 C197 1.387 . S
C198 C201 1.387 . S
H199 C195 0.950 . S
H200 C197 0.950 . S
C201 C192 1.390 . S
C201 H194 0.950 . S
C201 C198 1.387 . S
C202 C203 1.387 . S
C202 H206 0.950 . S
C202 C211 1.390 . S
C203 C202 1.387 . S
C203 C205 1.387 . S
H204 C211 0.950 . S
C205 C203 1.387 . S
C205 C207 1.390 . S
C205 H209 0.950 . S
H206 C202 0.950 . S
C207 C205 1.390 . S
C207 C208 1.387 . S
C207 H210 0.950 . S
C208 C207 1.387 . S
C208 C211 1.387 . S
H209 C205 0.950 . S
H210 C207 0.950 . S
C211 C202 1.390 . S
C211 H204 0.950 . S
C211 C208 1.387 . S
C212 C213 1.387 . S
C212 H216 0.950 . S
C212 C221 1.390 . S
C213 C212 1.387 . S
C213 C215 1.387 . S
H214 C221 0.950 . S
C215 C213 1.387 . S
C215 C217 1.390 . S
C215 H219 0.950 . S
H216 C212 0.950 . S
C217 C215 1.390 . S
C217 C218 1.387 . S
C217 H220 0.950 . S
C218 C217 1.387 . S
C218 C221 1.387 . S
H219 C215 0.950 . S
H220 C217 0.950 . S
C221 C212 1.390 . S
C221 H214 0.950 . S
C221 C218 1.387 . S
C222 C223 1.387 . S
C222 H226 0.950 . S
C222 C231 1.390 . S
C223 C222 1.387 . S
C223 C225 1.387 . S
H224 C231 0.950 . S
C225 C223 1.387 . S
C225 C227 1.390 . S
C225 H229 0.950 . S
H226 C222 0.950 . S
C227 C225 1.390 . S
C227 C228 1.387 . S
C227 H230 0.950 . S
C228 C227 1.387 . S
C228 C231 1.387 . S
H229 C225 0.950 . S
H230 C227 0.950 . S
C231 C222 1.390 . S
C231 H224 0.950 . S
C231 C228 1.387 . S
C232 C233 1.387 . S
C232 H236 0.950 . S
C232 C241 1.390 . S
C233 C232 1.387 . S
C233 C235 1.387 . S
H234 C241 0.950 . S
C235 C233 1.387 . S
C235 C237 1.390 . S
C235 H239 0.950 . S
H236 C232 0.950 . S
C237 C235 1.390 . S
C237 C238 1.387 . S
C237 H240 0.950 . S
C238 C237 1.387 . S
C238 C241 1.387 . S
H239 C235 0.950 . S
H240 C237 0.950 . S
C241 C232 1.390 . S
C241 H234 0.950 . S
C241 C238 1.387 . S
C242 C243 1.387 . S
C242 H246 0.950 . S
C242 C251 1.390 . S
C243 C242 1.387 . S
C243 C245 1.387 . S
H244 C251 0.950 . S
C245 C243 1.387 . S
C245 C247 1.390 . S
C245 H249 0.950 . S
H246 C242 0.950 . S
C247 C245 1.390 . S
C247 C248 1.387 . S
C247 H250 0.950 . S
C248 C247 1.387 . S
C248 C251 1.387 . S
H249 C245 0.950 . S
H250 C247 0.950 . S
C251 C242 1.390 . S
C251 H244 0.950 . S
C251 C248 1.387 . S
C252 C253 1.387 . S
C252 H256 0.950 . S
C252 C261 1.390 . S
C253 C252 1.387 . S
C253 C255 1.387 . S
H254 C261 0.950 . S
C255 C253 1.387 . S
C255 C257 1.390 . S
C255 H259 0.950 . S
H256 C252 0.950 . S
C257 C255 1.390 . S
C257 C258 1.387 . S
C257 H260 0.950 . S
C258 C257 1.387 . S
C258 C261 1.387 . S
H259 C255 0.950 . S
H260 C257 0.950 . S
C261 C252 1.390 . S
C261 H254 0.950 . S
C261 C258 1.387 . S
C262 C263 1.387 . S
C262 H266 0.950 . S
C262 C271 1.390 . S
C263 C262 1.387 . S
C263 C265 1.387 . S
H264 C271 0.950 . S
C265 C263 1.387 . S
C265 C267 1.390 . S
C265 H269 0.950 . S
H266 C262 0.950 . S
C267 C265 1.390 . S
C267 C268 1.387 . S
C267 H270 0.950 . S
C268 C267 1.387 . S
C268 C271 1.387 . S
H269 C265 0.950 . S
H270 C267 0.950 . S
C271 C262 1.390 . S
C271 H264 0.950 . S
C271 C268 1.387 . S
C272 C273 1.387 . S
C272 H276 0.950 . S
C272 C281 1.390 . S
C273 C272 1.387 . S
C273 C275 1.387 . S
H274 C281 0.950 . S
C275 C273 1.387 . S
C275 C277 1.390 . S
C275 H279 0.950 . S
H276 C272 0.950 . S
C277 C275 1.390 . S
C277 C278 1.387 . S
C277 H280 0.950 . S
C278 C277 1.387 . S
C278 C281 1.387 . S
H279 C275 0.950 . S
H280 C277 0.950 . S
C281 C272 1.390 . S
C281 H274 0.950 . S
C281 C278 1.387 . S
C282 C283 1.387 1_556 S
C282 H286 0.950 . S
C282 C291 1.390 1_556 S
C283 C282 1.387 1_554 S
C283 C285 1.387 . S
H284 C291 0.950 1_556 S
C285 C283 1.387 . S
C285 C287 1.390 . S
C285 H289 0.950 . S
H286 C282 0.950 . S
C287 C285 1.390 . S
C287 C288 1.387 . S
C287 H290 0.950 . S
C288 C287 1.387 . S
C288 C291 1.387 . S
H289 C285 0.950 . S
H290 C287 0.950 . S
C291 C282 1.390 1_554 S
C291 H284 0.950 1_554 S
C291 C288 1.387 . S
C292 C293 1.387 . S
C292 H296 0.950 . S
C292 C301 1.390 . S
C293 C292 1.387 . S
C293 C295 1.387 . S
H294 C301 0.950 . S
C295 C293 1.387 . S
C295 C297 1.390 . S
C295 H299 0.950 . S
H296 C292 0.950 . S
C297 C295 1.390 . S
C297 C298 1.387 . S
C297 H300 0.950 . S
C298 C297 1.387 . S
C298 C301 1.387 . S
H299 C295 0.950 . S
H300 C297 0.950 . S
C301 C292 1.390 . S
C301 H294 0.950 . S
C301 C298 1.387 . S
C302 C303 1.387 . S
C302 H306 0.950 . S
C302 C311 1.390 . S
C303 C302 1.387 . S
C303 C305 1.387 . S
H304 C311 0.950 . S
C305 C303 1.387 . S
C305 C307 1.390 . S
C305 H309 0.950 . S
H306 C302 0.950 . S
C307 C305 1.390 . S
C307 C308 1.387 . S
C307 H310 0.950 . S
C308 C307 1.387 . S
C308 C311 1.387 . S
H309 C305 0.950 . S
H310 C307 0.950 . S
C311 C302 1.390 . S
C311 H304 0.950 . S
C311 C308 1.387 . S
C312 C313 1.387 . S
C312 H316 0.950 . S
C312 C321 1.390 . S
C313 C312 1.387 . S
C313 C315 1.387 . S
H314 C321 0.950 . S
C315 C313 1.387 . S
C315 C317 1.390 . S
C315 H319 0.950 . S
H316 C312 0.950 . S
C317 C315 1.390 . S
C317 C318 1.387 . S
C317 H320 0.950 . S
C318 C317 1.387 . S
C318 C321 1.387 . S
H319 C315 0.950 . S
H320 C317 0.950 . S
C321 C312 1.390 . S
C321 H314 0.950 . S
C321 C318 1.387 . S
C322 C323 1.387 . S
C322 H326 0.950 . S
C322 C331 1.390 . S
C323 C322 1.387 . S
C323 C325 1.387 . S
H324 C331 0.950 . S
C325 C323 1.387 . S
C325 C327 1.390 . S
C325 H329 0.950 . S
H326 C322 0.950 . S
C327 C325 1.390 . S
C327 C328 1.387 . S
C327 H330 0.950 . S
C328 C327 1.387 . S
C328 C331 1.387 . S
H329 C325 0.950 . S
H330 C327 0.950 . S
C331 C322 1.390 . S
C331 H324 0.950 . S
C331 C328 1.387 . S
C332 C333 1.387 . S
C332 H336 0.950 . S
C332 C341 1.390 . S
C333 C332 1.387 . S
C333 C335 1.387 . S
H334 C341 0.950 . S
C335 C333 1.387 . S
C335 C337 1.390 . S
C335 H339 0.950 . S
H336 C332 0.950 . S
C337 C335 1.390 . S
C337 C338 1.387 . S
C337 H340 0.950 . S
C338 C337 1.387 . S
C338 C341 1.387 . S
H339 C335 0.950 . S
H340 C337 0.950 . S
C341 C332 1.390 . S
C341 H334 0.950 . S
C341 C338 1.387 . S
C342 C343 1.387 . S
C342 H346 0.950 . S
C342 C351 1.390 . S
C343 C342 1.387 . S
C343 C345 1.387 . S
H344 C351 0.950 1_554 S
C345 C343 1.387 . S
C345 C347 1.390 . S
C345 H349 0.950 . S
H346 C342 0.950 . S
C347 C345 1.390 . S
C347 C348 1.387 . S
C347 H350 0.950 . S
C348 C347 1.387 . S
C348 C351 1.387 . S
H349 C345 0.950 . S
H350 C347 0.950 . S
C351 C342 1.390 . S
C351 H344 0.950 1_556 S
C351 C348 1.387 . S
C352 C353 1.387 . S
C352 H356 0.950 . S
C352 C361 1.390 . S
C353 C352 1.387 . S
C353 C355 1.387 . S
H354 C361 0.950 . S
C355 C353 1.387 . S
C355 C357 1.390 . S
C355 H359 0.950 . S
H356 C352 0.950 . S
C357 C355 1.390 . S
C357 C358 1.387 . S
C357 H360 0.950 . S
C358 C357 1.387 . S
C358 C361 1.387 . S
H359 C355 0.950 . S
H360 C357 0.950 . S
C361 C352 1.390 . S
C361 H354 0.950 . S
C361 C358 1.387 . S
C362 C363 1.387 . S
C362 H366 0.950 . S
C362 C371 1.390 . S
C363 C362 1.387 . S
C363 C365 1.387 . S
H364 C371 0.950 . S
C365 C363 1.387 . S
C365 C367 1.390 . S
C365 H369 0.950 . S
H366 C362 0.950 . S
C367 C365 1.390 . S
C367 C368 1.387 . S
C367 H370 0.950 . S
C368 C367 1.387 . S
C368 C371 1.387 . S
H369 C365 0.950 . S
H370 C367 0.950 . S
C371 C362 1.390 . S
C371 H364 0.950 . S
C371 C368 1.387 . S
C372 C373 1.387 . S
C372 H376 0.950 . S
C372 C381 1.390 . S
C373 C372 1.387 . S
C373 C375 1.387 . S
H374 C381 0.950 . S
C375 C373 1.387 . S
C375 C377 1.390 . S
C375 H379 0.950 . S
H376 C372 0.950 . S
C377 C375 1.390 . S
C377 C378 1.387 . S
C377 H380 0.950 . S
C378 C377 1.387 . S
C378 C381 1.387 . S
H379 C375 0.950 . S
H380 C377 0.950 . S
C381 C372 1.390 . S
C381 H374 0.950 . S
C381 C378 1.387 . S
C382 C383 1.387 . S
C382 H386 0.950 . S
C382 C391 1.390 . S
C383 C382 1.387 . S
C383 C385 1.387 . S
H384 C391 0.950 . S
C385 C383 1.387 . S
C385 C387 1.390 . S
C385 H389 0.950 . S
H386 C382 0.950 . S
C387 C385 1.390 . S
C387 C388 1.387 . S
C387 H390 0.950 . S
C388 C387 1.387 . S
C388 C391 1.387 . S
H389 C385 0.950 . S
H390 C387 0.950 . S
C391 C382 1.390 . S
C391 H384 0.950 . S
C391 C388 1.387 . S
C392 C393 1.387 . S
C392 H396 0.950 . S
C392 C401 1.390 . S
C393 C392 1.387 . S
C393 C395 1.387 . S
H394 C401 0.950 . S
C395 C393 1.387 . S
C395 C397 1.390 . S
C395 H399 0.950 . S
H396 C392 0.950 . S
C397 C395 1.390 . S
C397 C398 1.387 . S
C397 H400 0.950 . S
C398 C397 1.387 . S
C398 C401 1.387 . S
H399 C395 0.950 . S
H400 C397 0.950 . S
C401 C392 1.390 . S
C401 H394 0.950 . S
C401 C398 1.387 . S
C402 C403 1.387 . S
C402 H406 0.950 . S
C402 C411 1.390 . S
C403 C402 1.387 . S
C403 C405 1.387 . S
H404 C411 0.950 . S
C405 C403 1.387 . S
C405 C407 1.390 . S
C405 H409 0.950 . S
H406 C402 0.950 . S
C407 C405 1.390 . S
C407 C408 1.387 . S
C407 H410 0.950 . S
C408 C407 1.387 . S
C408 C411 1.387 . S
H409 C405 0.950 . S
H410 C407 0.950 . S
C411 C402 1.390 . S
C411 H404 0.950 . S
C411 C408 1.387 . S
C412 C413 1.387 . S
C412 H416 0.950 . S
C412 C421 1.390 . S
C413 C412 1.387 . S
C413 C415 1.387 . S
H414 C421 0.950 1_556 S
C415 C413 1.387 . S
C415 C417 1.390 . S
C415 H419 0.950 . S
H416 C412 0.950 . S
C417 C415 1.390 . S
C417 C418 1.387 . S
C417 H420 0.950 . S
C418 C417 1.387 . S
C418 C421 1.387 . S
H419 C415 0.950 . S
H420 C417 0.950 . S
C421 C412 1.390 . S
C421 H414 0.950 1_554 S
C421 C418 1.387 . S
C422 C423 1.387 . S
C422 H426 0.950 . S
C422 C431 1.390 . S
C423 C422 1.387 . S
C423 C425 1.387 . S
H424 C431 0.950 . S
C425 C423 1.387 . S
C425 C427 1.390 . S
C425 H429 0.950 . S
H426 C422 0.950 . S
C427 C425 1.390 . S
C427 C428 1.387 . S
C427 H430 0.950 . S
C428 C427 1.387 . S
C428 C431 1.387 . S
H429 C425 0.950 . S
H430 C427 0.950 . S
C431 C422 1.390 . S
C431 H424 0.950 . S
C431 C428 1.387 . S
C198 C181 1.570 . S
C193 C8 1.517 . S
C203 C26 1.527 . S
C208 C111 1.570 . S
C213 C50 1.530 . S
C218 C130 1.583 . S
C223 C68 1.517 . S
C228 C139 1.573 . S
C238 C153 1.569 . S
C233 C80 1.527 . S
C243 C104 1.525 . S
C248 C172 1.578 . S
C253 C32 1.512 . S
C258 C125 1.566 . S
C263 C44 1.514 . S
C268 C144 1.566 . S
C273 C62 1.519 . S
C278 C158 1.562 . S
C288 C167 1.561 . S
C283 C86 1.509 . S
C298 C186 1.565 . S
C293 C98 1.513 . S
C308 C116 1.566 . S
C303 C14 1.519 . S
C313 C7 1.468 . S
C318 C131 1.507 . S
C323 C25 1.466 . S
C328 C143 1.486 . S
C338 C157 1.477 . S
C333 C52 1.463 . S
C343 C70 1.466 . S
C348 C173 1.506 1_556 S
C358 C185 1.485 . S
C353 C79 1.469 . S
C368 C115 1.477 . S
C363 C106 1.464 . S
C378 C187 1.509 . S
C373 C34 1.471 . S
C383 C43 1.471 . S
C388 C117 1.518 . S
C398 C129 1.488 . S
C393 C61 1.469 . S
C403 C88 1.469 . S
C408 C145 1.509 . S
C413 C97 1.470 . S
C418 C159 1.518 1_554 S
C423 C16 1.470 . S
C428 C171 1.488 . S
