# Generated by pormake.
# Topology zzz, (3,6)-cn, num edge types: 1
# Building blocks:
#     Node 0, Type 0, BuildingBlock: BELTOD_clean_linker_0, # of connection points: 3
#     Node 1, Type 0, BuildingBlock: BELTOD_clean_linker_0, # of connection points: 3
#     Node 2, Type 0, BuildingBlock: BELTOD_clean_linker_0, # of connection points: 3
#     Node 3, Type 0, BuildingBlock: BELTOD_clean_linker_0, # of connection points: 3
#     Node 4, Type 0, BuildingBlock: BELTOD_clean_linker_0, # of connection points: 3
#     Node 5, Type 0, BuildingBlock: BELTOD_clean_linker_0, # of connection points: 3
#     Node 6, Type 0, BuildingBlock: BELTOD_clean_linker_0, # of connection points: 3
#     Node 7, Type 0, BuildingBlock: BELTOD_clean_linker_0, # of connection points: 3
#     Node 8, Type 1, BuildingBlock: LEVNOQ01_clean_sbu_1, # of connection points: 6
#     Node 9, Type 1, BuildingBlock: LEVNOQ01_clean_sbu_1, # of connection points: 6
#     Node 10, Type 1, BuildingBlock: LEVNOQ01_clean_sbu_1, # of connection points: 6
#     Node 11, Type 1, BuildingBlock: LEVNOQ01_clean_sbu_1, # of connection points: 6
#     Edge 12, Type (0, 1), BuildingBlock: OJICUG_clean_linker_0, # of connection points: 2
#     Edge 13, Type (0, 1), BuildingBlock: OJICUG_clean_linker_0, # of connection points: 2
#     Edge 14, Type (0, 1), BuildingBlock: OJICUG_clean_linker_0, # of connection points: 2
#     Edge 15, Type (0, 1), BuildingBlock: OJICUG_clean_linker_0, # of connection points: 2
#     Edge 16, Type (0, 1), BuildingBlock: OJICUG_clean_linker_0, # of connection points: 2
#     Edge 17, Type (0, 1), BuildingBlock: OJICUG_clean_linker_0, # of connection points: 2
#     Edge 18, Type (0, 1), BuildingBlock: OJICUG_clean_linker_0, # of connection points: 2
#     Edge 19, Type (0, 1), BuildingBlock: OJICUG_clean_linker_0, # of connection points: 2
#     Edge 20, Type (0, 1), BuildingBlock: OJICUG_clean_linker_0, # of connection points: 2
#     Edge 21, Type (0, 1), BuildingBlock: OJICUG_clean_linker_0, # of connection points: 2
#     Edge 22, Type (0, 1), BuildingBlock: OJICUG_clean_linker_0, # of connection points: 2
#     Edge 23, Type (0, 1), BuildingBlock: OJICUG_clean_linker_0, # of connection points: 2
#     Edge 24, Type (0, 1), BuildingBlock: OJICUG_clean_linker_0, # of connection points: 2
#     Edge 25, Type (0, 1), BuildingBlock: OJICUG_clean_linker_0, # of connection points: 2
#     Edge 26, Type (0, 1), BuildingBlock: OJICUG_clean_linker_0, # of connection points: 2
#     Edge 27, Type (0, 1), BuildingBlock: OJICUG_clean_linker_0, # of connection points: 2
#     Edge 28, Type (0, 1), BuildingBlock: OJICUG_clean_linker_0, # of connection points: 2
#     Edge 29, Type (0, 1), BuildingBlock: OJICUG_clean_linker_0, # of connection points: 2
#     Edge 30, Type (0, 1), BuildingBlock: OJICUG_clean_linker_0, # of connection points: 2
#     Edge 31, Type (0, 1), BuildingBlock: OJICUG_clean_linker_0, # of connection points: 2
#     Edge 32, Type (0, 1), BuildingBlock: OJICUG_clean_linker_0, # of connection points: 2
#     Edge 33, Type (0, 1), BuildingBlock: OJICUG_clean_linker_0, # of connection points: 2
#     Edge 34, Type (0, 1), BuildingBlock: OJICUG_clean_linker_0, # of connection points: 2
#     Edge 35, Type (0, 1), BuildingBlock: OJICUG_clean_linker_0, # of connection points: 2
# Relax obj value: 0.281
# Max RMSD: 0.213
# Mean RMSD: 0.196
data_MOF--net-zzz--node1-LEVNOQ01_clean_sbu_1--node2-BELTOD_clean_linker_0--edge1-OJICUG_clean_linker_0
_symmetry_space_group_name_H-M    P1
_symmetry_Int_Tables_number       1
_symmetry_cell_setting            triclinic
loop_
_symmetry_equiv_pos_as_xyz
'x, y, z'
_cell_length_a     38.799626
_cell_length_b     40.487032
_cell_length_c     14.783159
_cell_angle_alpha  90.006812
_cell_angle_beta   89.948727
_cell_angle_gamma 88.216839
loop_
_atom_site_label
_atom_site_type_symbol
_atom_site_fract_x
_atom_site_fract_y
_atom_site_fract_z
_atom_type_partial_charge
P0 P 0.74308 0.57191 0.20895 0.0
H1 H 0.7285 0.546 0.38993 0.0
H2 H 0.77057 0.53585 0.50884 0.0
H3 H 0.83612 0.60857 0.38963 0.0
H4 H 0.79177 0.62154 0.279 0.0
H5 H 0.66919 0.57196 0.23738 0.0
H6 H 0.6246 0.57466 0.12314 0.0
H7 H 0.69316 0.62609 0.94483 0.0
H8 H 0.73848 0.62051 0.05642 0.0
H9 H 0.78283 0.51372 0.1501 0.0
H10 H 0.79038 0.61955 0.1242 0.0
O11 O 0.72793 0.53388 0.21877 0.0
H12 H 0.84083 0.50628 0.09263 0.0
H13 H 0.84933 0.61202 0.06821 0.0
C14 C 0.75815 0.58267 0.3207 0.0
C15 C 0.75111 0.561 0.39181 0.0
C16 C 0.77582 0.55457 0.45883 0.0
C17 C 0.80826 0.56929 0.45483 0.0
C18 C 0.81222 0.59559 0.39369 0.0
C19 C 0.78673 0.60289 0.329 0.0
C20 C 0.7079 0.59456 0.15464 0.0
C21 C 0.67431 0.58504 0.1751 0.0
C22 C 0.64854 0.58666 0.10888 0.0
C23 C 0.65573 0.59886 0.02182 0.0
C24 C 0.68722 0.6147 0.009 0.0
C25 C 0.71333 0.61197 0.07411 0.0
C26 C 0.78175 0.56722 0.14133 0.0
C27 C 0.79654 0.53547 0.13062 0.0
C28 C 0.83018 0.53121 0.09931 0.0
C29 C 0.85009 0.55864 0.07902 0.0
C30 C 0.83471 0.59043 0.08432 0.0
C31 C 0.80077 0.59468 0.11538 0.0
P32 P 0.04308 0.74993 0.20447 0.0
H33 H 0.07037 0.758 0.38637 0.0
H34 H 0.05702 0.80097 0.49475 0.0
H35 H 0.96 0.82212 0.36028 0.0
H36 H 0.97357 0.77813 0.25122 0.0
H37 H 0.07465 0.68607 0.15693 0.0
H38 H 0.06006 0.6447 0.04623 0.0
H39 H 0.96101 0.69353 0.00443 0.0
H40 H 0.9746 0.73398 0.12189 0.0
H41 H 0.09627 0.79694 0.15807 0.0
H42 H 0.98837 0.78496 0.10073 0.0
O43 O 0.08437 0.74051 0.22762 0.0
H44 H 0.09307 0.85143 0.08867 0.0
H45 H 0.98417 0.8397 0.03965 0.0
C46 C 0.02359 0.76532 0.30813 0.0
C47 C 0.04547 0.77069 0.38176 0.0
C48 C 0.03777 0.79567 0.44427 0.0
C49 C 0.00782 0.8159 0.43498 0.0
C50 C 0.98379 0.8077 0.36794 0.0
C51 C 0.99143 0.78225 0.30582 0.0
C52 C 0.02642 0.71438 0.14567 0.0
C53 C 0.0493 0.68771 0.12659 0.0
C54 C 0.04094 0.66382 0.06292 0.0
C55 C 0.00966 0.66623 0.01548 0.0
C56 C 0.98557 0.69145 0.03906 0.0
C57 C 0.99359 0.71491 0.10536 0.0
C58 C 0.04272 0.78617 0.13354 0.0
C59 C 0.07197 0.80563 0.12946 0.0
C60 C 0.0699 0.83725 0.09152 0.0
C61 C 0.03823 0.85041 0.05918 0.0
C62 C 0.00923 0.83047 0.06189 0.0
C63 C 0.01162 0.79867 0.09735 0.0
P64 P 0.76189 0.95512 0.221 0.0
H65 H 0.76817 0.98252 0.40292 0.0
H66 H 0.72463 0.98395 0.52003 0.0
H67 H 0.6764 0.90014 0.39845 0.0
H68 H 0.72148 0.89786 0.28272 0.0
H69 H 0.83592 0.95882 0.24257 0.0
H70 H 0.88053 0.95435 0.12845 0.0
H71 H 0.8127 0.89853 0.95888 0.0
H72 H 0.76732 0.90565 0.07034 0.0
H73 H 0.72116 0.01352 0.16686 0.0
H74 H 0.715 0.90786 0.13347 0.0
O75 O 0.7761 0.99325 0.23659 0.0
H76 H 0.66363 0.02089 0.10568 0.0
H77 H 0.65674 0.91519 0.0745 0.0
C78 C 0.74702 0.94136 0.33029 0.0
C79 C 0.74932 0.96337 0.40313 0.0
C80 C 0.72408 0.96427 0.4705 0.0
C81 C 0.69611 0.94304 0.46639 0.0
C82 C 0.69695 0.91761 0.40156 0.0
C83 C 0.72283 0.9163 0.33524 0.0
C84 C 0.79753 0.93397 0.16399 0.0
C85 C 0.8309 0.94461 0.18215 0.0
C86 C 0.85673 0.94187 0.11617 0.0
C87 C 0.84987 0.92753 0.03145 0.0
C88 C 0.81844 0.91136 0.02107 0.0
C89 C 0.79228 0.91506 0.086 0.0
C90 C 0.72302 0.96012 0.15432 0.0
C91 C 0.70785 0.99181 0.14519 0.0
C92 C 0.67448 0.99601 0.11166 0.0
C93 C 0.65519 0.96855 0.08752 0.0
C94 C 0.67085 0.93686 0.09286 0.0
C95 C 0.70444 0.9327 0.1261 0.0
P96 P 0.45779 0.77131 0.22229 0.0
H97 H 0.43272 0.76456 0.40699 0.0
H98 H 0.44815 0.72274 0.51726 0.0
H99 H 0.54355 0.70151 0.37464 0.0
H100 H 0.52779 0.744 0.2635 0.0
H101 H 0.42317 0.83173 0.15957 0.0
H102 H 0.43874 0.87309 0.04952 0.0
H103 H 0.54187 0.83061 0.03523 0.0
H104 H 0.52708 0.79039 0.15271 0.0
H105 H 0.40805 0.7199 0.18807 0.0
H106 H 0.51201 0.74073 0.10757 0.0
O107 O 0.41636 0.7796 0.24671 0.0
H108 H 0.41401 0.66552 0.11849 0.0
H109 H 0.51938 0.68607 0.04657 0.0
C110 C 0.47855 0.75699 0.32496 0.0
C111 C 0.45772 0.75213 0.40102 0.0
C112 C 0.46662 0.72787 0.46456 0.0
C113 C 0.49669 0.70793 0.45356 0.0
C114 C 0.51973 0.71578 0.38376 0.0
C115 C 0.51087 0.74043 0.32053 0.0
C116 C 0.47357 0.80697 0.16287 0.0
C117 C 0.44955 0.83166 0.13575 0.0
C118 C 0.45843 0.85547 0.0725 0.0
C119 C 0.49134 0.85475 0.03327 0.0
C120 C 0.51621 0.83144 0.06418 0.0
C121 C 0.50758 0.80818 0.13039 0.0
C122 C 0.45931 0.73498 0.15181 0.0
C123 C 0.432 0.71311 0.15431 0.0
C124 C 0.43577 0.68159 0.1163 0.0
C125 C 0.46737 0.67095 0.07747 0.0
C126 C 0.49438 0.69328 0.07391 0.0
C127 C 0.49018 0.72498 0.10935 0.0
P128 P 0.25357 0.3793 0.21813 0.0
H129 H 0.24568 0.36996 0.02109 0.0
H130 H 0.20899 0.39997 0.91114 0.0
H131 H 0.18548 0.47478 0.11162 0.0
H132 H 0.22262 0.44546 0.21998 0.0
H133 H 0.29935 0.3526 0.35952 0.0
H134 H 0.34127 0.37883 0.45914 0.0
H135 H 0.3289 0.4693 0.30678 0.0
H136 H 0.28803 0.44314 0.20705 0.0
H137 H 0.18406 0.35715 0.1869 0.0
H138 H 0.2399 0.40212 0.40479 0.0
O139 O 0.26353 0.34146 0.17965 0.0
H140 H 0.12956 0.3778 0.25306 0.0
H141 H 0.18573 0.42128 0.47225 0.0
C142 C 0.2373 0.40567 0.1284 0.0
C143 C 0.23377 0.39347 0.0402 0.0
C144 C 0.21262 0.41046 0.97774 0.0
C145 C 0.19424 0.43941 0.00365 0.0
C146 C 0.19926 0.45241 0.09034 0.0
C147 C 0.22082 0.43585 0.15181 0.0
C148 C 0.29006 0.396 0.27661 0.0
C149 C 0.30642 0.3778 0.34614 0.0
C150 C 0.33037 0.39274 0.4029 0.0
C151 C 0.33789 0.42619 0.39122 0.0
C152 C 0.32319 0.44358 0.31784 0.0
C153 C 0.29963 0.42861 0.26091 0.0
C154 C 0.21619 0.37823 0.29035 0.0
C155 C 0.18459 0.36984 0.25138 0.0
C156 C 0.1535 0.38196 0.28833 0.0
C157 C 0.15375 0.40151 0.36653 0.0
C158 C 0.18504 0.40626 0.41163 0.0
C159 C 0.2161 0.39501 0.37332 0.0
P160 P 0.08651 0.25673 0.23037 0.0
H161 H 0.12164 0.21854 0.091 0.0
H162 H 0.09817 0.18015 0.98493 0.0
H163 H 0.99759 0.22797 0.01455 0.0
H164 H 0.021 0.265 0.12564 0.0
H165 H 0.12294 0.29362 0.36533 0.0
H166 H 0.10486 0.33725 0.46934 0.0
H167 H 0.00841 0.34915 0.32604 0.0
H168 H 0.02707 0.30613 0.21991 0.0
H169 H 0.11039 0.19302 0.30642 0.0
H170 H 0.01534 0.25067 0.28711 0.0
O171 O 0.12914 0.25026 0.23809 0.0
H172 H 0.07877 0.14642 0.36439 0.0
H173 H 0.98328 0.20379 0.33605 0.0
C174 C 0.0734 0.24513 0.11753 0.0
C175 C 0.09482 0.22197 0.07211 0.0
C176 C 0.08113 0.19955 0.01106 0.0
C177 C 0.04556 0.20002 0.99243 0.0
C178 C 0.02489 0.22592 0.02935 0.0
C179 C 0.0386 0.24802 0.09173 0.0
C180 C 0.07646 0.29615 0.28409 0.0
C181 C 0.09833 0.30624 0.35383 0.0
C182 C 0.0878 0.33103 0.41436 0.0
C183 C 0.05488 0.34616 0.40737 0.0
C184 C 0.03396 0.33795 0.33342 0.0
C185 C 0.04464 0.31309 0.27242 0.0
C186 C 0.06535 0.22562 0.29442 0.0
C187 C 0.08279 0.19585 0.31602 0.0
C188 C 0.06446 0.16889 0.34698 0.0
C189 C 0.0282 0.17095 0.35403 0.0
C190 C 0.0111 0.20116 0.33346 0.0
C191 C 0.02953 0.22825 0.30533 0.0
P192 P 0.25057 0.14424 0.20854 0.0
H193 H 0.26535 0.15997 0.01833 0.0
H194 H 0.30253 0.13053 0.90859 0.0
H195 H 0.30734 0.04555 0.08439 0.0
H196 H 0.26933 0.07439 0.19227 0.0
H197 H 0.2101 0.1748 0.353 0.0
H198 H 0.1643 0.15426 0.45003 0.0
H199 H 0.15923 0.06686 0.28373 0.0
H200 H 0.20464 0.0877 0.18651 0.0
H201 H 0.32288 0.1609 0.19632 0.0
H202 H 0.25787 0.1086 0.38115 0.0
O203 O 0.24791 0.18412 0.18012 0.0
H204 H 0.37411 0.13506 0.26724 0.0
H205 H 0.30838 0.08327 0.45167 0.0
C206 C 0.26414 0.11928 0.11315 0.0
C207 C 0.273 0.13448 0.03139 0.0
C208 C 0.29454 0.11781 0.96919 0.0
C209 C 0.30804 0.08607 0.98914 0.0
C210 C 0.29734 0.0701 0.068 0.0
C211 C 0.27521 0.08643 0.12893 0.0
C212 C 0.21097 0.13272 0.26285 0.0
C213 C 0.1984 0.15167 0.33587 0.0
C214 C 0.17238 0.13983 0.3916 0.0
C215 C 0.15838 0.10879 0.37512 0.0
C216 C 0.16929 0.09097 0.29793 0.0
C217 C 0.1955 0.10278 0.2425 0.0
C218 C 0.28646 0.13708 0.2839 0.0
C219 C 0.31963 0.14504 0.25451 0.0
C220 C 0.34883 0.12983 0.29385 0.0
C221 C 0.34517 0.10682 0.36397 0.0
C222 C 0.31205 0.10103 0.39798 0.0
C223 C 0.28298 0.11584 0.35796 0.0
P224 P 0.42283 0.26258 0.22409 0.0
H225 H 0.39076 0.28952 0.06047 0.0
H226 H 0.41387 0.32773 0.9507 0.0
H227 H 0.51689 0.30407 0.04634 0.0
H228 H 0.49386 0.26514 0.15272 0.0
H229 H 0.39204 0.22774 0.37196 0.0
H230 H 0.41385 0.18465 0.47335 0.0
H231 H 0.5037 0.17045 0.30334 0.0
H232 H 0.48129 0.21344 0.20087 0.0
H233 H 0.39393 0.32743 0.27925 0.0
H234 H 0.48832 0.27001 0.31446 0.0
O235 O 0.37984 0.26553 0.22049 0.0
H236 H 0.42101 0.37533 0.34375 0.0
H237 H 0.51692 0.31787 0.36682 0.0
C238 C 0.44036 0.27412 0.11564 0.0
C239 C 0.41847 0.29117 0.05488 0.0
C240 C 0.43172 0.3137 0.99318 0.0
C241 C 0.46719 0.31992 0.99153 0.0
C242 C 0.48943 0.30009 0.04535 0.0
C243 C 0.47614 0.2773 0.10629 0.0
C244 C 0.43502 0.22405 0.27879 0.0
C245 C 0.4159 0.21464 0.35461 0.0
C246 C 0.42847 0.18996 0.4129 0.0
C247 C 0.46079 0.1744 0.39732 0.0
C248 C 0.47898 0.18241 0.31812 0.0
C249 C 0.46612 0.20697 0.25914 0.0
C250 C 0.43885 0.29494 0.2939 0.0
C251 C 0.42036 0.32502 0.30241 0.0
C252 C 0.43637 0.35275 0.33742 0.0
C253 C 0.47164 0.35124 0.36118 0.0
C254 C 0.48964 0.32059 0.35306 0.0
C255 C 0.47321 0.29276 0.32211 0.0
O256 O 0.06807 0.98492 0.86505 0.0
Mg257 Mg 0.07405 0.9821 0.72333 0.0
O258 O 0.01405 0.9833 0.82374 0.0
Mg259 Mg 0.00273 0.01522 0.69712 0.0
O260 O 0.05925 0.02392 0.65499 0.0
O261 O 0.11416 0.0062 0.66384 0.0
O262 O 0.99042 0.04697 0.57053 0.0
O263 O 0.00629 0.06383 0.78162 0.0
Mg264 Mg 0.9309 0.05457 0.70611 0.0
O265 O 0.94608 0.00717 0.73874 0.0
O266 O 0.93646 0.06607 0.56801 0.0
O267 O 0.95449 0.08811 0.79663 0.0
O268 O 0.89155 0.02571 0.7491 0.0
C269 C 0.02158 0.94056 0.61729 0.0
C270 C 0.03766 0.97629 0.88092 0.0
C271 C 0.09143 0.02739 0.63396 0.0
C272 C 0.96601 0.06331 0.5318 0.0
C273 C 0.9867 0.08725 0.81226 0.0
C274 C 0.91437 0.00234 0.76246 0.0
O275 O 0.05026 0.94115 0.65911 0.0
O276 O 1.00116 0.96602 0.61403 0.0
O277 O 0.40394 0.9998 0.71644 0.0
Mg278 Mg 0.43265 0.96643 0.62824 0.0
O279 O 0.44581 0.02914 0.77954 0.0
Mg280 Mg 0.49607 0.01284 0.70353 0.0
O281 O 0.47705 0.96135 0.69937 0.0
O282 O 0.44669 0.91773 0.67318 0.0
O283 O 0.54663 0.9954 0.6304 0.0
O284 O 0.5238 0.99756 0.83671 0.0
Mg285 Mg 0.55594 0.05899 0.78284 0.0
O286 O 0.51511 0.0651 0.70044 0.0
O287 O 0.5862 0.02172 0.71099 0.0
O288 O 0.53557 0.0433 0.90819 0.0
O289 O 0.5479 0.10703 0.72932 0.0
C290 C 0.45096 0.01853 0.50517 0.0
C291 C 0.41398 0.02191 0.77139 0.0
C292 C 0.4719 0.93071 0.71554 0.0
C293 C 0.57813 1.00022 0.65197 0.0
C294 C 0.53389 0.0121 0.90793 0.0
C295 C 0.52213 0.09554 0.68587 0.0
O296 O 0.44285 0.98846 0.4998 0.0
O297 O 0.46774 0.02849 0.57336 0.0
O298 O 0.55071 0.43308 0.77593 0.0
Mg299 Mg 0.57378 0.4691 0.69156 0.0
O300 O 0.5 0.45965 0.79066 0.0
Mg301 Mg 0.50201 0.50837 0.70636 0.0
O302 O 0.55942 0.51505 0.73842 0.0
O303 O 0.61405 0.49692 0.73629 0.0
O304 O 0.50366 0.55723 0.62335 0.0
O305 O 0.49542 0.5403 0.83599 0.0
Mg306 Mg 0.43899 0.54027 0.75012 0.0
O307 O 0.44412 0.50019 0.66631 0.0
O308 O 0.46046 0.58366 0.69321 0.0
O309 O 0.44417 0.53335 0.89099 0.0
O310 O 0.3936 0.52609 0.69744 0.0
C311 C 0.53333 0.46291 0.52838 0.0
C312 C 0.52005 0.43461 0.80661 0.0
C313 C 0.59152 0.5197 0.75772 0.0
C314 C 0.48605 0.58379 0.63947 0.0
C315 C 0.47382 0.5448 0.8999 0.0
C316 C 0.41078 0.50274 0.65638 0.0
O317 O 0.56469 0.46259 0.55223 0.0
O318 O 0.51025 0.47671 0.57792 0.0
O319 O 0.96244 0.47716 0.90711 0.0
Mg320 Mg 0.9493 0.4534 0.78376 0.0
O321 O 0.98054 0.52124 0.8346 0.0
Mg322 Mg 0.0085 0.5048 0.70364 0.0
O323 O 0.9932 0.45243 0.71446 0.0
O324 O 0.96787 0.40582 0.73882 0.0
O325 O 0.03649 0.48705 0.57616 0.0
O326 O 0.05938 0.49279 0.78035 0.0
Mg327 Mg 0.07043 0.55147 0.6186 0.0
O328 O 0.02538 0.55666 0.68805 0.0
O329 O 0.06349 0.52412 0.49566 0.0
O330 O 0.10048 0.52223 0.71439 0.0
O331 O 0.05372 0.60075 0.65402 0.0
C332 C 0.92583 0.50749 0.63929 0.0
C333 C 0.96753 0.50802 0.90454 0.0
C334 C 0.99181 0.42137 0.69831 0.0
C335 C 0.05392 0.49465 0.50676 0.0
C336 C 0.0909 0.501 0.77251 0.0
C337 C 0.02922 0.5878 0.69938 0.0
O338 O 0.91838 0.48431 0.69405 0.0
O339 O 0.95671 0.51748 0.62966 0.0
C340 C 0.14684 0.09278 0.53546 0.0
C341 C 0.13643 0.09295 0.44434 0.0
H342 H 0.14044 0.07167 0.66715 0.0
C343 C 0.10765 0.07468 0.41945 0.0
H344 H 0.1692 0.10614 0.55668 0.0
C345 C 0.09074 0.05542 0.48359 0.0
C346 C 0.10276 0.05369 0.57299 0.0
H347 H 0.09916 0.07423 0.34972 0.0
H348 H 0.07002 0.03997 0.4619 0.0
C349 C 0.13044 0.07304 0.59879 0.0
C350 C 0.51137 0.15604 0.49235 0.0
C351 C 0.4767 0.1525 0.46785 0.0
H352 H 0.5525 0.1412 0.58113 0.0
C353 C 0.45693 0.12983 0.51606 0.0
H354 H 0.52719 0.17374 0.45811 0.0
C355 C 0.47153 0.111 0.58675 0.0
C356 C 0.50601 0.11498 0.61157 0.0
H357 H 0.43009 0.12695 0.4994 0.0
H358 H 0.45573 0.09402 0.62357 0.0
C359 C 0.52574 0.1377 0.56373 0.0
C360 C 0.39019 0.43403 0.49022 0.0
C361 C 0.3571 0.4444 0.46105 0.0
H362 H 0.43376 0.44469 0.57421 0.0
C363 C 0.34166 0.47291 0.49918 0.0
H364 H 0.4025 0.41194 0.46241 0.0
C365 C 0.35895 0.49106 0.56392 0.0
C366 C 0.39245 0.48151 0.59159 0.0
H367 H 0.31597 0.48119 0.47898 0.0
H368 H 0.34614 0.51309 0.59091 0.0
C369 C 0.40798 0.45271 0.55421 0.0
C370 C 0.04641 0.3579 0.57273 0.0
C371 C 0.0412 0.36754 0.48205 0.0
H372 H 0.03475 0.36755 0.71246 0.0
C373 C 0.02141 0.3965 0.46418 0.0
H374 H 0.06088 0.33537 0.5889 0.0
C375 C 0.00703 0.41519 0.53542 0.0
C376 C 0.0118 0.40503 0.62551 0.0
H377 H 0.017 0.40463 0.39526 0.0
H378 H 0.99112 0.43692 0.51997 0.0
C379 C 0.03151 0.37625 0.64358 0.0
C380 C 0.85431 0.94352 0.86789 0.0
C381 C 0.87108 0.93628 0.95041 0.0
H382 H 0.8556 0.96954 0.74226 0.0
C383 C 0.9062 0.94407 0.95833 0.0
H384 H 0.82739 0.93834 0.85792 0.0
C385 C 0.92238 0.96251 0.89083 0.0
C386 C 0.90382 0.97311 0.81413 0.0
H387 H 0.92041 0.93823 0.01955 0.0
H388 H 0.94804 0.97127 0.90312 0.0
C389 C 0.87047 0.9617 0.80091 0.0
C390 C 0.49174 0.90996 0.95765 0.0
C391 C 0.49719 0.87556 0.95265 0.0
H392 H 0.47975 0.95455 0.88503 0.0
C393 C 0.50055 0.86053 0.86731 0.0
H394 H 0.48845 0.92197 0.02272 0.0
C395 C 0.49533 0.87916 0.78839 0.0
C396 C 0.48754 0.91321 0.79363 0.0
H397 H 0.50408 0.83395 0.86182 0.0
H398 H 0.49511 0.86661 0.72367 0.0
C399 C 0.48715 0.92866 0.87873 0.0
C400 C 0.59998 0.58015 0.9503 0.0
C401 C 0.6351 0.58788 0.94208 0.0
H402 H 0.55836 0.55212 0.89774 0.0
C403 C 0.65242 0.57868 0.86162 0.0
H404 H 0.58539 0.58735 0.00994 0.0
C405 C 0.6366 0.55921 0.79698 0.0
C406 C 0.60303 0.54837 0.81043 0.0
H407 H 0.6794 0.58362 0.85165 0.0
H408 H 0.65171 0.55043 0.73962 0.0
C409 C 0.58416 0.56039 0.88519 0.0
C410 C 0.01105 0.61045 0.94168 0.0
C411 C 0.00486 0.64475 0.93521 0.0
H412 H 0.0236 0.56555 0.87116 0.0
C413 C 1.00074 0.65903 0.84903 0.0
H414 H 0.01474 0.59889 0.0072 0.0
C415 C 0.00577 0.63983 0.77086 0.0
C416 C 0.01415 0.60592 0.77755 0.0
H417 H 0.99654 0.68548 0.84207 0.0
H418 H 0.00522 0.65187 0.7054 0.0
C419 C 0.01559 0.59124 0.86363 0.0
C420 C 0.02008 0.10949 0.36713 0.0
C421 C 0.00835 0.14214 0.38488 0.0
H422 H 0.01506 0.05809 0.39861 0.0
C423 C 0.97815 0.14711 0.43643 0.0
H424 H 0.04235 0.10456 0.32458 0.0
C425 C 0.96163 0.12044 0.47444 0.0
C426 C 0.97555 0.08822 0.46463 0.0
H427 H 0.96829 0.17167 0.45287 0.0
H428 H 0.93993 0.12555 0.51905 0.0
C429 C 0.0041 0.08278 0.40778 0.0
C430 C 0.37845 0.0816 0.49155 0.0
C431 C 0.37508 0.08698 0.39836 0.0
H432 H 0.4054 0.05596 0.59684 0.0
C433 C 0.39838 0.0707 0.3387 0.0
H434 H 0.36103 0.09384 0.5391 0.0
C435 C 0.42391 0.04855 0.37206 0.0
C436 C 0.42679 0.04317 0.4654 0.0
H437 H 0.3959 0.074 0.26626 0.0
H438 H 0.44093 0.03542 0.32537 0.0
C439 C 0.40399 0.06004 0.52453 0.0
C440 C 0.47744 0.41347 0.37439 0.0
C441 C 0.48975 0.38106 0.39433 0.0
H442 H 0.48157 0.46537 0.40192 0.0
C443 C 0.51948 0.37733 0.44853 0.0
H444 H 0.45533 0.4179 0.33114 0.0
C445 C 0.53588 0.40467 0.48264 0.0
C446 C 0.52217 0.43662 0.46776 0.0
H447 H 0.52955 0.35334 0.46931 0.0
H448 H 0.55762 0.40051 0.52766 0.0
C449 C 0.49299 0.44092 0.41275 0.0
C450 C 0.11111 0.4185 0.48423 0.0
C451 C 0.12281 0.42086 0.39511 0.0
H452 H 0.07976 0.43984 0.58833 0.0
C453 C 0.10869 0.44571 0.33836 0.0
H454 H 0.12194 0.3998 0.5293 0.0
C455 C 0.08466 0.46917 0.37235 0.0
C456 C 0.0739 0.46746 0.46276 0.0
H457 H 0.11799 0.44829 0.26966 0.0
H458 H 0.07558 0.48927 0.32934 0.0
C459 C 0.08685 0.44143 0.51758 0.0
C460 C 0.01212 0.89176 0.95103 0.0
C461 C 0.0353 0.88452 0.02183 0.0
H462 H 0.9938 0.92676 0.85392 0.0
C463 C 0.05607 0.90988 0.05441 0.0
H464 H 0.99618 0.87296 0.92235 0.0
C465 C 0.05527 0.94097 0.01298 0.0
C466 C 0.03302 0.94749 0.93998 0.0
H467 H 0.07356 0.90558 0.11047 0.0
H468 H 0.07292 0.95945 0.03569 0.0
C469 C 0.01065 0.92292 0.91162 0.0
C470 C 0.60729 0.9562 0.97974 0.0
C471 C 0.6192 0.97357 0.05521 0.0
H472 H 0.56949 0.95408 0.87515 0.0
C473 C 0.59766 0.9983 0.09411 0.0
H474 H 0.62311 0.93686 0.9485 0.0
C475 C 0.56706 0.00844 0.0516 0.0
C476 C 0.55725 0.99374 0.97005 0.0
H477 H 0.60554 0.0113 0.15435 0.0
H478 H 0.55258 0.02956 0.07847 0.0
C479 C 0.57637 0.96603 0.9379 0.0
C480 C 0.49385 0.63144 0.96471 0.0
C481 C 0.47219 0.637 0.0398 0.0
H482 H 0.5124 0.59775 0.86447 0.0
C483 C 0.45467 0.61007 0.07638 0.0
H484 H 0.50726 0.65141 0.93292 0.0
C485 C 0.45698 0.579 0.03496 0.0
C486 C 0.47758 0.57408 0.95781 0.0
H487 H 0.4385 0.61308 0.13568 0.0
H488 H 0.44168 0.55919 0.06109 0.0
C489 C 0.4969 0.60035 0.9252 0.0
C490 C 0.89938 0.56939 0.97443 0.0
C491 C 0.88645 0.55323 0.05067 0.0
H492 H 0.93713 0.56821 0.8691 0.0
C493 C 0.90685 0.52826 0.09229 0.0
H494 H 0.88447 0.589 0.94157 0.0
C495 C 0.93681 0.51608 0.05041 0.0
C496 C 0.94702 0.52904 0.96702 0.0
H497 H 0.89812 0.51624 0.15326 0.0
H498 H 0.95 0.49447 0.0786 0.0
C499 C 0.92974 0.55753 0.9332 0.0
C500 C 0.99679 0.16112 0.96662 0.0
C501 C 0.02987 0.17185 0.9431 0.0
H502 H 0.95731 0.12612 0.94395 0.0
C503 C 0.04861 0.15386 0.87671 0.0
H504 H 0.98175 0.17351 0.01893 0.0
C505 C 0.03502 0.12579 0.83656 0.0
C506 C 1.00199 0.11542 0.85993 0.0
H507 H 0.07381 0.16147 0.8551 0.0
H508 H 0.05007 0.11268 0.7854 0.0
C509 C 0.98288 0.13355 0.92469 0.0
C510 C 0.36833 0.0639 0.96869 0.0
C511 C 0.33542 0.07066 0.93217 0.0
H512 H 0.41943 0.04377 0.94545 0.0
C513 C 0.32892 0.0625 0.84179 0.0
H514 H 0.37389 0.07027 0.03826 0.0
C515 C 0.35463 0.04679 0.7895 0.0
C516 C 0.38753 0.03978 0.82606 0.0
H517 H 0.30376 0.06765 0.81236 0.0
H518 H 0.34883 0.0402 0.72024 0.0
C519 C 0.39434 0.04897 0.91567 0.0
C520 C 0.51321 0.34775 0.90093 0.0
C521 C 0.48043 0.349 0.94162 0.0
H522 H 0.55149 0.37363 0.82766 0.0
C523 C 0.46107 0.37903 0.93899 0.0
H524 H 0.52878 0.32509 0.90088 0.0
C525 C 0.47401 0.40691 0.89633 0.0
C526 C 0.50679 0.40563 0.85586 0.0
H527 H 0.43609 0.38129 0.9715 0.0
H528 H 0.45832 0.42951 0.89538 0.0
C529 C 0.52625 0.3757 0.85889 0.0
C530 C 0.1337 0.45912 0.97393 0.0
C531 C 0.16787 0.45478 0.94351 0.0
H532 H 0.08238 0.47675 0.94303 0.0
C533 C 0.17653 0.46532 0.85629 0.0
H534 H 0.12642 0.45093 0.04088 0.0
C535 C 0.15154 0.48067 0.80104 0.0
C536 C 0.11729 0.48498 0.83132 0.0
H537 H 0.20272 0.46217 0.83156 0.0
H538 H 0.15892 0.48882 0.73417 0.0
C539 C 0.10854 0.47374 0.91796 0.0
C540 C 0.01708 0.84881 0.57669 0.0
C541 C 0.00446 0.84736 0.4877 0.0
H542 H 0.03242 0.87943 0.68655 0.0
C543 C 0.99319 0.8771 0.44574 0.0
H544 H 0.0252 0.8265 0.61214 0.0
C545 C 0.99672 0.90762 0.48957 0.0
C546 C 0.01207 0.90891 0.57538 0.0
H547 H 0.98362 0.87706 0.37696 0.0
H548 H 0.98944 0.9302 0.45421 0.0
C549 C 0.02118 0.87918 0.61947 0.0
C550 C 0.6318 0.95225 0.47812 0.0
C551 C 0.66444 0.95106 0.52012 0.0
H552 H 0.57871 0.96879 0.48669 0.0
C553 C 0.66713 0.96262 0.6093 0.0
H554 H 0.62887 0.94388 0.40904 0.0
C555 C 0.63864 0.97733 0.65285 0.0
C556 C 0.60661 0.98067 0.60868 0.0
H557 H 0.6917 0.96158 0.6441 0.0
H558 H 0.64202 0.987 0.7205 0.0
C559 C 0.6031 0.9668 0.5222 0.0
C560 C 0.4898 0.67555 0.5971 0.0
C561 C 0.50095 0.67674 0.50671 0.0
H562 H 0.47636 0.64523 0.70937 0.0
C563 C 0.51144 0.64693 0.46395 0.0
H564 H 0.48225 0.69797 0.63288 0.0
C565 C 0.50855 0.61656 0.50858 0.0
C566 C 0.49465 0.61545 0.59619 0.0
H567 H 0.51985 0.6468 0.39407 0.0
H568 H 0.51519 0.59392 0.47265 0.0
C569 C 0.48642 0.64529 0.64095 0.0
C570 C 0.84034 0.5199 0.52039 0.0
C571 C 0.83859 0.55425 0.50446 0.0
H572 H 0.869 0.47854 0.5747 0.0
C573 C 0.86707 0.57297 0.53015 0.0
H574 H 0.81993 0.50411 0.49872 0.0
C575 C 0.89615 0.55774 0.57093 0.0
C576 C 0.89709 0.52361 0.5884 0.0
H577 H 0.8669 0.59943 0.51977 0.0
H578 H 0.91741 0.5728 0.59122 0.0
C579 C 0.86888 0.50495 0.56273 0.0
loop_
_geom_bond_atom_site_label_1
_geom_bond_atom_site_label_2
_geom_bond_distance
_geom_bond_site_symmetry_2
_ccdc_geom_bond_type
P0 O11 1.490 . S
P0 C14 1.812 . S
P0 C20 1.803 . S
P0 C26 1.819 . S
H1 C15 0.941 . S
H2 C16 0.939 . S
H3 C18 0.940 . S
H4 C19 0.940 . S
H5 C21 0.939 . S
H6 C22 0.942 . S
H7 C24 0.940 . S
H8 C25 0.939 . S
H9 C27 0.941 . S
H10 C31 0.939 . S
O11 P0 1.490 . S
H12 C28 0.939 . S
H13 C30 0.940 . S
C14 P0 1.812 . S
C14 C15 1.389 . S
C14 C19 1.391 . S
C15 H1 0.941 . S
C15 C14 1.389 . S
C15 C16 1.397 . S
C16 H2 0.939 . S
C16 C15 1.397 . S
C16 C17 1.378 . S
C17 C16 1.378 . S
C17 C18 1.378 . S
C18 H3 0.940 . S
C18 C17 1.378 . S
C18 C19 1.396 . S
C19 H4 0.940 . S
C19 C14 1.391 . S
C19 C18 1.396 . S
C20 P0 1.803 . S
C20 C21 1.378 . S
C20 C25 1.400 . S
C21 H5 0.939 . S
C21 C20 1.378 . S
C21 C22 1.361 1_554 S
C22 H6 0.942 . S
C22 C21 1.361 1_556 S
C22 C23 1.369 1_556 S
C23 C22 1.369 1_554 S
C23 C24 1.404 . S
C24 H7 0.940 . S
C24 C23 1.404 . S
C24 C25 1.389 . S
C25 H8 0.939 . S
C25 C20 1.400 . S
C25 C24 1.389 . S
C26 P0 1.819 . S
C26 C27 1.391 . S
C26 C31 1.391 1_554 S
C27 H9 0.941 . S
C27 C26 1.391 . S
C27 C28 1.396 1_554 S
C28 H12 0.939 . S
C28 C27 1.396 1_556 S
C28 C29 1.397 . S
C29 C28 1.397 . S
C29 C30 1.385 . S
C30 H13 0.940 . S
C30 C29 1.385 . S
C30 C31 1.388 . S
C31 H10 0.939 . S
C31 C26 1.391 1_556 S
C31 C30 1.388 . S
P32 O43 1.490 . S
P32 C46 1.812 . S
P32 C52 1.803 . S
P32 C58 1.819 . S
H33 C47 0.941 . S
H34 C48 0.939 . S
H35 C50 0.940 . S
H36 C51 0.950 . S
H37 C53 0.939 . S
H38 C54 0.942 1_556 S
H39 C56 0.940 . S
H40 C57 0.939 . S
H41 C59 0.941 . S
H42 C63 0.928 1_655 S
O43 P32 1.490 . S
H44 C60 0.939 . S
H45 C62 0.940 . S
C46 P32 1.812 . S
C46 C47 1.389 . S
C46 C51 1.376 1_455 S
C47 H33 0.941 . S
C47 C46 1.389 . S
C47 C48 1.397 . S
C48 H34 0.939 . S
C48 C47 1.397 . S
C48 C49 1.378 . S
C49 C48 1.378 . S
C49 C50 1.378 1_455 S
C50 H35 0.940 . S
C50 C49 1.378 1_655 S
C50 C51 1.402 . S
C51 H36 0.950 . S
C51 C46 1.376 1_655 S
C51 C50 1.402 . S
C52 P32 1.803 . S
C52 C53 1.378 . S
C52 C57 1.400 1_455 S
C53 H37 0.939 . S
C53 C52 1.378 . S
C53 C54 1.361 . S
C54 H38 0.942 1_554 S
C54 C53 1.361 . S
C54 C55 1.369 . S
C55 C54 1.369 . S
C55 C56 1.404 1_455 S
C56 H39 0.940 . S
C56 C55 1.404 1_655 S
C56 C57 1.389 . S
C57 H40 0.939 . S
C57 C52 1.400 1_655 S
C57 C56 1.389 . S
C58 P32 1.819 . S
C58 C59 1.391 . S
C58 C63 1.391 1_554 S
C59 H41 0.941 . S
C59 C58 1.391 . S
C59 C60 1.396 1_554 S
C60 H44 0.939 . S
C60 C59 1.396 1_556 S
C60 C61 1.397 . S
C61 C60 1.397 . S
C61 C62 1.385 1_455 S
C62 H45 0.940 . S
C62 C61 1.385 1_655 S
C62 C63 1.388 1_655 S
C63 H42 0.928 1_455 S
C63 C58 1.391 1_556 S
C63 C62 1.388 1_455 S
P64 O75 1.507 . S
P64 C78 1.812 . S
P64 C84 1.803 . S
P64 C90 1.819 . S
H65 C79 0.941 . S
H66 C80 0.939 . S
H67 C82 0.940 . S
H68 C83 0.940 . S
H69 C85 0.939 . S
H70 C86 0.942 1_556 S
H71 C88 0.940 . S
H72 C89 0.939 . S
H73 C91 0.941 . S
H74 C95 0.939 . S
O75 P64 1.507 . S
H76 C92 0.939 . S
H77 C94 0.940 . S
C78 P64 1.812 . S
C78 C79 1.389 . S
C78 C83 1.391 . S
C79 H65 0.941 . S
C79 C78 1.389 . S
C79 C80 1.397 . S
C80 H66 0.939 . S
C80 C79 1.397 . S
C80 C81 1.378 . S
C81 C80 1.378 . S
C81 C82 1.378 . S
C82 H67 0.940 . S
C82 C81 1.378 . S
C82 C83 1.396 . S
C83 H68 0.940 . S
C83 C78 1.391 . S
C83 C82 1.396 . S
C84 P64 1.803 . S
C84 C85 1.378 . S
C84 C89 1.400 . S
C85 H69 0.939 . S
C85 C84 1.378 . S
C85 C86 1.361 . S
C86 H70 0.942 1_554 S
C86 C85 1.361 . S
C86 C87 1.369 . S
C87 C86 1.369 . S
C87 C88 1.404 . S
C88 H71 0.940 . S
C88 C87 1.404 . S
C88 C89 1.389 . S
C89 H72 0.939 . S
C89 C84 1.400 . S
C89 C88 1.389 . S
C90 P64 1.819 . S
C90 C91 1.391 . S
C90 C95 1.391 1_554 S
C91 H73 0.941 . S
C91 C90 1.391 . S
C91 C92 1.396 1_554 S
C92 H76 0.939 . S
C92 C91 1.396 1_556 S
C92 C93 1.397 . S
C93 C92 1.397 . S
C93 C94 1.385 . S
C94 H77 0.940 . S
C94 C93 1.385 . S
C94 C95 1.388 . S
C95 H74 0.939 . S
C95 C90 1.391 1_556 S
C95 C94 1.388 . S
P96 O107 1.490 . S
P96 C110 1.812 . S
P96 C116 1.803 . S
P96 C122 1.819 . S
H97 C111 0.941 . S
H98 C112 0.939 . S
H99 C114 0.940 . S
H100 C115 0.940 . S
H101 C117 0.939 . S
H102 C118 0.942 1_556 S
H103 C120 0.940 . S
H104 C121 0.939 . S
H105 C123 0.941 . S
H106 C127 0.939 . S
O107 P96 1.490 . S
H108 C124 0.939 . S
H109 C126 0.940 . S
C110 P96 1.812 . S
C110 C111 1.389 . S
C110 C115 1.391 . S
C111 H97 0.941 . S
C111 C110 1.389 . S
C111 C112 1.397 . S
C112 H98 0.939 . S
C112 C111 1.397 . S
C112 C113 1.378 . S
C113 C112 1.378 . S
C113 C114 1.378 . S
C114 H99 0.940 . S
C114 C113 1.378 . S
C114 C115 1.396 . S
C115 H100 0.940 . S
C115 C110 1.391 . S
C115 C114 1.396 . S
C116 P96 1.803 . S
C116 C117 1.378 . S
C116 C121 1.400 . S
C117 H101 0.939 . S
C117 C116 1.378 . S
C117 C118 1.361 . S
C118 H102 0.942 1_554 S
C118 C117 1.361 . S
C118 C119 1.369 . S
C119 C118 1.369 . S
C119 C120 1.404 . S
C120 H103 0.940 . S
C120 C119 1.404 . S
C120 C121 1.389 . S
C121 H104 0.939 . S
C121 C116 1.400 . S
C121 C120 1.389 . S
C122 P96 1.819 . S
C122 C123 1.391 . S
C122 C127 1.391 1_554 S
C123 H105 0.941 . S
C123 C122 1.391 . S
C123 C124 1.396 1_554 S
C124 H108 0.939 . S
C124 C123 1.396 1_556 S
C124 C125 1.397 . S
C125 C124 1.397 . S
C125 C126 1.385 . S
C126 H109 0.940 . S
C126 C125 1.385 . S
C126 C127 1.388 . S
C127 H106 0.939 . S
C127 C122 1.391 1_556 S
C127 C126 1.388 . S
P128 O139 1.490 . S
P128 C142 1.812 . S
P128 C148 1.803 . S
P128 C154 1.819 . S
H129 C143 0.941 . S
H130 C144 0.939 . S
H131 C146 0.940 . S
H132 C147 0.940 . S
H133 C149 0.939 . S
H134 C150 0.942 . S
H135 C152 0.940 . S
H136 C153 0.939 . S
H137 C155 0.941 . S
H138 C159 0.939 . S
O139 P128 1.490 . S
H140 C156 0.939 . S
H141 C158 0.940 . S
C142 P128 1.812 . S
C142 C143 1.389 . S
C142 C147 1.391 . S
C143 H129 0.941 . S
C143 C142 1.389 . S
C143 C144 1.397 . S
C144 H130 0.939 . S
C144 C143 1.397 . S
C144 C145 1.378 . S
C145 C144 1.378 . S
C145 C146 1.378 . S
C146 H131 0.940 . S
C146 C145 1.378 . S
C146 C147 1.396 . S
C147 H132 0.940 . S
C147 C142 1.391 . S
C147 C146 1.396 . S
C148 P128 1.803 . S
C148 C149 1.378 . S
C148 C153 1.400 . S
C149 H133 0.939 . S
C149 C148 1.378 . S
C149 C150 1.361 . S
C150 H134 0.942 . S
C150 C149 1.361 . S
C150 C151 1.369 . S
C151 C150 1.369 . S
C151 C152 1.404 . S
C152 H135 0.940 . S
C152 C151 1.404 . S
C152 C153 1.389 . S
C153 H136 0.939 . S
C153 C148 1.400 . S
C153 C152 1.389 . S
C154 P128 1.819 . S
C154 C155 1.391 . S
C154 C159 1.391 . S
C155 H137 0.941 . S
C155 C154 1.391 . S
C155 C156 1.396 . S
C156 H140 0.939 . S
C156 C155 1.396 . S
C156 C157 1.397 . S
C157 C156 1.397 . S
C157 C158 1.385 . S
C158 H141 0.940 . S
C158 C157 1.385 . S
C158 C159 1.388 . S
C159 H138 0.939 . S
C159 C154 1.391 . S
C159 C158 1.388 . S
P160 O171 1.490 . S
P160 C174 1.812 . S
P160 C180 1.803 . S
P160 C186 1.819 . S
H161 C175 0.941 . S
H162 C176 0.939 1_556 S
H163 C178 0.940 . S
H164 C179 0.945 . S
H165 C181 0.939 . S
H166 C182 0.942 . S
H167 C184 0.940 . S
H168 C185 0.956 . S
H169 C187 0.941 . S
H170 C191 0.932 1_655 S
O171 P160 1.490 . S
H172 C188 0.939 . S
H173 C190 0.940 . S
C174 P160 1.812 . S
C174 C175 1.389 . S
C174 C179 1.382 1_455 S
C175 H161 0.941 . S
C175 C174 1.389 . S
C175 C176 1.397 . S
C176 H162 0.939 1_554 S
C176 C175 1.397 . S
C176 C177 1.378 . S
C177 C176 1.378 . S
C177 C178 1.378 1_455 S
C178 H163 0.940 . S
C178 C177 1.378 1_655 S
C178 C179 1.400 . S
C179 H164 0.945 . S
C179 C174 1.382 1_655 S
C179 C178 1.400 . S
C180 P160 1.803 . S
C180 C181 1.378 . S
C180 C185 1.375 1_455 S
C181 H165 0.939 . S
C181 C180 1.378 . S
C181 C182 1.361 . S
C182 H166 0.942 . S
C182 C181 1.361 . S
C182 C183 1.369 . S
C183 C182 1.369 . S
C183 C184 1.404 1_455 S
C184 H167 0.940 . S
C184 C183 1.404 1_655 S
C184 C185 1.399 . S
C185 H168 0.956 . S
C185 C180 1.375 1_655 S
C185 C184 1.399 . S
C186 P160 1.819 . S
C186 C187 1.391 . S
C186 C191 1.391 . S
C187 H169 0.941 . S
C187 C186 1.391 . S
C187 C188 1.396 . S
C188 H172 0.939 . S
C188 C187 1.396 . S
C188 C189 1.397 . S
C189 C188 1.397 . S
C189 C190 1.385 1_455 S
C190 H173 0.940 . S
C190 C189 1.385 1_655 S
C190 C191 1.388 1_655 S
C191 H170 0.932 1_455 S
C191 C186 1.391 . S
C191 C190 1.388 1_455 S
P192 O203 1.490 . S
P192 C206 1.812 . S
P192 C212 1.803 . S
P192 C218 1.819 . S
H193 C207 0.941 . S
H194 C208 0.939 . S
H195 C210 0.940 . S
H196 C211 0.940 . S
H197 C213 0.939 . S
H198 C214 0.942 . S
H199 C216 0.940 . S
H200 C217 0.939 . S
H201 C219 0.941 . S
H202 C223 0.939 . S
O203 P192 1.490 . S
H204 C220 0.939 . S
H205 C222 0.940 . S
C206 P192 1.812 . S
C206 C207 1.389 . S
C206 C211 1.391 . S
C207 H193 0.941 . S
C207 C206 1.389 . S
C207 C208 1.397 . S
C208 H194 0.939 . S
C208 C207 1.397 . S
C208 C209 1.378 . S
C209 C208 1.378 . S
C209 C210 1.378 . S
C210 H195 0.940 . S
C210 C209 1.378 . S
C210 C211 1.396 . S
C211 H196 0.940 . S
C211 C206 1.391 . S
C211 C210 1.396 . S
C212 P192 1.803 . S
C212 C213 1.378 . S
C212 C217 1.400 . S
C213 H197 0.939 . S
C213 C212 1.378 . S
C213 C214 1.361 . S
C214 H198 0.942 . S
C214 C213 1.361 . S
C214 C215 1.369 . S
C215 C214 1.369 . S
C215 C216 1.404 . S
C216 H199 0.940 . S
C216 C215 1.404 . S
C216 C217 1.389 . S
C217 H200 0.939 . S
C217 C212 1.400 . S
C217 C216 1.389 . S
C218 P192 1.819 . S
C218 C219 1.391 . S
C218 C223 1.391 . S
C219 H201 0.941 . S
C219 C218 1.391 . S
C219 C220 1.396 . S
C220 H204 0.939 . S
C220 C219 1.396 . S
C220 C221 1.397 . S
C221 C220 1.397 . S
C221 C222 1.385 . S
C222 H205 0.940 . S
C222 C221 1.385 . S
C222 C223 1.388 . S
C223 H202 0.939 . S
C223 C218 1.391 . S
C223 C222 1.388 . S
P224 O235 1.490 . S
P224 C238 1.812 . S
P224 C244 1.803 . S
P224 C250 1.819 . S
H225 C239 0.941 . S
H226 C240 0.939 1_556 S
H227 C242 0.940 . S
H228 C243 0.940 . S
H229 C245 0.939 . S
H230 C246 0.942 . S
H231 C248 0.940 . S
H232 C249 0.939 . S
H233 C251 0.941 . S
H234 C255 0.939 . S
O235 P224 1.490 . S
H236 C252 0.939 . S
H237 C254 0.940 . S
C238 P224 1.812 . S
C238 C239 1.389 . S
C238 C243 1.391 . S
C239 H225 0.941 . S
C239 C238 1.389 . S
C239 C240 1.397 . S
C240 H226 0.939 1_554 S
C240 C239 1.397 . S
C240 C241 1.378 . S
C241 C240 1.378 . S
C241 C242 1.378 . S
C242 H227 0.940 . S
C242 C241 1.378 . S
C242 C243 1.396 . S
C243 H228 0.940 . S
C243 C238 1.391 . S
C243 C242 1.396 . S
C244 P224 1.803 . S
C244 C245 1.378 . S
C244 C249 1.400 . S
C245 H229 0.939 . S
C245 C244 1.378 . S
C245 C246 1.361 . S
C246 H230 0.942 . S
C246 C245 1.361 . S
C246 C247 1.369 . S
C247 C246 1.369 . S
C247 C248 1.404 . S
C248 H231 0.940 . S
C248 C247 1.404 . S
C248 C249 1.389 . S
C249 H232 0.939 . S
C249 C244 1.400 . S
C249 C248 1.389 . S
C250 P224 1.819 . S
C250 C251 1.391 . S
C250 C255 1.391 . S
C251 H233 0.941 . S
C251 C250 1.391 . S
C251 C252 1.396 . S
C252 H236 0.939 . S
C252 C251 1.396 . S
C252 C253 1.397 . S
C253 C252 1.397 . S
C253 C254 1.385 . S
C254 H237 0.940 . S
C254 C253 1.385 . S
C254 C255 1.388 . S
C255 H234 0.939 . S
C255 C250 1.391 . S
C255 C254 1.388 . S
O256 Mg257 1.990 . S
O256 C270 1.253 . S
Mg257 O256 1.990 . S
Mg257 O260 2.180 1_565 S
Mg257 O261 2.117 . S
Mg257 O275 2.030 . S
O258 Mg259 2.072 1_465 S
O258 C270 1.260 . S
Mg259 O258 2.072 1_645 S
Mg259 O260 2.099 1_655 S
Mg259 O262 2.079 . S
Mg259 O263 2.072 1_655 S
Mg259 O265 2.099 . S
Mg259 O276 2.079 1_545 S
O260 Mg257 2.180 1_545 S
O260 Mg259 2.099 1_455 S
O260 C271 1.279 . S
O261 Mg257 2.117 . S
O261 C271 1.250 1_565 S
O262 Mg259 2.079 . S
O262 C272 1.264 . S
O263 Mg259 2.072 1_455 S
O263 C273 1.260 . S
Mg264 O265 2.180 . S
Mg264 O266 2.030 . S
Mg264 O267 1.990 . S
Mg264 O268 2.117 . S
O265 Mg259 2.099 . S
O265 Mg264 2.180 . S
O265 C274 1.279 . S
O266 Mg264 2.030 . S
O266 C272 1.248 . S
O267 Mg264 1.990 . S
O267 C273 1.253 1_655 S
O268 Mg264 2.117 . S
O268 C274 1.250 . S
C269 O275 1.248 1_655 S
C269 O276 1.264 . S
C270 O256 1.253 . S
C270 O258 1.260 . S
C271 O260 1.279 . S
C271 O261 1.250 1_545 S
C272 O262 1.264 . S
C272 O266 1.248 . S
C273 O263 1.260 . S
C273 O267 1.253 1_455 S
C274 O265 1.279 . S
C274 O268 1.250 . S
O275 Mg257 2.030 . S
O275 C269 1.248 1_455 S
O276 Mg259 2.079 1_565 S
O276 C269 1.264 . S
O277 Mg278 1.990 1_545 S
O277 C291 1.253 . S
Mg278 O277 1.990 1_565 S
Mg278 O281 2.180 . S
Mg278 O282 2.117 . S
Mg278 O296 2.030 1_565 S
O279 Mg280 2.072 . S
O279 C291 1.260 . S
Mg280 O279 2.072 . S
Mg280 O281 2.099 1_545 S
Mg280 O283 2.079 1_545 S
Mg280 O284 2.072 1_545 S
Mg280 O286 2.099 . S
Mg280 O297 2.079 . S
O281 Mg278 2.180 . S
O281 Mg280 2.099 1_565 S
O281 C292 1.279 . S
O282 Mg278 2.117 . S
O282 C292 1.250 . S
O283 Mg280 2.079 1_565 S
O283 C293 1.264 . S
O284 Mg280 2.072 1_565 S
O284 C294 1.260 1_565 S
Mg285 O286 2.180 . S
Mg285 O287 2.027 1_545 S
Mg285 O288 1.990 . S
Mg285 O289 2.117 . S
O286 Mg280 2.099 . S
O286 Mg285 2.180 . S
O286 C295 1.279 . S
O287 Mg285 2.027 1_565 S
O287 C293 1.249 . S
O288 Mg285 1.990 . S
O288 C294 1.253 . S
O289 Mg285 2.117 . S
O289 C295 1.250 . S
C290 O296 1.248 . S
C290 O297 1.264 . S
C291 O277 1.253 . S
C291 O279 1.260 . S
C292 O281 1.279 . S
C292 O282 1.250 . S
C293 O283 1.264 . S
C293 O287 1.249 . S
C294 O284 1.260 1_545 S
C294 O288 1.253 . S
C295 O286 1.279 . S
C295 O289 1.250 . S
O296 Mg278 2.030 1_545 S
O296 C290 1.248 . S
O297 Mg280 2.079 . S
O297 C290 1.264 . S
O298 Mg299 1.990 . S
O298 C312 1.253 . S
Mg299 O298 1.990 . S
Mg299 O302 2.180 . S
Mg299 O303 2.117 . S
Mg299 O317 2.030 . S
O300 Mg301 2.072 . S
O300 C312 1.260 . S
Mg301 O300 2.072 . S
Mg301 O302 2.099 . S
Mg301 O304 2.079 . S
Mg301 O305 2.072 . S
Mg301 O307 2.099 . S
Mg301 O318 2.079 . S
O302 Mg299 2.180 . S
O302 Mg301 2.099 . S
O302 C313 1.279 . S
O303 Mg299 2.117 . S
O303 C313 1.250 . S
O304 Mg301 2.079 . S
O304 C314 1.264 . S
O305 Mg301 2.072 . S
O305 C315 1.260 . S
Mg306 O307 2.180 . S
Mg306 O308 2.030 . S
Mg306 O309 1.990 . S
Mg306 O310 2.117 . S
O307 Mg301 2.099 . S
O307 Mg306 2.180 . S
O307 C316 1.279 . S
O308 Mg306 2.030 . S
O308 C314 1.248 . S
O309 Mg306 1.990 . S
O309 C315 1.253 . S
O310 Mg306 2.117 . S
O310 C316 1.250 . S
C311 O317 1.248 . S
C311 O318 1.264 . S
C312 O298 1.253 . S
C312 O300 1.260 . S
C313 O302 1.279 . S
C313 O303 1.250 . S
C314 O304 1.264 . S
C314 O308 1.248 . S
C315 O305 1.260 . S
C315 O309 1.253 . S
C316 O307 1.279 . S
C316 O310 1.250 . S
O317 Mg299 2.030 . S
O317 C311 1.248 . S
O318 Mg301 2.079 . S
O318 C311 1.264 . S
O319 Mg320 1.990 . S
O319 C333 1.253 . S
Mg320 O319 1.990 . S
Mg320 O323 2.180 . S
Mg320 O324 2.117 . S
Mg320 O338 2.030 . S
O321 Mg322 2.072 1_655 S
O321 C333 1.260 . S
Mg322 O321 2.072 1_455 S
Mg322 O323 2.099 1_455 S
Mg322 O325 2.079 . S
Mg322 O326 2.072 . S
Mg322 O328 2.099 . S
Mg322 O339 2.079 1_455 S
O323 Mg320 2.180 . S
O323 Mg322 2.099 1_655 S
O323 C334 1.279 . S
O324 Mg320 2.117 . S
O324 C334 1.250 . S
O325 Mg322 2.079 . S
O325 C335 1.264 . S
O326 Mg322 2.072 . S
O326 C336 1.260 . S
Mg327 O328 2.180 . S
Mg327 O329 2.030 . S
Mg327 O330 1.990 . S
Mg327 O331 2.117 . S
O328 Mg322 2.099 . S
O328 Mg327 2.180 . S
O328 C337 1.279 . S
O329 Mg327 2.030 . S
O329 C335 1.248 . S
O330 Mg327 1.990 . S
O330 C336 1.253 . S
O331 Mg327 2.117 . S
O331 C337 1.250 . S
C332 O338 1.248 . S
C332 O339 1.264 . S
C333 O319 1.253 . S
C333 O321 1.260 . S
C334 O323 1.279 . S
C334 O324 1.250 . S
C335 O325 1.264 . S
C335 O329 1.248 . S
C336 O326 1.260 . S
C336 O330 1.253 . S
C337 O328 1.279 . S
C337 O331 1.250 . S
O338 Mg320 2.030 . S
O338 C332 1.248 . S
O339 Mg322 2.079 1_655 S
O339 C332 1.264 . S
C340 C341 1.387 . S
C340 H344 0.950 . S
C340 C349 1.390 . S
C341 C340 1.387 . S
C341 C343 1.387 . S
H342 C349 0.950 . S
C343 C341 1.387 . S
C343 C345 1.390 . S
C343 H347 0.950 . S
H344 C340 0.950 . S
C345 C343 1.390 . S
C345 C346 1.387 . S
C345 H348 0.950 . S
C346 C345 1.387 . S
C346 C349 1.387 . S
H347 C343 0.950 . S
H348 C345 0.950 . S
C349 C340 1.390 . S
C349 H342 0.950 . S
C349 C346 1.387 . S
C350 C351 1.387 . S
C350 H354 0.950 . S
C350 C359 1.390 . S
C351 C350 1.387 . S
C351 C353 1.387 . S
H352 C359 0.950 . S
C353 C351 1.387 . S
C353 C355 1.390 . S
C353 H357 0.950 . S
H354 C350 0.950 . S
C355 C353 1.390 . S
C355 C356 1.387 . S
C355 H358 0.950 . S
C356 C355 1.387 . S
C356 C359 1.387 . S
H357 C353 0.950 . S
H358 C355 0.950 . S
C359 C350 1.390 . S
C359 H352 0.950 . S
C359 C356 1.387 . S
C360 C361 1.387 . S
C360 H364 0.950 . S
C360 C369 1.390 . S
C361 C360 1.387 . S
C361 C363 1.387 . S
H362 C369 0.950 . S
C363 C361 1.387 . S
C363 C365 1.390 . S
C363 H367 0.950 . S
H364 C360 0.950 . S
C365 C363 1.390 . S
C365 C366 1.387 . S
C365 H368 0.950 . S
C366 C365 1.387 . S
C366 C369 1.387 . S
H367 C363 0.950 . S
H368 C365 0.950 . S
C369 C360 1.390 . S
C369 H362 0.950 . S
C369 C366 1.387 . S
C370 C371 1.387 1_455 S
C370 H374 0.950 . S
C370 C379 1.390 . S
C371 C370 1.387 1_655 S
C371 C373 1.387 . S
H372 C379 0.950 . S
C373 C371 1.387 . S
C373 C375 1.390 . S
C373 H377 0.950 . S
H374 C370 0.950 . S
C375 C373 1.390 . S
C375 C376 1.387 . S
C375 H378 0.950 . S
C376 C375 1.387 . S
C376 C379 1.387 1_655 S
H377 C373 0.950 . S
H378 C375 0.950 . S
C379 C370 1.390 . S
C379 H372 0.950 . S
C379 C376 1.387 1_455 S
C380 C381 1.387 . S
C380 H384 0.950 . S
C380 C389 1.390 . S
C381 C380 1.387 . S
C381 C383 1.387 . S
H382 C389 0.950 . S
C383 C381 1.387 . S
C383 C385 1.390 . S
C383 H387 0.950 1_556 S
H384 C380 0.950 . S
C385 C383 1.390 . S
C385 C386 1.387 . S
C385 H388 0.950 . S
C386 C385 1.387 . S
C386 C389 1.387 . S
H387 C383 0.950 1_554 S
H388 C385 0.950 . S
C389 C380 1.390 . S
C389 H382 0.950 . S
C389 C386 1.387 . S
C390 C391 1.387 1_554 S
C390 H394 0.950 . S
C390 C399 1.390 1_554 S
C391 C390 1.387 1_556 S
C391 C393 1.387 . S
H392 C399 0.950 . S
C393 C391 1.387 . S
C393 C395 1.390 . S
C393 H397 0.950 . S
H394 C390 0.950 . S
C395 C393 1.390 . S
C395 C396 1.387 . S
C395 H398 0.950 . S
C396 C395 1.387 . S
C396 C399 1.387 . S
H397 C393 0.950 . S
H398 C395 0.950 . S
C399 C390 1.390 1_556 S
C399 H392 0.950 . S
C399 C396 1.387 . S
C400 C401 1.387 . S
C400 H404 0.950 1_556 S
C400 C409 1.390 . S
C401 C400 1.387 . S
C401 C403 1.387 . S
H402 C409 0.950 . S
C403 C401 1.387 . S
C403 C405 1.390 . S
C403 H407 0.950 . S
H404 C400 0.950 1_554 S
C405 C403 1.390 . S
C405 C406 1.387 . S
C405 H408 0.950 . S
C406 C405 1.387 . S
C406 C409 1.387 . S
H407 C403 0.950 . S
H408 C405 0.950 . S
C409 C400 1.390 . S
C409 H402 0.950 . S
C409 C406 1.387 . S
C410 C411 1.387 1_655 S
C410 H414 0.950 1_556 S
C410 C419 1.390 . S
C411 C410 1.387 1_455 S
C411 C413 1.387 . S
H412 C419 0.950 . S
C413 C411 1.387 . S
C413 C415 1.390 . S
C413 H417 0.950 . S
H414 C410 0.950 1_554 S
C415 C413 1.390 . S
C415 C416 1.387 . S
C415 H418 0.950 . S
C416 C415 1.387 . S
C416 C419 1.387 1_455 S
H417 C413 0.950 . S
H418 C415 0.950 . S
C419 C410 1.390 . S
C419 H412 0.950 . S
C419 C416 1.387 1_655 S
C420 C421 1.388 . S
C420 H424 0.950 . S
C420 C429 1.390 . S
C421 C420 1.388 . S
C421 C423 1.388 . S
H422 C429 0.950 . S
C423 C421 1.388 . S
C423 C425 1.390 . S
C423 H427 0.953 . S
H424 C420 0.950 . S
C425 C423 1.390 . S
C425 C426 1.387 . S
C425 H428 0.950 . S
C426 C425 1.387 . S
C426 C429 1.387 . S
H427 C423 0.953 . S
H428 C425 0.950 . S
C429 C420 1.390 . S
C429 H422 0.950 . S
C429 C426 1.387 . S
C430 C431 1.387 . S
C430 H434 0.950 . S
C430 C439 1.390 . S
C431 C430 1.387 . S
C431 C433 1.387 . S
H432 C439 0.950 . S
C433 C431 1.387 . S
C433 C435 1.390 . S
C433 H437 0.950 . S
H434 C430 0.950 . S
C435 C433 1.390 . S
C435 C436 1.387 . S
C435 H438 0.950 . S
C436 C435 1.387 . S
C436 C439 1.387 . S
H437 C433 0.950 . S
H438 C435 0.950 . S
C439 C430 1.390 . S
C439 H432 0.950 . S
C439 C436 1.387 . S
C440 C441 1.387 . S
C440 H444 0.950 . S
C440 C449 1.390 . S
C441 C440 1.387 . S
C441 C443 1.387 . S
H442 C449 0.950 . S
C443 C441 1.387 . S
C443 C445 1.390 . S
C443 H447 0.950 . S
H444 C440 0.950 . S
C445 C443 1.390 . S
C445 C446 1.387 . S
C445 H448 0.950 . S
C446 C445 1.387 . S
C446 C449 1.387 . S
H447 C443 0.950 . S
H448 C445 0.950 . S
C449 C440 1.390 . S
C449 H442 0.950 . S
C449 C446 1.387 . S
C450 C451 1.387 . S
C450 H454 0.950 . S
C450 C459 1.390 . S
C451 C450 1.387 . S
C451 C453 1.387 . S
H452 C459 0.950 . S
C453 C451 1.387 . S
C453 C455 1.390 . S
C453 H457 0.950 . S
H454 C450 0.950 . S
C455 C453 1.390 . S
C455 C456 1.387 . S
C455 H458 0.950 . S
C456 C455 1.387 . S
C456 C459 1.387 . S
H457 C453 0.950 . S
H458 C455 0.950 . S
C459 C450 1.390 . S
C459 H452 0.950 . S
C459 C456 1.387 . S
C460 C461 1.389 . S
C460 H464 0.950 1_455 S
C460 C469 1.390 . S
C461 C460 1.389 . S
C461 C463 1.391 . S
H462 C469 0.950 . S
C463 C461 1.391 . S
C463 C465 1.390 . S
C463 H467 0.950 1_556 S
H464 C460 0.950 1_655 S
C465 C463 1.390 . S
C465 C466 1.387 . S
C465 H468 0.950 . S
C466 C465 1.387 . S
C466 C469 1.387 . S
H467 C463 0.950 1_554 S
H468 C465 0.950 . S
C469 C460 1.390 . S
C469 H462 0.950 . S
C469 C466 1.387 . S
C470 C471 1.387 . S
C470 H474 0.950 . S
C470 C479 1.390 . S
C471 C470 1.387 . S
C471 C473 1.387 . S
H472 C479 0.950 . S
C473 C471 1.387 . S
C473 C475 1.390 . S
C473 H477 0.950 . S
H474 C470 0.950 . S
C475 C473 1.390 . S
C475 C476 1.387 . S
C475 H478 0.950 . S
C476 C475 1.387 . S
C476 C479 1.387 . S
H477 C473 0.950 . S
H478 C475 0.950 . S
C479 C470 1.390 . S
C479 H472 0.950 . S
C479 C476 1.387 . S
C480 C481 1.387 . S
C480 H484 0.950 . S
C480 C489 1.390 . S
C481 C480 1.387 . S
C481 C483 1.387 . S
H482 C489 0.950 . S
C483 C481 1.387 . S
C483 C485 1.390 . S
C483 H487 0.943 1_556 S
H484 C480 0.950 . S
C485 C483 1.390 . S
C485 C486 1.387 . S
C485 H488 0.950 . S
C486 C485 1.387 . S
C486 C489 1.387 . S
H487 C483 0.943 1_554 S
H488 C485 0.950 . S
C489 C480 1.390 . S
C489 H482 0.950 . S
C489 C486 1.387 . S
C490 C491 1.387 . S
C490 H494 0.950 . S
C490 C499 1.390 . S
C491 C490 1.387 . S
C491 C493 1.387 . S
H492 C499 0.950 . S
C493 C491 1.387 . S
C493 C495 1.390 . S
C493 H497 0.950 . S
H494 C490 0.950 . S
C495 C493 1.390 . S
C495 C496 1.387 . S
C495 H498 0.950 . S
C496 C495 1.387 . S
C496 C499 1.387 . S
H497 C493 0.950 . S
H498 C495 0.950 . S
C499 C490 1.390 . S
C499 H492 0.950 . S
C499 C496 1.387 . S
C500 C501 1.387 1_654 S
C500 H504 0.950 . S
C500 C509 1.390 1_654 S
C501 C500 1.387 1_456 S
C501 C503 1.387 . S
H502 C509 0.950 1_654 S
C503 C501 1.387 . S
C503 C505 1.390 . S
C503 H507 0.950 . S
H504 C500 0.950 . S
C505 C503 1.390 . S
C505 C506 1.387 . S
C505 H508 0.950 . S
C506 C505 1.387 . S
C506 C509 1.387 . S
H507 C503 0.950 . S
H508 C505 0.950 . S
C509 C500 1.390 1_456 S
C509 H502 0.950 1_456 S
C509 C506 1.387 . S
C510 C511 1.387 1_554 S
C510 H514 0.950 . S
C510 C519 1.390 1_554 S
C511 C510 1.387 1_556 S
C511 C513 1.387 . S
H512 C519 0.950 1_554 S
C513 C511 1.387 . S
C513 C515 1.390 . S
C513 H517 0.950 . S
H514 C510 0.950 . S
C515 C513 1.390 . S
C515 C516 1.387 . S
C515 H518 0.950 . S
C516 C515 1.387 . S
C516 C519 1.387 . S
H517 C513 0.950 . S
H518 C515 0.950 . S
C519 C510 1.390 1_556 S
C519 H512 0.950 1_556 S
C519 C516 1.387 . S
C520 C521 1.387 . S
C520 H524 0.950 . S
C520 C529 1.390 . S
C521 C520 1.387 . S
C521 C523 1.387 1_556 S
H522 C529 0.950 . S
C523 C521 1.387 1_554 S
C523 C525 1.390 1_554 S
C523 H527 0.950 . S
H524 C520 0.950 . S
C525 C523 1.390 1_556 S
C525 C526 1.387 . S
C525 H528 0.950 1_556 S
C526 C525 1.387 . S
C526 C529 1.387 . S
H527 C523 0.950 . S
H528 C525 0.950 1_554 S
C529 C520 1.390 . S
C529 H522 0.950 . S
C529 C526 1.387 . S
C530 C531 1.387 1_554 S
C530 H534 0.950 . S
C530 C539 1.390 . S
C531 C530 1.387 1_556 S
C531 C533 1.387 . S
H532 C539 0.950 . S
C533 C531 1.387 . S
C533 C535 1.390 . S
C533 H537 0.950 . S
H534 C530 0.950 . S
C535 C533 1.390 . S
C535 C536 1.387 . S
C535 H538 0.950 . S
C536 C535 1.387 . S
C536 C539 1.387 1_556 S
H537 C533 0.950 . S
H538 C535 0.950 . S
C539 C530 1.390 . S
C539 H532 0.950 . S
C539 C536 1.387 1_554 S
C540 C541 1.387 1_455 S
C540 H544 0.950 . S
C540 C549 1.390 . S
C541 C540 1.387 1_655 S
C541 C543 1.387 . S
H542 C549 0.950 . S
C543 C541 1.387 . S
C543 C545 1.390 . S
C543 H547 0.950 . S
H544 C540 0.950 . S
C545 C543 1.390 . S
C545 C546 1.387 . S
C545 H548 0.950 . S
C546 C545 1.387 . S
C546 C549 1.387 1_655 S
H547 C543 0.950 . S
H548 C545 0.950 . S
C549 C540 1.390 . S
C549 H542 0.950 . S
C549 C546 1.387 1_455 S
C550 C551 1.387 . S
C550 H554 0.950 . S
C550 C559 1.390 . S
C551 C550 1.387 . S
C551 C553 1.387 . S
H552 C559 0.950 . S
C553 C551 1.387 . S
C553 C555 1.390 . S
C553 H557 0.950 . S
H554 C550 0.950 . S
C555 C553 1.390 . S
C555 C556 1.387 . S
C555 H558 0.950 . S
C556 C555 1.387 . S
C556 C559 1.387 . S
H557 C553 0.950 . S
H558 C555 0.950 . S
C559 C550 1.390 . S
C559 H552 0.950 . S
C559 C556 1.387 . S
C560 C561 1.387 . S
C560 H564 0.950 . S
C560 C569 1.390 . S
C561 C560 1.387 . S
C561 C563 1.387 . S
H562 C569 0.950 . S
C563 C561 1.387 . S
C563 C565 1.390 . S
C563 H567 0.950 . S
H564 C560 0.950 . S
C565 C563 1.390 . S
C565 C566 1.387 . S
C565 H568 0.950 . S
C566 C565 1.387 . S
C566 C569 1.387 . S
H567 C563 0.950 . S
H568 C565 0.950 . S
C569 C560 1.390 . S
C569 H562 0.950 . S
C569 C566 1.387 . S
C570 C571 1.387 . S
C570 H574 0.950 . S
C570 C579 1.390 . S
C571 C570 1.387 . S
C571 C573 1.387 . S
H572 C579 0.950 . S
C573 C571 1.387 . S
C573 C575 1.390 . S
C573 H577 0.950 . S
H574 C570 0.950 . S
C575 C573 1.390 . S
C575 C576 1.387 . S
C575 H578 0.950 . S
C576 C575 1.387 . S
C576 C579 1.387 . S
H577 C573 0.950 . S
H578 C575 0.950 . S
C579 C570 1.390 . S
C579 H572 0.950 . S
C579 C576 1.387 . S
C341 C215 2.013 . S
C346 C271 1.936 . S
C356 C295 1.474 . S
C351 C247 1.657 . S
C366 C316 1.907 . S
C361 C151 1.993 . S
C376 C334 1.500 . S
C371 C183 1.674 1_655 S
C386 C274 1.801 1_565 S
C381 C87 1.671 1_556 S
C391 C119 1.500 1_556 S
C396 C292 1.329 . S
C401 C23 1.654 1_556 S
C406 C313 1.778 . S
C411 C55 1.499 1_556 S
C416 C337 1.362 . S
C426 C272 0.757 . S
C421 C189 0.760 1_655 S
C436 C290 1.132 . S
C431 C221 1.173 . S
C446 C311 0.749 . S
C441 C253 0.750 . S
C451 C157 1.178 . S
C456 C335 1.134 . S
C461 C61 0.801 . S
C466 C270 0.811 . S
C476 C294 1.212 1_565 S
C471 C93 0.958 . S
C486 C315 0.807 . S
C481 C125 0.798 . S
C491 C29 0.954 . S
C496 C333 1.217 . S
C501 C177 1.798 1_556 S
C506 C273 1.824 . S
C511 C209 2.034 1_556 S
C516 C291 2.019 . S
C526 C312 1.810 . S
C521 C241 1.781 1_556 S
C536 C336 2.031 . S
C531 C145 2.041 1_556 S
C541 C49 1.724 1_655 S
C546 C269 1.695 . S
C556 C293 1.888 . S
C551 C81 1.779 . S
C566 C314 1.677 . S
C561 C113 1.723 . S
C571 C17 1.788 . S
C576 C332 1.902 . S
