# Generated by pormake.
# Topology rtl, (3,6)-cn, num edge types: 1
# Building blocks:
#     Node 0, Type 0, BuildingBlock: BETDAH_clean_linker_0, # of connection points: 3
#     Node 1, Type 0, BuildingBlock: BETDAH_clean_linker_0, # of connection points: 3
#     Node 2, Type 0, BuildingBlock: BETDAH_clean_linker_0, # of connection points: 3
#     Node 3, Type 0, BuildingBlock: BETDAH_clean_linker_0, # of connection points: 3
#     Node 4, Type 1, BuildingBlock: VOLQOD_clean_sbu_1, # of connection points: 6
#     Node 5, Type 1, BuildingBlock: VOLQOD_clean_sbu_1, # of connection points: 6
#     Edge 6, Type (0, 1), BuildingBlock: KIFKEQ_clean_linker_1, # of connection points: 2
#     Edge 7, Type (0, 1), BuildingBlock: KIFKEQ_clean_linker_1, # of connection points: 2
#     Edge 8, Type (0, 1), BuildingBlock: KIFKEQ_clean_linker_1, # of connection points: 2
#     Edge 9, Type (0, 1), BuildingBlock: KIFKEQ_clean_linker_1, # of connection points: 2
#     Edge 10, Type (0, 1), BuildingBlock: KIFKEQ_clean_linker_1, # of connection points: 2
#     Edge 11, Type (0, 1), BuildingBlock: KIFKEQ_clean_linker_1, # of connection points: 2
#     Edge 12, Type (0, 1), BuildingBlock: KIFKEQ_clean_linker_1, # of connection points: 2
#     Edge 13, Type (0, 1), BuildingBlock: KIFKEQ_clean_linker_1, # of connection points: 2
#     Edge 14, Type (0, 1), BuildingBlock: KIFKEQ_clean_linker_1, # of connection points: 2
#     Edge 15, Type (0, 1), BuildingBlock: KIFKEQ_clean_linker_1, # of connection points: 2
#     Edge 16, Type (0, 1), BuildingBlock: KIFKEQ_clean_linker_1, # of connection points: 2
#     Edge 17, Type (0, 1), BuildingBlock: KIFKEQ_clean_linker_1, # of connection points: 2
# Relax obj value: 0.041
# Max RMSD: 0.143
# Mean RMSD: 0.094
data_MOF--net-rtl--node1-VOLQOD_clean_sbu_1--node2-BETDAH_clean_linker_0--edge1-KIFKEQ_clean_linker_1
_symmetry_space_group_name_H-M    P1
_symmetry_Int_Tables_number       1
_symmetry_cell_setting            triclinic
loop_
_symmetry_equiv_pos_as_xyz
'x, y, z'
_cell_length_a     38.184042
_cell_length_b     38.38222
_cell_length_c     22.390249
_cell_angle_alpha  91.513497
_cell_angle_beta   91.753091
_cell_angle_gamma 89.815947
loop_
_atom_site_label
_atom_site_type_symbol
_atom_site_fract_x
_atom_site_fract_y
_atom_site_fract_z
_atom_type_partial_charge
H0 H 0.14669 0.84942 0.01633 0.0
H1 H 0.17291 0.75355 0.10286 0.0
H2 H 0.16075 0.75511 0.91172 0.0
C3 C 0.15416 0.82216 0.01352 0.0
C4 C 0.15401 0.80488 0.95752 0.0
C5 C 0.16056 0.80391 0.06628 0.0
C6 C 0.16849 0.76815 0.06252 0.0
C7 C 0.16911 0.7508 0.00664 0.0
C8 C 0.16134 0.76902 0.9545 0.0
N9 N 0.17392 0.71431 0.00285 0.0
C10 C 0.20663 0.69915 0.0116 0.0
H11 H 0.6409 0.6539 0.51844 0.0
H12 H 0.68317 0.74791 0.44893 0.0
H13 H 0.66294 0.7418 0.63625 0.0
C14 C 0.65137 0.67996 0.52575 0.0
C15 C 0.65136 0.69521 0.58326 0.0
C16 C 0.66225 0.69889 0.4769 0.0
C17 C 0.67492 0.73299 0.48642 0.0
C18 C 0.67557 0.74824 0.54427 0.0
C19 C 0.66296 0.72963 0.592 0.0
N20 N 0.68735 0.78279 0.55538 0.0
C21 C 0.71725 0.79593 0.53053 0.0
H22 H 0.87143 0.15163 -0.00591 0.0
H23 H 0.8532 0.24393 0.10182 0.0
H24 H 0.84065 0.2473 0.91085 0.0
C25 C 0.86276 0.17852 -0.00222 0.0
C26 C 0.85543 0.19712 0.94569 0.0
C27 C 0.86224 0.19515 0.05427 0.0
C28 C 0.85322 0.23056 0.05857 0.0
C29 C 0.84442 0.24902 0.00714 0.0
C30 C 0.84582 0.23243 0.95067 0.0
N31 N 0.83752 0.28512 0.01237 0.0
C32 C 0.804 0.29846 0.00393 0.0
H33 H 0.38039 0.34731 0.53417 0.0
H34 H 0.28578 0.30469 0.60243 0.0
H35 H 0.29255 0.32444 0.41529 0.0
C36 C 0.35446 0.33631 0.52652 0.0
C37 C 0.33931 0.33614 0.46869 0.0
C38 C 0.33528 0.32552 0.5753 0.0
C39 C 0.30107 0.31264 0.56518 0.0
C40 C 0.28592 0.31196 0.50716 0.0
C41 C 0.30482 0.32429 0.4596 0.0
N42 N 0.25071 0.30174 0.49613 0.0
C43 C 0.23703 0.27099 0.51666 0.0
O44 O 0.92719 0.97167 0.49382 0.0
Zn45 Zn 0.95831 0.01359 0.49982 0.0
O46 O 0.0077 1.0003 0.50624 0.0
Zn47 Zn 0.02816 0.01934 0.58152 0.0
Zn48 Zn 0.01114 0.94936 0.50466 0.0
Zn49 Zn 0.03276 0.01889 0.43894 0.0
O50 O 0.06741 0.05274 0.5667 0.0
O51 O 0.07045 0.05251 0.46789 0.0
O52 O 0.94373 0.04281 0.5708 0.0
O53 O 0.99233 0.04685 0.62751 0.0
O54 O 0.04743 0.98093 0.63323 0.0
O55 O 0.0352 0.93273 0.57965 0.0
O56 O 0.04047 0.93225 0.43681 0.0
O57 O 0.94846 0.04152 0.4268 0.0
O58 O 0.05567 0.98026 0.39089 0.0
O59 O 0.99995 0.04546 0.38408 0.0
C60 C 0.93246 0.93891 0.49275 0.0
C61 C 0.08114 0.06346 0.51946 0.0
C62 C 0.04838 0.94786 0.62634 0.0
C63 C 0.96011 0.05407 0.61773 0.0
C64 C 0.05656 0.94725 0.3957 0.0
C65 C 0.96729 0.05227 0.38519 0.0
O66 O 0.96339 0.92638 0.49647 0.0
O67 O 0.58953 0.47519 0.01948 0.0
Zn68 Zn 0.55788 0.51685 0.02218 0.0
O69 O 0.50882 0.50325 0.02578 0.0
Zn70 Zn 0.48312 0.5193 0.95476 0.0
Zn71 Zn 0.50629 0.45211 0.02942 0.0
Zn72 Zn 0.48845 0.52537 0.09654 0.0
O73 O 0.44365 0.55157 0.97643 0.0
O74 O 0.44689 0.55591 0.07533 0.0
O75 O 0.5663 0.54373 0.94857 0.0
O76 O 0.51456 0.54546 0.90074 0.0
O77 O 0.46116 0.47878 0.90899 0.0
O78 O 0.47647 0.43216 0.96052 0.0
O79 O 0.48385 0.43809 0.10574 0.0
O80 O 0.57292 0.54733 0.09269 0.0
O81 O 0.47103 0.48869 0.15065 0.0
O82 O 0.52401 0.55525 0.14247 0.0
C83 C 0.58495 0.44241 0.02089 0.0
C84 C 0.43225 0.56372 0.0256 0.0
C85 C 0.4603 0.44601 0.91649 0.0
C86 C 0.54699 0.55315 0.90455 0.0
C87 C 0.47083 0.45548 0.14903 0.0
C88 C 0.5565 0.56106 0.13602 0.0
O89 O 0.5544 0.42957 0.02517 0.0
H90 H 0.18268 0.26096 0.5883 0.0
H91 H 0.25298 0.20851 0.46847 0.0
H92 H 0.14825 0.20745 0.59429 0.0
H93 H 0.21905 0.15476 0.47472 0.0
H94 H 0.11897 0.09003 0.42949 0.0
H95 H 0.16062 0.13788 0.43602 0.0
H96 H 0.14776 0.14639 0.62683 0.0
H97 H 0.10562 0.09865 0.62039 0.0
C98 C 0.19115 0.23761 0.56453 0.0
C99 C 0.22032 0.23842 0.5282 0.0
C100 C 0.17158 0.20701 0.56795 0.0
C101 C 0.18081 0.17692 0.53463 0.0
C102 C 0.21103 0.17761 0.50029 0.0
C103 C 0.2306 0.20817 0.49707 0.0
C104 C 0.12521 0.10182 0.47298 0.0
C105 C 0.10875 0.09057 0.52434 0.0
C106 C 0.14931 0.12914 0.47677 0.0
C107 C 0.15749 0.14596 0.53197 0.0
C108 C 0.14174 0.13417 0.58359 0.0
C109 C 0.11772 0.10669 0.57987 0.0
H110 H 0.22511 0.64369 0.94504 0.0
H111 H 0.26198 0.71397 0.08639 0.0
H112 H 0.28081 0.61222 0.94954 0.0
H113 H 0.31836 0.6829 0.09067 0.0
H114 H 0.39761 0.59208 0.12106 0.0
H115 H 0.34352 0.6262 0.11871 0.0
H116 H 0.34164 0.62106 0.92569 0.0
H117 H 0.39515 0.58657 0.92786 0.0
C118 C 0.24537 0.65236 0.97694 0.0
C119 C 0.23966 0.68102 0.01534 0.0
C120 C 0.2773 0.63457 0.97932 0.0
C121 C 0.30415 0.64518 0.02021 0.0
C122 C 0.29813 0.67392 0.05902 0.0
C123 C 0.26607 0.69177 0.05649 0.0
C124 C 0.38576 0.59838 0.07811 0.0
C125 C 0.40064 0.58632 0.02466 0.0
C126 C 0.35484 0.61809 0.0768 0.0
C127 C 0.33811 0.62611 0.02203 0.0
C128 C 0.35351 0.6148 0.96866 0.0
C129 C 0.38434 0.59516 0.96994 0.0
H130 H 0.78094 0.7842 0.57937 0.0
H131 H 0.72568 0.84301 0.44474 0.0
H132 H 0.8346 0.8164 0.56168 0.0
H133 H 0.77953 0.87494 0.42552 0.0
H134 H 0.86341 0.95692 0.48142 0.0
H135 H 0.81271 0.919 0.48138 0.0
H136 H 0.88078 0.82915 0.49332 0.0
H137 H 0.93188 0.86734 0.49467 0.0
C138 C 0.78068 0.80354 0.54494 0.0
C139 C 0.74959 0.81135 0.51328 0.0
C140 C 0.81136 0.82187 0.53456 0.0
C141 C 0.81134 0.84842 0.4924 0.0
C142 C 0.7803 0.85501 0.45889 0.0
C143 C 0.7496 0.83665 0.46943 0.0
C144 C 0.86771 0.92907 0.48366 0.0
C145 C 0.9018 0.91524 0.48859 0.0
C146 C 0.83854 0.90726 0.48306 0.0
C147 C 0.84263 0.871 0.4873 0.0
C148 C 0.87672 0.85701 0.49062 0.0
C149 C 0.90601 0.87889 0.49119 0.0
H150 H 0.78368 0.34764 0.9269 0.0
H151 H 0.74893 0.28684 0.07288 0.0
H152 H 0.72857 0.38045 0.92703 0.0
H153 H 0.69387 0.31989 0.07407 0.0
H154 H 0.58744 0.37091 0.0267 0.0
H155 H 0.63888 0.33319 0.01745 0.0
H156 H 0.70371 0.4237 -0.00431 0.0
H157 H 0.65271 0.46118 0.0041 0.0
C158 C 0.76392 0.34112 0.95847 0.0
C159 C 0.77012 0.31493 -0.00021 0.0
C160 C 0.73255 0.35998 0.95893 0.0
C161 C 0.70696 0.35297 0.00094 0.0
C162 C 0.71289 0.32572 0.04086 0.0
C163 C 0.74433 0.3069 0.04038 0.0
C164 C 0.61267 0.38272 0.01985 0.0
C165 C 0.61587 0.4191 0.01615 0.0
C166 C 0.64213 0.36111 0.01473 0.0
C167 C 0.67532 0.37544 0.00539 0.0
C168 C 0.67844 0.41177 0.00175 0.0
C169 C 0.64915 0.4333 0.00711 0.0
H170 H 0.1858 0.86677 0.10779 0.0
H171 H 0.11925 0.78163 0.1543 0.0
H172 H 0.1657 0.90084 0.19384 0.0
H173 H 0.09817 0.81583 0.23896 0.0
H174 H 0.07627 0.87902 0.40524 0.0
H175 H 0.10813 0.84321 0.33371 0.0
H176 H 0.11324 0.93076 0.21669 0.0
H177 H 0.08263 0.96685 0.28926 0.0
C178 C 0.16727 0.8552 0.13709 0.0
C179 C 0.15401 0.82164 0.12443 0.0
C180 C 0.15548 0.87479 0.18601 0.0
C181 C 0.12982 0.86138 0.22287 0.0
C182 C 0.11817 0.82696 0.21205 0.0
C183 C 0.13026 0.80726 0.16351 0.0
C184 C 0.08436 0.89067 0.36435 0.0
C185 C 0.07669 0.92576 0.35278 0.0
C186 C 0.10257 0.87008 0.32323 0.0
C187 C 0.11325 0.88397 0.26923 0.0
C188 C 0.10605 0.91926 0.25821 0.0
C189 C 0.08817 0.93995 0.29963 0.0
H190 H 0.66898 0.62935 0.61505 0.0
H191 H 0.60273 0.71636 0.66332 0.0
H192 H 0.64387 0.59512 0.69374 0.0
H193 H 0.57757 0.68209 0.74213 0.0
H194 H 0.513 0.59168 0.81943 0.0
H195 H 0.53926 0.62708 0.74351 0.0
H196 H 0.64247 0.59713 0.80781 0.0
H197 H 0.61644 0.56188 0.88384 0.0
C198 C 0.64915 0.64113 0.64275 0.0
C199 C 0.63776 0.67543 0.63331 0.0
C200 C 0.63494 0.62166 0.68782 0.0
C201 C 0.60874 0.63598 0.72374 0.0
C202 C 0.59755 0.6704 0.71467 0.0
C203 C 0.61213 0.69005 0.67008 0.0
C204 C 0.54128 0.59257 0.81728 0.0
C205 C 0.56263 0.57396 0.8576 0.0
C206 C 0.55627 0.61302 0.77415 0.0
C207 C 0.59285 0.61484 0.77003 0.0
C208 C 0.61419 0.596 0.80989 0.0
C209 C 0.59925 0.57594 0.8535 0.0
H210 H 0.84195 0.13067 0.08789 0.0
H211 H 0.91044 0.21623 0.13983 0.0
H212 H 0.86658 0.09658 0.16996 0.0
H213 H 0.93495 0.18224 0.22206 0.0
H214 H 0.89741 0.06148 0.36035 0.0
H215 H 0.87021 0.09743 0.28343 0.0
H216 H 0.97254 0.12746 0.22638 0.0
H217 H 0.99991 0.09151 0.30321 0.0
C218 C 0.862 0.14226 0.11732 0.0
C219 C 0.87429 0.17604 0.10767 0.0
C220 C 0.87597 0.12286 0.16431 0.0
C221 C 0.90279 0.13674 0.20204 0.0
C222 C 0.91452 0.17083 0.19323 0.0
C223 C 0.90025 0.19038 0.14667 0.0
C224 C 0.91415 0.07574 0.33144 0.0
C225 C 0.95085 0.07361 0.33787 0.0
C226 C 0.89853 0.09621 0.28732 0.0
C227 C 0.91928 0.11529 0.24921 0.0
C228 C 0.95594 0.1133 0.25568 0.0
C229 C 0.97159 0.09251 0.29934 0.0
H230 H 0.30289 0.35926 0.66677 0.0
H231 H 0.40049 0.30978 0.62088 0.0
H232 H 0.33076 0.38397 0.75792 0.0
H233 H 0.42846 0.33472 0.71188 0.0
H234 H 0.41004 0.467 0.83617 0.0
H235 H 0.37669 0.43134 0.76342 0.0
H236 H 0.42975 0.33914 0.82607 0.0
H237 H 0.4633 0.37494 0.89967 0.0
C238 C 0.32997 0.35271 0.67719 0.0
C239 C 0.34962 0.3328 0.63662 0.0
C240 C 0.34601 0.36715 0.72901 0.0
C241 C 0.38188 0.36167 0.74147 0.0
C242 C 0.40077 0.33933 0.70349 0.0
C243 C 0.38481 0.32516 0.65136 0.0
C244 C 0.41456 0.43911 0.83478 0.0
C245 C 0.43951 0.42385 0.8735 0.0
C246 C 0.39515 0.41863 0.79348 0.0
C247 C 0.40045 0.38243 0.78938 0.0
C248 C 0.42516 0.367 0.82833 0.0
C249 C 0.44431 0.38749 0.8704 0.0
H250 H 0.68423 0.63587 0.43334 0.0
H251 H 0.62475 0.72724 0.3852 0.0
H252 H 0.66198 0.60531 0.34282 0.0
H253 H 0.60228 0.69664 0.29467 0.0
H254 H 0.62745 0.56752 0.15407 0.0
H255 H 0.65864 0.60491 0.22802 0.0
H256 H 0.55988 0.64486 0.28946 0.0
H257 H 0.52863 0.60745 0.21614 0.0
C258 C 0.66721 0.64968 0.40236 0.0
C259 C 0.65612 0.68382 0.41606 0.0
C260 C 0.6545 0.63225 0.35064 0.0
C261 C 0.63011 0.64852 0.31221 0.0
C262 C 0.62082 0.68345 0.32393 0.0
C263 C 0.63393 0.70105 0.37527 0.0
C264 C 0.6124 0.58445 0.18311 0.0
C265 C 0.57554 0.58437 0.1795 0.0
C266 C 0.63028 0.60579 0.22537 0.0
C267 C 0.61168 0.6279 0.26409 0.0
C268 C 0.5749 0.62842 0.25956 0.0
C269 C 0.55701 0.60674 0.21798 0.0
H270 H 0.89654 0.22182 0.85939 0.0
H271 H 0.8322 0.13407 0.90156 0.0
H272 H 0.91904 0.18905 0.77351 0.0
H273 H 0.85464 0.1013 0.81553 0.0
H274 H 0.88931 0.06269 0.6285 0.0
H275 H 0.85912 0.10048 0.7003 0.0
H276 H 0.95895 0.13497 0.7754 0.0
H277 H 0.98914 0.09715 0.70441 0.0
C278 C 0.88641 0.19594 0.84915 0.0
C279 C 0.86271 0.1804 0.88704 0.0
C280 C 0.89954 0.17709 0.80047 0.0
C281 C 0.88884 0.14256 0.78841 0.0
C282 C 0.86323 0.12792 0.82375 0.0
C283 C 0.85046 0.1466 0.87293 0.0
C284 C 0.90479 0.07841 0.66026 0.0
C285 C 0.94162 0.07682 0.66096 0.0
C286 C 0.8875 0.09997 0.70128 0.0
C287 C 0.90672 0.12081 0.74295 0.0
C288 C 0.9435 0.11954 0.74315 0.0
C289 C 0.96076 0.09762 0.70288 0.0
H290 H 0.407 0.32327 0.43822 0.0
H291 H 0.31526 0.38307 0.38791 0.0
H292 H 0.43993 0.35118 0.36045 0.0
H293 H 0.348 0.41067 0.3101 0.0
H294 H 0.43009 0.48351 0.23618 0.0
H295 H 0.39864 0.45295 0.31182 0.0
H296 H 0.44012 0.35486 0.24649 0.0
H297 H 0.47178 0.38539 0.17031 0.0
C298 C 0.39388 0.3422 0.41026 0.0
C299 C 0.35862 0.35102 0.41899 0.0
C300 C 0.41262 0.35799 0.36566 0.0
C301 C 0.39654 0.3832 0.32958 0.0
C302 C 0.36112 0.39157 0.33771 0.0
C303 C 0.34231 0.37553 0.3818 0.0
C304 C 0.43274 0.45545 0.23799 0.0
C305 C 0.45341 0.43689 0.19702 0.0
C306 C 0.4145 0.43796 0.28109 0.0
C307 C 0.41675 0.40155 0.28464 0.0
C308 C 0.43804 0.38298 0.24477 0.0
C309 C 0.45605 0.40046 0.20111 0.0
H310 H 0.10613 0.78431 0.87094 0.0
H311 H 0.17589 0.86877 0.92316 0.0
H312 H 0.08221 0.81853 0.78912 0.0
H313 H 0.15259 0.90288 0.84042 0.0
H314 H 0.07172 0.96882 0.73843 0.0
H315 H 0.09965 0.93334 0.81493 0.0
H316 H 0.09346 0.84329 0.69504 0.0
H317 H 0.06453 0.87847 0.61931 0.0
C318 C 0.11692 0.8099 0.86399 0.0
C319 C 0.14281 0.82392 0.90343 0.0
C320 C 0.10321 0.82957 0.81711 0.0
C321 C 0.11526 0.86362 0.8084 0.0
C322 C 0.14216 0.87706 0.84657 0.0
C323 C 0.15568 0.85747 0.89371 0.0
C324 C 0.07632 0.94146 0.72838 0.0
C325 C 0.0657 0.92648 0.67284 0.0
C326 C 0.09261 0.92114 0.7721 0.0
C327 C 0.0989 0.88542 0.76116 0.0
C328 C 0.08857 0.87057 0.70535 0.0
C329 C 0.07207 0.89081 0.66181 0.0
loop_
_geom_bond_atom_site_label_1
_geom_bond_atom_site_label_2
_geom_bond_distance
_geom_bond_site_symmetry_2
_ccdc_geom_bond_type
H0 C3 0.929 . S
H1 C6 0.929 . S
H2 C8 0.930 . S
C3 H0 0.929 . S
C3 C4 1.398 1_554 S
C3 C5 1.396 . S
C4 C3 1.398 1_556 S
C4 C8 1.407 . S
C5 C3 1.396 . S
C5 C6 1.394 . S
C6 H1 0.929 . S
C6 C5 1.394 . S
C6 C7 1.382 . S
C7 C6 1.382 . S
C7 C8 1.392 1_554 S
C7 N9 1.420 1_554 S
C8 H2 0.930 . S
C8 C4 1.407 . S
C8 C7 1.392 1_556 S
N9 C7 1.420 1_556 S
N9 C10 1.244 1_556 S
C10 N9 1.244 1_554 S
H11 C14 0.929 . S
H12 C17 0.929 . S
H13 C19 0.930 . S
C14 H11 0.929 . S
C14 C15 1.398 . S
C14 C16 1.396 . S
C15 C14 1.398 . S
C15 C19 1.407 . S
C16 C14 1.396 . S
C16 C17 1.394 . S
C17 H12 0.929 . S
C17 C16 1.394 . S
C17 C18 1.382 . S
C18 C17 1.382 . S
C18 C19 1.392 . S
C18 N20 1.420 . S
C19 H13 0.930 . S
C19 C15 1.407 . S
C19 C18 1.392 . S
N20 C18 1.420 . S
N20 C21 1.244 . S
C21 N20 1.244 . S
H22 C25 0.929 . S
H23 C28 0.929 . S
H24 C30 0.930 . S
C25 H22 0.929 . S
C25 C26 1.398 1_554 S
C25 C27 1.396 . S
C26 C25 1.398 1_556 S
C26 C30 1.407 . S
C27 C25 1.396 . S
C27 C28 1.394 . S
C28 H23 0.929 . S
C28 C27 1.394 . S
C28 C29 1.382 . S
C29 C28 1.382 . S
C29 C30 1.392 1_554 S
C29 N31 1.420 1_554 S
C30 H24 0.930 . S
C30 C26 1.407 . S
C30 C29 1.392 1_556 S
N31 C29 1.420 1_556 S
N31 C32 1.244 1_556 S
C32 N31 1.244 1_554 S
H33 C36 0.929 . S
H34 C39 0.929 . S
H35 C41 0.930 . S
C36 H33 0.929 . S
C36 C37 1.398 . S
C36 C38 1.396 . S
C37 C36 1.398 . S
C37 C41 1.407 . S
C38 C36 1.396 . S
C38 C39 1.394 . S
C39 H34 0.929 . S
C39 C38 1.394 . S
C39 C40 1.382 . S
C40 C39 1.382 . S
C40 C41 1.392 . S
C40 N42 1.420 . S
C41 H35 0.930 . S
C41 C37 1.407 . S
C41 C40 1.392 . S
N42 C40 1.420 . S
N42 C43 1.244 . S
C43 N42 1.244 . S
O44 Zn45 1.953 1_565 S
O44 C60 1.225 . S
Zn45 O44 1.953 1_545 S
Zn45 O46 1.949 1_655 S
Zn45 O52 1.919 . S
Zn45 O57 1.924 . S
O46 Zn45 1.949 1_455 S
O46 Zn47 1.923 . S
O46 Zn48 1.950 1_545 S
O46 Zn49 1.945 . S
Zn47 O46 1.923 . S
Zn47 O50 1.933 . S
Zn47 O53 1.932 1_455 S
Zn47 O54 1.965 1_545 S
Zn48 O46 1.950 1_565 S
Zn48 O55 1.938 . S
Zn48 O56 1.906 . S
Zn48 O66 1.953 1_455 S
Zn49 O46 1.945 . S
Zn49 O51 1.932 . S
Zn49 O58 1.977 1_545 S
Zn49 O59 1.910 1_455 S
O50 Zn47 1.933 . S
O50 C61 1.226 . S
O51 Zn49 1.932 . S
O51 C61 1.307 . S
O52 Zn45 1.919 . S
O52 C63 1.253 . S
O53 Zn47 1.932 1_655 S
O53 C63 1.297 . S
O54 Zn47 1.965 1_565 S
O54 C62 1.303 . S
O55 Zn48 1.938 . S
O55 C62 1.247 . S
O56 Zn48 1.906 . S
O56 C64 1.304 . S
O57 Zn45 1.924 . S
O57 C65 1.311 . S
O58 Zn49 1.977 1_565 S
O58 C64 1.272 . S
O59 Zn49 1.910 1_655 S
O59 C65 1.231 . S
C60 O44 1.225 . S
C60 O66 1.298 . S
C61 O50 1.226 . S
C61 O51 1.307 . S
C62 O54 1.303 . S
C62 O55 1.247 . S
C63 O52 1.253 . S
C63 O53 1.297 . S
C64 O56 1.304 . S
C64 O58 1.272 . S
C65 O57 1.311 . S
C65 O59 1.231 . S
O66 Zn48 1.953 1_655 S
O66 C60 1.298 . S
O67 Zn68 1.953 . S
O67 C83 1.225 . S
Zn68 O67 1.953 . S
Zn68 O69 1.949 . S
Zn68 O75 1.919 1_554 S
Zn68 O80 1.924 . S
O69 Zn68 1.949 . S
O69 Zn70 1.923 1_554 S
O69 Zn71 1.950 . S
O69 Zn72 1.945 . S
Zn70 O69 1.923 1_556 S
Zn70 O73 1.933 . S
Zn70 O76 1.941 . S
Zn70 O77 1.965 . S
Zn71 O69 1.950 . S
Zn71 O78 1.938 1_554 S
Zn71 O79 1.906 . S
Zn71 O89 1.953 . S
Zn72 O69 1.945 . S
Zn72 O74 1.932 . S
Zn72 O81 1.977 . S
Zn72 O82 1.910 . S
O73 Zn70 1.933 . S
O73 C84 1.226 1_556 S
O74 Zn72 1.932 . S
O74 C84 1.307 . S
O75 Zn68 1.919 1_556 S
O75 C86 1.253 . S
O76 Zn70 1.941 . S
O76 C86 1.283 . S
O77 Zn70 1.965 . S
O77 C85 1.303 . S
O78 Zn71 1.938 1_556 S
O78 C85 1.247 . S
O79 Zn71 1.906 . S
O79 C87 1.304 . S
O80 Zn68 1.924 . S
O80 C88 1.311 . S
O81 Zn72 1.977 . S
O81 C87 1.272 . S
O82 Zn72 1.910 . S
O82 C88 1.231 . S
C83 O67 1.225 . S
C83 O89 1.298 . S
C84 O73 1.226 1_554 S
C84 O74 1.307 . S
C85 O77 1.303 . S
C85 O78 1.247 . S
C86 O75 1.253 . S
C86 O76 1.283 . S
C87 O79 1.304 . S
C87 O81 1.272 . S
C88 O80 1.311 . S
C88 O82 1.231 . S
O89 Zn71 1.953 . S
O89 C83 1.298 . S
H90 C98 0.950 . S
H91 C103 0.950 . S
H92 C100 0.950 . S
H93 C102 0.950 . S
H94 C104 0.950 . S
H95 C106 0.950 . S
H96 C108 0.950 . S
H97 C109 0.950 . S
C98 H90 0.950 . S
C98 C99 1.386 . S
C98 C100 1.391 . S
C99 C98 1.386 . S
C99 C103 1.393 . S
C100 H92 0.950 . S
C100 C98 1.391 . S
C100 C101 1.400 . S
C101 C100 1.400 . S
C101 C102 1.398 . S
C101 C107 1.491 . S
C102 H93 0.950 . S
C102 C101 1.398 . S
C102 C103 1.391 . S
C103 H91 0.950 . S
C103 C99 1.393 . S
C103 C102 1.391 . S
C104 H94 0.950 . S
C104 C105 1.386 . S
C104 C106 1.391 . S
C105 C104 1.386 . S
C105 C109 1.393 . S
C106 H95 0.950 . S
C106 C104 1.391 . S
C106 C107 1.400 . S
C107 C101 1.491 . S
C107 C106 1.400 . S
C107 C108 1.398 . S
C108 H96 0.950 . S
C108 C107 1.398 . S
C108 C109 1.391 . S
C109 H97 0.950 . S
C109 C105 1.393 . S
C109 C108 1.391 . S
H110 C118 0.950 1_556 S
H111 C123 0.950 . S
H112 C120 0.950 1_556 S
H113 C122 0.950 . S
H114 C124 0.950 . S
H115 C126 0.950 . S
H116 C128 0.950 . S
H117 C129 0.950 1_556 S
C118 H110 0.950 1_554 S
C118 C119 1.386 . S
C118 C120 1.391 . S
C119 C118 1.386 . S
C119 C123 1.393 . S
C120 H112 0.950 1_554 S
C120 C118 1.391 . S
C120 C121 1.400 . S
C121 C120 1.400 . S
C121 C122 1.398 . S
C121 C127 1.491 . S
C122 H113 0.950 . S
C122 C121 1.398 . S
C122 C123 1.391 . S
C123 H111 0.950 . S
C123 C119 1.393 . S
C123 C122 1.391 . S
C124 H114 0.950 . S
C124 C125 1.386 . S
C124 C126 1.391 . S
C125 C124 1.386 . S
C125 C129 1.393 . S
C126 H115 0.950 . S
C126 C124 1.391 . S
C126 C127 1.400 . S
C127 C121 1.491 . S
C127 C126 1.400 . S
C127 C128 1.398 . S
C128 H116 0.950 . S
C128 C127 1.398 . S
C128 C129 1.391 . S
C129 H117 0.950 1_554 S
C129 C125 1.393 . S
C129 C128 1.391 . S
H130 C138 0.950 . S
H131 C143 0.950 . S
H132 C140 0.950 . S
H133 C142 0.950 . S
H134 C144 0.950 . S
H135 C146 0.950 . S
H136 C148 0.950 . S
H137 C149 0.950 . S
C138 H130 0.950 . S
C138 C139 1.386 . S
C138 C140 1.391 . S
C139 C138 1.386 . S
C139 C143 1.393 . S
C140 H132 0.950 . S
C140 C138 1.391 . S
C140 C141 1.400 . S
C141 C140 1.400 . S
C141 C142 1.398 . S
C141 C147 1.491 . S
C142 H133 0.950 . S
C142 C141 1.398 . S
C142 C143 1.391 . S
C143 H131 0.950 . S
C143 C139 1.393 . S
C143 C142 1.391 . S
C144 H134 0.950 . S
C144 C145 1.386 . S
C144 C146 1.391 . S
C145 C144 1.386 . S
C145 C149 1.393 . S
C146 H135 0.950 . S
C146 C144 1.391 . S
C146 C147 1.400 . S
C147 C141 1.491 . S
C147 C146 1.400 . S
C147 C148 1.398 . S
C148 H136 0.950 . S
C148 C147 1.398 . S
C148 C149 1.391 . S
C149 H137 0.950 . S
C149 C145 1.393 . S
C149 C148 1.391 . S
H150 C158 0.950 . S
H151 C163 0.950 . S
H152 C160 0.950 . S
H153 C162 0.950 . S
H154 C164 0.950 . S
H155 C166 0.950 . S
H156 C168 0.950 1_556 S
H157 C169 0.950 1_556 S
C158 H150 0.950 . S
C158 C159 1.386 1_556 S
C158 C160 1.391 . S
C159 C158 1.386 1_554 S
C159 C163 1.393 . S
C160 H152 0.950 . S
C160 C158 1.391 . S
C160 C161 1.400 1_556 S
C161 C160 1.400 1_554 S
C161 C162 1.398 . S
C161 C167 1.491 . S
C162 H153 0.950 . S
C162 C161 1.398 . S
C162 C163 1.391 . S
C163 H151 0.950 . S
C163 C159 1.393 . S
C163 C162 1.391 . S
C164 H154 0.950 . S
C164 C165 1.386 . S
C164 C166 1.391 . S
C165 C164 1.386 . S
C165 C169 1.393 . S
C166 H155 0.950 . S
C166 C164 1.391 . S
C166 C167 1.400 . S
C167 C161 1.491 . S
C167 C166 1.400 . S
C167 C168 1.398 . S
C168 H156 0.950 1_554 S
C168 C167 1.398 . S
C168 C169 1.391 . S
C169 H157 0.950 1_554 S
C169 C165 1.393 . S
C169 C168 1.391 . S
H170 C178 0.950 . S
H171 C183 0.950 . S
H172 C180 0.950 . S
H173 C182 0.950 . S
H174 C184 0.950 . S
H175 C186 0.950 . S
H176 C188 0.950 . S
H177 C189 0.950 . S
C178 H170 0.950 . S
C178 C179 1.386 . S
C178 C180 1.391 . S
C179 C178 1.386 . S
C179 C183 1.393 . S
C180 H172 0.950 . S
C180 C178 1.391 . S
C180 C181 1.400 . S
C181 C180 1.400 . S
C181 C182 1.398 . S
C181 C187 1.491 . S
C182 H173 0.950 . S
C182 C181 1.398 . S
C182 C183 1.391 . S
C183 H171 0.950 . S
C183 C179 1.393 . S
C183 C182 1.391 . S
C184 H174 0.950 . S
C184 C185 1.386 . S
C184 C186 1.391 . S
C185 C184 1.386 . S
C185 C189 1.393 . S
C186 H175 0.950 . S
C186 C184 1.391 . S
C186 C187 1.400 . S
C187 C181 1.491 . S
C187 C186 1.400 . S
C187 C188 1.398 . S
C188 H176 0.950 . S
C188 C187 1.398 . S
C188 C189 1.391 . S
C189 H177 0.950 . S
C189 C185 1.393 . S
C189 C188 1.391 . S
H190 C198 0.950 . S
H191 C203 0.950 . S
H192 C200 0.950 . S
H193 C202 0.950 . S
H194 C204 0.950 . S
H195 C206 0.950 . S
H196 C208 0.950 . S
H197 C209 0.950 . S
C198 H190 0.950 . S
C198 C199 1.386 . S
C198 C200 1.391 . S
C199 C198 1.386 . S
C199 C203 1.393 . S
C200 H192 0.950 . S
C200 C198 1.391 . S
C200 C201 1.400 . S
C201 C200 1.400 . S
C201 C202 1.398 . S
C201 C207 1.491 . S
C202 H193 0.950 . S
C202 C201 1.398 . S
C202 C203 1.391 . S
C203 H191 0.950 . S
C203 C199 1.393 . S
C203 C202 1.391 . S
C204 H194 0.950 . S
C204 C205 1.386 . S
C204 C206 1.391 . S
C205 C204 1.386 . S
C205 C209 1.393 . S
C206 H195 0.950 . S
C206 C204 1.391 . S
C206 C207 1.400 . S
C207 C201 1.491 . S
C207 C206 1.400 . S
C207 C208 1.398 . S
C208 H196 0.950 . S
C208 C207 1.398 . S
C208 C209 1.391 . S
C209 H197 0.950 . S
C209 C205 1.393 . S
C209 C208 1.391 . S
H210 C218 0.950 . S
H211 C223 0.950 . S
H212 C220 0.950 . S
H213 C222 0.950 . S
H214 C224 0.950 . S
H215 C226 0.950 . S
H216 C228 0.950 . S
H217 C229 0.950 . S
C218 H210 0.950 . S
C218 C219 1.386 . S
C218 C220 1.391 . S
C219 C218 1.386 . S
C219 C223 1.393 . S
C220 H212 0.950 . S
C220 C218 1.391 . S
C220 C221 1.400 . S
C221 C220 1.400 . S
C221 C222 1.398 . S
C221 C227 1.491 . S
C222 H213 0.950 . S
C222 C221 1.398 . S
C222 C223 1.391 . S
C223 H211 0.950 . S
C223 C219 1.393 . S
C223 C222 1.391 . S
C224 H214 0.950 . S
C224 C225 1.386 . S
C224 C226 1.391 . S
C225 C224 1.386 . S
C225 C229 1.393 . S
C226 H215 0.950 . S
C226 C224 1.391 . S
C226 C227 1.400 . S
C227 C221 1.491 . S
C227 C226 1.400 . S
C227 C228 1.398 . S
C228 H216 0.950 . S
C228 C227 1.398 . S
C228 C229 1.391 . S
C229 H217 0.950 . S
C229 C225 1.393 . S
C229 C228 1.391 . S
H230 C238 0.950 . S
H231 C243 0.950 . S
H232 C240 0.950 . S
H233 C242 0.950 . S
H234 C244 0.950 . S
H235 C246 0.950 . S
H236 C248 0.950 . S
H237 C249 0.950 . S
C238 H230 0.950 . S
C238 C239 1.386 . S
C238 C240 1.391 . S
C239 C238 1.386 . S
C239 C243 1.393 . S
C240 H232 0.950 . S
C240 C238 1.391 . S
C240 C241 1.400 . S
C241 C240 1.400 . S
C241 C242 1.398 . S
C241 C247 1.491 . S
C242 H233 0.950 . S
C242 C241 1.398 . S
C242 C243 1.391 . S
C243 H231 0.950 . S
C243 C239 1.393 . S
C243 C242 1.391 . S
C244 H234 0.950 . S
C244 C245 1.386 . S
C244 C246 1.391 . S
C245 C244 1.386 . S
C245 C249 1.393 . S
C246 H235 0.950 . S
C246 C244 1.391 . S
C246 C247 1.400 . S
C247 C241 1.491 . S
C247 C246 1.400 . S
C247 C248 1.398 . S
C248 H236 0.950 . S
C248 C247 1.398 . S
C248 C249 1.391 . S
C249 H237 0.950 . S
C249 C245 1.393 . S
C249 C248 1.391 . S
H250 C258 0.950 . S
H251 C263 0.950 . S
H252 C260 0.950 . S
H253 C262 0.950 . S
H254 C264 0.950 . S
H255 C266 0.950 . S
H256 C268 0.950 . S
H257 C269 0.950 . S
C258 H250 0.950 . S
C258 C259 1.386 . S
C258 C260 1.391 . S
C259 C258 1.386 . S
C259 C263 1.393 . S
C260 H252 0.950 . S
C260 C258 1.391 . S
C260 C261 1.400 . S
C261 C260 1.400 . S
C261 C262 1.398 . S
C261 C267 1.491 . S
C262 H253 0.950 . S
C262 C261 1.398 . S
C262 C263 1.391 . S
C263 H251 0.950 . S
C263 C259 1.393 . S
C263 C262 1.391 . S
C264 H254 0.950 . S
C264 C265 1.386 . S
C264 C266 1.391 . S
C265 C264 1.386 . S
C265 C269 1.393 . S
C266 H255 0.950 . S
C266 C264 1.391 . S
C266 C267 1.400 . S
C267 C261 1.491 . S
C267 C266 1.400 . S
C267 C268 1.398 . S
C268 H256 0.950 . S
C268 C267 1.398 . S
C268 C269 1.391 . S
C269 H257 0.950 . S
C269 C265 1.393 . S
C269 C268 1.391 . S
H270 C278 0.950 . S
H271 C283 0.950 . S
H272 C280 0.950 . S
H273 C282 0.950 . S
H274 C284 0.950 . S
H275 C286 0.950 . S
H276 C288 0.950 . S
H277 C289 0.950 . S
C278 H270 0.950 . S
C278 C279 1.386 . S
C278 C280 1.391 . S
C279 C278 1.386 . S
C279 C283 1.393 . S
C280 H272 0.950 . S
C280 C278 1.391 . S
C280 C281 1.400 . S
C281 C280 1.400 . S
C281 C282 1.398 . S
C281 C287 1.491 . S
C282 H273 0.950 . S
C282 C281 1.398 . S
C282 C283 1.391 . S
C283 H271 0.950 . S
C283 C279 1.393 . S
C283 C282 1.391 . S
C284 H274 0.950 . S
C284 C285 1.386 . S
C284 C286 1.391 . S
C285 C284 1.386 . S
C285 C289 1.393 . S
C286 H275 0.950 . S
C286 C284 1.391 . S
C286 C287 1.400 . S
C287 C281 1.491 . S
C287 C286 1.400 . S
C287 C288 1.398 . S
C288 H276 0.950 . S
C288 C287 1.398 . S
C288 C289 1.391 . S
C289 H277 0.950 . S
C289 C285 1.393 . S
C289 C288 1.391 . S
H290 C298 0.950 . S
H291 C303 0.950 . S
H292 C300 0.950 . S
H293 C302 0.950 . S
H294 C304 0.950 . S
H295 C306 0.950 . S
H296 C308 0.950 . S
H297 C309 0.950 . S
C298 H290 0.950 . S
C298 C299 1.386 . S
C298 C300 1.391 . S
C299 C298 1.386 . S
C299 C303 1.393 . S
C300 H292 0.950 . S
C300 C298 1.391 . S
C300 C301 1.400 . S
C301 C300 1.400 . S
C301 C302 1.398 . S
C301 C307 1.491 . S
C302 H293 0.950 . S
C302 C301 1.398 . S
C302 C303 1.391 . S
C303 H291 0.950 . S
C303 C299 1.393 . S
C303 C302 1.391 . S
C304 H294 0.950 . S
C304 C305 1.386 . S
C304 C306 1.391 . S
C305 C304 1.386 . S
C305 C309 1.393 . S
C306 H295 0.950 . S
C306 C304 1.391 . S
C306 C307 1.400 . S
C307 C301 1.491 . S
C307 C306 1.400 . S
C307 C308 1.398 . S
C308 H296 0.950 . S
C308 C307 1.398 . S
C308 C309 1.391 . S
C309 H297 0.950 . S
C309 C305 1.393 . S
C309 C308 1.391 . S
H310 C318 0.950 . S
H311 C323 0.950 . S
H312 C320 0.950 . S
H313 C322 0.950 . S
H314 C324 0.950 . S
H315 C326 0.950 . S
H316 C328 0.950 . S
H317 C329 0.950 . S
C318 H310 0.950 . S
C318 C319 1.386 . S
C318 C320 1.391 . S
C319 C318 1.386 . S
C319 C323 1.393 . S
C320 H312 0.950 . S
C320 C318 1.391 . S
C320 C321 1.400 . S
C321 C320 1.400 . S
C321 C322 1.398 . S
C321 C327 1.491 . S
C322 H313 0.950 . S
C322 C321 1.398 . S
C322 C323 1.391 . S
C323 H311 0.950 . S
C323 C319 1.393 . S
C323 C322 1.391 . S
C324 H314 0.950 . S
C324 C325 1.386 . S
C324 C326 1.391 . S
C325 C324 1.386 . S
C325 C329 1.393 . S
C326 H315 0.950 . S
C326 C324 1.391 . S
C326 C327 1.400 . S
C327 C321 1.491 . S
C327 C326 1.400 . S
C327 C328 1.398 . S
C328 H316 0.950 . S
C328 C327 1.398 . S
C328 C329 1.391 . S
C329 H317 0.950 . S
C329 C325 1.393 . S
C329 C328 1.391 . S
C105 C61 1.483 . S
C99 C43 1.486 . S
C119 C10 1.487 . S
C125 C84 1.487 . S
C139 C21 1.512 . S
C145 C60 1.517 . S
C159 C32 1.516 . S
C165 C83 1.517 . S
C185 C64 1.488 . S
C179 C5 1.491 . S
C205 C86 1.481 . S
C199 C15 1.543 . S
C219 C27 1.515 . S
C225 C65 1.491 . S
C239 C38 1.524 . S
C245 C85 1.480 . S
C265 C88 1.417 . S
C259 C16 1.436 . S
C285 C63 1.434 . S
C279 C26 1.472 . S
C305 C87 1.393 . S
C299 C37 1.440 . S
C319 C4 1.449 . S
C325 C62 1.398 . S
