# Generated by pormake.
# Topology tsx, (6,3)-cn, num edge types: 1
# Building blocks:
#     Node 0, Type 0, BuildingBlock: VOLQOD_clean_sbu_1, # of connection points: 6
#     Node 1, Type 0, BuildingBlock: VOLQOD_clean_sbu_1, # of connection points: 6
#     Node 2, Type 1, BuildingBlock: CUQRIR_clean_linker_1, # of connection points: 3
#     Node 3, Type 1, BuildingBlock: CUQRIR_clean_linker_1, # of connection points: 3
#     Node 4, Type 1, BuildingBlock: CUQRIR_clean_linker_1, # of connection points: 3
#     Node 5, Type 1, BuildingBlock: CUQRIR_clean_linker_1, # of connection points: 3
#     Edge 6, Type (0, 1), BuildingBlock: CIFDUS_clean_linker_0, # of connection points: 2
#     Edge 7, Type (0, 1), BuildingBlock: CIFDUS_clean_linker_0, # of connection points: 2
#     Edge 8, Type (0, 1), BuildingBlock: CIFDUS_clean_linker_0, # of connection points: 2
#     Edge 9, Type (0, 1), BuildingBlock: CIFDUS_clean_linker_0, # of connection points: 2
#     Edge 10, Type (0, 1), BuildingBlock: CIFDUS_clean_linker_0, # of connection points: 2
#     Edge 11, Type (0, 1), BuildingBlock: CIFDUS_clean_linker_0, # of connection points: 2
#     Edge 12, Type (0, 1), BuildingBlock: CIFDUS_clean_linker_0, # of connection points: 2
#     Edge 13, Type (0, 1), BuildingBlock: CIFDUS_clean_linker_0, # of connection points: 2
#     Edge 14, Type (0, 1), BuildingBlock: CIFDUS_clean_linker_0, # of connection points: 2
#     Edge 15, Type (0, 1), BuildingBlock: CIFDUS_clean_linker_0, # of connection points: 2
#     Edge 16, Type (0, 1), BuildingBlock: CIFDUS_clean_linker_0, # of connection points: 2
#     Edge 17, Type (0, 1), BuildingBlock: CIFDUS_clean_linker_0, # of connection points: 2
# Relax obj value: 0.078
# Max RMSD: 0.141
# Mean RMSD: 0.124
data_MOF--net-tsx--node1-VOLQOD_clean_sbu_1--node2-CUQRIR_clean_linker_1--edge1-CIFDUS_clean_linker_0
_symmetry_space_group_name_H-M    P1
_symmetry_Int_Tables_number       1
_symmetry_cell_setting            triclinic
loop_
_symmetry_equiv_pos_as_xyz
'x, y, z'
_cell_length_a     16.789255
_cell_length_b     17.207235
_cell_length_c     31.730327
_cell_angle_alpha  79.307273
_cell_angle_beta   91.221135
_cell_angle_gamma 89.513823
loop_
_atom_site_label
_atom_site_type_symbol
_atom_site_fract_x
_atom_site_fract_y
_atom_site_fract_z
_atom_type_partial_charge
O0 O 0.11752 0.96093 0.09365 0.0
Zn1 Zn 0.14961 0.97618 0.03147 0.0
O2 O 0.05698 1.00495 -0.00614 0.0
Zn3 Zn 0.03471 0.92235 0.96201 0.0
Zn4 Zn 0.9662 0.01709 0.0281 0.0
Zn5 Zn 0.07379 0.10547 0.95571 0.0
O6 O 0.03986 0.96731 0.89913 0.0
O7 O 0.09109 0.0876 0.8954 0.0
O8 O 0.20774 0.87934 0.018 0.0
O9 O 0.12088 0.83872 0.97317 0.0
O10 O 0.92919 0.8692 0.97837 0.0
O11 O 0.89974 0.9191 0.03612 0.0
O12 O 0.89454 0.10771 -0.00144 0.0
O13 O 0.22386 0.06881 0.02607 0.0
O14 O 0.97497 0.17368 0.95031 0.0
O15 O 0.16416 0.16418 0.9787 0.0
C16 C 0.06283 0.99835 0.10917 0.0
C17 C 0.06829 0.03065 0.8776 0.0
C18 C 0.88735 0.86987 0.0114 0.0
C19 C 0.18642 0.82996 -0.00543 0.0
C20 C 0.90771 0.16565 0.96823 0.0
C21 C 0.2198 0.14032 0.0062 0.0
O22 O 0.0049 0.03261 0.08619 0.0
O23 O 0.6173 0.49973 0.58861 0.0
Zn24 Zn 0.64586 0.52463 0.52597 0.0
O25 O 0.55054 0.55545 0.49096 0.0
Zn26 Zn 0.52596 0.4768 0.45682 0.0
Zn27 Zn 0.4626 0.56387 0.52793 0.0
Zn28 Zn 0.56464 0.65828 0.45482 0.0
O29 O 0.52824 0.52729 0.39449 0.0
O30 O 0.57968 0.64681 0.39333 0.0
O31 O 0.70288 0.43062 0.5084 0.0
O32 O 0.61197 0.39276 0.46472 0.0
O33 O 0.42079 0.4229 0.47352 0.0
O34 O 0.39598 0.46629 0.53385 0.0
O35 O 0.3888 0.65587 0.50214 0.0
O36 O 0.71837 0.61887 0.5228 0.0
O37 O 0.46484 0.72381 0.45231 0.0
O38 O 0.6546 0.71604 0.4785 0.0
C39 C 0.56411 0.53332 0.60732 0.0
C40 C 0.55577 0.59211 0.37413 0.0
C41 C 0.38124 0.42025 0.50765 0.0
C42 C 0.67918 0.38285 0.4845 0.0
C43 C 0.39929 0.71469 0.47187 0.0
C44 C 0.71172 0.69151 0.50492 0.0
O45 O 0.50519 0.57109 0.58687 0.0
C46 C 0.95337 0.98177 0.41773 0.0
N47 N 1.00155 0.95302 0.39057 0.0
N48 N 0.90944 0.04378 0.39683 0.0
C49 C 0.9457 0.94612 0.46397 0.0
C50 C 0.93228 0.05172 0.35565 0.0
N51 N 0.98927 0.99704 0.35189 0.0
C52 C 0.89667 0.11112 0.31911 0.0
H53 H 0.90598 0.89448 0.46623 0.0
H54 H 0.91944 0.98938 0.48141 0.0
H55 H 0.00424 0.92469 0.47851 0.0
H56 H 0.93742 0.16196 0.31153 0.0
H57 H 0.83823 0.13392 0.32737 0.0
H58 H 0.88892 0.08443 0.29005 0.0
C59 C 0.01016 0.07325 0.56769 0.0
N60 N 0.04403 0.11556 0.59518 0.0
N61 N 0.93895 0.04481 0.58214 0.0
C62 C 0.05159 0.05001 0.53033 0.0
C63 C 0.93147 0.06959 0.61977 0.0
N64 N 0.99552 0.11217 0.62809 0.0
C65 C 0.86646 0.04344 0.65095 0.0
H66 H 0.02045 0.07782 0.50017 0.0
H67 H 0.0496 0.98501 0.53311 0.0
H68 H 0.115 0.0675 0.52904 0.0
H69 H 0.88129 0.98331 0.66907 0.0
H70 H 0.80881 0.04044 0.63361 0.0
H71 H 0.86052 0.08427 0.67401 0.0
C72 C 0.46663 0.43654 0.92028 0.0
N73 N 0.5155 0.41554 0.89087 0.0
N74 N 0.4238 0.5021 0.90338 0.0
C75 C 0.45889 0.39176 0.96499 0.0
C76 C 0.44763 0.52025 0.86238 0.0
N77 N 0.50444 0.46815 0.8548 0.0
C78 C 0.41128 0.58599 0.82942 0.0
H79 H 0.41971 0.34045 0.96424 0.0
H80 H 0.43178 0.42997 0.98512 0.0
H81 H 0.51761 0.369 0.97876 0.0
H82 H 0.45114 0.63779 0.82544 0.0
H83 H 0.35242 0.6048 0.83948 0.0
H84 H 0.40384 0.56716 0.79798 0.0
C85 C 0.51959 0.51987 0.07026 0.0
N86 N 0.55467 0.55976 0.09855 0.0
N87 N 0.44893 0.49039 0.08494 0.0
C88 C 0.55955 0.49934 0.03177 0.0
C89 C 0.44307 0.51179 0.12352 0.0
N90 N 0.5075 0.55353 0.13217 0.0
C91 C 0.3792 0.48329 0.15501 0.0
H92 H 0.52623 0.52718 0.00234 0.0
H93 H 0.55889 0.43443 0.03383 0.0
H94 H 0.62245 0.51837 0.0296 0.0
H95 H 0.39484 0.42256 0.17199 0.0
H96 H 0.32104 0.48094 0.13805 0.0
H97 H 0.37386 0.52233 0.17903 0.0
H98 H 0.1976 0.29937 -0.00157 0.0
H99 H 0.36567 0.11036 0.04552 0.0
H100 H 0.4508 0.2022 0.07523 0.0
H101 H 0.47632 0.33617 0.08938 0.0
H102 H 0.30905 0.52469 0.04315 0.0
H103 H 0.22344 0.43328 0.01227 0.0
C104 C 0.25333 0.27849 0.0147 0.0
C105 C 0.27544 0.19814 0.01951 0.0
C106 C 0.30114 0.33129 0.03261 0.0
C107 C 0.34733 0.17188 0.04128 0.0
C108 C 0.39582 0.22422 0.05854 0.0
C109 C 0.42104 0.3565 0.07247 0.0
C110 C 0.39868 0.43636 0.06777 0.0
C111 C 0.37293 0.30375 0.05482 0.0
C112 C 0.32684 0.46318 0.04652 0.0
C113 C 0.27835 0.41108 0.02894 0.0
H114 H 0.14844 0.69496 0.96631 0.0
H115 H 0.34822 0.82009 0.008 0.0
H116 H 0.44033 0.72534 0.98564 0.0
H117 H 0.46383 0.61634 0.94598 0.0
H118 H 0.265 0.48891 0.90682 0.0
H119 H 0.17198 0.57576 0.93574 0.0
C120 C 0.21211 0.70099 0.97102 0.0
C121 C 0.24139 0.7653 0.98821 0.0
C122 C 0.26462 0.64659 0.9579 0.0
C123 C 0.32402 0.77139 -0.00524 0.0
C124 C 0.37678 0.71753 0.98169 0.0
C125 C 0.40017 0.60674 0.94504 0.0
C126 C 0.37045 0.54688 0.92469 0.0
C127 C 0.34777 0.65637 0.96207 0.0
C128 C 0.28821 0.53504 0.92248 0.0
C129 C 0.2355 0.58463 0.9389 0.0
H130 H 0.86239 0.76906 0.08593 0.0
H131 H 0.76541 0.84661 0.95805 0.0
H132 H 0.65052 0.76035 0.97506 0.0
H133 H 0.57714 0.66513 0.02681 0.0
H134 H 0.68426 0.57161 0.15073 0.0
H135 H 0.79449 0.66345 0.13557 0.0
C136 C 0.81608 0.76649 0.06187 0.0
C137 C 0.82152 0.81396 0.02093 0.0
C138 C 0.75179 0.71491 0.07146 0.0
C139 C 0.76213 0.81008 -0.01032 0.0
C140 C 0.69651 0.76119 -0.00053 0.0
C141 C 0.62521 0.66416 0.05028 0.0
C142 C 0.62159 0.61228 0.09007 0.0
C143 C 0.69071 0.71359 0.04028 0.0
C144 C 0.68379 0.61235 0.12041 0.0
C145 C 0.74763 0.66417 0.11147 0.0
H146 H 0.74869 0.13728 0.96715 0.0
H147 H 0.92125 0.31988 0.92944 0.0
H148 H 0.81488 0.41213 0.8983 0.0
H149 H 0.67155 0.44242 0.88412 0.0
H150 H 0.49992 0.25922 0.91957 0.0
H151 H 0.60671 0.16498 0.94854 0.0
C152 C 0.76285 0.19745 0.95239 0.0
C153 C 0.84257 0.2221 0.95119 0.0
C154 C 0.70157 0.24962 0.93363 0.0
C155 C 0.86026 0.29969 0.93106 0.0
C156 C 0.79953 0.35237 0.91309 0.0
C157 C 0.65829 0.38129 0.8973 0.0
C158 C 0.57863 0.35727 0.89992 0.0
C159 C 0.71997 0.32806 0.91422 0.0
C160 C 0.56118 0.27843 0.91744 0.0
C161 C 0.62206 0.22498 0.93421 0.0
H162 H 0.68832 0.85044 0.49733 0.0
H163 H 0.85675 0.66236 0.54568 0.0
H164 H 0.94095 0.75512 0.57524 0.0
H165 H 0.96636 0.89002 0.58817 0.0
H166 H 0.79924 0.07774 0.53999 0.0
H167 H 0.71379 0.98506 0.51006 0.0
C168 C 0.74381 0.82983 0.51397 0.0
C169 C 0.76635 0.74951 0.51903 0.0
C170 C 0.79122 0.88324 0.53163 0.0
C171 C 0.83802 0.7238 0.54121 0.0
C172 C 0.88601 0.77669 0.55838 0.0
C173 C 0.91109 0.90989 0.5711 0.0
C174 C 0.8888 0.98991 0.56557 0.0
C175 C 0.86296 0.85632 0.55408 0.0
C176 C 0.81693 0.01607 0.54411 0.0
C177 C 0.76848 0.96321 0.52711 0.0
H178 H 0.63824 0.25612 0.44901 0.0
H179 H 0.83937 0.362 0.50274 0.0
H180 H 0.92848 0.26298 0.48204 0.0
H181 H 0.95048 0.15391 0.44219 0.0
H182 H 0.7497 0.04619 0.39076 0.0
H183 H 0.65865 0.13906 0.41633 0.0
C184 C 0.70149 0.25736 0.45653 0.0
C185 C 0.73209 0.31733 0.47688 0.0
C186 C 0.75234 0.20049 0.4444 0.0
C187 C 0.81411 0.31695 0.48693 0.0
C188 C 0.86522 0.26054 0.47491 0.0
C189 C 0.88663 0.15016 0.43761 0.0
C190 C 0.8561 0.09407 0.41478 0.0
C191 C 0.83521 0.20324 0.45274 0.0
C192 C 0.77368 0.08959 0.40815 0.0
C193 C 0.72206 0.14249 0.42275 0.0
H194 H 0.35339 0.32218 0.5827 0.0
H195 H 0.26178 0.39397 0.45327 0.0
H196 H 0.1462 0.30861 0.4701 0.0
H197 H 0.07018 0.2165 0.52225 0.0
H198 H 0.17198 0.12891 0.64816 0.0
H199 H 0.28339 0.2192 0.63281 0.0
C200 C 0.30814 0.31857 0.55824 0.0
C201 C 0.31532 0.36425 0.51692 0.0
C202 C 0.24338 0.26762 0.5678 0.0
C203 C 0.25727 0.35885 0.4852 0.0
C204 C 0.19119 0.31051 0.49488 0.0
C205 C 0.11735 0.21649 0.54612 0.0
C206 C 0.11179 0.16694 0.58654 0.0
C207 C 0.18355 0.26498 0.53612 0.0
C208 C 0.17291 0.16808 0.61735 0.0
C209 C 0.23745 0.21895 0.60832 0.0
H210 H 0.24014 0.68544 0.47653 0.0
H211 H 0.40897 0.86712 0.42978 0.0
H212 H 0.30049 0.95521 0.39744 0.0
H213 H 0.15686 0.98137 0.38283 0.0
H214 H 0.98823 0.80005 0.42811 0.0
H215 H 0.09685 0.7103 0.46002 0.0
C216 C 0.25302 0.74464 0.45972 0.0
C217 C 0.33248 0.76996 0.45599 0.0
C218 C 0.19039 0.79446 0.44031 0.0
C219 C 0.34832 0.84632 0.43331 0.0
C220 C 0.28637 0.89662 0.4146 0.0
C221 C 0.14465 0.92157 0.39899 0.0
C222 C 0.06546 0.89663 0.4031 0.0
C223 C 0.20726 0.87119 0.41764 0.0
C224 C 0.04922 0.81975 0.42459 0.0
C225 C 0.11113 0.76895 0.44302 0.0
H226 H 0.04703 0.88367 0.17919 0.0
H227 H 0.08955 0.13258 0.13884 0.0
H228 H 0.0846 0.15203 0.21327 0.0
H229 H 0.05402 0.10043 0.28847 0.0
H230 H 0.99311 0.85563 0.32732 0.0
H231 H 0.02262 0.83077 0.25569 0.0
C232 C 0.05645 0.94166 0.18709 0.0
C233 C 0.06859 1.00675 0.15419 0.0
C234 C 0.05038 0.95276 0.22967 0.0
C235 C 0.07992 0.082 0.16409 0.0
C236 C 0.0771 0.09304 0.20648 0.0
C237 C 0.04757 0.04177 0.28108 0.0
C238 C 0.02031 0.98022 0.31257 0.0
C239 C 0.06011 0.02928 0.23932 0.0
C240 C 0.01434 0.90374 0.30339 0.0
C241 C 0.03027 0.88981 0.26237 0.0
H242 H 0.04767 0.16376 0.81658 0.0
H243 H 0.09652 0.91303 0.8339 0.0
H244 H 0.08777 0.91934 0.75654 0.0
H245 H 0.05287 0.99289 0.68495 0.0
H246 H 0.99311 0.24024 0.66634 0.0
H247 H 0.02017 0.23977 0.74313 0.0
C248 C 0.05772 0.111 0.8032 0.0
C249 C 0.07234 0.03794 0.83072 0.0
C250 C 0.05008 0.11463 0.75865 0.0
C251 C 0.0845 0.96969 0.81325 0.0
C252 C 0.07955 0.97323 0.7691 0.0
C253 C 0.04728 0.04666 0.69795 0.0
C254 C 0.02148 0.11642 0.67089 0.0
C255 C 0.06039 0.04481 0.74173 0.0
C256 C 0.01338 0.18626 0.68715 0.0
C257 C 0.02843 0.18562 0.73084 0.0
H258 H 0.55455 0.40453 0.67011 0.0
H259 H 0.58928 0.65645 0.64724 0.0
H260 H 0.59047 0.65541 0.72457 0.0
H261 H 0.56733 0.58486 0.79774 0.0
H262 H 0.51044 0.3375 0.81946 0.0
H263 H 0.53626 0.33284 0.74429 0.0
C264 C 0.56346 0.4587 0.68238 0.0
C265 C 0.57171 0.53048 0.65364 0.0
C266 C 0.56065 0.45799 0.72666 0.0
C267 C 0.58248 0.60079 0.66924 0.0
C268 C 0.58329 0.60011 0.71328 0.0
C269 C 0.56096 0.53008 0.78586 0.0
C270 C 0.53573 0.46204 0.81362 0.0
C271 C 0.57023 0.52944 0.74216 0.0
C272 C 0.53011 0.39052 0.79855 0.0
C273 C 0.54375 0.38819 0.75549 0.0
H274 H 0.58804 0.48133 0.3274 0.0
H275 H 0.5281 0.72849 0.31573 0.0
H276 H 0.51383 0.74139 0.23756 0.0
H277 H 0.5054 0.67729 0.17322 0.0
H278 H 0.56866 0.43108 0.18664 0.0
H279 H 0.59572 0.42235 0.26343 0.0
C280 C 0.57271 0.53819 0.30763 0.0
C281 C 0.558 0.60354 0.32703 0.0
C282 C 0.56511 0.54502 0.26311 0.0
C283 C 0.53955 0.67734 0.30126 0.0
C284 C 0.53103 0.68459 0.25668 0.0
C285 C 0.52666 0.62266 0.19314 0.0
C286 C 0.53495 0.55467 0.17511 0.0
C287 C 0.54181 0.61828 0.23733 0.0
C288 C 0.56222 0.48363 0.20056 0.0
C289 C 0.57724 0.47869 0.24423 0.0
loop_
_geom_bond_atom_site_label_1
_geom_bond_atom_site_label_2
_geom_bond_distance
_geom_bond_site_symmetry_2
_ccdc_geom_bond_type
O0 Zn1 1.953 . S
O0 C16 1.225 . S
Zn1 O0 1.953 . S
Zn1 O2 1.949 1_565 S
Zn1 O8 1.919 . S
Zn1 O13 1.924 1_565 S
O2 Zn1 1.949 1_545 S
O2 Zn3 1.923 1_544 S
O2 Zn4 1.950 1_455 S
O2 Zn5 1.945 1_554 S
Zn3 O2 1.923 1_566 S
Zn3 O6 1.933 . S
Zn3 O9 1.941 . S
Zn3 O10 1.965 1_455 S
Zn4 O2 1.950 1_655 S
Zn4 O11 1.938 1_545 S
Zn4 O12 1.906 . S
Zn4 O22 1.953 . S
Zn5 O2 1.945 1_556 S
Zn5 O7 1.932 . S
Zn5 O14 1.977 1_455 S
Zn5 O15 1.910 . S
O6 Zn3 1.933 . S
O6 C17 1.226 1_565 S
O7 Zn5 1.932 . S
O7 C17 1.307 . S
O8 Zn1 1.919 . S
O8 C19 1.238 1_554 S
O9 Zn3 1.941 . S
O9 C19 1.290 . S
O10 Zn3 1.965 1_655 S
O10 C18 1.303 1_556 S
O11 Zn4 1.938 1_565 S
O11 C18 1.247 . S
O12 Zn4 1.906 . S
O12 C20 1.304 1_554 S
O13 Zn1 1.924 1_545 S
O13 C21 1.311 . S
O14 Zn5 1.977 1_655 S
O14 C20 1.272 . S
O15 Zn5 1.910 . S
O15 C21 1.231 1_556 S
C16 O0 1.225 . S
C16 O22 1.298 1_465 S
C17 O6 1.226 1_545 S
C17 O7 1.307 . S
C18 O10 1.303 1_554 S
C18 O11 1.247 . S
C19 O8 1.238 1_556 S
C19 O9 1.290 . S
C20 O12 1.304 1_556 S
C20 O14 1.272 . S
C21 O13 1.311 . S
C21 O15 1.231 1_554 S
O22 Zn4 1.953 . S
O22 C16 1.298 1_645 S
O23 Zn24 1.953 . S
O23 C39 1.225 . S
Zn24 O23 1.953 . S
Zn24 O25 1.949 . S
Zn24 O31 1.919 . S
Zn24 O36 1.924 . S
O25 Zn24 1.949 . S
O25 Zn26 1.923 . S
O25 Zn27 1.950 . S
O25 Zn28 1.945 . S
Zn26 O25 1.923 . S
Zn26 O29 1.933 . S
Zn26 O32 1.941 . S
Zn26 O33 1.965 . S
Zn27 O25 1.950 . S
Zn27 O34 1.938 . S
Zn27 O35 1.906 . S
Zn27 O45 1.953 . S
Zn28 O25 1.945 . S
Zn28 O30 1.932 . S
Zn28 O37 1.977 . S
Zn28 O38 1.910 . S
O29 Zn26 1.933 . S
O29 C40 1.226 . S
O30 Zn28 1.932 . S
O30 C40 1.307 . S
O31 Zn24 1.919 . S
O31 C42 1.253 . S
O32 Zn26 1.941 . S
O32 C42 1.283 . S
O33 Zn26 1.965 . S
O33 C41 1.303 . S
O34 Zn27 1.938 . S
O34 C41 1.247 . S
O35 Zn27 1.906 . S
O35 C43 1.304 . S
O36 Zn24 1.924 . S
O36 C44 1.311 . S
O37 Zn28 1.977 . S
O37 C43 1.272 . S
O38 Zn28 1.910 . S
O38 C44 1.231 . S
C39 O23 1.225 . S
C39 O45 1.298 . S
C40 O29 1.226 . S
C40 O30 1.307 . S
C41 O33 1.303 . S
C41 O34 1.247 . S
C42 O31 1.253 . S
C42 O32 1.283 . S
C43 O35 1.304 . S
C43 O37 1.272 . S
C44 O36 1.311 . S
C44 O38 1.231 . S
O45 Zn27 1.953 . S
O45 C39 1.298 . S
C46 N47 1.317 1_545 S
C46 N48 1.348 1_455 S
C46 C49 1.485 1_545 S
N47 C46 1.317 1_565 S
N47 N51 1.370 1_565 S
N48 C46 1.348 1_655 S
N48 C50 1.346 . S
C49 C46 1.485 1_565 S
C49 H53 0.960 1_455 S
C49 H54 0.961 1_565 S
C49 H55 0.960 . S
C50 N48 1.346 . S
C50 N51 1.307 1_655 S
C50 C52 1.486 . S
N51 N47 1.370 1_545 S
N51 C50 1.307 1_455 S
C52 C50 1.486 . S
C52 H56 0.960 . S
C52 H57 0.960 . S
C52 H58 0.959 . S
H53 C49 0.960 1_655 S
H54 C49 0.961 1_545 S
H55 C49 0.960 . S
H56 C52 0.960 . S
H57 C52 0.960 . S
H58 C52 0.959 . S
C59 N60 1.317 . S
C59 N61 1.348 1_445 S
C59 C62 1.485 . S
N60 C59 1.317 . S
N60 N64 1.370 . S
N61 C59 1.348 1_665 S
N61 C63 1.346 . S
C62 C59 1.485 . S
C62 H66 0.960 . S
C62 H67 0.961 1_545 S
C62 H68 0.960 . S
C63 N61 1.346 . S
C63 N64 1.307 1_665 S
C63 C65 1.486 . S
N64 N60 1.370 . S
N64 C63 1.307 1_445 S
C65 C63 1.486 . S
C65 H69 0.960 . S
C65 H70 0.960 . S
C65 H71 0.959 . S
H66 C62 0.960 . S
H67 C62 0.961 1_565 S
H68 C62 0.960 . S
H69 C65 0.960 . S
H70 C65 0.960 . S
H71 C65 0.959 . S
C72 N73 1.317 . S
C72 N74 1.348 . S
C72 C75 1.485 . S
N73 C72 1.317 . S
N73 N77 1.370 . S
N74 C72 1.348 . S
N74 C76 1.346 . S
C75 C72 1.485 . S
C75 H79 0.960 1_556 S
C75 H80 0.961 1_556 S
C75 H81 0.960 . S
C76 N74 1.346 . S
C76 N77 1.307 . S
C76 C78 1.486 . S
N77 N73 1.370 . S
N77 C76 1.307 . S
C78 C76 1.486 . S
C78 H82 0.960 . S
C78 H83 0.960 . S
C78 H84 0.959 . S
H79 C75 0.960 1_554 S
H80 C75 0.961 1_554 S
H81 C75 0.960 . S
H82 C78 0.960 . S
H83 C78 0.960 . S
H84 C78 0.959 . S
C85 N86 1.317 . S
C85 N87 1.348 . S
C85 C88 1.485 . S
N86 C85 1.317 . S
N86 N90 1.370 . S
N87 C85 1.348 . S
N87 C89 1.346 . S
C88 C85 1.485 . S
C88 H92 0.960 1_554 S
C88 H93 0.961 . S
C88 H94 0.960 . S
C89 N87 1.346 . S
C89 N90 1.307 . S
C89 C91 1.486 . S
N90 N86 1.370 . S
N90 C89 1.307 . S
C91 C89 1.486 . S
C91 H95 0.960 . S
C91 H96 0.960 . S
C91 H97 0.959 . S
H92 C88 0.960 1_556 S
H93 C88 0.961 . S
H94 C88 0.960 . S
H95 C91 0.960 . S
H96 C91 0.960 . S
H97 C91 0.959 . S
H98 C104 0.930 . S
H99 C107 0.930 . S
H100 C108 0.930 . S
H101 C109 0.930 . S
H102 C112 0.930 . S
H103 C113 0.930 . S
C104 H98 0.930 . S
C104 C105 1.355 . S
C104 C106 1.415 . S
C105 C104 1.355 . S
C105 C107 1.419 . S
C106 C104 1.415 . S
C106 C111 1.425 . S
C106 C113 1.409 . S
C107 H99 0.930 . S
C107 C105 1.419 . S
C107 C108 1.362 . S
C108 H100 0.930 . S
C108 C107 1.362 . S
C108 C111 1.409 . S
C109 H101 0.930 . S
C109 C110 1.355 . S
C109 C111 1.415 . S
C110 C109 1.355 . S
C110 C112 1.419 . S
C111 C106 1.425 . S
C111 C108 1.409 . S
C111 C109 1.415 . S
C112 H102 0.930 . S
C112 C110 1.419 . S
C112 C113 1.362 . S
C113 H103 0.930 . S
C113 C106 1.409 . S
C113 C112 1.362 . S
H114 C120 0.930 . S
H115 C123 0.930 . S
H116 C124 0.930 . S
H117 C125 0.930 . S
H118 C128 0.930 . S
H119 C129 0.930 . S
C120 H114 0.930 . S
C120 C121 1.355 . S
C120 C122 1.415 . S
C121 C120 1.355 . S
C121 C123 1.419 . S
C122 C120 1.415 . S
C122 C127 1.425 . S
C122 C129 1.409 . S
C123 H115 0.930 . S
C123 C121 1.419 . S
C123 C124 1.362 . S
C124 H116 0.930 . S
C124 C123 1.362 . S
C124 C127 1.409 . S
C125 H117 0.930 . S
C125 C126 1.355 . S
C125 C127 1.415 . S
C126 C125 1.355 . S
C126 C128 1.419 . S
C127 C122 1.425 . S
C127 C124 1.409 . S
C127 C125 1.415 . S
C128 H118 0.930 . S
C128 C126 1.419 . S
C128 C129 1.362 . S
C129 H119 0.930 . S
C129 C122 1.409 . S
C129 C128 1.362 . S
H130 C136 0.930 . S
H131 C139 0.929 . S
H132 C140 0.930 1_556 S
H133 C141 0.930 . S
H134 C144 0.930 . S
H135 C145 0.930 . S
C136 H130 0.930 . S
C136 C137 1.355 . S
C136 C138 1.415 . S
C137 C136 1.355 . S
C137 C139 1.421 1_554 S
C138 C136 1.415 . S
C138 C143 1.425 . S
C138 C145 1.409 . S
C139 H131 0.929 . S
C139 C137 1.421 1_556 S
C139 C140 1.362 1_556 S
C140 H132 0.930 1_554 S
C140 C139 1.362 1_554 S
C140 C143 1.409 . S
C141 H133 0.930 . S
C141 C142 1.355 . S
C141 C143 1.415 . S
C142 C141 1.355 . S
C142 C144 1.419 . S
C143 C138 1.425 . S
C143 C140 1.409 . S
C143 C141 1.415 . S
C144 H134 0.930 . S
C144 C142 1.419 . S
C144 C145 1.362 . S
C145 H135 0.930 . S
C145 C138 1.409 . S
C145 C144 1.362 . S
H146 C152 0.930 . S
H147 C155 0.930 . S
H148 C156 0.930 . S
H149 C157 0.930 . S
H150 C160 0.930 . S
H151 C161 0.930 . S
C152 H146 0.930 . S
C152 C153 1.355 . S
C152 C154 1.415 . S
C153 C152 1.355 . S
C153 C155 1.419 . S
C154 C152 1.415 . S
C154 C159 1.425 . S
C154 C161 1.409 . S
C155 H147 0.930 . S
C155 C153 1.419 . S
C155 C156 1.362 . S
C156 H148 0.930 . S
C156 C155 1.362 . S
C156 C159 1.409 . S
C157 H149 0.930 . S
C157 C158 1.355 . S
C157 C159 1.415 . S
C158 C157 1.355 . S
C158 C160 1.419 . S
C159 C154 1.425 . S
C159 C156 1.409 . S
C159 C157 1.415 . S
C160 H150 0.930 . S
C160 C158 1.419 . S
C160 C161 1.362 . S
C161 H151 0.930 . S
C161 C154 1.409 . S
C161 C160 1.362 . S
H162 C168 0.930 . S
H163 C171 0.930 . S
H164 C172 0.930 . S
H165 C173 0.930 . S
H166 C176 0.930 . S
H167 C177 0.930 . S
C168 H162 0.930 . S
C168 C169 1.355 . S
C168 C170 1.415 . S
C169 C168 1.355 . S
C169 C171 1.419 . S
C170 C168 1.415 . S
C170 C175 1.425 . S
C170 C177 1.409 . S
C171 H163 0.930 . S
C171 C169 1.419 . S
C171 C172 1.362 . S
C172 H164 0.930 . S
C172 C171 1.362 . S
C172 C175 1.409 . S
C173 H165 0.930 . S
C173 C174 1.355 . S
C173 C175 1.415 . S
C174 C173 1.355 . S
C174 C176 1.419 . S
C175 C170 1.425 . S
C175 C172 1.409 . S
C175 C173 1.415 . S
C176 H166 0.930 . S
C176 C174 1.419 . S
C176 C177 1.362 . S
C177 H167 0.930 . S
C177 C170 1.409 . S
C177 C176 1.362 . S
H178 C184 0.930 . S
H179 C187 0.930 . S
H180 C188 0.930 . S
H181 C189 0.930 . S
H182 C192 0.930 . S
H183 C193 0.930 . S
C184 H178 0.930 . S
C184 C185 1.355 . S
C184 C186 1.415 . S
C185 C184 1.355 . S
C185 C187 1.419 . S
C186 C184 1.415 . S
C186 C191 1.425 . S
C186 C193 1.409 . S
C187 H179 0.930 . S
C187 C185 1.419 . S
C187 C188 1.362 . S
C188 H180 0.930 . S
C188 C187 1.362 . S
C188 C191 1.409 . S
C189 H181 0.930 . S
C189 C190 1.355 . S
C189 C191 1.415 . S
C190 C189 1.355 . S
C190 C192 1.419 . S
C191 C186 1.425 . S
C191 C188 1.409 . S
C191 C189 1.415 . S
C192 H182 0.930 . S
C192 C190 1.419 . S
C192 C193 1.362 . S
C193 H183 0.930 . S
C193 C186 1.409 . S
C193 C192 1.362 . S
H194 C200 0.930 . S
H195 C203 0.930 . S
H196 C204 0.930 . S
H197 C205 0.930 . S
H198 C208 0.930 . S
H199 C209 0.930 . S
C200 H194 0.930 . S
C200 C201 1.355 . S
C200 C202 1.415 . S
C201 C200 1.355 . S
C201 C203 1.419 . S
C202 C200 1.415 . S
C202 C207 1.425 . S
C202 C209 1.409 . S
C203 H195 0.930 . S
C203 C201 1.419 . S
C203 C204 1.362 . S
C204 H196 0.930 . S
C204 C203 1.362 . S
C204 C207 1.409 . S
C205 H197 0.930 . S
C205 C206 1.355 . S
C205 C207 1.415 . S
C206 C205 1.355 . S
C206 C208 1.419 . S
C207 C202 1.425 . S
C207 C204 1.409 . S
C207 C205 1.415 . S
C208 H198 0.930 . S
C208 C206 1.419 . S
C208 C209 1.362 . S
C209 H199 0.930 . S
C209 C202 1.409 . S
C209 C208 1.362 . S
H210 C216 0.930 . S
H211 C219 0.930 . S
H212 C220 0.930 . S
H213 C221 0.930 . S
H214 C224 0.930 . S
H215 C225 0.930 . S
C216 H210 0.930 . S
C216 C217 1.355 . S
C216 C218 1.415 . S
C217 C216 1.355 . S
C217 C219 1.419 . S
C218 C216 1.415 . S
C218 C223 1.425 . S
C218 C225 1.409 . S
C219 H211 0.930 . S
C219 C217 1.419 . S
C219 C220 1.362 . S
C220 H212 0.930 . S
C220 C219 1.362 . S
C220 C223 1.409 . S
C221 H213 0.930 . S
C221 C222 1.355 . S
C221 C223 1.415 . S
C222 C221 1.355 . S
C222 C224 1.419 . S
C223 C218 1.425 . S
C223 C220 1.409 . S
C223 C221 1.415 . S
C224 H214 0.930 . S
C224 C222 1.419 . S
C224 C225 1.362 . S
C225 H215 0.930 . S
C225 C218 1.409 . S
C225 C224 1.362 . S
H226 C232 0.930 1_655 S
H227 C235 0.930 . S
H228 C236 0.930 . S
H229 C237 0.930 . S
H230 C240 0.930 . S
H231 C241 0.930 . S
C232 H226 0.930 1_455 S
C232 C233 1.355 . S
C232 C234 1.415 . S
C233 C232 1.355 . S
C233 C235 1.419 1_565 S
C234 C232 1.415 . S
C234 C239 1.425 1_565 S
C234 C241 1.409 1_455 S
C235 H227 0.930 . S
C235 C233 1.419 1_545 S
C235 C236 1.362 . S
C236 H228 0.930 . S
C236 C235 1.362 . S
C236 C239 1.409 . S
C237 H229 0.930 . S
C237 C238 1.355 1_545 S
C237 C239 1.415 . S
C238 C237 1.355 1_565 S
C238 C240 1.419 1_455 S
C239 C234 1.425 1_545 S
C239 C236 1.409 . S
C239 C237 1.415 . S
C240 H230 0.930 . S
C240 C238 1.419 1_655 S
C240 C241 1.362 . S
C241 H231 0.930 . S
C241 C234 1.409 1_655 S
C241 C240 1.362 . S
H242 C248 0.930 . S
H243 C251 0.931 . S
H244 C252 0.930 1_655 S
H245 C253 0.930 . S
H246 C256 0.930 . S
H247 C257 0.930 . S
C248 H242 0.930 . S
C248 C249 1.355 . S
C248 C250 1.415 . S
C249 C248 1.355 . S
C249 C251 1.419 1_545 S
C250 C248 1.415 . S
C250 C255 1.425 1_545 S
C250 C257 1.409 . S
C251 H243 0.931 . S
C251 C249 1.419 1_565 S
C251 C252 1.362 . S
C252 H244 0.930 1_455 S
C252 C251 1.362 . S
C252 C255 1.409 . S
C253 H245 0.930 . S
C253 C254 1.355 1_565 S
C253 C255 1.415 . S
C254 C253 1.355 1_545 S
C254 C256 1.419 . S
C255 C250 1.425 1_565 S
C255 C252 1.409 . S
C255 C253 1.415 . S
C256 H246 0.930 . S
C256 C254 1.419 . S
C256 C257 1.362 . S
C257 H247 0.930 . S
C257 C250 1.409 . S
C257 C256 1.362 . S
H258 C264 0.930 . S
H259 C267 0.930 . S
H260 C268 0.930 . S
H261 C269 0.930 . S
H262 C272 0.930 . S
H263 C273 0.930 . S
C264 H258 0.930 . S
C264 C265 1.355 . S
C264 C266 1.415 . S
C265 C264 1.355 . S
C265 C267 1.419 . S
C266 C264 1.415 . S
C266 C271 1.425 . S
C266 C273 1.409 . S
C267 H259 0.930 . S
C267 C265 1.419 . S
C267 C268 1.362 . S
C268 H260 0.930 . S
C268 C267 1.362 . S
C268 C271 1.409 . S
C269 H261 0.930 . S
C269 C270 1.355 . S
C269 C271 1.415 . S
C270 C269 1.355 . S
C270 C272 1.419 . S
C271 C266 1.425 . S
C271 C268 1.409 . S
C271 C269 1.415 . S
C272 H262 0.930 . S
C272 C270 1.419 . S
C272 C273 1.362 . S
C273 H263 0.930 . S
C273 C266 1.409 . S
C273 C272 1.362 . S
H274 C280 0.930 . S
H275 C283 0.930 . S
H276 C284 0.930 . S
H277 C285 0.930 . S
H278 C288 0.930 . S
H279 C289 0.930 . S
C280 H274 0.930 . S
C280 C281 1.355 . S
C280 C282 1.415 . S
C281 C280 1.355 . S
C281 C283 1.419 . S
C282 C280 1.415 . S
C282 C287 1.425 . S
C282 C289 1.409 . S
C283 H275 0.930 . S
C283 C281 1.419 . S
C283 C284 1.362 . S
C284 H276 0.930 . S
C284 C283 1.362 . S
C284 C287 1.409 . S
C285 H277 0.930 . S
C285 C286 1.355 . S
C285 C287 1.415 . S
C286 C285 1.355 . S
C286 C288 1.419 . S
C287 C282 1.425 . S
C287 C284 1.409 . S
C287 C285 1.415 . S
C288 H278 0.930 . S
C288 C286 1.419 . S
C288 C289 1.362 . S
C289 H279 0.930 . S
C289 C282 1.409 . S
C289 C288 1.362 . S
C110 N87 1.412 . S
C105 C21 1.406 . S
C121 C19 1.428 . S
C126 N74 1.415 . S
C137 C18 1.467 . S
C142 N86 1.509 . S
C153 C20 1.500 . S
C158 N73 1.520 . S
C169 C44 1.403 . S
C174 N61 1.401 . S
C185 C42 1.412 . S
C190 N48 1.408 . S
C206 N60 1.502 . S
C201 C41 1.451 . S
C222 N47 1.510 . S
C217 C43 1.515 . S
C233 C16 1.518 . S
C238 N51 1.522 1_565 S
C249 C17 1.483 . S
C254 N64 1.500 . S
C270 N77 1.523 . S
C265 C39 1.519 . S
C281 C40 1.496 . S
C286 N90 1.475 . S
