# Generated by pormake.
# Topology llk, (3,12)-cn, num edge types: 1
# Building blocks:
#     Node 0, Type 0, BuildingBlock: QEWDON_clean_linker_0, # of connection points: 3
#     Node 1, Type 0, BuildingBlock: QEWDON_clean_linker_0, # of connection points: 3
#     Node 2, Type 0, BuildingBlock: QEWDON_clean_linker_0, # of connection points: 3
#     Node 3, Type 0, BuildingBlock: QEWDON_clean_linker_0, # of connection points: 3
#     Node 4, Type 0, BuildingBlock: QEWDON_clean_linker_0, # of connection points: 3
#     Node 5, Type 0, BuildingBlock: QEWDON_clean_linker_0, # of connection points: 3
#     Node 6, Type 0, BuildingBlock: QEWDON_clean_linker_0, # of connection points: 3
#     Node 7, Type 0, BuildingBlock: QEWDON_clean_linker_0, # of connection points: 3
#     Node 8, Type 0, BuildingBlock: QEWDON_clean_linker_0, # of connection points: 3
#     Node 9, Type 0, BuildingBlock: QEWDON_clean_linker_0, # of connection points: 3
#     Node 10, Type 0, BuildingBlock: QEWDON_clean_linker_0, # of connection points: 3
#     Node 11, Type 0, BuildingBlock: QEWDON_clean_linker_0, # of connection points: 3
#     Node 12, Type 0, BuildingBlock: QEWDON_clean_linker_0, # of connection points: 3
#     Node 13, Type 0, BuildingBlock: QEWDON_clean_linker_0, # of connection points: 3
#     Node 14, Type 0, BuildingBlock: QEWDON_clean_linker_0, # of connection points: 3
#     Node 15, Type 0, BuildingBlock: QEWDON_clean_linker_0, # of connection points: 3
#     Node 16, Type 0, BuildingBlock: QEWDON_clean_linker_0, # of connection points: 3
#     Node 17, Type 0, BuildingBlock: QEWDON_clean_linker_0, # of connection points: 3
#     Node 18, Type 0, BuildingBlock: QEWDON_clean_linker_0, # of connection points: 3
#     Node 19, Type 0, BuildingBlock: QEWDON_clean_linker_0, # of connection points: 3
#     Node 20, Type 0, BuildingBlock: QEWDON_clean_linker_0, # of connection points: 3
#     Node 21, Type 0, BuildingBlock: QEWDON_clean_linker_0, # of connection points: 3
#     Node 22, Type 0, BuildingBlock: QEWDON_clean_linker_0, # of connection points: 3
#     Node 23, Type 0, BuildingBlock: QEWDON_clean_linker_0, # of connection points: 3
#     Node 24, Type 1, BuildingBlock: EZIPEK_clean_sbu_0, # of connection points: 12
#     Node 25, Type 1, BuildingBlock: EZIPEK_clean_sbu_0, # of connection points: 12
#     Node 26, Type 1, BuildingBlock: EZIPEK_clean_sbu_0, # of connection points: 12
#     Node 27, Type 1, BuildingBlock: EZIPEK_clean_sbu_0, # of connection points: 12
#     Node 28, Type 1, BuildingBlock: EZIPEK_clean_sbu_0, # of connection points: 12
#     Node 29, Type 1, BuildingBlock: EZIPEK_clean_sbu_0, # of connection points: 12
#     Edge 30, Type (0, 1), BuildingBlock: ZUJKAS_clean_linker_0, # of connection points: 2
#     Edge 31, Type (0, 1), BuildingBlock: ZUJKAS_clean_linker_0, # of connection points: 2
#     Edge 32, Type (0, 1), BuildingBlock: ZUJKAS_clean_linker_0, # of connection points: 2
#     Edge 33, Type (0, 1), BuildingBlock: ZUJKAS_clean_linker_0, # of connection points: 2
#     Edge 34, Type (0, 1), BuildingBlock: ZUJKAS_clean_linker_0, # of connection points: 2
#     Edge 35, Type (0, 1), BuildingBlock: ZUJKAS_clean_linker_0, # of connection points: 2
#     Edge 36, Type (0, 1), BuildingBlock: ZUJKAS_clean_linker_0, # of connection points: 2
#     Edge 37, Type (0, 1), BuildingBlock: ZUJKAS_clean_linker_0, # of connection points: 2
#     Edge 38, Type (0, 1), BuildingBlock: ZUJKAS_clean_linker_0, # of connection points: 2
#     Edge 39, Type (0, 1), BuildingBlock: ZUJKAS_clean_linker_0, # of connection points: 2
#     Edge 40, Type (0, 1), BuildingBlock: ZUJKAS_clean_linker_0, # of connection points: 2
#     Edge 41, Type (0, 1), BuildingBlock: ZUJKAS_clean_linker_0, # of connection points: 2
#     Edge 42, Type (0, 1), BuildingBlock: ZUJKAS_clean_linker_0, # of connection points: 2
#     Edge 43, Type (0, 1), BuildingBlock: ZUJKAS_clean_linker_0, # of connection points: 2
#     Edge 44, Type (0, 1), BuildingBlock: ZUJKAS_clean_linker_0, # of connection points: 2
#     Edge 45, Type (0, 1), BuildingBlock: ZUJKAS_clean_linker_0, # of connection points: 2
#     Edge 46, Type (0, 1), BuildingBlock: ZUJKAS_clean_linker_0, # of connection points: 2
#     Edge 47, Type (0, 1), BuildingBlock: ZUJKAS_clean_linker_0, # of connection points: 2
#     Edge 48, Type (0, 1), BuildingBlock: ZUJKAS_clean_linker_0, # of connection points: 2
#     Edge 49, Type (0, 1), BuildingBlock: ZUJKAS_clean_linker_0, # of connection points: 2
#     Edge 50, Type (0, 1), BuildingBlock: ZUJKAS_clean_linker_0, # of connection points: 2
#     Edge 51, Type (0, 1), BuildingBlock: ZUJKAS_clean_linker_0, # of connection points: 2
#     Edge 52, Type (0, 1), BuildingBlock: ZUJKAS_clean_linker_0, # of connection points: 2
#     Edge 53, Type (0, 1), BuildingBlock: ZUJKAS_clean_linker_0, # of connection points: 2
#     Edge 54, Type (0, 1), BuildingBlock: ZUJKAS_clean_linker_0, # of connection points: 2
#     Edge 55, Type (0, 1), BuildingBlock: ZUJKAS_clean_linker_0, # of connection points: 2
#     Edge 56, Type (0, 1), BuildingBlock: ZUJKAS_clean_linker_0, # of connection points: 2
#     Edge 57, Type (0, 1), BuildingBlock: ZUJKAS_clean_linker_0, # of connection points: 2
#     Edge 58, Type (0, 1), BuildingBlock: ZUJKAS_clean_linker_0, # of connection points: 2
#     Edge 59, Type (0, 1), BuildingBlock: ZUJKAS_clean_linker_0, # of connection points: 2
#     Edge 60, Type (0, 1), BuildingBlock: ZUJKAS_clean_linker_0, # of connection points: 2
#     Edge 61, Type (0, 1), BuildingBlock: ZUJKAS_clean_linker_0, # of connection points: 2
#     Edge 62, Type (0, 1), BuildingBlock: ZUJKAS_clean_linker_0, # of connection points: 2
#     Edge 63, Type (0, 1), BuildingBlock: ZUJKAS_clean_linker_0, # of connection points: 2
#     Edge 64, Type (0, 1), BuildingBlock: ZUJKAS_clean_linker_0, # of connection points: 2
#     Edge 65, Type (0, 1), BuildingBlock: ZUJKAS_clean_linker_0, # of connection points: 2
#     Edge 66, Type (0, 1), BuildingBlock: ZUJKAS_clean_linker_0, # of connection points: 2
#     Edge 67, Type (0, 1), BuildingBlock: ZUJKAS_clean_linker_0, # of connection points: 2
#     Edge 68, Type (0, 1), BuildingBlock: ZUJKAS_clean_linker_0, # of connection points: 2
#     Edge 69, Type (0, 1), BuildingBlock: ZUJKAS_clean_linker_0, # of connection points: 2
#     Edge 70, Type (0, 1), BuildingBlock: ZUJKAS_clean_linker_0, # of connection points: 2
#     Edge 71, Type (0, 1), BuildingBlock: ZUJKAS_clean_linker_0, # of connection points: 2
#     Edge 72, Type (0, 1), BuildingBlock: ZUJKAS_clean_linker_0, # of connection points: 2
#     Edge 73, Type (0, 1), BuildingBlock: ZUJKAS_clean_linker_0, # of connection points: 2
#     Edge 74, Type (0, 1), BuildingBlock: ZUJKAS_clean_linker_0, # of connection points: 2
#     Edge 75, Type (0, 1), BuildingBlock: ZUJKAS_clean_linker_0, # of connection points: 2
#     Edge 76, Type (0, 1), BuildingBlock: ZUJKAS_clean_linker_0, # of connection points: 2
#     Edge 77, Type (0, 1), BuildingBlock: ZUJKAS_clean_linker_0, # of connection points: 2
#     Edge 78, Type (0, 1), BuildingBlock: ZUJKAS_clean_linker_0, # of connection points: 2
#     Edge 79, Type (0, 1), BuildingBlock: ZUJKAS_clean_linker_0, # of connection points: 2
#     Edge 80, Type (0, 1), BuildingBlock: ZUJKAS_clean_linker_0, # of connection points: 2
#     Edge 81, Type (0, 1), BuildingBlock: ZUJKAS_clean_linker_0, # of connection points: 2
#     Edge 82, Type (0, 1), BuildingBlock: ZUJKAS_clean_linker_0, # of connection points: 2
#     Edge 83, Type (0, 1), BuildingBlock: ZUJKAS_clean_linker_0, # of connection points: 2
#     Edge 84, Type (0, 1), BuildingBlock: ZUJKAS_clean_linker_0, # of connection points: 2
#     Edge 85, Type (0, 1), BuildingBlock: ZUJKAS_clean_linker_0, # of connection points: 2
#     Edge 86, Type (0, 1), BuildingBlock: ZUJKAS_clean_linker_0, # of connection points: 2
#     Edge 87, Type (0, 1), BuildingBlock: ZUJKAS_clean_linker_0, # of connection points: 2
#     Edge 88, Type (0, 1), BuildingBlock: ZUJKAS_clean_linker_0, # of connection points: 2
#     Edge 89, Type (0, 1), BuildingBlock: ZUJKAS_clean_linker_0, # of connection points: 2
#     Edge 90, Type (0, 1), BuildingBlock: ZUJKAS_clean_linker_0, # of connection points: 2
#     Edge 91, Type (0, 1), BuildingBlock: ZUJKAS_clean_linker_0, # of connection points: 2
#     Edge 92, Type (0, 1), BuildingBlock: ZUJKAS_clean_linker_0, # of connection points: 2
#     Edge 93, Type (0, 1), BuildingBlock: ZUJKAS_clean_linker_0, # of connection points: 2
#     Edge 94, Type (0, 1), BuildingBlock: ZUJKAS_clean_linker_0, # of connection points: 2
#     Edge 95, Type (0, 1), BuildingBlock: ZUJKAS_clean_linker_0, # of connection points: 2
#     Edge 96, Type (0, 1), BuildingBlock: ZUJKAS_clean_linker_0, # of connection points: 2
#     Edge 97, Type (0, 1), BuildingBlock: ZUJKAS_clean_linker_0, # of connection points: 2
#     Edge 98, Type (0, 1), BuildingBlock: ZUJKAS_clean_linker_0, # of connection points: 2
#     Edge 99, Type (0, 1), BuildingBlock: ZUJKAS_clean_linker_0, # of connection points: 2
#     Edge 100, Type (0, 1), BuildingBlock: ZUJKAS_clean_linker_0, # of connection points: 2
#     Edge 101, Type (0, 1), BuildingBlock: ZUJKAS_clean_linker_0, # of connection points: 2
# Relax obj value: 0.085
# Max RMSD: 0.248
# Mean RMSD: 0.189
data_MOF--net-llk--node1-EZIPEK_clean_sbu_0--node2-QEWDON_clean_linker_0--edge1-ZUJKAS_clean_linker_0
_symmetry_space_group_name_H-M    P1
_symmetry_Int_Tables_number       1
_symmetry_cell_setting            triclinic
loop_
_symmetry_equiv_pos_as_xyz
'x, y, z'
_cell_length_a     62.168576
_cell_length_b     61.587344
_cell_length_c     61.013978
_cell_angle_alpha  89.995051
_cell_angle_beta   89.964788
_cell_angle_gamma 89.980168
loop_
_atom_site_label
_atom_site_type_symbol
_atom_site_fract_x
_atom_site_fract_y
_atom_site_fract_z
_atom_type_partial_charge
H0 H 1.00371 0.28827 0.27334 0.0
C1 C 0.0073 0.27305 0.28144 0.0
C2 C 0.01334 0.27332 0.3036 0.0
C3 C 0.00556 0.25336 0.26985 0.0
H4 H 0.02098 0.2537 0.33173 0.0
C5 C 0.01731 0.25361 0.31437 0.0
C6 C 0.01543 0.23374 0.30328 0.0
C7 C 0.00982 0.23376 0.28097 0.0
C8 C 0.99858 0.25332 0.24644 0.0
H9 H 0.0089 0.21844 0.2723 0.0
C10 C 1.00441 0.27042 0.23223 0.0
C11 C 0.99678 0.27116 0.21052 0.0
C12 C 0.98538 0.2366 0.23831 0.0
H13 H 0.98011 0.22344 0.24877 0.0
C14 C 0.97824 0.23695 0.21663 0.0
H15 H 0.01502 0.28315 0.23795 0.0
C16 C 0.98379 0.25412 0.20283 0.0
H17 H 0.97744 0.25431 0.18631 0.0
H18 H 0.96799 0.22406 0.21062 0.0
H19 H 0.75278 0.01874 0.29402 0.0
C20 C 0.74539 0.01456 0.27851 0.0
C21 C 0.72336 0.00954 0.278 0.0
C22 C 0.75757 0.01538 0.25905 0.0
H23 H 0.69647 1.0014 0.25733 0.0
C24 C 0.7135 0.00513 0.25781 0.0
C25 C 0.72516 0.00607 0.23816 0.0
C26 C 0.74722 0.01102 0.23891 0.0
C27 C 0.78074 0.02191 0.25969 0.0
H28 H 0.75628 0.01135 0.22374 0.0
C29 C 0.79419 0.01601 0.27741 0.0
C30 C 0.81583 0.02288 0.27822 0.0
C31 C 0.7894 0.03476 0.24277 0.0
H32 H 0.77954 0.04016 0.22921 0.0
C33 C 0.81083 0.04137 0.24337 0.0
H34 H 0.78798 0.00583 0.29044 0.0
C35 C 0.82395 0.03555 0.26093 0.0
H36 H 0.84036 0.04143 0.26118 0.0
H37 H 0.81723 0.05135 0.2303 0.0
H38 H 1.00343 0.73929 0.29422 0.0
C39 C 0.00576 0.73077 0.27888 0.0
C40 C 0.01156 0.70877 0.27942 0.0
C41 C 1.00258 0.74161 0.25879 0.0
H42 H 0.01768 0.68022 0.26008 0.0
C43 C 0.01367 0.69735 0.25968 0.0
C44 C 0.00998 0.70753 0.23948 0.0
C45 C 1.00499 0.72979 0.23911 0.0
C46 C 0.99573 0.76488 0.25853 0.0
H47 H 1.00249 0.7377 0.22347 0.0
C48 C 1.00266 0.77941 0.27496 0.0
C49 C 0.99505 0.80094 0.27568 0.0
C50 C 0.98144 0.77254 0.24238 0.0
H51 H 0.97523 0.76187 0.2298 0.0
C52 C 0.97436 0.79404 0.24263 0.0
H53 H 0.01407 0.77407 0.28723 0.0
C54 C 0.98099 0.80813 0.25918 0.0
H55 H 0.97461 0.8245 0.25938 0.0
H56 H 0.96327 0.79967 0.23019 0.0
H57 H 0.28726 0.99076 0.29453 0.0
C58 C 0.2948 0.99418 0.2789 0.0
C59 C 0.31646 1.00061 0.27854 0.0
C60 C 0.28311 0.9915 0.25933 0.0
H61 H 0.34356 0.00818 0.25799 0.0
C62 C 0.32657 0.00427 0.25833 0.0
C63 C 0.31543 1.00156 0.23853 0.0
C64 C 0.29363 0.9954 0.23916 0.0
C65 C 0.26049 0.98319 0.26004 0.0
H66 H 0.28494 0.99364 0.22388 0.0
C67 C 0.24647 0.98853 0.27753 0.0
C68 C 0.22594 0.97893 0.27916 0.0
C69 C 0.25318 0.96869 0.24384 0.0
H70 H 0.2635 0.96374 0.23045 0.0
C71 C 0.23263 0.95969 0.24507 0.0
H72 H 0.25161 0.99972 0.29017 0.0
C73 C 0.21915 0.96462 0.26264 0.0
H74 H 0.20336 0.95721 0.26331 0.0
H75 H 0.22726 0.94852 0.23252 0.0
H76 H 1.00209 0.7179 0.74286 0.0
C77 C 0.00588 0.73309 0.73481 0.0
C78 C 0.0119 0.73276 0.71264 0.0
C79 C 1.00447 0.75279 0.74646 0.0
H80 H 0.01965 0.7523 0.68447 0.0
C81 C 0.01603 0.75243 0.70186 0.0
C82 C 0.01442 0.77231 0.71295 0.0
C83 C 0.00896 0.77234 0.73531 0.0
C84 C 0.99768 0.75295 0.76998 0.0
H85 H 0.00837 0.78767 0.74398 0.0
C86 C 1.00298 0.73559 0.78412 0.0
C87 C 0.99561 0.73515 0.80595 0.0
C88 C 0.9852 0.77016 0.77832 0.0
H89 H 0.98027 0.78353 0.76796 0.0
C90 C 0.9784 0.77013 0.8001 0.0
H91 H 0.01256 0.72219 0.77808 0.0
C92 C 0.9835 0.75278 0.81384 0.0
H93 H 0.97793 0.75319 0.83065 0.0
H94 H 0.96888 0.7835 0.80631 0.0
H95 H 0.28777 0.01758 0.72298 0.0
C96 C 0.29522 0.01359 0.73851 0.0
C97 C 0.31733 0.00895 0.73906 0.0
C98 C 0.283 0.01427 0.75796 0.0
H99 H 0.34434 1.00134 0.75976 0.0
C100 C 0.32725 0.00478 0.75926 0.0
C101 C 0.31557 0.00556 0.7789 0.0
C102 C 0.29342 0.01015 0.77813 0.0
C103 C 0.25972 0.0204 0.75728 0.0
H104 H 0.28436 0.01036 0.79329 0.0
C105 C 0.2464 0.01431 0.73951 0.0
C106 C 0.22465 0.02083 0.73866 0.0
C107 C 0.2508 0.03307 0.7742 0.0
H108 H 0.26054 0.03862 0.78779 0.0
C109 C 0.22926 0.03932 0.77356 0.0
H110 H 0.25281 0.00427 0.72648 0.0
C111 C 0.21628 0.03332 0.75597 0.0
H112 H 0.19977 0.03893 0.75569 0.0
H113 H 0.22267 0.04917 0.78664 0.0
H114 H 0.99969 0.26741 0.72289 0.0
C115 C 1.00237 0.27605 0.73811 0.0
C116 C 1.00475 0.29869 0.73748 0.0
C117 C 1.00242 0.26479 0.75824 0.0
H118 H 0.00898 0.32771 0.75665 0.0
C119 C 0.00697 0.31022 0.75712 0.0
C120 C 0.00705 0.29946 0.77734 0.0
C121 C 0.00522 0.27673 0.7778 0.0
C122 C 0.99837 0.24088 0.75887 0.0
H123 H 0.00555 0.26848 0.79346 0.0
C124 C 0.00531 0.22722 0.74167 0.0
C125 C 1.00021 0.20492 0.74158 0.0
C126 C 0.98662 0.23164 0.77628 0.0
H127 H 0.98045 0.24156 0.78951 0.0
C128 C 0.98203 0.20949 0.77655 0.0
H129 H 0.01477 0.23384 0.72836 0.0
C130 C 0.98865 0.19621 0.75932 0.0
H131 H 0.98417 0.17923 0.75964 0.0
H132 H 0.97287 0.20265 0.78997 0.0
H133 H 0.73481 0.01606 0.7415 0.0
C134 C 0.75003 0.01364 0.73323 0.0
C135 C 0.74993 0.00891 0.71075 0.0
C136 C 0.76947 0.01563 0.7449 0.0
H137 H 0.76946 0.00335 0.6822 0.0
C138 C 0.76955 0.00664 0.69965 0.0
C139 C 0.78923 0.00919 0.71061 0.0
C140 C 0.78906 0.01313 0.73336 0.0
C141 C 0.76913 0.0215 0.76875 0.0
H142 H 0.80423 0.01471 0.7419 0.0
C143 C 0.75195 0.01502 0.78252 0.0
C144 C 0.75081 0.02194 0.80452 0.0
C145 C 0.78547 0.03459 0.77772 0.0
H146 H 0.79861 0.04051 0.76774 0.0
C147 C 0.78475 0.04093 0.79966 0.0
H148 H 0.73943 0.00451 0.77625 0.0
C149 C 0.76755 0.03479 0.81294 0.0
H150 H 0.76709 0.04065 0.82967 0.0
H151 H 0.79737 0.05111 0.80627 0.0
H152 H 0.28884 0.28944 0.01693 0.0
C153 C 0.29645 0.2739 0.01402 0.0
C154 C 0.31866 0.27338 0.00988 0.0
C155 C 0.28421 0.25465 0.01466 0.0
H156 H 0.34622 0.25288 0.0047 0.0
C157 C 0.32892 0.25332 0.00691 0.0
C158 C 0.31736 0.23379 0.00781 0.0
C159 C 0.29497 0.23458 0.01141 0.0
C160 C 0.26047 0.25554 0.01939 0.0
H161 H 0.28604 0.21951 0.0114 0.0
C162 C 0.24778 0.27385 0.01361 0.0
C163 C 0.22565 0.27474 0.01877 0.0
C164 C 0.25035 0.23822 0.03042 0.0
H165 H 0.25938 0.22423 0.03592 0.0
C166 C 0.22841 0.23888 0.03513 0.0
H167 H 0.25487 0.28733 0.00482 0.0
C168 C 0.21613 0.25693 0.02937 0.0
H169 H 0.19924 0.25719 0.03374 0.0
H170 H 0.22093 0.22543 0.04365 0.0
H171 H 0.29008 0.7168 0.99752 0.0
C172 C 0.29739 0.73236 0.00106 0.0
C173 C 0.3195 0.73319 0.00575 0.0
C174 C 0.28502 0.75148 0.99971 0.0
H175 H 0.3464 0.75413 0.01266 0.0
C176 C 0.32931 0.75342 0.0092 0.0
C177 C 0.31755 0.7728 0.00768 0.0
C178 C 0.29536 0.7717 0.00312 0.0
C179 C 0.2617 0.75031 0.99347 0.0
H180 H 0.28622 0.78665 0.00239 0.0
C181 C 0.24856 0.73249 0.99965 0.0
C182 C 0.22685 0.73121 0.99289 0.0
C183 C 0.25259 0.76678 0.98044 0.0
H184 H 0.26213 0.78034 0.97473 0.0
C185 C 0.23113 0.76571 0.97395 0.0
H186 H 0.25504 0.71975 0.00994 0.0
C187 C 0.21837 0.74813 0.98004 0.0
H188 H 0.20193 0.74755 0.97421 0.0
H189 H 0.22443 0.77845 0.96381 0.0
H190 H 0.73472 0.27168 0.01959 0.0
C191 C 0.75014 0.27946 0.01725 0.0
C192 C 0.75058 0.30199 0.01378 0.0
C193 C 0.76929 0.26718 0.01807 0.0
H194 H 0.7708 0.33009 0.00999 0.0
C195 C 0.77043 0.3126 0.012 0.0
C196 C 0.78983 0.30108 0.01322 0.0
C197 C 0.78916 0.27831 0.0155 0.0
C198 C 0.76847 0.2432 0.02303 0.0
H199 H 0.80421 0.2695 0.01581 0.0
C200 C 0.7501 0.23034 0.01805 0.0
C201 C 0.74877 0.20839 0.02473 0.0
C202 C 0.7857 0.23317 0.03412 0.0
H203 H 0.79978 0.24224 0.03905 0.0
C204 C 0.78485 0.21128 0.03981 0.0
H205 H 0.73658 0.23737 0.00946 0.0
C206 C 0.76659 0.19901 0.03526 0.0
H207 H 0.76639 0.18209 0.04013 0.0
H208 H 0.7983 0.20386 0.04823 0.0
H209 H 0.73443 0.73448 0.99677 0.0
C210 C 0.74981 0.72658 0.99911 0.0
C211 C 0.75024 0.70386 0.00073 0.0
C212 C 0.76895 0.73886 0.99951 0.0
H213 H 0.77039 0.67559 0.00355 0.0
C214 C 0.77007 0.69313 0.00215 0.0
C215 C 0.78948 0.70472 0.00218 0.0
C216 C 0.78878 0.72759 0.00151 0.0
C217 C 0.76816 0.76315 0.99667 0.0
H218 H 0.8038 0.73643 0.00214 0.0
C219 C 0.74978 0.7755 0.00274 0.0
C220 C 0.74882 0.79809 0.99889 0.0
C221 C 0.78556 0.77418 0.98687 0.0
H222 H 0.79963 0.76557 0.98112 0.0
C223 C 0.78488 0.79658 0.98361 0.0
H224 H 0.73621 0.76776 0.01063 0.0
C225 C 0.76671 0.80845 0.98951 0.0
H226 H 0.76643 0.82572 0.98613 0.0
H227 H 0.79839 0.80473 0.97601 0.0
H228 H 0.50066 0.78812 0.77549 0.0
C229 C 0.50499 0.77278 0.78298 0.0
C230 C 0.51121 0.77243 0.80509 0.0
C231 C 0.50331 0.75341 0.77083 0.0
H232 H 0.52036 0.75205 0.83222 0.0
C233 C 0.51576 0.75244 0.81509 0.0
C234 C 0.51391 0.7329 0.80345 0.0
C235 C 0.50789 0.73352 0.78127 0.0
C236 C 0.49598 0.75396 0.74756 0.0
H237 H 0.50693 0.71846 0.77215 0.0
C238 C 0.50195 0.77118 0.73359 0.0
C239 C 0.4943 0.77224 0.7119 0.0
C240 C 0.48246 0.73756 0.73932 0.0
H241 H 0.47712 0.72433 0.74966 0.0
C242 C 0.47515 0.73832 0.71773 0.0
H243 H 0.51274 0.78369 0.73948 0.0
C244 C 0.48094 0.75554 0.7041 0.0
H245 H 0.47454 0.756 0.6876 0.0
H246 H 0.46465 0.72568 0.71162 0.0
H247 H 0.25309 0.51933 0.79358 0.0
C248 C 0.24575 0.51474 0.77817 0.0
C249 C 0.22372 0.50973 0.77782 0.0
C250 C 0.25798 0.51497 0.7587 0.0
H251 H 0.19676 0.50131 0.7574 0.0
C252 C 0.21381 0.50495 0.75776 0.0
C253 C 0.22542 0.50538 0.73807 0.0
C254 C 0.24754 0.51013 0.73868 0.0
C255 C 0.28123 0.52139 0.75916 0.0
H256 H 0.25654 0.50993 0.72348 0.0
C257 C 0.29446 0.51682 0.77749 0.0
C258 C 0.31601 0.52404 0.77826 0.0
C259 C 0.29019 0.53298 0.74147 0.0
H260 H 0.28059 0.53745 0.72739 0.0
C261 C 0.31164 0.53954 0.74187 0.0
H262 H 0.28798 0.50798 0.79132 0.0
C263 C 0.32445 0.53515 0.76005 0.0
H264 H 0.34105 0.54049 0.75984 0.0
H265 H 0.3183 0.54834 0.72809 0.0
H266 H 0.50497 0.23838 0.79361 0.0
C267 C 0.50856 0.23046 0.77819 0.0
C268 C 0.51506 0.20864 0.77833 0.0
C269 C 0.5063 0.24192 0.75834 0.0
H270 H 0.52302 0.18098 0.75836 0.0
C271 C 0.51903 0.19811 0.75836 0.0
C272 C 0.51666 0.20906 0.73836 0.0
C273 C 0.51052 0.23102 0.73847 0.0
C274 C 0.49878 0.26493 0.7584 0.0
H275 H 0.50913 0.23958 0.72302 0.0
C276 C 0.50476 0.27923 0.77541 0.0
C277 C 0.49676 0.3006 0.77618 0.0
C278 C 0.48496 0.2726 0.74185 0.0
H279 H 0.47958 0.26203 0.72879 0.0
C280 C 0.47738 0.29392 0.74226 0.0
H281 H 0.51581 0.27383 0.788 0.0
C282 C 0.48313 0.30782 0.75932 0.0
H283 H 0.47647 0.32407 0.75956 0.0
H284 H 0.46666 0.29957 0.72951 0.0
H285 H 0.78939 0.48837 0.79478 0.0
C286 C 0.7962 0.49268 0.77902 0.0
C287 C 0.81784 0.49915 0.77794 0.0
C288 C 0.78381 0.49037 0.75984 0.0
H289 H 0.84378 0.50842 0.75652 0.0
C290 C 0.82703 0.50364 0.75743 0.0
C291 C 0.8152 0.50121 0.73804 0.0
C292 C 0.79353 0.49475 0.73936 0.0
C293 C 0.76135 0.4818 0.76119 0.0
H294 H 0.78432 0.49312 0.72439 0.0
C295 C 0.74771 0.48707 0.77899 0.0
C296 C 0.72723 0.47743 0.78103 0.0
C297 C 0.7538 0.46721 0.74518 0.0
H298 H 0.76388 0.46234 0.73156 0.0
C299 C 0.73335 0.45808 0.74688 0.0
H300 H 0.75311 0.49829 0.7915 0.0
C301 C 0.7202 0.46301 0.7647 0.0
H302 H 0.70444 0.45556 0.7657 0.0
H303 H 0.72779 0.44684 0.73447 0.0
H304 H 0.49968 0.21802 0.24173 0.0
C305 C 0.50435 0.23323 0.23421 0.0
C306 C 0.51032 0.23335 0.21201 0.0
C307 C 0.50342 0.25267 0.24636 0.0
H308 H 0.51958 0.2534 0.18466 0.0
C309 C 0.51523 0.25318 0.20186 0.0
C310 C 0.51407 0.27279 0.21347 0.0
C311 C 0.50845 0.27238 0.23577 0.0
C312 C 0.49645 0.25244 0.2698 0.0
H313 H 0.50813 0.2875 0.24483 0.0
C314 C 0.50154 0.2348 0.28364 0.0
C315 C 0.49421 0.23416 0.30549 0.0
C316 C 0.48411 0.26964 0.27837 0.0
H317 H 0.47936 0.28321 0.2682 0.0
C318 C 0.47727 0.26935 0.30013 0.0
H319 H 0.51097 0.22139 0.27737 0.0
C320 C 0.48223 0.25178 0.31362 0.0
H321 H 0.4767 0.25202 0.33045 0.0
H322 H 0.46786 0.28272 0.30652 0.0
H323 H 0.78661 0.51678 0.22214 0.0
C324 C 0.79456 0.51439 0.23774 0.0
C325 C 0.81652 0.50909 0.23785 0.0
C326 C 0.7831 0.51724 0.25749 0.0
H327 H 0.84442 0.50384 0.25807 0.0
C328 C 0.82729 0.50718 0.25791 0.0
C329 C 0.81646 0.51027 0.2778 0.0
C330 C 0.79425 0.51464 0.27755 0.0
C331 C 0.76014 0.52468 0.25701 0.0
H332 H 0.78594 0.51671 0.29301 0.0
C333 C 0.7462 0.51898 0.23957 0.0
C334 C 0.72548 0.52813 0.23795 0.0
C335 C 0.75242 0.53897 0.27325 0.0
H336 H 0.7626 0.54431 0.28657 0.0
C337 C 0.73162 0.54738 0.27211 0.0
H338 H 0.75156 0.50793 0.22688 0.0
C339 C 0.7183 0.54219 0.25452 0.0
H340 H 0.70236 0.54926 0.25381 0.0
H341 H 0.72597 0.55839 0.28468 0.0
H342 H 0.49787 0.76895 0.22336 0.0
C343 C 0.50237 0.77667 0.23863 0.0
C344 C 0.50735 0.7989 0.23856 0.0
C345 C 0.50213 0.76478 0.25838 0.0
H346 H 0.51566 0.82656 0.25836 0.0
C347 C 0.51213 0.80932 0.25838 0.0
C348 C 0.51195 0.79789 0.27823 0.0
C349 C 0.50717 0.77561 0.2781 0.0
C350 C 0.49576 0.74139 0.25855 0.0
H351 H 0.50751 0.76675 0.29343 0.0
C352 C 0.5008 0.72757 0.24079 0.0
C353 C 0.49396 0.70575 0.2406 0.0
C354 C 0.48398 0.73283 0.27628 0.0
H355 H 0.47925 0.74296 0.28995 0.0
C356 C 0.47766 0.71112 0.27641 0.0
H357 H 0.50979 0.73383 0.22697 0.0
C358 C 0.48257 0.69766 0.25875 0.0
H359 H 0.47745 0.68086 0.25934 0.0
H360 H 0.46869 0.70474 0.2902 0.0
H361 H 0.235 0.51882 0.24119 0.0
C362 C 0.25024 0.51598 0.23307 0.0
C363 C 0.25039 0.51299 0.21028 0.0
C364 C 0.26956 0.51638 0.24514 0.0
H365 H 0.27027 0.50826 0.18176 0.0
C366 C 0.2701 0.51074 0.19936 0.0
C367 C 0.28961 0.51138 0.21084 0.0
C368 C 0.28923 0.51365 0.23378 0.0
C369 C 0.26916 0.52096 0.26926 0.0
H370 H 0.30432 0.51378 0.24261 0.0
C371 C 0.25157 0.51452 0.28249 0.0
C372 C 0.25057 0.5202 0.30487 0.0
C373 C 0.28596 0.53283 0.27908 0.0
H374 H 0.29943 0.53871 0.26955 0.0
C375 C 0.28531 0.53798 0.30132 0.0
H376 H 0.23865 0.50499 0.27551 0.0
C377 C 0.26776 0.53185 0.31411 0.0
H378 H 0.26741 0.53678 0.33115 0.0
H379 H 0.29828 0.54723 0.30858 0.0
H380 H 0.78834 0.78972 0.52109 0.0
C381 C 0.79635 0.77427 0.51882 0.0
C382 C 0.81885 0.77402 0.51703 0.0
C383 C 0.78442 0.7548 0.51886 0.0
H384 H 0.84702 0.75392 0.51407 0.0
C385 C 0.82964 0.7541 0.51558 0.0
C386 C 0.81836 0.73441 0.51575 0.0
C387 C 0.79572 0.73487 0.5168 0.0
C388 C 0.76053 0.75529 0.52265 0.0
H389 H 0.78708 0.71963 0.51653 0.0
C390 C 0.7477 0.77324 0.5161 0.0
C391 C 0.7255 0.77409 0.52108 0.0
C392 C 0.75049 0.73817 0.53403 0.0
H393 H 0.75961 0.72447 0.54009 0.0
C394 C 0.72852 0.73873 0.53856 0.0
H395 H 0.75482 0.78651 0.50699 0.0
C396 C 0.71614 0.75651 0.53226 0.0
H397 H 0.69928 0.75671 0.53671 0.0
H398 H 0.72113 0.72548 0.54745 0.0
H399 H 0.78945 0.21667 0.49778 0.0
C400 C 0.79677 0.23222 0.50135 0.0
C401 C 0.81892 0.23307 0.50582 0.0
C402 C 0.78436 0.25133 0.50023 0.0
H403 H 0.84584 0.254 0.51263 0.0
C404 C 0.82872 0.25329 0.50933 0.0
C405 C 0.81693 0.27266 0.50807 0.0
C406 C 0.79471 0.27155 0.50369 0.0
C407 C 0.76099 0.25019 0.49416 0.0
H408 H 0.78555 0.2865 0.50315 0.0
C409 C 0.74788 0.23233 0.50031 0.0
C410 C 0.7261 0.23116 0.49375 0.0
C411 C 0.75179 0.26677 0.48133 0.0
H412 H 0.76129 0.28037 0.47564 0.0
C413 C 0.73027 0.26579 0.47503 0.0
H414 H 0.75444 0.21949 0.51042 0.0
C415 C 0.71754 0.24819 0.48111 0.0
H416 H 0.70104 0.24769 0.47544 0.0
H417 H 0.7235 0.27862 0.46505 0.0
H418 H 0.23382 0.77218 0.52047 0.0
C419 C 0.24921 0.77981 0.51749 0.0
C420 C 0.24966 0.80223 0.5134 0.0
C421 C 0.26836 0.7676 0.51893 0.0
H422 H 0.26987 0.82999 0.5077 0.0
C423 C 0.26953 0.81273 0.51116 0.0
C424 C 0.28897 0.80138 0.51336 0.0
C425 C 0.28827 0.7787 0.51649 0.0
C426 C 0.26745 0.74378 0.52456 0.0
H427 H 0.30329 0.76992 0.51756 0.0
C428 C 0.24921 0.73078 0.51944 0.0
C429 C 0.24776 0.70898 0.52661 0.0
C430 C 0.28441 0.73407 0.53634 0.0
H431 H 0.29835 0.74328 0.5414 0.0
C432 C 0.28344 0.71232 0.54255 0.0
H433 H 0.2359 0.7376 0.51035 0.0
C434 C 0.26533 0.6999 0.53783 0.0
H435 H 0.26505 0.6831 0.54309 0.0
H436 H 0.29669 0.70514 0.5515 0.0
H437 H 0.23458 0.23408 0.49778 0.0
C438 C 0.24997 0.22656 0.5011 0.0
C439 C 0.25051 0.2043 0.50602 0.0
C440 C 0.26901 0.23894 0.50003 0.0
H441 H 0.27087 0.17672 0.51217 0.0
C442 C 0.27041 0.19411 0.50944 0.0
C443 C 0.28973 0.2058 0.50819 0.0
C444 C 0.28888 0.22827 0.50383 0.0
C445 C 0.26811 0.26258 0.49385 0.0
H446 H 0.30379 0.23733 0.50355 0.0
C447 C 0.24982 0.27565 0.49849 0.0
C448 C 0.24854 0.29736 0.49107 0.0
C449 C 0.28527 0.27205 0.48218 0.0
H450 H 0.29928 0.26269 0.47756 0.0
C451 C 0.28444 0.2937 0.47561 0.0
H452 H 0.23638 0.26894 0.50747 0.0
C453 C 0.26629 0.30625 0.47995 0.0
H454 H 0.26615 0.32299 0.4745 0.0
H455 H 0.29783 0.30072 0.46676 0.0
C456 C 0.02036 0.94923 0.56012 0.0
C457 C 0.01979 0.95189 0.45364 0.0
C458 C 0.02085 0.05451 0.56274 0.0
C459 C 0.0208 0.05706 0.45627 0.0
C460 C 0.96874 0.05623 0.50969 0.0
C461 C 0.96785 0.95106 0.50765 0.0
C462 C 0.07316 0.05534 0.5088 0.0
C463 C 0.0722 0.95 0.50679 0.0
C464 C 0.0727 0.00376 0.45488 0.0
C465 C 0.96822 0.00459 0.45506 0.0
C466 C 0.07288 1.00192 0.56139 0.0
C467 C 0.9684 1.0028 0.56158 0.0
Eu468 Eu 0.02016 0.96203 0.50717 0.0
O469 O 1.00121 0.98453 0.48829 0.0
O470 O 0.03954 0.98316 0.5272 0.0
Eu471 Eu 0.9798 0.00356 0.50829 0.0
Eu472 Eu 0.06127 1.00276 0.50815 0.0
O473 O 1.00126 0.98357 0.52724 0.0
O474 O 0.03947 0.98417 0.48822 0.0
Eu475 Eu 0.0206 1.00212 0.54968 0.0
Eu476 Eu 0.02049 0.0042 0.46679 0.0
O477 O 1.00167 0.02215 0.52817 0.0
O478 O 1.00153 0.0232 0.48924 0.0
O479 O 0.03978 0.02277 0.48925 0.0
O480 O 0.03983 0.02184 0.52812 0.0
Eu481 Eu 0.02088 0.04435 0.50923 0.0
O482 O 0.02022 0.94309 0.53911 0.0
O483 O 0.01955 0.94466 0.4743 0.0
O484 O 0.02082 0.06172 0.54208 0.0
O485 O 0.02089 0.06323 0.47727 0.0
O486 O 0.96204 0.03564 0.50923 0.0
O487 O 0.96151 0.97177 0.50812 0.0
O488 O 0.07946 0.03461 0.50826 0.0
O489 O 0.07886 0.97059 0.5077 0.0
O490 O 0.05221 0.00468 0.44835 0.0
O491 O 0.98872 0.00462 0.44847 0.0
O492 O 0.05238 1.00162 0.56798 0.0
O493 O 0.98887 1.00193 0.56821 0.0
O494 O 0.05278 0.06218 0.50936 0.0
O495 O 0.98925 0.06269 0.50967 0.0
O496 O 0.0517 0.94354 0.50629 0.0
O497 O 0.98824 0.94426 0.50716 0.0
O498 O 0.0203 0.97273 0.44766 0.0
O499 O 0.02064 0.03655 0.44919 0.0
O500 O 0.02051 0.96973 0.56723 0.0
O501 O 0.02085 0.03366 0.56877 0.0
O502 O 0.96188 0.00359 0.54073 0.0
O503 O 0.96167 0.0043 0.47593 0.0
O504 O 0.07943 1.00239 0.54051 0.0
O505 O 0.07931 1.0027 0.4757 0.0
C506 C 0.51989 0.94978 0.06075 0.0
C507 C 0.52072 0.0551 0.06205 0.0
C508 C 0.52097 0.95105 0.95452 0.0
C509 C 0.5206 0.05639 0.95575 0.0
C510 C 0.57315 0.00364 0.9551 0.0
C511 C 0.573 1.0024 0.06146 0.0
C512 C 0.46838 0.00337 0.95509 0.0
C513 C 0.46833 0.00303 0.0615 0.0
C514 C 0.46834 0.05599 0.00847 0.0
C515 C 0.5731 0.05593 0.00862 0.0
C516 C 0.46824 0.95035 0.00782 0.0
C517 C 0.57298 0.95018 0.00802 0.0
Eu518 Eu 0.52068 1.00263 0.04979 0.0
O519 O 0.53982 0.0222 0.02796 0.0
O520 O 0.50153 0.98361 0.02753 0.0
Eu521 Eu 0.56144 0.00305 0.00829 0.0
Eu522 Eu 0.47993 0.00315 0.00828 0.0
O523 O 0.5398 0.98351 0.02755 0.0
O524 O 0.50157 0.02223 0.02796 0.0
Eu525 Eu 0.52063 0.96195 0.00783 0.0
Eu526 Eu 0.52072 0.04425 0.00872 0.0
O527 O 0.5398 0.98398 0.98857 0.0
O528 O 0.53983 0.02258 0.98899 0.0
O529 O 0.50164 0.0226 0.98898 0.0
O530 O 0.50159 0.98405 0.98855 0.0
Eu531 Eu 0.52077 0.00355 0.96667 0.0
O532 O 0.52032 0.97035 0.06769 0.0
O533 O 0.52089 0.0344 0.06854 0.0
O534 O 0.52106 0.97174 0.94799 0.0
O535 O 0.52068 0.03581 0.94884 0.0
O536 O 0.57948 0.00327 0.97601 0.0
O537 O 0.57947 1.00262 0.04058 0.0
O538 O 0.46194 0.00314 0.97598 0.0
O539 O 0.46187 0.0032 0.04062 0.0
O540 O 0.48886 0.06252 0.00881 0.0
O541 O 0.55258 0.06251 0.0087 0.0
O542 O 0.48875 0.94377 0.00743 0.0
O543 O 0.55247 0.94361 0.00823 0.0
O544 O 0.48887 0.00361 0.94836 0.0
O545 O 0.55269 0.00389 0.9483 0.0
O546 O 0.48882 1.00277 0.06816 0.0
O547 O 0.55252 1.00235 0.06815 0.0
O548 O 0.52058 0.06191 0.04127 0.0
O549 O 0.5206 0.06276 0.97667 0.0
O550 O 0.51989 0.94344 0.03983 0.0
O551 O 0.52077 0.94427 0.97531 0.0
O552 O 0.57946 0.97088 0.00781 0.0
O553 O 0.57954 0.0352 0.00854 0.0
O554 O 0.46179 0.97106 0.00827 0.0
O555 O 0.46185 0.03529 0.00818 0.0
C556 C 0.02034 0.45007 0.06107 0.0
C557 C 0.0211 0.45093 0.95491 0.0
C558 C 0.02047 0.55564 0.06186 0.0
C559 C 0.02046 0.55646 0.95564 0.0
C560 C 0.96844 0.55614 0.00875 0.0
C561 C 0.96846 0.45042 0.00769 0.0
C562 C 0.07315 0.55614 0.00861 0.0
C563 C 0.07314 0.45047 0.00835 0.0
C564 C 0.07326 0.5036 0.95551 0.0
C565 C 0.96882 0.50425 0.9551 0.0
C566 C 0.0726 0.50322 0.06182 0.0
C567 C 0.96825 0.50278 0.06122 0.0
Eu568 Eu 0.02079 0.46222 0.00808 0.0
O569 O 1.00174 0.48415 0.98861 0.0
O570 O 0.03984 0.48386 0.02784 0.0
Eu571 Eu 0.98004 0.50329 0.00821 0.0
Eu572 Eu 0.06155 0.5033 0.00855 0.0
O573 O 1.00153 0.48383 0.02767 0.0
O574 O 0.04 0.48418 0.98882 0.0
Eu575 Eu 0.02053 0.50293 0.04995 0.0
Eu576 Eu 0.021 0.50363 0.96683 0.0
O577 O 1.00157 0.52245 0.02794 0.0
O578 O 1.00182 0.52271 0.98902 0.0
O579 O 0.04002 0.5228 0.9891 0.0
O580 O 0.03976 0.52241 0.0281 0.0
Eu581 Eu 0.02079 0.54443 0.0087 0.0
O582 O 0.02058 0.44383 0.04013 0.0
O583 O 0.02093 0.44428 0.97573 0.0
O584 O 0.0209 0.56234 0.04107 0.0
O585 O 0.02043 0.56277 0.97658 0.0
O586 O 0.96197 0.53543 0.00873 0.0
O587 O 0.96198 0.47113 0.00758 0.0
O588 O 0.07969 0.53545 0.00846 0.0
O589 O 0.07967 0.47117 0.00827 0.0
O590 O 0.05284 0.50394 0.94874 0.0
O591 O 0.9893 0.50386 0.94847 0.0
O592 O 0.05213 0.50294 0.06844 0.0
O593 O 0.98867 0.50278 0.06802 0.0
O594 O 0.05262 0.56264 0.00877 0.0
O595 O 0.98894 0.56272 0.0087 0.0
O596 O 0.05263 0.44394 0.00842 0.0
O597 O 0.98898 0.44387 0.00797 0.0
O598 O 0.0212 0.47163 0.9483 0.0
O599 O 0.0208 0.53588 0.94869 0.0
O600 O 0.02027 0.47065 0.06806 0.0
O601 O 0.02012 0.53494 0.06846 0.0
O602 O 0.96186 0.5029 0.04034 0.0
O603 O 0.9622 0.50419 0.97592 0.0
O604 O 0.07922 0.50339 0.04099 0.0
O605 O 0.07971 0.50322 0.97637 0.0
C606 C 0.52095 0.44974 0.06105 0.0
C607 C 0.51995 0.55502 0.06246 0.0
C608 C 0.52039 0.45124 0.95455 0.0
C609 C 0.52051 0.55641 0.95603 0.0
C610 C 0.5729 0.50358 0.95541 0.0
C611 C 0.57269 0.503 0.06193 0.0
C612 C 0.46834 0.50382 0.95529 0.0
C613 C 0.46831 0.50222 0.06181 0.0
C614 C 0.46822 0.55554 0.00954 0.0
C615 C 0.57257 0.55592 0.00888 0.0
C616 C 0.46852 0.45028 0.00832 0.0
C617 C 0.5729 0.45055 0.00838 0.0
Eu618 Eu 0.52051 0.5025 0.05 0.0
O619 O 0.53963 0.52223 0.02835 0.0
O620 O 0.50147 0.4834 0.02773 0.0
Eu621 Eu 0.56132 0.5032 0.00866 0.0
Eu622 Eu 0.47982 0.50294 0.00854 0.0
O623 O 0.53971 0.48353 0.02775 0.0
O624 O 0.5014 0.52205 0.02822 0.0
Eu625 Eu 0.5207 0.46191 0.00797 0.0
Eu626 Eu 0.52047 0.54423 0.00912 0.0
O627 O 0.53977 0.48411 0.98885 0.0
O628 O 0.53968 0.52271 0.98939 0.0
O629 O 0.50139 0.52263 0.98934 0.0
O630 O 0.50153 0.48398 0.98879 0.0
Eu631 Eu 0.52062 0.50369 0.96711 0.0
O632 O 0.52074 0.47031 0.06794 0.0
O633 O 0.52001 0.53425 0.06875 0.0
O634 O 0.52059 0.47202 0.94835 0.0
O635 O 0.52065 0.53583 0.94917 0.0
O636 O 0.57945 0.50293 0.97627 0.0
O637 O 0.57934 0.50362 0.0411 0.0
O638 O 0.46178 0.50332 0.97615 0.0
O639 O 0.46181 0.50239 0.04093 0.0
O640 O 0.48867 0.56219 0.00938 0.0
O641 O 0.5521 0.56251 0.00912 0.0
O642 O 0.489 0.44372 0.00821 0.0
O643 O 0.55248 0.44384 0.00778 0.0
O644 O 0.48885 0.50409 0.94871 0.0
O645 O 0.55242 0.50416 0.94879 0.0
O646 O 0.48878 0.50223 0.06844 0.0
O647 O 0.55219 0.50231 0.06846 0.0
O648 O 0.52024 0.56197 0.04171 0.0
O649 O 0.52036 0.5628 0.97696 0.0
O650 O 0.52095 0.44338 0.04011 0.0
O651 O 0.52035 0.4442 0.97528 0.0
O652 O 0.57931 0.47124 0.00889 0.0
O653 O 0.57914 0.53527 0.00863 0.0
O654 O 0.46193 0.47092 0.00832 0.0
O655 O 0.46171 0.53488 0.00934 0.0
C656 C 0.01985 0.4492 0.56035 0.0
C657 C 0.01999 0.45123 0.45418 0.0
C658 C 0.01985 0.55458 0.5624 0.0
C659 C 0.02043 0.55656 0.45615 0.0
C660 C 0.96808 0.5558 0.50901 0.0
C661 C 0.96791 0.45021 0.50773 0.0
C662 C 0.07283 0.55572 0.50901 0.0
C663 C 0.07264 0.44999 0.50752 0.0
C664 C 0.07275 0.50351 0.45511 0.0
C665 C 0.96802 0.50368 0.45512 0.0
C666 C 0.07267 0.5018 0.56153 0.0
C667 C 0.96794 0.50257 0.56145 0.0
Eu668 Eu 0.0203 0.46184 0.50753 0.0
O669 O 1.00122 0.48403 0.48842 0.0
O670 O 0.03945 0.48325 0.52747 0.0
Eu671 Eu 0.97961 0.50299 0.50828 0.0
Eu672 Eu 0.06113 0.50285 0.50834 0.0
O673 O 1.00119 0.48333 0.52745 0.0
O674 O 0.03949 0.48396 0.48844 0.0
Eu675 Eu 0.02033 0.50215 0.54988 0.0
Eu676 Eu 0.0204 0.50364 0.4667 0.0
O677 O 1.00133 0.52186 0.52807 0.0
O678 O 1.0013 0.5226 0.48912 0.0
O679 O 0.03952 0.5225 0.48915 0.0
O680 O 0.03951 0.52188 0.52819 0.0
Eu681 Eu 0.02045 0.54406 0.50901 0.0
O682 O 0.01993 0.44307 0.53937 0.0
O683 O 0.02006 0.44432 0.47493 0.0
O684 O 0.02003 0.56151 0.54166 0.0
O685 O 0.02048 0.56278 0.47711 0.0
O686 O 0.96157 0.53511 0.5088 0.0
O687 O 0.96146 0.47092 0.50812 0.0
O688 O 0.07927 0.53499 0.50877 0.0
O689 O 0.07913 0.47069 0.50779 0.0
O690 O 0.05229 0.50384 0.44833 0.0
O691 O 0.9885 0.50374 0.44837 0.0
O692 O 0.05218 0.50178 0.56822 0.0
O693 O 0.98841 0.50218 0.56818 0.0
O694 O 0.05232 0.5623 0.50917 0.0
O695 O 0.9886 0.56234 0.50906 0.0
O696 O 0.05212 0.44346 0.50742 0.0
O697 O 0.98842 0.44363 0.50736 0.0
O698 O 0.02018 0.47197 0.44782 0.0
O699 O 0.02039 0.53604 0.44908 0.0
O700 O 0.02005 0.46971 0.5675 0.0
O701 O 0.02004 0.53383 0.56876 0.0
O702 O 0.96154 0.50288 0.54056 0.0
O703 O 0.96159 0.50348 0.47601 0.0
O704 O 0.07915 0.50216 0.54065 0.0
O705 O 0.07911 0.50311 0.47602 0.0
C706 C 0.51972 0.94955 0.56095 0.0
C707 C 0.52068 0.95076 0.45475 0.0
C708 C 0.52043 0.05509 0.56212 0.0
C709 C 0.51988 0.05621 0.45585 0.0
C710 C 0.46781 0.0556 0.50899 0.0
C711 C 0.46813 0.94989 0.50791 0.0
C712 C 0.57261 0.0558 0.50891 0.0
C713 C 0.57277 0.95012 0.50823 0.0
C714 C 0.57278 0.00331 0.45559 0.0
C715 C 0.46835 0.00316 0.45516 0.0
C716 C 0.5722 1.00277 0.56185 0.0
C717 C 0.46783 1.00264 0.56131 0.0
Eu718 Eu 0.52041 0.96181 0.50796 0.0
O719 O 0.50132 0.98379 0.48863 0.0
O720 O 0.53943 0.98338 0.52785 0.0
Eu721 Eu 0.47959 1.00278 0.50831 0.0
Eu722 Eu 0.56109 0.00293 0.50862 0.0
O723 O 0.50117 0.98334 0.52766 0.0
O724 O 0.53958 0.98387 0.4888 0.0
Eu725 Eu 0.52012 1.00242 0.54999 0.0
Eu726 Eu 0.52051 0.00338 0.46692 0.0
O727 O 0.50108 0.02196 0.52808 0.0
O728 O 0.50126 0.02237 0.48913 0.0
O729 O 0.5395 0.02248 0.48926 0.0
O730 O 0.53925 0.02198 0.52817 0.0
Eu731 Eu 0.52022 0.04406 0.5089 0.0
O732 O 0.52013 0.94333 0.54 0.0
O733 O 0.52065 0.94401 0.47554 0.0
O734 O 0.52038 0.06185 0.54133 0.0
O735 O 0.51979 0.0625 0.4768 0.0
O736 O 0.46144 0.03486 0.50849 0.0
O737 O 0.4616 0.97058 0.50839 0.0
O738 O 0.57915 0.03511 0.5087 0.0
O739 O 0.57928 0.97081 0.50873 0.0
O740 O 0.55235 0.00371 0.44882 0.0
O741 O 0.48883 0.00339 0.44854 0.0
O742 O 0.55173 1.00232 0.56848 0.0
O743 O 0.48826 1.00271 0.5681 0.0
O744 O 0.55207 0.0623 0.50903 0.0
O745 O 0.4883 0.06224 0.50932 0.0
O746 O 0.55225 0.94361 0.5078 0.0
O747 O 0.48866 0.94338 0.50746 0.0
O748 O 0.52062 0.97148 0.44825 0.0
O749 O 0.52028 0.03564 0.44888 0.0
O750 O 0.51961 0.97011 0.56799 0.0
O751 O 0.52032 0.03436 0.56861 0.0
O752 O 0.46141 1.00254 0.54044 0.0
O753 O 0.46175 0.00289 0.47599 0.0
O754 O 0.57879 0.0031 0.54102 0.0
O755 O 0.57923 0.00286 0.47645 0.0
H756 H 0.21645 0.20551 0.47755 0.0
H757 H 0.18396 0.18306 0.47831 0.0
H758 H 0.20704 0.15075 0.53644 0.0
H759 H 0.23922 0.17356 0.53619 0.0
H760 H 0.18233 0.1383 0.4754 0.0
H761 H 0.14528 0.16643 0.55304 0.0
H762 H 0.16635 0.18134 0.53929 0.0
H763 H 0.17284 0.15823 0.55605 0.0
C764 C 0.2144 0.19393 0.49074 0.0
C765 C 0.23037 0.19136 0.50687 0.0
C766 C 0.19591 0.18103 0.49107 0.0
C767 C 0.19297 0.16546 0.5076 0.0
C768 C 0.20879 0.16296 0.52379 0.0
H769 H 0.1168 0.04914 0.5072 0.0
H770 H 0.14488 0.07673 0.50627 0.0
C771 C 0.22728 0.17583 0.52347 0.0
C772 C 0.174 0.15093 0.50721 0.0
H773 H 0.13147 0.13343 0.53792 0.0
C774 C 0.17109 0.13736 0.48897 0.0
C775 C 0.15923 0.14993 0.52483 0.0
C776 C 0.16091 0.16491 0.54432 0.0
C777 C 0.15418 0.12231 0.48819 0.0
C778 C 0.14005 0.12058 0.50627 0.0
C779 C 0.1425 0.13464 0.52419 0.0
C780 C 0.12289 0.10394 0.50707 0.0
C781 C 0.15158 0.10839 0.46801 0.0
C782 C 0.10122 0.11012 0.50842 0.0
C783 C 0.08504 0.09437 0.50906 0.0
C784 C 0.09027 0.07213 0.50851 0.0
C785 C 0.11209 0.06606 0.50752 0.0
C786 C 0.12821 0.08182 0.50686 0.0
H787 H 0.15982 0.11562 0.45358 0.0
H788 H 0.1588 0.0922 0.47108 0.0
H789 H 0.13432 0.10605 0.46397 0.0
H790 H 0.09682 0.12714 0.50874 0.0
H791 H 0.06845 0.09969 0.50989 0.0
H792 H 0.85875 0.22704 0.48787 0.0
H793 H 0.88163 0.19487 0.49026 0.0
H794 H 0.83203 0.16119 0.52603 0.0
H795 H 0.80908 0.19363 0.52427 0.0
H796 H 0.89111 0.17192 0.53614 0.0
H797 H 0.85417 0.12222 0.46967 0.0
H798 H 0.85329 0.15155 0.46899 0.0
H799 H 0.83723 0.13705 0.48849 0.0
C800 C 0.85271 0.21287 0.4964 0.0
C801 C 0.83217 0.21298 0.50611 0.0
C802 C 0.86576 0.19449 0.4976 0.0
C803 C 0.85845 0.17578 0.50831 0.0
C804 C 0.83783 0.17553 0.51762 0.0
H805 H 0.92554 0.05137 0.51739 0.0
H806 H 0.89809 0.07977 0.51869 0.0
C807 C 0.82475 0.19401 0.51651 0.0
C808 C 0.8729 0.15688 0.51029 0.0
H809 H 0.88512 0.10818 0.48677 0.0
C810 C 0.88975 0.15787 0.5255 0.0
C811 C 0.87088 0.13863 0.49647 0.0
C812 C 0.85298 0.1371 0.47989 0.0
C813 C 0.90496 0.14111 0.52704 0.0
C814 C 0.90353 0.12322 0.51255 0.0
C815 C 0.88625 0.12197 0.49777 0.0
C816 C 0.92021 0.10604 0.51195 0.0
C817 C 0.92233 0.14269 0.54423 0.0
C818 C 0.9417 0.11137 0.50742 0.0
C819 C 0.95746 0.09523 0.50675 0.0
C820 C 0.95199 0.07335 0.51033 0.0
C821 C 0.93035 0.06803 0.51453 0.0
C822 C 0.91462 0.08423 0.5153 0.0
H823 H 0.91738 0.1534 0.55799 0.0
H824 H 0.92646 0.12645 0.55093 0.0
H825 H 0.93701 0.14977 0.53675 0.0
H826 H 0.94628 0.12804 0.5042 0.0
H827 H 0.97389 0.09992 0.50323 0.0
H828 H 0.81117 0.81093 0.49331 0.0
H829 H 0.8337 0.84364 0.49141 0.0
H830 H 0.87729 0.81579 0.53864 0.0
H831 H 0.85481 0.78327 0.54081 0.0
H832 H 0.86572 0.86132 0.54558 0.0
H833 H 0.89451 0.84272 0.46118 0.0
H834 H 0.86587 0.84285 0.46548 0.0
H835 H 0.8821 0.8225 0.47848 0.0
C836 C 0.82541 0.81195 0.50348 0.0
C837 C 0.83137 0.79451 0.51705 0.0
C838 C 0.83831 0.83053 0.50226 0.0
C839 C 0.85725 0.83194 0.51469 0.0
C840 C 0.86278 0.81491 0.52885 0.0
H841 H 0.97276 0.90691 0.50468 0.0
H842 H 0.94473 0.87921 0.50607 0.0
C843 C 0.85 0.79633 0.52997 0.0
C844 C 0.87181 0.85078 0.51253 0.0
H845 H 0.908 0.87439 0.47784 0.0
C846 C 0.87484 0.86435 0.53073 0.0
C847 C 0.88382 0.85442 0.4932 0.0
C848 C 0.88162 0.83982 0.47346 0.0
C849 C 0.88977 0.88143 0.53017 0.0
C850 C 0.9018 0.88505 0.51083 0.0
C851 C 0.89863 0.87159 0.49257 0.0
C852 C 0.91854 0.90207 0.5096 0.0
C853 C 0.89308 0.89504 0.55046 0.0
C854 C 0.91301 0.9241 0.51086 0.0
C855 C 0.92899 0.94004 0.51007 0.0
C856 C 0.95081 0.93421 0.50796 0.0
C857 C 0.95619 0.91206 0.5064 0.0
C858 C 0.94018 0.89617 0.50714 0.0
H859 H 0.88561 0.88754 0.56517 0.0
H860 H 0.9105 0.89748 0.55365 0.0
H861 H 0.88567 0.91124 0.54795 0.0
H862 H 0.89634 0.92896 0.51244 0.0
H863 H 0.9242 0.9569 0.51124 0.0
H864 H 0.24158 0.84195 0.53158 0.0
H865 H 0.20899 0.8639 0.52826 0.0
H866 H 0.17904 0.81343 0.49006 0.0
H867 H 0.21189 0.79141 0.49281 0.0
H868 H 0.18685 0.87218 0.48011 0.0
H869 H 0.13851 0.83466 0.54718 0.0
H870 H 0.16752 0.8356 0.54877 0.0
H871 H 0.15481 0.81805 0.5293 0.0
C872 C 0.22814 0.83553 0.52233 0.0
C873 C 0.2294 0.81501 0.51227 0.0
C874 C 0.20952 0.84804 0.52059 0.0
C875 C 0.19174 0.8402 0.50895 0.0
C876 C 0.19266 0.81962 0.49919 0.0
H877 H 0.0672 0.90626 0.49952 0.0
H878 H 0.09535 0.87851 0.49815 0.0
C879 C 0.21137 0.80707 0.50086 0.0
C880 C 0.17256 0.85408 0.50651 0.0
H881 H 0.12418 0.86578 0.53012 0.0
C882 C 0.17302 0.8707 0.49085 0.0
C883 C 0.15459 0.85187 0.52047 0.0
C884 C 0.15361 0.83412 0.53745 0.0
C885 C 0.15606 0.88563 0.48911 0.0
C886 C 0.13851 0.88413 0.50382 0.0
C887 C 0.13772 0.86696 0.51895 0.0
C888 C 0.12142 0.90088 0.5045 0.0
C889 C 0.15716 0.90288 0.47158 0.0
C890 C 0.12674 0.92257 0.5089 0.0
C891 C 0.11077 0.93847 0.50963 0.0
C892 C 0.08906 0.93298 0.50622 0.0
C893 C 0.08373 0.91111 0.5022 0.0
C894 C 0.09979 0.89521 0.50139 0.0
H895 H 0.16765 0.89778 0.45776 0.0
H896 H 0.14093 0.90672 0.46505 0.0
H897 H 0.16407 0.91792 0.47868 0.0
H898 H 0.14328 0.92721 0.51193 0.0
H899 H 0.1155 0.95506 0.51302 0.0
H900 H 0.49566 0.22673 0.17032 0.0
H901 H 0.499 0.19393 0.14807 0.0
H902 H 0.52912 0.16068 0.20211 0.0
H903 H 0.52638 0.19372 0.22447 0.0
H904 H 0.54332 0.17059 0.14189 0.0
H905 H 0.47627 0.12139 0.17688 0.0
H906 H 0.47581 0.15072 0.17761 0.0
H907 H 0.49398 0.13611 0.19497 0.0
C908 C 0.50311 0.2125 0.17749 0.0
C909 C 0.51097 0.2129 0.1991 0.0
C910 C 0.50486 0.19376 0.16479 0.0
C911 C 0.51426 0.175 0.17352 0.0
C912 C 0.52168 0.17505 0.19521 0.0
H913 H 0.5268 0.04988 0.10633 0.0
H914 H 0.52696 0.07812 0.13453 0.0
C915 C 0.52003 0.19387 0.20795 0.0
C916 C 0.51708 0.15578 0.15939 0.0
H917 H 0.49484 0.10676 0.14666 0.0
C918 C 0.53288 0.15652 0.14301 0.0
C919 C 0.50354 0.13748 0.16113 0.0
C920 C 0.48635 0.13619 0.17852 0.0
C921 C 0.5352 0.13952 0.12791 0.0
C922 C 0.52096 0.12163 0.12894 0.0
C923 C 0.50565 0.12056 0.14585 0.0
C924 C 0.52098 0.10449 0.11193 0.0
C925 C 0.55288 0.14092 0.11101 0.0
C926 C 0.5172 0.10995 0.08994 0.0
C927 C 0.51718 0.09393 0.07378 0.0
C928 C 0.52068 0.07203 0.07931 0.0
C929 C 0.52408 0.06656 0.10145 0.0
C930 C 0.52419 0.08267 0.11761 0.0
H931 H 0.56617 0.15163 0.11659 0.0
H932 H 0.55959 0.12462 0.10724 0.0
H933 H 0.54627 0.1479 0.09566 0.0
H934 H 0.51412 0.12663 0.08528 0.0
H935 H 0.51424 0.09876 0.05698 0.0
H936 H 0.84582 0.4778 0.22731 0.0
H937 H 0.86922 0.47649 0.19509 0.0
H938 H 0.83821 0.53363 0.16918 0.0
H939 H 0.81511 0.53541 0.20169 0.0
H940 H 0.8604 0.47435 0.14958 0.0
H941 H 0.90231 0.55061 0.1732 0.0
H942 H 0.88504 0.53597 0.19184 0.0
H943 H 0.87358 0.55266 0.17071 0.0
C944 C 0.84395 0.49005 0.21471 0.0
C945 C 0.82879 0.50684 0.21712 0.0
C946 C 0.85723 0.48921 0.19628 0.0
C947 C 0.85564 0.50516 0.17997 0.0
C948 C 0.83987 0.52136 0.18179 0.0
H949 H 0.92449 0.50296 0.05529 0.0
H950 H 0.8966 0.50335 0.08346 0.0
C951 C 0.82656 0.52223 0.20024 0.0
C952 C 0.87123 0.50531 0.16165 0.0
H953 H 0.91294 0.53424 0.13997 0.0
C954 C 0.87183 0.48747 0.14736 0.0
C955 C 0.88629 0.52233 0.15909 0.0
C956 C 0.887 0.54142 0.1746 0.0
C957 C 0.88716 0.4862 0.1305 0.0
C958 C 0.90204 0.50336 0.12779 0.0
C959 C 0.9014 0.5212 0.14206 0.0
C960 C 0.91887 0.50285 0.11067 0.0
C961 C 0.8877 0.46627 0.11613 0.0
C962 C 0.94064 0.50285 0.11667 0.0
C963 C 0.95668 0.50273 0.10064 0.0
C964 C 0.95124 0.50273 0.07826 0.0
C965 C 0.92934 0.50284 0.07233 0.0
C966 C 0.91332 0.50296 0.0884 0.0
H967 H 0.87852 0.45258 0.12343 0.0
H968 H 0.88039 0.47019 0.10002 0.0
H969 H 0.90451 0.4609 0.11322 0.0
H970 H 0.94522 0.50286 0.1338 0.0
H971 H 0.97333 0.5027 0.10587 0.0
H972 H 0.52628 0.7886 0.19942 0.0
H973 H 0.52829 0.81136 0.16638 0.0
H974 H 0.49017 0.86051 0.19843 0.0
H975 H 0.48794 0.83787 0.23129 0.0
H976 H 0.47839 0.85007 0.15293 0.0
H977 H 0.56519 0.86886 0.16537 0.0
H978 H 0.55745 0.8407 0.16561 0.0
H979 H 0.54839 0.85838 0.18707 0.0
C980 C 0.51812 0.80414 0.19925 0.0
C981 C 0.50714 0.8116 0.21794 0.0
C982 C 0.51939 0.81714 0.18048 0.0
C983 C 0.50958 0.83767 0.18015 0.0
C984 C 0.49792 0.84475 0.19846 0.0
H985 H 0.52513 0.95406 0.10515 0.0
H986 H 0.52282 0.92559 0.13296 0.0
C987 C 0.49676 0.83187 0.21722 0.0
C988 C 0.51198 0.85227 0.1611 0.0
H989 H 0.54809 0.8852 0.13516 0.0
C990 C 0.49364 0.8576 0.14885 0.0
C991 C 0.53189 0.86221 0.15611 0.0
C992 C 0.5519 0.85744 0.16925 0.0
C993 C 0.49465 0.87284 0.13178 0.0
C994 C 0.51453 0.88285 0.12687 0.0
C995 C 0.53292 0.87736 0.13897 0.0
C996 C 0.51635 0.8998 0.10984 0.0
C997 C 0.47436 0.87866 0.11956 0.0
C998 C 0.51372 0.89459 0.08765 0.0
C999 C 0.51506 0.91079 0.07167 0.0
C1000 C 0.51904 0.93251 0.07764 0.0
C1001 C 0.52192 0.93756 0.09994 0.0
C1002 C 0.52068 0.92132 0.11587 0.0
H1003 H 0.45974 0.87222 0.12779 0.0
H1004 H 0.47281 0.89656 0.11801 0.0
H1005 H 0.4751 0.87175 0.10278 0.0
H1006 H 0.51059 0.878 0.0827 0.0
H1007 H 0.51276 0.90626 0.05469 0.0
H1008 H 0.2132 0.49129 0.22022 0.0
H1009 H 0.18039 0.48893 0.1979 0.0
H1010 H 0.20896 0.53103 0.14956 0.0
H1011 H 0.24163 0.53371 0.17176 0.0
H1012 H 0.15829 0.53596 0.1708 0.0
H1013 H 0.18615 0.46092 0.12817 0.0
H1014 H 0.19165 0.46518 0.15692 0.0
H1015 H 0.20526 0.48126 0.13678 0.0
C1016 C 0.21235 0.50028 0.20499 0.0
C1017 C 0.23002 0.51256 0.19764 0.0
C1018 C 0.19368 0.49885 0.19228 0.0
C1019 C 0.19243 0.50977 0.17216 0.0
C1020 C 0.20975 0.52248 0.16506 0.0
H1021 H 0.1161 0.50762 0.05626 0.0
H1022 H 0.14378 0.50868 0.0845 0.0
C1023 C 0.2284 0.52387 0.17768 0.0
C1024 C 0.17346 0.50729 0.15792 0.0
H1025 H 0.15407 0.47691 0.11562 0.0
C1026 C 0.15713 0.52295 0.15888 0.0
C1027 C 0.1723 0.49037 0.14238 0.0
C1028 C 0.1897 0.47337 0.14083 0.0
C1029 C 0.13975 0.52239 0.1442 0.0
C1030 C 0.1387 0.50558 0.12842 0.0
C1031 C 0.1549 0.48971 0.12779 0.0
C1032 C 0.12162 0.50483 0.11156 0.0
C1033 C 0.12312 0.54022 0.14514 0.0
C1034 C 0.09998 0.5021 0.11744 0.0
C1035 C 0.08401 0.50154 0.10132 0.0
C1036 C 0.08946 0.50355 0.079 0.0
C1037 C 0.11124 0.50601 0.07323 0.0
C1038 C 0.12714 0.50661 0.08935 0.0
H1039 H 0.12867 0.55427 0.15505 0.0
H1040 H 0.11906 0.54601 0.1284 0.0
H1041 H 0.1082 0.5338 0.15273 0.0
H1042 H 0.09545 0.50028 0.13449 0.0
H1043 H 0.06745 0.49946 0.10639 0.0
H1044 H 0.49717 0.77912 0.84699 0.0
H1045 H 0.50078 0.81194 0.86914 0.0
H1046 H 0.5307 0.84494 0.8148 0.0
H1047 H 0.5277 0.81186 0.79254 0.0
H1048 H 0.54484 0.83545 0.87524 0.0
H1049 H 0.47779 0.88421 0.83964 0.0
H1050 H 0.47752 0.85487 0.83899 0.0
H1051 H 0.49571 0.86954 0.82169 0.0
C1052 C 0.50467 0.79328 0.83975 0.0
C1053 C 0.51235 0.79281 0.81806 0.0
C1054 C 0.50658 0.81203 0.85239 0.0
C1055 C 0.51595 0.83075 0.84353 0.0
C1056 C 0.52328 0.83061 0.8218 0.0
H1057 H 0.52738 0.95622 0.91028 0.0
H1058 H 0.52797 0.92791 0.88215 0.0
C1059 C 0.52149 0.81176 0.80912 0.0
C1060 C 0.51867 0.85008 0.85752 0.0
H1061 H 0.49612 0.89908 0.86986 0.0
C1062 C 0.53435 0.84948 0.87399 0.0
C1063 C 0.50506 0.86833 0.85559 0.0
C1064 C 0.48798 0.86946 0.8381 0.0
C1065 C 0.53649 0.86656 0.88901 0.0
C1066 C 0.52217 0.88438 0.88781 0.0
C1067 C 0.50699 0.88533 0.87079 0.0
C1068 C 0.52193 0.90156 0.90477 0.0
C1069 C 0.55404 0.86532 0.90604 0.0
C1070 C 0.51797 0.89614 0.92673 0.0
C1071 C 0.51769 0.9122 0.94284 0.0
C1072 C 0.52112 0.93409 0.93729 0.0
C1073 C 0.5247 0.93953 0.91517 0.0
C1074 C 0.52506 0.92339 0.89905 0.0
H1075 H 0.56744 0.85466 0.90058 0.0
H1076 H 0.56063 0.88165 0.9098 0.0
H1077 H 0.54735 0.85834 0.92136 0.0
H1078 H 0.51494 0.87945 0.93141 0.0
H1079 H 0.51462 0.90739 0.95963 0.0
H1080 H 0.18364 0.52697 0.78357 0.0
H1081 H 0.16083 0.52482 0.81611 0.0
H1082 H 0.21139 0.49168 0.851 0.0
H1083 H 0.23429 0.49325 0.8182 0.0
H1084 H 0.15186 0.48048 0.839 0.0
H1085 H 0.18808 0.54575 0.89046 0.0
H1086 H 0.18976 0.54637 0.86089 0.0
H1087 H 0.2054 0.52709 0.87601 0.0
C1088 C 0.18993 0.51915 0.79812 0.0
C1089 C 0.21069 0.51004 0.79823 0.0
C1090 C 0.17692 0.51807 0.81671 0.0
C1091 C 0.18449 0.50811 0.83584 0.0
C1092 C 0.20539 0.49955 0.83634 0.0
H1093 H 0.11645 0.49604 0.96068 0.0
H1094 H 0.14419 0.49566 0.93228 0.0
C1095 C 0.21843 0.50053 0.81766 0.0
C1096 C 0.16993 0.50582 0.8548 0.0
H1097 H 0.15739 0.52807 0.90437 0.0
C1098 C 0.15311 0.49074 0.8534 0.0
C1099 C 0.17183 0.51914 0.87351 0.0
C1100 C 0.18967 0.5356 0.87549 0.0
C1101 C 0.13782 0.48884 0.87018 0.0
C1102 C 0.13913 0.50283 0.88854 0.0
C1103 C 0.15637 0.51747 0.89022 0.0
C1104 C 0.12232 0.50303 0.90574 0.0
C1105 C 0.12049 0.47181 0.86812 0.0
C1106 C 0.10088 0.50763 0.90027 0.0
C1107 C 0.08495 0.50777 0.9164 0.0
C1108 C 0.0902 0.50357 0.93842 0.0
C1109 C 0.1118 0.49935 0.94391 0.0
C1110 C 0.1277 0.49911 0.9277 0.0
H1111 H 0.12552 0.45841 0.85705 0.0
H1112 H 0.11628 0.46482 0.88435 0.0
H1113 H 0.10583 0.47934 0.86106 0.0
H1114 H 0.09646 0.51126 0.88349 0.0
H1115 H 0.06856 0.51134 0.91159 0.0
H1116 H 0.54673 0.18043 0.79058 0.0
H1117 H 0.54747 0.15704 0.82297 0.0
H1118 H 0.48828 0.1858 0.84574 0.0
H1119 H 0.48704 0.2088 0.81302 0.0
H1120 H 0.54717 0.16626 0.86821 0.0
H1121 H 0.47451 0.12053 0.84191 0.0
H1122 H 0.48894 0.13849 0.82376 0.0
H1123 H 0.47107 0.14941 0.84411 0.0
C1124 C 0.53387 0.18178 0.8025 0.0
C1125 C 0.5167 0.19627 0.79914 0.0
C1126 C 0.5344 0.16852 0.82104 0.0
C1127 C 0.51776 0.16948 0.83653 0.0
C1128 C 0.50109 0.1846 0.83377 0.0
H1129 H 0.5186 0.10053 0.96174 0.0
H1130 H 0.5179 0.12869 0.93358 0.0
C1131 C 0.50053 0.19787 0.81519 0.0
C1132 C 0.51749 0.15393 0.855 0.0
H1133 H 0.48974 0.11085 0.87593 0.0
C1134 C 0.53458 0.1542 0.87001 0.0
C1135 C 0.50117 0.13806 0.85704 0.0
C1136 C 0.48296 0.13638 0.84077 0.0
C1137 C 0.53581 0.13893 0.88705 0.0
C1138 C 0.51936 0.12322 0.88922 0.0
C1139 C 0.50224 0.12302 0.87426 0.0
C1140 C 0.51998 0.10627 0.90638 0.0
C1141 C 0.55501 0.13932 0.90217 0.0
C1142 C 0.52096 0.08432 0.90037 0.0
C1143 C 0.52124 0.06813 0.91638 0.0
C1144 C 0.52044 0.0736 0.93877 0.0
C1145 C 0.51936 0.09567 0.9447 0.0
C1146 C 0.51906 0.11184 0.92864 0.0
H1147 H 0.56845 0.14907 0.8953 0.0
H1148 H 0.55024 0.14666 0.91805 0.0
H1149 H 0.56091 0.1226 0.90543 0.0
H1150 H 0.5216 0.0797 0.88325 0.0
H1151 H 0.52206 0.05135 0.91114 0.0
H1152 H 0.85899 0.4845 0.78291 0.0
H1153 H 0.88201 0.48751 0.81515 0.0
H1154 H 0.83041 0.51809 0.85088 0.0
H1155 H 0.80725 0.51568 0.81835 0.0
H1156 H 0.8904 0.53073 0.83902 0.0
H1157 H 0.85443 0.46419 0.88904 0.0
H1158 H 0.85233 0.46455 0.85951 0.0
H1159 H 0.8369 0.48331 0.87554 0.0
C1160 C 0.85254 0.49207 0.79753 0.0
C1161 C 0.83135 0.5001 0.79799 0.0
C1162 C 0.86568 0.49363 0.81596 0.0
C1163 C 0.85785 0.50299 0.83528 0.0
C1164 C 0.83663 0.51069 0.83607 0.0
H1165 H 0.92566 0.51184 0.96037 0.0
H1166 H 0.89804 0.51328 0.93195 0.0
C1167 C 0.82344 0.50924 0.81754 0.0
C1168 C 0.87231 0.50509 0.85433 0.0
H1169 H 0.88488 0.4818 0.90339 0.0
C1170 C 0.88914 0.52018 0.85321 0.0
C1171 C 0.87043 0.49138 0.87278 0.0
C1172 C 0.85263 0.47483 0.87446 0.0
C1173 C 0.90445 0.52172 0.87001 0.0
C1174 C 0.90316 0.50735 0.88806 0.0
C1175 C 0.8859 0.4927 0.88947 0.0
C1176 C 0.91998 0.50673 0.90522 0.0
C1177 C 0.9218 0.53878 0.86827 0.0
C1178 C 0.94143 0.50225 0.89964 0.0
C1179 C 0.9573 0.5015 0.9158 0.0
C1180 C 0.95197 0.50494 0.93794 0.0
C1181 C 0.93037 0.50909 0.94351 0.0
C1182 C 0.91454 0.50995 0.92729 0.0
H1183 H 0.91674 0.55244 0.85754 0.0
H1184 H 0.92607 0.54538 0.88463 0.0
H1185 H 0.93642 0.5314 0.86095 0.0
H1186 H 0.94588 0.49914 0.88276 0.0
H1187 H 0.97369 0.49803 0.91092 0.0
H1188 H 0.71349 0.71195 0.02406 0.0
H1189 H 0.68089 0.68956 0.02575 0.0
H1190 H 0.70884 0.64462 0.97961 0.0
H1191 H 0.74127 0.66703 0.97757 0.0
H1192 H 0.66434 0.65655 0.97142 0.0
H1193 H 0.67972 0.62904 0.05692 0.0
H1194 H 0.67998 0.65787 0.05222 0.0
H1195 H 0.70039 0.64113 0.04008 0.0
C1196 C 0.71256 0.69743 0.01409 0.0
C1197 C 0.72998 0.69113 0.00081 0.0
C1198 C 0.69403 0.6846 0.0152 0.0
C1199 C 0.69263 0.66534 0.003 0.0
C1200 C 0.70969 0.65938 0.98922 0.0
H1201 H 0.61609 0.55045 0.01321 0.0
H1202 H 0.64394 0.57831 0.01206 0.0
C1203 C 0.72823 0.67212 0.98818 0.0
C1204 C 0.67367 0.65098 0.00491 0.0
H1205 H 0.64839 0.61591 0.03975 0.0
C1206 C 0.6607 0.64777 0.98638 0.0
C1207 C 0.66919 0.63945 0.02442 0.0
C1208 C 0.68308 0.64183 0.04455 0.0
C1209 C 0.64341 0.63313 0.9868 0.0
C1210 C 0.63896 0.62157 0.0063 0.0
C1211 C 0.65181 0.62493 0.02489 0.0
C1212 C 0.6218 0.60499 0.00737 0.0
C1213 C 0.63046 0.62959 0.9662 0.0
C1214 C 0.60009 0.61085 0.00537 0.0
C1215 C 0.58405 0.59495 0.00602 0.0
C1216 C 0.58946 0.5729 0.00869 0.0
C1217 C 0.61127 0.56721 0.01099 0.0
C1218 C 0.62725 0.58311 0.01041 0.0
H1219 H 0.6384 0.63672 0.95155 0.0
H1220 H 0.62787 0.61198 0.96329 0.0
H1221 H 0.61445 0.63734 0.96809 0.0
H1222 H 0.59557 0.62771 0.00331 0.0
H1223 H 0.56744 0.59998 0.00425 0.0
H1224 H 0.35951 0.72684 0.98831 0.0
H1225 H 0.38201 0.69441 0.9908 0.0
H1226 H 0.33182 0.66123 0.02619 0.0
H1227 H 0.30924 0.69392 0.02433 0.0
H1228 H 0.39019 0.67044 0.03746 0.0
H1229 H 0.35455 0.62303 0.96859 0.0
H1230 H 0.35453 0.65237 0.96828 0.0
H1231 H 0.33745 0.63814 0.98704 0.0
C1232 C 0.35327 0.71274 0.9968 0.0
C1233 C 0.33265 0.71304 0.00633 0.0
C1234 C 0.3661 0.6942 0.99806 0.0
C1235 C 0.35851 0.67556 0.00866 0.0
C1236 C 0.33784 0.67553 0.01786 0.0
H1237 H 0.42479 0.5504 0.01594 0.0
H1238 H 0.39729 0.57876 0.01739 0.0
C1239 C 0.32497 0.69415 0.0167 0.0
C1240 C 0.37266 0.65642 0.01057 0.0
H1241 H 0.38513 0.60836 0.98587 0.0
C1242 C 0.38902 0.65675 0.02634 0.0
C1243 C 0.37087 0.63863 0.99613 0.0
C1244 C 0.35345 0.63782 0.97896 0.0
C1245 C 0.40402 0.63979 0.0278 0.0
C1246 C 0.40288 0.6224 0.01268 0.0
C1247 C 0.38604 0.62177 0.99735 0.0
C1248 C 0.41953 0.60521 0.01192 0.0
C1249 C 0.42092 0.64067 0.04553 0.0
C1250 C 0.4411 0.61066 0.00799 0.0
C1251 C 0.45688 0.59456 0.00723 0.0
C1252 C 0.45137 0.57258 0.01012 0.0
C1253 C 0.42965 0.56713 0.01365 0.0
C1254 C 0.41388 0.58331 0.01451 0.0
H1255 H 0.41566 0.65097 0.0595 0.0
H1256 H 0.42474 0.62419 0.0518 0.0
H1257 H 0.43586 0.64786 0.03872 0.0
H1258 H 0.44573 0.62742 0.00537 0.0
H1259 H 0.47337 0.59938 0.00422 0.0
H1260 H 0.31693 0.30795 0.03811 0.0
H1261 H 0.33953 0.34056 0.03777 0.0
H1262 H 0.37244 0.31684 0.98032 0.0
H1263 H 0.34959 0.28455 0.9802 0.0
H1264 H 0.38419 0.34143 0.0414 0.0
H1265 H 0.35773 0.37947 0.9636 0.0
H1266 H 0.34242 0.3585 0.9772 0.0
H1267 H 0.36533 0.3515 0.96063 0.0
C1268 C 0.3287 0.3099 0.02517 0.0
C1269 C 0.33147 0.29371 0.00916 0.0
C1270 C 0.34167 0.32845 0.02508 0.0
C1271 C 0.35746 0.33122 0.00887 0.0
C1272 C 0.36009 0.31521 0.99274 0.0
H1273 H 0.47406 0.40613 0.01015 0.0
H1274 H 0.44628 0.37818 0.01106 0.0
C1275 C 0.34718 0.29667 0.99283 0.0
C1276 C 0.3721 0.35016 0.00951 0.0
H1277 H 0.39056 0.39274 0.97902 0.0
C1278 C 0.38545 0.35278 0.02786 0.0
C1279 C 0.37354 0.36506 0.99193 0.0
C1280 C 0.35885 0.36367 0.97231 0.0
C1281 C 0.40073 0.36952 0.02878 0.0
C1282 C 0.40288 0.38377 0.01074 0.0
C1283 C 0.38902 0.38161 0.99272 0.0
C1284 C 0.41966 0.40079 0.01011 0.0
C1285 C 0.41443 0.37181 0.04906 0.0
C1286 C 0.41388 0.42275 0.00872 0.0
C1287 C 0.42972 0.43883 0.00809 0.0
C1288 C 0.45168 0.43322 0.00868 0.0
C1289 C 0.45736 0.41112 0.00977 0.0
C1290 C 0.44149 0.39508 0.01043 0.0
H1291 H 0.40703 0.36357 0.0634 0.0
H1292 H 0.43036 0.36426 0.04604 0.0
H1293 H 0.41702 0.38918 0.05319 0.0
H1294 H 0.39709 0.42746 0.00832 0.0
H1295 H 0.42469 0.45565 0.00718 0.0
H1296 H 0.74024 0.33373 0.98445 0.0
H1297 H 0.70805 0.35658 0.98399 0.0
H1298 H 0.68278 0.3217 0.03962 0.0
H1299 H 0.71524 0.29912 0.04056 0.0
H1300 H 0.66398 0.34532 0.98022 0.0
H1301 H 0.68269 0.38583 0.05944 0.0
H1302 H 0.70234 0.37009 0.04452 0.0
H1303 H 0.68181 0.35667 0.06019 0.0
C1304 C 0.72786 0.33098 0.99663 0.0
C1305 C 0.73035 0.31476 0.01266 0.0
C1306 C 0.70943 0.34393 0.99626 0.0
C1307 C 0.6932 0.34099 0.01194 0.0
C1308 C 0.69529 0.3244 0.02756 0.0
H1309 H 0.56802 0.4062 0.0078 0.0
H1310 H 0.59633 0.37865 0.00877 0.0
C1311 C 0.71374 0.3114 0.02795 0.0
C1312 C 0.67442 0.35575 0.01216 0.0
H1313 H 0.65026 0.39574 0.04209 0.0
C1314 C 0.66086 0.35626 0.99378 0.0
C1315 C 0.67061 0.37015 0.0298 0.0
C1316 C 0.68519 0.37088 0.04956 0.0
C1317 C 0.64362 0.37093 0.99251 0.0
C1318 C 0.63976 0.38525 0.0102 0.0
C1319 C 0.65322 0.38462 0.02864 0.0
C1320 C 0.6225 0.40178 0.00948 0.0
C1321 C 0.63008 0.37149 0.972 0.0
C1322 C 0.62786 0.42387 0.00991 0.0
C1323 C 0.61178 0.43968 0.00944 0.0
C1324 C 0.58994 0.43369 0.00864 0.0
C1325 C 0.58464 0.41146 0.00831 0.0
C1326 C 0.60079 0.39565 0.00877 0.0
H1327 H 0.63783 0.36263 0.95823 0.0
H1328 H 0.61432 0.36374 0.97537 0.0
H1329 H 0.62703 0.3885 0.9668 0.0
H1330 H 0.64455 0.4289 0.01052 0.0
H1331 H 0.61654 0.45659 0.00975 0.0
H1332 H 0.98362 0.69866 0.71357 0.0
H1333 H 0.98501 0.66531 0.69176 0.0
H1334 H 0.0439 0.68709 0.66152 0.0
H1335 H 0.04299 0.7201 0.68371 0.0
H1336 H 0.98401 0.66308 0.64676 0.0
H1337 H 0.05839 0.62473 0.6784 0.0
H1338 H 0.04475 0.64643 0.69269 0.0
H1339 H 0.06233 0.65239 0.67005 0.0
C1340 C 0.9971 0.69612 0.70261 0.0
C1341 C 0.01322 0.71199 0.70038 0.0
C1342 C 0.99781 0.67713 0.69009 0.0
C1343 C 0.01471 0.67361 0.67526 0.0
C1344 C 0.03095 0.68928 0.67319 0.0
H1345 H 0.01882 0.59877 0.55726 0.0
H1346 H 0.01676 0.62638 0.58578 0.0
C1347 C 0.03026 0.70825 0.68569 0.0
C1348 C 0.01461 0.65433 0.66077 0.0
H1349 H 0.04515 0.61133 0.64405 0.0
C1350 C 0.99726 0.65161 0.64633 0.0
C1351 C 0.03179 0.63926 0.66043 0.0
C1352 C 0.05027 0.64069 0.67638 0.0
C1353 C 0.99701 0.63469 0.63096 0.0
C1354 C 0.01475 0.62036 0.62981 0.0
C1355 C 0.0317 0.62253 0.64482 0.0
C1356 C 0.01629 0.60347 0.61266 0.0
C1357 C 0.9778 0.63235 0.61604 0.0
C1358 C 0.01732 0.58144 0.61837 0.0
C1359 C 0.01861 0.56553 0.60209 0.0
C1360 C 0.01904 0.5714 0.57978 0.0
C1361 C 0.01839 0.59357 0.57421 0.0
C1362 C 0.01709 0.60942 0.59049 0.0
H1363 H 0.96335 0.64048 0.62294 0.0
H1364 H 0.98147 0.64002 0.60001 0.0
H1365 H 0.97396 0.61498 0.61311 0.0
H1366 H 0.01687 0.57657 0.63543 0.0
H1367 H 0.01915 0.54865 0.60703 0.0
H1368 H 0.30735 0.99138 0.69898 0.0
H1369 H 0.33046 0.98975 0.66631 0.0
H1370 H 0.37997 0.02485 0.70073 0.0
H1371 H 0.35697 0.02704 0.73313 0.0
H1372 H 0.3565 0.03103 0.64492 0.0
H1373 H 0.40308 0.9608 0.67745 0.0
H1374 H 0.37537 0.9657 0.68498 0.0
H1375 H 0.39628 0.9824 0.69614 0.0
C1376 C 0.32303 0.99902 0.69945 0.0
C1377 C 0.33045 0.0091 0.71871 0.0
C1378 C 0.33619 0.998 0.68085 0.0
C1379 C 0.35689 0.00701 0.68132 0.0
C1380 C 0.36407 0.01765 0.70022 0.0
H1381 H 0.47253 0.00954 0.6054 0.0
H1382 H 0.44439 0.01025 0.6333 0.0
C1383 C 0.35097 0.01875 0.71873 0.0
C1384 C 0.37152 0.00481 0.66243 0.0
H1385 H 0.4164 0.97773 0.6455 0.0
C1386 C 0.36947 0.01925 0.64481 0.0
C1387 C 0.38842 0.98951 0.66261 0.0
C1388 C 0.39101 0.97358 0.68121 0.0
C1389 C 0.38443 0.01923 0.62755 0.0
C1390 C 0.40156 0.00407 0.62785 0.0
C1391 C 0.40327 0.98933 0.64532 0.0
C1392 C 0.4184 0.00371 0.61068 0.0
C1393 C 0.38227 0.03598 0.60962 0.0
C1394 C 0.41312 0.99955 0.58874 0.0
C1395 C 0.42916 0.99922 0.57269 0.0
C1396 C 0.45083 1.00282 0.57833 0.0
C1397 C 0.45605 0.00667 0.60042 0.0
C1398 C 0.43999 0.0071 0.61642 0.0
H1399 H 0.37154 0.04956 0.61455 0.0
H1400 H 0.39822 0.04274 0.60509 0.0
H1401 H 0.37526 0.02822 0.59486 0.0
H1402 H 0.39662 0.99639 0.58404 0.0
H1403 H 0.42455 0.99598 0.55589 0.0
H1404 H 0.98171 0.33481 0.72697 0.0
H1405 H 0.98442 0.35667 0.69361 0.0
H1406 H 0.03078 0.3116 0.6672 0.0
H1407 H 0.0282 0.28961 0.70071 0.0
H1408 H 0.04334 0.35714 0.66741 0.0
H1409 H 0.96301 0.34363 0.63015 0.0
H1410 H 0.96248 0.35025 0.65884 0.0
H1411 H 0.97464 0.32527 0.64999 0.0
C1412 C 0.99232 0.32946 0.71396 0.0
C1413 C 1.0048 0.31058 0.7164 0.0
C1414 C 0.99374 0.34186 0.69488 0.0
C1415 C 0.00766 0.33562 0.67793 0.0
C1416 C 0.01984 0.31655 0.68009 0.0
H1417 H 0.01478 0.40549 0.55364 0.0
H1418 H 0.01321 0.37682 0.58123 0.0
C1419 C 0.01829 0.304 0.69914 0.0
C1420 C 0.01053 0.34996 0.65875 0.0
H1421 H 0.98328 0.37366 0.61653 0.0
C1422 C 0.03032 0.36058 0.6561 0.0
C1423 C 0.99354 0.35426 0.64401 0.0
C1424 C 0.97225 0.34263 0.6457 0.0
C1425 C 0.03331 0.37607 0.63952 0.0
C1426 C 0.01597 0.38113 0.62543 0.0
C1427 C 0.99646 0.36987 0.62753 0.0
C1428 C 0.01757 0.39847 0.60876 0.0
C1429 C 0.0549 0.38702 0.6373 0.0
C1430 C 0.02038 0.42015 0.61518 0.0
C1431 C 0.02125 0.43664 0.59948 0.0
C1432 C 0.01928 0.43173 0.57705 0.0
C1433 C 0.01646 0.40992 0.57073 0.0
C1434 C 0.01552 0.39347 0.58646 0.0
H1435 H 0.06784 0.37757 0.64549 0.0
H1436 H 0.05924 0.38925 0.61978 0.0
H1437 H 0.05416 0.40328 0.64509 0.0
H1438 H 0.02163 0.42435 0.63237 0.0
H1439 H 0.02339 0.45322 0.60499 0.0
H1440 H 0.71493 0.03574 0.7134 0.0
H1441 H 0.68192 0.03416 0.6916 0.0
H1442 H 0.70592 0.97751 0.65797 0.0
H1443 H 0.73866 0.97859 0.68014 0.0
H1444 H 0.67978 0.03757 0.64655 0.0
H1445 H 0.64469 0.95952 0.67423 0.0
H1446 H 0.66559 0.97339 0.68927 0.0
H1447 H 0.67223 0.9572 0.66568 0.0
C1448 C 0.71297 0.02267 0.7017 0.0
C1449 C 0.72937 0.00725 0.69851 0.0
C1450 C 0.69417 0.02187 0.68918 0.0
C1451 C 0.69137 0.00556 0.67339 0.0
C1452 C 0.70757 0.98998 0.67037 0.0
H1453 H 0.61586 0.00502 0.5561 0.0
H1454 H 0.64359 0.00634 0.58427 0.0
C1455 C 0.72637 0.99077 0.68286 0.0
C1456 C 0.67225 0.00571 0.65895 0.0
H1457 H 0.63045 0.97449 0.64103 0.0
C1458 C 0.66885 0.02388 0.64551 0.0
C1459 C 0.6579 0.98793 0.65781 0.0
C1460 C 0.66012 0.96849 0.67267 0.0
C1461 C 0.65192 0.02442 0.63035 0.0
C1462 C 0.63826 0.00617 0.62841 0.0
C1463 C 0.64113 0.98834 0.64242 0.0
C1464 C 0.6213 0.00508 0.61147 0.0
C1465 C 0.64883 0.04448 0.6165 0.0
C1466 C 0.59959 0.00337 0.61747 0.0
C1467 C 0.5836 1.00253 0.60138 0.0
C1468 C 0.58909 0.00322 0.579 0.0
C1469 C 0.61095 0.00457 0.57313 0.0
C1470 C 0.62687 0.00544 0.58921 0.0
H1471 H 0.65669 0.0589 0.62395 0.0
H1472 H 0.65615 0.04177 0.60013 0.0
H1473 H 0.63148 0.04807 0.61415 0.0
H1474 H 0.59501 0.00294 0.6346 0.0
H1475 H 0.56697 1.00142 0.60655 0.0
H1476 H 0.98525 0.30757 0.30257 0.0
H1477 H 0.98661 0.34084 0.32448 0.0
H1478 H 0.04521 0.31872 0.355 0.0
H1479 H 0.04435 0.28579 0.33268 0.0
H1480 H 0.98523 0.34276 0.36946 0.0
H1481 H 0.05993 0.38116 0.33861 0.0
H1482 H 0.0464 0.35957 0.32409 0.0
H1483 H 0.06374 0.35345 0.34686 0.0
C1484 C 0.99868 0.31002 0.31359 0.0
C1485 C 0.01472 0.29408 0.31588 0.0
C1486 C 0.99936 0.32896 0.32618 0.0
C1487 C 0.01616 0.33236 0.34114 0.0
C1488 C 0.03234 0.31662 0.34324 0.0
H1489 H 0.01912 0.40704 0.45934 0.0
H1490 H 0.01745 0.37942 0.43081 0.0
C1491 C 0.03168 0.2977 0.33067 0.0
C1492 C 0.01596 0.35155 0.35573 0.0
H1493 H 0.0463 0.3945 0.37283 0.0
C1494 C 0.99847 0.35422 0.37003 0.0
C1495 C 0.03313 0.3666 0.35627 0.0
C1496 C 0.05176 0.36522 0.34048 0.0
C1497 C 0.99806 0.3711 0.38544 0.0
C1498 C 0.01577 0.38543 0.38677 0.0
C1499 C 0.03287 0.3833 0.37192 0.0
C1500 C 0.01709 0.40233 0.40393 0.0
C1501 C 0.97871 0.37341 0.4002 0.0
C1502 C 0.01802 0.42435 0.39822 0.0
C1503 C 0.01908 0.44028 0.4145 0.0
C1504 C 0.01937 0.43441 0.43681 0.0
C1505 C 0.0188 0.41224 0.44239 0.0
C1506 C 0.01773 0.39638 0.4261 0.0
H1507 H 0.96434 0.36521 0.3932 0.0
H1508 H 0.98226 0.36578 0.41627 0.0
H1509 H 0.97478 0.39077 0.40307 0.0
H1510 H 0.01769 0.42923 0.38116 0.0
H1511 H 0.01956 0.45716 0.40956 0.0
H1512 H 0.68325 0.02667 0.28384 0.0
H1513 H 0.66044 0.02434 0.31635 0.0
H1514 H 0.7109 0.9908 0.351 0.0
H1515 H 0.73381 0.99254 0.31821 0.0
H1516 H 0.6516 0.97959 0.33935 0.0
H1517 H 0.68757 0.04535 0.39035 0.0
H1518 H 0.689 0.04599 0.36077 0.0
H1519 H 0.70489 0.0268 0.37575 0.0
C1520 C 0.68951 0.01869 0.29832 0.0
C1521 C 0.71026 0.00954 0.29837 0.0
C1522 C 0.6765 0.01751 0.31689 0.0
C1523 C 0.68405 0.00742 0.33595 0.0
C1524 C 0.70492 0.99876 0.33639 0.0
H1525 H 0.61602 0.99607 0.46083 0.0
H1526 H 0.64376 0.99559 0.43244 0.0
C1527 C 0.71796 0.99984 0.31772 0.0
C1528 C 0.66952 0.00516 0.35493 0.0
H1529 H 0.65681 0.02781 0.40427 0.0
C1530 C 0.65278 0.98998 0.35365 0.0
C1531 C 0.67133 0.01866 0.37352 0.0
C1532 C 0.6891 0.03522 0.37537 0.0
C1533 C 0.63748 0.98817 0.37043 0.0
C1534 C 0.63868 1.00233 0.38865 0.0
C1535 C 0.65586 0.01707 0.39022 0.0
C1536 C 0.62186 1.00261 0.40584 0.0
C1537 C 0.62022 0.97105 0.3685 0.0
C1538 C 0.6004 0.00706 0.40032 0.0
C1539 C 0.58447 0.00725 0.41644 0.0
C1540 C 0.58973 0.00326 0.4385 0.0
C1541 C 0.61135 0.99921 0.44403 0.0
C1542 C 0.62726 0.99891 0.42783 0.0
H1543 H 0.62531 0.95758 0.35755 0.0
H1544 H 0.61603 0.96418 0.38478 0.0
H1545 H 0.60553 0.97845 0.36137 0.0
H1546 H 0.59598 0.01052 0.38351 0.0
H1547 H 0.56806 0.01069 0.41159 0.0
H1548 H 0.04347 0.68047 0.29071 0.0
H1549 H 0.04526 0.65752 0.32338 0.0
H1550 H 0.98785 0.68791 0.34859 0.0
H1551 H 0.98559 0.71053 0.31563 0.0
H1552 H 0.04679 0.66687 0.36892 0.0
H1553 H 0.9724 0.62281 0.3447 0.0
H1554 H 0.98675 0.64041 0.32612 0.0
H1555 H 0.9698 0.65178 0.34703 0.0
C1556 C 0.03128 0.68232 0.30326 0.0
C1557 C 0.01424 0.69709 0.3005 0.0
C1558 C 0.0324 0.66932 0.32195 0.0
C1559 C 0.0165 0.67081 0.33818 0.0
C1560 C 1.00009 0.68633 0.33606 0.0
H1561 H 0.01934 0.60066 0.46262 0.0
H1562 H 0.01856 0.62912 0.43478 0.0
C1563 C 0.99895 0.69936 0.31734 0.0
C1564 C 0.0165 0.65521 0.35659 0.0
H1565 H 0.98869 0.61237 0.37794 0.0
C1566 C 0.03405 0.65502 0.37103 0.0
C1567 C 0.99998 0.6396 0.35899 0.0
C1568 C 0.98123 0.63843 0.34332 0.0
C1569 C 0.03555 0.63955 0.38786 0.0
C1570 C 0.01892 0.62409 0.39037 0.0
C1571 C 1.00133 0.62435 0.37599 0.0
C1572 C 0.01977 0.60695 0.40732 0.0
C1573 C 0.05519 0.63945 0.40238 0.0
C1574 C 0.02032 0.58505 0.40106 0.0
C1575 C 0.02065 0.56869 0.41689 0.0
C1576 C 0.02033 0.57394 0.43934 0.0
C1577 C 0.01972 0.59596 0.44552 0.0
C1578 C 0.01938 0.61231 0.42964 0.0
H1579 H 0.06854 0.64916 0.39527 0.0
H1580 H 0.05097 0.64657 0.41853 0.0
H1581 H 0.06095 0.62261 0.40518 0.0
H1582 H 0.02054 0.58062 0.38387 0.0
H1583 H 0.02111 0.55196 0.41147 0.0
H1584 H 0.31669 0.97234 0.31315 0.0
H1585 H 0.33973 0.9735 0.34564 0.0
H1586 H 0.36865 0.0328 0.32229 0.0
H1587 H 0.34521 0.03214 0.29013 0.0
H1588 H 0.38403 0.97205 0.34503 0.0
H1589 H 0.35575 0.04702 0.38629 0.0
H1590 H 0.3404 0.03358 0.36515 0.0
H1591 H 0.36252 0.05101 0.35797 0.0
C1592 C 0.32758 0.98591 0.31521 0.0
C1593 C 0.3291 1.00219 0.29911 0.0
C1594 C 0.34083 0.98646 0.33369 0.0
C1595 C 0.35572 0.00335 0.33648 0.0
C1596 C 0.35699 0.01984 0.32066 0.0
H1597 H 0.47379 0.00307 0.41053 0.0
H1598 H 0.44591 1.00269 0.3824 0.0
C1599 C 0.34375 0.01931 0.30219 0.0
C1600 C 0.37101 0.00291 0.35506 0.0
H1601 H 0.38933 0.0325 0.39851 0.0
C1602 C 0.38508 0.98518 0.35684 0.0
C1603 C 0.37219 0.01995 0.37054 0.0
C1604 C 0.35677 0.03887 0.37007 0.0
C1605 C 0.40072 0.98429 0.37337 0.0
C1606 C 0.40252 1.00179 0.38826 0.0
C1607 C 0.38805 0.01924 0.38688 0.0
C1608 C 0.41938 1.00229 0.40535 0.0
C1609 C 0.41509 0.96459 0.37483 0.0
C1610 C 0.41366 1.00274 0.42757 0.0
C1611 C 0.42954 0.00307 0.44375 0.0
C1612 C 0.45149 0.00308 0.43798 0.0
C1613 C 0.45711 0.00294 0.41563 0.0
C1614 C 0.44119 1.00261 0.39949 0.0
H1615 H 0.40806 0.95043 0.36613 0.0
H1616 H 0.43082 0.96835 0.36711 0.0
H1617 H 0.41805 0.96001 0.39218 0.0
H1618 H 0.39689 1.00262 0.4324 0.0
H1619 H 0.42456 0.00325 0.46075 0.0
H1620 H 0.04648 0.22354 0.33336 0.0
H1621 H 0.04814 0.19143 0.35686 0.0
H1622 H 0.99222 0.16512 0.3246 0.0
H1623 H 0.9901 0.19749 0.3014 0.0
H1624 H 0.98879 0.16565 0.36992 0.0
H1625 H 0.06621 0.12879 0.34431 0.0
H1626 H 0.06828 0.15705 0.35124 0.0
H1627 H 0.0524 0.14892 0.32803 0.0
C1628 C 0.03465 0.21082 0.33113 0.0
C1629 C 0.01813 0.21307 0.31555 0.0
C1630 C 0.03574 0.19239 0.34443 0.0
C1631 C 0.02043 0.17579 0.34232 0.0
C1632 C 1.00427 0.1777 0.32639 0.0
H1633 H 0.02298 0.05225 0.41162 0.0
H1634 H 0.0224 0.08069 0.38378 0.0
C1635 C 1.00317 0.19613 0.31304 0.0
C1636 C 0.02031 0.15732 0.35789 0.0
H1637 H 0.05095 0.11572 0.37774 0.0
C1638 C 1.0023 0.15462 0.37152 0.0
C1639 C 0.03789 0.14287 0.35982 0.0
C1640 C 0.05721 0.14437 0.34494 0.0
C1641 C 1.00162 0.13817 0.38741 0.0
C1642 C 0.01955 0.12426 0.38993 0.0
C1643 C 0.03733 0.12658 0.37593 0.0
C1644 C 0.02009 0.10714 0.40697 0.0
C1645 C 0.98164 0.13571 0.40125 0.0
C1646 C 0.01927 0.11262 0.42927 0.0
C1647 C 0.01957 0.0964 0.44531 0.0
C1648 C 0.02079 0.07436 0.43932 0.0
C1649 C 0.02191 0.069 0.41691 0.0
C1650 C 0.02164 0.08524 0.40092 0.0
H1651 H 0.96753 0.14383 0.39365 0.0
H1652 H 0.97772 0.11831 0.40386 0.0
H1653 H 0.98444 0.14326 0.41751 0.0
H1654 H 0.01846 0.12947 0.43429 0.0
H1655 H 0.01878 0.1012 0.46236 0.0
H1656 H 0.80561 0.02361 0.32206 0.0
H1657 H 0.83008 0.01875 0.35323 0.0
H1658 H 0.88234 0.00572 0.30868 0.0
H1659 H 0.85806 0.0103 0.27753 0.0
H1660 H 0.85832 0.98306 0.3658 0.0
H1661 H 0.90299 0.05846 0.3454 0.0
H1662 H 0.87685 0.05237 0.33407 0.0
H1663 H 0.90051 0.03953 0.32314 0.0
C1664 C 0.82223 0.01934 0.3189 0.0
C1665 C 0.82993 0.01762 0.29727 0.0
C1666 C 0.83621 0.01667 0.33673 0.0
C1667 C 0.85811 0.0123 0.33324 0.0
C1668 C 0.8656 0.00955 0.31173 0.0
H1669 H 0.97383 1.00196 0.41053 0.0
H1670 H 0.94636 0.00307 0.38203 0.0
C1671 C 0.85169 0.0122 0.29394 0.0
C1672 C 0.87338 0.01135 0.35193 0.0
H1673 H 0.918 0.03605 0.373 0.0
C1674 C 0.8713 0.9947 0.3675 0.0
C1675 C 0.89026 0.0266 0.35412 0.0
C1676 C 0.89276 0.04539 0.33843 0.0
C1677 C 0.88609 0.99249 0.38483 0.0
C1678 C 0.90316 0.0076 0.38683 0.0
C1679 C 0.90499 0.02442 0.37142 0.0
C1680 C 0.91959 0.00612 0.40449 0.0
C1681 C 0.88372 0.97362 0.40041 0.0
C1682 C 0.91373 0.0076 0.42667 0.0
C1683 C 0.92944 0.00693 0.44311 0.0
C1684 C 0.95139 0.00496 0.4377 0.0
C1685 C 0.95715 0.00353 0.41542 0.0
C1686 C 0.94144 0.00414 0.39904 0.0
H1687 H 0.87337 0.96063 0.39346 0.0
H1688 H 0.89964 0.96655 0.40454 0.0
H1689 H 0.87614 0.97939 0.41581 0.0
H1690 H 0.89703 0.00963 0.43128 0.0
H1691 H 0.92436 0.00822 0.46004 0.0
H1692 H 0.00519 0.84424 0.27398 0.0
H1693 H 0.01165 0.86882 0.30479 0.0
H1694 H 1.00423 0.81549 0.34996 0.0
H1695 H 0.99757 0.79084 0.3193 0.0
H1696 H 0.98249 0.87686 0.3389 0.0
H1697 H 0.05977 0.84482 0.37117 0.0
H1698 H 0.04997 0.83834 0.34409 0.0
H1699 H 0.039 0.82483 0.36769 0.0
C1700 C 1.00502 0.83772 0.29046 0.0
C1701 C 1.00085 0.81557 0.29416 0.0
C1702 C 0.00882 0.85176 0.30804 0.0
C1703 C 0.00866 0.84394 0.32964 0.0
C1704 C 1.00489 0.82179 0.3334 0.0
H1705 H 0.01547 0.90755 0.45711 0.0
H1706 H 0.01285 0.88112 0.42726 0.0
C1707 C 1.00109 0.80772 0.31583 0.0
C1708 C 0.01095 0.85924 0.34826 0.0
H1709 H 0.04197 0.87138 0.39281 0.0
C1710 C 0.99556 0.87574 0.35063 0.0
C1711 C 0.0279 0.85759 0.36363 0.0
C1712 C 0.04523 0.84057 0.3615 0.0
C1713 C 0.99652 0.89055 0.36806 0.0
C1714 C 0.0136 0.88907 0.38331 0.0
C1715 C 0.02891 0.87246 0.38107 0.0
C1716 C 0.01599 0.90495 0.40141 0.0
C1717 C 0.97902 0.90741 0.37023 0.0
C1718 C 0.01907 0.92702 0.39675 0.0
C1719 C 0.02052 0.94217 0.4137 0.0
C1720 C 0.01908 0.93555 0.43575 0.0
C1721 C 0.01657 0.91329 0.44037 0.0
C1722 C 0.01509 0.89813 0.42334 0.0
H1723 H 0.96432 0.90274 0.36101 0.0
H1724 H 0.97462 0.90999 0.38768 0.0
H1725 H 0.98487 0.92306 0.36348 0.0
H1726 H 0.02027 0.93256 0.37994 0.0
H1727 H 0.02266 0.9591 0.40943 0.0
H1728 H 0.20477 0.94909 0.30405 0.0
H1729 H 0.17988 0.95556 0.33434 0.0
H1730 H 0.18976 0.02459 0.32793 0.0
H1731 H 0.2152 0.0181 0.29778 0.0
H1732 H 0.18837 0.01255 0.37058 0.0
H1733 H 0.11903 0.97641 0.32708 0.0
H1734 H 0.14105 0.95774 0.32929 0.0
H1735 H 0.14415 0.98226 0.3135 0.0
C1736 C 0.2016 0.96566 0.30905 0.0
C1737 C 0.21171 0.98311 0.29833 0.0
C1738 C 0.1873 0.96935 0.32632 0.0
C1739 C 0.18245 0.99059 0.33306 0.0
C1740 C 0.19309 0.00806 0.3229 0.0
H1741 H 0.06867 0.01714 0.4123 0.0
H1742 H 0.09576 0.01599 0.38334 0.0
C1743 C 0.20764 0.00435 0.30571 0.0
C1744 C 0.16619 0.99444 0.35058 0.0
H1745 H 0.11454 0.98249 0.36542 0.0
C1746 C 0.17217 0.00612 0.36939 0.0
C1747 C 0.14489 0.98644 0.3489 0.0
C1748 C 0.13682 0.97522 0.3285 0.0
C1749 C 0.15765 0.00947 0.38679 0.0
C1750 C 0.13673 1.00041 0.3856 0.0
C1751 C 0.13062 0.98923 0.36653 0.0
C1752 C 0.12079 1.00231 0.40378 0.0
C1753 C 0.1648 0.02301 0.40606 0.0
C1754 C 0.12573 0.99501 0.42502 0.0
C1755 C 0.11029 0.99588 0.44174 0.0
C1756 C 0.08943 0.00367 0.43747 0.0
C1757 C 0.08452 0.01093 0.41618 0.0
C1758 C 0.10003 0.01031 0.39957 0.0
H1759 H 0.17805 0.03423 0.40145 0.0
H1760 H 0.15129 0.03273 0.41282 0.0
H1761 H 0.17091 0.01213 0.41915 0.0
H1762 H 0.14138 0.98816 0.42859 0.0
H1763 H 0.11456 0.98992 0.45786 0.0
H1764 H 0.04537 0.78226 0.68264 0.0
H1765 H 0.04714 0.81437 0.65913 0.0
H1766 H 0.99161 0.84113 0.69179 0.0
H1767 H 0.9894 0.80878 0.71503 0.0
H1768 H 0.98798 0.84059 0.64639 0.0
H1769 H 0.06571 0.87692 0.67168 0.0
H1770 H 0.06751 0.84863 0.66478 0.0
H1771 H 0.05178 0.85693 0.68805 0.0
C1772 C 0.03365 0.79507 0.68495 0.0
C1773 C 0.01721 0.79296 0.70066 0.0
C1774 C 0.03481 0.8135 0.67164 0.0
C1775 C 0.01964 0.83023 0.67386 0.0
C1776 C 1.00356 0.82845 0.68992 0.0
H1777 H 0.02252 0.95393 0.60479 0.0
H1778 H 0.02186 0.92543 0.63258 0.0
C1779 C 1.00241 0.81004 0.70328 0.0
C1780 C 0.01957 0.84872 0.6583 0.0
H1781 H 0.05034 0.89021 0.63842 0.0
C1782 C 1.00154 0.85155 0.64476 0.0
C1783 C 0.03721 0.86308 0.65632 0.0
C1784 C 0.05658 0.86142 0.67112 0.0
C1785 C 1.00089 0.86804 0.6289 0.0
C1786 C 0.01887 0.88187 0.62634 0.0
C1787 C 0.03668 0.87941 0.64026 0.0
C1788 C 0.01945 0.89904 0.60934 0.0
C1789 C 0.98089 0.87064 0.61514 0.0
C1790 C 0.01858 0.89361 0.58702 0.0
C1791 C 0.01894 0.90986 0.57102 0.0
C1792 C 0.02025 0.93189 0.57704 0.0
C1793 C 0.0214 0.93719 0.59947 0.0
C1794 C 0.02107 0.92092 0.61543 0.0
H1795 H 0.96677 0.86254 0.62275 0.0
H1796 H 0.97703 0.88807 0.6126 0.0
H1797 H 0.98363 0.86314 0.59884 0.0
H1798 H 0.0177 0.87678 0.58197 0.0
H1799 H 0.01813 0.90511 0.55395 0.0
H1800 H 0.23493 0.02192 0.69485 0.0
H1801 H 0.2106 0.01682 0.66361 0.0
H1802 H 0.15849 1.00267 0.70801 0.0
H1803 H 0.18264 0.00751 0.73922 0.0
H1804 H 0.18307 0.98086 0.65067 0.0
H1805 H 0.13689 0.05519 0.67166 0.0
H1806 H 0.16308 0.04947 0.68305 0.0
H1807 H 0.13962 0.03611 0.69375 0.0
C1808 C 0.21838 0.01736 0.69795 0.0
C1809 C 0.21068 0.01539 0.71957 0.0
C1810 C 0.20448 0.01455 0.68008 0.0
C1811 C 0.18265 0.0098 0.68351 0.0
C1812 C 0.17517 0.0068 0.705 0.0
H1813 H 0.06727 0.99827 0.60584 0.0
H1814 H 0.09466 0.99933 0.63441 0.0
C1815 C 0.18901 0.0096 0.72283 0.0
C1816 C 0.16741 0.00871 0.66479 0.0
H1817 H 0.12235 0.03273 0.64385 0.0
C1818 C 0.16986 0.99226 0.64906 0.0
C1819 C 0.15023 0.02365 0.66271 0.0
C1820 C 0.14733 0.04224 0.67855 0.0
C1821 C 0.15515 0.98992 0.63168 0.0
C1822 C 0.13779 0.0047 0.62978 0.0
C1823 C 0.13558 0.02134 0.64536 0.0
C1824 C 0.12143 0.00309 0.61206 0.0
C1825 C 0.15794 0.97126 0.61591 0.0
C1826 C 0.12731 0.00494 0.58991 0.0
C1827 C 0.11163 0.0043 0.57342 0.0
C1828 C 0.0897 1.00197 0.57876 0.0
C1829 C 0.08393 1.0001 0.60101 0.0
C1830 C 0.0996 1.00069 0.61743 0.0
H1831 H 0.16852 0.9584 0.62276 0.0
H1832 H 0.14218 0.96393 0.61165 0.0
H1833 H 0.16546 0.97734 0.60059 0.0
H1834 H 0.14398 0.00729 0.58536 0.0
H1835 H 0.11673 0.00593 0.55653 0.0
H1836 H 0.01499 0.16298 0.74219 0.0
H1837 H 0.02068 0.13882 0.7109 0.0
H1838 H 1.00398 0.19074 0.66668 0.0
H1839 H 0.99791 0.21495 0.69787 0.0
H1840 H 0.98804 0.12863 0.67963 0.0
H1841 H 0.06009 0.1653 0.64032 0.0
H1842 H 0.05274 0.17072 0.66844 0.0
H1843 H 0.0385 0.18375 0.64648 0.0
C1844 C 0.01261 0.16931 0.72581 0.0
C1845 C 0.00592 0.1909 0.72256 0.0
C1846 C 0.01597 0.15551 0.70796 0.0
C1847 C 0.01292 0.16305 0.68649 0.0
C1848 C 0.00681 0.18472 0.68311 0.0
H1849 H 0.01465 0.09858 0.55929 0.0
H1850 H 0.01272 0.12513 0.58906 0.0
C1851 C 1.00338 0.19854 0.70097 0.0
C1852 C 0.01458 0.14777 0.6678 0.0
H1853 H 0.04276 0.13688 0.621 0.0
C1854 C 1.00005 0.13037 0.66685 0.0
C1855 C 0.03012 0.15025 0.65106 0.0
C1856 C 0.04639 0.1684 0.65159 0.0
C1857 C 1.00054 0.11541 0.64952 0.0
C1858 C 0.01632 0.11764 0.63294 0.0
C1859 C 0.03072 0.13518 0.63376 0.0
C1860 C 0.01827 0.10168 0.61484 0.0
C1861 C 0.98385 0.09762 0.6489 0.0
C1862 C 0.02248 0.07977 0.61943 0.0
C1863 C 0.0235 0.06453 0.60251 0.0
C1864 C 0.02055 0.07092 0.58056 0.0
C1865 C 0.01696 0.09303 0.57597 0.0
C1866 C 0.01585 0.10826 0.59296 0.0
H1867 H 0.96955 0.10176 0.659 0.0
H1868 H 0.97848 0.09438 0.63185 0.0
H1869 H 0.99093 0.08247 0.65559 0.0
H1870 H 0.02491 0.07442 0.63616 0.0
H1871 H 0.02657 0.04773 0.60671 0.0
H1872 H 0.79704 0.02743 0.6706 0.0
H1873 H 0.82962 0.0254 0.64854 0.0
H1874 H 0.86114 0.98932 0.69988 0.0
H1875 H 0.82803 0.99037 0.72178 0.0
H1876 H 0.86953 0.04058 0.65601 0.0
H1877 H 0.87216 0.95076 0.64733 0.0
H1878 H 0.84896 0.96482 0.65803 0.0
H1879 H 0.87212 0.96043 0.67509 0.0
C1880 C 0.81075 0.01874 0.67713 0.0
C1881 C 0.80973 0.00872 0.69785 0.0
C1882 C 0.82948 0.01778 0.66455 0.0
C1883 C 0.84776 0.00688 0.67233 0.0
C1884 C 0.8471 0.99739 0.69329 0.0
H1885 H 0.97227 0.99236 0.6052 0.0
H1886 H 0.94419 0.9934 0.63341 0.0
C1887 C 0.82823 0.99824 0.70591 0.0
C1888 C 0.86734 0.00574 0.65832 0.0
H1889 H 0.9004 0.97058 0.6309 0.0
C1890 C 0.87632 0.02526 0.65063 0.0
C1891 C 0.87624 0.98574 0.65125 0.0
C1892 C 0.86681 0.96423 0.65816 0.0
C1893 C 0.89365 0.02531 0.63585 0.0
C1894 C 0.90222 0.00536 0.6285 0.0
C1895 C 0.89376 0.98584 0.63663 0.0
C1896 C 0.91922 0.0045 0.61146 0.0
C1897 C 0.9026 0.04671 0.62799 0.0
C1898 C 0.91438 0.01018 0.58976 0.0
C1899 C 0.93029 0.00947 0.57357 0.0
C1900 C 0.95145 0.00317 0.57878 0.0
C1901 C 0.95621 0.99741 0.6006 0.0
C1902 C 0.94018 0.99793 0.61675 0.0
H1903 H 0.89713 0.06049 0.63834 0.0
H1904 H 0.92046 0.04632 0.62792 0.0
H1905 H 0.89714 0.04968 0.61094 0.0
H1906 H 0.89823 0.01514 0.58533 0.0
H1907 H 0.92602 0.01409 0.557 0.0
H1908 H 0.31392 0.97461 0.20277 0.0
H1909 H 0.33732 0.97539 0.17042 0.0
H1910 H 0.36789 0.03343 0.19468 0.0
H1911 H 0.34421 0.03309 0.22671 0.0
H1912 H 0.36055 0.03436 0.14937 0.0
H1913 H 0.40101 0.95802 0.17509 0.0
H1914 H 0.37233 0.95612 0.17203 0.0
H1915 H 0.38347 0.97312 0.19308 0.0
C1916 C 0.32529 0.9878 0.20097 0.0
C1917 C 0.32733 0.00367 0.21743 0.0
C1918 C 0.33883 0.98808 0.18261 0.0
C1919 C 0.35467 0.0042 0.18038 0.0
C1920 C 0.35592 0.02072 0.19615 0.0
H1921 H 0.47336 1.00243 0.10626 0.0
H1922 H 0.44528 0.00297 0.13429 0.0
C1923 C 0.34244 0.02045 0.21449 0.0
C1924 C 0.37061 0.00344 0.16221 0.0
H1925 H 0.4121 0.97334 0.14146 0.0
C1926 C 0.37176 0.02098 0.14755 0.0
C1927 C 0.38547 0.98613 0.1601 0.0
C1928 C 0.38573 0.96735 0.17599 0.0
C1929 C 0.3873 0.02164 0.1308 0.0
C1930 C 0.40191 0.00415 0.12848 0.0
C1931 C 0.40079 0.98665 0.14317 0.0
C1932 C 0.41885 0.00393 0.11126 0.0
C1933 C 0.38831 0.04132 0.11611 0.0
C1934 C 0.41334 0.00404 0.08897 0.0
C1935 C 0.42936 0.00374 0.07284 0.0
C1936 C 0.45129 0.00322 0.07867 0.0
C1937 C 0.45671 0.00289 0.10107 0.0
C1938 C 0.44066 0.00318 0.11717 0.0
H1939 H 0.37965 0.0554 0.1233 0.0
H1940 H 0.40525 0.04612 0.11293 0.0
H1941 H 0.38069 0.03741 0.10015 0.0
H1942 H 0.39662 0.00418 0.08401 0.0
H1943 H 0.42448 0.00388 0.05581 0.0
H1944 H 0.99683 0.31424 0.22165 0.0
H1945 H 1.00235 0.34547 0.19748 0.0
H1946 H 0.01279 0.30229 0.14289 0.0
H1947 H 0.00749 0.27095 0.16694 0.0
H1948 H 0.0377 0.35717 0.16998 0.0
H1949 H 0.96305 0.34178 0.12254 0.0
H1950 H 0.96837 0.32901 0.14862 0.0
H1951 H 0.98097 0.31895 0.12412 0.0
C1952 C 1.0006 0.31136 0.20456 0.0
C1953 C 1.00157 0.29009 0.19619 0.0
C1954 C 1.00365 0.32924 0.19077 0.0
C1955 C 0.00761 0.32618 0.16835 0.0
C1956 C 0.0093 0.30499 0.16007 0.0
H1957 H 0.02369 0.40628 0.05428 0.0
H1958 H 0.02142 0.37731 0.08132 0.0
C1959 C 0.00625 0.28711 0.17383 0.0
C1960 C 0.00952 0.34512 0.15351 0.0
H1961 H 0.98653 0.36886 0.10873 0.0
C1962 C 0.02647 0.35984 0.15665 0.0
C1963 C 0.99475 0.34858 0.13624 0.0
C1964 C 0.97563 0.33388 0.13273 0.0
C1965 C 0.02944 0.3776 0.14249 0.0
C1966 C 0.01486 0.38083 0.125 0.0
C1967 C 0.99773 0.36628 0.1221 0.0
C1968 C 0.01732 0.3988 0.10903 0.0
C1969 C 0.04849 0.39238 0.14595 0.0
C1970 C 0.01577 0.42058 0.11566 0.0
C1971 C 0.01707 0.43732 0.10018 0.0
C1972 C 0.0198 0.43255 0.07778 0.0
C1973 C 0.02151 0.41067 0.07133 0.0
C1974 C 0.02024 0.39401 0.08677 0.0
H1975 H 0.06073 0.38492 0.15687 0.0
H1976 H 0.05621 0.39652 0.13008 0.0
H1977 H 0.04294 0.4077 0.15367 0.0
H1978 H 0.01311 0.42461 0.13272 0.0
H1979 H 0.01558 0.45395 0.10576 0.0
H1980 H 0.6957 0.97484 0.22743 0.0
H1981 H 0.67271 0.97353 0.19498 0.0
H1982 H 0.7052 0.02959 0.16858 0.0
H1983 H 0.728 0.03128 0.20133 0.0
H1984 H 0.66071 0.03384 0.16927 0.0
H1985 H 0.68401 0.95539 0.1316 0.0
H1986 H 0.67742 0.95323 0.16017 0.0
H1987 H 0.70042 0.96892 0.15185 0.0
C1988 C 0.69815 0.98672 0.21458 0.0
C1989 C 0.71364 0.0032 0.21697 0.0
C1990 C 0.6851 0.98585 0.19595 0.0
C1991 C 0.68734 1.00135 0.17925 0.0
C1992 C 0.70328 0.0174 0.18123 0.0
H1993 H 0.61672 0.99957 0.05565 0.0
H1994 H 0.6447 0.99991 0.08371 0.0
C1995 C 0.7164 0.01824 0.19986 0.0
C1996 C 0.67188 1.00184 0.1607 0.0
H1997 H 0.65111 0.97123 0.11907 0.0
C1998 C 0.65874 0.02022 0.15817 0.0
C1999 C 0.66941 0.98414 0.14613 0.0
C2000 C 0.6837 0.96438 0.14739 0.0
C2001 C 0.64283 0.02115 0.14186 0.0
C2002 C 0.63977 0.00309 0.12788 0.0
C2003 C 0.65331 0.98496 0.12998 0.0
C2004 C 0.62262 1.00276 0.11095 0.0
C2005 C 0.6295 0.04152 0.13965 0.0
C2006 C 0.60085 0.00396 0.11696 0.0
C2007 C 0.58473 0.00377 0.10095 0.0
C2008 C 0.59006 1.0023 0.07856 0.0
C2009 C 0.61193 1.00083 0.07267 0.0
C2010 C 0.62801 1.00097 0.0887 0.0
H2011 H 0.63736 0.05565 0.14764 0.0
H2012 H 0.62661 0.04549 0.12214 0.0
H2013 H 0.61368 0.03895 0.14766 0.0
H2014 H 0.59631 0.00496 0.13407 0.0
H2015 H 0.56811 0.00485 0.10618 0.0
H2016 H 0.02816 0.71765 0.19962 0.0
H2017 H 0.02926 0.69483 0.16659 0.0
H2018 H 0.99419 0.64473 0.20069 0.0
H2019 H 0.99232 0.66756 0.23321 0.0
H2020 H 0.04763 0.65432 0.16186 0.0
H2021 H 0.96047 0.6497 0.14432 0.0
H2022 H 0.9717 0.66946 0.16292 0.0
H2023 H 0.96644 0.64216 0.17204 0.0
C2024 C 0.02039 0.70191 0.1999 0.0
C2025 C 0.01024 0.69437 0.21905 0.0
C2026 C 0.02113 0.68886 0.1811 0.0
C2027 C 0.01153 0.66821 0.18109 0.0
C2028 C 1.00132 0.66077 0.20015 0.0
H2029 H 0.01011 0.55122 0.10532 0.0
H2030 H 0.00869 0.57975 0.13321 0.0
C2031 C 1.00053 0.67374 0.21884 0.0
C2032 C 0.01298 0.65381 0.16167 0.0
H2033 H 0.98259 0.62219 0.12769 0.0
C2034 C 0.03342 0.64755 0.15415 0.0
C2035 C 0.99441 0.64503 0.1516 0.0
C2036 C 0.97203 0.65211 0.15799 0.0
C2037 C 0.03575 0.63202 0.13746 0.0
C2038 C 0.01719 0.62261 0.12811 0.0
C2039 C 0.99677 0.62931 0.13513 0.0
C2040 C 0.01862 0.60543 0.11127 0.0
C2041 C 0.05799 0.62515 0.13039 0.0
C2042 C 0.02461 0.61055 0.08975 0.0
C2043 C 0.02533 0.59434 0.07373 0.0
C2044 C 0.02015 0.5727 0.079 0.0
C2045 C 0.01432 0.56766 0.1007 0.0
C2046 C 0.01344 0.58393 0.11665 0.0
H2047 H 0.07074 0.6322 0.14097 0.0
H2048 H 0.05937 0.60717 0.13074 0.0
H2049 H 0.06084 0.63051 0.11326 0.0
H2050 H 0.02853 0.62711 0.08531 0.0
H2051 H 0.02998 0.59882 0.05722 0.0
H2052 H 0.34539 0.9747 0.78969 0.0
H2053 H 0.36849 0.97378 0.82208 0.0
H2054 H 0.33542 0.02958 0.84833 0.0
H2055 H 0.31249 0.03086 0.81565 0.0
H2056 H 0.37991 0.03429 0.84752 0.0
H2057 H 0.35754 0.95577 0.88556 0.0
H2058 H 0.36405 0.95355 0.85697 0.0
H2059 H 0.34093 0.96905 0.86531 0.0
C2060 C 0.34283 0.9866 0.8025 0.0
C2061 C 0.32714 0.00289 0.80008 0.0
C2062 C 0.35594 0.98595 0.82109 0.0
C2063 C 0.35358 1.00149 0.83773 0.0
C2064 C 0.33745 0.01735 0.83574 0.0
H2065 H 0.42471 1.00032 0.96102 0.0
H2066 H 0.39663 1.00057 0.93308 0.0
C2067 C 0.32425 0.01797 0.81714 0.0
C2068 C 0.3691 1.00221 0.85624 0.0
H2069 H 0.39036 0.97192 0.89785 0.0
C2070 C 0.38206 0.02073 0.85865 0.0
C2071 C 0.37181 0.98458 0.87085 0.0
C2072 C 0.35771 0.96469 0.86973 0.0
C2073 C 0.39804 0.02186 0.87488 0.0
C2074 C 0.40136 0.00387 0.8889 0.0
C2075 C 0.38798 0.9856 0.88692 0.0
C2076 C 0.41858 0.00373 0.90577 0.0
C2077 C 0.41117 0.04236 0.87697 0.0
C2078 C 0.44032 0.00517 0.89969 0.0
C2079 C 0.45651 0.00503 0.91563 0.0
C2080 C 0.45128 0.00338 0.93803 0.0
C2081 C 0.42943 1.00172 0.94399 0.0
C2082 C 0.4133 1.00181 0.92803 0.0
H2083 H 0.40311 0.0564 0.86901 0.0
H2084 H 0.41412 0.04639 0.89445 0.0
H2085 H 0.42697 0.03994 0.86887 0.0
H2086 H 0.44479 0.00627 0.88256 0.0
H2087 H 0.4731 0.00625 0.91035 0.0
H2088 H 0.03319 0.29255 0.81289 0.0
H2089 H 0.03647 0.31542 0.84577 0.0
H2090 H 0.98752 0.35827 0.82052 0.0
H2091 H 0.98404 0.33551 0.78792 0.0
H2092 H 0.04707 0.36137 0.8458 0.0
H2093 H 0.96785 0.3444 0.88408 0.0
H2094 H 0.97978 0.3268 0.86374 0.0
H2095 H 0.96649 0.35141 0.85553 0.0
C2096 C 0.02295 0.30669 0.81455 0.0
C2097 C 0.0084 0.3123 0.79786 0.0
C2098 C 0.02491 0.31975 0.83323 0.0
C2099 C 0.01209 0.33839 0.83561 0.0
C2100 C 0.99735 0.3438 0.81912 0.0
H2101 H 0.02479 0.45599 0.91033 0.0
H2102 H 0.02395 0.42766 0.8823 0.0
C2103 C 0.99551 0.33089 0.80044 0.0
C2104 C 0.01465 0.35287 0.85478 0.0
H2105 H 0.98694 0.37527 0.89747 0.0
C2106 C 0.03404 0.36426 0.85727 0.0
C2107 C 0.99766 0.35645 0.86976 0.0
C2108 C 0.97682 0.34399 0.86833 0.0
C2109 C 0.0366 0.37977 0.87394 0.0
C2110 C 0.01924 0.38407 0.88828 0.0
C2111 C 1.00015 0.37209 0.88629 0.0
C2112 C 0.02041 0.40117 0.90531 0.0
C2113 C 0.05782 0.39145 0.87604 0.0
C2114 C 0.01832 0.39568 0.9275 0.0
C2115 C 0.01872 0.41181 0.94358 0.0
C2116 C 0.02102 0.43383 0.93777 0.0
C2117 C 0.02304 0.43925 0.91545 0.0
C2118 C 0.02271 0.42306 0.89939 0.0
H2119 H 0.071 0.38253 0.86764 0.0
H2120 H 0.05646 0.40774 0.86838 0.0
H2121 H 0.06223 0.3937 0.89352 0.0
H2122 H 0.01639 0.37887 0.93237 0.0
H2123 H 0.01703 0.40696 0.96056 0.0
H2124 H 0.70814 0.0224 0.79293 0.0
H2125 H 0.67686 0.01765 0.81692 0.0
H2126 H 0.71897 0.00549 0.87166 0.0
H2127 H 0.75029 0.01 0.84782 0.0
H2128 H 0.66349 0.9826 0.84503 0.0
H2129 H 0.68208 0.05772 0.89155 0.0
H2130 H 0.69435 0.05156 0.86546 0.0
H2131 H 0.70395 0.03872 0.89004 0.0
C2132 C 0.71076 0.01834 0.80999 0.0
C2133 C 0.73177 0.01681 0.81849 0.0
C2134 C 0.69285 0.01574 0.8237 0.0
C2135 C 0.6956 0.01164 0.84615 0.0
C2136 C 0.71649 0.00913 0.85448 0.0
H2137 H 0.61665 1.00018 0.96142 0.0
H2138 H 0.6451 1.00147 0.93401 0.0
C2139 C 0.73438 0.01173 0.84082 0.0
C2140 C 0.67672 0.01068 0.86108 0.0
H2141 H 0.65452 0.03523 0.90591 0.0
C2142 C 0.66141 0.99416 0.85827 0.0
C2143 C 0.674 0.02588 0.87826 0.0
C2144 C 0.68933 0.0446 0.88146 0.0
C2145 C 0.64384 0.99198 0.87268 0.0
C2146 C 0.64136 0.00696 0.8901 0.0
C2147 C 0.65648 0.0237 0.89262 0.0
C2148 C 0.62363 0.00529 0.9064 0.0
C2149 C 0.6285 0.97327 0.86956 0.0
C2150 C 0.60198 0.00707 0.90005 0.0
C2151 C 0.58553 0.00631 0.91576 0.0
C2152 C 0.59041 0.00392 0.93817 0.0
C2153 C 0.61216 1.0021 0.94439 0.0
C2154 C 0.62853 1.00282 0.9287 0.0
H2155 H 0.63542 0.96045 0.85886 0.0
H2156 H 0.6241 0.9659 0.88556 0.0
H2157 H 0.61354 0.9793 0.86172 0.0
H2158 H 0.59782 0.00944 0.88298 0.0
H2159 H 0.56902 0.00789 0.91032 0.0
H2160 H 0.96794 0.71575 0.83477 0.0
H2161 H 0.97468 0.68459 0.85848 0.0
H2162 H 0.03896 0.67908 0.83246 0.0
H2163 H 0.0327 0.71095 0.80935 0.0
H2164 H 0.98487 0.64282 0.84772 0.0
H2165 H 0.04975 0.67955 0.89813 0.0
H2166 H 0.03297 0.69544 0.88011 0.0
H2167 H 0.05481 0.67968 0.86915 0.0
C2168 C 0.98366 0.70818 0.83433 0.0
C2169 C 0.99985 0.71604 0.82029 0.0
C2170 C 0.98741 0.69021 0.84775 0.0
C2171 C 0.00741 0.67967 0.84746 0.0
C2172 C 0.02353 0.68721 0.83325 0.0
H2173 H 0.02525 0.55267 0.91096 0.0
H2174 H 0.02336 0.58164 0.88358 0.0
C2175 C 0.01983 0.70529 0.81987 0.0
C2176 C 0.01112 0.66069 0.86198 0.0
H2177 H 0.04157 0.6427 0.90487 0.0
C2178 C 0.99732 0.64273 0.86017 0.0
C2179 C 0.02726 0.66072 0.87833 0.0
C2180 C 0.04194 0.67993 0.88175 0.0
C2181 C 0.99902 0.62491 0.87443 0.0
C2182 C 0.01526 0.62487 0.89066 0.0
C2183 C 0.02924 0.6427 0.89229 0.0
C2184 C 0.01712 0.6072 0.90709 0.0
C2185 C 0.9829 0.60669 0.87251 0.0
C2186 C 0.01484 0.61202 0.92943 0.0
C2187 C 0.0161 0.59558 0.94513 0.0
C2188 C 0.01969 0.57388 0.93884 0.0
C2189 C 0.02228 0.56913 0.91642 0.0
C2190 C 0.02111 0.58566 0.9007 0.0
H2191 H 0.9686 0.61154 0.86274 0.0
H2192 H 0.99057 0.59266 0.8642 0.0
H2193 H 0.9774 0.60128 0.88894 0.0
H2194 H 0.01178 0.62852 0.93473 0.0
H2195 H 0.01398 0.59993 0.96219 0.0
H2196 H 0.1858 0.27654 0.99986 0.0
H2197 H 0.16223 0.30822 0.99609 0.0
H2198 H 0.2115 0.34898 0.0239 0.0
H2199 H 0.23526 0.31728 0.02764 0.0
H2200 H 0.16774 0.35102 0.0442 0.0
H2201 H 0.16742 0.36248 0.95383 0.0
H2202 H 0.16369 0.33511 0.96342 0.0
H2203 H 0.18889 0.34855 0.96802 0.0
C2204 C 0.19172 0.2923 0.00492 0.0
C2205 C 0.21241 0.2944 0.01404 0.0
C2206 C 0.17827 0.3104 0.00267 0.0
C2207 C 0.18513 0.33099 0.00962 0.0
C2208 C 0.20592 0.33326 0.01833 0.0
H2209 H 0.11606 0.45462 0.99829 0.0
H2210 H 0.14377 0.42631 0.99864 0.0
C2211 C 0.21952 0.31517 0.02034 0.0
C2212 C 0.17004 0.34975 0.00903 0.0
H2213 H 0.14167 0.38258 0.97425 0.0
C2214 C 0.16216 0.35803 0.02892 0.0
C2215 C 0.16281 0.35891 0.98909 0.0
C2216 C 0.1712 0.35099 0.96732 0.0
C2217 C 0.1468 0.37482 0.02936 0.0
C2218 C 0.13915 0.38359 0.00941 0.0
C2219 C 0.14746 0.37574 0.98953 0.0
C2220 C 0.12226 0.4007 0.00896 0.0
C2221 C 0.13876 0.38308 0.05114 0.0
C2222 C 0.10091 0.39566 0.01445 0.0
C2223 C 0.08497 0.41175 0.01412 0.0
C2224 C 0.09007 0.43331 0.00844 0.0
C2225 C 0.11152 0.43827 0.00289 0.0
C2226 C 0.1274 0.42209 0.003 0.0
H2227 H 0.14879 0.37722 0.065 0.0
H2228 H 0.13855 0.40111 0.05131 0.0
H2229 H 0.12201 0.37738 0.05374 0.0
H2230 H 0.09657 0.37922 0.01897 0.0
H2231 H 0.06869 0.40729 0.01856 0.0
H2232 H 0.18465 0.73143 0.00581 0.0
H2233 H 0.16054 0.70042 0.01019 0.0
H2234 H 0.21306 0.65671 0.99663 0.0
H2235 H 0.23735 0.68778 0.99202 0.0
H2236 H 0.15151 0.67014 0.9772 0.0
H2237 H 0.18473 0.62933 0.05104 0.0
H2238 H 0.19118 0.65708 0.04404 0.0
H2239 H 0.20381 0.63505 0.02965 0.0
C2240 C 0.19116 0.71522 0.00389 0.0
C2241 C 0.21296 0.71215 0.9984 0.0
C2242 C 0.17734 0.69749 0.00647 0.0
C2243 C 0.18494 0.67619 0.00384 0.0
C2244 C 0.20685 0.67296 0.9991 0.0
H2245 H 0.11698 0.5514 0.0038 0.0
H2246 H 0.14431 0.57998 0.00237 0.0
C2247 C 0.22075 0.69076 0.99649 0.0
C2248 C 0.16952 0.65765 0.00456 0.0
H2249 H 0.15655 0.61125 0.03241 0.0
C2250 C 0.15261 0.65729 0.98931 0.0
C2251 C 0.17104 0.64075 0.02021 0.0
C2252 C 0.18855 0.64054 0.0373 0.0
C2253 C 0.13722 0.64056 0.98924 0.0
C2254 C 0.13841 0.6239 0.0052 0.0
C2255 C 0.15555 0.62404 0.02024 0.0
C2256 C 0.12182 0.60644 0.0067 0.0
C2257 C 0.12004 0.64072 0.97177 0.0
C2258 C 0.10008 0.6117 0.01003 0.0
C2259 C 0.08437 0.59542 0.01075 0.0
C2260 C 0.09002 0.57339 0.00839 0.0
C2261 C 0.11193 0.56814 0.00562 0.0
C2262 C 0.12763 0.58448 0.00482 0.0
H2263 H 0.12501 0.65047 0.9573 0.0
H2264 H 0.1162 0.62399 0.96622 0.0
H2265 H 0.10518 0.64811 0.97854 0.0
H2266 H 0.09521 0.62846 0.01208 0.0
H2267 H 0.06777 0.60019 0.01317 0.0
H2268 H 0.31319 0.19726 0.03332 0.0
H2269 H 0.33618 0.16484 0.03315 0.0
H2270 H 0.37182 0.19075 0.97846 0.0
H2271 H 0.34871 0.2229 0.97826 0.0
H2272 H 0.36347 0.14599 0.97474 0.0
H2273 H 0.39861 0.16678 0.05581 0.0
H2274 H 0.36979 0.16455 0.0552 0.0
H2275 H 0.38285 0.18584 0.04009 0.0
C2276 C 0.32565 0.19585 0.02099 0.0
C2277 C 0.32922 0.21278 0.00593 0.0
C2278 C 0.33895 0.17742 0.02107 0.0
C2279 C 0.35603 0.17554 0.00607 0.0
C2280 C 0.35888 0.19189 0.99031 0.0
H2281 H 0.47347 0.10024 0.01162 0.0
H2282 H 0.44562 0.12824 0.01096 0.0
C2283 C 0.34569 0.2103 0.99027 0.0
C2284 C 0.37149 0.15707 0.00717 0.0
H2285 H 0.41049 0.13426 0.03933 0.0
C2286 C 0.37366 0.14333 0.98891 0.0
C2287 C 0.38505 0.1538 0.02553 0.0
C2288 C 0.38418 0.16859 0.04523 0.0
C2289 C 0.38894 0.12645 0.98854 0.0
C2290 C 0.40231 0.12304 0.00701 0.0
C2291 C 0.40015 0.13678 0.02525 0.0
C2292 C 0.41911 0.10577 0.00746 0.0
C2293 C 0.39107 0.1128 0.96812 0.0
C2294 C 0.41352 0.08373 0.00597 0.0
C2295 C 0.42943 0.0676 0.00635 0.0
C2296 C 0.45135 0.07313 0.00829 0.0
C2297 C 0.45684 0.09526 0.01001 0.0
C2298 C 0.4409 0.11135 0.00968 0.0
H2299 H 0.38326 0.12058 0.95375 0.0
H2300 H 0.40826 0.1098 0.96416 0.0
H2301 H 0.38322 0.09685 0.97089 0.0
H2302 H 0.3968 0.07897 0.00464 0.0
H2303 H 0.42449 0.05079 0.00508 0.0
H2304 H 0.79992 0.33686 0.03732 0.0
H2305 H 0.83235 0.35917 0.03544 0.0
H2306 H 0.8593 0.31563 0.98739 0.0
H2307 H 0.82655 0.29319 0.98905 0.0
H2308 H 0.87633 0.34818 0.04298 0.0
H2309 H 0.86156 0.37657 0.95772 0.0
H2310 H 0.84088 0.3639 0.97411 0.0
H2311 H 0.86169 0.34766 0.96199 0.0
C2312 C 0.81273 0.332 0.02632 0.0
C2313 C 0.81054 0.31337 0.01313 0.0
C2314 C 0.83132 0.34473 0.02535 0.0
C2315 C 0.84817 0.33929 0.01107 0.0
C2316 C 0.84638 0.32033 0.99832 0.0
H2317 H 0.9733 0.40625 0.0128 0.0
H2318 H 0.94522 0.37842 0.01314 0.0
C2319 C 0.82776 0.30743 0.9994 0.0
C2320 C 0.86725 0.35386 0.00944 0.0
H2321 H 0.89247 0.38998 0.97545 0.0
C2322 C 0.88001 0.35716 0.02815 0.0
C2323 C 0.87185 0.36582 0.99019 0.0
C2324 C 0.85824 0.36353 0.96985 0.0
C2325 C 0.8971 0.37216 0.02817 0.0
C2326 C 0.90169 0.38412 0.00891 0.0
C2327 C 0.88903 0.38072 0.99016 0.0
C2328 C 0.91894 0.40093 0.00823 0.0
C2329 C 0.90967 0.37563 0.04903 0.0
C2330 C 0.91362 0.42284 0.00494 0.0
C2331 C 0.92963 0.43885 0.00474 0.0
C2332 C 0.95144 0.4333 0.00762 0.0
C2333 C 0.95674 0.41123 0.01057 0.0
C2334 C 0.94067 0.39525 0.01088 0.0
H2335 H 0.90143 0.36848 0.06349 0.0
H2336 H 0.92568 0.36783 0.04743 0.0
H2337 H 0.91223 0.39322 0.05205 0.0
H2338 H 0.89698 0.42761 0.00279 0.0
H2339 H 0.92485 0.45558 0.00231 0.0
H2340 H 0.7071 0.78799 0.98843 0.0
H2341 H 0.6753 0.81149 0.99158 0.0
H2342 H 0.71394 0.86096 0.02226 0.0
H2343 H 0.74572 0.83761 0.01922 0.0
H2344 H 0.67044 0.85225 0.04203 0.0
H2345 H 0.67011 0.86821 0.95219 0.0
H2346 H 0.67133 0.8403 0.96089 0.0
H2347 H 0.69358 0.85804 0.9663 0.0
C2348 C 0.70873 0.8037 0.99623 0.0
C2349 C 0.72897 0.81097 0.00347 0.0
C2350 C 0.69058 0.81718 0.99786 0.0
C2351 C 0.69231 0.83807 0.00693 0.0
C2352 C 0.71226 0.84494 0.01512 0.0
H2353 H 0.61594 0.95489 0.99873 0.0
H2354 H 0.64389 0.92692 0.99885 0.0
C2355 C 0.73041 0.8316 0.01331 0.0
C2356 C 0.67368 0.85327 0.00694 0.0
H2357 H 0.64321 0.88527 0.97323 0.0
C2358 C 0.66435 0.85934 0.027 0.0
C2359 C 0.66593 0.8627 0.98731 0.0
C2360 C 0.67576 0.85718 0.9654 0.0
C2361 C 0.64746 0.87457 0.02791 0.0
C2362 C 0.63975 0.88401 0.00828 0.0
C2363 C 0.64907 0.87793 0.98824 0.0
C2364 C 0.62256 0.90083 0.0083 0.0
C2365 C 0.63828 0.88091 0.04988 0.0
C2366 C 0.60119 0.89543 0.01338 0.0
C2367 C 0.58507 0.91137 0.01318 0.0
C2368 C 0.59001 0.93311 0.00803 0.0
C2369 C 0.61148 0.9384 0.00291 0.0
C2370 C 0.62752 0.92241 0.00291 0.0
H2371 H 0.64802 0.87452 0.06371 0.0
H2372 H 0.6373 0.89887 0.05129 0.0
H2373 H 0.6217 0.87439 0.05138 0.0
H2374 H 0.59697 0.87883 0.01739 0.0
H2375 H 0.56877 0.90665 0.01724 0.0
H2376 H 0.82584 0.71224 0.02695 0.0
H2377 H 0.85885 0.69022 0.02824 0.0
H2378 H 0.83263 0.64729 0.97928 0.0
H2379 H 0.80002 0.66928 0.97762 0.0
H2380 H 0.86211 0.64574 0.03918 0.0
H2381 H 0.89266 0.66047 0.95518 0.0
H2382 H 0.87248 0.67748 0.96782 0.0
H2383 H 0.86508 0.65188 0.95579 0.0
C2384 C 0.82729 0.69831 0.01623 0.0
C2385 C 0.81025 0.6925 0.00224 0.0
C2386 C 0.8461 0.68567 0.01706 0.0
C2387 C 0.84835 0.6672 0.00368 0.0
C2388 C 0.83148 0.66162 0.9895 0.0
H2389 H 0.92495 0.55104 0.01502 0.0
H2390 H 0.89708 0.57902 0.01473 0.0
C2391 C 0.81272 0.67412 0.98873 0.0
C2392 C 0.86775 0.65304 0.00516 0.0
H2393 H 0.90777 0.63016 0.97433 0.0
C2394 C 0.87223 0.64252 0.02507 0.0
C2395 C 0.8811 0.64893 0.9868 0.0
C2396 C 0.87775 0.66044 0.96524 0.0
C2397 C 0.88915 0.62742 0.02687 0.0
C2398 C 0.90184 0.62257 0.00823 0.0
C2399 C 0.8979 0.6337 0.98856 0.0
C2400 C 0.91897 0.60565 0.00871 0.0
C2401 C 0.8933 0.61673 0.0487 0.0
C2402 C 0.94057 0.61121 0.00505 0.0
C2403 C 0.95664 0.59523 0.00522 0.0
C2404 C 0.95142 0.57324 0.00879 0.0
C2405 C 0.92968 0.56774 0.01225 0.0
C2406 C 0.91367 0.58376 0.01222 0.0
H2407 H 0.88578 0.62588 0.0624 0.0
H2408 H 0.88637 0.60012 0.04856 0.0
H2409 H 0.91084 0.61529 0.05185 0.0
H2410 H 0.94502 0.62798 0.00216 0.0
H2411 H 0.97313 0.60013 0.00237 0.0
H2412 H 0.34742 0.78463 0.03841 0.0
H2413 H 0.37012 0.81704 0.03859 0.0
H2414 H 0.33686 0.8413 0.98164 0.0
H2415 H 0.3143 0.80859 0.98111 0.0
H2416 H 0.38139 0.84182 0.97707 0.0
H2417 H 0.35784 0.8799 0.05576 0.0
H2418 H 0.36507 0.8518 0.05844 0.0
H2419 H 0.3418 0.85922 0.04261 0.0
C2420 C 0.34475 0.79698 0.02606 0.0
C2421 C 0.32905 0.79399 0.00972 0.0
C2422 C 0.35764 0.81561 0.0263 0.0
C2423 C 0.35511 0.83175 0.01026 0.0
C2424 C 0.33905 0.82912 0.99426 0.0
H2425 H 0.42439 0.95567 0.0109 0.0
H2426 H 0.3966 0.92759 0.01069 0.0
C2427 C 0.32605 0.8105 0.99408 0.0
C2428 C 0.37026 0.8505 0.00932 0.0
H2429 H 0.39046 0.89266 0.03944 0.0
C2430 C 0.38323 0.85304 0.99063 0.0
C2431 C 0.37258 0.8653 0.02692 0.0
C2432 C 0.35845 0.8641 0.04699 0.0
C2433 C 0.39885 0.86953 0.98934 0.0
C2434 C 0.40181 0.88373 0.00733 0.0
C2435 C 0.38838 0.88163 0.02574 0.0
C2436 C 0.41883 0.90078 0.0074 0.0
C2437 C 0.41198 0.87166 0.96865 0.0
C2438 C 0.44067 0.89509 0.00589 0.0
C2439 C 0.45666 0.91111 0.00602 0.0
C2440 C 0.45122 0.93326 0.00774 0.0
C2441 C 0.42929 0.93886 0.00946 0.0
C2442 C 0.41332 0.9228 0.00938 0.0
H2443 H 0.40402 0.8636 0.95452 0.0
H2444 H 0.41476 0.88899 0.96448 0.0
H2445 H 0.42786 0.8638 0.97113 0.0
H2446 H 0.44537 0.87819 0.00477 0.0
H2447 H 0.47331 0.90607 0.00477 0.0
H2448 H 0.72193 0.20623 0.98867 0.0
H2449 H 0.6899 0.18329 0.98395 0.0
H2450 H 0.69875 0.1575 0.04901 0.0
H2451 H 0.7301 0.18067 0.05408 0.0
H2452 H 0.68674 0.13864 0.98495 0.0
H2453 H 0.63566 0.17369 0.05019 0.0
H2454 H 0.65955 0.18711 0.04021 0.0
H2455 H 0.6616 0.16576 0.06027 0.0
C2456 C 0.71684 0.19592 0.00209 0.0
C2457 C 0.72871 0.19528 0.02173 0.0
C2458 C 0.69859 0.18271 0.99932 0.0
C2459 C 0.69168 0.16882 0.01623 0.0
C2460 C 0.70343 0.16832 0.03586 0.0
H2461 H 0.61695 0.05056 0.01123 0.0
H2462 H 0.64472 0.07856 0.01161 0.0
C2463 C 0.72158 0.18143 0.03862 0.0
C2464 C 0.67282 0.1541 0.01325 0.0
H2465 H 0.62551 0.13841 0.03712 0.0
C2466 C 0.67324 0.13876 0.99621 0.0
C2467 C 0.65498 0.15437 0.02771 0.0
C2468 C 0.65277 0.17127 0.04548 0.0
C2469 C 0.65681 0.12319 0.9938 0.0
C2470 C 0.63964 0.12264 0.00909 0.0
C2471 C 0.63878 0.13855 0.02557 0.0
C2472 C 0.62261 0.10553 0.00852 0.0
C2473 C 0.65798 0.10756 0.9748 0.0
C2474 C 0.60076 0.11125 0.00729 0.0
C2475 C 0.58473 0.09523 0.00728 0.0
C2476 C 0.59014 0.07304 0.00861 0.0
C2477 C 0.61206 0.0674 0.01 0.0
C2478 C 0.62806 0.08343 0.01006 0.0
H2479 H 0.66791 0.11418 0.96121 0.0
H2480 H 0.66557 0.09221 0.98037 0.0
H2481 H 0.64171 0.10374 0.96838 0.0
H2482 H 0.59609 0.12817 0.00624 0.0
H2483 H 0.56808 0.1003 0.0062 0.0
H2484 H 0.54573 0.72199 0.83242 0.0
H2485 H 0.54766 0.68957 0.85544 0.0
H2486 H 0.49103 0.66396 0.82388 0.0
H2487 H 0.48864 0.69667 0.8012 0.0
H2488 H 0.4881 0.66426 0.869 0.0
H2489 H 0.56506 0.62692 0.8428 0.0
H2490 H 0.56752 0.65511 0.84984 0.0
H2491 H 0.55136 0.64729 0.82671 0.0
C2492 C 0.53382 0.70935 0.83022 0.0
C2493 C 0.51698 0.71193 0.81505 0.0
C2494 C 0.53507 0.69073 0.84323 0.0
C2495 C 0.51961 0.67426 0.84122 0.0
C2496 C 0.5032 0.67644 0.82559 0.0
H2497 H 0.52235 0.55112 0.91142 0.0
H2498 H 0.52164 0.57927 0.88328 0.0
C2499 C 0.50194 0.69506 0.81254 0.0
C2500 C 0.5195 0.65576 0.85676 0.0
H2501 H 0.55017 0.61418 0.8766 0.0
C2502 C 0.50159 0.65318 0.87053 0.0
C2503 C 0.53704 0.64125 0.85861 0.0
C2504 C 0.55625 0.6426 0.84356 0.0
C2505 C 0.50097 0.63683 0.88652 0.0
C2506 C 0.5189 0.6229 0.889 0.0
C2507 C 0.53656 0.62507 0.87482 0.0
C2508 C 0.51956 0.60596 0.9062 0.0
C2509 C 0.4811 0.6345 0.90053 0.0
C2510 C 0.51892 0.61168 0.92845 0.0
C2511 C 0.51929 0.59564 0.94466 0.0
C2512 C 0.52041 0.57353 0.9389 0.0
C2513 C 0.52137 0.56793 0.91654 0.0
C2514 C 0.52102 0.58399 0.90038 0.0
H2515 H 0.46694 0.64256 0.89296 0.0
H2516 H 0.47719 0.61713 0.90335 0.0
H2517 H 0.48401 0.64222 0.9167 0.0
H2518 H 0.51818 0.62859 0.93329 0.0
H2519 H 0.51865 0.60062 0.96167 0.0
H2520 H 0.34389 0.55282 0.79708 0.0
H2521 H 0.36786 0.547 0.82813 0.0
H2522 H 0.34253 0.48235 0.83638 0.0
H2523 H 0.31897 0.48775 0.8046 0.0
H2524 H 0.35942 0.53792 0.87093 0.0
H2525 H 0.40701 0.47119 0.83342 0.0
H2526 H 0.3887 0.48778 0.81774 0.0
H2527 H 0.37856 0.46631 0.83482 0.0
C2528 C 0.34355 0.53723 0.80528 0.0
C2529 C 0.32969 0.52063 0.79807 0.0
C2530 C 0.35717 0.534 0.8232 0.0
C2531 C 0.3573 0.51412 0.8344 0.0
C2532 C 0.34305 0.49768 0.82772 0.0
H2533 H 0.42456 0.49956 0.96023 0.0
H2534 H 0.39697 0.50092 0.93175 0.0
C2535 C 0.3294 0.50088 0.80969 0.0
C2536 C 0.37247 0.51085 0.85299 0.0
H2537 H 0.41565 0.48079 0.86983 0.0
C2538 C 0.37165 0.52535 0.87075 0.0
C2539 C 0.38861 0.49462 0.85263 0.0
C2540 C 0.39099 0.47918 0.83357 0.0
C2541 C 0.38659 0.52423 0.888 0.0
C2542 C 0.40259 0.50786 0.88774 0.0
C2543 C 0.4033 0.49323 0.87009 0.0
C2544 C 0.41933 0.50627 0.9051 0.0
C2545 C 0.38557 0.54108 0.90593 0.0
C2546 C 0.44118 0.50816 0.89958 0.0
C2547 C 0.45705 0.50722 0.9158 0.0
C2548 C 0.45145 0.50431 0.93798 0.0
C2549 C 0.42954 0.50204 0.9434 0.0
C2550 C 0.41368 0.50291 0.92713 0.0
H2551 H 0.37599 0.55549 0.90093 0.0
H2552 H 0.3778 0.53389 0.92061 0.0
H2553 H 0.40194 0.54657 0.91063 0.0
H2554 H 0.44595 0.51069 0.88269 0.0
H2555 H 0.47371 0.509 0.91091 0.0
H2556 H 0.50648 0.344 0.77515 0.0
H2557 H 0.51238 0.36827 0.80631 0.0
H2558 H 0.50443 0.31446 0.8508 0.0
H2559 H 0.49831 0.2901 0.81977 0.0
H2560 H 0.4828 0.37587 0.84032 0.0
H2561 H 0.55996 0.34354 0.87267 0.0
H2562 H 0.55037 0.33743 0.84542 0.0
H2563 H 0.53918 0.32365 0.86873 0.0
C2564 C 0.50604 0.33731 0.79156 0.0
C2565 C 0.50192 0.3151 0.79496 0.0
C2566 C 0.50952 0.35118 0.80933 0.0
C2567 C 0.50908 0.34312 0.83084 0.0
C2568 C 0.50529 0.32093 0.83431 0.0
H2569 H 0.51596 0.40694 0.9584 0.0
H2570 H 0.51322 0.38029 0.92875 0.0
C2571 C 0.5018 0.30703 0.81654 0.0
C2572 C 0.51125 0.35821 0.84962 0.0
H2573 H 0.54229 0.37021 0.89419 0.0
C2574 C 0.49585 0.37469 0.85205 0.0
C2575 C 0.52818 0.35648 0.86501 0.0
C2576 C 0.5455 0.33945 0.86282 0.0
C2577 C 0.49684 0.38946 0.86952 0.0
C2578 C 0.51395 0.38795 0.88473 0.0
C2579 C 0.52922 0.37131 0.88248 0.0
C2580 C 0.51647 0.40391 0.90272 0.0
C2581 C 0.47937 0.40635 0.87172 0.0
C2582 C 0.51969 0.42592 0.89789 0.0
C2583 C 0.52122 0.44119 0.91472 0.0
C2584 C 0.51972 0.43474 0.93681 0.0
C2585 C 0.51712 0.41253 0.94161 0.0
C2586 C 0.51556 0.39725 0.92469 0.0
H2587 H 0.46464 0.40168 0.86257 0.0
H2588 H 0.47504 0.40898 0.88918 0.0
H2589 H 0.48522 0.42198 0.86491 0.0
H2590 H 0.5209 0.43133 0.88104 0.0
H2591 H 0.52345 0.45807 0.91031 0.0
H2592 H 0.70661 0.4478 0.80663 0.0
H2593 H 0.68159 0.45458 0.83676 0.0
H2594 H 0.69078 0.52358 0.82905 0.0
H2595 H 0.71636 0.51679 0.79909 0.0
H2596 H 0.6891 0.51233 0.87195 0.0
H2597 H 0.6206 0.47465 0.82841 0.0
H2598 H 0.64279 0.45627 0.8312 0.0
H2599 H 0.64579 0.48053 0.81499 0.0
C2600 C 0.70329 0.46443 0.81135 0.0
C2601 C 0.71322 0.48178 0.80031 0.0
C2602 C 0.68892 0.46829 0.82852 0.0
C2603 C 0.6838 0.48961 0.8348 0.0
C2604 C 0.69431 0.50699 0.82437 0.0
H2605 H 0.56896 0.51615 0.91256 0.0
H2606 H 0.59627 0.51487 0.88381 0.0
C2607 C 0.70894 0.50311 0.80729 0.0
C2608 C 0.66732 0.49361 0.85208 0.0
H2609 H 0.61565 0.48137 0.86658 0.0
C2610 C 0.67298 0.50571 0.87072 0.0
C2611 C 0.64613 0.48536 0.85031 0.0
C2612 C 0.63838 0.47369 0.83004 0.0
C2613 C 0.65825 0.50922 0.88789 0.0
C2614 C 0.63744 0.4999 0.88666 0.0
C2615 C 0.63165 0.48831 0.86773 0.0
C2616 C 0.62134 0.50189 0.90467 0.0
C2617 C 0.66506 0.52319 0.90697 0.0
C2618 C 0.62621 0.495 0.92606 0.0
C2619 C 0.61065 0.49594 0.94264 0.0
C2620 C 0.58972 0.50339 0.93809 0.0
C2621 C 0.58486 0.51022 0.91665 0.0
C2622 C 0.6005 0.50953 0.90017 0.0
H2623 H 0.67819 0.53451 0.90226 0.0
H2624 H 0.65137 0.53284 0.91345 0.0
H2625 H 0.67122 0.51263 0.9203 0.0
H2626 H 0.64192 0.48842 0.92986 0.0
H2627 H 0.61489 0.49031 0.9589 0.0
H2628 H 0.48971 0.30967 0.21613 0.0
H2629 H 0.49216 0.34204 0.19293 0.0
H2630 H 0.54767 0.31505 0.16042 0.0
H2631 H 0.54567 0.2829 0.18392 0.0
H2632 H 0.55077 0.36036 0.16921 0.0
H2633 H 0.47424 0.33805 0.12781 0.0
H2634 H 0.47268 0.34052 0.15711 0.0
H2635 H 0.48878 0.31939 0.14515 0.0
C2636 C 0.50273 0.31085 0.20439 0.0
C2637 C 0.51737 0.29364 0.20169 0.0
C2638 C 0.50397 0.32924 0.19101 0.0
C2639 C 0.51983 0.33071 0.1747 0.0
C2640 C 0.5352 0.31414 0.17281 0.0
H2641 H 0.52019 0.40556 0.05517 0.0
H2642 H 0.52054 0.3774 0.08334 0.0
C2643 C 0.53397 0.29575 0.18615 0.0
C2644 C 0.51975 0.34884 0.15875 0.0
H2645 H 0.49055 0.37092 0.11692 0.0
C2646 C 0.53759 0.36277 0.15782 0.0
C2647 C 0.50266 0.35166 0.1437 0.0
C2648 C 0.48356 0.33654 0.14326 0.0
C2649 C 0.53873 0.37957 0.14229 0.0
C2650 C 0.52147 0.3826 0.1275 0.0
C2651 C 0.50369 0.36862 0.12839 0.0
C2652 C 0.52172 0.39985 0.11057 0.0
C2653 C 0.55862 0.39359 0.14147 0.0
C2654 C 0.52207 0.42183 0.11657 0.0
C2655 C 0.52188 0.43802 0.10052 0.0
C2656 C 0.52122 0.43254 0.07811 0.0
C2657 C 0.52075 0.41045 0.07221 0.0
C2658 C 0.52093 0.39429 0.08829 0.0
H2659 H 0.57233 0.38601 0.15029 0.0
H2660 H 0.56352 0.39674 0.12425 0.0
H2661 H 0.55512 0.40944 0.14935 0.0
H2662 H 0.52227 0.42646 0.13369 0.0
H2663 H 0.52218 0.45482 0.10574 0.0
H2664 H 0.71446 0.48904 0.21939 0.0
H2665 H 0.6896 0.48284 0.18875 0.0
H2666 H 0.68087 0.55203 0.1819 0.0
H2667 H 0.70504 0.55817 0.21281 0.0
H2668 H 0.64351 0.53257 0.18142 0.0
H2669 H 0.69749 0.48916 0.1239 0.0
H2670 H 0.69542 0.4761 0.15009 0.0
H2671 H 0.70735 0.50265 0.14814 0.0
C2672 C 0.70737 0.50288 0.21115 0.0
C2673 C 0.71159 0.52407 0.21854 0.0
C2674 C 0.69326 0.49935 0.19356 0.0
C2675 C 0.6835 0.51698 0.18275 0.0
C2676 C 0.68811 0.53814 0.18993 0.0
H2677 H 0.61461 0.51657 0.05861 0.0
H2678 H 0.64131 0.51923 0.08794 0.0
C2679 C 0.70191 0.54164 0.20763 0.0
C2680 C 0.66762 0.51361 0.16476 0.0
H2681 H 0.66035 0.49016 0.1145 0.0
C2682 C 0.64726 0.52333 0.16677 0.0
C2683 C 0.67251 0.50177 0.14548 0.0
C2684 C 0.69444 0.49201 0.14162 0.0
C2685 C 0.63172 0.5216 0.15017 0.0
C2686 C 0.63633 0.50916 0.13121 0.0
C2687 C 0.65671 0.49948 0.12912 0.0
C2688 C 0.62037 0.50648 0.1132 0.0
C2689 C 0.61077 0.53372 0.15287 0.0
C2690 C 0.59983 0.49796 0.11746 0.0
C2691 C 0.58444 0.49668 0.10079 0.0
C2692 C 0.58938 0.50348 0.07935 0.0
C2693 C 0.61024 0.51119 0.07492 0.0
C2694 C 0.62555 0.51272 0.09168 0.0
H2695 H 0.61232 0.54733 0.16473 0.0
H2696 H 0.60507 0.5404 0.137 0.0
H2697 H 0.59835 0.52245 0.15927 0.0
H2698 H 0.59562 0.49241 0.13375 0.0
H2699 H 0.56867 0.49031 0.10474 0.0
H2700 H 0.46652 0.67654 0.2218 0.0
H2701 H 0.47334 0.65252 0.19079 0.0
H2702 H 0.53698 0.67947 0.18373 0.0
H2703 H 0.53063 0.70299 0.21545 0.0
H2704 H 0.48292 0.66231 0.1482 0.0
H2705 H 0.54901 0.61452 0.18603 0.0
H2706 H 0.53197 0.63243 0.20174 0.0
H2707 H 0.55346 0.64332 0.18538 0.0
C2708 C 0.48211 0.67717 0.2139 0.0
C2709 C 0.49812 0.69154 0.22132 0.0
C2710 C 0.4859 0.66355 0.19603 0.0
C2711 C 0.50577 0.66397 0.18513 0.0
C2712 C 0.52168 0.67858 0.19216 0.0
H2713 H 0.52418 0.59925 0.05837 0.0
H2714 H 0.52192 0.62654 0.08737 0.0
C2715 C 0.51792 0.69219 0.21014 0.0
C2716 C 0.50957 0.64912 0.16637 0.0
H2717 H 0.54059 0.60665 0.14911 0.0
C2718 C 0.49558 0.65019 0.14834 0.0
C2719 C 0.52597 0.63318 0.16671 0.0
C2720 C 0.54086 0.63058 0.18606 0.0
C2721 C 0.49739 0.63562 0.13074 0.0
C2722 C 0.51392 0.61983 0.13098 0.0
C2723 C 0.52804 0.61889 0.1489 0.0
C2724 C 0.51612 0.60337 0.11337 0.0
C2725 C 0.4811 0.63678 0.11243 0.0
C2726 C 0.51425 0.58124 0.11844 0.0
C2727 C 0.51572 0.56556 0.10197 0.0
C2728 C 0.51911 0.5717 0.08001 0.0
C2729 C 0.52136 0.59391 0.07504 0.0
C2730 C 0.51998 0.60957 0.09158 0.0
H2731 H 0.4666 0.64619 0.11726 0.0
H2732 H 0.48847 0.64495 0.09806 0.0
H2733 H 0.47598 0.62027 0.10731 0.0
H2734 H 0.51132 0.57609 0.13516 0.0
H2735 H 0.51389 0.54866 0.10648 0.0
H2736 H 0.30008 0.53402 0.17405 0.0
H2737 H 0.33274 0.53123 0.15196 0.0
H2738 H 0.35868 0.48449 0.19744 0.0
H2739 H 0.3257 0.48698 0.21961 0.0
H2740 H 0.37663 0.53857 0.16414 0.0
H2741 H 0.36123 0.45385 0.13647 0.0
H2742 H 0.34051 0.47058 0.14853 0.0
H2743 H 0.36084 0.45863 0.16556 0.0
C2744 C 0.3127 0.52308 0.17935 0.0
C2745 C 0.31021 0.51052 0.19844 0.0
C2746 C 0.3314 0.52161 0.16677 0.0
C2747 C 0.34801 0.50747 0.1729 0.0
C2748 C 0.34591 0.4953 0.19227 0.0
H2749 H 0.47336 0.50687 0.10632 0.0
H2750 H 0.44531 0.50746 0.13443 0.0
C2751 C 0.32717 0.49685 0.205 0.0
C2752 C 0.36724 0.5054 0.15862 0.0
H2753 H 0.39237 0.47098 0.12289 0.0
C2754 C 0.38024 0.52374 0.15528 0.0
C2755 C 0.3717 0.4861 0.14689 0.0
C2756 C 0.35781 0.46615 0.14932 0.0
C2757 C 0.39745 0.52338 0.14034 0.0
C2758 C 0.40185 0.5041 0.12854 0.0
C2759 C 0.38901 0.48568 0.13206 0.0
C2760 C 0.41902 0.50311 0.11166 0.0
C2761 C 0.41031 0.54383 0.13669 0.0
C2762 C 0.41358 0.50004 0.08956 0.0
C2763 C 0.42955 0.49968 0.07341 0.0
C2764 C 0.45137 0.50221 0.07904 0.0
C2765 C 0.45677 0.50491 0.1013 0.0
C2766 C 0.44074 0.50535 0.11743 0.0
H2767 H 0.40232 0.55832 0.14386 0.0
H2768 H 0.42633 0.54205 0.1445 0.0
H2769 H 0.41287 0.5467 0.1189 0.0
H2770 H 0.3969 0.49822 0.08477 0.0
H2771 H 0.42472 0.49744 0.05651 0.0
H2772 H 0.81333 0.47432 0.70231 0.0
H2773 H 0.83643 0.47527 0.66973 0.0
H2774 H 0.86616 0.53406 0.69324 0.0
H2775 H 0.84277 0.53354 0.72548 0.0
H2776 H 0.85915 0.53421 0.64788 0.0
H2777 H 0.90027 0.45878 0.67522 0.0
H2778 H 0.87165 0.45647 0.67193 0.0
H2779 H 0.8824 0.47395 0.6928 0.0
C2780 C 0.82441 0.48774 0.70026 0.0
C2781 C 0.82638 0.50374 0.71659 0.0
C2782 C 0.83778 0.48812 0.68177 0.0
C2783 C 0.85337 0.50446 0.67932 0.0
C2784 C 0.8544 0.52118 0.69489 0.0
H2785 H 0.97271 0.50261 0.60625 0.0
H2786 H 0.94442 0.5034 0.63408 0.0
C2787 C 0.84107 0.52082 0.71335 0.0
C2788 C 0.86943 0.5036 0.66129 0.0
H2789 H 0.91148 0.47369 0.64147 0.0
C2790 C 0.87053 0.52094 0.64638 0.0
C2791 C 0.88452 0.48645 0.65963 0.0
C2792 C 0.88487 0.46793 0.67583 0.0
C2793 C 0.88624 0.52153 0.6298 0.0
C2794 C 0.90108 0.50419 0.62791 0.0
C2795 C 0.90001 0.4869 0.64286 0.0
C2796 C 0.91815 0.50386 0.61085 0.0
C2797 C 0.8872 0.54101 0.61482 0.0
C2798 C 0.91279 0.50358 0.58852 0.0
C2799 C 0.92892 0.50315 0.57253 0.0
C2800 C 0.95082 0.50284 0.57851 0.0
C2801 C 0.95609 0.50287 0.60095 0.0
C2802 C 0.93992 0.50331 0.61693 0.0
H2803 H 0.87837 0.55512 0.62176 0.0
H2804 H 0.90411 0.54591 0.61168 0.0
H2805 H 0.87969 0.53681 0.59889 0.0
H2806 H 0.8961 0.50354 0.58344 0.0
H2807 H 0.92415 0.50301 0.55546 0.0
H2808 H 0.50492 0.7718 0.66832 0.0
H2809 H 0.51105 0.80299 0.64429 0.0
H2810 H 0.50173 0.84639 0.69893 0.0
H2811 H 0.49538 0.81531 0.72306 0.0
H2812 H 0.4812 0.83649 0.63656 0.0
H2813 H 0.55764 0.86883 0.67066 0.0
H2814 H 0.54821 0.84167 0.67634 0.0
H2815 H 0.53653 0.86448 0.69031 0.0
C2816 C 0.50422 0.78798 0.67525 0.0
C2817 C 0.49962 0.79106 0.69761 0.0
C2818 C 0.50783 0.80576 0.66152 0.0
C2819 C 0.50707 0.82697 0.66988 0.0
C2820 C 0.50284 0.83014 0.69224 0.0
H2821 H 0.51456 0.95351 0.60558 0.0
H2822 H 0.51146 0.92422 0.63254 0.0
C2823 C 0.49921 0.81235 0.706 0.0
C2824 C 0.50934 0.84574 0.65486 0.0
H2825 H 0.54046 0.89002 0.64336 0.0
C2826 C 0.49419 0.84817 0.638 0.0
C2827 C 0.52618 0.86104 0.65694 0.0
C2828 C 0.5432 0.85887 0.67441 0.0
C2829 C 0.49538 0.8655 0.62315 0.0
C2830 C 0.51244 0.88059 0.62496 0.0
C2831 C 0.52743 0.87839 0.64201 0.0
C2832 C 0.51525 0.89837 0.60886 0.0
C2833 C 0.47819 0.86768 0.60583 0.0
C2834 C 0.51889 0.89352 0.58672 0.0
C2835 C 0.52062 0.91014 0.57127 0.0
C2836 C 0.5189 0.93204 0.57766 0.0
C2837 C 0.51589 0.93687 0.60002 0.0
C2838 C 0.51413 0.92016 0.61548 0.0
H2839 H 0.46339 0.8586 0.61031 0.0
H2840 H 0.4739 0.88497 0.60311 0.0
H2841 H 0.4843 0.86094 0.59015 0.0
H2842 H 0.52026 0.87681 0.58135 0.0
H2843 H 0.52317 0.90572 0.55429 0.0
H2844 H 0.22844 0.52988 0.70074 0.0
H2845 H 0.20508 0.52827 0.66839 0.0
H2846 H 0.17211 0.473 0.69583 0.0
H2847 H 0.19566 0.47423 0.72793 0.0
H2848 H 0.17968 0.46969 0.6501 0.0
H2849 H 0.14176 0.54825 0.67304 0.0
H2850 H 0.17051 0.54888 0.67003 0.0
H2851 H 0.15863 0.53311 0.69164 0.0
C2852 C 0.21655 0.51708 0.69963 0.0
C2853 C 0.21377 0.50231 0.71699 0.0
C2854 C 0.20306 0.51633 0.68126 0.0
C2855 C 0.18657 0.50079 0.67993 0.0
C2856 C 0.18461 0.48524 0.6966 0.0
H2857 H 0.06769 0.50313 0.60628 0.0
H2858 H 0.0958 0.50245 0.63426 0.0
C2859 C 0.19803 0.48601 0.71497 0.0
C2860 C 0.17059 0.50135 0.66183 0.0
H2861 H 0.12988 0.5319 0.64025 0.0
C2862 C 0.16886 0.48333 0.64785 0.0
C2863 C 0.15624 0.519 0.65918 0.0
C2864 C 0.15666 0.53836 0.67435 0.0
C2865 C 0.15324 0.48255 0.6312 0.0
C2866 C 0.13912 0.50036 0.62834 0.0
C2867 C 0.1408 0.51833 0.64238 0.0
C2868 C 0.12216 0.50051 0.61119 0.0
C2869 C 0.1516 0.46244 0.61717 0.0
C2870 C 0.12764 0.49986 0.58889 0.0
C2871 C 0.11161 0.50025 0.5728 0.0
C2872 C 0.08971 0.50139 0.57867 0.0
C2873 C 0.08432 0.50217 0.60108 0.0
C2874 C 0.10038 0.50182 0.61714 0.0
H2875 H 0.16005 0.4484 0.6247 0.0
H2876 H 0.13452 0.45795 0.61439 0.0
H2877 H 0.15909 0.46568 0.60099 0.0
H2878 H 0.14435 0.49924 0.58391 0.0
H2879 H 0.11646 0.4997 0.55576 0.0
H2880 H 0.49057 0.21009 0.70226 0.0
H2881 H 0.49219 0.18631 0.67011 0.0
H2882 H 0.54957 0.15616 0.69562 0.0
H2883 H 0.54838 0.18023 0.72751 0.0
H2884 H 0.5507 0.16387 0.64978 0.0
H2885 H 0.47608 0.1215 0.67612 0.0
H2886 H 0.47367 0.15041 0.67305 0.0
H2887 H 0.49084 0.13946 0.69399 0.0
C2888 C 0.5038 0.19874 0.70078 0.0
C2889 C 0.51924 0.19688 0.71751 0.0
C2890 C 0.50457 0.18502 0.68253 0.0
C2891 C 0.52075 0.16921 0.68075 0.0
C2892 C 0.53685 0.16814 0.6968 0.0
H2893 H 0.52103 0.04955 0.60678 0.0
H2894 H 0.52164 0.07771 0.63497 0.0
C2895 C 0.53609 0.18182 0.71503 0.0
C2896 C 0.52037 0.15302 0.66281 0.0
H2897 H 0.49136 0.11049 0.64248 0.0
C2898 C 0.53771 0.15224 0.6481 0.0
C2899 C 0.50356 0.13766 0.66094 0.0
C2900 C 0.48505 0.13708 0.67695 0.0
C2901 C 0.53861 0.13655 0.63141 0.0
C2902 C 0.52158 0.12146 0.62929 0.0
C2903 C 0.50431 0.12218 0.64408 0.0
C2904 C 0.52151 0.10452 0.61206 0.0
C2905 C 0.558 0.13592 0.61654 0.0
C2906 C 0.521 0.11028 0.58984 0.0
C2907 C 0.52066 0.09425 0.57365 0.0
C2908 C 0.52071 0.07208 0.57936 0.0
C2909 C 0.52103 0.0664 0.60171 0.0
C2910 C 0.52137 0.08248 0.61788 0.0
H2911 H 0.57182 0.14496 0.6236 0.0
H2912 H 0.56308 0.11893 0.61332 0.0
H2913 H 0.55383 0.14354 0.60061 0.0
H2914 H 0.52066 0.1272 0.58501 0.0
H2915 H 0.5203 0.09931 0.55665 0.0
H2916 H 0.8084 0.48777 0.31587 0.0
H2917 H 0.8312 0.48627 0.34887 0.0
H2918 H 0.87559 0.53122 0.31905 0.0
H2919 H 0.85303 0.5328 0.28632 0.0
H2920 H 0.87693 0.47364 0.34917 0.0
H2921 H 0.86322 0.55687 0.38112 0.0
H2922 H 0.84493 0.54375 0.36231 0.0
H2923 H 0.86949 0.55559 0.35239 0.0
C2924 C 0.82288 0.49752 0.31656 0.0
C2925 C 0.82901 0.51032 0.29853 0.0
C2926 C 0.83591 0.49658 0.33531 0.0
C2927 C 0.855 0.50877 0.33644 0.0
C2928 C 0.86083 0.52189 0.31863 0.0
H2929 H 0.97241 0.49787 0.41066 0.0
H2930 H 0.94405 0.49808 0.38288 0.0
C2931 C 0.84799 0.52266 0.29989 0.0
C2932 C 0.86953 0.50717 0.35566 0.0
H2933 H 0.89327 0.53761 0.39571 0.0
C2934 C 0.88034 0.48753 0.35952 0.0
C2935 C 0.87387 0.52529 0.36919 0.0
C2936 C 0.86215 0.54654 0.36623 0.0
C2937 C 0.89596 0.48577 0.37609 0.0
C2938 C 0.90097 0.50417 0.38899 0.0
C2939 C 0.88957 0.52357 0.38565 0.0
C2940 C 0.91815 0.50372 0.40589 0.0
C2941 C 0.90702 0.46425 0.37964 0.0
C2942 C 0.91306 0.50722 0.428 0.0
C2943 C 0.92922 0.50713 0.44395 0.0
C2944 C 0.9509 0.50378 0.43808 0.0
C2945 C 0.95594 0.50049 0.41583 0.0
C2946 C 0.93972 0.50045 0.39991 0.0
H2947 H 0.89783 0.45063 0.37224 0.0
H2948 H 0.92316 0.4647 0.37187 0.0
H2949 H 0.90922 0.46096 0.3974 0.0
H2950 H 0.89653 0.50991 0.43294 0.0
H2951 H 0.92467 0.50985 0.46086 0.0
H2952 H 0.54303 0.82799 0.28731 0.0
H2953 H 0.5456 0.85123 0.31969 0.0
H2954 H 0.49145 0.81812 0.3486 0.0
H2955 H 0.48848 0.79509 0.31599 0.0
H2956 H 0.48711 0.86325 0.34744 0.0
H2957 H 0.56598 0.83953 0.38254 0.0
H2958 H 0.56696 0.84589 0.35383 0.0
H2959 H 0.55171 0.82283 0.36303 0.0
C2960 C 0.53183 0.82549 0.30068 0.0
C2961 C 0.51551 0.80976 0.29909 0.0
C2962 C 0.53344 0.83865 0.31925 0.0
C2963 C 0.51884 0.83627 0.33662 0.0
C2964 C 0.50296 0.82012 0.33541 0.0
H2965 H 0.52334 0.90664 0.46022 0.0
H2966 H 0.52249 0.87864 0.43194 0.0
C2967 C 0.50137 0.80689 0.31685 0.0
C2968 C 0.519 0.85186 0.35509 0.0
H2969 H 0.55055 0.87254 0.39583 0.0
C2970 C 0.50091 0.86516 0.35815 0.0
C2971 C 0.53696 0.85422 0.36909 0.0
C2972 C 0.55644 0.83973 0.36715 0.0
C2973 C 0.5005 0.88116 0.37452 0.0
C2974 C 0.51878 0.88408 0.38796 0.0
C2975 C 0.53666 0.8704 0.38531 0.0
C2976 C 0.51959 0.90121 0.40496 0.0
C2977 C 0.48046 0.89471 0.37736 0.0
C2978 C 0.51853 0.92322 0.3991 0.0
C2979 C 0.519 0.93934 0.41522 0.0
C2980 C 0.5206 0.93374 0.43753 0.0
C2981 C 0.52198 0.91162 0.44325 0.0
C2982 C 0.52155 0.89555 0.42711 0.0
H2983 H 0.46623 0.88698 0.36959 0.0
H2984 H 0.47693 0.89742 0.395 0.0
H2985 H 0.48294 0.91078 0.36954 0.0
H2986 H 0.51737 0.92792 0.38204 0.0
H2987 H 0.51799 0.95616 0.41015 0.0
H2988 H 0.20799 0.52306 0.29323 0.0
H2989 H 0.17647 0.5185 0.31696 0.0
H2990 H 0.21789 0.50166 0.37097 0.0
H2991 H 0.24942 0.50588 0.34738 0.0
H2992 H 0.16184 0.48223 0.34407 0.0
H2993 H 0.18326 0.55539 0.39256 0.0
H2994 H 0.1949 0.5497 0.36605 0.0
H2995 H 0.20445 0.5357 0.38999 0.0
C2996 C 0.21039 0.51798 0.31004 0.0
C2997 C 0.23128 0.51507 0.31846 0.0
C2998 C 0.19235 0.51549 0.3236 0.0
C2999 C 0.19488 0.51014 0.34581 0.0
C3000 C 0.21561 0.50623 0.35399 0.0
H3001 H 0.11617 0.49885 0.4612 0.0
H3002 H 0.14454 0.49985 0.43367 0.0
C3003 C 0.23362 0.50868 0.34048 0.0
C3004 C 0.17602 0.50947 0.36074 0.0
H3005 H 0.15487 0.53364 0.40628 0.0
C3006 C 0.16019 0.49353 0.3576 0.0
C3007 C 0.17389 0.52431 0.3783 0.0
C3008 C 0.1899 0.54238 0.38189 0.0
C3009 C 0.14265 0.49155 0.37208 0.0
C3010 C 0.14073 0.50619 0.38988 0.0
C3011 C 0.15639 0.52237 0.39271 0.0
C3012 C 0.12305 0.5047 0.40624 0.0
C3013 C 0.12673 0.47339 0.36861 0.0
C3014 C 0.10144 0.50719 0.40002 0.0
C3015 C 0.08504 0.50658 0.41579 0.0
C3016 C 0.08996 0.50368 0.43814 0.0
C3017 C 0.11167 0.50118 0.44422 0.0
C3018 C 0.12798 0.50173 0.42847 0.0
H3019 H 0.13326 0.46057 0.35766 0.0
H3020 H 0.12212 0.46585 0.38447 0.0
H3021 H 0.11197 0.48004 0.3609 0.0
H3022 H 0.09726 0.50997 0.38303 0.0
H3023 H 0.06856 0.50869 0.41046 0.0
H3024 H 0.4666 0.21458 0.33424 0.0
H3025 H 0.47352 0.18352 0.35803 0.0
H3026 H 0.53774 0.17816 0.33182 0.0
H3027 H 0.53128 0.20992 0.3086 0.0
H3028 H 0.48393 0.14173 0.34753 0.0
H3029 H 0.54868 0.17927 0.39751 0.0
H3030 H 0.53174 0.19491 0.37943 0.0
H3031 H 0.55364 0.17921 0.36851 0.0
C3032 C 0.48233 0.20705 0.33375 0.0
C3033 C 0.49846 0.21494 0.31966 0.0
C3034 C 0.48619 0.18914 0.34722 0.0
C3035 C 0.50624 0.17869 0.34693 0.0
C3036 C 0.52228 0.18622 0.33262 0.0
H3037 H 0.5248 0.05232 0.41122 0.0
H3038 H 0.52282 0.08118 0.38374 0.0
C3039 C 0.51847 0.20424 0.31917 0.0
C3040 C 0.51009 0.15987 0.3616 0.0
H3041 H 0.54066 0.14246 0.40465 0.0
C3042 C 0.49639 0.14182 0.35997 0.0
C3043 C 0.52624 0.16015 0.37794 0.0
C3044 C 0.54082 0.17947 0.38116 0.0
C3045 C 0.49819 0.12415 0.3744 0.0
C3046 C 0.51445 0.12435 0.39062 0.0
C3047 C 0.52832 0.14228 0.39208 0.0
C3048 C 0.51645 0.10679 0.40715 0.0
C3049 C 0.48216 0.10583 0.37266 0.0
C3050 C 0.51416 0.1117 0.42947 0.0
C3051 C 0.51548 0.09532 0.44524 0.0
C3052 C 0.51912 0.07361 0.43902 0.0
C3053 C 0.52176 0.06879 0.41662 0.0
C3054 C 0.52055 0.08526 0.40085 0.0
H3055 H 0.46781 0.11054 0.36292 0.0
H3056 H 0.48989 0.09179 0.36441 0.0
H3057 H 0.47675 0.10049 0.38915 0.0
H3058 H 0.51103 0.12821 0.4347 0.0
H3059 H 0.51334 0.09972 0.46229 0.0
H3060 H 0.68425 0.77486 0.50528 0.0
H3061 H 0.66042 0.80619 0.50149 0.0
H3062 H 0.71198 0.84872 0.52105 0.0
H3063 H 0.73595 0.81734 0.52519 0.0
H3064 H 0.65009 0.83459 0.53668 0.0
H3065 H 0.68613 0.87932 0.46654 0.0
H3066 H 0.69184 0.85103 0.47184 0.0
H3067 H 0.70428 0.87175 0.48818 0.0
C3068 C 0.69062 0.79088 0.50865 0.0
C3069 C 0.71203 0.7935 0.51572 0.0
C3070 C 0.67697 0.8088 0.50639 0.0
C3071 C 0.68438 0.82984 0.51091 0.0
C3072 C 0.70596 0.83269 0.51715 0.0
H3073 H 0.61643 0.95465 0.51446 0.0
H3074 H 0.64374 0.92602 0.51548 0.0
C3075 C 0.71967 0.81471 0.51947 0.0
C3076 C 0.66901 0.84842 0.51064 0.0
H3077 H 0.65702 0.8962 0.4848 0.0
C3078 C 0.65159 0.84804 0.52531 0.0
C3079 C 0.67109 0.86609 0.49598 0.0
C3080 C 0.68923 0.86713 0.4796 0.0
C3081 C 0.63624 0.8648 0.52575 0.0
C3082 C 0.63796 0.88224 0.5107 0.0
C3083 C 0.6556 0.88282 0.49626 0.0
C3084 C 0.6214 0.89976 0.50951 0.0
C3085 C 0.61854 0.86383 0.54266 0.0
C3086 C 0.59976 0.89466 0.50539 0.0
C3087 C 0.58406 0.91096 0.50492 0.0
C3088 C 0.58964 0.93287 0.5083 0.0
C3089 C 0.61145 0.938 0.51185 0.0
C3090 C 0.62714 0.92163 0.51242 0.0
H3091 H 0.62312 0.85348 0.55683 0.0
H3092 H 0.61441 0.88028 0.54882 0.0
H3093 H 0.60394 0.85666 0.53512 0.0
H3094 H 0.59496 0.878 0.50251 0.0
H3095 H 0.56754 0.90631 0.50185 0.0
H3096 H 0.73637 0.18765 0.49239 0.0
H3097 H 0.71184 0.15667 0.49677 0.0
H3098 H 0.65982 0.20058 0.5115 0.0
H3099 H 0.68413 0.23147 0.50738 0.0
H3100 H 0.68356 0.14298 0.5324 0.0
H3101 H 0.63845 0.166 0.45745 0.0
H3102 H 0.66468 0.1769 0.46377 0.0
H3103 H 0.64117 0.18742 0.47724 0.0
C3104 C 0.7198 0.19069 0.49695 0.0
C3105 C 0.71218 0.21211 0.49922 0.0
C3106 C 0.70577 0.17296 0.49934 0.0
C3107 C 0.68387 0.17632 0.50399 0.0
C3108 C 0.67652 0.19759 0.50741 0.0
H3109 H 0.56723 0.09999 0.51226 0.0
H3110 H 0.59485 0.12815 0.51182 0.0
C3111 C 0.69047 0.21526 0.50504 0.0
C3112 C 0.66842 0.15782 0.50447 0.0
H3113 H 0.62328 0.13818 0.47938 0.0
C3114 C 0.67046 0.14181 0.52074 0.0
C3115 C 0.65133 0.15629 0.48922 0.0
C3116 C 0.6488 0.17244 0.4708 0.0
C3117 C 0.65546 0.12474 0.52259 0.0
C3118 C 0.6382 0.12337 0.50748 0.0
C3119 C 0.63641 0.13923 0.49103 0.0
C3120 C 0.62159 0.10589 0.50851 0.0
C3121 C 0.65786 0.10873 0.54115 0.0
C3122 C 0.6273 0.08389 0.50665 0.0
C3123 C 0.61149 0.06765 0.50695 0.0
C3124 C 0.58953 0.07302 0.50892 0.0
C3125 C 0.58389 0.09511 0.5107 0.0
C3126 C 0.59971 0.11131 0.51046 0.0
H3127 H 0.66818 0.11525 0.55447 0.0
H3128 H 0.64195 0.10436 0.54816 0.0
H3129 H 0.66551 0.09369 0.53486 0.0
H3130 H 0.64398 0.07926 0.5046 0.0
H3131 H 0.61652 0.05088 0.50539 0.0
H3132 H 0.853 0.72394 0.54089 0.0
H3133 H 0.87556 0.69152 0.53887 0.0
H3134 H 0.83435 0.66517 0.48868 0.0
H3135 H 0.81171 0.69793 0.49045 0.0
H3136 H 0.86532 0.64697 0.54482 0.0
H3137 H 0.89538 0.66457 0.46076 0.0
H3138 H 0.8819 0.68475 0.47728 0.0
H3139 H 0.86664 0.66373 0.46412 0.0
C3140 C 0.84871 0.71125 0.5294 0.0
C3141 C 0.83069 0.71363 0.51564 0.0
C3142 C 0.86157 0.69268 0.52835 0.0
C3143 C 0.85686 0.67604 0.51341 0.0
C3144 C 0.83848 0.67796 0.50011 0.0
H3145 H 0.92434 0.5506 0.51343 0.0
H3146 H 0.89662 0.57877 0.51405 0.0
C3147 C 0.82545 0.69658 0.50126 0.0
C3148 C 0.87162 0.65706 0.51167 0.0
H3149 H 0.90853 0.63297 0.47792 0.0
C3150 C 0.87462 0.64377 0.53013 0.0
C3151 C 0.884 0.6531 0.4926 0.0
C3152 C 0.88204 0.66733 0.47256 0.0
C3153 C 0.88972 0.62674 0.53008 0.0
C3154 C 0.90207 0.62276 0.51099 0.0
C3155 C 0.89898 0.63596 0.49249 0.0
C3156 C 0.91885 0.60551 0.51022 0.0
C3157 C 0.89286 0.61357 0.55069 0.0
C3158 C 0.94057 0.6111 0.50743 0.0
C3159 C 0.95652 0.59502 0.50706 0.0
C3160 C 0.95109 0.57292 0.50926 0.0
C3161 C 0.92922 0.56739 0.51174 0.0
C3162 C 0.9133 0.5835 0.51221 0.0
H3163 H 0.88546 0.62152 0.56521 0.0
H3164 H 0.88524 0.59742 0.54858 0.0
H3165 H 0.91024 0.61098 0.55399 0.0
H3166 H 0.94522 0.62797 0.50579 0.0
H3167 H 0.97311 0.59998 0.505 0.0
H3168 H 0.32793 0.79095 0.49393 0.0
H3169 H 0.36108 0.81276 0.4936 0.0
H3170 H 0.3295 0.86211 0.53205 0.0
H3171 H 0.297 0.84023 0.53328 0.0
H3172 H 0.3683 0.85323 0.47701 0.0
H3173 H 0.38419 0.85497 0.56604 0.0
H3174 H 0.36505 0.8365 0.55395 0.0
H3175 H 0.35745 0.86408 0.56005 0.0
C3176 C 0.3282 0.80627 0.50263 0.0
C3177 C 0.30968 0.81382 0.51354 0.0
C3178 C 0.34712 0.8188 0.50231 0.0
C3179 C 0.34798 0.83899 0.51309 0.0
C3180 C 0.32953 0.84643 0.52402 0.0
H3181 H 0.42529 0.95436 0.51787 0.0
H3182 H 0.39756 0.92618 0.5185 0.0
C3183 C 0.31077 0.83397 0.52442 0.0
C3184 C 0.36765 0.8529 0.5123 0.0
H3185 H 0.40146 0.88286 0.54464 0.0
C3186 C 0.37577 0.8594 0.4918 0.0
C3187 C 0.37754 0.86099 0.53159 0.0
C3188 C 0.37075 0.85358 0.55413 0.0
C3189 C 0.39276 0.87446 0.49012 0.0
C3190 C 0.40189 0.88324 0.5094 0.0
C3191 C 0.39427 0.87627 0.52986 0.0
C3192 C 0.41889 0.90022 0.50865 0.0
C3193 C 0.40041 0.88153 0.46778 0.0
C3194 C 0.44016 0.89496 0.50303 0.0
C3195 C 0.45615 0.91103 0.5028 0.0
C3196 C 0.45117 0.93275 0.50805 0.0
C3197 C 0.42977 0.9379 0.5136 0.0
C3198 C 0.41386 0.92179 0.51403 0.0
H3199 H 0.39033 0.87476 0.45439 0.0
H3200 H 0.40027 0.89952 0.46663 0.0
H3201 H 0.41724 0.87604 0.4653 0.0
H3202 H 0.44441 0.87839 0.49897 0.0
H3203 H 0.4724 0.90641 0.4984 0.0
H3204 H 0.22982 0.32488 0.46152 0.0
H3205 H 0.19887 0.3486 0.46671 0.0
H3206 H 0.19019 0.3234 0.53205 0.0
H3207 H 0.22189 0.30009 0.52728 0.0
H3208 H 0.15699 0.34006 0.475 0.0
H3209 H 0.19164 0.38837 0.54325 0.0
H3210 H 0.2076 0.36996 0.52698 0.0
H3211 H 0.19034 0.35966 0.54822 0.0
C3212 C 0.22155 0.32451 0.47714 0.0
C3213 C 0.22867 0.31077 0.49411 0.0
C3214 C 0.20367 0.33799 0.48 0.0
C3215 C 0.19235 0.33815 0.4999 0.0
C3216 C 0.19892 0.32396 0.5167 0.0
H3217 H 0.06776 0.40567 0.51088 0.0
H3218 H 0.09581 0.37784 0.51015 0.0
C3219 C 0.21692 0.31044 0.51386 0.0
C3220 C 0.1738 0.3533 0.50278 0.0
H3221 H 0.15611 0.39682 0.53263 0.0
C3222 C 0.15674 0.35239 0.48769 0.0
C3223 C 0.17357 0.36961 0.51915 0.0
C3224 C 0.19183 0.37218 0.53523 0.0
C3225 C 0.13966 0.36738 0.48835 0.0
C3226 C 0.13932 0.38356 0.50485 0.0
C3227 C 0.15626 0.38435 0.52008 0.0
C3228 C 0.12213 0.40045 0.50595 0.0
C3229 C 0.12256 0.36623 0.47085 0.0
C3230 C 0.12752 0.42255 0.50449 0.0
C3231 C 0.11153 0.43856 0.50508 0.0
C3232 C 0.08967 0.43289 0.50721 0.0
C3233 C 0.08434 0.41072 0.509 0.0
C3234 C 0.10039 0.39472 0.50849 0.0
H3235 H 0.12798 0.35666 0.45643 0.0
H3236 H 0.10804 0.35822 0.47766 0.0
H3237 H 0.11793 0.38273 0.46521 0.0
H3238 H 0.14416 0.42743 0.50259 0.0
H3239 H 0.11636 0.4554 0.50368 0.0
H3240 H 0.32595 0.20999 0.48271 0.0
H3241 H 0.35833 0.18721 0.4833 0.0
H3242 H 0.33285 0.15155 0.53829 0.0
H3243 H 0.30073 0.17451 0.53811 0.0
H3244 H 0.37707 0.16053 0.5421 0.0
H3245 H 0.35737 0.12402 0.46128 0.0
H3246 H 0.3592 0.15313 0.46155 0.0
H3247 H 0.33822 0.13986 0.47674 0.0
C3248 C 0.32743 0.19758 0.4952 0.0
C3249 C 0.31063 0.19397 0.51025 0.0
C3250 C 0.34585 0.18439 0.49536 0.0
C3251 C 0.34785 0.16736 0.51056 0.0
C3252 C 0.33161 0.16445 0.52628 0.0
H3253 H 0.42406 0.04998 0.5059 0.0
H3254 H 0.39604 0.07776 0.50645 0.0
C3255 C 0.3132 0.17755 0.5261 0.0
C3256 C 0.36638 0.15199 0.5097 0.0
H3257 H 0.3898 0.11283 0.47788 0.0
C3258 C 0.37994 0.15019 0.52802 0.0
C3259 C 0.36993 0.13824 0.49144 0.0
C3260 C 0.35534 0.13869 0.47168 0.0
C3261 C 0.39695 0.13508 0.52855 0.0
C3262 C 0.40065 0.12152 0.51018 0.0
C3263 C 0.38707 0.12332 0.49188 0.0
C3264 C 0.41798 0.10478 0.50993 0.0
C3265 C 0.41042 0.1333 0.54903 0.0
C3266 C 0.43975 0.11068 0.51147 0.0
C3267 C 0.45592 0.09479 0.51114 0.0
C3268 C 0.45068 0.0726 0.50922 0.0
C3269 C 0.42882 0.06682 0.5075 0.0
C3270 C 0.41271 0.08272 0.50776 0.0
H3271 H 0.40255 0.14121 0.5633 0.0
H3272 H 0.41361 0.11603 0.55315 0.0
H3273 H 0.42612 0.14141 0.54624 0.0
H3274 H 0.44427 0.12761 0.51275 0.0
H3275 H 0.47252 0.09995 0.51242 0.0
H3276 H 0.81335 0.30872 0.48186 0.0
H3277 H 0.83626 0.34118 0.48211 0.0
H3278 H 0.87011 0.31647 0.53849 0.0
H3279 H 0.84703 0.28431 0.53862 0.0
H3280 H 0.86201 0.36123 0.54091 0.0
H3281 H 0.89921 0.3385 0.46129 0.0
H3282 H 0.87041 0.34096 0.461 0.0
H3283 H 0.88286 0.31991 0.47696 0.0
C3284 C 0.82537 0.31043 0.49458 0.0
C3285 C 0.82848 0.29382 0.5101 0.0
C3286 C 0.83863 0.32887 0.49455 0.0
C3287 C 0.85523 0.33106 0.51003 0.0
C3288 C 0.85756 0.31508 0.52626 0.0
H3289 H 0.97301 0.4059 0.50532 0.0
H3290 H 0.9451 0.37798 0.50597 0.0
C3291 C 0.84438 0.29666 0.52626 0.0
C3292 C 0.87081 0.34944 0.50894 0.0
H3293 H 0.91068 0.3714 0.47727 0.0
C3294 C 0.87257 0.36354 0.52694 0.0
C3295 C 0.88484 0.35225 0.49086 0.0
C3296 C 0.88446 0.33703 0.47148 0.0
C3297 C 0.8879 0.38036 0.52734 0.0
C3298 C 0.90173 0.38334 0.50913 0.0
C3299 C 0.89999 0.36922 0.49115 0.0
C3300 C 0.91858 0.40056 0.5087 0.0
C3301 C 0.88959 0.39441 0.54753 0.0
C3302 C 0.91301 0.42263 0.50975 0.0
C3303 C 0.92896 0.43872 0.50938 0.0
C3304 C 0.9509 0.43311 0.50787 0.0
C3305 C 0.95637 0.41094 0.50658 0.0
C3306 C 0.9404 0.39489 0.50691 0.0
H3307 H 0.88152 0.38687 0.56189 0.0
H3308 H 0.90668 0.39753 0.55177 0.0
H3309 H 0.88174 0.41027 0.5443 0.0
H3310 H 0.89628 0.42746 0.51072 0.0
H3311 H 0.92402 0.45556 0.51031 0.0
H3312 H 0.22179 0.70601 0.48995 0.0
H3313 H 0.18997 0.68286 0.48488 0.0
H3314 H 0.19737 0.65833 0.55062 0.0
H3315 H 0.22847 0.68175 0.55603 0.0
H3316 H 0.18687 0.6383 0.48657 0.0
H3317 H 0.13426 0.67421 0.55003 0.0
H3318 H 0.15835 0.68753 0.54043 0.0
H3319 H 0.15997 0.66651 0.56088 0.0
C3320 C 0.21642 0.69594 0.50343 0.0
C3321 C 0.22781 0.69573 0.52337 0.0
C3322 C 0.1983 0.6826 0.50047 0.0
C3323 C 0.19104 0.669 0.51747 0.0
C3324 C 0.20231 0.66893 0.53738 0.0
H3325 H 0.11664 0.55041 0.51241 0.0
H3326 H 0.14438 0.57843 0.51298 0.0
C3327 C 0.22034 0.68217 0.54034 0.0
C3328 C 0.1723 0.65415 0.51431 0.0
H3329 H 0.12453 0.63866 0.53736 0.0
C3330 C 0.17313 0.63854 0.49753 0.0
C3331 C 0.15415 0.65458 0.52836 0.0
C3332 C 0.15148 0.67176 0.54578 0.0
C3333 C 0.1568 0.62289 0.49499 0.0
C3334 C 0.1393 0.6225 0.5099 0.0
C3335 C 0.13805 0.63867 0.52611 0.0
C3336 C 0.12231 0.60535 0.50921 0.0
C3337 C 0.15842 0.60699 0.47625 0.0
C3338 C 0.10047 0.61104 0.50754 0.0
C3339 C 0.08446 0.595 0.50744 0.0
C3340 C 0.08986 0.57283 0.50909 0.0
C3341 C 0.11177 0.56723 0.51091 0.0
C3342 C 0.12774 0.58328 0.51108 0.0
H3343 H 0.16858 0.61347 0.46277 0.0
H3344 H 0.16598 0.59177 0.4822 0.0
H3345 H 0.14229 0.603 0.46955 0.0
H3346 H 0.0958 0.62793 0.50622 0.0
H3347 H 0.06783 0.60005 0.50602 0.0
loop_
_geom_bond_atom_site_label_1
_geom_bond_atom_site_label_2
_geom_bond_distance
_geom_bond_site_symmetry_2
_ccdc_geom_bond_type
H0 C1 0.949 . S
C1 H0 0.949 . S
C1 C2 1.395 . S
C1 C3 1.391 . S
C2 C1 1.395 . S
C2 C5 1.390 . S
C3 C1 1.391 . S
C3 C7 1.387 . S
C3 C8 1.491 . S
H4 C5 0.950 . S
C5 C2 1.390 . S
C5 H4 0.950 . S
C5 C6 1.378 . S
C6 C5 1.378 . S
C6 C7 1.409 . S
C7 C3 1.387 . S
C7 C6 1.409 . S
C7 H9 0.951 . S
C8 C3 1.491 . S
C8 C10 1.382 . S
C8 C12 1.404 1_455 S
H9 C7 0.951 . S
C10 C8 1.382 . S
C10 C11 1.390 . S
C10 H15 0.949 . S
C11 C10 1.390 . S
C11 C16 1.399 1_455 S
C12 C8 1.404 1_655 S
C12 H13 0.950 . S
C12 C14 1.375 . S
H13 C12 0.950 . S
C14 C12 1.375 . S
C14 C16 1.382 . S
C14 H18 0.950 . S
H15 C10 0.949 . S
C16 C11 1.399 1_655 S
C16 C14 1.382 . S
C16 H17 0.952 . S
H17 C16 0.952 . S
H18 C14 0.950 . S
H19 C20 0.949 . S
C20 H19 0.949 . S
C20 C21 1.395 . S
C20 C22 1.391 . S
C21 C20 1.395 . S
C21 C24 1.390 1_545 S
C22 C20 1.391 . S
C22 C26 1.387 . S
C22 C27 1.491 . S
H23 C24 0.950 . S
C24 C21 1.390 1_565 S
C24 H23 0.950 . S
C24 C25 1.377 1_565 S
C25 C24 1.377 1_545 S
C25 C26 1.413 . S
C26 C22 1.387 . S
C26 C25 1.413 . S
C26 H28 0.951 . S
C27 C22 1.491 . S
C27 C29 1.382 . S
C27 C31 1.404 . S
H28 C26 0.951 . S
C29 C27 1.382 . S
C29 C30 1.390 . S
C29 H34 0.949 1_545 S
C30 C29 1.390 . S
C30 C35 1.399 . S
C31 C27 1.404 . S
C31 H32 0.950 . S
C31 C33 1.375 . S
H32 C31 0.950 . S
C33 C31 1.375 . S
C33 C35 1.382 . S
C33 H37 0.950 . S
H34 C29 0.949 1_565 S
C35 C30 1.399 . S
C35 C33 1.382 . S
C35 H36 0.952 . S
H36 C35 0.952 . S
H37 C33 0.950 . S
H38 C39 0.949 . S
C39 H38 0.949 . S
C39 C40 1.395 . S
C39 C41 1.391 . S
C40 C39 1.395 . S
C40 C43 1.390 . S
C41 C39 1.391 . S
C41 C45 1.387 . S
C41 C46 1.491 . S
H42 C43 0.950 . S
C43 C40 1.390 . S
C43 H42 0.950 . S
C43 C44 1.378 . S
C44 C43 1.378 . S
C44 C45 1.409 . S
C45 C41 1.387 . S
C45 C44 1.409 . S
C45 H47 0.951 . S
C46 C41 1.491 . S
C46 C48 1.382 . S
C46 C50 1.404 1_455 S
H47 C45 0.951 . S
C48 C46 1.382 . S
C48 C49 1.390 . S
C48 H53 0.949 . S
C49 C48 1.390 . S
C49 C54 1.399 1_455 S
C50 C46 1.404 1_655 S
C50 H51 0.950 . S
C50 C52 1.375 . S
H51 C50 0.950 . S
C52 C50 1.375 . S
C52 C54 1.382 . S
C52 H56 0.950 . S
H53 C48 0.949 . S
C54 C49 1.399 1_655 S
C54 C52 1.382 . S
C54 H55 0.952 . S
H55 C54 0.952 . S
H56 C52 0.950 . S
H57 C58 0.949 . S
C58 H57 0.949 . S
C58 C59 1.395 1_565 S
C58 C60 1.391 . S
C59 C58 1.395 1_545 S
C59 C62 1.390 . S
C60 C58 1.391 . S
C60 C64 1.387 . S
C60 C65 1.491 . S
H61 C62 0.950 . S
C62 C59 1.390 . S
C62 H61 0.950 . S
C62 C63 1.377 1_545 S
C63 C62 1.377 1_565 S
C63 C64 1.410 . S
C64 C60 1.387 . S
C64 C63 1.410 . S
C64 H66 0.951 . S
C65 C60 1.491 . S
C65 C67 1.402 . S
C65 C69 1.404 . S
H66 C64 0.951 . S
C67 C65 1.402 . S
C67 C68 1.400 . S
C67 H72 0.920 1_565 S
C68 C67 1.400 . S
C68 C73 1.399 . S
C69 C65 1.404 . S
C69 H70 0.950 . S
C69 C71 1.375 . S
H70 C69 0.950 . S
C71 C69 1.375 . S
C71 C73 1.382 . S
C71 H75 0.950 . S
H72 C67 0.920 1_545 S
C73 C68 1.399 . S
C73 C71 1.382 . S
C73 H74 0.952 . S
H74 C73 0.952 . S
H75 C71 0.950 . S
H76 C77 0.949 . S
C77 H76 0.949 . S
C77 C78 1.395 . S
C77 C79 1.391 . S
C78 C77 1.395 . S
C78 C81 1.390 . S
C79 C77 1.391 . S
C79 C83 1.387 . S
C79 C84 1.491 . S
H80 C81 0.950 . S
C81 C78 1.390 . S
C81 H80 0.950 . S
C81 C82 1.378 . S
C82 C81 1.378 . S
C82 C83 1.409 . S
C83 C79 1.387 . S
C83 C82 1.409 . S
C83 H85 0.951 . S
C84 C79 1.491 . S
C84 C86 1.382 . S
C84 C88 1.404 1_455 S
H85 C83 0.951 . S
C86 C84 1.382 . S
C86 C87 1.390 . S
C86 H91 0.949 . S
C87 C86 1.390 . S
C87 C92 1.399 1_455 S
C88 C84 1.404 1_655 S
C88 H89 0.950 . S
C88 C90 1.375 . S
H89 C88 0.950 . S
C90 C88 1.375 . S
C90 C92 1.382 . S
C90 H94 0.950 . S
H91 C86 0.949 . S
C92 C87 1.399 1_655 S
C92 C90 1.382 . S
C92 H93 0.952 . S
H93 C92 0.952 . S
H94 C90 0.950 . S
H95 C96 0.949 . S
C96 H95 0.949 . S
C96 C97 1.395 . S
C96 C98 1.391 . S
C97 C96 1.395 . S
C97 C100 1.391 . S
C98 C96 1.391 . S
C98 C102 1.387 . S
C98 C103 1.491 . S
H99 C100 0.948 1_565 S
C100 C97 1.391 . S
C100 H99 0.948 1_545 S
C100 C101 1.379 . S
C101 C100 1.379 . S
C101 C102 1.409 . S
C102 C98 1.387 . S
C102 C101 1.409 . S
C102 H104 0.951 . S
C103 C98 1.491 . S
C103 C105 1.382 . S
C103 C107 1.404 . S
H104 C102 0.951 . S
C105 C103 1.382 . S
C105 C106 1.390 . S
C105 H110 0.949 1_545 S
C106 C105 1.390 . S
C106 C111 1.399 . S
C107 C103 1.404 . S
C107 H108 0.950 . S
C107 C109 1.375 . S
H108 C107 0.950 . S
C109 C107 1.375 . S
C109 C111 1.382 . S
C109 H113 0.950 . S
H110 C105 0.949 1_565 S
C111 C106 1.399 . S
C111 C109 1.382 . S
C111 H112 0.952 . S
H112 C111 0.952 . S
H113 C109 0.950 . S
H114 C115 0.949 . S
C115 H114 0.949 . S
C115 C116 1.395 . S
C115 C117 1.391 . S
C116 C115 1.395 . S
C116 C119 1.390 . S
C117 C115 1.391 . S
C117 C121 1.387 . S
C117 C122 1.491 . S
H118 C119 0.950 . S
C119 C116 1.390 . S
C119 H118 0.950 . S
C119 C120 1.378 . S
C120 C119 1.378 . S
C120 C121 1.409 . S
C121 C117 1.387 . S
C121 C120 1.409 . S
C121 H123 0.951 . S
C122 C117 1.491 . S
C122 C124 1.382 . S
C122 C126 1.404 1_455 S
H123 C121 0.951 . S
C124 C122 1.382 . S
C124 C125 1.390 . S
C124 H129 0.949 . S
C125 C124 1.390 . S
C125 C130 1.399 1_455 S
C126 C122 1.404 1_655 S
C126 H127 0.950 . S
C126 C128 1.375 . S
H127 C126 0.950 . S
C128 C126 1.375 . S
C128 C130 1.382 . S
C128 H132 0.950 . S
H129 C124 0.949 . S
C130 C125 1.399 1_655 S
C130 C128 1.382 . S
C130 H131 0.952 . S
H131 C130 0.952 . S
H132 C128 0.950 . S
H133 C134 0.949 . S
C134 H133 0.949 . S
C134 C135 1.395 . S
C134 C136 1.391 . S
C135 C134 1.395 . S
C135 C138 1.391 . S
C136 C134 1.391 . S
C136 C140 1.387 . S
C136 C141 1.491 . S
H137 C138 0.948 1_565 S
C138 C135 1.391 . S
C138 H137 0.948 1_545 S
C138 C139 1.379 . S
C139 C138 1.379 . S
C139 C140 1.409 . S
C140 C136 1.387 . S
C140 C139 1.409 . S
C140 H142 0.951 . S
C141 C136 1.491 . S
C141 C143 1.382 . S
C141 C145 1.404 . S
H142 C140 0.951 . S
C143 C141 1.382 . S
C143 C144 1.390 . S
C143 H148 0.949 1_545 S
C144 C143 1.390 . S
C144 C149 1.399 . S
C145 C141 1.404 . S
C145 H146 0.950 . S
C145 C147 1.375 . S
H146 C145 0.950 . S
C147 C145 1.375 . S
C147 C149 1.382 . S
C147 H151 0.950 . S
H148 C143 0.949 1_565 S
C149 C144 1.399 . S
C149 C147 1.382 . S
C149 H150 0.952 . S
H150 C149 0.952 . S
H151 C147 0.950 . S
H152 C153 0.949 . S
C153 H152 0.949 . S
C153 C154 1.395 . S
C153 C155 1.391 . S
C154 C153 1.395 . S
C154 C157 1.390 . S
C155 C153 1.391 . S
C155 C159 1.387 . S
C155 C160 1.491 . S
H156 C157 0.950 . S
C157 C154 1.390 . S
C157 H156 0.950 . S
C157 C158 1.378 . S
C158 C157 1.378 . S
C158 C159 1.409 . S
C159 C155 1.387 . S
C159 C158 1.409 . S
C159 H161 0.951 . S
C160 C155 1.491 . S
C160 C162 1.382 . S
C160 C164 1.404 . S
H161 C159 0.951 . S
C162 C160 1.382 . S
C162 C163 1.390 . S
C162 H167 0.922 1_554 S
C163 C162 1.390 . S
C163 C168 1.399 . S
C164 C160 1.404 . S
C164 H165 0.950 . S
C164 C166 1.375 . S
H165 C164 0.950 . S
C166 C164 1.375 . S
C166 C168 1.382 . S
C166 H170 0.950 . S
H167 C162 0.922 1_556 S
C168 C163 1.399 . S
C168 C166 1.382 . S
C168 H169 0.952 . S
H169 C168 0.952 . S
H170 C166 0.950 . S
H171 C172 0.949 . S
C172 H171 0.949 . S
C172 C173 1.395 . S
C172 C174 1.391 . S
C173 C172 1.395 . S
C173 C176 1.390 . S
C174 C172 1.391 . S
C174 C178 1.387 . S
C174 C179 1.491 1_554 S
H175 C176 0.950 . S
C176 C173 1.390 . S
C176 H175 0.950 . S
C176 C177 1.378 . S
C177 C176 1.378 . S
C177 C178 1.409 . S
C178 C174 1.387 . S
C178 C177 1.409 . S
C178 H180 0.951 . S
C179 C174 1.491 1_556 S
C179 C181 1.382 1_556 S
C179 C183 1.404 . S
H180 C178 0.951 . S
C181 C179 1.382 1_554 S
C181 C182 1.398 . S
C181 H186 0.949 . S
C182 C181 1.398 . S
C182 C187 1.375 1_554 S
C183 C179 1.404 . S
C183 H184 0.950 . S
C183 C185 1.375 . S
H184 C183 0.950 . S
C185 C183 1.375 . S
C185 C187 1.382 . S
C185 H189 0.950 . S
H186 C181 0.949 . S
C187 C182 1.375 1_556 S
C187 C185 1.382 . S
C187 H188 0.952 . S
H188 C187 0.952 . S
H189 C185 0.950 . S
H190 C191 0.949 . S
C191 H190 0.949 . S
C191 C192 1.395 . S
C191 C193 1.391 . S
C192 C191 1.395 . S
C192 C195 1.390 . S
C193 C191 1.391 . S
C193 C197 1.387 . S
C193 C198 1.491 . S
H194 C195 0.950 . S
C195 C192 1.390 . S
C195 H194 0.950 . S
C195 C196 1.378 . S
C196 C195 1.378 . S
C196 C197 1.409 . S
C197 C193 1.387 . S
C197 C196 1.409 . S
C197 H199 0.951 . S
C198 C193 1.491 . S
C198 C200 1.382 . S
C198 C202 1.404 . S
H199 C197 0.951 . S
C200 C198 1.382 . S
C200 C201 1.390 . S
C200 H205 0.945 1_554 S
C201 C200 1.390 . S
C201 C206 1.399 . S
C202 C198 1.404 . S
C202 H203 0.950 . S
C202 C204 1.375 . S
H203 C202 0.950 . S
C204 C202 1.375 . S
C204 C206 1.382 . S
C204 H208 0.950 . S
H205 C200 0.945 1_556 S
C206 C201 1.399 . S
C206 C204 1.382 . S
C206 H207 0.952 . S
H207 C206 0.952 . S
H208 C204 0.950 . S
H209 C210 0.949 . S
C210 H209 0.949 . S
C210 C211 1.395 . S
C210 C212 1.397 . S
C211 C210 1.395 . S
C211 C214 1.390 . S
C212 C210 1.397 . S
C212 C216 1.391 . S
C212 C217 1.483 1_554 S
H213 C214 0.950 . S
C214 C211 1.390 . S
C214 H213 0.950 . S
C214 C215 1.378 . S
C215 C214 1.378 . S
C215 C216 1.409 . S
C216 C212 1.391 . S
C216 C215 1.409 . S
C216 H218 0.951 . S
C217 C212 1.483 1_556 S
C217 C219 1.382 1_556 S
C217 C221 1.404 . S
H218 C216 0.951 . S
C219 C217 1.382 1_554 S
C219 C220 1.390 . S
C219 H224 0.949 . S
C220 C219 1.390 . S
C220 C225 1.399 1_554 S
C221 C217 1.404 . S
C221 H222 0.950 . S
C221 C223 1.375 . S
H222 C221 0.950 . S
C223 C221 1.375 . S
C223 C225 1.382 . S
C223 H227 0.950 . S
H224 C219 0.949 . S
C225 C220 1.399 1_556 S
C225 C223 1.382 . S
C225 H226 0.952 . S
H226 C225 0.952 . S
H227 C223 0.950 . S
H228 C229 0.949 . S
C229 H228 0.949 . S
C229 C230 1.395 . S
C229 C231 1.391 . S
C230 C229 1.395 . S
C230 C233 1.390 . S
C231 C229 1.391 . S
C231 C235 1.387 . S
C231 C236 1.491 . S
H232 C233 0.950 . S
C233 C230 1.390 . S
C233 H232 0.950 . S
C233 C234 1.378 . S
C234 C233 1.378 . S
C234 C235 1.409 . S
C235 C231 1.387 . S
C235 C234 1.409 . S
C235 H237 0.951 . S
C236 C231 1.491 . S
C236 C238 1.382 . S
C236 C240 1.404 . S
H237 C235 0.951 . S
C238 C236 1.382 . S
C238 C239 1.390 . S
C238 H243 0.949 . S
C239 C238 1.390 . S
C239 C244 1.399 . S
C240 C236 1.404 . S
C240 H241 0.950 . S
C240 C242 1.375 . S
H241 C240 0.950 . S
C242 C240 1.375 . S
C242 C244 1.382 . S
C242 H246 0.950 . S
H243 C238 0.949 . S
C244 C239 1.399 . S
C244 C242 1.382 . S
C244 H245 0.952 . S
H245 C244 0.952 . S
H246 C242 0.950 . S
H247 C248 0.949 . S
C248 H247 0.949 . S
C248 C249 1.395 . S
C248 C250 1.391 . S
C249 C248 1.395 . S
C249 C252 1.390 . S
C250 C248 1.391 . S
C250 C254 1.387 . S
C250 C255 1.491 . S
H251 C252 0.950 . S
C252 C249 1.390 . S
C252 H251 0.950 . S
C252 C253 1.378 . S
C253 C252 1.378 . S
C253 C254 1.409 . S
C254 C250 1.387 . S
C254 C253 1.409 . S
C254 H256 0.951 . S
C255 C250 1.491 . S
C255 C257 1.382 . S
C255 C259 1.404 . S
H256 C254 0.951 . S
C257 C255 1.382 . S
C257 C258 1.390 . S
C257 H262 0.949 . S
C258 C257 1.390 . S
C258 C263 1.399 . S
C259 C255 1.404 . S
C259 H260 0.950 . S
C259 C261 1.375 . S
H260 C259 0.950 . S
C261 C259 1.375 . S
C261 C263 1.382 . S
C261 H265 0.950 . S
H262 C257 0.949 . S
C263 C258 1.399 . S
C263 C261 1.382 . S
C263 H264 0.952 . S
H264 C263 0.952 . S
H265 C261 0.950 . S
H266 C267 0.949 . S
C267 H266 0.949 . S
C267 C268 1.395 . S
C267 C269 1.391 . S
C268 C267 1.395 . S
C268 C271 1.390 . S
C269 C267 1.391 . S
C269 C273 1.387 . S
C269 C274 1.491 . S
H270 C271 0.950 . S
C271 C268 1.390 . S
C271 H270 0.950 . S
C271 C272 1.378 . S
C272 C271 1.378 . S
C272 C273 1.409 . S
C273 C269 1.387 . S
C273 C272 1.409 . S
C273 H275 0.951 . S
C274 C269 1.491 . S
C274 C276 1.382 . S
C274 C278 1.404 . S
H275 C273 0.951 . S
C276 C274 1.382 . S
C276 C277 1.390 . S
C276 H281 0.949 . S
C277 C276 1.390 . S
C277 C282 1.399 . S
C278 C274 1.404 . S
C278 H279 0.950 . S
C278 C280 1.375 . S
H279 C278 0.950 . S
C280 C278 1.375 . S
C280 C282 1.382 . S
C280 H284 0.950 . S
H281 C276 0.949 . S
C282 C277 1.399 . S
C282 C280 1.382 . S
C282 H283 0.952 . S
H283 C282 0.952 . S
H284 C280 0.950 . S
H285 C286 0.949 . S
C286 H285 0.949 . S
C286 C287 1.395 . S
C286 C288 1.391 . S
C287 C286 1.395 . S
C287 C290 1.390 . S
C288 C286 1.391 . S
C288 C292 1.387 . S
C288 C293 1.491 . S
H289 C290 0.950 . S
C290 C287 1.390 . S
C290 H289 0.950 . S
C290 C291 1.378 . S
C291 C290 1.378 . S
C291 C292 1.409 . S
C292 C288 1.387 . S
C292 C291 1.409 . S
C292 H294 0.951 . S
C293 C288 1.491 . S
C293 C295 1.382 . S
C293 C297 1.404 . S
H294 C292 0.951 . S
C295 C293 1.382 . S
C295 C296 1.390 . S
C295 H300 0.949 . S
C296 C295 1.390 . S
C296 C301 1.399 . S
C297 C293 1.404 . S
C297 H298 0.950 . S
C297 C299 1.375 . S
H298 C297 0.950 . S
C299 C297 1.375 . S
C299 C301 1.382 . S
C299 H303 0.950 . S
H300 C295 0.949 . S
C301 C296 1.399 . S
C301 C299 1.382 . S
C301 H302 0.952 . S
H302 C301 0.952 . S
H303 C299 0.950 . S
H304 C305 0.949 . S
C305 H304 0.949 . S
C305 C306 1.395 . S
C305 C307 1.391 . S
C306 C305 1.395 . S
C306 C309 1.390 . S
C307 C305 1.391 . S
C307 C311 1.387 . S
C307 C312 1.491 . S
H308 C309 0.950 . S
C309 C306 1.390 . S
C309 H308 0.950 . S
C309 C310 1.378 . S
C310 C309 1.378 . S
C310 C311 1.409 . S
C311 C307 1.387 . S
C311 C310 1.409 . S
C311 H313 0.951 . S
C312 C307 1.491 . S
C312 C314 1.382 . S
C312 C316 1.404 . S
H313 C311 0.951 . S
C314 C312 1.382 . S
C314 C315 1.390 . S
C314 H319 0.949 . S
C315 C314 1.390 . S
C315 C320 1.399 . S
C316 C312 1.404 . S
C316 H317 0.950 . S
C316 C318 1.375 . S
H317 C316 0.950 . S
C318 C316 1.375 . S
C318 C320 1.382 . S
C318 H322 0.950 . S
H319 C314 0.949 . S
C320 C315 1.399 . S
C320 C318 1.382 . S
C320 H321 0.952 . S
H321 C320 0.952 . S
H322 C318 0.950 . S
H323 C324 0.949 . S
C324 H323 0.949 . S
C324 C325 1.395 . S
C324 C326 1.391 . S
C325 C324 1.395 . S
C325 C328 1.390 . S
C326 C324 1.391 . S
C326 C330 1.387 . S
C326 C331 1.491 . S
H327 C328 0.950 . S
C328 C325 1.390 . S
C328 H327 0.950 . S
C328 C329 1.378 . S
C329 C328 1.378 . S
C329 C330 1.409 . S
C330 C326 1.387 . S
C330 C329 1.409 . S
C330 H332 0.951 . S
C331 C326 1.491 . S
C331 C333 1.382 . S
C331 C335 1.404 . S
H332 C330 0.951 . S
C333 C331 1.382 . S
C333 C334 1.390 . S
C333 H338 0.949 . S
C334 C333 1.390 . S
C334 C339 1.399 . S
C335 C331 1.404 . S
C335 H336 0.950 . S
C335 C337 1.375 . S
H336 C335 0.950 . S
C337 C335 1.375 . S
C337 C339 1.382 . S
C337 H341 0.950 . S
H338 C333 0.949 . S
C339 C334 1.399 . S
C339 C337 1.382 . S
C339 H340 0.952 . S
H340 C339 0.952 . S
H341 C337 0.950 . S
H342 C343 0.949 . S
C343 H342 0.949 . S
C343 C344 1.395 . S
C343 C345 1.391 . S
C344 C343 1.395 . S
C344 C347 1.390 . S
C345 C343 1.391 . S
C345 C349 1.387 . S
C345 C350 1.491 . S
H346 C347 0.950 . S
C347 C344 1.390 . S
C347 H346 0.950 . S
C347 C348 1.378 . S
C348 C347 1.378 . S
C348 C349 1.409 . S
C349 C345 1.387 . S
C349 C348 1.409 . S
C349 H351 0.951 . S
C350 C345 1.491 . S
C350 C352 1.382 . S
C350 C354 1.404 . S
H351 C349 0.951 . S
C352 C350 1.382 . S
C352 C353 1.390 . S
C352 H357 0.949 . S
C353 C352 1.390 . S
C353 C358 1.399 . S
C354 C350 1.404 . S
C354 H355 0.950 . S
C354 C356 1.375 . S
H355 C354 0.950 . S
C356 C354 1.375 . S
C356 C358 1.382 . S
C356 H360 0.950 . S
H357 C352 0.949 . S
C358 C353 1.399 . S
C358 C356 1.382 . S
C358 H359 0.952 . S
H359 C358 0.952 . S
H360 C356 0.950 . S
H361 C362 0.949 . S
C362 H361 0.949 . S
C362 C363 1.395 . S
C362 C364 1.391 . S
C363 C362 1.395 . S
C363 C366 1.390 . S
C364 C362 1.391 . S
C364 C368 1.387 . S
C364 C369 1.491 . S
H365 C366 0.950 . S
C366 C363 1.390 . S
C366 H365 0.950 . S
C366 C367 1.378 . S
C367 C366 1.378 . S
C367 C368 1.409 . S
C368 C364 1.387 . S
C368 C367 1.409 . S
C368 H370 0.951 . S
C369 C364 1.491 . S
C369 C371 1.382 . S
C369 C373 1.404 . S
H370 C368 0.951 . S
C371 C369 1.382 . S
C371 C372 1.390 . S
C371 H376 0.949 . S
C372 C371 1.390 . S
C372 C377 1.399 . S
C373 C369 1.404 . S
C373 H374 0.950 . S
C373 C375 1.375 . S
H374 C373 0.950 . S
C375 C373 1.375 . S
C375 C377 1.382 . S
C375 H379 0.950 . S
H376 C371 0.949 . S
C377 C372 1.399 . S
C377 C375 1.382 . S
C377 H378 0.952 . S
H378 C377 0.952 . S
H379 C375 0.950 . S
H380 C381 0.949 . S
C381 H380 0.949 . S
C381 C382 1.395 . S
C381 C383 1.391 . S
C382 C381 1.395 . S
C382 C385 1.390 . S
C383 C381 1.391 . S
C383 C387 1.387 . S
C383 C388 1.491 . S
H384 C385 0.950 . S
C385 C382 1.390 . S
C385 H384 0.950 . S
C385 C386 1.378 . S
C386 C385 1.378 . S
C386 C387 1.409 . S
C387 C383 1.387 . S
C387 C386 1.409 . S
C387 H389 0.951 . S
C388 C383 1.491 . S
C388 C390 1.382 . S
C388 C392 1.404 . S
H389 C387 0.951 . S
C390 C388 1.382 . S
C390 C391 1.390 . S
C390 H395 0.949 . S
C391 C390 1.390 . S
C391 C396 1.399 . S
C392 C388 1.404 . S
C392 H393 0.950 . S
C392 C394 1.375 . S
H393 C392 0.950 . S
C394 C392 1.375 . S
C394 C396 1.382 . S
C394 H398 0.950 . S
H395 C390 0.949 . S
C396 C391 1.399 . S
C396 C394 1.382 . S
C396 H397 0.952 . S
H397 C396 0.952 . S
H398 C394 0.950 . S
H399 C400 0.949 . S
C400 H399 0.949 . S
C400 C401 1.395 . S
C400 C402 1.391 . S
C401 C400 1.395 . S
C401 C404 1.390 . S
C402 C400 1.391 . S
C402 C406 1.387 . S
C402 C407 1.491 . S
H403 C404 0.950 . S
C404 C401 1.390 . S
C404 H403 0.950 . S
C404 C405 1.378 . S
C405 C404 1.378 . S
C405 C406 1.409 . S
C406 C402 1.387 . S
C406 C405 1.409 . S
C406 H408 0.951 . S
C407 C402 1.491 . S
C407 C409 1.382 . S
C407 C411 1.404 . S
H408 C406 0.951 . S
C409 C407 1.382 . S
C409 C410 1.390 . S
C409 H414 0.949 . S
C410 C409 1.390 . S
C410 C415 1.399 . S
C411 C407 1.404 . S
C411 H412 0.950 . S
C411 C413 1.375 . S
H412 C411 0.950 . S
C413 C411 1.375 . S
C413 C415 1.382 . S
C413 H417 0.950 . S
H414 C409 0.949 . S
C415 C410 1.399 . S
C415 C413 1.382 . S
C415 H416 0.952 . S
H416 C415 0.952 . S
H417 C413 0.950 . S
H418 C419 0.949 . S
C419 H418 0.949 . S
C419 C420 1.395 . S
C419 C421 1.391 . S
C420 C419 1.395 . S
C420 C423 1.390 . S
C421 C419 1.391 . S
C421 C425 1.387 . S
C421 C426 1.491 . S
H422 C423 0.950 . S
C423 C420 1.390 . S
C423 H422 0.950 . S
C423 C424 1.378 . S
C424 C423 1.378 . S
C424 C425 1.409 . S
C425 C421 1.387 . S
C425 C424 1.409 . S
C425 H427 0.951 . S
C426 C421 1.491 . S
C426 C428 1.382 . S
C426 C430 1.404 . S
H427 C425 0.951 . S
C428 C426 1.382 . S
C428 C429 1.390 . S
C428 H433 0.949 . S
C429 C428 1.390 . S
C429 C434 1.399 . S
C430 C426 1.404 . S
C430 H431 0.950 . S
C430 C432 1.375 . S
H431 C430 0.950 . S
C432 C430 1.375 . S
C432 C434 1.382 . S
C432 H436 0.950 . S
H433 C428 0.949 . S
C434 C429 1.399 . S
C434 C432 1.382 . S
C434 H435 0.952 . S
H435 C434 0.952 . S
H436 C432 0.950 . S
H437 C438 0.949 . S
C438 H437 0.949 . S
C438 C439 1.395 . S
C438 C440 1.391 . S
C439 C438 1.395 . S
C439 C442 1.390 . S
C440 C438 1.391 . S
C440 C444 1.387 . S
C440 C445 1.491 . S
H441 C442 0.950 . S
C442 C439 1.390 . S
C442 H441 0.950 . S
C442 C443 1.378 . S
C443 C442 1.378 . S
C443 C444 1.409 . S
C444 C440 1.387 . S
C444 C443 1.409 . S
C444 H446 0.951 . S
C445 C440 1.491 . S
C445 C447 1.382 . S
C445 C449 1.404 . S
H446 C444 0.951 . S
C447 C445 1.382 . S
C447 C448 1.390 . S
C447 H452 0.949 . S
C448 C447 1.390 . S
C448 C453 1.399 . S
C449 C445 1.404 . S
C449 H450 0.950 . S
C449 C451 1.375 . S
H450 C449 0.950 . S
C451 C449 1.375 . S
C451 C453 1.382 . S
C451 H455 0.950 . S
H452 C447 0.949 . S
C453 C448 1.399 . S
C453 C451 1.382 . S
C453 H454 0.952 . S
H454 C453 0.952 . S
H455 C451 0.950 . S
C456 O482 1.283 . S
C456 O500 1.283 . S
C457 O483 1.283 . S
C457 O498 1.283 . S
C458 O484 1.283 . S
C458 O501 1.283 . S
C459 O485 1.283 . S
C459 O499 1.283 . S
C460 O486 1.283 . S
C460 O495 1.283 . S
C461 O487 1.283 . S
C461 O497 1.283 . S
C462 O488 1.283 . S
C462 O494 1.283 . S
C463 O489 1.283 . S
C463 O496 1.283 . S
C464 O490 1.283 . S
C464 O505 1.283 . S
C465 O491 1.283 . S
C465 O503 1.283 . S
C466 O492 1.283 . S
C466 O504 1.283 . S
C467 O493 1.283 . S
C467 O502 1.283 . S
Eu468 O469 2.365 1_455 S
Eu468 O470 2.370 . S
Eu468 O473 2.365 1_455 S
Eu468 O474 2.370 . S
Eu468 O482 2.363 . S
Eu468 O483 2.363 . S
Eu468 O496 2.363 . S
Eu468 O497 2.363 1_455 S
O469 Eu468 2.365 1_655 S
O469 Eu471 2.353 1_565 S
O469 Eu476 2.343 1_665 S
O470 Eu468 2.370 . S
O470 Eu472 2.346 1_565 S
O470 Eu475 2.343 1_565 S
Eu471 O469 2.353 1_545 S
Eu471 O473 2.352 1_545 S
Eu471 O477 2.400 . S
Eu471 O478 2.401 . S
Eu471 O486 2.404 . S
Eu471 O487 2.322 1_545 S
Eu471 O502 2.363 . S
Eu471 O503 2.363 . S
Eu472 O470 2.346 1_545 S
Eu472 O474 2.346 1_545 S
Eu472 O479 2.395 . S
Eu472 O480 2.395 . S
Eu472 O488 2.404 . S
Eu472 O489 2.322 1_545 S
Eu472 O504 2.363 . S
Eu472 O505 2.363 . S
O473 Eu468 2.365 1_655 S
O473 Eu471 2.352 1_565 S
O473 Eu475 2.339 1_665 S
O474 Eu468 2.370 . S
O474 Eu472 2.346 1_565 S
O474 Eu476 2.349 1_565 S
Eu475 O470 2.343 1_545 S
Eu475 O473 2.339 1_445 S
Eu475 O477 2.393 1_455 S
Eu475 O480 2.397 . S
Eu475 O492 2.363 . S
Eu475 O493 2.363 1_455 S
Eu475 O500 2.317 1_545 S
Eu475 O501 2.409 . S
Eu476 O469 2.343 1_445 S
Eu476 O474 2.349 1_545 S
Eu476 O478 2.387 1_455 S
Eu476 O479 2.392 . S
Eu476 O490 2.363 . S
Eu476 O491 2.363 1_455 S
Eu476 O498 2.327 1_545 S
Eu476 O499 2.399 . S
O477 Eu471 2.400 . S
O477 Eu475 2.393 1_655 S
O477 Eu481 2.365 1_655 S
O478 Eu471 2.401 . S
O478 Eu476 2.387 1_655 S
O478 Eu481 2.365 1_655 S
O479 Eu472 2.395 . S
O479 Eu476 2.392 . S
O479 Eu481 2.370 . S
O480 Eu472 2.395 . S
O480 Eu475 2.397 . S
O480 Eu481 2.370 . S
Eu481 O477 2.365 1_455 S
Eu481 O478 2.365 1_455 S
Eu481 O479 2.370 . S
Eu481 O480 2.370 . S
Eu481 O484 2.363 . S
Eu481 O485 2.363 . S
Eu481 O494 2.363 . S
Eu481 O495 2.363 1_455 S
O482 C456 1.283 . S
O482 Eu468 2.363 . S
O483 C457 1.283 . S
O483 Eu468 2.363 . S
O484 C458 1.283 . S
O484 Eu481 2.363 . S
O485 C459 1.283 . S
O485 Eu481 2.363 . S
O486 C460 1.283 . S
O486 Eu471 2.404 . S
O487 C461 1.283 . S
O487 Eu471 2.322 1_565 S
O488 C462 1.283 . S
O488 Eu472 2.404 . S
O489 C463 1.283 . S
O489 Eu472 2.322 1_565 S
O490 C464 1.283 . S
O490 Eu476 2.363 . S
O491 C465 1.283 . S
O491 Eu476 2.363 1_655 S
O492 C466 1.283 . S
O492 Eu475 2.363 . S
O493 C467 1.283 . S
O493 Eu475 2.363 1_655 S
O494 C462 1.283 . S
O494 Eu481 2.363 . S
O495 C460 1.283 . S
O495 Eu481 2.363 1_655 S
O496 C463 1.283 . S
O496 Eu468 2.363 . S
O497 C461 1.283 . S
O497 Eu468 2.363 1_655 S
O498 C457 1.283 . S
O498 Eu476 2.327 1_565 S
O499 C459 1.283 . S
O499 Eu476 2.399 . S
O500 C456 1.283 . S
O500 Eu475 2.317 1_565 S
O501 C458 1.283 . S
O501 Eu475 2.409 . S
O502 C467 1.283 . S
O502 Eu471 2.363 . S
O503 C465 1.283 . S
O503 Eu471 2.363 . S
O504 C466 1.283 . S
O504 Eu472 2.363 . S
O505 C464 1.283 . S
O505 Eu472 2.363 . S
C506 O532 1.283 . S
C506 O550 1.283 . S
C507 O533 1.283 . S
C507 O548 1.283 . S
C508 O534 1.283 . S
C508 O551 1.283 . S
C509 O535 1.283 . S
C509 O549 1.283 . S
C510 O536 1.283 . S
C510 O545 1.283 . S
C511 O537 1.283 . S
C511 O547 1.283 . S
C512 O538 1.283 . S
C512 O544 1.283 . S
C513 O539 1.283 . S
C513 O546 1.283 . S
C514 O540 1.283 . S
C514 O555 1.283 . S
C515 O541 1.283 . S
C515 O553 1.283 . S
C516 O542 1.283 . S
C516 O554 1.283 . S
C517 O543 1.283 . S
C517 O552 1.283 . S
Eu518 O519 2.386 . S
Eu518 O520 2.354 1_545 S
Eu518 O523 2.354 1_545 S
Eu518 O524 2.386 . S
Eu518 O532 2.336 1_545 S
Eu518 O533 2.390 . S
Eu518 O546 2.363 . S
Eu518 O547 2.363 . S
O519 Eu518 2.386 . S
O519 Eu521 2.394 . S
O519 Eu526 2.370 . S
O520 Eu518 2.354 1_565 S
O520 Eu522 2.346 1_565 S
O520 Eu525 2.370 . S
Eu521 O519 2.394 . S
Eu521 O523 2.346 1_545 S
Eu521 O527 2.346 1_544 S
Eu521 O528 2.395 1_554 S
Eu521 O536 2.364 1_554 S
Eu521 O537 2.363 . S
Eu521 O552 2.322 1_545 S
Eu521 O553 2.404 . S
Eu522 O520 2.346 1_545 S
Eu522 O524 2.394 . S
Eu522 O529 2.395 1_554 S
Eu522 O530 2.346 1_544 S
Eu522 O538 2.364 1_554 S
Eu522 O539 2.363 . S
Eu522 O554 2.322 1_545 S
Eu522 O555 2.404 . S
O523 Eu518 2.354 1_565 S
O523 Eu521 2.346 1_565 S
O523 Eu525 2.370 . S
O524 Eu518 2.386 . S
O524 Eu522 2.394 . S
O524 Eu526 2.370 . S
Eu525 O520 2.370 . S
Eu525 O523 2.370 . S
Eu525 O527 2.370 1_554 S
Eu525 O530 2.370 1_554 S
Eu525 O542 2.363 . S
Eu525 O543 2.363 . S
Eu525 O550 2.363 . S
Eu525 O551 2.363 1_554 S
Eu526 O519 2.370 . S
Eu526 O524 2.370 . S
Eu526 O528 2.370 1_554 S
Eu526 O529 2.370 1_554 S
Eu526 O540 2.363 . S
Eu526 O541 2.363 . S
Eu526 O548 2.363 . S
Eu526 O549 2.363 1_554 S
O527 Eu521 2.346 1_566 S
O527 Eu525 2.370 1_556 S
O527 Eu531 2.370 1_565 S
O528 Eu521 2.395 1_556 S
O528 Eu526 2.370 1_556 S
O528 Eu531 2.370 . S
O529 Eu522 2.395 1_556 S
O529 Eu526 2.370 1_556 S
O529 Eu531 2.370 . S
O530 Eu522 2.346 1_566 S
O530 Eu525 2.370 1_556 S
O530 Eu531 2.370 1_565 S
Eu531 O527 2.370 1_545 S
Eu531 O528 2.370 . S
Eu531 O529 2.370 . S
Eu531 O530 2.370 1_545 S
Eu531 O534 2.363 1_545 S
Eu531 O535 2.363 . S
Eu531 O544 2.363 . S
Eu531 O545 2.363 . S
O532 C506 1.283 . S
O532 Eu518 2.336 1_565 S
O533 C507 1.283 . S
O533 Eu518 2.390 . S
O534 C508 1.283 . S
O534 Eu531 2.363 1_565 S
O535 C509 1.283 . S
O535 Eu531 2.363 . S
O536 C510 1.283 . S
O536 Eu521 2.364 1_556 S
O537 C511 1.283 . S
O537 Eu521 2.363 . S
O538 C512 1.283 . S
O538 Eu522 2.364 1_556 S
O539 C513 1.283 . S
O539 Eu522 2.363 . S
O540 C514 1.283 . S
O540 Eu526 2.363 . S
O541 C515 1.283 . S
O541 Eu526 2.363 . S
O542 C516 1.283 . S
O542 Eu525 2.363 . S
O543 C517 1.283 . S
O543 Eu525 2.363 . S
O544 C512 1.283 . S
O544 Eu531 2.363 . S
O545 C510 1.283 . S
O545 Eu531 2.363 . S
O546 C513 1.283 . S
O546 Eu518 2.363 . S
O547 C511 1.283 . S
O547 Eu518 2.363 . S
O548 C507 1.283 . S
O548 Eu526 2.363 . S
O549 C509 1.283 . S
O549 Eu526 2.363 1_556 S
O550 C506 1.283 . S
O550 Eu525 2.363 . S
O551 C508 1.283 . S
O551 Eu525 2.363 1_556 S
O552 C517 1.283 . S
O552 Eu521 2.322 1_565 S
O553 C515 1.283 . S
O553 Eu521 2.404 . S
O554 C516 1.283 . S
O554 Eu522 2.322 1_565 S
O555 C514 1.283 . S
O555 Eu522 2.404 . S
C556 O582 1.283 . S
C556 O600 1.283 . S
C557 O583 1.283 . S
C557 O598 1.283 . S
C558 O584 1.283 . S
C558 O601 1.283 . S
C559 O585 1.283 . S
C559 O599 1.283 . S
C560 O586 1.283 . S
C560 O595 1.283 . S
C561 O587 1.283 . S
C561 O597 1.283 . S
C562 O588 1.283 . S
C562 O594 1.283 . S
C563 O589 1.283 . S
C563 O596 1.283 . S
C564 O590 1.283 . S
C564 O605 1.283 . S
C565 O591 1.283 . S
C565 O603 1.283 . S
C566 O592 1.283 . S
C566 O604 1.283 . S
C567 O593 1.283 . S
C567 O602 1.283 . S
Eu568 O569 2.370 1_454 S
Eu568 O570 2.370 . S
Eu568 O573 2.370 1_455 S
Eu568 O574 2.370 1_554 S
Eu568 O582 2.363 . S
Eu568 O583 2.363 1_554 S
Eu568 O596 2.363 . S
Eu568 O597 2.363 1_455 S
O569 Eu568 2.370 1_656 S
O569 Eu571 2.370 1_556 S
O569 Eu576 2.370 1_655 S
O570 Eu568 2.370 . S
O570 Eu572 2.370 . S
O570 Eu575 2.370 . S
Eu571 O569 2.370 1_554 S
Eu571 O573 2.370 . S
Eu571 O577 2.370 . S
Eu571 O578 2.370 1_554 S
Eu571 O586 2.363 . S
Eu571 O587 2.363 . S
Eu571 O602 2.363 . S
Eu571 O603 2.363 1_554 S
Eu572 O570 2.370 . S
Eu572 O574 2.370 1_554 S
Eu572 O579 2.370 1_554 S
Eu572 O580 2.370 . S
Eu572 O588 2.363 . S
Eu572 O589 2.363 . S
Eu572 O604 2.363 . S
Eu572 O605 2.363 1_554 S
O573 Eu568 2.370 1_655 S
O573 Eu571 2.370 . S
O573 Eu575 2.370 1_655 S
O574 Eu568 2.370 1_556 S
O574 Eu572 2.370 1_556 S
O574 Eu576 2.370 . S
Eu575 O570 2.370 . S
Eu575 O573 2.370 1_455 S
Eu575 O577 2.370 1_455 S
Eu575 O580 2.370 . S
Eu575 O592 2.363 . S
Eu575 O593 2.363 1_455 S
Eu575 O600 2.363 . S
Eu575 O601 2.363 . S
Eu576 O569 2.370 1_455 S
Eu576 O574 2.370 . S
Eu576 O578 2.370 1_455 S
Eu576 O579 2.370 . S
Eu576 O590 2.363 . S
Eu576 O591 2.363 1_455 S
Eu576 O598 2.363 . S
Eu576 O599 2.363 . S
O577 Eu571 2.370 . S
O577 Eu575 2.370 1_655 S
O577 Eu581 2.370 1_655 S
O578 Eu571 2.370 1_556 S
O578 Eu576 2.370 1_655 S
O578 Eu581 2.370 1_656 S
O579 Eu572 2.370 1_556 S
O579 Eu576 2.370 . S
O579 Eu581 2.370 1_556 S
O580 Eu572 2.370 . S
O580 Eu575 2.370 . S
O580 Eu581 2.370 . S
Eu581 O577 2.370 1_455 S
Eu581 O578 2.370 1_454 S
Eu581 O579 2.370 1_554 S
Eu581 O580 2.370 . S
Eu581 O584 2.363 . S
Eu581 O585 2.363 1_554 S
Eu581 O594 2.363 . S
Eu581 O595 2.363 1_455 S
O582 C556 1.283 . S
O582 Eu568 2.363 . S
O583 C557 1.283 . S
O583 Eu568 2.363 1_556 S
O584 C558 1.283 . S
O584 Eu581 2.363 . S
O585 C559 1.283 . S
O585 Eu581 2.363 1_556 S
O586 C560 1.283 . S
O586 Eu571 2.363 . S
O587 C561 1.283 . S
O587 Eu571 2.363 . S
O588 C562 1.283 . S
O588 Eu572 2.363 . S
O589 C563 1.283 . S
O589 Eu572 2.363 . S
O590 C564 1.283 . S
O590 Eu576 2.363 . S
O591 C565 1.283 . S
O591 Eu576 2.363 1_655 S
O592 C566 1.283 . S
O592 Eu575 2.363 . S
O593 C567 1.283 . S
O593 Eu575 2.363 1_655 S
O594 C562 1.283 . S
O594 Eu581 2.363 . S
O595 C560 1.283 . S
O595 Eu581 2.363 1_655 S
O596 C563 1.283 . S
O596 Eu568 2.363 . S
O597 C561 1.283 . S
O597 Eu568 2.363 1_655 S
O598 C557 1.283 . S
O598 Eu576 2.363 . S
O599 C559 1.283 . S
O599 Eu576 2.363 . S
O600 C556 1.283 . S
O600 Eu575 2.363 . S
O601 C558 1.283 . S
O601 Eu575 2.363 . S
O602 C567 1.283 . S
O602 Eu571 2.363 . S
O603 C565 1.283 . S
O603 Eu571 2.363 1_556 S
O604 C566 1.283 . S
O604 Eu572 2.363 . S
O605 C564 1.283 . S
O605 Eu572 2.363 1_556 S
C606 O632 1.283 . S
C606 O650 1.283 . S
C607 O633 1.283 . S
C607 O648 1.283 . S
C608 O634 1.283 . S
C608 O651 1.283 . S
C609 O635 1.283 . S
C609 O649 1.283 . S
C610 O636 1.283 . S
C610 O645 1.283 . S
C611 O637 1.283 . S
C611 O647 1.283 . S
C612 O638 1.283 . S
C612 O644 1.283 . S
C613 O639 1.283 . S
C613 O646 1.283 . S
C614 O640 1.283 . S
C614 O655 1.283 . S
C615 O641 1.283 . S
C615 O653 1.283 . S
C616 O642 1.283 . S
C616 O654 1.283 . S
C617 O643 1.283 . S
C617 O652 1.283 . S
Eu618 O619 2.370 . S
Eu618 O620 2.370 . S
Eu618 O623 2.370 . S
Eu618 O624 2.370 . S
Eu618 O632 2.363 . S
Eu618 O633 2.363 . S
Eu618 O646 2.363 . S
Eu618 O647 2.363 . S
O619 Eu618 2.370 . S
O619 Eu621 2.370 . S
O619 Eu626 2.370 . S
O620 Eu618 2.370 . S
O620 Eu622 2.370 . S
O620 Eu625 2.370 . S
Eu621 O619 2.370 . S
Eu621 O623 2.370 . S
Eu621 O627 2.370 1_554 S
Eu621 O628 2.370 1_554 S
Eu621 O636 2.363 1_554 S
Eu621 O637 2.363 . S
Eu621 O652 2.363 . S
Eu621 O653 2.363 . S
Eu622 O620 2.370 . S
Eu622 O624 2.370 . S
Eu622 O629 2.370 1_554 S
Eu622 O630 2.370 1_554 S
Eu622 O638 2.363 1_554 S
Eu622 O639 2.363 . S
Eu622 O654 2.363 . S
Eu622 O655 2.363 . S
O623 Eu618 2.370 . S
O623 Eu621 2.370 . S
O623 Eu625 2.370 . S
O624 Eu618 2.370 . S
O624 Eu622 2.370 . S
O624 Eu626 2.370 . S
Eu625 O620 2.370 . S
Eu625 O623 2.370 . S
Eu625 O627 2.370 1_554 S
Eu625 O630 2.370 1_554 S
Eu625 O642 2.363 . S
Eu625 O643 2.363 . S
Eu625 O650 2.363 . S
Eu625 O651 2.363 1_554 S
Eu626 O619 2.370 . S
Eu626 O624 2.370 . S
Eu626 O628 2.370 1_554 S
Eu626 O629 2.370 1_554 S
Eu626 O640 2.363 . S
Eu626 O641 2.363 . S
Eu626 O648 2.363 . S
Eu626 O649 2.363 1_554 S
O627 Eu621 2.370 1_556 S
O627 Eu625 2.370 1_556 S
O627 Eu631 2.370 . S
O628 Eu621 2.370 1_556 S
O628 Eu626 2.370 1_556 S
O628 Eu631 2.370 . S
O629 Eu622 2.370 1_556 S
O629 Eu626 2.370 1_556 S
O629 Eu631 2.370 . S
O630 Eu622 2.370 1_556 S
O630 Eu625 2.370 1_556 S
O630 Eu631 2.370 . S
Eu631 O627 2.370 . S
Eu631 O628 2.370 . S
Eu631 O629 2.370 . S
Eu631 O630 2.370 . S
Eu631 O634 2.363 . S
Eu631 O635 2.363 . S
Eu631 O644 2.363 . S
Eu631 O645 2.363 . S
O632 C606 1.283 . S
O632 Eu618 2.363 . S
O633 C607 1.283 . S
O633 Eu618 2.363 . S
O634 C608 1.283 . S
O634 Eu631 2.363 . S
O635 C609 1.283 . S
O635 Eu631 2.363 . S
O636 C610 1.283 . S
O636 Eu621 2.363 1_556 S
O637 C611 1.283 . S
O637 Eu621 2.363 . S
O638 C612 1.283 . S
O638 Eu622 2.363 1_556 S
O639 C613 1.283 . S
O639 Eu622 2.363 . S
O640 C614 1.283 . S
O640 Eu626 2.363 . S
O641 C615 1.283 . S
O641 Eu626 2.363 . S
O642 C616 1.283 . S
O642 Eu625 2.363 . S
O643 C617 1.283 . S
O643 Eu625 2.363 . S
O644 C612 1.283 . S
O644 Eu631 2.363 . S
O645 C610 1.283 . S
O645 Eu631 2.363 . S
O646 C613 1.283 . S
O646 Eu618 2.363 . S
O647 C611 1.283 . S
O647 Eu618 2.363 . S
O648 C607 1.283 . S
O648 Eu626 2.363 . S
O649 C609 1.283 . S
O649 Eu626 2.363 1_556 S
O650 C606 1.283 . S
O650 Eu625 2.363 . S
O651 C608 1.283 . S
O651 Eu625 2.363 1_556 S
O652 C617 1.283 . S
O652 Eu621 2.363 . S
O653 C615 1.283 . S
O653 Eu621 2.363 . S
O654 C616 1.283 . S
O654 Eu622 2.363 . S
O655 C614 1.283 . S
O655 Eu622 2.363 . S
C656 O682 1.283 . S
C656 O700 1.283 . S
C657 O683 1.283 . S
C657 O698 1.283 . S
C658 O684 1.283 . S
C658 O701 1.283 . S
C659 O685 1.283 . S
C659 O699 1.283 . S
C660 O686 1.283 . S
C660 O695 1.283 . S
C661 O687 1.283 . S
C661 O697 1.283 . S
C662 O688 1.283 . S
C662 O694 1.283 . S
C663 O689 1.283 . S
C663 O696 1.283 . S
C664 O690 1.283 . S
C664 O705 1.283 . S
C665 O691 1.283 . S
C665 O703 1.283 . S
C666 O692 1.283 . S
C666 O704 1.283 . S
C667 O693 1.283 . S
C667 O702 1.283 . S
Eu668 O669 2.370 1_455 S
Eu668 O670 2.370 . S
Eu668 O673 2.370 1_455 S
Eu668 O674 2.370 . S
Eu668 O682 2.363 . S
Eu668 O683 2.363 . S
Eu668 O696 2.363 . S
Eu668 O697 2.363 1_455 S
O669 Eu668 2.370 1_655 S
O669 Eu671 2.370 . S
O669 Eu676 2.370 1_655 S
O670 Eu668 2.370 . S
O670 Eu672 2.370 . S
O670 Eu675 2.370 . S
Eu671 O669 2.370 . S
Eu671 O673 2.370 . S
Eu671 O677 2.370 . S
Eu671 O678 2.370 . S
Eu671 O686 2.363 . S
Eu671 O687 2.363 . S
Eu671 O702 2.363 . S
Eu671 O703 2.363 . S
Eu672 O670 2.370 . S
Eu672 O674 2.370 . S
Eu672 O679 2.370 . S
Eu672 O680 2.370 . S
Eu672 O688 2.363 . S
Eu672 O689 2.363 . S
Eu672 O704 2.363 . S
Eu672 O705 2.363 . S
O673 Eu668 2.370 1_655 S
O673 Eu671 2.370 . S
O673 Eu675 2.370 1_655 S
O674 Eu668 2.370 . S
O674 Eu672 2.370 . S
O674 Eu676 2.370 . S
Eu675 O670 2.370 . S
Eu675 O673 2.370 1_455 S
Eu675 O677 2.370 1_455 S
Eu675 O680 2.370 . S
Eu675 O692 2.363 . S
Eu675 O693 2.363 1_455 S
Eu675 O700 2.363 . S
Eu675 O701 2.363 . S
Eu676 O669 2.370 1_455 S
Eu676 O674 2.370 . S
Eu676 O678 2.370 1_455 S
Eu676 O679 2.370 . S
Eu676 O690 2.363 . S
Eu676 O691 2.363 1_455 S
Eu676 O698 2.363 . S
Eu676 O699 2.363 . S
O677 Eu671 2.370 . S
O677 Eu675 2.370 1_655 S
O677 Eu681 2.370 1_655 S
O678 Eu671 2.370 . S
O678 Eu676 2.370 1_655 S
O678 Eu681 2.370 1_655 S
O679 Eu672 2.370 . S
O679 Eu676 2.370 . S
O679 Eu681 2.370 . S
O680 Eu672 2.370 . S
O680 Eu675 2.370 . S
O680 Eu681 2.370 . S
Eu681 O677 2.370 1_455 S
Eu681 O678 2.370 1_455 S
Eu681 O679 2.370 . S
Eu681 O680 2.370 . S
Eu681 O684 2.363 . S
Eu681 O685 2.363 . S
Eu681 O694 2.363 . S
Eu681 O695 2.363 1_455 S
O682 C656 1.283 . S
O682 Eu668 2.363 . S
O683 C657 1.283 . S
O683 Eu668 2.363 . S
O684 C658 1.283 . S
O684 Eu681 2.363 . S
O685 C659 1.283 . S
O685 Eu681 2.363 . S
O686 C660 1.283 . S
O686 Eu671 2.363 . S
O687 C661 1.283 . S
O687 Eu671 2.363 . S
O688 C662 1.283 . S
O688 Eu672 2.363 . S
O689 C663 1.283 . S
O689 Eu672 2.363 . S
O690 C664 1.283 . S
O690 Eu676 2.363 . S
O691 C665 1.283 . S
O691 Eu676 2.363 1_655 S
O692 C666 1.283 . S
O692 Eu675 2.363 . S
O693 C667 1.283 . S
O693 Eu675 2.363 1_655 S
O694 C662 1.283 . S
O694 Eu681 2.363 . S
O695 C660 1.283 . S
O695 Eu681 2.363 1_655 S
O696 C663 1.283 . S
O696 Eu668 2.363 . S
O697 C661 1.283 . S
O697 Eu668 2.363 1_655 S
O698 C657 1.283 . S
O698 Eu676 2.363 . S
O699 C659 1.283 . S
O699 Eu676 2.363 . S
O700 C656 1.283 . S
O700 Eu675 2.363 . S
O701 C658 1.283 . S
O701 Eu675 2.363 . S
O702 C667 1.283 . S
O702 Eu671 2.363 . S
O703 C665 1.283 . S
O703 Eu671 2.363 . S
O704 C666 1.283 . S
O704 Eu672 2.363 . S
O705 C664 1.283 . S
O705 Eu672 2.363 . S
C706 O732 1.283 . S
C706 O750 1.283 . S
C707 O733 1.283 . S
C707 O748 1.283 . S
C708 O734 1.283 . S
C708 O751 1.283 . S
C709 O735 1.283 . S
C709 O749 1.283 . S
C710 O736 1.283 . S
C710 O745 1.283 . S
C711 O737 1.283 . S
C711 O747 1.283 . S
C712 O738 1.283 . S
C712 O744 1.283 . S
C713 O739 1.283 . S
C713 O746 1.283 . S
C714 O740 1.283 . S
C714 O755 1.283 . S
C715 O741 1.283 . S
C715 O753 1.283 . S
C716 O742 1.283 . S
C716 O754 1.283 . S
C717 O743 1.283 . S
C717 O752 1.283 . S
Eu718 O719 2.370 . S
Eu718 O720 2.370 . S
Eu718 O723 2.370 . S
Eu718 O724 2.370 . S
Eu718 O732 2.363 . S
Eu718 O733 2.363 . S
Eu718 O746 2.363 . S
Eu718 O747 2.363 . S
O719 Eu718 2.370 . S
O719 Eu721 2.344 1_565 S
O719 Eu726 2.347 1_565 S
O720 Eu718 2.370 . S
O720 Eu722 2.344 1_565 S
O720 Eu725 2.342 1_565 S
Eu721 O719 2.344 1_545 S
Eu721 O723 2.344 1_545 S
Eu721 O727 2.397 . S
Eu721 O728 2.397 . S
Eu721 O736 2.407 . S
Eu721 O737 2.319 1_545 S
Eu721 O752 2.363 . S
Eu721 O753 2.363 . S
Eu722 O720 2.344 1_545 S
Eu722 O724 2.344 1_545 S
Eu722 O729 2.396 . S
Eu722 O730 2.397 . S
Eu722 O738 2.407 . S
Eu722 O739 2.319 1_545 S
Eu722 O754 2.363 . S
Eu722 O755 2.363 . S
O723 Eu718 2.370 . S
O723 Eu721 2.344 1_565 S
O723 Eu725 2.342 1_565 S
O724 Eu718 2.370 . S
O724 Eu722 2.344 1_565 S
O724 Eu726 2.347 1_565 S
Eu725 O720 2.342 1_545 S
Eu725 O723 2.342 1_545 S
Eu725 O727 2.399 . S
Eu725 O730 2.399 . S
Eu725 O742 2.363 . S
Eu725 O743 2.363 . S
Eu725 O750 2.314 1_545 S
Eu725 O751 2.412 . S
Eu726 O719 2.347 1_545 S
Eu726 O724 2.347 1_545 S
Eu726 O728 2.394 . S
Eu726 O729 2.394 . S
Eu726 O740 2.363 . S
Eu726 O741 2.363 . S
Eu726 O748 2.323 1_545 S
Eu726 O749 2.403 . S
O727 Eu721 2.397 . S
O727 Eu725 2.399 . S
O727 Eu731 2.370 . S
O728 Eu721 2.397 . S
O728 Eu726 2.394 . S
O728 Eu731 2.370 . S
O729 Eu722 2.396 . S
O729 Eu726 2.394 . S
O729 Eu731 2.370 . S
O730 Eu722 2.397 . S
O730 Eu725 2.399 . S
O730 Eu731 2.370 . S
Eu731 O727 2.370 . S
Eu731 O728 2.370 . S
Eu731 O729 2.370 . S
Eu731 O730 2.370 . S
Eu731 O734 2.363 . S
Eu731 O735 2.363 . S
Eu731 O744 2.363 . S
Eu731 O745 2.363 . S
O732 C706 1.283 . S
O732 Eu718 2.363 . S
O733 C707 1.283 . S
O733 Eu718 2.363 . S
O734 C708 1.283 . S
O734 Eu731 2.363 . S
O735 C709 1.283 . S
O735 Eu731 2.363 . S
O736 C710 1.283 . S
O736 Eu721 2.407 . S
O737 C711 1.283 . S
O737 Eu721 2.319 1_565 S
O738 C712 1.283 . S
O738 Eu722 2.407 . S
O739 C713 1.283 . S
O739 Eu722 2.319 1_565 S
O740 C714 1.283 . S
O740 Eu726 2.363 . S
O741 C715 1.283 . S
O741 Eu726 2.363 . S
O742 C716 1.283 . S
O742 Eu725 2.363 . S
O743 C717 1.283 . S
O743 Eu725 2.363 . S
O744 C712 1.283 . S
O744 Eu731 2.363 . S
O745 C710 1.283 . S
O745 Eu731 2.363 . S
O746 C713 1.283 . S
O746 Eu718 2.363 . S
O747 C711 1.283 . S
O747 Eu718 2.363 . S
O748 C707 1.283 . S
O748 Eu726 2.323 1_565 S
O749 C709 1.283 . S
O749 Eu726 2.403 . S
O750 C706 1.283 . S
O750 Eu725 2.314 1_565 S
O751 C708 1.283 . S
O751 Eu725 2.412 . S
O752 C717 1.283 . S
O752 Eu721 2.363 . S
O753 C715 1.283 . S
O753 Eu721 2.363 . S
O754 C716 1.283 . S
O754 Eu722 2.363 . S
O755 C714 1.283 . S
O755 Eu722 2.363 . S
H756 C764 0.929 . S
H757 C766 0.930 . S
H758 C768 0.930 . S
H759 C771 0.929 . S
H760 C774 0.930 . S
H761 C776 0.960 . S
H762 C776 0.960 . S
H763 C776 0.960 . S
C764 H756 0.929 . S
C764 C765 1.377 . S
C764 C766 1.384 . S
C765 C764 1.377 . S
C765 C771 1.390 . S
C766 H757 0.930 . S
C766 C764 1.384 . S
C766 C767 1.372 . S
C767 C766 1.372 . S
C767 C768 1.400 . S
C767 C772 1.490 . S
C768 H758 0.930 . S
C768 C767 1.400 . S
C768 C771 1.386 . S
H769 C785 0.930 . S
H770 C786 0.931 . S
C771 H759 0.929 . S
C771 C765 1.390 . S
C771 C768 1.386 . S
C772 C767 1.490 . S
C772 C774 1.395 . S
C772 C775 1.403 . S
H773 C779 0.930 . S
C774 H760 0.930 . S
C774 C772 1.395 . S
C774 C777 1.403 . S
C775 C772 1.403 . S
C775 C776 1.524 . S
C775 C779 1.400 . S
C776 H761 0.960 . S
C776 H762 0.960 . S
C776 H763 0.960 . S
C776 C775 1.524 . S
C777 C774 1.403 . S
C777 C778 1.392 . S
C777 C781 1.495 . S
C778 C777 1.392 . S
C778 C779 1.385 . S
C778 C780 1.478 . S
C779 H773 0.930 . S
C779 C775 1.400 . S
C779 C778 1.385 . S
C780 C778 1.478 . S
C780 C782 1.381 . S
C780 C786 1.383 . S
C781 C777 1.495 . S
C781 H787 0.959 . S
C781 H788 0.961 . S
C781 H789 0.960 . S
C782 C780 1.381 . S
C782 C783 1.394 . S
C782 H790 0.930 . S
C783 C782 1.394 . S
C783 C784 1.383 . S
C783 H791 0.929 . S
C784 C783 1.383 . S
C784 C785 1.377 . S
C785 H769 0.930 . S
C785 C784 1.377 . S
C785 C786 1.379 . S
C786 H770 0.931 . S
C786 C780 1.383 . S
C786 C785 1.379 . S
H787 C781 0.959 . S
H788 C781 0.961 . S
H789 C781 0.960 . S
H790 C782 0.930 . S
H791 C783 0.929 . S
H792 C800 0.929 . S
H793 C802 0.930 . S
H794 C804 0.930 . S
H795 C807 0.929 . S
H796 C810 0.930 . S
H797 C812 0.960 . S
H798 C812 0.960 . S
H799 C812 0.960 . S
C800 H792 0.929 . S
C800 C801 1.377 . S
C800 C802 1.384 . S
C801 C800 1.377 . S
C801 C807 1.390 . S
C802 H793 0.930 . S
C802 C800 1.384 . S
C802 C803 1.372 . S
C803 C802 1.372 . S
C803 C804 1.400 . S
C803 C808 1.490 . S
C804 H794 0.930 . S
C804 C803 1.400 . S
C804 C807 1.386 . S
H805 C821 0.930 . S
H806 C822 0.931 . S
C807 H795 0.929 . S
C807 C801 1.390 . S
C807 C804 1.386 . S
C808 C803 1.490 . S
C808 C810 1.395 . S
C808 C811 1.403 . S
H809 C815 0.930 . S
C810 H796 0.930 . S
C810 C808 1.395 . S
C810 C813 1.403 . S
C811 C808 1.403 . S
C811 C812 1.524 . S
C811 C815 1.400 . S
C812 H797 0.960 . S
C812 H798 0.960 . S
C812 H799 0.960 . S
C812 C811 1.524 . S
C813 C810 1.403 . S
C813 C814 1.392 . S
C813 C817 1.495 . S
C814 C813 1.392 . S
C814 C815 1.385 . S
C814 C816 1.478 . S
C815 H809 0.930 . S
C815 C811 1.400 . S
C815 C814 1.385 . S
C816 C814 1.478 . S
C816 C818 1.381 . S
C816 C822 1.383 . S
C817 C813 1.495 . S
C817 H823 0.959 . S
C817 H824 0.961 . S
C817 H825 0.960 . S
C818 C816 1.381 . S
C818 C819 1.394 . S
C818 H826 0.930 . S
C819 C818 1.394 . S
C819 C820 1.383 . S
C819 H827 0.929 . S
C820 C819 1.383 . S
C820 C821 1.377 . S
C821 H805 0.930 . S
C821 C820 1.377 . S
C821 C822 1.379 . S
C822 H806 0.931 . S
C822 C816 1.383 . S
C822 C821 1.379 . S
H823 C817 0.959 . S
H824 C817 0.961 . S
H825 C817 0.960 . S
H826 C818 0.930 . S
H827 C819 0.929 . S
H828 C836 0.929 . S
H829 C838 0.930 . S
H830 C840 0.930 . S
H831 C843 0.929 . S
H832 C846 0.930 . S
H833 C848 0.960 . S
H834 C848 0.960 . S
H835 C848 0.960 . S
C836 H828 0.929 . S
C836 C837 1.377 . S
C836 C838 1.384 . S
C837 C836 1.377 . S
C837 C843 1.390 . S
C838 H829 0.930 . S
C838 C836 1.384 . S
C838 C839 1.372 . S
C839 C838 1.372 . S
C839 C840 1.400 . S
C839 C844 1.490 . S
C840 H830 0.930 . S
C840 C839 1.400 . S
C840 C843 1.386 . S
H841 C857 0.930 . S
H842 C858 0.931 . S
C843 H831 0.929 . S
C843 C837 1.390 . S
C843 C840 1.386 . S
C844 C839 1.490 . S
C844 C846 1.395 . S
C844 C847 1.403 . S
H845 C851 0.930 . S
C846 H832 0.930 . S
C846 C844 1.395 . S
C846 C849 1.403 . S
C847 C844 1.403 . S
C847 C848 1.524 . S
C847 C851 1.400 . S
C848 H833 0.960 . S
C848 H834 0.960 . S
C848 H835 0.960 . S
C848 C847 1.524 . S
C849 C846 1.403 . S
C849 C850 1.392 . S
C849 C853 1.495 . S
C850 C849 1.392 . S
C850 C851 1.385 . S
C850 C852 1.478 . S
C851 H845 0.930 . S
C851 C847 1.400 . S
C851 C850 1.385 . S
C852 C850 1.478 . S
C852 C854 1.381 . S
C852 C858 1.383 . S
C853 C849 1.495 . S
C853 H859 0.959 . S
C853 H860 0.961 . S
C853 H861 0.960 . S
C854 C852 1.381 . S
C854 C855 1.394 . S
C854 H862 0.930 . S
C855 C854 1.394 . S
C855 C856 1.383 . S
C855 H863 0.929 . S
C856 C855 1.383 . S
C856 C857 1.377 . S
C857 H841 0.930 . S
C857 C856 1.377 . S
C857 C858 1.379 . S
C858 H842 0.931 . S
C858 C852 1.383 . S
C858 C857 1.379 . S
H859 C853 0.959 . S
H860 C853 0.961 . S
H861 C853 0.960 . S
H862 C854 0.930 . S
H863 C855 0.929 . S
H864 C872 0.929 . S
H865 C874 0.930 . S
H866 C876 0.930 . S
H867 C879 0.929 . S
H868 C882 0.930 . S
H869 C884 0.960 . S
H870 C884 0.960 . S
H871 C884 0.960 . S
C872 H864 0.929 . S
C872 C873 1.377 . S
C872 C874 1.384 . S
C873 C872 1.377 . S
C873 C879 1.390 . S
C874 H865 0.930 . S
C874 C872 1.384 . S
C874 C875 1.372 . S
C875 C874 1.372 . S
C875 C876 1.400 . S
C875 C880 1.490 . S
C876 H866 0.930 . S
C876 C875 1.400 . S
C876 C879 1.386 . S
H877 C893 0.930 . S
H878 C894 0.931 . S
C879 H867 0.929 . S
C879 C873 1.390 . S
C879 C876 1.386 . S
C880 C875 1.490 . S
C880 C882 1.395 . S
C880 C883 1.403 . S
H881 C887 0.930 . S
C882 H868 0.930 . S
C882 C880 1.395 . S
C882 C885 1.403 . S
C883 C880 1.403 . S
C883 C884 1.524 . S
C883 C887 1.400 . S
C884 H869 0.960 . S
C884 H870 0.960 . S
C884 H871 0.960 . S
C884 C883 1.524 . S
C885 C882 1.403 . S
C885 C886 1.392 . S
C885 C889 1.495 . S
C886 C885 1.392 . S
C886 C887 1.385 . S
C886 C888 1.478 . S
C887 H881 0.930 . S
C887 C883 1.400 . S
C887 C886 1.385 . S
C888 C886 1.478 . S
C888 C890 1.381 . S
C888 C894 1.383 . S
C889 C885 1.495 . S
C889 H895 0.959 . S
C889 H896 0.961 . S
C889 H897 0.960 . S
C890 C888 1.381 . S
C890 C891 1.394 . S
C890 H898 0.930 . S
C891 C890 1.394 . S
C891 C892 1.383 . S
C891 H899 0.929 . S
C892 C891 1.383 . S
C892 C893 1.377 . S
C893 H877 0.930 . S
C893 C892 1.377 . S
C893 C894 1.379 . S
C894 H878 0.931 . S
C894 C888 1.383 . S
C894 C893 1.379 . S
H895 C889 0.959 . S
H896 C889 0.961 . S
H897 C889 0.960 . S
H898 C890 0.930 . S
H899 C891 0.929 . S
H900 C908 0.929 . S
H901 C910 0.930 . S
H902 C912 0.930 . S
H903 C915 0.929 . S
H904 C918 0.930 . S
H905 C920 0.960 . S
H906 C920 0.960 . S
H907 C920 0.960 . S
C908 H900 0.929 . S
C908 C909 1.377 . S
C908 C910 1.384 . S
C909 C908 1.377 . S
C909 C915 1.390 . S
C910 H901 0.930 . S
C910 C908 1.384 . S
C910 C911 1.372 . S
C911 C910 1.372 . S
C911 C912 1.400 . S
C911 C916 1.490 . S
C912 H902 0.930 . S
C912 C911 1.400 . S
C912 C915 1.386 . S
H913 C929 0.930 . S
H914 C930 0.931 . S
C915 H903 0.929 . S
C915 C909 1.390 . S
C915 C912 1.386 . S
C916 C911 1.490 . S
C916 C918 1.395 . S
C916 C919 1.403 . S
H917 C923 0.930 . S
C918 H904 0.930 . S
C918 C916 1.395 . S
C918 C921 1.403 . S
C919 C916 1.403 . S
C919 C920 1.524 . S
C919 C923 1.400 . S
C920 H905 0.960 . S
C920 H906 0.960 . S
C920 H907 0.960 . S
C920 C919 1.524 . S
C921 C918 1.403 . S
C921 C922 1.392 . S
C921 C925 1.495 . S
C922 C921 1.392 . S
C922 C923 1.385 . S
C922 C924 1.478 . S
C923 H917 0.930 . S
C923 C919 1.400 . S
C923 C922 1.385 . S
C924 C922 1.478 . S
C924 C926 1.381 . S
C924 C930 1.383 . S
C925 C921 1.495 . S
C925 H931 0.959 . S
C925 H932 0.961 . S
C925 H933 0.960 . S
C926 C924 1.381 . S
C926 C927 1.394 . S
C926 H934 0.930 . S
C927 C926 1.394 . S
C927 C928 1.383 . S
C927 H935 0.929 . S
C928 C927 1.383 . S
C928 C929 1.377 . S
C929 H913 0.930 . S
C929 C928 1.377 . S
C929 C930 1.379 . S
C930 H914 0.931 . S
C930 C924 1.383 . S
C930 C929 1.379 . S
H931 C925 0.959 . S
H932 C925 0.961 . S
H933 C925 0.960 . S
H934 C926 0.930 . S
H935 C927 0.929 . S
H936 C944 0.929 . S
H937 C946 0.930 . S
H938 C948 0.930 . S
H939 C951 0.929 . S
H940 C954 0.930 . S
H941 C956 0.960 . S
H942 C956 0.960 . S
H943 C956 0.960 . S
C944 H936 0.929 . S
C944 C945 1.377 . S
C944 C946 1.384 . S
C945 C944 1.377 . S
C945 C951 1.390 . S
C946 H937 0.930 . S
C946 C944 1.384 . S
C946 C947 1.372 . S
C947 C946 1.372 . S
C947 C948 1.400 . S
C947 C952 1.490 . S
C948 H938 0.930 . S
C948 C947 1.400 . S
C948 C951 1.386 . S
H949 C965 0.930 . S
H950 C966 0.931 . S
C951 H939 0.929 . S
C951 C945 1.390 . S
C951 C948 1.386 . S
C952 C947 1.490 . S
C952 C954 1.395 . S
C952 C955 1.403 . S
H953 C959 0.930 . S
C954 H940 0.930 . S
C954 C952 1.395 . S
C954 C957 1.403 . S
C955 C952 1.403 . S
C955 C956 1.524 . S
C955 C959 1.400 . S
C956 H941 0.960 . S
C956 H942 0.960 . S
C956 H943 0.960 . S
C956 C955 1.524 . S
C957 C954 1.403 . S
C957 C958 1.392 . S
C957 C961 1.495 . S
C958 C957 1.392 . S
C958 C959 1.385 . S
C958 C960 1.478 . S
C959 H953 0.930 . S
C959 C955 1.400 . S
C959 C958 1.385 . S
C960 C958 1.478 . S
C960 C962 1.381 . S
C960 C966 1.383 . S
C961 C957 1.495 . S
C961 H967 0.959 . S
C961 H968 0.961 . S
C961 H969 0.960 . S
C962 C960 1.381 . S
C962 C963 1.394 . S
C962 H970 0.930 . S
C963 C962 1.394 . S
C963 C964 1.383 . S
C963 H971 0.929 . S
C964 C963 1.383 . S
C964 C965 1.377 . S
C965 H949 0.930 . S
C965 C964 1.377 . S
C965 C966 1.379 . S
C966 H950 0.931 . S
C966 C960 1.383 . S
C966 C965 1.379 . S
H967 C961 0.959 . S
H968 C961 0.961 . S
H969 C961 0.960 . S
H970 C962 0.930 . S
H971 C963 0.929 . S
H972 C980 0.929 . S
H973 C982 0.930 . S
H974 C984 0.930 . S
H975 C987 0.929 . S
H976 C990 0.930 . S
H977 C992 0.960 . S
H978 C992 0.960 . S
H979 C992 0.960 . S
C980 H972 0.929 . S
C980 C981 1.377 . S
C980 C982 1.384 . S
C981 C980 1.377 . S
C981 C987 1.390 . S
C982 H973 0.930 . S
C982 C980 1.384 . S
C982 C983 1.372 . S
C983 C982 1.372 . S
C983 C984 1.400 . S
C983 C988 1.490 . S
C984 H974 0.930 . S
C984 C983 1.400 . S
C984 C987 1.386 . S
H985 C1001 0.930 . S
H986 C1002 0.931 . S
C987 H975 0.929 . S
C987 C981 1.390 . S
C987 C984 1.386 . S
C988 C983 1.490 . S
C988 C990 1.395 . S
C988 C991 1.403 . S
H989 C995 0.930 . S
C990 H976 0.930 . S
C990 C988 1.395 . S
C990 C993 1.403 . S
C991 C988 1.403 . S
C991 C992 1.524 . S
C991 C995 1.400 . S
C992 H977 0.960 . S
C992 H978 0.960 . S
C992 H979 0.960 . S
C992 C991 1.524 . S
C993 C990 1.403 . S
C993 C994 1.392 . S
C993 C997 1.495 . S
C994 C993 1.392 . S
C994 C995 1.385 . S
C994 C996 1.478 . S
C995 H989 0.930 . S
C995 C991 1.400 . S
C995 C994 1.385 . S
C996 C994 1.478 . S
C996 C998 1.381 . S
C996 C1002 1.383 . S
C997 C993 1.495 . S
C997 H1003 0.959 . S
C997 H1004 0.961 . S
C997 H1005 0.960 . S
C998 C996 1.381 . S
C998 C999 1.394 . S
C998 H1006 0.930 . S
C999 C998 1.394 . S
C999 C1000 1.383 . S
C999 H1007 0.929 . S
C1000 C999 1.383 . S
C1000 C1001 1.377 . S
C1001 H985 0.930 . S
C1001 C1000 1.377 . S
C1001 C1002 1.379 . S
C1002 H986 0.931 . S
C1002 C996 1.383 . S
C1002 C1001 1.379 . S
H1003 C997 0.959 . S
H1004 C997 0.961 . S
H1005 C997 0.960 . S
H1006 C998 0.930 . S
H1007 C999 0.929 . S
H1008 C1016 0.929 . S
H1009 C1018 0.930 . S
H1010 C1020 0.930 . S
H1011 C1023 0.929 . S
H1012 C1026 0.930 . S
H1013 C1028 0.960 . S
H1014 C1028 0.960 . S
H1015 C1028 0.960 . S
C1016 H1008 0.929 . S
C1016 C1017 1.377 . S
C1016 C1018 1.384 . S
C1017 C1016 1.377 . S
C1017 C1023 1.390 . S
C1018 H1009 0.930 . S
C1018 C1016 1.384 . S
C1018 C1019 1.372 . S
C1019 C1018 1.372 . S
C1019 C1020 1.400 . S
C1019 C1024 1.490 . S
C1020 H1010 0.930 . S
C1020 C1019 1.400 . S
C1020 C1023 1.386 . S
H1021 C1037 0.930 . S
H1022 C1038 0.931 . S
C1023 H1011 0.929 . S
C1023 C1017 1.390 . S
C1023 C1020 1.386 . S
C1024 C1019 1.490 . S
C1024 C1026 1.395 . S
C1024 C1027 1.403 . S
H1025 C1031 0.930 . S
C1026 H1012 0.930 . S
C1026 C1024 1.395 . S
C1026 C1029 1.403 . S
C1027 C1024 1.403 . S
C1027 C1028 1.524 . S
C1027 C1031 1.400 . S
C1028 H1013 0.960 . S
C1028 H1014 0.960 . S
C1028 H1015 0.960 . S
C1028 C1027 1.524 . S
C1029 C1026 1.403 . S
C1029 C1030 1.392 . S
C1029 C1033 1.495 . S
C1030 C1029 1.392 . S
C1030 C1031 1.385 . S
C1030 C1032 1.478 . S
C1031 H1025 0.930 . S
C1031 C1027 1.400 . S
C1031 C1030 1.385 . S
C1032 C1030 1.478 . S
C1032 C1034 1.381 . S
C1032 C1038 1.383 . S
C1033 C1029 1.495 . S
C1033 H1039 0.959 . S
C1033 H1040 0.961 . S
C1033 H1041 0.960 . S
C1034 C1032 1.381 . S
C1034 C1035 1.394 . S
C1034 H1042 0.930 . S
C1035 C1034 1.394 . S
C1035 C1036 1.383 . S
C1035 H1043 0.929 . S
C1036 C1035 1.383 . S
C1036 C1037 1.377 . S
C1037 H1021 0.930 . S
C1037 C1036 1.377 . S
C1037 C1038 1.379 . S
C1038 H1022 0.931 . S
C1038 C1032 1.383 . S
C1038 C1037 1.379 . S
H1039 C1033 0.959 . S
H1040 C1033 0.961 . S
H1041 C1033 0.960 . S
H1042 C1034 0.930 . S
H1043 C1035 0.929 . S
H1044 C1052 0.929 . S
H1045 C1054 0.930 . S
H1046 C1056 0.930 . S
H1047 C1059 0.929 . S
H1048 C1062 0.930 . S
H1049 C1064 0.960 . S
H1050 C1064 0.960 . S
H1051 C1064 0.960 . S
C1052 H1044 0.929 . S
C1052 C1053 1.377 . S
C1052 C1054 1.384 . S
C1053 C1052 1.377 . S
C1053 C1059 1.390 . S
C1054 H1045 0.930 . S
C1054 C1052 1.384 . S
C1054 C1055 1.372 . S
C1055 C1054 1.372 . S
C1055 C1056 1.400 . S
C1055 C1060 1.490 . S
C1056 H1046 0.930 . S
C1056 C1055 1.400 . S
C1056 C1059 1.386 . S
H1057 C1073 0.930 . S
H1058 C1074 0.931 . S
C1059 H1047 0.929 . S
C1059 C1053 1.390 . S
C1059 C1056 1.386 . S
C1060 C1055 1.490 . S
C1060 C1062 1.395 . S
C1060 C1063 1.403 . S
H1061 C1067 0.930 . S
C1062 H1048 0.930 . S
C1062 C1060 1.395 . S
C1062 C1065 1.403 . S
C1063 C1060 1.403 . S
C1063 C1064 1.524 . S
C1063 C1067 1.400 . S
C1064 H1049 0.960 . S
C1064 H1050 0.960 . S
C1064 H1051 0.960 . S
C1064 C1063 1.524 . S
C1065 C1062 1.403 . S
C1065 C1066 1.392 . S
C1065 C1069 1.495 . S
C1066 C1065 1.392 . S
C1066 C1067 1.385 . S
C1066 C1068 1.478 . S
C1067 H1061 0.930 . S
C1067 C1063 1.400 . S
C1067 C1066 1.385 . S
C1068 C1066 1.478 . S
C1068 C1070 1.381 . S
C1068 C1074 1.383 . S
C1069 C1065 1.495 . S
C1069 H1075 0.959 . S
C1069 H1076 0.961 . S
C1069 H1077 0.960 . S
C1070 C1068 1.381 . S
C1070 C1071 1.394 . S
C1070 H1078 0.930 . S
C1071 C1070 1.394 . S
C1071 C1072 1.383 . S
C1071 H1079 0.929 . S
C1072 C1071 1.383 . S
C1072 C1073 1.377 . S
C1073 H1057 0.930 . S
C1073 C1072 1.377 . S
C1073 C1074 1.379 . S
C1074 H1058 0.931 . S
C1074 C1068 1.383 . S
C1074 C1073 1.379 . S
H1075 C1069 0.959 . S
H1076 C1069 0.961 . S
H1077 C1069 0.960 . S
H1078 C1070 0.930 . S
H1079 C1071 0.929 . S
H1080 C1088 0.929 . S
H1081 C1090 0.930 . S
H1082 C1092 0.930 . S
H1083 C1095 0.929 . S
H1084 C1098 0.930 . S
H1085 C1100 0.960 . S
H1086 C1100 0.960 . S
H1087 C1100 0.960 . S
C1088 H1080 0.929 . S
C1088 C1089 1.377 . S
C1088 C1090 1.384 . S
C1089 C1088 1.377 . S
C1089 C1095 1.390 . S
C1090 H1081 0.930 . S
C1090 C1088 1.384 . S
C1090 C1091 1.372 . S
C1091 C1090 1.372 . S
C1091 C1092 1.400 . S
C1091 C1096 1.490 . S
C1092 H1082 0.930 . S
C1092 C1091 1.400 . S
C1092 C1095 1.386 . S
H1093 C1109 0.930 . S
H1094 C1110 0.931 . S
C1095 H1083 0.929 . S
C1095 C1089 1.390 . S
C1095 C1092 1.386 . S
C1096 C1091 1.490 . S
C1096 C1098 1.395 . S
C1096 C1099 1.403 . S
H1097 C1103 0.930 . S
C1098 H1084 0.930 . S
C1098 C1096 1.395 . S
C1098 C1101 1.403 . S
C1099 C1096 1.403 . S
C1099 C1100 1.524 . S
C1099 C1103 1.400 . S
C1100 H1085 0.960 . S
C1100 H1086 0.960 . S
C1100 H1087 0.960 . S
C1100 C1099 1.524 . S
C1101 C1098 1.403 . S
C1101 C1102 1.392 . S
C1101 C1105 1.495 . S
C1102 C1101 1.392 . S
C1102 C1103 1.385 . S
C1102 C1104 1.478 . S
C1103 H1097 0.930 . S
C1103 C1099 1.400 . S
C1103 C1102 1.385 . S
C1104 C1102 1.478 . S
C1104 C1106 1.381 . S
C1104 C1110 1.383 . S
C1105 C1101 1.495 . S
C1105 H1111 0.959 . S
C1105 H1112 0.961 . S
C1105 H1113 0.960 . S
C1106 C1104 1.381 . S
C1106 C1107 1.394 . S
C1106 H1114 0.930 . S
C1107 C1106 1.394 . S
C1107 C1108 1.383 . S
C1107 H1115 0.929 . S
C1108 C1107 1.383 . S
C1108 C1109 1.377 . S
C1109 H1093 0.930 . S
C1109 C1108 1.377 . S
C1109 C1110 1.379 . S
C1110 H1094 0.931 . S
C1110 C1104 1.383 . S
C1110 C1109 1.379 . S
H1111 C1105 0.959 . S
H1112 C1105 0.961 . S
H1113 C1105 0.960 . S
H1114 C1106 0.930 . S
H1115 C1107 0.929 . S
H1116 C1124 0.929 . S
H1117 C1126 0.930 . S
H1118 C1128 0.930 . S
H1119 C1131 0.929 . S
H1120 C1134 0.930 . S
H1121 C1136 0.960 . S
H1122 C1136 0.960 . S
H1123 C1136 0.960 . S
C1124 H1116 0.929 . S
C1124 C1125 1.377 . S
C1124 C1126 1.384 . S
C1125 C1124 1.377 . S
C1125 C1131 1.390 . S
C1126 H1117 0.930 . S
C1126 C1124 1.384 . S
C1126 C1127 1.372 . S
C1127 C1126 1.372 . S
C1127 C1128 1.400 . S
C1127 C1132 1.490 . S
C1128 H1118 0.930 . S
C1128 C1127 1.400 . S
C1128 C1131 1.386 . S
H1129 C1145 0.930 . S
H1130 C1146 0.931 . S
C1131 H1119 0.929 . S
C1131 C1125 1.390 . S
C1131 C1128 1.386 . S
C1132 C1127 1.490 . S
C1132 C1134 1.395 . S
C1132 C1135 1.403 . S
H1133 C1139 0.930 . S
C1134 H1120 0.930 . S
C1134 C1132 1.395 . S
C1134 C1137 1.403 . S
C1135 C1132 1.403 . S
C1135 C1136 1.524 . S
C1135 C1139 1.400 . S
C1136 H1121 0.960 . S
C1136 H1122 0.960 . S
C1136 H1123 0.960 . S
C1136 C1135 1.524 . S
C1137 C1134 1.403 . S
C1137 C1138 1.392 . S
C1137 C1141 1.495 . S
C1138 C1137 1.392 . S
C1138 C1139 1.385 . S
C1138 C1140 1.478 . S
C1139 H1133 0.930 . S
C1139 C1135 1.400 . S
C1139 C1138 1.385 . S
C1140 C1138 1.478 . S
C1140 C1142 1.381 . S
C1140 C1146 1.383 . S
C1141 C1137 1.495 . S
C1141 H1147 0.959 . S
C1141 H1148 0.961 . S
C1141 H1149 0.960 . S
C1142 C1140 1.381 . S
C1142 C1143 1.394 . S
C1142 H1150 0.930 . S
C1143 C1142 1.394 . S
C1143 C1144 1.383 . S
C1143 H1151 0.929 . S
C1144 C1143 1.383 . S
C1144 C1145 1.377 . S
C1145 H1129 0.930 . S
C1145 C1144 1.377 . S
C1145 C1146 1.379 . S
C1146 H1130 0.931 . S
C1146 C1140 1.383 . S
C1146 C1145 1.379 . S
H1147 C1141 0.959 . S
H1148 C1141 0.961 . S
H1149 C1141 0.960 . S
H1150 C1142 0.930 . S
H1151 C1143 0.929 . S
H1152 C1160 0.929 . S
H1153 C1162 0.930 . S
H1154 C1164 0.930 . S
H1155 C1167 0.929 . S
H1156 C1170 0.930 . S
H1157 C1172 0.960 . S
H1158 C1172 0.960 . S
H1159 C1172 0.960 . S
C1160 H1152 0.929 . S
C1160 C1161 1.377 . S
C1160 C1162 1.384 . S
C1161 C1160 1.377 . S
C1161 C1167 1.390 . S
C1162 H1153 0.930 . S
C1162 C1160 1.384 . S
C1162 C1163 1.372 . S
C1163 C1162 1.372 . S
C1163 C1164 1.400 . S
C1163 C1168 1.490 . S
C1164 H1154 0.930 . S
C1164 C1163 1.400 . S
C1164 C1167 1.386 . S
H1165 C1181 0.930 . S
H1166 C1182 0.931 . S
C1167 H1155 0.929 . S
C1167 C1161 1.390 . S
C1167 C1164 1.386 . S
C1168 C1163 1.490 . S
C1168 C1170 1.395 . S
C1168 C1171 1.403 . S
H1169 C1175 0.930 . S
C1170 H1156 0.930 . S
C1170 C1168 1.395 . S
C1170 C1173 1.403 . S
C1171 C1168 1.403 . S
C1171 C1172 1.524 . S
C1171 C1175 1.400 . S
C1172 H1157 0.960 . S
C1172 H1158 0.960 . S
C1172 H1159 0.960 . S
C1172 C1171 1.524 . S
C1173 C1170 1.403 . S
C1173 C1174 1.392 . S
C1173 C1177 1.495 . S
C1174 C1173 1.392 . S
C1174 C1175 1.385 . S
C1174 C1176 1.478 . S
C1175 H1169 0.930 . S
C1175 C1171 1.400 . S
C1175 C1174 1.385 . S
C1176 C1174 1.478 . S
C1176 C1178 1.381 . S
C1176 C1182 1.383 . S
C1177 C1173 1.495 . S
C1177 H1183 0.959 . S
C1177 H1184 0.961 . S
C1177 H1185 0.960 . S
C1178 C1176 1.381 . S
C1178 C1179 1.394 . S
C1178 H1186 0.930 . S
C1179 C1178 1.394 . S
C1179 C1180 1.383 . S
C1179 H1187 0.929 . S
C1180 C1179 1.383 . S
C1180 C1181 1.377 . S
C1181 H1165 0.930 . S
C1181 C1180 1.377 . S
C1181 C1182 1.379 . S
C1182 H1166 0.931 . S
C1182 C1176 1.383 . S
C1182 C1181 1.379 . S
H1183 C1177 0.959 . S
H1184 C1177 0.961 . S
H1185 C1177 0.960 . S
H1186 C1178 0.930 . S
H1187 C1179 0.929 . S
H1188 C1196 0.929 . S
H1189 C1198 0.930 . S
H1190 C1200 0.930 1_556 S
H1191 C1203 0.916 1_556 S
H1192 C1206 0.930 . S
H1193 C1208 0.960 . S
H1194 C1208 0.960 . S
H1195 C1208 0.960 . S
C1196 H1188 0.929 . S
C1196 C1197 1.377 . S
C1196 C1198 1.384 . S
C1197 C1196 1.377 . S
C1197 C1203 1.404 . S
C1198 H1189 0.930 . S
C1198 C1196 1.384 . S
C1198 C1199 1.372 . S
C1199 C1198 1.372 . S
C1199 C1200 1.400 . S
C1199 C1204 1.490 . S
C1200 H1190 0.930 1_554 S
C1200 C1199 1.400 . S
C1200 C1203 1.388 . S
H1201 C1217 0.930 . S
H1202 C1218 0.931 . S
C1203 H1191 0.916 1_554 S
C1203 C1197 1.404 . S
C1203 C1200 1.388 . S
C1204 C1199 1.490 . S
C1204 C1206 1.395 1_554 S
C1204 C1207 1.403 . S
H1205 C1211 0.930 . S
C1206 H1192 0.930 . S
C1206 C1204 1.395 1_556 S
C1206 C1209 1.403 . S
C1207 C1204 1.403 . S
C1207 C1208 1.524 . S
C1207 C1211 1.400 . S
C1208 H1193 0.960 . S
C1208 H1194 0.960 . S
C1208 H1195 0.960 . S
C1208 C1207 1.524 . S
C1209 C1206 1.403 . S
C1209 C1210 1.392 1_556 S
C1209 C1213 1.495 . S
C1210 C1209 1.392 1_554 S
C1210 C1211 1.385 . S
C1210 C1212 1.478 . S
C1211 H1205 0.930 . S
C1211 C1207 1.400 . S
C1211 C1210 1.385 . S
C1212 C1210 1.478 . S
C1212 C1214 1.381 . S
C1212 C1218 1.383 1_554 S
C1213 C1209 1.495 . S
C1213 H1219 0.959 . S
C1213 H1220 0.961 . S
C1213 H1221 0.960 . S
C1214 C1212 1.381 . S
C1214 C1215 1.394 . S
C1214 H1222 0.930 . S
C1215 C1214 1.394 . S
C1215 C1216 1.383 . S
C1215 H1223 0.929 . S
C1216 C1215 1.383 . S
C1216 C1217 1.377 1_554 S
C1217 H1201 0.930 . S
C1217 C1216 1.377 1_556 S
C1217 C1218 1.379 . S
C1218 H1202 0.931 . S
C1218 C1212 1.383 1_556 S
C1218 C1217 1.379 . S
H1219 C1213 0.959 . S
H1220 C1213 0.961 . S
H1221 C1213 0.960 . S
H1222 C1214 0.930 . S
H1223 C1215 0.929 . S
H1224 C1232 0.929 . S
H1225 C1234 0.930 . S
H1226 C1236 0.930 . S
H1227 C1239 0.929 . S
H1228 C1242 0.930 . S
H1229 C1244 0.960 . S
H1230 C1244 0.960 . S
H1231 C1244 0.960 . S
C1232 H1224 0.929 . S
C1232 C1233 1.377 1_556 S
C1232 C1234 1.384 . S
C1233 C1232 1.377 1_554 S
C1233 C1239 1.390 . S
C1234 H1225 0.930 . S
C1234 C1232 1.384 . S
C1234 C1235 1.372 1_556 S
C1235 C1234 1.372 1_554 S
C1235 C1236 1.400 . S
C1235 C1240 1.490 . S
C1236 H1226 0.930 . S
C1236 C1235 1.400 . S
C1236 C1239 1.386 . S
H1237 C1253 0.930 . S
H1238 C1254 0.931 . S
C1239 H1227 0.929 . S
C1239 C1233 1.390 . S
C1239 C1236 1.386 . S
C1240 C1235 1.490 . S
C1240 C1242 1.395 . S
C1240 C1243 1.403 1_554 S
H1241 C1247 0.933 . S
C1242 H1228 0.930 . S
C1242 C1240 1.395 . S
C1242 C1245 1.403 . S
C1243 C1240 1.403 1_556 S
C1243 C1244 1.524 . S
C1243 C1247 1.400 . S
C1244 H1229 0.960 . S
C1244 H1230 0.960 . S
C1244 H1231 0.960 . S
C1244 C1243 1.524 . S
C1245 C1242 1.403 . S
C1245 C1246 1.392 . S
C1245 C1249 1.495 . S
C1246 C1245 1.392 . S
C1246 C1247 1.382 1_554 S
C1246 C1248 1.478 . S
C1247 H1241 0.933 . S
C1247 C1243 1.400 . S
C1247 C1246 1.382 1_556 S
C1248 C1246 1.478 . S
C1248 C1250 1.381 1_554 S
C1248 C1254 1.383 . S
C1249 C1245 1.495 . S
C1249 H1255 0.959 . S
C1249 H1256 0.961 . S
C1249 H1257 0.960 . S
C1250 C1248 1.381 1_556 S
C1250 C1251 1.394 . S
C1250 H1258 0.930 . S
C1251 C1250 1.394 . S
C1251 C1252 1.383 1_556 S
C1251 H1259 0.929 . S
C1252 C1251 1.383 1_554 S
C1252 C1253 1.377 . S
C1253 H1237 0.930 . S
C1253 C1252 1.377 . S
C1253 C1254 1.379 . S
C1254 H1238 0.931 . S
C1254 C1248 1.383 . S
C1254 C1253 1.379 . S
H1255 C1249 0.959 . S
H1256 C1249 0.961 . S
H1257 C1249 0.960 . S
H1258 C1250 0.930 . S
H1259 C1251 0.929 . S
H1260 C1268 0.929 . S
H1261 C1270 0.930 . S
H1262 C1272 0.916 1_556 S
H1263 C1275 0.915 1_556 S
H1264 C1278 0.930 . S
H1265 C1280 0.960 . S
H1266 C1280 0.960 . S
H1267 C1280 0.960 . S
C1268 H1260 0.929 . S
C1268 C1269 1.377 . S
C1268 C1270 1.384 . S
C1269 C1268 1.377 . S
C1269 C1275 1.405 . S
C1270 H1261 0.930 . S
C1270 C1268 1.384 . S
C1270 C1271 1.372 . S
C1271 C1270 1.372 . S
C1271 C1272 1.414 . S
C1271 C1276 1.490 . S
C1272 H1262 0.916 1_554 S
C1272 C1271 1.414 . S
C1272 C1275 1.386 . S
H1273 C1289 0.931 1_556 S
H1274 C1290 0.931 . S
C1275 H1263 0.915 1_554 S
C1275 C1269 1.405 . S
C1275 C1272 1.386 . S
C1276 C1271 1.490 . S
C1276 C1278 1.395 . S
C1276 C1279 1.403 1_554 S
H1277 C1283 0.930 . S
C1278 H1264 0.930 . S
C1278 C1276 1.395 . S
C1278 C1281 1.403 . S
C1279 C1276 1.403 1_556 S
C1279 C1280 1.524 . S
C1279 C1283 1.400 . S
C1280 H1265 0.960 . S
C1280 H1266 0.960 . S
C1280 H1267 0.960 . S
C1280 C1279 1.524 . S
C1281 C1278 1.403 . S
C1281 C1282 1.392 . S
C1281 C1285 1.495 . S
C1282 C1281 1.392 . S
C1282 C1283 1.385 1_554 S
C1282 C1284 1.478 . S
C1283 H1277 0.930 . S
C1283 C1279 1.400 . S
C1283 C1282 1.385 1_556 S
C1284 C1282 1.478 . S
C1284 C1286 1.381 . S
C1284 C1290 1.383 . S
C1285 C1281 1.495 . S
C1285 H1291 0.959 . S
C1285 H1292 0.961 . S
C1285 H1293 0.960 . S
C1286 C1284 1.381 . S
C1286 C1287 1.394 . S
C1286 H1294 0.930 . S
C1287 C1286 1.394 . S
C1287 C1288 1.383 . S
C1287 H1295 0.929 . S
C1288 C1287 1.383 . S
C1288 C1289 1.377 . S
C1289 H1273 0.931 1_554 S
C1289 C1288 1.377 . S
C1289 C1290 1.379 . S
C1290 H1274 0.931 . S
C1290 C1284 1.383 . S
C1290 C1289 1.379 . S
H1291 C1285 0.959 . S
H1292 C1285 0.961 . S
H1293 C1285 0.960 . S
H1294 C1286 0.930 . S
H1295 C1287 0.929 . S
H1296 C1304 0.929 . S
H1297 C1306 0.930 . S
H1298 C1308 0.930 . S
H1299 C1311 0.929 . S
H1300 C1314 0.930 . S
H1301 C1316 0.960 . S
H1302 C1316 0.960 . S
H1303 C1316 0.960 . S
C1304 H1296 0.929 . S
C1304 C1305 1.377 1_556 S
C1304 C1306 1.384 . S
C1305 C1304 1.377 1_554 S
C1305 C1311 1.390 . S
C1306 H1297 0.930 . S
C1306 C1304 1.384 . S
C1306 C1307 1.372 1_556 S
C1307 C1306 1.372 1_554 S
C1307 C1308 1.400 . S
C1307 C1312 1.490 . S
C1308 H1298 0.930 . S
C1308 C1307 1.400 . S
C1308 C1311 1.386 . S
H1309 C1325 0.930 . S
H1310 C1326 0.931 . S
C1311 H1299 0.929 . S
C1311 C1305 1.390 . S
C1311 C1308 1.386 . S
C1312 C1307 1.490 . S
C1312 C1314 1.395 1_554 S
C1312 C1315 1.403 . S
H1313 C1319 0.930 . S
C1314 H1300 0.930 . S
C1314 C1312 1.395 1_556 S
C1314 C1317 1.403 . S
C1315 C1312 1.403 . S
C1315 C1316 1.524 . S
C1315 C1319 1.400 . S
C1316 H1301 0.960 . S
C1316 H1302 0.960 . S
C1316 H1303 0.960 . S
C1316 C1315 1.524 . S
C1317 C1314 1.403 . S
C1317 C1318 1.392 1_556 S
C1317 C1321 1.495 . S
C1318 C1317 1.392 1_554 S
C1318 C1319 1.385 . S
C1318 C1320 1.478 . S
C1319 H1313 0.930 . S
C1319 C1315 1.400 . S
C1319 C1318 1.385 . S
C1320 C1318 1.478 . S
C1320 C1322 1.381 1_554 S
C1320 C1326 1.383 . S
C1321 C1317 1.495 . S
C1321 H1327 0.959 . S
C1321 H1328 0.961 . S
C1321 H1329 0.960 . S
C1322 C1320 1.381 1_556 S
C1322 C1323 1.394 . S
C1322 H1330 0.930 . S
C1323 C1322 1.394 . S
C1323 C1324 1.383 1_556 S
C1323 H1331 0.929 . S
C1324 C1323 1.383 1_554 S
C1324 C1325 1.377 . S
C1325 H1309 0.930 . S
C1325 C1324 1.377 . S
C1325 C1326 1.379 . S
C1326 H1310 0.931 . S
C1326 C1320 1.383 . S
C1326 C1325 1.379 . S
H1327 C1321 0.959 . S
H1328 C1321 0.961 . S
H1329 C1321 0.960 . S
H1330 C1322 0.930 . S
H1331 C1323 0.929 . S
H1332 C1340 0.951 . S
H1333 C1342 0.929 . S
H1334 C1344 0.930 . S
H1335 C1347 0.929 . S
H1336 C1350 0.930 . S
H1337 C1352 0.960 . S
H1338 C1352 0.960 . S
H1339 C1352 0.960 . S
C1340 H1332 0.951 . S
C1340 C1341 1.377 . S
C1340 C1342 1.384 . S
C1341 C1340 1.377 . S
C1341 C1347 1.390 . S
C1342 H1333 0.929 . S
C1342 C1340 1.384 . S
C1342 C1343 1.372 . S
C1343 C1342 1.372 . S
C1343 C1344 1.400 . S
C1343 C1348 1.490 . S
C1344 H1334 0.930 . S
C1344 C1343 1.400 . S
C1344 C1347 1.386 . S
H1345 C1361 0.930 . S
H1346 C1362 0.931 . S
C1347 H1335 0.929 . S
C1347 C1341 1.390 . S
C1347 C1344 1.386 . S
C1348 C1343 1.490 . S
C1348 C1350 1.395 1_455 S
C1348 C1351 1.403 . S
H1349 C1355 0.930 . S
C1350 H1336 0.930 . S
C1350 C1348 1.395 1_655 S
C1350 C1353 1.403 . S
C1351 C1348 1.403 . S
C1351 C1352 1.524 . S
C1351 C1355 1.400 . S
C1352 H1337 0.960 . S
C1352 H1338 0.960 . S
C1352 H1339 0.960 . S
C1352 C1351 1.524 . S
C1353 C1350 1.403 . S
C1353 C1354 1.392 1_655 S
C1353 C1357 1.495 . S
C1354 C1353 1.392 1_455 S
C1354 C1355 1.385 . S
C1354 C1356 1.478 . S
C1355 H1349 0.930 . S
C1355 C1351 1.400 . S
C1355 C1354 1.385 . S
C1356 C1354 1.478 . S
C1356 C1358 1.381 . S
C1356 C1362 1.383 . S
C1357 C1353 1.495 . S
C1357 H1363 0.959 . S
C1357 H1364 0.961 . S
C1357 H1365 0.960 . S
C1358 C1356 1.381 . S
C1358 C1359 1.394 . S
C1358 H1366 0.914 1_455 S
C1359 C1358 1.394 . S
C1359 C1360 1.383 . S
C1359 H1367 0.929 . S
C1360 C1359 1.383 . S
C1360 C1361 1.377 . S
C1361 H1345 0.930 . S
C1361 C1360 1.377 . S
C1361 C1362 1.379 . S
C1362 H1346 0.931 . S
C1362 C1356 1.383 . S
C1362 C1361 1.379 . S
H1363 C1357 0.959 . S
H1364 C1357 0.961 . S
H1365 C1357 0.960 . S
H1366 C1358 0.914 1_655 S
H1367 C1359 0.929 . S
H1368 C1376 0.929 . S
H1369 C1378 0.930 . S
H1370 C1380 0.930 . S
H1371 C1383 0.929 . S
H1372 C1386 0.930 . S
H1373 C1388 0.960 . S
H1374 C1388 0.960 . S
H1375 C1388 0.960 1_545 S
C1376 H1368 0.929 . S
C1376 C1377 1.377 1_565 S
C1376 C1378 1.384 . S
C1377 C1376 1.377 1_545 S
C1377 C1383 1.390 . S
C1378 H1369 0.930 . S
C1378 C1376 1.384 . S
C1378 C1379 1.361 1_565 S
C1379 C1378 1.361 1_545 S
C1379 C1380 1.411 . S
C1379 C1384 1.490 . S
C1380 H1370 0.930 . S
C1380 C1379 1.411 . S
C1380 C1383 1.386 . S
H1381 C1397 0.930 . S
H1382 C1398 0.931 . S
C1383 H1371 0.929 . S
C1383 C1377 1.390 . S
C1383 C1380 1.386 . S
C1384 C1379 1.490 . S
C1384 C1386 1.394 . S
C1384 C1387 1.403 1_545 S
H1385 C1391 0.930 . S
C1386 H1372 0.930 . S
C1386 C1384 1.394 . S
C1386 C1389 1.403 . S
C1387 C1384 1.403 1_565 S
C1387 C1388 1.524 . S
C1387 C1391 1.400 1_565 S
C1388 H1373 0.960 . S
C1388 H1374 0.960 . S
C1388 H1375 0.960 1_565 S
C1388 C1387 1.524 . S
C1389 C1386 1.403 . S
C1389 C1390 1.392 . S
C1389 C1393 1.497 . S
C1390 C1389 1.392 . S
C1390 C1391 1.385 . S
C1390 C1392 1.479 . S
C1391 H1385 0.930 . S
C1391 C1387 1.400 1_545 S
C1391 C1390 1.385 . S
C1392 C1390 1.479 . S
C1392 C1394 1.381 1_545 S
C1392 C1398 1.383 . S
C1393 C1389 1.497 . S
C1393 H1399 0.959 . S
C1393 H1400 0.961 . S
C1393 H1401 0.960 1_545 S
C1394 C1392 1.381 1_565 S
C1394 C1395 1.394 . S
C1394 H1402 0.930 . S
C1395 C1394 1.394 . S
C1395 C1396 1.383 1_565 S
C1395 H1403 0.929 . S
C1396 C1395 1.383 1_545 S
C1396 C1397 1.377 . S
C1397 H1381 0.930 . S
C1397 C1396 1.377 . S
C1397 C1398 1.379 . S
C1398 H1382 0.931 . S
C1398 C1392 1.383 . S
C1398 C1397 1.379 . S
H1399 C1393 0.959 . S
H1400 C1393 0.961 . S
H1401 C1393 0.960 1_565 S
H1402 C1394 0.930 . S
H1403 C1395 0.929 . S
H1404 C1412 0.929 . S
H1405 C1414 0.930 . S
H1406 C1416 0.930 . S
H1407 C1419 0.929 . S
H1408 C1422 0.930 . S
H1409 C1424 0.960 . S
H1410 C1424 0.960 . S
H1411 C1424 0.960 . S
C1412 H1404 0.929 . S
C1412 C1413 1.377 1_655 S
C1412 C1414 1.384 . S
C1413 C1412 1.377 1_455 S
C1413 C1419 1.390 . S
C1414 H1405 0.930 . S
C1414 C1412 1.384 . S
C1414 C1415 1.372 1_655 S
C1415 C1414 1.372 1_455 S
C1415 C1416 1.400 . S
C1415 C1420 1.490 . S
C1416 H1406 0.930 . S
C1416 C1415 1.400 . S
C1416 C1419 1.386 . S
H1417 C1433 0.930 . S
H1418 C1434 0.931 . S
C1419 H1407 0.929 . S
C1419 C1413 1.390 . S
C1419 C1416 1.386 . S
C1420 C1415 1.490 . S
C1420 C1422 1.395 . S
C1420 C1423 1.403 . S
H1421 C1427 0.930 . S
C1422 H1408 0.930 . S
C1422 C1420 1.395 . S
C1422 C1425 1.403 . S
C1423 C1420 1.403 . S
C1423 C1424 1.524 . S
C1423 C1427 1.400 . S
C1424 H1409 0.960 . S
C1424 H1410 0.960 . S
C1424 H1411 0.960 . S
C1424 C1423 1.524 . S
C1425 C1422 1.403 . S
C1425 C1426 1.392 . S
C1425 C1429 1.495 . S
C1426 C1425 1.392 . S
C1426 C1427 1.385 . S
C1426 C1428 1.478 . S
C1427 H1421 0.930 . S
C1427 C1423 1.400 . S
C1427 C1426 1.385 . S
C1428 C1426 1.478 . S
C1428 C1430 1.381 1_455 S
C1428 C1434 1.383 . S
C1429 C1425 1.495 . S
C1429 H1435 0.959 . S
C1429 H1436 0.961 . S
C1429 H1437 0.960 1_455 S
C1430 C1428 1.381 1_655 S
C1430 C1431 1.394 . S
C1430 H1438 0.930 . S
C1431 C1430 1.394 . S
C1431 C1432 1.383 1_655 S
C1431 H1439 0.929 . S
C1432 C1431 1.383 1_455 S
C1432 C1433 1.377 . S
C1433 H1417 0.930 . S
C1433 C1432 1.377 . S
C1433 C1434 1.379 . S
C1434 H1418 0.931 . S
C1434 C1428 1.383 . S
C1434 C1433 1.379 . S
H1435 C1429 0.959 . S
H1436 C1429 0.961 . S
H1437 C1429 0.960 1_655 S
H1438 C1430 0.930 . S
H1439 C1431 0.929 . S
H1440 C1448 0.929 . S
H1441 C1450 0.930 . S
H1442 C1452 0.930 . S
H1443 C1455 0.929 . S
H1444 C1458 0.930 . S
H1445 C1460 0.960 . S
H1446 C1460 0.960 . S
H1447 C1460 0.960 . S
C1448 H1440 0.929 . S
C1448 C1449 1.377 . S
C1448 C1450 1.384 . S
C1449 C1448 1.377 . S
C1449 C1455 1.390 1_545 S
C1450 H1441 0.930 . S
C1450 C1448 1.384 . S
C1450 C1451 1.372 . S
C1451 C1450 1.372 . S
C1451 C1452 1.400 1_545 S
C1451 C1456 1.490 . S
C1452 H1442 0.930 . S
C1452 C1451 1.400 1_565 S
C1452 C1455 1.386 . S
H1453 C1469 0.930 . S
H1454 C1470 0.931 . S
C1455 H1443 0.929 . S
C1455 C1449 1.390 1_565 S
C1455 C1452 1.386 . S
C1456 C1451 1.490 . S
C1456 C1458 1.395 . S
C1456 C1459 1.403 1_545 S
H1457 C1463 0.930 . S
C1458 H1444 0.930 . S
C1458 C1456 1.395 . S
C1458 C1461 1.403 . S
C1459 C1456 1.403 1_565 S
C1459 C1460 1.524 . S
C1459 C1463 1.400 . S
C1460 H1445 0.960 . S
C1460 H1446 0.960 . S
C1460 H1447 0.960 . S
C1460 C1459 1.524 . S
C1461 C1458 1.403 . S
C1461 C1462 1.392 . S
C1461 C1465 1.495 . S
C1462 C1461 1.392 . S
C1462 C1463 1.385 1_545 S
C1462 C1464 1.478 . S
C1463 H1457 0.930 . S
C1463 C1459 1.400 . S
C1463 C1462 1.385 1_565 S
C1464 C1462 1.478 . S
C1464 C1466 1.381 . S
C1464 C1470 1.383 1_545 S
C1465 C1461 1.495 . S
C1465 H1471 0.959 . S
C1465 H1472 0.961 . S
C1465 H1473 0.960 . S
C1466 C1464 1.381 . S
C1466 C1467 1.394 . S
C1466 H1474 0.930 . S
C1467 C1466 1.394 . S
C1467 C1468 1.383 . S
C1467 H1475 0.929 . S
C1468 C1467 1.383 . S
C1468 C1469 1.377 1_545 S
C1469 H1453 0.930 . S
C1469 C1468 1.377 1_565 S
C1469 C1470 1.379 . S
C1470 H1454 0.931 . S
C1470 C1464 1.383 1_565 S
C1470 C1469 1.379 . S
H1471 C1465 0.959 . S
H1472 C1465 0.961 . S
H1473 C1465 0.960 . S
H1474 C1466 0.930 . S
H1475 C1467 0.929 . S
H1476 C1484 0.929 . S
H1477 C1486 0.930 . S
H1478 C1488 0.930 . S
H1479 C1491 0.929 . S
H1480 C1494 0.930 . S
H1481 C1496 0.960 . S
H1482 C1496 0.960 . S
H1483 C1496 0.960 . S
C1484 H1476 0.929 . S
C1484 C1485 1.377 1_655 S
C1484 C1486 1.384 . S
C1485 C1484 1.377 1_455 S
C1485 C1491 1.390 . S
C1486 H1477 0.930 . S
C1486 C1484 1.384 . S
C1486 C1487 1.372 1_655 S
C1487 C1486 1.372 1_455 S
C1487 C1488 1.400 . S
C1487 C1492 1.490 . S
C1488 H1478 0.930 . S
C1488 C1487 1.400 . S
C1488 C1491 1.386 . S
H1489 C1505 0.930 . S
H1490 C1506 0.931 . S
C1491 H1479 0.929 . S
C1491 C1485 1.390 . S
C1491 C1488 1.386 . S
C1492 C1487 1.490 . S
C1492 C1494 1.395 1_455 S
C1492 C1495 1.403 . S
H1493 C1499 0.930 . S
C1494 H1480 0.930 . S
C1494 C1492 1.395 1_655 S
C1494 C1497 1.403 . S
C1495 C1492 1.403 . S
C1495 C1496 1.524 . S
C1495 C1499 1.400 . S
C1496 H1481 0.960 . S
C1496 H1482 0.960 . S
C1496 H1483 0.960 . S
C1496 C1495 1.524 . S
C1497 C1494 1.403 . S
C1497 C1498 1.392 1_655 S
C1497 C1501 1.495 . S
C1498 C1497 1.392 1_455 S
C1498 C1499 1.385 . S
C1498 C1500 1.478 . S
C1499 H1493 0.930 . S
C1499 C1495 1.400 . S
C1499 C1498 1.385 . S
C1500 C1498 1.478 . S
C1500 C1502 1.381 1_455 S
C1500 C1506 1.383 . S
C1501 C1497 1.495 . S
C1501 H1507 0.959 . S
C1501 H1508 0.961 . S
C1501 H1509 0.960 . S
C1502 C1500 1.381 1_655 S
C1502 C1503 1.394 . S
C1502 H1510 0.930 . S
C1503 C1502 1.394 . S
C1503 C1504 1.383 1_655 S
C1503 H1511 0.929 . S
C1504 C1503 1.383 1_455 S
C1504 C1505 1.377 . S
C1505 H1489 0.930 . S
C1505 C1504 1.377 . S
C1505 C1506 1.379 . S
C1506 H1490 0.931 . S
C1506 C1500 1.383 . S
C1506 C1505 1.379 . S
H1507 C1501 0.959 . S
H1508 C1501 0.961 . S
H1509 C1501 0.960 . S
H1510 C1502 0.930 . S
H1511 C1503 0.929 . S
H1512 C1520 0.929 . S
H1513 C1522 0.930 . S
H1514 C1524 0.930 . S
H1515 C1527 0.929 . S
H1516 C1530 0.930 . S
H1517 C1532 0.960 . S
H1518 C1532 0.960 . S
H1519 C1532 0.960 . S
C1520 H1512 0.929 . S
C1520 C1521 1.384 . S
C1520 C1522 1.384 . S
C1521 C1520 1.384 . S
C1521 C1527 1.383 1_545 S
C1522 H1513 0.930 . S
C1522 C1520 1.384 . S
C1522 C1523 1.391 . S
C1523 C1522 1.391 . S
C1523 C1524 1.382 1_545 S
C1523 C1528 1.490 . S
C1524 H1514 0.930 . S
C1524 C1523 1.382 1_565 S
C1524 C1527 1.386 . S
H1525 C1541 0.930 . S
H1526 C1542 0.931 . S
C1527 H1515 0.929 . S
C1527 C1521 1.383 1_565 S
C1527 C1524 1.386 . S
C1528 C1523 1.490 . S
C1528 C1530 1.380 1_545 S
C1528 C1531 1.417 . S
H1529 C1535 0.930 . S
C1530 H1516 0.930 . S
C1530 C1528 1.380 1_565 S
C1530 C1533 1.403 . S
C1531 C1528 1.417 . S
C1531 C1532 1.524 . S
C1531 C1535 1.400 . S
C1532 H1517 0.960 . S
C1532 H1518 0.960 . S
C1532 H1519 0.960 . S
C1532 C1531 1.524 . S
C1533 C1530 1.403 . S
C1533 C1534 1.392 . S
C1533 C1537 1.495 . S
C1534 C1533 1.392 . S
C1534 C1535 1.385 1_565 S
C1534 C1536 1.478 . S
C1535 H1529 0.930 . S
C1535 C1531 1.400 . S
C1535 C1534 1.385 1_545 S
C1536 C1534 1.478 . S
C1536 C1538 1.381 1_565 S
C1536 C1542 1.383 . S
C1537 C1533 1.495 . S
C1537 H1543 0.959 . S
C1537 H1544 0.961 . S
C1537 H1545 0.960 . S
C1538 C1536 1.381 1_545 S
C1538 C1539 1.394 . S
C1538 H1546 0.930 . S
C1539 C1538 1.394 . S
C1539 C1540 1.377 1_545 S
C1539 H1547 0.929 . S
C1540 C1539 1.377 1_565 S
C1540 C1541 1.384 . S
C1541 H1525 0.930 . S
C1541 C1540 1.384 . S
C1541 C1542 1.379 . S
C1542 H1526 0.931 . S
C1542 C1536 1.383 . S
C1542 C1541 1.379 . S
H1543 C1537 0.959 . S
H1544 C1537 0.961 . S
H1545 C1537 0.960 . S
H1546 C1538 0.930 . S
H1547 C1539 0.929 . S
H1548 C1556 0.929 . S
H1549 C1558 0.930 . S
H1550 C1560 0.930 . S
H1551 C1563 0.929 . S
H1552 C1566 0.930 . S
H1553 C1568 0.960 . S
H1554 C1568 0.960 . S
H1555 C1568 0.960 . S
C1556 H1548 0.929 . S
C1556 C1557 1.377 . S
C1556 C1558 1.384 . S
C1557 C1556 1.377 . S
C1557 C1563 1.390 . S
C1558 H1549 0.930 . S
C1558 C1556 1.384 . S
C1558 C1559 1.372 . S
C1559 C1558 1.372 . S
C1559 C1560 1.400 . S
C1559 C1564 1.490 . S
C1560 H1550 0.930 . S
C1560 C1559 1.400 . S
C1560 C1563 1.386 . S
H1561 C1577 0.930 . S
H1562 C1578 0.931 . S
C1563 H1551 0.929 . S
C1563 C1557 1.390 . S
C1563 C1560 1.386 . S
C1564 C1559 1.490 . S
C1564 C1566 1.395 . S
C1564 C1567 1.403 1_455 S
H1565 C1571 0.926 1_655 S
C1566 H1552 0.930 . S
C1566 C1564 1.395 . S
C1566 C1569 1.403 . S
C1567 C1564 1.403 1_655 S
C1567 C1568 1.524 . S
C1567 C1571 1.399 1_655 S
C1568 H1553 0.960 . S
C1568 H1554 0.960 . S
C1568 H1555 0.960 . S
C1568 C1567 1.524 . S
C1569 C1566 1.403 . S
C1569 C1570 1.392 . S
C1569 C1573 1.495 . S
C1570 C1569 1.392 . S
C1570 C1571 1.390 . S
C1570 C1572 1.478 . S
C1571 H1565 0.926 1_455 S
C1571 C1567 1.399 1_455 S
C1571 C1570 1.390 . S
C1572 C1570 1.478 . S
C1572 C1574 1.381 . S
C1572 C1578 1.383 . S
C1573 C1569 1.495 . S
C1573 H1579 0.959 . S
C1573 H1580 0.961 . S
C1573 H1581 0.960 . S
C1574 C1572 1.381 . S
C1574 C1575 1.394 . S
C1574 H1582 0.930 . S
C1575 C1574 1.394 . S
C1575 C1576 1.383 . S
C1575 H1583 0.929 . S
C1576 C1575 1.383 . S
C1576 C1577 1.377 . S
C1577 H1561 0.930 . S
C1577 C1576 1.377 . S
C1577 C1578 1.379 . S
C1578 H1562 0.931 . S
C1578 C1572 1.383 . S
C1578 C1577 1.379 . S
H1579 C1573 0.959 . S
H1580 C1573 0.961 . S
H1581 C1573 0.960 . S
H1582 C1574 0.930 . S
H1583 C1575 0.929 . S
H1584 C1592 0.929 . S
H1585 C1594 0.930 . S
H1586 C1596 0.930 . S
H1587 C1599 0.929 . S
H1588 C1602 0.930 . S
H1589 C1604 0.960 . S
H1590 C1604 0.960 . S
H1591 C1604 0.960 . S
C1592 H1584 0.929 . S
C1592 C1593 1.376 . S
C1592 C1594 1.384 . S
C1593 C1592 1.376 . S
C1593 C1599 1.391 1_565 S
C1594 H1585 0.930 . S
C1594 C1592 1.384 . S
C1594 C1595 1.410 . S
C1595 C1594 1.410 . S
C1595 C1596 1.361 1_565 S
C1595 C1600 1.492 . S
C1596 H1586 0.930 . S
C1596 C1595 1.361 1_545 S
C1596 C1599 1.386 . S
H1597 C1613 0.930 . S
H1598 C1614 0.931 . S
C1599 H1587 0.929 . S
C1599 C1593 1.391 1_545 S
C1599 C1596 1.386 . S
C1600 C1595 1.492 . S
C1600 C1602 1.395 . S
C1600 C1603 1.403 1_565 S
H1601 C1607 0.930 . S
C1602 H1588 0.930 . S
C1602 C1600 1.395 . S
C1602 C1605 1.403 . S
C1603 C1600 1.403 1_545 S
C1603 C1604 1.524 . S
C1603 C1607 1.400 . S
C1604 H1589 0.960 . S
C1604 H1590 0.960 . S
C1604 H1591 0.960 . S
C1604 C1603 1.524 . S
C1605 C1602 1.403 . S
C1605 C1606 1.392 . S
C1605 C1609 1.495 . S
C1606 C1605 1.392 . S
C1606 C1607 1.385 1_565 S
C1606 C1608 1.478 . S
C1607 H1601 0.930 . S
C1607 C1603 1.400 . S
C1607 C1606 1.385 1_545 S
C1608 C1606 1.478 . S
C1608 C1610 1.381 . S
C1608 C1614 1.383 1_565 S
C1609 C1605 1.495 . S
C1609 H1615 0.959 . S
C1609 H1616 0.961 . S
C1609 H1617 0.960 . S
C1610 C1608 1.381 . S
C1610 C1611 1.394 . S
C1610 H1618 0.930 . S
C1611 C1610 1.394 . S
C1611 C1612 1.396 . S
C1611 H1619 0.929 . S
C1612 C1611 1.396 . S
C1612 C1613 1.365 1_565 S
C1613 H1597 0.930 . S
C1613 C1612 1.365 1_545 S
C1613 C1614 1.379 . S
C1614 H1598 0.931 . S
C1614 C1608 1.383 1_545 S
C1614 C1613 1.379 . S
H1615 C1609 0.959 . S
H1616 C1609 0.961 . S
H1617 C1609 0.960 . S
H1618 C1610 0.930 . S
H1619 C1611 0.929 . S
H1620 C1628 0.929 . S
H1621 C1630 0.930 . S
H1622 C1632 0.930 . S
H1623 C1635 0.929 . S
H1624 C1638 0.930 . S
H1625 C1640 0.960 . S
H1626 C1640 0.960 . S
H1627 C1640 0.960 1_655 S
C1628 H1620 0.929 . S
C1628 C1629 1.377 . S
C1628 C1630 1.384 . S
C1629 C1628 1.377 . S
C1629 C1635 1.390 1_455 S
C1630 H1621 0.930 . S
C1630 C1628 1.384 . S
C1630 C1631 1.372 . S
C1631 C1630 1.372 . S
C1631 C1632 1.400 1_455 S
C1631 C1636 1.490 . S
C1632 H1622 0.930 . S
C1632 C1631 1.400 1_655 S
C1632 C1635 1.386 . S
H1633 C1649 0.930 1_655 S
H1634 C1650 0.931 1_655 S
C1635 H1623 0.929 . S
C1635 C1629 1.390 1_655 S
C1635 C1632 1.386 . S
C1636 C1631 1.490 . S
C1636 C1638 1.395 . S
C1636 C1639 1.403 . S
H1637 C1643 0.930 . S
C1638 H1624 0.930 . S
C1638 C1636 1.395 . S
C1638 C1641 1.403 . S
C1639 C1636 1.403 . S
C1639 C1640 1.524 . S
C1639 C1643 1.400 . S
C1640 H1625 0.960 . S
C1640 H1626 0.960 . S
C1640 H1627 0.960 1_455 S
C1640 C1639 1.524 . S
C1641 C1638 1.403 . S
C1641 C1642 1.392 . S
C1641 C1645 1.495 . S
C1642 C1641 1.392 . S
C1642 C1643 1.385 . S
C1642 C1644 1.478 . S
C1643 H1637 0.930 . S
C1643 C1639 1.400 . S
C1643 C1642 1.385 . S
C1644 C1642 1.478 . S
C1644 C1646 1.381 . S
C1644 C1650 1.383 . S
C1645 C1641 1.495 . S
C1645 H1651 0.959 . S
C1645 H1652 0.961 . S
C1645 H1653 0.960 . S
C1646 C1644 1.381 . S
C1646 C1647 1.394 . S
C1646 H1654 0.930 . S
C1647 C1646 1.394 . S
C1647 C1648 1.383 . S
C1647 H1655 0.929 . S
C1648 C1647 1.383 . S
C1648 C1649 1.377 . S
C1649 H1633 0.930 1_455 S
C1649 C1648 1.377 . S
C1649 C1650 1.379 . S
C1650 H1634 0.931 1_455 S
C1650 C1644 1.383 . S
C1650 C1649 1.379 . S
H1651 C1645 0.959 . S
H1652 C1645 0.961 . S
H1653 C1645 0.960 . S
H1654 C1646 0.930 . S
H1655 C1647 0.929 . S
H1656 C1664 0.929 . S
H1657 C1666 0.930 . S
H1658 C1668 0.930 . S
H1659 C1671 0.929 . S
H1660 C1674 0.930 . S
H1661 C1676 0.960 . S
H1662 C1676 0.960 . S
H1663 C1676 0.960 1_565 S
C1664 H1656 0.929 . S
C1664 C1665 1.393 . S
C1664 C1666 1.384 . S
C1665 C1664 1.393 . S
C1665 C1671 1.375 1_545 S
C1666 H1657 0.930 . S
C1666 C1664 1.384 . S
C1666 C1667 1.372 . S
C1667 C1666 1.372 . S
C1667 C1668 1.400 1_545 S
C1667 C1672 1.490 . S
C1668 H1658 0.930 . S
C1668 C1667 1.400 1_565 S
C1668 C1671 1.386 . S
H1669 C1685 0.930 . S
H1670 C1686 0.931 . S
C1671 H1659 0.929 . S
C1671 C1665 1.375 1_565 S
C1671 C1668 1.386 . S
C1672 C1667 1.490 . S
C1672 C1674 1.395 1_545 S
C1672 C1675 1.403 . S
H1673 C1679 0.930 . S
C1674 H1660 0.930 . S
C1674 C1672 1.395 1_565 S
C1674 C1677 1.403 . S
C1675 C1672 1.403 . S
C1675 C1676 1.524 . S
C1675 C1679 1.400 . S
C1676 H1661 0.960 . S
C1676 H1662 0.960 . S
C1676 H1663 0.960 1_545 S
C1676 C1675 1.524 . S
C1677 C1674 1.403 . S
C1677 C1678 1.390 1_565 S
C1677 C1681 1.495 . S
C1678 C1677 1.390 1_545 S
C1678 C1679 1.389 . S
C1678 C1680 1.477 . S
C1679 H1673 0.930 . S
C1679 C1675 1.400 . S
C1679 C1678 1.389 . S
C1680 C1678 1.477 . S
C1680 C1682 1.379 . S
C1680 C1686 1.384 1_545 S
C1681 C1677 1.495 . S
C1681 H1687 0.959 . S
C1681 H1688 0.961 . S
C1681 H1689 0.960 1_565 S
C1682 C1680 1.379 . S
C1682 C1683 1.394 . S
C1682 H1690 0.930 . S
C1683 C1682 1.394 . S
C1683 C1684 1.397 . S
C1683 H1691 0.929 . S
C1684 C1683 1.397 . S
C1684 C1685 1.363 1_545 S
C1685 H1669 0.930 . S
C1685 C1684 1.363 1_565 S
C1685 C1686 1.379 . S
C1686 H1670 0.931 . S
C1686 C1680 1.384 1_565 S
C1686 C1685 1.379 . S
H1687 C1681 0.959 . S
H1688 C1681 0.961 . S
H1689 C1681 0.960 1_545 S
H1690 C1682 0.930 . S
H1691 C1683 0.929 . S
H1692 C1700 0.929 . S
H1693 C1702 0.930 . S
H1694 C1704 0.930 . S
H1695 C1707 0.929 . S
H1696 C1710 0.939 . S
H1697 C1712 0.960 . S
H1698 C1712 0.960 . S
H1699 C1712 0.960 . S
C1700 H1692 0.929 . S
C1700 C1701 1.377 . S
C1700 C1702 1.384 . S
C1701 C1700 1.377 . S
C1701 C1707 1.390 . S
C1702 H1693 0.930 . S
C1702 C1700 1.384 . S
C1702 C1703 1.372 . S
C1703 C1702 1.372 . S
C1703 C1704 1.400 . S
C1703 C1708 1.490 . S
C1704 H1694 0.930 . S
C1704 C1703 1.400 . S
C1704 C1707 1.386 . S
H1705 C1721 0.930 . S
H1706 C1722 0.931 . S
C1707 H1695 0.929 . S
C1707 C1701 1.390 . S
C1707 C1704 1.386 . S
C1708 C1703 1.490 . S
C1708 C1710 1.385 1_455 S
C1708 C1711 1.403 . S
H1709 C1715 0.930 . S
C1710 H1696 0.939 . S
C1710 C1708 1.385 1_655 S
C1710 C1713 1.404 . S
C1711 C1708 1.403 . S
C1711 C1712 1.524 . S
C1711 C1715 1.400 . S
C1712 H1697 0.960 . S
C1712 H1698 0.960 . S
C1712 H1699 0.960 . S
C1712 C1711 1.524 . S
C1713 C1710 1.404 . S
C1713 C1714 1.392 1_655 S
C1713 C1717 1.495 . S
C1714 C1713 1.392 1_455 S
C1714 C1715 1.385 . S
C1714 C1716 1.478 . S
C1715 H1709 0.930 . S
C1715 C1711 1.400 . S
C1715 C1714 1.385 . S
C1716 C1714 1.478 . S
C1716 C1718 1.381 . S
C1716 C1722 1.383 . S
C1717 C1713 1.495 . S
C1717 H1723 0.959 . S
C1717 H1724 0.961 . S
C1717 H1725 0.960 . S
C1718 C1716 1.381 . S
C1718 C1719 1.394 . S
C1718 H1726 0.930 . S
C1719 C1718 1.394 . S
C1719 C1720 1.383 . S
C1719 H1727 0.929 . S
C1720 C1719 1.383 . S
C1720 C1721 1.377 . S
C1721 H1705 0.930 . S
C1721 C1720 1.377 . S
C1721 C1722 1.379 . S
C1722 H1706 0.931 . S
C1722 C1716 1.383 . S
C1722 C1721 1.379 . S
H1723 C1717 0.959 . S
H1724 C1717 0.961 . S
H1725 C1717 0.960 . S
H1726 C1718 0.930 . S
H1727 C1719 0.929 . S
H1728 C1736 0.929 . S
H1729 C1738 0.930 . S
H1730 C1740 0.930 . S
H1731 C1743 0.929 . S
H1732 C1746 0.930 . S
H1733 C1748 0.960 . S
H1734 C1748 0.960 1_565 S
H1735 C1748 0.960 . S
C1736 H1728 0.929 . S
C1736 C1737 1.381 . S
C1736 C1738 1.384 . S
C1737 C1736 1.381 . S
C1737 C1743 1.386 1_565 S
C1738 H1729 0.930 . S
C1738 C1736 1.384 . S
C1738 C1739 1.413 . S
C1739 C1738 1.413 . S
C1739 C1740 1.359 1_565 S
C1739 C1744 1.490 . S
C1740 H1730 0.930 . S
C1740 C1739 1.359 1_545 S
C1740 C1743 1.386 . S
H1741 C1757 0.930 . S
H1742 C1758 0.931 . S
C1743 H1731 0.929 . S
C1743 C1737 1.386 1_545 S
C1743 C1740 1.386 . S
C1744 C1739 1.490 . S
C1744 C1746 1.405 . S
C1744 C1747 1.395 1_565 S
H1745 C1751 0.930 . S
C1746 H1732 0.930 . S
C1746 C1744 1.405 . S
C1746 C1749 1.403 . S
C1747 C1744 1.395 1_545 S
C1747 C1748 1.524 . S
C1747 C1751 1.400 . S
C1748 H1733 0.960 . S
C1748 H1734 0.960 1_545 S
C1748 H1735 0.960 . S
C1748 C1747 1.524 . S
C1749 C1746 1.403 . S
C1749 C1750 1.402 . S
C1749 C1753 1.495 . S
C1750 C1749 1.402 . S
C1750 C1751 1.378 1_565 S
C1750 C1752 1.477 . S
C1751 H1745 0.930 . S
C1751 C1747 1.400 . S
C1751 C1750 1.378 1_545 S
C1752 C1750 1.477 . S
C1752 C1754 1.390 . S
C1752 C1758 1.374 1_565 S
C1753 C1749 1.495 . S
C1753 H1759 0.959 . S
C1753 H1760 0.961 1_565 S
C1753 H1761 0.960 . S
C1754 C1752 1.390 . S
C1754 C1755 1.394 . S
C1754 H1762 0.930 . S
C1755 C1754 1.394 . S
C1755 C1756 1.355 1_565 S
C1755 H1763 0.929 . S
C1756 C1755 1.355 1_545 S
C1756 C1757 1.404 . S
C1757 H1741 0.930 . S
C1757 C1756 1.404 . S
C1757 C1758 1.379 . S
C1758 H1742 0.931 . S
C1758 C1752 1.374 1_545 S
C1758 C1757 1.379 . S
H1759 C1753 0.959 . S
H1760 C1753 0.961 1_545 S
H1761 C1753 0.960 . S
H1762 C1754 0.930 . S
H1763 C1755 0.929 . S
H1764 C1772 0.929 . S
H1765 C1774 0.930 . S
H1766 C1776 0.976 . S
H1767 C1779 0.929 . S
H1768 C1782 0.930 . S
H1769 C1784 0.963 . S
H1770 C1784 0.960 . S
H1771 C1784 0.960 1_655 S
C1772 H1764 0.929 . S
C1772 C1773 1.377 . S
C1772 C1774 1.384 . S
C1773 C1772 1.377 . S
C1773 C1779 1.390 1_455 S
C1774 H1765 0.930 . S
C1774 C1772 1.384 . S
C1774 C1775 1.372 . S
C1775 C1774 1.372 . S
C1775 C1776 1.353 1_455 S
C1775 C1780 1.490 . S
C1776 H1766 0.976 . S
C1776 C1775 1.353 1_655 S
C1776 C1779 1.389 . S
H1777 C1793 0.930 1_655 S
H1778 C1794 0.931 1_655 S
C1779 H1767 0.929 . S
C1779 C1773 1.390 1_655 S
C1779 C1776 1.389 . S
C1780 C1775 1.490 . S
C1780 C1782 1.395 . S
C1780 C1783 1.403 . S
H1781 C1787 0.930 . S
C1782 H1768 0.930 . S
C1782 C1780 1.395 . S
C1782 C1785 1.403 . S
C1783 C1780 1.403 . S
C1783 C1784 1.524 . S
C1783 C1787 1.400 . S
C1784 H1769 0.963 . S
C1784 H1770 0.960 . S
C1784 H1771 0.960 1_455 S
C1784 C1783 1.524 . S
C1785 C1782 1.403 . S
C1785 C1786 1.392 . S
C1785 C1789 1.495 . S
C1786 C1785 1.392 . S
C1786 C1787 1.385 . S
C1786 C1788 1.478 . S
C1787 H1781 0.930 . S
C1787 C1783 1.400 . S
C1787 C1786 1.385 . S
C1788 C1786 1.478 . S
C1788 C1790 1.381 . S
C1788 C1794 1.383 . S
C1789 C1785 1.495 . S
C1789 H1795 0.959 . S
C1789 H1796 0.961 . S
C1789 H1797 0.960 . S
C1790 C1788 1.381 . S
C1790 C1791 1.394 . S
C1790 H1798 0.930 . S
C1791 C1790 1.394 . S
C1791 C1792 1.383 . S
C1791 H1799 0.929 . S
C1792 C1791 1.383 . S
C1792 C1793 1.377 . S
C1793 H1777 0.930 1_455 S
C1793 C1792 1.377 . S
C1793 C1794 1.379 . S
C1794 H1778 0.931 1_455 S
C1794 C1788 1.383 . S
C1794 C1793 1.379 . S
H1795 C1789 0.959 . S
H1796 C1789 0.961 . S
H1797 C1789 0.960 . S
H1798 C1790 0.930 . S
H1799 C1791 0.929 . S
H1800 C1808 0.929 . S
H1801 C1810 0.930 . S
H1802 C1812 0.930 . S
H1803 C1815 0.929 . S
H1804 C1818 0.930 . S
H1805 C1820 0.960 . S
H1806 C1820 0.960 . S
H1807 C1820 0.970 . S
C1808 H1800 0.929 . S
C1808 C1809 1.377 . S
C1808 C1810 1.384 . S
C1809 C1808 1.377 . S
C1809 C1815 1.390 1_545 S
C1810 H1801 0.930 . S
C1810 C1808 1.384 . S
C1810 C1811 1.372 . S
C1811 C1810 1.372 . S
C1811 C1812 1.400 1_545 S
C1811 C1816 1.490 . S
C1812 H1802 0.930 . S
C1812 C1811 1.400 1_565 S
C1812 C1815 1.386 . S
H1813 C1829 0.930 . S
H1814 C1830 0.931 . S
C1815 H1803 0.929 . S
C1815 C1809 1.390 1_565 S
C1815 C1812 1.386 . S
C1816 C1811 1.490 . S
C1816 C1818 1.395 1_545 S
C1816 C1819 1.403 . S
H1817 C1823 0.930 . S
C1818 H1804 0.930 . S
C1818 C1816 1.395 1_565 S
C1818 C1821 1.403 . S
C1819 C1816 1.403 . S
C1819 C1820 1.524 . S
C1819 C1823 1.400 . S
C1820 H1805 0.960 . S
C1820 H1806 0.960 . S
C1820 H1807 0.970 . S
C1820 C1819 1.524 . S
C1821 C1818 1.403 . S
C1821 C1822 1.385 1_565 S
C1821 C1825 1.495 . S
C1822 C1821 1.385 1_545 S
C1822 C1823 1.396 . S
C1822 C1824 1.477 . S
C1823 H1817 0.930 . S
C1823 C1819 1.400 . S
C1823 C1822 1.396 . S
C1824 C1822 1.477 . S
C1824 C1826 1.390 . S
C1824 C1830 1.374 1_545 S
C1825 C1821 1.495 . S
C1825 H1831 0.959 . S
C1825 H1832 0.961 . S
C1825 H1833 0.960 1_565 S
C1826 C1824 1.390 . S
C1826 C1827 1.394 . S
C1826 H1834 0.930 . S
C1827 C1826 1.394 . S
C1827 C1828 1.401 . S
C1827 H1835 0.929 . S
C1828 C1827 1.401 . S
C1828 C1829 1.360 1_545 S
C1829 H1813 0.930 . S
C1829 C1828 1.360 1_565 S
C1829 C1830 1.379 . S
C1830 H1814 0.931 . S
C1830 C1824 1.374 1_565 S
C1830 C1829 1.379 . S
H1831 C1825 0.959 . S
H1832 C1825 0.961 . S
H1833 C1825 0.960 1_545 S
H1834 C1826 0.930 . S
H1835 C1827 0.929 . S
H1836 C1844 0.929 . S
H1837 C1846 0.930 . S
H1838 C1848 0.930 . S
H1839 C1851 0.929 . S
H1840 C1854 0.930 1_655 S
H1841 C1856 0.960 . S
H1842 C1856 0.960 . S
H1843 C1856 0.960 . S
C1844 H1836 0.929 . S
C1844 C1845 1.377 . S
C1844 C1846 1.384 . S
C1845 C1844 1.377 . S
C1845 C1851 1.390 . S
C1846 H1837 0.930 . S
C1846 C1844 1.384 . S
C1846 C1847 1.372 . S
C1847 C1846 1.372 . S
C1847 C1848 1.400 . S
C1847 C1852 1.490 . S
C1848 H1838 0.930 . S
C1848 C1847 1.400 . S
C1848 C1851 1.386 . S
H1849 C1865 0.930 . S
H1850 C1866 0.931 . S
C1851 H1839 0.929 . S
C1851 C1845 1.390 . S
C1851 C1848 1.386 . S
C1852 C1847 1.490 . S
C1852 C1854 1.395 . S
C1852 C1855 1.403 . S
H1853 C1859 0.930 . S
C1854 H1840 0.930 1_455 S
C1854 C1852 1.395 . S
C1854 C1857 1.403 . S
C1855 C1852 1.403 . S
C1855 C1856 1.524 . S
C1855 C1859 1.400 . S
C1856 H1841 0.960 . S
C1856 H1842 0.960 . S
C1856 H1843 0.960 . S
C1856 C1855 1.524 . S
C1857 C1854 1.403 . S
C1857 C1858 1.392 . S
C1857 C1861 1.495 1_455 S
C1858 C1857 1.392 . S
C1858 C1859 1.385 . S
C1858 C1860 1.478 . S
C1859 H1853 0.930 . S
C1859 C1855 1.400 . S
C1859 C1858 1.385 . S
C1860 C1858 1.478 . S
C1860 C1862 1.381 . S
C1860 C1866 1.383 . S
C1861 C1857 1.495 1_655 S
C1861 H1867 0.959 . S
C1861 H1868 0.961 . S
C1861 H1869 0.960 . S
C1862 C1860 1.381 . S
C1862 C1863 1.394 . S
C1862 H1870 0.930 . S
C1863 C1862 1.394 . S
C1863 C1864 1.383 . S
C1863 H1871 0.929 . S
C1864 C1863 1.383 . S
C1864 C1865 1.377 . S
C1865 H1849 0.930 . S
C1865 C1864 1.377 . S
C1865 C1866 1.379 . S
C1866 H1850 0.931 . S
C1866 C1860 1.383 . S
C1866 C1865 1.379 . S
H1867 C1861 0.959 . S
H1868 C1861 0.961 . S
H1869 C1861 0.960 . S
H1870 C1862 0.930 . S
H1871 C1863 0.929 . S
H1872 C1880 0.929 . S
H1873 C1882 0.930 . S
H1874 C1884 0.928 1_565 S
H1875 C1887 0.929 1_565 S
H1876 C1890 0.930 . S
H1877 C1892 0.960 . S
H1878 C1892 0.960 . S
H1879 C1892 0.960 . S
C1880 H1872 0.929 . S
C1880 C1881 1.377 . S
C1880 C1882 1.384 . S
C1881 C1880 1.377 . S
C1881 C1887 1.390 . S
C1882 H1873 0.930 . S
C1882 C1880 1.384 . S
C1882 C1883 1.372 . S
C1883 C1882 1.372 . S
C1883 C1884 1.400 . S
C1883 C1888 1.490 . S
C1884 H1874 0.928 1_545 S
C1884 C1883 1.400 . S
C1884 C1887 1.386 . S
H1885 C1901 0.930 . S
H1886 C1902 0.931 . S
C1887 H1875 0.929 1_545 S
C1887 C1881 1.390 . S
C1887 C1884 1.386 . S
C1888 C1883 1.490 . S
C1888 C1890 1.395 . S
C1888 C1891 1.403 1_545 S
H1889 C1895 0.930 . S
C1890 H1876 0.930 . S
C1890 C1888 1.395 . S
C1890 C1893 1.403 . S
C1891 C1888 1.403 1_565 S
C1891 C1892 1.524 . S
C1891 C1895 1.400 . S
C1892 H1877 0.960 . S
C1892 H1878 0.960 . S
C1892 H1879 0.960 . S
C1892 C1891 1.524 . S
C1893 C1890 1.403 . S
C1893 C1894 1.392 . S
C1893 C1897 1.495 . S
C1894 C1893 1.392 . S
C1894 C1895 1.385 1_545 S
C1894 C1896 1.478 . S
C1895 H1889 0.930 . S
C1895 C1891 1.400 . S
C1895 C1894 1.385 1_565 S
C1896 C1894 1.478 . S
C1896 C1898 1.381 . S
C1896 C1902 1.383 . S
C1897 C1893 1.495 . S
C1897 H1903 0.959 . S
C1897 H1904 0.961 . S
C1897 H1905 0.960 . S
C1898 C1896 1.381 . S
C1898 C1899 1.394 . S
C1898 H1906 0.930 . S
C1899 C1898 1.394 . S
C1899 C1900 1.383 . S
C1899 H1907 0.932 . S
C1900 C1899 1.383 . S
C1900 C1901 1.377 . S
C1901 H1885 0.930 . S
C1901 C1900 1.377 . S
C1901 C1902 1.379 . S
C1902 H1886 0.931 . S
C1902 C1896 1.383 . S
C1902 C1901 1.379 . S
H1903 C1897 0.959 . S
H1904 C1897 0.961 . S
H1905 C1897 0.960 . S
H1906 C1898 0.930 . S
H1907 C1899 0.932 . S
H1908 C1916 0.929 . S
H1909 C1918 0.930 . S
H1910 C1920 0.930 . S
H1911 C1923 0.929 . S
H1912 C1926 0.930 . S
H1913 C1928 0.960 . S
H1914 C1928 0.960 . S
H1915 C1928 0.960 . S
C1916 H1908 0.929 . S
C1916 C1917 1.379 . S
C1916 C1918 1.384 . S
C1917 C1916 1.379 . S
C1917 C1923 1.388 1_565 S
C1918 H1909 0.930 . S
C1918 C1916 1.384 . S
C1918 C1919 1.373 . S
C1919 C1918 1.373 . S
C1919 C1920 1.399 1_565 S
C1919 C1924 1.489 1_565 S
C1920 H1910 0.930 . S
C1920 C1919 1.399 1_545 S
C1920 C1923 1.386 . S
H1921 C1937 0.930 . S
H1922 C1938 0.931 . S
C1923 H1911 0.929 . S
C1923 C1917 1.388 1_545 S
C1923 C1920 1.386 . S
C1924 C1919 1.489 1_545 S
C1924 C1926 1.409 . S
C1924 C1927 1.390 1_545 S
H1925 C1931 0.930 . S
C1926 H1912 0.930 . S
C1926 C1924 1.409 . S
C1926 C1929 1.403 . S
C1927 C1924 1.390 1_565 S
C1927 C1928 1.524 . S
C1927 C1931 1.400 . S
C1928 H1913 0.960 . S
C1928 H1914 0.960 . S
C1928 H1915 0.960 . S
C1928 C1927 1.524 . S
C1929 C1926 1.403 . S
C1929 C1930 1.392 . S
C1929 C1933 1.495 . S
C1930 C1929 1.392 . S
C1930 C1931 1.385 1_545 S
C1930 C1932 1.478 . S
C1931 H1925 0.930 . S
C1931 C1927 1.400 . S
C1931 C1930 1.385 1_565 S
C1932 C1930 1.478 . S
C1932 C1934 1.381 1_545 S
C1932 C1938 1.383 . S
C1933 C1929 1.495 . S
C1933 H1939 0.959 . S
C1933 H1940 0.961 . S
C1933 H1941 0.960 . S
C1934 C1932 1.381 1_565 S
C1934 C1935 1.394 . S
C1934 H1942 0.930 . S
C1935 C1934 1.394 . S
C1935 C1936 1.383 1_565 S
C1935 H1943 0.929 . S
C1936 C1935 1.383 1_545 S
C1936 C1937 1.377 . S
C1937 H1921 0.930 . S
C1937 C1936 1.377 . S
C1937 C1938 1.379 . S
C1938 H1922 0.931 . S
C1938 C1932 1.383 . S
C1938 C1937 1.379 . S
H1939 C1933 0.959 . S
H1940 C1933 0.961 . S
H1941 C1933 0.960 . S
H1942 C1934 0.930 . S
H1943 C1935 0.929 . S
H1944 C1952 0.929 . S
H1945 C1954 0.930 . S
H1946 C1956 0.930 . S
H1947 C1959 0.929 . S
H1948 C1962 0.930 . S
H1949 C1964 0.960 . S
H1950 C1964 0.960 1_655 S
H1951 C1964 0.960 . S
C1952 H1944 0.929 . S
C1952 C1953 1.377 1_655 S
C1952 C1954 1.384 . S
C1953 C1952 1.377 1_455 S
C1953 C1959 1.390 . S
C1954 H1945 0.930 . S
C1954 C1952 1.384 . S
C1954 C1955 1.372 1_655 S
C1955 C1954 1.372 1_455 S
C1955 C1956 1.400 . S
C1955 C1960 1.490 . S
C1956 H1946 0.930 . S
C1956 C1955 1.400 . S
C1956 C1959 1.386 . S
H1957 C1973 0.930 . S
H1958 C1974 0.931 . S
C1959 H1947 0.929 . S
C1959 C1953 1.390 . S
C1959 C1956 1.386 . S
C1960 C1955 1.490 . S
C1960 C1962 1.395 . S
C1960 C1963 1.403 . S
H1961 C1967 0.930 . S
C1962 H1948 0.930 . S
C1962 C1960 1.395 . S
C1962 C1965 1.403 . S
C1963 C1960 1.403 . S
C1963 C1964 1.524 . S
C1963 C1967 1.400 . S
C1964 H1949 0.960 . S
C1964 H1950 0.960 1_455 S
C1964 H1951 0.960 . S
C1964 C1963 1.524 . S
C1965 C1962 1.403 . S
C1965 C1966 1.392 . S
C1965 C1969 1.495 . S
C1966 C1965 1.392 . S
C1966 C1967 1.385 . S
C1966 C1968 1.478 . S
C1967 H1961 0.930 . S
C1967 C1963 1.400 . S
C1967 C1966 1.385 . S
C1968 C1966 1.478 . S
C1968 C1970 1.381 1_455 S
C1968 C1974 1.383 . S
C1969 C1965 1.495 . S
C1969 H1975 0.959 . S
C1969 H1976 0.961 . S
C1969 H1977 0.960 . S
C1970 C1968 1.381 1_655 S
C1970 C1971 1.394 . S
C1970 H1978 0.930 . S
C1971 C1970 1.394 . S
C1971 C1972 1.383 1_655 S
C1971 H1979 0.929 . S
C1972 C1971 1.383 1_455 S
C1972 C1973 1.377 . S
C1973 H1957 0.930 . S
C1973 C1972 1.377 . S
C1973 C1974 1.379 . S
C1974 H1958 0.931 . S
C1974 C1968 1.383 . S
C1974 C1973 1.379 . S
H1975 C1969 0.959 . S
H1976 C1969 0.961 . S
H1977 C1969 0.960 . S
H1978 C1970 0.930 . S
H1979 C1971 0.929 . S
H1980 C1988 0.929 . S
H1981 C1990 0.930 . S
H1982 C1992 0.930 . S
H1983 C1995 0.929 . S
H1984 C1998 0.930 . S
H1985 C2000 0.960 . S
H1986 C2000 0.960 . S
H1987 C2000 0.960 . S
C1988 H1980 0.929 . S
C1988 C1989 1.380 . S
C1988 C1990 1.384 . S
C1989 C1988 1.380 . S
C1989 C1995 1.387 1_565 S
C1990 H1981 0.930 . S
C1990 C1988 1.384 . S
C1990 C1991 1.376 . S
C1991 C1990 1.376 . S
C1991 C1992 1.396 1_565 S
C1991 C1996 1.489 1_565 S
C1992 H1982 0.930 . S
C1992 C1991 1.396 1_545 S
C1992 C1995 1.386 . S
H1993 C2009 0.930 . S
H1994 C2010 0.931 . S
C1995 H1983 0.929 . S
C1995 C1989 1.387 1_545 S
C1995 C1992 1.386 . S
C1996 C1991 1.489 1_545 S
C1996 C1998 1.400 . S
C1996 C1999 1.397 1_545 S
H1997 C2003 0.930 . S
C1998 H1984 0.930 . S
C1998 C1996 1.400 . S
C1998 C2001 1.403 . S
C1999 C1996 1.397 1_565 S
C1999 C2000 1.524 . S
C1999 C2003 1.400 . S
C2000 H1985 0.960 . S
C2000 H1986 0.960 . S
C2000 H1987 0.960 . S
C2000 C1999 1.524 . S
C2001 C1998 1.403 . S
C2001 C2002 1.392 . S
C2001 C2005 1.495 . S
C2002 C2001 1.392 . S
C2002 C2003 1.385 1_545 S
C2002 C2004 1.478 . S
C2003 H1997 0.930 . S
C2003 C1999 1.400 . S
C2003 C2002 1.385 1_565 S
C2004 C2002 1.478 . S
C2004 C2006 1.381 1_545 S
C2004 C2010 1.383 . S
C2005 C2001 1.495 . S
C2005 H2011 0.959 . S
C2005 H2012 0.961 . S
C2005 H2013 0.960 . S
C2006 C2004 1.381 1_565 S
C2006 C2007 1.394 . S
C2006 H2014 0.930 . S
C2007 C2006 1.394 . S
C2007 C2008 1.383 1_565 S
C2007 H2015 0.929 . S
C2008 C2007 1.383 1_545 S
C2008 C2009 1.377 . S
C2009 H1993 0.930 . S
C2009 C2008 1.377 . S
C2009 C2010 1.379 . S
C2010 H1994 0.931 . S
C2010 C2004 1.383 . S
C2010 C2009 1.379 . S
H2011 C2005 0.959 . S
H2012 C2005 0.961 . S
H2013 C2005 0.960 . S
H2014 C2006 0.930 . S
H2015 C2007 0.929 . S
H2016 C2024 0.929 . S
H2017 C2026 0.930 . S
H2018 C2028 0.930 1_655 S
H2019 C2031 0.929 1_655 S
H2020 C2034 0.930 . S
H2021 C2036 0.960 . S
H2022 C2036 0.960 . S
H2023 C2036 0.960 . S
C2024 H2016 0.929 . S
C2024 C2025 1.377 . S
C2024 C2026 1.384 . S
C2025 C2024 1.377 . S
C2025 C2031 1.390 . S
C2026 H2017 0.930 . S
C2026 C2024 1.384 . S
C2026 C2027 1.372 . S
C2027 C2026 1.372 . S
C2027 C2028 1.400 . S
C2027 C2032 1.490 . S
C2028 H2018 0.930 1_455 S
C2028 C2027 1.400 . S
C2028 C2031 1.386 . S
H2029 C2045 0.920 1_655 S
H2030 C2046 0.931 . S
C2031 H2019 0.929 1_455 S
C2031 C2025 1.390 . S
C2031 C2028 1.386 . S
C2032 C2027 1.490 . S
C2032 C2034 1.395 . S
C2032 C2035 1.403 1_455 S
H2033 C2039 0.930 . S
C2034 H2020 0.930 . S
C2034 C2032 1.395 . S
C2034 C2037 1.403 . S
C2035 C2032 1.403 1_655 S
C2035 C2036 1.524 . S
C2035 C2039 1.400 . S
C2036 H2021 0.960 . S
C2036 H2022 0.960 . S
C2036 H2023 0.960 . S
C2036 C2035 1.524 . S
C2037 C2034 1.403 . S
C2037 C2038 1.392 . S
C2037 C2041 1.495 . S
C2038 C2037 1.392 . S
C2038 C2039 1.385 1_455 S
C2038 C2040 1.478 . S
C2039 H2033 0.930 . S
C2039 C2035 1.400 . S
C2039 C2038 1.385 1_655 S
C2040 C2038 1.478 . S
C2040 C2042 1.381 . S
C2040 C2046 1.383 . S
C2041 C2037 1.495 . S
C2041 H2047 0.959 . S
C2041 H2048 0.961 . S
C2041 H2049 0.960 . S
C2042 C2040 1.381 . S
C2042 C2043 1.394 . S
C2042 H2050 0.930 . S
C2043 C2042 1.394 . S
C2043 C2044 1.383 . S
C2043 H2051 0.929 . S
C2044 C2043 1.383 . S
C2044 C2045 1.377 . S
C2045 H2029 0.920 1_455 S
C2045 C2044 1.377 . S
C2045 C2046 1.379 . S
C2046 H2030 0.931 . S
C2046 C2040 1.383 . S
C2046 C2045 1.379 . S
H2047 C2041 0.959 . S
H2048 C2041 0.961 . S
H2049 C2041 0.960 . S
H2050 C2042 0.930 . S
H2051 C2043 0.929 . S
H2052 C2060 0.929 . S
H2053 C2062 0.930 . S
H2054 C2064 0.930 . S
H2055 C2067 0.929 . S
H2056 C2070 0.930 . S
H2057 C2072 0.960 . S
H2058 C2072 0.960 . S
H2059 C2072 0.960 . S
C2060 H2052 0.929 . S
C2060 C2061 1.377 1_565 S
C2060 C2062 1.384 . S
C2061 C2060 1.377 1_545 S
C2061 C2067 1.390 . S
C2062 H2053 0.930 . S
C2062 C2060 1.384 . S
C2062 C2063 1.356 1_565 S
C2063 C2062 1.356 1_545 S
C2063 C2064 1.417 . S
C2063 C2068 1.491 . S
C2064 H2054 0.930 . S
C2064 C2063 1.417 . S
C2064 C2067 1.386 . S
H2065 C2081 0.930 . S
H2066 C2082 0.931 . S
C2067 H2055 0.929 . S
C2067 C2061 1.390 . S
C2067 C2064 1.386 . S
C2068 C2063 1.491 . S
C2068 C2070 1.395 . S
C2068 C2071 1.403 1_545 S
H2069 C2075 0.930 . S
C2070 H2056 0.930 . S
C2070 C2068 1.395 . S
C2070 C2073 1.403 . S
C2071 C2068 1.403 1_565 S
C2071 C2072 1.524 . S
C2071 C2075 1.400 . S
C2072 H2057 0.960 . S
C2072 H2058 0.960 . S
C2072 H2059 0.960 . S
C2072 C2071 1.524 . S
C2073 C2070 1.403 . S
C2073 C2074 1.392 . S
C2073 C2077 1.495 . S
C2074 C2073 1.392 . S
C2074 C2075 1.385 1_545 S
C2074 C2076 1.478 . S
C2075 H2069 0.930 . S
C2075 C2071 1.400 . S
C2075 C2074 1.385 1_565 S
C2076 C2074 1.478 . S
C2076 C2078 1.381 1_545 S
C2076 C2082 1.383 . S
C2077 C2073 1.495 . S
C2077 H2083 0.959 . S
C2077 H2084 0.961 . S
C2077 H2085 0.960 . S
C2078 C2076 1.381 1_565 S
C2078 C2079 1.394 . S
C2078 H2086 0.930 . S
C2079 C2078 1.394 . S
C2079 C2080 1.383 1_565 S
C2079 H2087 0.929 . S
C2080 C2079 1.383 1_545 S
C2080 C2081 1.377 . S
C2081 H2065 0.930 . S
C2081 C2080 1.377 . S
C2081 C2082 1.379 . S
C2082 H2066 0.931 . S
C2082 C2076 1.383 . S
C2082 C2081 1.379 . S
H2083 C2077 0.959 . S
H2084 C2077 0.961 . S
H2085 C2077 0.960 . S
H2086 C2078 0.930 . S
H2087 C2079 0.929 . S
H2088 C2096 0.929 . S
H2089 C2098 0.930 . S
H2090 C2100 0.930 . S
H2091 C2103 0.929 . S
H2092 C2106 0.930 . S
H2093 C2108 0.960 . S
H2094 C2108 0.960 . S
H2095 C2108 0.960 . S
C2096 H2088 0.929 . S
C2096 C2097 1.377 . S
C2096 C2098 1.384 . S
C2097 C2096 1.377 . S
C2097 C2103 1.390 1_455 S
C2098 H2089 0.930 . S
C2098 C2096 1.384 . S
C2098 C2099 1.372 . S
C2099 C2098 1.372 . S
C2099 C2100 1.400 1_455 S
C2099 C2104 1.490 . S
C2100 H2090 0.930 . S
C2100 C2099 1.400 1_655 S
C2100 C2103 1.386 . S
H2101 C2117 0.930 . S
H2102 C2118 0.931 . S
C2103 H2091 0.929 . S
C2103 C2097 1.390 1_655 S
C2103 C2100 1.386 . S
C2104 C2099 1.490 . S
C2104 C2106 1.395 . S
C2104 C2107 1.390 1_455 S
H2105 C2111 0.912 1_655 S
C2106 H2092 0.930 . S
C2106 C2104 1.395 . S
C2106 C2109 1.403 . S
C2107 C2104 1.390 1_655 S
C2107 C2108 1.537 . S
C2107 C2111 1.399 1_655 S
C2108 H2093 0.960 . S
C2108 H2094 0.960 . S
C2108 H2095 0.960 . S
C2108 C2107 1.537 . S
C2109 C2106 1.403 . S
C2109 C2110 1.392 . S
C2109 C2113 1.495 . S
C2110 C2109 1.392 . S
C2110 C2111 1.404 . S
C2110 C2112 1.478 . S
C2111 H2105 0.912 1_455 S
C2111 C2107 1.399 1_455 S
C2111 C2110 1.404 . S
C2112 C2110 1.478 . S
C2112 C2114 1.381 . S
C2112 C2118 1.383 1_455 S
C2113 C2109 1.495 . S
C2113 H2119 0.959 . S
C2113 H2120 0.961 . S
C2113 H2121 0.960 . S
C2114 C2112 1.381 . S
C2114 C2115 1.394 . S
C2114 H2122 0.930 . S
C2115 C2114 1.394 . S
C2115 C2116 1.383 . S
C2115 H2123 0.929 . S
C2116 C2115 1.383 . S
C2116 C2117 1.377 1_455 S
C2117 H2101 0.930 . S
C2117 C2116 1.377 1_655 S
C2117 C2118 1.379 . S
C2118 H2102 0.931 . S
C2118 C2112 1.383 1_655 S
C2118 C2117 1.379 . S
H2119 C2113 0.959 . S
H2120 C2113 0.961 . S
H2121 C2113 0.960 . S
H2122 C2114 0.930 . S
H2123 C2115 0.929 . S
H2124 C2132 0.929 . S
H2125 C2134 0.930 . S
H2126 C2136 0.930 . S
H2127 C2139 0.929 . S
H2128 C2142 0.930 . S
H2129 C2144 0.960 . S
H2130 C2144 0.960 1_545 S
H2131 C2144 0.960 . S
C2132 H2124 0.929 . S
C2132 C2133 1.377 . S
C2132 C2134 1.384 . S
C2133 C2132 1.377 . S
C2133 C2139 1.390 1_545 S
C2134 H2125 0.930 . S
C2134 C2132 1.384 . S
C2134 C2135 1.372 . S
C2135 C2134 1.372 . S
C2135 C2136 1.400 1_545 S
C2135 C2140 1.490 . S
C2136 H2126 0.930 . S
C2136 C2135 1.400 1_565 S
C2136 C2139 1.386 . S
H2137 C2153 0.930 . S
H2138 C2154 0.931 . S
C2139 H2127 0.929 . S
C2139 C2133 1.390 1_565 S
C2139 C2136 1.386 . S
C2140 C2135 1.490 . S
C2140 C2142 1.395 . S
C2140 C2143 1.408 . S
H2141 C2147 0.926 1_565 S
C2142 H2128 0.930 . S
C2142 C2140 1.395 . S
C2142 C2145 1.403 . S
C2143 C2140 1.408 . S
C2143 C2144 1.522 1_545 S
C2143 C2147 1.400 . S
C2144 H2129 0.960 . S
C2144 H2130 0.960 1_565 S
C2144 H2131 0.960 . S
C2144 C2143 1.522 1_565 S
C2145 C2142 1.403 . S
C2145 C2146 1.392 . S
C2145 C2149 1.495 . S
C2146 C2145 1.392 . S
C2146 C2147 1.388 . S
C2146 C2148 1.478 . S
C2147 H2141 0.926 1_545 S
C2147 C2143 1.400 . S
C2147 C2146 1.388 . S
C2148 C2146 1.478 . S
C2148 C2150 1.381 . S
C2148 C2154 1.383 1_545 S
C2149 C2145 1.495 . S
C2149 H2155 0.959 . S
C2149 H2156 0.961 1_545 S
C2149 H2157 0.960 . S
C2150 C2148 1.381 . S
C2150 C2151 1.394 . S
C2150 H2158 0.930 . S
C2151 C2150 1.394 . S
C2151 C2152 1.383 . S
C2151 H2159 0.929 . S
C2152 C2151 1.383 . S
C2152 C2153 1.377 1_545 S
C2153 H2137 0.930 . S
C2153 C2152 1.377 1_565 S
C2153 C2154 1.379 . S
C2154 H2138 0.931 . S
C2154 C2148 1.383 1_565 S
C2154 C2153 1.379 . S
H2155 C2149 0.959 . S
H2156 C2149 0.961 1_565 S
H2157 C2149 0.960 . S
H2158 C2150 0.930 . S
H2159 C2151 0.929 . S
H2160 C2168 0.929 . S
H2161 C2170 0.930 . S
H2162 C2172 0.930 . S
H2163 C2175 0.929 . S
H2164 C2178 0.930 . S
H2165 C2180 0.960 . S
H2166 C2180 0.960 . S
H2167 C2180 0.960 . S
C2168 H2160 0.929 . S
C2168 C2169 1.377 1_655 S
C2168 C2170 1.384 . S
C2169 C2168 1.377 1_455 S
C2169 C2175 1.390 . S
C2170 H2161 0.930 . S
C2170 C2168 1.384 . S
C2170 C2171 1.372 1_655 S
C2171 C2170 1.372 1_455 S
C2171 C2172 1.400 . S
C2171 C2176 1.490 . S
C2172 H2162 0.930 . S
C2172 C2171 1.400 . S
C2172 C2175 1.386 . S
H2173 C2189 0.930 . S
H2174 C2190 0.931 . S
C2175 H2163 0.929 . S
C2175 C2169 1.390 . S
C2175 C2172 1.386 . S
C2176 C2171 1.490 . S
C2176 C2178 1.395 1_455 S
C2176 C2179 1.403 . S
H2177 C2183 0.930 . S
C2178 H2164 0.930 . S
C2178 C2176 1.395 1_655 S
C2178 C2181 1.403 . S
C2179 C2176 1.403 . S
C2179 C2180 1.524 . S
C2179 C2183 1.400 . S
C2180 H2165 0.960 . S
C2180 H2166 0.960 . S
C2180 H2167 0.960 . S
C2180 C2179 1.524 . S
C2181 C2178 1.403 . S
C2181 C2182 1.392 1_655 S
C2181 C2185 1.495 . S
C2182 C2181 1.392 1_455 S
C2182 C2183 1.385 . S
C2182 C2184 1.478 . S
C2183 H2177 0.930 . S
C2183 C2179 1.400 . S
C2183 C2182 1.385 . S
C2184 C2182 1.478 . S
C2184 C2186 1.381 1_455 S
C2184 C2190 1.383 . S
C2185 C2181 1.495 . S
C2185 H2191 0.959 . S
C2185 H2192 0.961 . S
C2185 H2193 0.960 . S
C2186 C2184 1.381 1_655 S
C2186 C2187 1.394 . S
C2186 H2194 0.930 . S
C2187 C2186 1.394 . S
C2187 C2188 1.383 1_655 S
C2187 H2195 0.929 . S
C2188 C2187 1.383 1_455 S
C2188 C2189 1.377 . S
C2189 H2173 0.930 . S
C2189 C2188 1.377 . S
C2189 C2190 1.379 . S
C2190 H2174 0.931 . S
C2190 C2184 1.383 . S
C2190 C2189 1.379 . S
H2191 C2185 0.959 . S
H2192 C2185 0.961 . S
H2193 C2185 0.960 . S
H2194 C2186 0.930 . S
H2195 C2187 0.929 . S
H2196 C2204 0.929 . S
H2197 C2206 0.930 . S
H2198 C2208 0.930 . S
H2199 C2211 0.929 . S
H2200 C2214 0.930 . S
H2201 C2216 0.960 . S
H2202 C2216 0.960 . S
H2203 C2216 0.960 . S
C2204 H2196 0.929 . S
C2204 C2205 1.377 . S
C2204 C2206 1.384 . S
C2205 C2204 1.377 . S
C2205 C2211 1.390 1_554 S
C2206 H2197 0.930 . S
C2206 C2204 1.384 . S
C2206 C2207 1.372 . S
C2207 C2206 1.372 . S
C2207 C2208 1.400 1_554 S
C2207 C2212 1.490 . S
C2208 H2198 0.930 . S
C2208 C2207 1.400 1_556 S
C2208 C2211 1.386 . S
H2209 C2225 0.930 . S
H2210 C2226 0.949 . S
C2211 H2199 0.929 . S
C2211 C2205 1.390 1_556 S
C2211 C2208 1.386 . S
C2212 C2207 1.490 . S
C2212 C2214 1.395 . S
C2212 C2215 1.403 1_554 S
H2213 C2219 0.930 . S
C2214 H2200 0.930 . S
C2214 C2212 1.395 . S
C2214 C2217 1.403 . S
C2215 C2212 1.403 1_556 S
C2215 C2216 1.524 . S
C2215 C2219 1.400 . S
C2216 H2201 0.960 . S
C2216 H2202 0.960 . S
C2216 H2203 0.960 . S
C2216 C2215 1.524 . S
C2217 C2214 1.403 . S
C2217 C2218 1.392 . S
C2217 C2221 1.495 . S
C2218 C2217 1.392 . S
C2218 C2219 1.385 1_554 S
C2218 C2220 1.478 . S
C2219 H2213 0.930 . S
C2219 C2215 1.400 . S
C2219 C2218 1.385 1_556 S
C2220 C2218 1.478 . S
C2220 C2222 1.381 . S
C2220 C2226 1.363 1_554 S
C2221 C2217 1.495 . S
C2221 H2227 0.959 . S
C2221 H2228 0.961 . S
C2221 H2229 0.960 . S
C2222 C2220 1.381 . S
C2222 C2223 1.394 . S
C2222 H2230 0.930 . S
C2223 C2222 1.394 . S
C2223 C2224 1.383 . S
C2223 H2231 0.929 . S
C2224 C2223 1.383 . S
C2224 C2225 1.377 1_554 S
C2225 H2209 0.930 . S
C2225 C2224 1.377 1_556 S
C2225 C2226 1.385 . S
C2226 H2210 0.949 . S
C2226 C2220 1.363 1_556 S
C2226 C2225 1.385 . S
H2227 C2221 0.959 . S
H2228 C2221 0.961 . S
H2229 C2221 0.960 . S
H2230 C2222 0.930 . S
H2231 C2223 0.929 . S
H2232 C2240 0.929 . S
H2233 C2242 0.930 . S
H2234 C2244 0.930 . S
H2235 C2247 0.929 . S
H2236 C2250 0.930 . S
H2237 C2252 0.955 1_556 S
H2238 C2252 0.960 . S
H2239 C2252 0.960 1_556 S
C2240 H2232 0.929 . S
C2240 C2241 1.377 . S
C2240 C2242 1.384 . S
C2241 C2240 1.377 . S
C2241 C2247 1.390 1_554 S
C2242 H2233 0.930 . S
C2242 C2240 1.384 . S
C2242 C2243 1.372 . S
C2243 C2242 1.372 . S
C2243 C2244 1.400 1_554 S
C2243 C2248 1.490 . S
C2244 H2234 0.930 . S
C2244 C2243 1.400 1_556 S
C2244 C2247 1.386 . S
H2245 C2261 0.930 . S
H2246 C2262 0.931 . S
C2247 H2235 0.929 . S
C2247 C2241 1.390 1_556 S
C2247 C2244 1.386 . S
C2248 C2243 1.490 . S
C2248 C2250 1.395 . S
C2248 C2251 1.403 . S
H2249 C2255 0.932 . S
C2250 H2236 0.930 . S
C2250 C2248 1.395 . S
C2250 C2253 1.403 . S
C2251 C2248 1.403 . S
C2251 C2252 1.524 . S
C2251 C2255 1.400 . S
C2252 H2237 0.955 1_554 S
C2252 H2238 0.960 . S
C2252 H2239 0.960 1_554 S
C2252 C2251 1.524 . S
C2253 C2250 1.403 . S
C2253 C2254 1.392 . S
C2253 C2257 1.495 . S
C2254 C2253 1.392 . S
C2254 C2255 1.385 . S
C2254 C2256 1.478 . S
C2255 H2249 0.932 . S
C2255 C2251 1.400 . S
C2255 C2254 1.385 . S
C2256 C2254 1.478 . S
C2256 C2258 1.381 . S
C2256 C2262 1.383 1_554 S
C2257 C2253 1.495 . S
C2257 H2263 0.959 . S
C2257 H2264 0.961 1_554 S
C2257 H2265 0.960 . S
C2258 C2256 1.381 . S
C2258 C2259 1.394 . S
C2258 H2266 0.930 . S
C2259 C2258 1.394 . S
C2259 C2260 1.383 . S
C2259 H2267 0.929 . S
C2260 C2259 1.383 . S
C2260 C2261 1.377 1_554 S
C2261 H2245 0.930 . S
C2261 C2260 1.377 1_556 S
C2261 C2262 1.379 . S
C2262 H2246 0.931 . S
C2262 C2256 1.383 1_556 S
C2262 C2261 1.379 . S
H2263 C2257 0.959 . S
H2264 C2257 0.961 1_556 S
H2265 C2257 0.960 . S
H2266 C2258 0.930 . S
H2267 C2259 0.929 . S
H2268 C2276 0.929 . S
H2269 C2278 0.930 . S
H2270 C2280 0.948 . S
H2271 C2283 0.929 . S
H2272 C2286 0.927 1_556 S
H2273 C2288 0.960 . S
H2274 C2288 0.960 . S
H2275 C2288 0.960 . S
C2276 H2268 0.929 . S
C2276 C2277 1.377 . S
C2276 C2278 1.384 . S
C2277 C2276 1.377 . S
C2277 C2283 1.390 1_554 S
C2278 H2269 0.930 . S
C2278 C2276 1.384 . S
C2278 C2279 1.372 . S
C2279 C2278 1.372 . S
C2279 C2280 1.382 1_554 S
C2279 C2284 1.490 . S
C2280 H2270 0.948 . S
C2280 C2279 1.382 1_556 S
C2280 C2283 1.387 . S
H2281 C2297 0.930 . S
H2282 C2298 0.931 . S
C2283 H2271 0.929 . S
C2283 C2277 1.390 1_556 S
C2283 C2280 1.387 . S
C2284 C2279 1.490 . S
C2284 C2286 1.395 . S
C2284 C2287 1.403 . S
H2285 C2291 0.930 . S
C2286 H2272 0.927 1_554 S
C2286 C2284 1.395 . S
C2286 C2289 1.403 . S
C2287 C2284 1.403 . S
C2287 C2288 1.524 . S
C2287 C2291 1.400 . S
C2288 H2273 0.960 . S
C2288 H2274 0.960 . S
C2288 H2275 0.960 . S
C2288 C2287 1.524 . S
C2289 C2286 1.403 . S
C2289 C2290 1.392 . S
C2289 C2293 1.495 1_554 S
C2290 C2289 1.392 . S
C2290 C2291 1.385 . S
C2290 C2292 1.478 . S
C2291 H2285 0.930 . S
C2291 C2287 1.400 . S
C2291 C2290 1.385 . S
C2292 C2290 1.478 . S
C2292 C2294 1.381 . S
C2292 C2298 1.383 1_554 S
C2293 C2289 1.495 1_556 S
C2293 H2299 0.959 . S
C2293 H2300 0.961 . S
C2293 H2301 0.960 1_556 S
C2294 C2292 1.381 . S
C2294 C2295 1.394 . S
C2294 H2302 0.930 . S
C2295 C2294 1.394 . S
C2295 C2296 1.383 . S
C2295 H2303 0.929 . S
C2296 C2295 1.383 . S
C2296 C2297 1.377 1_554 S
C2297 H2281 0.930 . S
C2297 C2296 1.377 1_556 S
C2297 C2298 1.379 . S
C2298 H2282 0.931 . S
C2298 C2292 1.383 1_556 S
C2298 C2297 1.379 . S
H2299 C2293 0.959 . S
H2300 C2293 0.961 . S
H2301 C2293 0.960 1_554 S
H2302 C2294 0.930 . S
H2303 C2295 0.929 . S
H2304 C2312 0.929 . S
H2305 C2314 0.930 . S
H2306 C2316 0.930 . S
H2307 C2319 0.929 . S
H2308 C2322 0.930 . S
H2309 C2324 0.960 . S
H2310 C2324 0.960 . S
H2311 C2324 0.960 . S
C2312 H2304 0.929 . S
C2312 C2313 1.377 . S
C2312 C2314 1.384 . S
C2313 C2312 1.377 . S
C2313 C2319 1.390 1_554 S
C2314 H2305 0.930 . S
C2314 C2312 1.384 . S
C2314 C2315 1.372 . S
C2315 C2314 1.372 . S
C2315 C2316 1.400 1_554 S
C2315 C2320 1.490 . S
C2316 H2306 0.930 . S
C2316 C2315 1.400 1_556 S
C2316 C2319 1.386 . S
H2317 C2333 0.930 . S
H2318 C2334 0.931 . S
C2319 H2307 0.929 . S
C2319 C2313 1.390 1_556 S
C2319 C2316 1.386 . S
C2320 C2315 1.490 . S
C2320 C2322 1.395 . S
C2320 C2323 1.403 1_554 S
H2321 C2327 0.930 . S
C2322 H2308 0.930 . S
C2322 C2320 1.395 . S
C2322 C2325 1.403 . S
C2323 C2320 1.403 1_556 S
C2323 C2324 1.524 . S
C2323 C2327 1.400 . S
C2324 H2309 0.960 . S
C2324 H2310 0.960 . S
C2324 H2311 0.960 . S
C2324 C2323 1.524 . S
C2325 C2322 1.403 . S
C2325 C2326 1.392 . S
C2325 C2329 1.495 . S
C2326 C2325 1.392 . S
C2326 C2327 1.385 1_554 S
C2326 C2328 1.478 . S
C2327 H2321 0.930 . S
C2327 C2323 1.400 . S
C2327 C2326 1.385 1_556 S
C2328 C2326 1.478 . S
C2328 C2330 1.381 . S
C2328 C2334 1.383 1_554 S
C2329 C2325 1.495 . S
C2329 H2335 0.959 . S
C2329 H2336 0.961 . S
C2329 H2337 0.960 . S
C2330 C2328 1.381 . S
C2330 C2331 1.394 . S
C2330 H2338 0.930 . S
C2331 C2330 1.394 . S
C2331 C2332 1.383 . S
C2331 H2339 0.929 . S
C2332 C2331 1.383 . S
C2332 C2333 1.377 1_554 S
C2333 H2317 0.930 . S
C2333 C2332 1.377 1_556 S
C2333 C2334 1.379 . S
C2334 H2318 0.931 . S
C2334 C2328 1.383 1_556 S
C2334 C2333 1.379 . S
H2335 C2329 0.959 . S
H2336 C2329 0.961 . S
H2337 C2329 0.960 . S
H2338 C2330 0.930 . S
H2339 C2331 0.929 . S
H2340 C2348 0.929 . S
H2341 C2350 0.930 . S
H2342 C2352 0.930 . S
H2343 C2355 0.929 . S
H2344 C2358 0.930 . S
H2345 C2360 0.960 . S
H2346 C2360 0.960 . S
H2347 C2360 0.960 . S
C2348 H2340 0.929 . S
C2348 C2349 1.377 . S
C2348 C2350 1.384 . S
C2349 C2348 1.377 . S
C2349 C2355 1.390 1_554 S
C2350 H2341 0.930 . S
C2350 C2348 1.384 . S
C2350 C2351 1.372 . S
C2351 C2350 1.372 . S
C2351 C2352 1.400 1_554 S
C2351 C2356 1.490 . S
C2352 H2342 0.930 . S
C2352 C2351 1.400 1_556 S
C2352 C2355 1.386 . S
H2353 C2369 0.912 1_556 S
H2354 C2370 0.948 . S
C2355 H2343 0.929 . S
C2355 C2349 1.390 1_556 S
C2355 C2352 1.386 . S
C2356 C2351 1.490 . S
C2356 C2358 1.395 . S
C2356 C2359 1.403 1_554 S
H2357 C2363 0.930 . S
C2358 H2344 0.930 . S
C2358 C2356 1.395 . S
C2358 C2361 1.403 . S
C2359 C2356 1.403 1_556 S
C2359 C2360 1.524 . S
C2359 C2363 1.400 . S
C2360 H2345 0.960 . S
C2360 H2346 0.960 . S
C2360 H2347 0.960 . S
C2360 C2359 1.524 . S
C2361 C2358 1.403 . S
C2361 C2362 1.392 . S
C2361 C2365 1.495 . S
C2362 C2361 1.392 . S
C2362 C2363 1.385 1_554 S
C2362 C2364 1.478 . S
C2363 H2357 0.930 . S
C2363 C2359 1.400 . S
C2363 C2362 1.385 1_556 S
C2364 C2362 1.478 . S
C2364 C2366 1.381 . S
C2364 C2370 1.383 . S
C2365 C2361 1.495 . S
C2365 H2371 0.959 . S
C2365 H2372 0.961 . S
C2365 H2373 0.960 . S
C2366 C2364 1.381 . S
C2366 C2367 1.394 . S
C2366 H2374 0.930 . S
C2367 C2366 1.394 . S
C2367 C2368 1.383 . S
C2367 H2375 0.929 . S
C2368 C2367 1.383 . S
C2368 C2369 1.377 . S
C2369 H2353 0.912 1_554 S
C2369 C2368 1.377 . S
C2369 C2370 1.379 . S
C2370 H2354 0.948 . S
C2370 C2364 1.383 . S
C2370 C2369 1.379 . S
H2371 C2365 0.959 . S
H2372 C2365 0.961 . S
H2373 C2365 0.960 . S
H2374 C2366 0.930 . S
H2375 C2367 0.929 . S
H2376 C2384 0.929 . S
H2377 C2386 0.930 . S
H2378 C2388 0.923 1_556 S
H2379 C2391 0.929 . S
H2380 C2394 0.930 . S
H2381 C2396 0.960 . S
H2382 C2396 0.960 . S
H2383 C2396 0.960 . S
C2384 H2376 0.929 . S
C2384 C2385 1.377 . S
C2384 C2386 1.384 . S
C2385 C2384 1.377 . S
C2385 C2391 1.390 . S
C2386 H2377 0.930 . S
C2386 C2384 1.384 . S
C2386 C2387 1.372 . S
C2387 C2386 1.372 . S
C2387 C2388 1.400 . S
C2387 C2392 1.490 . S
C2388 H2378 0.923 1_554 S
C2388 C2387 1.400 . S
C2388 C2391 1.386 . S
H2389 C2405 0.930 . S
H2390 C2406 0.931 . S
C2391 H2379 0.929 . S
C2391 C2385 1.390 . S
C2391 C2388 1.386 . S
C2392 C2387 1.490 . S
C2392 C2394 1.395 . S
C2392 C2395 1.403 1_554 S
H2393 C2399 0.930 . S
C2394 H2380 0.930 . S
C2394 C2392 1.395 . S
C2394 C2397 1.403 . S
C2395 C2392 1.403 1_556 S
C2395 C2396 1.524 . S
C2395 C2399 1.400 . S
C2396 H2381 0.960 . S
C2396 H2382 0.960 . S
C2396 H2383 0.960 . S
C2396 C2395 1.524 . S
C2397 C2394 1.403 . S
C2397 C2398 1.392 . S
C2397 C2401 1.495 . S
C2398 C2397 1.392 . S
C2398 C2399 1.385 1_554 S
C2398 C2400 1.478 . S
C2399 H2393 0.930 . S
C2399 C2395 1.400 . S
C2399 C2398 1.385 1_556 S
C2400 C2398 1.478 . S
C2400 C2402 1.381 . S
C2400 C2406 1.383 . S
C2401 C2397 1.495 . S
C2401 H2407 0.959 . S
C2401 H2408 0.961 . S
C2401 H2409 0.960 . S
C2402 C2400 1.381 . S
C2402 C2403 1.394 . S
C2402 H2410 0.930 . S
C2403 C2402 1.394 . S
C2403 C2404 1.383 . S
C2403 H2411 0.929 . S
C2404 C2403 1.383 . S
C2404 C2405 1.377 . S
C2405 H2389 0.930 . S
C2405 C2404 1.377 . S
C2405 C2406 1.379 . S
C2406 H2390 0.931 . S
C2406 C2400 1.383 . S
C2406 C2405 1.379 . S
H2407 C2401 0.959 . S
H2408 C2401 0.961 . S
H2409 C2401 0.960 . S
H2410 C2402 0.930 . S
H2411 C2403 0.929 . S
H2412 C2420 0.929 . S
H2413 C2422 0.930 . S
H2414 C2424 0.930 . S
H2415 C2427 0.929 . S
H2416 C2430 0.930 . S
H2417 C2432 0.960 . S
H2418 C2432 0.960 . S
H2419 C2432 0.960 1_556 S
C2420 H2412 0.929 . S
C2420 C2421 1.377 . S
C2420 C2422 1.384 . S
C2421 C2420 1.377 . S
C2421 C2427 1.390 1_554 S
C2422 H2413 0.930 . S
C2422 C2420 1.384 . S
C2422 C2423 1.372 . S
C2423 C2422 1.372 . S
C2423 C2424 1.400 1_554 S
C2423 C2428 1.490 . S
C2424 H2414 0.930 . S
C2424 C2423 1.400 1_556 S
C2424 C2427 1.386 . S
H2425 C2441 0.930 . S
H2426 C2442 0.931 . S
C2427 H2415 0.929 . S
C2427 C2421 1.390 1_556 S
C2427 C2424 1.386 . S
C2428 C2423 1.490 . S
C2428 C2430 1.395 . S
C2428 C2431 1.403 . S
H2429 C2435 0.930 . S
C2430 H2416 0.930 . S
C2430 C2428 1.395 . S
C2430 C2433 1.403 . S
C2431 C2428 1.403 . S
C2431 C2432 1.524 . S
C2431 C2435 1.400 . S
C2432 H2417 0.960 . S
C2432 H2418 0.960 . S
C2432 H2419 0.960 1_554 S
C2432 C2431 1.524 . S
C2433 C2430 1.403 . S
C2433 C2434 1.392 . S
C2433 C2437 1.495 . S
C2434 C2433 1.392 . S
C2434 C2435 1.385 . S
C2434 C2436 1.478 . S
C2435 H2429 0.930 . S
C2435 C2431 1.400 . S
C2435 C2434 1.385 . S
C2436 C2434 1.478 . S
C2436 C2438 1.381 . S
C2436 C2442 1.383 1_554 S
C2437 C2433 1.495 . S
C2437 H2443 0.959 . S
C2437 H2444 0.961 . S
C2437 H2445 0.960 . S
C2438 C2436 1.381 . S
C2438 C2439 1.394 . S
C2438 H2446 0.930 . S
C2439 C2438 1.394 . S
C2439 C2440 1.383 . S
C2439 H2447 0.929 . S
C2440 C2439 1.383 . S
C2440 C2441 1.377 1_554 S
C2441 H2425 0.930 . S
C2441 C2440 1.377 1_556 S
C2441 C2442 1.379 . S
C2442 H2426 0.931 . S
C2442 C2436 1.383 1_556 S
C2442 C2441 1.379 . S
H2443 C2437 0.959 . S
H2444 C2437 0.961 . S
H2445 C2437 0.960 . S
H2446 C2438 0.930 . S
H2447 C2439 0.929 . S
H2448 C2456 0.929 . S
H2449 C2458 0.930 . S
H2450 C2460 0.930 . S
H2451 C2463 0.929 . S
H2452 C2466 0.930 . S
H2453 C2468 0.960 . S
H2454 C2468 0.960 . S
H2455 C2468 0.960 . S
C2456 H2448 0.929 . S
C2456 C2457 1.377 1_556 S
C2456 C2458 1.384 . S
C2457 C2456 1.377 1_554 S
C2457 C2463 1.390 . S
C2458 H2449 0.930 . S
C2458 C2456 1.384 . S
C2458 C2459 1.372 1_556 S
C2459 C2458 1.372 1_554 S
C2459 C2460 1.400 . S
C2459 C2464 1.490 . S
C2460 H2450 0.930 . S
C2460 C2459 1.400 . S
C2460 C2463 1.386 . S
H2461 C2477 0.930 . S
H2462 C2478 0.931 . S
C2463 H2451 0.929 . S
C2463 C2457 1.390 . S
C2463 C2460 1.386 . S
C2464 C2459 1.490 . S
C2464 C2466 1.395 1_554 S
C2464 C2467 1.403 . S
H2465 C2471 0.930 . S
C2466 H2452 0.930 . S
C2466 C2464 1.395 1_556 S
C2466 C2469 1.403 . S
C2467 C2464 1.403 . S
C2467 C2468 1.524 . S
C2467 C2471 1.400 . S
C2468 H2453 0.960 . S
C2468 H2454 0.960 . S
C2468 H2455 0.960 . S
C2468 C2467 1.524 . S
C2469 C2466 1.403 . S
C2469 C2470 1.392 1_556 S
C2469 C2473 1.495 . S
C2470 C2469 1.392 1_554 S
C2470 C2471 1.385 . S
C2470 C2472 1.478 . S
C2471 H2465 0.930 . S
C2471 C2467 1.400 . S
C2471 C2470 1.385 . S
C2472 C2470 1.478 . S
C2472 C2474 1.381 1_554 S
C2472 C2478 1.383 . S
C2473 C2469 1.495 . S
C2473 H2479 0.959 . S
C2473 H2480 0.961 . S
C2473 H2481 0.960 . S
C2474 C2472 1.381 1_556 S
C2474 C2475 1.394 . S
C2474 H2482 0.930 . S
C2475 C2474 1.394 . S
C2475 C2476 1.383 1_556 S
C2475 H2483 0.929 . S
C2476 C2475 1.383 1_554 S
C2476 C2477 1.377 . S
C2477 H2461 0.930 . S
C2477 C2476 1.377 . S
C2477 C2478 1.379 . S
C2478 H2462 0.931 . S
C2478 C2472 1.383 . S
C2478 C2477 1.379 . S
H2479 C2473 0.959 . S
H2480 C2473 0.961 . S
H2481 C2473 0.960 . S
H2482 C2474 0.930 . S
H2483 C2475 0.929 . S
H2484 C2492 0.929 . S
H2485 C2494 0.930 . S
H2486 C2496 0.930 . S
H2487 C2499 0.929 . S
H2488 C2502 0.930 . S
H2489 C2504 0.960 . S
H2490 C2504 0.960 . S
H2491 C2504 0.960 . S
C2492 H2484 0.929 . S
C2492 C2493 1.377 . S
C2492 C2494 1.384 . S
C2493 C2492 1.377 . S
C2493 C2499 1.390 . S
C2494 H2485 0.930 . S
C2494 C2492 1.384 . S
C2494 C2495 1.372 . S
C2495 C2494 1.372 . S
C2495 C2496 1.400 . S
C2495 C2500 1.490 . S
C2496 H2486 0.930 . S
C2496 C2495 1.400 . S
C2496 C2499 1.386 . S
H2497 C2513 0.930 . S
H2498 C2514 0.931 . S
C2499 H2487 0.929 . S
C2499 C2493 1.390 . S
C2499 C2496 1.386 . S
C2500 C2495 1.490 . S
C2500 C2502 1.395 . S
C2500 C2503 1.403 . S
H2501 C2507 0.930 . S
C2502 H2488 0.930 . S
C2502 C2500 1.395 . S
C2502 C2505 1.403 . S
C2503 C2500 1.403 . S
C2503 C2504 1.524 . S
C2503 C2507 1.400 . S
C2504 H2489 0.960 . S
C2504 H2490 0.960 . S
C2504 H2491 0.960 . S
C2504 C2503 1.524 . S
C2505 C2502 1.403 . S
C2505 C2506 1.392 . S
C2505 C2509 1.495 . S
C2506 C2505 1.392 . S
C2506 C2507 1.385 . S
C2506 C2508 1.478 . S
C2507 H2501 0.930 . S
C2507 C2503 1.400 . S
C2507 C2506 1.385 . S
C2508 C2506 1.478 . S
C2508 C2510 1.381 . S
C2508 C2514 1.383 . S
C2509 C2505 1.495 . S
C2509 H2515 0.959 . S
C2509 H2516 0.961 . S
C2509 H2517 0.960 . S
C2510 C2508 1.381 . S
C2510 C2511 1.394 . S
C2510 H2518 0.930 . S
C2511 C2510 1.394 . S
C2511 C2512 1.383 . S
C2511 H2519 0.929 . S
C2512 C2511 1.383 . S
C2512 C2513 1.377 . S
C2513 H2497 0.930 . S
C2513 C2512 1.377 . S
C2513 C2514 1.379 . S
C2514 H2498 0.931 . S
C2514 C2508 1.383 . S
C2514 C2513 1.379 . S
H2515 C2509 0.959 . S
H2516 C2509 0.961 . S
H2517 C2509 0.960 . S
H2518 C2510 0.930 . S
H2519 C2511 0.929 . S
H2520 C2528 0.929 . S
H2521 C2530 0.930 . S
H2522 C2532 0.930 . S
H2523 C2535 0.929 . S
H2524 C2538 0.930 . S
H2525 C2540 0.960 . S
H2526 C2540 0.960 . S
H2527 C2540 0.960 . S
C2528 H2520 0.929 . S
C2528 C2529 1.377 . S
C2528 C2530 1.384 . S
C2529 C2528 1.377 . S
C2529 C2535 1.390 . S
C2530 H2521 0.930 . S
C2530 C2528 1.384 . S
C2530 C2531 1.372 . S
C2531 C2530 1.372 . S
C2531 C2532 1.400 . S
C2531 C2536 1.490 . S
C2532 H2522 0.930 . S
C2532 C2531 1.400 . S
C2532 C2535 1.386 . S
H2533 C2549 0.930 . S
H2534 C2550 0.931 . S
C2535 H2523 0.929 . S
C2535 C2529 1.390 . S
C2535 C2532 1.386 . S
C2536 C2531 1.490 . S
C2536 C2538 1.395 . S
C2536 C2539 1.403 . S
H2537 C2543 0.930 . S
C2538 H2524 0.930 . S
C2538 C2536 1.395 . S
C2538 C2541 1.403 . S
C2539 C2536 1.403 . S
C2539 C2540 1.524 . S
C2539 C2543 1.400 . S
C2540 H2525 0.960 . S
C2540 H2526 0.960 . S
C2540 H2527 0.960 . S
C2540 C2539 1.524 . S
C2541 C2538 1.403 . S
C2541 C2542 1.392 . S
C2541 C2545 1.495 . S
C2542 C2541 1.392 . S
C2542 C2543 1.385 . S
C2542 C2544 1.478 . S
C2543 H2537 0.930 . S
C2543 C2539 1.400 . S
C2543 C2542 1.385 . S
C2544 C2542 1.478 . S
C2544 C2546 1.381 . S
C2544 C2550 1.383 . S
C2545 C2541 1.495 . S
C2545 H2551 0.959 . S
C2545 H2552 0.961 . S
C2545 H2553 0.960 . S
C2546 C2544 1.381 . S
C2546 C2547 1.394 . S
C2546 H2554 0.930 . S
C2547 C2546 1.394 . S
C2547 C2548 1.383 . S
C2547 H2555 0.929 . S
C2548 C2547 1.383 . S
C2548 C2549 1.377 . S
C2549 H2533 0.930 . S
C2549 C2548 1.377 . S
C2549 C2550 1.379 . S
C2550 H2534 0.931 . S
C2550 C2544 1.383 . S
C2550 C2549 1.379 . S
H2551 C2545 0.959 . S
H2552 C2545 0.961 . S
H2553 C2545 0.960 . S
H2554 C2546 0.930 . S
H2555 C2547 0.929 . S
H2556 C2564 0.929 . S
H2557 C2566 0.930 . S
H2558 C2568 0.930 . S
H2559 C2571 0.929 . S
H2560 C2574 0.930 . S
H2561 C2576 0.960 . S
H2562 C2576 0.960 . S
H2563 C2576 0.960 . S
C2564 H2556 0.929 . S
C2564 C2565 1.377 . S
C2564 C2566 1.384 . S
C2565 C2564 1.377 . S
C2565 C2571 1.390 . S
C2566 H2557 0.930 . S
C2566 C2564 1.384 . S
C2566 C2567 1.372 . S
C2567 C2566 1.372 . S
C2567 C2568 1.400 . S
C2567 C2572 1.490 . S
C2568 H2558 0.930 . S
C2568 C2567 1.400 . S
C2568 C2571 1.386 . S
H2569 C2585 0.930 . S
H2570 C2586 0.931 . S
C2571 H2559 0.929 . S
C2571 C2565 1.390 . S
C2571 C2568 1.386 . S
C2572 C2567 1.490 . S
C2572 C2574 1.395 . S
C2572 C2575 1.403 . S
H2573 C2579 0.930 . S
C2574 H2560 0.930 . S
C2574 C2572 1.395 . S
C2574 C2577 1.403 . S
C2575 C2572 1.403 . S
C2575 C2576 1.524 . S
C2575 C2579 1.400 . S
C2576 H2561 0.960 . S
C2576 H2562 0.960 . S
C2576 H2563 0.960 . S
C2576 C2575 1.524 . S
C2577 C2574 1.403 . S
C2577 C2578 1.392 . S
C2577 C2581 1.495 . S
C2578 C2577 1.392 . S
C2578 C2579 1.385 . S
C2578 C2580 1.478 . S
C2579 H2573 0.930 . S
C2579 C2575 1.400 . S
C2579 C2578 1.385 . S
C2580 C2578 1.478 . S
C2580 C2582 1.381 . S
C2580 C2586 1.383 . S
C2581 C2577 1.495 . S
C2581 H2587 0.959 . S
C2581 H2588 0.961 . S
C2581 H2589 0.960 . S
C2582 C2580 1.381 . S
C2582 C2583 1.394 . S
C2582 H2590 0.930 . S
C2583 C2582 1.394 . S
C2583 C2584 1.383 . S
C2583 H2591 0.929 . S
C2584 C2583 1.383 . S
C2584 C2585 1.377 . S
C2585 H2569 0.930 . S
C2585 C2584 1.377 . S
C2585 C2586 1.379 . S
C2586 H2570 0.931 . S
C2586 C2580 1.383 . S
C2586 C2585 1.379 . S
H2587 C2581 0.959 . S
H2588 C2581 0.961 . S
H2589 C2581 0.960 . S
H2590 C2582 0.930 . S
H2591 C2583 0.929 . S
H2592 C2600 0.929 . S
H2593 C2602 0.930 . S
H2594 C2604 0.930 . S
H2595 C2607 0.929 . S
H2596 C2610 0.930 . S
H2597 C2612 0.960 . S
H2598 C2612 0.960 . S
H2599 C2612 0.960 . S
C2600 H2592 0.929 . S
C2600 C2601 1.377 . S
C2600 C2602 1.384 . S
C2601 C2600 1.377 . S
C2601 C2607 1.390 . S
C2602 H2593 0.930 . S
C2602 C2600 1.384 . S
C2602 C2603 1.372 . S
C2603 C2602 1.372 . S
C2603 C2604 1.400 . S
C2603 C2608 1.490 . S
C2604 H2594 0.930 . S
C2604 C2603 1.400 . S
C2604 C2607 1.386 . S
H2605 C2621 0.930 . S
H2606 C2622 0.931 . S
C2607 H2595 0.929 . S
C2607 C2601 1.390 . S
C2607 C2604 1.386 . S
C2608 C2603 1.490 . S
C2608 C2610 1.395 . S
C2608 C2611 1.403 . S
H2609 C2615 0.930 . S
C2610 H2596 0.930 . S
C2610 C2608 1.395 . S
C2610 C2613 1.403 . S
C2611 C2608 1.403 . S
C2611 C2612 1.524 . S
C2611 C2615 1.400 . S
C2612 H2597 0.960 . S
C2612 H2598 0.960 . S
C2612 H2599 0.960 . S
C2612 C2611 1.524 . S
C2613 C2610 1.403 . S
C2613 C2614 1.392 . S
C2613 C2617 1.495 . S
C2614 C2613 1.392 . S
C2614 C2615 1.385 . S
C2614 C2616 1.478 . S
C2615 H2609 0.930 . S
C2615 C2611 1.400 . S
C2615 C2614 1.385 . S
C2616 C2614 1.478 . S
C2616 C2618 1.381 . S
C2616 C2622 1.383 . S
C2617 C2613 1.495 . S
C2617 H2623 0.959 . S
C2617 H2624 0.961 . S
C2617 H2625 0.960 . S
C2618 C2616 1.381 . S
C2618 C2619 1.394 . S
C2618 H2626 0.930 . S
C2619 C2618 1.394 . S
C2619 C2620 1.383 . S
C2619 H2627 0.929 . S
C2620 C2619 1.383 . S
C2620 C2621 1.377 . S
C2621 H2605 0.930 . S
C2621 C2620 1.377 . S
C2621 C2622 1.379 . S
C2622 H2606 0.931 . S
C2622 C2616 1.383 . S
C2622 C2621 1.379 . S
H2623 C2617 0.959 . S
H2624 C2617 0.961 . S
H2625 C2617 0.960 . S
H2626 C2618 0.930 . S
H2627 C2619 0.929 . S
H2628 C2636 0.929 . S
H2629 C2638 0.930 . S
H2630 C2640 0.930 . S
H2631 C2643 0.929 . S
H2632 C2646 0.930 . S
H2633 C2648 0.960 . S
H2634 C2648 0.960 . S
H2635 C2648 0.960 . S
C2636 H2628 0.929 . S
C2636 C2637 1.377 . S
C2636 C2638 1.384 . S
C2637 C2636 1.377 . S
C2637 C2643 1.390 . S
C2638 H2629 0.930 . S
C2638 C2636 1.384 . S
C2638 C2639 1.372 . S
C2639 C2638 1.372 . S
C2639 C2640 1.400 . S
C2639 C2644 1.490 . S
C2640 H2630 0.930 . S
C2640 C2639 1.400 . S
C2640 C2643 1.386 . S
H2641 C2657 0.930 . S
H2642 C2658 0.931 . S
C2643 H2631 0.929 . S
C2643 C2637 1.390 . S
C2643 C2640 1.386 . S
C2644 C2639 1.490 . S
C2644 C2646 1.395 . S
C2644 C2647 1.403 . S
H2645 C2651 0.930 . S
C2646 H2632 0.930 . S
C2646 C2644 1.395 . S
C2646 C2649 1.403 . S
C2647 C2644 1.403 . S
C2647 C2648 1.524 . S
C2647 C2651 1.400 . S
C2648 H2633 0.960 . S
C2648 H2634 0.960 . S
C2648 H2635 0.960 . S
C2648 C2647 1.524 . S
C2649 C2646 1.403 . S
C2649 C2650 1.392 . S
C2649 C2653 1.495 . S
C2650 C2649 1.392 . S
C2650 C2651 1.385 . S
C2650 C2652 1.478 . S
C2651 H2645 0.930 . S
C2651 C2647 1.400 . S
C2651 C2650 1.385 . S
C2652 C2650 1.478 . S
C2652 C2654 1.381 . S
C2652 C2658 1.383 . S
C2653 C2649 1.495 . S
C2653 H2659 0.959 . S
C2653 H2660 0.961 . S
C2653 H2661 0.960 . S
C2654 C2652 1.381 . S
C2654 C2655 1.394 . S
C2654 H2662 0.930 . S
C2655 C2654 1.394 . S
C2655 C2656 1.383 . S
C2655 H2663 0.929 . S
C2656 C2655 1.383 . S
C2656 C2657 1.377 . S
C2657 H2641 0.930 . S
C2657 C2656 1.377 . S
C2657 C2658 1.379 . S
C2658 H2642 0.931 . S
C2658 C2652 1.383 . S
C2658 C2657 1.379 . S
H2659 C2653 0.959 . S
H2660 C2653 0.961 . S
H2661 C2653 0.960 . S
H2662 C2654 0.930 . S
H2663 C2655 0.929 . S
H2664 C2672 0.929 . S
H2665 C2674 0.930 . S
H2666 C2676 0.930 . S
H2667 C2679 0.929 . S
H2668 C2682 0.930 . S
H2669 C2684 0.960 . S
H2670 C2684 0.960 . S
H2671 C2684 0.960 . S
C2672 H2664 0.929 . S
C2672 C2673 1.377 . S
C2672 C2674 1.384 . S
C2673 C2672 1.377 . S
C2673 C2679 1.390 . S
C2674 H2665 0.930 . S
C2674 C2672 1.384 . S
C2674 C2675 1.372 . S
C2675 C2674 1.372 . S
C2675 C2676 1.400 . S
C2675 C2680 1.490 . S
C2676 H2666 0.930 . S
C2676 C2675 1.400 . S
C2676 C2679 1.386 . S
H2677 C2693 0.930 . S
H2678 C2694 0.931 . S
C2679 H2667 0.929 . S
C2679 C2673 1.390 . S
C2679 C2676 1.386 . S
C2680 C2675 1.490 . S
C2680 C2682 1.395 . S
C2680 C2683 1.403 . S
H2681 C2687 0.930 . S
C2682 H2668 0.930 . S
C2682 C2680 1.395 . S
C2682 C2685 1.403 . S
C2683 C2680 1.403 . S
C2683 C2684 1.524 . S
C2683 C2687 1.400 . S
C2684 H2669 0.960 . S
C2684 H2670 0.960 . S
C2684 H2671 0.960 . S
C2684 C2683 1.524 . S
C2685 C2682 1.403 . S
C2685 C2686 1.392 . S
C2685 C2689 1.495 . S
C2686 C2685 1.392 . S
C2686 C2687 1.385 . S
C2686 C2688 1.478 . S
C2687 H2681 0.930 . S
C2687 C2683 1.400 . S
C2687 C2686 1.385 . S
C2688 C2686 1.478 . S
C2688 C2690 1.381 . S
C2688 C2694 1.383 . S
C2689 C2685 1.495 . S
C2689 H2695 0.959 . S
C2689 H2696 0.961 . S
C2689 H2697 0.960 . S
C2690 C2688 1.381 . S
C2690 C2691 1.394 . S
C2690 H2698 0.930 . S
C2691 C2690 1.394 . S
C2691 C2692 1.383 . S
C2691 H2699 0.929 . S
C2692 C2691 1.383 . S
C2692 C2693 1.377 . S
C2693 H2677 0.930 . S
C2693 C2692 1.377 . S
C2693 C2694 1.379 . S
C2694 H2678 0.931 . S
C2694 C2688 1.383 . S
C2694 C2693 1.379 . S
H2695 C2689 0.959 . S
H2696 C2689 0.961 . S
H2697 C2689 0.960 . S
H2698 C2690 0.930 . S
H2699 C2691 0.929 . S
H2700 C2708 0.929 . S
H2701 C2710 0.930 . S
H2702 C2712 0.930 . S
H2703 C2715 0.929 . S
H2704 C2718 0.930 . S
H2705 C2720 0.960 . S
H2706 C2720 0.960 . S
H2707 C2720 0.960 . S
C2708 H2700 0.929 . S
C2708 C2709 1.377 . S
C2708 C2710 1.384 . S
C2709 C2708 1.377 . S
C2709 C2715 1.390 . S
C2710 H2701 0.930 . S
C2710 C2708 1.384 . S
C2710 C2711 1.372 . S
C2711 C2710 1.372 . S
C2711 C2712 1.400 . S
C2711 C2716 1.490 . S
C2712 H2702 0.930 . S
C2712 C2711 1.400 . S
C2712 C2715 1.386 . S
H2713 C2729 0.930 . S
H2714 C2730 0.931 . S
C2715 H2703 0.929 . S
C2715 C2709 1.390 . S
C2715 C2712 1.386 . S
C2716 C2711 1.490 . S
C2716 C2718 1.395 . S
C2716 C2719 1.403 . S
H2717 C2723 0.930 . S
C2718 H2704 0.930 . S
C2718 C2716 1.395 . S
C2718 C2721 1.403 . S
C2719 C2716 1.403 . S
C2719 C2720 1.524 . S
C2719 C2723 1.400 . S
C2720 H2705 0.960 . S
C2720 H2706 0.960 . S
C2720 H2707 0.960 . S
C2720 C2719 1.524 . S
C2721 C2718 1.403 . S
C2721 C2722 1.392 . S
C2721 C2725 1.495 . S
C2722 C2721 1.392 . S
C2722 C2723 1.385 . S
C2722 C2724 1.478 . S
C2723 H2717 0.930 . S
C2723 C2719 1.400 . S
C2723 C2722 1.385 . S
C2724 C2722 1.478 . S
C2724 C2726 1.381 . S
C2724 C2730 1.383 . S
C2725 C2721 1.495 . S
C2725 H2731 0.959 . S
C2725 H2732 0.961 . S
C2725 H2733 0.960 . S
C2726 C2724 1.381 . S
C2726 C2727 1.394 . S
C2726 H2734 0.930 . S
C2727 C2726 1.394 . S
C2727 C2728 1.383 . S
C2727 H2735 0.929 . S
C2728 C2727 1.383 . S
C2728 C2729 1.377 . S
C2729 H2713 0.930 . S
C2729 C2728 1.377 . S
C2729 C2730 1.379 . S
C2730 H2714 0.931 . S
C2730 C2724 1.383 . S
C2730 C2729 1.379 . S
H2731 C2725 0.959 . S
H2732 C2725 0.961 . S
H2733 C2725 0.960 . S
H2734 C2726 0.930 . S
H2735 C2727 0.929 . S
H2736 C2744 0.929 . S
H2737 C2746 0.930 . S
H2738 C2748 0.930 . S
H2739 C2751 0.929 . S
H2740 C2754 0.930 . S
H2741 C2756 0.960 . S
H2742 C2756 0.960 . S
H2743 C2756 0.960 . S
C2744 H2736 0.929 . S
C2744 C2745 1.377 . S
C2744 C2746 1.384 . S
C2745 C2744 1.377 . S
C2745 C2751 1.390 . S
C2746 H2737 0.930 . S
C2746 C2744 1.384 . S
C2746 C2747 1.372 . S
C2747 C2746 1.372 . S
C2747 C2748 1.400 . S
C2747 C2752 1.490 . S
C2748 H2738 0.930 . S
C2748 C2747 1.400 . S
C2748 C2751 1.386 . S
H2749 C2765 0.930 . S
H2750 C2766 0.931 . S
C2751 H2739 0.929 . S
C2751 C2745 1.390 . S
C2751 C2748 1.386 . S
C2752 C2747 1.490 . S
C2752 C2754 1.395 . S
C2752 C2755 1.403 . S
H2753 C2759 0.930 . S
C2754 H2740 0.930 . S
C2754 C2752 1.395 . S
C2754 C2757 1.403 . S
C2755 C2752 1.403 . S
C2755 C2756 1.524 . S
C2755 C2759 1.400 . S
C2756 H2741 0.960 . S
C2756 H2742 0.960 . S
C2756 H2743 0.960 . S
C2756 C2755 1.524 . S
C2757 C2754 1.403 . S
C2757 C2758 1.392 . S
C2757 C2761 1.495 . S
C2758 C2757 1.392 . S
C2758 C2759 1.385 . S
C2758 C2760 1.478 . S
C2759 H2753 0.930 . S
C2759 C2755 1.400 . S
C2759 C2758 1.385 . S
C2760 C2758 1.478 . S
C2760 C2762 1.381 . S
C2760 C2766 1.383 . S
C2761 C2757 1.495 . S
C2761 H2767 0.959 . S
C2761 H2768 0.961 . S
C2761 H2769 0.960 . S
C2762 C2760 1.381 . S
C2762 C2763 1.394 . S
C2762 H2770 0.930 . S
C2763 C2762 1.394 . S
C2763 C2764 1.383 . S
C2763 H2771 0.929 . S
C2764 C2763 1.383 . S
C2764 C2765 1.377 . S
C2765 H2749 0.930 . S
C2765 C2764 1.377 . S
C2765 C2766 1.379 . S
C2766 H2750 0.931 . S
C2766 C2760 1.383 . S
C2766 C2765 1.379 . S
H2767 C2761 0.959 . S
H2768 C2761 0.961 . S
H2769 C2761 0.960 . S
H2770 C2762 0.930 . S
H2771 C2763 0.929 . S
H2772 C2780 0.929 . S
H2773 C2782 0.930 . S
H2774 C2784 0.930 . S
H2775 C2787 0.929 . S
H2776 C2790 0.930 . S
H2777 C2792 0.960 . S
H2778 C2792 0.960 . S
H2779 C2792 0.960 . S
C2780 H2772 0.929 . S
C2780 C2781 1.377 . S
C2780 C2782 1.384 . S
C2781 C2780 1.377 . S
C2781 C2787 1.390 . S
C2782 H2773 0.930 . S
C2782 C2780 1.384 . S
C2782 C2783 1.372 . S
C2783 C2782 1.372 . S
C2783 C2784 1.400 . S
C2783 C2788 1.490 . S
C2784 H2774 0.930 . S
C2784 C2783 1.400 . S
C2784 C2787 1.386 . S
H2785 C2801 0.930 . S
H2786 C2802 0.931 . S
C2787 H2775 0.929 . S
C2787 C2781 1.390 . S
C2787 C2784 1.386 . S
C2788 C2783 1.490 . S
C2788 C2790 1.395 . S
C2788 C2791 1.403 . S
H2789 C2795 0.930 . S
C2790 H2776 0.930 . S
C2790 C2788 1.395 . S
C2790 C2793 1.403 . S
C2791 C2788 1.403 . S
C2791 C2792 1.524 . S
C2791 C2795 1.400 . S
C2792 H2777 0.960 . S
C2792 H2778 0.960 . S
C2792 H2779 0.960 . S
C2792 C2791 1.524 . S
C2793 C2790 1.403 . S
C2793 C2794 1.392 . S
C2793 C2797 1.495 . S
C2794 C2793 1.392 . S
C2794 C2795 1.385 . S
C2794 C2796 1.478 . S
C2795 H2789 0.930 . S
C2795 C2791 1.400 . S
C2795 C2794 1.385 . S
C2796 C2794 1.478 . S
C2796 C2798 1.381 . S
C2796 C2802 1.383 . S
C2797 C2793 1.495 . S
C2797 H2803 0.959 . S
C2797 H2804 0.961 . S
C2797 H2805 0.960 . S
C2798 C2796 1.381 . S
C2798 C2799 1.394 . S
C2798 H2806 0.930 . S
C2799 C2798 1.394 . S
C2799 C2800 1.383 . S
C2799 H2807 0.929 . S
C2800 C2799 1.383 . S
C2800 C2801 1.377 . S
C2801 H2785 0.930 . S
C2801 C2800 1.377 . S
C2801 C2802 1.379 . S
C2802 H2786 0.931 . S
C2802 C2796 1.383 . S
C2802 C2801 1.379 . S
H2803 C2797 0.959 . S
H2804 C2797 0.961 . S
H2805 C2797 0.960 . S
H2806 C2798 0.930 . S
H2807 C2799 0.929 . S
H2808 C2816 0.929 . S
H2809 C2818 0.930 . S
H2810 C2820 0.930 . S
H2811 C2823 0.929 . S
H2812 C2826 0.930 . S
H2813 C2828 0.960 . S
H2814 C2828 0.960 . S
H2815 C2828 0.960 . S
C2816 H2808 0.929 . S
C2816 C2817 1.377 . S
C2816 C2818 1.384 . S
C2817 C2816 1.377 . S
C2817 C2823 1.390 . S
C2818 H2809 0.930 . S
C2818 C2816 1.384 . S
C2818 C2819 1.372 . S
C2819 C2818 1.372 . S
C2819 C2820 1.400 . S
C2819 C2824 1.490 . S
C2820 H2810 0.930 . S
C2820 C2819 1.400 . S
C2820 C2823 1.386 . S
H2821 C2837 0.930 . S
H2822 C2838 0.931 . S
C2823 H2811 0.929 . S
C2823 C2817 1.390 . S
C2823 C2820 1.386 . S
C2824 C2819 1.490 . S
C2824 C2826 1.395 . S
C2824 C2827 1.403 . S
H2825 C2831 0.930 . S
C2826 H2812 0.930 . S
C2826 C2824 1.395 . S
C2826 C2829 1.403 . S
C2827 C2824 1.403 . S
C2827 C2828 1.524 . S
C2827 C2831 1.400 . S
C2828 H2813 0.960 . S
C2828 H2814 0.960 . S
C2828 H2815 0.960 . S
C2828 C2827 1.524 . S
C2829 C2826 1.403 . S
C2829 C2830 1.392 . S
C2829 C2833 1.495 . S
C2830 C2829 1.392 . S
C2830 C2831 1.385 . S
C2830 C2832 1.478 . S
C2831 H2825 0.930 . S
C2831 C2827 1.400 . S
C2831 C2830 1.385 . S
C2832 C2830 1.478 . S
C2832 C2834 1.381 . S
C2832 C2838 1.383 . S
C2833 C2829 1.495 . S
C2833 H2839 0.959 . S
C2833 H2840 0.961 . S
C2833 H2841 0.960 . S
C2834 C2832 1.381 . S
C2834 C2835 1.394 . S
C2834 H2842 0.930 . S
C2835 C2834 1.394 . S
C2835 C2836 1.383 . S
C2835 H2843 0.929 . S
C2836 C2835 1.383 . S
C2836 C2837 1.377 . S
C2837 H2821 0.930 . S
C2837 C2836 1.377 . S
C2837 C2838 1.379 . S
C2838 H2822 0.931 . S
C2838 C2832 1.383 . S
C2838 C2837 1.379 . S
H2839 C2833 0.959 . S
H2840 C2833 0.961 . S
H2841 C2833 0.960 . S
H2842 C2834 0.930 . S
H2843 C2835 0.929 . S
H2844 C2852 0.929 . S
H2845 C2854 0.930 . S
H2846 C2856 0.930 . S
H2847 C2859 0.929 . S
H2848 C2862 0.930 . S
H2849 C2864 0.960 . S
H2850 C2864 0.960 . S
H2851 C2864 0.960 . S
C2852 H2844 0.929 . S
C2852 C2853 1.377 . S
C2852 C2854 1.384 . S
C2853 C2852 1.377 . S
C2853 C2859 1.390 . S
C2854 H2845 0.930 . S
C2854 C2852 1.384 . S
C2854 C2855 1.372 . S
C2855 C2854 1.372 . S
C2855 C2856 1.400 . S
C2855 C2860 1.490 . S
C2856 H2846 0.930 . S
C2856 C2855 1.400 . S
C2856 C2859 1.386 . S
H2857 C2873 0.930 . S
H2858 C2874 0.931 . S
C2859 H2847 0.929 . S
C2859 C2853 1.390 . S
C2859 C2856 1.386 . S
C2860 C2855 1.490 . S
C2860 C2862 1.395 . S
C2860 C2863 1.403 . S
H2861 C2867 0.930 . S
C2862 H2848 0.930 . S
C2862 C2860 1.395 . S
C2862 C2865 1.403 . S
C2863 C2860 1.403 . S
C2863 C2864 1.524 . S
C2863 C2867 1.400 . S
C2864 H2849 0.960 . S
C2864 H2850 0.960 . S
C2864 H2851 0.960 . S
C2864 C2863 1.524 . S
C2865 C2862 1.403 . S
C2865 C2866 1.392 . S
C2865 C2869 1.495 . S
C2866 C2865 1.392 . S
C2866 C2867 1.385 . S
C2866 C2868 1.478 . S
C2867 H2861 0.930 . S
C2867 C2863 1.400 . S
C2867 C2866 1.385 . S
C2868 C2866 1.478 . S
C2868 C2870 1.381 . S
C2868 C2874 1.383 . S
C2869 C2865 1.495 . S
C2869 H2875 0.959 . S
C2869 H2876 0.961 . S
C2869 H2877 0.960 . S
C2870 C2868 1.381 . S
C2870 C2871 1.394 . S
C2870 H2878 0.930 . S
C2871 C2870 1.394 . S
C2871 C2872 1.383 . S
C2871 H2879 0.929 . S
C2872 C2871 1.383 . S
C2872 C2873 1.377 . S
C2873 H2857 0.930 . S
C2873 C2872 1.377 . S
C2873 C2874 1.379 . S
C2874 H2858 0.931 . S
C2874 C2868 1.383 . S
C2874 C2873 1.379 . S
H2875 C2869 0.959 . S
H2876 C2869 0.961 . S
H2877 C2869 0.960 . S
H2878 C2870 0.930 . S
H2879 C2871 0.929 . S
H2880 C2888 0.929 . S
H2881 C2890 0.930 . S
H2882 C2892 0.930 . S
H2883 C2895 0.929 . S
H2884 C2898 0.930 . S
H2885 C2900 0.960 . S
H2886 C2900 0.960 . S
H2887 C2900 0.960 . S
C2888 H2880 0.929 . S
C2888 C2889 1.377 . S
C2888 C2890 1.384 . S
C2889 C2888 1.377 . S
C2889 C2895 1.390 . S
C2890 H2881 0.930 . S
C2890 C2888 1.384 . S
C2890 C2891 1.372 . S
C2891 C2890 1.372 . S
C2891 C2892 1.400 . S
C2891 C2896 1.490 . S
C2892 H2882 0.930 . S
C2892 C2891 1.400 . S
C2892 C2895 1.386 . S
H2893 C2909 0.930 . S
H2894 C2910 0.931 . S
C2895 H2883 0.929 . S
C2895 C2889 1.390 . S
C2895 C2892 1.386 . S
C2896 C2891 1.490 . S
C2896 C2898 1.395 . S
C2896 C2899 1.403 . S
H2897 C2903 0.930 . S
C2898 H2884 0.930 . S
C2898 C2896 1.395 . S
C2898 C2901 1.403 . S
C2899 C2896 1.403 . S
C2899 C2900 1.524 . S
C2899 C2903 1.400 . S
C2900 H2885 0.960 . S
C2900 H2886 0.960 . S
C2900 H2887 0.960 . S
C2900 C2899 1.524 . S
C2901 C2898 1.403 . S
C2901 C2902 1.392 . S
C2901 C2905 1.495 . S
C2902 C2901 1.392 . S
C2902 C2903 1.385 . S
C2902 C2904 1.478 . S
C2903 H2897 0.930 . S
C2903 C2899 1.400 . S
C2903 C2902 1.385 . S
C2904 C2902 1.478 . S
C2904 C2906 1.381 . S
C2904 C2910 1.383 . S
C2905 C2901 1.495 . S
C2905 H2911 0.959 . S
C2905 H2912 0.961 . S
C2905 H2913 0.960 . S
C2906 C2904 1.381 . S
C2906 C2907 1.394 . S
C2906 H2914 0.930 . S
C2907 C2906 1.394 . S
C2907 C2908 1.383 . S
C2907 H2915 0.929 . S
C2908 C2907 1.383 . S
C2908 C2909 1.377 . S
C2909 H2893 0.930 . S
C2909 C2908 1.377 . S
C2909 C2910 1.379 . S
C2910 H2894 0.931 . S
C2910 C2904 1.383 . S
C2910 C2909 1.379 . S
H2911 C2905 0.959 . S
H2912 C2905 0.961 . S
H2913 C2905 0.960 . S
H2914 C2906 0.930 . S
H2915 C2907 0.929 . S
H2916 C2924 0.929 . S
H2917 C2926 0.930 . S
H2918 C2928 0.930 . S
H2919 C2931 0.929 . S
H2920 C2934 0.930 . S
H2921 C2936 0.960 . S
H2922 C2936 0.960 . S
H2923 C2936 0.960 . S
C2924 H2916 0.929 . S
C2924 C2925 1.377 . S
C2924 C2926 1.384 . S
C2925 C2924 1.377 . S
C2925 C2931 1.390 . S
C2926 H2917 0.930 . S
C2926 C2924 1.384 . S
C2926 C2927 1.372 . S
C2927 C2926 1.372 . S
C2927 C2928 1.400 . S
C2927 C2932 1.490 . S
C2928 H2918 0.930 . S
C2928 C2927 1.400 . S
C2928 C2931 1.386 . S
H2929 C2945 0.930 . S
H2930 C2946 0.931 . S
C2931 H2919 0.929 . S
C2931 C2925 1.390 . S
C2931 C2928 1.386 . S
C2932 C2927 1.490 . S
C2932 C2934 1.395 . S
C2932 C2935 1.403 . S
H2933 C2939 0.930 . S
C2934 H2920 0.930 . S
C2934 C2932 1.395 . S
C2934 C2937 1.403 . S
C2935 C2932 1.403 . S
C2935 C2936 1.524 . S
C2935 C2939 1.400 . S
C2936 H2921 0.960 . S
C2936 H2922 0.960 . S
C2936 H2923 0.960 . S
C2936 C2935 1.524 . S
C2937 C2934 1.403 . S
C2937 C2938 1.392 . S
C2937 C2941 1.495 . S
C2938 C2937 1.392 . S
C2938 C2939 1.385 . S
C2938 C2940 1.478 . S
C2939 H2933 0.930 . S
C2939 C2935 1.400 . S
C2939 C2938 1.385 . S
C2940 C2938 1.478 . S
C2940 C2942 1.381 . S
C2940 C2946 1.383 . S
C2941 C2937 1.495 . S
C2941 H2947 0.959 . S
C2941 H2948 0.961 . S
C2941 H2949 0.960 . S
C2942 C2940 1.381 . S
C2942 C2943 1.394 . S
C2942 H2950 0.930 . S
C2943 C2942 1.394 . S
C2943 C2944 1.383 . S
C2943 H2951 0.929 . S
C2944 C2943 1.383 . S
C2944 C2945 1.377 . S
C2945 H2929 0.930 . S
C2945 C2944 1.377 . S
C2945 C2946 1.379 . S
C2946 H2930 0.931 . S
C2946 C2940 1.383 . S
C2946 C2945 1.379 . S
H2947 C2941 0.959 . S
H2948 C2941 0.961 . S
H2949 C2941 0.960 . S
H2950 C2942 0.930 . S
H2951 C2943 0.929 . S
H2952 C2960 0.929 . S
H2953 C2962 0.930 . S
H2954 C2964 0.930 . S
H2955 C2967 0.929 . S
H2956 C2970 0.930 . S
H2957 C2972 0.960 . S
H2958 C2972 0.960 . S
H2959 C2972 0.960 . S
C2960 H2952 0.929 . S
C2960 C2961 1.377 . S
C2960 C2962 1.384 . S
C2961 C2960 1.377 . S
C2961 C2967 1.390 . S
C2962 H2953 0.930 . S
C2962 C2960 1.384 . S
C2962 C2963 1.372 . S
C2963 C2962 1.372 . S
C2963 C2964 1.400 . S
C2963 C2968 1.490 . S
C2964 H2954 0.930 . S
C2964 C2963 1.400 . S
C2964 C2967 1.386 . S
H2965 C2981 0.930 . S
H2966 C2982 0.931 . S
C2967 H2955 0.929 . S
C2967 C2961 1.390 . S
C2967 C2964 1.386 . S
C2968 C2963 1.490 . S
C2968 C2970 1.395 . S
C2968 C2971 1.403 . S
H2969 C2975 0.930 . S
C2970 H2956 0.930 . S
C2970 C2968 1.395 . S
C2970 C2973 1.403 . S
C2971 C2968 1.403 . S
C2971 C2972 1.524 . S
C2971 C2975 1.400 . S
C2972 H2957 0.960 . S
C2972 H2958 0.960 . S
C2972 H2959 0.960 . S
C2972 C2971 1.524 . S
C2973 C2970 1.403 . S
C2973 C2974 1.392 . S
C2973 C2977 1.495 . S
C2974 C2973 1.392 . S
C2974 C2975 1.385 . S
C2974 C2976 1.478 . S
C2975 H2969 0.930 . S
C2975 C2971 1.400 . S
C2975 C2974 1.385 . S
C2976 C2974 1.478 . S
C2976 C2978 1.381 . S
C2976 C2982 1.383 . S
C2977 C2973 1.495 . S
C2977 H2983 0.959 . S
C2977 H2984 0.961 . S
C2977 H2985 0.960 . S
C2978 C2976 1.381 . S
C2978 C2979 1.394 . S
C2978 H2986 0.930 . S
C2979 C2978 1.394 . S
C2979 C2980 1.383 . S
C2979 H2987 0.929 . S
C2980 C2979 1.383 . S
C2980 C2981 1.377 . S
C2981 H2965 0.930 . S
C2981 C2980 1.377 . S
C2981 C2982 1.379 . S
C2982 H2966 0.931 . S
C2982 C2976 1.383 . S
C2982 C2981 1.379 . S
H2983 C2977 0.959 . S
H2984 C2977 0.961 . S
H2985 C2977 0.960 . S
H2986 C2978 0.930 . S
H2987 C2979 0.929 . S
H2988 C2996 0.929 . S
H2989 C2998 0.930 . S
H2990 C3000 0.930 . S
H2991 C3003 0.929 . S
H2992 C3006 0.930 . S
H2993 C3008 0.960 . S
H2994 C3008 0.960 . S
H2995 C3008 0.960 . S
C2996 H2988 0.929 . S
C2996 C2997 1.377 . S
C2996 C2998 1.384 . S
C2997 C2996 1.377 . S
C2997 C3003 1.390 . S
C2998 H2989 0.930 . S
C2998 C2996 1.384 . S
C2998 C2999 1.372 . S
C2999 C2998 1.372 . S
C2999 C3000 1.400 . S
C2999 C3004 1.490 . S
C3000 H2990 0.930 . S
C3000 C2999 1.400 . S
C3000 C3003 1.386 . S
H3001 C3017 0.930 . S
H3002 C3018 0.931 . S
C3003 H2991 0.929 . S
C3003 C2997 1.390 . S
C3003 C3000 1.386 . S
C3004 C2999 1.490 . S
C3004 C3006 1.395 . S
C3004 C3007 1.403 . S
H3005 C3011 0.930 . S
C3006 H2992 0.930 . S
C3006 C3004 1.395 . S
C3006 C3009 1.403 . S
C3007 C3004 1.403 . S
C3007 C3008 1.524 . S
C3007 C3011 1.400 . S
C3008 H2993 0.960 . S
C3008 H2994 0.960 . S
C3008 H2995 0.960 . S
C3008 C3007 1.524 . S
C3009 C3006 1.403 . S
C3009 C3010 1.392 . S
C3009 C3013 1.495 . S
C3010 C3009 1.392 . S
C3010 C3011 1.385 . S
C3010 C3012 1.478 . S
C3011 H3005 0.930 . S
C3011 C3007 1.400 . S
C3011 C3010 1.385 . S
C3012 C3010 1.478 . S
C3012 C3014 1.381 . S
C3012 C3018 1.383 . S
C3013 C3009 1.495 . S
C3013 H3019 0.959 . S
C3013 H3020 0.961 . S
C3013 H3021 0.960 . S
C3014 C3012 1.381 . S
C3014 C3015 1.394 . S
C3014 H3022 0.930 . S
C3015 C3014 1.394 . S
C3015 C3016 1.383 . S
C3015 H3023 0.929 . S
C3016 C3015 1.383 . S
C3016 C3017 1.377 . S
C3017 H3001 0.930 . S
C3017 C3016 1.377 . S
C3017 C3018 1.379 . S
C3018 H3002 0.931 . S
C3018 C3012 1.383 . S
C3018 C3017 1.379 . S
H3019 C3013 0.959 . S
H3020 C3013 0.961 . S
H3021 C3013 0.960 . S
H3022 C3014 0.930 . S
H3023 C3015 0.929 . S
H3024 C3032 0.929 . S
H3025 C3034 0.930 . S
H3026 C3036 0.930 . S
H3027 C3039 0.929 . S
H3028 C3042 0.930 . S
H3029 C3044 0.960 . S
H3030 C3044 0.960 . S
H3031 C3044 0.960 . S
C3032 H3024 0.929 . S
C3032 C3033 1.377 . S
C3032 C3034 1.384 . S
C3033 C3032 1.377 . S
C3033 C3039 1.390 . S
C3034 H3025 0.930 . S
C3034 C3032 1.384 . S
C3034 C3035 1.372 . S
C3035 C3034 1.372 . S
C3035 C3036 1.400 . S
C3035 C3040 1.490 . S
C3036 H3026 0.930 . S
C3036 C3035 1.400 . S
C3036 C3039 1.386 . S
H3037 C3053 0.930 . S
H3038 C3054 0.931 . S
C3039 H3027 0.929 . S
C3039 C3033 1.390 . S
C3039 C3036 1.386 . S
C3040 C3035 1.490 . S
C3040 C3042 1.395 . S
C3040 C3043 1.403 . S
H3041 C3047 0.930 . S
C3042 H3028 0.930 . S
C3042 C3040 1.395 . S
C3042 C3045 1.403 . S
C3043 C3040 1.403 . S
C3043 C3044 1.524 . S
C3043 C3047 1.400 . S
C3044 H3029 0.960 . S
C3044 H3030 0.960 . S
C3044 H3031 0.960 . S
C3044 C3043 1.524 . S
C3045 C3042 1.403 . S
C3045 C3046 1.392 . S
C3045 C3049 1.495 . S
C3046 C3045 1.392 . S
C3046 C3047 1.385 . S
C3046 C3048 1.478 . S
C3047 H3041 0.930 . S
C3047 C3043 1.400 . S
C3047 C3046 1.385 . S
C3048 C3046 1.478 . S
C3048 C3050 1.381 . S
C3048 C3054 1.383 . S
C3049 C3045 1.495 . S
C3049 H3055 0.959 . S
C3049 H3056 0.961 . S
C3049 H3057 0.960 . S
C3050 C3048 1.381 . S
C3050 C3051 1.394 . S
C3050 H3058 0.930 . S
C3051 C3050 1.394 . S
C3051 C3052 1.383 . S
C3051 H3059 0.929 . S
C3052 C3051 1.383 . S
C3052 C3053 1.377 . S
C3053 H3037 0.930 . S
C3053 C3052 1.377 . S
C3053 C3054 1.379 . S
C3054 H3038 0.931 . S
C3054 C3048 1.383 . S
C3054 C3053 1.379 . S
H3055 C3049 0.959 . S
H3056 C3049 0.961 . S
H3057 C3049 0.960 . S
H3058 C3050 0.930 . S
H3059 C3051 0.929 . S
H3060 C3068 0.929 . S
H3061 C3070 0.930 . S
H3062 C3072 0.930 . S
H3063 C3075 0.929 . S
H3064 C3078 0.930 . S
H3065 C3080 0.960 . S
H3066 C3080 0.960 . S
H3067 C3080 0.960 . S
C3068 H3060 0.929 . S
C3068 C3069 1.377 . S
C3068 C3070 1.384 . S
C3069 C3068 1.377 . S
C3069 C3075 1.390 . S
C3070 H3061 0.930 . S
C3070 C3068 1.384 . S
C3070 C3071 1.372 . S
C3071 C3070 1.372 . S
C3071 C3072 1.400 . S
C3071 C3076 1.490 . S
C3072 H3062 0.930 . S
C3072 C3071 1.400 . S
C3072 C3075 1.386 . S
H3073 C3089 0.930 . S
H3074 C3090 0.931 . S
C3075 H3063 0.929 . S
C3075 C3069 1.390 . S
C3075 C3072 1.386 . S
C3076 C3071 1.490 . S
C3076 C3078 1.395 . S
C3076 C3079 1.403 . S
H3077 C3083 0.930 . S
C3078 H3064 0.930 . S
C3078 C3076 1.395 . S
C3078 C3081 1.403 . S
C3079 C3076 1.403 . S
C3079 C3080 1.524 . S
C3079 C3083 1.400 . S
C3080 H3065 0.960 . S
C3080 H3066 0.960 . S
C3080 H3067 0.960 . S
C3080 C3079 1.524 . S
C3081 C3078 1.403 . S
C3081 C3082 1.392 . S
C3081 C3085 1.495 . S
C3082 C3081 1.392 . S
C3082 C3083 1.385 . S
C3082 C3084 1.478 . S
C3083 H3077 0.930 . S
C3083 C3079 1.400 . S
C3083 C3082 1.385 . S
C3084 C3082 1.478 . S
C3084 C3086 1.381 . S
C3084 C3090 1.383 . S
C3085 C3081 1.495 . S
C3085 H3091 0.959 . S
C3085 H3092 0.961 . S
C3085 H3093 0.960 . S
C3086 C3084 1.381 . S
C3086 C3087 1.394 . S
C3086 H3094 0.930 . S
C3087 C3086 1.394 . S
C3087 C3088 1.383 . S
C3087 H3095 0.929 . S
C3088 C3087 1.383 . S
C3088 C3089 1.377 . S
C3089 H3073 0.930 . S
C3089 C3088 1.377 . S
C3089 C3090 1.379 . S
C3090 H3074 0.931 . S
C3090 C3084 1.383 . S
C3090 C3089 1.379 . S
H3091 C3085 0.959 . S
H3092 C3085 0.961 . S
H3093 C3085 0.960 . S
H3094 C3086 0.930 . S
H3095 C3087 0.929 . S
H3096 C3104 0.929 . S
H3097 C3106 0.930 . S
H3098 C3108 0.930 . S
H3099 C3111 0.929 . S
H3100 C3114 0.930 . S
H3101 C3116 0.960 . S
H3102 C3116 0.960 . S
H3103 C3116 0.960 . S
C3104 H3096 0.929 . S
C3104 C3105 1.377 . S
C3104 C3106 1.384 . S
C3105 C3104 1.377 . S
C3105 C3111 1.390 . S
C3106 H3097 0.930 . S
C3106 C3104 1.384 . S
C3106 C3107 1.372 . S
C3107 C3106 1.372 . S
C3107 C3108 1.400 . S
C3107 C3112 1.490 . S
C3108 H3098 0.930 . S
C3108 C3107 1.400 . S
C3108 C3111 1.386 . S
H3109 C3125 0.930 . S
H3110 C3126 0.931 . S
C3111 H3099 0.929 . S
C3111 C3105 1.390 . S
C3111 C3108 1.386 . S
C3112 C3107 1.490 . S
C3112 C3114 1.395 . S
C3112 C3115 1.403 . S
H3113 C3119 0.930 . S
C3114 H3100 0.930 . S
C3114 C3112 1.395 . S
C3114 C3117 1.403 . S
C3115 C3112 1.403 . S
C3115 C3116 1.524 . S
C3115 C3119 1.400 . S
C3116 H3101 0.960 . S
C3116 H3102 0.960 . S
C3116 H3103 0.960 . S
C3116 C3115 1.524 . S
C3117 C3114 1.403 . S
C3117 C3118 1.392 . S
C3117 C3121 1.495 . S
C3118 C3117 1.392 . S
C3118 C3119 1.385 . S
C3118 C3120 1.478 . S
C3119 H3113 0.930 . S
C3119 C3115 1.400 . S
C3119 C3118 1.385 . S
C3120 C3118 1.478 . S
C3120 C3122 1.381 . S
C3120 C3126 1.383 . S
C3121 C3117 1.495 . S
C3121 H3127 0.959 . S
C3121 H3128 0.961 . S
C3121 H3129 0.960 . S
C3122 C3120 1.381 . S
C3122 C3123 1.394 . S
C3122 H3130 0.930 . S
C3123 C3122 1.394 . S
C3123 C3124 1.383 . S
C3123 H3131 0.929 . S
C3124 C3123 1.383 . S
C3124 C3125 1.377 . S
C3125 H3109 0.930 . S
C3125 C3124 1.377 . S
C3125 C3126 1.379 . S
C3126 H3110 0.931 . S
C3126 C3120 1.383 . S
C3126 C3125 1.379 . S
H3127 C3121 0.959 . S
H3128 C3121 0.961 . S
H3129 C3121 0.960 . S
H3130 C3122 0.930 . S
H3131 C3123 0.929 . S
H3132 C3140 0.929 . S
H3133 C3142 0.930 . S
H3134 C3144 0.930 . S
H3135 C3147 0.929 . S
H3136 C3150 0.930 . S
H3137 C3152 0.960 . S
H3138 C3152 0.960 . S
H3139 C3152 0.960 . S
C3140 H3132 0.929 . S
C3140 C3141 1.377 . S
C3140 C3142 1.384 . S
C3141 C3140 1.377 . S
C3141 C3147 1.390 . S
C3142 H3133 0.930 . S
C3142 C3140 1.384 . S
C3142 C3143 1.372 . S
C3143 C3142 1.372 . S
C3143 C3144 1.400 . S
C3143 C3148 1.490 . S
C3144 H3134 0.930 . S
C3144 C3143 1.400 . S
C3144 C3147 1.386 . S
H3145 C3161 0.930 . S
H3146 C3162 0.931 . S
C3147 H3135 0.929 . S
C3147 C3141 1.390 . S
C3147 C3144 1.386 . S
C3148 C3143 1.490 . S
C3148 C3150 1.395 . S
C3148 C3151 1.403 . S
H3149 C3155 0.930 . S
C3150 H3136 0.930 . S
C3150 C3148 1.395 . S
C3150 C3153 1.403 . S
C3151 C3148 1.403 . S
C3151 C3152 1.524 . S
C3151 C3155 1.400 . S
C3152 H3137 0.960 . S
C3152 H3138 0.960 . S
C3152 H3139 0.960 . S
C3152 C3151 1.524 . S
C3153 C3150 1.403 . S
C3153 C3154 1.392 . S
C3153 C3157 1.495 . S
C3154 C3153 1.392 . S
C3154 C3155 1.385 . S
C3154 C3156 1.478 . S
C3155 H3149 0.930 . S
C3155 C3151 1.400 . S
C3155 C3154 1.385 . S
C3156 C3154 1.478 . S
C3156 C3158 1.381 . S
C3156 C3162 1.383 . S
C3157 C3153 1.495 . S
C3157 H3163 0.959 . S
C3157 H3164 0.961 . S
C3157 H3165 0.960 . S
C3158 C3156 1.381 . S
C3158 C3159 1.394 . S
C3158 H3166 0.930 . S
C3159 C3158 1.394 . S
C3159 C3160 1.383 . S
C3159 H3167 0.929 . S
C3160 C3159 1.383 . S
C3160 C3161 1.377 . S
C3161 H3145 0.930 . S
C3161 C3160 1.377 . S
C3161 C3162 1.379 . S
C3162 H3146 0.931 . S
C3162 C3156 1.383 . S
C3162 C3161 1.379 . S
H3163 C3157 0.959 . S
H3164 C3157 0.961 . S
H3165 C3157 0.960 . S
H3166 C3158 0.930 . S
H3167 C3159 0.929 . S
H3168 C3176 0.929 . S
H3169 C3178 0.930 . S
H3170 C3180 0.930 . S
H3171 C3183 0.929 . S
H3172 C3186 0.930 . S
H3173 C3188 0.960 . S
H3174 C3188 0.960 . S
H3175 C3188 0.960 . S
C3176 H3168 0.929 . S
C3176 C3177 1.377 . S
C3176 C3178 1.384 . S
C3177 C3176 1.377 . S
C3177 C3183 1.390 . S
C3178 H3169 0.930 . S
C3178 C3176 1.384 . S
C3178 C3179 1.372 . S
C3179 C3178 1.372 . S
C3179 C3180 1.400 . S
C3179 C3184 1.490 . S
C3180 H3170 0.930 . S
C3180 C3179 1.400 . S
C3180 C3183 1.386 . S
H3181 C3197 0.930 . S
H3182 C3198 0.931 . S
C3183 H3171 0.929 . S
C3183 C3177 1.390 . S
C3183 C3180 1.386 . S
C3184 C3179 1.490 . S
C3184 C3186 1.395 . S
C3184 C3187 1.403 . S
H3185 C3191 0.930 . S
C3186 H3172 0.930 . S
C3186 C3184 1.395 . S
C3186 C3189 1.403 . S
C3187 C3184 1.403 . S
C3187 C3188 1.524 . S
C3187 C3191 1.400 . S
C3188 H3173 0.960 . S
C3188 H3174 0.960 . S
C3188 H3175 0.960 . S
C3188 C3187 1.524 . S
C3189 C3186 1.403 . S
C3189 C3190 1.392 . S
C3189 C3193 1.495 . S
C3190 C3189 1.392 . S
C3190 C3191 1.385 . S
C3190 C3192 1.478 . S
C3191 H3185 0.930 . S
C3191 C3187 1.400 . S
C3191 C3190 1.385 . S
C3192 C3190 1.478 . S
C3192 C3194 1.381 . S
C3192 C3198 1.383 . S
C3193 C3189 1.495 . S
C3193 H3199 0.959 . S
C3193 H3200 0.961 . S
C3193 H3201 0.960 . S
C3194 C3192 1.381 . S
C3194 C3195 1.394 . S
C3194 H3202 0.930 . S
C3195 C3194 1.394 . S
C3195 C3196 1.383 . S
C3195 H3203 0.929 . S
C3196 C3195 1.383 . S
C3196 C3197 1.377 . S
C3197 H3181 0.930 . S
C3197 C3196 1.377 . S
C3197 C3198 1.379 . S
C3198 H3182 0.931 . S
C3198 C3192 1.383 . S
C3198 C3197 1.379 . S
H3199 C3193 0.959 . S
H3200 C3193 0.961 . S
H3201 C3193 0.960 . S
H3202 C3194 0.930 . S
H3203 C3195 0.929 . S
H3204 C3212 0.929 . S
H3205 C3214 0.930 . S
H3206 C3216 0.930 . S
H3207 C3219 0.929 . S
H3208 C3222 0.930 . S
H3209 C3224 0.960 . S
H3210 C3224 0.960 . S
H3211 C3224 0.960 . S
C3212 H3204 0.929 . S
C3212 C3213 1.377 . S
C3212 C3214 1.384 . S
C3213 C3212 1.377 . S
C3213 C3219 1.390 . S
C3214 H3205 0.930 . S
C3214 C3212 1.384 . S
C3214 C3215 1.372 . S
C3215 C3214 1.372 . S
C3215 C3216 1.400 . S
C3215 C3220 1.490 . S
C3216 H3206 0.930 . S
C3216 C3215 1.400 . S
C3216 C3219 1.386 . S
H3217 C3233 0.930 . S
H3218 C3234 0.931 . S
C3219 H3207 0.929 . S
C3219 C3213 1.390 . S
C3219 C3216 1.386 . S
C3220 C3215 1.490 . S
C3220 C3222 1.395 . S
C3220 C3223 1.403 . S
H3221 C3227 0.930 . S
C3222 H3208 0.930 . S
C3222 C3220 1.395 . S
C3222 C3225 1.403 . S
C3223 C3220 1.403 . S
C3223 C3224 1.524 . S
C3223 C3227 1.400 . S
C3224 H3209 0.960 . S
C3224 H3210 0.960 . S
C3224 H3211 0.960 . S
C3224 C3223 1.524 . S
C3225 C3222 1.403 . S
C3225 C3226 1.392 . S
C3225 C3229 1.495 . S
C3226 C3225 1.392 . S
C3226 C3227 1.385 . S
C3226 C3228 1.478 . S
C3227 H3221 0.930 . S
C3227 C3223 1.400 . S
C3227 C3226 1.385 . S
C3228 C3226 1.478 . S
C3228 C3230 1.381 . S
C3228 C3234 1.383 . S
C3229 C3225 1.495 . S
C3229 H3235 0.959 . S
C3229 H3236 0.961 . S
C3229 H3237 0.960 . S
C3230 C3228 1.381 . S
C3230 C3231 1.394 . S
C3230 H3238 0.930 . S
C3231 C3230 1.394 . S
C3231 C3232 1.383 . S
C3231 H3239 0.929 . S
C3232 C3231 1.383 . S
C3232 C3233 1.377 . S
C3233 H3217 0.930 . S
C3233 C3232 1.377 . S
C3233 C3234 1.379 . S
C3234 H3218 0.931 . S
C3234 C3228 1.383 . S
C3234 C3233 1.379 . S
H3235 C3229 0.959 . S
H3236 C3229 0.961 . S
H3237 C3229 0.960 . S
H3238 C3230 0.930 . S
H3239 C3231 0.929 . S
H3240 C3248 0.929 . S
H3241 C3250 0.930 . S
H3242 C3252 0.930 . S
H3243 C3255 0.929 . S
H3244 C3258 0.930 . S
H3245 C3260 0.960 . S
H3246 C3260 0.960 . S
H3247 C3260 0.960 . S
C3248 H3240 0.929 . S
C3248 C3249 1.377 . S
C3248 C3250 1.384 . S
C3249 C3248 1.377 . S
C3249 C3255 1.390 . S
C3250 H3241 0.930 . S
C3250 C3248 1.384 . S
C3250 C3251 1.372 . S
C3251 C3250 1.372 . S
C3251 C3252 1.400 . S
C3251 C3256 1.490 . S
C3252 H3242 0.930 . S
C3252 C3251 1.400 . S
C3252 C3255 1.386 . S
H3253 C3269 0.930 . S
H3254 C3270 0.931 . S
C3255 H3243 0.929 . S
C3255 C3249 1.390 . S
C3255 C3252 1.386 . S
C3256 C3251 1.490 . S
C3256 C3258 1.395 . S
C3256 C3259 1.403 . S
H3257 C3263 0.930 . S
C3258 H3244 0.930 . S
C3258 C3256 1.395 . S
C3258 C3261 1.403 . S
C3259 C3256 1.403 . S
C3259 C3260 1.524 . S
C3259 C3263 1.400 . S
C3260 H3245 0.960 . S
C3260 H3246 0.960 . S
C3260 H3247 0.960 . S
C3260 C3259 1.524 . S
C3261 C3258 1.403 . S
C3261 C3262 1.392 . S
C3261 C3265 1.495 . S
C3262 C3261 1.392 . S
C3262 C3263 1.385 . S
C3262 C3264 1.478 . S
C3263 H3257 0.930 . S
C3263 C3259 1.400 . S
C3263 C3262 1.385 . S
C3264 C3262 1.478 . S
C3264 C3266 1.381 . S
C3264 C3270 1.383 . S
C3265 C3261 1.495 . S
C3265 H3271 0.959 . S
C3265 H3272 0.961 . S
C3265 H3273 0.960 . S
C3266 C3264 1.381 . S
C3266 C3267 1.394 . S
C3266 H3274 0.930 . S
C3267 C3266 1.394 . S
C3267 C3268 1.383 . S
C3267 H3275 0.929 . S
C3268 C3267 1.383 . S
C3268 C3269 1.377 . S
C3269 H3253 0.930 . S
C3269 C3268 1.377 . S
C3269 C3270 1.379 . S
C3270 H3254 0.931 . S
C3270 C3264 1.383 . S
C3270 C3269 1.379 . S
H3271 C3265 0.959 . S
H3272 C3265 0.961 . S
H3273 C3265 0.960 . S
H3274 C3266 0.930 . S
H3275 C3267 0.929 . S
H3276 C3284 0.929 . S
H3277 C3286 0.930 . S
H3278 C3288 0.930 . S
H3279 C3291 0.929 . S
H3280 C3294 0.930 . S
H3281 C3296 0.960 . S
H3282 C3296 0.960 . S
H3283 C3296 0.960 . S
C3284 H3276 0.929 . S
C3284 C3285 1.377 . S
C3284 C3286 1.384 . S
C3285 C3284 1.377 . S
C3285 C3291 1.390 . S
C3286 H3277 0.930 . S
C3286 C3284 1.384 . S
C3286 C3287 1.372 . S
C3287 C3286 1.372 . S
C3287 C3288 1.400 . S
C3287 C3292 1.490 . S
C3288 H3278 0.930 . S
C3288 C3287 1.400 . S
C3288 C3291 1.386 . S
H3289 C3305 0.930 . S
H3290 C3306 0.931 . S
C3291 H3279 0.929 . S
C3291 C3285 1.390 . S
C3291 C3288 1.386 . S
C3292 C3287 1.490 . S
C3292 C3294 1.395 . S
C3292 C3295 1.403 . S
H3293 C3299 0.930 . S
C3294 H3280 0.930 . S
C3294 C3292 1.395 . S
C3294 C3297 1.403 . S
C3295 C3292 1.403 . S
C3295 C3296 1.524 . S
C3295 C3299 1.400 . S
C3296 H3281 0.960 . S
C3296 H3282 0.960 . S
C3296 H3283 0.960 . S
C3296 C3295 1.524 . S
C3297 C3294 1.403 . S
C3297 C3298 1.392 . S
C3297 C3301 1.495 . S
C3298 C3297 1.392 . S
C3298 C3299 1.385 . S
C3298 C3300 1.478 . S
C3299 H3293 0.930 . S
C3299 C3295 1.400 . S
C3299 C3298 1.385 . S
C3300 C3298 1.478 . S
C3300 C3302 1.381 . S
C3300 C3306 1.383 . S
C3301 C3297 1.495 . S
C3301 H3307 0.959 . S
C3301 H3308 0.961 . S
C3301 H3309 0.960 . S
C3302 C3300 1.381 . S
C3302 C3303 1.394 . S
C3302 H3310 0.930 . S
C3303 C3302 1.394 . S
C3303 C3304 1.383 . S
C3303 H3311 0.929 . S
C3304 C3303 1.383 . S
C3304 C3305 1.377 . S
C3305 H3289 0.930 . S
C3305 C3304 1.377 . S
C3305 C3306 1.379 . S
C3306 H3290 0.931 . S
C3306 C3300 1.383 . S
C3306 C3305 1.379 . S
H3307 C3301 0.959 . S
H3308 C3301 0.961 . S
H3309 C3301 0.960 . S
H3310 C3302 0.930 . S
H3311 C3303 0.929 . S
H3312 C3320 0.929 . S
H3313 C3322 0.930 . S
H3314 C3324 0.930 . S
H3315 C3327 0.929 . S
H3316 C3330 0.930 . S
H3317 C3332 0.960 . S
H3318 C3332 0.960 . S
H3319 C3332 0.960 . S
C3320 H3312 0.929 . S
C3320 C3321 1.377 . S
C3320 C3322 1.384 . S
C3321 C3320 1.377 . S
C3321 C3327 1.390 . S
C3322 H3313 0.930 . S
C3322 C3320 1.384 . S
C3322 C3323 1.372 . S
C3323 C3322 1.372 . S
C3323 C3324 1.400 . S
C3323 C3328 1.490 . S
C3324 H3314 0.930 . S
C3324 C3323 1.400 . S
C3324 C3327 1.386 . S
H3325 C3341 0.930 . S
H3326 C3342 0.931 . S
C3327 H3315 0.929 . S
C3327 C3321 1.390 . S
C3327 C3324 1.386 . S
C3328 C3323 1.490 . S
C3328 C3330 1.395 . S
C3328 C3331 1.403 . S
H3329 C3335 0.930 . S
C3330 H3316 0.930 . S
C3330 C3328 1.395 . S
C3330 C3333 1.403 . S
C3331 C3328 1.403 . S
C3331 C3332 1.524 . S
C3331 C3335 1.400 . S
C3332 H3317 0.960 . S
C3332 H3318 0.960 . S
C3332 H3319 0.960 . S
C3332 C3331 1.524 . S
C3333 C3330 1.403 . S
C3333 C3334 1.392 . S
C3333 C3337 1.495 . S
C3334 C3333 1.392 . S
C3334 C3335 1.385 . S
C3334 C3336 1.478 . S
C3335 H3329 0.930 . S
C3335 C3331 1.400 . S
C3335 C3334 1.385 . S
C3336 C3334 1.478 . S
C3336 C3338 1.381 . S
C3336 C3342 1.383 . S
C3337 C3333 1.495 . S
C3337 H3343 0.959 . S
C3337 H3344 0.961 . S
C3337 H3345 0.960 . S
C3338 C3336 1.381 . S
C3338 C3339 1.394 . S
C3338 H3346 0.930 . S
C3339 C3338 1.394 . S
C3339 C3340 1.383 . S
C3339 H3347 0.929 . S
C3340 C3339 1.383 . S
C3340 C3341 1.377 . S
C3341 H3325 0.930 . S
C3341 C3340 1.377 . S
C3341 C3342 1.379 . S
C3342 H3326 0.931 . S
C3342 C3336 1.383 . S
C3342 C3341 1.379 . S
H3343 C3337 0.959 . S
H3344 C3337 0.961 . S
H3345 C3337 0.960 . S
H3346 C3338 0.930 . S
H3347 C3339 0.929 . S
C784 C462 1.596 . S
C765 C439 1.599 . S
C801 C401 1.758 . S
C820 C460 1.756 . S
C856 C461 1.758 . S
C837 C382 1.757 . S
C873 C420 1.598 . S
C892 C463 1.595 . S
C928 C507 1.524 . S
C909 C306 1.532 . S
C964 C567 1.646 . S
C945 C325 1.648 . S
C981 C344 1.515 . S
C1000 C506 1.515 . S
C1036 C566 1.822 . S
C1017 C363 1.823 . S
C1053 C230 1.692 . S
C1072 C508 1.688 . S
C1108 C564 1.641 . S
C1089 C249 1.641 . S
C1125 C268 1.694 . S
C1144 C509 1.693 . S
C1161 C287 1.461 . S
C1180 C565 1.460 . S
C1216 C615 1.598 . S
C1197 C211 1.598 . S
C1233 C173 1.757 . S
C1252 C614 1.757 . S
C1269 C154 1.758 . S
C1288 C616 1.757 . S
C1324 C617 1.597 . S
C1305 C192 1.596 . S
C1341 C78 1.533 . S
C1360 C658 1.528 . S
C1377 C97 1.648 . S
C1396 C717 1.650 . S
C1413 C116 1.515 . S
C1432 C656 1.512 . S
C1449 C135 1.823 . S
C1468 C716 1.820 . S
C1504 C657 1.689 . S
C1485 C2 1.693 . S
C1540 C714 1.639 1_565 S
C1521 C21 1.639 . S
C1557 C40 1.694 . S
C1576 C659 1.692 . S
C1612 C715 1.458 1_565 S
C1593 C59 1.462 1_565 S
C1648 C459 1.721 . S
C1629 C6 1.706 . S
C1665 C30 1.295 . S
C1684 C465 1.334 . S
C1701 C49 1.147 . S
C1720 C457 1.167 . S
C1737 C68 1.082 . S
C1756 C464 1.118 . S
C1773 C82 1.681 . S
C1792 C456 1.697 . S
C1828 C466 1.200 . S
C1809 C106 1.160 . S
C1845 C125 1.129 . S
C1864 C458 1.145 . S
C1900 C467 1.994 . S
C1881 C139 1.975 . S
C1936 C513 1.636 . S
C1917 C63 1.610 . S
C1953 C11 1.163 . S
C1972 C556 1.205 . S
C2008 C511 1.595 . S
C1989 C25 1.565 1_565 S
C2044 C558 1.755 . S
C2025 C44 1.739 . S
C2061 C101 1.770 . S
C2080 C512 1.790 . S
C2116 C557 1.549 . S
C2097 C120 1.528 . S
C2152 C510 1.205 . S
C2133 C144 1.164 . S
C2188 C559 1.043 . S
C2169 C87 1.013 . S
C2224 C563 1.349 . S
C2205 C163 1.315 . S
C2241 C182 1.326 . S
C2260 C562 1.345 . S
C2296 C514 1.881 . S
C2277 C158 1.857 . S
C2332 C561 1.808 . S
C2313 C196 1.782 . S
C2349 C220 1.161 . S
C2368 C517 1.190 . S
C2385 C215 1.784 . S
C2404 C560 1.805 . S
C2440 C516 1.879 . S
C2421 C177 1.859 . S
C2476 C515 1.186 . S
C2457 C201 1.162 . S
C2512 C609 1.721 . S
C2493 C234 1.704 . S
C2548 C612 1.333 . S
C2529 C258 1.294 . S
C2565 C277 1.149 . S
C2584 C608 1.164 . S
C2620 C610 1.118 . S
C2601 C296 1.081 . S
C2656 C606 1.700 . S
C2637 C310 1.676 . S
C2673 C334 1.172 . S
C2692 C611 1.189 . S
C2709 C353 1.120 . S
C2728 C607 1.155 . S
C2764 C613 1.995 . S
C2745 C367 1.975 . S
C2800 C667 1.634 . S
C2781 C291 1.606 . S
C2817 C239 1.174 . S
C2836 C706 1.198 . S
C2872 C666 1.593 . S
C2853 C253 1.567 . S
C2908 C708 1.758 . S
C2889 C272 1.734 . S
C2944 C665 1.790 . S
C2925 C329 1.773 . S
C2961 C348 1.527 . S
C2980 C707 1.550 . S
C3016 C664 1.201 . S
C2997 C372 1.166 . S
C3052 C709 1.041 . S
C3033 C315 1.015 . S
C3088 C713 1.347 . S
C3069 C391 1.320 . S
C3105 C410 1.306 . S
C3124 C712 1.348 . S
C3160 C660 1.881 . S
C3141 C386 1.854 . S
C3177 C424 1.788 . S
C3196 C711 1.808 . S
C3232 C663 1.190 . S
C3213 C448 1.163 . S
C3268 C710 1.806 . S
C3249 C443 1.781 . S
C3304 C661 1.881 . S
C3285 C405 1.855 . S
C3321 C429 1.166 . S
C3340 C662 1.184 . S
