# Generated by pormake.
# Topology zzz, (3,6)-cn, num edge types: 1
# Building blocks:
#     Node 0, Type 0, BuildingBlock: PAMTOO_clean_linker_0, # of connection points: 3
#     Node 1, Type 0, BuildingBlock: PAMTOO_clean_linker_0, # of connection points: 3
#     Node 2, Type 0, BuildingBlock: PAMTOO_clean_linker_0, # of connection points: 3
#     Node 3, Type 0, BuildingBlock: PAMTOO_clean_linker_0, # of connection points: 3
#     Node 4, Type 0, BuildingBlock: PAMTOO_clean_linker_0, # of connection points: 3
#     Node 5, Type 0, BuildingBlock: PAMTOO_clean_linker_0, # of connection points: 3
#     Node 6, Type 0, BuildingBlock: PAMTOO_clean_linker_0, # of connection points: 3
#     Node 7, Type 0, BuildingBlock: PAMTOO_clean_linker_0, # of connection points: 3
#     Node 8, Type 1, BuildingBlock: BETDAH_clean_sbu_0, # of connection points: 6
#     Node 9, Type 1, BuildingBlock: BETDAH_clean_sbu_0, # of connection points: 6
#     Node 10, Type 1, BuildingBlock: BETDAH_clean_sbu_0, # of connection points: 6
#     Node 11, Type 1, BuildingBlock: BETDAH_clean_sbu_0, # of connection points: 6
#     Edge 12, Type (0, 1), BuildingBlock: TEMPAE_clean_linker_10, # of connection points: 2
#     Edge 13, Type (0, 1), BuildingBlock: TEMPAE_clean_linker_10, # of connection points: 2
#     Edge 14, Type (0, 1), BuildingBlock: TEMPAE_clean_linker_10, # of connection points: 2
#     Edge 15, Type (0, 1), BuildingBlock: TEMPAE_clean_linker_10, # of connection points: 2
#     Edge 16, Type (0, 1), BuildingBlock: TEMPAE_clean_linker_10, # of connection points: 2
#     Edge 17, Type (0, 1), BuildingBlock: TEMPAE_clean_linker_10, # of connection points: 2
#     Edge 18, Type (0, 1), BuildingBlock: TEMPAE_clean_linker_10, # of connection points: 2
#     Edge 19, Type (0, 1), BuildingBlock: TEMPAE_clean_linker_10, # of connection points: 2
#     Edge 20, Type (0, 1), BuildingBlock: TEMPAE_clean_linker_10, # of connection points: 2
#     Edge 21, Type (0, 1), BuildingBlock: TEMPAE_clean_linker_10, # of connection points: 2
#     Edge 22, Type (0, 1), BuildingBlock: TEMPAE_clean_linker_10, # of connection points: 2
#     Edge 23, Type (0, 1), BuildingBlock: TEMPAE_clean_linker_10, # of connection points: 2
#     Edge 24, Type (0, 1), BuildingBlock: TEMPAE_clean_linker_10, # of connection points: 2
#     Edge 25, Type (0, 1), BuildingBlock: TEMPAE_clean_linker_10, # of connection points: 2
#     Edge 26, Type (0, 1), BuildingBlock: TEMPAE_clean_linker_10, # of connection points: 2
#     Edge 27, Type (0, 1), BuildingBlock: TEMPAE_clean_linker_10, # of connection points: 2
#     Edge 28, Type (0, 1), BuildingBlock: TEMPAE_clean_linker_10, # of connection points: 2
#     Edge 29, Type (0, 1), BuildingBlock: TEMPAE_clean_linker_10, # of connection points: 2
#     Edge 30, Type (0, 1), BuildingBlock: TEMPAE_clean_linker_10, # of connection points: 2
#     Edge 31, Type (0, 1), BuildingBlock: TEMPAE_clean_linker_10, # of connection points: 2
#     Edge 32, Type (0, 1), BuildingBlock: TEMPAE_clean_linker_10, # of connection points: 2
#     Edge 33, Type (0, 1), BuildingBlock: TEMPAE_clean_linker_10, # of connection points: 2
#     Edge 34, Type (0, 1), BuildingBlock: TEMPAE_clean_linker_10, # of connection points: 2
#     Edge 35, Type (0, 1), BuildingBlock: TEMPAE_clean_linker_10, # of connection points: 2
# Relax obj value: 0.269
# Max RMSD: 0.190
# Mean RMSD: 0.163
data_MOF--net-zzz--node1-BETDAH_clean_sbu_0--node2-PAMTOO_clean_linker_0--edge1-TEMPAE_clean_linker_10
_symmetry_space_group_name_H-M    P1
_symmetry_Int_Tables_number       1
_symmetry_cell_setting            triclinic
loop_
_symmetry_equiv_pos_as_xyz
'x, y, z'
_cell_length_a     52.794496
_cell_length_b     52.516135
_cell_length_c     13.414698
_cell_angle_alpha  89.869041
_cell_angle_beta   89.887703
_cell_angle_gamma 90.057606
loop_
_atom_site_label
_atom_site_type_symbol
_atom_site_fract_x
_atom_site_fract_y
_atom_site_fract_z
_atom_type_partial_charge
H0 H 0.80897 0.51195 0.45372 0.0
H1 H 0.74477 0.52191 0.27549 0.0
H2 H 0.74116 0.54298 0.58917 0.0
H3 H 0.70809 0.50552 0.31572 0.0
C4 C 0.70048 0.5251 0.32748 0.0
O5 O 0.71107 0.53356 0.41891 0.0
H6 H 0.70773 0.53817 0.26845 0.0
C7 C 0.78928 0.51793 0.44954 0.0
C8 C 0.7779 0.52975 0.53083 0.0
C9 C 0.77636 0.51428 0.36139 0.0
C10 C 0.75229 0.52362 0.34981 0.0
C11 C 0.73746 0.53157 0.43192 0.0
C12 C 0.75102 0.53554 0.52475 0.0
H13 H 0.03578 0.802 0.43594 0.0
H14 H 0.02649 0.72773 0.30901 0.0
H15 H 0.97842 0.75165 0.55151 0.0
H16 H 0.9887 0.6789 0.49365 0.0
C17 C 1.00096 0.68928 0.43985 0.0
O18 O 0.99014 0.71317 0.42171 0.0
H19 H 0.01966 0.69158 0.47711 0.0
C20 C 0.02702 0.7833 0.43859 0.0
C21 C 1.00677 0.77952 0.50429 0.0
C22 C 0.03386 0.76505 0.36728 0.0
C23 C 0.02176 0.74149 0.36621 0.0
C24 C 1.00252 0.73587 0.43407 0.0
C25 C 0.99458 0.75512 0.50355 0.0
H26 H 0.73075 0.03231 0.3894 0.0
H27 H 0.80448 1.0124 0.28703 0.0
H28 H 0.78861 1.01294 0.60245 0.0
H29 H 0.85504 0.03413 0.51004 0.0
C30 C 0.84464 0.03059 0.43951 0.0
O31 O 0.82629 1.01184 0.45837 0.0
H32 H 0.83547 0.04907 0.42048 0.0
C33 C 0.75023 0.02766 0.40734 0.0
C34 C 0.75638 0.0216 0.50551 0.0
C35 C 0.7672 0.02354 0.32928 0.0
C36 C 0.79202 1.01686 0.34837 0.0
C37 C 0.80081 1.01571 0.44614 0.0
C38 C 0.78264 1.01681 0.52679 0.0
H39 H 0.53313 0.732 0.4129 0.0
H40 H 0.53239 0.80778 0.292 0.0
H41 H 0.50768 0.79404 0.59487 0.0
H42 H 0.4874 0.85381 0.47588 0.0
C43 C 0.49664 0.84334 0.41391 0.0
O44 O 0.51736 0.83015 0.45272 0.0
H45 H 0.48229 0.82961 0.38529 0.0
C46 C 0.53045 0.75234 0.42326 0.0
C47 C 0.52052 0.7605 0.51362 0.0
C48 C 0.53413 0.76894 0.34272 0.0
C49 C 0.52978 0.79494 0.35459 0.0
C50 C 0.52069 0.80441 0.44519 0.0
C51 C 0.51548 0.78704 0.52549 0.0
H52 H 0.22562 0.4966 0.10385 0.0
H53 H 0.29766 0.51433 0.22376 0.0
H54 H 0.28743 0.51607 0.90729 0.0
H55 H 0.35277 0.49997 0.01178 0.0
C56 C 0.34246 0.5035 0.08268 0.0
O57 O 0.32195 0.51944 0.06083 0.0
H58 H 0.33566 0.48451 0.10839 0.0
C59 C 0.24577 0.49935 0.09087 0.0
C60 C 0.25403 0.50487 0.99404 0.0
C61 C 0.26099 0.50543 0.17255 0.0
C62 C 0.28666 0.50916 0.15968 0.0
C63 C 0.29711 0.51179 0.06511 0.0
C64 C 0.28041 0.51083 0.98037 0.0
H65 H 0.03969 0.23187 0.11565 0.0
H66 H 0.0265 0.30731 0.2234 0.0
H67 H 1.01212 0.2893 0.91502 0.0
H68 H 0.02386 0.35773 0.98708 0.0
C69 C 0.02563 0.34841 0.06116 0.0
O70 O 1.01066 0.32641 0.05958 0.0
H71 H 0.04597 0.34332 0.06987 0.0
C72 C 0.03544 0.25173 0.10052 0.0
C73 C 0.0275 0.25815 0.0047 0.0
C74 C 0.0338 0.26889 0.18004 0.0
C75 C 0.02776 0.29423 0.16144 0.0
C76 C 0.02012 0.30217 0.06701 0.0
C77 C 0.0194 0.28385 0.98734 0.0
H78 H 0.31139 0.04041 0.06926 0.0
H79 H 0.24284 0.0523 0.21588 0.0
H80 H 0.24251 0.01956 0.91655 0.0
H81 H 0.20179 0.05155 0.20119 0.0
C82 C 0.20205 0.03078 0.18483 0.0
O83 O 0.212 0.02793 0.08693 0.0
H84 H 0.21589 0.02115 0.23501 0.0
C85 C 0.29083 0.04058 0.06412 0.0
C86 C 0.27905 0.03299 0.9761 0.0
C87 C 0.27723 0.04379 0.15101 0.0
C88 C 0.25139 0.04606 0.14701 0.0
C89 C 0.2375 0.03447 0.06899 0.0
C90 C 0.25195 0.02795 0.98002 0.0
H91 H 0.52489 0.30939 0.064 0.0
H92 H 0.5241 0.23635 0.20695 0.0
H93 H 0.48378 0.24752 0.92954 0.0
H94 H 0.53088 0.19857 0.05568 0.0
C95 C 0.51105 0.19229 0.07029 0.0
O96 O 0.4953 0.21365 0.08063 0.0
H97 H 0.50496 0.1816 1.00322 0.0
C98 C 0.51907 0.28953 0.06334 0.0
C99 C 0.50373 0.28106 0.98607 0.0
C100 C 0.52711 0.27344 0.14012 0.0
C101 C 0.5185 0.24841 0.14513 0.0
C102 C 0.50327 0.23844 0.06957 0.0
C103 C 0.49578 0.25485 0.98819 0.0
Ho104 Ho 0.03392 1.01319 0.84287 0.0
Ho105 Ho 0.99208 0.0239 0.67156 0.0
C106 C 1.00654 0.96484 0.7251 0.0
C107 C 0.05315 0.99857 0.00748 0.0
C108 C 0.05203 0.97223 0.04321 0.0
C109 C 0.02879 0.95912 0.04134 0.0
C110 C 0.02822 0.93276 0.04886 0.0
C111 C 0.05083 0.91905 0.05911 0.0
C112 C 0.07398 0.93212 0.06461 0.0
C113 C 0.07458 0.95854 0.05611 0.0
C114 C 0.05615 1.01843 0.65787 0.0
C115 C 0.01847 0.07183 0.79514 0.0
C116 C 0.97316 0.03759 0.50406 0.0
C117 C 0.97455 0.06253 0.45517 0.0
C118 C 0.99739 0.07627 0.4557 0.0
C119 C 0.99749 0.10205 0.43171 0.0
C120 C 0.97484 0.11435 0.40667 0.0
C121 C 0.95226 0.10048 0.40043 0.0
C122 C 0.95209 0.07464 0.42526 0.0
C123 C 0.96962 1.01817 0.85526 0.0
O124 O 0.02153 0.97298 0.79851 0.0
O125 O 0.99395 0.98066 0.66514 0.0
O126 O 0.06677 1.00151 0.92674 0.0
O127 O 0.0315 1.01075 0.00353 0.0
O128 O 0.06844 1.01396 0.73966 0.0
O129 O 0.03308 0.02043 0.68279 0.0
O130 O 1.00553 0.06392 0.71538 0.0
O131 O 0.02973 0.05583 0.85789 0.0
O132 O 0.9602 0.03764 0.58719 0.0
O133 O 0.99434 0.02463 0.51055 0.0
O134 O 0.95736 0.02263 0.77337 0.0
O135 O 0.99284 1.01676 0.83155 0.0
H136 H 1.01109 0.96901 0.02836 0.0
H137 H 1.01016 0.92303 0.04373 0.0
H138 H 0.09162 0.92188 0.0741 0.0
H139 H 0.09275 0.96805 0.05394 0.0
H140 H 1.0149 0.06755 0.48026 0.0
H141 H 1.01507 0.11265 0.43666 0.0
H142 H 0.93465 0.10989 0.38165 0.0
H143 H 0.93421 0.0645 0.42671 0.0
Ho144 Ho 0.51824 0.0372 0.83511 0.0
Ho145 Ho 0.51514 0.99858 0.67916 0.0
C146 C 0.57071 1.01838 0.72625 0.0
C147 C 0.52815 0.05692 0.0059 0.0
C148 C 0.55232 0.05438 0.05846 0.0
C149 C 0.56385 0.0303 0.0644 0.0
C150 C 0.58969 0.02834 0.08157 0.0
C151 C 0.60434 0.05033 0.09378 0.0
C152 C 0.5926 0.07427 0.09676 0.0
C153 C 0.56664 0.07629 0.07872 0.0
C154 C 0.51378 0.06459 0.66116 0.0
C155 C 0.46204 0.02128 0.77493 0.0
C156 C 0.50171 0.9711 0.53026 0.0
C157 C 0.47807 0.97432 0.47505 0.0
C158 C 0.46844 0.99903 0.46258 0.0
C159 C 0.4434 1.00269 0.43562 0.0
C160 C 0.42745 0.98172 0.42134 0.0
C161 C 0.43714 0.95694 0.42953 0.0
C162 C 0.46248 0.95324 0.45602 0.0
C163 C 0.5254 0.97806 0.86294 0.0
O164 O 0.56018 0.02746 0.80871 0.0
O165 O 0.55642 1.0083 0.65607 0.0
O166 O 0.52982 0.06967 0.92268 0.0
O167 O 0.5148 0.03613 0.99605 0.0
O168 O 0.51396 0.07392 0.75013 0.0
O169 O 0.51428 0.04038 0.66791 0.0
O170 O 0.47314 1.00895 0.70031 0.0
O171 O 0.47576 0.03334 0.84214 0.0
O172 O 0.49829 0.96402 0.62258 0.0
O173 O 0.51807 0.98973 0.52201 0.0
O174 O 0.53639 0.97164 0.78033 0.0
O175 O 0.50982 0.99575 0.84304 0.0
H176 H 0.55341 1.01304 0.0482 0.0
H177 H 0.59844 1.00967 0.08114 0.0
H178 H 0.6037 0.09143 0.10685 0.0
H179 H 0.55817 0.09501 0.07282 0.0
H180 H 0.47972 1.01559 0.48036 0.0
H181 H 0.43614 0.02196 0.43102 0.0
H182 H 0.42498 0.94058 0.41808 0.0
H183 H 0.46947 0.93406 0.46725 0.0
Ho184 Ho 0.49307 0.52254 0.82844 0.0
Ho185 Ho 0.53039 0.51878 0.68209 0.0
C186 C 0.51409 0.57521 0.72317 0.0
C187 C 0.46861 0.53715 0.98341 0.0
C188 C 0.47349 0.56093 0.03711 0.0
C189 C 0.49867 0.56886 0.05112 0.0
C190 C 0.50397 0.5939 0.07651 0.0
C191 C 0.48425 0.61147 0.08822 0.0
C192 C 0.459 0.60321 0.08165 0.0
C193 C 0.45364 0.578 0.05575 0.0
C194 C 0.47181 0.51361 0.64626 0.0
C195 C 0.50744 0.46571 0.77757 0.0
C196 C 0.55842 0.50692 0.53218 0.0
C197 C 0.55791 0.48287 0.47874 0.0
C198 C 0.53514 0.46909 0.47637 0.0
C199 C 0.53524 0.44353 0.45157 0.0
C200 C 0.55802 0.43147 0.42616 0.0
C201 C 0.58059 0.44568 0.42221 0.0
C202 C 0.58056 0.47129 0.44944 0.0
C203 C 0.55079 0.52923 0.86539 0.0
O204 O 0.50412 0.56473 0.80452 0.0
O205 O 0.52413 0.56033 0.65529 0.0
O206 O 0.45987 0.5402 0.89332 0.0
O207 O 0.48665 0.52022 0.98743 0.0
O208 O 0.46504 0.50247 0.72852 0.0
O209 O 0.48982 0.52884 0.66469 0.0
O210 O 0.51774 0.47671 0.6979 0.0
O211 O 0.49812 0.48021 0.84871 0.0
O212 O 0.56596 0.50478 0.62429 0.0
O213 O 0.53798 0.52071 0.52387 0.0
O214 O 0.55705 0.54051 0.78308 0.0
O215 O 0.53359 0.51315 0.84644 0.0
H216 H 0.51444 0.55624 0.03604 0.0
H217 H 0.52358 0.59983 0.08258 0.0
H218 H 0.44353 0.61656 0.09044 0.0
H219 H 0.43415 0.57227 0.04411 0.0
H220 H 0.51743 0.47761 0.49993 0.0
H221 H 0.51763 0.43299 0.45665 0.0
H222 H 0.5983 0.43684 0.40077 0.0
H223 H 0.59828 0.4817 0.45186 0.0
Ho224 Ho 1.0136 0.49872 0.81884 0.0
Ho225 Ho 0.01764 0.5372 0.67404 0.0
C226 C 0.96078 0.52356 0.73053 0.0
C227 C 1.00229 0.46881 0.9641 0.0
C228 C 0.97964 0.47068 0.02481 0.0
C229 C 0.9678 0.49452 0.03146 0.0
C230 C 0.94242 0.49606 0.05615 0.0
C231 C 0.92869 0.4738 0.0759 0.0
C232 C 0.94098 0.45012 0.07737 0.0
C233 C 0.96649 0.44855 0.05149 0.0
C234 C 0.02306 0.47893 0.63364 0.0
C235 C 0.0698 0.51688 0.77995 0.0
C236 C 0.02896 0.55845 0.50751 0.0
C237 C 0.054 0.55725 0.46139 0.0
C238 C 0.0672 0.53406 0.46241 0.0
C239 C 0.09296 0.53357 0.4432 0.0
C240 C 0.106 0.55617 0.42082 0.0
C241 C 0.09278 0.57932 0.41722 0.0
C242 C 0.06689 0.57985 0.43831 0.0
C243 C 1.01322 0.56461 0.84598 0.0
O244 O 0.97151 0.51015 0.80334 0.0
O245 O 0.9751 0.5353 0.6643 0.0
O246 O 0.99743 0.46341 0.87129 0.0
O247 O 0.01823 0.48768 0.97317 0.0
O248 O 0.03545 0.47317 0.71354 0.0
O249 O 1.00742 0.49636 0.65555 0.0
O250 O 0.05964 0.52683 0.69845 0.0
O251 O 0.05469 0.50711 0.84788 0.0
O252 O 0.02867 0.5708 0.5915 0.0
O253 O 0.01649 0.537 0.51268 0.0
O254 O 1.01365 0.57378 0.75688 0.0
O255 O 1.01343 0.54031 0.84283 0.0
H256 H 0.9775 0.51179 0.00892 0.0
H257 H 0.93322 0.5145 0.0538 0.0
H258 H 0.93062 0.43283 0.09444 0.0
H259 H 0.9754 0.43004 0.04541 0.0
H260 H 0.05801 0.51642 0.48397 0.0
H261 H 0.10285 0.51556 0.44937 0.0
H262 H 0.1025 0.59696 0.39996 0.0
H263 H 0.05718 0.59798 0.44162 0.0
C264 C 0.15306 0.01975 0.1743 0.0
C265 C 0.1762 0.02155 0.22585 0.0
C266 C 0.12957 1.01701 0.22743 0.0
C267 C 0.1289 1.01796 0.33405 0.0
C268 C 0.15219 0.02034 0.38484 0.0
C269 C 0.17501 0.02128 0.33115 0.0
C270 C 0.10543 1.01338 0.16978 0.0
C271 C 0.15322 0.02307 0.49707 0.0
C272 C 0.07335 0.03933 0.50122 0.0
C273 C 0.06827 1.01714 0.55636 0.0
C274 C 0.09136 0.03949 0.4222 0.0
C275 C 0.10455 1.0168 0.39568 0.0
C276 C 0.09783 0.99396 0.44639 0.0
C277 C 0.08031 0.99452 0.52658 0.0
C278 C 0.0981 0.06457 0.37406 0.0
C279 C 0.11052 0.96909 0.42047 0.0
H280 H 0.1532 0.02076 0.09365 0.0
H281 H 0.19238 0.02366 0.37322 0.0
H282 H 0.0949 0.99675 0.19988 0.0
H283 H 0.09302 0.03022 0.17874 0.0
H284 H 0.10908 1.01055 0.08902 0.0
H285 H 0.17249 0.02799 0.52413 0.0
H286 H 0.13997 0.03814 0.52226 0.0
H287 H 0.14736 1.00499 0.53319 0.0
H288 H 0.06475 0.05705 0.52497 0.0
H289 H 0.07695 0.97733 0.56956 0.0
H290 H 0.09805 0.06281 0.2918 0.0
H291 H 0.11753 0.07018 0.39665 0.0
H292 H 0.08479 0.07999 0.39569 0.0
H293 H 0.11003 0.96607 0.33861 0.0
H294 H 0.10135 0.95261 0.45808 0.0
H295 H 0.13071 0.96963 0.44309 0.0
C296 C 0.53273 0.15892 0.18068 0.0
C297 C 0.51097 0.17364 0.16024 0.0
C298 C 0.53307 0.13981 0.25575 0.0
C299 C 0.511 0.13464 0.31313 0.0
C300 C 0.48877 0.14899 0.29131 0.0
C301 C 0.48898 0.16805 0.21553 0.0
C302 C 0.5573 0.12534 0.27448 0.0
C303 C 0.46464 0.14426 0.34862 0.0
C304 C 0.50801 0.07242 0.4723 0.0
C305 C 0.51343 0.08135 0.56877 0.0
C306 C 0.50681 0.0893 0.38884 0.0
C307 C 0.51179 0.11586 0.40063 0.0
C308 C 0.51797 0.12465 0.49753 0.0
C309 C 0.51843 0.10757 0.57927 0.0
C310 C 0.50003 0.07869 0.288 0.0
C311 C 0.52444 0.15228 0.51515 0.0
H312 H 0.5497 0.16229 0.13698 0.0
H313 H 0.4718 0.1785 0.19915 0.0
H314 H 0.56457 0.12997 0.34985 0.0
H315 H 0.55372 0.10454 0.2729 0.0
H316 H 0.57223 0.12994 0.21878 0.0
H317 H 0.44836 0.15497 0.31717 0.0
H318 H 0.46001 0.12364 0.34859 0.0
H319 H 0.46724 0.15008 0.42739 0.0
H320 H 0.50439 0.05232 0.46208 0.0
H321 H 0.523 0.11492 0.6525 0.0
H322 H 0.51611 0.08132 0.23565 0.0
H323 H 0.48363 0.08921 0.25672 0.0
H324 H 0.49525 0.0581 0.29146 0.0
H325 H 0.54146 0.15752 0.47096 0.0
H326 H 0.52827 0.15639 0.59491 0.0
H327 H 0.5087 0.16465 0.48968 0.0
C328 C 0.38713 0.5153 0.14099 0.0
C329 C 0.36105 0.51377 0.16259 0.0
C330 C 0.40555 0.51835 0.21689 0.0
C331 C 0.39808 0.52056 0.31812 0.0
C332 C 0.37177 0.52097 0.33985 0.0
C333 C 0.35381 0.51711 0.26291 0.0
C334 C 0.43319 0.51763 0.18917 0.0
C335 C 0.36257 0.52428 0.44563 0.0
C336 C 0.44167 0.49397 0.52327 0.0
C337 C 0.45421 0.51569 0.55869 0.0
C338 C 0.42396 0.49538 0.44449 0.0
C339 C 0.41757 0.51928 0.40142 0.0
C340 C 0.42998 0.54143 0.43802 0.0
C341 C 0.44845 0.5393 0.51443 0.0
C342 C 0.41206 0.47109 0.40701 0.0
C343 C 0.42368 0.56747 0.39738 0.0
H344 H 0.39334 0.51261 0.06469 0.0
H345 H 0.33424 0.51548 0.28347 0.0
H346 H 0.44234 0.5359 0.20965 0.0
H347 H 0.44295 0.50228 0.23104 0.0
H348 H 0.43592 0.51419 0.10843 0.0
H349 H 0.34168 0.52656 0.44984 0.0
H350 H 0.36803 0.50747 0.49095 0.0
H351 H 0.37167 0.54121 0.47972 0.0
H352 H 0.44594 0.47568 0.55687 0.0
H353 H 0.45777 0.55629 0.54193 0.0
H354 H 0.41511 0.46933 0.32543 0.0
H355 H 0.39131 0.47156 0.42004 0.0
H356 H 0.41993 0.45392 0.44419 0.0
H357 H 0.43284 0.56997 0.32352 0.0
H358 H 0.43049 0.58289 0.44724 0.0
H359 H 0.40294 0.56963 0.38696 0.0
C360 C 0.0271 0.39337 0.13069 0.0
C361 C 0.019 0.36801 0.1434 0.0
C362 C 0.02533 0.41167 0.20773 0.0
C363 C 1.01544 0.40481 0.3025 0.0
C364 C 1.00631 0.37945 0.31515 0.0
C365 C 1.00821 0.36146 0.23614 0.0
C366 C 0.03507 0.43826 0.18856 0.0
C367 C 0.9948 0.37119 0.413 0.0
C368 C 0.03987 0.44241 0.53017 0.0
C369 C 0.02088 0.4607 0.54672 0.0
C370 C 0.03812 0.42422 0.4526 0.0
C371 C 0.01657 0.42359 0.38927 0.0
C372 C 0.99706 0.44179 0.4066 0.0
C373 C 0.99958 0.4602 0.48372 0.0
C374 C 0.05965 0.40571 0.43782 0.0
C375 C 0.97349 0.44209 0.34322 0.0
H376 H 0.03565 0.3988 0.06023 0.0
H377 H 1.0015 0.34223 0.24785 0.0
H378 H 0.02002 0.45239 0.20464 0.0
H379 H 0.05116 0.44237 0.2392 0.0
H380 H 0.04151 0.44096 0.11036 0.0
H381 H 0.98831 0.35106 0.41152 0.0
H382 H 1.00882 0.3734 0.47387 0.0
H383 H 0.97843 0.38358 0.43123 0.0
H384 H 0.05638 0.44238 0.5781 0.0
H385 H 0.98458 0.47395 0.49573 0.0
H386 H 0.06758 0.40791 0.3616 0.0
H387 H 0.05259 0.38588 0.44469 0.0
H388 H 0.07512 0.40854 0.49268 0.0
H389 H 0.97771 0.45173 0.27147 0.0
H390 H 0.95778 0.45255 0.38005 0.0
H391 H 0.96701 0.42247 0.32621 0.0
C392 C 0.85729 0.02685 0.25419 0.0
C393 C 0.86366 0.0239 0.35545 0.0
C394 C 0.87541 0.02377 0.17689 0.0
C395 C 0.90124 0.01902 0.20004 0.0
C396 C 0.90781 1.01596 0.30198 0.0
C397 C 0.8891 1.01816 0.37768 0.0
C398 C 0.86688 0.02601 0.06997 0.0
C399 C 0.93492 1.01122 0.33143 0.0
C400 C 0.94658 0.99504 0.99324 0.0
C401 C 0.95713 1.01772 0.95596 0.0
C402 C 0.92896 0.99507 0.07342 0.0
C403 C 0.92141 1.01838 0.1184 0.0
C404 C 0.93273 0.04128 0.08282 0.0
C405 C 0.95004 0.04068 1.00182 0.0
C406 C 0.91735 0.97016 0.10614 0.0
C407 C 0.92583 0.06666 0.12787 0.0
H408 H 0.83831 0.03264 0.23484 0.0
H409 H 0.89465 1.01642 0.45513 0.0
H410 H 0.87555 0.04307 0.03495 0.0
H411 H 0.8733 1.00917 0.027 0.0
H412 H 0.84595 0.02752 0.06355 0.0
H413 H 0.93688 1.00799 0.4128 0.0
H414 H 0.94256 0.99439 0.29188 0.0
H415 H 0.94673 0.02774 0.30876 0.0
H416 H 0.95115 0.97729 0.95626 0.0
H417 H 0.95732 0.05841 0.97158 0.0
H418 H 0.89681 0.97022 0.08865 0.0
H419 H 0.91914 0.9677 0.18791 0.0
H420 H 0.92626 0.95356 0.06879 0.0
H421 H 0.90594 0.07141 0.10895 0.0
H422 H 0.93823 0.08228 0.10037 0.0
H423 H 0.92717 0.06576 0.21036 0.0
C424 C 0.48474 0.86931 0.26083 0.0
C425 C 0.50332 0.86272 0.33136 0.0
C426 C 0.48866 0.88871 0.18909 0.0
C427 C 0.51182 0.90245 0.18664 0.0
C428 C 0.53065 0.89612 0.25845 0.0
C429 C 0.52612 0.87662 0.33012 0.0
C430 C 0.46784 0.89449 0.11551 0.0
C431 C 0.55551 0.91025 0.26055 0.0
C432 C 0.53089 0.9341 0.93778 0.0
C433 C 0.52285 0.9595 0.94906 0.0
C434 C 0.52757 0.91568 0.01396 0.0
C435 C 0.51652 0.92259 0.10658 0.0
C436 C 0.50898 0.94841 0.11979 0.0
C437 C 0.51185 0.96634 0.04083 0.0
C438 C 0.53543 0.88852 0.99419 0.0
C439 C 0.49745 0.95706 0.21696 0.0
H440 H 0.46676 0.85932 0.26249 0.0
H441 H 0.54038 0.8724 0.38573 0.0
H442 H 0.46241 0.91484 0.12045 0.0
H443 H 0.47474 0.89108 0.03851 0.0
H444 H 0.45069 0.88264 0.12842 0.0
H445 H 0.56859 0.90263 0.31811 0.0
H446 H 0.56494 0.90907 0.18673 0.0
H447 H 0.55201 0.9307 0.27596 0.0
H448 H 0.53927 0.9283 0.86762 0.0
H449 H 0.5055 0.98577 0.05118 0.0
H450 H 0.51876 0.87574 1.00106 0.0
H451 H 0.54948 0.88229 0.05057 0.0
H452 H 0.54381 0.88606 0.9188 0.0
H453 H 0.47807 0.94909 0.22442 0.0
H454 H 0.4962 0.97814 0.22174 0.0
H455 H 0.50869 0.94994 0.28103 0.0
C456 C 0.65159 0.53614 0.33414 0.0
C457 C 0.67243 0.52221 0.29833 0.0
C458 C 0.62806 0.53612 0.28105 0.0
C459 C 0.62598 0.52378 0.18639 0.0
C460 C 0.64693 0.50963 0.1518 0.0
C461 C 0.66908 0.50844 0.20887 0.0
C462 C 0.60553 0.54965 0.32486 0.0
C463 C 0.64702 0.49744 0.04965 0.0
C464 C 0.56695 0.50932 0.02689 0.0
C465 C 0.56758 0.52916 0.95623 0.0
C466 C 0.58465 0.50816 0.10642 0.0
C467 C 0.6035 0.52737 0.11698 0.0
C468 C 0.60342 0.54793 0.04793 0.0
C469 C 0.58564 0.54854 0.96919 0.0
C470 C 0.58385 0.48575 0.17686 0.0
C471 C 0.62318 0.56867 0.05358 0.0
H472 H 0.6537 0.54725 0.40152 0.0
H473 H 0.68509 0.49818 0.1778 0.0
H474 H 0.60051 0.56629 0.27788 0.0
H475 H 0.58889 0.53669 0.32561 0.0
H476 H 0.60918 0.55628 0.40209 0.0
H477 H 0.66438 0.48603 0.03574 0.0
H478 H 0.63035 0.48487 0.04015 0.0
H479 H 0.64591 0.5125 0.99164 0.0
H480 H 0.55321 0.49415 0.01797 0.0
H481 H 0.58633 0.56403 0.91568 0.0
H482 H 0.58453 0.49256 0.25494 0.0
H483 H 0.60069 0.4735 0.16501 0.0
H484 H 0.5666 0.47392 0.16656 0.0
H485 H 0.62301 0.57748 0.12862 0.0
H486 H 0.62012 0.58384 0.99701 0.0
H487 H 0.64229 0.56039 0.04191 0.0
C488 C 0.02548 0.65699 0.33402 0.0
C489 C 1.00393 0.67257 0.34576 0.0
C490 C 0.02761 0.63913 0.25526 0.0
C491 C 1.00754 0.63604 0.18603 0.0
C492 C 0.98581 0.65183 0.19705 0.0
C493 C 0.9842 0.66962 0.27653 0.0
C494 C 0.05139 0.62338 0.24645 0.0
C495 C 0.96396 0.64964 0.12539 0.0
C496 C 0.021 0.60706 0.92734 0.0
C497 C 1.01274 0.58165 0.93681 0.0
C498 C 0.01987 0.62452 0.00742 0.0
C499 C 1.0096 0.61694 0.10071 0.0
C500 C 1.00143 0.59117 0.11141 0.0
C501 C 1.00337 0.57383 0.03017 0.0
C502 C 0.02969 0.65124 0.99175 0.0
C503 C 0.99057 0.58185 0.20892 0.0
H504 H 0.0407 0.65851 0.38779 0.0
H505 H 0.96723 0.68098 0.28552 0.0
H506 H 0.04665 0.60292 0.25519 0.0
H507 H 0.05987 0.62573 0.17129 0.0
H508 H 0.0658 0.62869 0.30293 0.0
H509 H 0.94879 0.66372 0.14122 0.0
H510 H 0.97072 0.65253 0.0478 0.0
H511 H 0.95578 0.63019 0.1298 0.0
H512 H 0.02855 0.61344 0.85633 0.0
H513 H 0.99695 0.55437 0.03912 0.0
H514 H 0.04483 0.65546 0.04659 0.0
H515 H 1.01426 0.6652 0.00435 0.0
H516 H 0.03747 0.65418 0.91558 0.0
H517 H 1.00583 0.58093 0.26556 0.0
H518 H 0.98192 0.56263 0.20202 0.0
H519 H 0.97599 0.59529 0.23684 0.0
C520 C 0.04194 0.23597 0.30606 0.0
C521 C 0.02866 0.25793 0.27909 0.0
C522 C 0.02859 0.21463 0.33965 0.0
C523 C 1.00211 0.21668 0.35613 0.0
C524 C 0.99004 0.24059 0.35022 0.0
C525 C 1.00392 0.2614 0.31497 0.0
C526 C 0.04206 0.18926 0.34287 0.0
C527 C 0.96203 0.24371 0.37012 0.0
C528 C 0.97345 0.1531 0.30085 0.0
C529 C 0.97492 0.14205 0.3955 0.0
C530 C 0.97937 0.1789 0.28794 0.0
C531 C 0.98727 0.19327 0.37155 0.0
C532 C 0.9855 0.18296 0.46821 0.0
C533 C 0.97959 0.15717 0.47928 0.0
C534 C 0.97884 0.19038 0.18466 0.0
C535 C 0.99193 0.19875 0.55838 0.0
H536 H 0.0614 0.23379 0.28128 0.0
H537 H 0.99395 0.27898 0.29897 0.0
H538 H 0.03752 0.17892 0.41286 0.0
H539 H 0.03552 0.17734 0.2796 0.0
H540 H 0.06295 0.19137 0.33685 0.0
H541 H 0.95476 0.26228 0.3426 0.0
H542 H 0.95094 0.22825 0.33461 0.0
H543 H 0.95846 0.24271 0.45141 0.0
H544 H 0.96928 0.14128 0.23675 0.0
H545 H 0.98001 0.14847 0.55266 0.0
H546 H 0.99846 0.19445 0.15928 0.0
H547 H 0.96852 0.20876 0.18547 0.0
H548 H 0.96952 0.17759 0.13003 0.0
H549 H 1.01236 0.20371 0.55651 0.0
H550 H 0.9874 0.18871 0.62908 0.0
H551 H 0.98137 0.21695 0.55695 0.0
C552 C 0.29121 1.00475 0.2321 0.0
C553 C 0.2877 0.03112 0.23834 0.0
C554 C 0.30981 0.99293 0.28887 0.0
C555 C 0.32342 1.0078 0.35835 0.0
C556 C 0.3154 0.03298 0.38015 0.0
C557 C 0.29804 0.04485 0.31666 0.0
C558 C 0.31726 0.96591 0.26297 0.0
C559 C 0.32766 0.04837 0.46124 0.0
C560 C 0.38192 0.97659 0.46612 0.0
C561 C 0.40054 0.98635 0.40199 0.0
C562 C 0.3565 0.98378 0.45494 0.0
C563 C 0.34996 1.00088 0.3778 0.0
C564 C 0.36881 1.01034 0.31182 0.0
C565 C 0.39389 1.00295 0.32507 0.0
C566 C 0.33683 0.97355 0.52631 0.0
C567 C 0.36259 0.02821 0.22673 0.0
H568 H 0.28194 0.99419 0.17297 0.0
H569 H 0.29425 0.06507 0.32296 0.0
H570 H 0.33802 0.9642 0.25171 0.0
H571 H 0.31179 0.953 0.32477 0.0
H572 H 0.30775 0.95904 0.19422 0.0
H573 H 0.31839 0.06717 0.47135 0.0
H574 H 0.32632 0.03768 0.5323 0.0
H575 H 0.34797 0.05154 0.44375 0.0
H576 H 0.38737 0.96408 0.52677 0.0
H577 H 0.40848 1.01037 0.27585 0.0
H578 H 0.32391 0.96043 0.48661 0.0
H579 H 0.32512 0.98933 0.55633 0.0
H580 H 0.34551 0.96298 0.58927 0.0
H581 H 0.34838 0.01931 0.17687 0.0
H582 H 0.37955 0.0334 0.18209 0.0
H583 H 0.35433 0.04612 0.25583 0.0
C584 C 0.5351 0.28643 0.31455 0.0
C585 C 0.54375 0.28432 0.21631 0.0
C586 C 0.54341 0.30668 0.37393 0.0
C587 C 0.55943 0.32532 0.33074 0.0
C588 C 0.57124 0.32072 0.23778 0.0
C589 C 0.56398 0.2994 0.18346 0.0
C590 C 0.53195 0.3103 0.47601 0.0
C591 C 0.5875 0.34036 0.18553 0.0
C592 C 0.5385 0.39333 0.34982 0.0
C593 C 0.55804 0.40397 0.4063 0.0
C594 C 0.53806 0.36736 0.32944 0.0
C595 C 0.55786 0.35174 0.36605 0.0
C596 C 0.57729 0.36217 0.42546 0.0
C597 C 0.57714 0.38832 0.44518 0.0
C598 C 0.51697 0.35696 0.26492 0.0
C599 C 0.59872 0.34594 0.46401 0.0
H600 H 0.51978 0.27434 0.34057 0.0
H601 H 0.57093 0.29718 0.10775 0.0
H602 H 0.54572 0.31933 0.52739 0.0
H603 H 0.51524 0.32302 0.47045 0.0
H604 H 0.52561 0.29186 0.50835 0.0
H605 H 0.57536 0.35161 0.13415 0.0
H606 H 0.59678 0.35373 0.23771 0.0
H607 H 0.60231 0.33097 0.13969 0.0
H608 H 0.52383 0.40547 0.31918 0.0
H609 H 0.592 0.39653 0.49061 0.0
H610 H 0.50683 0.34146 0.30461 0.0
H611 H 0.52498 0.34884 0.19537 0.0
H612 H 0.50292 0.37179 0.24422 0.0
H613 H 0.59115 0.32861 0.50102 0.0
H614 H 0.61092 0.35641 0.51743 0.0
H615 H 0.61065 0.33956 0.40064 0.0
C616 C 0.24379 0.51306 0.34371 0.0
C617 C 0.24911 0.52151 0.24741 0.0
C618 C 0.22621 0.52654 0.40146 0.0
C619 C 0.21279 0.5469 0.35659 0.0
C620 C 0.22161 0.55783 0.26676 0.0
C621 C 0.24052 0.54528 0.21474 0.0
C622 C 0.21901 0.5166 0.50299 0.0
C623 C 0.20772 0.57917 0.21457 0.0
C624 C 0.14293 0.53522 0.3443 0.0
C625 C 0.13338 0.55508 0.40221 0.0
C626 C 0.16884 0.53207 0.3317 0.0
C627 C 0.18567 0.54943 0.37815 0.0
C628 C 0.17624 0.56997 0.43487 0.0
C629 C 0.14998 0.57262 0.44608 0.0
C630 C 0.17795 0.51031 0.26689 0.0
C631 C 0.19366 0.58858 0.48625 0.0
H632 H 0.2517 0.49527 0.37043 0.0
H633 H 0.24611 0.55225 0.14172 0.0
H634 H 0.21265 0.53237 0.55193 0.0
H635 H 0.20317 0.50282 0.49562 0.0
H636 H 0.2352 0.50665 0.53867 0.0
H637 H 0.19065 0.57127 0.17742 0.0
H638 H 0.20138 0.59388 0.2681 0.0
H639 H 0.21967 0.58835 0.15638 0.0
H640 H 0.13001 0.52206 0.30847 0.0
H641 H 0.14252 0.58784 0.49195 0.0
H642 H 0.1898 0.49708 0.31131 0.0
H643 H 0.18965 0.51772 0.20447 0.0
H644 H 0.16208 0.49915 0.23465 0.0
H645 H 0.20005 0.58011 0.55776 0.0
H646 H 0.18387 0.60679 0.5029 0.0
H647 H 0.21082 0.59274 0.4412 0.0
C648 C 0.06898 0.79021 0.29625 0.0
C649 C 0.0486 0.77372 0.28032 0.0
C650 C 0.07307 0.81063 0.23141 0.0
C651 C 0.05743 0.81313 0.14626 0.0
C652 C 0.04106 0.79306 0.11861 0.0
C653 C 0.0367 0.77337 0.18694 0.0
C654 C 0.09037 0.83184 0.26514 0.0
C655 C 0.02504 0.79469 0.0257 0.0
C656 C 0.03295 0.88001 0.13449 0.0
C657 C 0.05016 0.89119 0.06838 0.0
C658 C 0.03391 0.854 0.15458 0.0
C659 C 0.05268 0.83893 0.10728 0.0
C660 C 0.06874 0.84973 0.03432 0.0
C661 C 0.06741 0.87595 0.01598 0.0
C662 C 1.016 0.84322 0.23202 0.0
C663 C 0.08805 0.83384 0.97972 0.0
H664 H 0.07859 0.78986 0.36768 0.0
H665 H 0.02129 0.76017 0.17336 0.0
H666 H 0.1004 0.84071 0.2013 0.0
H667 H 0.07884 0.84683 0.30182 0.0
H668 H 0.10461 0.82495 0.31978 0.0
H669 H 1.01385 0.77706 0.01321 0.0
H670 H 1.01171 0.81096 0.0313 0.0
H671 H 0.0373 0.79815 0.95984 0.0
H672 H 0.01961 0.89186 0.17479 0.0
H673 H 0.08025 0.88466 0.96272 0.0
H674 H 0.02668 0.83858 0.30087 0.0
H675 H 1.00695 0.82548 0.20518 0.0
H676 H 1.00073 0.85687 0.25122 0.0
H677 H 0.10295 0.82745 0.03229 0.0
H678 H 0.09722 0.84454 0.91791 0.0
H679 H 0.07897 0.8165 0.94897 0.0
C680 C 0.73967 1.00178 0.21586 0.0
C681 C 0.75646 0.02202 0.22965 0.0
C682 C 0.7156 1.00652 0.1777 0.0
C683 C 0.7103 0.031 0.1382 0.0
C684 C 0.72989 0.04933 0.12939 0.0
C685 C 0.75284 0.04484 0.17821 0.0
C686 C 0.69564 0.98617 0.19293 0.0
C687 C 0.72538 0.07503 0.0825 0.0
C688 C 0.64505 0.03426 0.0263 0.0
C689 C 0.63196 0.04802 0.09939 0.0
C690 C 0.67096 0.02952 0.03594 0.0
C691 C 0.68384 0.03865 0.12086 0.0
C692 C 0.67067 0.0531 0.19395 0.0
C693 C 0.64488 0.05794 0.1811 0.0
C694 C 0.68405 1.01321 0.95908 0.0
C695 C 0.68266 0.06248 0.28932 0.0
H696 H 0.74311 0.98397 0.2548 0.0
H697 H 0.76623 0.06031 0.18803 0.0
H698 H 0.67596 0.99331 0.18729 0.0
H699 H 0.69844 0.97097 0.13668 0.0
H700 H 0.69785 0.97711 0.26736 0.0
H701 H 0.74347 0.08403 0.05876 0.0
H702 H 0.71264 0.07342 0.01704 0.0
H703 H 0.71623 0.08774 0.13788 0.0
H704 H 0.63485 0.02669 0.96276 0.0
H705 H 0.63454 0.06837 0.23778 0.0
H706 H 0.68483 0.99327 0.98606 0.0
H707 H 0.70376 0.01972 0.94542 0.0
H708 H 0.67353 1.01315 0.88788 0.0
H709 H 0.67199 0.0548 0.35423 0.0
H710 H 0.68112 0.08354 0.29268 0.0
H711 H 0.70278 0.05722 0.29801 0.0
C712 C 0.51475 0.75886 0.18283 0.0
C713 C 0.53621 0.75718 0.24372 0.0
C714 C 0.50557 0.73716 0.13432 0.0
C715 C 0.51802 0.71365 0.15028 0.0
C716 C 0.54184 0.7131 0.19894 0.0
C717 C 0.55182 0.73575 0.23651 0.0
C718 C 0.48111 0.73924 0.07689 0.0
C719 C 0.55501 0.68832 0.22449 0.0
C720 C 0.47986 0.65308 0.17573 0.0
C721 C 0.49045 0.63862 0.09895 0.0
C722 C 0.48767 0.6783 0.19086 0.0
C723 C 0.50569 0.6893 0.12496 0.0
C724 C 0.51486 0.6753 0.04311 0.0
C725 C 0.50771 0.64985 0.03275 0.0
C726 C 0.47779 0.6925 0.28052 0.0
C727 C 0.5324 0.68719 0.96725 0.0
H728 H 0.50306 0.77583 0.18511 0.0
H729 H 0.56889 0.73506 0.28133 0.0
H730 H 0.47744 0.72241 0.02917 0.0
H731 H 0.4651 0.74156 0.12987 0.0
H732 H 0.48145 0.75656 0.0292 0.0
H733 H 0.57102 0.6911 0.27698 0.0
H734 H 0.54144 0.67477 0.25924 0.0
H735 H 0.56254 0.67927 0.15613 0.0
H736 H 0.46651 0.64425 0.22675 0.0
H737 H 0.5155 0.63871 0.97208 0.0
H738 H 0.46834 0.71032 0.25678 0.0
H739 H 0.49378 0.69782 0.33001 0.0
H740 H 0.46391 0.68104 0.32377 0.0
H741 H 0.52343 0.7045 0.9353 0.0
H742 H 0.53694 0.67372 0.90645 0.0
H743 H 0.55037 0.69335 1.00212 0.0
C744 C 0.79937 0.47635 0.30532 0.0
C745 C 0.78794 0.49951 0.28154 0.0
C746 C 0.81714 0.46586 0.24105 0.0
C747 C 0.82278 0.47897 0.15144 0.0
C748 C 0.80694 0.49886 0.11776 0.0
C749 C 0.78983 0.50949 0.18507 0.0
C750 C 0.83351 0.44454 0.28032 0.0
C751 C 0.81156 0.51221 0.01975 0.0
C752 C 0.89184 0.49405 0.15497 0.0
C753 C 0.90135 0.47552 0.09077 0.0
C754 C 0.86596 0.49632 0.17054 0.0
C755 C 0.84933 0.47939 0.12049 0.0
C756 C 0.8587 0.46134 0.05214 0.0
C757 C 0.88487 0.45953 0.03817 0.0
C758 C 0.85673 0.51616 0.24394 0.0
C759 C 0.84123 0.44355 0.99674 0.0
H760 H 0.79666 0.46811 0.37885 0.0
H761 H 0.78011 0.527 0.16581 0.0
H762 H 0.84158 0.43287 0.21944 0.0
H763 H 0.84944 0.45286 0.32335 0.0
H764 H 0.8226 0.43195 0.33147 0.0
H765 H 0.79396 0.52134 0.99193 0.0
H766 H 0.82597 0.52736 0.03042 0.0
H767 H 0.81876 0.49882 0.96258 0.0
H768 H 0.90478 0.50641 0.19491 0.0
H769 H 0.89246 0.44567 0.98635 0.0
H770 H 0.84712 0.50681 0.30787 0.0
H771 H 0.84293 0.52908 0.20764 0.0
H772 H 0.8724 0.52801 0.27388 0.0
H773 H 0.83248 0.42986 0.04963 0.0
H774 H 0.85135 0.43262 0.93817 0.0
H775 H 0.82557 0.45438 0.96161 0.0
C776 C 0.04816 0.22187 0.91404 0.0
C777 C 0.02582 0.23561 0.93435 0.0
C778 C 0.04789 0.19565 0.88892 0.0
C779 C 0.02456 0.18239 0.87905 0.0
C780 C 1.0018 0.1966 0.89211 0.0
C781 C 1.00269 0.22268 0.92107 0.0
C782 C 0.07292 0.18216 0.87665 0.0
C783 C 0.97638 0.18391 0.87928 0.0
C784 C 0.02376 0.11778 0.73891 0.0
C785 C 0.02037 0.1 0.81614 0.0
C786 C 0.02643 0.14419 0.75839 0.0
C787 C 0.02387 0.15378 0.85714 0.0
C788 C 0.02135 0.13567 0.93572 0.0
C789 C 0.01978 0.10925 0.91448 0.0
C790 C 0.03432 0.16113 0.67327 0.0
C791 C 0.02147 0.14408 0.04306 0.0
H792 H 0.06621 0.23119 0.92657 0.0
H793 H 0.98525 0.23246 0.93977 0.0
H794 H 0.07189 0.16193 0.90032 0.0
H795 H 0.07849 0.18275 0.79691 0.0
H796 H 0.0881 0.19167 0.92014 0.0
H797 H 0.96047 0.19765 0.88508 0.0
H798 H 0.97551 0.17436 0.80561 0.0
H799 H 0.97379 0.16897 0.937 0.0
H800 H 0.02544 0.11093 0.66297 0.0
H801 H 0.01783 0.09576 0.97531 0.0
H802 H 0.05502 0.15899 0.66165 0.0
H803 H 0.03052 0.18149 0.68793 0.0
H804 H 0.02502 0.15518 0.603 0.0
H805 H 0.03921 0.15467 0.05911 0.0
H806 H 0.01984 0.12785 0.09598 0.0
H807 H 1.00551 0.15721 0.05628 0.0
C808 C 0.3136 0.05064 0.86927 0.0
C809 C 0.29813 0.02942 0.89195 0.0
C810 C 0.33956 0.04819 0.84369 0.0
C811 C 0.35039 0.02375 0.82744 0.0
C812 C 0.33384 1.0023 0.83557 0.0
C813 C 0.30847 1.00526 0.87112 0.0
C814 C 0.35548 0.07213 0.84262 0.0
C815 C 0.3431 0.97581 0.81301 0.0
C816 C 0.41739 0.02637 0.70584 0.0
C817 C 0.43353 0.0208 0.78602 0.0
C818 C 0.39061 0.02673 0.71735 0.0
C819 C 0.37909 0.02086 0.81085 0.0
C820 C 0.39552 1.01399 0.89072 0.0
C821 C 0.42223 1.01444 0.87778 0.0
C822 C 0.37459 0.0332 0.62856 0.0
C823 C 0.38515 1.00559 0.99025 0.0
H824 H 0.30635 0.06945 0.88639 0.0
H825 H 0.29741 0.98847 0.88928 0.0
H826 H 0.37577 0.06845 0.85814 0.0
H827 H 0.35389 0.08138 0.7685 0.0
H828 H 0.34848 0.08598 0.89881 0.0
H829 H 0.32778 0.96439 0.77818 0.0
H830 H 0.35979 0.97589 0.76253 0.0
H831 H 0.34838 0.96619 0.88365 0.0
H832 H 0.42575 0.03108 0.63424 0.0
H833 H 0.43438 1.00937 0.93979 0.0
H834 H 0.36593 0.05222 0.63903 0.0
H835 H 0.35908 0.0191 0.62209 0.0
H836 H 0.38568 0.03344 0.55808 0.0
H837 H 0.39921 1.00839 0.05071 0.0
H838 H 0.38079 0.98495 0.98693 0.0
H839 H 0.36747 1.01584 0.00955 0.0
C840 C 0.51748 0.31062 0.84805 0.0
C841 C 0.49767 0.30155 0.90947 0.0
C842 C 0.51829 0.33613 0.81206 0.0
C843 C 0.49874 0.35364 0.83699 0.0
C844 C 0.47752 0.34392 0.89075 0.0
C845 C 0.47737 0.31837 0.92687 0.0
C846 C 0.54147 0.3448 0.75549 0.0
C847 C 0.4556 0.36111 0.91616 0.0
C848 C 0.51343 0.42523 0.87896 0.0
C849 C 0.50625 0.43691 0.7888 0.0
C850 C 0.51191 0.39845 0.8935 0.0
C851 C 0.50176 0.38238 0.81804 0.0
C852 C 0.49436 0.39413 0.72662 0.0
C853 C 0.49722 0.42094 0.71244 0.0
C854 C 0.52146 0.38725 0.99014 0.0
C855 C 0.48319 0.37847 0.64348 0.0
H856 H 0.53376 0.29842 0.83627 0.0
H857 H 0.46226 0.31225 0.97625 0.0
H858 H 0.5364 0.35802 0.69419 0.0
H859 H 0.55421 0.35517 0.80712 0.0
H860 H 0.55209 0.32846 0.72365 0.0
H861 H 0.4394 0.35042 0.94872 0.0
H862 H 0.46181 0.3757 0.97061 0.0
H863 H 0.44906 0.37132 0.84836 0.0
H864 H 0.52071 0.43712 0.93832 0.0
H865 H 0.49154 0.42953 0.64242 0.0
H866 H 0.53647 0.37302 0.97436 0.0
H867 H 0.5059 0.37714 0.02939 0.0
H868 H 0.52932 0.40196 0.04082 0.0
H869 H 0.49834 0.36707 0.60759 0.0
H870 H 0.47423 0.39058 0.58542 0.0
H871 H 0.46881 0.36498 0.67306 0.0
C872 C 0.22186 0.49066 0.86377 0.0
C873 C 0.23271 0.51024 0.9212 0.0
C874 C 0.19664 0.49243 0.82645 0.0
C875 C 0.18107 0.51365 0.851 0.0
C876 C 0.19246 0.53403 0.90405 0.0
C877 C 0.21792 0.53223 0.93673 0.0
C878 C 0.18625 0.47103 0.76412 0.0
C879 C 0.17718 0.55715 0.93253 0.0
C880 C 0.11564 0.52645 0.72667 0.0
C881 C 0.09839 0.5158 0.79541 0.0
C882 C 0.14231 0.52573 0.74244 0.0
C883 C 0.15258 0.51382 0.82897 0.0
C884 C 0.13521 0.50289 0.89812 0.0
C885 C 0.10871 0.50395 0.88062 0.0
C886 C 0.15908 0.53799 0.66503 0.0
C887 C 0.14465 0.49029 0.99223 0.0
H888 H 0.23256 0.4733 0.85266 0.0
H889 H 0.22561 0.54731 0.98261 0.0
H890 H 0.1715 0.4606 0.80686 0.0
H891 H 0.17713 0.47883 0.69605 0.0
H892 H 0.20123 0.45735 0.74155 0.0
H893 H 0.18905 0.57225 0.96678 0.0
H894 H 0.16758 0.56515 0.86594 0.0
H895 H 0.16225 0.55153 0.98673 0.0
H896 H 0.10835 0.53567 0.66032 0.0
H897 H 0.09598 0.49549 0.93482 0.0
H898 H 0.15922 0.52597 0.59703 0.0
H899 H 0.17888 0.54075 0.69005 0.0
H900 H 0.1512 0.55683 0.64416 0.0
H901 H 0.15686 0.47383 0.97295 0.0
H902 H 0.12895 0.48345 0.04061 0.0
H903 H 0.15642 0.50387 0.0354 0.0
C904 C 0.98988 0.82413 0.49715 0.0
C905 C 0.99762 0.80344 0.55679 0.0
C906 C 0.98989 0.84954 0.53218 0.0
C907 C 0.99699 0.85509 0.63203 0.0
C908 C 1.00304 0.83403 0.69538 0.0
C909 C 1.00374 0.80874 0.65673 0.0
C910 C 0.98493 0.87049 0.45739 0.0
C911 C 1.00988 0.83773 0.80352 0.0
C912 C 0.02569 0.92127 0.69305 0.0
C913 C 1.00413 0.9365 0.70806 0.0
C914 C 0.02372 0.89494 0.67001 0.0
C915 C 0.99959 0.88281 0.66608 0.0
C916 C 0.97789 0.89788 0.68831 0.0
C917 C 0.98033 0.92447 0.70558 0.0
C918 C 0.04761 0.8802 0.6487 0.0
C919 C 0.95191 0.88598 0.69333 0.0
H920 H 0.98589 0.82064 0.41907 0.0
H921 H 1.01041 0.79333 0.70372 0.0
H922 H 0.97553 0.88724 0.49079 0.0
H923 H 1.00335 0.87701 0.42637 0.0
H924 H 0.97301 0.86361 0.39486 0.0
H925 H 0.03001 0.83238 0.81504 0.0
H926 H 1.00701 0.8575 0.83013 0.0
H927 H 0.99829 0.82474 0.85047 0.0
H928 H 0.0442 0.93019 0.69575 0.0
H929 H 0.96353 0.93582 0.71887 0.0
H930 H 0.04543 0.86862 0.5801 0.0
H931 H 0.05142 0.86697 0.7115 0.0
H932 H 0.06432 0.89288 0.6396 0.0
H933 H 0.94473 0.88259 0.61687 0.0
H934 H 0.93815 0.89843 0.73265 0.0
H935 H 0.9527 0.8673 0.7322 0.0
C936 C 0.72577 0.03385 0.64721 0.0
C937 C 0.73334 1.01691 0.5718 0.0
C938 C 0.70028 0.03448 0.68347 0.0
C939 C 0.68113 1.01846 0.64085 0.0
C940 C 0.68894 1.00153 0.56402 0.0
C941 C 0.71467 1.00011 0.5352 0.0
C942 C 0.69414 0.05396 0.76229 0.0
C943 C 0.67032 0.98638 0.50246 0.0
C944 C 0.61454 0.99849 0.73848 0.0
C945 C 0.59915 0.01924 0.71221 0.0
C946 C 0.64109 0.99848 0.72028 0.0
C947 C 0.65309 0.01964 0.67213 0.0
C948 C 0.63735 0.04071 0.64577 0.0
C949 C 0.61096 0.04034 0.66735 0.0
C950 C 0.65586 0.97502 0.7493 0.0
C951 C 0.64782 0.06377 0.59247 0.0
H952 H 0.73937 0.04767 0.67425 0.0
H953 H 0.71971 0.98747 0.47439 0.0
H954 H 0.69499 0.07324 0.72843 0.0
H955 H 0.67517 0.05134 0.79626 0.0
H956 H 0.7087 0.05351 0.82187 0.0
H957 H 0.67474 0.96579 0.5089 0.0
H958 H 0.6502 0.98949 0.52229 0.0
H959 H 0.67266 0.99159 0.42264 0.0
H960 H 0.60572 0.98193 0.77236 0.0
H961 H 0.59934 0.0565 0.64641 0.0
H962 H 0.67605 0.97931 0.76469 0.0
H963 H 0.65503 0.96107 0.68739 0.0
H964 H 0.64744 0.96575 0.81612 0.0
H965 H 0.65249 0.07856 0.64847 0.0
H966 H 0.63348 0.07207 0.54136 0.0
H967 H 0.66511 0.05944 0.5487 0.0
C968 C 0.4931 0.72366 0.56127 0.0
C969 C 0.51407 0.73912 0.58454 0.0
C970 C 0.49205 0.69753 0.58787 0.0
C971 C 0.51211 0.6862 0.6429 0.0
C972 C 0.53294 0.70203 0.6702 0.0
C973 C 0.53357 0.72802 0.6411 0.0
C974 C 0.47101 0.6814 0.54543 0.0
C975 C 0.55618 0.69153 0.72098 0.0
C976 C 0.49975 0.62043 0.76605 0.0
C977 C 0.51377 0.60373 0.70537 0.0
C978 C 0.49859 0.647 0.74586 0.0
C979 C 0.5122 0.65763 0.66392 0.0
C980 C 0.52596 0.64074 0.6014 0.0
C981 C 0.52666 0.61433 0.62297 0.0
C982 C 0.48207 0.66355 0.81078 0.0
C983 C 0.53952 0.65048 0.50965 0.0
H984 H 0.4787 0.73137 0.51221 0.0
H985 H 0.55058 0.73906 0.65473 0.0
H986 H 0.47913 0.66767 0.49137 0.0
H987 H 0.4616 0.67 0.60414 0.0
H988 H 0.45641 0.69301 0.50694 0.0
H989 H 0.56143 0.70386 0.78484 0.0
H990 H 0.55395 0.67166 0.74745 0.0
H991 H 0.57234 0.6921 0.6679 0.0
H992 H 0.48925 0.61267 0.82866 0.0
H993 H 0.5373 0.60188 0.57409 0.0
H994 H 0.4652 0.66984 0.76873 0.0
H995 H 0.49233 0.681 0.83337 0.0
H996 H 0.47507 0.65329 0.87772 0.0
H997 H 0.52619 0.66136 0.4619 0.0
H998 H 0.54789 0.63485 0.46469 0.0
H999 H 0.55493 0.66367 0.53163 0.0
C1000 C 0.8064 0.51391 0.6674 0.0
C1001 C 0.79684 0.53491 0.61332 0.0
C1002 C 0.83215 0.51249 0.69856 0.0
C1003 C 0.84934 0.53263 0.67665 0.0
C1004 C 0.83924 0.55487 0.63084 0.0
C1005 C 0.81343 0.55574 0.60044 0.0
C1006 C 0.84147 0.48824 0.74647 0.0
C1007 C 0.85625 0.57707 0.60566 0.0
C1008 C 0.91637 0.53295 0.79809 0.0
C1009 C 0.93219 0.52492 0.7197 0.0
C1010 C 0.88973 0.53585 0.78521 0.0
C1011 C 0.87799 0.52961 0.6928 0.0
C1012 C 0.89394 0.52074 0.61445 0.0
C1013 C 0.92059 0.51905 0.62815 0.0
C1014 C 0.87417 0.54615 0.87033 0.0
C1015 C 0.88281 0.5126 0.5159 0.0
H1016 H 0.79446 0.49722 0.67521 0.0
H1017 H 0.80701 0.57174 0.55597 0.0
H1018 H 0.85418 0.47813 0.69381 0.0
H1019 H 0.85266 0.4925 0.81427 0.0
H1020 H 0.82566 0.47528 0.76722 0.0
H1021 H 0.84528 0.59423 0.5837 0.0
H1022 H 0.8685 0.58191 0.67006 0.0
H1023 H 0.86886 0.57182 0.5427 0.0
H1024 H 0.92497 0.53779 0.86887 0.0
H1025 H 0.93243 0.51265 0.56704 0.0
H1026 H 0.86016 0.53168 0.89475 0.0
H1027 H 0.8634 0.56315 0.8453 0.0
H1028 H 0.88603 0.5515 0.93532 0.0
H1029 H 0.87017 0.49596 0.52778 0.0
H1030 H 0.89761 0.50727 0.46075 0.0
H1031 H 0.87109 0.52807 0.48375 0.0
loop_
_geom_bond_atom_site_label_1
_geom_bond_atom_site_label_2
_geom_bond_distance
_geom_bond_site_symmetry_2
_ccdc_geom_bond_type
H0 C7 0.929 . S
H1 C10 0.930 . S
H2 C12 0.929 . S
H3 C4 0.969 . S
C4 H3 0.969 . S
C4 O5 1.550 . S
C4 H6 0.973 . S
O5 C4 1.550 . S
O5 C11 1.412 . S
H6 C4 0.973 . S
C7 H0 0.929 . S
C7 C8 1.400 . S
C7 C9 1.364 . S
C8 C7 1.400 . S
C8 C12 1.377 . S
C9 C7 1.364 . S
C9 C10 1.374 . S
C10 H1 0.930 . S
C10 C9 1.374 . S
C10 C11 1.383 . S
C11 O5 1.412 . S
C11 C10 1.383 . S
C11 C12 1.394 . S
C12 H2 0.929 . S
C12 C8 1.377 . S
C12 C11 1.394 . S
H13 C20 0.928 1_655 S
H14 C23 0.930 . S
H15 C25 0.928 1_655 S
H16 C17 0.969 . S
C17 H16 0.969 . S
C17 O18 1.550 1_455 S
C17 H19 0.973 1_455 S
O18 C17 1.550 1_655 S
O18 C24 1.405 1_655 S
H19 C17 0.973 1_655 S
C20 H13 0.928 1_455 S
C20 C21 1.400 . S
C20 C22 1.364 . S
C21 C20 1.400 . S
C21 C25 1.377 . S
C22 C20 1.364 . S
C22 C23 1.374 1_455 S
C23 H14 0.930 . S
C23 C22 1.374 1_655 S
C23 C24 1.382 1_655 S
C24 O18 1.405 1_455 S
C24 C23 1.382 1_455 S
C24 C25 1.394 . S
C25 H15 0.928 1_455 S
C25 C21 1.377 . S
C25 C24 1.394 . S
H26 C33 0.928 1_565 S
H27 C36 0.930 . S
H28 C38 0.928 1_565 S
H29 C30 0.969 . S
C30 H29 0.969 . S
C30 O31 1.550 1_545 S
C30 H32 0.973 1_545 S
O31 C30 1.550 1_565 S
O31 C37 1.405 1_565 S
H32 C30 0.973 1_565 S
C33 H26 0.928 1_545 S
C33 C34 1.399 . S
C33 C35 1.364 . S
C34 C33 1.399 . S
C34 C38 1.377 . S
C35 C33 1.364 . S
C35 C36 1.374 1_545 S
C36 H27 0.930 . S
C36 C35 1.374 1_565 S
C36 C37 1.382 1_565 S
C37 O31 1.405 1_545 S
C37 C36 1.382 1_545 S
C37 C38 1.394 . S
C38 H28 0.928 1_545 S
C38 C34 1.377 . S
C38 C37 1.394 . S
H39 C46 0.929 . S
H40 C49 0.930 . S
H41 C51 0.929 . S
H42 C43 0.969 . S
C43 H42 0.969 . S
C43 O44 1.550 . S
C43 H45 0.973 . S
O44 C43 1.550 . S
O44 C50 1.412 . S
H45 C43 0.973 . S
C46 H39 0.929 . S
C46 C47 1.400 . S
C46 C48 1.364 . S
C47 C46 1.400 . S
C47 C51 1.377 . S
C48 C46 1.364 . S
C48 C49 1.374 . S
C49 H40 0.930 . S
C49 C48 1.374 . S
C49 C50 1.383 . S
C50 O44 1.412 . S
C50 C49 1.383 . S
C50 C51 1.394 . S
C51 H41 0.929 . S
C51 C47 1.377 . S
C51 C50 1.394 . S
H52 C59 0.929 . S
H53 C62 0.930 . S
H54 C64 0.929 . S
H55 C56 0.969 . S
C56 H55 0.969 . S
C56 O57 1.550 . S
C56 H58 0.973 . S
O57 C56 1.550 . S
O57 C63 1.412 . S
H58 C56 0.973 . S
C59 H52 0.929 . S
C59 C60 1.400 1_554 S
C59 C61 1.364 . S
C60 C59 1.400 1_556 S
C60 C64 1.377 . S
C61 C59 1.364 . S
C61 C62 1.374 . S
C62 H53 0.930 . S
C62 C61 1.374 . S
C62 C63 1.383 . S
C63 O57 1.412 . S
C63 C62 1.383 . S
C63 C64 1.394 1_554 S
C64 H54 0.929 . S
C64 C60 1.377 . S
C64 C63 1.394 1_556 S
H65 C72 0.928 1_655 S
H66 C75 0.930 . S
H67 C77 0.928 1_655 S
H68 C69 0.969 . S
C69 H68 0.969 . S
C69 O70 1.550 1_455 S
C69 H71 0.973 1_455 S
O70 C69 1.550 1_655 S
O70 C76 1.402 1_655 S
H71 C69 0.973 1_655 S
C72 H65 0.928 1_455 S
C72 C73 1.400 1_554 S
C72 C74 1.364 . S
C73 C72 1.400 1_556 S
C73 C77 1.377 . S
C74 C72 1.364 . S
C74 C75 1.374 1_455 S
C75 H66 0.930 . S
C75 C74 1.374 1_655 S
C75 C76 1.382 1_655 S
C76 O70 1.402 1_455 S
C76 C75 1.382 1_455 S
C76 C77 1.394 1_554 S
C77 H67 0.928 1_455 S
C77 C73 1.377 . S
C77 C76 1.394 1_556 S
H78 C85 0.928 1_565 S
H79 C88 0.930 . S
H80 C90 0.928 1_565 S
H81 C82 0.969 . S
C82 H81 0.969 . S
C82 O83 1.550 1_545 S
C82 H84 0.973 1_545 S
O83 C82 1.550 1_565 S
O83 C89 1.402 1_565 S
H84 C82 0.973 1_565 S
C85 H78 0.928 1_545 S
C85 C86 1.400 1_554 S
C85 C87 1.364 . S
C86 C85 1.400 1_556 S
C86 C90 1.377 . S
C87 C85 1.364 . S
C87 C88 1.374 1_545 S
C88 H79 0.930 . S
C88 C87 1.374 1_565 S
C88 C89 1.382 1_565 S
C89 O83 1.402 1_545 S
C89 C88 1.382 1_545 S
C89 C90 1.394 1_554 S
C90 H80 0.928 1_545 S
C90 C86 1.377 . S
C90 C89 1.394 1_556 S
H91 C98 0.929 . S
H92 C101 0.930 . S
H93 C103 0.929 . S
H94 C95 0.969 . S
C95 H94 0.969 . S
C95 O96 1.550 . S
C95 H97 0.973 . S
O96 C95 1.550 . S
O96 C102 1.412 . S
H97 C95 0.973 . S
C98 H91 0.929 . S
C98 C99 1.400 1_554 S
C98 C100 1.364 . S
C99 C98 1.400 1_556 S
C99 C103 1.377 . S
C100 C98 1.364 . S
C100 C101 1.374 . S
C101 H92 0.930 . S
C101 C100 1.374 . S
C101 C102 1.383 . S
C102 O96 1.412 . S
C102 C101 1.383 . S
C102 C103 1.394 1_554 S
C103 H93 0.929 . S
C103 C99 1.377 . S
C103 C102 1.394 1_556 S
Ho104 C107 2.811 . S
Ho104 O124 2.322 . S
Ho104 O126 2.378 . S
Ho104 O127 2.531 . S
Ho104 O128 2.381 . S
Ho104 O129 2.669 1_565 S
Ho104 O131 2.346 1_565 S
Ho104 O135 2.305 1_455 S
Ho105 C116 2.811 . S
Ho105 O125 2.346 1_545 S
Ho105 O129 2.305 1_655 S
Ho105 O130 2.322 . S
Ho105 O132 2.378 . S
Ho105 O133 2.527 . S
Ho105 O134 2.381 . S
Ho105 O135 2.669 1_545 S
C106 O124 1.259 1_655 S
C106 O125 1.268 . S
C107 Ho104 2.811 . S
C107 C108 1.488 1_556 S
C107 O126 1.215 . S
C107 O127 1.306 . S
C108 C107 1.488 1_554 S
C108 C109 1.348 . S
C108 C113 1.413 . S
C109 C108 1.348 . S
C109 C110 1.442 . S
C109 H136 0.930 1_455 S
C110 C109 1.442 . S
C110 C111 1.381 . S
C110 H137 0.931 1_455 S
C111 C110 1.381 . S
C111 C112 1.321 . S
C112 C111 1.321 . S
C112 C113 1.403 . S
C112 H138 0.934 . S
C113 C108 1.413 . S
C113 C112 1.403 . S
C113 H139 0.930 1_554 S
C114 O128 1.298 . S
C114 O129 1.243 1_565 S
C115 O130 1.259 1_455 S
C115 O131 1.268 . S
C116 Ho105 2.811 . S
C116 C117 1.488 . S
C116 O132 1.215 . S
C116 O133 1.296 . S
C117 C116 1.488 . S
C117 C118 1.348 . S
C117 C122 1.413 . S
C118 C117 1.348 . S
C118 C119 1.442 . S
C118 H140 0.930 1_655 S
C119 C118 1.442 . S
C119 C120 1.381 . S
C119 H141 0.931 1_655 S
C120 C119 1.381 . S
C120 C121 1.321 . S
C121 C120 1.321 . S
C121 C122 1.403 . S
C121 H142 0.934 . S
C122 C117 1.413 . S
C122 C121 1.403 . S
C122 H143 0.930 . S
C123 O134 1.275 . S
C123 O135 1.256 1_545 S
O124 Ho104 2.322 . S
O124 C106 1.259 1_455 S
O125 Ho105 2.346 1_565 S
O125 C106 1.268 . S
O126 Ho104 2.378 . S
O126 C107 1.215 . S
O127 Ho104 2.531 . S
O127 C107 1.306 . S
O128 Ho104 2.381 . S
O128 C114 1.298 . S
O129 Ho104 2.669 1_545 S
O129 Ho105 2.305 1_455 S
O129 C114 1.243 1_545 S
O130 Ho105 2.322 . S
O130 C115 1.259 1_655 S
O131 Ho104 2.346 1_545 S
O131 C115 1.268 . S
O132 Ho105 2.378 . S
O132 C116 1.215 . S
O133 Ho105 2.527 . S
O133 C116 1.296 . S
O134 Ho105 2.381 . S
O134 C123 1.275 . S
O135 Ho104 2.305 1_655 S
O135 Ho105 2.669 1_565 S
O135 C123 1.256 1_565 S
H136 C109 0.930 1_655 S
H137 C110 0.931 1_655 S
H138 C112 0.934 . S
H139 C113 0.930 1_556 S
H140 C118 0.930 1_455 S
H141 C119 0.931 1_455 S
H142 C121 0.934 . S
H143 C122 0.930 . S
Ho144 C147 2.811 . S
Ho144 O164 2.322 . S
Ho144 O166 2.378 . S
Ho144 O167 2.529 . S
Ho144 O168 2.381 . S
Ho144 O169 2.669 . S
Ho144 O171 2.346 . S
Ho144 O175 2.305 1_545 S
Ho145 C156 2.811 . S
Ho145 O165 2.346 . S
Ho145 O169 2.305 1_565 S
Ho145 O170 2.322 . S
Ho145 O172 2.378 . S
Ho145 O173 2.525 . S
Ho145 O174 2.381 . S
Ho145 O175 2.669 . S
C146 O164 1.259 1_565 S
C146 O165 1.268 . S
C147 Ho144 2.811 . S
C147 C148 1.488 1_556 S
C147 O166 1.215 . S
C147 O167 1.301 . S
C148 C147 1.488 1_554 S
C148 C149 1.348 . S
C148 C153 1.413 . S
C149 C148 1.348 . S
C149 C150 1.442 . S
C149 H176 0.930 1_545 S
C150 C149 1.442 . S
C150 C151 1.381 . S
C150 H177 0.931 1_545 S
C151 C150 1.381 . S
C151 C152 1.321 . S
C152 C151 1.321 . S
C152 C153 1.403 . S
C152 H178 0.934 . S
C153 C148 1.413 . S
C153 C152 1.403 . S
C153 H179 0.930 1_554 S
C154 O168 1.275 . S
C154 O169 1.256 . S
C155 O170 1.259 1_545 S
C155 O171 1.268 . S
C156 Ho145 2.811 . S
C156 C157 1.488 . S
C156 O172 1.215 . S
C156 O173 1.291 . S
C157 C156 1.488 . S
C157 C158 1.348 . S
C157 C162 1.413 . S
C158 C157 1.348 . S
C158 C159 1.442 . S
C158 H180 0.930 1_565 S
C159 C158 1.442 . S
C159 C160 1.381 . S
C159 H181 0.931 1_565 S
C160 C159 1.381 . S
C160 C161 1.321 . S
C161 C160 1.321 . S
C161 C162 1.403 . S
C161 H182 0.934 . S
C162 C157 1.413 . S
C162 C161 1.403 . S
C162 H183 0.930 . S
C163 O174 1.275 . S
C163 O175 1.256 . S
O164 Ho144 2.322 . S
O164 C146 1.259 1_545 S
O165 Ho145 2.346 . S
O165 C146 1.268 . S
O166 Ho144 2.378 . S
O166 C147 1.215 . S
O167 Ho144 2.529 . S
O167 C147 1.301 . S
O168 Ho144 2.381 . S
O168 C154 1.275 . S
O169 Ho144 2.669 . S
O169 Ho145 2.305 1_545 S
O169 C154 1.256 . S
O170 Ho145 2.322 . S
O170 C155 1.259 1_565 S
O171 Ho144 2.346 . S
O171 C155 1.268 . S
O172 Ho145 2.378 . S
O172 C156 1.215 . S
O173 Ho145 2.525 . S
O173 C156 1.291 . S
O174 Ho145 2.381 . S
O174 C163 1.275 . S
O175 Ho144 2.305 1_565 S
O175 Ho145 2.669 . S
O175 C163 1.256 . S
H176 C149 0.930 1_565 S
H177 C150 0.931 1_565 S
H178 C152 0.934 . S
H179 C153 0.930 1_556 S
H180 C158 0.930 1_545 S
H181 C159 0.931 1_545 S
H182 C161 0.934 . S
H183 C162 0.930 . S
Ho184 C187 2.811 . S
Ho184 O204 2.322 . S
Ho184 O206 2.378 . S
Ho184 O207 2.524 . S
Ho184 O208 2.381 . S
Ho184 O209 2.669 . S
Ho184 O211 2.346 . S
Ho184 O215 2.305 . S
Ho185 C196 2.811 . S
Ho185 O205 2.346 . S
Ho185 O209 2.305 . S
Ho185 O210 2.322 . S
Ho185 O212 2.378 . S
Ho185 O213 2.524 . S
Ho185 O214 2.381 . S
Ho185 O215 2.669 . S
C186 O204 1.259 . S
C186 O205 1.268 . S
C187 Ho184 2.811 . S
C187 C188 1.488 1_556 S
C187 O206 1.215 . S
C187 O207 1.289 . S
C188 C187 1.488 1_554 S
C188 C189 1.348 . S
C188 C193 1.413 . S
C189 C188 1.348 . S
C189 C190 1.442 . S
C189 H216 0.930 . S
C190 C189 1.442 . S
C190 C191 1.381 . S
C190 H217 0.931 . S
C191 C190 1.381 . S
C191 C192 1.321 . S
C192 C191 1.321 . S
C192 C193 1.403 . S
C192 H218 0.934 . S
C193 C188 1.413 . S
C193 C192 1.403 . S
C193 H219 0.930 1_554 S
C194 O208 1.275 . S
C194 O209 1.256 . S
C195 O210 1.259 . S
C195 O211 1.268 . S
C196 Ho185 2.811 . S
C196 C197 1.488 . S
C196 O212 1.215 . S
C196 O213 1.289 . S
C197 C196 1.488 . S
C197 C198 1.348 . S
C197 C202 1.413 . S
C198 C197 1.348 . S
C198 C199 1.442 . S
C198 H220 0.930 . S
C199 C198 1.442 . S
C199 C200 1.381 . S
C199 H221 0.931 . S
C200 C199 1.381 . S
C200 C201 1.321 . S
C201 C200 1.321 . S
C201 C202 1.403 . S
C201 H222 0.934 . S
C202 C197 1.413 . S
C202 C201 1.403 . S
C202 H223 0.930 . S
C203 O214 1.275 . S
C203 O215 1.256 . S
O204 Ho184 2.322 . S
O204 C186 1.259 . S
O205 Ho185 2.346 . S
O205 C186 1.268 . S
O206 Ho184 2.378 . S
O206 C187 1.215 . S
O207 Ho184 2.524 . S
O207 C187 1.289 . S
O208 Ho184 2.381 . S
O208 C194 1.275 . S
O209 Ho184 2.669 . S
O209 Ho185 2.305 . S
O209 C194 1.256 . S
O210 Ho185 2.322 . S
O210 C195 1.259 . S
O211 Ho184 2.346 . S
O211 C195 1.268 . S
O212 Ho185 2.378 . S
O212 C196 1.215 . S
O213 Ho185 2.524 . S
O213 C196 1.289 . S
O214 Ho185 2.381 . S
O214 C203 1.275 . S
O215 Ho184 2.305 . S
O215 Ho185 2.669 . S
O215 C203 1.256 . S
H216 C189 0.930 . S
H217 C190 0.931 . S
H218 C192 0.934 . S
H219 C193 0.930 1_556 S
H220 C198 0.930 . S
H221 C199 0.931 . S
H222 C201 0.934 . S
H223 C202 0.930 . S
Ho224 C227 2.811 . S
Ho224 O244 2.322 . S
Ho224 O246 2.378 . S
Ho224 O247 2.524 . S
Ho224 O248 2.381 . S
Ho224 O249 2.669 1_655 S
Ho224 O251 2.346 1_655 S
Ho224 O255 2.305 . S
Ho225 C236 2.811 . S
Ho225 O245 2.346 1_455 S
Ho225 O249 2.305 . S
Ho225 O250 2.322 . S
Ho225 O252 2.378 . S
Ho225 O253 2.524 . S
Ho225 O254 2.381 . S
Ho225 O255 2.669 1_455 S
C226 O244 1.259 . S
C226 O245 1.268 . S
C227 Ho224 2.811 . S
C227 C228 1.488 1_556 S
C227 O246 1.215 . S
C227 O247 1.289 . S
C228 C227 1.488 1_554 S
C228 C229 1.348 . S
C228 C233 1.413 . S
C229 C228 1.348 . S
C229 C230 1.442 . S
C229 H256 0.930 . S
C230 C229 1.442 . S
C230 C231 1.381 . S
C230 H257 0.931 . S
C231 C230 1.381 . S
C231 C232 1.321 . S
C232 C231 1.321 . S
C232 C233 1.403 . S
C232 H258 0.934 . S
C233 C228 1.413 . S
C233 C232 1.403 . S
C233 H259 0.930 1_554 S
C234 O248 1.291 . S
C234 O249 1.247 1_655 S
C235 O250 1.259 . S
C235 O251 1.268 . S
C236 Ho225 2.811 . S
C236 C237 1.488 . S
C236 O252 1.215 . S
C236 O253 1.289 . S
C237 C236 1.488 . S
C237 C238 1.348 . S
C237 C242 1.413 . S
C238 C237 1.348 . S
C238 C239 1.442 . S
C238 H260 0.930 . S
C239 C238 1.442 . S
C239 C240 1.381 . S
C239 H261 0.931 . S
C240 C239 1.381 . S
C240 C241 1.321 . S
C241 C240 1.321 . S
C241 C242 1.403 . S
C241 H262 0.934 . S
C242 C237 1.413 . S
C242 C241 1.403 . S
C242 H263 0.930 . S
C243 O254 1.297 . S
C243 O255 1.244 1_455 S
O244 Ho224 2.322 . S
O244 C226 1.259 . S
O245 Ho225 2.346 1_655 S
O245 C226 1.268 . S
O246 Ho224 2.378 . S
O246 C227 1.215 . S
O247 Ho224 2.524 . S
O247 C227 1.289 . S
O248 Ho224 2.381 . S
O248 C234 1.291 . S
O249 Ho224 2.669 1_455 S
O249 Ho225 2.305 . S
O249 C234 1.247 1_455 S
O250 Ho225 2.322 . S
O250 C235 1.259 . S
O251 Ho224 2.346 1_455 S
O251 C235 1.268 . S
O252 Ho225 2.378 . S
O252 C236 1.215 . S
O253 Ho225 2.524 . S
O253 C236 1.289 . S
O254 Ho225 2.381 . S
O254 C243 1.297 . S
O255 Ho224 2.305 . S
O255 Ho225 2.669 1_655 S
O255 C243 1.244 1_655 S
H256 C229 0.930 . S
H257 C230 0.931 . S
H258 C232 0.934 . S
H259 C233 0.930 1_556 S
H260 C238 0.930 . S
H261 C239 0.931 . S
H262 C241 0.934 . S
H263 C242 0.930 . S
C264 C265 1.391 . S
C264 C266 1.394 . S
C264 H280 0.931 . S
C265 C264 1.391 . S
C265 C269 1.376 1_565 S
C266 C264 1.394 . S
C266 C267 1.369 . S
C266 C270 1.531 . S
C267 C266 1.369 . S
C267 C268 1.410 1_565 S
C267 C275 1.503 . S
C268 C267 1.410 1_545 S
C268 C269 1.392 . S
C268 C271 1.511 . S
C269 C265 1.376 1_545 S
C269 C268 1.392 . S
C269 H281 0.929 . S
C270 C266 1.531 . S
C270 H282 0.960 . S
C270 H283 0.962 . S
C270 H284 0.960 . S
C271 C268 1.511 . S
C271 H285 0.961 . S
C271 H286 0.961 . S
C271 H287 0.961 1_545 S
C272 C273 1.392 . S
C272 C274 1.363 . S
C272 H288 0.931 . S
C273 C272 1.392 . S
C273 C277 1.384 1_545 S
C274 C272 1.363 . S
C274 C275 1.370 1_545 S
C274 C278 1.524 . S
C275 C267 1.503 . S
C275 C274 1.370 1_565 S
C275 C276 1.403 . S
C276 C275 1.403 . S
C276 C277 1.404 . S
C276 C279 1.539 . S
C277 C273 1.384 1_565 S
C277 C276 1.404 . S
C277 H289 0.930 . S
C278 C274 1.524 . S
C278 H290 0.956 . S
C278 H291 0.961 . S
C278 H292 0.961 . S
C279 C276 1.539 . S
C279 H293 0.958 . S
C279 H294 0.961 . S
C279 H295 0.960 . S
H280 C264 0.931 . S
H281 C269 0.929 . S
H282 C270 0.960 . S
H283 C270 0.962 . S
H284 C270 0.960 . S
H285 C271 0.961 . S
H286 C271 0.961 . S
H287 C271 0.961 1_565 S
H288 C272 0.931 . S
H289 C277 0.930 . S
H290 C278 0.956 . S
H291 C278 0.961 . S
H292 C278 0.961 . S
H293 C279 0.958 . S
H294 C279 0.961 . S
H295 C279 0.960 . S
C296 C297 1.391 . S
C296 C298 1.394 . S
C296 H312 0.931 . S
C297 C296 1.391 . S
C297 C301 1.376 . S
C298 C296 1.394 . S
C298 C299 1.369 . S
C298 C302 1.531 . S
C299 C298 1.369 . S
C299 C300 1.410 . S
C299 C307 1.503 . S
C300 C299 1.410 . S
C300 C301 1.392 . S
C300 C303 1.511 . S
C301 C297 1.376 . S
C301 C300 1.392 . S
C301 H313 0.929 . S
C302 C298 1.531 . S
C302 H314 0.960 . S
C302 H315 0.962 . S
C302 H316 0.960 . S
C303 C300 1.511 . S
C303 H317 0.961 . S
C303 H318 0.961 . S
C303 H319 0.961 . S
C304 C305 1.370 . S
C304 C306 1.363 . S
C304 H320 0.931 . S
C305 C304 1.370 . S
C305 C309 1.408 . S
C306 C304 1.363 . S
C306 C307 1.370 . S
C306 C310 1.524 . S
C307 C299 1.503 . S
C307 C306 1.370 . S
C307 C308 1.403 . S
C308 C307 1.403 . S
C308 C309 1.404 . S
C308 C311 1.539 . S
C309 C305 1.408 . S
C309 C308 1.404 . S
C309 H321 0.930 . S
C310 C306 1.524 . S
C310 H322 0.956 . S
C310 H323 0.961 . S
C310 H324 0.961 . S
C311 C308 1.539 . S
C311 H325 0.958 . S
C311 H326 0.961 . S
C311 H327 0.960 . S
H312 C296 0.931 . S
H313 C301 0.929 . S
H314 C302 0.960 . S
H315 C302 0.962 . S
H316 C302 0.960 . S
H317 C303 0.961 . S
H318 C303 0.961 . S
H319 C303 0.961 . S
H320 C304 0.931 . S
H321 C309 0.930 . S
H322 C310 0.956 . S
H323 C310 0.961 . S
H324 C310 0.961 . S
H325 C311 0.958 . S
H326 C311 0.961 . S
H327 C311 0.960 . S
C328 C329 1.391 . S
C328 C330 1.394 . S
C328 H344 0.931 . S
C329 C328 1.391 . S
C329 C333 1.376 . S
C330 C328 1.394 . S
C330 C331 1.369 . S
C330 C334 1.531 . S
C331 C330 1.369 . S
C331 C332 1.410 . S
C331 C339 1.503 . S
C332 C331 1.410 . S
C332 C333 1.392 . S
C332 C335 1.511 . S
C333 C329 1.376 . S
C333 C332 1.392 . S
C333 H345 0.929 . S
C334 C330 1.531 . S
C334 H346 0.960 . S
C334 H347 0.962 . S
C334 H348 0.960 . S
C335 C332 1.511 . S
C335 H349 0.961 . S
C335 H350 0.961 . S
C335 H351 0.961 . S
C336 C337 1.370 . S
C336 C338 1.363 . S
C336 H352 0.931 . S
C337 C336 1.370 . S
C337 C341 1.408 . S
C338 C336 1.363 . S
C338 C339 1.370 . S
C338 C342 1.524 . S
C339 C331 1.503 . S
C339 C338 1.370 . S
C339 C340 1.403 . S
C340 C339 1.403 . S
C340 C341 1.404 . S
C340 C343 1.539 . S
C341 C337 1.408 . S
C341 C340 1.404 . S
C341 H353 0.930 . S
C342 C338 1.524 . S
C342 H354 0.956 . S
C342 H355 0.961 . S
C342 H356 0.961 . S
C343 C340 1.539 . S
C343 H357 0.958 . S
C343 H358 0.961 . S
C343 H359 0.960 . S
H344 C328 0.931 . S
H345 C333 0.929 . S
H346 C334 0.960 . S
H347 C334 0.962 . S
H348 C334 0.960 . S
H349 C335 0.961 . S
H350 C335 0.961 . S
H351 C335 0.961 . S
H352 C336 0.931 . S
H353 C341 0.930 . S
H354 C342 0.956 . S
H355 C342 0.961 . S
H356 C342 0.961 . S
H357 C343 0.958 . S
H358 C343 0.961 . S
H359 C343 0.960 . S
C360 C361 1.391 1_455 S
C360 C362 1.394 . S
C360 H376 0.931 . S
C361 C360 1.391 1_655 S
C361 C365 1.376 . S
C362 C360 1.394 . S
C362 C363 1.369 1_455 S
C362 C366 1.531 . S
C363 C362 1.369 1_655 S
C363 C364 1.410 . S
C363 C371 1.503 . S
C364 C363 1.410 . S
C364 C365 1.392 . S
C364 C367 1.511 . S
C365 C361 1.376 . S
C365 C364 1.392 . S
C365 H377 0.929 . S
C366 C362 1.531 . S
C366 H378 0.960 . S
C366 H379 0.962 . S
C366 H380 0.960 . S
C367 C364 1.511 . S
C367 H381 0.961 . S
C367 H382 0.961 . S
C367 H383 0.961 . S
C368 C369 1.398 . S
C368 C370 1.363 . S
C368 H384 0.931 . S
C369 C368 1.398 . S
C369 C373 1.379 1_455 S
C370 C368 1.363 . S
C370 C371 1.370 1_455 S
C370 C374 1.524 . S
C371 C363 1.503 . S
C371 C370 1.370 1_655 S
C371 C372 1.403 . S
C372 C371 1.403 . S
C372 C373 1.404 . S
C372 C375 1.539 . S
C373 C369 1.379 1_655 S
C373 C372 1.404 . S
C373 H385 0.930 . S
C374 C370 1.524 . S
C374 H386 0.956 . S
C374 H387 0.961 . S
C374 H388 0.961 . S
C375 C372 1.539 . S
C375 H389 0.958 . S
C375 H390 0.961 . S
C375 H391 0.960 . S
H376 C360 0.931 . S
H377 C365 0.929 . S
H378 C366 0.960 . S
H379 C366 0.962 . S
H380 C366 0.960 . S
H381 C367 0.961 . S
H382 C367 0.961 . S
H383 C367 0.961 . S
H384 C368 0.931 . S
H385 C373 0.930 . S
H386 C374 0.956 . S
H387 C374 0.961 . S
H388 C374 0.961 . S
H389 C375 0.958 . S
H390 C375 0.961 . S
H391 C375 0.960 . S
C392 C393 1.391 . S
C392 C394 1.394 . S
C392 H408 0.931 . S
C393 C392 1.391 . S
C393 C397 1.376 . S
C394 C392 1.394 . S
C394 C395 1.369 . S
C394 C398 1.531 . S
C395 C394 1.369 . S
C395 C396 1.410 . S
C395 C403 1.503 . S
C396 C395 1.410 . S
C396 C397 1.392 . S
C396 C399 1.511 . S
C397 C393 1.376 . S
C397 C396 1.392 . S
C397 H409 0.929 . S
C398 C394 1.531 . S
C398 H410 0.960 . S
C398 H411 0.962 1_545 S
C398 H412 0.960 . S
C399 C396 1.511 . S
C399 H413 0.961 1_545 S
C399 H414 0.961 1_545 S
C399 H415 0.961 . S
C400 C401 1.381 . S
C400 C402 1.363 1_556 S
C400 H416 0.931 . S
C401 C400 1.381 . S
C401 C405 1.397 1_565 S
C402 C400 1.363 1_554 S
C402 C403 1.370 1_565 S
C402 C406 1.524 . S
C403 C395 1.503 . S
C403 C402 1.370 1_545 S
C403 C404 1.403 . S
C404 C403 1.403 . S
C404 C405 1.404 1_554 S
C404 C407 1.539 . S
C405 C401 1.397 1_545 S
C405 C404 1.404 1_556 S
C405 H417 0.930 . S
C406 C402 1.524 . S
C406 H418 0.956 . S
C406 H419 0.961 . S
C406 H420 0.961 . S
C407 C404 1.539 . S
C407 H421 0.958 . S
C407 H422 0.961 . S
C407 H423 0.960 . S
H408 C392 0.931 . S
H409 C397 0.929 . S
H410 C398 0.960 . S
H411 C398 0.962 1_565 S
H412 C398 0.960 . S
H413 C399 0.961 1_565 S
H414 C399 0.961 1_565 S
H415 C399 0.961 . S
H416 C400 0.931 . S
H417 C405 0.930 . S
H418 C406 0.956 . S
H419 C406 0.961 . S
H420 C406 0.961 . S
H421 C407 0.958 . S
H422 C407 0.961 . S
H423 C407 0.960 . S
C424 C425 1.391 . S
C424 C426 1.394 . S
C424 H440 0.931 . S
C425 C424 1.391 . S
C425 C429 1.376 . S
C426 C424 1.394 . S
C426 C427 1.369 . S
C426 C430 1.531 . S
C427 C426 1.369 . S
C427 C428 1.410 . S
C427 C435 1.503 . S
C428 C427 1.410 . S
C428 C429 1.392 . S
C428 C431 1.511 . S
C429 C425 1.376 . S
C429 C428 1.392 . S
C429 H441 0.929 . S
C430 C426 1.531 . S
C430 H442 0.960 . S
C430 H443 0.962 . S
C430 H444 0.960 . S
C431 C428 1.511 . S
C431 H445 0.961 . S
C431 H446 0.961 . S
C431 H447 0.961 . S
C432 C433 1.370 . S
C432 C434 1.363 1_556 S
C432 H448 0.931 . S
C433 C432 1.370 . S
C433 C437 1.408 1_556 S
C434 C432 1.363 1_554 S
C434 C435 1.370 . S
C434 C438 1.524 1_554 S
C435 C427 1.503 . S
C435 C434 1.370 . S
C435 C436 1.403 . S
C436 C435 1.403 . S
C436 C437 1.404 . S
C436 C439 1.539 . S
C437 C433 1.408 1_554 S
C437 C436 1.404 . S
C437 H449 0.930 . S
C438 C434 1.524 1_556 S
C438 H450 0.956 1_556 S
C438 H451 0.961 1_556 S
C438 H452 0.961 . S
C439 C436 1.539 . S
C439 H453 0.958 . S
C439 H454 0.961 . S
C439 H455 0.960 . S
H440 C424 0.931 . S
H441 C429 0.929 . S
H442 C430 0.960 . S
H443 C430 0.962 . S
H444 C430 0.960 . S
H445 C431 0.961 . S
H446 C431 0.961 . S
H447 C431 0.961 . S
H448 C432 0.931 . S
H449 C437 0.930 . S
H450 C438 0.956 1_554 S
H451 C438 0.961 1_554 S
H452 C438 0.961 . S
H453 C439 0.958 . S
H454 C439 0.961 . S
H455 C439 0.960 . S
C456 C457 1.391 . S
C456 C458 1.394 . S
C456 H472 0.931 . S
C457 C456 1.391 . S
C457 C461 1.376 . S
C458 C456 1.394 . S
C458 C459 1.369 . S
C458 C462 1.531 . S
C459 C458 1.369 . S
C459 C460 1.410 . S
C459 C467 1.503 . S
C460 C459 1.410 . S
C460 C461 1.392 . S
C460 C463 1.511 . S
C461 C457 1.376 . S
C461 C460 1.392 . S
C461 H473 0.929 . S
C462 C458 1.531 . S
C462 H474 0.960 . S
C462 H475 0.962 . S
C462 H476 0.960 . S
C463 C460 1.511 . S
C463 H477 0.961 . S
C463 H478 0.961 . S
C463 H479 0.961 . S
C464 C465 1.370 . S
C464 C466 1.363 1_556 S
C464 H480 0.931 . S
C465 C464 1.370 . S
C465 C469 1.408 . S
C466 C464 1.363 1_554 S
C466 C467 1.370 . S
C466 C470 1.524 . S
C467 C459 1.503 . S
C467 C466 1.370 . S
C467 C468 1.403 . S
C468 C467 1.403 . S
C468 C469 1.404 1_554 S
C468 C471 1.539 . S
C469 C465 1.408 . S
C469 C468 1.404 1_556 S
C469 H481 0.930 . S
C470 C466 1.524 . S
C470 H482 0.956 . S
C470 H483 0.961 . S
C470 H484 0.961 . S
C471 C468 1.539 . S
C471 H485 0.958 . S
C471 H486 0.961 1_554 S
C471 H487 0.960 . S
H472 C456 0.931 . S
H473 C461 0.929 . S
H474 C462 0.960 . S
H475 C462 0.962 . S
H476 C462 0.960 . S
H477 C463 0.961 . S
H478 C463 0.961 . S
H479 C463 0.961 . S
H480 C464 0.931 . S
H481 C469 0.930 . S
H482 C470 0.956 . S
H483 C470 0.961 . S
H484 C470 0.961 . S
H485 C471 0.958 . S
H486 C471 0.961 1_556 S
H487 C471 0.960 . S
C488 C489 1.391 1_455 S
C488 C490 1.394 . S
C488 H504 0.931 . S
C489 C488 1.391 1_655 S
C489 C493 1.376 . S
C490 C488 1.394 . S
C490 C491 1.369 1_455 S
C490 C494 1.531 . S
C491 C490 1.369 1_655 S
C491 C492 1.410 . S
C491 C499 1.503 . S
C492 C491 1.410 . S
C492 C493 1.392 . S
C492 C495 1.511 . S
C493 C489 1.376 . S
C493 C492 1.392 . S
C493 H505 0.929 . S
C494 C490 1.531 . S
C494 H506 0.960 . S
C494 H507 0.962 . S
C494 H508 0.960 . S
C495 C492 1.511 . S
C495 H509 0.961 . S
C495 H510 0.961 . S
C495 H511 0.961 . S
C496 C497 1.370 1_455 S
C496 C498 1.363 1_556 S
C496 H512 0.931 . S
C497 C496 1.370 1_655 S
C497 C501 1.408 1_556 S
C498 C496 1.363 1_554 S
C498 C499 1.370 1_455 S
C498 C502 1.524 1_554 S
C499 C491 1.503 . S
C499 C498 1.370 1_655 S
C499 C500 1.403 . S
C500 C499 1.403 . S
C500 C501 1.404 . S
C500 C503 1.539 . S
C501 C497 1.408 1_554 S
C501 C500 1.404 . S
C501 H513 0.930 . S
C502 C498 1.524 1_556 S
C502 H514 0.956 1_556 S
C502 H515 0.961 1_556 S
C502 H516 0.961 . S
C503 C500 1.539 . S
C503 H517 0.958 . S
C503 H518 0.961 . S
C503 H519 0.960 . S
H504 C488 0.931 . S
H505 C493 0.929 . S
H506 C494 0.960 . S
H507 C494 0.962 . S
H508 C494 0.960 . S
H509 C495 0.961 . S
H510 C495 0.961 . S
H511 C495 0.961 . S
H512 C496 0.931 . S
H513 C501 0.930 . S
H514 C502 0.956 1_554 S
H515 C502 0.961 1_554 S
H516 C502 0.961 . S
H517 C503 0.958 . S
H518 C503 0.961 . S
H519 C503 0.960 . S
C520 C521 1.391 . S
C520 C522 1.394 . S
C520 H536 0.931 . S
C521 C520 1.391 . S
C521 C525 1.376 1_455 S
C522 C520 1.394 . S
C522 C523 1.369 1_455 S
C522 C526 1.531 . S
C523 C522 1.369 1_655 S
C523 C524 1.410 . S
C523 C531 1.503 . S
C524 C523 1.410 . S
C524 C525 1.392 . S
C524 C527 1.511 . S
C525 C521 1.376 1_655 S
C525 C524 1.392 . S
C525 H537 0.929 . S
C526 C522 1.531 . S
C526 H538 0.960 . S
C526 H539 0.962 . S
C526 H540 0.960 . S
C527 C524 1.511 . S
C527 H541 0.961 . S
C527 H542 0.961 . S
C527 H543 0.961 . S
C528 C529 1.370 . S
C528 C530 1.363 . S
C528 H544 0.931 . S
C529 C528 1.370 . S
C529 C533 1.408 . S
C530 C528 1.363 . S
C530 C531 1.370 . S
C530 C534 1.524 . S
C531 C523 1.503 . S
C531 C530 1.370 . S
C531 C532 1.403 . S
C532 C531 1.403 . S
C532 C533 1.404 . S
C532 C535 1.539 1_655 S
C533 C529 1.408 . S
C533 C532 1.404 . S
C533 H545 0.930 . S
C534 C530 1.524 . S
C534 H546 0.956 . S
C534 H547 0.961 . S
C534 H548 0.961 . S
C535 C532 1.539 1_455 S
C535 H549 0.958 . S
C535 H550 0.961 . S
C535 H551 0.960 . S
H536 C520 0.931 . S
H537 C525 0.929 . S
H538 C526 0.960 . S
H539 C526 0.962 . S
H540 C526 0.960 . S
H541 C527 0.961 . S
H542 C527 0.961 . S
H543 C527 0.961 . S
H544 C528 0.931 . S
H545 C533 0.930 . S
H546 C534 0.956 . S
H547 C534 0.961 . S
H548 C534 0.961 . S
H549 C535 0.958 . S
H550 C535 0.961 . S
H551 C535 0.960 . S
C552 C553 1.391 1_565 S
C552 C554 1.394 . S
C552 H568 0.931 . S
C553 C552 1.391 1_545 S
C553 C557 1.376 . S
C554 C552 1.394 . S
C554 C555 1.369 . S
C554 C558 1.531 . S
C555 C554 1.369 . S
C555 C556 1.410 1_565 S
C555 C563 1.503 . S
C556 C555 1.410 1_545 S
C556 C557 1.392 . S
C556 C559 1.511 . S
C557 C553 1.376 . S
C557 C556 1.392 . S
C557 H569 0.929 . S
C558 C554 1.531 . S
C558 H570 0.960 . S
C558 H571 0.962 . S
C558 H572 0.960 . S
C559 C556 1.511 . S
C559 H573 0.961 . S
C559 H574 0.961 . S
C559 H575 0.961 . S
C560 C561 1.370 . S
C560 C562 1.363 . S
C560 H576 0.931 . S
C561 C560 1.370 . S
C561 C565 1.408 . S
C562 C560 1.363 . S
C562 C563 1.370 . S
C562 C566 1.524 . S
C563 C555 1.503 . S
C563 C562 1.370 . S
C563 C564 1.403 . S
C564 C563 1.403 . S
C564 C565 1.404 . S
C564 C567 1.539 1_565 S
C565 C561 1.408 . S
C565 C564 1.404 . S
C565 H577 0.930 . S
C566 C562 1.524 . S
C566 H578 0.956 . S
C566 H579 0.961 . S
C566 H580 0.961 . S
C567 C564 1.539 1_545 S
C567 H581 0.958 1_545 S
C567 H582 0.961 . S
C567 H583 0.960 . S
H568 C552 0.931 . S
H569 C557 0.929 . S
H570 C558 0.960 . S
H571 C558 0.962 . S
H572 C558 0.960 . S
H573 C559 0.961 . S
H574 C559 0.961 . S
H575 C559 0.961 . S
H576 C560 0.931 . S
H577 C565 0.930 . S
H578 C566 0.956 . S
H579 C566 0.961 . S
H580 C566 0.961 . S
H581 C567 0.958 1_565 S
H582 C567 0.961 . S
H583 C567 0.960 . S
C584 C585 1.391 . S
C584 C586 1.394 . S
C584 H600 0.931 . S
C585 C584 1.391 . S
C585 C589 1.376 . S
C586 C584 1.394 . S
C586 C587 1.369 . S
C586 C590 1.531 . S
C587 C586 1.369 . S
C587 C588 1.410 . S
C587 C595 1.503 . S
C588 C587 1.410 . S
C588 C589 1.392 . S
C588 C591 1.511 . S
C589 C585 1.376 . S
C589 C588 1.392 . S
C589 H601 0.929 . S
C590 C586 1.531 . S
C590 H602 0.960 . S
C590 H603 0.962 . S
C590 H604 0.960 . S
C591 C588 1.511 . S
C591 H605 0.961 . S
C591 H606 0.961 . S
C591 H607 0.961 . S
C592 C593 1.370 . S
C592 C594 1.363 . S
C592 H608 0.931 . S
C593 C592 1.370 . S
C593 C597 1.408 . S
C594 C592 1.363 . S
C594 C595 1.370 . S
C594 C598 1.524 . S
C595 C587 1.503 . S
C595 C594 1.370 . S
C595 C596 1.403 . S
C596 C595 1.403 . S
C596 C597 1.404 . S
C596 C599 1.539 . S
C597 C593 1.408 . S
C597 C596 1.404 . S
C597 H609 0.930 . S
C598 C594 1.524 . S
C598 H610 0.956 . S
C598 H611 0.961 . S
C598 H612 0.961 . S
C599 C596 1.539 . S
C599 H613 0.958 . S
C599 H614 0.961 . S
C599 H615 0.960 . S
H600 C584 0.931 . S
H601 C589 0.929 . S
H602 C590 0.960 . S
H603 C590 0.962 . S
H604 C590 0.960 . S
H605 C591 0.961 . S
H606 C591 0.961 . S
H607 C591 0.961 . S
H608 C592 0.931 . S
H609 C597 0.930 . S
H610 C598 0.956 . S
H611 C598 0.961 . S
H612 C598 0.961 . S
H613 C599 0.958 . S
H614 C599 0.961 . S
H615 C599 0.960 . S
C616 C617 1.391 . S
C616 C618 1.394 . S
C616 H632 0.931 . S
C617 C616 1.391 . S
C617 C621 1.376 . S
C618 C616 1.394 . S
C618 C619 1.369 . S
C618 C622 1.531 . S
C619 C618 1.369 . S
C619 C620 1.410 . S
C619 C627 1.503 . S
C620 C619 1.410 . S
C620 C621 1.392 . S
C620 C623 1.511 . S
C621 C617 1.376 . S
C621 C620 1.392 . S
C621 H633 0.929 . S
C622 C618 1.531 . S
C622 H634 0.960 . S
C622 H635 0.962 . S
C622 H636 0.960 . S
C623 C620 1.511 . S
C623 H637 0.961 . S
C623 H638 0.961 . S
C623 H639 0.961 . S
C624 C625 1.370 . S
C624 C626 1.363 . S
C624 H640 0.931 . S
C625 C624 1.370 . S
C625 C629 1.408 . S
C626 C624 1.363 . S
C626 C627 1.370 . S
C626 C630 1.524 . S
C627 C619 1.503 . S
C627 C626 1.370 . S
C627 C628 1.403 . S
C628 C627 1.403 . S
C628 C629 1.404 . S
C628 C631 1.539 . S
C629 C625 1.408 . S
C629 C628 1.404 . S
C629 H641 0.930 . S
C630 C626 1.524 . S
C630 H642 0.956 . S
C630 H643 0.961 . S
C630 H644 0.961 . S
C631 C628 1.539 . S
C631 H645 0.958 . S
C631 H646 0.961 . S
C631 H647 0.960 . S
H632 C616 0.931 . S
H633 C621 0.929 . S
H634 C622 0.960 . S
H635 C622 0.962 . S
H636 C622 0.960 . S
H637 C623 0.961 . S
H638 C623 0.961 . S
H639 C623 0.961 . S
H640 C624 0.931 . S
H641 C629 0.930 . S
H642 C630 0.956 . S
H643 C630 0.961 . S
H644 C630 0.961 . S
H645 C631 0.958 . S
H646 C631 0.961 . S
H647 C631 0.960 . S
C648 C649 1.391 . S
C648 C650 1.394 . S
C648 H664 0.931 . S
C649 C648 1.391 . S
C649 C653 1.376 1_455 S
C650 C648 1.394 . S
C650 C651 1.369 . S
C650 C654 1.531 . S
C651 C650 1.369 . S
C651 C652 1.410 . S
C651 C659 1.503 . S
C652 C651 1.410 . S
C652 C653 1.392 1_455 S
C652 C655 1.511 1_455 S
C653 C649 1.376 1_655 S
C653 C652 1.392 1_655 S
C653 H665 0.929 . S
C654 C650 1.531 . S
C654 H666 0.960 . S
C654 H667 0.962 . S
C654 H668 0.960 . S
C655 C652 1.511 1_655 S
C655 H669 0.961 . S
C655 H670 0.961 . S
C655 H671 0.961 1_655 S
C656 C657 1.370 . S
C656 C658 1.363 . S
C656 H672 0.931 . S
C657 C656 1.370 . S
C657 C661 1.408 . S
C658 C656 1.363 . S
C658 C659 1.370 . S
C658 C662 1.524 1_455 S
C659 C651 1.503 . S
C659 C658 1.370 . S
C659 C660 1.403 . S
C660 C659 1.403 . S
C660 C661 1.404 . S
C660 C663 1.539 . S
C661 C657 1.408 . S
C661 C660 1.404 . S
C661 H673 0.930 . S
C662 C658 1.524 1_655 S
C662 H674 0.956 . S
C662 H675 0.961 . S
C662 H676 0.961 . S
C663 C660 1.539 . S
C663 H677 0.958 . S
C663 H678 0.961 . S
C663 H679 0.960 . S
H664 C648 0.931 . S
H665 C653 0.929 . S
H666 C654 0.960 . S
H667 C654 0.962 . S
H668 C654 0.960 . S
H669 C655 0.961 . S
H670 C655 0.961 . S
H671 C655 0.961 1_455 S
H672 C656 0.931 . S
H673 C661 0.930 . S
H674 C662 0.956 . S
H675 C662 0.961 . S
H676 C662 0.961 . S
H677 C663 0.958 . S
H678 C663 0.961 . S
H679 C663 0.960 . S
C680 C681 1.390 . S
C680 C682 1.394 . S
C680 H696 0.931 . S
C681 C680 1.390 . S
C681 C685 1.377 1_565 S
C682 C680 1.394 . S
C682 C683 1.369 1_565 S
C682 C686 1.531 . S
C683 C682 1.369 1_545 S
C683 C684 1.410 . S
C683 C691 1.503 . S
C684 C683 1.410 . S
C684 C685 1.392 . S
C684 C687 1.511 . S
C685 C681 1.377 1_545 S
C685 C684 1.392 . S
C685 H697 0.929 . S
C686 C682 1.531 . S
C686 H698 0.960 . S
C686 H699 0.962 . S
C686 H700 0.960 . S
C687 C684 1.511 . S
C687 H701 0.961 . S
C687 H702 0.961 . S
C687 H703 0.961 . S
C688 C689 1.370 . S
C688 C690 1.363 . S
C688 H704 0.931 . S
C689 C688 1.370 . S
C689 C693 1.408 . S
C690 C688 1.363 . S
C690 C691 1.370 . S
C690 C694 1.524 1_545 S
C691 C683 1.503 . S
C691 C690 1.370 . S
C691 C692 1.403 . S
C692 C691 1.403 . S
C692 C693 1.404 . S
C692 C695 1.539 . S
C693 C689 1.408 . S
C693 C692 1.404 . S
C693 H705 0.930 . S
C694 C690 1.524 1_565 S
C694 H706 0.956 . S
C694 H707 0.961 1_565 S
C694 H708 0.961 . S
C695 C692 1.539 . S
C695 H709 0.958 . S
C695 H710 0.961 . S
C695 H711 0.960 . S
H696 C680 0.931 . S
H697 C685 0.929 . S
H698 C686 0.960 . S
H699 C686 0.962 . S
H700 C686 0.960 . S
H701 C687 0.961 . S
H702 C687 0.961 . S
H703 C687 0.961 . S
H704 C688 0.931 . S
H705 C693 0.930 . S
H706 C694 0.956 . S
H707 C694 0.961 1_545 S
H708 C694 0.961 . S
H709 C695 0.958 . S
H710 C695 0.961 . S
H711 C695 0.960 . S
C712 C713 1.391 . S
C712 C714 1.394 . S
C712 H728 0.931 . S
C713 C712 1.391 . S
C713 C717 1.376 . S
C714 C712 1.394 . S
C714 C715 1.369 . S
C714 C718 1.531 . S
C715 C714 1.369 . S
C715 C716 1.410 . S
C715 C723 1.503 . S
C716 C715 1.410 . S
C716 C717 1.392 . S
C716 C719 1.511 . S
C717 C713 1.376 . S
C717 C716 1.392 . S
C717 H729 0.929 . S
C718 C714 1.531 . S
C718 H730 0.960 . S
C718 H731 0.962 . S
C718 H732 0.960 . S
C719 C716 1.511 . S
C719 H733 0.961 . S
C719 H734 0.961 . S
C719 H735 0.961 . S
C720 C721 1.370 . S
C720 C722 1.363 . S
C720 H736 0.931 . S
C721 C720 1.370 . S
C721 C725 1.408 . S
C722 C720 1.363 . S
C722 C723 1.370 . S
C722 C726 1.524 . S
C723 C715 1.503 . S
C723 C722 1.370 . S
C723 C724 1.403 . S
C724 C723 1.403 . S
C724 C725 1.404 . S
C724 C727 1.539 . S
C725 C721 1.408 . S
C725 C724 1.404 . S
C725 H737 0.930 . S
C726 C722 1.524 . S
C726 H738 0.956 . S
C726 H739 0.961 . S
C726 H740 0.961 . S
C727 C724 1.539 . S
C727 H741 0.958 . S
C727 H742 0.961 . S
C727 H743 0.960 . S
H728 C712 0.931 . S
H729 C717 0.929 . S
H730 C718 0.960 . S
H731 C718 0.962 . S
H732 C718 0.960 . S
H733 C719 0.961 . S
H734 C719 0.961 . S
H735 C719 0.961 . S
H736 C720 0.931 . S
H737 C725 0.930 . S
H738 C726 0.956 . S
H739 C726 0.961 . S
H740 C726 0.961 . S
H741 C727 0.958 . S
H742 C727 0.961 . S
H743 C727 0.960 . S
C744 C745 1.391 . S
C744 C746 1.394 . S
C744 H760 0.931 . S
C745 C744 1.391 . S
C745 C749 1.376 . S
C746 C744 1.394 . S
C746 C747 1.369 . S
C746 C750 1.531 . S
C747 C746 1.369 . S
C747 C748 1.410 . S
C747 C755 1.503 . S
C748 C747 1.410 . S
C748 C749 1.392 . S
C748 C751 1.511 . S
C749 C745 1.376 . S
C749 C748 1.392 . S
C749 H761 0.929 . S
C750 C746 1.531 . S
C750 H762 0.960 . S
C750 H763 0.962 . S
C750 H764 0.960 . S
C751 C748 1.511 . S
C751 H765 0.961 . S
C751 H766 0.961 . S
C751 H767 0.961 . S
C752 C753 1.370 . S
C752 C754 1.363 . S
C752 H768 0.931 . S
C753 C752 1.370 . S
C753 C757 1.408 . S
C754 C752 1.363 . S
C754 C755 1.370 . S
C754 C758 1.524 . S
C755 C747 1.503 . S
C755 C754 1.370 . S
C755 C756 1.403 . S
C756 C755 1.403 . S
C756 C757 1.404 . S
C756 C759 1.539 . S
C757 C753 1.408 . S
C757 C756 1.404 . S
C757 H769 0.930 . S
C758 C754 1.524 . S
C758 H770 0.956 . S
C758 H771 0.961 . S
C758 H772 0.961 . S
C759 C756 1.539 . S
C759 H773 0.958 . S
C759 H774 0.961 . S
C759 H775 0.960 . S
H760 C744 0.931 . S
H761 C749 0.929 . S
H762 C750 0.960 . S
H763 C750 0.962 . S
H764 C750 0.960 . S
H765 C751 0.961 . S
H766 C751 0.961 . S
H767 C751 0.961 . S
H768 C752 0.931 . S
H769 C757 0.930 . S
H770 C758 0.956 . S
H771 C758 0.961 . S
H772 C758 0.961 . S
H773 C759 0.958 . S
H774 C759 0.961 . S
H775 C759 0.960 . S
C776 C777 1.391 . S
C776 C778 1.394 . S
C776 H792 0.931 . S
C777 C776 1.391 . S
C777 C781 1.376 1_455 S
C778 C776 1.394 . S
C778 C779 1.369 . S
C778 C782 1.531 . S
C779 C778 1.369 . S
C779 C780 1.410 1_455 S
C779 C787 1.503 . S
C780 C779 1.410 1_655 S
C780 C781 1.392 . S
C780 C783 1.511 . S
C781 C777 1.376 1_655 S
C781 C780 1.392 . S
C781 H793 0.929 . S
C782 C778 1.531 . S
C782 H794 0.960 . S
C782 H795 0.962 . S
C782 H796 0.960 . S
C783 C780 1.511 . S
C783 H797 0.961 . S
C783 H798 0.961 . S
C783 H799 0.961 . S
C784 C785 1.370 . S
C784 C786 1.363 . S
C784 H800 0.931 . S
C785 C784 1.370 . S
C785 C789 1.408 . S
C786 C784 1.363 . S
C786 C787 1.370 . S
C786 C790 1.524 . S
C787 C779 1.503 . S
C787 C786 1.370 . S
C787 C788 1.403 . S
C788 C787 1.403 . S
C788 C789 1.404 . S
C788 C791 1.539 1_556 S
C789 C785 1.408 . S
C789 C788 1.404 . S
C789 H801 0.930 . S
C790 C786 1.524 . S
C790 H802 0.956 . S
C790 H803 0.961 1_455 S
C790 H804 0.961 . S
C791 C788 1.539 1_554 S
C791 H805 0.958 . S
C791 H806 0.961 . S
C791 H807 0.973 . S
H792 C776 0.931 . S
H793 C781 0.929 . S
H794 C782 0.960 . S
H795 C782 0.962 . S
H796 C782 0.960 . S
H797 C783 0.961 . S
H798 C783 0.961 . S
H799 C783 0.961 . S
H800 C784 0.931 . S
H801 C789 0.930 . S
H802 C790 0.956 . S
H803 C790 0.961 1_655 S
H804 C790 0.961 . S
H805 C791 0.958 . S
H806 C791 0.961 . S
H807 C791 0.973 . S
C808 C809 1.391 . S
C808 C810 1.394 . S
C808 H824 0.931 . S
C809 C808 1.391 . S
C809 C813 1.376 1_545 S
C810 C808 1.394 . S
C810 C811 1.369 . S
C810 C814 1.531 . S
C811 C810 1.369 . S
C811 C812 1.410 1_545 S
C811 C819 1.503 . S
C812 C811 1.410 1_565 S
C812 C813 1.392 . S
C812 C815 1.511 . S
C813 C809 1.376 1_565 S
C813 C812 1.392 . S
C813 H825 0.929 . S
C814 C810 1.531 . S
C814 H826 0.960 . S
C814 H827 0.962 . S
C814 H828 0.960 1_556 S
C815 C812 1.511 . S
C815 H829 0.961 . S
C815 H830 0.961 . S
C815 H831 0.961 . S
C816 C817 1.370 . S
C816 C818 1.363 . S
C816 H832 0.931 . S
C817 C816 1.370 . S
C817 C821 1.395 1_545 S
C818 C816 1.363 . S
C818 C819 1.370 . S
C818 C822 1.524 . S
C819 C811 1.503 . S
C819 C818 1.370 . S
C819 C820 1.403 1_545 S
C820 C819 1.403 1_565 S
C820 C821 1.407 . S
C820 C823 1.539 1_556 S
C821 C817 1.395 1_565 S
C821 C820 1.407 . S
C821 H833 0.941 . S
C822 C818 1.524 . S
C822 H834 0.956 . S
C822 H835 0.961 . S
C822 H836 0.961 . S
C823 C820 1.539 1_554 S
C823 H837 0.958 . S
C823 H838 0.961 . S
C823 H839 0.960 . S
H824 C808 0.931 . S
H825 C813 0.929 . S
H826 C814 0.960 . S
H827 C814 0.962 . S
H828 C814 0.960 1_554 S
H829 C815 0.961 . S
H830 C815 0.961 . S
H831 C815 0.961 . S
H832 C816 0.931 . S
H833 C821 0.941 . S
H834 C822 0.956 . S
H835 C822 0.961 . S
H836 C822 0.961 . S
H837 C823 0.958 . S
H838 C823 0.961 . S
H839 C823 0.960 . S
C840 C841 1.391 . S
C840 C842 1.394 . S
C840 H856 0.931 . S
C841 C840 1.391 . S
C841 C845 1.376 . S
C842 C840 1.394 . S
C842 C843 1.369 . S
C842 C846 1.531 . S
C843 C842 1.369 . S
C843 C844 1.410 . S
C843 C851 1.503 . S
C844 C843 1.410 . S
C844 C845 1.392 . S
C844 C847 1.511 . S
C845 C841 1.376 . S
C845 C844 1.392 . S
C845 H857 0.929 . S
C846 C842 1.531 . S
C846 H858 0.960 . S
C846 H859 0.962 . S
C846 H860 0.960 . S
C847 C844 1.511 . S
C847 H861 0.961 1_556 S
C847 H862 0.961 . S
C847 H863 0.961 . S
C848 C849 1.370 . S
C848 C850 1.363 . S
C848 H864 0.931 . S
C849 C848 1.370 . S
C849 C853 1.408 . S
C850 C848 1.363 . S
C850 C851 1.370 . S
C850 C854 1.524 . S
C851 C843 1.503 . S
C851 C850 1.370 . S
C851 C852 1.403 . S
C852 C851 1.403 . S
C852 C853 1.404 . S
C852 C855 1.539 . S
C853 C849 1.408 . S
C853 C852 1.404 . S
C853 H865 0.930 . S
C854 C850 1.524 . S
C854 H866 0.956 . S
C854 H867 0.961 1_556 S
C854 H868 0.961 1_556 S
C855 C852 1.539 . S
C855 H869 0.958 . S
C855 H870 0.961 . S
C855 H871 0.960 . S
H856 C840 0.931 . S
H857 C845 0.929 . S
H858 C846 0.960 . S
H859 C846 0.962 . S
H860 C846 0.960 . S
H861 C847 0.961 1_554 S
H862 C847 0.961 . S
H863 C847 0.961 . S
H864 C848 0.931 . S
H865 C853 0.930 . S
H866 C854 0.956 . S
H867 C854 0.961 1_554 S
H868 C854 0.961 1_554 S
H869 C855 0.958 . S
H870 C855 0.961 . S
H871 C855 0.960 . S
C872 C873 1.391 . S
C872 C874 1.394 . S
C872 H888 0.931 . S
C873 C872 1.391 . S
C873 C877 1.376 . S
C874 C872 1.394 . S
C874 C875 1.369 . S
C874 C878 1.531 . S
C875 C874 1.369 . S
C875 C876 1.410 . S
C875 C883 1.503 . S
C876 C875 1.410 . S
C876 C877 1.392 . S
C876 C879 1.511 . S
C877 C873 1.376 . S
C877 C876 1.392 . S
C877 H889 0.929 . S
C878 C874 1.531 . S
C878 H890 0.960 . S
C878 H891 0.962 . S
C878 H892 0.960 . S
C879 C876 1.511 . S
C879 H893 0.961 1_556 S
C879 H894 0.961 . S
C879 H895 0.961 1_556 S
C880 C881 1.370 . S
C880 C882 1.363 . S
C880 H896 0.931 . S
C881 C880 1.370 . S
C881 C885 1.408 . S
C882 C880 1.363 . S
C882 C883 1.370 . S
C882 C886 1.524 . S
C883 C875 1.503 . S
C883 C882 1.370 . S
C883 C884 1.403 . S
C884 C883 1.403 . S
C884 C885 1.404 . S
C884 C887 1.539 . S
C885 C881 1.408 . S
C885 C884 1.404 . S
C885 H897 0.930 . S
C886 C882 1.524 . S
C886 H898 0.956 . S
C886 H899 0.961 . S
C886 H900 0.961 . S
C887 C884 1.539 . S
C887 H901 0.958 . S
C887 H902 0.961 1_556 S
C887 H903 0.960 1_556 S
H888 C872 0.931 . S
H889 C877 0.929 . S
H890 C878 0.960 . S
H891 C878 0.962 . S
H892 C878 0.960 . S
H893 C879 0.961 1_554 S
H894 C879 0.961 . S
H895 C879 0.961 1_554 S
H896 C880 0.931 . S
H897 C885 0.930 . S
H898 C886 0.956 . S
H899 C886 0.961 . S
H900 C886 0.961 . S
H901 C887 0.958 . S
H902 C887 0.961 1_554 S
H903 C887 0.960 1_554 S
C904 C905 1.391 . S
C904 C906 1.394 . S
C904 H920 0.931 . S
C905 C904 1.391 . S
C905 C909 1.376 . S
C906 C904 1.394 . S
C906 C907 1.369 . S
C906 C910 1.531 . S
C907 C906 1.369 . S
C907 C908 1.410 . S
C907 C915 1.503 . S
C908 C907 1.410 . S
C908 C909 1.392 . S
C908 C911 1.511 . S
C909 C905 1.376 . S
C909 C908 1.392 . S
C909 H921 0.929 . S
C910 C906 1.531 . S
C910 H922 0.960 . S
C910 H923 0.962 1_655 S
C910 H924 0.960 . S
C911 C908 1.511 . S
C911 H925 0.961 . S
C911 H926 0.961 . S
C911 H927 0.961 . S
C912 C913 1.370 1_455 S
C912 C914 1.363 . S
C912 H928 0.931 . S
C913 C912 1.370 1_655 S
C913 C917 1.408 . S
C914 C912 1.363 . S
C914 C915 1.370 1_455 S
C914 C918 1.524 . S
C915 C907 1.503 . S
C915 C914 1.370 1_655 S
C915 C916 1.403 . S
C916 C915 1.403 . S
C916 C917 1.404 . S
C916 C919 1.539 . S
C917 C913 1.408 . S
C917 C916 1.404 . S
C917 H929 0.930 . S
C918 C914 1.524 . S
C918 H930 0.956 . S
C918 H931 0.961 . S
C918 H932 0.961 . S
C919 C916 1.539 . S
C919 H933 0.958 . S
C919 H934 0.961 . S
C919 H935 0.960 . S
H920 C904 0.931 . S
H921 C909 0.929 . S
H922 C910 0.960 . S
H923 C910 0.962 1_455 S
H924 C910 0.960 . S
H925 C911 0.961 . S
H926 C911 0.961 . S
H927 C911 0.961 . S
H928 C912 0.931 . S
H929 C917 0.930 . S
H930 C918 0.956 . S
H931 C918 0.961 . S
H932 C918 0.961 . S
H933 C919 0.958 . S
H934 C919 0.961 . S
H935 C919 0.960 . S
C936 C937 1.393 . S
C936 C938 1.394 . S
C936 H952 0.931 . S
C937 C936 1.393 . S
C937 C941 1.374 1_545 S
C938 C936 1.394 . S
C938 C939 1.373 . S
C938 C942 1.531 . S
C939 C938 1.373 . S
C939 C940 1.406 1_545 S
C939 C947 1.501 1_545 S
C940 C939 1.406 1_565 S
C940 C941 1.392 . S
C940 C943 1.511 . S
C941 C937 1.374 1_565 S
C941 C940 1.392 . S
C941 H953 0.929 . S
C942 C938 1.531 . S
C942 H954 0.960 . S
C942 H955 0.962 1_545 S
C942 H956 0.960 . S
C943 C940 1.511 . S
C943 H957 0.961 . S
C943 H958 0.961 . S
C943 H959 0.961 1_565 S
C944 C945 1.370 . S
C944 C946 1.363 . S
C944 H960 0.931 . S
C945 C944 1.370 . S
C945 C949 1.408 1_565 S
C946 C944 1.363 . S
C946 C947 1.370 . S
C946 C950 1.524 . S
C947 C939 1.501 1_565 S
C947 C946 1.370 . S
C947 C948 1.403 1_565 S
C948 C947 1.403 1_545 S
C948 C949 1.404 . S
C948 C951 1.539 . S
C949 C945 1.408 1_545 S
C949 C948 1.404 . S
C949 H961 0.930 . S
C950 C946 1.524 . S
C950 H962 0.956 . S
C950 H963 0.961 . S
C950 H964 0.961 . S
C951 C948 1.539 . S
C951 H965 0.958 . S
C951 H966 0.961 . S
C951 H967 0.960 . S
H952 C936 0.931 . S
H953 C941 0.929 . S
H954 C942 0.960 . S
H955 C942 0.962 1_565 S
H956 C942 0.960 . S
H957 C943 0.961 . S
H958 C943 0.961 . S
H959 C943 0.961 1_545 S
H960 C944 0.931 . S
H961 C949 0.930 . S
H962 C950 0.956 . S
H963 C950 0.961 . S
H964 C950 0.961 . S
H965 C951 0.958 . S
H966 C951 0.961 . S
H967 C951 0.960 . S
C968 C969 1.391 . S
C968 C970 1.394 . S
C968 H984 0.931 . S
C969 C968 1.391 . S
C969 C973 1.376 . S
C970 C968 1.394 . S
C970 C971 1.369 . S
C970 C974 1.531 . S
C971 C970 1.369 . S
C971 C972 1.410 . S
C971 C979 1.503 . S
C972 C971 1.410 . S
C972 C973 1.392 . S
C972 C975 1.511 . S
C973 C969 1.376 . S
C973 C972 1.392 . S
C973 H985 0.929 . S
C974 C970 1.531 . S
C974 H986 0.960 . S
C974 H987 0.962 . S
C974 H988 0.960 . S
C975 C972 1.511 . S
C975 H989 0.961 . S
C975 H990 0.961 . S
C975 H991 0.961 . S
C976 C977 1.370 . S
C976 C978 1.363 . S
C976 H992 0.931 . S
C977 C976 1.370 . S
C977 C981 1.408 . S
C978 C976 1.363 . S
C978 C979 1.370 . S
C978 C982 1.524 . S
C979 C971 1.503 . S
C979 C978 1.370 . S
C979 C980 1.403 . S
C980 C979 1.403 . S
C980 C981 1.404 . S
C980 C983 1.539 . S
C981 C977 1.408 . S
C981 C980 1.404 . S
C981 H993 0.930 . S
C982 C978 1.524 . S
C982 H994 0.956 . S
C982 H995 0.961 . S
C982 H996 0.961 . S
C983 C980 1.539 . S
C983 H997 0.958 . S
C983 H998 0.961 . S
C983 H999 0.960 . S
H984 C968 0.931 . S
H985 C973 0.929 . S
H986 C974 0.960 . S
H987 C974 0.962 . S
H988 C974 0.960 . S
H989 C975 0.961 . S
H990 C975 0.961 . S
H991 C975 0.961 . S
H992 C976 0.931 . S
H993 C981 0.930 . S
H994 C982 0.956 . S
H995 C982 0.961 . S
H996 C982 0.961 . S
H997 C983 0.958 . S
H998 C983 0.961 . S
H999 C983 0.960 . S
C1000 C1001 1.391 . S
C1000 C1002 1.394 . S
C1000 H1016 0.931 . S
C1001 C1000 1.391 . S
C1001 C1005 1.376 . S
C1002 C1000 1.394 . S
C1002 C1003 1.369 . S
C1002 C1006 1.531 . S
C1003 C1002 1.369 . S
C1003 C1004 1.410 . S
C1003 C1011 1.503 . S
C1004 C1003 1.410 . S
C1004 C1005 1.392 . S
C1004 C1007 1.511 . S
C1005 C1001 1.376 . S
C1005 C1004 1.392 . S
C1005 H1017 0.929 . S
C1006 C1002 1.531 . S
C1006 H1018 0.960 . S
C1006 H1019 0.962 . S
C1006 H1020 0.960 . S
C1007 C1004 1.511 . S
C1007 H1021 0.961 . S
C1007 H1022 0.961 . S
C1007 H1023 0.961 . S
C1008 C1009 1.370 . S
C1008 C1010 1.363 . S
C1008 H1024 0.931 . S
C1009 C1008 1.370 . S
C1009 C1013 1.408 . S
C1010 C1008 1.363 . S
C1010 C1011 1.370 . S
C1010 C1014 1.524 . S
C1011 C1003 1.503 . S
C1011 C1010 1.370 . S
C1011 C1012 1.403 . S
C1012 C1011 1.403 . S
C1012 C1013 1.404 . S
C1012 C1015 1.539 . S
C1013 C1009 1.408 . S
C1013 C1012 1.404 . S
C1013 H1025 0.930 . S
C1014 C1010 1.524 . S
C1014 H1026 0.956 . S
C1014 H1027 0.961 . S
C1014 H1028 0.961 . S
C1015 C1012 1.539 . S
C1015 H1029 0.958 . S
C1015 H1030 0.961 . S
C1015 H1031 0.960 . S
H1016 C1000 0.931 . S
H1017 C1005 0.929 . S
H1018 C1006 0.960 . S
H1019 C1006 0.962 . S
H1020 C1006 0.960 . S
H1021 C1007 0.961 . S
H1022 C1007 0.961 . S
H1023 C1007 0.961 . S
H1024 C1008 0.931 . S
H1025 C1013 0.930 . S
H1026 C1014 0.956 . S
H1027 C1014 0.961 . S
H1028 C1014 0.961 . S
H1029 C1015 0.958 . S
H1030 C1015 0.961 . S
H1031 C1015 0.960 . S
C265 C82 1.669 1_565 S
C273 C114 1.938 1_545 S
C305 C154 1.951 . S
C297 C95 1.626 . S
C337 C194 1.950 . S
C329 C56 1.687 . S
C369 C234 1.944 1_455 S
C361 C69 1.702 1_655 S
C401 C123 1.944 1_565 S
C393 C30 1.663 . S
C425 C43 1.713 . S
C433 C163 1.955 . S
C457 C4 1.678 . S
C465 C203 1.957 . S
C489 C17 1.720 1_655 S
C497 C243 1.952 1_655 S
C529 C120 0.497 . S
C521 C74 0.609 . S
C561 C160 0.501 . S
C553 C87 0.497 . S
C593 C200 0.550 . S
C585 C100 0.517 . S
C617 C61 0.507 . S
C625 C240 0.544 . S
C649 C22 0.535 . S
C657 C111 0.537 . S
C689 C151 0.544 . S
C681 C35 0.449 1_565 S
C721 C191 0.495 . S
C713 C48 0.616 . S
C745 C9 0.532 . S
C753 C231 0.544 . S
C777 C73 1.986 . S
C785 C115 2.257 . S
C809 C86 1.980 . S
C817 C155 2.249 . S
C849 C195 2.253 . S
C841 C99 2.036 . S
C881 C235 2.263 . S
C873 C60 1.984 . S
C905 C21 2.025 1_655 S
C913 C106 2.277 . S
C945 C146 2.247 . S
C937 C34 2.007 . S
C977 C186 2.251 . S
C969 C47 1.974 . S
C1001 C8 1.991 . S
C1009 C226 2.261 . S
