# Generated by pormake.
# Topology pto, (3,4)-cn, num edge types: 1
# Building blocks:
#     Node 0, Type 0, BuildingBlock: MIDCAF_clean_linker_0, # of connection points: 3
#     Node 1, Type 0, BuildingBlock: MIDCAF_clean_linker_0, # of connection points: 3
#     Node 2, Type 0, BuildingBlock: MIDCAF_clean_linker_0, # of connection points: 3
#     Node 3, Type 0, BuildingBlock: MIDCAF_clean_linker_0, # of connection points: 3
#     Node 4, Type 0, BuildingBlock: MIDCAF_clean_linker_0, # of connection points: 3
#     Node 5, Type 0, BuildingBlock: MIDCAF_clean_linker_0, # of connection points: 3
#     Node 6, Type 0, BuildingBlock: MIDCAF_clean_linker_0, # of connection points: 3
#     Node 7, Type 0, BuildingBlock: MIDCAF_clean_linker_0, # of connection points: 3
#     Node 8, Type 1, BuildingBlock: NAWXER_clean_sbu_0, # of connection points: 4
#     Node 9, Type 1, BuildingBlock: NAWXER_clean_sbu_0, # of connection points: 4
#     Node 10, Type 1, BuildingBlock: NAWXER_clean_sbu_0, # of connection points: 4
#     Node 11, Type 1, BuildingBlock: NAWXER_clean_sbu_0, # of connection points: 4
#     Node 12, Type 1, BuildingBlock: NAWXER_clean_sbu_0, # of connection points: 4
#     Node 13, Type 1, BuildingBlock: NAWXER_clean_sbu_0, # of connection points: 4
#     Edge 14, Type (0, 1), BuildingBlock: MIFKUJ_clean_linker_0, # of connection points: 2
#     Edge 15, Type (0, 1), BuildingBlock: MIFKUJ_clean_linker_0, # of connection points: 2
#     Edge 16, Type (0, 1), BuildingBlock: MIFKUJ_clean_linker_0, # of connection points: 2
#     Edge 17, Type (0, 1), BuildingBlock: MIFKUJ_clean_linker_0, # of connection points: 2
#     Edge 18, Type (0, 1), BuildingBlock: MIFKUJ_clean_linker_0, # of connection points: 2
#     Edge 19, Type (0, 1), BuildingBlock: MIFKUJ_clean_linker_0, # of connection points: 2
#     Edge 20, Type (0, 1), BuildingBlock: MIFKUJ_clean_linker_0, # of connection points: 2
#     Edge 21, Type (0, 1), BuildingBlock: MIFKUJ_clean_linker_0, # of connection points: 2
#     Edge 22, Type (0, 1), BuildingBlock: MIFKUJ_clean_linker_0, # of connection points: 2
#     Edge 23, Type (0, 1), BuildingBlock: MIFKUJ_clean_linker_0, # of connection points: 2
#     Edge 24, Type (0, 1), BuildingBlock: MIFKUJ_clean_linker_0, # of connection points: 2
#     Edge 25, Type (0, 1), BuildingBlock: MIFKUJ_clean_linker_0, # of connection points: 2
#     Edge 26, Type (0, 1), BuildingBlock: MIFKUJ_clean_linker_0, # of connection points: 2
#     Edge 27, Type (0, 1), BuildingBlock: MIFKUJ_clean_linker_0, # of connection points: 2
#     Edge 28, Type (0, 1), BuildingBlock: MIFKUJ_clean_linker_0, # of connection points: 2
#     Edge 29, Type (0, 1), BuildingBlock: MIFKUJ_clean_linker_0, # of connection points: 2
#     Edge 30, Type (0, 1), BuildingBlock: MIFKUJ_clean_linker_0, # of connection points: 2
#     Edge 31, Type (0, 1), BuildingBlock: MIFKUJ_clean_linker_0, # of connection points: 2
#     Edge 32, Type (0, 1), BuildingBlock: MIFKUJ_clean_linker_0, # of connection points: 2
#     Edge 33, Type (0, 1), BuildingBlock: MIFKUJ_clean_linker_0, # of connection points: 2
#     Edge 34, Type (0, 1), BuildingBlock: MIFKUJ_clean_linker_0, # of connection points: 2
#     Edge 35, Type (0, 1), BuildingBlock: MIFKUJ_clean_linker_0, # of connection points: 2
#     Edge 36, Type (0, 1), BuildingBlock: MIFKUJ_clean_linker_0, # of connection points: 2
#     Edge 37, Type (0, 1), BuildingBlock: MIFKUJ_clean_linker_0, # of connection points: 2
# Relax obj value: 0.000
# Max RMSD: 0.002
# Mean RMSD: 0.001
data_MOF--net-pto--node1-NAWXER_clean_sbu_0--node2-MIDCAF_clean_linker_0--edge1-MIFKUJ_clean_linker_0
_symmetry_space_group_name_H-M    P1
_symmetry_Int_Tables_number       1
_symmetry_cell_setting            triclinic
loop_
_symmetry_equiv_pos_as_xyz
'x, y, z'
_cell_length_a     67.443871
_cell_length_b     63.26381
_cell_length_c     59.071515
_cell_angle_alpha  89.725154
_cell_angle_beta   90.078341
_cell_angle_gamma 90.183035
loop_
_atom_site_label
_atom_site_type_symbol
_atom_site_fract_x
_atom_site_fract_y
_atom_site_fract_z
_atom_type_partial_charge
C0 C 0.31818 0.26956 0.20535 0.0
C1 C 0.31788 0.28624 0.18953 0.0
C2 C 0.30116 0.29941 0.18861 0.0
C3 C 0.28508 0.29594 0.20306 0.0
H4 H 0.23259 0.32116 0.22106 0.0
H5 H 0.20366 0.34335 0.21594 0.0
H6 H 0.1701 0.3026 0.26068 0.0
H7 H 0.19934 0.28054 0.26633 0.0
H8 H 0.23322 0.25328 0.30419 0.0
H9 H 0.23523 0.22451 0.33211 0.0
H10 H 0.27503 0.19065 0.28829 0.0
H11 H 0.27348 0.21947 0.26065 0.0
H12 H 0.30279 0.25299 0.23169 0.0
H13 H 0.33074 0.25897 0.20632 0.0
H14 H 0.30056 0.31258 0.17685 0.0
H15 H 0.27249 0.30647 0.20182 0.0
N16 N 0.25193 0.28819 0.23273 0.0
N17 N 0.23651 0.26911 0.262 0.0
N18 N 0.26827 0.25949 0.24944 0.0
C19 C 0.23605 0.28513 0.24651 0.0
C20 C 0.2526 0.25622 0.26351 0.0
C21 C 0.26809 0.27552 0.23406 0.0
C22 C 0.21836 0.29894 0.24409 0.0
C23 C 0.21909 0.31686 0.22988 0.0
C24 C 0.2024 0.32957 0.22679 0.0
C25 C 0.18444 0.32471 0.23771 0.0
C26 C 0.18373 0.30694 0.25215 0.0
C27 C 0.2005 0.29423 0.25533 0.0
C28 C 0.2532 0.23866 0.28022 0.0
C29 C 0.24236 0.23968 0.30051 0.0
C30 C 0.24358 0.22331 0.31652 0.0
C31 C 0.25528 0.20542 0.31229 0.0
C32 C 0.26585 0.20425 0.29189 0.0
C33 C 0.265 0.22079 0.27614 0.0
C34 C 0.28529 0.27919 0.21882 0.0
C35 C 0.30207 0.26607 0.21982 0.0
C36 C 0.20062 0.68428 0.77569 0.0
C37 C 0.18509 0.68586 0.75992 0.0
C38 C 0.18686 0.70051 0.74202 0.0
C39 C 0.20373 0.71338 0.74007 0.0
H40 H 0.23665 0.75618 0.69601 0.0
H41 H 0.23946 0.78457 0.66779 0.0
H42 H 0.27853 0.81896 0.71236 0.0
H43 H 0.27617 0.79046 0.74036 0.0
H44 H 0.30237 0.75908 0.77453 0.0
H45 H 0.32954 0.75259 0.80087 0.0
H46 H 0.30064 0.69528 0.82365 0.0
H47 H 0.27329 0.702 0.79788 0.0
H48 H 0.22909 0.69526 0.78624 0.0
H49 H 0.19989 0.67295 0.78947 0.0
H50 H 0.17507 0.70222 0.72968 0.0
H51 H 0.20455 0.72455 0.72616 0.0
N52 N 0.23853 0.74108 0.73837 0.0
N53 N 0.2699 0.7507 0.75241 0.0
N54 N 0.25251 0.72246 0.76884 0.0
C55 C 0.25482 0.75383 0.73745 0.0
C56 C 0.26891 0.73493 0.76807 0.0
C57 C 0.23722 0.72541 0.75419 0.0
C58 C 0.2562 0.77106 0.72042 0.0
C59 C 0.24584 0.76979 0.69978 0.0
C60 C 0.24751 0.78595 0.6836 0.0
C61 C 0.2592 0.8039 0.68796 0.0
C62 C 0.26937 0.8053 0.70865 0.0
C63 C 0.26807 0.78895 0.72461 0.0
C64 C 0.28556 0.73111 0.78405 0.0
C65 C 0.30178 0.7451 0.78517 0.0
C66 C 0.31744 0.74131 0.8002 0.0
C67 C 0.31731 0.7234 0.81442 0.0
C68 C 0.30111 0.70941 0.81324 0.0
C69 C 0.28543 0.71324 0.79832 0.0
C70 C 0.21927 0.71178 0.7559 0.0
C71 C 0.21748 0.69702 0.7737 0.0
C72 C 0.70235 0.70915 0.19287 0.0
C73 C 0.68534 0.72178 0.19486 0.0
C74 C 0.68502 0.73762 0.21146 0.0
C75 C 0.70136 0.74086 0.22563 0.0
H76 H 0.7222 0.77982 0.27483 0.0
H77 H 0.72097 0.80774 0.30284 0.0
H78 H 0.7781 0.7884 0.32864 0.0
H79 H 0.77961 0.76068 0.30017 0.0
H80 H 0.8046 0.72612 0.27134 0.0
H81 H 0.83392 0.70425 0.2658 0.0
H82 H 0.80251 0.66795 0.21535 0.0
H83 H 0.77348 0.68994 0.22043 0.0
H84 H 0.73159 0.70244 0.20484 0.0
H85 H 0.70319 0.69698 0.18007 0.0
H86 H 0.67205 0.74745 0.21365 0.0
H87 H 0.70055 0.75324 0.23819 0.0
N88 N 0.73571 0.7474 0.25427 0.0
N89 N 0.76815 0.73872 0.26527 0.0
N90 N 0.75249 0.72 0.23604 0.0
C91 C 0.75169 0.7509 0.26783 0.0
C92 C 0.76866 0.72322 0.24936 0.0
C93 C 0.73596 0.73198 0.23835 0.0
C94 C 0.75102 0.7679 0.28514 0.0
C95 C 0.73454 0.78144 0.28644 0.0
C96 C 0.73376 0.79743 0.30265 0.0
C97 C 0.74939 0.80034 0.31811 0.0
C98 C 0.76589 0.78682 0.31684 0.0
C99 C 0.76671 0.77082 0.30055 0.0
C100 C 0.7866 0.70989 0.24633 0.0
C101 C 0.80393 0.7135 0.25904 0.0
C102 C 0.82074 0.70088 0.25594 0.0
C103 C 0.82063 0.68435 0.24007 0.0
C104 C 0.80329 0.68075 0.22743 0.0
C105 C 0.78653 0.69334 0.23049 0.0
C106 C 0.71846 0.72835 0.22354 0.0
C107 C 0.71871 0.71239 0.20702 0.0
C108 C 0.76725 0.21349 0.69437 0.0
C109 C 0.74922 0.20284 0.69035 0.0
C110 C 0.73225 0.20938 0.70219 0.0
C111 C 0.7333 0.22586 0.71781 0.0
H112 H 0.70841 0.24464 0.78163 0.0
H113 H 0.68077 0.25075 0.80721 0.0
H114 H 0.69843 0.31629 0.81328 0.0
H115 H 0.72665 0.30975 0.78881 0.0
H116 H 0.78133 0.30239 0.79471 0.0
H117 H 0.80955 0.32578 0.79946 0.0
H118 H 0.82572 0.31618 0.72944 0.0
H119 H 0.79785 0.29176 0.72511 0.0
H120 H 0.78243 0.2378 0.71274 0.0
H121 H 0.78068 0.20875 0.68579 0.0
H122 H 0.71803 0.20189 0.69924 0.0
H123 H 0.71986 0.23034 0.72655 0.0
N124 N 0.73653 0.25716 0.75281 0.0
N125 N 0.7535 0.285 0.77028 0.0
N126 N 0.76875 0.26612 0.74097 0.0
C127 C 0.73701 0.27282 0.76842 0.0
C128 C 0.76944 0.28176 0.75674 0.0
C129 C 0.75228 0.2537 0.73895 0.0
C130 C 0.71977 0.27667 0.7833 0.0
C131 C 0.70634 0.26034 0.78846 0.0
C132 C 0.69039 0.26392 0.80304 0.0
C133 C 0.68723 0.28405 0.81246 0.0
C134 C 0.70053 0.30046 0.80687 0.0
C135 C 0.7167 0.29675 0.79268 0.0
C136 C 0.78727 0.2953 0.75948 0.0
C137 C 0.79094 0.3052 0.78032 0.0
C138 C 0.80711 0.31879 0.78299 0.0
C139 C 0.8199 0.32324 0.76477 0.0
C140 C 0.81639 0.31302 0.74397 0.0
C141 C 0.80035 0.29907 0.74142 0.0
C142 C 0.75133 0.23643 0.72197 0.0
C143 C 0.76828 0.23011 0.70994 0.0
C144 C 0.69437 0.7497 0.79637 0.0
C145 C 0.69368 0.73564 0.81482 0.0
C146 C 0.70965 0.72179 0.8184 0.0
C147 C 0.72602 0.72206 0.80386 0.0
H148 H 0.76923 0.68085 0.76774 0.0
H149 H 0.7936 0.65234 0.76392 0.0
H150 H 0.83717 0.69762 0.74077 0.0
H151 H 0.81308 0.72588 0.74439 0.0
H152 H 0.79615 0.7651 0.71743 0.0
H153 H 0.80118 0.79517 0.69234 0.0
H154 H 0.7448 0.8209 0.71291 0.0
H155 H 0.7395 0.79057 0.73783 0.0
H156 H 0.71093 0.76138 0.7681 0.0
H157 H 0.68235 0.76066 0.79329 0.0
H158 H 0.70943 0.71067 0.8324 0.0
H159 H 0.73814 0.71128 0.80716 0.0
N160 N 0.75804 0.72149 0.77045 0.0
N161 N 0.7773 0.74043 0.74422 0.0
N162 N 0.74767 0.75488 0.75752 0.0
C163 C 0.77446 0.7229 0.75716 0.0
C164 C 0.76402 0.75646 0.74422 0.0
C165 C 0.74459 0.73752 0.77076 0.0
C166 C 0.7892 0.70562 0.75633 0.0
C167 C 0.78406 0.68469 0.76202 0.0
C168 C 0.79794 0.66838 0.7597 0.0
C169 C 0.81726 0.67281 0.7521 0.0
C170 C 0.82245 0.69377 0.74688 0.0
C171 C 0.80858 0.70995 0.74884 0.0
C172 C 0.76735 0.77529 0.72962 0.0
C173 C 0.7848 0.77715 0.71671 0.0
C174 C 0.78778 0.7945 0.70242 0.0
C175 C 0.77339 0.81043 0.70062 0.0
C176 C 0.75607 0.80876 0.71373 0.0
C177 C 0.75308 0.79141 0.7281 0.0
C178 C 0.72689 0.73641 0.78561 0.0
C179 C 0.71082 0.75017 0.78202 0.0
C180 C 0.7848 0.20848 0.30532 0.0
C181 C 0.77073 0.19213 0.30664 0.0
C182 C 0.75373 0.19314 0.29289 0.0
C183 C 0.7508 0.21027 0.27822 0.0
H184 H 0.72397 0.22813 0.21628 0.0
H185 H 0.69667 0.22754 0.18942 0.0
H186 H 0.69864 0.29576 0.18508 0.0
H187 H 0.72655 0.29624 0.21127 0.0
H188 H 0.78138 0.30923 0.21906 0.0
H189 H 0.80591 0.33743 0.22313 0.0
H190 H 0.81258 0.32144 0.29401 0.0
H191 H 0.78897 0.29272 0.28954 0.0
H192 H 0.79289 0.2381 0.29046 0.0
H193 H 0.79794 0.20824 0.31589 0.0
H194 H 0.74272 0.18065 0.29344 0.0
H195 H 0.73749 0.21063 0.26795 0.0
N196 N 0.74681 0.24538 0.24645 0.0
N197 N 0.75563 0.27985 0.23523 0.0
N198 N 0.77297 0.26288 0.26455 0.0
C199 C 0.74379 0.2625 0.23287 0.0
C200 C 0.77024 0.28009 0.25114 0.0
C201 C 0.76141 0.24545 0.26231 0.0
C202 C 0.72747 0.26224 0.21599 0.0
C203 C 0.71864 0.24302 0.20955 0.0
C204 C 0.70285 0.24269 0.19422 0.0
C205 C 0.69527 0.2616 0.1851 0.0
C206 C 0.70422 0.28083 0.19143 0.0
C207 C 0.7202 0.28114 0.20657 0.0
C208 C 0.78342 0.29864 0.2539 0.0
C209 C 0.78802 0.3119 0.23552 0.0
C210 C 0.80203 0.32813 0.23792 0.0
C211 C 0.81148 0.33165 0.25887 0.0
C212 C 0.80611 0.31889 0.27746 0.0
C213 C 0.79243 0.30248 0.27494 0.0
C214 C 0.76472 0.22685 0.27719 0.0
C215 C 0.7818 0.22568 0.29084 0.0
C216 C 0.25824 0.19722 0.70578 0.0
C217 C 0.23957 0.1925 0.69635 0.0
C218 C 0.22316 0.20474 0.70281 0.0
C219 C 0.22545 0.22154 0.71783 0.0
H220 H 0.19884 0.27587 0.73493 0.0
H221 H 0.17367 0.30309 0.7331 0.0
H222 H 0.21063 0.34443 0.77311 0.0
H223 H 0.23621 0.31705 0.77489 0.0
H224 H 0.27888 0.29716 0.7939 0.0
H225 H 0.30663 0.29796 0.82061 0.0
H226 H 0.31621 0.23131 0.8101 0.0
H227 H 0.28868 0.2304 0.78343 0.0
H228 H 0.27509 0.21723 0.7278 0.0
H229 H 0.27129 0.18839 0.70097 0.0
H230 H 0.20848 0.20132 0.69634 0.0
H231 H 0.2125 0.2307 0.72229 0.0
N232 N 0.23292 0.2603 0.74219 0.0
N233 N 0.25083 0.27868 0.76993 0.0
N234 N 0.26231 0.24598 0.75659 0.0
C235 C 0.23492 0.27741 0.75578 0.0
C236 C 0.26454 0.2629 0.7705 0.0
C237 C 0.24653 0.24461 0.74238 0.0
C238 C 0.21962 0.29422 0.75509 0.0
C239 C 0.20174 0.29072 0.74338 0.0
C240 C 0.18719 0.30629 0.74242 0.0
C241 C 0.19013 0.32584 0.75304 0.0
C242 C 0.20803 0.32952 0.76465 0.0
C243 C 0.2226 0.3138 0.76578 0.0
C244 C 0.28151 0.26372 0.78649 0.0
C245 C 0.2869 0.28268 0.79727 0.0
C246 C 0.30284 0.28318 0.81248 0.0
C247 C 0.31351 0.26468 0.81748 0.0
C248 C 0.30813 0.24576 0.80674 0.0
C249 C 0.29241 0.2453 0.79133 0.0
C250 C 0.24413 0.22633 0.72708 0.0
C251 C 0.26047 0.21384 0.7211 0.0
C252 C 0.20975 0.67247 0.23745 0.0
C253 C 0.19214 0.6759 0.24962 0.0
C254 C 0.18936 0.69546 0.26025 0.0
C255 C 0.20384 0.71119 0.25893 0.0
H256 H 0.21564 0.77067 0.28105 0.0
H257 H 0.2118 0.80029 0.30664 0.0
H258 H 0.27486 0.81245 0.30311 0.0
H259 H 0.27852 0.78333 0.27663 0.0
H260 H 0.30326 0.75789 0.2377 0.0
H261 H 0.33079 0.75859 0.21096 0.0
H262 H 0.29762 0.7187 0.16542 0.0
H263 H 0.27001 0.71776 0.19229 0.0
H264 H 0.23772 0.68518 0.22661 0.0
H265 H 0.21223 0.65759 0.22893 0.0
H266 H 0.17608 0.69852 0.26998 0.0
H267 H 0.20112 0.72598 0.26752 0.0
N268 N 0.23548 0.74123 0.26067 0.0
N269 N 0.26553 0.75503 0.24737 0.0
N270 N 0.25299 0.72329 0.23242 0.0
C271 C 0.24959 0.75651 0.26126 0.0
C272 C 0.26729 0.73856 0.23279 0.0
C273 C 0.23706 0.72451 0.24648 0.0
C274 C 0.2474 0.77461 0.27682 0.0
C275 C 0.2287 0.77967 0.28571 0.0
C276 C 0.22651 0.79661 0.30053 0.0
C277 C 0.24302 0.80877 0.30711 0.0
C278 C 0.26174 0.80369 0.29817 0.0
C279 C 0.26389 0.7869 0.28307 0.0
C280 C 0.2844 0.7378 0.21711 0.0
C281 C 0.30184 0.74915 0.22205 0.0
C282 C 0.31766 0.74947 0.20681 0.0
C283 C 0.3163 0.73875 0.18612 0.0
C284 C 0.29898 0.72721 0.18121 0.0
C285 C 0.28325 0.72658 0.19665 0.0
C286 C 0.22152 0.70783 0.24687 0.0
C287 C 0.22427 0.68833 0.23599 0.0
C288 C 0.97379 0.47933 0.26267 0.0
C289 C 0.0311 0.52699 0.26049 0.0
O290 O 0.9837 0.4858 0.27964 0.0
Zn291 Zn 0.00272 0.50275 0.26266 0.0
O292 O 0.97907 0.4847 0.24262 0.0
Zn293 Zn 0.00149 0.50316 0.22628 0.0
O294 O 0.01679 0.48224 0.20951 0.0
O295 O 0.01996 0.47907 0.24651 0.0
O296 O 0.02427 0.52213 0.24093 0.0
O297 O 0.023 0.51926 0.27814 0.0
O298 O 0.98425 0.52676 0.24795 0.0
O299 O 0.98542 0.52419 0.21071 0.0
C300 C 0.02427 0.47279 0.22654 0.0
C301 C 0.97882 0.53331 0.22832 0.0
C302 C 0.97821 0.47537 0.77404 0.0
C303 C 0.02705 0.53288 0.76962 0.0
O304 O 0.98473 0.48637 0.79043 0.0
Zn305 Zn 0.00247 0.50443 0.77279 0.0
O306 O 0.98417 0.47934 0.75388 0.0
Zn307 Zn 0.00327 0.50104 0.73671 0.0
O308 O 0.02234 0.4823 0.72284 0.0
O309 O 0.02415 0.48278 0.76016 0.0
O310 O 0.02228 0.52515 0.75032 0.0
O311 O 0.01904 0.5255 0.78749 0.0
O312 O 0.98214 0.5238 0.75456 0.0
O313 O 0.9846 0.51683 0.71806 0.0
C314 C 0.03035 0.47581 0.74109 0.0
C315 C 0.97658 0.52703 0.7341 0.0
C316 C 0.2639 0.97511 0.527 0.0
C317 C 0.26322 0.03224 0.47073 0.0
O318 O 0.24638 0.9812 0.52171 0.0
Zn319 Zn 0.23258 0.00313 0.49876 0.0
O320 O 0.27886 0.98347 0.51736 0.0
Zn321 Zn 0.26425 0.00364 0.49884 0.0
O322 O 0.25036 0.02329 0.52353 0.0
O323 O 0.21788 0.02129 0.51895 0.0
O324 O 0.27835 0.02436 0.48042 0.0
O325 O 0.24585 0.02553 0.47591 0.0
O326 O 0.21835 0.98443 0.47856 0.0
O327 O 0.25087 0.9834 0.4742 0.0
C328 C 0.23282 0.02878 0.52937 0.0
C329 C 0.23347 0.97731 0.46832 0.0
C330 C 0.52742 0.70947 0.03204 0.0
C331 C 0.47732 0.70497 0.97236 0.0
O332 O 0.51934 0.6928 0.0243 0.0
Zn333 Zn 0.50217 0.7066 0.00251 0.0
O334 O 0.52242 0.72755 0.02395 0.0
Zn335 Zn 0.50281 0.74012 0.99853 0.0
O336 O 0.48443 0.75744 0.01569 0.0
O337 O 0.48235 0.72344 0.02408 0.0
O338 O 0.48335 0.72389 0.9759 0.0
O339 O 0.48394 0.68984 0.98438 0.0
O340 O 0.52315 0.71854 0.97807 0.0
O341 O 0.52134 0.7534 0.97787 0.0
C342 C 0.47682 0.74253 0.0273 0.0
C343 C 0.52908 0.7365 0.9704 0.0
C344 C 0.78003 0.97648 0.53547 0.0
C345 C 0.77926 0.02829 0.47402 0.0
O346 O 0.76253 0.9813 0.52881 0.0
Zn347 Zn 0.74857 0.00155 0.50474 0.0
O348 O 0.79493 0.98543 0.52633 0.0
Zn349 Zn 0.78023 0.0026 0.50476 0.0
O350 O 0.76612 0.0258 0.5257 0.0
O351 O 0.73376 0.0207 0.52399 0.0
O352 O 0.79445 0.02023 0.48343 0.0
O353 O 0.76186 0.02263 0.48047 0.0
O354 O 0.73471 0.98133 0.48563 0.0
O355 O 0.76725 0.97937 0.48284 0.0
C356 C 0.74852 0.031 0.53163 0.0
C357 C 0.74998 0.97278 0.47704 0.0
C358 C 0.5294 0.26987 0.03119 0.0
C359 C 0.4759 0.27004 0.97518 0.0
O360 O 0.52003 0.25391 0.02362 0.0
Zn361 Zn 0.50213 0.26934 0.00387 0.0
O362 O 0.52449 0.28849 0.02461 0.0
Zn363 Zn 0.50336 0.30299 0.00222 0.0
O364 O 0.48642 0.31947 0.02198 0.0
O365 O 0.48359 0.28505 0.02763 0.0
O366 O 0.48239 0.28859 0.97978 0.0
O367 O 0.48291 0.2541 0.98562 0.0
O368 O 0.52197 0.28248 0.97881 0.0
O369 O 0.52088 0.31733 0.98133 0.0
C370 C 0.47879 0.304 0.03268 0.0
C371 C 0.52779 0.3008 0.97208 0.0
H372 H 0.1566 0.33695 0.26886 0.0
H373 H 0.12786 0.35972 0.26277 0.0
H374 H 0.1433 0.36624 0.19226 0.0
H375 H 0.17188 0.34318 0.19809 0.0
H376 H 0.13453 0.40422 0.21106 0.0
H377 H 0.10449 0.33585 0.20726 0.0
H378 H 0.09682 0.29958 0.22003 0.0
H379 H 0.06991 0.32389 0.28033 0.0
H380 H 0.07767 0.36031 0.26808 0.0
H381 H 0.0443 0.46017 0.18826 0.0
H382 H 0.07 0.4328 0.18584 0.0
H383 H 0.06217 0.41859 0.25677 0.0
H384 H 0.03662 0.44553 0.25926 0.0
H385 H 0.06627 0.38291 0.23275 0.0
H386 H 0.09956 0.45041 0.23893 0.0
H387 H 0.10771 0.48688 0.22721 0.0
H388 H 0.12879 0.46423 0.16322 0.0
H389 H 0.1205 0.42763 0.17447 0.0
C390 C 0.15375 0.34295 0.25197 0.0
C391 C 0.16661 0.33819 0.23398 0.0
C392 C 0.13732 0.35603 0.24852 0.0
C393 C 0.13333 0.36458 0.227 0.0
C394 C 0.14611 0.35988 0.20901 0.0
C395 C 0.1625 0.34675 0.21242 0.0
C396 C 0.1161 0.37883 0.22347 0.0
C397 C 0.11954 0.39943 0.21539 0.0
C398 C 0.09659 0.3727 0.22943 0.0
C399 C 0.0918 0.35082 0.23682 0.0
C400 C 0.09707 0.33346 0.22332 0.0
C401 C 0.09268 0.31287 0.23045 0.0
C402 C 0.08292 0.30943 0.251 0.0
C403 C 0.07748 0.32658 0.26443 0.0
C404 C 0.08185 0.3472 0.25739 0.0
C405 C 0.04791 0.45101 0.20323 0.0
C406 C 0.03851 0.45514 0.22398 0.0
C407 C 0.06265 0.43546 0.20187 0.0
C408 C 0.06815 0.42378 0.2212 0.0
C409 C 0.05821 0.42737 0.24164 0.0
C410 C 0.04364 0.44289 0.24304 0.0
C411 C 0.08476 0.40839 0.22072 0.0
C412 C 0.08121 0.38759 0.22808 0.0
C413 C 0.10419 0.41435 0.21419 0.0
C414 C 0.10918 0.43633 0.20742 0.0
C415 C 0.10577 0.45323 0.22228 0.0
C416 C 0.11044 0.47392 0.21574 0.0
C417 C 0.1187 0.47788 0.19445 0.0
C418 C 0.12235 0.46115 0.17968 0.0
C419 C 0.11767 0.44043 0.18613 0.0
H420 H 0.12231 0.49391 0.18942 0.0
H421 H 0.07954 0.29348 0.25649 0.0
H422 H 0.16543 0.66458 0.72639 0.0
H423 H 0.13704 0.64073 0.73032 0.0
H424 H 0.13613 0.65189 0.8023 0.0
H425 H 0.1646 0.6757 0.79848 0.0
H426 H 0.13252 0.61085 0.79394 0.0
H427 H 0.10098 0.67372 0.76693 0.0
H428 H 0.0958 0.70421 0.74145 0.0
H429 H 0.08546 0.66221 0.68576 0.0
H430 H 0.09085 0.63146 0.71083 0.0
H431 H 0.0406 0.55463 0.80693 0.0
H432 H 0.06582 0.58267 0.80772 0.0
H433 H 0.07282 0.57758 0.73537 0.0
H434 H 0.04758 0.55007 0.73436 0.0
H435 H 0.07174 0.61775 0.74715 0.0
H436 H 0.10614 0.55523 0.7733 0.0
H437 H 0.11174 0.52459 0.79847 0.0
H438 H 0.1168 0.56599 0.8556 0.0
H439 H 0.11098 0.59687 0.83079 0.0
C440 C 0.15902 0.66218 0.74301 0.0
C441 C 0.16728 0.67206 0.76211 0.0
C442 C 0.14279 0.64853 0.74525 0.0
C443 C 0.13429 0.64466 0.76659 0.0
C444 C 0.14244 0.65459 0.78567 0.0
C445 C 0.15873 0.66816 0.78346 0.0
C446 C 0.11727 0.6298 0.76905 0.0
C447 C 0.11908 0.61258 0.78399 0.0
C448 C 0.09984 0.63183 0.75584 0.0
C449 C 0.09647 0.65029 0.74074 0.0
C450 C 0.09774 0.67099 0.74921 0.0
C451 C 0.09474 0.68832 0.73485 0.0
C452 C 0.09035 0.68515 0.71199 0.0
C453 C 0.08888 0.66464 0.70346 0.0
C454 C 0.09188 0.64726 0.71775 0.0
C455 C 0.0475 0.55954 0.7912 0.0
C456 C 0.04208 0.55005 0.7706 0.0
C457 C 0.06196 0.57551 0.79168 0.0
C458 C 0.07136 0.58213 0.77161 0.0
C459 C 0.06577 0.57281 0.75106 0.0
C460 C 0.05134 0.55699 0.75055 0.0
C461 C 0.08715 0.5986 0.77171 0.0
C462 C 0.0851 0.61616 0.75726 0.0
C463 C 0.10436 0.59686 0.78534 0.0
C464 C 0.1079 0.57832 0.80024 0.0
C465 C 0.1083 0.55778 0.79126 0.0
C466 C 0.11154 0.54038 0.80545 0.0
C467 C 0.11456 0.54334 0.82863 0.0
C468 C 0.11442 0.56372 0.83765 0.0
C469 C 0.11116 0.58117 0.82353 0.0
H470 H 0.11707 0.52985 0.83959 0.0
H471 H 0.08804 0.69858 0.7009 0.0
H472 H 0.84582 0.66865 0.2725 0.0
H473 H 0.87425 0.64536 0.26718 0.0
H474 H 0.86392 0.64542 0.19512 0.0
H475 H 0.83558 0.66894 0.20025 0.0
H476 H 0.87023 0.60585 0.21087 0.0
H477 H 0.90249 0.67299 0.21716 0.0
H478 H 0.9102 0.70748 0.23437 0.0
H479 H 0.93146 0.67629 0.29434 0.0
H480 H 0.92361 0.6416 0.27762 0.0
H481 H 0.9603 0.54941 0.19036 0.0
H482 H 0.93504 0.57724 0.18895 0.0
H483 H 0.93929 0.58445 0.26137 0.0
H484 H 0.96453 0.5571 0.2629 0.0
H485 H 0.93712 0.62215 0.24129 0.0
H486 H 0.90193 0.55569 0.23697 0.0
H487 H 0.8938 0.52091 0.22064 0.0
H488 H 0.87776 0.55069 0.15778 0.0
H489 H 0.88607 0.58564 0.17366 0.0
C490 C 0.84975 0.66399 0.25547 0.0
C491 C 0.83838 0.67071 0.23681 0.0
C492 C 0.866 0.65062 0.25246 0.0
C493 C 0.87133 0.64377 0.23071 0.0
C494 C 0.86006 0.65047 0.21205 0.0
C495 C 0.84382 0.66386 0.21504 0.0
C496 C 0.88834 0.62916 0.22759 0.0
C497 C 0.88495 0.60958 0.21715 0.0
C498 C 0.90748 0.63385 0.23611 0.0
C499 C 0.91231 0.65469 0.24619 0.0
C500 C 0.90867 0.67348 0.23408 0.0
C501 C 0.91309 0.69308 0.24374 0.0
C502 C 0.92128 0.69408 0.26545 0.0
C503 C 0.92511 0.67549 0.27753 0.0
C504 C 0.9207 0.65586 0.26796 0.0
C505 C 0.95596 0.55706 0.20594 0.0
C506 C 0.96438 0.55092 0.22674 0.0
C507 C 0.94146 0.5729 0.20513 0.0
C508 C 0.93512 0.5828 0.22511 0.0
C509 C 0.94393 0.57708 0.24574 0.0
C510 C 0.95834 0.56132 0.24657 0.0
C511 C 0.91892 0.59871 0.22492 0.0
C512 C 0.92246 0.61854 0.23475 0.0
C513 C 0.8999 0.59421 0.21594 0.0
C514 C 0.89484 0.57324 0.20641 0.0
C515 C 0.89682 0.5548 0.21961 0.0
C516 C 0.89216 0.53506 0.21044 0.0
C517 C 0.88533 0.53358 0.18816 0.0
C518 C 0.8831 0.55185 0.17502 0.0
C519 C 0.88777 0.57163 0.18409 0.0
H520 H 0.88172 0.51829 0.1811 0.0
H521 H 0.92469 0.70926 0.2729 0.0
H522 H 0.82062 0.35941 0.79041 0.0
H523 H 0.84791 0.38408 0.79577 0.0
H524 H 0.88382 0.34814 0.74951 0.0
H525 H 0.85707 0.32237 0.74542 0.0
H526 H 0.90581 0.35965 0.78268 0.0
H527 H 0.85987 0.39641 0.73497 0.0
H528 H 0.82773 0.41141 0.72326 0.0
H529 H 0.82746 0.45109 0.78203 0.0
H530 H 0.85948 0.4361 0.79427 0.0
H531 H 0.97281 0.44063 0.74806 0.0
H532 H 0.94656 0.41409 0.75093 0.0
H533 H 0.92337 0.44532 0.80992 0.0
H534 H 0.95002 0.47191 0.80738 0.0
H535 H 0.89503 0.43679 0.77377 0.0
H536 H 0.94374 0.40067 0.81873 0.0
H537 H 0.97694 0.38637 0.82703 0.0
H538 H 0.97292 0.34607 0.7689 0.0
H539 H 0.9398 0.36036 0.76007 0.0
C540 C 0.8344 0.35645 0.78163 0.0
C541 C 0.83653 0.33872 0.76749 0.0
C542 C 0.84995 0.37085 0.78445 0.0
C543 C 0.86788 0.36827 0.77276 0.0
C544 C 0.87012 0.35058 0.75869 0.0
C545 C 0.85467 0.33595 0.75613 0.0
C546 C 0.88433 0.3839 0.77528 0.0
C547 C 0.90343 0.37649 0.78049 0.0
C548 C 0.88127 0.40598 0.77293 0.0
C549 C 0.86195 0.41494 0.76568 0.0
C550 C 0.85287 0.40819 0.7455 0.0
C551 C 0.83469 0.41672 0.73875 0.0
C552 C 0.82553 0.43214 0.75193 0.0
C553 C 0.83455 0.43911 0.77187 0.0
C554 C 0.85272 0.43061 0.77871 0.0
C555 C 0.96228 0.44172 0.76183 0.0
C556 C 0.96345 0.45834 0.77751 0.0
C557 C 0.94733 0.42651 0.76348 0.0
C558 C 0.93307 0.42772 0.78066 0.0
C559 C 0.9343 0.4441 0.79658 0.0
C560 C 0.94955 0.45918 0.79519 0.0
C561 C 0.91634 0.41245 0.78097 0.0
C562 C 0.89725 0.41995 0.7762 0.0
C563 C 0.91948 0.39046 0.78328 0.0
C564 C 0.93934 0.38172 0.78865 0.0
C565 C 0.94999 0.38888 0.80762 0.0
C566 C 0.96879 0.38075 0.81243 0.0
C567 C 0.97705 0.36535 0.79848 0.0
C568 C 0.96651 0.35801 0.7797 0.0
C569 C 0.94771 0.3661 0.77479 0.0
H570 H 0.99161 0.35908 0.80223 0.0
H571 H 0.81146 0.43874 0.74667 0.0
H572 H 0.26557 0.20788 0.35693 0.0
H573 H 0.26855 0.17861 0.38429 0.0
H574 H 0.25032 0.13454 0.3328 0.0
H575 H 0.24787 0.16363 0.30527 0.0
H576 H 0.22974 0.13374 0.37978 0.0
H577 H 0.29373 0.13212 0.34123 0.0
H578 H 0.32497 0.14857 0.32836 0.0
H579 H 0.34007 0.1637 0.39706 0.0
H580 H 0.30875 0.14761 0.4103 0.0
H581 H 0.24339 0.0355 0.43107 0.0
H582 H 0.24386 0.06489 0.40416 0.0
H583 H 0.28653 0.09756 0.446 0.0
H584 H 0.2871 0.06725 0.47215 0.0
H585 H 0.29492 0.10636 0.40546 0.0
H586 H 0.23405 0.10869 0.4458 0.0
H587 H 0.20257 0.09536 0.46165 0.0
H588 H 0.18073 0.08333 0.39461 0.0
H589 H 0.21219 0.09633 0.37836 0.0
C590 C 0.26217 0.19193 0.35153 0.0
C591 C 0.2565 0.18795 0.32904 0.0
C592 C 0.26394 0.17527 0.36709 0.0
C593 C 0.2597 0.15446 0.36049 0.0
C594 C 0.25368 0.15051 0.33816 0.0
C595 C 0.25234 0.16708 0.32248 0.0
C596 C 0.26138 0.13677 0.37689 0.0
C597 C 0.24395 0.12754 0.38525 0.0
C598 C 0.27994 0.12938 0.38467 0.0
C599 C 0.2988 0.13889 0.37672 0.0
C600 C 0.30362 0.13915 0.35357 0.0
C601 C 0.32136 0.14836 0.34621 0.0
C602 C 0.33447 0.15724 0.36188 0.0
C603 C 0.32989 0.15685 0.38494 0.0
C604 C 0.31215 0.14768 0.39238 0.0
C605 C 0.25306 0.04886 0.43433 0.0
C606 C 0.26514 0.04922 0.45367 0.0
C607 C 0.25318 0.06578 0.41907 0.0
C608 C 0.26471 0.08389 0.42335 0.0
C609 C 0.27737 0.08391 0.44233 0.0
C610 C 0.27772 0.06661 0.45726 0.0
C611 C 0.26318 0.10282 0.40825 0.0
C612 C 0.28063 0.11245 0.40016 0.0
C613 C 0.24457 0.11101 0.40119 0.0
C614 C 0.22555 0.10332 0.41088 0.0
C615 C 0.22258 0.10309 0.43444 0.0
C616 C 0.20473 0.0956 0.4435 0.0
C617 C 0.18968 0.08846 0.42914 0.0
C618 C 0.19241 0.08885 0.4057 0.0
C619 C 0.21024 0.0963 0.39656 0.0
H620 H 0.17588 0.08266 0.43619 0.0
H621 H 0.3482 0.16436 0.35615 0.0
H622 H 0.35716 0.72944 0.80737 0.0
H623 H 0.38432 0.7229 0.83385 0.0
H624 H 0.34251 0.70064 0.88383 0.0
H625 H 0.3152 0.70809 0.85786 0.0
H626 H 0.36833 0.72553 0.90295 0.0
H627 H 0.37247 0.66624 0.85376 0.0
H628 H 0.37453 0.64754 0.81733 0.0
H629 H 0.43003 0.6782 0.80299 0.0
H630 H 0.42817 0.69733 0.83922 0.0
H631 H 0.4435 0.68128 0.97521 0.0
H632 H 0.41603 0.68071 0.94771 0.0
H633 H 0.45007 0.72022 0.90239 0.0
H634 H 0.4771 0.72152 0.93012 0.0
H635 H 0.42768 0.68395 0.88178 0.0
H636 H 0.42208 0.74328 0.93289 0.0
H637 H 0.41885 0.76034 0.97009 0.0
H638 H 0.36359 0.72804 0.98107 0.0
H639 H 0.3671 0.7098 0.94465 0.0
C640 C 0.3537 0.72334 0.82407 0.0
C641 C 0.33395 0.71926 0.83043 0.0
C642 C 0.36929 0.71934 0.8391 0.0
C643 C 0.36551 0.71095 0.86073 0.0
C644 C 0.34582 0.70699 0.86719 0.0
C645 C 0.33022 0.7111 0.85223 0.0
C646 C 0.38202 0.70691 0.87688 0.0
C647 C 0.38113 0.71611 0.89843 0.0
C648 C 0.39888 0.69486 0.87092 0.0
C649 C 0.40009 0.68337 0.84912 0.0
C650 C 0.38504 0.66913 0.84276 0.0
C651 C 0.38618 0.65843 0.82216 0.0
C652 C 0.40238 0.66172 0.80783 0.0
C653 C 0.41748 0.67569 0.8141 0.0
C654 C 0.4164 0.68645 0.83468 0.0
C655 C 0.4452 0.68944 0.95916 0.0
C656 C 0.46231 0.70143 0.95467 0.0
C657 C 0.42954 0.68918 0.94356 0.0
C658 C 0.43107 0.70049 0.9231 0.0
C659 C 0.44866 0.71137 0.91806 0.0
C660 C 0.46403 0.71213 0.93388 0.0
C661 C 0.41385 0.70254 0.90771 0.0
C662 C 0.41471 0.6931 0.88631 0.0
C663 C 0.39682 0.71414 0.91392 0.0
C664 C 0.39509 0.72476 0.9362 0.0
C665 C 0.40951 0.73936 0.94349 0.0
C666 C 0.40763 0.74926 0.96449 0.0
C667 C 0.39116 0.74508 0.97813 0.0
C668 C 0.37653 0.73102 0.97076 0.0
C669 C 0.37851 0.7208 0.94998 0.0
H670 H 0.38965 0.75286 0.99432 0.0
H671 H 0.40323 0.65342 0.79188 0.0
H672 H 0.77951 0.82627 0.33256 0.0
H673 H 0.77786 0.85455 0.36052 0.0
H674 H 0.71559 0.84196 0.37036 0.0
H675 H 0.71715 0.81341 0.34265 0.0
H676 H 0.72295 0.88416 0.3663 0.0
H677 H 0.74867 0.82625 0.40964 0.0
H678 H 0.77133 0.79678 0.41831 0.0
H679 H 0.82065 0.83984 0.41967 0.0
H680 H 0.79833 0.86954 0.41068 0.0
H681 H 0.71653 0.95073 0.46423 0.0
H682 H 0.71462 0.92076 0.4381 0.0
H683 H 0.77765 0.92523 0.42661 0.0
H684 H 0.77974 0.95467 0.45287 0.0
H685 H 0.76769 0.88562 0.433 0.0
H686 H 0.74268 0.94308 0.3874 0.0
H687 H 0.7204 0.97273 0.37811 0.0
H688 H 0.6702 0.93085 0.38057 0.0
H689 H 0.69218 0.901 0.39016 0.0
C690 C 0.7655 0.8293 0.34086 0.0
C691 C 0.74848 0.81747 0.33534 0.0
C692 C 0.76457 0.84554 0.3568 0.0
C693 C 0.74663 0.85028 0.36769 0.0
C694 C 0.72958 0.83863 0.36214 0.0
C695 C 0.7305 0.82235 0.34622 0.0
C696 C 0.74568 0.86749 0.38471 0.0
C697 C 0.73252 0.88434 0.38109 0.0
C698 C 0.75838 0.86791 0.4038 0.0
C699 C 0.77184 0.85009 0.40929 0.0
C700 C 0.76437 0.82941 0.41162 0.0
C701 C 0.77715 0.81267 0.41662 0.0
C702 C 0.79742 0.81642 0.41949 0.0
C703 C 0.80495 0.83695 0.41742 0.0
C704 C 0.79224 0.85374 0.41239 0.0
C705 C 0.72995 0.94536 0.45605 0.0
C706 C 0.74828 0.95512 0.46067 0.0
C707 C 0.72884 0.92827 0.44106 0.0
C708 C 0.74599 0.92078 0.43023 0.0
C709 C 0.76423 0.93061 0.43478 0.0
C710 C 0.76537 0.94754 0.4498 0.0
C711 C 0.74522 0.90254 0.4144 0.0
C712 C 0.75804 0.88543 0.41829 0.0
C713 C 0.73226 0.90194 0.39552 0.0
C714 C 0.71904 0.91987 0.38975 0.0
C715 C 0.72687 0.94024 0.38614 0.0
C716 C 0.7143 0.95707 0.38079 0.0
C717 C 0.69389 0.95369 0.37882 0.0
C718 C 0.68601 0.93346 0.38214 0.0
C719 C 0.69852 0.91657 0.38752 0.0
H720 H 0.68418 0.96674 0.37468 0.0
H721 H 0.8073 0.80344 0.42336 0.0
H722 H 0.68593 0.3107 0.84915 0.0
H723 H 0.65829 0.31707 0.87457 0.0
H724 H 0.62296 0.27133 0.83841 0.0
H725 H 0.64992 0.26624 0.81162 0.0
H726 H 0.60049 0.30191 0.84876 0.0
H727 H 0.64713 0.26075 0.89116 0.0
H728 H 0.67953 0.25158 0.90786 0.0
H729 H 0.67906 0.30891 0.94647 0.0
H730 H 0.64675 0.31856 0.92977 0.0
H731 H 0.5352 0.27208 0.93913 0.0
H732 H 0.56155 0.27309 0.91073 0.0
H733 H 0.58133 0.33331 0.93627 0.0
H734 H 0.55458 0.33268 0.9645 0.0
H735 H 0.61139 0.29835 0.93177 0.0
H736 H 0.56164 0.33658 0.88977 0.0
H737 H 0.5282 0.34197 0.87388 0.0
H738 H 0.53367 0.28494 0.83531 0.0
H739 H 0.56704 0.27904 0.85124 0.0
C740 C 0.67219 0.30225 0.84623 0.0
C741 C 0.67032 0.28786 0.82822 0.0
C742 C 0.65644 0.30568 0.8611 0.0
C743 C 0.63862 0.29436 0.85878 0.0
C744 C 0.63658 0.2802 0.84068 0.0
C745 C 0.65218 0.27707 0.82552 0.0
C746 C 0.62212 0.29717 0.87522 0.0
C747 C 0.60291 0.30092 0.86689 0.0
C748 C 0.6252 0.29623 0.89896 0.0
C749 C 0.64463 0.29049 0.90902 0.0
C750 C 0.65401 0.27148 0.90308 0.0
C751 C 0.67234 0.26619 0.91256 0.0
C752 C 0.68137 0.27969 0.92816 0.0
C753 C 0.67206 0.29849 0.93435 0.0
C754 C 0.65373 0.30387 0.9249 0.0
C755 C 0.54503 0.28564 0.93857 0.0
C756 C 0.54287 0.3023 0.95403 0.0
C757 C 0.56003 0.28621 0.92232 0.0
C758 C 0.57331 0.30327 0.92145 0.0
C759 C 0.57114 0.32004 0.93671 0.0
C760 C 0.55585 0.3197 0.95271 0.0
C761 C 0.58998 0.30293 0.90521 0.0
C762 C 0.60915 0.29955 0.91361 0.0
C763 C 0.58679 0.30368 0.88158 0.0
C764 C 0.56678 0.30728 0.87186 0.0
C765 C 0.55564 0.32509 0.87806 0.0
C766 C 0.53672 0.32826 0.86901 0.0
C767 C 0.5288 0.31378 0.85364 0.0
C768 C 0.53982 0.29613 0.84723 0.0
C769 C 0.55875 0.29288 0.85625 0.0
H770 H 0.51414 0.31626 0.84665 0.0
H771 H 0.69557 0.27556 0.93549 0.0
H772 H 0.2701 0.80117 0.64356 0.0
H773 H 0.27286 0.83017 0.61582 0.0
H774 H 0.25383 0.87447 0.66651 0.0
H775 H 0.25162 0.84568 0.69444 0.0
H776 H 0.23319 0.87295 0.61856 0.0
H777 H 0.29635 0.87921 0.65887 0.0
H778 H 0.32798 0.86474 0.67295 0.0
H779 H 0.34484 0.84878 0.60509 0.0
H780 H 0.31314 0.86287 0.59066 0.0
H781 H 0.24352 0.97112 0.56616 0.0
H782 H 0.24477 0.94208 0.59345 0.0
H783 H 0.28952 0.91136 0.55317 0.0
H784 H 0.28923 0.94136 0.52659 0.0
H785 H 0.29757 0.90364 0.5942 0.0
H786 H 0.23782 0.89713 0.55214 0.0
H787 H 0.20613 0.9083 0.53506 0.0
H788 H 0.18225 0.92003 0.60115 0.0
H789 H 0.21389 0.90921 0.61862 0.0
C790 C 0.26654 0.81711 0.64872 0.0
C791 C 0.26067 0.82125 0.67109 0.0
C792 C 0.26817 0.83362 0.63294 0.0
C793 C 0.2636 0.8544 0.6392 0.0
C794 C 0.25747 0.85852 0.66143 0.0
C795 C 0.25626 0.84212 0.67733 0.0
C796 C 0.26484 0.87186 0.62247 0.0
C797 C 0.24721 0.87988 0.61338 0.0
C798 C 0.2832 0.88016 0.61506 0.0
C799 C 0.30228 0.87185 0.62373 0.0
C800 C 0.30671 0.87241 0.64699 0.0
C801 C 0.32467 0.86433 0.65502 0.0
C802 C 0.33839 0.85578 0.63993 0.0
C803 C 0.33419 0.85536 0.61676 0.0
C804 C 0.31624 0.86341 0.60865 0.0
C805 C 0.25379 0.95826 0.56331 0.0
C806 C 0.2662 0.95836 0.54426 0.0
C807 C 0.25437 0.94154 0.57879 0.0
C808 C 0.26674 0.92406 0.57507 0.0
C809 C 0.27971 0.92453 0.55641 0.0
C810 C 0.27957 0.94165 0.54122 0.0
C811 C 0.26578 0.90528 0.59043 0.0
C812 C 0.28346 0.89683 0.59923 0.0
C813 C 0.24742 0.89613 0.5971 0.0
C814 C 0.22829 0.90252 0.58668 0.0
C815 C 0.22585 0.90221 0.56303 0.0
C816 C 0.20789 0.90847 0.55327 0.0
C817 C 0.1922 0.91491 0.56701 0.0
C818 C 0.19442 0.91506 0.59053 0.0
C819 C 0.21236 0.90884 0.60037 0.0
H820 H 0.17831 0.91976 0.55943 0.0
H821 H 0.35229 0.84953 0.64618 0.0
H822 H 0.66893 0.68439 0.18056 0.0
H823 H 0.64105 0.67949 0.15453 0.0
H824 H 0.63492 0.74711 0.14827 0.0
H825 H 0.66279 0.75214 0.17416 0.0
H826 H 0.59943 0.72844 0.15344 0.0
H827 H 0.65735 0.71781 0.10704 0.0
H828 H 0.68901 0.70116 0.09652 0.0
H829 H 0.6602 0.64065 0.09267 0.0
H830 H 0.62839 0.65692 0.10347 0.0
H831 H 0.54587 0.7425 0.05278 0.0
H832 H 0.5712 0.74131 0.08211 0.0
H833 H 0.56899 0.67317 0.08201 0.0
H834 H 0.54356 0.67419 0.05224 0.0
H835 H 0.60712 0.68818 0.08212 0.0
H836 H 0.54833 0.69979 0.12501 0.0
H837 H 0.51672 0.71695 0.13475 0.0
H838 H 0.5471 0.7759 0.14492 0.0
H839 H 0.57887 0.75918 0.1349 0.0
C840 C 0.66173 0.69822 0.17352 0.0
C841 C 0.66813 0.71867 0.17941 0.0
C842 C 0.64577 0.69539 0.15868 0.0
C843 C 0.636 0.71293 0.14929 0.0
C844 C 0.64219 0.73334 0.15537 0.0
C845 C 0.6581 0.73619 0.17023 0.0
C846 C 0.6194 0.71017 0.133 0.0
C847 C 0.60116 0.71978 0.13777 0.0
C848 C 0.62146 0.69832 0.11286 0.0
C849 C 0.64055 0.68854 0.10632 0.0
C850 C 0.6578 0.70092 0.10414 0.0
C851 C 0.67577 0.69156 0.09809 0.0
C852 C 0.67663 0.66985 0.094 0.0
C853 C 0.65952 0.65746 0.09588 0.0
C854 C 0.64151 0.66674 0.10196 0.0
C855 C 0.55067 0.72721 0.05897 0.0
C856 C 0.54261 0.70842 0.05017 0.0
C857 C 0.56512 0.72658 0.07586 0.0
C858 C 0.57181 0.70717 0.08448 0.0
C859 C 0.56397 0.68833 0.07565 0.0
C860 C 0.54941 0.68894 0.0587 0.0
C861 C 0.58729 0.70681 0.10238 0.0
C862 C 0.6053 0.69661 0.09793 0.0
C863 C 0.58504 0.71816 0.12281 0.0
C864 C 0.56598 0.72825 0.12905 0.0
C865 C 0.54826 0.71645 0.12917 0.0
C866 C 0.53031 0.72609 0.13476 0.0
C867 C 0.52989 0.74751 0.14041 0.0
C868 C 0.54744 0.75931 0.14053 0.0
C869 C 0.56543 0.74975 0.13493 0.0
H870 H 0.51598 0.75494 0.14472 0.0
H871 H 0.69055 0.66263 0.08931 0.0
H872 H 0.72749 0.1662 0.69408 0.0
H873 H 0.7248 0.13744 0.6669 0.0
H874 H 0.76612 0.16949 0.62277 0.0
H875 H 0.76812 0.19889 0.64938 0.0
H876 H 0.73665 0.15396 0.59876 0.0
H877 H 0.7797 0.12649 0.65651 0.0
H878 H 0.78974 0.11693 0.69538 0.0
H879 H 0.73998 0.0747 0.70079 0.0
H880 H 0.72949 0.08423 0.66203 0.0
H881 H 0.77222 0.06556 0.53546 0.0
H882 H 0.76896 0.09503 0.56186 0.0
H883 H 0.71605 0.0667 0.58961 0.0
H884 H 0.71886 0.03734 0.5626 0.0
H885 H 0.74856 0.07961 0.62202 0.0
H886 H 0.70773 0.1053 0.562 0.0
H887 H 0.69877 0.11504 0.52289 0.0
H888 H 0.74561 0.16113 0.52147 0.0
H889 H 0.75533 0.15116 0.56032 0.0
C890 C 0.73585 0.1673 0.67849 0.0
C891 C 0.74803 0.18496 0.67398 0.0
C892 C 0.73447 0.15067 0.66305 0.0
C893 C 0.74545 0.15111 0.64286 0.0
C894 C 0.75754 0.16873 0.63824 0.0
C895 C 0.75884 0.18545 0.65362 0.0
C896 C 0.74425 0.13329 0.62651 0.0
C897 C 0.73949 0.13774 0.60382 0.0
C898 C 0.74741 0.11201 0.63317 0.0
C899 C 0.75369 0.10625 0.65647 0.0
C900 C 0.77081 0.11529 0.66606 0.0
C901 C 0.7766 0.10986 0.68806 0.0
C902 C 0.76547 0.09526 0.70057 0.0
C903 C 0.74857 0.08603 0.69109 0.0
C904 C 0.7427 0.09143 0.6691 0.0
C905 C 0.7598 0.06566 0.54708 0.0
C906 C 0.7458 0.04914 0.54703 0.0
C907 C 0.75794 0.08254 0.56208 0.0
C908 C 0.74227 0.08302 0.57763 0.0
C909 C 0.72822 0.06658 0.57767 0.0
C910 C 0.7298 0.0499 0.56222 0.0
C911 C 0.7412 0.10039 0.59435 0.0
C912 C 0.74559 0.09584 0.61706 0.0
C913 C 0.7379 0.12159 0.58765 0.0
C914 C 0.73244 0.12725 0.56402 0.0
C915 C 0.71637 0.11724 0.55323 0.0
C916 C 0.71113 0.12283 0.5311 0.0
C917 C 0.72168 0.13862 0.51966 0.0
C918 C 0.73751 0.14883 0.53032 0.0
C919 C 0.74293 0.14317 0.55238 0.0
H920 H 0.71752 0.143 0.50258 0.0
H921 H 0.76998 0.09107 0.7176 0.0
H922 H 0.35764 0.28402 0.19909 0.0
H923 H 0.38541 0.28947 0.17307 0.0
H924 H 0.34433 0.30246 0.11876 0.0
H925 H 0.31652 0.29638 0.14447 0.0
H926 H 0.37275 0.27609 0.10534 0.0
H927 H 0.37023 0.34228 0.14445 0.0
H928 H 0.36973 0.36556 0.17779 0.0
H929 H 0.42691 0.34256 0.1981 0.0
H930 H 0.42763 0.3189 0.16503 0.0
H931 H 0.44244 0.3217 0.0276 0.0
H932 H 0.41515 0.32081 0.05522 0.0
H933 H 0.45407 0.29232 0.10457 0.0
H934 H 0.48106 0.29232 0.07668 0.0
H935 H 0.42702 0.32726 0.12048 0.0
H936 H 0.42963 0.26173 0.08025 0.0
H937 H 0.42957 0.23813 0.04726 0.0
H938 H 0.37082 0.2585 0.02994 0.0
H939 H 0.37103 0.28334 0.06194 0.0
C940 C 0.35452 0.2879 0.18157 0.0
C941 C 0.33485 0.2898 0.17387 0.0
C942 C 0.37041 0.29123 0.16677 0.0
C943 C 0.36696 0.29663 0.14402 0.0
C944 C 0.34735 0.29841 0.13627 0.0
C945 C 0.33147 0.29509 0.15103 0.0
C946 C 0.38374 0.29987 0.12811 0.0
C947 C 0.38444 0.28754 0.10845 0.0
C948 C 0.39926 0.31443 0.1325 0.0
C949 C 0.39889 0.32867 0.15238 0.0
C950 C 0.38263 0.34206 0.15612 0.0
C951 C 0.38232 0.35535 0.17496 0.0
C952 C 0.39826 0.3555 0.19009 0.0
C953 C 0.41457 0.3424 0.18638 0.0
C954 C 0.41494 0.32906 0.16758 0.0
C955 C 0.4452 0.31572 0.04453 0.0
C956 C 0.46376 0.30727 0.05025 0.0
C957 C 0.42965 0.3151 0.06019 0.0
C958 C 0.43265 0.30644 0.08185 0.0
C959 C 0.45153 0.29911 0.08795 0.0
C960 C 0.46689 0.29915 0.0721 0.0
C961 C 0.41581 0.30367 0.09763 0.0
C962 C 0.4152 0.31598 0.11729 0.0
C963 C 0.40032 0.28912 0.09319 0.0
C964 C 0.40056 0.27486 0.07326 0.0
C965 C 0.41694 0.26172 0.06903 0.0
C966 C 0.41687 0.24808 0.05048 0.0
C967 C 0.40031 0.24704 0.03629 0.0
C968 C 0.38378 0.25961 0.04068 0.0
C969 C 0.38392 0.27358 0.05894 0.0
H970 H 0.40021 0.23636 0.02203 0.0
H971 H 0.39799 0.3658 0.20466 0.0
H972 H 0.85541 0.67231 0.76707 0.0
H973 H 0.88091 0.6461 0.75906 0.0
H974 H 0.83833 0.60894 0.72172 0.0
H975 H 0.81255 0.63506 0.7302 0.0
H976 H 0.86191 0.58372 0.74565 0.0
H977 H 0.87207 0.6402 0.69383 0.0
H978 H 0.87603 0.67717 0.68122 0.0
H979 H 0.92886 0.68306 0.72138 0.0
H980 H 0.92505 0.64621 0.73452 0.0
H981 H 0.94621 0.52474 0.70327 0.0
H982 H 0.91733 0.54845 0.70083 0.0
H983 H 0.94253 0.58755 0.75318 0.0
H984 H 0.97089 0.56377 0.75611 0.0
H985 H 0.92561 0.60996 0.71404 0.0
H986 H 0.91131 0.55426 0.7694 0.0
H987 H 0.90709 0.51694 0.7807 0.0
H988 H 0.86145 0.5093 0.73062 0.0
H989 H 0.86566 0.54652 0.71877 0.0
C990 C 0.85147 0.6585 0.75725 0.0
C991 C 0.83207 0.6558 0.74907 0.0
C992 C 0.86606 0.64357 0.75259 0.0
C993 C 0.86167 0.62582 0.73927 0.0
C994 C 0.84209 0.6226 0.73187 0.0
C995 C 0.82738 0.63747 0.73677 0.0
C996 C 0.87774 0.61096 0.73293 0.0
C997 C 0.87567 0.58941 0.73829 0.0
C998 C 0.89573 0.6183 0.72326 0.0
C999 C 0.8982 0.64046 0.71527 0.0
C1000 C 0.88446 0.64941 0.70009 0.0
C1001 C 0.88669 0.67035 0.69284 0.0
C1002 C 0.90267 0.68247 0.70052 0.0
C1003 C 0.91648 0.67366 0.71544 0.0
C1004 C 0.91431 0.65273 0.72278 0.0
C1005 C 0.94567 0.53862 0.71392 0.0
C1006 C 0.96068 0.54248 0.7299 0.0
C1007 C 0.92919 0.55204 0.71259 0.0
C1008 C 0.92784 0.56966 0.7269 0.0
C1009 C 0.94334 0.57405 0.742 0.0
C1010 C 0.95948 0.56045 0.74368 0.0
C1011 C 0.90991 0.58304 0.72738 0.0
C1012 C 0.91166 0.60429 0.72092 0.0
C1013 C 0.8916 0.57537 0.73574 0.0
C1014 C 0.88899 0.55307 0.74299 0.0
C1015 C 0.90052 0.54456 0.76064 0.0
C1016 C 0.89811 0.52344 0.76718 0.0
C1017 C 0.88407 0.51073 0.75633 0.0
C1018 C 0.87236 0.51914 0.73897 0.0
C1019 C 0.87475 0.54025 0.73233 0.0
H1020 H 0.88221 0.49438 0.76142 0.0
H1021 H 0.90436 0.69868 0.69488 0.0
H1022 H 0.81408 0.37066 0.2381 0.0
H1023 H 0.84111 0.39639 0.24082 0.0
H1024 H 0.87155 0.35595 0.28827 0.0
H1025 H 0.84521 0.32965 0.28491 0.0
H1026 H 0.87002 0.40064 0.30053 0.0
H1027 H 0.88756 0.35474 0.2385 0.0
H1028 H 0.88147 0.33647 0.20236 0.0
H1029 H 0.87304 0.3962 0.16893 0.0
H1030 H 0.87879 0.41482 0.20498 0.0
H1031 H 0.96569 0.45032 0.29619 0.0
H1032 H 0.93733 0.42595 0.29787 0.0
H1033 H 0.91317 0.45461 0.23738 0.0
H1034 H 0.94179 0.47807 0.2351 0.0
H1035 H 0.91127 0.41505 0.23271 0.0
H1036 H 0.89334 0.46171 0.29301 0.0
H1037 H 0.89788 0.48122 0.3287 0.0
H1038 H 0.90512 0.42269 0.36484 0.0
H1039 H 0.90087 0.40283 0.3293 0.0
C1040 C 0.82657 0.36708 0.24897 0.0
C1041 C 0.82738 0.34796 0.26124 0.0
C1042 C 0.84192 0.38192 0.25065 0.0
C1043 C 0.85827 0.37803 0.26477 0.0
C1044 C 0.85895 0.35929 0.27744 0.0
C1045 C 0.84378 0.34432 0.27555 0.0
C1046 C 0.8751 0.39309 0.26554 0.0
C1047 C 0.87921 0.40371 0.28581 0.0
C1048 C 0.88674 0.39733 0.24618 0.0
C1049 C 0.8834 0.38615 0.22448 0.0
C1050 C 0.88423 0.36397 0.22349 0.0
C1051 C 0.88087 0.35355 0.20301 0.0
C1052 C 0.87681 0.36516 0.18338 0.0
C1053 C 0.87615 0.38722 0.18416 0.0
C1054 C 0.87948 0.39772 0.20461 0.0
C1055 C 0.95419 0.45148 0.28343 0.0
C1056 C 0.95597 0.46595 0.26544 0.0
C1057 C 0.93794 0.43763 0.28443 0.0
C1058 C 0.92298 0.43846 0.2678 0.0
C1059 C 0.92453 0.45347 0.25031 0.0
C1060 C 0.9409 0.46692 0.24905 0.0
C1061 C 0.9062 0.42309 0.26769 0.0
C1062 C 0.90212 0.41221 0.24751 0.0
C1063 C 0.89443 0.41891 0.28707 0.0
C1064 C 0.89699 0.4308 0.30846 0.0
C1065 C 0.89605 0.45301 0.30854 0.0
C1066 C 0.89855 0.46413 0.32875 0.0
C1067 C 0.90185 0.4532 0.34901 0.0
C1068 C 0.9026 0.43113 0.34912 0.0
C1069 C 0.90013 0.41994 0.32896 0.0
H1070 H 0.90377 0.46184 0.36464 0.0
H1071 H 0.87422 0.35707 0.16754 0.0
H1072 H 0.19429 0.36808 0.74367 0.0
H1073 H 0.16793 0.39447 0.74 0.0
H1074 H 0.12426 0.34677 0.75623 0.0
H1075 H 0.15045 0.32039 0.75963 0.0
H1076 H 0.11176 0.36949 0.72188 0.0
H1077 H 0.13959 0.384 0.79519 0.0
H1078 H 0.16618 0.39246 0.82241 0.0
H1079 H 0.17815 0.45054 0.78701 0.0
H1080 H 0.15178 0.44228 0.75938 0.0
H1081 H 0.04743 0.45636 0.77733 0.0
H1082 H 0.07508 0.43177 0.77759 0.0
H1083 H 0.07914 0.43637 0.70484 0.0
H1084 H 0.05101 0.46084 0.70438 0.0
H1085 H 0.11226 0.4361 0.76582 0.0
H1086 H 0.09593 0.38885 0.68453 0.0
H1087 H 0.06736 0.37836 0.6609 0.0
H1088 H 0.02896 0.38226 0.71864 0.0
H1089 H 0.05732 0.39251 0.74264 0.0
C1090 C 0.17908 0.36331 0.74665 0.0
C1091 C 0.17442 0.34218 0.75191 0.0
C1092 C 0.16403 0.37838 0.7445 0.0
C1093 C 0.1441 0.37262 0.74791 0.0
C1094 C 0.13949 0.35156 0.75334 0.0
C1095 C 0.15447 0.3365 0.75531 0.0
C1096 C 0.12796 0.38844 0.7459 0.0
C1097 C 0.11193 0.38411 0.73142 0.0
C1098 C 0.12803 0.40741 0.7585 0.0
C1099 C 0.14387 0.41241 0.77508 0.0
C1100 C 0.148 0.39849 0.7931 0.0
C1101 C 0.16301 0.40327 0.80862 0.0
C1102 C 0.17389 0.42199 0.8064 0.0
C1103 C 0.16974 0.43602 0.78868 0.0
C1104 C 0.15476 0.43131 0.7731 0.0
C1105 C 0.05413 0.45215 0.76132 0.0
C1106 C 0.04696 0.46055 0.7408 0.0
C1107 C 0.07002 0.43813 0.76153 0.0
C1108 C 0.07918 0.43217 0.74126 0.0
C1109 C 0.07216 0.44056 0.72069 0.0
C1110 C 0.0561 0.45456 0.72044 0.0
C1111 C 0.096 0.41708 0.74194 0.0
C1112 C 0.1122 0.4216 0.7561 0.0
C1113 C 0.09583 0.39802 0.72951 0.0
C1114 C 0.0787 0.39169 0.71529 0.0
C1115 C 0.08139 0.38742 0.69217 0.0
C1116 C 0.06524 0.38152 0.67872 0.0
C1117 C 0.04635 0.37972 0.68825 0.0
C1118 C 0.04358 0.38374 0.71126 0.0
C1119 C 0.05968 0.38963 0.72479 0.0
H1120 H 0.03386 0.37516 0.6778 0.0
H1121 H 0.1855 0.42566 0.81843 0.0
H1122 H 0.19714 0.63365 0.25835 0.0
H1123 H 0.17127 0.60669 0.26311 0.0
H1124 H 0.1264 0.65367 0.25004 0.0
H1125 H 0.1521 0.6806 0.24539 0.0
H1126 H 0.11583 0.62981 0.28497 0.0
H1127 H 0.14064 0.61803 0.20954 0.0
H1128 H 0.16619 0.61068 0.18083 0.0
H1129 H 0.17977 0.55182 0.21377 0.0
H1130 H 0.15446 0.55896 0.24286 0.0
H1131 H 0.0487 0.5481 0.22574 0.0
H1132 H 0.07725 0.57152 0.22701 0.0
H1133 H 0.08196 0.56185 0.29917 0.0
H1134 H 0.05285 0.53843 0.29812 0.0
H1135 H 0.1144 0.56512 0.23789 0.0
H1136 H 0.10125 0.60787 0.3222 0.0
H1137 H 0.0737 0.61725 0.34768 0.0
H1138 H 0.03337 0.61757 0.29137 0.0
H1139 H 0.06071 0.60845 0.26554 0.0
C1140 C 0.18176 0.63815 0.25628 0.0
C1141 C 0.17665 0.65924 0.2515 0.0
C1142 C 0.16699 0.62276 0.25909 0.0
C1143 C 0.14688 0.62815 0.2569 0.0
C1144 C 0.1418 0.64918 0.25202 0.0
C1145 C 0.15651 0.66455 0.24933 0.0
C1146 C 0.13102 0.61196 0.25933 0.0
C1147 C 0.11559 0.61559 0.27478 0.0
C1148 C 0.13061 0.59345 0.24597 0.0
C1149 C 0.14584 0.58915 0.22852 0.0
C1150 C 0.1492 0.60361 0.21077 0.0
C1151 C 0.16361 0.59946 0.19441 0.0
C1152 C 0.17464 0.58083 0.19552 0.0
C1153 C 0.17124 0.56627 0.21296 0.0
C1154 C 0.15686 0.57035 0.22938 0.0
C1155 C 0.05572 0.5509 0.24196 0.0
C1156 C 0.04843 0.54139 0.26187 0.0
C1157 C 0.07216 0.56426 0.24261 0.0
C1158 C 0.08177 0.56848 0.26315 0.0
C1159 C 0.07466 0.55897 0.28313 0.0
C1160 C 0.05804 0.54559 0.28252 0.0
C1161 C 0.09904 0.58313 0.26326 0.0
C1162 C 0.1148 0.57916 0.24836 0.0
C1163 C 0.0995 0.60156 0.27672 0.0
C1164 C 0.08297 0.60722 0.29202 0.0
C1165 C 0.0865 0.60998 0.31527 0.0
C1166 C 0.07092 0.61525 0.32977 0.0
C1167 C 0.05178 0.61792 0.32116 0.0
C1168 C 0.04818 0.61541 0.29803 0.0
C1169 C 0.06371 0.61017 0.28346 0.0
H1170 H 0.03974 0.62199 0.33241 0.0
H1171 H 0.18579 0.57765 0.18283 0.0
H1172 H 0.80729 0.83328 0.69252 0.0
H1173 H 0.81215 0.86152 0.66457 0.0
H1174 H 0.75075 0.85637 0.64471 0.0
H1175 H 0.74593 0.82778 0.67211 0.0
H1176 H 0.77486 0.85774 0.60842 0.0
H1177 H 0.76696 0.8968 0.67778 0.0
H1178 H 0.77491 0.90661 0.71712 0.0
H1179 H 0.83395 0.924 0.69707 0.0
H1180 H 0.82642 0.91402 0.65764 0.0
H1181 H 0.75108 0.95189 0.5538 0.0
H1182 H 0.75445 0.92382 0.58174 0.0
H1183 H 0.81743 0.93521 0.58541 0.0
H1184 H 0.81424 0.96364 0.55707 0.0
H1185 H 0.79801 0.92979 0.62858 0.0
H1186 H 0.80415 0.89418 0.55798 0.0
H1187 H 0.79515 0.88534 0.51868 0.0
H1188 H 0.73867 0.86185 0.54113 0.0
H1189 H 0.7472 0.87086 0.58054 0.0
C1190 C 0.79485 0.83813 0.68214 0.0
C1191 C 0.77621 0.82831 0.68454 0.0
C1192 C 0.79762 0.85437 0.6663 0.0
C1193 C 0.78179 0.86112 0.65265 0.0
C1194 C 0.76317 0.8514 0.65509 0.0
C1195 C 0.76038 0.83521 0.67091 0.0
C1196 C 0.78457 0.87803 0.63546 0.0
C1197 C 0.77981 0.87352 0.61286 0.0
C1198 C 0.79166 0.89842 0.64114 0.0
C1199 C 0.79621 0.90441 0.66483 0.0
C1200 C 0.7817 0.90253 0.6818 0.0
C1201 C 0.78611 0.90817 0.70411 0.0
C1202 C 0.80495 0.91586 0.70961 0.0
C1203 C 0.81939 0.918 0.6928 0.0
C1204 C 0.81505 0.91236 0.67047 0.0
C1205 C 0.7657 0.94857 0.56052 0.0
C1206 C 0.78243 0.95998 0.55311 0.0
C1207 C 0.76758 0.93244 0.57647 0.0
C1208 C 0.7862 0.92731 0.58542 0.0
C1209 C 0.80294 0.93893 0.57858 0.0
C1210 C 0.80109 0.95509 0.56239 0.0
C1211 C 0.78781 0.90958 0.60174 0.0
C1212 C 0.7934 0.9139 0.62412 0.0
C1213 C 0.78142 0.88899 0.5959 0.0
C1214 C 0.77628 0.88333 0.57222 0.0
C1215 C 0.78975 0.88727 0.55453 0.0
C1216 C 0.78474 0.8822 0.53223 0.0
C1217 C 0.76634 0.87307 0.5274 0.0
C1218 C 0.75292 0.86893 0.54489 0.0
C1219 C 0.75785 0.87399 0.56722 0.0
H1220 H 0.76249 0.86917 0.51012 0.0
H1221 H 0.80834 0.92022 0.72688 0.0
H1222 H 0.6884 0.28712 0.1481 0.0
H1223 H 0.65956 0.2871 0.12304 0.0
H1224 H 0.63439 0.23489 0.16042 0.0
H1225 H 0.66275 0.23527 0.18619 0.0
H1226 H 0.63295 0.2303 0.11209 0.0
H1227 H 0.61598 0.28064 0.16981 0.0
H1228 H 0.62167 0.31187 0.19381 0.0
H1229 H 0.6256 0.35131 0.13461 0.0
H1230 H 0.62022 0.32024 0.11023 0.0
H1231 H 0.53744 0.23653 0.0597 0.0
H1232 H 0.56493 0.23357 0.08672 0.0
H1233 H 0.58722 0.29429 0.06459 0.0
H1234 H 0.5594 0.2977 0.03853 0.0
H1235 H 0.58938 0.29318 0.1073 0.0
H1236 H 0.60843 0.24436 0.04912 0.0
H1237 H 0.60444 0.2138 0.02373 0.0
H1238 H 0.59855 0.17245 0.08121 0.0
H1239 H 0.60227 0.20282 0.10695 0.0
C1240 C 0.67666 0.27578 0.15124 0.0
C1241 C 0.67796 0.26125 0.16931 0.0
C1242 C 0.66024 0.2757 0.13676 0.0
C1243 C 0.64484 0.26103 0.13994 0.0
C1244 C 0.64619 0.24626 0.15763 0.0
C1245 C 0.66249 0.24647 0.17228 0.0
C1246 C 0.62715 0.26141 0.12501 0.0
C1247 C 0.62323 0.2439 0.1112 0.0
C1248 C 0.61479 0.27936 0.12356 0.0
C1249 C 0.61788 0.29808 0.1382 0.0
C1250 C 0.61822 0.29594 0.1619 0.0
C1251 C 0.62135 0.31362 0.17557 0.0
C1252 C 0.62404 0.33355 0.16574 0.0
C1253 C 0.62354 0.33585 0.1422 0.0
C1254 C 0.62043 0.31822 0.12846 0.0
C1255 C 0.54826 0.24919 0.06061 0.0
C1256 C 0.54624 0.26736 0.04705 0.0
C1257 C 0.56404 0.24745 0.07598 0.0
C1258 C 0.57836 0.26361 0.07759 0.0
C1259 C 0.57638 0.28164 0.06383 0.0
C1260 C 0.56045 0.28356 0.04887 0.0
C1261 C 0.59523 0.26218 0.09385 0.0
C1262 C 0.599 0.27949 0.10807 0.0
C1263 C 0.60763 0.24416 0.09538 0.0
C1264 C 0.60541 0.22589 0.07994 0.0
C1265 C 0.60614 0.22877 0.05634 0.0
C1266 C 0.60395 0.21148 0.04189 0.0
C1267 C 0.60118 0.19121 0.05085 0.0
C1268 C 0.60066 0.18817 0.07429 0.0
C1269 C 0.60282 0.20541 0.08882 0.0
H1270 H 0.59949 0.17784 0.03963 0.0
H1271 H 0.62647 0.34722 0.17635 0.0
H1272 H 0.2153 0.19141 0.65897 0.0
H1273 H 0.21167 0.16296 0.63146 0.0
H1274 H 0.25547 0.12629 0.66731 0.0
H1275 H 0.25859 0.15417 0.69558 0.0
H1276 H 0.26157 0.13102 0.61895 0.0
H1277 H 0.21044 0.11173 0.67286 0.0
H1278 H 0.18056 0.11848 0.69568 0.0
H1279 H 0.14719 0.131 0.63515 0.0
H1280 H 0.17698 0.12463 0.61198 0.0
H1281 H 0.25714 0.03386 0.56538 0.0
H1282 H 0.2557 0.06118 0.59427 0.0
H1283 H 0.20248 0.08617 0.5637 0.0
H1284 H 0.20339 0.05804 0.53518 0.0
H1285 H 0.19993 0.08923 0.60788 0.0
H1286 H 0.24863 0.1086 0.55344 0.0
H1287 H 0.27772 0.10392 0.52876 0.0
H1288 H 0.31479 0.09467 0.5871 0.0
H1289 H 0.28585 0.09897 0.61214 0.0
C1290 C 0.22391 0.17715 0.66133 0.0
C1291 C 0.23723 0.17513 0.67961 0.0
C1292 C 0.22188 0.16098 0.64548 0.0
C1293 C 0.23326 0.14257 0.64745 0.0
C1294 C 0.24661 0.14045 0.66552 0.0
C1295 C 0.24846 0.15649 0.68157 0.0
C1296 C 0.23167 0.12571 0.63029 0.0
C1297 C 0.24821 0.12168 0.61668 0.0
C1298 C 0.21392 0.11423 0.62679 0.0
C1299 C 0.19599 0.11792 0.64071 0.0
C1300 C 0.19678 0.11611 0.66443 0.0
C1301 C 0.17985 0.11983 0.67743 0.0
C1302 C 0.162 0.12523 0.66688 0.0
C1303 C 0.16104 0.12685 0.6433 0.0
C1304 C 0.17793 0.12317 0.63023 0.0
C1305 C 0.24501 0.04506 0.56494 0.0
C1306 C 0.2305 0.04404 0.54793 0.0
C1307 C 0.24426 0.06073 0.58139 0.0
C1308 C 0.22932 0.07612 0.58077 0.0
C1309 C 0.21424 0.07456 0.5644 0.0
C1310 C 0.21476 0.05852 0.54814 0.0
C1311 C 0.23003 0.09415 0.59675 0.0
C1312 C 0.21332 0.09855 0.61005 0.0
C1313 C 0.24752 0.10634 0.59966 0.0
C1314 C 0.26503 0.10394 0.58467 0.0
C1315 C 0.26296 0.10544 0.56101 0.0
C1316 C 0.27942 0.10286 0.54695 0.0
C1317 C 0.29808 0.09896 0.55636 0.0
C1318 C 0.30032 0.09768 0.57984 0.0
C1319 C 0.2839 0.1002 0.59398 0.0
H1320 H 0.31081 0.09697 0.54545 0.0
H1321 H 0.14891 0.1281 0.67697 0.0
H1322 H 0.35576 0.73232 0.19373 0.0
H1323 H 0.38296 0.73555 0.16658 0.0
H1324 H 0.34117 0.75241 0.11414 0.0
H1325 H 0.31388 0.74838 0.14113 0.0
H1326 H 0.36649 0.72713 0.09735 0.0
H1327 H 0.37249 0.7897 0.1415 0.0
H1328 H 0.37525 0.81096 0.17624 0.0
H1329 H 0.42995 0.78005 0.19305 0.0
H1330 H 0.42739 0.75838 0.15855 0.0
H1331 H 0.44331 0.76631 0.0226 0.0
H1332 H 0.41551 0.76838 0.04952 0.0
H1333 H 0.44813 0.72999 0.09713 0.0
H1334 H 0.47545 0.72715 0.06999 0.0
H1335 H 0.42703 0.76864 0.11507 0.0
H1336 H 0.41951 0.70644 0.06812 0.0
H1337 H 0.41528 0.68717 0.03231 0.0
H1338 H 0.36059 0.71982 0.01994 0.0
H1339 H 0.36515 0.74027 0.05487 0.0
C1340 C 0.35242 0.73671 0.1764 0.0
C1341 C 0.33274 0.74013 0.16952 0.0
C1342 C 0.36798 0.7387 0.16091 0.0
C1343 C 0.36422 0.74467 0.13835 0.0
C1344 C 0.3445 0.74783 0.13143 0.0
C1345 C 0.32891 0.7455 0.14683 0.0
C1346 C 0.38079 0.74716 0.12188 0.0
C1347 C 0.37955 0.73654 0.1011 0.0
C1348 C 0.398 0.75923 0.1268 0.0
C1349 C 0.39965 0.77228 0.14753 0.0
C1350 C 0.38504 0.78733 0.15268 0.0
C1351 C 0.38658 0.79947 0.17232 0.0
C1352 C 0.40274 0.79682 0.18687 0.0
C1353 C 0.41743 0.78207 0.18177 0.0
C1354 C 0.41595 0.76987 0.16217 0.0
C1355 C 0.44461 0.75866 0.03899 0.0
C1356 C 0.46144 0.74662 0.04436 0.0
C1357 C 0.42876 0.75977 0.05425 0.0
C1358 C 0.42982 0.74928 0.07524 0.0
C1359 C 0.44708 0.7382 0.08103 0.0
C1360 C 0.46262 0.73658 0.06556 0.0
C1361 C 0.41258 0.74866 0.09071 0.0
C1362 C 0.4138 0.75951 0.1113 0.0
C1363 C 0.39518 0.73715 0.08542 0.0
C1364 C 0.39292 0.72529 0.06393 0.0
C1365 C 0.40688 0.70998 0.05746 0.0
C1366 C 0.40442 0.69881 0.03727 0.0
C1367 C 0.38782 0.70245 0.02365 0.0
C1368 C 0.37364 0.71725 0.03023 0.0
C1369 C 0.37622 0.72873 0.05016 0.0
H1370 H 0.38585 0.69369 0.00811 0.0
H1371 H 0.40391 0.80624 0.20207 0.0
H1372 H 0.8045 0.16941 0.31469 0.0
H1373 H 0.80937 0.14127 0.34281 0.0
H1374 H 0.74827 0.14691 0.36335 0.0
H1375 H 0.74337 0.17516 0.33548 0.0
H1376 H 0.77444 0.14622 0.39958 0.0
H1377 H 0.76197 0.10667 0.33111 0.0
H1378 H 0.76804 0.09636 0.29152 0.0
H1379 H 0.82719 0.07723 0.3089 0.0
H1380 H 0.82155 0.08771 0.34856 0.0
H1381 H 0.75013 0.05345 0.4572 0.0
H1382 H 0.75294 0.08104 0.42853 0.0
H1383 H 0.81532 0.06797 0.42138 0.0
H1384 H 0.81271 0.04014 0.45046 0.0
H1385 H 0.79373 0.07309 0.37918 0.0
H1386 H 0.80561 0.10925 0.44801 0.0
H1387 H 0.7998 0.11879 0.48784 0.0
H1388 H 0.743 0.1445 0.47013 0.0
H1389 H 0.74827 0.13471 0.43021 0.0
C1390 C 0.79213 0.16463 0.32522 0.0
C1391 C 0.77354 0.17444 0.32288 0.0
C1392 C 0.7949 0.14851 0.34117 0.0
C1393 C 0.77916 0.14199 0.35508 0.0
C1394 C 0.7606 0.15173 0.35275 0.0
C1395 C 0.75778 0.16773 0.33672 0.0
C1396 C 0.78199 0.12522 0.37234 0.0
C1397 C 0.77852 0.1302 0.39511 0.0
C1398 C 0.78803 0.10453 0.36655 0.0
C1399 C 0.79142 0.09821 0.34273 0.0
C1400 C 0.77633 0.10045 0.32645 0.0
C1401 C 0.77968 0.09454 0.304 0.0
C1402 C 0.79801 0.08621 0.29768 0.0
C1403 C 0.81301 0.08372 0.31381 0.0
C1404 C 0.80974 0.08963 0.33627 0.0
C1405 C 0.76448 0.05631 0.44954 0.0
C1406 C 0.78123 0.04463 0.45616 0.0
C1407 C 0.76605 0.07214 0.43318 0.0
C1408 C 0.78435 0.0766 0.42301 0.0
C1409 C 0.80108 0.06472 0.42913 0.0
C1410 C 0.79957 0.04894 0.44576 0.0
C1411 C 0.78571 0.09401 0.40628 0.0
C1412 C 0.78995 0.08919 0.38366 0.0
C1413 C 0.7805 0.1149 0.41219 0.0
C1414 C 0.77728 0.12108 0.43613 0.0
C1415 C 0.7918 0.11677 0.45262 0.0
C1416 C 0.78861 0.12223 0.47522 0.0
C1417 C 0.77102 0.13217 0.48152 0.0
C1418 C 0.75659 0.13674 0.46523 0.0
C1419 C 0.75968 0.13126 0.4426 0.0
H1420 H 0.76863 0.13637 0.49903 0.0
H1421 H 0.80057 0.08164 0.2803 0.0
H1422 H 0.34441 0.2927 0.81948 0.0
H1423 H 0.37247 0.29238 0.84595 0.0
H1424 H 0.34827 0.23707 0.87888 0.0
H1425 H 0.32023 0.23727 0.85243 0.0
H1426 H 0.36118 0.26939 0.90907 0.0
H1427 H 0.38516 0.23033 0.84469 0.0
H1428 H 0.39242 0.22505 0.80422 0.0
H1429 H 0.43107 0.27912 0.80455 0.0
H1430 H 0.4238 0.2849 0.84497 0.0
H1431 H 0.44718 0.23941 0.97254 0.0
H1432 H 0.41963 0.23768 0.9453 0.0
H1433 H 0.44192 0.29349 0.91162 0.0
H1434 H 0.46908 0.29563 0.93902 0.0
H1435 H 0.43014 0.26021 0.88168 0.0
H1436 H 0.40634 0.30154 0.94256 0.0
H1437 H 0.39843 0.31119 0.98187 0.0
H1438 H 0.35941 0.25765 0.98728 0.0
H1439 H 0.36741 0.24742 0.94807 0.0
C1440 C 0.34504 0.28056 0.83246 0.0
C1441 C 0.3302 0.26496 0.83387 0.0
C1442 C 0.3611 0.28032 0.84746 0.0
C1443 C 0.36249 0.2646 0.86424 0.0
C1444 C 0.34749 0.24929 0.866 0.0
C1445 C 0.33156 0.24936 0.85083 0.0
C1446 C 0.37964 0.26409 0.87995 0.0
C1447 C 0.37622 0.26699 0.90315 0.0
C1448 C 0.39931 0.2617 0.87207 0.0
C1449 C 0.40378 0.25816 0.8478 0.0
C1450 C 0.39507 0.2412 0.83609 0.0
C1451 C 0.39921 0.23809 0.81317 0.0
C1452 C 0.41216 0.25177 0.8018 0.0
C1453 C 0.42103 0.26855 0.81336 0.0
C1454 C 0.41691 0.27174 0.83629 0.0
C1455 C 0.44627 0.25116 0.95919 0.0
C1456 C 0.4602 0.26768 0.95791 0.0
C1457 C 0.43053 0.25021 0.94373 0.0
C1458 C 0.42876 0.26551 0.92653 0.0
C1459 C 0.44306 0.28155 0.92476 0.0
C1460 C 0.4585 0.28278 0.94047 0.0
C1461 C 0.41163 0.26527 0.91081 0.0
C1462 C 0.41507 0.26233 0.88762 0.0
C1463 C 0.39201 0.26801 0.91862 0.0
C1464 C 0.3877 0.27355 0.94248 0.0
C1465 C 0.39633 0.29161 0.95224 0.0
C1466 C 0.39177 0.29724 0.97447 0.0
C1467 C 0.37844 0.28504 0.98706 0.0
C1468 C 0.36976 0.26707 0.97751 0.0
C1469 C 0.37431 0.26134 0.95528 0.0
H1470 H 0.37474 0.28964 0.00415 0.0
H1471 H 0.41535 0.24934 0.78406 0.0
H1472 H 0.21824 0.81097 0.3439 0.0
H1473 H 0.21433 0.84029 0.37026 0.0
H1474 H 0.2591 0.87573 0.33435 0.0
H1475 H 0.26253 0.84695 0.30721 0.0
H1476 H 0.26418 0.87297 0.38286 0.0
H1477 H 0.21415 0.88996 0.32686 0.0
H1478 H 0.18473 0.88228 0.30343 0.0
H1479 H 0.1501 0.87163 0.36338 0.0
H1480 H 0.17941 0.87895 0.38717 0.0
H1481 H 0.25837 0.97175 0.43296 0.0
H1482 H 0.25759 0.94368 0.40486 0.0
H1483 H 0.20403 0.91872 0.43485 0.0
H1484 H 0.20431 0.94754 0.46256 0.0
H1485 H 0.20228 0.91454 0.39064 0.0
H1486 H 0.25007 0.89734 0.44706 0.0
H1487 H 0.27872 0.90315 0.47228 0.0
H1488 H 0.31672 0.91108 0.41457 0.0
H1489 H 0.28823 0.90565 0.38899 0.0
C1490 C 0.22703 0.82512 0.3413 0.0
C1491 C 0.24069 0.82655 0.32332 0.0
C1492 C 0.22484 0.8418 0.35649 0.0
C1493 C 0.23637 0.86014 0.35415 0.0
C1494 C 0.2501 0.86163 0.33641 0.0
C1495 C 0.25213 0.84509 0.32103 0.0
C1496 C 0.23448 0.8776 0.37053 0.0
C1497 C 0.25076 0.88227 0.3844 0.0
C1498 C 0.21666 0.88906 0.37307 0.0
C1499 C 0.19902 0.88479 0.35878 0.0
C1500 C 0.2003 0.8858 0.33504 0.0
C1501 C 0.18364 0.88155 0.3217 0.0
C1502 C 0.16557 0.87641 0.33191 0.0
C1503 C 0.16411 0.87558 0.35549 0.0
C1504 C 0.18074 0.87979 0.36891 0.0
C1505 C 0.24631 0.96041 0.43342 0.0
C1506 C 0.23152 0.96164 0.45007 0.0
C1507 C 0.24592 0.94431 0.41743 0.0
C1508 C 0.23108 0.92872 0.41815 0.0
C1509 C 0.21572 0.93048 0.43409 0.0
C1510 C 0.21588 0.94692 0.44989 0.0
C1511 C 0.23216 0.91026 0.40278 0.0
C1512 C 0.21572 0.90528 0.38919 0.0
C1513 C 0.24974 0.89817 0.40078 0.0
C1514 C 0.26697 0.90126 0.41611 0.0
C1515 C 0.26451 0.90046 0.43974 0.0
C1516 C 0.28073 0.90367 0.4541 0.0
C1517 C 0.29952 0.90753 0.44503 0.0
C1518 C 0.30215 0.90812 0.42158 0.0
C1519 C 0.28597 0.90495 0.40714 0.0
H1520 H 0.31206 0.91001 0.45618 0.0
H1521 H 0.15268 0.87312 0.32155 0.0
H1522 H 0.69416 0.73587 0.86106 0.0
H1523 H 0.66576 0.73666 0.88676 0.0
H1524 H 0.62591 0.73602 0.82952 0.0
H1525 H 0.65432 0.73581 0.80378 0.0
H1526 H 0.61262 0.7625 0.85895 0.0
H1527 H 0.63512 0.691 0.86263 0.0
H1528 H 0.65927 0.6622 0.86792 0.0
H1529 H 0.66965 0.68215 0.9363 0.0
H1530 H 0.64574 0.71126 0.93133 0.0
H1531 H 0.5428 0.70386 0.94501 0.0
H1532 H 0.56973 0.70431 0.91754 0.0
H1533 H 0.57911 0.77077 0.92998 0.0
H1534 H 0.55162 0.77056 0.95704 0.0
H1535 H 0.60697 0.71073 0.92195 0.0
H1536 H 0.59844 0.79467 0.88328 0.0
H1537 H 0.57199 0.82041 0.87485 0.0
H1538 H 0.52935 0.77001 0.87087 0.0
H1539 H 0.55558 0.74396 0.87898 0.0
C1540 C 0.67933 0.73576 0.85399 0.0
C1541 C 0.67644 0.73567 0.83043 0.0
C1542 C 0.6631 0.73621 0.86868 0.0
C1543 C 0.64364 0.73611 0.86012 0.0
C1544 C 0.64075 0.73614 0.83657 0.0
C1545 C 0.65699 0.73599 0.82186 0.0
C1546 C 0.6263 0.73594 0.8757 0.0
C1547 C 0.6114 0.75118 0.87273 0.0
C1548 C 0.62444 0.72094 0.89345 0.0
C1549 C 0.63878 0.70343 0.89653 0.0
C1550 C 0.64266 0.68933 0.87875 0.0
C1551 C 0.65629 0.67294 0.88169 0.0
C1552 C 0.66602 0.67038 0.90241 0.0
C1553 C 0.66211 0.68417 0.92025 0.0
C1554 C 0.64852 0.70061 0.91739 0.0
C1555 C 0.55049 0.71863 0.94182 0.0
C1556 C 0.54505 0.73719 0.95321 0.0
C1557 C 0.56596 0.71884 0.92613 0.0
C1558 C 0.57644 0.73758 0.92154 0.0
C1559 C 0.57104 0.75618 0.9329 0.0
C1560 C 0.55537 0.75604 0.94844 0.0
C1561 C 0.5933 0.73736 0.9053 0.0
C1562 C 0.60818 0.72208 0.90819 0.0
C1563 C 0.5948 0.75189 0.88706 0.0
C1564 C 0.57894 0.76741 0.88199 0.0
C1565 C 0.58343 0.78909 0.88054 0.0
C1566 C 0.56847 0.80373 0.87582 0.0
C1567 C 0.54899 0.79686 0.8724 0.0
C1568 C 0.54443 0.77532 0.87361 0.0
C1569 C 0.55933 0.76062 0.8783 0.0
H1570 H 0.53744 0.80822 0.86877 0.0
H1571 H 0.67657 0.65768 0.90466 0.0
loop_
_geom_bond_atom_site_label_1
_geom_bond_atom_site_label_2
_geom_bond_distance
_geom_bond_site_symmetry_2
_ccdc_geom_bond_type
C0 C1 1.384 . S
C0 H13 0.947 . S
C0 C35 1.382 . S
C1 C0 1.384 . S
C1 C2 1.378 . S
C2 C1 1.378 . S
C2 C3 1.378 . S
C2 H14 0.952 . S
C3 C2 1.378 . S
C3 H15 0.950 . S
C3 C34 1.383 . S
H4 C23 0.947 . S
H5 C24 0.946 . S
H6 C26 0.953 . S
H7 C27 0.945 . S
H8 C29 0.952 . S
H9 C30 0.949 . S
H10 C32 0.950 . S
H11 C33 0.948 . S
H12 C35 0.951 . S
H13 C0 0.947 . S
H14 C2 0.952 . S
H15 C3 0.950 . S
N16 C19 1.382 . S
N16 C21 1.363 . S
N17 C19 1.371 . S
N17 C20 1.372 . S
N18 C20 1.361 . S
N18 C21 1.377 . S
C19 N16 1.382 . S
C19 N17 1.371 . S
C19 C22 1.480 . S
C20 N17 1.372 . S
C20 N18 1.361 . S
C20 C28 1.457 . S
C21 N16 1.363 . S
C21 N18 1.377 . S
C21 C34 1.479 . S
C22 C19 1.480 . S
C22 C23 1.383 . S
C22 C27 1.385 . S
C23 H4 0.947 . S
C23 C22 1.383 . S
C23 C24 1.388 . S
C24 H5 0.946 . S
C24 C23 1.388 . S
C24 C25 1.384 . S
C25 C24 1.384 . S
C25 C26 1.377 . S
C26 H6 0.953 . S
C26 C25 1.377 . S
C26 C27 1.369 . S
C27 H7 0.945 . S
C27 C22 1.385 . S
C27 C26 1.369 . S
C28 C20 1.457 . S
C28 C29 1.372 . S
C28 C33 1.364 . S
C29 H8 0.952 . S
C29 C28 1.372 . S
C29 C30 1.389 . S
C30 H9 0.949 . S
C30 C29 1.389 . S
C30 C31 1.387 . S
C31 C30 1.387 . S
C31 C32 1.372 . S
C32 H10 0.950 . S
C32 C31 1.372 . S
C32 C33 1.379 . S
C33 H11 0.948 . S
C33 C28 1.364 . S
C33 C32 1.379 . S
C34 C3 1.383 . S
C34 C21 1.479 . S
C34 C35 1.398 . S
C35 C0 1.382 . S
C35 H12 0.951 . S
C35 C34 1.398 . S
C36 C37 1.384 . S
C36 H49 0.947 . S
C36 C71 1.382 . S
C37 C36 1.384 . S
C37 C38 1.378 . S
C38 C37 1.378 . S
C38 C39 1.378 . S
C38 H50 0.952 . S
C39 C38 1.378 . S
C39 H51 0.950 . S
C39 C70 1.383 . S
H40 C59 0.947 . S
H41 C60 0.946 . S
H42 C62 0.953 . S
H43 C63 0.945 . S
H44 C65 0.952 . S
H45 C66 0.949 . S
H46 C68 0.950 . S
H47 C69 0.948 . S
H48 C71 0.951 . S
H49 C36 0.947 . S
H50 C38 0.952 . S
H51 C39 0.950 . S
N52 C55 1.382 . S
N52 C57 1.363 . S
N53 C55 1.371 . S
N53 C56 1.372 . S
N54 C56 1.361 . S
N54 C57 1.377 . S
C55 N52 1.382 . S
C55 N53 1.371 . S
C55 C58 1.480 . S
C56 N53 1.372 . S
C56 N54 1.361 . S
C56 C64 1.457 . S
C57 N52 1.363 . S
C57 N54 1.377 . S
C57 C70 1.479 . S
C58 C55 1.480 . S
C58 C59 1.383 . S
C58 C63 1.385 . S
C59 H40 0.947 . S
C59 C58 1.383 . S
C59 C60 1.388 . S
C60 H41 0.946 . S
C60 C59 1.388 . S
C60 C61 1.384 . S
C61 C60 1.384 . S
C61 C62 1.377 . S
C62 H42 0.953 . S
C62 C61 1.377 . S
C62 C63 1.369 . S
C63 H43 0.945 . S
C63 C58 1.385 . S
C63 C62 1.369 . S
C64 C56 1.457 . S
C64 C65 1.372 . S
C64 C69 1.364 . S
C65 H44 0.952 . S
C65 C64 1.372 . S
C65 C66 1.389 . S
C66 H45 0.949 . S
C66 C65 1.389 . S
C66 C67 1.387 . S
C67 C66 1.387 . S
C67 C68 1.372 . S
C68 H46 0.950 . S
C68 C67 1.372 . S
C68 C69 1.379 . S
C69 H47 0.948 . S
C69 C64 1.364 . S
C69 C68 1.379 . S
C70 C39 1.383 . S
C70 C57 1.479 . S
C70 C71 1.398 . S
C71 C36 1.382 . S
C71 H48 0.951 . S
C71 C70 1.398 . S
C72 C73 1.384 . S
C72 H85 0.947 . S
C72 C107 1.382 . S
C73 C72 1.384 . S
C73 C74 1.378 . S
C74 C73 1.378 . S
C74 C75 1.378 . S
C74 H86 0.952 . S
C75 C74 1.378 . S
C75 H87 0.950 . S
C75 C106 1.383 . S
H76 C95 0.947 . S
H77 C96 0.946 . S
H78 C98 0.953 . S
H79 C99 0.945 . S
H80 C101 0.952 . S
H81 C102 0.949 . S
H82 C104 0.950 . S
H83 C105 0.948 . S
H84 C107 0.951 . S
H85 C72 0.947 . S
H86 C74 0.952 . S
H87 C75 0.950 . S
N88 C91 1.382 . S
N88 C93 1.363 . S
N89 C91 1.371 . S
N89 C92 1.372 . S
N90 C92 1.361 . S
N90 C93 1.377 . S
C91 N88 1.382 . S
C91 N89 1.371 . S
C91 C94 1.480 . S
C92 N89 1.372 . S
C92 N90 1.361 . S
C92 C100 1.457 . S
C93 N88 1.363 . S
C93 N90 1.377 . S
C93 C106 1.479 . S
C94 C91 1.480 . S
C94 C95 1.383 . S
C94 C99 1.385 . S
C95 H76 0.947 . S
C95 C94 1.383 . S
C95 C96 1.388 . S
C96 H77 0.946 . S
C96 C95 1.388 . S
C96 C97 1.384 . S
C97 C96 1.384 . S
C97 C98 1.377 . S
C98 H78 0.953 . S
C98 C97 1.377 . S
C98 C99 1.369 . S
C99 H79 0.945 . S
C99 C94 1.385 . S
C99 C98 1.369 . S
C100 C92 1.457 . S
C100 C101 1.372 . S
C100 C105 1.364 . S
C101 H80 0.952 . S
C101 C100 1.372 . S
C101 C102 1.389 . S
C102 H81 0.949 . S
C102 C101 1.389 . S
C102 C103 1.387 . S
C103 C102 1.387 . S
C103 C104 1.372 . S
C104 H82 0.950 . S
C104 C103 1.372 . S
C104 C105 1.379 . S
C105 H83 0.948 . S
C105 C100 1.364 . S
C105 C104 1.379 . S
C106 C75 1.383 . S
C106 C93 1.479 . S
C106 C107 1.398 . S
C107 C72 1.382 . S
C107 H84 0.951 . S
C107 C106 1.398 . S
C108 C109 1.384 . S
C108 H121 0.947 . S
C108 C143 1.382 . S
C109 C108 1.384 . S
C109 C110 1.378 . S
C110 C109 1.378 . S
C110 C111 1.378 . S
C110 H122 0.952 . S
C111 C110 1.378 . S
C111 H123 0.950 . S
C111 C142 1.383 . S
H112 C131 0.947 . S
H113 C132 0.946 . S
H114 C134 0.953 . S
H115 C135 0.945 . S
H116 C137 0.952 . S
H117 C138 0.949 . S
H118 C140 0.950 . S
H119 C141 0.948 . S
H120 C143 0.951 . S
H121 C108 0.947 . S
H122 C110 0.952 . S
H123 C111 0.950 . S
N124 C127 1.382 . S
N124 C129 1.363 . S
N125 C127 1.371 . S
N125 C128 1.372 . S
N126 C128 1.361 . S
N126 C129 1.377 . S
C127 N124 1.382 . S
C127 N125 1.371 . S
C127 C130 1.480 . S
C128 N125 1.372 . S
C128 N126 1.361 . S
C128 C136 1.457 . S
C129 N124 1.363 . S
C129 N126 1.377 . S
C129 C142 1.479 . S
C130 C127 1.480 . S
C130 C131 1.383 . S
C130 C135 1.385 . S
C131 H112 0.947 . S
C131 C130 1.383 . S
C131 C132 1.388 . S
C132 H113 0.946 . S
C132 C131 1.388 . S
C132 C133 1.384 . S
C133 C132 1.384 . S
C133 C134 1.377 . S
C134 H114 0.953 . S
C134 C133 1.377 . S
C134 C135 1.369 . S
C135 H115 0.945 . S
C135 C130 1.385 . S
C135 C134 1.369 . S
C136 C128 1.457 . S
C136 C137 1.372 . S
C136 C141 1.364 . S
C137 H116 0.952 . S
C137 C136 1.372 . S
C137 C138 1.389 . S
C138 H117 0.949 . S
C138 C137 1.389 . S
C138 C139 1.387 . S
C139 C138 1.387 . S
C139 C140 1.372 . S
C140 H118 0.950 . S
C140 C139 1.372 . S
C140 C141 1.379 . S
C141 H119 0.948 . S
C141 C136 1.364 . S
C141 C140 1.379 . S
C142 C111 1.383 . S
C142 C129 1.479 . S
C142 C143 1.398 . S
C143 C108 1.382 . S
C143 H120 0.951 . S
C143 C142 1.398 . S
C144 C145 1.384 . S
C144 H157 0.947 . S
C144 C179 1.382 . S
C145 C144 1.384 . S
C145 C146 1.378 . S
C146 C145 1.378 . S
C146 C147 1.378 . S
C146 H158 0.952 . S
C147 C146 1.378 . S
C147 H159 0.950 . S
C147 C178 1.383 . S
H148 C167 0.947 . S
H149 C168 0.946 . S
H150 C170 0.953 . S
H151 C171 0.945 . S
H152 C173 0.952 . S
H153 C174 0.949 . S
H154 C176 0.950 . S
H155 C177 0.948 . S
H156 C179 0.951 . S
H157 C144 0.947 . S
H158 C146 0.952 . S
H159 C147 0.950 . S
N160 C163 1.382 . S
N160 C165 1.363 . S
N161 C163 1.371 . S
N161 C164 1.372 . S
N162 C164 1.361 . S
N162 C165 1.377 . S
C163 N160 1.382 . S
C163 N161 1.371 . S
C163 C166 1.480 . S
C164 N161 1.372 . S
C164 N162 1.361 . S
C164 C172 1.457 . S
C165 N160 1.363 . S
C165 N162 1.377 . S
C165 C178 1.479 . S
C166 C163 1.480 . S
C166 C167 1.383 . S
C166 C171 1.385 . S
C167 H148 0.947 . S
C167 C166 1.383 . S
C167 C168 1.388 . S
C168 H149 0.946 . S
C168 C167 1.388 . S
C168 C169 1.384 . S
C169 C168 1.384 . S
C169 C170 1.377 . S
C170 H150 0.953 . S
C170 C169 1.377 . S
C170 C171 1.369 . S
C171 H151 0.945 . S
C171 C166 1.385 . S
C171 C170 1.369 . S
C172 C164 1.457 . S
C172 C173 1.372 . S
C172 C177 1.364 . S
C173 H152 0.952 . S
C173 C172 1.372 . S
C173 C174 1.389 . S
C174 H153 0.949 . S
C174 C173 1.389 . S
C174 C175 1.387 . S
C175 C174 1.387 . S
C175 C176 1.372 . S
C176 H154 0.950 . S
C176 C175 1.372 . S
C176 C177 1.379 . S
C177 H155 0.948 . S
C177 C172 1.364 . S
C177 C176 1.379 . S
C178 C147 1.383 . S
C178 C165 1.479 . S
C178 C179 1.398 . S
C179 C144 1.382 . S
C179 H156 0.951 . S
C179 C178 1.398 . S
C180 C181 1.384 . S
C180 H193 0.947 . S
C180 C215 1.382 . S
C181 C180 1.384 . S
C181 C182 1.378 . S
C182 C181 1.378 . S
C182 C183 1.378 . S
C182 H194 0.952 . S
C183 C182 1.378 . S
C183 H195 0.950 . S
C183 C214 1.383 . S
H184 C203 0.947 . S
H185 C204 0.946 . S
H186 C206 0.953 . S
H187 C207 0.945 . S
H188 C209 0.952 . S
H189 C210 0.949 . S
H190 C212 0.950 . S
H191 C213 0.948 . S
H192 C215 0.951 . S
H193 C180 0.947 . S
H194 C182 0.952 . S
H195 C183 0.950 . S
N196 C199 1.382 . S
N196 C201 1.363 . S
N197 C199 1.371 . S
N197 C200 1.372 . S
N198 C200 1.361 . S
N198 C201 1.377 . S
C199 N196 1.382 . S
C199 N197 1.371 . S
C199 C202 1.480 . S
C200 N197 1.372 . S
C200 N198 1.361 . S
C200 C208 1.457 . S
C201 N196 1.363 . S
C201 N198 1.377 . S
C201 C214 1.479 . S
C202 C199 1.480 . S
C202 C203 1.383 . S
C202 C207 1.385 . S
C203 H184 0.947 . S
C203 C202 1.383 . S
C203 C204 1.388 . S
C204 H185 0.946 . S
C204 C203 1.388 . S
C204 C205 1.384 . S
C205 C204 1.384 . S
C205 C206 1.377 . S
C206 H186 0.953 . S
C206 C205 1.377 . S
C206 C207 1.369 . S
C207 H187 0.945 . S
C207 C202 1.385 . S
C207 C206 1.369 . S
C208 C200 1.457 . S
C208 C209 1.372 . S
C208 C213 1.364 . S
C209 H188 0.952 . S
C209 C208 1.372 . S
C209 C210 1.389 . S
C210 H189 0.949 . S
C210 C209 1.389 . S
C210 C211 1.387 . S
C211 C210 1.387 . S
C211 C212 1.372 . S
C212 H190 0.950 . S
C212 C211 1.372 . S
C212 C213 1.379 . S
C213 H191 0.948 . S
C213 C208 1.364 . S
C213 C212 1.379 . S
C214 C183 1.383 . S
C214 C201 1.479 . S
C214 C215 1.398 . S
C215 C180 1.382 . S
C215 H192 0.951 . S
C215 C214 1.398 . S
C216 C217 1.384 . S
C216 H229 0.947 . S
C216 C251 1.382 . S
C217 C216 1.384 . S
C217 C218 1.378 . S
C218 C217 1.378 . S
C218 C219 1.378 . S
C218 H230 0.952 . S
C219 C218 1.378 . S
C219 H231 0.950 . S
C219 C250 1.383 . S
H220 C239 0.947 . S
H221 C240 0.946 . S
H222 C242 0.953 . S
H223 C243 0.945 . S
H224 C245 0.952 . S
H225 C246 0.949 . S
H226 C248 0.950 . S
H227 C249 0.948 . S
H228 C251 0.951 . S
H229 C216 0.947 . S
H230 C218 0.952 . S
H231 C219 0.950 . S
N232 C235 1.382 . S
N232 C237 1.363 . S
N233 C235 1.371 . S
N233 C236 1.372 . S
N234 C236 1.361 . S
N234 C237 1.377 . S
C235 N232 1.382 . S
C235 N233 1.371 . S
C235 C238 1.480 . S
C236 N233 1.372 . S
C236 N234 1.361 . S
C236 C244 1.457 . S
C237 N232 1.363 . S
C237 N234 1.377 . S
C237 C250 1.479 . S
C238 C235 1.480 . S
C238 C239 1.383 . S
C238 C243 1.385 . S
C239 H220 0.947 . S
C239 C238 1.383 . S
C239 C240 1.388 . S
C240 H221 0.946 . S
C240 C239 1.388 . S
C240 C241 1.384 . S
C241 C240 1.384 . S
C241 C242 1.377 . S
C242 H222 0.953 . S
C242 C241 1.377 . S
C242 C243 1.369 . S
C243 H223 0.945 . S
C243 C238 1.385 . S
C243 C242 1.369 . S
C244 C236 1.457 . S
C244 C245 1.372 . S
C244 C249 1.364 . S
C245 H224 0.952 . S
C245 C244 1.372 . S
C245 C246 1.389 . S
C246 H225 0.949 . S
C246 C245 1.389 . S
C246 C247 1.387 . S
C247 C246 1.387 . S
C247 C248 1.372 . S
C248 H226 0.950 . S
C248 C247 1.372 . S
C248 C249 1.379 . S
C249 H227 0.948 . S
C249 C244 1.364 . S
C249 C248 1.379 . S
C250 C219 1.383 . S
C250 C237 1.479 . S
C250 C251 1.398 . S
C251 C216 1.382 . S
C251 H228 0.951 . S
C251 C250 1.398 . S
C252 C253 1.384 . S
C252 H265 0.947 . S
C252 C287 1.382 . S
C253 C252 1.384 . S
C253 C254 1.378 . S
C254 C253 1.378 . S
C254 C255 1.378 . S
C254 H266 0.952 . S
C255 C254 1.378 . S
C255 H267 0.950 . S
C255 C286 1.383 . S
H256 C275 0.947 . S
H257 C276 0.946 . S
H258 C278 0.953 . S
H259 C279 0.945 . S
H260 C281 0.952 . S
H261 C282 0.949 . S
H262 C284 0.950 . S
H263 C285 0.948 . S
H264 C287 0.951 . S
H265 C252 0.947 . S
H266 C254 0.952 . S
H267 C255 0.950 . S
N268 C271 1.382 . S
N268 C273 1.363 . S
N269 C271 1.371 . S
N269 C272 1.372 . S
N270 C272 1.361 . S
N270 C273 1.377 . S
C271 N268 1.382 . S
C271 N269 1.371 . S
C271 C274 1.480 . S
C272 N269 1.372 . S
C272 N270 1.361 . S
C272 C280 1.457 . S
C273 N268 1.363 . S
C273 N270 1.377 . S
C273 C286 1.479 . S
C274 C271 1.480 . S
C274 C275 1.383 . S
C274 C279 1.385 . S
C275 H256 0.947 . S
C275 C274 1.383 . S
C275 C276 1.388 . S
C276 H257 0.946 . S
C276 C275 1.388 . S
C276 C277 1.384 . S
C277 C276 1.384 . S
C277 C278 1.377 . S
C278 H258 0.953 . S
C278 C277 1.377 . S
C278 C279 1.369 . S
C279 H259 0.945 . S
C279 C274 1.385 . S
C279 C278 1.369 . S
C280 C272 1.457 . S
C280 C281 1.372 . S
C280 C285 1.364 . S
C281 H260 0.952 . S
C281 C280 1.372 . S
C281 C282 1.389 . S
C282 H261 0.949 . S
C282 C281 1.389 . S
C282 C283 1.387 . S
C283 C282 1.387 . S
C283 C284 1.372 . S
C284 H262 0.950 . S
C284 C283 1.372 . S
C284 C285 1.379 . S
C285 H263 0.948 . S
C285 C280 1.364 . S
C285 C284 1.379 . S
C286 C255 1.383 . S
C286 C273 1.479 . S
C286 C287 1.398 . S
C287 C252 1.382 . S
C287 H264 0.951 . S
C287 C286 1.398 . S
C288 O290 1.247 . S
C288 O292 1.258 . S
C289 O296 1.247 . S
C289 O297 1.258 . S
O290 C288 1.247 . S
O290 Zn291 2.028 1_655 S
Zn291 O290 2.028 1_455 S
Zn291 O295 2.035 . S
Zn291 O297 2.035 . S
Zn291 O298 2.028 1_455 S
O292 C288 1.258 . S
O292 Zn293 2.035 1_655 S
Zn293 O292 2.035 1_455 S
Zn293 O294 2.028 . S
Zn293 O296 2.028 . S
Zn293 O299 2.035 1_455 S
O294 Zn293 2.028 . S
O294 C300 1.247 . S
O295 Zn291 2.035 . S
O295 C300 1.258 . S
O296 C289 1.247 . S
O296 Zn293 2.028 . S
O297 C289 1.258 . S
O297 Zn291 2.035 . S
O298 Zn291 2.028 1_655 S
O298 C301 1.247 . S
O299 Zn293 2.035 1_655 S
O299 C301 1.258 . S
C300 O294 1.247 . S
C300 O295 1.258 . S
C301 O298 1.247 . S
C301 O299 1.258 . S
C302 O304 1.247 . S
C302 O306 1.258 . S
C303 O310 1.247 . S
C303 O311 1.258 . S
O304 C302 1.247 . S
O304 Zn305 2.028 1_655 S
Zn305 O304 2.028 1_455 S
Zn305 O309 2.035 . S
Zn305 O311 2.035 . S
Zn305 O312 2.028 1_455 S
O306 C302 1.258 . S
O306 Zn307 2.035 1_655 S
Zn307 O306 2.035 1_455 S
Zn307 O308 2.028 . S
Zn307 O310 2.028 . S
Zn307 O313 2.035 1_455 S
O308 Zn307 2.028 . S
O308 C314 1.247 . S
O309 Zn305 2.035 . S
O309 C314 1.258 . S
O310 C303 1.247 . S
O310 Zn307 2.028 . S
O311 C303 1.258 . S
O311 Zn305 2.035 . S
O312 Zn305 2.028 1_655 S
O312 C315 1.247 . S
O313 Zn307 2.035 1_655 S
O313 C315 1.258 . S
C314 O308 1.247 . S
C314 O309 1.258 . S
C315 O312 1.247 . S
C315 O313 1.258 . S
C316 O318 1.247 . S
C316 O320 1.258 . S
C317 O324 1.247 . S
C317 O325 1.258 . S
O318 C316 1.247 . S
O318 Zn319 2.028 1_565 S
Zn319 O318 2.028 1_545 S
Zn319 O323 2.035 . S
Zn319 O325 2.035 . S
Zn319 O326 2.028 1_545 S
O320 C316 1.258 . S
O320 Zn321 2.035 1_565 S
Zn321 O320 2.035 1_545 S
Zn321 O322 2.028 . S
Zn321 O324 2.028 . S
Zn321 O327 2.035 1_545 S
O322 Zn321 2.028 . S
O322 C328 1.247 . S
O323 Zn319 2.035 . S
O323 C328 1.258 . S
O324 C317 1.247 . S
O324 Zn321 2.028 . S
O325 C317 1.258 . S
O325 Zn319 2.035 . S
O326 Zn319 2.028 1_565 S
O326 C329 1.247 . S
O327 Zn321 2.035 1_565 S
O327 C329 1.258 . S
C328 O322 1.247 . S
C328 O323 1.258 . S
C329 O326 1.247 . S
C329 O327 1.258 . S
C330 O332 1.247 . S
C330 O334 1.258 . S
C331 O338 1.247 . S
C331 O339 1.258 . S
O332 C330 1.247 . S
O332 Zn333 2.028 . S
Zn333 O332 2.028 . S
Zn333 O337 2.035 . S
Zn333 O339 2.035 1_554 S
Zn333 O340 2.028 1_554 S
O334 C330 1.258 . S
O334 Zn335 2.035 . S
Zn335 O334 2.035 . S
Zn335 O336 2.028 . S
Zn335 O338 2.028 1_554 S
Zn335 O341 2.035 1_554 S
O336 Zn335 2.028 . S
O336 C342 1.247 . S
O337 Zn333 2.035 . S
O337 C342 1.258 . S
O338 C331 1.247 . S
O338 Zn335 2.028 1_556 S
O339 C331 1.258 . S
O339 Zn333 2.035 1_556 S
O340 Zn333 2.028 1_556 S
O340 C343 1.247 . S
O341 Zn335 2.035 1_556 S
O341 C343 1.258 . S
C342 O336 1.247 . S
C342 O337 1.258 . S
C343 O340 1.247 . S
C343 O341 1.258 . S
C344 O346 1.247 . S
C344 O348 1.258 . S
C345 O352 1.247 . S
C345 O353 1.258 . S
O346 C344 1.247 . S
O346 Zn347 2.002 1_565 S
Zn347 O346 2.002 1_545 S
Zn347 O351 2.062 . S
Zn347 O353 2.062 . S
Zn347 O354 2.002 1_545 S
O348 C344 1.258 . S
O348 Zn349 2.035 1_565 S
Zn349 O348 2.035 1_545 S
Zn349 O350 2.028 . S
Zn349 O352 2.028 . S
Zn349 O355 2.035 1_545 S
O350 Zn349 2.028 . S
O350 C356 1.247 . S
O351 Zn347 2.062 . S
O351 C356 1.258 . S
O352 C345 1.247 . S
O352 Zn349 2.028 . S
O353 C345 1.258 . S
O353 Zn347 2.062 . S
O354 Zn347 2.002 1_565 S
O354 C357 1.247 . S
O355 Zn349 2.035 1_565 S
O355 C357 1.258 . S
C356 O350 1.247 . S
C356 O351 1.258 . S
C357 O354 1.247 . S
C357 O355 1.258 . S
C358 O360 1.247 . S
C358 O362 1.258 . S
C359 O366 1.247 . S
C359 O367 1.258 . S
O360 C358 1.247 . S
O360 Zn361 2.034 . S
Zn361 O360 2.034 . S
Zn361 O365 2.041 . S
Zn361 O367 2.029 1_554 S
Zn361 O368 2.022 1_554 S
O362 C358 1.258 . S
O362 Zn363 2.037 1_554 S
Zn363 O362 2.037 1_556 S
Zn363 O364 2.030 1_556 S
Zn363 O366 2.026 . S
Zn363 O369 2.033 . S
O364 Zn363 2.030 1_554 S
O364 C370 1.247 . S
O365 Zn361 2.041 . S
O365 C370 1.258 . S
O366 C359 1.247 . S
O366 Zn363 2.026 . S
O367 C359 1.258 . S
O367 Zn361 2.029 1_556 S
O368 Zn361 2.022 1_556 S
O368 C371 1.247 . S
O369 Zn363 2.033 . S
O369 C371 1.258 . S
C370 O364 1.247 . S
C370 O365 1.258 . S
C371 O368 1.247 . S
C371 O369 1.258 . S
H372 C390 0.951 . S
H373 C392 0.951 . S
H374 C394 0.950 . S
H375 C395 0.950 . S
H376 C397 0.950 . S
H377 C400 0.950 . S
H378 C401 0.950 . S
H379 C403 0.950 . S
H380 C404 0.950 . S
H381 C405 0.951 . S
H382 C407 0.951 . S
H383 C409 0.950 . S
H384 C410 0.950 . S
H385 C412 0.950 . S
H386 C415 0.950 . S
H387 C416 0.950 . S
H388 C418 0.950 . S
H389 C419 0.950 . S
C390 H372 0.951 . S
C390 C391 1.366 . S
C390 C392 1.388 . S
C391 C390 1.366 . S
C391 C395 1.385 . S
C392 H373 0.951 . S
C392 C390 1.388 . S
C392 C393 1.366 . S
C393 C392 1.366 . S
C393 C394 1.414 . S
C393 C396 1.499 . S
C394 H374 0.950 . S
C394 C393 1.414 . S
C394 C395 1.374 . S
C395 H375 0.950 . S
C395 C391 1.385 . S
C395 C394 1.374 . S
C396 C393 1.499 . S
C396 C397 1.373 . S
C396 C398 1.389 . S
C397 H376 0.950 . S
C397 C396 1.373 . S
C397 C413 1.377 . S
C398 C396 1.389 . S
C398 C399 1.524 . S
C398 C412 1.377 . S
C399 C398 1.524 . S
C399 C400 1.397 . S
C399 C404 1.363 . S
C400 H377 0.950 . S
C400 C399 1.397 . S
C400 C401 1.334 . S
C401 H378 0.950 . S
C401 C400 1.334 . S
C401 C402 1.287 . S
C402 C401 1.287 . S
C402 C403 1.524 . S
C402 H421 0.913 . S
C403 H379 0.950 . S
C403 C402 1.524 . S
C403 C404 1.415 . S
C404 H380 0.950 . S
C404 C399 1.363 . S
C404 C403 1.415 . S
C405 H381 0.951 . S
C405 C406 1.366 . S
C405 C407 1.388 . S
C406 C405 1.366 . S
C406 C410 1.385 . S
C407 H382 0.951 . S
C407 C405 1.388 . S
C407 C408 1.366 . S
C408 C407 1.366 . S
C408 C409 1.414 . S
C408 C411 1.499 . S
C409 H383 0.950 . S
C409 C408 1.414 . S
C409 C410 1.374 . S
C410 H384 0.950 . S
C410 C406 1.385 . S
C410 C409 1.374 . S
C411 C408 1.499 . S
C411 C412 1.373 . S
C411 C413 1.389 . S
C412 H385 0.950 . S
C412 C398 1.377 . S
C412 C411 1.373 . S
C413 C397 1.377 . S
C413 C411 1.389 . S
C413 C414 1.524 . S
C414 C413 1.524 . S
C414 C415 1.397 . S
C414 C419 1.363 . S
C415 H386 0.950 . S
C415 C414 1.397 . S
C415 C416 1.334 . S
C416 H387 0.950 . S
C416 C415 1.334 . S
C416 C417 1.287 . S
C417 C416 1.287 . S
C417 C418 1.524 . S
C417 H420 0.999 . S
C418 H388 0.950 . S
C418 C417 1.524 . S
C418 C419 1.415 . S
C419 H389 0.950 . S
C419 C414 1.363 . S
C419 C418 1.415 . S
H420 C417 0.999 . S
H421 C402 0.913 . S
H422 C440 0.951 . S
H423 C442 0.951 . S
H424 C444 0.950 . S
H425 C445 0.950 . S
H426 C447 0.950 . S
H427 C450 0.950 . S
H428 C451 0.950 . S
H429 C453 0.950 . S
H430 C454 0.950 . S
H431 C455 0.951 . S
H432 C457 0.951 . S
H433 C459 0.950 . S
H434 C460 0.950 . S
H435 C462 0.950 . S
H436 C465 0.950 . S
H437 C466 0.950 . S
H438 C468 0.950 . S
H439 C469 0.950 . S
C440 H422 0.951 . S
C440 C441 1.366 . S
C440 C442 1.388 . S
C441 C440 1.366 . S
C441 C445 1.385 . S
C442 H423 0.951 . S
C442 C440 1.388 . S
C442 C443 1.366 . S
C443 C442 1.366 . S
C443 C444 1.414 . S
C443 C446 1.499 . S
C444 H424 0.950 . S
C444 C443 1.414 . S
C444 C445 1.374 . S
C445 H425 0.950 . S
C445 C441 1.385 . S
C445 C444 1.374 . S
C446 C443 1.499 . S
C446 C447 1.373 . S
C446 C448 1.389 . S
C447 H426 0.950 . S
C447 C446 1.373 . S
C447 C463 1.377 . S
C448 C446 1.389 . S
C448 C449 1.524 . S
C448 C462 1.377 . S
C449 C448 1.524 . S
C449 C450 1.397 . S
C449 C454 1.363 . S
C450 H427 0.950 . S
C450 C449 1.397 . S
C450 C451 1.334 . S
C451 H428 0.950 . S
C451 C450 1.334 . S
C451 C452 1.287 . S
C452 C451 1.287 . S
C452 C453 1.524 . S
C452 H471 0.913 . S
C453 H429 0.950 . S
C453 C452 1.524 . S
C453 C454 1.415 . S
C454 H430 0.950 . S
C454 C449 1.363 . S
C454 C453 1.415 . S
C455 H431 0.951 . S
C455 C456 1.366 . S
C455 C457 1.388 . S
C456 C455 1.366 . S
C456 C460 1.385 . S
C457 H432 0.951 . S
C457 C455 1.388 . S
C457 C458 1.366 . S
C458 C457 1.366 . S
C458 C459 1.414 . S
C458 C461 1.499 . S
C459 H433 0.950 . S
C459 C458 1.414 . S
C459 C460 1.374 . S
C460 H434 0.950 . S
C460 C456 1.385 . S
C460 C459 1.374 . S
C461 C458 1.499 . S
C461 C462 1.373 . S
C461 C463 1.389 . S
C462 H435 0.950 . S
C462 C448 1.377 . S
C462 C461 1.373 . S
C463 C447 1.377 . S
C463 C461 1.389 . S
C463 C464 1.524 . S
C464 C463 1.524 . S
C464 C465 1.397 . S
C464 C469 1.363 . S
C465 H436 0.950 . S
C465 C464 1.397 . S
C465 C466 1.334 . S
C466 H437 0.950 . S
C466 C465 1.334 . S
C466 C467 1.287 . S
C467 C466 1.287 . S
C467 C468 1.524 . S
C467 H470 0.999 . S
C468 H438 0.950 . S
C468 C467 1.524 . S
C468 C469 1.415 . S
C469 H439 0.950 . S
C469 C464 1.363 . S
C469 C468 1.415 . S
H470 C467 0.999 . S
H471 C452 0.913 . S
H472 C490 0.951 . S
H473 C492 0.951 . S
H474 C494 0.950 . S
H475 C495 0.950 . S
H476 C497 0.950 . S
H477 C500 0.950 . S
H478 C501 0.950 . S
H479 C503 0.950 . S
H480 C504 0.950 . S
H481 C505 0.951 . S
H482 C507 0.951 . S
H483 C509 0.950 . S
H484 C510 0.950 . S
H485 C512 0.950 . S
H486 C515 0.950 . S
H487 C516 0.950 . S
H488 C518 0.950 . S
H489 C519 0.950 . S
C490 H472 0.951 . S
C490 C491 1.366 . S
C490 C492 1.388 . S
C491 C490 1.366 . S
C491 C495 1.385 . S
C492 H473 0.951 . S
C492 C490 1.388 . S
C492 C493 1.366 . S
C493 C492 1.366 . S
C493 C494 1.414 . S
C493 C496 1.499 . S
C494 H474 0.950 . S
C494 C493 1.414 . S
C494 C495 1.374 . S
C495 H475 0.950 . S
C495 C491 1.385 . S
C495 C494 1.374 . S
C496 C493 1.499 . S
C496 C497 1.373 . S
C496 C498 1.389 . S
C497 H476 0.950 . S
C497 C496 1.373 . S
C497 C513 1.377 . S
C498 C496 1.389 . S
C498 C499 1.524 . S
C498 C512 1.377 . S
C499 C498 1.524 . S
C499 C500 1.397 . S
C499 C504 1.363 . S
C500 H477 0.950 . S
C500 C499 1.397 . S
C500 C501 1.334 . S
C501 H478 0.950 . S
C501 C500 1.334 . S
C501 C502 1.287 . S
C502 C501 1.287 . S
C502 C503 1.524 . S
C502 H521 0.913 . S
C503 H479 0.950 . S
C503 C502 1.524 . S
C503 C504 1.415 . S
C504 H480 0.950 . S
C504 C499 1.363 . S
C504 C503 1.415 . S
C505 H481 0.951 . S
C505 C506 1.366 . S
C505 C507 1.388 . S
C506 C505 1.366 . S
C506 C510 1.385 . S
C507 H482 0.951 . S
C507 C505 1.388 . S
C507 C508 1.366 . S
C508 C507 1.366 . S
C508 C509 1.414 . S
C508 C511 1.499 . S
C509 H483 0.950 . S
C509 C508 1.414 . S
C509 C510 1.374 . S
C510 H484 0.950 . S
C510 C506 1.385 . S
C510 C509 1.374 . S
C511 C508 1.499 . S
C511 C512 1.373 . S
C511 C513 1.389 . S
C512 H485 0.950 . S
C512 C498 1.377 . S
C512 C511 1.373 . S
C513 C497 1.377 . S
C513 C511 1.389 . S
C513 C514 1.524 . S
C514 C513 1.524 . S
C514 C515 1.397 . S
C514 C519 1.363 . S
C515 H486 0.950 . S
C515 C514 1.397 . S
C515 C516 1.334 . S
C516 H487 0.950 . S
C516 C515 1.334 . S
C516 C517 1.287 . S
C517 C516 1.287 . S
C517 C518 1.524 . S
C517 H520 0.999 . S
C518 H488 0.950 . S
C518 C517 1.524 . S
C518 C519 1.415 . S
C519 H489 0.950 . S
C519 C514 1.363 . S
C519 C518 1.415 . S
H520 C517 0.999 . S
H521 C502 0.913 . S
H522 C540 0.951 . S
H523 C542 0.951 . S
H524 C544 0.950 . S
H525 C545 0.950 . S
H526 C547 0.950 . S
H527 C550 0.950 . S
H528 C551 0.950 . S
H529 C553 0.950 . S
H530 C554 0.950 . S
H531 C555 0.951 . S
H532 C557 0.951 . S
H533 C559 0.950 . S
H534 C560 0.950 . S
H535 C562 0.950 . S
H536 C565 0.950 . S
H537 C566 0.950 . S
H538 C568 0.950 . S
H539 C569 0.950 . S
C540 H522 0.951 . S
C540 C541 1.366 . S
C540 C542 1.388 . S
C541 C540 1.366 . S
C541 C545 1.385 . S
C542 H523 0.951 . S
C542 C540 1.388 . S
C542 C543 1.366 . S
C543 C542 1.366 . S
C543 C544 1.414 . S
C543 C546 1.499 . S
C544 H524 0.950 . S
C544 C543 1.414 . S
C544 C545 1.374 . S
C545 H525 0.950 . S
C545 C541 1.385 . S
C545 C544 1.374 . S
C546 C543 1.499 . S
C546 C547 1.373 . S
C546 C548 1.389 . S
C547 H526 0.950 . S
C547 C546 1.373 . S
C547 C563 1.377 . S
C548 C546 1.389 . S
C548 C549 1.524 . S
C548 C562 1.377 . S
C549 C548 1.524 . S
C549 C550 1.397 . S
C549 C554 1.363 . S
C550 H527 0.950 . S
C550 C549 1.397 . S
C550 C551 1.334 . S
C551 H528 0.950 . S
C551 C550 1.334 . S
C551 C552 1.287 . S
C552 C551 1.287 . S
C552 C553 1.524 . S
C552 H571 0.913 . S
C553 H529 0.950 . S
C553 C552 1.524 . S
C553 C554 1.415 . S
C554 H530 0.950 . S
C554 C549 1.363 . S
C554 C553 1.415 . S
C555 H531 0.951 . S
C555 C556 1.366 . S
C555 C557 1.388 . S
C556 C555 1.366 . S
C556 C560 1.385 . S
C557 H532 0.951 . S
C557 C555 1.388 . S
C557 C558 1.366 . S
C558 C557 1.366 . S
C558 C559 1.414 . S
C558 C561 1.499 . S
C559 H533 0.950 . S
C559 C558 1.414 . S
C559 C560 1.374 . S
C560 H534 0.950 . S
C560 C556 1.385 . S
C560 C559 1.374 . S
C561 C558 1.499 . S
C561 C562 1.373 . S
C561 C563 1.389 . S
C562 H535 0.950 . S
C562 C548 1.377 . S
C562 C561 1.373 . S
C563 C547 1.377 . S
C563 C561 1.389 . S
C563 C564 1.524 . S
C564 C563 1.524 . S
C564 C565 1.397 . S
C564 C569 1.363 . S
C565 H536 0.950 . S
C565 C564 1.397 . S
C565 C566 1.334 . S
C566 H537 0.950 . S
C566 C565 1.334 . S
C566 C567 1.287 . S
C567 C566 1.287 . S
C567 C568 1.524 . S
C567 H570 0.999 . S
C568 H538 0.950 . S
C568 C567 1.524 . S
C568 C569 1.415 . S
C569 H539 0.950 . S
C569 C564 1.363 . S
C569 C568 1.415 . S
H570 C567 0.999 . S
H571 C552 0.913 . S
H572 C590 0.951 . S
H573 C592 0.951 . S
H574 C594 0.950 . S
H575 C595 0.950 . S
H576 C597 0.950 . S
H577 C600 0.950 . S
H578 C601 0.950 . S
H579 C603 0.950 . S
H580 C604 0.950 . S
H581 C605 0.951 . S
H582 C607 0.951 . S
H583 C609 0.950 . S
H584 C610 0.950 . S
H585 C612 0.950 . S
H586 C615 0.950 . S
H587 C616 0.950 . S
H588 C618 0.950 . S
H589 C619 0.950 . S
C590 H572 0.951 . S
C590 C591 1.366 . S
C590 C592 1.388 . S
C591 C590 1.366 . S
C591 C595 1.385 . S
C592 H573 0.951 . S
C592 C590 1.388 . S
C592 C593 1.366 . S
C593 C592 1.366 . S
C593 C594 1.414 . S
C593 C596 1.499 . S
C594 H574 0.950 . S
C594 C593 1.414 . S
C594 C595 1.374 . S
C595 H575 0.950 . S
C595 C591 1.385 . S
C595 C594 1.374 . S
C596 C593 1.499 . S
C596 C597 1.373 . S
C596 C598 1.389 . S
C597 H576 0.950 . S
C597 C596 1.373 . S
C597 C613 1.377 . S
C598 C596 1.389 . S
C598 C599 1.524 . S
C598 C612 1.377 . S
C599 C598 1.524 . S
C599 C600 1.397 . S
C599 C604 1.363 . S
C600 H577 0.950 . S
C600 C599 1.397 . S
C600 C601 1.334 . S
C601 H578 0.950 . S
C601 C600 1.334 . S
C601 C602 1.287 . S
C602 C601 1.287 . S
C602 C603 1.524 . S
C602 H621 0.913 . S
C603 H579 0.950 . S
C603 C602 1.524 . S
C603 C604 1.415 . S
C604 H580 0.950 . S
C604 C599 1.363 . S
C604 C603 1.415 . S
C605 H581 0.951 . S
C605 C606 1.366 . S
C605 C607 1.388 . S
C606 C605 1.366 . S
C606 C610 1.385 . S
C607 H582 0.951 . S
C607 C605 1.388 . S
C607 C608 1.366 . S
C608 C607 1.366 . S
C608 C609 1.414 . S
C608 C611 1.499 . S
C609 H583 0.950 . S
C609 C608 1.414 . S
C609 C610 1.374 . S
C610 H584 0.950 . S
C610 C606 1.385 . S
C610 C609 1.374 . S
C611 C608 1.499 . S
C611 C612 1.373 . S
C611 C613 1.389 . S
C612 H585 0.950 . S
C612 C598 1.377 . S
C612 C611 1.373 . S
C613 C597 1.377 . S
C613 C611 1.389 . S
C613 C614 1.524 . S
C614 C613 1.524 . S
C614 C615 1.397 . S
C614 C619 1.363 . S
C615 H586 0.950 . S
C615 C614 1.397 . S
C615 C616 1.334 . S
C616 H587 0.950 . S
C616 C615 1.334 . S
C616 C617 1.287 . S
C617 C616 1.287 . S
C617 C618 1.524 . S
C617 H620 0.999 . S
C618 H588 0.950 . S
C618 C617 1.524 . S
C618 C619 1.415 . S
C619 H589 0.950 . S
C619 C614 1.363 . S
C619 C618 1.415 . S
H620 C617 0.999 . S
H621 C602 0.913 . S
H622 C640 0.951 . S
H623 C642 0.951 . S
H624 C644 0.950 . S
H625 C645 0.950 . S
H626 C647 0.950 . S
H627 C650 0.950 . S
H628 C651 0.950 . S
H629 C653 0.950 . S
H630 C654 0.950 . S
H631 C655 0.951 . S
H632 C657 0.951 . S
H633 C659 0.950 . S
H634 C660 0.950 . S
H635 C662 0.950 . S
H636 C665 0.950 . S
H637 C666 0.950 . S
H638 C668 0.950 . S
H639 C669 0.950 . S
C640 H622 0.951 . S
C640 C641 1.366 . S
C640 C642 1.388 . S
C641 C640 1.366 . S
C641 C645 1.385 . S
C642 H623 0.951 . S
C642 C640 1.388 . S
C642 C643 1.366 . S
C643 C642 1.366 . S
C643 C644 1.414 . S
C643 C646 1.499 . S
C644 H624 0.950 . S
C644 C643 1.414 . S
C644 C645 1.374 . S
C645 H625 0.950 . S
C645 C641 1.385 . S
C645 C644 1.374 . S
C646 C643 1.499 . S
C646 C647 1.373 . S
C646 C648 1.389 . S
C647 H626 0.950 . S
C647 C646 1.373 . S
C647 C663 1.377 . S
C648 C646 1.389 . S
C648 C649 1.524 . S
C648 C662 1.377 . S
C649 C648 1.524 . S
C649 C650 1.397 . S
C649 C654 1.363 . S
C650 H627 0.950 . S
C650 C649 1.397 . S
C650 C651 1.334 . S
C651 H628 0.950 . S
C651 C650 1.334 . S
C651 C652 1.287 . S
C652 C651 1.287 . S
C652 C653 1.524 . S
C652 H671 0.913 . S
C653 H629 0.950 . S
C653 C652 1.524 . S
C653 C654 1.415 . S
C654 H630 0.950 . S
C654 C649 1.363 . S
C654 C653 1.415 . S
C655 H631 0.951 . S
C655 C656 1.366 . S
C655 C657 1.388 . S
C656 C655 1.366 . S
C656 C660 1.385 . S
C657 H632 0.951 . S
C657 C655 1.388 . S
C657 C658 1.366 . S
C658 C657 1.366 . S
C658 C659 1.414 . S
C658 C661 1.499 . S
C659 H633 0.950 . S
C659 C658 1.414 . S
C659 C660 1.374 . S
C660 H634 0.950 . S
C660 C656 1.385 . S
C660 C659 1.374 . S
C661 C658 1.499 . S
C661 C662 1.373 . S
C661 C663 1.389 . S
C662 H635 0.950 . S
C662 C648 1.377 . S
C662 C661 1.373 . S
C663 C647 1.377 . S
C663 C661 1.389 . S
C663 C664 1.524 . S
C664 C663 1.524 . S
C664 C665 1.397 . S
C664 C669 1.363 . S
C665 H636 0.950 . S
C665 C664 1.397 . S
C665 C666 1.334 . S
C666 H637 0.950 . S
C666 C665 1.334 . S
C666 C667 1.287 . S
C667 C666 1.287 . S
C667 C668 1.524 . S
C667 H670 0.999 . S
C668 H638 0.950 . S
C668 C667 1.524 . S
C668 C669 1.415 . S
C669 H639 0.950 . S
C669 C664 1.363 . S
C669 C668 1.415 . S
H670 C667 0.999 . S
H671 C652 0.913 . S
H672 C690 0.951 . S
H673 C692 0.951 . S
H674 C694 0.950 . S
H675 C695 0.950 . S
H676 C697 0.950 . S
H677 C700 0.950 . S
H678 C701 0.950 . S
H679 C703 0.950 . S
H680 C704 0.950 . S
H681 C705 0.951 . S
H682 C707 0.951 . S
H683 C709 0.950 . S
H684 C710 0.950 . S
H685 C712 0.950 . S
H686 C715 0.950 . S
H687 C716 0.950 . S
H688 C718 0.950 . S
H689 C719 0.950 . S
C690 H672 0.951 . S
C690 C691 1.366 . S
C690 C692 1.388 . S
C691 C690 1.366 . S
C691 C695 1.385 . S
C692 H673 0.951 . S
C692 C690 1.388 . S
C692 C693 1.366 . S
C693 C692 1.366 . S
C693 C694 1.414 . S
C693 C696 1.499 . S
C694 H674 0.950 . S
C694 C693 1.414 . S
C694 C695 1.374 . S
C695 H675 0.950 . S
C695 C691 1.385 . S
C695 C694 1.374 . S
C696 C693 1.499 . S
C696 C697 1.373 . S
C696 C698 1.389 . S
C697 H676 0.950 . S
C697 C696 1.373 . S
C697 C713 1.377 . S
C698 C696 1.389 . S
C698 C699 1.524 . S
C698 C712 1.377 . S
C699 C698 1.524 . S
C699 C700 1.397 . S
C699 C704 1.363 . S
C700 H677 0.950 . S
C700 C699 1.397 . S
C700 C701 1.334 . S
C701 H678 0.950 . S
C701 C700 1.334 . S
C701 C702 1.287 . S
C702 C701 1.287 . S
C702 C703 1.524 . S
C702 H721 0.913 . S
C703 H679 0.950 . S
C703 C702 1.524 . S
C703 C704 1.415 . S
C704 H680 0.950 . S
C704 C699 1.363 . S
C704 C703 1.415 . S
C705 H681 0.951 . S
C705 C706 1.366 . S
C705 C707 1.388 . S
C706 C705 1.366 . S
C706 C710 1.385 . S
C707 H682 0.951 . S
C707 C705 1.388 . S
C707 C708 1.366 . S
C708 C707 1.366 . S
C708 C709 1.414 . S
C708 C711 1.499 . S
C709 H683 0.950 . S
C709 C708 1.414 . S
C709 C710 1.374 . S
C710 H684 0.950 . S
C710 C706 1.385 . S
C710 C709 1.374 . S
C711 C708 1.499 . S
C711 C712 1.373 . S
C711 C713 1.389 . S
C712 H685 0.950 . S
C712 C698 1.377 . S
C712 C711 1.373 . S
C713 C697 1.377 . S
C713 C711 1.389 . S
C713 C714 1.524 . S
C714 C713 1.524 . S
C714 C715 1.397 . S
C714 C719 1.363 . S
C715 H686 0.950 . S
C715 C714 1.397 . S
C715 C716 1.334 . S
C716 H687 0.950 . S
C716 C715 1.334 . S
C716 C717 1.287 . S
C717 C716 1.287 . S
C717 C718 1.524 . S
C717 H720 0.999 . S
C718 H688 0.950 . S
C718 C717 1.524 . S
C718 C719 1.415 . S
C719 H689 0.950 . S
C719 C714 1.363 . S
C719 C718 1.415 . S
H720 C717 0.999 . S
H721 C702 0.913 . S
H722 C740 0.951 . S
H723 C742 0.951 . S
H724 C744 0.950 . S
H725 C745 0.950 . S
H726 C747 0.950 . S
H727 C750 0.950 . S
H728 C751 0.950 . S
H729 C753 0.950 . S
H730 C754 0.950 . S
H731 C755 0.951 . S
H732 C757 0.951 . S
H733 C759 0.950 . S
H734 C760 0.950 . S
H735 C762 0.950 . S
H736 C765 0.950 . S
H737 C766 0.950 . S
H738 C768 0.950 . S
H739 C769 0.950 . S
C740 H722 0.951 . S
C740 C741 1.366 . S
C740 C742 1.388 . S
C741 C740 1.366 . S
C741 C745 1.385 . S
C742 H723 0.951 . S
C742 C740 1.388 . S
C742 C743 1.366 . S
C743 C742 1.366 . S
C743 C744 1.414 . S
C743 C746 1.499 . S
C744 H724 0.950 . S
C744 C743 1.414 . S
C744 C745 1.374 . S
C745 H725 0.950 . S
C745 C741 1.385 . S
C745 C744 1.374 . S
C746 C743 1.499 . S
C746 C747 1.373 . S
C746 C748 1.389 . S
C747 H726 0.950 . S
C747 C746 1.373 . S
C747 C763 1.377 . S
C748 C746 1.389 . S
C748 C749 1.524 . S
C748 C762 1.377 . S
C749 C748 1.524 . S
C749 C750 1.397 . S
C749 C754 1.363 . S
C750 H727 0.950 . S
C750 C749 1.397 . S
C750 C751 1.334 . S
C751 H728 0.950 . S
C751 C750 1.334 . S
C751 C752 1.287 . S
C752 C751 1.287 . S
C752 C753 1.524 . S
C752 H771 0.913 . S
C753 H729 0.950 . S
C753 C752 1.524 . S
C753 C754 1.415 . S
C754 H730 0.950 . S
C754 C749 1.363 . S
C754 C753 1.415 . S
C755 H731 0.951 . S
C755 C756 1.366 . S
C755 C757 1.388 . S
C756 C755 1.366 . S
C756 C760 1.385 . S
C757 H732 0.951 . S
C757 C755 1.388 . S
C757 C758 1.366 . S
C758 C757 1.366 . S
C758 C759 1.414 . S
C758 C761 1.499 . S
C759 H733 0.950 . S
C759 C758 1.414 . S
C759 C760 1.374 . S
C760 H734 0.950 . S
C760 C756 1.385 . S
C760 C759 1.374 . S
C761 C758 1.499 . S
C761 C762 1.373 . S
C761 C763 1.389 . S
C762 H735 0.950 . S
C762 C748 1.377 . S
C762 C761 1.373 . S
C763 C747 1.377 . S
C763 C761 1.389 . S
C763 C764 1.524 . S
C764 C763 1.524 . S
C764 C765 1.397 . S
C764 C769 1.363 . S
C765 H736 0.950 . S
C765 C764 1.397 . S
C765 C766 1.334 . S
C766 H737 0.950 . S
C766 C765 1.334 . S
C766 C767 1.287 . S
C767 C766 1.287 . S
C767 C768 1.524 . S
C767 H770 0.999 . S
C768 H738 0.950 . S
C768 C767 1.524 . S
C768 C769 1.415 . S
C769 H739 0.950 . S
C769 C764 1.363 . S
C769 C768 1.415 . S
H770 C767 0.999 . S
H771 C752 0.913 . S
H772 C790 0.951 . S
H773 C792 0.951 . S
H774 C794 0.950 . S
H775 C795 0.950 . S
H776 C797 0.950 . S
H777 C800 0.950 . S
H778 C801 0.950 . S
H779 C803 0.950 . S
H780 C804 0.950 . S
H781 C805 0.951 . S
H782 C807 0.951 . S
H783 C809 0.950 . S
H784 C810 0.950 . S
H785 C812 0.950 . S
H786 C815 0.950 . S
H787 C816 0.950 . S
H788 C818 0.950 . S
H789 C819 0.950 . S
C790 H772 0.951 . S
C790 C791 1.366 . S
C790 C792 1.388 . S
C791 C790 1.366 . S
C791 C795 1.385 . S
C792 H773 0.951 . S
C792 C790 1.388 . S
C792 C793 1.366 . S
C793 C792 1.366 . S
C793 C794 1.414 . S
C793 C796 1.499 . S
C794 H774 0.950 . S
C794 C793 1.414 . S
C794 C795 1.374 . S
C795 H775 0.950 . S
C795 C791 1.385 . S
C795 C794 1.374 . S
C796 C793 1.499 . S
C796 C797 1.373 . S
C796 C798 1.389 . S
C797 H776 0.950 . S
C797 C796 1.373 . S
C797 C813 1.377 . S
C798 C796 1.389 . S
C798 C799 1.524 . S
C798 C812 1.377 . S
C799 C798 1.524 . S
C799 C800 1.397 . S
C799 C804 1.363 . S
C800 H777 0.950 . S
C800 C799 1.397 . S
C800 C801 1.334 . S
C801 H778 0.950 . S
C801 C800 1.334 . S
C801 C802 1.287 . S
C802 C801 1.287 . S
C802 C803 1.524 . S
C802 H821 0.913 . S
C803 H779 0.950 . S
C803 C802 1.524 . S
C803 C804 1.415 . S
C804 H780 0.950 . S
C804 C799 1.363 . S
C804 C803 1.415 . S
C805 H781 0.951 . S
C805 C806 1.366 . S
C805 C807 1.388 . S
C806 C805 1.366 . S
C806 C810 1.385 . S
C807 H782 0.951 . S
C807 C805 1.388 . S
C807 C808 1.366 . S
C808 C807 1.366 . S
C808 C809 1.414 . S
C808 C811 1.499 . S
C809 H783 0.950 . S
C809 C808 1.414 . S
C809 C810 1.374 . S
C810 H784 0.950 . S
C810 C806 1.385 . S
C810 C809 1.374 . S
C811 C808 1.499 . S
C811 C812 1.373 . S
C811 C813 1.389 . S
C812 H785 0.950 . S
C812 C798 1.377 . S
C812 C811 1.373 . S
C813 C797 1.377 . S
C813 C811 1.389 . S
C813 C814 1.524 . S
C814 C813 1.524 . S
C814 C815 1.397 . S
C814 C819 1.363 . S
C815 H786 0.950 . S
C815 C814 1.397 . S
C815 C816 1.334 . S
C816 H787 0.950 . S
C816 C815 1.334 . S
C816 C817 1.287 . S
C817 C816 1.287 . S
C817 C818 1.524 . S
C817 H820 0.999 . S
C818 H788 0.950 . S
C818 C817 1.524 . S
C818 C819 1.415 . S
C819 H789 0.950 . S
C819 C814 1.363 . S
C819 C818 1.415 . S
H820 C817 0.999 . S
H821 C802 0.913 . S
H822 C840 0.951 . S
H823 C842 0.951 . S
H824 C844 0.950 . S
H825 C845 0.950 . S
H826 C847 0.950 . S
H827 C850 0.950 . S
H828 C851 0.950 . S
H829 C853 0.950 . S
H830 C854 0.950 . S
H831 C855 0.951 . S
H832 C857 0.951 . S
H833 C859 0.950 . S
H834 C860 0.950 . S
H835 C862 0.950 . S
H836 C865 0.950 . S
H837 C866 0.950 . S
H838 C868 0.950 . S
H839 C869 0.950 . S
C840 H822 0.951 . S
C840 C841 1.366 . S
C840 C842 1.388 . S
C841 C840 1.366 . S
C841 C845 1.385 . S
C842 H823 0.951 . S
C842 C840 1.388 . S
C842 C843 1.366 . S
C843 C842 1.366 . S
C843 C844 1.414 . S
C843 C846 1.499 . S
C844 H824 0.950 . S
C844 C843 1.414 . S
C844 C845 1.374 . S
C845 H825 0.950 . S
C845 C841 1.385 . S
C845 C844 1.374 . S
C846 C843 1.499 . S
C846 C847 1.373 . S
C846 C848 1.389 . S
C847 H826 0.950 . S
C847 C846 1.373 . S
C847 C863 1.377 . S
C848 C846 1.389 . S
C848 C849 1.524 . S
C848 C862 1.377 . S
C849 C848 1.524 . S
C849 C850 1.397 . S
C849 C854 1.363 . S
C850 H827 0.950 . S
C850 C849 1.397 . S
C850 C851 1.334 . S
C851 H828 0.950 . S
C851 C850 1.334 . S
C851 C852 1.287 . S
C852 C851 1.287 . S
C852 C853 1.524 . S
C852 H871 0.913 . S
C853 H829 0.950 . S
C853 C852 1.524 . S
C853 C854 1.415 . S
C854 H830 0.950 . S
C854 C849 1.363 . S
C854 C853 1.415 . S
C855 H831 0.951 . S
C855 C856 1.366 . S
C855 C857 1.388 . S
C856 C855 1.366 . S
C856 C860 1.385 . S
C857 H832 0.951 . S
C857 C855 1.388 . S
C857 C858 1.366 . S
C858 C857 1.366 . S
C858 C859 1.414 . S
C858 C861 1.499 . S
C859 H833 0.950 . S
C859 C858 1.414 . S
C859 C860 1.374 . S
C860 H834 0.950 . S
C860 C856 1.385 . S
C860 C859 1.374 . S
C861 C858 1.499 . S
C861 C862 1.373 . S
C861 C863 1.389 . S
C862 H835 0.950 . S
C862 C848 1.377 . S
C862 C861 1.373 . S
C863 C847 1.377 . S
C863 C861 1.389 . S
C863 C864 1.524 . S
C864 C863 1.524 . S
C864 C865 1.397 . S
C864 C869 1.363 . S
C865 H836 0.950 . S
C865 C864 1.397 . S
C865 C866 1.334 . S
C866 H837 0.950 . S
C866 C865 1.334 . S
C866 C867 1.287 . S
C867 C866 1.287 . S
C867 C868 1.524 . S
C867 H870 0.999 . S
C868 H838 0.950 . S
C868 C867 1.524 . S
C868 C869 1.415 . S
C869 H839 0.950 . S
C869 C864 1.363 . S
C869 C868 1.415 . S
H870 C867 0.999 . S
H871 C852 0.913 . S
H872 C890 0.951 . S
H873 C892 0.951 . S
H874 C894 0.950 . S
H875 C895 0.950 . S
H876 C897 0.950 . S
H877 C900 0.950 . S
H878 C901 0.950 . S
H879 C903 0.950 . S
H880 C904 0.950 . S
H881 C905 0.951 . S
H882 C907 0.951 . S
H883 C909 0.950 . S
H884 C910 0.950 . S
H885 C912 0.950 . S
H886 C915 0.950 . S
H887 C916 0.950 . S
H888 C918 0.950 . S
H889 C919 0.950 . S
C890 H872 0.951 . S
C890 C891 1.366 . S
C890 C892 1.388 . S
C891 C890 1.366 . S
C891 C895 1.385 . S
C892 H873 0.951 . S
C892 C890 1.388 . S
C892 C893 1.366 . S
C893 C892 1.366 . S
C893 C894 1.414 . S
C893 C896 1.499 . S
C894 H874 0.950 . S
C894 C893 1.414 . S
C894 C895 1.374 . S
C895 H875 0.950 . S
C895 C891 1.385 . S
C895 C894 1.374 . S
C896 C893 1.499 . S
C896 C897 1.373 . S
C896 C898 1.389 . S
C897 H876 0.950 . S
C897 C896 1.373 . S
C897 C913 1.377 . S
C898 C896 1.389 . S
C898 C899 1.524 . S
C898 C912 1.377 . S
C899 C898 1.524 . S
C899 C900 1.397 . S
C899 C904 1.363 . S
C900 H877 0.950 . S
C900 C899 1.397 . S
C900 C901 1.334 . S
C901 H878 0.950 . S
C901 C900 1.334 . S
C901 C902 1.287 . S
C902 C901 1.287 . S
C902 C903 1.524 . S
C902 H921 0.913 . S
C903 H879 0.950 . S
C903 C902 1.524 . S
C903 C904 1.415 . S
C904 H880 0.950 . S
C904 C899 1.363 . S
C904 C903 1.415 . S
C905 H881 0.951 . S
C905 C906 1.366 . S
C905 C907 1.388 . S
C906 C905 1.366 . S
C906 C910 1.385 . S
C907 H882 0.951 . S
C907 C905 1.388 . S
C907 C908 1.366 . S
C908 C907 1.366 . S
C908 C909 1.414 . S
C908 C911 1.499 . S
C909 H883 0.950 . S
C909 C908 1.414 . S
C909 C910 1.374 . S
C910 H884 0.950 . S
C910 C906 1.385 . S
C910 C909 1.374 . S
C911 C908 1.499 . S
C911 C912 1.373 . S
C911 C913 1.389 . S
C912 H885 0.950 . S
C912 C898 1.377 . S
C912 C911 1.373 . S
C913 C897 1.377 . S
C913 C911 1.389 . S
C913 C914 1.524 . S
C914 C913 1.524 . S
C914 C915 1.397 . S
C914 C919 1.363 . S
C915 H886 0.950 . S
C915 C914 1.397 . S
C915 C916 1.334 . S
C916 H887 0.950 . S
C916 C915 1.334 . S
C916 C917 1.287 . S
C917 C916 1.287 . S
C917 C918 1.524 . S
C917 H920 0.999 . S
C918 H888 0.950 . S
C918 C917 1.524 . S
C918 C919 1.415 . S
C919 H889 0.950 . S
C919 C914 1.363 . S
C919 C918 1.415 . S
H920 C917 0.999 . S
H921 C902 0.913 . S
H922 C940 0.951 . S
H923 C942 0.951 . S
H924 C944 0.950 . S
H925 C945 0.950 . S
H926 C947 0.950 . S
H927 C950 0.950 . S
H928 C951 0.950 . S
H929 C953 0.950 . S
H930 C954 0.950 . S
H931 C955 0.951 . S
H932 C957 0.951 . S
H933 C959 0.950 . S
H934 C960 0.950 . S
H935 C962 0.950 . S
H936 C965 0.950 . S
H937 C966 0.950 . S
H938 C968 0.950 . S
H939 C969 0.950 . S
C940 H922 0.951 . S
C940 C941 1.366 . S
C940 C942 1.388 . S
C941 C940 1.366 . S
C941 C945 1.385 . S
C942 H923 0.951 . S
C942 C940 1.388 . S
C942 C943 1.366 . S
C943 C942 1.366 . S
C943 C944 1.414 . S
C943 C946 1.499 . S
C944 H924 0.950 . S
C944 C943 1.414 . S
C944 C945 1.374 . S
C945 H925 0.950 . S
C945 C941 1.385 . S
C945 C944 1.374 . S
C946 C943 1.499 . S
C946 C947 1.373 . S
C946 C948 1.389 . S
C947 H926 0.950 . S
C947 C946 1.373 . S
C947 C963 1.377 . S
C948 C946 1.389 . S
C948 C949 1.524 . S
C948 C962 1.377 . S
C949 C948 1.524 . S
C949 C950 1.397 . S
C949 C954 1.363 . S
C950 H927 0.950 . S
C950 C949 1.397 . S
C950 C951 1.334 . S
C951 H928 0.950 . S
C951 C950 1.334 . S
C951 C952 1.287 . S
C952 C951 1.287 . S
C952 C953 1.524 . S
C952 H971 0.913 . S
C953 H929 0.950 . S
C953 C952 1.524 . S
C953 C954 1.415 . S
C954 H930 0.950 . S
C954 C949 1.363 . S
C954 C953 1.415 . S
C955 H931 0.951 . S
C955 C956 1.366 . S
C955 C957 1.388 . S
C956 C955 1.366 . S
C956 C960 1.385 . S
C957 H932 0.951 . S
C957 C955 1.388 . S
C957 C958 1.366 . S
C958 C957 1.366 . S
C958 C959 1.414 . S
C958 C961 1.499 . S
C959 H933 0.950 . S
C959 C958 1.414 . S
C959 C960 1.374 . S
C960 H934 0.950 . S
C960 C956 1.385 . S
C960 C959 1.374 . S
C961 C958 1.499 . S
C961 C962 1.373 . S
C961 C963 1.389 . S
C962 H935 0.950 . S
C962 C948 1.377 . S
C962 C961 1.373 . S
C963 C947 1.377 . S
C963 C961 1.389 . S
C963 C964 1.524 . S
C964 C963 1.524 . S
C964 C965 1.397 . S
C964 C969 1.363 . S
C965 H936 0.950 . S
C965 C964 1.397 . S
C965 C966 1.334 . S
C966 H937 0.950 . S
C966 C965 1.334 . S
C966 C967 1.287 . S
C967 C966 1.287 . S
C967 C968 1.524 . S
C967 H970 0.999 . S
C968 H938 0.950 . S
C968 C967 1.524 . S
C968 C969 1.415 . S
C969 H939 0.950 . S
C969 C964 1.363 . S
C969 C968 1.415 . S
H970 C967 0.999 . S
H971 C952 0.913 . S
H972 C990 0.951 . S
H973 C992 0.951 . S
H974 C994 0.950 . S
H975 C995 0.950 . S
H976 C997 0.950 . S
H977 C1000 0.950 . S
H978 C1001 0.950 . S
H979 C1003 0.950 . S
H980 C1004 0.950 . S
H981 C1005 0.951 . S
H982 C1007 0.951 . S
H983 C1009 0.950 . S
H984 C1010 0.950 . S
H985 C1012 0.950 . S
H986 C1015 0.950 . S
H987 C1016 0.950 . S
H988 C1018 0.950 . S
H989 C1019 0.950 . S
C990 H972 0.951 . S
C990 C991 1.366 . S
C990 C992 1.388 . S
C991 C990 1.366 . S
C991 C995 1.385 . S
C992 H973 0.951 . S
C992 C990 1.388 . S
C992 C993 1.366 . S
C993 C992 1.366 . S
C993 C994 1.414 . S
C993 C996 1.499 . S
C994 H974 0.950 . S
C994 C993 1.414 . S
C994 C995 1.374 . S
C995 H975 0.950 . S
C995 C991 1.385 . S
C995 C994 1.374 . S
C996 C993 1.499 . S
C996 C997 1.373 . S
C996 C998 1.389 . S
C997 H976 0.950 . S
C997 C996 1.373 . S
C997 C1013 1.377 . S
C998 C996 1.389 . S
C998 C999 1.524 . S
C998 C1012 1.377 . S
C999 C998 1.524 . S
C999 C1000 1.397 . S
C999 C1004 1.363 . S
C1000 H977 0.950 . S
C1000 C999 1.397 . S
C1000 C1001 1.334 . S
C1001 H978 0.950 . S
C1001 C1000 1.334 . S
C1001 C1002 1.287 . S
C1002 C1001 1.287 . S
C1002 C1003 1.524 . S
C1002 H1021 0.913 . S
C1003 H979 0.950 . S
C1003 C1002 1.524 . S
C1003 C1004 1.415 . S
C1004 H980 0.950 . S
C1004 C999 1.363 . S
C1004 C1003 1.415 . S
C1005 H981 0.951 . S
C1005 C1006 1.366 . S
C1005 C1007 1.388 . S
C1006 C1005 1.366 . S
C1006 C1010 1.385 . S
C1007 H982 0.951 . S
C1007 C1005 1.388 . S
C1007 C1008 1.366 . S
C1008 C1007 1.366 . S
C1008 C1009 1.414 . S
C1008 C1011 1.499 . S
C1009 H983 0.950 . S
C1009 C1008 1.414 . S
C1009 C1010 1.374 . S
C1010 H984 0.950 . S
C1010 C1006 1.385 . S
C1010 C1009 1.374 . S
C1011 C1008 1.499 . S
C1011 C1012 1.373 . S
C1011 C1013 1.389 . S
C1012 H985 0.950 . S
C1012 C998 1.377 . S
C1012 C1011 1.373 . S
C1013 C997 1.377 . S
C1013 C1011 1.389 . S
C1013 C1014 1.524 . S
C1014 C1013 1.524 . S
C1014 C1015 1.397 . S
C1014 C1019 1.363 . S
C1015 H986 0.950 . S
C1015 C1014 1.397 . S
C1015 C1016 1.334 . S
C1016 H987 0.950 . S
C1016 C1015 1.334 . S
C1016 C1017 1.287 . S
C1017 C1016 1.287 . S
C1017 C1018 1.524 . S
C1017 H1020 0.999 . S
C1018 H988 0.950 . S
C1018 C1017 1.524 . S
C1018 C1019 1.415 . S
C1019 H989 0.950 . S
C1019 C1014 1.363 . S
C1019 C1018 1.415 . S
H1020 C1017 0.999 . S
H1021 C1002 0.913 . S
H1022 C1040 0.951 . S
H1023 C1042 0.951 . S
H1024 C1044 0.950 . S
H1025 C1045 0.950 . S
H1026 C1047 0.950 . S
H1027 C1050 0.950 . S
H1028 C1051 0.950 . S
H1029 C1053 0.950 . S
H1030 C1054 0.950 . S
H1031 C1055 0.951 . S
H1032 C1057 0.951 . S
H1033 C1059 0.950 . S
H1034 C1060 0.950 . S
H1035 C1062 0.950 . S
H1036 C1065 0.950 . S
H1037 C1066 0.950 . S
H1038 C1068 0.950 . S
H1039 C1069 0.950 . S
C1040 H1022 0.951 . S
C1040 C1041 1.366 . S
C1040 C1042 1.388 . S
C1041 C1040 1.366 . S
C1041 C1045 1.385 . S
C1042 H1023 0.951 . S
C1042 C1040 1.388 . S
C1042 C1043 1.366 . S
C1043 C1042 1.366 . S
C1043 C1044 1.414 . S
C1043 C1046 1.499 . S
C1044 H1024 0.950 . S
C1044 C1043 1.414 . S
C1044 C1045 1.374 . S
C1045 H1025 0.950 . S
C1045 C1041 1.385 . S
C1045 C1044 1.374 . S
C1046 C1043 1.499 . S
C1046 C1047 1.373 . S
C1046 C1048 1.389 . S
C1047 H1026 0.950 . S
C1047 C1046 1.373 . S
C1047 C1063 1.377 . S
C1048 C1046 1.389 . S
C1048 C1049 1.524 . S
C1048 C1062 1.377 . S
C1049 C1048 1.524 . S
C1049 C1050 1.397 . S
C1049 C1054 1.363 . S
C1050 H1027 0.950 . S
C1050 C1049 1.397 . S
C1050 C1051 1.334 . S
C1051 H1028 0.950 . S
C1051 C1050 1.334 . S
C1051 C1052 1.287 . S
C1052 C1051 1.287 . S
C1052 C1053 1.524 . S
C1052 H1071 0.913 . S
C1053 H1029 0.950 . S
C1053 C1052 1.524 . S
C1053 C1054 1.415 . S
C1054 H1030 0.950 . S
C1054 C1049 1.363 . S
C1054 C1053 1.415 . S
C1055 H1031 0.951 . S
C1055 C1056 1.366 . S
C1055 C1057 1.388 . S
C1056 C1055 1.366 . S
C1056 C1060 1.385 . S
C1057 H1032 0.951 . S
C1057 C1055 1.388 . S
C1057 C1058 1.366 . S
C1058 C1057 1.366 . S
C1058 C1059 1.414 . S
C1058 C1061 1.499 . S
C1059 H1033 0.950 . S
C1059 C1058 1.414 . S
C1059 C1060 1.374 . S
C1060 H1034 0.950 . S
C1060 C1056 1.385 . S
C1060 C1059 1.374 . S
C1061 C1058 1.499 . S
C1061 C1062 1.373 . S
C1061 C1063 1.389 . S
C1062 H1035 0.950 . S
C1062 C1048 1.377 . S
C1062 C1061 1.373 . S
C1063 C1047 1.377 . S
C1063 C1061 1.389 . S
C1063 C1064 1.524 . S
C1064 C1063 1.524 . S
C1064 C1065 1.397 . S
C1064 C1069 1.363 . S
C1065 H1036 0.950 . S
C1065 C1064 1.397 . S
C1065 C1066 1.334 . S
C1066 H1037 0.950 . S
C1066 C1065 1.334 . S
C1066 C1067 1.287 . S
C1067 C1066 1.287 . S
C1067 C1068 1.524 . S
C1067 H1070 0.999 . S
C1068 H1038 0.950 . S
C1068 C1067 1.524 . S
C1068 C1069 1.415 . S
C1069 H1039 0.950 . S
C1069 C1064 1.363 . S
C1069 C1068 1.415 . S
H1070 C1067 0.999 . S
H1071 C1052 0.913 . S
H1072 C1090 0.951 . S
H1073 C1092 0.951 . S
H1074 C1094 0.950 . S
H1075 C1095 0.950 . S
H1076 C1097 0.950 . S
H1077 C1100 0.950 . S
H1078 C1101 0.950 . S
H1079 C1103 0.950 . S
H1080 C1104 0.950 . S
H1081 C1105 0.951 . S
H1082 C1107 0.951 . S
H1083 C1109 0.950 . S
H1084 C1110 0.950 . S
H1085 C1112 0.950 . S
H1086 C1115 0.950 . S
H1087 C1116 0.950 . S
H1088 C1118 0.950 . S
H1089 C1119 0.950 . S
C1090 H1072 0.951 . S
C1090 C1091 1.366 . S
C1090 C1092 1.388 . S
C1091 C1090 1.366 . S
C1091 C1095 1.385 . S
C1092 H1073 0.951 . S
C1092 C1090 1.388 . S
C1092 C1093 1.366 . S
C1093 C1092 1.366 . S
C1093 C1094 1.414 . S
C1093 C1096 1.499 . S
C1094 H1074 0.950 . S
C1094 C1093 1.414 . S
C1094 C1095 1.374 . S
C1095 H1075 0.950 . S
C1095 C1091 1.385 . S
C1095 C1094 1.374 . S
C1096 C1093 1.499 . S
C1096 C1097 1.373 . S
C1096 C1098 1.389 . S
C1097 H1076 0.950 . S
C1097 C1096 1.373 . S
C1097 C1113 1.377 . S
C1098 C1096 1.389 . S
C1098 C1099 1.524 . S
C1098 C1112 1.377 . S
C1099 C1098 1.524 . S
C1099 C1100 1.397 . S
C1099 C1104 1.363 . S
C1100 H1077 0.950 . S
C1100 C1099 1.397 . S
C1100 C1101 1.334 . S
C1101 H1078 0.950 . S
C1101 C1100 1.334 . S
C1101 C1102 1.287 . S
C1102 C1101 1.287 . S
C1102 C1103 1.524 . S
C1102 H1121 0.913 . S
C1103 H1079 0.950 . S
C1103 C1102 1.524 . S
C1103 C1104 1.415 . S
C1104 H1080 0.950 . S
C1104 C1099 1.363 . S
C1104 C1103 1.415 . S
C1105 H1081 0.951 . S
C1105 C1106 1.366 . S
C1105 C1107 1.388 . S
C1106 C1105 1.366 . S
C1106 C1110 1.385 . S
C1107 H1082 0.951 . S
C1107 C1105 1.388 . S
C1107 C1108 1.366 . S
C1108 C1107 1.366 . S
C1108 C1109 1.414 . S
C1108 C1111 1.499 . S
C1109 H1083 0.950 . S
C1109 C1108 1.414 . S
C1109 C1110 1.374 . S
C1110 H1084 0.950 . S
C1110 C1106 1.385 . S
C1110 C1109 1.374 . S
C1111 C1108 1.499 . S
C1111 C1112 1.373 . S
C1111 C1113 1.389 . S
C1112 H1085 0.950 . S
C1112 C1098 1.377 . S
C1112 C1111 1.373 . S
C1113 C1097 1.377 . S
C1113 C1111 1.389 . S
C1113 C1114 1.524 . S
C1114 C1113 1.524 . S
C1114 C1115 1.397 . S
C1114 C1119 1.363 . S
C1115 H1086 0.950 . S
C1115 C1114 1.397 . S
C1115 C1116 1.334 . S
C1116 H1087 0.950 . S
C1116 C1115 1.334 . S
C1116 C1117 1.287 . S
C1117 C1116 1.287 . S
C1117 C1118 1.524 . S
C1117 H1120 0.999 . S
C1118 H1088 0.950 . S
C1118 C1117 1.524 . S
C1118 C1119 1.415 . S
C1119 H1089 0.950 . S
C1119 C1114 1.363 . S
C1119 C1118 1.415 . S
H1120 C1117 0.999 . S
H1121 C1102 0.913 . S
H1122 C1140 0.951 . S
H1123 C1142 0.951 . S
H1124 C1144 0.950 . S
H1125 C1145 0.950 . S
H1126 C1147 0.950 . S
H1127 C1150 0.950 . S
H1128 C1151 0.950 . S
H1129 C1153 0.950 . S
H1130 C1154 0.950 . S
H1131 C1155 0.951 . S
H1132 C1157 0.951 . S
H1133 C1159 0.950 . S
H1134 C1160 0.950 . S
H1135 C1162 0.950 . S
H1136 C1165 0.950 . S
H1137 C1166 0.950 . S
H1138 C1168 0.950 . S
H1139 C1169 0.950 . S
C1140 H1122 0.951 . S
C1140 C1141 1.366 . S
C1140 C1142 1.388 . S
C1141 C1140 1.366 . S
C1141 C1145 1.385 . S
C1142 H1123 0.951 . S
C1142 C1140 1.388 . S
C1142 C1143 1.366 . S
C1143 C1142 1.366 . S
C1143 C1144 1.414 . S
C1143 C1146 1.499 . S
C1144 H1124 0.950 . S
C1144 C1143 1.414 . S
C1144 C1145 1.374 . S
C1145 H1125 0.950 . S
C1145 C1141 1.385 . S
C1145 C1144 1.374 . S
C1146 C1143 1.499 . S
C1146 C1147 1.373 . S
C1146 C1148 1.389 . S
C1147 H1126 0.950 . S
C1147 C1146 1.373 . S
C1147 C1163 1.377 . S
C1148 C1146 1.389 . S
C1148 C1149 1.524 . S
C1148 C1162 1.377 . S
C1149 C1148 1.524 . S
C1149 C1150 1.397 . S
C1149 C1154 1.363 . S
C1150 H1127 0.950 . S
C1150 C1149 1.397 . S
C1150 C1151 1.334 . S
C1151 H1128 0.950 . S
C1151 C1150 1.334 . S
C1151 C1152 1.287 . S
C1152 C1151 1.287 . S
C1152 C1153 1.524 . S
C1152 H1171 0.913 . S
C1153 H1129 0.950 . S
C1153 C1152 1.524 . S
C1153 C1154 1.415 . S
C1154 H1130 0.950 . S
C1154 C1149 1.363 . S
C1154 C1153 1.415 . S
C1155 H1131 0.951 . S
C1155 C1156 1.366 . S
C1155 C1157 1.388 . S
C1156 C1155 1.366 . S
C1156 C1160 1.385 . S
C1157 H1132 0.951 . S
C1157 C1155 1.388 . S
C1157 C1158 1.366 . S
C1158 C1157 1.366 . S
C1158 C1159 1.414 . S
C1158 C1161 1.499 . S
C1159 H1133 0.950 . S
C1159 C1158 1.414 . S
C1159 C1160 1.374 . S
C1160 H1134 0.950 . S
C1160 C1156 1.385 . S
C1160 C1159 1.374 . S
C1161 C1158 1.499 . S
C1161 C1162 1.373 . S
C1161 C1163 1.389 . S
C1162 H1135 0.950 . S
C1162 C1148 1.377 . S
C1162 C1161 1.373 . S
C1163 C1147 1.377 . S
C1163 C1161 1.389 . S
C1163 C1164 1.524 . S
C1164 C1163 1.524 . S
C1164 C1165 1.397 . S
C1164 C1169 1.363 . S
C1165 H1136 0.950 . S
C1165 C1164 1.397 . S
C1165 C1166 1.334 . S
C1166 H1137 0.950 . S
C1166 C1165 1.334 . S
C1166 C1167 1.287 . S
C1167 C1166 1.287 . S
C1167 C1168 1.524 . S
C1167 H1170 0.999 . S
C1168 H1138 0.950 . S
C1168 C1167 1.524 . S
C1168 C1169 1.415 . S
C1169 H1139 0.950 . S
C1169 C1164 1.363 . S
C1169 C1168 1.415 . S
H1170 C1167 0.999 . S
H1171 C1152 0.913 . S
H1172 C1190 0.951 . S
H1173 C1192 0.951 . S
H1174 C1194 0.950 . S
H1175 C1195 0.950 . S
H1176 C1197 0.950 . S
H1177 C1200 0.950 . S
H1178 C1201 0.950 . S
H1179 C1203 0.950 . S
H1180 C1204 0.950 . S
H1181 C1205 0.951 . S
H1182 C1207 0.951 . S
H1183 C1209 0.950 . S
H1184 C1210 0.950 . S
H1185 C1212 0.950 . S
H1186 C1215 0.950 . S
H1187 C1216 0.950 . S
H1188 C1218 0.950 . S
H1189 C1219 0.950 . S
C1190 H1172 0.951 . S
C1190 C1191 1.366 . S
C1190 C1192 1.388 . S
C1191 C1190 1.366 . S
C1191 C1195 1.385 . S
C1192 H1173 0.951 . S
C1192 C1190 1.388 . S
C1192 C1193 1.366 . S
C1193 C1192 1.366 . S
C1193 C1194 1.414 . S
C1193 C1196 1.499 . S
C1194 H1174 0.950 . S
C1194 C1193 1.414 . S
C1194 C1195 1.374 . S
C1195 H1175 0.950 . S
C1195 C1191 1.385 . S
C1195 C1194 1.374 . S
C1196 C1193 1.499 . S
C1196 C1197 1.373 . S
C1196 C1198 1.389 . S
C1197 H1176 0.950 . S
C1197 C1196 1.373 . S
C1197 C1213 1.377 . S
C1198 C1196 1.389 . S
C1198 C1199 1.524 . S
C1198 C1212 1.377 . S
C1199 C1198 1.524 . S
C1199 C1200 1.397 . S
C1199 C1204 1.363 . S
C1200 H1177 0.950 . S
C1200 C1199 1.397 . S
C1200 C1201 1.334 . S
C1201 H1178 0.950 . S
C1201 C1200 1.334 . S
C1201 C1202 1.287 . S
C1202 C1201 1.287 . S
C1202 C1203 1.524 . S
C1202 H1221 0.913 . S
C1203 H1179 0.950 . S
C1203 C1202 1.524 . S
C1203 C1204 1.415 . S
C1204 H1180 0.950 . S
C1204 C1199 1.363 . S
C1204 C1203 1.415 . S
C1205 H1181 0.951 . S
C1205 C1206 1.366 . S
C1205 C1207 1.388 . S
C1206 C1205 1.366 . S
C1206 C1210 1.385 . S
C1207 H1182 0.951 . S
C1207 C1205 1.388 . S
C1207 C1208 1.366 . S
C1208 C1207 1.366 . S
C1208 C1209 1.414 . S
C1208 C1211 1.499 . S
C1209 H1183 0.950 . S
C1209 C1208 1.414 . S
C1209 C1210 1.374 . S
C1210 H1184 0.950 . S
C1210 C1206 1.385 . S
C1210 C1209 1.374 . S
C1211 C1208 1.499 . S
C1211 C1212 1.373 . S
C1211 C1213 1.389 . S
C1212 H1185 0.950 . S
C1212 C1198 1.377 . S
C1212 C1211 1.373 . S
C1213 C1197 1.377 . S
C1213 C1211 1.389 . S
C1213 C1214 1.524 . S
C1214 C1213 1.524 . S
C1214 C1215 1.397 . S
C1214 C1219 1.363 . S
C1215 H1186 0.950 . S
C1215 C1214 1.397 . S
C1215 C1216 1.334 . S
C1216 H1187 0.950 . S
C1216 C1215 1.334 . S
C1216 C1217 1.287 . S
C1217 C1216 1.287 . S
C1217 C1218 1.524 . S
C1217 H1220 0.999 . S
C1218 H1188 0.950 . S
C1218 C1217 1.524 . S
C1218 C1219 1.415 . S
C1219 H1189 0.950 . S
C1219 C1214 1.363 . S
C1219 C1218 1.415 . S
H1220 C1217 0.999 . S
H1221 C1202 0.913 . S
H1222 C1240 0.951 . S
H1223 C1242 0.951 . S
H1224 C1244 0.950 . S
H1225 C1245 0.950 . S
H1226 C1247 0.950 . S
H1227 C1250 0.950 . S
H1228 C1251 0.950 . S
H1229 C1253 0.950 . S
H1230 C1254 0.950 . S
H1231 C1255 0.951 . S
H1232 C1257 0.951 . S
H1233 C1259 0.950 . S
H1234 C1260 0.950 . S
H1235 C1262 0.950 . S
H1236 C1265 0.950 . S
H1237 C1266 0.950 . S
H1238 C1268 0.950 . S
H1239 C1269 0.950 . S
C1240 H1222 0.951 . S
C1240 C1241 1.366 . S
C1240 C1242 1.388 . S
C1241 C1240 1.366 . S
C1241 C1245 1.385 . S
C1242 H1223 0.951 . S
C1242 C1240 1.388 . S
C1242 C1243 1.366 . S
C1243 C1242 1.366 . S
C1243 C1244 1.414 . S
C1243 C1246 1.499 . S
C1244 H1224 0.950 . S
C1244 C1243 1.414 . S
C1244 C1245 1.374 . S
C1245 H1225 0.950 . S
C1245 C1241 1.385 . S
C1245 C1244 1.374 . S
C1246 C1243 1.499 . S
C1246 C1247 1.373 . S
C1246 C1248 1.389 . S
C1247 H1226 0.950 . S
C1247 C1246 1.373 . S
C1247 C1263 1.377 . S
C1248 C1246 1.389 . S
C1248 C1249 1.524 . S
C1248 C1262 1.377 . S
C1249 C1248 1.524 . S
C1249 C1250 1.397 . S
C1249 C1254 1.363 . S
C1250 H1227 0.950 . S
C1250 C1249 1.397 . S
C1250 C1251 1.334 . S
C1251 H1228 0.950 . S
C1251 C1250 1.334 . S
C1251 C1252 1.287 . S
C1252 C1251 1.287 . S
C1252 C1253 1.524 . S
C1252 H1271 0.913 . S
C1253 H1229 0.950 . S
C1253 C1252 1.524 . S
C1253 C1254 1.415 . S
C1254 H1230 0.950 . S
C1254 C1249 1.363 . S
C1254 C1253 1.415 . S
C1255 H1231 0.951 . S
C1255 C1256 1.366 . S
C1255 C1257 1.388 . S
C1256 C1255 1.366 . S
C1256 C1260 1.385 . S
C1257 H1232 0.951 . S
C1257 C1255 1.388 . S
C1257 C1258 1.366 . S
C1258 C1257 1.366 . S
C1258 C1259 1.414 . S
C1258 C1261 1.499 . S
C1259 H1233 0.950 . S
C1259 C1258 1.414 . S
C1259 C1260 1.374 . S
C1260 H1234 0.950 . S
C1260 C1256 1.385 . S
C1260 C1259 1.374 . S
C1261 C1258 1.499 . S
C1261 C1262 1.373 . S
C1261 C1263 1.389 . S
C1262 H1235 0.950 . S
C1262 C1248 1.377 . S
C1262 C1261 1.373 . S
C1263 C1247 1.377 . S
C1263 C1261 1.389 . S
C1263 C1264 1.524 . S
C1264 C1263 1.524 . S
C1264 C1265 1.397 . S
C1264 C1269 1.363 . S
C1265 H1236 0.950 . S
C1265 C1264 1.397 . S
C1265 C1266 1.334 . S
C1266 H1237 0.950 . S
C1266 C1265 1.334 . S
C1266 C1267 1.287 . S
C1267 C1266 1.287 . S
C1267 C1268 1.524 . S
C1267 H1270 0.999 . S
C1268 H1238 0.950 . S
C1268 C1267 1.524 . S
C1268 C1269 1.415 . S
C1269 H1239 0.950 . S
C1269 C1264 1.363 . S
C1269 C1268 1.415 . S
H1270 C1267 0.999 . S
H1271 C1252 0.913 . S
H1272 C1290 0.951 . S
H1273 C1292 0.951 . S
H1274 C1294 0.950 . S
H1275 C1295 0.950 . S
H1276 C1297 0.950 . S
H1277 C1300 0.950 . S
H1278 C1301 0.950 . S
H1279 C1303 0.950 . S
H1280 C1304 0.950 . S
H1281 C1305 0.951 . S
H1282 C1307 0.951 . S
H1283 C1309 0.950 . S
H1284 C1310 0.950 . S
H1285 C1312 0.950 . S
H1286 C1315 0.950 . S
H1287 C1316 0.950 . S
H1288 C1318 0.950 . S
H1289 C1319 0.950 . S
C1290 H1272 0.951 . S
C1290 C1291 1.366 . S
C1290 C1292 1.388 . S
C1291 C1290 1.366 . S
C1291 C1295 1.385 . S
C1292 H1273 0.951 . S
C1292 C1290 1.388 . S
C1292 C1293 1.366 . S
C1293 C1292 1.366 . S
C1293 C1294 1.414 . S
C1293 C1296 1.499 . S
C1294 H1274 0.950 . S
C1294 C1293 1.414 . S
C1294 C1295 1.374 . S
C1295 H1275 0.950 . S
C1295 C1291 1.385 . S
C1295 C1294 1.374 . S
C1296 C1293 1.499 . S
C1296 C1297 1.373 . S
C1296 C1298 1.389 . S
C1297 H1276 0.950 . S
C1297 C1296 1.373 . S
C1297 C1313 1.377 . S
C1298 C1296 1.389 . S
C1298 C1299 1.524 . S
C1298 C1312 1.377 . S
C1299 C1298 1.524 . S
C1299 C1300 1.397 . S
C1299 C1304 1.363 . S
C1300 H1277 0.950 . S
C1300 C1299 1.397 . S
C1300 C1301 1.334 . S
C1301 H1278 0.950 . S
C1301 C1300 1.334 . S
C1301 C1302 1.287 . S
C1302 C1301 1.287 . S
C1302 C1303 1.524 . S
C1302 H1321 0.913 . S
C1303 H1279 0.950 . S
C1303 C1302 1.524 . S
C1303 C1304 1.415 . S
C1304 H1280 0.950 . S
C1304 C1299 1.363 . S
C1304 C1303 1.415 . S
C1305 H1281 0.951 . S
C1305 C1306 1.366 . S
C1305 C1307 1.388 . S
C1306 C1305 1.366 . S
C1306 C1310 1.385 . S
C1307 H1282 0.951 . S
C1307 C1305 1.388 . S
C1307 C1308 1.366 . S
C1308 C1307 1.366 . S
C1308 C1309 1.414 . S
C1308 C1311 1.499 . S
C1309 H1283 0.950 . S
C1309 C1308 1.414 . S
C1309 C1310 1.374 . S
C1310 H1284 0.950 . S
C1310 C1306 1.385 . S
C1310 C1309 1.374 . S
C1311 C1308 1.499 . S
C1311 C1312 1.373 . S
C1311 C1313 1.389 . S
C1312 H1285 0.950 . S
C1312 C1298 1.377 . S
C1312 C1311 1.373 . S
C1313 C1297 1.377 . S
C1313 C1311 1.389 . S
C1313 C1314 1.524 . S
C1314 C1313 1.524 . S
C1314 C1315 1.397 . S
C1314 C1319 1.363 . S
C1315 H1286 0.950 . S
C1315 C1314 1.397 . S
C1315 C1316 1.334 . S
C1316 H1287 0.950 . S
C1316 C1315 1.334 . S
C1316 C1317 1.287 . S
C1317 C1316 1.287 . S
C1317 C1318 1.524 . S
C1317 H1320 0.999 . S
C1318 H1288 0.950 . S
C1318 C1317 1.524 . S
C1318 C1319 1.415 . S
C1319 H1289 0.950 . S
C1319 C1314 1.363 . S
C1319 C1318 1.415 . S
H1320 C1317 0.999 . S
H1321 C1302 0.913 . S
H1322 C1340 0.951 . S
H1323 C1342 0.951 . S
H1324 C1344 0.950 . S
H1325 C1345 0.950 . S
H1326 C1347 0.950 . S
H1327 C1350 0.950 . S
H1328 C1351 0.950 . S
H1329 C1353 0.950 . S
H1330 C1354 0.950 . S
H1331 C1355 0.951 . S
H1332 C1357 0.951 . S
H1333 C1359 0.950 . S
H1334 C1360 0.950 . S
H1335 C1362 0.950 . S
H1336 C1365 0.950 . S
H1337 C1366 0.950 . S
H1338 C1368 0.950 . S
H1339 C1369 0.950 . S
C1340 H1322 0.951 . S
C1340 C1341 1.366 . S
C1340 C1342 1.388 . S
C1341 C1340 1.366 . S
C1341 C1345 1.385 . S
C1342 H1323 0.951 . S
C1342 C1340 1.388 . S
C1342 C1343 1.366 . S
C1343 C1342 1.366 . S
C1343 C1344 1.414 . S
C1343 C1346 1.499 . S
C1344 H1324 0.950 . S
C1344 C1343 1.414 . S
C1344 C1345 1.374 . S
C1345 H1325 0.950 . S
C1345 C1341 1.385 . S
C1345 C1344 1.374 . S
C1346 C1343 1.499 . S
C1346 C1347 1.373 . S
C1346 C1348 1.389 . S
C1347 H1326 0.950 . S
C1347 C1346 1.373 . S
C1347 C1363 1.377 . S
C1348 C1346 1.389 . S
C1348 C1349 1.524 . S
C1348 C1362 1.377 . S
C1349 C1348 1.524 . S
C1349 C1350 1.397 . S
C1349 C1354 1.363 . S
C1350 H1327 0.950 . S
C1350 C1349 1.397 . S
C1350 C1351 1.334 . S
C1351 H1328 0.950 . S
C1351 C1350 1.334 . S
C1351 C1352 1.287 . S
C1352 C1351 1.287 . S
C1352 C1353 1.524 . S
C1352 H1371 0.913 . S
C1353 H1329 0.950 . S
C1353 C1352 1.524 . S
C1353 C1354 1.415 . S
C1354 H1330 0.950 . S
C1354 C1349 1.363 . S
C1354 C1353 1.415 . S
C1355 H1331 0.951 . S
C1355 C1356 1.366 . S
C1355 C1357 1.388 . S
C1356 C1355 1.366 . S
C1356 C1360 1.385 . S
C1357 H1332 0.951 . S
C1357 C1355 1.388 . S
C1357 C1358 1.366 . S
C1358 C1357 1.366 . S
C1358 C1359 1.414 . S
C1358 C1361 1.499 . S
C1359 H1333 0.950 . S
C1359 C1358 1.414 . S
C1359 C1360 1.374 . S
C1360 H1334 0.950 . S
C1360 C1356 1.385 . S
C1360 C1359 1.374 . S
C1361 C1358 1.499 . S
C1361 C1362 1.373 . S
C1361 C1363 1.389 . S
C1362 H1335 0.950 . S
C1362 C1348 1.377 . S
C1362 C1361 1.373 . S
C1363 C1347 1.377 . S
C1363 C1361 1.389 . S
C1363 C1364 1.524 . S
C1364 C1363 1.524 . S
C1364 C1365 1.397 . S
C1364 C1369 1.363 . S
C1365 H1336 0.950 . S
C1365 C1364 1.397 . S
C1365 C1366 1.334 . S
C1366 H1337 0.950 . S
C1366 C1365 1.334 . S
C1366 C1367 1.287 . S
C1367 C1366 1.287 . S
C1367 C1368 1.524 . S
C1367 H1370 0.999 . S
C1368 H1338 0.950 . S
C1368 C1367 1.524 . S
C1368 C1369 1.415 . S
C1369 H1339 0.950 . S
C1369 C1364 1.363 . S
C1369 C1368 1.415 . S
H1370 C1367 0.999 . S
H1371 C1352 0.913 . S
H1372 C1390 0.951 . S
H1373 C1392 0.951 . S
H1374 C1394 0.950 . S
H1375 C1395 0.950 . S
H1376 C1397 0.950 . S
H1377 C1400 0.950 . S
H1378 C1401 0.950 . S
H1379 C1403 0.950 . S
H1380 C1404 0.950 . S
H1381 C1405 0.951 . S
H1382 C1407 0.951 . S
H1383 C1409 0.950 . S
H1384 C1410 0.950 . S
H1385 C1412 0.950 . S
H1386 C1415 0.950 . S
H1387 C1416 0.950 . S
H1388 C1418 0.950 . S
H1389 C1419 0.950 . S
C1390 H1372 0.951 . S
C1390 C1391 1.366 . S
C1390 C1392 1.388 . S
C1391 C1390 1.366 . S
C1391 C1395 1.385 . S
C1392 H1373 0.951 . S
C1392 C1390 1.388 . S
C1392 C1393 1.366 . S
C1393 C1392 1.366 . S
C1393 C1394 1.414 . S
C1393 C1396 1.499 . S
C1394 H1374 0.950 . S
C1394 C1393 1.414 . S
C1394 C1395 1.374 . S
C1395 H1375 0.950 . S
C1395 C1391 1.385 . S
C1395 C1394 1.374 . S
C1396 C1393 1.499 . S
C1396 C1397 1.373 . S
C1396 C1398 1.389 . S
C1397 H1376 0.950 . S
C1397 C1396 1.373 . S
C1397 C1413 1.377 . S
C1398 C1396 1.389 . S
C1398 C1399 1.524 . S
C1398 C1412 1.377 . S
C1399 C1398 1.524 . S
C1399 C1400 1.397 . S
C1399 C1404 1.363 . S
C1400 H1377 0.950 . S
C1400 C1399 1.397 . S
C1400 C1401 1.334 . S
C1401 H1378 0.950 . S
C1401 C1400 1.334 . S
C1401 C1402 1.287 . S
C1402 C1401 1.287 . S
C1402 C1403 1.524 . S
C1402 H1421 0.913 . S
C1403 H1379 0.950 . S
C1403 C1402 1.524 . S
C1403 C1404 1.415 . S
C1404 H1380 0.950 . S
C1404 C1399 1.363 . S
C1404 C1403 1.415 . S
C1405 H1381 0.951 . S
C1405 C1406 1.366 . S
C1405 C1407 1.388 . S
C1406 C1405 1.366 . S
C1406 C1410 1.385 . S
C1407 H1382 0.951 . S
C1407 C1405 1.388 . S
C1407 C1408 1.366 . S
C1408 C1407 1.366 . S
C1408 C1409 1.414 . S
C1408 C1411 1.499 . S
C1409 H1383 0.950 . S
C1409 C1408 1.414 . S
C1409 C1410 1.374 . S
C1410 H1384 0.950 . S
C1410 C1406 1.385 . S
C1410 C1409 1.374 . S
C1411 C1408 1.499 . S
C1411 C1412 1.373 . S
C1411 C1413 1.389 . S
C1412 H1385 0.950 . S
C1412 C1398 1.377 . S
C1412 C1411 1.373 . S
C1413 C1397 1.377 . S
C1413 C1411 1.389 . S
C1413 C1414 1.524 . S
C1414 C1413 1.524 . S
C1414 C1415 1.397 . S
C1414 C1419 1.363 . S
C1415 H1386 0.950 . S
C1415 C1414 1.397 . S
C1415 C1416 1.334 . S
C1416 H1387 0.950 . S
C1416 C1415 1.334 . S
C1416 C1417 1.287 . S
C1417 C1416 1.287 . S
C1417 C1418 1.524 . S
C1417 H1420 0.999 . S
C1418 H1388 0.950 . S
C1418 C1417 1.524 . S
C1418 C1419 1.415 . S
C1419 H1389 0.950 . S
C1419 C1414 1.363 . S
C1419 C1418 1.415 . S
H1420 C1417 0.999 . S
H1421 C1402 0.913 . S
H1422 C1440 0.951 . S
H1423 C1442 0.951 . S
H1424 C1444 0.950 . S
H1425 C1445 0.950 . S
H1426 C1447 0.950 . S
H1427 C1450 0.950 . S
H1428 C1451 0.950 . S
H1429 C1453 0.950 . S
H1430 C1454 0.950 . S
H1431 C1455 0.951 . S
H1432 C1457 0.951 . S
H1433 C1459 0.950 . S
H1434 C1460 0.950 . S
H1435 C1462 0.950 . S
H1436 C1465 0.950 . S
H1437 C1466 0.950 . S
H1438 C1468 0.950 . S
H1439 C1469 0.950 . S
C1440 H1422 0.951 . S
C1440 C1441 1.366 . S
C1440 C1442 1.388 . S
C1441 C1440 1.366 . S
C1441 C1445 1.385 . S
C1442 H1423 0.951 . S
C1442 C1440 1.388 . S
C1442 C1443 1.366 . S
C1443 C1442 1.366 . S
C1443 C1444 1.414 . S
C1443 C1446 1.499 . S
C1444 H1424 0.950 . S
C1444 C1443 1.414 . S
C1444 C1445 1.374 . S
C1445 H1425 0.950 . S
C1445 C1441 1.385 . S
C1445 C1444 1.374 . S
C1446 C1443 1.499 . S
C1446 C1447 1.373 . S
C1446 C1448 1.389 . S
C1447 H1426 0.950 . S
C1447 C1446 1.373 . S
C1447 C1463 1.377 . S
C1448 C1446 1.389 . S
C1448 C1449 1.524 . S
C1448 C1462 1.377 . S
C1449 C1448 1.524 . S
C1449 C1450 1.397 . S
C1449 C1454 1.363 . S
C1450 H1427 0.950 . S
C1450 C1449 1.397 . S
C1450 C1451 1.334 . S
C1451 H1428 0.950 . S
C1451 C1450 1.334 . S
C1451 C1452 1.287 . S
C1452 C1451 1.287 . S
C1452 C1453 1.524 . S
C1452 H1471 0.913 . S
C1453 H1429 0.950 . S
C1453 C1452 1.524 . S
C1453 C1454 1.415 . S
C1454 H1430 0.950 . S
C1454 C1449 1.363 . S
C1454 C1453 1.415 . S
C1455 H1431 0.951 . S
C1455 C1456 1.366 . S
C1455 C1457 1.388 . S
C1456 C1455 1.366 . S
C1456 C1460 1.385 . S
C1457 H1432 0.951 . S
C1457 C1455 1.388 . S
C1457 C1458 1.366 . S
C1458 C1457 1.366 . S
C1458 C1459 1.414 . S
C1458 C1461 1.499 . S
C1459 H1433 0.950 . S
C1459 C1458 1.414 . S
C1459 C1460 1.374 . S
C1460 H1434 0.950 . S
C1460 C1456 1.385 . S
C1460 C1459 1.374 . S
C1461 C1458 1.499 . S
C1461 C1462 1.373 . S
C1461 C1463 1.389 . S
C1462 H1435 0.950 . S
C1462 C1448 1.377 . S
C1462 C1461 1.373 . S
C1463 C1447 1.377 . S
C1463 C1461 1.389 . S
C1463 C1464 1.524 . S
C1464 C1463 1.524 . S
C1464 C1465 1.397 . S
C1464 C1469 1.363 . S
C1465 H1436 0.950 . S
C1465 C1464 1.397 . S
C1465 C1466 1.334 . S
C1466 H1437 0.950 . S
C1466 C1465 1.334 . S
C1466 C1467 1.287 . S
C1467 C1466 1.287 . S
C1467 C1468 1.524 . S
C1467 H1470 0.999 . S
C1468 H1438 0.950 . S
C1468 C1467 1.524 . S
C1468 C1469 1.415 . S
C1469 H1439 0.950 . S
C1469 C1464 1.363 . S
C1469 C1468 1.415 . S
H1470 C1467 0.999 . S
H1471 C1452 0.913 . S
H1472 C1490 0.951 . S
H1473 C1492 0.951 . S
H1474 C1494 0.950 . S
H1475 C1495 0.950 . S
H1476 C1497 0.950 . S
H1477 C1500 0.950 . S
H1478 C1501 0.950 . S
H1479 C1503 0.950 . S
H1480 C1504 0.950 . S
H1481 C1505 0.951 . S
H1482 C1507 0.951 . S
H1483 C1509 0.950 . S
H1484 C1510 0.950 . S
H1485 C1512 0.950 . S
H1486 C1515 0.950 . S
H1487 C1516 0.950 . S
H1488 C1518 0.950 . S
H1489 C1519 0.950 . S
C1490 H1472 0.951 . S
C1490 C1491 1.366 . S
C1490 C1492 1.388 . S
C1491 C1490 1.366 . S
C1491 C1495 1.385 . S
C1492 H1473 0.951 . S
C1492 C1490 1.388 . S
C1492 C1493 1.366 . S
C1493 C1492 1.366 . S
C1493 C1494 1.414 . S
C1493 C1496 1.499 . S
C1494 H1474 0.950 . S
C1494 C1493 1.414 . S
C1494 C1495 1.374 . S
C1495 H1475 0.950 . S
C1495 C1491 1.385 . S
C1495 C1494 1.374 . S
C1496 C1493 1.499 . S
C1496 C1497 1.373 . S
C1496 C1498 1.389 . S
C1497 H1476 0.950 . S
C1497 C1496 1.373 . S
C1497 C1513 1.377 . S
C1498 C1496 1.389 . S
C1498 C1499 1.524 . S
C1498 C1512 1.377 . S
C1499 C1498 1.524 . S
C1499 C1500 1.397 . S
C1499 C1504 1.363 . S
C1500 H1477 0.950 . S
C1500 C1499 1.397 . S
C1500 C1501 1.334 . S
C1501 H1478 0.950 . S
C1501 C1500 1.334 . S
C1501 C1502 1.287 . S
C1502 C1501 1.287 . S
C1502 C1503 1.524 . S
C1502 H1521 0.913 . S
C1503 H1479 0.950 . S
C1503 C1502 1.524 . S
C1503 C1504 1.415 . S
C1504 H1480 0.950 . S
C1504 C1499 1.363 . S
C1504 C1503 1.415 . S
C1505 H1481 0.951 . S
C1505 C1506 1.366 . S
C1505 C1507 1.388 . S
C1506 C1505 1.366 . S
C1506 C1510 1.385 . S
C1507 H1482 0.951 . S
C1507 C1505 1.388 . S
C1507 C1508 1.366 . S
C1508 C1507 1.366 . S
C1508 C1509 1.414 . S
C1508 C1511 1.499 . S
C1509 H1483 0.950 . S
C1509 C1508 1.414 . S
C1509 C1510 1.374 . S
C1510 H1484 0.950 . S
C1510 C1506 1.385 . S
C1510 C1509 1.374 . S
C1511 C1508 1.499 . S
C1511 C1512 1.373 . S
C1511 C1513 1.389 . S
C1512 H1485 0.950 . S
C1512 C1498 1.377 . S
C1512 C1511 1.373 . S
C1513 C1497 1.377 . S
C1513 C1511 1.389 . S
C1513 C1514 1.524 . S
C1514 C1513 1.524 . S
C1514 C1515 1.397 . S
C1514 C1519 1.363 . S
C1515 H1486 0.950 . S
C1515 C1514 1.397 . S
C1515 C1516 1.334 . S
C1516 H1487 0.950 . S
C1516 C1515 1.334 . S
C1516 C1517 1.287 . S
C1517 C1516 1.287 . S
C1517 C1518 1.524 . S
C1517 H1520 0.999 . S
C1518 H1488 0.950 . S
C1518 C1517 1.524 . S
C1518 C1519 1.415 . S
C1519 H1489 0.950 . S
C1519 C1514 1.363 . S
C1519 C1518 1.415 . S
H1520 C1517 0.999 . S
H1521 C1502 0.913 . S
H1522 C1540 0.951 . S
H1523 C1542 0.951 . S
H1524 C1544 0.950 . S
H1525 C1545 0.950 . S
H1526 C1547 0.950 . S
H1527 C1550 0.950 . S
H1528 C1551 0.950 . S
H1529 C1553 0.950 . S
H1530 C1554 0.950 . S
H1531 C1555 0.951 . S
H1532 C1557 0.951 . S
H1533 C1559 0.950 . S
H1534 C1560 0.950 . S
H1535 C1562 0.950 . S
H1536 C1565 0.950 . S
H1537 C1566 0.950 . S
H1538 C1568 0.950 . S
H1539 C1569 0.950 . S
C1540 H1522 0.951 . S
C1540 C1541 1.366 . S
C1540 C1542 1.388 . S
C1541 C1540 1.366 . S
C1541 C1545 1.385 . S
C1542 H1523 0.951 . S
C1542 C1540 1.388 . S
C1542 C1543 1.366 . S
C1543 C1542 1.366 . S
C1543 C1544 1.414 . S
C1543 C1546 1.499 . S
C1544 H1524 0.950 . S
C1544 C1543 1.414 . S
C1544 C1545 1.374 . S
C1545 H1525 0.950 . S
C1545 C1541 1.385 . S
C1545 C1544 1.374 . S
C1546 C1543 1.499 . S
C1546 C1547 1.373 . S
C1546 C1548 1.389 . S
C1547 H1526 0.950 . S
C1547 C1546 1.373 . S
C1547 C1563 1.377 . S
C1548 C1546 1.389 . S
C1548 C1549 1.524 . S
C1548 C1562 1.377 . S
C1549 C1548 1.524 . S
C1549 C1550 1.397 . S
C1549 C1554 1.363 . S
C1550 H1527 0.950 . S
C1550 C1549 1.397 . S
C1550 C1551 1.334 . S
C1551 H1528 0.950 . S
C1551 C1550 1.334 . S
C1551 C1552 1.287 . S
C1552 C1551 1.287 . S
C1552 C1553 1.524 . S
C1552 H1571 0.913 . S
C1553 H1529 0.950 . S
C1553 C1552 1.524 . S
C1553 C1554 1.415 . S
C1554 H1530 0.950 . S
C1554 C1549 1.363 . S
C1554 C1553 1.415 . S
C1555 H1531 0.951 . S
C1555 C1556 1.366 . S
C1555 C1557 1.388 . S
C1556 C1555 1.366 . S
C1556 C1560 1.385 . S
C1557 H1532 0.951 . S
C1557 C1555 1.388 . S
C1557 C1558 1.366 . S
C1558 C1557 1.366 . S
C1558 C1559 1.414 . S
C1558 C1561 1.499 . S
C1559 H1533 0.950 . S
C1559 C1558 1.414 . S
C1559 C1560 1.374 . S
C1560 H1534 0.950 . S
C1560 C1556 1.385 . S
C1560 C1559 1.374 . S
C1561 C1558 1.499 . S
C1561 C1562 1.373 . S
C1561 C1563 1.389 . S
C1562 H1535 0.950 . S
C1562 C1548 1.377 . S
C1562 C1561 1.373 . S
C1563 C1547 1.377 . S
C1563 C1561 1.389 . S
C1563 C1564 1.524 . S
C1564 C1563 1.524 . S
C1564 C1565 1.397 . S
C1564 C1569 1.363 . S
C1565 H1536 0.950 . S
C1565 C1564 1.397 . S
C1565 C1566 1.334 . S
C1566 H1537 0.950 . S
C1566 C1565 1.334 . S
C1566 C1567 1.287 . S
C1567 C1566 1.287 . S
C1567 C1568 1.524 . S
C1567 H1570 0.999 . S
C1568 H1538 0.950 . S
C1568 C1567 1.524 . S
C1568 C1569 1.415 . S
C1569 H1539 0.950 . S
C1569 C1564 1.363 . S
C1569 C1568 1.415 . S
H1570 C1567 0.999 . S
H1571 C1552 0.913 . S
C406 C300 1.508 . S
C391 C25 1.508 . S
C456 C303 1.506 . S
C441 C37 1.507 . S
C506 C301 1.518 . S
C491 C103 1.513 . S
C556 C302 1.508 . S
C541 C139 1.508 . S
C606 C317 1.501 . S
C591 C31 1.501 . S
C656 C331 1.509 . S
C641 C67 1.509 . S
C691 C97 1.505 . S
C706 C357 1.511 . S
C756 C371 1.500 . S
C741 C133 1.502 . S
C806 C316 1.501 . S
C791 C61 1.500 . S
C841 C73 1.512 . S
C856 C330 1.514 . S
C906 C356 1.504 . S
C891 C109 1.504 . S
C956 C370 1.503 . S
C941 C1 1.501 . S
C991 C169 1.501 . S
C1006 C315 1.506 . S
C1056 C288 1.506 . S
C1041 C211 1.502 . S
C1091 C241 1.498 . S
C1106 C314 1.499 . S
C1141 C253 1.506 . S
C1156 C289 1.509 . S
C1206 C344 1.510 . S
C1191 C175 1.506 . S
C1256 C358 1.505 . S
C1241 C205 1.498 . S
C1306 C328 1.500 . S
C1291 C217 1.500 . S
C1341 C283 1.513 . S
C1356 C342 1.516 . S
C1406 C345 1.508 . S
C1391 C181 1.505 . S
C1456 C359 1.506 . S
C1441 C247 1.509 . S
C1506 C329 1.504 . S
C1491 C277 1.500 . S
C1541 C145 1.510 . S
C1556 C343 1.513 . S
