# Generated by pormake.
# Topology rtl, (3,6)-cn, num edge types: 1
# Building blocks:
#     Node 0, Type 0, BuildingBlock: VETTIZ_charged_linker_0, # of connection points: 3
#     Node 1, Type 0, BuildingBlock: VETTIZ_charged_linker_0, # of connection points: 3
#     Node 2, Type 0, BuildingBlock: VETTIZ_charged_linker_0, # of connection points: 3
#     Node 3, Type 0, BuildingBlock: VETTIZ_charged_linker_0, # of connection points: 3
#     Node 4, Type 1, BuildingBlock: KUMBUR_clean_sbu_1, # of connection points: 6
#     Node 5, Type 1, BuildingBlock: KUMBUR_clean_sbu_1, # of connection points: 6
#     Edge 6, Type (0, 1), BuildingBlock: XIVTED_clean_linker_0, # of connection points: 2
#     Edge 7, Type (0, 1), BuildingBlock: XIVTED_clean_linker_0, # of connection points: 2
#     Edge 8, Type (0, 1), BuildingBlock: XIVTED_clean_linker_0, # of connection points: 2
#     Edge 9, Type (0, 1), BuildingBlock: XIVTED_clean_linker_0, # of connection points: 2
#     Edge 10, Type (0, 1), BuildingBlock: XIVTED_clean_linker_0, # of connection points: 2
#     Edge 11, Type (0, 1), BuildingBlock: XIVTED_clean_linker_0, # of connection points: 2
#     Edge 12, Type (0, 1), BuildingBlock: XIVTED_clean_linker_0, # of connection points: 2
#     Edge 13, Type (0, 1), BuildingBlock: XIVTED_clean_linker_0, # of connection points: 2
#     Edge 14, Type (0, 1), BuildingBlock: XIVTED_clean_linker_0, # of connection points: 2
#     Edge 15, Type (0, 1), BuildingBlock: XIVTED_clean_linker_0, # of connection points: 2
#     Edge 16, Type (0, 1), BuildingBlock: XIVTED_clean_linker_0, # of connection points: 2
#     Edge 17, Type (0, 1), BuildingBlock: XIVTED_clean_linker_0, # of connection points: 2
# Relax obj value: 0.017
# Max RMSD: 0.097
# Mean RMSD: 0.057
data_MOF--net-rtl--node1-KUMBUR_clean_sbu_1--node2-VETTIZ_charged_linker_0--edge1-XIVTED_clean_linker_0
_symmetry_space_group_name_H-M    P1
_symmetry_Int_Tables_number       1
_symmetry_cell_setting            triclinic
loop_
_symmetry_equiv_pos_as_xyz
'x, y, z'
_cell_length_a     39.525807
_cell_length_b     40.190121
_cell_length_c     35.193759
_cell_angle_alpha  79.970693
_cell_angle_beta   99.351098
_cell_angle_gamma 90.544024
loop_
_atom_site_label
_atom_site_type_symbol
_atom_site_fract_x
_atom_site_fract_y
_atom_site_fract_z
_atom_type_partial_charge
C0 C 0.16715 0.88786 0.89137 0.0
C1 C 0.13761 0.9086 0.88341 0.0
C2 C 0.1223 0.91566 0.91464 0.0
C3 C 0.16604 0.88149 0.96105 0.0
C4 C 0.1806 0.87429 0.93019 0.0
C5 C 0.21028 0.84968 0.94343 0.0
H6 H 0.31283 0.74864 0.08953 0.0
C7 C 0.18597 0.86276 0.99762 0.0
C8 C 0.21164 0.84382 0.98744 0.0
H9 H 0.31008 0.75924 0.96446 0.0
H10 H 0.26583 0.80167 0.95317 0.0
H11 H 0.30387 0.82922 0.0907 0.0
H12 H 0.23038 0.74942 0.08538 0.0
H13 H 0.22086 0.77391 0.11929 0.0
H14 H 0.2614 0.75147 0.12824 0.0
H15 H 0.30084 0.79691 0.13215 0.0
H16 H 0.27413 0.83463 0.12131 0.0
C17 C 0.24277 0.86748 0.93121 0.0
C18 C 0.20096 0.81716 0.92604 0.0
C19 C 0.15624 0.878 0.12849 0.0
C20 C 0.17017 0.86475 0.1675 0.0
C21 C 0.19809 0.84162 0.17496 0.0
C22 C 0.21201 0.83212 0.14406 0.0
C23 C 0.19782 0.84578 0.10522 0.0
C24 C 0.1704 0.86834 0.09806 0.0
C25 C 0.15837 0.88028 0.05512 0.0
C26 C 0.18339 0.86159 0.03759 0.0
C27 C 0.20639 0.84127 0.06699 0.0
C28 C 0.16283 0.91905 0.04628 0.0
C29 C 0.12101 0.86859 0.04475 0.0
C30 C 0.30258 0.76002 0.05972 0.0
C31 C 0.31539 0.75056 0.02791 0.0
C32 C 0.30143 0.76638 0.98963 0.0
C33 C 0.27531 0.79087 0.98301 0.0
C34 C 0.26248 0.79966 0.01489 0.0
C35 C 0.27613 0.7845 0.05251 0.0
C36 C 0.25872 0.797 0.08259 0.0
C37 C 0.23199 0.82152 0.05662 0.0
C38 C 0.23453 0.82294 0.01705 0.0
C39 C 0.28564 0.81524 0.10838 0.0
C40 C 0.24205 0.76649 0.10543 0.0
H41 H 0.12377 0.90873 0.97603 0.0
H42 H 0.1789 0.88145 0.86777 0.0
H43 H 0.1727 0.81399 0.91984 0.0
H44 H 0.21047 0.79382 0.94651 0.0
H45 H 0.21088 0.81782 0.89816 0.0
H46 H 0.2431 0.89419 0.93581 0.0
H47 H 0.24358 0.86768 0.89977 0.0
H48 H 0.26683 0.85591 0.94873 0.0
H49 H 0.13437 0.89528 0.12161 0.0
H50 H 0.20945 0.83118 0.20472 0.0
H51 H 0.23329 0.81453 0.15159 0.0
H52 H 0.18756 0.92631 0.06251 0.0
H53 H 0.14188 0.93252 0.05531 0.0
H54 H 0.16378 0.92883 0.0152 0.0
H55 H 0.11615 0.84474 0.06428 0.0
H56 H 0.11529 0.86253 0.01493 0.0
H57 H 0.1022 0.88793 0.04779 0.0
H58 H 0.0994 0.93153 0.90894 0.0
C59 C 0.1365 0.9024 0.95346 0.0
C60 C 0.64608 0.66664 0.73367 0.0
C61 C 0.6202 0.64267 0.73804 0.0
C62 C 0.60484 0.62899 0.70531 0.0
C63 C 0.64128 0.66248 0.66487 0.0
C64 C 0.65591 0.67646 0.69679 0.0
C65 C 0.68166 0.70296 0.68623 0.0
H66 H 0.77044 0.78505 0.54975 0.0
C67 C 0.65721 0.67779 0.63089 0.0
C68 C 0.68074 0.7018 0.64312 0.0
H69 H 0.77321 0.80266 0.6681 0.0
H70 H 0.73181 0.75876 0.67878 0.0
H71 H 0.76778 0.70491 0.56825 0.0
H72 H 0.69054 0.78338 0.53038 0.0
H73 H 0.67619 0.75029 0.50569 0.0
H74 H 0.71606 0.77044 0.4976 0.0
H75 H 0.76047 0.72908 0.51964 0.0
H76 H 0.7374 0.69094 0.53253 0.0
C77 C 0.717 0.69149 0.71081 0.0
C78 C 0.66846 0.73742 0.6926 0.0
C79 C 0.62705 0.63565 0.50112 0.0
C80 C 0.63888 0.64425 0.46504 0.0
C81 C 0.66297 0.67018 0.46077 0.0
C82 C 0.6754 0.68689 0.49176 0.0
C83 C 0.66379 0.67769 0.52774 0.0
C84 C 0.63981 0.65266 0.53194 0.0
C85 C 0.63051 0.64642 0.57244 0.0
C86 C 0.6532 0.67158 0.59183 0.0
C87 C 0.67261 0.68968 0.56545 0.0
C88 C 0.64068 0.60941 0.59142 0.0
C89 C 0.59188 0.65511 0.56894 0.0
C90 C 0.76194 0.78004 0.57789 0.0
C91 C 0.77527 0.79777 0.60796 0.0
C92 C 0.76382 0.78932 0.6444 0.0
C93 C 0.7395 0.76397 0.65049 0.0
C94 C 0.7262 0.74692 0.61978 0.0
C95 C 0.7374 0.75532 0.58421 0.0
C96 C 0.71993 0.73567 0.55431 0.0
C97 C 0.69624 0.71402 0.57765 0.0
C98 C 0.70017 0.72033 0.61615 0.0
C99 C 0.74763 0.71411 0.54265 0.0
C100 C 0.69975 0.76103 0.51995 0.0
H101 H 0.60273 0.62713 0.64521 0.0
H102 H 0.65787 0.67798 0.75822 0.0
H103 H 0.63994 0.73901 0.68666 0.0
H104 H 0.67667 0.75901 0.67235 0.0
H105 H 0.67688 0.74125 0.72319 0.0
H106 H 0.72179 0.66418 0.71126 0.0
H107 H 0.71818 0.69523 0.74154 0.0
H108 H 0.73855 0.70478 0.6989 0.0
H109 H 0.60831 0.61608 0.50535 0.0
H110 H 0.67304 0.677 0.43367 0.0
H111 H 0.69396 0.70607 0.48657 0.0
H112 H 0.66591 0.60247 0.58454 0.0
H113 H 0.62145 0.59159 0.58028 0.0
H114 H 0.6439 0.60496 0.62362 0.0
H115 H 0.58337 0.67555 0.54355 0.0
H116 H 0.58588 0.6651 0.59448 0.0
H117 H 0.57583 0.63278 0.56479 0.0
H118 H 0.58491 0.61044 0.70808 0.0
C119 C 0.61531 0.63863 0.66888 0.0
C120 C 0.84587 0.11303 0.18225 0.0
C121 C 0.87209 0.08834 0.1891 0.0
C122 C 0.88263 0.07734 0.15682 0.0
C123 C 0.84078 0.11527 0.11215 0.0
C124 C 0.83072 0.12604 0.14389 0.0
C125 C 0.80292 0.15274 0.13208 0.0
H126 H 0.69342 0.2509 0.99076 0.0
C127 C 0.81969 0.13407 0.0763 0.0
C128 C 0.7975 0.15601 0.08796 0.0
H129 H 0.70952 0.24918 0.11581 0.0
H130 H 0.75215 0.20534 0.12523 0.0
H131 H 0.77408 0.24794 0.98569 0.0
H132 H 0.69824 0.17056 0.99419 0.0
H133 H 0.72405 0.16144 0.96097 0.0
H134 H 0.69922 0.20038 0.95005 0.0
H135 H 0.74076 0.24368 0.94571 0.0
H136 H 0.78083 0.22044 0.95384 0.0
C137 C 0.81707 0.18561 0.14582 0.0
C138 C 0.77089 0.13872 0.1493 0.0
C139 C 0.83667 0.11333 0.94189 0.0
C140 C 0.82018 0.1265 0.90374 0.0
C141 C 0.79305 0.15023 0.89872 0.0
C142 C 0.78266 0.16086 0.93095 0.0
C143 C 0.79949 0.14769 0.96882 0.0
C144 C 0.82583 0.12412 0.97388 0.0
C145 C 0.84019 0.11239 0.01641 0.0
C146 C 0.8185 0.13319 0.0359 0.0
C147 C 0.79479 0.15394 0.00781 0.0
C148 C 0.87848 0.12192 0.02319 0.0
C149 C 0.83369 0.07407 0.02675 0.0
C150 C 0.70623 0.24123 0.02017 0.0
C151 C 0.6975 0.25347 0.05259 0.0
C152 C 0.71486 0.23982 0.09031 0.0
C153 C 0.74003 0.21447 0.09577 0.0
C154 C 0.74844 0.20258 0.06322 0.0
C155 C 0.73182 0.21601 0.02617 0.0
C156 C 0.74511 0.20086 0.99505 0.0
C157 C 0.77235 0.17614 0.01969 0.0
C158 C 0.77393 0.17722 0.05954 0.0
C159 C 0.76087 0.22955 0.96833 0.0
C160 C 0.71523 0.18248 0.97356 0.0
H161 H 0.87614 0.0812 0.09508 0.0
H162 H 0.83764 0.12261 0.20627 0.0
H163 H 0.7678 0.11144 0.14757 0.0
H164 H 0.74667 0.15099 0.13312 0.0
H165 H 0.77314 0.14121 0.18055 0.0
H166 H 0.8454 0.18689 0.14744 0.0
H167 H 0.8113 0.18715 0.17532 0.0
H168 H 0.80712 0.20873 0.12522 0.0
H169 H 0.85732 0.09478 0.94678 0.0
H170 H 0.78018 0.16108 0.86969 0.0
H171 H 0.76199 0.17908 0.92507 0.0
H172 H 0.88243 0.14716 0.00585 0.0
H173 H 0.89472 0.10325 0.01416 0.0
H174 H 0.88824 0.12414 0.05384 0.0
H175 H 0.80857 0.06746 0.01077 0.0
H176 H 0.83209 0.06567 0.05797 0.0
H177 H 0.8539 0.0589 0.01867 0.0
H178 H 0.90269 0.05821 0.1613 0.0
C179 C 0.86707 0.09061 0.11841 0.0
C180 C 0.37048 0.33447 0.33204 0.0
C181 C 0.39497 0.36001 0.32744 0.0
C182 C 0.40706 0.37636 0.35919 0.0
C183 C 0.3712 0.34191 0.39923 0.0
C184 C 0.3591 0.32573 0.36828 0.0
C185 C 0.33372 0.2988 0.3791 0.0
H186 H 0.24441 0.21823 0.51682 0.0
C187 C 0.35462 0.32724 0.43278 0.0
C188 C 0.3326 0.30181 0.42144 0.0
H189 H 0.24268 0.19804 0.39973 0.0
H190 H 0.2833 0.24258 0.3878 0.0
H191 H 0.32428 0.22289 0.53643 0.0
H192 H 0.24477 0.29898 0.4951 0.0
H193 H 0.27399 0.31366 0.53143 0.0
H194 H 0.2515 0.2751 0.54388 0.0
H195 H 0.29788 0.23592 0.56832 0.0
H196 H 0.33702 0.25728 0.55961 0.0
C197 C 0.34866 0.26419 0.37571 0.0
C198 C 0.29885 0.3084 0.35247 0.0
C199 C 0.38261 0.37364 0.55935 0.0
C200 C 0.37174 0.36535 0.59591 0.0
C201 C 0.34831 0.33893 0.60153 0.0
C202 C 0.33576 0.32135 0.57126 0.0
C203 C 0.34677 0.33009 0.53486 0.0
C204 C 0.36996 0.3557 0.52952 0.0
C205 C 0.37918 0.36128 0.48915 0.0
C206 C 0.35758 0.33483 0.47107 0.0
C207 C 0.33858 0.31679 0.49787 0.0
C208 C 0.41817 0.35377 0.49308 0.0
C209 C 0.36758 0.39771 0.46883 0.0
C210 C 0.25298 0.22291 0.4887 0.0
C211 C 0.24029 0.20422 0.45936 0.0
C212 C 0.25171 0.21211 0.42286 0.0
C213 C 0.27551 0.23786 0.41605 0.0
C214 C 0.28816 0.25595 0.44603 0.0
C215 C 0.27682 0.24817 0.48161 0.0
C216 C 0.29319 0.26922 0.51058 0.0
C217 C 0.31622 0.29114 0.48663 0.0
C218 C 0.3132 0.28352 0.44869 0.0
C219 C 0.31405 0.24531 0.54581 0.0
C220 C 0.26456 0.29029 0.52121 0.0
H221 H 0.40565 0.38107 0.41765 0.0
H222 H 0.36078 0.32136 0.30823 0.0
H223 H 0.29337 0.33596 0.3491 0.0
H224 H 0.27704 0.29578 0.36452 0.0
H225 H 0.2989 0.30239 0.32284 0.0
H226 H 0.37685 0.26278 0.38595 0.0
H227 H 0.34402 0.26006 0.3449 0.0
H228 H 0.33827 0.2428 0.39422 0.0
H229 H 0.40025 0.394 0.55374 0.0
H230 H 0.33989 0.33156 0.62953 0.0
H231 H 0.31797 0.30159 0.57744 0.0
H232 H 0.42725 0.33414 0.51915 0.0
H233 H 0.43337 0.37677 0.49634 0.0
H234 H 0.42483 0.3432 0.46822 0.0
H235 H 0.34336 0.40506 0.47778 0.0
H236 H 0.36156 0.40052 0.43666 0.0
H237 H 0.38726 0.41633 0.47669 0.0
H238 H 0.42533 0.39654 0.35628 0.0
C239 C 0.39538 0.36748 0.39487 0.0
Tb240 Tb 0.03224 0.96192 0.51975 0.0
C241 C 0.96264 0.09941 0.48323 0.0
N242 N 0.9909 0.08907 0.5102 0.0
C243 C 0.02015 0.13894 0.48573 0.0
C244 C 0.96254 0.12917 0.45529 0.0
C245 C 0.01867 0.10957 0.5133 0.0
C246 C 0.9922 0.14847 0.45611 0.0
C247 C 0.90226 0.09218 0.46007 0.0
C248 C 0.93294 0.08129 0.48543 0.0
C249 C 0.90235 0.12094 0.43099 0.0
C250 C 0.93248 0.13936 0.42853 0.0
Tb251 Tb 0.98575 0.03935 0.55218 0.0
N252 N 0.93404 0.05327 0.51346 0.0
C253 C 0.87235 0.07418 0.46528 0.0
C254 C 0.90469 0.03662 0.52009 0.0
C255 C 0.8735 0.04656 0.49578 0.0
H256 H 0.03956 0.10386 0.53743 0.0
H257 H 0.85038 0.03295 0.5006 0.0
H258 H 0.99805 0.89535 0.56643 0.0
H259 H 0.16547 0.99512 0.51888 0.0
H260 H 0.90549 0.0155 0.54388 0.0
H261 H 0.84819 0.08178 0.44647 0.0
H262 H 0.10418 0.99543 0.49119 0.0
H263 H 0.04261 0.15456 0.48783 0.0
H264 H 0.87913 0.12955 0.41084 0.0
H265 H 0.93199 0.16199 0.40661 0.0
H266 H 0.01606 0.8497 0.62318 0.0
H267 H 0.99322 0.17151 0.43515 0.0
H268 H 0.18765 0.95731 0.58119 0.0
N269 N 0.04695 0.91812 0.5704 0.0
C270 C 0.08026 0.91576 0.5878 0.0
C271 C 0.03432 0.86828 0.61368 0.0
C272 C 0.09172 0.89042 0.62023 0.0
C273 C 0.02419 0.89405 0.58163 0.0
C274 C 0.06812 0.86674 0.63345 0.0
N275 N 0.09059 0.96127 0.53966 0.0
C276 C 0.11301 0.9801 0.51939 0.0
C277 C 0.1379 0.93652 0.58845 0.0
C278 C 0.10279 0.93856 0.57225 0.0
C279 C 0.16046 0.95804 0.56971 0.0
C280 C 0.14803 0.97946 0.53459 0.0
H281 H 0.07589 0.84681 0.6583 0.0
H282 H 0.1357 0.87017 0.66301 0.0
H283 H 0.17625 0.91053 0.63506 0.0
O284 O 0.05706 0.93738 0.48316 0.0
O285 O 0.02796 0.96194 0.58114 0.0
O286 O 0.03346 0.01738 0.58792 0.0
O287 O 0.00426 0.92843 0.48774 0.0
O288 O 0.04922 0.01371 0.50057 0.0
O289 O 0.04106 0.04344 0.54921 0.0
O290 O 0.96259 0.03322 0.60289 0.0
O291 O 0.96539 0.02042 0.49787 0.0
O292 O 0.01342 0.00574 0.4758 0.0
O293 O 0.98198 0.08114 0.5799 0.0
O294 O 0.96668 0.98855 0.5709 0.0
O295 O 0.97756 0.95662 0.52461 0.0
C296 C 0.03887 0.98511 0.60189 0.0
C297 C 0.01972 0.9316 0.42515 0.0
C298 C 0.03533 0.93144 0.36074 0.0
C299 C 0.00392 0.94782 0.34328 0.0
C300 C 0.98837 0.94775 0.4069 0.0
C301 C 0.98061 0.95575 0.36626 0.0
C302 C 0.04298 0.9232 0.40183 0.0
C303 C 0.05752 0.03796 0.52106 0.0
C304 C 0.02877 0.92451 0.46828 0.0
C305 C 0.12636 0.88924 0.63777 0.0
C306 C 0.14942 0.91227 0.62191 0.0
C307 C 0.98203 0.01799 0.46908 0.0
C308 C 0.93318 0.08186 0.61052 0.0
C309 C 0.8939 0.09485 0.65319 0.0
C310 C 0.87331 0.11399 0.62042 0.0
C311 C 0.91246 0.10156 0.57846 0.0
C312 C 0.92385 0.07866 0.64788 0.0
C313 C 0.88259 0.11726 0.5834 0.0
C314 C 0.96028 0.96303 0.5518 0.0
C315 C 0.96477 0.06502 0.60555 0.0
H316 H 0.99717 0.95411 0.31175 0.0
H317 H 0.96985 0.9545 0.42395 0.0
H318 H 0.95646 0.96824 0.35251 0.0
H319 H 0.06728 0.91096 0.41568 0.0
H320 H 0.85042 0.12719 0.62352 0.0
H321 H 0.91949 0.1052 0.54967 0.0
H322 H 0.93988 0.06356 0.67269 0.0
H323 H 0.8668 0.1324 0.5585 0.0
Tb324 Tb 0.47152 0.49096 0.99222 0.0
C325 C 0.60388 0.56106 0.04128 0.0
N326 N 0.5955 0.52828 0.05158 0.0
C327 C 0.64882 0.51001 0.03717 0.0
C328 C 0.63446 0.56968 0.02658 0.0
C329 C 0.61797 0.50275 0.05131 0.0
C330 C 0.6569 0.5436 0.02426 0.0
C331 C 0.58948 0.62022 0.03609 0.0
C332 C 0.58165 0.58582 0.04596 0.0
C333 C 0.61925 0.62913 0.01988 0.0
C334 C 0.64174 0.6039 0.01521 0.0
Tb335 Tb 0.54492 0.51889 0.07436 0.0
N336 N 0.55337 0.57611 0.06218 0.0
C337 C 0.56778 0.64453 0.04401 0.0
C338 C 0.53389 0.59967 0.07302 0.0
C339 C 0.54021 0.63416 0.0632 0.0
H340 H 0.61176 0.47682 0.06144 0.0
H341 H 0.52416 0.65269 0.07106 0.0
H342 H 0.41258 0.55392 0.97091 0.0
H343 H 0.45843 0.35627 0.02976 0.0
H344 H 0.51381 0.59216 0.08996 0.0
H345 H 0.57284 0.67124 0.03684 0.0
H346 H 0.48827 0.40908 0.00891 0.0
H347 H 0.6663 0.48972 0.0362 0.0
H348 H 0.62554 0.65544 0.01178 0.0
H349 H 0.66494 0.61112 1.00342 0.0
H350 H 0.35326 0.56189 0.9807 0.0
H351 H 0.68073 0.54915 0.01317 0.0
H352 H 0.399 0.35891 0.04311 0.0
N353 N 0.41588 0.50192 0.99769 0.0
C354 C 0.39781 0.47449 0.0106 0.0
C355 C 0.36565 0.53725 0.98986 0.0
C356 C 0.36321 0.47757 0.01501 0.0
C357 C 0.39972 0.53277 0.9853 0.0
C358 C 0.34744 0.50962 0.00533 0.0
N359 N 0.44684 0.44103 0.01275 0.0
C360 C 0.46256 0.41038 0.01531 0.0
C361 C 0.39541 0.41355 0.02907 0.0
C362 C 0.41357 0.44291 0.01752 0.0
C363 C 0.41205 0.38209 0.03423 0.0
C364 C 0.44565 0.3805 0.02683 0.0
H365 H 0.32092 0.51309 0.00834 0.0
H366 H 0.3187 0.45041 0.03158 0.0
H367 H 0.34692 0.39433 0.0439 0.0
O368 O 0.48671 0.47103 0.94609 0.0
O369 O 0.47582 0.46389 0.05318 0.0
O370 O 0.4957 0.50335 0.09139 0.0
O371 O 0.43699 0.49428 0.93938 0.0
O372 O 0.52204 0.46606 1.00191 0.0
O373 O 0.545 0.46593 0.06695 0.0
O374 O 0.56575 0.53632 0.12689 0.0
O375 O 0.55257 0.5215 0.01318 0.0
O376 O 0.49999 0.53701 0.97701 0.0
O377 O 0.57088 0.48367 0.12072 0.0
O378 O 0.4934 0.54202 0.06728 0.0
O379 O 0.4706 0.54361 1.00195 0.0
C380 C 0.47991 0.47516 0.08653 0.0
C381 C 0.46169 0.49637 0.88258 0.0
C382 C 0.45399 0.49367 0.81307 0.0
C383 C 0.46912 0.52551 0.80609 0.0
C384 C 0.476 0.52836 0.87513 0.0
C385 C 0.47994 0.54277 0.83704 0.0
C386 C 0.45062 0.47921 0.85159 0.0
C387 C 0.54189 0.45285 0.03479 0.0
C388 C 0.45831 0.48014 0.92238 0.0
C389 C 0.34523 0.44851 0.02778 0.0
C390 C 0.36127 0.41656 0.03471 0.0
C391 C 0.53355 0.53901 0.98227 0.0
C392 C 0.59708 0.49764 0.18302 0.0
C393 C 0.61235 0.50845 0.24992 0.0
C394 C 0.63323 0.47904 0.25922 0.0
C395 C 0.61791 0.46831 0.1932 0.0
C396 C 0.59456 0.51783 0.21141 0.0
C397 C 0.63598 0.45922 0.23102 0.0
C398 C 0.47248 0.55515 0.03508 0.0
C399 C 0.57745 0.50621 0.14311 0.0
H400 H 0.47194 0.5373 0.7767 0.0
H401 H 0.48394 0.54203 0.89874 0.0
H402 H 0.4912 0.56744 0.83145 0.0
H403 H 0.43966 0.45437 0.85757 0.0
H404 H 0.64781 0.47151 0.28827 0.0
H405 H 0.62034 0.45239 0.17186 0.0
H406 H 0.57809 0.54021 0.20386 0.0
H407 H 0.65215 0.43669 0.23853 0.0
H408 H 0.2386 0.15981 0.52779 0.0
H409 H 0.07443 0.05974 0.44876 0.0
H410 H 0.18492 0.18568 0.40917 0.0
H411 H 0.10371 0.06799 0.57018 0.0
H412 H 0.12022 0.09871 0.43233 0.0
H413 H 0.19482 0.11861 0.54227 0.0
C414 C 0.21757 0.15701 0.50473 0.0
C415 C 0.21527 0.17686 0.46728 0.0
C416 C 0.11661 0.09193 0.46254 0.0
C417 C 0.16537 0.12883 0.48368 0.0
C418 C 0.09067 0.06963 0.47194 0.0
C419 C 0.08538 0.06079 0.51086 0.0
C420 C 0.13774 0.1049 0.4924 0.0
C421 C 0.1069 0.07439 0.5398 0.0
C422 C 0.19266 0.1333 0.51307 0.0
C423 C 0.18795 0.17098 0.43839 0.0
N424 N 0.13226 0.09565 0.53002 0.0
N425 N 0.16402 0.14754 0.44721 0.0
H426 H 0.32324 0.6916 0.08204 0.0
H427 H 0.45454 0.60854 0.97619 0.0
H428 H 0.36858 0.74751 0.98718 0.0
H429 H 0.443 0.56958 0.09544 0.0
H430 H 0.41895 0.65775 0.97733 0.0
H431 H 0.36392 0.64501 0.08636 0.0
C432 C 0.34199 0.69436 0.06248 0.0
C433 C 0.34212 0.72348 0.03386 0.0
C434 C 0.42433 0.63852 1.00333 0.0
C435 C 0.3881 0.6699 0.03811 0.0
C436 C 0.44441 0.6104 1.00258 0.0
C437 C 0.45147 0.58505 0.03571 0.0
C438 C 0.4108 0.64104 0.03726 0.0
C439 C 0.43808 0.58872 0.06933 0.0
C440 C 0.36505 0.66764 0.06484 0.0
C441 C 0.36683 0.72529 0.00903 0.0
N442 N 0.41807 0.6161 0.06917 0.0
N443 N 0.38851 0.69875 0.01144 0.0
H444 H 0.77891 0.84224 0.53989 0.0
H445 H 0.93727 0.94667 0.62187 0.0
H446 H 0.82999 0.81581 0.65965 0.0
H447 H 0.9196 0.92752 0.50344 0.0
H448 H 0.8911 0.90762 0.63706 0.0
H449 H 0.82348 0.88289 0.52694 0.0
C450 C 0.79951 0.84472 0.56352 0.0
C451 C 0.80085 0.82481 0.60084 0.0
C452 C 0.8974 0.91209 0.60779 0.0
C453 C 0.85144 0.87252 0.5862 0.0
C454 C 0.92352 0.93442 0.59905 0.0
C455 C 0.93221 0.94022 0.56136 0.0
C456 C 0.87938 0.89621 0.57836 0.0
C457 C 0.91382 0.92357 0.53292 0.0
C458 C 0.82483 0.86818 0.55604 0.0
C459 C 0.82763 0.83052 0.63049 0.0
N460 N 0.88808 0.90251 0.54191 0.0
N461 N 0.85189 0.85385 0.62253 0.0
H462 H 0.65086 0.2611 0.10061 0.0
H463 H 0.56236 0.43039 0.97281 0.0
H464 H 0.68364 0.30845 0.99303 0.0
H465 H 0.56864 0.40597 0.09818 0.0
H466 H 0.59817 0.38031 0.9751 0.0
H467 H 0.61161 0.30874 0.09522 0.0
C468 C 0.64995 0.28148 0.07587 0.0
C469 C 0.67116 0.28086 0.04756 0.0
C470 C 0.59159 0.38597 1.00202 0.0
C471 C 0.62542 0.33513 0.04083 0.0
C472 C 0.57109 0.41439 1.00076 0.0
C473 C 0.56264 0.42236 0.0354 0.0
C474 C 0.60311 0.36509 0.03807 0.0
C475 C 0.57475 0.40087 0.07082 0.0
C476 C 0.62736 0.30859 0.07278 0.0
C477 C 0.66776 0.3076 0.01548 0.0
N478 N 0.59424 0.37313 0.07123 0.0
N479 N 0.64539 0.3337 0.01302 0.0
H480 H 0.15786 0.82501 0.23568 0.0
H481 H 0.05483 0.97182 0.29748 0.0
H482 H 0.14825 0.92781 0.17334 0.0
H483 H 0.07133 0.87207 0.36709 0.0
H484 H 0.09139 0.95645 0.25343 0.0
H485 H 0.12915 0.842 0.28613 0.0
C486 C 0.15009 0.85122 0.23281 0.0
C487 C 0.15518 0.87494 0.19997 0.0
C488 C 0.08725 0.93792 0.27844 0.0
C489 C 0.12194 0.89445 0.25736 0.0
C490 C 0.06624 0.94666 0.30351 0.0
C491 C 0.05977 0.92307 0.33577 0.0
C492 C 0.10179 0.90522 0.28541 0.0
C493 C 0.07573 0.89104 0.34259 0.0
C494 C 0.13354 0.86086 0.26153 0.0
C495 C 0.14425 0.90849 0.19767 0.0
N496 N 0.09576 0.88292 0.3174 0.0
N497 N 0.12801 0.91716 0.22578 0.0
H498 H 0.5549 0.642 0.75383 0.0
H499 H 0.5969 0.52872 0.96338 0.0
H500 H 0.65947 0.61826 0.80894 0.0
H501 H 0.50667 0.5932 0.92831 0.0
H502 H 0.62033 0.5581 0.90647 0.0
H503 H 0.53577 0.6204 0.81615 0.0
C504 C 0.57382 0.63237 0.77919 0.0
C505 C 0.60877 0.63184 0.77634 0.0
C506 C 0.59557 0.56601 0.91151 0.0
C507 C 0.58711 0.60675 0.84755 0.0
C508 C 0.58228 0.54939 0.94408 0.0
C509 C 0.54969 0.55837 0.95039 0.0
C510 C 0.57578 0.59129 0.88475 0.0
C511 C 0.53166 0.58509 0.92416 0.0
C512 C 0.56294 0.6202 0.81474 0.0
C513 C 0.63229 0.61923 0.81008 0.0
N514 N 0.54468 0.60025 0.89217 0.0
N515 N 0.62101 0.60675 0.84424 0.0
H516 H 0.94053 0.0758 0.21723 0.0
H517 H 0.9133 0.02092 0.44017 0.0
H518 H 0.84127 0.07046 0.25381 0.0
H519 H 0.01252 0.03607 0.40465 0.0
H520 H 0.88623 0.03657 0.37176 0.0
H521 H 0.96729 0.05734 0.28533 0.0
C522 C 0.92434 0.07042 0.23952 0.0
C523 C 0.88862 0.07488 0.22982 0.0
C524 C 0.91392 0.03658 0.37893 0.0
C525 C 0.91908 0.05423 0.30789 0.0
C526 C 0.92933 0.02796 0.41801 0.0
C527 C 0.96511 0.02775 0.4281 0.0
C528 C 0.93451 0.04474 0.34971 0.0
C529 C 0.98479 0.03604 0.39811 0.0
C530 C 0.93964 0.06015 0.27844 0.0
C531 C 0.86894 0.06788 0.26002 0.0
N532 N 0.96923 0.04422 0.36028 0.0
N533 N 0.88443 0.05801 0.29766 0.0
H534 H 0.43655 0.38916 0.61548 0.0
H535 H 0.39321 0.46139 0.80008 0.0
H536 H 0.33612 0.385 0.6493 0.0
H537 H 0.48609 0.4846 0.752 0.0
H538 H 0.37333 0.43007 0.74738 0.0
H539 H 0.45653 0.42128 0.66743 0.0
C540 C 0.41861 0.39513 0.63364 0.0
C541 C 0.38453 0.38434 0.62788 0.0
C542 C 0.39803 0.44208 0.74825 0.0
C543 C 0.40747 0.42071 0.68783 0.0
C544 C 0.40946 0.4598 0.77844 0.0
C545 C 0.44139 0.47552 0.78045 0.0
C546 C 0.41876 0.4398 0.71994 0.0
C547 C 0.46119 0.47306 0.75134 0.0
C548 C 0.43011 0.41336 0.66342 0.0
C549 C 0.36272 0.39229 0.65293 0.0
N550 N 0.44963 0.45537 0.72236 0.0
N551 N 0.37457 0.40994 0.68179 0.0
H552 H 0.62395 0.66928 0.38623 0.0
H553 H 0.6059 0.48596 0.32639 0.0
H554 H 0.62879 0.57611 0.46935 0.0
H555 H 0.61225 0.57768 0.2436 0.0
H556 H 0.60683 0.51942 0.3781 0.0
H557 H 0.61228 0.637 0.3329 0.0
C558 C 0.62243 0.64204 0.39331 0.0
C559 C 0.62778 0.62539 0.43244 0.0
C560 C 0.60783 0.53229 0.3486 0.0
C561 C 0.61414 0.58827 0.37137 0.0
C562 C 0.60746 0.51318 0.31906 0.0
C563 C 0.60952 0.52898 0.28065 0.0
C564 C 0.61031 0.56758 0.33985 0.0
C565 C 0.61059 0.56442 0.27275 0.0
C566 C 0.61563 0.62364 0.36281 0.0
C567 C 0.62469 0.5901 0.43974 0.0
N568 N 0.61128 0.5825 0.30216 0.0
N569 N 0.61837 0.57273 0.40953 0.0
H570 H 0.77987 0.111 0.83846 0.0
H571 H 0.93614 0.09897 0.7224 0.0
H572 H 0.88583 0.11851 0.88997 0.0
H573 H 0.83007 0.08697 0.67416 0.0
H574 H 0.91901 0.10167 0.78561 0.0
H575 H 0.79837 0.09837 0.77956 0.0
C576 C 0.80707 0.10995 0.83738 0.0
C577 C 0.83132 0.11616 0.86906 0.0
C578 C 0.89952 0.09819 0.76126 0.0
C579 C 0.85279 0.10156 0.80159 0.0
C580 C 0.90931 0.09642 0.72521 0.0
C581 C 0.88447 0.09307 0.69275 0.0
C582 C 0.86463 0.09664 0.76492 0.0
C583 C 0.85005 0.09025 0.69811 0.0
C584 C 0.81764 0.10257 0.80379 0.0
C585 C 0.86625 0.11378 0.8663 0.0
N586 N 0.84116 0.09232 0.73334 0.0
N587 N 0.87593 0.10697 0.83302 0.0
H588 H 0.35828 0.37143 0.25283 0.0
H589 H 0.51665 0.45654 0.1592 0.0
H590 H 0.46101 0.37312 0.31657 0.0
H591 H 0.41642 0.4489 0.09245 0.0
H592 H 0.49705 0.42379 0.21667 0.0
H593 H 0.37949 0.39611 0.19255 0.0
C594 C 0.38536 0.3765 0.25404 0.0
C595 C 0.40782 0.37062 0.28985 0.0
C596 C 0.47939 0.42883 0.1893 0.0
C597 C 0.43218 0.39928 0.22127 0.0
C598 C 0.49057 0.44761 0.15657 0.0
C599 C 0.46829 0.45465 0.1208 0.0
C600 C 0.44546 0.41746 0.18637 0.0
C601 C 0.43473 0.44279 0.11894 0.0
C602 C 0.39743 0.39081 0.2197 0.0
C603 C 0.44264 0.37789 0.28975 0.0
N604 N 0.42423 0.4249 0.1513 0.0
N605 N 0.45366 0.39207 0.25613 0.0
H606 H 0.07226 0.90049 0.84789 0.0
H607 H 0.08881 0.01647 0.64494 0.0
H608 H 0.1682 0.94568 0.82625 0.0
H609 H 0.02289 0.93026 0.65257 0.0
H610 H 0.11322 0.99864 0.71433 0.0
H611 H 0.04803 0.9195 0.77873 0.0
C612 C 0.08803 0.91472 0.82857 0.0
C613 C 0.12216 0.92163 0.8425 0.0
C614 C 0.09346 0.98367 0.70068 0.0
C615 C 0.09478 0.94349 0.76399 0.0
C616 C 0.07948 0.99386 0.66132 0.0
C617 C 0.05397 0.97469 0.64325 0.0
C618 C 0.08112 0.95464 0.72212 0.0
C619 C 0.04278 0.94552 0.66548 0.0
C620 C 0.07435 0.92531 0.78923 0.0
C621 C 0.14177 0.93985 0.81639 0.0
N622 N 0.05622 0.9365 0.70393 0.0
N623 N 0.12772 0.95039 0.77833 0.0
loop_
_geom_bond_atom_site_label_1
_geom_bond_atom_site_label_2
_geom_bond_distance
_geom_bond_site_symmetry_2
_ccdc_geom_bond_type
C0 C1 1.391 . S
C0 C4 1.391 . S
C0 H42 0.948 . S
C1 C0 1.391 . S
C1 C2 1.391 . S
C2 C1 1.391 . S
C2 H58 0.947 . S
C2 C59 1.392 . S
C3 C4 1.391 . S
C3 C7 1.397 . S
C3 C59 1.419 . S
C4 C0 1.391 . S
C4 C3 1.391 . S
C4 C5 1.399 . S
C5 C4 1.399 . S
C5 C8 1.396 . S
C5 C17 1.453 . S
C5 C18 1.684 . S
H6 C30 0.948 . S
C7 C3 1.397 . S
C7 C8 1.394 . S
C7 C26 1.723 1_556 S
C8 C5 1.396 . S
C8 C7 1.394 . S
C8 C38 1.723 1_556 S
H9 C32 0.947 . S
H10 C33 0.948 . S
H11 C39 0.982 . S
H12 C40 0.979 . S
H13 C40 0.980 . S
H14 C40 0.983 . S
H15 C39 0.979 . S
H16 C39 0.977 . S
C17 C5 1.453 . S
C17 H46 0.982 . S
C17 H47 0.979 . S
C17 H48 0.977 . S
C18 C5 1.684 . S
C18 H43 0.979 . S
C18 H44 0.980 . S
C18 H45 0.983 . S
C19 C20 1.391 . S
C19 C24 1.391 . S
C19 H49 0.948 . S
C20 C19 1.391 . S
C20 C21 1.391 . S
C21 C20 1.391 . S
C21 C22 1.392 . S
C21 H50 0.947 . S
C22 C21 1.392 . S
C22 C23 1.419 . S
C22 H51 0.948 . S
C23 C22 1.419 . S
C23 C24 1.391 . S
C23 C27 1.397 . S
C24 C19 1.391 . S
C24 C23 1.391 . S
C24 C25 1.399 . S
C25 C24 1.399 . S
C25 C26 1.396 . S
C25 C28 1.453 . S
C25 C29 1.684 . S
C26 C7 1.723 1_554 S
C26 C25 1.396 . S
C26 C27 1.394 . S
C27 C23 1.397 . S
C27 C26 1.394 . S
C27 C37 1.723 . S
C28 C25 1.453 . S
C28 H52 0.982 . S
C28 H53 0.979 . S
C28 H54 0.977 1_554 S
C29 C25 1.684 . S
C29 H55 0.979 . S
C29 H56 0.980 1_554 S
C29 H57 0.983 . S
C30 H6 0.948 . S
C30 C31 1.391 . S
C30 C35 1.391 . S
C31 C30 1.391 . S
C31 C32 1.391 1_554 S
C32 H9 0.947 . S
C32 C31 1.391 1_556 S
C32 C33 1.392 . S
C33 H10 0.948 . S
C33 C32 1.392 . S
C33 C34 1.419 1_556 S
C34 C33 1.419 1_554 S
C34 C35 1.391 . S
C34 C38 1.397 . S
C35 C30 1.391 . S
C35 C34 1.391 . S
C35 C36 1.399 . S
C36 C35 1.399 . S
C36 C37 1.396 . S
C36 C39 1.453 . S
C36 C40 1.684 . S
C37 C27 1.723 . S
C37 C36 1.396 . S
C37 C38 1.394 . S
C38 C8 1.723 1_554 S
C38 C34 1.397 . S
C38 C37 1.394 . S
C39 H11 0.982 . S
C39 H15 0.979 . S
C39 H16 0.977 . S
C39 C36 1.453 . S
C40 H12 0.979 . S
C40 H13 0.980 . S
C40 H14 0.983 . S
C40 C36 1.684 . S
H41 C59 0.948 . S
H42 C0 0.948 . S
H43 C18 0.979 . S
H44 C18 0.980 . S
H45 C18 0.983 . S
H46 C17 0.982 . S
H47 C17 0.979 . S
H48 C17 0.977 . S
H49 C19 0.948 . S
H50 C21 0.947 . S
H51 C22 0.948 . S
H52 C28 0.982 . S
H53 C28 0.979 . S
H54 C28 0.977 1_556 S
H55 C29 0.979 . S
H56 C29 0.980 1_556 S
H57 C29 0.983 . S
H58 C2 0.947 . S
C59 C2 1.392 . S
C59 C3 1.419 . S
C59 H41 0.948 . S
C60 C61 1.391 . S
C60 C64 1.391 . S
C60 H102 0.948 . S
C61 C60 1.391 . S
C61 C62 1.391 . S
C62 C61 1.391 . S
C62 H118 0.947 . S
C62 C119 1.392 . S
C63 C64 1.391 . S
C63 C67 1.397 . S
C63 C119 1.419 . S
C64 C60 1.391 . S
C64 C63 1.391 . S
C64 C65 1.399 . S
C65 C64 1.399 . S
C65 C68 1.396 . S
C65 C77 1.453 . S
C65 C78 1.684 . S
H66 C90 0.948 . S
C67 C63 1.397 . S
C67 C68 1.394 . S
C67 C86 1.723 . S
C68 C65 1.396 . S
C68 C67 1.394 . S
C68 C98 1.723 . S
H69 C92 0.947 . S
H70 C93 0.948 . S
H71 C99 0.982 . S
H72 C100 0.979 . S
H73 C100 0.980 . S
H74 C100 0.983 . S
H75 C99 0.979 . S
H76 C99 0.977 . S
C77 C65 1.453 . S
C77 H106 0.982 . S
C77 H107 0.979 . S
C77 H108 0.977 . S
C78 C65 1.684 . S
C78 H103 0.979 . S
C78 H104 0.980 . S
C78 H105 0.983 . S
C79 C80 1.391 . S
C79 C84 1.391 . S
C79 H109 0.948 . S
C80 C79 1.391 . S
C80 C81 1.391 . S
C81 C80 1.391 . S
C81 C82 1.392 . S
C81 H110 0.947 . S
C82 C81 1.392 . S
C82 C83 1.419 . S
C82 H111 0.948 . S
C83 C82 1.419 . S
C83 C84 1.391 . S
C83 C87 1.397 . S
C84 C79 1.391 . S
C84 C83 1.391 . S
C84 C85 1.399 . S
C85 C84 1.399 . S
C85 C86 1.396 . S
C85 C88 1.453 . S
C85 C89 1.684 . S
C86 C67 1.723 . S
C86 C85 1.396 . S
C86 C87 1.394 . S
C87 C83 1.397 . S
C87 C86 1.394 . S
C87 C97 1.723 . S
C88 C85 1.453 . S
C88 H112 0.982 . S
C88 H113 0.979 . S
C88 H114 0.977 . S
C89 C85 1.684 . S
C89 H115 0.979 . S
C89 H116 0.980 . S
C89 H117 0.983 . S
C90 H66 0.948 . S
C90 C91 1.391 . S
C90 C95 1.391 . S
C91 C90 1.391 . S
C91 C92 1.391 . S
C92 H69 0.947 . S
C92 C91 1.391 . S
C92 C93 1.392 . S
C93 H70 0.948 . S
C93 C92 1.392 . S
C93 C94 1.419 . S
C94 C93 1.419 . S
C94 C95 1.391 . S
C94 C98 1.397 . S
C95 C90 1.391 . S
C95 C94 1.391 . S
C95 C96 1.399 . S
C96 C95 1.399 . S
C96 C97 1.396 . S
C96 C99 1.453 . S
C96 C100 1.684 . S
C97 C87 1.723 . S
C97 C96 1.396 . S
C97 C98 1.394 . S
C98 C68 1.723 . S
C98 C94 1.397 . S
C98 C97 1.394 . S
C99 H71 0.982 . S
C99 H75 0.979 . S
C99 H76 0.977 . S
C99 C96 1.453 . S
C100 H72 0.979 . S
C100 H73 0.980 . S
C100 H74 0.983 . S
C100 C96 1.684 . S
H101 C119 0.948 . S
H102 C60 0.948 . S
H103 C78 0.979 . S
H104 C78 0.980 . S
H105 C78 0.983 . S
H106 C77 0.982 . S
H107 C77 0.979 . S
H108 C77 0.977 . S
H109 C79 0.948 . S
H110 C81 0.947 . S
H111 C82 0.948 . S
H112 C88 0.982 . S
H113 C88 0.979 . S
H114 C88 0.977 . S
H115 C89 0.979 . S
H116 C89 0.980 . S
H117 C89 0.983 . S
H118 C62 0.947 . S
C119 C62 1.392 . S
C119 C63 1.419 . S
C119 H101 0.948 . S
C120 C121 1.391 . S
C120 C124 1.391 . S
C120 H162 0.948 . S
C121 C120 1.391 . S
C121 C122 1.391 . S
C122 C121 1.391 . S
C122 H178 0.947 . S
C122 C179 1.392 . S
C123 C124 1.391 . S
C123 C127 1.397 . S
C123 C179 1.419 . S
C124 C120 1.391 . S
C124 C123 1.391 . S
C124 C125 1.399 . S
C125 C124 1.399 . S
C125 C128 1.396 . S
C125 C137 1.453 . S
C125 C138 1.684 . S
H126 C150 0.948 . S
C127 C123 1.397 . S
C127 C128 1.394 . S
C127 C146 1.723 . S
C128 C125 1.396 . S
C128 C127 1.394 . S
C128 C158 1.723 . S
H129 C152 0.947 . S
H130 C153 0.948 . S
H131 C159 0.982 . S
H132 C160 0.979 . S
H133 C160 0.980 . S
H134 C160 0.983 . S
H135 C159 0.979 . S
H136 C159 0.977 . S
C137 C125 1.453 . S
C137 H166 0.982 . S
C137 H167 0.979 . S
C137 H168 0.977 . S
C138 C125 1.684 . S
C138 H163 0.979 . S
C138 H164 0.980 . S
C138 H165 0.983 . S
C139 C140 1.391 . S
C139 C144 1.391 . S
C139 H169 0.948 . S
C140 C139 1.391 . S
C140 C141 1.391 . S
C141 C140 1.391 . S
C141 C142 1.392 . S
C141 H170 0.947 . S
C142 C141 1.392 . S
C142 C143 1.419 . S
C142 H171 0.948 . S
C143 C142 1.419 . S
C143 C144 1.391 . S
C143 C147 1.397 1_556 S
C144 C139 1.391 . S
C144 C143 1.391 . S
C144 C145 1.399 1_556 S
C145 C144 1.399 1_554 S
C145 C146 1.396 . S
C145 C148 1.453 . S
C145 C149 1.684 . S
C146 C127 1.723 . S
C146 C145 1.396 . S
C146 C147 1.394 . S
C147 C143 1.397 1_554 S
C147 C146 1.394 . S
C147 C157 1.723 . S
C148 C145 1.453 . S
C148 H172 0.982 . S
C148 H173 0.979 . S
C148 H174 0.977 . S
C149 C145 1.684 . S
C149 H175 0.979 . S
C149 H176 0.980 . S
C149 H177 0.983 . S
C150 H126 0.948 . S
C150 C151 1.391 1_556 S
C150 C155 1.391 1_556 S
C151 C150 1.391 1_554 S
C151 C152 1.391 . S
C152 H129 0.947 . S
C152 C151 1.391 . S
C152 C153 1.392 . S
C153 H130 0.948 . S
C153 C152 1.392 . S
C153 C154 1.419 . S
C154 C153 1.419 . S
C154 C155 1.391 . S
C154 C158 1.397 . S
C155 C150 1.391 1_554 S
C155 C154 1.391 . S
C155 C156 1.399 1_554 S
C156 C155 1.399 1_556 S
C156 C157 1.396 1_556 S
C156 C159 1.453 . S
C156 C160 1.684 . S
C157 C147 1.723 . S
C157 C156 1.396 1_554 S
C157 C158 1.394 . S
C158 C128 1.723 . S
C158 C154 1.397 . S
C158 C157 1.394 . S
C159 H131 0.982 . S
C159 H135 0.979 . S
C159 H136 0.977 . S
C159 C156 1.453 . S
C160 H132 0.979 . S
C160 H133 0.980 . S
C160 H134 0.983 . S
C160 C156 1.684 . S
H161 C179 0.948 . S
H162 C120 0.948 . S
H163 C138 0.979 . S
H164 C138 0.980 . S
H165 C138 0.983 . S
H166 C137 0.982 . S
H167 C137 0.979 . S
H168 C137 0.977 . S
H169 C139 0.948 . S
H170 C141 0.947 . S
H171 C142 0.948 . S
H172 C148 0.982 . S
H173 C148 0.979 . S
H174 C148 0.977 . S
H175 C149 0.979 . S
H176 C149 0.980 . S
H177 C149 0.983 . S
H178 C122 0.947 . S
C179 C122 1.392 . S
C179 C123 1.419 . S
C179 H161 0.948 . S
C180 C181 1.391 . S
C180 C184 1.391 . S
C180 H222 0.948 . S
C181 C180 1.391 . S
C181 C182 1.391 . S
C182 C181 1.391 . S
C182 H238 0.947 . S
C182 C239 1.392 . S
C183 C184 1.391 . S
C183 C187 1.397 . S
C183 C239 1.419 . S
C184 C180 1.391 . S
C184 C183 1.391 . S
C184 C185 1.399 . S
C185 C184 1.399 . S
C185 C188 1.396 . S
C185 C197 1.453 . S
C185 C198 1.684 . S
H186 C210 0.948 . S
C187 C183 1.397 . S
C187 C188 1.394 . S
C187 C206 1.723 . S
C188 C185 1.396 . S
C188 C187 1.394 . S
C188 C218 1.723 . S
H189 C212 0.947 . S
H190 C213 0.948 . S
H191 C219 0.982 . S
H192 C220 0.979 . S
H193 C220 0.980 . S
H194 C220 0.983 . S
H195 C219 0.979 . S
H196 C219 0.977 . S
C197 C185 1.453 . S
C197 H226 0.982 . S
C197 H227 0.979 . S
C197 H228 0.977 . S
C198 C185 1.684 . S
C198 H223 0.979 . S
C198 H224 0.980 . S
C198 H225 0.983 . S
C199 C200 1.391 . S
C199 C204 1.391 . S
C199 H229 0.948 . S
C200 C199 1.391 . S
C200 C201 1.391 . S
C201 C200 1.391 . S
C201 C202 1.392 . S
C201 H230 0.947 . S
C202 C201 1.392 . S
C202 C203 1.419 . S
C202 H231 0.948 . S
C203 C202 1.419 . S
C203 C204 1.391 . S
C203 C207 1.397 . S
C204 C199 1.391 . S
C204 C203 1.391 . S
C204 C205 1.399 . S
C205 C204 1.399 . S
C205 C206 1.396 . S
C205 C208 1.453 . S
C205 C209 1.684 . S
C206 C187 1.723 . S
C206 C205 1.396 . S
C206 C207 1.394 . S
C207 C203 1.397 . S
C207 C206 1.394 . S
C207 C217 1.723 . S
C208 C205 1.453 . S
C208 H232 0.982 . S
C208 H233 0.979 . S
C208 H234 0.977 . S
C209 C205 1.684 . S
C209 H235 0.979 . S
C209 H236 0.980 . S
C209 H237 0.983 . S
C210 H186 0.948 . S
C210 C211 1.391 . S
C210 C215 1.391 . S
C211 C210 1.391 . S
C211 C212 1.391 . S
C212 H189 0.947 . S
C212 C211 1.391 . S
C212 C213 1.392 . S
C213 H190 0.948 . S
C213 C212 1.392 . S
C213 C214 1.419 . S
C214 C213 1.419 . S
C214 C215 1.391 . S
C214 C218 1.397 . S
C215 C210 1.391 . S
C215 C214 1.391 . S
C215 C216 1.399 . S
C216 C215 1.399 . S
C216 C217 1.396 . S
C216 C219 1.453 . S
C216 C220 1.684 . S
C217 C207 1.723 . S
C217 C216 1.396 . S
C217 C218 1.394 . S
C218 C188 1.723 . S
C218 C214 1.397 . S
C218 C217 1.394 . S
C219 H191 0.982 . S
C219 H195 0.979 . S
C219 H196 0.977 . S
C219 C216 1.453 . S
C220 H192 0.979 . S
C220 H193 0.980 . S
C220 H194 0.983 . S
C220 C216 1.684 . S
H221 C239 0.948 . S
H222 C180 0.948 . S
H223 C198 0.979 . S
H224 C198 0.980 . S
H225 C198 0.983 . S
H226 C197 0.982 . S
H227 C197 0.979 . S
H228 C197 0.977 . S
H229 C199 0.948 . S
H230 C201 0.947 . S
H231 C202 0.948 . S
H232 C208 0.982 . S
H233 C208 0.979 . S
H234 C208 0.977 . S
H235 C209 0.979 . S
H236 C209 0.980 . S
H237 C209 0.983 . S
H238 C182 0.947 . S
C239 C182 1.392 . S
C239 C183 1.419 . S
C239 H221 0.948 . S
Tb240 N269 2.617 . S
Tb240 N275 2.572 . S
Tb240 O284 2.465 . S
Tb240 O285 2.387 . S
Tb240 O287 2.428 . S
Tb240 O288 2.308 1_565 S
Tb240 O292 2.349 1_455 S
Tb240 O295 2.393 1_455 S
Tb240 C304 2.802 . S
C241 N242 1.379 . S
C241 C244 1.416 . S
C241 C248 1.424 . S
N242 C241 1.379 . S
N242 C245 1.312 1_655 S
N242 Tb251 2.617 . S
C243 C245 1.390 1_655 S
C243 C246 1.339 . S
C243 H263 0.930 1_655 S
C244 C241 1.416 . S
C244 C246 1.416 . S
C244 C250 1.448 . S
C245 N242 1.312 1_455 S
C245 C243 1.390 1_455 S
C245 H256 0.954 . S
C246 C243 1.339 . S
C246 C244 1.416 . S
C246 H267 0.930 . S
C247 C248 1.413 . S
C247 C249 1.427 . S
C247 C253 1.416 . S
C248 C241 1.424 . S
C248 C247 1.413 . S
C248 N252 1.361 . S
C249 C247 1.427 . S
C249 C250 1.328 . S
C249 H264 0.929 . S
C250 C244 1.448 . S
C250 C249 1.328 . S
C250 H265 0.930 . S
Tb251 N242 2.617 . S
Tb251 N252 2.572 . S
Tb251 O286 2.349 1_655 S
Tb251 O289 2.393 1_655 S
Tb251 O290 2.465 . S
Tb251 O291 2.387 . S
Tb251 O293 2.428 . S
Tb251 O294 2.308 1_545 S
Tb251 C315 2.802 . S
N252 C248 1.361 . S
N252 Tb251 2.572 . S
N252 C254 1.340 . S
C253 C247 1.416 . S
C253 C255 1.332 . S
C253 H261 0.931 . S
C254 N252 1.340 . S
C254 C255 1.407 . S
C254 H260 0.930 . S
C255 C253 1.332 . S
C255 C254 1.407 . S
C255 H257 0.929 . S
H256 C245 0.954 . S
H257 C255 0.929 . S
H258 C273 0.930 1_655 S
H259 C280 0.929 . S
H260 C254 0.930 . S
H261 C253 0.931 . S
H262 C276 0.930 . S
H263 C243 0.930 1_455 S
H264 C249 0.929 . S
H265 C250 0.930 . S
H266 C271 0.930 1_655 S
H267 C246 0.930 . S
H268 C279 0.931 . S
N269 Tb240 2.617 . S
N269 C270 1.379 . S
N269 C273 1.334 . S
C270 N269 1.379 . S
C270 C272 1.416 . S
C270 C278 1.424 . S
C271 H266 0.930 1_455 S
C271 C273 1.390 . S
C271 C274 1.339 . S
C272 C270 1.416 . S
C272 C274 1.416 . S
C272 C305 1.448 . S
C273 H258 0.930 1_455 S
C273 N269 1.334 . S
C273 C271 1.390 . S
C274 C271 1.339 . S
C274 C272 1.416 . S
C274 H281 0.930 . S
N275 Tb240 2.572 . S
N275 C276 1.340 . S
N275 C278 1.361 . S
C276 H262 0.930 . S
C276 N275 1.340 . S
C276 C280 1.407 . S
C277 C278 1.413 . S
C277 C279 1.416 . S
C277 C306 1.427 . S
C278 C270 1.424 . S
C278 N275 1.361 . S
C278 C277 1.413 . S
C279 H268 0.931 . S
C279 C277 1.416 . S
C279 C280 1.332 . S
C280 H259 0.929 . S
C280 C276 1.407 . S
C280 C279 1.332 . S
H281 C274 0.930 . S
H282 C305 0.930 . S
H283 C306 0.929 . S
O284 Tb240 2.465 . S
O284 C304 1.264 . S
O285 Tb240 2.387 . S
O285 C296 1.264 . S
O286 Tb251 2.349 1_455 S
O286 C296 1.243 1_545 S
O287 Tb240 2.428 . S
O287 C304 1.256 . S
O288 Tb240 2.308 1_545 S
O288 C303 1.266 . S
O289 Tb251 2.393 1_455 S
O289 C303 1.248 . S
O290 Tb251 2.465 . S
O290 C315 1.264 . S
O291 Tb251 2.387 . S
O291 C307 1.264 . S
O292 Tb240 2.349 1_655 S
O292 C307 1.243 1_565 S
O293 Tb251 2.428 . S
O293 C315 1.256 . S
O294 Tb251 2.308 1_565 S
O294 C314 1.266 . S
O295 Tb240 2.393 1_655 S
O295 C314 1.248 . S
C296 O285 1.264 . S
C296 O286 1.243 1_565 S
C297 C300 1.399 . S
C297 C302 1.383 . S
C297 C304 1.496 . S
C298 C299 1.399 . S
C298 C302 1.389 . S
C299 C298 1.399 . S
C299 C301 1.380 . S
C299 H316 0.929 . S
C300 C297 1.399 . S
C300 C301 1.392 . S
C300 H317 0.929 . S
C301 C299 1.380 . S
C301 C300 1.392 . S
C301 H318 0.929 . S
C302 C297 1.383 . S
C302 C298 1.389 . S
C302 H319 0.931 . S
C303 O288 1.266 . S
C303 O289 1.248 . S
C304 Tb240 2.802 . S
C304 O284 1.264 . S
C304 O287 1.256 . S
C304 C297 1.496 . S
C305 C272 1.448 . S
C305 H282 0.930 . S
C305 C306 1.328 . S
C306 C277 1.427 . S
C306 H283 0.929 . S
C306 C305 1.328 . S
C307 O291 1.264 . S
C307 O292 1.243 1_545 S
C308 C311 1.399 . S
C308 C312 1.383 . S
C308 C315 1.496 . S
C309 C310 1.399 . S
C309 C312 1.389 . S
C310 C309 1.399 . S
C310 C313 1.380 . S
C310 H320 0.929 . S
C311 C308 1.399 . S
C311 C313 1.392 . S
C311 H321 0.929 . S
C312 C308 1.383 . S
C312 C309 1.389 . S
C312 H322 0.931 . S
C313 C310 1.380 . S
C313 C311 1.392 . S
C313 H323 0.929 . S
C314 O294 1.266 . S
C314 O295 1.248 . S
C315 Tb251 2.802 . S
C315 O290 1.264 . S
C315 O293 1.256 . S
C315 C308 1.496 . S
H316 C299 0.929 . S
H317 C300 0.929 . S
H318 C301 0.929 . S
H319 C302 0.931 . S
H320 C310 0.929 . S
H321 C311 0.929 . S
H322 C312 0.931 . S
H323 C313 0.929 . S
Tb324 N353 2.617 . S
Tb324 N359 2.572 1_556 S
Tb324 O368 2.465 . S
Tb324 O369 2.387 1_556 S
Tb324 O371 2.428 . S
Tb324 O372 2.308 1_556 S
Tb324 O376 2.349 . S
Tb324 O379 2.393 . S
Tb324 C388 2.802 . S
C325 N326 1.379 . S
C325 C328 1.416 . S
C325 C332 1.424 . S
N326 C325 1.379 . S
N326 C329 1.334 . S
N326 Tb335 2.617 . S
C327 C329 1.390 . S
C327 C330 1.339 . S
C327 H347 0.930 . S
C328 C325 1.416 . S
C328 C330 1.416 . S
C328 C334 1.448 . S
C329 N326 1.334 . S
C329 C327 1.390 . S
C329 H340 0.930 . S
C330 C327 1.339 . S
C330 C328 1.416 . S
C330 H351 0.930 . S
C331 C332 1.413 . S
C331 C333 1.427 . S
C331 C337 1.416 . S
C332 C325 1.424 . S
C332 C331 1.413 . S
C332 N336 1.361 . S
C333 C331 1.427 . S
C333 C334 1.328 . S
C333 H348 0.929 . S
C334 C328 1.448 . S
C334 C333 1.328 . S
C334 H349 0.930 . S
Tb335 N326 2.617 . S
Tb335 N336 2.572 . S
Tb335 O370 2.349 . S
Tb335 O373 2.393 . S
Tb335 O374 2.465 . S
Tb335 O375 2.387 1_554 S
Tb335 O377 2.428 . S
Tb335 O378 2.308 . S
Tb335 C399 2.802 . S
N336 C332 1.361 . S
N336 Tb335 2.572 . S
N336 C338 1.340 . S
C337 C331 1.416 . S
C337 C339 1.332 . S
C337 H345 0.931 . S
C338 N336 1.340 . S
C338 C339 1.407 . S
C338 H344 0.930 . S
C339 C337 1.332 . S
C339 C338 1.407 . S
C339 H341 0.929 . S
H340 C329 0.930 . S
H341 C339 0.929 . S
H342 C357 0.930 . S
H343 C364 0.929 . S
H344 C338 0.930 . S
H345 C337 0.931 . S
H346 C360 0.930 . S
H347 C327 0.930 . S
H348 C333 0.929 . S
H349 C334 0.930 . S
H350 C355 0.930 . S
H351 C330 0.930 . S
H352 C363 0.931 . S
N353 Tb324 2.617 . S
N353 C354 1.379 1_556 S
N353 C357 1.334 . S
C354 N353 1.379 1_554 S
C354 C356 1.416 . S
C354 C362 1.424 . S
C355 H350 0.930 . S
C355 C357 1.390 . S
C355 C358 1.339 1_556 S
C356 C354 1.416 . S
C356 C358 1.416 . S
C356 C389 1.448 . S
C357 H342 0.930 . S
C357 N353 1.334 . S
C357 C355 1.390 . S
C358 C355 1.339 1_554 S
C358 C356 1.416 . S
C358 H365 0.930 . S
N359 Tb324 2.572 1_554 S
N359 C360 1.340 . S
N359 C362 1.361 . S
C360 H346 0.930 . S
C360 N359 1.340 . S
C360 C364 1.407 . S
C361 C362 1.413 . S
C361 C363 1.416 . S
C361 C390 1.427 . S
C362 C354 1.424 . S
C362 N359 1.361 . S
C362 C361 1.413 . S
C363 H352 0.931 . S
C363 C361 1.416 . S
C363 C364 1.332 . S
C364 H343 0.929 . S
C364 C360 1.407 . S
C364 C363 1.332 . S
H365 C358 0.930 . S
H366 C389 0.930 . S
H367 C390 0.929 . S
O368 Tb324 2.465 . S
O368 C388 1.264 . S
O369 Tb324 2.387 1_554 S
O369 C380 1.264 . S
O370 Tb335 2.349 . S
O370 C380 1.243 . S
O371 Tb324 2.428 . S
O371 C388 1.256 . S
O372 Tb324 2.308 1_554 S
O372 C387 1.266 . S
O373 Tb335 2.393 . S
O373 C387 1.248 . S
O374 Tb335 2.465 . S
O374 C399 1.264 . S
O375 Tb335 2.387 1_556 S
O375 C391 1.264 . S
O376 Tb324 2.349 . S
O376 C391 1.243 . S
O377 Tb335 2.428 . S
O377 C399 1.256 . S
O378 Tb335 2.308 . S
O378 C398 1.266 . S
O379 Tb324 2.393 . S
O379 C398 1.248 1_556 S
C380 O369 1.264 . S
C380 O370 1.243 . S
C381 C384 1.399 . S
C381 C386 1.383 . S
C381 C388 1.496 . S
C382 C383 1.399 . S
C382 C386 1.389 . S
C383 C382 1.399 . S
C383 C385 1.380 . S
C383 H400 0.929 . S
C384 C381 1.399 . S
C384 C385 1.392 . S
C384 H401 0.929 . S
C385 C383 1.380 . S
C385 C384 1.392 . S
C385 H402 0.929 . S
C386 C381 1.383 . S
C386 C382 1.389 . S
C386 H403 0.931 . S
C387 O372 1.266 . S
C387 O373 1.248 . S
C388 Tb324 2.802 . S
C388 O368 1.264 . S
C388 O371 1.256 . S
C388 C381 1.496 . S
C389 C356 1.448 . S
C389 H366 0.930 . S
C389 C390 1.328 . S
C390 C361 1.427 . S
C390 H367 0.929 . S
C390 C389 1.328 . S
C391 O375 1.264 . S
C391 O376 1.243 . S
C392 C395 1.399 . S
C392 C396 1.383 . S
C392 C399 1.496 . S
C393 C394 1.399 . S
C393 C396 1.389 . S
C394 C393 1.399 . S
C394 C397 1.380 . S
C394 H404 0.929 . S
C395 C392 1.399 . S
C395 C397 1.392 . S
C395 H405 0.929 . S
C396 C392 1.383 . S
C396 C393 1.389 . S
C396 H406 0.931 . S
C397 C394 1.380 . S
C397 C395 1.392 . S
C397 H407 0.929 . S
C398 O378 1.266 . S
C398 O379 1.248 1_554 S
C399 Tb335 2.802 . S
C399 O374 1.264 . S
C399 O377 1.256 . S
C399 C392 1.496 . S
H400 C383 0.929 . S
H401 C384 0.929 . S
H402 C385 0.929 . S
H403 C386 0.931 . S
H404 C394 0.929 . S
H405 C395 0.929 . S
H406 C396 0.931 . S
H407 C397 0.929 . S
H408 C414 0.930 . S
H409 C418 0.930 . S
H410 C423 0.929 . S
H411 C421 0.929 . S
H412 C416 0.929 . S
H413 C422 0.929 . S
C414 H408 0.930 . S
C414 C415 1.367 . S
C414 C422 1.378 . S
C415 C414 1.367 . S
C415 C423 1.433 . S
C416 H412 0.929 . S
C416 C418 1.378 . S
C416 C420 1.350 . S
C417 C420 1.463 . S
C417 C422 1.350 . S
C417 N425 1.427 . S
C418 H409 0.930 . S
C418 C416 1.378 . S
C418 C419 1.367 . S
C419 C418 1.367 . S
C419 C421 1.433 . S
C420 C416 1.350 . S
C420 C417 1.463 . S
C420 N424 1.427 . S
C421 H411 0.929 . S
C421 C419 1.433 . S
C421 N424 1.384 . S
C422 H413 0.929 . S
C422 C414 1.378 . S
C422 C417 1.350 . S
C423 H410 0.929 . S
C423 C415 1.433 . S
C423 N425 1.384 . S
N424 C420 1.427 . S
N424 C421 1.384 . S
N425 C417 1.427 . S
N425 C423 1.384 . S
H426 C432 0.930 . S
H427 C436 0.930 1_556 S
H428 C441 0.929 1_556 S
H429 C439 0.929 . S
H430 C434 0.929 1_556 S
H431 C440 0.929 . S
C432 H426 0.930 . S
C432 C433 1.367 . S
C432 C440 1.378 . S
C433 C432 1.367 . S
C433 C441 1.433 . S
C434 H430 0.929 1_554 S
C434 C436 1.378 . S
C434 C438 1.350 . S
C435 C438 1.463 . S
C435 C440 1.350 . S
C435 N443 1.427 . S
C436 H427 0.930 1_554 S
C436 C434 1.378 . S
C436 C437 1.367 . S
C437 C436 1.367 . S
C437 C439 1.433 . S
C438 C434 1.350 . S
C438 C435 1.463 . S
C438 N442 1.427 . S
C439 H429 0.929 . S
C439 C437 1.433 . S
C439 N442 1.384 . S
C440 H431 0.929 . S
C440 C432 1.378 . S
C440 C435 1.350 . S
C441 H428 0.929 1_554 S
C441 C433 1.433 . S
C441 N443 1.384 . S
N442 C438 1.427 . S
N442 C439 1.384 . S
N443 C435 1.427 . S
N443 C441 1.384 . S
H444 C450 0.930 . S
H445 C454 0.930 . S
H446 C459 0.929 . S
H447 C457 0.929 . S
H448 C452 0.929 . S
H449 C458 0.929 . S
C450 H444 0.930 . S
C450 C451 1.367 . S
C450 C458 1.378 . S
C451 C450 1.367 . S
C451 C459 1.433 . S
C452 H448 0.929 . S
C452 C454 1.378 . S
C452 C456 1.350 . S
C453 C456 1.463 . S
C453 C458 1.350 . S
C453 N461 1.427 . S
C454 H445 0.930 . S
C454 C452 1.378 . S
C454 C455 1.367 . S
C455 C454 1.367 . S
C455 C457 1.433 . S
C456 C452 1.350 . S
C456 C453 1.463 . S
C456 N460 1.427 . S
C457 H447 0.929 . S
C457 C455 1.433 . S
C457 N460 1.384 . S
C458 H449 0.929 . S
C458 C450 1.378 . S
C458 C453 1.350 . S
C459 H446 0.929 . S
C459 C451 1.433 . S
C459 N461 1.384 . S
N460 C456 1.427 . S
N460 C457 1.384 . S
N461 C453 1.427 . S
N461 C459 1.384 . S
H462 C468 0.930 . S
H463 C472 0.930 . S
H464 C477 0.929 . S
H465 C475 0.929 . S
H466 C470 0.929 . S
H467 C476 0.929 . S
C468 H462 0.930 . S
C468 C469 1.367 . S
C468 C476 1.378 . S
C469 C468 1.367 . S
C469 C477 1.433 . S
C470 H466 0.929 . S
C470 C472 1.378 . S
C470 C474 1.350 . S
C471 C474 1.463 . S
C471 C476 1.350 . S
C471 N479 1.427 . S
C472 H463 0.930 . S
C472 C470 1.378 . S
C472 C473 1.367 . S
C473 C472 1.367 . S
C473 C475 1.433 . S
C474 C470 1.350 . S
C474 C471 1.463 . S
C474 N478 1.427 . S
C475 H465 0.929 . S
C475 C473 1.433 . S
C475 N478 1.384 . S
C476 H467 0.929 . S
C476 C468 1.378 . S
C476 C471 1.350 . S
C477 H464 0.929 . S
C477 C469 1.433 . S
C477 N479 1.384 . S
N478 C474 1.427 . S
N478 C475 1.384 . S
N479 C471 1.427 . S
N479 C477 1.384 . S
H480 C486 0.930 . S
H481 C490 0.930 1_545 S
H482 C495 0.929 . S
H483 C493 0.929 . S
H484 C488 0.929 . S
H485 C494 0.929 . S
C486 H480 0.930 . S
C486 C487 1.367 . S
C486 C494 1.378 . S
C487 C486 1.367 . S
C487 C495 1.433 . S
C488 H484 0.929 . S
C488 C490 1.378 . S
C488 C492 1.350 . S
C489 C492 1.463 . S
C489 C494 1.350 . S
C489 N497 1.427 . S
C490 H481 0.930 1_565 S
C490 C488 1.378 . S
C490 C491 1.367 . S
C491 C490 1.367 . S
C491 C493 1.433 . S
C492 C488 1.350 . S
C492 C489 1.463 . S
C492 N496 1.427 . S
C493 H483 0.929 . S
C493 C491 1.433 . S
C493 N496 1.384 . S
C494 H485 0.929 . S
C494 C486 1.378 . S
C494 C489 1.350 . S
C495 H482 0.929 . S
C495 C487 1.433 . S
C495 N497 1.384 . S
N496 C492 1.427 . S
N496 C493 1.384 . S
N497 C489 1.427 . S
N497 C495 1.384 . S
H498 C504 0.930 . S
H499 C508 0.930 . S
H500 C513 0.929 . S
H501 C511 0.929 . S
H502 C506 0.929 . S
H503 C512 0.929 . S
C504 H498 0.930 . S
C504 C505 1.367 . S
C504 C512 1.378 . S
C505 C504 1.367 . S
C505 C513 1.433 . S
C506 H502 0.929 . S
C506 C508 1.378 . S
C506 C510 1.350 . S
C507 C510 1.463 . S
C507 C512 1.350 . S
C507 N515 1.427 . S
C508 H499 0.930 . S
C508 C506 1.378 . S
C508 C509 1.367 . S
C509 C508 1.367 . S
C509 C511 1.433 . S
C510 C506 1.350 . S
C510 C507 1.463 . S
C510 N514 1.427 . S
C511 H501 0.929 . S
C511 C509 1.433 . S
C511 N514 1.384 . S
C512 H503 0.929 . S
C512 C504 1.378 . S
C512 C507 1.350 . S
C513 H500 0.929 . S
C513 C505 1.433 . S
C513 N515 1.384 . S
N514 C510 1.427 . S
N514 C511 1.384 . S
N515 C507 1.427 . S
N515 C513 1.384 . S
H516 C522 0.930 . S
H517 C526 0.930 . S
H518 C531 0.929 . S
H519 C529 0.929 . S
H520 C524 0.929 . S
H521 C530 0.929 . S
C522 H516 0.930 . S
C522 C523 1.367 . S
C522 C530 1.378 . S
C523 C522 1.367 . S
C523 C531 1.433 . S
C524 H520 0.929 . S
C524 C526 1.378 . S
C524 C528 1.350 . S
C525 C528 1.463 . S
C525 C530 1.350 . S
C525 N533 1.427 . S
C526 H517 0.930 . S
C526 C524 1.378 . S
C526 C527 1.367 . S
C527 C526 1.367 . S
C527 C529 1.433 . S
C528 C524 1.350 . S
C528 C525 1.463 . S
C528 N532 1.427 . S
C529 H519 0.929 . S
C529 C527 1.433 . S
C529 N532 1.384 . S
C530 H521 0.929 . S
C530 C522 1.378 . S
C530 C525 1.350 . S
C531 H518 0.929 . S
C531 C523 1.433 . S
C531 N533 1.384 . S
N532 C528 1.427 . S
N532 C529 1.384 . S
N533 C525 1.427 . S
N533 C531 1.384 . S
H534 C540 0.930 . S
H535 C544 0.930 . S
H536 C549 0.929 . S
H537 C547 0.929 . S
H538 C542 0.929 . S
H539 C548 0.929 . S
C540 H534 0.930 . S
C540 C541 1.367 . S
C540 C548 1.378 . S
C541 C540 1.367 . S
C541 C549 1.433 . S
C542 H538 0.929 . S
C542 C544 1.378 . S
C542 C546 1.350 . S
C543 C546 1.463 . S
C543 C548 1.350 . S
C543 N551 1.427 . S
C544 H535 0.930 . S
C544 C542 1.378 . S
C544 C545 1.367 . S
C545 C544 1.367 . S
C545 C547 1.433 . S
C546 C542 1.350 . S
C546 C543 1.463 . S
C546 N550 1.427 . S
C547 H537 0.929 . S
C547 C545 1.433 . S
C547 N550 1.384 . S
C548 H539 0.929 . S
C548 C540 1.378 . S
C548 C543 1.350 . S
C549 H536 0.929 . S
C549 C541 1.433 . S
C549 N551 1.384 . S
N550 C546 1.427 . S
N550 C547 1.384 . S
N551 C543 1.427 . S
N551 C549 1.384 . S
H552 C558 0.930 . S
H553 C562 0.930 . S
H554 C567 0.929 . S
H555 C565 0.929 . S
H556 C560 0.929 . S
H557 C566 0.929 . S
C558 H552 0.930 . S
C558 C559 1.367 . S
C558 C566 1.378 . S
C559 C558 1.367 . S
C559 C567 1.433 . S
C560 H556 0.929 . S
C560 C562 1.378 . S
C560 C564 1.350 . S
C561 C564 1.463 . S
C561 C566 1.350 . S
C561 N569 1.427 . S
C562 H553 0.930 . S
C562 C560 1.378 . S
C562 C563 1.367 . S
C563 C562 1.367 . S
C563 C565 1.433 . S
C564 C560 1.350 . S
C564 C561 1.463 . S
C564 N568 1.427 . S
C565 H555 0.929 . S
C565 C563 1.433 . S
C565 N568 1.384 . S
C566 H557 0.929 . S
C566 C558 1.378 . S
C566 C561 1.350 . S
C567 H554 0.929 . S
C567 C559 1.433 . S
C567 N569 1.384 . S
N568 C564 1.427 . S
N568 C565 1.384 . S
N569 C561 1.427 . S
N569 C567 1.384 . S
H570 C576 0.930 . S
H571 C580 0.930 . S
H572 C585 0.929 . S
H573 C583 0.929 . S
H574 C578 0.929 . S
H575 C584 0.929 . S
C576 H570 0.930 . S
C576 C577 1.367 . S
C576 C584 1.378 . S
C577 C576 1.367 . S
C577 C585 1.433 . S
C578 H574 0.929 . S
C578 C580 1.378 . S
C578 C582 1.350 . S
C579 C582 1.463 . S
C579 C584 1.350 . S
C579 N587 1.427 . S
C580 H571 0.930 . S
C580 C578 1.378 . S
C580 C581 1.367 . S
C581 C580 1.367 . S
C581 C583 1.433 . S
C582 C578 1.350 . S
C582 C579 1.463 . S
C582 N586 1.427 . S
C583 H573 0.929 . S
C583 C581 1.433 . S
C583 N586 1.384 . S
C584 H575 0.929 . S
C584 C576 1.378 . S
C584 C579 1.350 . S
C585 H572 0.929 . S
C585 C577 1.433 . S
C585 N587 1.384 . S
N586 C582 1.427 . S
N586 C583 1.384 . S
N587 C579 1.427 . S
N587 C585 1.384 . S
H588 C594 0.930 . S
H589 C598 0.930 . S
H590 C603 0.929 . S
H591 C601 0.929 . S
H592 C596 0.929 . S
H593 C602 0.929 . S
C594 H588 0.930 . S
C594 C595 1.367 . S
C594 C602 1.378 . S
C595 C594 1.367 . S
C595 C603 1.433 . S
C596 H592 0.929 . S
C596 C598 1.378 . S
C596 C600 1.350 . S
C597 C600 1.463 . S
C597 C602 1.350 . S
C597 N605 1.427 . S
C598 H589 0.930 . S
C598 C596 1.378 . S
C598 C599 1.367 . S
C599 C598 1.367 . S
C599 C601 1.433 . S
C600 C596 1.350 . S
C600 C597 1.463 . S
C600 N604 1.427 . S
C601 H591 0.929 . S
C601 C599 1.433 . S
C601 N604 1.384 . S
C602 H593 0.929 . S
C602 C594 1.378 . S
C602 C597 1.350 . S
C603 H590 0.929 . S
C603 C595 1.433 . S
C603 N605 1.384 . S
N604 C600 1.427 . S
N604 C601 1.384 . S
N605 C597 1.427 . S
N605 C603 1.384 . S
H606 C612 0.930 . S
H607 C616 0.930 . S
H608 C621 0.929 . S
H609 C619 0.929 . S
H610 C614 0.929 . S
H611 C620 0.929 . S
C612 H606 0.930 . S
C612 C613 1.367 . S
C612 C620 1.378 . S
C613 C612 1.367 . S
C613 C621 1.433 . S
C614 H610 0.929 . S
C614 C616 1.378 . S
C614 C618 1.350 . S
C615 C618 1.463 . S
C615 C620 1.350 . S
C615 N623 1.427 . S
C616 H607 0.930 . S
C616 C614 1.378 . S
C616 C617 1.367 . S
C617 C616 1.367 . S
C617 C619 1.433 . S
C618 C614 1.350 . S
C618 C615 1.463 . S
C618 N622 1.427 . S
C619 H609 0.929 . S
C619 C617 1.433 . S
C619 N622 1.384 . S
C620 H611 0.929 . S
C620 C612 1.378 . S
C620 C615 1.350 . S
C621 H608 0.929 . S
C621 C613 1.433 . S
C621 N623 1.384 . S
N622 C618 1.427 . S
N622 C619 1.384 . S
N623 C615 1.427 . S
N623 C621 1.384 . S
C419 C303 1.630 . S
C415 C211 1.620 . S
C433 C31 1.550 . S
C437 C398 1.615 . S
C451 C91 1.646 . S
C455 C314 1.630 . S
C469 C151 1.593 . S
C473 C387 1.621 . S
C491 C298 1.425 . S
C487 C20 1.517 . S
C509 C391 1.609 . S
C505 C61 1.569 . S
C523 C121 1.601 . S
C527 C307 1.619 . S
C541 C200 1.497 . S
C545 C382 1.390 . S
C563 C393 1.397 . S
C559 C80 1.503 . S
C581 C309 1.405 . S
C577 C140 1.550 . S
C599 C380 1.610 . S
C595 C181 1.539 . S
C613 C1 1.550 . S
C617 C296 1.618 . S
