# Generated by pormake.
# Topology cml, (3,6)-cn, num edge types: 1
# Building blocks:
#     Node 0, Type 0, BuildingBlock: QEWDON_clean_linker_0, # of connection points: 3
#     Node 1, Type 0, BuildingBlock: QEWDON_clean_linker_0, # of connection points: 3
#     Node 2, Type 0, BuildingBlock: QEWDON_clean_linker_0, # of connection points: 3
#     Node 3, Type 0, BuildingBlock: QEWDON_clean_linker_0, # of connection points: 3
#     Node 4, Type 0, BuildingBlock: QEWDON_clean_linker_0, # of connection points: 3
#     Node 5, Type 0, BuildingBlock: QEWDON_clean_linker_0, # of connection points: 3
#     Node 6, Type 0, BuildingBlock: QEWDON_clean_linker_0, # of connection points: 3
#     Node 7, Type 0, BuildingBlock: QEWDON_clean_linker_0, # of connection points: 3
#     Node 8, Type 1, BuildingBlock: OJICUG_clean_sbu_0, # of connection points: 6
#     Node 9, Type 1, BuildingBlock: OJICUG_clean_sbu_0, # of connection points: 6
#     Node 10, Type 1, BuildingBlock: OJICUG_clean_sbu_0, # of connection points: 6
#     Node 11, Type 1, BuildingBlock: OJICUG_clean_sbu_0, # of connection points: 6
#     Edge 12, Type (0, 1), BuildingBlock: AJUNOK_clean_linker_0, # of connection points: 2
#     Edge 13, Type (0, 1), BuildingBlock: AJUNOK_clean_linker_0, # of connection points: 2
#     Edge 14, Type (0, 1), BuildingBlock: AJUNOK_clean_linker_0, # of connection points: 2
#     Edge 15, Type (0, 1), BuildingBlock: AJUNOK_clean_linker_0, # of connection points: 2
#     Edge 16, Type (0, 1), BuildingBlock: AJUNOK_clean_linker_0, # of connection points: 2
#     Edge 17, Type (0, 1), BuildingBlock: AJUNOK_clean_linker_0, # of connection points: 2
#     Edge 18, Type (0, 1), BuildingBlock: AJUNOK_clean_linker_0, # of connection points: 2
#     Edge 19, Type (0, 1), BuildingBlock: AJUNOK_clean_linker_0, # of connection points: 2
#     Edge 20, Type (0, 1), BuildingBlock: AJUNOK_clean_linker_0, # of connection points: 2
#     Edge 21, Type (0, 1), BuildingBlock: AJUNOK_clean_linker_0, # of connection points: 2
#     Edge 22, Type (0, 1), BuildingBlock: AJUNOK_clean_linker_0, # of connection points: 2
#     Edge 23, Type (0, 1), BuildingBlock: AJUNOK_clean_linker_0, # of connection points: 2
#     Edge 24, Type (0, 1), BuildingBlock: AJUNOK_clean_linker_0, # of connection points: 2
#     Edge 25, Type (0, 1), BuildingBlock: AJUNOK_clean_linker_0, # of connection points: 2
#     Edge 26, Type (0, 1), BuildingBlock: AJUNOK_clean_linker_0, # of connection points: 2
#     Edge 27, Type (0, 1), BuildingBlock: AJUNOK_clean_linker_0, # of connection points: 2
#     Edge 28, Type (0, 1), BuildingBlock: AJUNOK_clean_linker_0, # of connection points: 2
#     Edge 29, Type (0, 1), BuildingBlock: AJUNOK_clean_linker_0, # of connection points: 2
#     Edge 30, Type (0, 1), BuildingBlock: AJUNOK_clean_linker_0, # of connection points: 2
#     Edge 31, Type (0, 1), BuildingBlock: AJUNOK_clean_linker_0, # of connection points: 2
#     Edge 32, Type (0, 1), BuildingBlock: AJUNOK_clean_linker_0, # of connection points: 2
#     Edge 33, Type (0, 1), BuildingBlock: AJUNOK_clean_linker_0, # of connection points: 2
#     Edge 34, Type (0, 1), BuildingBlock: AJUNOK_clean_linker_0, # of connection points: 2
#     Edge 35, Type (0, 1), BuildingBlock: AJUNOK_clean_linker_0, # of connection points: 2
# Relax obj value: 0.006
# Max RMSD: 0.103
# Mean RMSD: 0.078
data_MOF--net-cml--node1-OJICUG_clean_sbu_0--node2-QEWDON_clean_linker_0--edge1-AJUNOK_clean_linker_0
_symmetry_space_group_name_H-M    P1
_symmetry_Int_Tables_number       1
_symmetry_cell_setting            triclinic
loop_
_symmetry_equiv_pos_as_xyz
'x, y, z'
_cell_length_a     32.280012
_cell_length_b     30.43388
_cell_length_c     26.789771
_cell_angle_alpha  90.036983
_cell_angle_beta   89.915344
_cell_angle_gamma 89.891834
loop_
_atom_site_label
_atom_site_type_symbol
_atom_site_fract_x
_atom_site_fract_y
_atom_site_fract_z
_atom_type_partial_charge
H0 H 0.29353 0.45185 0.95558 0.0
C1 C 0.30569 0.43292 0.98656 0.0
C2 C 0.34758 0.43684 -0.00027 0.0
C3 C 0.27881 0.40651 0.01493 0.0
H4 H 0.39456 0.41737 0.05233 0.0
C5 C 0.36245 0.41364 0.04117 0.0
C6 C 0.33583 0.38798 0.07041 0.0
C7 C 0.29396 0.38413 0.05702 0.0
C8 C 0.23404 0.40697 0.00389 0.0
H9 H 0.27296 0.36554 0.08048 0.0
C10 C 0.21366 0.36914 0.98641 0.0
C11 C 0.17135 0.37106 0.97362 0.0
C12 C 0.21182 0.44635 0.00946 0.0
H13 H 0.22708 0.47574 0.02289 0.0
C14 C 0.16979 0.44811 0.99781 0.0
H15 H 0.23099 0.33895 0.98111 0.0
C16 C 0.14967 0.41083 0.97982 0.0
H17 H 0.11705 0.41305 0.97069 0.0
H18 H 0.15281 0.47856 0.00236 0.0
H19 H 0.7141 0.56097 0.44979 0.0
C20 C 0.70114 0.57919 0.48094 0.0
C21 C 0.65907 0.57451 0.49297 0.0
C22 C 0.72729 0.60474 0.51118 0.0
H23 H 0.61098 0.59189 0.54531 0.0
C24 C 0.64318 0.59647 0.5349 0.0
C25 C 0.66907 0.62134 0.56588 0.0
C26 C 0.71119 0.62569 0.55378 0.0
C27 C 0.77239 0.60361 0.50247 0.0
H28 H 0.7317 0.64331 0.57874 0.0
C29 C 0.79352 0.64013 0.48283 0.0
C30 C 0.83616 0.63712 0.47215 0.0
C31 C 0.79422 0.56474 0.51265 0.0
H32 H 0.77834 0.53638 0.52783 0.0
C33 C 0.83665 0.56214 0.50334 0.0
H34 H 0.77668 0.67005 0.47437 0.0
C35 C 0.85753 0.59801 0.48304 0.0
H36 H 0.89045 0.59522 0.47567 0.0
H37 H 0.85334 0.53211 0.51146 0.0
H38 H 0.71286 0.39738 0.93788 0.0
C39 C 0.69948 0.39469 0.97488 0.0
C40 C 0.67689 0.4302 0.9951 0.0
C41 C 0.70206 0.35455 0.00088 0.0
H42 H 0.63949 0.45191 0.0571 0.0
C43 C 0.65787 0.42521 0.04191 0.0
C44 C 0.65852 0.38486 0.0671 0.0
C45 C 0.68152 0.34998 0.04696 0.0
C46 C 0.71962 0.31489 0.97667 0.0
H47 H 0.68138 0.31835 0.06558 0.0
C48 C 0.76242 0.31041 0.96709 0.0
C49 C 0.77816 0.27047 0.948 0.0
C50 C 0.69287 0.27991 0.96544 0.0
H51 H 0.65989 0.28278 0.9724 0.0
C52 C 0.70832 0.24088 0.94554 0.0
H53 H 0.78338 0.33701 0.97618 0.0
C54 C 0.75069 0.236 0.93723 0.0
H55 H 0.76213 0.20516 0.92233 0.0
H56 H 0.68744 0.21411 0.93709 0.0
H57 H 0.29464 0.60447 0.44539 0.0
C58 C 0.30633 0.60702 0.48317 0.0
C59 C 0.33189 0.57368 0.50288 0.0
C60 C 0.29887 0.64559 0.51056 0.0
H61 H 0.36995 0.5547 0.56538 0.0
C62 C 0.3482 0.57881 0.55115 0.0
C63 C 0.34062 0.61702 0.57901 0.0
C64 C 0.31496 0.64974 0.55891 0.0
C65 C 0.28355 0.68548 0.48528 0.0
H66 H 0.30972 0.67995 0.57948 0.0
C67 C 0.2413 0.69199 0.47474 0.0
C68 C 0.22796 0.73216 0.45404 0.0
C69 C 0.31224 0.71863 0.47377 0.0
H70 H 0.34489 0.71409 0.48167 0.0
C71 C 0.2991 0.75799 0.45249 0.0
H72 H 0.21895 0.66674 0.48404 0.0
C73 C 0.25719 0.7649 0.44297 0.0
H74 H 0.2475 0.7959 0.42682 0.0
H75 H 0.32142 0.78338 0.44382 0.0
H76 H 0.78907 0.95519 0.95612 0.0
C77 C 0.80342 0.93563 0.98521 0.0
C78 C 0.84626 0.93831 0.99289 0.0
C79 C 0.77892 0.90847 0.01557 0.0
H80 H 0.89739 0.91755 0.03855 0.0
C81 C 0.86453 0.9138 0.0312 0.0
C82 C 0.84021 0.88771 0.06291 0.0
C83 C 0.79735 0.88471 0.05463 0.0
C84 C 0.73361 0.90818 0.00888 0.0
H85 H 0.77822 0.86543 0.07966 0.0
C86 C 0.71322 0.87054 0.99103 0.0
C87 C 0.67054 0.87207 0.9808 0.0
C88 C 0.71091 0.94675 0.01797 0.0
H89 H 0.72623 0.97602 0.03163 0.0
C90 C 0.66833 0.94785 0.00928 0.0
H91 H 0.73076 0.84092 0.98308 0.0
C92 C 0.64823 0.91084 0.99049 0.0
H93 H 0.61528 0.91253 0.98305 0.0
H94 H 0.65097 0.97767 0.01642 0.0
H95 H 0.21894 0.05333 0.45118 0.0
C96 C 0.20437 0.07219 0.48077 0.0
C97 C 0.1616 0.06855 0.48889 0.0
C98 C 0.22856 0.09908 0.51173 0.0
H99 H 0.11036 0.08737 0.53585 0.0
C100 C 0.14311 0.09182 0.52822 0.0
C101 C 0.16723 0.11747 0.56055 0.0
C102 C 0.20996 0.12139 0.55188 0.0
C103 C 0.27392 0.09983 0.50559 0.0
H104 H 0.22894 0.14018 0.5775 0.0
C105 C 0.29409 0.13717 0.4866 0.0
C106 C 0.33749 0.13752 0.48186 0.0
C107 C 0.29725 0.06287 0.51942 0.0
H108 H 0.28209 0.03384 0.53403 0.0
C109 C 0.34033 0.06335 0.51515 0.0
H110 H 0.27617 0.16575 0.47568 0.0
C111 C 0.36043 0.10052 0.49669 0.0
H112 H 0.39389 0.10026 0.4934 0.0
H113 H 0.3582 0.03484 0.52619 0.0
H114 H 0.214 0.90275 0.93283 0.0
C115 C 0.20152 0.89988 0.97027 0.0
C116 C 0.17831 0.93474 0.99088 0.0
C117 C 0.20584 0.86002 0.99644 0.0
H118 H 0.14114 0.95535 0.05355 0.0
C119 C 0.16027 0.92933 0.03816 0.0
C120 C 0.16256 0.88912 0.06348 0.0
C121 C 0.18627 0.8549 0.04302 0.0
C122 C 0.22295 0.82072 0.97124 0.0
H123 H 0.18709 0.82324 0.06155 0.0
C124 C 0.26597 0.81347 0.96671 0.0
C125 C 0.28074 0.77381 0.94591 0.0
C126 C 0.19518 0.78884 0.95367 0.0
H127 H 0.16204 0.79388 0.95693 0.0
C128 C 0.20982 0.75009 0.93218 0.0
H129 H 0.28762 0.83771 0.98064 0.0
C130 C 0.2523 0.74247 0.92853 0.0
H131 H 0.26307 0.71194 0.91214 0.0
H132 H 0.18817 0.72569 0.91876 0.0
H133 H 0.7949 0.10216 0.43845 0.0
C134 C 0.80655 0.10529 0.47619 0.0
C135 C 0.83236 0.07241 0.49639 0.0
C136 C 0.79879 0.14414 0.50293 0.0
H137 H 0.87022 0.05429 0.55941 0.0
C138 C 0.84847 0.07817 0.54467 0.0
C139 C 0.84067 0.11671 0.57187 0.0
C140 C 0.81505 0.14917 0.55109 0.0
C141 C 0.78316 0.18344 0.47677 0.0
H142 H 0.80991 0.17973 0.571 0.0
C143 C 0.74058 0.19108 0.46955 0.0
C144 C 0.72723 0.23069 0.44747 0.0
C145 C 0.81207 0.21488 0.46082 0.0
H146 H 0.84496 0.20945 0.4662 0.0
C147 C 0.79888 0.25369 0.43832 0.0
H148 H 0.7181 0.16715 0.48226 0.0
C149 C 0.75672 0.26173 0.43193 0.0
H150 H 0.74705 0.29227 0.41469 0.0
H151 H 0.82137 0.27779 0.42622 0.0
Sc152 Sc 0.0034 0.80436 0.30457 0.0
Sc153 Sc 0.99091 0.91926 0.30515 0.0
Sc154 Sc 0.9927 0.8616 0.41871 0.0
O155 O 0.99563 0.86168 0.34283 0.0
C156 C 0.9402 0.77591 0.39115 0.0
C157 C 0.93622 0.85611 0.23862 0.0
C158 C 0.92785 0.93759 0.39532 0.0
C159 C 0.05707 0.86762 0.23743 0.0
C160 C 0.06372 0.79033 0.39764 0.0
C161 C 0.05049 0.94488 0.39452 0.0
O162 O 0.95647 0.77171 0.34811 0.0
O163 O 0.94279 0.89348 0.25834 0.0
O164 O 0.94013 0.9059 0.42252 0.0
O165 O 0.05132 0.83 0.25658 0.0
O166 O 0.0455 0.81853 0.42499 0.0
O167 O 0.03865 0.94974 0.34953 0.0
O168 O 0.05173 0.78132 0.35364 0.0
O169 O 0.03657 0.90145 0.25016 0.0
O170 O 0.03567 0.91585 0.42375 0.0
O171 O 0.95666 0.82164 0.24986 0.0
O172 O 0.95002 0.80684 0.42091 0.0
O173 O 0.9442 0.94593 0.35337 0.0
Sc174 Sc 0.00831 0.20173 0.80628 0.0
Sc175 Sc 0.01685 0.08592 0.80688 0.0
Sc176 Sc 0.01572 0.14439 0.92036 0.0
O177 O 0.01382 0.14402 0.84443 0.0
C178 C 0.06999 0.22904 0.89474 0.0
C179 C 0.07263 0.14866 0.73858 0.0
C180 C 0.08222 0.06934 0.89454 0.0
C181 C 0.95068 0.13854 0.74138 0.0
C182 C 0.94545 0.21628 0.89736 0.0
C183 C 0.9586 0.0608 0.89849 0.0
O184 O 0.05383 0.23454 0.85189 0.0
O185 O 0.06177 0.11119 0.75496 0.0
O186 O 0.06729 0.09871 0.92335 0.0
O187 O 0.96246 0.17622 0.75592 0.0
O188 O 0.96366 0.18893 0.92582 0.0
O189 O 0.97223 0.05409 0.85461 0.0
O190 O 0.95806 0.22442 0.8533 0.0
O191 O 0.96669 0.10303 0.75735 0.0
O192 O 0.97144 0.09177 0.92625 0.0
O193 O 0.0567 0.18462 0.75365 0.0
O194 O 0.05974 0.1976 0.92339 0.0
O195 O 0.06719 0.06139 0.85164 0.0
Sc196 Sc 0.49784 0.30503 0.31049 0.0
Sc197 Sc 0.48956 0.42039 0.31034 0.0
Sc198 Sc 0.49192 0.3638 0.42396 0.0
O199 O 0.49309 0.36293 0.34821 0.0
C200 C 0.4381 0.27809 0.40024 0.0
C201 C 0.43053 0.35879 0.24693 0.0
C202 C 0.42723 0.4392 0.40142 0.0
C203 C 0.55226 0.36591 0.24101 0.0
C204 C 0.56169 0.29212 0.40094 0.0
C205 C 0.54914 0.44746 0.39836 0.0
O206 O 0.45041 0.27417 0.35533 0.0
O207 O 0.43928 0.39601 0.26582 0.0
O208 O 0.43799 0.40619 0.42758 0.0
O209 O 0.54573 0.32867 0.26083 0.0
O210 O 0.54612 0.32248 0.4278 0.0
O211 O 0.53963 0.44966 0.35232 0.0
O212 O 0.5465 0.28098 0.35895 0.0
O213 O 0.53313 0.40057 0.25394 0.0
O214 O 0.53249 0.4199 0.42792 0.0
O215 O 0.45036 0.32366 0.25718 0.0
O216 O 0.45155 0.30769 0.42949 0.0
O217 O 0.44492 0.44858 0.36049 0.0
Sc218 Sc 0.50996 0.70048 0.81174 0.0
Sc219 Sc 0.51838 0.58493 0.81266 0.0
Sc220 Sc 0.51975 0.64353 0.92589 0.0
O221 O 0.51624 0.64302 0.85004 0.0
C222 C 0.57171 0.7297 0.89894 0.0
C223 C 0.57505 0.64716 0.74496 0.0
C224 C 0.58514 0.56829 0.89948 0.0
C225 C 0.45221 0.6376 0.74717 0.0
C226 C 0.44776 0.71375 0.90379 0.0
C227 C 0.46195 0.55955 0.90537 0.0
O228 O 0.55565 0.73377 0.85596 0.0
O229 O 0.56435 0.60972 0.76172 0.0
O230 O 0.57259 0.59946 0.92747 0.0
O231 O 0.46345 0.67519 0.76241 0.0
O232 O 0.46642 0.68639 0.93188 0.0
O233 O 0.47254 0.55479 0.85998 0.0
O234 O 0.46031 0.72286 0.8599 0.0
O235 O 0.46895 0.60222 0.76222 0.0
O236 O 0.47752 0.589 0.93334 0.0
O237 O 0.5581 0.68305 0.75873 0.0
O238 O 0.56213 0.69849 0.92831 0.0
O239 O 0.56785 0.55922 0.85812 0.0
C240 C 0.12634 0.33787 0.90802 0.0
C241 C 0.14948 0.33259 0.95202 0.0
C242 C 0.10213 0.30368 0.88891 0.0
C243 C 0.09968 0.26273 0.91324 0.0
H244 H 0.12641 0.36906 0.88854 0.0
H245 H 0.08416 0.31007 0.85558 0.0
S246 S 0.15687 0.23121 0.02817 0.0
N247 N 0.17034 0.2828 0.01822 0.0
N248 N 0.12493 0.21816 0.98243 0.0
C249 C 0.12399 0.25648 0.95642 0.0
C250 C 0.1489 0.29142 0.97571 0.0
C251 C 0.862 0.71479 0.47234 0.0
C252 C 0.85876 0.67391 0.44834 0.0
C253 C 0.88751 0.74806 0.45293 0.0
C254 C 0.91035 0.74179 0.40849 0.0
H255 H 0.84595 0.7205 0.5073 0.0
H256 H 0.88991 0.77859 0.47352 0.0
S257 S 0.90883 0.64124 0.3294 0.0
N258 N 0.87784 0.62963 0.3766 0.0
N259 N 0.92545 0.6917 0.33963 0.0
C260 C 0.90565 0.70145 0.38309 0.0
C261 C 0.88 0.66764 0.40316 0.0
C262 C 0.8427 0.22811 0.96547 0.0
C263 C 0.82314 0.26293 0.94032 0.0
C264 C 0.88311 0.21504 0.95321 0.0
C265 C 0.90542 0.23572 0.91454 0.0
H266 H 0.82603 0.20981 0.99376 0.0
H267 H 0.89606 0.18703 0.97267 0.0
S268 S 0.86879 0.33106 0.83993 0.0
N269 N 0.82959 0.31983 0.87751 0.0
N270 N 0.9055 0.29517 0.85364 0.0
C271 C 0.88673 0.27198 0.8906 0.0
C272 C 0.84564 0.28562 0.9037 0.0
C273 C 0.16512 0.77815 0.46756 0.0
C274 C 0.18367 0.7415 0.44472 0.0
C275 C 0.12539 0.79214 0.45394 0.0
C276 C 0.10291 0.77051 0.41619 0.0
H277 H 0.18205 0.797 0.49511 0.0
H278 H 0.11312 0.82143 0.47161 0.0
S279 S 0.13689 0.67044 0.34784 0.0
N280 N 0.17603 0.68194 0.38526 0.0
N281 N 0.10132 0.70835 0.35885 0.0
C282 C 0.12053 0.73252 0.39462 0.0
C283 C 0.16089 0.71797 0.40911 0.0
C284 C 0.6449 0.79441 0.98304 0.0
C285 C 0.64919 0.83437 0.95742 0.0
C286 C 0.62084 0.76016 0.96321 0.0
C287 C 0.60057 0.76454 0.9168 0.0
H288 H 0.65902 0.7902 0.01939 0.0
H289 H 0.61742 0.73043 0.98503 0.0
S290 S 0.60627 0.86202 0.83321 0.0
N291 N 0.63415 0.87577 0.88235 0.0
N292 N 0.58944 0.81181 0.8444 0.0
C293 C 0.60651 0.80395 0.88991 0.0
C294 C 0.63063 0.83875 0.91042 0.0
C295 C 0.38791 0.1989 0.49127 0.0
C296 C 0.35945 0.1761 0.46136 0.0
C297 C 0.41202 0.23298 0.47151 0.0
C298 C 0.40922 0.24482 0.42079 0.0
H299 H 0.39199 0.18982 0.53006 0.0
H300 H 0.43412 0.24904 0.4958 0.0
S301 S 0.33797 0.196 0.32747 0.0
N302 N 0.32836 0.16854 0.37939 0.0
N303 N 0.37434 0.23202 0.34166 0.0
C304 C 0.38019 0.22274 0.39075 0.0
C305 C 0.3551 0.18855 0.4112 0.0
C306 C 0.35085 0.78565 0.90804 0.0
C307 C 0.32558 0.76356 0.94252 0.0
C308 C 0.39109 0.7705 0.89727 0.0
C309 C 0.40764 0.73296 0.92099 0.0
H310 H 0.33868 0.81339 0.88738 0.0
H311 H 0.40885 0.78756 0.86897 0.0
S312 S 0.35414 0.66568 0.01721 0.0
N313 N 0.32016 0.70409 0.00234 0.0
N314 N 0.39562 0.67576 0.98298 0.0
C315 C 0.38314 0.7121 0.9576 0.0
C316 C 0.34215 0.72732 0.96805 0.0
C317 C 0.66666 0.27959 0.46295 0.0
C318 C 0.68277 0.24121 0.44112 0.0
C319 C 0.62668 0.29444 0.45163 0.0
C320 C 0.60141 0.27187 0.4173 0.0
H321 H 0.68567 0.29907 0.48783 0.0
H322 H 0.61637 0.32503 0.46826 0.0
S323 S 0.6285 0.1675 0.35288 0.0
N324 N 0.67 0.17929 0.38628 0.0
N325 N 0.59477 0.20717 0.36428 0.0
C326 C 0.61666 0.23228 0.39683 0.0
C327 C 0.65732 0.21693 0.40896 0.0
C328 C 0.39743 0.49931 0.0022 0.0
C329 C 0.37515 0.46849 0.97389 0.0
C330 C 0.42471 0.52889 0.97956 0.0
C331 C 0.43114 0.52882 0.92752 0.0
H332 H 0.39372 0.50062 0.04239 0.0
H333 H 0.44128 0.55159 0.0034 0.0
S334 S 0.37905 0.45508 0.83647 0.0
N335 N 0.36036 0.43994 0.89122 0.0
N336 N 0.41158 0.49562 0.8481 0.0
C337 C 0.4084 0.4985 0.89859 0.0
C338 C 0.38039 0.46843 0.92186 0.0
C339 C 0.6126 0.5094 0.49462 0.0
C340 C 0.63281 0.54195 0.46664 0.0
C341 C 0.58661 0.4787 0.47188 0.0
C342 C 0.57937 0.47921 0.41997 0.0
H343 H 0.6169 0.50762 0.53469 0.0
H344 H 0.57164 0.45474 0.49568 0.0
S345 S 0.62629 0.55747 0.32971 0.0
N346 N 0.64512 0.57262 0.38436 0.0
N347 N 0.59597 0.51493 0.341 0.0
C348 C 0.60015 0.51125 0.39128 0.0
C349 C 0.62697 0.54251 0.41471 0.0
C350 C 0.6456 0.4624 0.9182 0.0
C351 C 0.66507 0.46907 0.96447 0.0
C352 C 0.62246 0.49593 0.8955 0.0
C353 C 0.61756 0.53745 0.91834 0.0
H354 H 0.6453 0.43003 0.90134 0.0
H355 H 0.60594 0.488 0.86152 0.0
S356 S 0.67035 0.5743 0.03407 0.0
N357 N 0.68408 0.52226 0.02801 0.0
N358 N 0.64024 0.58525 0.98585 0.0
C359 C 0.64041 0.54579 0.96208 0.0
C360 C 0.66423 0.51165 0.98497 0.0
C361 C 0.3522 0.49463 0.49136 0.0
C362 C 0.34803 0.53716 0.47123 0.0
C363 C 0.3758 0.46218 0.46717 0.0
C364 C 0.39608 0.47086 0.42166 0.0
H365 H 0.33876 0.48701 0.52741 0.0
H366 H 0.37962 0.43073 0.48551 0.0
S367 S 0.39132 0.57583 0.35056 0.0
N368 N 0.36393 0.58531 0.40145 0.0
N369 N 0.40673 0.52429 0.35497 0.0
C370 C 0.38948 0.51233 0.39927 0.0
C371 C 0.36585 0.54545 0.42425 0.0
C372 C 0.90438 0.95505 0.9343 0.0
C373 C 0.87173 0.96999 0.96466 0.0
C374 C 0.93146 0.98482 0.91123 0.0
C375 C 0.9274 0.03035 0.91903 0.0
H376 H 0.90934 0.92013 0.92904 0.0
H377 H 0.9567 0.97204 0.88877 0.0
S378 S 0.84606 0.08589 0.99404 0.0
N379 N 0.83577 0.03297 -0.00014 0.0
N380 N 0.88732 0.08895 0.95767 0.0
C381 C 0.89441 0.04563 0.94865 0.0
C382 C 0.86638 0.0154 0.9712 0.0
C383 C 0.10575 0.05084 0.42755 0.0
C384 C 0.13669 0.03646 0.46058 0.0
C385 C 0.07903 0.02072 0.40441 0.0
C386 C 0.08175 0.97546 0.41475 0.0
H387 H 0.10175 0.08561 0.42032 0.0
H388 H 0.05501 0.0331 0.37994 0.0
S389 S 0.15869 0.9214 0.49715 0.0
N390 N 0.16983 0.97426 0.50089 0.0
N391 N 0.11894 0.91771 0.45862 0.0
C392 C 0.11314 0.96074 0.44701 0.0
C393 C 0.14081 0.99127 0.46964 0.0
C394 C 0.14498 0.96519 0.9143 0.0
C395 C 0.16471 0.97292 0.96021 0.0
C396 C 0.12079 0.99779 0.89146 0.0
C397 C 0.11507 0.03936 0.91382 0.0
H398 H 0.14544 0.93268 0.8978 0.0
H399 H 0.10419 0.98909 0.85778 0.0
S400 S 0.16758 0.07894 0.02852 0.0
N401 N 0.18266 0.02728 0.02298 0.0
N402 N 0.13682 0.08848 0.98051 0.0
C403 C 0.13787 0.04878 0.95729 0.0
C404 C 0.16277 0.01562 0.98032 0.0
C405 C 0.85319 0.99337 0.4855 0.0
C406 C 0.84887 0.03579 0.46512 0.0
C407 C 0.8767 0.96083 0.46132 0.0
C408 C 0.89675 0.96929 0.41559 0.0
H409 H 0.83986 0.9859 0.52164 0.0
H410 H 0.8806 0.92944 0.47976 0.0
S411 S 0.89216 0.07418 0.34434 0.0
N412 N 0.86477 0.08377 0.39519 0.0
N413 N 0.90749 0.02262 0.34884 0.0
C414 C 0.89018 0.01074 0.39313 0.0
C415 C 0.86663 0.04394 0.41807 0.0
C416 C 0.38434 0.34089 0.11922 0.0
C417 C 0.3516 0.37139 0.11856 0.0
C418 C 0.40759 0.33385 0.16271 0.0
C419 C 0.39945 0.35801 0.20647 0.0
H420 H 0.39361 0.32444 0.08509 0.0
H421 H 0.43412 0.31205 0.16079 0.0
S422 S 0.31443 0.43849 0.22502 0.0
N423 N 0.30981 0.42287 0.16622 0.0
N424 N 0.35401 0.41048 0.24775 0.0
C425 C 0.36509 0.38645 0.20707 0.0
C426 C 0.341 0.39294 0.16311 0.0
C427 C 0.62042 0.667 0.61684 0.0
C428 C 0.65262 0.63588 0.61469 0.0
C429 C 0.59755 0.67335 0.6609 0.0
C430 C 0.60545 0.64784 0.70366 0.0
H431 H 0.61151 0.68481 0.58353 0.0
H432 H 0.57158 0.69595 0.66027 0.0
S433 S 0.68864 0.56466 0.71801 0.0
N434 N 0.69337 0.58191 0.65984 0.0
N435 N 0.64976 0.59291 0.74224 0.0
C436 C 0.63903 0.61839 0.70265 0.0
C437 C 0.66278 0.61262 0.6582 0.0
C438 C 0.64601 0.35859 0.15517 0.0
C439 C 0.63099 0.37805 0.111 0.0
C440 C 0.62031 0.35372 0.19732 0.0
C441 C 0.57907 0.36862 0.19657 0.0
H442 H 0.67797 0.34788 0.15744 0.0
H443 H 0.633 0.33929 0.23095 0.0
S444 S 0.52302 0.41549 0.08828 0.0
N445 N 0.57062 0.40717 0.06767 0.0
N446 N 0.52325 0.39959 0.14717 0.0
C447 C 0.56336 0.38658 0.15225 0.0
C448 C 0.58908 0.39089 0.10937 0.0
C449 C 0.36925 0.59194 0.66126 0.0
C450 C 0.36495 0.6252 0.62514 0.0
C451 C 0.39656 0.5967 0.70157 0.0
C452 C 0.42036 0.63505 0.70749 0.0
H453 H 0.35211 0.56154 0.65762 0.0
H454 H 0.39955 0.56981 0.72782 0.0
S455 S 0.42115 0.73156 0.62272 0.0
N456 N 0.38743 0.69749 0.5975 0.0
N457 N 0.43767 0.70699 0.67385 0.0
C458 C 0.41545 0.6691 0.67243 0.0
C459 C 0.38803 0.66404 0.63114 0.0
C460 C 0.84635 0.88626 0.1554 0.0
C461 C 0.85924 0.86987 0.10881 0.0
C462 C 0.87013 0.87917 0.19838 0.0
C463 C 0.90705 0.85463 0.19634 0.0
H464 H 0.81939 0.90742 0.15797 0.0
H465 H 0.86065 0.89474 0.23295 0.0
S466 S 0.95205 0.80143 0.08408 0.0
N467 N 0.90961 0.82584 0.06358 0.0
N468 N 0.95387 0.81145 0.14465 0.0
C469 C 0.91863 0.83541 0.15067 0.0
C470 C 0.89484 0.84335 0.10676 0.0
C471 C 0.15988 0.11435 0.65289 0.0
C472 C 0.14839 0.13381 0.60738 0.0
C473 C 0.13659 0.12151 0.69638 0.0
C474 C 0.10169 0.14922 0.69602 0.0
H475 H 0.18536 0.09114 0.65413 0.0
H476 H 0.14487 0.10379 0.73 0.0
S477 S 0.06071 0.21036 0.58704 0.0
N478 N 0.10123 0.18338 0.56488 0.0
N479 N 0.05814 0.19808 0.64704 0.0
C480 C 0.0915 0.17106 0.65146 0.0
C481 C 0.11467 0.16298 0.60696 0.0
C482 C 0.15135 0.86402 0.15219 0.0
C483 C 0.1354 0.8815 0.10746 0.0
C484 C 0.12587 0.85875 0.19447 0.0
C485 C 0.08395 0.87129 0.19321 0.0
H486 H 0.1838 0.85519 0.15475 0.0
H487 H 0.13917 0.84581 0.22854 0.0
S488 S 0.02574 0.91202 0.08342 0.0
N489 N 0.07375 0.90604 0.06314 0.0
N490 N 0.02667 0.89764 0.1428 0.0
C491 C 0.06739 0.88716 0.14833 0.0
C492 C 0.09291 0.89187 0.10537 0.0
C493 C 0.86787 0.09284 0.65524 0.0
C494 C 0.86464 0.12538 0.61816 0.0
C495 C 0.89472 0.09793 0.69596 0.0
C496 C 0.9192 0.13588 0.70126 0.0
H497 H 0.85022 0.06272 0.65209 0.0
H498 H 0.89687 0.07157 0.72299 0.0
S499 S 0.9231 0.23025 0.61355 0.0
N500 N 0.88888 0.19646 0.58881 0.0
N501 N 0.93851 0.20653 0.6657 0.0
C502 C 0.91545 0.16919 0.66507 0.0
C503 C 0.8884 0.16382 0.62345 0.0
loop_
_geom_bond_atom_site_label_1
_geom_bond_atom_site_label_2
_geom_bond_distance
_geom_bond_site_symmetry_2
_ccdc_geom_bond_type
H0 C1 0.949 . S
C1 H0 0.949 . S
C1 C2 1.395 . S
C1 C3 1.391 1_556 S
C2 C1 1.395 . S
C2 C5 1.390 1_556 S
C3 C1 1.391 1_554 S
C3 C7 1.387 . S
C3 C8 1.491 . S
H4 C5 0.950 . S
C5 C2 1.390 1_554 S
C5 H4 0.950 . S
C5 C6 1.378 . S
C6 C5 1.378 . S
C6 C7 1.409 . S
C7 C3 1.387 . S
C7 C6 1.409 . S
C7 H9 0.951 . S
C8 C3 1.491 . S
C8 C10 1.382 1_554 S
C8 C12 1.404 . S
H9 C7 0.951 . S
C10 C8 1.382 1_556 S
C10 C11 1.390 . S
C10 H15 0.949 . S
C11 C10 1.390 . S
C11 C16 1.399 1_556 S
C12 C8 1.404 . S
C12 H13 0.950 . S
C12 C14 1.375 . S
H13 C12 0.950 . S
C14 C12 1.375 . S
C14 C16 1.382 . S
C14 H18 0.950 . S
H15 C10 0.949 . S
C16 C11 1.399 1_554 S
C16 C14 1.382 . S
C16 H17 0.952 . S
H17 C16 0.952 . S
H18 C14 0.950 . S
H19 C20 0.949 . S
C20 H19 0.949 . S
C20 C21 1.395 . S
C20 C22 1.391 . S
C21 C20 1.395 . S
C21 C24 1.390 . S
C22 C20 1.391 . S
C22 C26 1.387 . S
C22 C27 1.491 . S
H23 C24 0.950 . S
C24 C21 1.390 . S
C24 H23 0.950 . S
C24 C25 1.378 . S
C25 C24 1.378 . S
C25 C26 1.409 . S
C26 C22 1.387 . S
C26 C25 1.409 . S
C26 H28 0.951 . S
C27 C22 1.491 . S
C27 C29 1.382 . S
C27 C31 1.404 . S
H28 C26 0.951 . S
C29 C27 1.382 . S
C29 C30 1.390 . S
C29 H34 0.949 . S
C30 C29 1.390 . S
C30 C35 1.399 . S
C31 C27 1.404 . S
C31 H32 0.950 . S
C31 C33 1.375 . S
H32 C31 0.950 . S
C33 C31 1.375 . S
C33 C35 1.382 . S
C33 H37 0.950 . S
H34 C29 0.949 . S
C35 C30 1.399 . S
C35 C33 1.382 . S
C35 H36 0.952 . S
H36 C35 0.952 . S
H37 C33 0.950 . S
H38 C39 0.949 . S
C39 H38 0.949 . S
C39 C40 1.395 . S
C39 C41 1.391 1_556 S
C40 C39 1.395 . S
C40 C43 1.390 1_556 S
C41 C39 1.391 1_554 S
C41 C45 1.387 . S
C41 C46 1.491 . S
H42 C43 0.950 . S
C43 C40 1.390 1_554 S
C43 H42 0.950 . S
C43 C44 1.378 . S
C44 C43 1.378 . S
C44 C45 1.409 . S
C45 C41 1.387 . S
C45 C44 1.409 . S
C45 H47 0.951 . S
C46 C41 1.491 . S
C46 C48 1.382 1_554 S
C46 C50 1.404 . S
H47 C45 0.951 . S
C48 C46 1.382 1_556 S
C48 C49 1.390 . S
C48 H53 0.949 . S
C49 C48 1.390 . S
C49 C54 1.399 . S
C50 C46 1.404 . S
C50 H51 0.950 . S
C50 C52 1.375 . S
H51 C50 0.950 . S
C52 C50 1.375 . S
C52 C54 1.382 1_554 S
C52 H56 0.950 . S
H53 C48 0.949 . S
C54 C49 1.399 . S
C54 C52 1.382 1_556 S
C54 H55 0.952 . S
H55 C54 0.952 . S
H56 C52 0.950 . S
H57 C58 0.949 . S
C58 H57 0.949 . S
C58 C59 1.395 . S
C58 C60 1.391 . S
C59 C58 1.395 . S
C59 C62 1.390 . S
C60 C58 1.391 . S
C60 C64 1.387 . S
C60 C65 1.491 . S
H61 C62 0.950 . S
C62 C59 1.390 . S
C62 H61 0.950 . S
C62 C63 1.378 . S
C63 C62 1.378 . S
C63 C64 1.409 . S
C64 C60 1.387 . S
C64 C63 1.409 . S
C64 H66 0.951 . S
C65 C60 1.491 . S
C65 C67 1.382 . S
C65 C69 1.404 . S
H66 C64 0.951 . S
C67 C65 1.382 . S
C67 C68 1.390 . S
C67 H72 0.949 . S
C68 C67 1.390 . S
C68 C73 1.399 . S
C69 C65 1.404 . S
C69 H70 0.950 . S
C69 C71 1.375 . S
H70 C69 0.950 . S
C71 C69 1.375 . S
C71 C73 1.382 . S
C71 H75 0.950 . S
H72 C67 0.949 . S
C73 C68 1.399 . S
C73 C71 1.382 . S
C73 H74 0.952 . S
H74 C73 0.952 . S
H75 C71 0.950 . S
H76 C77 0.949 . S
C77 H76 0.949 . S
C77 C78 1.395 . S
C77 C79 1.391 1_556 S
C78 C77 1.395 . S
C78 C81 1.390 1_556 S
C79 C77 1.391 1_554 S
C79 C83 1.387 . S
C79 C84 1.491 . S
H80 C81 0.950 . S
C81 C78 1.390 1_554 S
C81 H80 0.950 . S
C81 C82 1.378 . S
C82 C81 1.378 . S
C82 C83 1.409 . S
C83 C79 1.387 . S
C83 C82 1.409 . S
C83 H85 0.951 . S
C84 C79 1.491 . S
C84 C86 1.382 1_554 S
C84 C88 1.404 . S
H85 C83 0.951 . S
C86 C84 1.382 1_556 S
C86 C87 1.390 . S
C86 H91 0.949 . S
C87 C86 1.390 . S
C87 C92 1.399 1_556 S
C88 C84 1.404 . S
C88 H89 0.950 . S
C88 C90 1.375 . S
H89 C88 0.950 . S
C90 C88 1.375 . S
C90 C92 1.382 . S
C90 H94 0.950 . S
H91 C86 0.949 . S
C92 C87 1.399 1_554 S
C92 C90 1.382 . S
C92 H93 0.952 . S
H93 C92 0.952 . S
H94 C90 0.950 . S
H95 C96 0.949 . S
C96 H95 0.949 . S
C96 C97 1.395 . S
C96 C98 1.391 . S
C97 C96 1.395 . S
C97 C100 1.390 . S
C98 C96 1.391 . S
C98 C102 1.387 . S
C98 C103 1.491 . S
H99 C100 0.950 . S
C100 C97 1.390 . S
C100 H99 0.950 . S
C100 C101 1.378 . S
C101 C100 1.378 . S
C101 C102 1.409 . S
C102 C98 1.387 . S
C102 C101 1.409 . S
C102 H104 0.951 . S
C103 C98 1.491 . S
C103 C105 1.382 . S
C103 C107 1.404 . S
H104 C102 0.951 . S
C105 C103 1.382 . S
C105 C106 1.390 . S
C105 H110 0.949 . S
C106 C105 1.390 . S
C106 C111 1.399 . S
C107 C103 1.404 . S
C107 H108 0.950 . S
C107 C109 1.375 . S
H108 C107 0.950 . S
C109 C107 1.375 . S
C109 C111 1.382 . S
C109 H113 0.950 . S
H110 C105 0.949 . S
C111 C106 1.399 . S
C111 C109 1.382 . S
C111 H112 0.952 . S
H112 C111 0.952 . S
H113 C109 0.950 . S
H114 C115 0.949 . S
C115 H114 0.949 . S
C115 C116 1.395 . S
C115 C117 1.391 1_556 S
C116 C115 1.395 . S
C116 C119 1.390 1_556 S
C117 C115 1.391 1_554 S
C117 C121 1.387 . S
C117 C122 1.491 . S
H118 C119 0.950 . S
C119 C116 1.390 1_554 S
C119 H118 0.950 . S
C119 C120 1.378 . S
C120 C119 1.378 . S
C120 C121 1.409 . S
C121 C117 1.387 . S
C121 C120 1.409 . S
C121 H123 0.951 . S
C122 C117 1.491 . S
C122 C124 1.382 1_554 S
C122 C126 1.404 . S
H123 C121 0.951 . S
C124 C122 1.382 1_556 S
C124 C125 1.390 . S
C124 H129 0.949 . S
C125 C124 1.390 . S
C125 C130 1.399 . S
C126 C122 1.404 . S
C126 H127 0.950 . S
C126 C128 1.375 . S
H127 C126 0.950 . S
C128 C126 1.375 . S
C128 C130 1.382 1_554 S
C128 H132 0.950 . S
H129 C124 0.949 . S
C130 C125 1.399 . S
C130 C128 1.382 1_556 S
C130 H131 0.952 . S
H131 C130 0.952 . S
H132 C128 0.950 . S
H133 C134 0.949 . S
C134 H133 0.949 . S
C134 C135 1.395 . S
C134 C136 1.391 . S
C135 C134 1.395 . S
C135 C138 1.390 . S
C136 C134 1.391 . S
C136 C140 1.387 . S
C136 C141 1.491 . S
H137 C138 0.950 . S
C138 C135 1.390 . S
C138 H137 0.950 . S
C138 C139 1.378 . S
C139 C138 1.378 . S
C139 C140 1.409 . S
C140 C136 1.387 . S
C140 C139 1.409 . S
C140 H142 0.951 . S
C141 C136 1.491 . S
C141 C143 1.382 . S
C141 C145 1.404 . S
H142 C140 0.951 . S
C143 C141 1.382 . S
C143 C144 1.390 . S
C143 H148 0.949 . S
C144 C143 1.390 . S
C144 C149 1.399 . S
C145 C141 1.404 . S
C145 H146 0.950 . S
C145 C147 1.375 . S
H146 C145 0.950 . S
C147 C145 1.375 . S
C147 C149 1.382 . S
C147 H151 0.950 . S
H148 C143 0.949 . S
C149 C144 1.399 . S
C149 C147 1.382 . S
C149 H150 0.952 . S
H150 C149 0.952 . S
H151 C147 0.950 . S
Sc152 O155 2.025 . S
Sc152 O162 2.105 1_455 S
Sc152 O165 2.105 . S
Sc152 O168 2.105 . S
Sc152 O171 2.105 1_455 S
Sc153 O155 2.025 . S
Sc153 O163 2.105 1_455 S
Sc153 O167 2.105 . S
Sc153 O169 2.105 . S
Sc153 O173 2.105 1_455 S
Sc154 O155 2.025 . S
Sc154 O164 2.105 1_455 S
Sc154 O166 2.105 . S
Sc154 O170 2.105 . S
Sc154 O172 2.105 1_455 S
O155 Sc152 2.025 . S
O155 Sc153 2.025 . S
O155 Sc154 2.025 . S
C156 O162 1.268 . S
C156 O172 1.268 . S
C157 O163 1.268 . S
C157 O171 1.268 . S
C158 O164 1.268 . S
C158 O173 1.268 . S
C159 O165 1.268 . S
C159 O169 1.268 . S
C160 O166 1.268 . S
C160 O168 1.268 . S
C161 O167 1.268 . S
C161 O170 1.268 . S
O162 Sc152 2.105 1_655 S
O162 C156 1.268 . S
O163 Sc153 2.105 1_655 S
O163 C157 1.268 . S
O164 Sc154 2.105 1_655 S
O164 C158 1.268 . S
O165 Sc152 2.105 . S
O165 C159 1.268 . S
O166 Sc154 2.105 . S
O166 C160 1.268 . S
O167 Sc153 2.105 . S
O167 C161 1.268 . S
O168 Sc152 2.105 . S
O168 C160 1.268 . S
O169 Sc153 2.105 . S
O169 C159 1.268 . S
O170 Sc154 2.105 . S
O170 C161 1.268 . S
O171 Sc152 2.105 1_655 S
O171 C157 1.268 . S
O172 Sc154 2.105 1_655 S
O172 C156 1.268 . S
O173 Sc153 2.105 1_655 S
O173 C158 1.268 . S
Sc174 O177 2.025 . S
Sc174 O184 2.105 . S
Sc174 O187 2.105 1_455 S
Sc174 O190 2.105 1_455 S
Sc174 O193 2.105 . S
Sc175 O177 2.025 . S
Sc175 O185 2.105 . S
Sc175 O189 2.105 1_455 S
Sc175 O191 2.105 1_455 S
Sc175 O195 2.105 . S
Sc176 O177 2.025 . S
Sc176 O186 2.105 . S
Sc176 O188 2.105 1_455 S
Sc176 O192 2.105 1_455 S
Sc176 O194 2.105 . S
O177 Sc174 2.025 . S
O177 Sc175 2.025 . S
O177 Sc176 2.025 . S
C178 O184 1.268 . S
C178 O194 1.268 . S
C179 O185 1.268 . S
C179 O193 1.268 . S
C180 O186 1.268 . S
C180 O195 1.268 . S
C181 O187 1.268 . S
C181 O191 1.268 . S
C182 O188 1.268 . S
C182 O190 1.268 . S
C183 O189 1.268 . S
C183 O192 1.268 . S
O184 Sc174 2.105 . S
O184 C178 1.268 . S
O185 Sc175 2.105 . S
O185 C179 1.268 . S
O186 Sc176 2.105 . S
O186 C180 1.268 . S
O187 Sc174 2.105 1_655 S
O187 C181 1.268 . S
O188 Sc176 2.105 1_655 S
O188 C182 1.268 . S
O189 Sc175 2.105 1_655 S
O189 C183 1.268 . S
O190 Sc174 2.105 1_655 S
O190 C182 1.268 . S
O191 Sc175 2.105 1_655 S
O191 C181 1.268 . S
O192 Sc176 2.105 1_655 S
O192 C183 1.268 . S
O193 Sc174 2.105 . S
O193 C179 1.268 . S
O194 Sc176 2.105 . S
O194 C178 1.268 . S
O195 Sc175 2.105 . S
O195 C180 1.268 . S
Sc196 O199 2.025 . S
Sc196 O206 2.105 . S
Sc196 O209 2.105 . S
Sc196 O212 2.105 . S
Sc196 O215 2.105 . S
Sc197 O199 2.025 . S
Sc197 O207 2.105 . S
Sc197 O211 2.105 . S
Sc197 O213 2.105 . S
Sc197 O217 2.105 . S
Sc198 O199 2.025 . S
Sc198 O208 2.105 . S
Sc198 O210 2.105 . S
Sc198 O214 2.105 . S
Sc198 O216 2.105 . S
O199 Sc196 2.025 . S
O199 Sc197 2.025 . S
O199 Sc198 2.025 . S
C200 O206 1.268 . S
C200 O216 1.268 . S
C201 O207 1.268 . S
C201 O215 1.268 . S
C202 O208 1.268 . S
C202 O217 1.268 . S
C203 O209 1.268 . S
C203 O213 1.268 . S
C204 O210 1.268 . S
C204 O212 1.268 . S
C205 O211 1.268 . S
C205 O214 1.268 . S
O206 Sc196 2.105 . S
O206 C200 1.268 . S
O207 Sc197 2.105 . S
O207 C201 1.268 . S
O208 Sc198 2.105 . S
O208 C202 1.268 . S
O209 Sc196 2.105 . S
O209 C203 1.268 . S
O210 Sc198 2.105 . S
O210 C204 1.268 . S
O211 Sc197 2.105 . S
O211 C205 1.268 . S
O212 Sc196 2.105 . S
O212 C204 1.268 . S
O213 Sc197 2.105 . S
O213 C203 1.268 . S
O214 Sc198 2.105 . S
O214 C205 1.268 . S
O215 Sc196 2.105 . S
O215 C201 1.268 . S
O216 Sc198 2.105 . S
O216 C200 1.268 . S
O217 Sc197 2.105 . S
O217 C202 1.268 . S
Sc218 O221 2.025 . S
Sc218 O228 2.105 . S
Sc218 O231 2.105 . S
Sc218 O234 2.105 . S
Sc218 O237 2.105 . S
Sc219 O221 2.025 . S
Sc219 O229 2.105 . S
Sc219 O233 2.105 . S
Sc219 O235 2.105 . S
Sc219 O239 2.105 . S
Sc220 O221 2.025 . S
Sc220 O230 2.105 . S
Sc220 O232 2.105 . S
Sc220 O236 2.105 . S
Sc220 O238 2.105 . S
O221 Sc218 2.025 . S
O221 Sc219 2.025 . S
O221 Sc220 2.025 . S
C222 O228 1.268 . S
C222 O238 1.268 . S
C223 O229 1.268 . S
C223 O237 1.268 . S
C224 O230 1.268 . S
C224 O239 1.268 . S
C225 O231 1.268 . S
C225 O235 1.268 . S
C226 O232 1.268 . S
C226 O234 1.268 . S
C227 O233 1.268 . S
C227 O236 1.268 . S
O228 Sc218 2.105 . S
O228 C222 1.268 . S
O229 Sc219 2.105 . S
O229 C223 1.268 . S
O230 Sc220 2.105 . S
O230 C224 1.268 . S
O231 Sc218 2.105 . S
O231 C225 1.268 . S
O232 Sc220 2.105 . S
O232 C226 1.268 . S
O233 Sc219 2.105 . S
O233 C227 1.268 . S
O234 Sc218 2.105 . S
O234 C226 1.268 . S
O235 Sc219 2.105 . S
O235 C225 1.268 . S
O236 Sc220 2.105 . S
O236 C227 1.268 . S
O237 Sc218 2.105 . S
O237 C223 1.268 . S
O238 Sc220 2.105 . S
O238 C222 1.268 . S
O239 Sc219 2.105 . S
O239 C224 1.268 . S
C240 C241 1.369 . S
C240 C242 1.419 . S
C240 H244 0.930 . S
C241 C240 1.369 . S
C241 C250 1.429 . S
C242 C240 1.419 . S
C242 C243 1.363 . S
C242 H245 0.929 . S
C243 C242 1.363 . S
C243 C249 1.428 . S
H244 C240 0.930 . S
H245 C242 0.929 . S
S246 N247 1.613 . S
S246 N248 1.610 . S
N247 S246 1.613 . S
N247 C250 1.350 . S
N248 S246 1.610 . S
N248 C249 1.351 . S
C249 C243 1.428 . S
C249 N248 1.351 . S
C249 C250 1.434 . S
C250 C241 1.429 . S
C250 N247 1.350 . S
C250 C249 1.434 . S
C251 C252 1.369 . S
C251 C253 1.419 . S
C251 H255 0.930 . S
C252 C251 1.369 . S
C252 C261 1.429 . S
C253 C251 1.419 . S
C253 C254 1.363 . S
C253 H256 0.929 . S
C254 C253 1.363 . S
C254 C260 1.428 . S
H255 C251 0.930 . S
H256 C253 0.929 . S
S257 N258 1.613 . S
S257 N259 1.610 . S
N258 S257 1.613 . S
N258 C261 1.350 . S
N259 S257 1.610 . S
N259 C260 1.351 . S
C260 C254 1.428 . S
C260 N259 1.351 . S
C260 C261 1.434 . S
C261 C252 1.429 . S
C261 N258 1.350 . S
C261 C260 1.434 . S
C262 C263 1.369 . S
C262 C264 1.419 . S
C262 H266 0.930 . S
C263 C262 1.369 . S
C263 C272 1.429 . S
C264 C262 1.419 . S
C264 C265 1.363 . S
C264 H267 0.929 . S
C265 C264 1.363 . S
C265 C271 1.428 . S
H266 C262 0.930 . S
H267 C264 0.929 . S
S268 N269 1.613 . S
S268 N270 1.610 . S
N269 S268 1.613 . S
N269 C272 1.350 . S
N270 S268 1.610 . S
N270 C271 1.351 . S
C271 C265 1.428 . S
C271 N270 1.351 . S
C271 C272 1.434 . S
C272 C263 1.429 . S
C272 N269 1.350 . S
C272 C271 1.434 . S
C273 C274 1.369 . S
C273 C275 1.419 . S
C273 H277 0.930 . S
C274 C273 1.369 . S
C274 C283 1.429 . S
C275 C273 1.419 . S
C275 C276 1.363 . S
C275 H278 0.929 . S
C276 C275 1.363 . S
C276 C282 1.428 . S
H277 C273 0.930 . S
H278 C275 0.929 . S
S279 N280 1.613 . S
S279 N281 1.610 . S
N280 S279 1.613 . S
N280 C283 1.350 . S
N281 S279 1.610 . S
N281 C282 1.351 . S
C282 C276 1.428 . S
C282 N281 1.351 . S
C282 C283 1.434 . S
C283 C274 1.429 . S
C283 N280 1.350 . S
C283 C282 1.434 . S
C284 C285 1.369 . S
C284 C286 1.419 . S
C284 H288 0.930 . S
C285 C284 1.369 . S
C285 C294 1.429 . S
C286 C284 1.419 . S
C286 C287 1.363 . S
C286 H289 0.929 . S
C287 C286 1.363 . S
C287 C293 1.428 . S
H288 C284 0.930 . S
H289 C286 0.929 . S
S290 N291 1.613 . S
S290 N292 1.610 . S
N291 S290 1.613 . S
N291 C294 1.350 . S
N292 S290 1.610 . S
N292 C293 1.351 . S
C293 C287 1.428 . S
C293 N292 1.351 . S
C293 C294 1.434 . S
C294 C285 1.429 . S
C294 N291 1.350 . S
C294 C293 1.434 . S
C295 C296 1.369 . S
C295 C297 1.419 . S
C295 H299 0.930 . S
C296 C295 1.369 . S
C296 C305 1.429 . S
C297 C295 1.419 . S
C297 C298 1.363 . S
C297 H300 0.929 . S
C298 C297 1.363 . S
C298 C304 1.428 . S
H299 C295 0.930 . S
H300 C297 0.929 . S
S301 N302 1.613 . S
S301 N303 1.610 . S
N302 S301 1.613 . S
N302 C305 1.350 . S
N303 S301 1.610 . S
N303 C304 1.351 . S
C304 C298 1.428 . S
C304 N303 1.351 . S
C304 C305 1.434 . S
C305 C296 1.429 . S
C305 N302 1.350 . S
C305 C304 1.434 . S
C306 C307 1.369 . S
C306 C308 1.419 . S
C306 H310 0.930 . S
C307 C306 1.369 . S
C307 C316 1.429 . S
C308 C306 1.419 . S
C308 C309 1.363 . S
C308 H311 0.929 . S
C309 C308 1.363 . S
C309 C315 1.428 . S
H310 C306 0.930 . S
H311 C308 0.929 . S
S312 N313 1.613 . S
S312 N314 1.610 1_554 S
N313 S312 1.613 . S
N313 C316 1.350 1_554 S
N314 S312 1.610 1_556 S
N314 C315 1.351 . S
C315 C309 1.428 . S
C315 N314 1.351 . S
C315 C316 1.434 . S
C316 C307 1.429 . S
C316 N313 1.350 1_556 S
C316 C315 1.434 . S
C317 C318 1.369 . S
C317 C319 1.419 . S
C317 H321 0.930 . S
C318 C317 1.369 . S
C318 C327 1.429 . S
C319 C317 1.419 . S
C319 C320 1.363 . S
C319 H322 0.929 . S
C320 C319 1.363 . S
C320 C326 1.428 . S
H321 C317 0.930 . S
H322 C319 0.929 . S
S323 N324 1.613 . S
S323 N325 1.610 . S
N324 S323 1.613 . S
N324 C327 1.350 . S
N325 S323 1.610 . S
N325 C326 1.351 . S
C326 C320 1.428 . S
C326 N325 1.351 . S
C326 C327 1.434 . S
C327 C318 1.429 . S
C327 N324 1.350 . S
C327 C326 1.434 . S
C328 C329 1.369 . S
C328 C330 1.419 . S
C328 H332 0.930 . S
C329 C328 1.369 . S
C329 C338 1.429 . S
C330 C328 1.419 . S
C330 C331 1.363 . S
C330 H333 0.929 . S
C331 C330 1.363 . S
C331 C337 1.428 . S
H332 C328 0.930 . S
H333 C330 0.929 . S
S334 N335 1.613 . S
S334 N336 1.610 . S
N335 S334 1.613 . S
N335 C338 1.350 . S
N336 S334 1.610 . S
N336 C337 1.351 . S
C337 C331 1.428 . S
C337 N336 1.351 . S
C337 C338 1.434 . S
C338 C329 1.429 . S
C338 N335 1.350 . S
C338 C337 1.434 . S
C339 C340 1.369 . S
C339 C341 1.419 . S
C339 H343 0.930 . S
C340 C339 1.369 . S
C340 C349 1.429 . S
C341 C339 1.419 . S
C341 C342 1.363 . S
C341 H344 0.929 . S
C342 C341 1.363 . S
C342 C348 1.428 . S
H343 C339 0.930 . S
H344 C341 0.929 . S
S345 N346 1.613 . S
S345 N347 1.610 . S
N346 S345 1.613 . S
N346 C349 1.350 . S
N347 S345 1.610 . S
N347 C348 1.351 . S
C348 C342 1.428 . S
C348 N347 1.351 . S
C348 C349 1.434 . S
C349 C340 1.429 . S
C349 N346 1.350 . S
C349 C348 1.434 . S
C350 C351 1.369 . S
C350 C352 1.419 . S
C350 H354 0.930 . S
C351 C350 1.369 . S
C351 C360 1.429 . S
C352 C350 1.419 . S
C352 C353 1.363 . S
C352 H355 0.929 . S
C353 C352 1.363 . S
C353 C359 1.428 . S
H354 C350 0.930 . S
H355 C352 0.929 . S
S356 N357 1.613 . S
S356 N358 1.610 . S
N357 S356 1.613 . S
N357 C360 1.350 . S
N358 S356 1.610 . S
N358 C359 1.351 . S
C359 C353 1.428 . S
C359 N358 1.351 . S
C359 C360 1.434 . S
C360 C351 1.429 . S
C360 N357 1.350 . S
C360 C359 1.434 . S
C361 C362 1.369 . S
C361 C363 1.419 . S
C361 H365 0.930 . S
C362 C361 1.369 . S
C362 C371 1.429 . S
C363 C361 1.419 . S
C363 C364 1.363 . S
C363 H366 0.929 . S
C364 C363 1.363 . S
C364 C370 1.428 . S
H365 C361 0.930 . S
H366 C363 0.929 . S
S367 N368 1.613 . S
S367 N369 1.610 . S
N368 S367 1.613 . S
N368 C371 1.350 . S
N369 S367 1.610 . S
N369 C370 1.351 . S
C370 C364 1.428 . S
C370 N369 1.351 . S
C370 C371 1.434 . S
C371 C362 1.429 . S
C371 N368 1.350 . S
C371 C370 1.434 . S
C372 C373 1.369 . S
C372 C374 1.419 . S
C372 H376 0.930 1_556 S
C373 C372 1.369 . S
C373 C382 1.429 . S
C374 C372 1.419 . S
C374 C375 1.363 1_565 S
C374 H377 0.929 . S
C375 C374 1.363 1_545 S
C375 C381 1.428 . S
H376 C372 0.930 1_554 S
H377 C374 0.929 . S
S378 N379 1.613 1_545 S
S378 N380 1.610 . S
N379 S378 1.613 1_565 S
N379 C382 1.350 . S
N380 S378 1.610 . S
N380 C381 1.351 . S
C381 C375 1.428 . S
C381 N380 1.351 . S
C381 C382 1.434 1_545 S
C382 C373 1.429 . S
C382 N379 1.350 . S
C382 C381 1.434 1_565 S
C383 C384 1.369 . S
C383 C385 1.419 . S
C383 H387 0.930 . S
C384 C383 1.369 . S
C384 C393 1.429 . S
C385 C383 1.419 . S
C385 C386 1.363 1_545 S
C385 H388 0.929 . S
C386 C385 1.363 1_565 S
C386 C392 1.428 . S
H387 C383 0.930 . S
H388 C385 0.929 . S
S389 N390 1.613 . S
S389 N391 1.610 . S
N390 S389 1.613 . S
N390 C393 1.350 1_565 S
N391 S389 1.610 . S
N391 C392 1.351 . S
C392 C386 1.428 . S
C392 N391 1.351 . S
C392 C393 1.434 1_565 S
C393 C384 1.429 . S
C393 N390 1.350 1_545 S
C393 C392 1.434 1_545 S
C394 C395 1.369 . S
C394 C396 1.419 . S
C394 H398 0.930 . S
C395 C394 1.369 . S
C395 C404 1.429 1_565 S
C396 C394 1.419 . S
C396 C397 1.363 1_565 S
C396 H399 0.929 . S
C397 C396 1.363 1_545 S
C397 C403 1.428 . S
H398 C394 0.930 . S
H399 C396 0.929 . S
S400 N401 1.613 . S
S400 N402 1.610 1_554 S
N401 S400 1.613 . S
N401 C404 1.350 1_554 S
N402 S400 1.610 1_556 S
N402 C403 1.351 . S
C403 C397 1.428 . S
C403 N402 1.351 . S
C403 C404 1.434 . S
C404 C395 1.429 1_545 S
C404 N401 1.350 1_556 S
C404 C403 1.434 . S
C405 C406 1.369 . S
C405 C407 1.419 1_545 S
C405 H409 0.932 . S
C406 C405 1.369 . S
C406 C415 1.429 . S
C407 C405 1.419 1_565 S
C407 C408 1.363 . S
C407 H410 0.929 . S
C408 C407 1.363 . S
C408 C414 1.428 1_565 S
H409 C405 0.932 . S
H410 C407 0.929 . S
S411 N412 1.613 . S
S411 N413 1.610 . S
N412 S411 1.613 . S
N412 C415 1.350 . S
N413 S411 1.610 . S
N413 C414 1.351 . S
C414 C408 1.428 1_545 S
C414 N413 1.351 . S
C414 C415 1.434 . S
C415 C406 1.429 . S
C415 N412 1.350 . S
C415 C414 1.434 . S
C416 C417 1.369 . S
C416 C418 1.419 . S
C416 H420 0.930 . S
C417 C416 1.369 . S
C417 C426 1.429 . S
C418 C416 1.419 . S
C418 C419 1.363 . S
C418 H421 0.929 . S
C419 C418 1.363 . S
C419 C425 1.428 . S
H420 C416 0.930 . S
H421 C418 0.929 . S
S422 N423 1.613 . S
S422 N424 1.610 . S
N423 S422 1.613 . S
N423 C426 1.350 . S
N424 S422 1.610 . S
N424 C425 1.351 . S
C425 C419 1.428 . S
C425 N424 1.351 . S
C425 C426 1.434 . S
C426 C417 1.429 . S
C426 N423 1.350 . S
C426 C425 1.434 . S
C427 C428 1.369 . S
C427 C429 1.419 . S
C427 H431 0.930 . S
C428 C427 1.369 . S
C428 C437 1.429 . S
C429 C427 1.419 . S
C429 C430 1.363 . S
C429 H432 0.929 . S
C430 C429 1.363 . S
C430 C436 1.428 . S
H431 C427 0.930 . S
H432 C429 0.929 . S
S433 N434 1.613 . S
S433 N435 1.610 . S
N434 S433 1.613 . S
N434 C437 1.350 . S
N435 S433 1.610 . S
N435 C436 1.351 . S
C436 C430 1.428 . S
C436 N435 1.351 . S
C436 C437 1.434 . S
C437 C428 1.429 . S
C437 N434 1.350 . S
C437 C436 1.434 . S
C438 C439 1.369 . S
C438 C440 1.419 . S
C438 H442 0.930 . S
C439 C438 1.369 . S
C439 C448 1.429 . S
C440 C438 1.419 . S
C440 C441 1.363 . S
C440 H443 0.929 . S
C441 C440 1.363 . S
C441 C447 1.428 . S
H442 C438 0.930 . S
H443 C440 0.929 . S
S444 N445 1.613 . S
S444 N446 1.610 . S
N445 S444 1.613 . S
N445 C448 1.350 . S
N446 S444 1.610 . S
N446 C447 1.351 . S
C447 C441 1.428 . S
C447 N446 1.351 . S
C447 C448 1.434 . S
C448 C439 1.429 . S
C448 N445 1.350 . S
C448 C447 1.434 . S
C449 C450 1.369 . S
C449 C451 1.419 . S
C449 H453 0.930 . S
C450 C449 1.369 . S
C450 C459 1.429 . S
C451 C449 1.419 . S
C451 C452 1.363 . S
C451 H454 0.929 . S
C452 C451 1.363 . S
C452 C458 1.428 . S
H453 C449 0.930 . S
H454 C451 0.929 . S
S455 N456 1.613 . S
S455 N457 1.610 . S
N456 S455 1.613 . S
N456 C459 1.350 . S
N457 S455 1.610 . S
N457 C458 1.351 . S
C458 C452 1.428 . S
C458 N457 1.351 . S
C458 C459 1.434 . S
C459 C450 1.429 . S
C459 N456 1.350 . S
C459 C458 1.434 . S
C460 C461 1.369 . S
C460 C462 1.419 . S
C460 H464 0.930 . S
C461 C460 1.369 . S
C461 C470 1.429 . S
C462 C460 1.419 . S
C462 C463 1.363 . S
C462 H465 0.929 . S
C463 C462 1.363 . S
C463 C469 1.428 . S
H464 C460 0.930 . S
H465 C462 0.929 . S
S466 N467 1.613 . S
S466 N468 1.610 . S
N467 S466 1.613 . S
N467 C470 1.350 . S
N468 S466 1.610 . S
N468 C469 1.351 . S
C469 C463 1.428 . S
C469 N468 1.351 . S
C469 C470 1.434 . S
C470 C461 1.429 . S
C470 N467 1.350 . S
C470 C469 1.434 . S
C471 C472 1.369 . S
C471 C473 1.419 . S
C471 H475 0.930 . S
C472 C471 1.369 . S
C472 C481 1.429 . S
C473 C471 1.419 . S
C473 C474 1.363 . S
C473 H476 0.929 . S
C474 C473 1.363 . S
C474 C480 1.428 . S
H475 C471 0.930 . S
H476 C473 0.929 . S
S477 N478 1.613 . S
S477 N479 1.610 . S
N478 S477 1.613 . S
N478 C481 1.350 . S
N479 S477 1.610 . S
N479 C480 1.351 . S
C480 C474 1.428 . S
C480 N479 1.351 . S
C480 C481 1.434 . S
C481 C472 1.429 . S
C481 N478 1.350 . S
C481 C480 1.434 . S
C482 C483 1.369 . S
C482 C484 1.419 . S
C482 H486 0.930 . S
C483 C482 1.369 . S
C483 C492 1.429 . S
C484 C482 1.419 . S
C484 C485 1.363 . S
C484 H487 0.929 . S
C485 C484 1.363 . S
C485 C491 1.428 . S
H486 C482 0.930 . S
H487 C484 0.929 . S
S488 N489 1.613 . S
S488 N490 1.610 . S
N489 S488 1.613 . S
N489 C492 1.350 . S
N490 S488 1.610 . S
N490 C491 1.351 . S
C491 C485 1.428 . S
C491 N490 1.351 . S
C491 C492 1.434 . S
C492 C483 1.429 . S
C492 N489 1.350 . S
C492 C491 1.434 . S
C493 C494 1.369 . S
C493 C495 1.419 . S
C493 H497 0.930 . S
C494 C493 1.369 . S
C494 C503 1.429 . S
C495 C493 1.419 . S
C495 C496 1.363 . S
C495 H498 0.929 . S
C496 C495 1.363 . S
C496 C502 1.428 . S
H497 C493 0.930 . S
H498 C495 0.929 . S
S499 N500 1.613 . S
S499 N501 1.610 . S
N500 S499 1.613 . S
N500 C503 1.350 . S
N501 S499 1.610 . S
N501 C502 1.351 . S
C502 C496 1.428 . S
C502 N501 1.351 . S
C502 C503 1.434 . S
C503 C494 1.429 . S
C503 N500 1.350 . S
C503 C502 1.434 . S
C241 C11 1.479 . S
C243 C178 1.535 . S
C254 C156 1.531 . S
C252 C30 1.469 . S
C265 C182 1.534 . S
C263 C49 1.373 . S
C276 C160 1.533 . S
C274 C68 1.373 . S
C287 C222 1.531 . S
C285 C87 1.472 . S
C298 C200 1.532 . S
C296 C106 1.477 . S
C307 C125 1.364 . S
C309 C226 1.534 . S
C320 C204 1.534 . S
C318 C144 1.371 . S
C329 C2 1.537 . S
C331 C227 1.587 . S
C342 C205 1.587 . S
C340 C21 1.536 . S
C351 C40 1.541 . S
C353 C224 1.589 . S
C362 C59 1.538 . S
C364 C202 1.588 . S
C375 C183 1.589 . S
C373 C78 1.544 . S
C384 C97 1.544 . S
C386 C161 1.588 . S
C397 C180 1.587 . S
C395 C116 1.535 . S
C408 C158 1.587 . S
C406 C135 1.535 . S
C419 C201 1.516 . S
C417 C6 1.523 . S
C430 C223 1.517 . S
C428 C25 1.524 . S
C439 C44 1.516 . S
C441 C203 1.513 . S
C452 C225 1.513 . S
C450 C63 1.515 . S
C463 C157 1.515 . S
C461 C82 1.522 . S
C472 C101 1.521 . S
C474 C179 1.513 . S
C483 C120 1.516 . S
C485 C159 1.513 . S
C494 C139 1.517 . S
C496 C181 1.516 . S
