# Generated by pormake.
# Topology cml, (3,6)-cn, num edge types: 1
# Building blocks:
#     Node 0, Type 0, BuildingBlock: KAKCAD_clean_linker_0, # of connection points: 3
#     Node 1, Type 0, BuildingBlock: KAKCAD_clean_linker_0, # of connection points: 3
#     Node 2, Type 0, BuildingBlock: KAKCAD_clean_linker_0, # of connection points: 3
#     Node 3, Type 0, BuildingBlock: KAKCAD_clean_linker_0, # of connection points: 3
#     Node 4, Type 0, BuildingBlock: KAKCAD_clean_linker_0, # of connection points: 3
#     Node 5, Type 0, BuildingBlock: KAKCAD_clean_linker_0, # of connection points: 3
#     Node 6, Type 0, BuildingBlock: KAKCAD_clean_linker_0, # of connection points: 3
#     Node 7, Type 0, BuildingBlock: KAKCAD_clean_linker_0, # of connection points: 3
#     Node 8, Type 1, BuildingBlock: IZENUY_clean_sbu_0, # of connection points: 6
#     Node 9, Type 1, BuildingBlock: IZENUY_clean_sbu_0, # of connection points: 6
#     Node 10, Type 1, BuildingBlock: IZENUY_clean_sbu_0, # of connection points: 6
#     Node 11, Type 1, BuildingBlock: IZENUY_clean_sbu_0, # of connection points: 6
#     Edge 12, Type (0, 1), BuildingBlock: KIFKEQ_clean_linker_1, # of connection points: 2
#     Edge 13, Type (0, 1), BuildingBlock: KIFKEQ_clean_linker_1, # of connection points: 2
#     Edge 14, Type (0, 1), BuildingBlock: KIFKEQ_clean_linker_1, # of connection points: 2
#     Edge 15, Type (0, 1), BuildingBlock: KIFKEQ_clean_linker_1, # of connection points: 2
#     Edge 16, Type (0, 1), BuildingBlock: KIFKEQ_clean_linker_1, # of connection points: 2
#     Edge 17, Type (0, 1), BuildingBlock: KIFKEQ_clean_linker_1, # of connection points: 2
#     Edge 18, Type (0, 1), BuildingBlock: KIFKEQ_clean_linker_1, # of connection points: 2
#     Edge 19, Type (0, 1), BuildingBlock: KIFKEQ_clean_linker_1, # of connection points: 2
#     Edge 20, Type (0, 1), BuildingBlock: KIFKEQ_clean_linker_1, # of connection points: 2
#     Edge 21, Type (0, 1), BuildingBlock: KIFKEQ_clean_linker_1, # of connection points: 2
#     Edge 22, Type (0, 1), BuildingBlock: KIFKEQ_clean_linker_1, # of connection points: 2
#     Edge 23, Type (0, 1), BuildingBlock: KIFKEQ_clean_linker_1, # of connection points: 2
#     Edge 24, Type (0, 1), BuildingBlock: KIFKEQ_clean_linker_1, # of connection points: 2
#     Edge 25, Type (0, 1), BuildingBlock: KIFKEQ_clean_linker_1, # of connection points: 2
#     Edge 26, Type (0, 1), BuildingBlock: KIFKEQ_clean_linker_1, # of connection points: 2
#     Edge 27, Type (0, 1), BuildingBlock: KIFKEQ_clean_linker_1, # of connection points: 2
#     Edge 28, Type (0, 1), BuildingBlock: KIFKEQ_clean_linker_1, # of connection points: 2
#     Edge 29, Type (0, 1), BuildingBlock: KIFKEQ_clean_linker_1, # of connection points: 2
#     Edge 30, Type (0, 1), BuildingBlock: KIFKEQ_clean_linker_1, # of connection points: 2
#     Edge 31, Type (0, 1), BuildingBlock: KIFKEQ_clean_linker_1, # of connection points: 2
#     Edge 32, Type (0, 1), BuildingBlock: KIFKEQ_clean_linker_1, # of connection points: 2
#     Edge 33, Type (0, 1), BuildingBlock: KIFKEQ_clean_linker_1, # of connection points: 2
#     Edge 34, Type (0, 1), BuildingBlock: KIFKEQ_clean_linker_1, # of connection points: 2
#     Edge 35, Type (0, 1), BuildingBlock: KIFKEQ_clean_linker_1, # of connection points: 2
# Relax obj value: 0.055
# Max RMSD: 0.070
# Mean RMSD: 0.067
data_MOF--net-cml--node1-IZENUY_clean_sbu_0--node2-KAKCAD_clean_linker_0--edge1-KIFKEQ_clean_linker_1
_symmetry_space_group_name_H-M    P1
_symmetry_Int_Tables_number       1
_symmetry_cell_setting            triclinic
loop_
_symmetry_equiv_pos_as_xyz
'x, y, z'
_cell_length_a     44.051302
_cell_length_b     51.141644
_cell_length_c     47.470199
_cell_angle_alpha  89.938259
_cell_angle_beta   89.996375
_cell_angle_gamma 90.199512
loop_
_atom_site_label
_atom_site_type_symbol
_atom_site_fract_x
_atom_site_fract_y
_atom_site_fract_z
_atom_type_partial_charge
C0 C 0.31061 0.4641 0.94098 0.0
C1 C 0.34227 0.46641 0.9382 0.0
C2 C 0.2979 0.44337 0.95627 0.0
C3 C 0.31668 0.42485 0.96942 0.0
C4 C 0.3483 0.42708 0.96645 0.0
C5 C 0.36096 0.44755 0.95088 0.0
C6 C 0.30349 0.4035 0.9867 0.0
C7 C 0.27973 0.38799 0.97621 0.0
C8 C 0.26778 0.36721 0.99225 0.0
C9 C 0.27966 0.36243 0.0193 0.0
C10 C 0.30351 0.37777 0.03006 0.0
C11 C 0.31521 0.39828 0.01359 0.0
C12 C 0.31677 0.37209 0.05819 0.0
C13 C 0.29809 0.36623 0.08139 0.0
C14 C 0.3484 0.37265 0.062 0.0
C15 C 0.36108 0.36763 0.08839 0.0
C16 C 0.34246 0.36188 0.11166 0.0
C17 C 0.24375 0.34994 0.98032 0.0
C18 C 0.22016 0.36037 0.96385 0.0
C19 C 0.24464 0.32275 0.98477 0.0
C20 C 0.22256 0.30641 0.973 0.0
C21 C 0.19921 0.31684 0.95632 0.0
C22 C 0.1982 0.34399 0.9519 0.0
C23 C 0.3108 0.36124 0.10787 0.0
H24 H 0.2957 0.47832 0.93131 0.0
H25 H 0.27345 0.44213 0.95835 0.0
H26 H 0.36327 0.41294 0.97618 0.0
H27 H 0.38544 0.44899 0.94932 0.0
H28 H 0.27137 0.39153 0.95508 0.0
H29 H 0.33324 0.41053 0.02189 0.0
H30 H 0.27063 0.34653 0.03188 0.0
H31 H 0.27363 0.36585 0.07917 0.0
H32 H 0.36345 0.3768 0.0445 0.0
H33 H 0.38552 0.36862 0.09064 0.0
H34 H 0.21851 0.38124 0.96033 0.0
H35 H 0.26279 0.31396 0.99687 0.0
H36 H 0.29585 0.35669 0.12533 0.0
H37 H 0.18023 0.35261 0.93943 0.0
H38 H 0.22416 0.28552 0.97646 0.0
C39 C 0.69782 0.53573 0.44864 0.0
C40 C 0.66617 0.53432 0.44511 0.0
C41 C 0.711 0.55691 0.46284 0.0
C42 C 0.69268 0.57673 0.47416 0.0
C43 C 0.66107 0.57526 0.47058 0.0
C44 C 0.64798 0.55437 0.45608 0.0
C45 C 0.70614 0.59888 0.48996 0.0
C46 C 0.73011 0.61359 0.47849 0.0
C47 C 0.741 0.63589 0.49252 0.0
C48 C 0.72846 0.64295 0.51863 0.0
C49 C 0.70502 0.628 0.53072 0.0
C50 C 0.69393 0.60608 0.51613 0.0
C51 C 0.69176 0.63531 0.55837 0.0
C52 C 0.7105 0.64262 0.58103 0.0
C53 C 0.66018 0.63437 0.56246 0.0
C54 C 0.64764 0.64016 0.58871 0.0
C55 C 0.66635 0.64705 0.61154 0.0
C56 C 0.76442 0.6526 0.47924 0.0
C57 C 0.79247 0.64209 0.47108 0.0
C58 C 0.75858 0.6792 0.47438 0.0
C59 C 0.78036 0.69501 0.46133 0.0
C60 C 0.80855 0.68461 0.45346 0.0
C61 C 0.81454 0.65806 0.45858 0.0
C62 C 0.69793 0.64834 0.60738 0.0
H63 H 0.71234 0.52055 0.44028 0.0
H64 H 0.73543 0.55759 0.46541 0.0
H65 H 0.64646 0.5904 0.47891 0.0
H66 H 0.62351 0.55365 0.45389 0.0
H67 H 0.73931 0.60843 0.45806 0.0
H68 H 0.67592 0.59434 0.52529 0.0
H69 H 0.73675 0.66027 0.52934 0.0
H70 H 0.73493 0.64336 0.57856 0.0
H71 H 0.64511 0.6291 0.54534 0.0
H72 H 0.62326 0.63869 0.59127 0.0
H73 H 0.7974 0.62162 0.47466 0.0
H74 H 0.73701 0.68765 0.48036 0.0
H75 H 0.71292 0.6538 0.62448 0.0
H76 H 0.83613 0.64965 0.4526 0.0
H77 H 0.77534 0.71547 0.45771 0.0
C78 C 0.67861 0.45193 0.93801 0.0
C79 C 0.67338 0.47535 0.95273 0.0
C80 C 0.69168 0.43045 0.95155 0.0
C81 C 0.69983 0.43189 0.98013 0.0
C82 C 0.69552 0.45558 0.99459 0.0
C83 C 0.68246 0.47706 0.98105 0.0
C84 C 0.71139 0.40841 0.99516 0.0
C85 C 0.73229 0.39154 0.98227 0.0
C86 C 0.7424 0.36883 0.99613 0.0
C87 C 0.73145 0.36325 0.02337 0.0
C88 C 0.71075 0.38005 0.03667 0.0
C89 C 0.70076 0.40245 0.02229 0.0
C90 C 0.69887 0.37425 0.06535 0.0
C91 C 0.68998 0.34875 0.07302 0.0
C92 C 0.69492 0.39461 0.08487 0.0
C93 C 0.68109 0.38989 0.11082 0.0
C94 C 0.67103 0.36467 0.11801 0.0
C95 C 0.76444 0.35104 0.98213 0.0
C96 C 0.76205 0.34555 0.95318 0.0
C97 C 0.78815 0.33955 0.99756 0.0
C98 C 0.80899 0.32306 0.98436 0.0
C99 C 0.80678 0.31774 0.95536 0.0
C100 C 0.78299 0.32915 0.93995 0.0
C101 C 0.67625 0.344 0.09916 0.0
H102 H 0.67227 0.45008 0.91606 0.0
H103 H 0.69451 0.41246 0.93984 0.0
H104 H 0.70194 0.45744 0.01653 0.0
H105 H 0.67858 0.49473 0.99306 0.0
H106 H 0.74113 0.39638 0.96161 0.0
H107 H 0.68384 0.4149 0.03193 0.0
H108 H 0.73899 0.3458 0.03422 0.0
H109 H 0.69251 0.33266 0.0584 0.0
H110 H 0.70216 0.41435 0.07991 0.0
H111 H 0.67789 0.40611 0.12517 0.0
H112 H 0.74385 0.3538 0.94071 0.0
H113 H 0.79089 0.34354 0.01981 0.0
H114 H 0.66858 0.32438 0.10412 0.0
H115 H 0.78074 0.32571 0.91754 0.0
H116 H 0.82674 0.31433 0.997 0.0
C117 C 0.31605 0.65782 0.60532 0.0
C118 C 0.34721 0.65341 0.60962 0.0
C119 C 0.30197 0.64987 0.58028 0.0
C120 C 0.31876 0.63733 0.55905 0.0
C121 C 0.35001 0.63345 0.56316 0.0
C122 C 0.36399 0.64124 0.58813 0.0
C123 C 0.30385 0.62768 0.53292 0.0
C124 C 0.28198 0.64279 0.51896 0.0
C125 C 0.26792 0.63375 0.49411 0.0
C126 C 0.27694 0.60944 0.4829 0.0
C127 C 0.29954 0.59444 0.49615 0.0
C128 C 0.31212 0.60344 0.52153 0.0
C129 C 0.31121 0.56994 0.48313 0.0
C130 C 0.29174 0.55218 0.46939 0.0
C131 C 0.34242 0.5643 0.48432 0.0
C132 C 0.35381 0.54135 0.47264 0.0
C133 C 0.3344 0.52353 0.45912 0.0
C134 C 0.24433 0.65 0.47977 0.0
C135 C 0.22508 0.6663 0.49553 0.0
C136 C 0.24099 0.64969 0.45027 0.0
C137 C 0.21895 0.66503 0.43703 0.0
C138 C 0.20012 0.68173 0.45279 0.0
C139 C 0.20373 0.68221 0.48226 0.0
C140 C 0.30327 0.52924 0.45737 0.0
H141 H 0.3025 0.66733 0.62132 0.0
H142 H 0.27782 0.65303 0.57783 0.0
H143 H 0.36374 0.62423 0.54708 0.0
H144 H 0.3879 0.63709 0.5908 0.0
H145 H 0.27664 0.66197 0.52715 0.0
H146 H 0.32846 0.59142 0.53258 0.0
H147 H 0.26672 0.60226 0.46368 0.0
H148 H 0.26756 0.55578 0.46827 0.0
H149 H 0.35827 0.57781 0.494 0.0
H150 H 0.37801 0.53776 0.47376 0.0
H151 H 0.22632 0.66684 0.5183 0.0
H152 H 0.25558 0.63784 0.43717 0.0
H153 H 0.2878 0.51579 0.44709 0.0
H154 H 0.19032 0.69509 0.49531 0.0
H155 H 0.21671 0.66359 0.41439 0.0
C156 C 0.80874 0.96797 0.95457 0.0
C157 C 0.84049 0.97095 0.95414 0.0
C158 C 0.79536 0.94662 0.96835 0.0
C159 C 0.81348 0.92802 0.98218 0.0
C160 C 0.84519 0.93108 0.98174 0.0
C161 C 0.85851 0.95227 0.9679 0.0
C162 C 0.79965 0.90551 0.99728 0.0
C163 C 0.77634 0.89064 0.98485 0.0
C164 C 0.76463 0.86838 0.99856 0.0
C165 C 0.77589 0.86152 0.02528 0.0
C166 C 0.79909 0.87621 0.03791 0.0
C167 C 0.81079 0.89815 0.02383 0.0
C168 C 0.81199 0.86828 0.0654 0.0
C169 C 0.79305 0.86338 0.08864 0.0
C170 C 0.84356 0.86612 0.06862 0.0
C171 C 0.85604 0.8595 0.09466 0.0
C172 C 0.83723 0.85521 0.11812 0.0
C173 C 0.7418 0.85149 0.98443 0.0
C174 C 0.71665 0.8624 0.9706 0.0
C175 C 0.74529 0.8242 0.9845 0.0
C176 C 0.724 0.80813 0.97122 0.0
C177 C 0.69857 0.81893 0.95767 0.0
C178 C 0.6952 0.84629 0.95743 0.0
C179 C 0.8056 0.85712 0.11488 0.0
H180 H 0.79429 0.98197 0.94398 0.0
H181 H 0.77086 0.94483 0.96848 0.0
H182 H 0.85979 0.91693 0.99192 0.0
H183 H 0.88301 0.95415 0.96822 0.0
H184 H 0.7683 0.8957 0.96397 0.0
H185 H 0.82851 0.90967 0.03375 0.0
H186 H 0.76701 0.84441 0.03604 0.0
H187 H 0.76863 0.86501 0.08667 0.0
H188 H 0.85862 0.86961 0.05095 0.0
H189 H 0.88051 0.85842 0.09664 0.0
H190 H 0.71329 0.88337 0.97037 0.0
H191 H 0.76477 0.81525 0.9945 0.0
H192 H 0.79061 0.85383 0.13264 0.0
H193 H 0.6757 0.85526 0.94751 0.0
H194 H 0.7277 0.7872 0.97132 0.0
C195 C 0.19719 0.0353 0.45443 0.0
C196 C 0.16624 0.02899 0.45713 0.0
C197 C 0.20886 0.05817 0.46655 0.0
C198 C 0.18978 0.0753 0.48145 0.0
C199 C 0.15873 0.06911 0.48368 0.0
C200 C 0.14715 0.04622 0.47178 0.0
C201 C 0.20204 0.09939 0.49496 0.0
C202 C 0.22416 0.11482 0.48139 0.0
C203 C 0.23512 0.13792 0.49394 0.0
C204 C 0.22397 0.14537 0.5205 0.0
C205 C 0.20184 0.13026 0.53425 0.0
C206 C 0.19114 0.10731 0.52144 0.0
C207 C 0.18936 0.13853 0.56182 0.0
C208 C 0.20872 0.14515 0.58425 0.0
C209 C 0.15781 0.13923 0.56599 0.0
C210 C 0.14581 0.14608 0.59217 0.0
C211 C 0.16511 0.15207 0.61484 0.0
C212 C 0.25764 0.15464 0.47906 0.0
C213 C 0.28293 0.14354 0.46563 0.0
C214 C 0.254 0.18192 0.47831 0.0
C215 C 0.27536 0.19778 0.46475 0.0
C216 C 0.30098 0.18678 0.45171 0.0
C217 C 0.30441 0.15943 0.45216 0.0
C218 C 0.19669 0.15164 0.61062 0.0
H219 H 0.21246 0.02231 0.44337 0.0
H220 H 0.23293 0.06218 0.46467 0.0
H221 H 0.14321 0.08211 0.49441 0.0
H222 H 0.12308 0.04218 0.47371 0.0
H223 H 0.2321 0.10936 0.46062 0.0
H224 H 0.17457 0.09537 0.53244 0.0
H225 H 0.23229 0.16309 0.5304 0.0
H226 H 0.23313 0.14466 0.58158 0.0
H227 H 0.1424 0.13439 0.54897 0.0
H228 H 0.12139 0.14598 0.59489 0.0
H229 H 0.28647 0.12259 0.46606 0.0
H230 H 0.23445 0.19101 0.48801 0.0
H231 H 0.21205 0.15625 0.62774 0.0
H232 H 0.32406 0.15032 0.44268 0.0
H233 H 0.27165 0.2187 0.46433 0.0
C234 C 0.18071 0.95208 0.93363 0.0
C235 C 0.1747 0.97509 0.94878 0.0
C236 C 0.19372 0.93047 0.94706 0.0
C237 C 0.20107 0.93149 0.97588 0.0
C238 C 0.19634 0.95495 0.99063 0.0
C239 C 0.18326 0.97646 0.97725 0.0
C240 C 0.21178 0.90775 0.99099 0.0
C241 C 0.23294 0.89076 0.97862 0.0
C242 C 0.24199 0.86766 0.99244 0.0
C243 C 0.22961 0.86191 0.01912 0.0
C244 C 0.209 0.879 0.03206 0.0
C245 C 0.20008 0.90171 0.01774 0.0
C246 C 0.19645 0.8732 0.06046 0.0
C247 C 0.18614 0.84796 0.06738 0.0
C248 C 0.19402 0.89316 0.08066 0.0
C249 C 0.18107 0.88815 0.10698 0.0
C250 C 0.17016 0.86306 0.11372 0.0
C251 C 0.26438 0.84961 0.97914 0.0
C252 C 0.26491 0.84593 0.94976 0.0
C253 C 0.28542 0.83581 0.99572 0.0
C254 C 0.30608 0.81862 0.98337 0.0
C255 C 0.30682 0.8151 0.95398 0.0
C256 C 0.286 0.82912 0.93735 0.0
C257 C 0.17307 0.84295 0.09371 0.0
H258 H 0.17416 0.95039 0.91171 0.0
H259 H 0.19684 0.91263 0.93516 0.0
H260 H 0.20235 0.95657 0.01268 0.0
H261 H 0.17945 0.99411 0.98934 0.0
H262 H 0.24275 0.89588 0.95842 0.0
H263 H 0.18321 0.91436 0.02716 0.0
H264 H 0.23599 0.84413 0.02998 0.0
H265 H 0.18752 0.8322 0.05221 0.0
H266 H 0.20207 0.91275 0.07607 0.0
H267 H 0.1789 0.90414 0.12178 0.0
H268 H 0.24885 0.85584 0.93624 0.0
H269 H 0.28621 0.83838 0.01834 0.0
H270 H 0.16513 0.82335 0.09836 0.0
H271 H 0.28606 0.82736 0.91463 0.0
H272 H 0.32128 0.80792 0.99705 0.0
C273 C 0.81416 0.14827 0.6058 0.0
C274 C 0.84539 0.14457 0.6103 0.0
C275 C 0.80159 0.14446 0.579 0.0
C276 C 0.82009 0.13702 0.55623 0.0
C277 C 0.85153 0.1346 0.56059 0.0
C278 C 0.86399 0.13823 0.5873 0.0
C279 C 0.80672 0.13027 0.5284 0.0
C280 C 0.78354 0.14542 0.51637 0.0
C281 C 0.77084 0.1387 0.49005 0.0
C282 C 0.78188 0.11644 0.47587 0.0
C283 C 0.80557 0.10157 0.48734 0.0
C284 C 0.81744 0.10839 0.51371 0.0
C285 C 0.81888 0.07925 0.47174 0.0
C286 C 0.80045 0.05989 0.45948 0.0
C287 C 0.85057 0.0768 0.47004 0.0
C288 C 0.86362 0.05505 0.45728 0.0
C289 C 0.84532 0.03508 0.44599 0.0
C290 C 0.74679 0.15533 0.47707 0.0
C291 C 0.72508 0.168 0.49392 0.0
C292 C 0.74561 0.15905 0.44771 0.0
C293 C 0.72337 0.1749 0.43558 0.0
C294 C 0.702 0.18795 0.45246 0.0
C295 C 0.70322 0.18427 0.48184 0.0
C296 C 0.81356 0.03795 0.44673 0.0
H297 H 0.7993 0.15312 0.62319 0.0
H298 H 0.77728 0.14635 0.57635 0.0
H299 H 0.86653 0.12954 0.54337 0.0
H300 H 0.88824 0.13582 0.59003 0.0
H301 H 0.77611 0.16288 0.5272 0.0
H302 H 0.83494 0.09629 0.52303 0.0
H303 H 0.77241 0.1108 0.45571 0.0
H304 H 0.77595 0.06127 0.46057 0.0
H305 H 0.86534 0.09171 0.47878 0.0
H306 H 0.88814 0.05381 0.45641 0.0
H307 H 0.72485 0.16536 0.51655 0.0
H308 H 0.76215 0.15005 0.43395 0.0
H309 H 0.79886 0.02286 0.4383 0.0
H310 H 0.68755 0.19422 0.4957 0.0
H311 H 0.72297 0.17678 0.41287 0.0
Fe312 Fe 0.00521 0.81445 0.32298 0.0
Fe313 Fe 0.00571 0.84443 0.37904 0.0
O314 O 0.00553 0.84447 0.34166 0.0
Fe315 Fe 0.00582 0.8745 0.32303 0.0
O316 O 0.98278 0.86244 0.29356 0.0
O317 O 0.96977 0.82241 0.30562 0.0
O318 O 0.98241 0.79681 0.34945 0.0
C319 C 0.96526 0.80507 0.36893 0.0
C320 C 0.04493 0.84629 0.29043 0.0
O321 O 0.97002 0.82692 0.38042 0.0
C322 C 0.04617 0.8839 0.36864 0.0
O323 O 0.04078 0.80448 0.33899 0.0
O324 O 0.02742 0.81398 0.38239 0.0
O325 O 0.04099 0.8664 0.3053 0.0
O326 O 0.02764 0.8266 0.29305 0.0
C327 C 0.96653 0.88656 0.36553 0.0
O328 O 0.04154 0.86204 0.38027 0.0
O329 O 0.02887 0.89198 0.34918 0.0
C330 C 0.04487 0.80263 0.36518 0.0
O331 O 0.98383 0.87474 0.3826 0.0
O332 O 0.97067 0.88484 0.33934 0.0
C333 C 0.96529 0.84284 0.29134 0.0
Fe334 Fe 0.00273 0.15625 0.8793 0.0
Fe335 Fe 0.00312 0.12795 0.8224 0.0
O336 O 0.00249 0.15741 0.84198 0.0
Fe337 Fe 0.00153 0.18805 0.82437 0.0
O338 O 0.02403 0.20538 0.85124 0.0
O339 O 0.03798 0.1745 0.88074 0.0
O340 O 0.02559 0.12645 0.88171 0.0
C341 C 0.04319 0.11562 0.86422 0.0
C342 C 0.96201 0.19764 0.86747 0.0
O343 O 0.0388 0.1179 0.8381 0.0
C344 C 0.96253 0.15615 0.79121 0.0
O345 O 0.96747 0.13776 0.88029 0.0
O346 O 0.98093 0.10917 0.84811 0.0
O347 O 0.96593 0.19675 0.84117 0.0
O348 O 0.98001 0.18593 0.88396 0.0
C349 C 0.04202 0.16161 0.79127 0.0
O350 O 0.96753 0.13569 0.80527 0.0
O351 O 0.97903 0.17628 0.79432 0.0
C352 C 0.96336 0.11627 0.86777 0.0
O353 O 0.02539 0.14145 0.79319 0.0
O354 O 0.03697 0.18156 0.80616 0.0
C355 C 0.04191 0.19683 0.87003 0.0
Fe356 Fe 0.50244 0.31526 0.32356 0.0
Fe357 Fe 0.50211 0.34558 0.37955 0.0
O358 O 0.50139 0.34537 0.34217 0.0
Fe359 Fe 0.49944 0.37528 0.32342 0.0
O360 O 0.46411 0.3659 0.30666 0.0
O361 O 0.47872 0.32657 0.29414 0.0
O362 O 0.46775 0.30405 0.34043 0.0
C363 C 0.46378 0.30259 0.36671 0.0
C364 C 0.54033 0.34502 0.29093 0.0
O365 O 0.48111 0.31474 0.38351 0.0
C366 C 0.53967 0.38872 0.36477 0.0
O367 O 0.52651 0.2985 0.34956 0.0
O368 O 0.53827 0.32898 0.3804 0.0
O369 O 0.52199 0.36386 0.29348 0.0
O370 O 0.53711 0.32438 0.30523 0.0
C371 C 0.46008 0.38375 0.3698 0.0
O372 O 0.52337 0.37648 0.38243 0.0
O373 O 0.53465 0.38679 0.33873 0.0
C374 C 0.54356 0.30727 0.3689 0.0
O375 O 0.46585 0.36218 0.38147 0.0
O376 O 0.4766 0.39228 0.34997 0.0
C377 C 0.46062 0.34567 0.29186 0.0
Fe378 Fe 0.50406 0.65601 0.87778 0.0
Fe379 Fe 0.5078 0.62908 0.82014 0.0
O380 O 0.50552 0.65803 0.84049 0.0
Fe381 Fe 0.50481 0.68889 0.82343 0.0
O382 O 0.53901 0.69945 0.84145 0.0
O383 O 0.52528 0.68646 0.88377 0.0
O384 O 0.54013 0.63893 0.87947 0.0
C385 C 0.54563 0.61779 0.86683 0.0
C386 C 0.46287 0.69498 0.86839 0.0
O387 O 0.52934 0.61052 0.84633 0.0
C388 C 0.46856 0.66114 0.78777 0.0
O389 O 0.48237 0.62526 0.87838 0.0
O390 O 0.47194 0.61716 0.83389 0.0
O391 O 0.48017 0.7045 0.84967 0.0
O392 O 0.46802 0.67285 0.87904 0.0
C393 C 0.54768 0.65994 0.79133 0.0
O394 O 0.48677 0.64218 0.78999 0.0
O395 O 0.47051 0.6805 0.80409 0.0
C396 C 0.46631 0.61408 0.85975 0.0
O397 O 0.54381 0.63907 0.80507 0.0
O398 O 0.52938 0.67887 0.79402 0.0
C399 C 0.54251 0.69972 0.86782 0.0
H400 H 0.17778 0.3179 0.90231 0.0
H401 H 0.1687 0.27629 0.98106 0.0
H402 H 0.14062 0.28867 0.88074 0.0
H403 H 0.13109 0.24737 0.95978 0.0
H404 H 0.08779 0.18396 0.90624 0.0
H405 H 0.12618 0.21277 0.92634 0.0
H406 H 0.08776 0.27811 0.88102 0.0
H407 H 0.04997 0.24914 0.86024 0.0
C408 C 0.16757 0.30266 0.91508 0.0
C409 C 0.17616 0.29936 0.94336 0.0
C410 C 0.14624 0.28592 0.90275 0.0
C411 C 0.13284 0.2656 0.91849 0.0
C412 C 0.14134 0.26247 0.94686 0.0
C413 C 0.16282 0.27909 0.95911 0.0
C414 C 0.08757 0.20446 0.9005 0.0
C415 C 0.06573 0.21424 0.88169 0.0
C416 C 0.10949 0.22103 0.91217 0.0
C417 C 0.11 0.24783 0.90545 0.0
C418 C 0.08832 0.25754 0.8864 0.0
C419 C 0.06653 0.24093 0.87458 0.0
H420 H 0.80247 0.71443 0.40627 0.0
H421 H 0.86659 0.69302 0.47096 0.0
H422 H 0.84058 0.74344 0.38488 0.0
H423 H 0.90443 0.7225 0.44998 0.0
H424 H 0.94202 0.80521 0.42221 0.0
H425 H 0.90431 0.77524 0.44215 0.0
H426 H 0.89694 0.73585 0.3621 0.0
H427 H 0.93529 0.76543 0.34218 0.0
C428 C 0.82472 0.71599 0.41585 0.0
C429 C 0.83173 0.70157 0.44018 0.0
C430 C 0.84646 0.73243 0.40361 0.0
C431 C 0.87529 0.73515 0.41589 0.0
C432 C 0.88227 0.72076 0.44024 0.0
C433 C 0.86077 0.70387 0.45212 0.0
C434 C 0.93231 0.79021 0.40882 0.0
C435 C 0.94161 0.78761 0.38064 0.0
C436 C 0.9109 0.77302 0.42029 0.0
C437 C 0.8979 0.7533 0.40362 0.0
C438 C 0.90667 0.75098 0.37531 0.0
C439 C 0.92862 0.76781 0.36399 0.0
H440 H 0.86808 0.31541 0.96451 0.0
H441 H 0.79662 0.28101 0.91418 0.0
H442 H 0.9048 0.28632 0.94262 0.0
H443 H 0.83363 0.25222 0.8919 0.0
H444 H 0.91713 0.22448 0.8396 0.0
H445 H 0.87926 0.25381 0.86 0.0
H446 H 0.91533 0.23869 0.94299 0.0
H447 H 0.95308 0.20965 0.92283 0.0
C448 C 0.86013 0.30154 0.94892 0.0
C449 C 0.8293 0.30046 0.9413 0.0
C450 C 0.88122 0.28493 0.93631 0.0
C451 C 0.87207 0.2669 0.91564 0.0
C452 C 0.8414 0.26609 0.90758 0.0
C453 C 0.82022 0.28262 0.92033 0.0
C454 C 0.91693 0.22739 0.8622 0.0
C455 C 0.93826 0.21479 0.87954 0.0
C456 C 0.89516 0.24409 0.87387 0.0
C457 C 0.89447 0.24868 0.90307 0.0
C458 C 0.91557 0.23586 0.92037 0.0
C459 C 0.93712 0.21907 0.90879 0.0
H460 H 0.14505 0.69819 0.47369 0.0
H461 H 0.20202 0.70388 0.39967 0.0
H462 H 0.10919 0.72761 0.45247 0.0
H463 H 0.16403 0.73057 0.37689 0.0
H464 H 0.10499 0.79987 0.35244 0.0
H465 H 0.14262 0.77075 0.37324 0.0
H466 H 0.07135 0.73275 0.42128 0.0
H467 H 0.0348 0.76355 0.40231 0.0
C468 C 0.15003 0.70555 0.45282 0.0
C469 C 0.17693 0.69862 0.43872 0.0
C470 C 0.12886 0.72209 0.44023 0.0
C471 C 0.13326 0.73158 0.41267 0.0
C472 C 0.15983 0.7242 0.39828 0.0
C473 C 0.18151 0.70827 0.41124 0.0
C474 C 0.09767 0.78524 0.36753 0.0
C475 C 0.06727 0.78397 0.37607 0.0
C476 C 0.11912 0.76833 0.37934 0.0
C477 C 0.11037 0.74925 0.39929 0.0
C478 C 0.07946 0.74757 0.40683 0.0
C479 C 0.05831 0.76504 0.39574 0.0
H480 H 0.67685 0.77199 0.97686 0.0
H481 H 0.66822 0.82662 0.90783 0.0
H482 H 0.64024 0.74311 0.95444 0.0
H483 H 0.63023 0.79831 0.8861 0.0
H484 H 0.58686 0.72817 0.84105 0.0
H485 H 0.62471 0.75689 0.86241 0.0
H486 H 0.58725 0.74042 0.9447 0.0
H487 H 0.55013 0.71122 0.92354 0.0
C488 C 0.66717 0.77785 0.95686 0.0
C489 C 0.67561 0.80163 0.94412 0.0
C490 C 0.64583 0.76142 0.94418 0.0
C491 C 0.63215 0.7684 0.91849 0.0
C492 C 0.64053 0.79219 0.90573 0.0
C493 C 0.66203 0.8086 0.91838 0.0
C494 C 0.58673 0.73067 0.8637 0.0
C495 C 0.56548 0.71733 0.88057 0.0
C496 C 0.60833 0.74727 0.87594 0.0
C497 C 0.60909 0.75096 0.9053 0.0
C498 C 0.5877 0.7377 0.92209 0.0
C499 C 0.56626 0.72104 0.9099 0.0
H500 H 0.33236 0.17844 0.40251 0.0
H501 H 0.3226 0.2338 0.4706 0.0
H502 H 0.37177 0.20594 0.3816 0.0
H503 H 0.36076 0.2618 0.44902 0.0
H504 H 0.45363 0.2905 0.42192 0.0
H505 H 0.41448 0.26235 0.44152 0.0
H506 H 0.37992 0.24746 0.35785 0.0
H507 H 0.41978 0.27525 0.33803 0.0
C508 C 0.33857 0.19648 0.413 0.0
C509 C 0.32433 0.20385 0.4383 0.0
C510 C 0.3609 0.2124 0.40082 0.0
C511 C 0.36952 0.23607 0.41365 0.0
C512 C 0.35501 0.24354 0.43876 0.0
C513 C 0.3328 0.22762 0.45095 0.0
C514 C 0.43775 0.28123 0.40762 0.0
C515 C 0.43989 0.28517 0.37836 0.0
C516 C 0.41513 0.26519 0.41891 0.0
C517 C 0.39389 0.25275 0.4013 0.0
C518 C 0.3961 0.25653 0.37201 0.0
C519 C 0.41887 0.27256 0.36065 0.0
H520 H 0.3652 0.80454 0.97113 0.0
H521 H 0.29961 0.78435 0.90675 0.0
H522 H 0.40118 0.77407 0.95037 0.0
H523 H 0.33664 0.75516 0.88519 0.0
H524 H 0.43227 0.73446 0.84227 0.0
H525 H 0.39331 0.7629 0.86257 0.0
H526 H 0.39993 0.72138 0.94147 0.0
H527 H 0.43829 0.6925 0.92111 0.0
C528 C 0.35825 0.79358 0.95272 0.0
C529 C 0.32922 0.79696 0.94082 0.0
C530 C 0.37902 0.77626 0.94076 0.0
C531 C 0.37157 0.76234 0.91627 0.0
C532 C 0.34291 0.76586 0.90401 0.0
C533 C 0.32183 0.78276 0.9163 0.0
C534 C 0.42523 0.7313 0.86388 0.0
C535 C 0.43832 0.7113 0.88013 0.0
C536 C 0.40291 0.74748 0.87541 0.0
C537 C 0.39383 0.7443 0.90355 0.0
C538 C 0.40673 0.72423 0.91975 0.0
C539 C 0.42852 0.70767 0.90805 0.0
H540 H 0.64325 0.19656 0.46993 0.0
H541 H 0.70776 0.21937 0.40556 0.0
H542 H 0.60603 0.22629 0.44964 0.0
H543 H 0.66961 0.24777 0.3845 0.0
H544 H 0.57424 0.26826 0.34204 0.0
H545 H 0.61324 0.23949 0.36185 0.0
H546 H 0.60577 0.27905 0.44176 0.0
H547 H 0.56741 0.30823 0.42193 0.0
C548 C 0.64967 0.20789 0.4516 0.0
C549 C 0.67877 0.20549 0.43956 0.0
C550 C 0.6282 0.22477 0.4399 0.0
C551 C 0.63505 0.23921 0.41556 0.0
C552 C 0.66377 0.23662 0.40316 0.0
C553 C 0.68551 0.22017 0.41518 0.0
C554 C 0.58106 0.27088 0.36378 0.0
C555 C 0.56782 0.29048 0.38044 0.0
C556 C 0.60338 0.25451 0.37504 0.0
C557 C 0.61229 0.25708 0.4033 0.0
C558 C 0.5991 0.27665 0.41995 0.0
C559 C 0.57731 0.29339 0.40854 0.0
H560 H 0.32833 0.51814 0.94354 0.0
H561 H 0.38758 0.4653 0.89901 0.0
H562 H 0.3544 0.55543 0.92194 0.0
H563 H 0.41377 0.50253 0.8776 0.0
H564 H 0.43992 0.57544 0.82798 0.0
H565 H 0.40603 0.54062 0.84432 0.0
H566 H 0.40734 0.57353 0.92803 0.0
H567 H 0.44113 0.60826 0.91185 0.0
C568 C 0.3466 0.51451 0.92879 0.0
C569 C 0.35605 0.48886 0.92304 0.0
C570 C 0.36163 0.53583 0.91661 0.0
C571 C 0.38616 0.53187 0.89817 0.0
C572 C 0.39479 0.50618 0.89155 0.0
C573 C 0.37999 0.48489 0.90398 0.0
C574 C 0.43267 0.57544 0.84978 0.0
C575 C 0.44342 0.59449 0.86869 0.0
C576 C 0.41339 0.55544 0.85914 0.0
C577 C 0.40415 0.55433 0.88745 0.0
C578 C 0.41388 0.574 0.90604 0.0
C579 C 0.43341 0.59379 0.8968 0.0
H580 H 0.62317 0.53576 0.40391 0.0
H581 H 0.67647 0.48226 0.45379 0.0
H582 H 0.59597 0.49894 0.38295 0.0
H583 H 0.64929 0.44528 0.43267 0.0
H584 H 0.56088 0.39507 0.41849 0.0
H585 H 0.59506 0.42904 0.43591 0.0
H586 H 0.60406 0.45991 0.35162 0.0
H587 H 0.56987 0.42599 0.33408 0.0
C588 C 0.62921 0.51608 0.41018 0.0
C589 C 0.6518 0.51184 0.43055 0.0
C590 C 0.61383 0.49501 0.39804 0.0
C591 C 0.62048 0.46925 0.40623 0.0
C592 C 0.64358 0.46495 0.42612 0.0
C593 C 0.65926 0.48606 0.43803 0.0
C594 C 0.57033 0.40896 0.40361 0.0
C595 C 0.56238 0.40796 0.37494 0.0
C596 C 0.59008 0.4283 0.41357 0.0
C597 C 0.6021 0.44718 0.39513 0.0
C598 C 0.59488 0.44575 0.36635 0.0
C599 C 0.57538 0.42625 0.35632 0.0
H600 H 0.68558 0.52798 0.95666 0.0
H601 H 0.62402 0.47262 0.91817 0.0
H602 H 0.65751 0.564 0.93508 0.0
H603 H 0.59613 0.50839 0.89675 0.0
H604 H 0.56813 0.5745 0.84108 0.0
H605 H 0.60153 0.5415 0.8608 0.0
H606 H 0.60796 0.58575 0.93806 0.0
H607 H 0.57487 0.61926 0.91802 0.0
C608 C 0.66605 0.5235 0.94365 0.0
C609 C 0.65716 0.4974 0.93899 0.0
C610 C 0.64997 0.54413 0.93131 0.0
C611 C 0.62469 0.53908 0.91404 0.0
C612 C 0.61589 0.51298 0.90942 0.0
C613 C 0.63191 0.49243 0.9217 0.0
C614 C 0.57682 0.57735 0.86221 0.0
C615 C 0.56851 0.59937 0.87811 0.0
C616 C 0.59588 0.55834 0.87356 0.0
C617 C 0.60703 0.56076 0.90117 0.0
C618 C 0.59985 0.58335 0.91668 0.0
C619 C 0.58081 0.60251 0.90523 0.0
H620 H 0.32389 0.50351 0.40657 0.0
H621 H 0.37395 0.48935 0.48324 0.0
H622 H 0.34954 0.46652 0.38423 0.0
H623 H 0.39983 0.45275 0.46092 0.0
H624 H 0.42837 0.37761 0.41915 0.0
H625 H 0.39298 0.40844 0.44056 0.0
H626 H 0.40286 0.45971 0.36877 0.0
H627 H 0.43794 0.42895 0.34727 0.0
C628 C 0.33999 0.49222 0.41876 0.0
C629 C 0.34713 0.49941 0.44654 0.0
C630 C 0.35482 0.4712 0.40594 0.0
C631 C 0.37681 0.45681 0.42078 0.0
C632 C 0.38283 0.46329 0.44899 0.0
C633 C 0.36823 0.4844 0.46169 0.0
C634 C 0.4227 0.39529 0.40777 0.0
C635 C 0.43627 0.40095 0.38164 0.0
C636 C 0.40251 0.41298 0.42009 0.0
C637 C 0.39526 0.43655 0.40642 0.0
C638 C 0.40776 0.44162 0.37973 0.0
C639 C 0.42808 0.42406 0.36752 0.0
H640 H 0.89005 0.96965 0.91989 0.0
H641 H 0.824 0.02265 0.955 0.0
H642 H 0.91635 0.00624 0.89799 0.0
H643 H 0.84994 0.05946 0.93222 0.0
H644 H 0.93138 0.11772 0.9175 0.0
H645 H 0.89848 0.08351 0.93677 0.0
H646 H 0.91033 0.03823 0.86081 0.0
H647 H 0.94353 0.07197 0.84185 0.0
C648 C 0.88107 0.98915 0.92281 0.0
C649 C 0.85507 0.99328 0.93932 0.0
C650 C 0.89594 0.01012 0.90998 0.0
C651 C 0.88519 0.03579 0.91328 0.0
C652 C 0.85889 0.03994 0.92945 0.0
C653 C 0.84389 0.01886 0.94226 0.0
C654 C 0.92665 0.1006 0.9048 0.0
C655 C 0.94048 0.09738 0.87834 0.0
C656 C 0.9077 0.08105 0.9158 0.0
C657 C 0.90216 0.05798 0.90048 0.0
C658 C 0.91471 0.05548 0.87341 0.0
C659 C 0.93367 0.07489 0.86251 0.0
H660 H 0.1767 0.00916 0.40449 0.0
H661 H 0.12698 0.99417 0.48126 0.0
H662 H 0.15246 0.97119 0.38256 0.0
H663 H 0.10236 0.95662 0.45924 0.0
H664 H 0.06677 0.92942 0.34544 0.0
H665 H 0.09997 0.96194 0.3668 0.0
H666 H 0.11111 0.91231 0.4397 0.0
H667 H 0.07755 0.87969 0.41842 0.0
C668 C 0.16091 0.99756 0.41678 0.0
C669 C 0.15355 0.00475 0.4445 0.0
C670 C 0.14687 0.97595 0.40417 0.0
C671 C 0.12541 0.96097 0.41913 0.0
C672 C 0.11898 0.9676 0.44722 0.0
C673 C 0.13282 0.98928 0.45973 0.0
C674 C 0.07653 0.92526 0.3659 0.0
C675 C 0.06921 0.90206 0.38035 0.0
C676 C 0.09577 0.94385 0.37805 0.0
C677 C 0.10803 0.93976 0.405 0.0
C678 C 0.1017 0.91612 0.41902 0.0
C679 C 0.08261 0.89739 0.40676 0.0
H680 H 0.1832 0.99691 0.89644 0.0
H681 H 0.12767 0.00238 0.97113 0.0
H682 H 0.15449 0.03265 0.87495 0.0
H683 H 0.09872 0.03746 0.94969 0.0
H684 H 0.06758 0.11423 0.91679 0.0
H685 H 0.10214 0.08197 0.93625 0.0
H686 H 0.10539 0.0428 0.85566 0.0
H687 H 0.07155 0.07581 0.83589 0.0
C688 C 0.16482 0.00571 0.9082 0.0
C689 C 0.15787 0.99702 0.93556 0.0
C690 C 0.14833 0.02613 0.89589 0.0
C691 C 0.12442 0.03813 0.91065 0.0
C692 C 0.11745 0.02921 0.93794 0.0
C693 C 0.13402 0.00901 0.95025 0.0
C694 C 0.07588 0.09886 0.90314 0.0
C695 C 0.06655 0.0974 0.8749 0.0
C696 C 0.09558 0.08025 0.91434 0.0
C697 C 0.10617 0.05946 0.89769 0.0
C698 C 0.09784 0.05861 0.86907 0.0
C699 C 0.07834 0.07747 0.85775 0.0
H700 H 0.89304 0.00804 0.46778 0.0
H701 H 0.82994 0.00783 0.39812 0.0
H702 H 0.91892 0.97059 0.44785 0.0
H703 H 0.85519 0.96932 0.37864 0.0
H704 H 0.93535 0.92432 0.33653 0.0
H705 H 0.90294 0.95834 0.35607 0.0
H706 H 0.91366 0.92483 0.43907 0.0
H707 H 0.94674 0.89135 0.41972 0.0
C708 C 0.88461 0.99992 0.4482 0.0
C709 C 0.85963 0.01113 0.43437 0.0
C710 C 0.8992 0.97815 0.43697 0.0
C711 C 0.8891 0.96685 0.41166 0.0
C712 C 0.86371 0.9777 0.39805 0.0
C713 C 0.84907 0.9996 0.40933 0.0
C714 C 0.93053 0.92406 0.35891 0.0
C715 C 0.94402 0.90536 0.37664 0.0
C716 C 0.9118 0.94349 0.37009 0.0
C717 C 0.90599 0.94453 0.39921 0.0
C718 C 0.91823 0.92498 0.41665 0.0
C719 C 0.9371 0.9057 0.40553 0.0
H720 H 0.32314 0.37947 0.16317 0.0
H721 H 0.393 0.33313 0.12368 0.0
H722 H 0.34755 0.37321 0.20887 0.0
H723 H 0.41801 0.32779 0.16897 0.0
H724 H 0.44598 0.30558 0.25624 0.0
H725 H 0.41383 0.30736 0.21455 0.0
H726 H 0.39329 0.38823 0.2323 0.0
H727 H 0.42481 0.3863 0.27437 0.0
C728 C 0.34354 0.36776 0.16427 0.0
C729 C 0.35622 0.35692 0.13975 0.0
C730 C 0.3577 0.3644 0.19041 0.0
C731 C 0.38479 0.35007 0.1926 0.0
C732 C 0.39699 0.33869 0.16816 0.0
C733 C 0.38286 0.34204 0.14209 0.0
C734 C 0.43431 0.32366 0.25146 0.0
C735 C 0.43828 0.34588 0.2685 0.0
C736 C 0.41601 0.32471 0.22746 0.0
C737 C 0.40128 0.34803 0.21986 0.0
C738 C 0.4041 0.3699 0.23762 0.0
C739 C 0.42234 0.36882 0.2617 0.0
H740 H 0.68688 0.63064 0.66308 0.0
H741 H 0.61508 0.67481 0.6236 0.0
H742 H 0.66252 0.63643 0.70886 0.0
H743 H 0.5902 0.67975 0.66904 0.0
H744 H 0.56145 0.70084 0.75636 0.0
H745 H 0.5939 0.70026 0.71483 0.0
H746 H 0.61712 0.61981 0.73202 0.0
H747 H 0.58522 0.6205 0.77389 0.0
C748 C 0.66609 0.64183 0.66421 0.0
C749 C 0.65282 0.65215 0.63967 0.0
C750 C 0.65197 0.64491 0.6904 0.0
C751 C 0.62435 0.65846 0.69262 0.0
C752 C 0.61162 0.66945 0.66818 0.0
C753 C 0.62568 0.66634 0.64205 0.0
C754 C 0.57379 0.68312 0.75152 0.0
C755 C 0.57041 0.66061 0.7683 0.0
C756 C 0.59227 0.68276 0.72761 0.0
C757 C 0.60781 0.6599 0.71989 0.0
C758 C 0.60565 0.63781 0.73745 0.0
C759 C 0.5872 0.63817 0.76141 0.0
H760 H 0.62429 0.3939 0.13749 0.0
H761 H 0.67777 0.32582 0.15758 0.0
H762 H 0.59521 0.38799 0.18044 0.0
H763 H 0.64902 0.32015 0.2014 0.0
H764 H 0.56663 0.30478 0.26148 0.0
H765 H 0.5999 0.30855 0.22034 0.0
H766 H 0.60032 0.39264 0.22964 0.0
H767 H 0.56632 0.38885 0.26971 0.0
C768 C 0.63009 0.37784 0.15137 0.0
C769 C 0.65352 0.3605 0.14435 0.0
C770 C 0.61349 0.37448 0.1761 0.0
C771 C 0.62004 0.35383 0.19471 0.0
C772 C 0.64325 0.33619 0.1875 0.0
C773 C 0.65976 0.33945 0.16248 0.0
C774 C 0.57416 0.324 0.25482 0.0
C775 C 0.56353 0.34655 0.26849 0.0
C776 C 0.59328 0.32619 0.23131 0.0
C777 C 0.60235 0.35094 0.22129 0.0
C778 C 0.59306 0.37331 0.23615 0.0
C779 C 0.57371 0.37114 0.25927 0.0
H780 H 0.32432 0.64885 0.66333 0.0
H781 H 0.40429 0.67346 0.61744 0.0
H782 H 0.35186 0.6544 0.70772 0.0
H783 H 0.43186 0.67786 0.6617 0.0
H784 H 0.47523 0.63466 0.73871 0.0
H785 H 0.44396 0.6372 0.69661 0.0
H786 H 0.38483 0.6923 0.7378 0.0
H787 H 0.41676 0.69029 0.78033 0.0
C788 C 0.34749 0.65595 0.66266 0.0
C789 C 0.36224 0.66028 0.63673 0.0
C790 C 0.36321 0.65906 0.68809 0.0
C791 C 0.39396 0.66628 0.68795 0.0
C792 C 0.40821 0.672 0.66224 0.0
C793 C 0.39246 0.66926 0.63693 0.0
C794 C 0.45554 0.64729 0.73898 0.0
C795 C 0.44844 0.66229 0.76287 0.0
C796 C 0.43779 0.64885 0.71478 0.0
C797 C 0.41223 0.66508 0.71401 0.0
C798 C 0.40454 0.6797 0.73799 0.0
C799 C 0.42277 0.67857 0.76219 0.0
H800 H 0.88157 0.82006 0.13097 0.0
H801 H 0.82412 0.87896 0.16805 0.0
H802 H 0.90843 0.81523 0.17573 0.0
H803 H 0.85093 0.87406 0.2129 0.0
H804 H 0.94045 0.88529 0.2657 0.0
H805 H 0.90511 0.88589 0.2262 0.0
H806 H 0.90148 0.80152 0.22712 0.0
H807 H 0.93686 0.80084 0.26688 0.0
C808 C 0.87447 0.83171 0.14883 0.0
C809 C 0.85092 0.84998 0.14605 0.0
C810 C 0.88965 0.8288 0.17447 0.0
C811 C 0.8818 0.84434 0.19773 0.0
C812 C 0.85753 0.86195 0.19524 0.0
C813 C 0.84208 0.86462 0.16967 0.0
C814 C 0.93188 0.86686 0.25769 0.0
C815 C 0.94163 0.84301 0.26924 0.0
C816 C 0.91147 0.86722 0.23521 0.0
C817 C 0.90062 0.84375 0.22359 0.0
C818 C 0.90966 0.81989 0.23561 0.0
C819 C 0.92978 0.81952 0.25841 0.0
H820 H 0.1185 0.18497 0.62796 0.0
H821 H 0.18199 0.13089 0.66522 0.0
H822 H 0.09307 0.18971 0.67345 0.0
H823 H 0.15661 0.13571 0.71076 0.0
H824 H 0.07 0.12036 0.76648 0.0
H825 H 0.1041 0.12096 0.72609 0.0
H826 H 0.10044 0.2053 0.7243 0.0
H827 H 0.06627 0.20476 0.76507 0.0
C828 C 0.12723 0.17438 0.64599 0.0
C829 C 0.15208 0.15744 0.64305 0.0
C830 C 0.11285 0.17726 0.67205 0.0
C831 C 0.12282 0.16301 0.69559 0.0
C832 C 0.14837 0.14681 0.6929 0.0
C833 C 0.16299 0.14419 0.66691 0.0
C834 C 0.07675 0.13907 0.75771 0.0
C835 C 0.06528 0.16251 0.76882 0.0
C836 C 0.09646 0.13941 0.7347 0.0
C837 C 0.10487 0.16317 0.72203 0.0
C838 C 0.09417 0.1867 0.73361 0.0
C839 C 0.07476 0.18639 0.75699 0.0
H840 H 0.18682 0.88057 0.16606 0.0
H841 H 0.11832 0.83493 0.12321 0.0
H842 H 0.15953 0.87493 0.21042 0.0
H843 H 0.09099 0.82941 0.16739 0.0
H844 H 0.0598 0.80673 0.2543 0.0
H845 H 0.09281 0.80896 0.21322 0.0
H846 H 0.11279 0.8899 0.23181 0.0
H847 H 0.08035 0.88753 0.27329 0.0
C848 C 0.16593 0.86934 0.16612 0.0
C849 C 0.15471 0.85824 0.14109 0.0
C850 C 0.15029 0.86612 0.19153 0.0
C851 C 0.12303 0.85176 0.19249 0.0
C852 C 0.11216 0.84022 0.16754 0.0
C853 C 0.12783 0.8434 0.14217 0.0
C854 C 0.07145 0.82495 0.24981 0.0
C855 C 0.06718 0.84702 0.26699 0.0
C856 C 0.09025 0.82626 0.22614 0.0
C857 C 0.10522 0.84967 0.21904 0.0
C858 C 0.10183 0.87147 0.23679 0.0
C859 C 0.08307 0.87015 0.26052 0.0
H860 H 0.88407 0.1102 0.63498 0.0
H861 H 0.83652 0.18249 0.65029 0.0
H862 H 0.90828 0.11349 0.68095 0.0
H863 H 0.86058 0.18565 0.69677 0.0
H864 H 0.9457 0.19609 0.75612 0.0
H865 H 0.91355 0.19334 0.71439 0.0
H866 H 0.89627 0.11177 0.73188 0.0
H867 H 0.92858 0.11434 0.77347 0.0
C868 C 0.87875 0.12678 0.64826 0.0
C869 C 0.85864 0.14622 0.63897 0.0
C870 C 0.89234 0.12851 0.67473 0.0
C871 C 0.88628 0.1498 0.69251 0.0
C872 C 0.86579 0.16909 0.68344 0.0
C873 C 0.85191 0.16722 0.65696 0.0
C874 C 0.93477 0.17763 0.75128 0.0
C875 C 0.94008 0.15534 0.76795 0.0
C876 C 0.91619 0.17612 0.72745 0.0
C877 C 0.90264 0.15228 0.71972 0.0
C878 C 0.9068 0.13032 0.7371 0.0
C879 C 0.92522 0.13184 0.761 0.0
loop_
_geom_bond_atom_site_label_1
_geom_bond_atom_site_label_2
_geom_bond_distance
_geom_bond_site_symmetry_2
_ccdc_geom_bond_type
C0 C1 1.386 . S
C0 C2 1.397 . S
C0 H24 0.931 . S
C1 C0 1.386 . S
C1 C5 1.397 . S
C2 C0 1.397 . S
C2 C3 1.384 . S
C2 H25 0.930 . S
C3 C2 1.384 . S
C3 C4 1.377 . S
C3 C6 1.481 . S
C4 C3 1.377 . S
C4 C5 1.389 . S
C4 H26 0.929 . S
C5 C1 1.397 . S
C5 C4 1.389 . S
C5 H27 0.931 . S
C6 C3 1.481 . S
C6 C7 1.387 . S
C6 C11 1.390 1_556 S
C7 C6 1.387 . S
C7 C8 1.418 . S
C7 H28 0.930 . S
C8 C7 1.418 . S
C8 C9 1.346 1_556 S
C8 C17 1.524 . S
C9 C8 1.346 1_554 S
C9 C10 1.392 . S
C9 H30 0.931 . S
C10 C9 1.392 . S
C10 C11 1.361 . S
C10 C12 1.500 . S
C11 C6 1.390 1_554 S
C11 C10 1.361 . S
C11 H29 0.931 . S
C12 C10 1.500 . S
C12 C13 1.371 . S
C12 C14 1.365 . S
C13 C12 1.371 . S
C13 C23 1.386 . S
C13 H31 0.931 . S
C14 C12 1.365 . S
C14 C15 1.409 . S
C14 H32 0.929 . S
C15 C14 1.409 . S
C15 C16 1.380 . S
C15 H33 0.930 . S
C16 C15 1.380 . S
C16 C23 1.357 . S
C17 C8 1.524 . S
C17 C18 1.341 . S
C17 C19 1.371 . S
C18 C17 1.341 . S
C18 C22 1.394 . S
C18 H34 0.930 . S
C19 C17 1.371 . S
C19 C20 1.392 . S
C19 H35 0.931 1_556 S
C20 C19 1.392 . S
C20 C21 1.331 . S
C20 H38 0.932 . S
C21 C20 1.331 . S
C21 C22 1.336 . S
C22 C18 1.394 . S
C22 C21 1.336 . S
C22 H37 0.929 . S
C23 C13 1.386 . S
C23 C16 1.357 . S
C23 H36 0.928 . S
H24 C0 0.931 . S
H25 C2 0.930 . S
H26 C4 0.929 . S
H27 C5 0.931 . S
H28 C7 0.930 . S
H29 C11 0.931 . S
H30 C9 0.931 . S
H31 C13 0.931 . S
H32 C14 0.929 . S
H33 C15 0.930 . S
H34 C18 0.930 . S
H35 C19 0.931 1_554 S
H36 C23 0.928 . S
H37 C22 0.929 . S
H38 C20 0.932 . S
C39 C40 1.386 . S
C39 C41 1.397 . S
C39 H63 0.931 . S
C40 C39 1.386 . S
C40 C44 1.397 . S
C41 C39 1.397 . S
C41 C42 1.384 . S
C41 H64 0.930 . S
C42 C41 1.384 . S
C42 C43 1.377 . S
C42 C45 1.481 . S
C43 C42 1.377 . S
C43 C44 1.389 . S
C43 H65 0.929 . S
C44 C40 1.397 . S
C44 C43 1.389 . S
C44 H66 0.931 . S
C45 C42 1.481 . S
C45 C46 1.387 . S
C45 C50 1.390 . S
C46 C45 1.387 . S
C46 C47 1.401 . S
C46 H67 0.930 . S
C47 C46 1.401 . S
C47 C48 1.376 . S
C47 C56 1.511 . S
C48 C47 1.376 . S
C48 C49 1.392 . S
C48 H69 0.931 . S
C49 C48 1.392 . S
C49 C50 1.361 . S
C49 C51 1.500 . S
C50 C45 1.390 . S
C50 C49 1.361 . S
C50 H68 0.931 . S
C51 C49 1.500 . S
C51 C52 1.371 . S
C51 C53 1.365 . S
C52 C51 1.371 . S
C52 C62 1.386 . S
C52 H70 0.931 . S
C53 C51 1.365 . S
C53 C54 1.409 . S
C53 H71 0.929 . S
C54 C53 1.409 . S
C54 C55 1.380 . S
C54 H72 0.930 . S
C55 C54 1.380 . S
C55 C62 1.357 . S
C56 C47 1.511 . S
C56 C57 1.341 . S
C56 C58 1.371 . S
C57 C56 1.341 . S
C57 C61 1.394 . S
C57 H73 0.930 . S
C58 C56 1.371 . S
C58 C59 1.392 . S
C58 H74 0.931 . S
C59 C58 1.392 . S
C59 C60 1.331 . S
C59 H77 0.932 . S
C60 C59 1.331 . S
C60 C61 1.336 . S
C61 C57 1.394 . S
C61 C60 1.336 . S
C61 H76 0.929 . S
C62 C52 1.386 . S
C62 C55 1.357 . S
C62 H75 0.928 . S
H63 C39 0.931 . S
H64 C41 0.930 . S
H65 C43 0.929 . S
H66 C44 0.931 . S
H67 C46 0.930 . S
H68 C50 0.931 . S
H69 C48 0.931 . S
H70 C52 0.931 . S
H71 C53 0.929 . S
H72 C54 0.930 . S
H73 C57 0.930 . S
H74 C58 0.931 . S
H75 C62 0.928 . S
H76 C61 0.929 . S
H77 C59 0.932 . S
C78 C79 1.386 . S
C78 C80 1.397 . S
C78 H102 0.931 . S
C79 C78 1.386 . S
C79 C83 1.397 . S
C80 C78 1.397 . S
C80 C81 1.384 . S
C80 H103 0.930 . S
C81 C80 1.384 . S
C81 C82 1.377 . S
C81 C84 1.481 . S
C82 C81 1.377 . S
C82 C83 1.389 . S
C82 H104 0.929 1_556 S
C83 C79 1.397 . S
C83 C82 1.389 . S
C83 H105 0.931 . S
C84 C81 1.481 . S
C84 C85 1.387 . S
C84 C89 1.390 1_556 S
C85 C84 1.387 . S
C85 C86 1.401 . S
C85 H106 0.930 . S
C86 C85 1.401 . S
C86 C87 1.376 1_556 S
C86 C95 1.511 . S
C87 C86 1.376 1_554 S
C87 C88 1.392 . S
C87 H108 0.931 . S
C88 C87 1.392 . S
C88 C89 1.361 . S
C88 C90 1.500 . S
C89 C84 1.390 1_554 S
C89 C88 1.361 . S
C89 H107 0.931 . S
C90 C88 1.500 . S
C90 C91 1.371 . S
C90 C92 1.365 . S
C91 C90 1.371 . S
C91 C101 1.386 . S
C91 H109 0.931 . S
C92 C90 1.365 . S
C92 C93 1.409 . S
C92 H110 0.929 . S
C93 C92 1.409 . S
C93 C94 1.380 . S
C93 H111 0.930 . S
C94 C93 1.380 . S
C94 C101 1.357 . S
C95 C86 1.511 . S
C95 C96 1.341 . S
C95 C97 1.360 1_556 S
C96 C95 1.341 . S
C96 C100 1.394 . S
C96 H112 0.930 . S
C97 C95 1.360 1_554 S
C97 C98 1.385 1_554 S
C97 H113 0.950 . S
C98 C97 1.385 1_556 S
C98 C99 1.331 . S
C98 H116 0.918 1_556 S
C99 C98 1.331 . S
C99 C100 1.336 . S
C100 C96 1.394 . S
C100 C99 1.336 . S
C100 H115 0.929 . S
C101 C91 1.386 . S
C101 C94 1.357 . S
C101 H114 0.928 . S
H102 C78 0.931 . S
H103 C80 0.930 . S
H104 C82 0.929 1_554 S
H105 C83 0.931 . S
H106 C85 0.930 . S
H107 C89 0.931 . S
H108 C87 0.931 . S
H109 C91 0.931 . S
H110 C92 0.929 . S
H111 C93 0.930 . S
H112 C96 0.930 . S
H113 C97 0.950 . S
H114 C101 0.928 . S
H115 C100 0.929 . S
H116 C98 0.918 1_554 S
C117 C118 1.386 . S
C117 C119 1.397 . S
C117 H141 0.931 . S
C118 C117 1.386 . S
C118 C122 1.397 . S
C119 C117 1.397 . S
C119 C120 1.384 . S
C119 H142 0.930 . S
C120 C119 1.384 . S
C120 C121 1.377 . S
C120 C123 1.481 . S
C121 C120 1.377 . S
C121 C122 1.389 . S
C121 H143 0.929 . S
C122 C118 1.397 . S
C122 C121 1.389 . S
C122 H144 0.931 . S
C123 C120 1.481 . S
C123 C124 1.387 . S
C123 C128 1.390 . S
C124 C123 1.387 . S
C124 C125 1.401 . S
C124 H145 0.930 . S
C125 C124 1.401 . S
C125 C126 1.376 . S
C125 C134 1.511 . S
C126 C125 1.376 . S
C126 C127 1.392 . S
C126 H147 0.931 . S
C127 C126 1.392 . S
C127 C128 1.361 . S
C127 C129 1.500 . S
C128 C123 1.390 . S
C128 C127 1.361 . S
C128 H146 0.931 . S
C129 C127 1.500 . S
C129 C130 1.371 . S
C129 C131 1.365 . S
C130 C129 1.371 . S
C130 C140 1.386 . S
C130 H148 0.931 . S
C131 C129 1.365 . S
C131 C132 1.409 . S
C131 H149 0.929 . S
C132 C131 1.409 . S
C132 C133 1.380 . S
C132 H150 0.930 . S
C133 C132 1.380 . S
C133 C140 1.357 . S
C134 C125 1.511 . S
C134 C135 1.341 . S
C134 C136 1.371 . S
C135 C134 1.341 . S
C135 C139 1.394 . S
C135 H151 0.930 . S
C136 C134 1.371 . S
C136 C137 1.392 . S
C136 H152 0.931 . S
C137 C136 1.392 . S
C137 C138 1.331 . S
C137 H155 0.932 . S
C138 C137 1.331 . S
C138 C139 1.336 . S
C139 C135 1.394 . S
C139 C138 1.336 . S
C139 H154 0.929 . S
C140 C130 1.386 . S
C140 C133 1.357 . S
C140 H153 0.928 . S
H141 C117 0.931 . S
H142 C119 0.930 . S
H143 C121 0.929 . S
H144 C122 0.931 . S
H145 C124 0.930 . S
H146 C128 0.931 . S
H147 C126 0.931 . S
H148 C130 0.931 . S
H149 C131 0.929 . S
H150 C132 0.930 . S
H151 C135 0.930 . S
H152 C136 0.931 . S
H153 C140 0.928 . S
H154 C139 0.929 . S
H155 C137 0.932 . S
C156 C157 1.386 . S
C156 C158 1.397 . S
C156 H180 0.931 . S
C157 C156 1.386 . S
C157 C161 1.397 . S
C158 C156 1.397 . S
C158 C159 1.384 . S
C158 H181 0.930 . S
C159 C158 1.384 . S
C159 C160 1.377 . S
C159 C162 1.481 . S
C160 C159 1.377 . S
C160 C161 1.389 . S
C160 H182 0.929 . S
C161 C157 1.397 . S
C161 C160 1.389 . S
C161 H183 0.931 . S
C162 C159 1.481 . S
C162 C163 1.387 . S
C162 C167 1.390 1_556 S
C163 C162 1.387 . S
C163 C164 1.418 . S
C163 H184 0.930 . S
C164 C163 1.418 . S
C164 C165 1.346 1_556 S
C164 C173 1.524 . S
C165 C164 1.346 1_554 S
C165 C166 1.392 . S
C165 H186 0.931 . S
C166 C165 1.392 . S
C166 C167 1.361 . S
C166 C168 1.500 . S
C167 C162 1.390 1_554 S
C167 C166 1.361 . S
C167 H185 0.931 . S
C168 C166 1.500 . S
C168 C169 1.371 . S
C168 C170 1.365 . S
C169 C168 1.371 . S
C169 C179 1.386 . S
C169 H187 0.931 . S
C170 C168 1.365 . S
C170 C171 1.409 . S
C170 H188 0.929 . S
C171 C170 1.409 . S
C171 C172 1.380 . S
C171 H189 0.930 . S
C172 C171 1.380 . S
C172 C179 1.357 . S
C173 C164 1.524 . S
C173 C174 1.341 . S
C173 C175 1.371 . S
C174 C173 1.341 . S
C174 C178 1.394 . S
C174 H190 0.930 . S
C175 C173 1.371 . S
C175 C176 1.392 . S
C175 H191 0.931 1_556 S
C176 C175 1.392 . S
C176 C177 1.331 . S
C176 H194 0.932 . S
C177 C176 1.331 . S
C177 C178 1.336 . S
C178 C174 1.394 . S
C178 C177 1.336 . S
C178 H193 0.929 . S
C179 C169 1.386 . S
C179 C172 1.357 . S
C179 H192 0.928 . S
H180 C156 0.931 . S
H181 C158 0.930 . S
H182 C160 0.929 . S
H183 C161 0.931 . S
H184 C163 0.930 . S
H185 C167 0.931 . S
H186 C165 0.931 . S
H187 C169 0.931 . S
H188 C170 0.929 . S
H189 C171 0.930 . S
H190 C174 0.930 . S
H191 C175 0.931 1_554 S
H192 C179 0.928 . S
H193 C178 0.929 . S
H194 C176 0.932 . S
C195 C196 1.386 . S
C195 C197 1.397 . S
C195 H219 0.931 . S
C196 C195 1.386 . S
C196 C200 1.397 . S
C197 C195 1.397 . S
C197 C198 1.384 . S
C197 H220 0.930 . S
C198 C197 1.384 . S
C198 C199 1.377 . S
C198 C201 1.481 . S
C199 C198 1.377 . S
C199 C200 1.389 . S
C199 H221 0.929 . S
C200 C196 1.397 . S
C200 C199 1.389 . S
C200 H222 0.931 . S
C201 C198 1.481 . S
C201 C202 1.387 . S
C201 C206 1.390 . S
C202 C201 1.387 . S
C202 C203 1.401 . S
C202 H223 0.930 . S
C203 C202 1.401 . S
C203 C204 1.376 . S
C203 C212 1.511 . S
C204 C203 1.376 . S
C204 C205 1.392 . S
C204 H225 0.931 . S
C205 C204 1.392 . S
C205 C206 1.361 . S
C205 C207 1.500 . S
C206 C201 1.390 . S
C206 C205 1.361 . S
C206 H224 0.931 . S
C207 C205 1.500 . S
C207 C208 1.371 . S
C207 C209 1.365 . S
C208 C207 1.371 . S
C208 C218 1.386 . S
C208 H226 0.931 . S
C209 C207 1.365 . S
C209 C210 1.409 . S
C209 H227 0.929 . S
C210 C209 1.409 . S
C210 C211 1.380 . S
C210 H228 0.930 . S
C211 C210 1.380 . S
C211 C218 1.357 . S
C212 C203 1.511 . S
C212 C213 1.341 . S
C212 C214 1.371 . S
C213 C212 1.341 . S
C213 C217 1.394 . S
C213 H229 0.930 . S
C214 C212 1.371 . S
C214 C215 1.392 . S
C214 H230 0.931 . S
C215 C214 1.392 . S
C215 C216 1.331 . S
C215 H233 0.932 . S
C216 C215 1.331 . S
C216 C217 1.336 . S
C217 C213 1.394 . S
C217 C216 1.336 . S
C217 H232 0.929 . S
C218 C208 1.386 . S
C218 C211 1.357 . S
C218 H231 0.928 . S
H219 C195 0.931 . S
H220 C197 0.930 . S
H221 C199 0.929 . S
H222 C200 0.931 . S
H223 C202 0.930 . S
H224 C206 0.931 . S
H225 C204 0.931 . S
H226 C208 0.931 . S
H227 C209 0.929 . S
H228 C210 0.930 . S
H229 C213 0.930 . S
H230 C214 0.931 . S
H231 C218 0.928 . S
H232 C217 0.929 . S
H233 C215 0.932 . S
C234 C235 1.386 . S
C234 C236 1.397 . S
C234 H258 0.931 . S
C235 C234 1.386 . S
C235 C239 1.397 . S
C236 C234 1.397 . S
C236 C237 1.384 . S
C236 H259 0.930 . S
C237 C236 1.384 . S
C237 C238 1.377 . S
C237 C240 1.481 . S
C238 C237 1.377 . S
C238 C239 1.389 . S
C238 H260 0.929 1_556 S
C239 C235 1.397 . S
C239 C238 1.389 . S
C239 H261 0.931 1_565 S
C240 C237 1.481 . S
C240 C241 1.387 . S
C240 C245 1.390 1_556 S
C241 C240 1.387 . S
C241 C242 1.401 . S
C241 H262 0.930 . S
C242 C241 1.401 . S
C242 C243 1.376 1_556 S
C242 C251 1.511 . S
C243 C242 1.376 1_554 S
C243 C244 1.392 . S
C243 H264 0.931 . S
C244 C243 1.392 . S
C244 C245 1.361 . S
C244 C246 1.500 . S
C245 C240 1.390 1_554 S
C245 C244 1.361 . S
C245 H263 0.931 . S
C246 C244 1.500 . S
C246 C247 1.371 . S
C246 C248 1.365 . S
C247 C246 1.371 . S
C247 C257 1.386 . S
C247 H265 0.931 . S
C248 C246 1.365 . S
C248 C249 1.409 . S
C248 H266 0.929 . S
C249 C248 1.409 . S
C249 C250 1.380 . S
C249 H267 0.930 . S
C250 C249 1.380 . S
C250 C257 1.357 . S
C251 C242 1.511 . S
C251 C252 1.341 . S
C251 C253 1.360 1_556 S
C252 C251 1.341 . S
C252 C256 1.394 . S
C252 H268 0.930 . S
C253 C251 1.360 1_554 S
C253 C254 1.385 1_554 S
C253 H269 0.950 . S
C254 C253 1.385 1_556 S
C254 C255 1.331 . S
C254 H272 0.918 1_556 S
C255 C254 1.331 . S
C255 C256 1.336 . S
C256 C252 1.394 . S
C256 C255 1.336 . S
C256 H271 0.929 . S
C257 C247 1.386 . S
C257 C250 1.357 . S
C257 H270 0.928 . S
H258 C234 0.931 . S
H259 C236 0.930 . S
H260 C238 0.929 1_554 S
H261 C239 0.931 1_545 S
H262 C241 0.930 . S
H263 C245 0.931 . S
H264 C243 0.931 . S
H265 C247 0.931 . S
H266 C248 0.929 . S
H267 C249 0.930 . S
H268 C252 0.930 . S
H269 C253 0.950 . S
H270 C257 0.928 . S
H271 C256 0.929 . S
H272 C254 0.918 1_554 S
C273 C274 1.386 . S
C273 C275 1.397 . S
C273 H297 0.931 . S
C274 C273 1.386 . S
C274 C278 1.397 . S
C275 C273 1.397 . S
C275 C276 1.384 . S
C275 H298 0.930 . S
C276 C275 1.384 . S
C276 C277 1.377 . S
C276 C279 1.481 . S
C277 C276 1.377 . S
C277 C278 1.389 . S
C277 H299 0.929 . S
C278 C274 1.397 . S
C278 C277 1.389 . S
C278 H300 0.931 . S
C279 C276 1.481 . S
C279 C280 1.387 . S
C279 C284 1.390 . S
C280 C279 1.387 . S
C280 C281 1.401 . S
C280 H301 0.930 . S
C281 C280 1.401 . S
C281 C282 1.376 . S
C281 C290 1.511 . S
C282 C281 1.376 . S
C282 C283 1.392 . S
C282 H303 0.931 . S
C283 C282 1.392 . S
C283 C284 1.361 . S
C283 C285 1.500 . S
C284 C279 1.390 . S
C284 C283 1.361 . S
C284 H302 0.931 . S
C285 C283 1.500 . S
C285 C286 1.371 . S
C285 C287 1.365 . S
C286 C285 1.371 . S
C286 C296 1.386 . S
C286 H304 0.931 . S
C287 C285 1.365 . S
C287 C288 1.409 . S
C287 H305 0.929 . S
C288 C287 1.409 . S
C288 C289 1.380 . S
C288 H306 0.930 . S
C289 C288 1.380 . S
C289 C296 1.357 . S
C290 C281 1.511 . S
C290 C291 1.341 . S
C290 C292 1.371 . S
C291 C290 1.341 . S
C291 C295 1.394 . S
C291 H307 0.930 . S
C292 C290 1.371 . S
C292 C293 1.392 . S
C292 H308 0.931 . S
C293 C292 1.392 . S
C293 C294 1.331 . S
C293 H311 0.932 . S
C294 C293 1.331 . S
C294 C295 1.336 . S
C295 C291 1.394 . S
C295 C294 1.336 . S
C295 H310 0.929 . S
C296 C286 1.386 . S
C296 C289 1.357 . S
C296 H309 0.928 . S
H297 C273 0.931 . S
H298 C275 0.930 . S
H299 C277 0.929 . S
H300 C278 0.931 . S
H301 C280 0.930 . S
H302 C284 0.931 . S
H303 C282 0.931 . S
H304 C286 0.931 . S
H305 C287 0.929 . S
H306 C288 0.930 . S
H307 C291 0.930 . S
H308 C292 0.931 . S
H309 C296 0.928 . S
H310 C295 0.929 . S
H311 C293 0.932 . S
Fe312 O314 1.918 . S
Fe312 O317 1.997 1_455 S
Fe312 O318 2.002 1_455 S
Fe312 O323 1.976 . S
Fe312 O326 1.996 . S
Fe313 O314 1.918 . S
Fe313 O321 1.997 1_455 S
Fe313 O324 1.996 . S
Fe313 O328 1.976 . S
Fe313 O331 2.002 1_455 S
O314 Fe312 1.918 . S
O314 Fe313 1.918 . S
O314 Fe315 1.918 . S
Fe315 O314 1.918 . S
Fe315 O316 2.002 1_455 S
Fe315 O325 1.976 . S
Fe315 O329 1.996 . S
Fe315 O332 1.997 1_455 S
O316 Fe315 2.002 1_655 S
O316 C333 1.295 . S
O317 Fe312 1.997 1_655 S
O317 C333 1.235 . S
O318 Fe312 2.002 1_655 S
O318 C319 1.295 . S
C319 O318 1.295 . S
C319 O321 1.235 . S
C320 O325 1.287 . S
C320 O326 1.255 . S
O321 Fe313 1.997 1_655 S
O321 C319 1.235 . S
C322 O328 1.287 . S
C322 O329 1.255 . S
O323 Fe312 1.976 . S
O323 C330 1.287 . S
O324 Fe313 1.996 . S
O324 C330 1.255 . S
O325 Fe315 1.976 . S
O325 C320 1.287 . S
O326 Fe312 1.996 . S
O326 C320 1.255 . S
C327 O331 1.295 . S
C327 O332 1.235 . S
O328 Fe313 1.976 . S
O328 C322 1.287 . S
O329 Fe315 1.996 . S
O329 C322 1.255 . S
C330 O323 1.287 . S
C330 O324 1.255 . S
O331 Fe313 2.002 1_655 S
O331 C327 1.295 . S
O332 Fe315 1.997 1_655 S
O332 C327 1.235 . S
C333 O316 1.295 . S
C333 O317 1.235 . S
Fe334 O336 1.918 . S
Fe334 O339 1.996 1_655 S
Fe334 O340 2.002 1_655 S
Fe334 O345 1.976 . S
Fe334 O348 1.996 . S
Fe335 O336 1.918 . S
Fe335 O343 1.995 1_655 S
Fe335 O346 1.997 . S
Fe335 O350 1.977 . S
Fe335 O353 2.001 1_655 S
O336 Fe334 1.918 . S
O336 Fe335 1.918 . S
O336 Fe337 1.918 . S
Fe337 O336 1.918 . S
Fe337 O338 2.002 1_655 S
Fe337 O347 1.976 . S
Fe337 O351 1.996 . S
Fe337 O354 1.996 1_655 S
O338 Fe337 2.002 1_455 S
O338 C355 1.295 . S
O339 Fe334 1.996 1_455 S
O339 C355 1.235 . S
O340 Fe334 2.002 1_455 S
O340 C341 1.295 . S
C341 O340 1.295 . S
C341 O343 1.235 . S
C342 O347 1.287 . S
C342 O348 1.255 . S
O343 Fe335 1.995 1_455 S
O343 C341 1.235 . S
C344 O350 1.287 . S
C344 O351 1.255 . S
O345 Fe334 1.976 . S
O345 C352 1.287 . S
O346 Fe335 1.997 . S
O346 C352 1.255 . S
O347 Fe337 1.976 . S
O347 C342 1.287 . S
O348 Fe334 1.996 . S
O348 C342 1.255 . S
C349 O353 1.295 . S
C349 O354 1.235 . S
O350 Fe335 1.977 . S
O350 C344 1.287 . S
O351 Fe337 1.996 . S
O351 C344 1.255 . S
C352 O345 1.287 . S
C352 O346 1.255 . S
O353 Fe335 2.001 1_455 S
O353 C349 1.295 . S
O354 Fe337 1.996 1_455 S
O354 C349 1.235 . S
C355 O338 1.295 . S
C355 O339 1.235 . S
Fe356 O358 1.918 . S
Fe356 O361 1.997 . S
Fe356 O362 2.002 . S
Fe356 O367 1.976 . S
Fe356 O370 1.996 . S
Fe357 O358 1.918 . S
Fe357 O365 1.997 . S
Fe357 O368 1.996 . S
Fe357 O372 1.976 . S
Fe357 O375 2.002 . S
O358 Fe356 1.918 . S
O358 Fe357 1.918 . S
O358 Fe359 1.918 . S
Fe359 O358 1.918 . S
Fe359 O360 2.002 . S
Fe359 O369 1.976 . S
Fe359 O373 1.996 . S
Fe359 O376 1.997 . S
O360 Fe359 2.002 . S
O360 C377 1.295 . S
O361 Fe356 1.997 . S
O361 C377 1.235 . S
O362 Fe356 2.002 . S
O362 C363 1.295 . S
C363 O362 1.295 . S
C363 O365 1.235 . S
C364 O369 1.287 . S
C364 O370 1.255 . S
O365 Fe357 1.997 . S
O365 C363 1.235 . S
C366 O372 1.287 . S
C366 O373 1.255 . S
O367 Fe356 1.976 . S
O367 C374 1.287 . S
O368 Fe357 1.996 . S
O368 C374 1.255 . S
O369 Fe359 1.976 . S
O369 C364 1.287 . S
O370 Fe356 1.996 . S
O370 C364 1.255 . S
C371 O375 1.295 . S
C371 O376 1.235 . S
O372 Fe357 1.976 . S
O372 C366 1.287 . S
O373 Fe359 1.996 . S
O373 C366 1.255 . S
C374 O367 1.287 . S
C374 O368 1.255 . S
O375 Fe357 2.002 . S
O375 C371 1.295 . S
O376 Fe359 1.997 . S
O376 C371 1.235 . S
C377 O360 1.295 . S
C377 O361 1.235 . S
Fe378 O380 1.918 . S
Fe378 O383 1.997 . S
Fe378 O384 2.002 . S
Fe378 O389 1.976 . S
Fe378 O392 1.996 . S
Fe379 O380 1.918 . S
Fe379 O387 1.997 . S
Fe379 O390 1.996 . S
Fe379 O394 1.976 . S
Fe379 O397 2.002 . S
O380 Fe378 1.918 . S
O380 Fe379 1.918 . S
O380 Fe381 1.918 . S
Fe381 O380 1.918 . S
Fe381 O382 2.002 . S
Fe381 O391 1.976 . S
Fe381 O395 1.996 . S
Fe381 O398 1.997 . S
O382 Fe381 2.002 . S
O382 C399 1.295 . S
O383 Fe378 1.997 . S
O383 C399 1.235 . S
O384 Fe378 2.002 . S
O384 C385 1.295 . S
C385 O384 1.295 . S
C385 O387 1.235 . S
C386 O391 1.287 . S
C386 O392 1.255 . S
O387 Fe379 1.997 . S
O387 C385 1.235 . S
C388 O394 1.287 . S
C388 O395 1.255 . S
O389 Fe378 1.976 . S
O389 C396 1.287 . S
O390 Fe379 1.996 . S
O390 C396 1.255 . S
O391 Fe381 1.976 . S
O391 C386 1.287 . S
O392 Fe378 1.996 . S
O392 C386 1.255 . S
C393 O397 1.295 . S
C393 O398 1.235 . S
O394 Fe379 1.976 . S
O394 C388 1.287 . S
O395 Fe381 1.996 . S
O395 C388 1.255 . S
C396 O389 1.287 . S
C396 O390 1.255 . S
O397 Fe379 2.002 . S
O397 C393 1.295 . S
O398 Fe381 1.997 . S
O398 C393 1.235 . S
C399 O382 1.295 . S
C399 O383 1.235 . S
H400 C408 0.950 . S
H401 C413 0.950 . S
H402 C410 0.950 . S
H403 C412 0.950 . S
H404 C414 0.950 . S
H405 C416 0.950 . S
H406 C418 0.950 . S
H407 C419 0.950 . S
C408 H400 0.950 . S
C408 C409 1.386 . S
C408 C410 1.391 . S
C409 C408 1.386 . S
C409 C413 1.393 . S
C410 H402 0.950 . S
C410 C408 1.391 . S
C410 C411 1.400 . S
C411 C410 1.400 . S
C411 C412 1.398 . S
C411 C417 1.491 . S
C412 H403 0.950 . S
C412 C411 1.398 . S
C412 C413 1.391 . S
C413 H401 0.950 . S
C413 C409 1.393 . S
C413 C412 1.391 . S
C414 H404 0.950 . S
C414 C415 1.386 . S
C414 C416 1.391 . S
C415 C414 1.386 . S
C415 C419 1.393 . S
C416 H405 0.950 . S
C416 C414 1.391 . S
C416 C417 1.400 . S
C417 C411 1.491 . S
C417 C416 1.400 . S
C417 C418 1.398 . S
C418 H406 0.950 . S
C418 C417 1.398 . S
C418 C419 1.391 . S
C419 H407 0.950 . S
C419 C415 1.393 . S
C419 C418 1.391 . S
H420 C428 0.950 . S
H421 C433 0.950 . S
H422 C430 0.950 . S
H423 C432 0.950 . S
H424 C434 0.950 . S
H425 C436 0.950 . S
H426 C438 0.950 . S
H427 C439 0.950 . S
C428 H420 0.950 . S
C428 C429 1.386 . S
C428 C430 1.391 . S
C429 C428 1.386 . S
C429 C433 1.393 . S
C430 H422 0.950 . S
C430 C428 1.391 . S
C430 C431 1.400 . S
C431 C430 1.400 . S
C431 C432 1.398 . S
C431 C437 1.491 . S
C432 H423 0.950 . S
C432 C431 1.398 . S
C432 C433 1.391 . S
C433 H421 0.950 . S
C433 C429 1.393 . S
C433 C432 1.391 . S
C434 H424 0.950 . S
C434 C435 1.386 . S
C434 C436 1.391 . S
C435 C434 1.386 . S
C435 C439 1.393 . S
C436 H425 0.950 . S
C436 C434 1.391 . S
C436 C437 1.400 . S
C437 C431 1.491 . S
C437 C436 1.400 . S
C437 C438 1.398 . S
C438 H426 0.950 . S
C438 C437 1.398 . S
C438 C439 1.391 . S
C439 H427 0.950 . S
C439 C435 1.393 . S
C439 C438 1.391 . S
H440 C448 0.950 . S
H441 C453 0.950 . S
H442 C450 0.950 . S
H443 C452 0.950 . S
H444 C454 0.950 . S
H445 C456 0.950 . S
H446 C458 0.950 . S
H447 C459 0.950 . S
C448 H440 0.950 . S
C448 C449 1.386 . S
C448 C450 1.391 . S
C449 C448 1.386 . S
C449 C453 1.393 . S
C450 H442 0.950 . S
C450 C448 1.391 . S
C450 C451 1.400 . S
C451 C450 1.400 . S
C451 C452 1.398 . S
C451 C457 1.491 . S
C452 H443 0.950 . S
C452 C451 1.398 . S
C452 C453 1.391 . S
C453 H441 0.950 . S
C453 C449 1.393 . S
C453 C452 1.391 . S
C454 H444 0.950 . S
C454 C455 1.386 . S
C454 C456 1.391 . S
C455 C454 1.386 . S
C455 C459 1.393 . S
C456 H445 0.950 . S
C456 C454 1.391 . S
C456 C457 1.400 . S
C457 C451 1.491 . S
C457 C456 1.400 . S
C457 C458 1.398 . S
C458 H446 0.950 . S
C458 C457 1.398 . S
C458 C459 1.391 . S
C459 H447 0.950 . S
C459 C455 1.393 . S
C459 C458 1.391 . S
H460 C468 0.950 . S
H461 C473 0.950 . S
H462 C470 0.950 . S
H463 C472 0.950 . S
H464 C474 0.950 . S
H465 C476 0.950 . S
H466 C478 0.950 . S
H467 C479 0.950 . S
C468 H460 0.950 . S
C468 C469 1.386 . S
C468 C470 1.391 . S
C469 C468 1.386 . S
C469 C473 1.393 . S
C470 H462 0.950 . S
C470 C468 1.391 . S
C470 C471 1.400 . S
C471 C470 1.400 . S
C471 C472 1.398 . S
C471 C477 1.491 . S
C472 H463 0.950 . S
C472 C471 1.398 . S
C472 C473 1.391 . S
C473 H461 0.950 . S
C473 C469 1.393 . S
C473 C472 1.391 . S
C474 H464 0.950 . S
C474 C475 1.386 . S
C474 C476 1.391 . S
C475 C474 1.386 . S
C475 C479 1.393 . S
C476 H465 0.950 . S
C476 C474 1.391 . S
C476 C477 1.400 . S
C477 C471 1.491 . S
C477 C476 1.400 . S
C477 C478 1.398 . S
C478 H466 0.950 . S
C478 C477 1.398 . S
C478 C479 1.391 . S
C479 H467 0.950 . S
C479 C475 1.393 . S
C479 C478 1.391 . S
H480 C488 0.950 . S
H481 C493 0.950 . S
H482 C490 0.950 . S
H483 C492 0.950 . S
H484 C494 0.950 . S
H485 C496 0.950 . S
H486 C498 0.950 . S
H487 C499 0.950 . S
C488 H480 0.950 . S
C488 C489 1.386 . S
C488 C490 1.391 . S
C489 C488 1.386 . S
C489 C493 1.393 . S
C490 H482 0.950 . S
C490 C488 1.391 . S
C490 C491 1.400 . S
C491 C490 1.400 . S
C491 C492 1.398 . S
C491 C497 1.491 . S
C492 H483 0.950 . S
C492 C491 1.398 . S
C492 C493 1.391 . S
C493 H481 0.950 . S
C493 C489 1.393 . S
C493 C492 1.391 . S
C494 H484 0.950 . S
C494 C495 1.386 . S
C494 C496 1.391 . S
C495 C494 1.386 . S
C495 C499 1.393 . S
C496 H485 0.950 . S
C496 C494 1.391 . S
C496 C497 1.400 . S
C497 C491 1.491 . S
C497 C496 1.400 . S
C497 C498 1.398 . S
C498 H486 0.950 . S
C498 C497 1.398 . S
C498 C499 1.391 . S
C499 H487 0.950 . S
C499 C495 1.393 . S
C499 C498 1.391 . S
H500 C508 0.950 . S
H501 C513 0.950 . S
H502 C510 0.950 . S
H503 C512 0.950 . S
H504 C514 0.950 . S
H505 C516 0.950 . S
H506 C518 0.950 . S
H507 C519 0.950 . S
C508 H500 0.950 . S
C508 C509 1.386 . S
C508 C510 1.391 . S
C509 C508 1.386 . S
C509 C513 1.393 . S
C510 H502 0.950 . S
C510 C508 1.391 . S
C510 C511 1.400 . S
C511 C510 1.400 . S
C511 C512 1.398 . S
C511 C517 1.491 . S
C512 H503 0.950 . S
C512 C511 1.398 . S
C512 C513 1.391 . S
C513 H501 0.950 . S
C513 C509 1.393 . S
C513 C512 1.391 . S
C514 H504 0.950 . S
C514 C515 1.386 . S
C514 C516 1.391 . S
C515 C514 1.386 . S
C515 C519 1.393 . S
C516 H505 0.950 . S
C516 C514 1.391 . S
C516 C517 1.400 . S
C517 C511 1.491 . S
C517 C516 1.400 . S
C517 C518 1.398 . S
C518 H506 0.950 . S
C518 C517 1.398 . S
C518 C519 1.391 . S
C519 H507 0.950 . S
C519 C515 1.393 . S
C519 C518 1.391 . S
H520 C528 0.950 . S
H521 C533 0.950 . S
H522 C530 0.950 . S
H523 C532 0.950 . S
H524 C534 0.950 . S
H525 C536 0.950 . S
H526 C538 0.950 . S
H527 C539 0.950 . S
C528 H520 0.950 . S
C528 C529 1.386 . S
C528 C530 1.391 . S
C529 C528 1.386 . S
C529 C533 1.393 . S
C530 H522 0.950 . S
C530 C528 1.391 . S
C530 C531 1.400 . S
C531 C530 1.400 . S
C531 C532 1.398 . S
C531 C537 1.491 . S
C532 H523 0.950 . S
C532 C531 1.398 . S
C532 C533 1.391 . S
C533 H521 0.950 . S
C533 C529 1.393 . S
C533 C532 1.391 . S
C534 H524 0.950 . S
C534 C535 1.386 . S
C534 C536 1.391 . S
C535 C534 1.386 . S
C535 C539 1.393 . S
C536 H525 0.950 . S
C536 C534 1.391 . S
C536 C537 1.400 . S
C537 C531 1.491 . S
C537 C536 1.400 . S
C537 C538 1.398 . S
C538 H526 0.950 . S
C538 C537 1.398 . S
C538 C539 1.391 . S
C539 H527 0.950 . S
C539 C535 1.393 . S
C539 C538 1.391 . S
H540 C548 0.950 . S
H541 C553 0.950 . S
H542 C550 0.950 . S
H543 C552 0.950 . S
H544 C554 0.950 . S
H545 C556 0.950 . S
H546 C558 0.950 . S
H547 C559 0.950 . S
C548 H540 0.950 . S
C548 C549 1.386 . S
C548 C550 1.391 . S
C549 C548 1.386 . S
C549 C553 1.393 . S
C550 H542 0.950 . S
C550 C548 1.391 . S
C550 C551 1.400 . S
C551 C550 1.400 . S
C551 C552 1.398 . S
C551 C557 1.491 . S
C552 H543 0.950 . S
C552 C551 1.398 . S
C552 C553 1.391 . S
C553 H541 0.950 . S
C553 C549 1.393 . S
C553 C552 1.391 . S
C554 H544 0.950 . S
C554 C555 1.386 . S
C554 C556 1.391 . S
C555 C554 1.386 . S
C555 C559 1.393 . S
C556 H545 0.950 . S
C556 C554 1.391 . S
C556 C557 1.400 . S
C557 C551 1.491 . S
C557 C556 1.400 . S
C557 C558 1.398 . S
C558 H546 0.950 . S
C558 C557 1.398 . S
C558 C559 1.391 . S
C559 H547 0.950 . S
C559 C555 1.393 . S
C559 C558 1.391 . S
H560 C568 0.950 . S
H561 C573 0.950 . S
H562 C570 0.950 . S
H563 C572 0.950 . S
H564 C574 0.950 . S
H565 C576 0.950 . S
H566 C578 0.950 . S
H567 C579 0.950 . S
C568 H560 0.950 . S
C568 C569 1.386 . S
C568 C570 1.391 . S
C569 C568 1.386 . S
C569 C573 1.393 . S
C570 H562 0.950 . S
C570 C568 1.391 . S
C570 C571 1.400 . S
C571 C570 1.400 . S
C571 C572 1.398 . S
C571 C577 1.491 . S
C572 H563 0.950 . S
C572 C571 1.398 . S
C572 C573 1.391 . S
C573 H561 0.950 . S
C573 C569 1.393 . S
C573 C572 1.391 . S
C574 H564 0.950 . S
C574 C575 1.386 . S
C574 C576 1.391 . S
C575 C574 1.386 . S
C575 C579 1.393 . S
C576 H565 0.950 . S
C576 C574 1.391 . S
C576 C577 1.400 . S
C577 C571 1.491 . S
C577 C576 1.400 . S
C577 C578 1.398 . S
C578 H566 0.950 . S
C578 C577 1.398 . S
C578 C579 1.391 . S
C579 H567 0.950 . S
C579 C575 1.393 . S
C579 C578 1.391 . S
H580 C588 0.950 . S
H581 C593 0.950 . S
H582 C590 0.950 . S
H583 C592 0.950 . S
H584 C594 0.950 . S
H585 C596 0.950 . S
H586 C598 0.950 . S
H587 C599 0.950 . S
C588 H580 0.950 . S
C588 C589 1.386 . S
C588 C590 1.391 . S
C589 C588 1.386 . S
C589 C593 1.393 . S
C590 H582 0.950 . S
C590 C588 1.391 . S
C590 C591 1.400 . S
C591 C590 1.400 . S
C591 C592 1.398 . S
C591 C597 1.491 . S
C592 H583 0.950 . S
C592 C591 1.398 . S
C592 C593 1.391 . S
C593 H581 0.950 . S
C593 C589 1.393 . S
C593 C592 1.391 . S
C594 H584 0.950 . S
C594 C595 1.386 . S
C594 C596 1.391 . S
C595 C594 1.386 . S
C595 C599 1.393 . S
C596 H585 0.950 . S
C596 C594 1.391 . S
C596 C597 1.400 . S
C597 C591 1.491 . S
C597 C596 1.400 . S
C597 C598 1.398 . S
C598 H586 0.950 . S
C598 C597 1.398 . S
C598 C599 1.391 . S
C599 H587 0.950 . S
C599 C595 1.393 . S
C599 C598 1.391 . S
H600 C608 0.950 . S
H601 C613 0.950 . S
H602 C610 0.950 . S
H603 C612 0.950 . S
H604 C614 0.950 . S
H605 C616 0.950 . S
H606 C618 0.950 . S
H607 C619 0.950 . S
C608 H600 0.950 . S
C608 C609 1.386 . S
C608 C610 1.391 . S
C609 C608 1.386 . S
C609 C613 1.393 . S
C610 H602 0.950 . S
C610 C608 1.391 . S
C610 C611 1.400 . S
C611 C610 1.400 . S
C611 C612 1.398 . S
C611 C617 1.491 . S
C612 H603 0.950 . S
C612 C611 1.398 . S
C612 C613 1.391 . S
C613 H601 0.950 . S
C613 C609 1.393 . S
C613 C612 1.391 . S
C614 H604 0.950 . S
C614 C615 1.386 . S
C614 C616 1.391 . S
C615 C614 1.386 . S
C615 C619 1.393 . S
C616 H605 0.950 . S
C616 C614 1.391 . S
C616 C617 1.400 . S
C617 C611 1.491 . S
C617 C616 1.400 . S
C617 C618 1.398 . S
C618 H606 0.950 . S
C618 C617 1.398 . S
C618 C619 1.391 . S
C619 H607 0.950 . S
C619 C615 1.393 . S
C619 C618 1.391 . S
H620 C628 0.950 . S
H621 C633 0.950 . S
H622 C630 0.950 . S
H623 C632 0.950 . S
H624 C634 0.950 . S
H625 C636 0.950 . S
H626 C638 0.950 . S
H627 C639 0.950 . S
C628 H620 0.950 . S
C628 C629 1.386 . S
C628 C630 1.391 . S
C629 C628 1.386 . S
C629 C633 1.393 . S
C630 H622 0.950 . S
C630 C628 1.391 . S
C630 C631 1.400 . S
C631 C630 1.400 . S
C631 C632 1.398 . S
C631 C637 1.491 . S
C632 H623 0.950 . S
C632 C631 1.398 . S
C632 C633 1.391 . S
C633 H621 0.950 . S
C633 C629 1.393 . S
C633 C632 1.391 . S
C634 H624 0.950 . S
C634 C635 1.386 . S
C634 C636 1.391 . S
C635 C634 1.386 . S
C635 C639 1.393 . S
C636 H625 0.950 . S
C636 C634 1.391 . S
C636 C637 1.400 . S
C637 C631 1.491 . S
C637 C636 1.400 . S
C637 C638 1.398 . S
C638 H626 0.950 . S
C638 C637 1.398 . S
C638 C639 1.391 . S
C639 H627 0.950 . S
C639 C635 1.393 . S
C639 C638 1.391 . S
H640 C648 0.950 . S
H641 C653 0.950 . S
H642 C650 0.950 . S
H643 C652 0.950 . S
H644 C654 0.950 . S
H645 C656 0.950 . S
H646 C658 0.950 . S
H647 C659 0.950 . S
C648 H640 0.950 . S
C648 C649 1.386 1_565 S
C648 C650 1.391 1_565 S
C649 C648 1.386 1_545 S
C649 C653 1.393 . S
C650 H642 0.950 . S
C650 C648 1.391 1_545 S
C650 C651 1.400 . S
C651 C650 1.400 . S
C651 C652 1.398 . S
C651 C657 1.491 . S
C652 H643 0.950 . S
C652 C651 1.398 . S
C652 C653 1.391 . S
C653 H641 0.950 . S
C653 C649 1.393 . S
C653 C652 1.391 . S
C654 H644 0.950 . S
C654 C655 1.386 . S
C654 C656 1.391 . S
C655 C654 1.386 . S
C655 C659 1.393 . S
C656 H645 0.950 . S
C656 C654 1.391 . S
C656 C657 1.400 . S
C657 C651 1.491 . S
C657 C656 1.400 . S
C657 C658 1.398 . S
C658 H646 0.950 . S
C658 C657 1.398 . S
C658 C659 1.391 . S
C659 H647 0.950 . S
C659 C655 1.393 . S
C659 C658 1.391 . S
H660 C668 0.950 . S
H661 C673 0.950 1_545 S
H662 C670 0.950 . S
H663 C672 0.950 . S
H664 C674 0.950 . S
H665 C676 0.950 . S
H666 C678 0.950 . S
H667 C679 0.950 . S
C668 H660 0.950 . S
C668 C669 1.386 . S
C668 C670 1.391 . S
C669 C668 1.386 . S
C669 C673 1.393 . S
C670 H662 0.950 . S
C670 C668 1.391 . S
C670 C671 1.400 . S
C671 C670 1.400 . S
C671 C672 1.398 . S
C671 C677 1.491 . S
C672 H663 0.950 . S
C672 C671 1.398 . S
C672 C673 1.391 . S
C673 H661 0.950 1_565 S
C673 C669 1.393 . S
C673 C672 1.391 . S
C674 H664 0.950 . S
C674 C675 1.386 . S
C674 C676 1.391 . S
C675 C674 1.386 . S
C675 C679 1.393 . S
C676 H665 0.950 . S
C676 C674 1.391 . S
C676 C677 1.400 . S
C677 C671 1.491 . S
C677 C676 1.400 . S
C677 C678 1.398 . S
C678 H666 0.950 . S
C678 C677 1.398 . S
C678 C679 1.391 . S
C679 H667 0.950 . S
C679 C675 1.393 . S
C679 C678 1.391 . S
H680 C688 0.950 . S
H681 C693 0.950 . S
H682 C690 0.950 . S
H683 C692 0.950 . S
H684 C694 0.950 . S
H685 C696 0.950 . S
H686 C698 0.950 . S
H687 C699 0.950 . S
C688 H680 0.950 . S
C688 C689 1.386 . S
C688 C690 1.391 . S
C689 C688 1.386 . S
C689 C693 1.393 . S
C690 H682 0.950 . S
C690 C688 1.391 . S
C690 C691 1.400 . S
C691 C690 1.400 . S
C691 C692 1.398 . S
C691 C697 1.491 . S
C692 H683 0.950 . S
C692 C691 1.398 . S
C692 C693 1.391 . S
C693 H681 0.950 . S
C693 C689 1.393 . S
C693 C692 1.391 . S
C694 H684 0.950 . S
C694 C695 1.386 . S
C694 C696 1.391 . S
C695 C694 1.386 . S
C695 C699 1.393 . S
C696 H685 0.950 . S
C696 C694 1.391 . S
C696 C697 1.400 . S
C697 C691 1.491 . S
C697 C696 1.400 . S
C697 C698 1.398 . S
C698 H686 0.950 . S
C698 C697 1.398 . S
C698 C699 1.391 . S
C699 H687 0.950 . S
C699 C695 1.393 . S
C699 C698 1.391 . S
H700 C708 0.950 . S
H701 C713 0.950 1_545 S
H702 C710 0.950 . S
H703 C712 0.950 . S
H704 C714 0.950 . S
H705 C716 0.950 . S
H706 C718 0.950 . S
H707 C719 0.950 . S
C708 H700 0.950 . S
C708 C709 1.386 . S
C708 C710 1.391 . S
C709 C708 1.386 . S
C709 C713 1.393 . S
C710 H702 0.950 . S
C710 C708 1.391 . S
C710 C711 1.400 . S
C711 C710 1.400 . S
C711 C712 1.398 . S
C711 C717 1.491 . S
C712 H703 0.950 . S
C712 C711 1.398 . S
C712 C713 1.391 . S
C713 H701 0.950 1_565 S
C713 C709 1.393 . S
C713 C712 1.391 . S
C714 H704 0.950 . S
C714 C715 1.386 . S
C714 C716 1.391 . S
C715 C714 1.386 . S
C715 C719 1.393 . S
C716 H705 0.950 . S
C716 C714 1.391 . S
C716 C717 1.400 . S
C717 C711 1.491 . S
C717 C716 1.400 . S
C717 C718 1.398 . S
C718 H706 0.950 . S
C718 C717 1.398 . S
C718 C719 1.391 . S
C719 H707 0.950 . S
C719 C715 1.393 . S
C719 C718 1.391 . S
H720 C728 0.950 . S
H721 C733 0.950 . S
H722 C730 0.950 . S
H723 C732 0.950 . S
H724 C734 0.950 . S
H725 C736 0.950 . S
H726 C738 0.950 . S
H727 C739 0.950 . S
C728 H720 0.950 . S
C728 C729 1.386 . S
C728 C730 1.391 . S
C729 C728 1.386 . S
C729 C733 1.393 . S
C730 H722 0.950 . S
C730 C728 1.391 . S
C730 C731 1.400 . S
C731 C730 1.400 . S
C731 C732 1.398 . S
C731 C737 1.491 . S
C732 H723 0.950 . S
C732 C731 1.398 . S
C732 C733 1.391 . S
C733 H721 0.950 . S
C733 C729 1.393 . S
C733 C732 1.391 . S
C734 H724 0.950 . S
C734 C735 1.386 . S
C734 C736 1.391 . S
C735 C734 1.386 . S
C735 C739 1.393 . S
C736 H725 0.950 . S
C736 C734 1.391 . S
C736 C737 1.400 . S
C737 C731 1.491 . S
C737 C736 1.400 . S
C737 C738 1.398 . S
C738 H726 0.950 . S
C738 C737 1.398 . S
C738 C739 1.391 . S
C739 H727 0.950 . S
C739 C735 1.393 . S
C739 C738 1.391 . S
H740 C748 0.950 . S
H741 C753 0.950 . S
H742 C750 0.950 . S
H743 C752 0.950 . S
H744 C754 0.950 . S
H745 C756 0.950 . S
H746 C758 0.950 . S
H747 C759 0.950 . S
C748 H740 0.950 . S
C748 C749 1.386 . S
C748 C750 1.391 . S
C749 C748 1.386 . S
C749 C753 1.393 . S
C750 H742 0.950 . S
C750 C748 1.391 . S
C750 C751 1.400 . S
C751 C750 1.400 . S
C751 C752 1.398 . S
C751 C757 1.491 . S
C752 H743 0.950 . S
C752 C751 1.398 . S
C752 C753 1.391 . S
C753 H741 0.950 . S
C753 C749 1.393 . S
C753 C752 1.391 . S
C754 H744 0.950 . S
C754 C755 1.386 . S
C754 C756 1.391 . S
C755 C754 1.386 . S
C755 C759 1.393 . S
C756 H745 0.950 . S
C756 C754 1.391 . S
C756 C757 1.400 . S
C757 C751 1.491 . S
C757 C756 1.400 . S
C757 C758 1.398 . S
C758 H746 0.950 . S
C758 C757 1.398 . S
C758 C759 1.391 . S
C759 H747 0.950 . S
C759 C755 1.393 . S
C759 C758 1.391 . S
H760 C768 0.950 . S
H761 C773 0.950 . S
H762 C770 0.950 . S
H763 C772 0.950 . S
H764 C774 0.950 . S
H765 C776 0.950 . S
H766 C778 0.950 . S
H767 C779 0.950 . S
C768 H760 0.950 . S
C768 C769 1.386 . S
C768 C770 1.391 . S
C769 C768 1.386 . S
C769 C773 1.393 . S
C770 H762 0.950 . S
C770 C768 1.391 . S
C770 C771 1.400 . S
C771 C770 1.400 . S
C771 C772 1.398 . S
C771 C777 1.491 . S
C772 H763 0.950 . S
C772 C771 1.398 . S
C772 C773 1.391 . S
C773 H761 0.950 . S
C773 C769 1.393 . S
C773 C772 1.391 . S
C774 H764 0.950 . S
C774 C775 1.386 . S
C774 C776 1.391 . S
C775 C774 1.386 . S
C775 C779 1.393 . S
C776 H765 0.950 . S
C776 C774 1.391 . S
C776 C777 1.400 . S
C777 C771 1.491 . S
C777 C776 1.400 . S
C777 C778 1.398 . S
C778 H766 0.950 . S
C778 C777 1.398 . S
C778 C779 1.391 . S
C779 H767 0.950 . S
C779 C775 1.393 . S
C779 C778 1.391 . S
H780 C788 0.950 . S
H781 C793 0.950 . S
H782 C790 0.950 . S
H783 C792 0.950 . S
H784 C794 0.950 . S
H785 C796 0.950 . S
H786 C798 0.950 . S
H787 C799 0.950 . S
C788 H780 0.950 . S
C788 C789 1.386 . S
C788 C790 1.391 . S
C789 C788 1.386 . S
C789 C793 1.393 . S
C790 H782 0.950 . S
C790 C788 1.391 . S
C790 C791 1.400 . S
C791 C790 1.400 . S
C791 C792 1.398 . S
C791 C797 1.491 . S
C792 H783 0.950 . S
C792 C791 1.398 . S
C792 C793 1.391 . S
C793 H781 0.950 . S
C793 C789 1.393 . S
C793 C792 1.391 . S
C794 H784 0.950 . S
C794 C795 1.386 . S
C794 C796 1.391 . S
C795 C794 1.386 . S
C795 C799 1.393 . S
C796 H785 0.950 . S
C796 C794 1.391 . S
C796 C797 1.400 . S
C797 C791 1.491 . S
C797 C796 1.400 . S
C797 C798 1.398 . S
C798 H786 0.950 . S
C798 C797 1.398 . S
C798 C799 1.391 . S
C799 H787 0.950 . S
C799 C795 1.393 . S
C799 C798 1.391 . S
H800 C808 0.950 . S
H801 C813 0.950 . S
H802 C810 0.950 . S
H803 C812 0.950 . S
H804 C814 0.950 . S
H805 C816 0.950 . S
H806 C818 0.950 . S
H807 C819 0.950 . S
C808 H800 0.950 . S
C808 C809 1.386 . S
C808 C810 1.391 . S
C809 C808 1.386 . S
C809 C813 1.393 . S
C810 H802 0.950 . S
C810 C808 1.391 . S
C810 C811 1.400 . S
C811 C810 1.400 . S
C811 C812 1.398 . S
C811 C817 1.491 . S
C812 H803 0.950 . S
C812 C811 1.398 . S
C812 C813 1.391 . S
C813 H801 0.950 . S
C813 C809 1.393 . S
C813 C812 1.391 . S
C814 H804 0.950 . S
C814 C815 1.386 . S
C814 C816 1.391 . S
C815 C814 1.386 . S
C815 C819 1.393 . S
C816 H805 0.950 . S
C816 C814 1.391 . S
C816 C817 1.400 . S
C817 C811 1.491 . S
C817 C816 1.400 . S
C817 C818 1.398 . S
C818 H806 0.950 . S
C818 C817 1.398 . S
C818 C819 1.391 . S
C819 H807 0.950 . S
C819 C815 1.393 . S
C819 C818 1.391 . S
H820 C828 0.950 . S
H821 C833 0.950 . S
H822 C830 0.950 . S
H823 C832 0.950 . S
H824 C834 0.950 . S
H825 C836 0.950 . S
H826 C838 0.950 . S
H827 C839 0.950 . S
C828 H820 0.950 . S
C828 C829 1.386 . S
C828 C830 1.391 . S
C829 C828 1.386 . S
C829 C833 1.393 . S
C830 H822 0.950 . S
C830 C828 1.391 . S
C830 C831 1.400 . S
C831 C830 1.400 . S
C831 C832 1.398 . S
C831 C837 1.491 . S
C832 H823 0.950 . S
C832 C831 1.398 . S
C832 C833 1.391 . S
C833 H821 0.950 . S
C833 C829 1.393 . S
C833 C832 1.391 . S
C834 H824 0.950 . S
C834 C835 1.386 . S
C834 C836 1.391 . S
C835 C834 1.386 . S
C835 C839 1.393 . S
C836 H825 0.950 . S
C836 C834 1.391 . S
C836 C837 1.400 . S
C837 C831 1.491 . S
C837 C836 1.400 . S
C837 C838 1.398 . S
C838 H826 0.950 . S
C838 C837 1.398 . S
C838 C839 1.391 . S
C839 H827 0.950 . S
C839 C835 1.393 . S
C839 C838 1.391 . S
H840 C848 0.950 . S
H841 C853 0.950 . S
H842 C850 0.950 . S
H843 C852 0.950 . S
H844 C854 0.950 . S
H845 C856 0.950 . S
H846 C858 0.950 . S
H847 C859 0.950 . S
C848 H840 0.950 . S
C848 C849 1.386 . S
C848 C850 1.391 . S
C849 C848 1.386 . S
C849 C853 1.393 . S
C850 H842 0.950 . S
C850 C848 1.391 . S
C850 C851 1.400 . S
C851 C850 1.400 . S
C851 C852 1.398 . S
C851 C857 1.491 . S
C852 H843 0.950 . S
C852 C851 1.398 . S
C852 C853 1.391 . S
C853 H841 0.950 . S
C853 C849 1.393 . S
C853 C852 1.391 . S
C854 H844 0.950 . S
C854 C855 1.386 . S
C854 C856 1.391 . S
C855 C854 1.386 . S
C855 C859 1.393 . S
C856 H845 0.950 . S
C856 C854 1.391 . S
C856 C857 1.400 . S
C857 C851 1.491 . S
C857 C856 1.400 . S
C857 C858 1.398 . S
C858 H846 0.950 . S
C858 C857 1.398 . S
C858 C859 1.391 . S
C859 H847 0.950 . S
C859 C855 1.393 . S
C859 C858 1.391 . S
H860 C868 0.950 . S
H861 C873 0.950 . S
H862 C870 0.950 . S
H863 C872 0.950 . S
H864 C874 0.950 . S
H865 C876 0.950 . S
H866 C878 0.950 . S
H867 C879 0.950 . S
C868 H860 0.950 . S
C868 C869 1.386 . S
C868 C870 1.391 . S
C869 C868 1.386 . S
C869 C873 1.393 . S
C870 H862 0.950 . S
C870 C868 1.391 . S
C870 C871 1.400 . S
C871 C870 1.400 . S
C871 C872 1.398 . S
C871 C877 1.491 . S
C872 H863 0.950 . S
C872 C871 1.398 . S
C872 C873 1.391 . S
C873 H861 0.950 . S
C873 C869 1.393 . S
C873 C872 1.391 . S
C874 H864 0.950 . S
C874 C875 1.386 . S
C874 C876 1.391 . S
C875 C874 1.386 . S
C875 C879 1.393 . S
C876 H865 0.950 . S
C876 C874 1.391 . S
C876 C877 1.400 . S
C877 C871 1.491 . S
C877 C876 1.400 . S
C877 C878 1.398 . S
C878 H866 0.950 . S
C878 C877 1.398 . S
C878 C879 1.391 . S
C879 H867 0.950 . S
C879 C875 1.393 . S
C879 C878 1.391 . S
C409 C21 1.554 . S
C415 C355 1.534 . S
C435 C319 1.541 . S
C429 C60 1.557 . S
C455 C342 1.535 . S
C449 C99 1.528 . S
C475 C330 1.531 . S
C469 C138 1.532 . S
C495 C399 1.541 . S
C489 C177 1.559 . S
C515 C363 1.537 . S
C509 C216 1.555 . S
C529 C255 1.526 . S
C535 C386 1.532 . S
C555 C374 1.525 . S
C549 C294 1.528 . S
C569 C1 1.512 . S
C575 C396 1.532 . S
C595 C366 1.528 . S
C589 C40 1.514 . S
C609 C79 1.547 . S
C615 C385 1.562 . S
C629 C133 1.534 . S
C635 C371 1.552 . S
C655 C352 1.530 . S
C649 C157 1.520 1_545 S
C669 C196 1.513 1_565 S
C675 C322 1.528 . S
C695 C341 1.566 . S
C689 C235 1.541 1_545 S
C715 C327 1.547 . S
C709 C289 1.544 1_565 S
C735 C377 1.530 . S
C729 C16 1.526 . S
C755 C393 1.526 . S
C749 C55 1.524 . S
C769 C94 1.479 . S
C775 C364 1.505 . S
C795 C388 1.508 . S
C789 C118 1.487 . S
C815 C333 1.532 . S
C809 C172 1.515 . S
C829 C211 1.514 . S
C835 C349 1.531 . S
C849 C250 1.480 . S
C855 C320 1.507 . S
C869 C274 1.483 . S
C875 C344 1.504 . S
