# Generated by pormake.
# Topology zzz, (3,6)-cn, num edge types: 1
# Building blocks:
#     Node 0, Type 0, BuildingBlock: ESEHIV_clean_linker_0, # of connection points: 3
#     Node 1, Type 0, BuildingBlock: ESEHIV_clean_linker_0, # of connection points: 3
#     Node 2, Type 0, BuildingBlock: ESEHIV_clean_linker_0, # of connection points: 3
#     Node 3, Type 0, BuildingBlock: ESEHIV_clean_linker_0, # of connection points: 3
#     Node 4, Type 0, BuildingBlock: ESEHIV_clean_linker_0, # of connection points: 3
#     Node 5, Type 0, BuildingBlock: ESEHIV_clean_linker_0, # of connection points: 3
#     Node 6, Type 0, BuildingBlock: ESEHIV_clean_linker_0, # of connection points: 3
#     Node 7, Type 0, BuildingBlock: ESEHIV_clean_linker_0, # of connection points: 3
#     Node 8, Type 1, BuildingBlock: BETFAJ_clean_sbu_0, # of connection points: 6
#     Node 9, Type 1, BuildingBlock: BETFAJ_clean_sbu_0, # of connection points: 6
#     Node 10, Type 1, BuildingBlock: BETFAJ_clean_sbu_0, # of connection points: 6
#     Node 11, Type 1, BuildingBlock: BETFAJ_clean_sbu_0, # of connection points: 6
#     Edge 12, Type (0, 1), BuildingBlock: XIVTED_clean_linker_0, # of connection points: 2
#     Edge 13, Type (0, 1), BuildingBlock: XIVTED_clean_linker_0, # of connection points: 2
#     Edge 14, Type (0, 1), BuildingBlock: XIVTED_clean_linker_0, # of connection points: 2
#     Edge 15, Type (0, 1), BuildingBlock: XIVTED_clean_linker_0, # of connection points: 2
#     Edge 16, Type (0, 1), BuildingBlock: XIVTED_clean_linker_0, # of connection points: 2
#     Edge 17, Type (0, 1), BuildingBlock: XIVTED_clean_linker_0, # of connection points: 2
#     Edge 18, Type (0, 1), BuildingBlock: XIVTED_clean_linker_0, # of connection points: 2
#     Edge 19, Type (0, 1), BuildingBlock: XIVTED_clean_linker_0, # of connection points: 2
#     Edge 20, Type (0, 1), BuildingBlock: XIVTED_clean_linker_0, # of connection points: 2
#     Edge 21, Type (0, 1), BuildingBlock: XIVTED_clean_linker_0, # of connection points: 2
#     Edge 22, Type (0, 1), BuildingBlock: XIVTED_clean_linker_0, # of connection points: 2
#     Edge 23, Type (0, 1), BuildingBlock: XIVTED_clean_linker_0, # of connection points: 2
#     Edge 24, Type (0, 1), BuildingBlock: XIVTED_clean_linker_0, # of connection points: 2
#     Edge 25, Type (0, 1), BuildingBlock: XIVTED_clean_linker_0, # of connection points: 2
#     Edge 26, Type (0, 1), BuildingBlock: XIVTED_clean_linker_0, # of connection points: 2
#     Edge 27, Type (0, 1), BuildingBlock: XIVTED_clean_linker_0, # of connection points: 2
#     Edge 28, Type (0, 1), BuildingBlock: XIVTED_clean_linker_0, # of connection points: 2
#     Edge 29, Type (0, 1), BuildingBlock: XIVTED_clean_linker_0, # of connection points: 2
#     Edge 30, Type (0, 1), BuildingBlock: XIVTED_clean_linker_0, # of connection points: 2
#     Edge 31, Type (0, 1), BuildingBlock: XIVTED_clean_linker_0, # of connection points: 2
#     Edge 32, Type (0, 1), BuildingBlock: XIVTED_clean_linker_0, # of connection points: 2
#     Edge 33, Type (0, 1), BuildingBlock: XIVTED_clean_linker_0, # of connection points: 2
#     Edge 34, Type (0, 1), BuildingBlock: XIVTED_clean_linker_0, # of connection points: 2
#     Edge 35, Type (0, 1), BuildingBlock: XIVTED_clean_linker_0, # of connection points: 2
# Relax obj value: 0.508
# Max RMSD: 0.264
# Mean RMSD: 0.254
data_MOF--net-zzz--node1-BETFAJ_clean_sbu_0--node2-ESEHIV_clean_linker_0--edge1-XIVTED_clean_linker_0
_symmetry_space_group_name_H-M    P1
_symmetry_Int_Tables_number       1
_symmetry_cell_setting            triclinic
loop_
_symmetry_equiv_pos_as_xyz
'x, y, z'
_cell_length_a     45.598336
_cell_length_b     45.592237
_cell_length_c     14.259278
_cell_angle_alpha  89.623574
_cell_angle_beta   89.831829
_cell_angle_gamma 90.066441
loop_
_atom_site_label
_atom_site_type_symbol
_atom_site_fract_x
_atom_site_fract_y
_atom_site_fract_z
_atom_type_partial_charge
H0 H 0.78768 0.44096 0.39197 0.0
H1 H 0.70913 0.43831 0.22655 0.0
H2 H 0.72966 0.51497 0.38941 0.0
C3 C 0.76687 0.45044 0.37118 0.0
C4 C 0.75992 0.47859 0.4031 0.0
C5 C 0.74928 0.43602 0.30527 0.0
C6 C 0.72294 0.44926 0.2773 0.0
C7 C 0.71555 0.47767 0.30702 0.0
C8 C 0.73453 0.49267 0.36873 0.0
H9 H 0.08892 0.78746 0.39996 0.0
H10 H 0.09188 0.70952 0.23319 0.0
H11 H 0.01654 0.72711 0.4079 0.0
C12 C 0.07963 0.76649 0.38015 0.0
C13 C 0.05197 0.75874 0.41547 0.0
C14 C 0.09389 0.74933 0.31277 0.0
C15 C 0.081 0.72282 0.28554 0.0
C16 C 0.05321 0.71434 0.31955 0.0
C17 C 0.03833 0.73284 0.38336 0.0
H18 H 0.73923 0.08809 0.39658 0.0
H19 H 0.81857 0.09161 0.23414 0.0
H20 H 0.80083 0.01715 0.41396 0.0
C21 C 0.76052 0.07916 0.37848 0.0
C22 C 0.76856 0.05195 0.41663 0.0
C23 C 0.77799 0.09336 0.31096 0.0
C24 C 0.80494 0.08078 0.2863 0.0
C25 C 0.81357 0.05338 0.32294 0.0
C26 C 0.7949 0.03861 0.3871 0.0
H27 H 0.44116 0.74324 0.40976 0.0
H28 H 0.51256 0.80452 0.41375 0.0
H29 H 0.43519 0.82313 0.2501 0.0
C30 C 0.44976 0.76467 0.39087 0.0
C31 C 0.43455 0.78236 0.32659 0.0
C32 C 0.47767 0.77238 0.42304 0.0
C33 C 0.49054 0.79888 0.39184 0.0
C34 C 0.47475 0.81794 0.33168 0.0
C35 C 0.44673 0.80946 0.30036 0.0
H36 H 0.24053 0.58846 0.12233 0.0
H37 H 0.31937 0.59113 0.28595 0.0
H38 H 0.29948 0.51516 0.11873 0.0
C39 C 0.26145 0.57904 0.14223 0.0
C40 C 0.2686 0.55111 0.10877 0.0
C41 C 0.27913 0.59338 0.20796 0.0
C42 C 0.30558 0.58021 0.23512 0.0
C43 C 0.31331 0.55206 0.20348 0.0
C44 C 0.29431 0.5372 0.14143 0.0
H45 H 0.94294 0.24092 0.1293 0.0
H46 H 0.94141 0.32049 0.2879 0.0
H47 H 1.01485 0.30161 0.10641 0.0
C48 C 0.95238 0.26214 0.14561 0.0
C49 C 0.97962 0.26961 0.10645 0.0
C50 C 0.93879 0.27995 0.21257 0.0
C51 C 0.95178 0.30677 0.23556 0.0
C52 C 0.97903 0.31511 0.19719 0.0
C53 C 0.99339 0.29599 0.134 0.0
H54 H 0.28646 0.94234 0.11734 0.0
H55 H 0.20761 0.93866 0.28197 0.0
H56 H 0.22516 1.01362 0.10407 0.0
C57 C 0.2652 0.95128 0.1359 0.0
C58 C 0.25723 0.97869 0.09914 0.0
C59 C 0.24787 0.93699 0.20354 0.0
C60 C 0.22099 0.94952 0.22918 0.0
C61 C 0.21234 0.97705 0.19359 0.0
C62 C 0.23097 0.99197 0.12962 0.0
H63 H 0.58999 0.28483 0.0816 0.0
H64 H 0.51604 0.22671 0.09573 0.0
H65 H 0.59371 0.2085 0.25849 0.0
C66 C 0.58061 0.26421 0.10542 0.0
C67 C 0.5955 0.24732 0.17249 0.0
C68 C 0.55211 0.25713 0.07722 0.0
C69 C 0.53842 0.23186 0.11488 0.0
C70 C 0.5539 0.21338 0.17776 0.0
C71 C 0.58241 0.22141 0.20571 0.0
Sm72 Sm 0.03851 1.00832 0.82759 0.0
Sm73 Sm 0.99067 0.0183 0.70126 0.0
C74 C 0.07737 0.98939 0.95212 0.0
C75 C 0.09624 0.96339 0.96209 0.0
C76 C 0.08617 0.93579 0.93385 0.0
C77 C 0.10344 0.91093 0.94729 0.0
C78 C 0.13126 0.91311 0.98916 0.0
C79 C 0.14192 0.94101 0.01336 0.0
C80 C 0.12448 0.96598 1.00011 0.0
C81 C 0.05754 0.0241 0.64991 0.0
C82 C 1.01323 0.95214 0.70522 0.0
C83 C 0.95301 0.03698 0.57307 0.0
C84 C 0.93344 0.06211 0.55968 0.0
C85 C 0.92612 0.07074 0.46846 0.0
C86 C 0.91011 0.09634 0.45325 0.0
C87 C 0.90073 0.11355 0.52909 0.0
C88 C 0.90738 0.10435 0.62091 0.0
C89 C 0.92372 0.07881 0.63612 0.0
C90 C 0.97128 1.00269 0.87871 0.0
C91 C 0.01576 0.07466 0.82202 0.0
O92 O 0.04908 0.98506 0.96033 0.0
O93 O 0.08401 1.00731 0.8836 0.0
O94 O 0.03745 1.00586 0.6681 0.0
O95 O 0.06751 0.03538 0.72663 0.0
O96 O 0.02635 0.96034 0.78355 0.0
O97 O 1.00075 0.97191 0.65106 0.0
O98 O 0.98107 0.04283 0.56993 0.0
O99 O 0.94603 0.01852 0.63991 0.0
O100 O 0.99158 0.02083 0.86103 0.0
O101 O 0.96143 0.9915 0.8017 0.0
O102 O 1.00236 0.06618 0.74465 0.0
O103 O 0.02874 0.05515 0.87623 0.0
H104 H 0.06454 0.93328 0.9041 0.0
H105 H 0.09424 0.8898 0.92929 0.0
H106 H 0.16341 0.94339 0.04449 0.0
H107 H 0.1328 0.98719 0.02127 0.0
H108 H 0.9338 0.0583 0.40873 0.0
H109 H 0.90658 0.10358 0.38174 0.0
H110 H 0.90074 0.11738 0.68056 0.0
H111 H 0.92949 0.07257 0.70716 0.0
Sm112 Sm 0.51831 0.04123 0.82239 0.0
Sm113 Sm 0.50787 0.9928 0.69877 0.0
C114 C 0.53762 0.08035 0.94468 0.0
C115 C 0.5643 0.09823 0.95545 0.0
C116 C 0.59186 0.08649 0.93378 0.0
C117 C 0.61722 0.10296 0.9475 0.0
C118 C 0.61564 0.13165 0.98303 0.0
C119 C 0.58789 0.14384 1.00121 0.0
C120 C 0.5624 0.12721 0.98767 0.0
C121 C 0.50301 0.05976 0.64397 0.0
C122 C 0.5743 1.01445 0.70223 0.0
C123 C 0.48879 0.95353 0.57662 0.0
C124 C 0.46214 0.93567 0.56523 0.0
C125 C 0.43459 0.94718 0.58832 0.0
C126 C 0.40924 0.93072 0.57417 0.0
C127 C 0.41087 0.90231 0.53658 0.0
C128 C 0.4386 0.89033 0.51693 0.0
C129 C 0.46407 0.90694 0.53102 0.0
C130 C 0.52376 0.97445 0.87659 0.0
C131 C 0.45185 0.01948 0.81882 0.0
O132 O 0.54058 0.052 0.95591 0.0
O133 O 0.5208 0.08716 0.87402 0.0
O134 O 0.52091 0.03943 0.66269 0.0
O135 O 0.49166 0.06997 0.72048 0.0
O136 O 0.56602 0.02809 0.77952 0.0
O137 O 0.55463 1.00189 0.64847 0.0
O138 O 0.48589 0.98187 0.56489 0.0
O139 O 0.50534 0.9468 0.648 0.0
O140 O 0.50547 0.99451 0.85848 0.0
O141 O 0.53514 0.9645 0.79982 0.0
O142 O 0.46019 1.0059 0.7415 0.0
O143 O 0.47148 0.03214 0.87253 0.0
H144 H 0.5939 0.06423 0.90879 0.0
H145 H 0.63817 0.09256 0.93448 0.0
H146 H 0.58595 0.16596 0.02775 0.0
H147 H 0.54126 0.13677 1.00396 0.0
H148 H 0.43258 0.96927 0.61474 0.0
H149 H 0.38825 0.94089 0.58845 0.0
H150 H 0.44052 0.86839 0.48896 0.0
H151 H 0.4852 0.89755 0.51364 0.0
Sm152 Sm 0.49683 0.52183 0.83389 0.0
Sm153 Sm 0.53897 0.50611 0.64952 0.0
C154 C 0.47613 0.5427 0.99193 0.0
C155 C 0.45655 0.56791 1.01054 0.0
C156 C 0.46693 0.59678 0.99964 0.0
C157 C 0.44813 0.62053 1.01131 0.0
C158 C 0.41845 0.61612 0.03409 0.0
C159 C 0.40791 0.58735 0.04469 0.0
C160 C 0.42683 0.56343 0.03342 0.0
C161 C 0.46449 0.51378 0.67084 0.0
C162 C 0.51703 0.57444 0.6835 0.0
C163 C 0.55925 0.48849 0.48622 0.0
C164 C 0.58203 0.46761 0.45779 0.0
C165 C 0.58006 0.4539 0.37063 0.0
C166 C 0.59939 0.43134 0.34753 0.0
C167 C 0.62116 0.42214 0.41122 0.0
C168 C 0.62388 0.43694 0.49697 0.0
C169 C 0.60438 0.45941 0.52023 0.0
C170 C 0.57153 0.51402 0.81212 0.0
C171 C 0.5177 0.45342 0.79945 0.0
O172 O 0.50254 0.54898 0.96045 0.0
O173 O 0.46415 0.5202 0.94962 0.0
O174 O 0.4918 0.51326 0.68142 0.0
O175 O 0.45257 0.51845 0.75217 0.0
O176 O 0.50687 0.56742 0.76821 0.0
O177 O 0.52735 0.55473 0.62377 0.0
O178 O 0.53605 0.4768 0.5265 0.0
O179 O 0.56847 0.51243 0.52745 0.0
O180 O 0.54421 0.51512 0.80184 0.0
O181 O 0.5833 0.50888 0.73081 0.0
O182 O 0.52815 0.4605 0.71491 0.0
O183 O 0.50745 0.47308 0.85959 0.0
H184 H 0.48963 0.60118 0.98179 0.0
H185 H 0.45706 0.64248 1.00455 0.0
H186 H 0.38504 0.58342 0.06084 0.0
H187 H 0.41814 0.54143 0.04159 0.0
H188 H 0.56286 0.45987 0.32185 0.0
H189 H 0.59627 0.42017 0.28152 0.0
H190 H 0.6405 0.43058 0.54721 0.0
H191 H 0.60615 0.46973 0.5882 0.0
Sm192 Sm 1.00932 0.49244 0.81488 0.0
Sm193 Sm 0.0201 0.54037 0.68904 0.0
C194 C 0.98982 0.45355 0.93962 0.0
C195 C 0.96356 0.43506 0.95145 0.0
C196 C 0.93581 0.44581 0.92719 0.0
C197 C 0.91082 0.42884 0.94306 0.0
C198 C 0.91302 0.40065 0.98326 0.0
C199 C 0.94101 0.38938 1.00355 0.0
C200 C 0.9661 0.40652 0.98802 0.0
C201 C 0.02619 0.47328 0.63905 0.0
C202 C 0.95385 0.51804 0.68978 0.0
C203 C 0.03957 0.57968 0.56556 0.0
C204 C 0.06585 0.59823 0.55517 0.0
C205 C 0.09352 0.58733 0.57962 0.0
C206 C 0.11856 0.60435 0.56556 0.0
C207 C 0.11652 0.63276 0.52692 0.0
C208 C 0.08861 0.64418 0.50637 0.0
C209 C 0.06345 0.62698 0.52017 0.0
C210 C 1.00357 0.55928 0.86554 0.0
C211 C 0.07568 0.51448 0.81285 0.0
O212 O 0.98609 0.48188 0.94774 0.0
O213 O 1.00725 0.44672 0.87048 0.0
O214 O 1.00785 0.49346 0.6547 0.0
O215 O 0.03715 0.46371 0.71714 0.0
O216 O 0.96171 0.5048 0.76864 0.0
O217 O 0.97382 0.53065 0.63639 0.0
O218 O 0.04336 0.55139 0.55657 0.0
O219 O 0.022 0.58623 0.6346 0.0
O220 O 0.0219 0.53919 0.84893 0.0
O221 O 0.99234 0.5689 0.78791 0.0
O222 O 0.06771 0.52771 0.73411 0.0
O223 O 0.05575 0.50201 0.86679 0.0
H224 H 0.93332 0.4677 0.89862 0.0
H225 H 0.88964 0.4385 0.92804 0.0
H226 H 0.94341 0.36759 0.03318 0.0
H227 H 0.98741 0.39771 1.00625 0.0
H228 H 0.09591 0.56528 0.60689 0.0
H229 H 0.13967 0.59455 0.58063 0.0
H230 H 0.08632 0.6661 0.47766 0.0
H231 H 0.0422 0.63591 0.50179 0.0
H232 H 0.20553 0.03181 0.27034 0.0
H233 H 0.04985 0.98912 0.49645 0.0
H234 H 0.15805 0.95232 0.21134 0.0
H235 H 0.10592 0.05704 0.60526 0.0
H236 H 0.08388 0.9828 0.36499 0.0
H237 H 0.16389 0.04859 0.36588 0.0
C238 C 0.18601 0.01831 0.27499 0.0
C239 C 0.18526 0.9906 0.23271 0.0
C240 C 0.08857 0.99936 0.41695 0.0
C241 C 0.13779 1.00942 0.34258 0.0
C242 C 0.06908 1.00304 0.49187 0.0
C243 C 0.07527 0.02336 0.56259 0.0
C244 C 0.11443 0.01616 0.41245 0.0
C245 C 0.10047 0.0409 0.55277 0.0
C246 C 0.16238 0.02775 0.33025 0.0
C247 C 0.15956 0.97381 0.24239 0.0
N248 N 0.11929 0.03669 0.47972 0.0
N249 N 0.13703 0.98334 0.29671 0.0
H250 H 0.5 0.20878 0.26441 0.0
H251 H 0.53876 0.05197 0.49124 0.0
H252 H 0.57719 0.15855 0.19814 0.0
H253 H 0.47138 0.10891 0.59938 0.0
H254 H 0.54645 0.08628 0.36057 0.0
H255 H 0.48269 0.16803 0.36408 0.0
C256 C 0.51293 0.18891 0.26873 0.0
C257 C 0.54016 0.18712 0.22287 0.0
C258 C 0.52972 0.09112 0.41224 0.0
C259 C 0.52071 0.14058 0.33739 0.0
C260 C 0.52524 0.07146 0.48668 0.0
C261 C 0.50462 0.07775 0.55693 0.0
C262 C 0.51344 0.11729 0.40771 0.0
C263 C 0.4877 0.10333 0.5472 0.0
C264 C 0.50318 0.16576 0.32627 0.0
C265 C 0.55617 0.16096 0.23218 0.0
N266 N 0.49266 0.12229 0.47462 0.0
N267 N 0.54635 0.13889 0.28863 0.0
H268 H 0.31769 0.49892 0.29412 0.0
H269 H 0.47909 0.53177 0.49205 0.0
H270 H 0.36864 0.57445 0.21259 0.0
H271 H 0.41084 0.4892 0.65241 0.0
H272 H 0.44538 0.53479 0.35717 0.0
H273 H 0.35867 0.48242 0.39321 0.0
C274 C 0.33788 0.51145 0.29428 0.0
C275 C 0.33988 0.53803 0.24452 0.0
C276 C 0.43811 0.52418 0.42135 0.0
C277 C 0.38668 0.51942 0.35752 0.0
C278 C 0.45736 0.52229 0.49784 0.0
C279 C 0.44759 0.51035 0.58325 0.0
C280 C 0.40925 0.51346 0.43024 0.0
C281 C 0.41911 0.49872 0.58775 0.0
C282 C 0.36114 0.50219 0.35137 0.0
C283 C 0.36639 0.55371 0.24884 0.0
N284 N 0.40092 0.50064 0.5126 0.0
N285 N 0.38866 0.54432 0.30471 0.0
H286 H 0.95497 0.3697 0.19807 0.0
H287 H 0.061 0.42618 0.59908 0.0
H288 H 0.03258 0.32284 0.28196 0.0
H289 H 0.98982 0.47746 0.48614 0.0
H290 H 0.05485 0.391 0.47164 0.0
H291 H 0.97128 0.41207 0.2874 0.0
C292 C 0.97594 0.36869 0.23306 0.0
C293 C 0.99252 0.34276 0.23182 0.0
C294 C 0.04085 0.41015 0.47375 0.0
C295 C 1.01091 0.39095 0.33848 0.0
C296 C 0.04436 0.43028 0.54657 0.0
C297 C 0.0257 0.45467 0.55389 0.0
C298 C 0.0183 0.41421 0.40796 0.0
C299 C 1.00461 0.45891 0.4836 0.0
C300 C 0.98516 0.39283 0.28502 0.0
C301 C 0.01927 0.34248 0.28025 0.0
N302 N 1.00123 0.4387 0.41446 0.0
N303 N 0.02739 0.366 0.33299 0.0
H304 H 0.86736 0.07862 0.31232 0.0
H305 H 0.9241 0.96832 0.92394 0.0
H306 H 0.82175 0.99892 0.24469 0.0
H307 H 0.9758 0.04035 0.02757 0.0
H308 H 0.88901 0.97577 0.05189 0.0
H309 H 0.90982 0.06179 0.22265 0.0
C310 C 0.86671 0.05717 0.28055 0.0
C311 C 0.84112 0.04014 0.28638 0.0
C312 C 0.90824 0.98967 0.04765 0.0
C313 C 0.88924 0.02098 0.17998 0.0
C314 C 0.92831 0.98542 0.97455 0.0
C315 C 0.95277 1.00393 0.96444 0.0
C316 C 0.91244 1.01284 0.11075 0.0
C317 C 0.95718 0.02565 0.03232 0.0
C318 C 0.89083 0.04762 0.22864 0.0
C319 C 0.84112 1.01265 0.24259 0.0
N320 N 0.93701 0.02976 0.10166 0.0
N321 N 0.8646 1.00415 0.18984 0.0
H322 H 0.44985 0.87225 0.32159 0.0
H323 H 0.55857 0.9278 0.92234 0.0
H324 H 0.52844 0.82564 0.24621 0.0
H325 H 0.4863 0.97911 0.02697 0.0
H326 H 0.55157 0.89302 0.052 0.0
H327 H 0.46636 0.9142 0.22882 0.0
C328 C 0.47097 0.87113 0.28732 0.0
C329 C 0.48776 0.84538 0.29205 0.0
C330 C 0.53751 0.91209 0.04758 0.0
C331 C 0.50656 0.89319 0.18212 0.0
C332 C 0.54151 0.932 0.97352 0.0
C333 C 0.52279 0.95624 0.96322 0.0
C334 C 0.51441 0.91626 0.11154 0.0
C335 C 0.50114 0.96065 0.03186 0.0
C336 C 0.48035 0.89508 0.23365 0.0
C337 C 0.51487 0.8451 0.2451 0.0
N338 N 0.4973 0.94064 0.10223 0.0
N339 N 0.52319 0.86843 0.19077 0.0
H340 H 0.65865 0.45946 0.30958 0.0
H341 H 0.62646 0.53558 0.82795 0.0
H342 H 0.71479 0.52682 0.19614 0.0
H343 H 0.55601 0.49908 0.9936 0.0
H344 H 0.65825 0.53413 0.9654 0.0
H345 H 0.6196 0.475 0.2019 0.0
C346 C 0.66231 0.47817 0.26405 0.0
C347 C 0.68983 0.492 0.26216 0.0
C348 C 0.63571 0.52691 0.97257 0.0
C349 C 0.64579 0.50927 0.13639 0.0
C350 C 0.61755 0.5277 0.894 0.0
C351 C 0.5886 0.51744 0.89954 0.0
C352 C 0.6252 0.51493 0.05716 0.0
C353 C 0.57818 0.50735 0.98669 0.0
C354 C 0.64013 0.48695 0.20234 0.0
C355 C 0.69379 0.51579 0.20059 0.0
N356 N 0.59667 0.50577 0.06179 0.0
N357 N 0.67225 0.52328 0.13888 0.0
H358 H 0.077 0.65962 0.31072 0.0
H359 H 0.96999 0.6073 0.9063 0.0
H360 H 0.99978 0.70806 0.23235 0.0
H361 H 0.03974 0.55388 0.01828 0.0
H362 H 0.977 0.64197 0.03489 0.0
H363 H 0.06024 0.61839 0.21725 0.0
C364 C 0.05607 0.66126 0.2758 0.0
C365 C 0.03973 0.6873 0.28007 0.0
C366 C 0.99049 0.62247 0.03224 0.0
C367 C 0.02074 0.64034 0.16884 0.0
C368 C 0.98649 0.60262 0.95879 0.0
C369 C 1.0045 0.57777 0.95094 0.0
C370 C 1.01287 0.61761 0.0981 0.0
C371 C 0.02545 0.5728 0.02119 0.0
C372 C 0.04657 0.63774 0.22159 0.0
C373 C 1.01295 0.68832 0.23177 0.0
N374 N 0.0293 0.59271 0.09094 0.0
N375 N 1.00453 0.66539 0.17685 0.0
H376 H 0.89029 0.24905 0.15518 0.0
H377 H 0.8577 0.12867 0.40328 0.0
H378 H 0.93304 0.2814 0.40323 0.0
H379 H 0.91533 0.16547 0.61098 0.0
H380 H 0.8491 0.17767 0.34047 0.0
H381 H 0.86385 0.21369 0.25087 0.0
C382 C 0.89335 0.2493 0.2305 0.0
C383 C 0.91476 0.26738 0.27071 0.0
C384 C 0.86348 0.17532 0.40009 0.0
C385 C 0.88479 0.22655 0.38202 0.0
C386 C 0.86816 0.14723 0.43657 0.0
C387 C 0.88814 0.14292 0.51007 0.0
C388 C 0.87955 0.19908 0.43613 0.0
C389 C 0.90021 0.16769 0.55299 0.0
C390 C 0.87818 0.22895 0.28583 0.0
C391 C 0.9172 0.26747 0.36874 0.0
N392 N 0.89632 0.1946 0.51383 0.0
N393 N 0.90308 0.24675 0.42064 0.0
H394 H 0.28133 0.89037 0.14328 0.0
H395 H 0.35863 0.89773 0.63189 0.0
H396 H 0.24526 0.92901 0.39383 0.0
H397 H 0.4004 0.87358 0.37193 0.0
H398 H 0.31087 0.88862 0.56051 0.0
H399 H 0.317 0.86408 0.23995 0.0
C400 C 0.28029 0.89263 0.21879 0.0
C401 C 0.26105 0.91287 0.26005 0.0
C402 C 0.33052 0.88449 0.51986 0.0
C403 C 0.30175 0.88298 0.37077 0.0
C404 C 0.35779 0.88975 0.56055 0.0
C405 C 0.38348 0.8875 0.50661 0.0
C406 C 0.32899 0.87735 0.42431 0.0
C407 C 0.38119 0.87618 0.41562 0.0
C408 C 0.30065 0.87759 0.27396 0.0
C409 C 0.26 0.91413 0.3584 0.0
N410 N 0.35436 0.87232 0.37639 0.0
N411 N 0.28064 0.90006 0.41019 0.0
H412 H 0.605 0.24954 0.3613 0.0
H413 H 0.63644 0.37836 0.535 0.0
H414 H 0.64275 0.27733 0.09776 0.0
H415 H 0.64515 0.40381 0.24424 0.0
H416 H 0.65104 0.32881 0.4945 0.0
H417 H 0.63035 0.28881 0.43897 0.0
C418 C 0.61979 0.26309 0.32013 0.0
C419 C 0.62068 0.26092 0.22206 0.0
C420 C 0.64984 0.34511 0.43924 0.0
C421 C 0.64946 0.30706 0.31066 0.0
C422 C 0.64197 0.37372 0.46271 0.0
C423 C 0.63815 0.395 0.39213 0.0
C424 C 0.65305 0.33761 0.34424 0.0
C425 C 0.64632 0.38771 0.30026 0.0
C426 C 0.63432 0.28598 0.36485 0.0
C427 C 0.64049 0.27903 0.17313 0.0
N428 N 0.65258 0.35944 0.27855 0.0
N429 N 0.65322 0.30207 0.21731 0.0
H430 H 0.28357 0.60464 0.39627 0.0
H431 H 0.12665 0.66291 0.36274 0.0
H432 H 0.24583 0.63969 0.14188 0.0
H433 H 0.16883 0.63737 0.62096 0.0
H434 H 0.17453 0.67199 0.29283 0.0
H435 H 0.24944 0.63364 0.48715 0.0
C436 C 0.26884 0.61921 0.35906 0.0
C437 C 0.26677 0.61862 0.26079 0.0
C438 C 0.1734 0.66519 0.36567 0.0
C439 C 0.2265 0.651 0.36537 0.0
C440 C 0.1459 0.66014 0.40599 0.0
C441 C 0.14375 0.64808 0.49661 0.0
C442 C 0.1988 0.65764 0.41593 0.0
C443 C 0.16956 0.64542 0.54938 0.0
C444 C 0.24902 0.63567 0.41145 0.0
C445 C 0.24727 0.63833 0.21754 0.0
N446 N 0.19605 0.64927 0.50744 0.0
N447 N 0.22718 0.65294 0.27 0.0
H448 H 0.14086 0.78137 0.37805 0.0
H449 H 0.13838 0.86183 0.8915 0.0
H450 H 0.10312 0.74783 0.12304 0.0
H451 H 0.15852 0.90204 0.15662 0.0
H452 H 0.14716 0.81368 0.9621 0.0
H453 H 0.16841 0.81731 0.28505 0.0
C454 C 0.13905 0.78093 0.30234 0.0
C455 C 0.11868 0.76238 0.25868 0.0
C456 C 0.15052 0.8331 1.0041 0.0
C457 C 0.15007 0.80335 0.15218 0.0
C458 C 0.14545 0.86059 0.96387 0.0
C459 C 0.14652 0.8859 0.01932 0.0
C460 C 0.15637 0.83097 0.10056 0.0
C461 C 0.15677 0.88311 0.11168 0.0
C462 C 0.15483 0.80143 0.24929 0.0
C463 C 0.11805 0.76205 0.16022 0.0
N464 N 0.16049 0.85605 0.15025 0.0
N465 N 0.13285 0.78282 0.11047 0.0
H466 H 0.78274 0.10309 0.12141 0.0
H467 H 0.62566 0.1632 0.14326 0.0
H468 H 0.74352 0.13939 0.37089 0.0
H469 H 0.66855 0.13413 0.89047 0.0
H470 H 0.67337 0.17194 0.2135 0.0
H471 H 0.74885 0.13129 0.02645 0.0
C472 C 0.76771 0.11775 0.1566 0.0
C473 C 0.76522 0.11783 0.25482 0.0
C474 C 0.67244 0.16439 0.14171 0.0
C475 C 0.72529 0.14932 0.14567 0.0
C476 C 0.64505 0.15952 0.10119 0.0
C477 C 0.64308 0.14659 0.01233 0.0
C478 C 0.69792 0.15584 0.09343 0.0
C479 C 0.66909 0.14285 0.96089 0.0
C480 C 0.74804 0.13376 0.1019 0.0
C481 C 0.74532 0.13757 0.29543 0.0
N482 N 0.69545 0.14659 1.00314 0.0
N483 N 0.72545 0.15179 0.24084 0.0
H484 H 0.42422 0.78638 0.13759 0.0
H485 H 0.38279 0.62464 0.18613 0.0
H486 H 0.38919 0.74725 0.39053 0.0
H487 H 0.41227 0.66649 0.93082 0.0
H488 H 0.36584 0.672 0.24322 0.0
H489 H 0.39984 0.749 0.04631 0.0
C490 C 0.41046 0.77065 0.17415 0.0
C491 C 0.41006 0.76908 0.27256 0.0
C492 C 0.37516 0.67079 0.17342 0.0
C493 C 0.38323 0.72519 0.16804 0.0
C494 C 0.38471 0.64362 0.14056 0.0
C495 C 0.39984 0.64188 0.05503 0.0
C496 C 0.38138 0.6963 0.12096 0.0
C497 C 0.40161 0.66715 0.99873 0.0
C498 C 0.39671 0.74895 0.12163 0.0
C499 C 0.39134 0.74836 0.31496 0.0
N500 N 0.39324 0.69346 0.03369 0.0
N501 N 0.3796 0.72648 0.2628 0.0
H502 H 0.74495 0.42504 0.11671 0.0
H503 H 0.90348 0.37126 0.14903 0.0
H504 H 0.7832 0.38994 0.37027 0.0
H505 H 0.86052 0.39537 0.89073 0.0
H506 H 0.85585 0.3611 0.21941 0.0
H507 H 0.77994 0.39735 0.02522 0.0
C508 C 0.75997 0.4107 0.15362 0.0
C509 C 0.76192 0.411 0.25195 0.0
C510 C 0.85678 0.36782 0.14647 0.0
C511 C 0.8032 0.38017 0.14661 0.0
C512 C 0.88412 0.37349 0.1059 0.0
C513 C 0.88594 0.38533 0.01492 0.0
C514 C 0.83116 0.37455 0.09616 0.0
C515 C 0.86002 0.38744 0.96245 0.0
C516 C 0.78031 0.39501 0.10083 0.0
C517 C 0.78183 0.39157 0.29464 0.0
N518 N 0.83365 0.38295 1.00461 0.0
N519 N 0.80241 0.37777 0.24187 0.0
H520 H 0.0282 0.23606 0.14122 0.0
H521 H 0.98502 0.12029 0.74176 0.0
H522 H 0.9606 0.25085 0.93626 0.0
H523 H 0.04415 0.1008 0.96948 0.0
H524 H 0.98161 0.17093 0.79694 0.0
H525 H 0.04096 0.18999 0.06227 0.0
C526 C 0.01683 0.23015 0.07746 0.0
C527 C 0.99359 0.24747 0.04445 0.0
C528 C 0.99551 0.15565 0.83447 0.0
C529 C 1.00728 0.1943 0.95548 0.0
C530 C 0.99749 0.12666 0.8029 0.0
C531 C 1.01478 0.10604 0.85121 0.0
C532 C 1.01099 0.16431 0.91497 0.0
C533 C 0.03039 0.11576 0.93015 0.0
C534 C 0.02378 0.20362 0.0332 0.0
C535 C 0.97892 0.2383 0.96319 0.0
N536 N 0.02803 0.14405 0.95964 0.0
N537 N 0.9858 0.21231 0.92212 0.0
H538 H 0.27406 0.96291 0.92351 0.0
H539 H 0.42669 0.04713 0.96944 0.0
H540 H 0.29167 0.02602 0.1394 0.0
H541 H 0.40521 0.99084 0.7375 0.0
H542 H 0.37599 0.04343 0.0244 0.0
H543 H 0.31957 0.97734 0.84399 0.0
C544 C 0.28706 0.9806 0.95223 0.0
C545 C 0.27892 0.99362 0.0373 0.0
C546 C 0.38227 0.03209 0.96095 0.0
C547 C 0.33181 1.0094 0.94913 0.0
C548 C 0.41132 0.03412 0.92951 0.0
C549 C 0.42049 0.01905 0.84884 0.0
C550 C 0.36207 1.01468 0.91197 0.0
C551 C 0.39936 1.00271 0.80013 0.0
C552 C 0.31324 0.9886 0.90751 0.0
C553 C 0.29692 0.01585 0.07304 0.0
N554 N 0.37131 1.00076 0.83284 0.0
N555 N 0.32273 0.02273 0.0296 0.0
H556 H 0.50636 0.2925 0.12654 0.0
H557 H 0.54216 0.40607 0.70891 0.0
H558 H 0.56542 0.27397 0.89847 0.0
H559 H 0.49353 0.42865 0.95839 0.0
H560 H 0.54397 0.35509 0.76345 0.0
H561 H 0.49337 0.33912 0.04999 0.0
C562 C 0.51564 0.2977 0.0584 0.0
C563 C 0.5367 0.27921 0.01815 0.0
C564 C 0.53273 0.37117 0.80595 0.0
C565 C 0.52287 0.33298 0.93172 0.0
C566 C 0.53169 0.40037 0.77484 0.0
C567 C 0.51789 0.42196 0.82931 0.0
C568 C 0.51977 0.36327 0.89215 0.0
C569 C 0.50466 0.41298 0.91413 0.0
C570 C 0.50863 0.32455 0.01542 0.0
C571 C 0.5488 0.28746 0.93114 0.0
N572 N 0.50604 0.38446 0.94296 0.0
N573 N 0.54198 0.31381 0.89142 0.0
H574 H 0.23397 0.50354 0.14866 0.0
H575 H 0.12284 0.54248 0.73027 0.0
H576 H 0.25173 0.56792 0.93363 0.0
H577 H 0.1 0.48762 0.96712 0.0
H578 H 0.17306 0.54558 0.78914 0.0
H579 H 0.18851 0.49015 0.06698 0.0
C580 C 0.22883 0.51404 0.08236 0.0
C581 C 0.24676 0.53661 0.04719 0.0
C582 C 0.15712 0.53267 0.82793 0.0
C583 C 0.19437 0.5222 0.95488 0.0
C584 C 0.12835 0.53091 0.79424 0.0
C585 C 0.1069 0.515 0.844 0.0
C586 C 0.16473 0.51835 0.91209 0.0
C587 C 0.11562 0.50035 0.92651 0.0
C588 C 0.20267 0.50674 0.03643 0.0
C589 C 0.23865 0.55016 0.96241 0.0
N590 N 0.14371 0.50251 0.95809 0.0
N591 N 0.21299 0.54297 0.91972 0.0
H592 H 0.06838 0.77422 0.59168 0.0
H593 H 0.9851 0.9278 0.55485 0.0
H594 H 1.00508 0.79423 0.37738 0.0
H595 H 0.04268 0.90495 0.78334 0.0
H596 H 0.9886 0.8776 0.49744 0.0
H597 H 0.05495 0.81943 0.67316 0.0
C598 C 0.05084 0.78766 0.56369 0.0
C599 C 0.03747 0.78023 0.47847 0.0
C600 C 1.0003 0.88343 0.56061 0.0
C601 C 0.02283 0.83285 0.5691 0.0
C602 C 0.99839 0.91223 0.59353 0.0
C603 C 1.01382 0.92091 0.67404 0.0
C604 C 0.01796 0.86292 0.60786 0.0
C605 C 0.0305 0.89949 0.72098 0.0
C606 C 0.04343 0.81369 0.60956 0.0
C607 C 0.0155 0.79885 0.4438 0.0
N608 N 0.03231 0.87165 0.68683 0.0
N609 N 1.00916 0.82448 0.48845 0.0
H610 H 0.75251 0.06879 0.59189 0.0
H611 H 0.59932 0.98517 0.55488 0.0
H612 H 0.73378 1.00455 0.38042 0.0
H613 H 0.62105 0.04386 0.78045 0.0
H614 H 0.64999 0.98803 0.49955 0.0
H615 H 0.70711 0.0552 0.67357 0.0
C616 C 0.73929 0.05103 0.56466 0.0
C617 C 0.74707 0.03746 0.48012 0.0
C618 C 0.64379 1.00009 0.5617 0.0
C619 C 0.69431 0.02264 0.57073 0.0
C620 C 0.61474 0.99855 0.59334 0.0
C621 C 0.60566 1.01451 0.6723 0.0
C622 C 0.66407 0.0179 0.60872 0.0
C623 C 0.62686 0.03127 0.71922 0.0
C624 C 0.71318 0.04351 0.61059 0.0
C625 C 0.72881 1.01515 0.4463 0.0
N626 N 0.65492 0.03273 0.68628 0.0
N627 N 0.70307 1.00874 0.49089 0.0
H628 H 0.46616 0.75557 0.60283 0.0
H629 H 0.53992 0.5991 0.52256 0.0
H630 H 0.52199 0.73626 0.3674 0.0
H631 H 0.49264 0.62175 0.77461 0.0
H632 H 0.5369 0.65018 0.47079 0.0
H633 H 0.48001 0.70872 0.67523 0.0
C634 C 0.48228 0.74192 0.56824 0.0
C635 C 0.4934 0.75003 0.47991 0.0
C636 C 0.52737 0.64406 0.53777 0.0
C637 C 0.50828 0.6956 0.55993 0.0
C638 C 0.52898 0.61477 0.56738 0.0
C639 C 0.51633 0.60584 0.65303 0.0
C640 C 0.51282 0.66479 0.5936 0.0
C641 C 0.50263 0.62741 0.70794 0.0
C642 C 0.48988 0.71496 0.60888 0.0
C643 C 0.51344 0.7311 0.43649 0.0
N644 N 0.50105 0.65573 0.67699 0.0
N645 N 0.5199 0.7046 0.47619 0.0
H646 H 0.77569 0.46316 0.58045 0.0
H647 H 0.92985 0.54545 0.53626 0.0
H648 H 0.79592 0.52485 0.35973 0.0
H649 H 0.90658 0.48923 0.76942 0.0
H650 H 0.87958 0.54185 0.47858 0.0
H651 H 0.82109 0.4769 0.66043 0.0
C652 C 0.78926 0.48039 0.5506 0.0
C653 C 0.78185 0.49321 0.46409 0.0
C654 C 0.88535 0.53049 0.54282 0.0
C655 C 0.83463 0.50821 0.55309 0.0
C656 C 0.91417 0.53246 0.57587 0.0
C657 C 0.92271 0.51744 0.65779 0.0
C658 C 0.86473 0.5132 0.59147 0.0
C659 C 0.9012 0.5011 0.70593 0.0
C660 C 0.81538 0.48799 0.59564 0.0
C661 C 0.80057 0.51485 0.42713 0.0
N662 N 0.87337 0.49923 0.67171 0.0
N663 N 0.82629 0.52136 0.47108 0.0
loop_
_geom_bond_atom_site_label_1
_geom_bond_atom_site_label_2
_geom_bond_distance
_geom_bond_site_symmetry_2
_ccdc_geom_bond_type
H0 C3 0.931 . S
H1 C6 0.928 . S
H2 C8 0.930 . S
C3 H0 0.931 . S
C3 C4 1.413 . S
C3 C5 1.360 . S
C4 C3 1.413 . S
C4 C8 1.429 . S
C5 C3 1.360 . S
C5 C6 1.372 . S
C6 H1 0.928 . S
C6 C5 1.372 . S
C6 C7 1.404 . S
C7 C6 1.404 . S
C7 C8 1.391 . S
C8 H2 0.930 . S
C8 C4 1.429 . S
C8 C7 1.391 . S
H9 C12 0.931 . S
H10 C15 0.928 . S
H11 C17 0.930 . S
C12 H9 0.931 . S
C12 C13 1.413 . S
C12 C14 1.360 . S
C13 C12 1.413 . S
C13 C17 1.429 1_655 S
C14 C12 1.360 . S
C14 C15 1.372 . S
C15 H10 0.928 . S
C15 C14 1.372 . S
C15 C16 1.404 . S
C16 C15 1.404 . S
C16 C17 1.390 1_655 S
C17 H11 0.930 . S
C17 C13 1.429 1_455 S
C17 C16 1.390 1_455 S
H18 C21 0.931 . S
H19 C24 0.928 . S
H20 C26 0.930 . S
C21 H18 0.931 . S
C21 C22 1.413 . S
C21 C23 1.360 . S
C22 C21 1.413 . S
C22 C26 1.429 1_565 S
C23 C21 1.360 . S
C23 C24 1.372 . S
C24 H19 0.928 . S
C24 C23 1.372 . S
C24 C25 1.404 . S
C25 C24 1.404 . S
C25 C26 1.390 1_565 S
C26 H20 0.930 . S
C26 C22 1.429 1_545 S
C26 C25 1.390 1_545 S
H27 C30 0.931 . S
H28 C33 0.928 . S
H29 C35 0.930 . S
C30 H27 0.931 . S
C30 C31 1.413 . S
C30 C32 1.360 . S
C31 C30 1.413 . S
C31 C35 1.429 . S
C32 C30 1.360 . S
C32 C33 1.372 . S
C33 H28 0.928 . S
C33 C32 1.372 . S
C33 C34 1.404 . S
C34 C33 1.404 . S
C34 C35 1.391 . S
C35 H29 0.930 . S
C35 C31 1.429 . S
C35 C34 1.391 . S
H36 C39 0.931 . S
H37 C42 0.928 . S
H38 C44 0.930 . S
C39 H36 0.931 . S
C39 C40 1.413 1_554 S
C39 C41 1.360 . S
C40 C39 1.413 1_556 S
C40 C44 1.429 . S
C41 C39 1.360 . S
C41 C42 1.372 . S
C42 H37 0.928 . S
C42 C41 1.372 . S
C42 C43 1.404 . S
C43 C42 1.404 . S
C43 C44 1.391 1_554 S
C44 H38 0.930 . S
C44 C40 1.429 . S
C44 C43 1.391 1_556 S
H45 C48 0.931 . S
H46 C51 0.928 . S
H47 C53 0.930 . S
C48 H45 0.931 . S
C48 C49 1.413 1_554 S
C48 C50 1.360 . S
C49 C48 1.413 1_556 S
C49 C53 1.429 1_655 S
C50 C48 1.360 . S
C50 C51 1.372 . S
C51 H46 0.928 . S
C51 C50 1.372 . S
C51 C52 1.404 . S
C52 C51 1.404 . S
C52 C53 1.391 1_654 S
C53 H47 0.930 . S
C53 C49 1.429 1_455 S
C53 C52 1.391 1_456 S
H54 C57 0.931 . S
H55 C60 0.928 . S
H56 C62 0.930 . S
C57 H54 0.931 . S
C57 C58 1.413 1_554 S
C57 C59 1.360 . S
C58 C57 1.413 1_556 S
C58 C62 1.429 1_565 S
C59 C57 1.360 . S
C59 C60 1.372 . S
C60 H55 0.928 . S
C60 C59 1.372 . S
C60 C61 1.404 . S
C61 C60 1.404 . S
C61 C62 1.391 1_564 S
C62 H56 0.930 . S
C62 C58 1.429 1_545 S
C62 C61 1.391 1_546 S
H63 C66 0.931 . S
H64 C69 0.928 . S
H65 C71 0.930 . S
C66 H63 0.931 . S
C66 C67 1.413 . S
C66 C68 1.360 1_554 S
C67 C66 1.413 . S
C67 C71 1.429 . S
C68 C66 1.360 1_556 S
C68 C69 1.372 . S
C69 H64 0.928 . S
C69 C68 1.372 . S
C69 C70 1.404 1_556 S
C70 C69 1.404 1_554 S
C70 C71 1.391 . S
C71 H65 0.930 . S
C71 C67 1.429 . S
C71 C70 1.391 . S
Sm72 C74 2.846 . S
Sm72 O92 2.543 . S
Sm72 O93 2.450 . S
Sm72 O94 2.681 1_565 S
Sm72 O95 2.464 . S
Sm72 O96 2.396 . S
Sm72 O100 2.386 1_455 S
Sm72 O103 2.408 1_565 S
Sm73 C83 2.846 . S
Sm73 O94 2.386 1_655 S
Sm73 O97 2.408 1_545 S
Sm73 O98 2.543 . S
Sm73 O99 2.450 . S
Sm73 O100 2.681 1_545 S
Sm73 O101 2.464 . S
Sm73 O102 2.396 . S
C74 Sm72 2.846 . S
C74 C75 1.506 . S
C74 O92 1.261 . S
C74 O93 1.242 . S
C75 C74 1.506 . S
C75 C76 1.358 1_556 S
C75 C80 1.382 . S
C76 C75 1.358 1_554 S
C76 C77 1.385 . S
C76 H104 0.930 1_455 S
C77 C76 1.385 . S
C77 C78 1.395 . S
C77 H105 0.929 . S
C78 C77 1.395 . S
C78 C79 1.335 . S
C79 C78 1.335 . S
C79 C80 1.398 1_554 S
C79 H106 0.930 . S
C80 C75 1.382 . S
C80 C79 1.398 1_556 S
C80 H107 0.929 . S
C81 O94 1.271 1_565 S
C81 O95 1.251 . S
C82 O96 1.252 1_655 S
C82 O97 1.272 . S
C83 Sm73 2.846 . S
C83 C84 1.506 . S
C83 O98 1.261 . S
C83 O99 1.242 . S
C84 C83 1.506 . S
C84 C85 1.358 . S
C84 C89 1.382 . S
C85 C84 1.358 . S
C85 C86 1.385 . S
C85 H108 0.930 1_655 S
C86 C85 1.385 . S
C86 C87 1.395 . S
C86 H109 0.929 . S
C87 C86 1.395 . S
C87 C88 1.335 . S
C88 C87 1.335 . S
C88 C89 1.398 . S
C88 H110 0.930 . S
C89 C84 1.382 . S
C89 C88 1.398 . S
C89 H111 0.929 . S
C90 O100 1.271 1_545 S
C90 O101 1.251 . S
C91 O102 1.252 1_455 S
C91 O103 1.272 . S
O92 Sm72 2.543 . S
O92 C74 1.261 . S
O93 Sm72 2.450 . S
O93 C74 1.242 . S
O94 Sm72 2.681 1_545 S
O94 Sm73 2.386 1_455 S
O94 C81 1.271 1_545 S
O95 Sm72 2.464 . S
O95 C81 1.251 . S
O96 Sm72 2.396 . S
O96 C82 1.252 1_455 S
O97 Sm73 2.408 1_565 S
O97 C82 1.272 . S
O98 Sm73 2.543 . S
O98 C83 1.261 . S
O99 Sm73 2.450 . S
O99 C83 1.242 . S
O100 Sm72 2.386 1_655 S
O100 Sm73 2.681 1_565 S
O100 C90 1.271 1_565 S
O101 Sm73 2.464 . S
O101 C90 1.251 . S
O102 Sm73 2.396 . S
O102 C91 1.252 1_655 S
O103 Sm72 2.408 1_545 S
O103 C91 1.272 . S
H104 C76 0.930 1_655 S
H105 C77 0.929 . S
H106 C79 0.930 . S
H107 C80 0.929 . S
H108 C85 0.930 1_455 S
H109 C86 0.929 . S
H110 C88 0.930 . S
H111 C89 0.929 . S
Sm112 C114 2.846 . S
Sm112 O132 2.543 . S
Sm112 O133 2.450 . S
Sm112 O134 2.681 . S
Sm112 O135 2.464 . S
Sm112 O136 2.396 . S
Sm112 O140 2.386 1_545 S
Sm112 O143 2.408 . S
Sm113 C123 2.846 . S
Sm113 O134 2.386 1_565 S
Sm113 O137 2.408 . S
Sm113 O138 2.543 . S
Sm113 O139 2.450 . S
Sm113 O140 2.681 . S
Sm113 O141 2.464 . S
Sm113 O142 2.396 . S
C114 Sm112 2.846 . S
C114 C115 1.506 . S
C114 O132 1.261 . S
C114 O133 1.242 . S
C115 C114 1.506 . S
C115 C116 1.358 1_556 S
C115 C120 1.382 . S
C116 C115 1.358 1_554 S
C116 C117 1.385 . S
C116 H144 0.930 1_545 S
C117 C116 1.385 . S
C117 C118 1.395 . S
C117 H145 0.929 . S
C118 C117 1.395 . S
C118 C119 1.335 . S
C119 C118 1.335 . S
C119 C120 1.398 1_554 S
C119 H146 0.930 . S
C120 C115 1.382 . S
C120 C119 1.398 1_556 S
C120 H147 0.929 . S
C121 O134 1.271 . S
C121 O135 1.251 . S
C122 O136 1.252 1_565 S
C122 O137 1.272 . S
C123 Sm113 2.846 . S
C123 C124 1.506 . S
C123 O138 1.261 . S
C123 O139 1.242 . S
C124 C123 1.506 . S
C124 C125 1.358 . S
C124 C129 1.382 . S
C125 C124 1.358 . S
C125 C126 1.385 . S
C125 H148 0.930 1_565 S
C126 C125 1.385 . S
C126 C127 1.395 . S
C126 H149 0.929 . S
C127 C126 1.395 . S
C127 C128 1.335 . S
C128 C127 1.335 . S
C128 C129 1.398 . S
C128 H150 0.930 . S
C129 C124 1.382 . S
C129 C128 1.398 . S
C129 H151 0.929 . S
C130 O140 1.271 . S
C130 O141 1.251 . S
C131 O142 1.252 1_545 S
C131 O143 1.272 . S
O132 Sm112 2.543 . S
O132 C114 1.261 . S
O133 Sm112 2.450 . S
O133 C114 1.242 . S
O134 Sm112 2.681 . S
O134 Sm113 2.386 1_545 S
O134 C121 1.271 . S
O135 Sm112 2.464 . S
O135 C121 1.251 . S
O136 Sm112 2.396 . S
O136 C122 1.252 1_545 S
O137 Sm113 2.408 . S
O137 C122 1.272 . S
O138 Sm113 2.543 . S
O138 C123 1.261 . S
O139 Sm113 2.450 . S
O139 C123 1.242 . S
O140 Sm112 2.386 1_565 S
O140 Sm113 2.681 . S
O140 C130 1.271 . S
O141 Sm113 2.464 . S
O141 C130 1.251 . S
O142 Sm113 2.396 . S
O142 C131 1.252 1_565 S
O143 Sm112 2.408 . S
O143 C131 1.272 . S
H144 C116 0.930 1_565 S
H145 C117 0.929 . S
H146 C119 0.930 . S
H147 C120 0.929 . S
H148 C125 0.930 1_545 S
H149 C126 0.929 . S
H150 C128 0.930 . S
H151 C129 0.929 . S
Sm152 C154 2.846 . S
Sm152 O172 2.543 . S
Sm152 O173 2.450 . S
Sm152 O174 2.681 . S
Sm152 O175 2.464 . S
Sm152 O176 2.396 . S
Sm152 O180 2.386 . S
Sm152 O183 2.408 . S
Sm153 C163 2.846 . S
Sm153 O174 2.386 . S
Sm153 O177 2.408 . S
Sm153 O178 2.543 . S
Sm153 O179 2.450 . S
Sm153 O180 2.681 . S
Sm153 O181 2.464 . S
Sm153 O182 2.396 . S
C154 Sm152 2.846 . S
C154 C155 1.506 . S
C154 O172 1.261 . S
C154 O173 1.242 . S
C155 C154 1.506 . S
C155 C156 1.358 1_556 S
C155 C160 1.382 . S
C156 C155 1.358 1_554 S
C156 C157 1.385 . S
C156 H184 0.930 . S
C157 C156 1.385 . S
C157 C158 1.395 . S
C157 H185 0.929 . S
C158 C157 1.395 . S
C158 C159 1.335 . S
C159 C158 1.335 . S
C159 C160 1.398 1_554 S
C159 H186 0.930 . S
C160 C155 1.382 . S
C160 C159 1.398 1_556 S
C160 H187 0.929 . S
C161 O174 1.271 . S
C161 O175 1.251 . S
C162 O176 1.252 . S
C162 O177 1.272 . S
C163 Sm153 2.846 . S
C163 C164 1.506 . S
C163 O178 1.261 . S
C163 O179 1.242 . S
C164 C163 1.506 . S
C164 C165 1.358 . S
C164 C169 1.382 . S
C165 C164 1.358 . S
C165 C166 1.385 . S
C165 H188 0.930 . S
C166 C165 1.385 . S
C166 C167 1.395 . S
C166 H189 0.929 . S
C167 C166 1.395 . S
C167 C168 1.335 . S
C168 C167 1.335 . S
C168 C169 1.398 . S
C168 H190 0.930 . S
C169 C164 1.382 . S
C169 C168 1.398 . S
C169 H191 0.929 . S
C170 O180 1.271 . S
C170 O181 1.251 . S
C171 O182 1.252 . S
C171 O183 1.272 . S
O172 Sm152 2.543 . S
O172 C154 1.261 . S
O173 Sm152 2.450 . S
O173 C154 1.242 . S
O174 Sm152 2.681 . S
O174 Sm153 2.386 . S
O174 C161 1.271 . S
O175 Sm152 2.464 . S
O175 C161 1.251 . S
O176 Sm152 2.396 . S
O176 C162 1.252 . S
O177 Sm153 2.408 . S
O177 C162 1.272 . S
O178 Sm153 2.543 . S
O178 C163 1.261 . S
O179 Sm153 2.450 . S
O179 C163 1.242 . S
O180 Sm152 2.386 . S
O180 Sm153 2.681 . S
O180 C170 1.271 . S
O181 Sm153 2.464 . S
O181 C170 1.251 . S
O182 Sm153 2.396 . S
O182 C171 1.252 . S
O183 Sm152 2.408 . S
O183 C171 1.272 . S
H184 C156 0.930 . S
H185 C157 0.929 . S
H186 C159 0.930 . S
H187 C160 0.929 . S
H188 C165 0.930 . S
H189 C166 0.929 . S
H190 C168 0.930 . S
H191 C169 0.929 . S
Sm192 C194 2.846 . S
Sm192 O212 2.543 . S
Sm192 O213 2.450 . S
Sm192 O214 2.681 1_655 S
Sm192 O215 2.464 . S
Sm192 O216 2.396 . S
Sm192 O220 2.386 . S
Sm192 O223 2.408 1_655 S
Sm193 C203 2.846 . S
Sm193 O214 2.386 . S
Sm193 O217 2.408 1_455 S
Sm193 O218 2.543 . S
Sm193 O219 2.450 . S
Sm193 O220 2.681 1_455 S
Sm193 O221 2.464 . S
Sm193 O222 2.396 . S
C194 Sm192 2.846 . S
C194 C195 1.506 . S
C194 O212 1.261 . S
C194 O213 1.242 . S
C195 C194 1.506 . S
C195 C196 1.358 1_556 S
C195 C200 1.382 . S
C196 C195 1.358 1_554 S
C196 C197 1.385 . S
C196 H224 0.930 . S
C197 C196 1.385 . S
C197 C198 1.395 . S
C197 H225 0.929 . S
C198 C197 1.395 . S
C198 C199 1.335 . S
C199 C198 1.335 . S
C199 C200 1.398 1_554 S
C199 H226 0.930 . S
C200 C195 1.382 . S
C200 C199 1.398 1_556 S
C200 H227 0.929 . S
C201 O214 1.267 1_655 S
C201 O215 1.259 . S
C202 O216 1.252 . S
C202 O217 1.272 . S
C203 Sm193 2.846 . S
C203 C204 1.506 . S
C203 O218 1.261 . S
C203 O219 1.242 . S
C204 C203 1.506 . S
C204 C205 1.358 . S
C204 C209 1.382 . S
C205 C204 1.358 . S
C205 C206 1.385 . S
C205 H228 0.930 . S
C206 C205 1.385 . S
C206 C207 1.395 . S
C206 H229 0.929 . S
C207 C206 1.395 . S
C207 C208 1.335 . S
C208 C207 1.335 . S
C208 C209 1.398 . S
C208 H230 0.930 . S
C209 C204 1.382 . S
C209 C208 1.398 . S
C209 H231 0.929 . S
C210 O220 1.264 1_455 S
C210 O221 1.263 . S
C211 O222 1.252 . S
C211 O223 1.272 . S
O212 Sm192 2.543 . S
O212 C194 1.261 . S
O213 Sm192 2.450 . S
O213 C194 1.242 . S
O214 Sm192 2.681 1_455 S
O214 Sm193 2.386 . S
O214 C201 1.267 1_455 S
O215 Sm192 2.464 . S
O215 C201 1.259 . S
O216 Sm192 2.396 . S
O216 C202 1.252 . S
O217 Sm193 2.408 1_655 S
O217 C202 1.272 . S
O218 Sm193 2.543 . S
O218 C203 1.261 . S
O219 Sm193 2.450 . S
O219 C203 1.242 . S
O220 Sm192 2.386 . S
O220 Sm193 2.681 1_655 S
O220 C210 1.264 1_655 S
O221 Sm193 2.464 . S
O221 C210 1.263 . S
O222 Sm193 2.396 . S
O222 C211 1.252 . S
O223 Sm192 2.408 1_455 S
O223 C211 1.272 . S
H224 C196 0.930 . S
H225 C197 0.929 . S
H226 C199 0.930 . S
H227 C200 0.929 . S
H228 C205 0.930 . S
H229 C206 0.929 . S
H230 C208 0.930 . S
H231 C209 0.929 . S
H232 C238 0.930 . S
H233 C242 0.930 . S
H234 C247 0.929 . S
H235 C245 0.929 . S
H236 C240 0.929 . S
H237 C246 0.929 . S
C238 H232 0.930 . S
C238 C239 1.391 . S
C238 C246 1.378 . S
C239 C238 1.391 . S
C239 C247 1.410 1_545 S
C240 H236 0.929 . S
C240 C242 1.378 . S
C240 C244 1.350 . S
C241 C244 1.463 1_545 S
C241 C246 1.350 . S
C241 N249 1.427 1_545 S
C242 H233 0.930 . S
C242 C240 1.378 . S
C242 C243 1.355 1_565 S
C243 C242 1.355 1_545 S
C243 C245 1.446 . S
C244 C240 1.350 . S
C244 C241 1.463 1_565 S
C244 N248 1.427 1_565 S
C245 H235 0.929 . S
C245 C243 1.446 . S
C245 N248 1.384 . S
C246 H237 0.929 . S
C246 C238 1.378 . S
C246 C241 1.350 . S
C247 H234 0.929 . S
C247 C239 1.410 1_565 S
C247 N249 1.384 . S
N248 C244 1.427 1_545 S
N248 C245 1.384 . S
N249 C241 1.427 1_565 S
N249 C247 1.384 . S
H250 C256 0.930 . S
H251 C260 0.930 . S
H252 C265 0.929 . S
H253 C263 0.929 . S
H254 C258 0.929 . S
H255 C264 0.929 . S
C256 H250 0.930 . S
C256 C257 1.367 . S
C256 C264 1.378 . S
C257 C256 1.367 . S
C257 C265 1.433 . S
C258 H254 0.929 . S
C258 C260 1.378 . S
C258 C262 1.350 . S
C259 C262 1.463 . S
C259 C264 1.350 . S
C259 N267 1.427 . S
C260 H251 0.930 . S
C260 C258 1.378 . S
C260 C261 1.367 . S
C261 C260 1.367 . S
C261 C263 1.433 . S
C262 C258 1.350 . S
C262 C259 1.463 . S
C262 N266 1.427 . S
C263 H253 0.929 . S
C263 C261 1.433 . S
C263 N266 1.384 . S
C264 H255 0.929 . S
C264 C256 1.378 . S
C264 C259 1.350 . S
C265 H252 0.929 . S
C265 C257 1.433 . S
C265 N267 1.384 . S
N266 C262 1.427 . S
N266 C263 1.384 . S
N267 C259 1.427 . S
N267 C265 1.384 . S
H268 C274 0.930 . S
H269 C278 0.930 . S
H270 C283 0.929 . S
H271 C281 0.929 . S
H272 C276 0.929 . S
H273 C282 0.929 . S
C274 H268 0.930 . S
C274 C275 1.367 . S
C274 C282 1.378 . S
C275 C274 1.367 . S
C275 C283 1.433 . S
C276 H272 0.929 . S
C276 C278 1.378 . S
C276 C280 1.350 . S
C277 C280 1.463 . S
C277 C282 1.350 . S
C277 N285 1.427 . S
C278 H269 0.930 . S
C278 C276 1.378 . S
C278 C279 1.367 . S
C279 C278 1.367 . S
C279 C281 1.433 . S
C280 C276 1.350 . S
C280 C277 1.463 . S
C280 N284 1.427 . S
C281 H271 0.929 . S
C281 C279 1.433 . S
C281 N284 1.384 . S
C282 H273 0.929 . S
C282 C274 1.378 . S
C282 C277 1.350 . S
C283 H270 0.929 . S
C283 C275 1.433 . S
C283 N285 1.384 . S
N284 C280 1.427 . S
N284 C281 1.384 . S
N285 C277 1.427 . S
N285 C283 1.384 . S
H286 C292 0.930 . S
H287 C296 0.930 . S
H288 C301 0.929 . S
H289 C299 0.929 . S
H290 C294 0.929 . S
H291 C300 0.929 . S
C292 H286 0.930 . S
C292 C293 1.368 1_655 S
C292 C300 1.378 . S
C293 C292 1.368 1_455 S
C293 C301 1.432 . S
C294 H290 0.929 . S
C294 C296 1.378 . S
C294 C298 1.350 . S
C295 C298 1.464 . S
C295 C300 1.338 1_455 S
C295 N303 1.440 . S
C296 H287 0.930 . S
C296 C294 1.378 . S
C296 C297 1.367 . S
C297 C296 1.367 . S
C297 C299 1.433 1_455 S
C298 C294 1.350 . S
C298 C295 1.464 . S
C298 N302 1.427 1_455 S
C299 H289 0.929 . S
C299 C297 1.433 1_655 S
C299 N302 1.384 . S
C300 H291 0.929 . S
C300 C292 1.378 . S
C300 C295 1.338 1_655 S
C301 H288 0.929 . S
C301 C293 1.432 . S
C301 N303 1.384 . S
N302 C298 1.427 1_655 S
N302 C299 1.384 . S
N303 C295 1.440 . S
N303 C301 1.384 . S
H304 C310 0.930 . S
H305 C314 0.930 . S
H306 C319 0.929 . S
H307 C317 0.929 . S
H308 C312 0.929 . S
H309 C318 0.929 . S
C310 H304 0.930 . S
C310 C311 1.385 . S
C310 C318 1.378 . S
C311 C310 1.385 . S
C311 C319 1.415 1_545 S
C312 H308 0.929 . S
C312 C314 1.378 1_554 S
C312 C316 1.350 . S
C313 C316 1.461 1_545 S
C313 C318 1.367 . S
C313 N321 1.410 1_545 S
C314 H305 0.930 . S
C314 C312 1.378 1_556 S
C314 C315 1.367 . S
C315 C314 1.367 . S
C315 C317 1.433 1_565 S
C316 C312 1.350 . S
C316 C313 1.461 1_565 S
C316 N320 1.427 1_565 S
C317 H307 0.929 . S
C317 C315 1.433 1_545 S
C317 N320 1.384 1_556 S
C318 H309 0.929 . S
C318 C310 1.378 . S
C318 C313 1.367 . S
C319 H306 0.929 . S
C319 C311 1.415 1_565 S
C319 N321 1.384 . S
N320 C316 1.427 1_545 S
N320 C317 1.384 1_554 S
N321 C313 1.410 1_565 S
N321 C319 1.384 . S
H322 C328 0.930 . S
H323 C332 0.930 . S
H324 C337 0.929 . S
H325 C335 0.929 . S
H326 C330 0.929 . S
H327 C336 0.929 . S
C328 H322 0.930 . S
C328 C329 1.367 . S
C328 C336 1.378 . S
C329 C328 1.367 . S
C329 C337 1.433 . S
C330 H326 0.929 . S
C330 C332 1.378 1_554 S
C330 C334 1.350 . S
C331 C334 1.463 . S
C331 C336 1.350 . S
C331 N339 1.427 . S
C332 H323 0.930 . S
C332 C330 1.378 1_556 S
C332 C333 1.367 . S
C333 C332 1.367 . S
C333 C335 1.433 . S
C334 C330 1.350 . S
C334 C331 1.463 . S
C334 N338 1.427 . S
C335 H325 0.929 . S
C335 C333 1.433 . S
C335 N338 1.384 1_556 S
C336 H327 0.929 . S
C336 C328 1.378 . S
C336 C331 1.350 . S
C337 H324 0.929 . S
C337 C329 1.433 . S
C337 N339 1.384 . S
N338 C334 1.427 . S
N338 C335 1.384 1_554 S
N339 C331 1.427 . S
N339 C337 1.384 . S
H340 C346 0.930 . S
H341 C350 0.930 . S
H342 C355 0.929 . S
H343 C353 0.929 . S
H344 C348 0.929 . S
H345 C354 0.929 . S
C346 H340 0.930 . S
C346 C347 1.367 . S
C346 C354 1.378 . S
C347 C346 1.367 . S
C347 C355 1.433 . S
C348 H344 0.929 . S
C348 C350 1.378 1_554 S
C348 C352 1.350 . S
C349 C352 1.463 . S
C349 C354 1.350 . S
C349 N357 1.427 . S
C350 H341 0.930 . S
C350 C348 1.378 1_556 S
C350 C351 1.367 . S
C351 C350 1.367 . S
C351 C353 1.433 1_556 S
C352 C348 1.350 . S
C352 C349 1.463 . S
C352 N356 1.427 . S
C353 H343 0.929 . S
C353 C351 1.433 1_554 S
C353 N356 1.384 . S
C354 H345 0.929 . S
C354 C346 1.378 . S
C354 C349 1.350 . S
C355 H342 0.929 . S
C355 C347 1.433 . S
C355 N357 1.384 . S
N356 C352 1.427 . S
N356 C353 1.384 . S
N357 C349 1.427 . S
N357 C355 1.384 . S
H358 C364 0.930 . S
H359 C368 0.930 . S
H360 C373 0.929 . S
H361 C371 0.929 . S
H362 C366 0.929 . S
H363 C372 0.929 . S
C364 H358 0.930 . S
C364 C365 1.365 1_455 S
C364 C372 1.378 . S
C365 C364 1.365 1_655 S
C365 C373 1.435 . S
C366 H362 0.929 . S
C366 C368 1.378 1_554 S
C366 C370 1.350 . S
C367 C370 1.464 . S
C367 C372 1.342 1_655 S
C367 N375 1.436 . S
C368 H359 0.930 . S
C368 C366 1.378 1_556 S
C368 C369 1.367 . S
C369 C368 1.367 . S
C369 C371 1.433 1_656 S
C370 C366 1.350 . S
C370 C367 1.464 . S
C370 N374 1.427 1_655 S
C371 H361 0.929 . S
C371 C369 1.433 1_454 S
C371 N374 1.384 . S
C372 H363 0.929 . S
C372 C364 1.378 . S
C372 C367 1.342 1_455 S
C373 H360 0.929 . S
C373 C365 1.435 . S
C373 N375 1.384 . S
N374 C370 1.427 1_455 S
N374 C371 1.384 . S
N375 C367 1.436 . S
N375 C373 1.384 . S
H376 C382 0.931 . S
H377 C386 0.930 . S
H378 C391 0.929 1_455 S
H379 C389 0.929 . S
H380 C384 0.929 . S
H381 C390 0.929 . S
C382 H376 0.931 . S
C382 C383 1.367 1_655 S
C382 C390 1.378 . S
C383 C382 1.367 1_455 S
C383 C391 1.433 1_455 S
C384 H380 0.929 . S
C384 C386 1.378 . S
C384 C388 1.350 . S
C385 C388 1.463 . S
C385 C390 1.350 . S
C385 N393 1.427 . S
C386 H377 0.930 . S
C386 C384 1.378 . S
C386 C387 1.367 . S
C387 C386 1.367 . S
C387 C389 1.433 . S
C388 C384 1.350 . S
C388 C385 1.463 . S
C388 N392 1.427 . S
C389 H379 0.929 . S
C389 C387 1.433 . S
C389 N392 1.384 . S
C390 H381 0.929 . S
C390 C382 1.378 . S
C390 C385 1.350 . S
C391 H378 0.929 1_655 S
C391 C383 1.433 1_655 S
C391 N393 1.384 . S
N392 C388 1.427 . S
N392 C389 1.384 . S
N393 C385 1.427 . S
N393 C391 1.384 . S
H394 C400 0.930 . S
H395 C404 0.930 . S
H396 C409 0.929 . S
H397 C407 0.929 . S
H398 C402 0.929 . S
H399 C408 0.929 . S
C400 H394 0.930 . S
C400 C401 1.367 1_565 S
C400 C408 1.378 . S
C401 C400 1.367 1_545 S
C401 C409 1.433 . S
C402 H398 0.929 . S
C402 C404 1.378 . S
C402 C406 1.350 . S
C403 C406 1.463 . S
C403 C408 1.350 . S
C403 N411 1.427 . S
C404 H395 0.930 . S
C404 C402 1.378 . S
C404 C405 1.367 . S
C405 C404 1.367 . S
C405 C407 1.433 . S
C406 C402 1.350 . S
C406 C403 1.463 . S
C406 N410 1.427 . S
C407 H397 0.929 . S
C407 C405 1.433 . S
C407 N410 1.384 . S
C408 H399 0.929 . S
C408 C400 1.378 . S
C408 C403 1.350 . S
C409 H396 0.929 . S
C409 C401 1.433 . S
C409 N411 1.384 1_545 S
N410 C406 1.427 . S
N410 C407 1.384 . S
N411 C403 1.427 . S
N411 C409 1.384 1_565 S
H412 C418 0.930 . S
H413 C422 0.930 . S
H414 C427 0.929 . S
H415 C425 0.929 . S
H416 C420 0.929 . S
H417 C426 0.929 . S
C418 H412 0.930 . S
C418 C419 1.367 . S
C418 C426 1.378 . S
C419 C418 1.367 . S
C419 C427 1.433 . S
C420 H416 0.929 . S
C420 C422 1.378 . S
C420 C424 1.350 . S
C421 C424 1.463 . S
C421 C426 1.350 . S
C421 N429 1.427 . S
C422 H413 0.930 . S
C422 C420 1.378 . S
C422 C423 1.367 . S
C423 C422 1.367 . S
C423 C425 1.433 . S
C424 C420 1.350 . S
C424 C421 1.463 . S
C424 N428 1.427 . S
C425 H415 0.929 . S
C425 C423 1.433 . S
C425 N428 1.384 . S
C426 H417 0.929 . S
C426 C418 1.378 . S
C426 C421 1.350 . S
C427 H414 0.929 . S
C427 C419 1.433 . S
C427 N429 1.384 . S
N428 C424 1.427 . S
N428 C425 1.384 . S
N429 C421 1.427 . S
N429 C427 1.384 . S
H430 C436 0.930 . S
H431 C440 0.930 . S
H432 C445 0.929 . S
H433 C443 0.929 . S
H434 C438 0.929 . S
H435 C444 0.929 . S
C436 H430 0.930 . S
C436 C437 1.367 . S
C436 C444 1.378 . S
C437 C436 1.367 . S
C437 C445 1.433 . S
C438 H434 0.929 . S
C438 C440 1.378 . S
C438 C442 1.350 . S
C439 C442 1.463 . S
C439 C444 1.350 . S
C439 N447 1.427 . S
C440 H431 0.930 . S
C440 C438 1.378 . S
C440 C441 1.367 . S
C441 C440 1.367 . S
C441 C443 1.433 . S
C442 C438 1.350 . S
C442 C439 1.463 . S
C442 N446 1.427 . S
C443 H433 0.929 . S
C443 C441 1.433 . S
C443 N446 1.384 . S
C444 H435 0.929 . S
C444 C436 1.378 . S
C444 C439 1.350 . S
C445 H432 0.929 . S
C445 C437 1.433 . S
C445 N447 1.384 . S
N446 C442 1.427 . S
N446 C443 1.384 . S
N447 C439 1.427 . S
N447 C445 1.384 . S
H448 C454 0.930 . S
H449 C458 0.930 1_556 S
H450 C463 0.929 . S
H451 C461 0.929 . S
H452 C456 0.929 1_655 S
H453 C462 0.929 . S
C454 H448 0.930 . S
C454 C455 1.367 1_455 S
C454 C462 1.378 . S
C455 C454 1.367 1_655 S
C455 C463 1.433 . S
C456 H452 0.929 1_455 S
C456 C458 1.378 . S
C456 C460 1.350 . S
C457 C460 1.463 . S
C457 C462 1.350 . S
C457 N465 1.427 1_455 S
C458 H449 0.930 1_554 S
C458 C456 1.378 . S
C458 C459 1.367 . S
C459 C458 1.367 . S
C459 C461 1.433 . S
C460 C456 1.350 . S
C460 C457 1.463 . S
C460 N464 1.427 . S
C461 H451 0.929 . S
C461 C459 1.433 . S
C461 N464 1.384 . S
C462 H453 0.929 . S
C462 C454 1.378 . S
C462 C457 1.350 . S
C463 H450 0.929 . S
C463 C455 1.433 . S
C463 N465 1.384 . S
N464 C460 1.427 . S
N464 C461 1.384 . S
N465 C457 1.427 1_655 S
N465 C463 1.384 . S
H466 C472 0.930 . S
H467 C476 0.930 . S
H468 C481 0.929 . S
H469 C479 0.929 1_556 S
H470 C474 0.929 . S
H471 C480 0.929 . S
C472 H466 0.930 . S
C472 C473 1.367 . S
C472 C480 1.378 . S
C473 C472 1.367 . S
C473 C481 1.433 1_565 S
C474 H470 0.929 . S
C474 C476 1.378 . S
C474 C478 1.350 . S
C475 C478 1.463 . S
C475 C480 1.350 1_545 S
C475 N483 1.427 . S
C476 H467 0.930 . S
C476 C474 1.378 . S
C476 C477 1.367 . S
C477 C476 1.367 . S
C477 C479 1.433 . S
C478 C474 1.350 . S
C478 C475 1.463 . S
C478 N482 1.427 . S
C479 H469 0.929 1_554 S
C479 C477 1.433 . S
C479 N482 1.384 . S
C480 H471 0.929 . S
C480 C472 1.378 . S
C480 C475 1.350 1_565 S
C481 H468 0.929 . S
C481 C473 1.433 1_545 S
C481 N483 1.384 . S
N482 C478 1.427 . S
N482 C479 1.384 . S
N483 C475 1.427 . S
N483 C481 1.384 . S
H484 C490 0.930 . S
H485 C494 0.930 . S
H486 C499 0.929 . S
H487 C497 0.929 . S
H488 C492 0.929 . S
H489 C498 0.929 . S
C490 H484 0.930 . S
C490 C491 1.367 . S
C490 C498 1.378 . S
C491 C490 1.367 . S
C491 C499 1.433 . S
C492 H488 0.929 . S
C492 C494 1.378 . S
C492 C496 1.350 . S
C493 C496 1.463 . S
C493 C498 1.350 . S
C493 N501 1.427 . S
C494 H485 0.930 . S
C494 C492 1.378 . S
C494 C495 1.367 . S
C495 C494 1.367 . S
C495 C497 1.433 . S
C496 C492 1.350 . S
C496 C493 1.463 . S
C496 N500 1.427 . S
C497 H487 0.929 . S
C497 C495 1.433 . S
C497 N500 1.384 . S
C498 H489 0.929 . S
C498 C490 1.378 . S
C498 C493 1.350 . S
C499 H486 0.929 . S
C499 C491 1.433 . S
C499 N501 1.384 . S
N500 C496 1.427 . S
N500 C497 1.384 . S
N501 C493 1.427 . S
N501 C499 1.384 . S
H502 C508 0.930 . S
H503 C512 0.930 . S
H504 C517 0.929 . S
H505 C515 0.929 1_556 S
H506 C510 0.929 . S
H507 C516 0.929 . S
C508 H502 0.930 . S
C508 C509 1.367 . S
C508 C516 1.378 . S
C509 C508 1.367 . S
C509 C517 1.433 . S
C510 H506 0.929 . S
C510 C512 1.378 . S
C510 C514 1.350 . S
C511 C514 1.463 . S
C511 C516 1.350 . S
C511 N519 1.427 . S
C512 H503 0.930 . S
C512 C510 1.378 . S
C512 C513 1.367 . S
C513 C512 1.367 . S
C513 C515 1.433 . S
C514 C510 1.350 . S
C514 C511 1.463 . S
C514 N518 1.427 . S
C515 H505 0.929 1_554 S
C515 C513 1.433 . S
C515 N518 1.384 . S
C516 H507 0.929 . S
C516 C508 1.378 . S
C516 C511 1.350 . S
C517 H504 0.929 . S
C517 C509 1.433 . S
C517 N519 1.384 . S
N518 C514 1.427 . S
N518 C515 1.384 . S
N519 C511 1.427 . S
N519 C517 1.384 . S
H520 C526 0.930 . S
H521 C530 0.930 . S
H522 C535 0.929 . S
H523 C533 0.929 . S
H524 C528 0.929 . S
H525 C534 0.929 . S
C526 H520 0.930 . S
C526 C527 1.367 . S
C526 C534 1.378 . S
C527 C526 1.367 . S
C527 C535 1.433 1_455 S
C528 H524 0.929 . S
C528 C530 1.378 . S
C528 C532 1.350 1_655 S
C529 C532 1.463 . S
C529 C534 1.350 . S
C529 N537 1.427 1_455 S
C530 H521 0.930 . S
C530 C528 1.378 . S
C530 C531 1.367 1_655 S
C531 C530 1.367 1_455 S
C531 C533 1.433 . S
C532 C528 1.350 1_455 S
C532 C529 1.463 . S
C532 N536 1.427 . S
C533 H523 0.929 . S
C533 C531 1.433 . S
C533 N536 1.384 . S
C534 H525 0.929 . S
C534 C526 1.378 . S
C534 C529 1.350 . S
C535 H522 0.929 . S
C535 C527 1.433 1_655 S
C535 N537 1.384 . S
N536 C532 1.427 . S
N536 C533 1.384 . S
N537 C529 1.427 1_655 S
N537 C535 1.384 . S
H538 C544 0.930 . S
H539 C548 0.930 . S
H540 C553 0.929 1_554 S
H541 C551 0.935 . S
H542 C546 0.929 . S
H543 C552 0.929 . S
C544 H538 0.930 . S
C544 C545 1.367 1_565 S
C544 C552 1.378 . S
C545 C544 1.367 1_545 S
C545 C553 1.433 . S
C546 H542 0.929 . S
C546 C548 1.378 . S
C546 C550 1.350 . S
C547 C550 1.463 . S
C547 C552 1.350 1_545 S
C547 N555 1.427 . S
C548 H539 0.930 . S
C548 C546 1.378 . S
C548 C549 1.367 . S
C549 C548 1.367 . S
C549 C551 1.433 . S
C550 C546 1.350 . S
C550 C547 1.463 . S
C550 N554 1.427 . S
C551 H541 0.935 . S
C551 C549 1.433 . S
C551 N554 1.384 . S
C552 H543 0.929 . S
C552 C544 1.378 . S
C552 C547 1.350 1_565 S
C553 H540 0.929 1_556 S
C553 C545 1.433 . S
C553 N555 1.384 . S
N554 C550 1.427 . S
N554 C551 1.384 . S
N555 C547 1.427 . S
N555 C553 1.384 . S
H556 C562 0.930 . S
H557 C566 0.930 . S
H558 C571 0.929 . S
H559 C569 0.929 . S
H560 C564 0.929 . S
H561 C570 0.929 . S
C562 H556 0.930 . S
C562 C563 1.367 . S
C562 C570 1.378 . S
C563 C562 1.367 . S
C563 C571 1.433 . S
C564 H560 0.929 . S
C564 C566 1.378 . S
C564 C568 1.350 . S
C565 C568 1.463 . S
C565 C570 1.350 . S
C565 N573 1.427 . S
C566 H557 0.930 . S
C566 C564 1.378 . S
C566 C567 1.367 . S
C567 C566 1.367 . S
C567 C569 1.433 . S
C568 C564 1.350 . S
C568 C565 1.463 . S
C568 N572 1.427 . S
C569 H559 0.929 . S
C569 C567 1.433 . S
C569 N572 1.384 . S
C570 H561 0.929 . S
C570 C562 1.378 . S
C570 C565 1.350 . S
C571 H558 0.929 . S
C571 C563 1.433 . S
C571 N573 1.384 . S
N572 C568 1.427 . S
N572 C569 1.384 . S
N573 C565 1.427 . S
N573 C571 1.384 . S
H574 C580 0.930 1_554 S
H575 C584 0.930 . S
H576 C589 0.929 . S
H577 C587 0.929 . S
H578 C582 0.929 . S
H579 C588 0.929 . S
C580 H574 0.930 1_556 S
C580 C581 1.367 . S
C580 C588 1.378 . S
C581 C580 1.367 . S
C581 C589 1.433 . S
C582 H578 0.929 . S
C582 C584 1.378 . S
C582 C586 1.350 . S
C583 C586 1.463 . S
C583 C588 1.350 . S
C583 N591 1.427 . S
C584 H575 0.930 . S
C584 C582 1.378 . S
C584 C585 1.367 . S
C585 C584 1.367 . S
C585 C587 1.433 . S
C586 C582 1.350 . S
C586 C583 1.463 . S
C586 N590 1.427 . S
C587 H577 0.929 . S
C587 C585 1.433 . S
C587 N590 1.384 . S
C588 H579 0.929 . S
C588 C580 1.378 . S
C588 C583 1.350 . S
C589 H576 0.929 . S
C589 C581 1.433 . S
C589 N591 1.384 . S
N590 C586 1.427 . S
N590 C587 1.384 . S
N591 C583 1.427 . S
N591 C589 1.384 . S
H592 C598 0.930 . S
H593 C602 0.930 . S
H594 C607 0.926 1_455 S
H595 C605 0.929 . S
H596 C600 0.929 . S
H597 C606 0.929 . S
C598 H592 0.930 . S
C598 C599 1.367 . S
C598 C606 1.378 . S
C599 C598 1.367 . S
C599 C607 1.433 . S
C600 H596 0.929 . S
C600 C602 1.378 . S
C600 C604 1.350 . S
C601 C604 1.463 . S
C601 C606 1.350 . S
C601 N609 1.427 . S
C602 H593 0.930 . S
C602 C600 1.378 . S
C602 C603 1.367 . S
C603 C602 1.367 . S
C603 C605 1.433 . S
C604 C600 1.350 . S
C604 C601 1.463 . S
C604 N608 1.427 . S
C605 H595 0.929 . S
C605 C603 1.433 . S
C605 N608 1.384 . S
C606 H597 0.929 . S
C606 C598 1.378 . S
C606 C601 1.350 . S
C607 H594 0.926 1_655 S
C607 C599 1.433 . S
C607 N609 1.384 . S
N608 C604 1.427 . S
N608 C605 1.384 . S
N609 C601 1.427 . S
N609 C607 1.384 . S
H610 C616 0.930 . S
H611 C620 0.930 . S
H612 C625 0.929 . S
H613 C623 0.929 . S
H614 C618 0.929 . S
H615 C624 0.931 . S
C616 H610 0.930 . S
C616 C617 1.367 1_545 S
C616 C624 1.379 . S
C617 C616 1.367 1_565 S
C617 C625 1.433 . S
C618 H614 0.929 . S
C618 C620 1.378 . S
C618 C622 1.350 . S
C619 C622 1.463 . S
C619 C624 1.347 1_565 S
C619 N627 1.427 . S
C620 H611 0.930 . S
C620 C618 1.378 . S
C620 C621 1.367 . S
C621 C620 1.367 . S
C621 C623 1.433 . S
C622 C618 1.350 . S
C622 C619 1.463 . S
C622 N626 1.427 . S
C623 H613 0.929 . S
C623 C621 1.433 . S
C623 N626 1.384 . S
C624 H615 0.931 . S
C624 C616 1.379 . S
C624 C619 1.347 1_545 S
C625 H612 0.929 . S
C625 C617 1.433 . S
C625 N627 1.384 . S
N626 C622 1.427 . S
N626 C623 1.384 . S
N627 C619 1.427 . S
N627 C625 1.384 . S
H628 C634 0.930 . S
H629 C638 0.930 . S
H630 C643 0.929 . S
H631 C641 0.929 . S
H632 C636 0.929 . S
H633 C642 0.929 . S
C634 H628 0.930 . S
C634 C635 1.367 . S
C634 C642 1.378 . S
C635 C634 1.367 . S
C635 C643 1.433 . S
C636 H632 0.929 . S
C636 C638 1.378 . S
C636 C640 1.350 . S
C637 C640 1.463 . S
C637 C642 1.350 . S
C637 N645 1.427 . S
C638 H629 0.930 . S
C638 C636 1.378 . S
C638 C639 1.367 . S
C639 C638 1.367 . S
C639 C641 1.433 . S
C640 C636 1.350 . S
C640 C637 1.463 . S
C640 N644 1.427 . S
C641 H631 0.929 . S
C641 C639 1.433 . S
C641 N644 1.384 . S
C642 H633 0.929 . S
C642 C634 1.378 . S
C642 C637 1.350 . S
C643 H630 0.929 . S
C643 C635 1.433 . S
C643 N645 1.384 . S
N644 C640 1.427 . S
N644 C641 1.384 . S
N645 C637 1.427 . S
N645 C643 1.384 . S
H646 C652 0.930 . S
H647 C656 0.930 . S
H648 C661 0.929 . S
H649 C659 0.929 . S
H650 C654 0.929 . S
H651 C660 0.929 . S
C652 H646 0.930 . S
C652 C653 1.367 . S
C652 C660 1.378 . S
C653 C652 1.367 . S
C653 C661 1.433 . S
C654 H650 0.929 . S
C654 C656 1.378 . S
C654 C658 1.350 . S
C655 C658 1.463 . S
C655 C660 1.350 . S
C655 N663 1.427 . S
C656 H647 0.930 . S
C656 C654 1.378 . S
C656 C657 1.367 . S
C657 C656 1.367 . S
C657 C659 1.433 . S
C658 C654 1.350 . S
C658 C655 1.463 . S
C658 N662 1.427 . S
C659 H649 0.929 . S
C659 C657 1.433 . S
C659 N662 1.384 . S
C660 H651 0.929 . S
C660 C652 1.378 . S
C660 C655 1.350 . S
C661 H648 0.929 . S
C661 C653 1.433 . S
C661 N663 1.384 . S
N662 C658 1.427 . S
N662 C659 1.384 . S
N663 C655 1.427 . S
N663 C661 1.384 . S
C239 C61 1.794 1_545 S
C243 C81 1.927 1_545 S
C261 C121 1.950 . S
C257 C70 1.810 . S
C279 C161 1.956 . S
C275 C43 1.823 . S
C297 C201 1.945 1_455 S
C293 C52 1.812 1_455 S
C315 C90 1.934 1_565 S
C311 C25 1.796 1_545 S
C329 C34 1.822 . S
C333 C130 1.955 . S
C347 C7 1.827 . S
C351 C170 1.959 . S
C365 C16 1.813 . S
C369 C210 1.944 1_655 S
C387 C87 0.520 . S
C383 C50 0.495 1_455 S
C405 C127 0.522 . S
C401 C59 0.484 1_545 S
C423 C167 0.535 . S
C419 C67 0.487 . S
C437 C41 0.504 . S
C441 C207 0.541 . S
C455 C14 0.471 . S
C459 C78 0.508 . S
C477 C118 0.540 . S
C473 C23 0.508 . S
C495 C158 0.544 . S
C491 C31 0.505 . S
C509 C5 0.495 . S
C513 C198 0.537 . S
C527 C49 2.042 1_455 S
C531 C91 2.261 . S
C545 C58 2.005 1_545 S
C549 C131 2.223 . S
C567 C171 2.201 . S
C563 C68 1.980 . S
C585 C211 2.248 . S
C581 C40 2.008 . S
C599 C13 2.048 . S
C603 C82 2.274 . S
C621 C122 2.223 . S
C617 C22 2.004 . S
C639 C162 2.208 . S
C635 C32 1.986 . S
C653 C4 2.021 . S
C657 C202 2.257 . S
