# Generated by pormake.
# Topology pyr, (3,6)-cn, num edge types: 1
# Building blocks:
#     Node 0, Type 0, BuildingBlock: BETDIP_clean_linker_0, # of connection points: 3
#     Node 1, Type 0, BuildingBlock: BETDIP_clean_linker_0, # of connection points: 3
#     Node 2, Type 0, BuildingBlock: BETDIP_clean_linker_0, # of connection points: 3
#     Node 3, Type 0, BuildingBlock: BETDIP_clean_linker_0, # of connection points: 3
#     Node 4, Type 0, BuildingBlock: BETDIP_clean_linker_0, # of connection points: 3
#     Node 5, Type 0, BuildingBlock: BETDIP_clean_linker_0, # of connection points: 3
#     Node 6, Type 0, BuildingBlock: BETDIP_clean_linker_0, # of connection points: 3
#     Node 7, Type 0, BuildingBlock: BETDIP_clean_linker_0, # of connection points: 3
#     Node 8, Type 1, BuildingBlock: LEVNOQ01_clean_sbu_1, # of connection points: 6
#     Node 9, Type 1, BuildingBlock: LEVNOQ01_clean_sbu_1, # of connection points: 6
#     Node 10, Type 1, BuildingBlock: LEVNOQ01_clean_sbu_1, # of connection points: 6
#     Node 11, Type 1, BuildingBlock: LEVNOQ01_clean_sbu_1, # of connection points: 6
#     Edge 12, Type (0, 1), BuildingBlock: KIFKEQ_clean_linker_1, # of connection points: 2
#     Edge 13, Type (0, 1), BuildingBlock: KIFKEQ_clean_linker_1, # of connection points: 2
#     Edge 14, Type (0, 1), BuildingBlock: KIFKEQ_clean_linker_1, # of connection points: 2
#     Edge 15, Type (0, 1), BuildingBlock: KIFKEQ_clean_linker_1, # of connection points: 2
#     Edge 16, Type (0, 1), BuildingBlock: KIFKEQ_clean_linker_1, # of connection points: 2
#     Edge 17, Type (0, 1), BuildingBlock: KIFKEQ_clean_linker_1, # of connection points: 2
#     Edge 18, Type (0, 1), BuildingBlock: KIFKEQ_clean_linker_1, # of connection points: 2
#     Edge 19, Type (0, 1), BuildingBlock: KIFKEQ_clean_linker_1, # of connection points: 2
#     Edge 20, Type (0, 1), BuildingBlock: KIFKEQ_clean_linker_1, # of connection points: 2
#     Edge 21, Type (0, 1), BuildingBlock: KIFKEQ_clean_linker_1, # of connection points: 2
#     Edge 22, Type (0, 1), BuildingBlock: KIFKEQ_clean_linker_1, # of connection points: 2
#     Edge 23, Type (0, 1), BuildingBlock: KIFKEQ_clean_linker_1, # of connection points: 2
#     Edge 24, Type (0, 1), BuildingBlock: KIFKEQ_clean_linker_1, # of connection points: 2
#     Edge 25, Type (0, 1), BuildingBlock: KIFKEQ_clean_linker_1, # of connection points: 2
#     Edge 26, Type (0, 1), BuildingBlock: KIFKEQ_clean_linker_1, # of connection points: 2
#     Edge 27, Type (0, 1), BuildingBlock: KIFKEQ_clean_linker_1, # of connection points: 2
#     Edge 28, Type (0, 1), BuildingBlock: KIFKEQ_clean_linker_1, # of connection points: 2
#     Edge 29, Type (0, 1), BuildingBlock: KIFKEQ_clean_linker_1, # of connection points: 2
#     Edge 30, Type (0, 1), BuildingBlock: KIFKEQ_clean_linker_1, # of connection points: 2
#     Edge 31, Type (0, 1), BuildingBlock: KIFKEQ_clean_linker_1, # of connection points: 2
#     Edge 32, Type (0, 1), BuildingBlock: KIFKEQ_clean_linker_1, # of connection points: 2
#     Edge 33, Type (0, 1), BuildingBlock: KIFKEQ_clean_linker_1, # of connection points: 2
#     Edge 34, Type (0, 1), BuildingBlock: KIFKEQ_clean_linker_1, # of connection points: 2
#     Edge 35, Type (0, 1), BuildingBlock: KIFKEQ_clean_linker_1, # of connection points: 2
# Relax obj value: 0.082
# Max RMSD: 0.172
# Mean RMSD: 0.136
data_MOF--net-pry--node1-LEVNOQ01_clean_sbu_1--node2-BETDIP_clean_linker_0--edge1-KIFKEQ_clean_linker_1
_symmetry_space_group_name_H-M    P1
_symmetry_Int_Tables_number       1
_symmetry_cell_setting            triclinic
loop_
_symmetry_equiv_pos_as_xyz
'x, y, z'
_cell_length_a     37.323573
_cell_length_b     35.473492
_cell_length_c     37.386396
_cell_angle_alpha  95.789711
_cell_angle_beta   86.706544
_cell_angle_gamma 101.03863
loop_
_atom_site_label
_atom_site_type_symbol
_atom_site_fract_x
_atom_site_fract_y
_atom_site_fract_z
_atom_type_partial_charge
H0 H 0.1017 0.15588 0.18779 0.0
H1 H 0.18181 0.15547 0.10009 0.0
H2 H 0.18767 0.09135 0.19093 0.0
H3 H 0.14124 0.18223 0.07062 0.0
C4 C 0.12702 0.19801 0.09142 0.0
C5 C 0.12568 0.14613 0.17534 0.0
C6 C 0.1429 0.12196 0.1933 0.0
C7 C 0.13935 0.15867 0.14186 0.0
C8 C 0.17054 0.14574 0.1256 0.0
C9 C 0.18838 0.12149 0.14326 0.0
C10 C 0.17444 0.11019 0.17726 0.0
N11 N 0.1221 0.18595 0.12698 0.0
H12 H 0.36603 0.9381 0.67262 0.0
H13 H 0.36264 0.84342 0.59102 0.0
H14 H 0.43508 0.85429 0.67782 0.0
H15 H 0.31904 0.86395 0.56849 0.0
C16 C 0.31154 0.88855 0.58465 0.0
C17 C 0.37579 0.91224 0.66185 0.0
C18 C 0.4025 0.89887 0.67981 0.0
C19 C 0.36081 0.89246 0.63014 0.0
C20 C 0.37386 0.8594 0.61521 0.0
C21 C 0.40098 0.84574 0.63201 0.0
C22 C 0.4149 0.86544 0.66442 0.0
N23 N 0.33185 0.90608 0.61514 0.0
H24 H 0.66603 0.46996 0.8917 0.0
H25 H 0.58514 0.36757 0.87146 0.0
H26 H 0.67118 0.36838 0.94316 0.0
H27 H 0.61879 0.38333 0.81322 0.0
C28 C 0.61084 0.41143 0.81497 0.0
C29 C 0.6542 0.44079 0.89761 0.0
C30 C 0.67043 0.42237 0.92208 0.0
C31 C 0.62428 0.4204 0.87858 0.0
C32 C 0.60896 0.38254 0.88573 0.0
C33 C 0.62581 0.3632 0.90874 0.0
C34 C 0.65656 0.38346 0.92681 0.0
N35 N 0.61397 0.43522 0.8479 0.0
H36 H 0.83749 0.54934 0.39812 0.0
H37 H 0.93716 0.63352 0.39238 0.0
H38 H 0.85479 0.64926 0.47432 0.0
H39 H 0.95365 0.59442 0.34693 0.0
C40 C 0.92777 0.58017 0.33581 0.0
C41 C 0.85522 0.57526 0.4092 0.0
C42 C 0.84296 0.59753 0.43866 0.0
C43 C 0.88899 0.58796 0.392 0.0
C44 C 0.9112 0.6227 0.4055 0.0
C45 C 0.89941 0.64445 0.43583 0.0
C46 C 0.86509 0.63172 0.45208 0.0
N47 N 0.89742 0.56757 0.35896 0.0
H48 H 0.83195 0.88397 0.93915 0.0
H49 H 0.90557 0.87149 0.84765 0.0
H50 H 0.82901 0.94733 0.84695 0.0
H51 H 0.93627 0.84597 0.88412 0.0
C52 C 0.91811 0.83381 0.90544 0.0
C53 C 0.84208 0.89158 0.91259 0.0
C54 C 0.82624 0.91766 0.89523 0.0
C55 C 0.87111 0.87511 0.8963 0.0
C56 C 0.88416 0.88458 0.86149 0.0
C57 C 0.86945 0.91107 0.84387 0.0
C58 C 0.84085 0.92774 0.86105 0.0
N59 N 0.88533 0.84824 0.91519 0.0
H60 H 0.65027 0.09396 0.35857 0.0
H61 H 0.65037 0.17994 0.4486 0.0
H62 H 0.57807 0.176 0.36275 0.0
H63 H 0.71132 0.17487 0.44495 0.0
C64 C 0.71017 0.14391 0.44092 0.0
C65 C 0.639 0.11764 0.37245 0.0
C66 C 0.61236 0.13272 0.35613 0.0
C67 C 0.65344 0.13482 0.4054 0.0
C68 C 0.63981 0.16649 0.42308 0.0
C69 C 0.61244 0.1811 0.4078 0.0
C70 C 0.59876 0.16405 0.37461 0.0
N71 N 0.68253 0.12059 0.41938 0.0
H72 H 0.32869 0.59663 0.16251 0.0
H73 H 0.41315 0.69512 0.18884 0.0
H74 H 0.34533 0.69447 0.10026 0.0
H75 H 0.43936 0.64884 0.20947 0.0
C76 C 0.41547 0.63396 0.22378 0.0
C77 C 0.34427 0.62449 0.15648 0.0
C78 C 0.33466 0.64299 0.12818 0.0
C79 C 0.37332 0.6425 0.17776 0.0
C80 C 0.392 0.67966 0.17135 0.0
C81 C 0.38205 0.69804 0.14331 0.0
C82 C 0.35374 0.67958 0.12138 0.0
N83 N 0.38151 0.62399 0.20709 0.0
H84 H 0.05123 0.36472 0.63356 0.0
H85 H 0.14432 0.45603 0.64948 0.0
H86 H 0.14703 0.36716 0.56331 0.0
H87 H 0.09513 0.48873 0.68003 0.0
C88 C 0.08949 0.46312 0.69462 0.0
C89 C 0.07809 0.37902 0.62462 0.0
C90 C 0.09666 0.36232 0.5953 0.0
C91 C 0.09488 0.41303 0.64395 0.0
C92 C 0.13062 0.43043 0.63396 0.0
C93 C 0.14968 0.41378 0.60513 0.0
C94 C 0.13221 0.38034 0.58538 0.0
N95 N 0.07713 0.4266 0.67584 0.0
O96 O 0.00603 0.01985 0.6155 0.0
Mg97 Mg 0.04871 0.04954 0.58428 0.0
O98 O 0.97732 0.98206 0.57044 0.0
Mg99 Mg 0.00402 0.00455 0.5136 0.0
O100 O 0.02631 0.06309 0.54072 0.0
O101 O 0.05379 0.10814 0.58061 0.0
O102 O 0.0297 0.0259 0.45567 0.0
O103 O 0.95082 0.03098 0.50829 0.0
Mg104 Mg 0.95376 0.96303 0.44545 0.0
O105 O 0.98131 0.94596 0.48478 0.0
O106 O 0.99853 0.98669 0.41271 0.0
O107 O 0.91837 0.00096 0.46247 0.0
O108 O 0.93332 0.90831 0.46122 0.0
C109 C 0.08826 0.99267 0.53959 0.0
C110 C 0.98098 0.99247 0.60433 0.0
C111 C 0.03608 0.09905 0.55143 0.0
C112 C 0.02487 0.01375 0.42215 0.0
C113 C 0.92304 0.02644 0.48872 0.0
C114 C 0.95763 0.91438 0.48522 0.0
O115 O 0.08994 0.02016 0.56427 0.0
O116 O 0.05974 0.98133 0.52067 0.0
O117 O 0.44603 0.09552 0.0476 0.0
Mg118 Mg 0.50282 0.10557 0.04485 0.0
O119 O 0.44647 0.03351 0.03358 0.0
Mg120 Mg 0.50854 0.02544 0.01549 0.0
O121 O 0.52704 0.08723 0.99782 0.0
O122 O 0.52608 0.1494 0.01646 0.0
O123 O 0.57131 0.01647 0.99834 0.0
O124 O 0.48891 0.0129 0.9546 0.0
Mg125 Mg 0.51466 0.94773 0.98471 0.0
O126 O 0.48745 0.9633 0.03122 0.0
O127 O 0.57012 0.95361 0.99045 0.0
O128 O 0.4972 0.95448 0.93432 0.0
O129 O 0.48548 0.90211 0.00705 0.0
C130 C 0.53358 0.06946 0.10005 0.0
C131 C 0.42911 0.06111 0.04339 0.0
C132 C 0.53515 0.1236 0.99262 0.0
C133 C 0.58803 0.98764 0.99282 0.0
C134 C 0.48771 0.98566 0.9292 0.0
C135 C 0.4776 0.92636 0.03301 0.0
O136 O 0.52821 0.10145 0.0916 0.0
O137 O 0.52784 0.03936 0.07739 0.0
O138 O 0.51785 0.60187 0.56193 0.0
Mg139 Mg 0.49432 0.54545 0.57581 0.0
O140 O 0.4757 0.57138 0.52689 0.0
Mg141 Mg 0.49653 0.51037 0.51859 0.0
O142 O 0.52081 0.50071 0.57319 0.0
O143 O 0.51346 0.54022 0.62322 0.0
O144 O 0.5125 0.44445 0.50547 0.0
O145 O 0.55551 0.54544 0.5091 0.0
Mg146 Mg 0.51361 0.48851 0.464 0.0
O147 O 0.47396 0.52054 0.4639 0.0
O148 O 0.49476 0.43099 0.44991 0.0
O149 O 0.5682 0.49464 0.47845 0.0
O150 O 0.51805 0.51812 0.42081 0.0
C151 C 0.4204 0.49768 0.55961 0.0
C152 C 0.49249 0.60324 0.54167 0.0
C153 C 0.52579 0.51127 0.60701 0.0
C154 C 0.50715 0.42037 0.47718 0.0
C155 C 0.57912 0.52594 0.49654 0.0
C156 C 0.4877 0.52799 0.43229 0.0
O157 O 0.43641 0.52722 0.57848 0.0
O158 O 0.4383 0.48107 0.53472 0.0
O159 O 0.02237 0.44984 0.08332 0.0
Mg160 Mg 0.03225 0.50942 0.09238 0.0
O161 O 0.02267 0.45342 0.02453 0.0
Mg162 Mg 0.00774 0.51606 0.01518 0.0
O163 O 0.99159 0.53101 0.07376 0.0
O164 O 0.00243 0.53345 0.13223 0.0
O165 O 0.99525 0.5779 0.00496 0.0
O166 O 0.94561 0.49028 0.01065 0.0
Mg167 Mg 0.97571 0.51209 0.93932 0.0
O168 O 0.02371 0.50311 0.95656 0.0
O169 O 0.96976 0.57037 0.95174 0.0
O170 O 0.93336 0.46847 0.95458 0.0
O171 O 0.0108 0.49828 0.89858 0.0
C172 C 0.09205 0.54859 0.04455 0.0
C173 C 0.02553 0.43448 0.05158 0.0
C174 C 0.98247 0.53948 0.10707 0.0
C175 C 0.9804 0.59134 0.98007 0.0
C176 C 0.92351 0.47183 0.98743 0.0
C177 C 0.03289 0.49571 0.92316 0.0
O178 O 0.08381 0.53801 0.07577 0.0
O179 O 0.06875 0.54372 0.02018 0.0
H180 H 0.17471 0.13539 0.25892 0.0
H181 H 0.07619 0.07812 0.20711 0.0
H182 H 0.1493 0.1118 0.31653 0.0
H183 H 0.05102 0.05401 0.26413 0.0
H184 H 0.03647 0.97859 0.35598 0.0
H185 H 0.06587 0.00652 0.30285 0.0
H186 H 0.09696 0.11609 0.36495 0.0
H187 H 0.06677 0.08778 0.41916 0.0
C188 C 0.14763 0.11775 0.25993 0.0
C189 C 0.12746 0.10845 0.22854 0.0
C190 C 0.13298 0.10445 0.29293 0.0
C191 C 0.09817 0.08079 0.29506 0.0
C192 C 0.07803 0.07186 0.26354 0.0
C193 C 0.09234 0.08575 0.23084 0.0
C194 C 0.04972 0.00865 0.3587 0.0
C195 C 0.04878 0.03094 0.39206 0.0
C196 C 0.06647 0.02474 0.32796 0.0
C197 C 0.08318 0.06378 0.32926 0.0
C198 C 0.08422 0.08589 0.36296 0.0
C199 C 0.06708 0.06966 0.39407 0.0
H200 H 0.47126 0.90742 0.7072 0.0
H201 H 0.36475 0.93588 0.73358 0.0
H202 H 0.49135 0.93536 0.76629 0.0
H203 H 0.38587 0.9671 0.79103 0.0
H204 H 0.41788 0.97037 0.90836 0.0
H205 H 0.39794 0.95371 0.84703 0.0
H206 H 0.50933 0.9881 0.80691 0.0
H207 H 0.52903 0.00258 0.86881 0.0
C208 C 0.4521 0.91985 0.72536 0.0
C209 C 0.41612 0.91884 0.71522 0.0
C210 C 0.46393 0.93671 0.75927 0.0
C211 C 0.44035 0.9537 0.78403 0.0
C212 C 0.40482 0.95381 0.77334 0.0
C213 C 0.3928 0.93635 0.73977 0.0
C214 C 0.43776 0.97569 0.88629 0.0
C215 C 0.47478 0.98858 0.89323 0.0
C216 C 0.42645 0.96597 0.8509 0.0
C217 C 0.45194 0.96903 0.82144 0.0
C218 C 0.48883 0.9844 0.82859 0.0
C219 C 0.50014 0.99359 0.86408 0.0
H220 H 0.62594 0.38279 0.7478 0.0
H221 H 0.57655 0.4716 0.80788 0.0
H222 H 0.60976 0.40376 0.69132 0.0
H223 H 0.55978 0.49187 0.75137 0.0
H224 H 0.48855 0.4635 0.65179 0.0
H225 H 0.5137 0.43754 0.70085 0.0
H226 H 0.62306 0.48219 0.66139 0.0
H227 H 0.59759 0.50864 0.612 0.0
C228 C 0.6119 0.40695 0.74875 0.0
C229 C 0.60239 0.42569 0.78178 0.0
C230 C 0.60297 0.41894 0.71667 0.0
C231 C 0.58383 0.44922 0.71759 0.0
C232 C 0.57481 0.46848 0.75054 0.0
C233 C 0.58429 0.45693 0.78261 0.0
C234 C 0.51792 0.46656 0.65305 0.0
C235 C 0.5414 0.48764 0.62871 0.0
C236 C 0.53218 0.45208 0.681 0.0
C237 C 0.57 0.45861 0.68465 0.0
C238 C 0.59374 0.4771 0.65865 0.0
C239 C 0.57935 0.49186 0.63058 0.0
H240 H 0.8688 0.54385 0.29666 0.0
H241 H 0.97475 0.61754 0.28811 0.0
H242 H 0.86175 0.5441 0.23217 0.0
H243 H 0.96846 0.61713 0.22393 0.0
H244 H 0.97226 0.61339 0.11745 0.0
H245 H 0.94073 0.63279 0.1731 0.0
H246 H 0.889 0.51388 0.18138 0.0
H247 H 0.9186 0.49559 0.12489 0.0
C248 C 0.89044 0.56037 0.281 0.0
C249 C 0.92261 0.58033 0.2971 0.0
C250 C 0.8863 0.56068 0.24411 0.0
C251 C 0.91427 0.58092 0.22273 0.0
C252 C 0.9458 0.602 0.23944 0.0
C253 C 0.94989 0.60164 0.27617 0.0
C254 C 0.95173 0.5921 0.12968 0.0
C255 C 0.94869 0.55292 0.11802 0.0
C256 C 0.93422 0.603 0.16199 0.0
C257 C 0.91447 0.57448 0.18286 0.0
C258 C 0.90475 0.53662 0.16661 0.0
C259 C 0.92154 0.52603 0.13386 0.0
H260 H 0.25328 0.12493 0.17482 0.0
H261 H 0.19957 0.08815 0.07483 0.0
H262 H 0.30805 0.10315 0.14924 0.0
H263 H 0.25388 0.06452 0.04932 0.0
H264 H 0.37354 0.07125 0.00373 0.0
H265 H 0.31366 0.0825 0.02693 0.0
H266 H 0.33676 0.05156 0.131 0.0
H267 H 0.397 0.04152 0.10756 0.0
C268 C 0.25307 0.11171 0.1474 0.0
C269 C 0.22202 0.10836 0.1269 0.0
C270 C 0.28449 0.09878 0.13269 0.0
C271 C 0.28577 0.08146 0.09708 0.0
C272 C 0.25447 0.07803 0.07661 0.0
C273 C 0.22317 0.09155 0.09123 0.0
C274 C 0.36511 0.0654 0.03115 0.0
C275 C 0.38958 0.05451 0.05352 0.0
C276 C 0.33075 0.07212 0.04469 0.0
C277 C 0.32009 0.06867 0.08123 0.0
C278 C 0.34395 0.05544 0.10298 0.0
C279 C 0.37828 0.04872 0.08936 0.0
H280 H 0.28247 0.94958 0.61712 0.0
H281 H 0.26648 0.85923 0.52993 0.0
H282 H 0.22853 0.97202 0.60041 0.0
H283 H 0.21231 0.88198 0.51292 0.0
H284 H 0.0931 0.91536 0.52814 0.0
H285 H 0.1479 0.88836 0.53642 0.0
H286 H 0.21186 0.00359 0.54956 0.0
H287 H 0.1579 0.03009 0.54143 0.0
C288 C 0.26752 0.93456 0.59429 0.0
C289 C 0.27883 0.90272 0.57471 0.0
C290 C 0.23663 0.94751 0.58459 0.0
C291 C 0.21622 0.92894 0.55511 0.0
C292 C 0.22728 0.89676 0.53583 0.0
C293 C 0.25837 0.88391 0.54545 0.0
C294 C 0.11916 0.93466 0.5316 0.0
C295 C 0.12119 0.97479 0.53433 0.0
C296 C 0.15046 0.91931 0.53664 0.0
C297 C 0.18403 0.94394 0.54457 0.0
C298 C 0.18631 0.98385 0.54447 0.0
C299 C 0.1554 -0.00099 0.53941 0.0
H300 H 0.68622 0.42095 0.99184 0.0
H301 H 0.7316 0.46505 0.89202 0.0
H302 H 0.74657 0.43813 0.01755 0.0
H303 H 0.79167 0.4835 0.91841 0.0
H304 H 0.88946 0.53118 0.98867 0.0
H305 H 0.82466 0.52717 0.97832 0.0
H306 H 0.80537 0.40477 0.98871 0.0
H307 H 0.87079 0.40856 0.99734 0.0
C308 C 0.70892 0.43524 0.97578 0.0
C309 C 0.7044 0.44131 0.93987 0.0
C310 C 0.74325 0.44503 0.99051 0.0
C311 C 0.77338 0.46182 0.96981 0.0
C312 C 0.76851 0.47081 0.93488 0.0
C313 C 0.7342 0.46045 0.91989 0.0
C314 C 0.87097 0.50375 0.99029 0.0
C315 C 0.88451 0.47021 0.99444 0.0
C316 C 0.83418 0.50147 0.984 0.0
C317 C 0.81042 0.46575 0.98281 0.0
C318 C 0.8234 0.43267 0.98992 0.0
C319 C 0.86052 0.43478 0.99513 0.0
H320 H 0.78832 0.63506 0.4304 0.0
H321 H 0.81401 0.5388 0.47895 0.0
H322 H 0.72555 0.62014 0.45394 0.0
H323 H 0.75178 0.52492 0.50488 0.0
H324 H 0.62892 0.48024 0.4937 0.0
H325 H 0.69416 0.499 0.48601 0.0
H326 H 0.68443 0.61923 0.50376 0.0
H327 H 0.61786 0.59984 0.5094 0.0
C328 C 0.78034 0.61096 0.44664 0.0
C329 C 0.80538 0.58785 0.45298 0.0
C330 C 0.74464 0.60272 0.46063 0.0
C331 C 0.73357 0.57159 0.48175 0.0
C332 C 0.75918 0.54887 0.48845 0.0
C333 C 0.79473 0.55669 0.47376 0.0
C334 C 0.64074 0.51074 0.49634 0.0
C335 C 0.61847 0.5387 0.50088 0.0
C336 C 0.67835 0.52155 0.49241 0.0
C337 C 0.69465 0.5607 0.49344 0.0
C338 C 0.67256 0.58878 0.50171 0.0
C339 C 0.63457 0.57783 0.50535 0.0
H340 H 0.11985 0.22002 0.02427 0.0
H341 H 0.0973 0.25058 0.13685 0.0
H342 H 0.09491 0.27551 0.00874 0.0
H343 H 0.07283 0.30549 0.12149 0.0
H344 H 0.08077 0.42483 0.08973 0.0
H345 H 0.10403 0.36683 0.09573 0.0
H346 H 0.03334 0.30541 0.01317 0.0
H347 H 0.0092 0.36486 0.00719 0.0
C348 C 0.10938 0.2384 0.04565 0.0
C349 C 0.11067 0.23084 0.08182 0.0
C350 C 0.0949 0.26999 0.03671 0.0
C351 C 0.08195 0.29505 0.06384 0.0
C352 C 0.08279 0.28698 0.09989 0.0
C353 C 0.09678 0.25534 0.10874 0.0
C354 C 0.07011 0.39912 0.07253 0.0
C355 C 0.04249 0.3994 0.04848 0.0
C356 C 0.08349 0.36574 0.07612 0.0
C357 C 0.06995 0.33114 0.05569 0.0
C358 C 0.0441 0.33162 0.02958 0.0
C359 C 0.03034 0.36558 0.02603 0.0
H360 H 0.5977 0.3068 0.85602 0.0
H361 H 0.62606 0.32419 0.96798 0.0
H362 H 0.57986 0.23747 0.86121 0.0
H363 H 0.61071 0.25526 0.97199 0.0
H364 H 0.60721 0.13833 0.97529 0.0
H365 H 0.63438 0.19293 0.94159 0.0
H366 H 0.52817 0.19784 0.90443 0.0
H367 H 0.50124 0.14306 0.93784 0.0
C368 C 0.60019 0.29605 0.88168 0.0
C369 C 0.6136 0.32124 0.91161 0.0
C370 C 0.59057 0.25633 0.88431 0.0
C371 C 0.59523 0.24115 0.91653 0.0
C372 C 0.60822 0.26622 0.9464 0.0
C373 C 0.61692 0.30577 0.9441 0.0
C374 C 0.59024 0.14927 0.95776 0.0
C375 C 0.55232 0.13696 0.95909 0.0
C376 C 0.60565 0.18071 0.93881 0.0
C377 C 0.58308 0.19993 0.92133 0.0
C378 C 0.54607 0.18343 0.91771 0.0
C379 C 0.53071 0.15196 0.93666 0.0
H380 H 0.91438 0.67137 0.50521 0.0
H381 H 0.9315 0.70315 0.39617 0.0
H382 H 0.94077 0.73741 0.52783 0.0
H383 H 0.95812 0.76892 0.41872 0.0
H384 H 0.01458 0.88128 0.46189 0.0
H385 H 0.01022 0.81139 0.45425 0.0
H386 H 0.91379 0.79791 0.52479 0.0
H387 H 0.91774 0.86767 0.5315 0.0
C388 C 0.92449 0.69233 0.48611 0.0
C389 C 0.92092 0.68227 0.44899 0.0
C390 C 0.93963 0.72996 0.49905 0.0
C391 C 0.9517 0.75812 0.47506 0.0
C392 C 0.94981 0.74756 0.43781 0.0
C393 C 0.93454 0.70995 0.42488 0.0
C394 C 0.99393 0.86348 0.47762 0.0
C395 C 0.96661 0.87963 0.49749 0.0
C396 C 0.99105 0.82348 0.47271 0.0
C397 C 0.96134 0.79933 0.48843 0.0
C398 C 0.93704 0.81586 0.51244 0.0
C399 C 0.9395 0.85582 0.51668 0.0
H400 H 0.41798 0.82541 0.56118 0.0
H401 H 0.41202 0.78481 0.66684 0.0
H402 H 0.43648 0.76568 0.53498 0.0
H403 H 0.43109 0.72554 0.64072 0.0
H404 H 0.43025 0.60839 0.58022 0.0
H405 H 0.40617 0.66683 0.60005 0.0
H406 H 0.49118 0.7331 0.53643 0.0
H407 H 0.51569 0.67437 0.51727 0.0
C408 C 0.4206 0.80374 0.57882 0.0
C409 C 0.41358 0.80995 0.61616 0.0
C410 C 0.43139 0.76965 0.5638 0.0
C411 C 0.43508 0.74081 0.58573 0.0
C412 C 0.42806 0.747 0.62303 0.0
C413 C 0.41758 0.78119 0.63807 0.0
C414 C 0.44321 0.63534 0.56986 0.0
C415 C 0.47461 0.63706 0.54708 0.0
C416 C 0.4297 0.66883 0.58148 0.0
C417 C 0.44703 0.70468 0.57015 0.0
C418 C 0.47723 0.70592 0.54561 0.0
C419 C 0.49124 0.67243 0.53458 0.0
H420 H 0.90313 0.98119 0.82325 0.0
H421 H 0.86804 0.86291 0.78174 0.0
H422 H 0.92675 0.99756 0.76344 0.0
H423 H 0.88984 0.87931 0.72112 0.0
H424 H 0.96872 0.91798 0.62389 0.0
H425 H 0.94074 0.89666 0.68127 0.0
H426 H 0.90955 0.00777 0.70717 0.0
H427 H 0.93862 0.02895 0.65094 0.0
C428 C 0.90008 0.95879 0.80108 0.0
C429 C 0.88358 0.92086 0.80711 0.0
C430 C 0.91336 0.96814 0.76657 0.0
C431 C 0.90986 0.93997 0.73679 0.0
C432 C 0.89346 0.90185 0.7431 0.0
C433 C 0.88074 0.89241 0.77783 0.0
C434 C 0.95479 0.93723 0.64143 0.0
C435 C 0.95535 0.97493 0.63262 0.0
C436 C 0.93894 0.9252 0.67457 0.0
C437 C 0.92334 0.95066 0.69965 0.0
C438 C 0.92209 0.98752 0.68943 0.0
C439 C 0.93813 -0.00048 0.65671 0.0
H440 H 0.60224 0.1757 0.3024 0.0
H441 H 0.598 0.05759 0.32414 0.0
H442 H 0.5828 0.15405 0.24179 0.0
H443 H 0.57868 0.03577 0.26241 0.0
H444 H 0.58108 0.03022 0.13035 0.0
H445 H 0.60049 0.04102 0.19341 0.0
H446 H 0.52367 0.11755 0.21829 0.0
H447 H 0.5048 0.10714 0.15675 0.0
C448 C 0.59679 0.14499 0.29443 0.0
C449 C 0.60103 0.11843 0.31862 0.0
C450 C 0.58583 0.13256 0.25946 0.0
C451 C 0.57878 0.09311 0.24729 0.0
C452 C 0.58404 0.06635 0.27092 0.0
C453 C 0.595 0.07889 0.30627 0.0
C454 C 0.56796 0.04864 0.14962 0.0
C455 C 0.54188 0.06835 0.13838 0.0
C456 C 0.57908 0.05491 0.18563 0.0
C457 C 0.56422 0.08094 0.21064 0.0
C458 C 0.53638 0.09817 0.19964 0.0
C459 C 0.52548 0.09203 0.16424 0.0
H460 H 0.47836 0.63833 0.25642 0.0
H461 H 0.36132 0.60301 0.27091 0.0
H462 H 0.48664 0.61326 0.31318 0.0
H463 H 0.36994 0.57764 0.32784 0.0
H464 H 0.44278 0.58142 0.44427 0.0
H465 H 0.41592 0.60962 0.39671 0.0
H466 H 0.45723 0.53062 0.31654 0.0
H467 H 0.48407 0.50328 0.36292 0.0
C468 C 0.45449 0.62582 0.27209 0.0
C469 C 0.41941 0.62192 0.2593 0.0
C470 C 0.45917 0.61186 0.30446 0.0
C471 C 0.42878 0.59402 0.32438 0.0
C472 C 0.39348 0.59181 0.31275 0.0
C473 C 0.38876 0.6058 0.28016 0.0
C474 C 0.4453 0.56986 0.41648 0.0
C475 C 0.46638 0.54138 0.40665 0.0
C476 C 0.42988 0.58564 0.38963 0.0
C477 C 0.43533 0.57231 0.35349 0.0
C478 C 0.4532 0.5413 0.34441 0.0
C479 C 0.46881 0.52609 0.3708 0.0
H480 H 0.10313 0.40627 0.73337 0.0
H481 H 0.09662 0.52695 0.74135 0.0
H482 H 0.11426 0.41111 0.79733 0.0
H483 H 0.10508 0.53162 0.80554 0.0
H484 H 0.09842 0.54272 0.91383 0.0
H485 H 0.13416 0.53166 0.8585 0.0
H486 H 0.07681 0.41311 0.84746 0.0
H487 H 0.04374 0.42406 0.90349 0.0
C488 C 0.10399 0.43386 0.74895 0.0
C489 C 0.09807 0.46611 0.73285 0.0
C490 C 0.11055 0.43671 0.78561 0.0
C491 C 0.11025 0.4716 0.8071 0.0
C492 C 0.10629 0.50432 0.79019 0.0
C493 C 0.10068 0.50163 0.7534 0.0
C494 C 0.0958 0.51363 0.9009 0.0
C495 C 0.06754 0.4845 0.91167 0.0
C496 C 0.11558 0.50742 0.86869 0.0
C497 C 0.10634 0.47236 0.84703 0.0
C498 C 0.08417 0.44094 0.86254 0.0
C499 C 0.06519 0.44702 0.89512 0.0
H500 H 0.76822 0.87954 0.9342 0.0
H501 H 0.80934 0.99036 0.89431 0.0
H502 H 0.71486 0.90299 0.96067 0.0
H503 H 0.75555 0.01403 0.92103 0.0
H504 H 0.63105 0.02325 0.93933 0.0
H505 H 0.69066 0.00938 0.91683 0.0
H506 H 0.69384 0.94368 0.00744 0.0
H507 H 0.6341 0.95653 0.02878 0.0
C508 C 0.7663 0.90919 0.93151 0.0
C509 C 0.79362 0.93296 0.91217 0.0
C510 C 0.73545 0.92279 0.94684 0.0
C511 C 0.7307 0.96076 0.94354 0.0
C512 C 0.7579 0.98458 0.92405 0.0
C513 C 0.78888 0.97092 0.90865 0.0
C514 C 0.6453 0.00723 0.95513 0.0
C515 C 0.62815 0.9916 0.9862 0.0
C516 C 0.67939 -0.00114 0.94206 0.0
C517 C 0.69708 0.97464 0.9598 0.0
C518 C 0.6809 0.96154 0.99236 0.0
C519 C 0.64689 0.96959 0.00512 0.0
H520 H 0.7748 0.18482 0.46398 0.0
H521 H 0.71565 0.0681 0.44498 0.0
H522 H 0.82729 0.16077 0.48263 0.0
H523 H 0.76817 0.04383 0.46344 0.0
H524 H 0.85656 0.00967 0.52219 0.0
H525 H 0.8042 0.04008 0.51473 0.0
H526 H 0.87412 0.12651 0.45598 0.0
H527 H 0.92638 0.09639 0.46439 0.0
C528 C 0.77303 0.15398 0.46395 0.0
C529 C 0.74124 0.12836 0.45287 0.0
C530 C 0.80315 0.14018 0.47449 0.0
C531 C 0.80205 0.10035 0.47467 0.0
C532 C 0.76988 0.07471 0.46412 0.0
C533 C 0.73985 0.08855 0.4532 0.0
C534 C 0.86086 0.03615 0.50908 0.0
C535 C 0.89555 0.05135 0.4947 0.0
C536 C 0.8308 0.05316 0.50417 0.0
C537 C 0.83476 0.08549 0.48432 0.0
C538 C 0.87004 0.10194 0.47174 0.0
C539 C 0.9001 0.08495 0.4768 0.0
H540 H 0.26765 0.65349 0.14992 0.0
H541 H 0.32758 0.59898 0.06419 0.0
H542 H 0.21172 0.63357 0.1168 0.0
H543 H 0.27122 0.57865 0.0305 0.0
H544 H 0.14588 0.50868 0.02868 0.0
H545 H 0.20999 0.53339 0.04134 0.0
H546 H 0.18733 0.64893 0.05933 0.0
H547 H 0.12305 0.62384 0.0471 0.0
C548 C 0.26851 0.637 0.12394 0.0
C549 C 0.30123 0.6274 0.10932 0.0
C550 C 0.23687 0.62616 0.10477 0.0
C551 C 0.23756 0.60553 0.07071 0.0
C552 C 0.27029 0.59501 0.0565 0.0
C553 C 0.30219 0.60626 0.07568 0.0
C554 C 0.15521 0.53957 0.03342 0.0
C555 C 0.13014 0.56463 0.03684 0.0
C556 C 0.19175 0.55367 0.04076 0.0
C557 C 0.20319 0.59287 0.0519 0.0
C558 C 0.17884 0.61848 0.05115 0.0
C559 C 0.14232 0.60434 0.04379 0.0
H560 H 0.18615 0.42385 0.54013 0.0
H561 H 0.20221 0.43573 0.65455 0.0
H562 H 0.25196 0.44318 0.52899 0.0
H563 H 0.26767 0.45476 0.64351 0.0
H564 H 0.37708 0.5262 0.61228 0.0
H565 H 0.31176 0.50717 0.62248 0.0
H566 H 0.30852 0.41881 0.5336 0.0
H567 H 0.37439 0.43865 0.52264 0.0
C568 C 0.20376 0.43067 0.56285 0.0
C569 C 0.18906 0.42852 0.59819 0.0
C570 C 0.24138 0.44149 0.55649 0.0
C571 C 0.265 0.45031 0.58536 0.0
C572 C 0.25017 0.44865 0.6207 0.0
C573 C 0.21263 0.43791 0.62704 0.0
C574 C 0.36258 0.50264 0.59484 0.0
C575 C 0.38093 0.48403 0.56648 0.0
C576 C 0.32508 0.4916 0.60088 0.0
C577 C 0.30496 0.46155 0.57882 0.0
C578 C 0.32328 0.44248 0.55072 0.0
C579 C 0.36099 0.45361 0.54461 0.0
H580 H 0.97207 0.79488 0.88348 0.0
H581 H 0.88825 0.80026 0.96712 0.0
H582 H 0.98923 0.74068 0.90874 0.0
H583 H 0.9063 0.74655 0.99363 0.0
H584 H 0.91697 0.61706 0.99613 0.0
H585 H 0.90325 0.67892 0.98357 0.0
H586 H 0.01717 0.71822 0.95483 0.0
H587 H 0.03031 0.65576 0.96677 0.0
C588 C 0.95758 0.78471 0.90765 0.0
C589 C 0.92861 0.80172 0.92303 0.0
C590 C 0.96769 0.75373 0.92248 0.0
C591 C 0.94942 0.73892 0.95355 0.0
C592 C 0.92081 0.75661 0.96947 0.0
C593 C 0.91045 0.78754 0.95433 0.0
C594 C 0.93921 0.6395 0.9883 0.0
C595 C 0.97478 0.63183 0.98295 0.0
C596 C 0.93138 0.67507 0.98096 0.0
C597 C 0.95889 0.70377 0.96749 0.0
C598 C 0.995 0.69676 0.96439 0.0
C599 C 0.00278 0.66117 0.97185 0.0
H600 H 0.44277 0.72292 0.10323 0.0
H601 H 0.35804 0.76165 0.17252 0.0
H602 H 0.46666 0.78948 0.08983 0.0
H603 H 0.38166 0.82848 0.1589 0.0
H604 H 0.406 0.90338 0.05104 0.0
H605 H 0.38352 0.85266 0.09106 0.0
H606 H 0.49331 0.85901 0.12498 0.0
H607 H 0.51543 0.91033 0.0858 0.0
C608 C 0.42994 0.74599 0.11611 0.0
C609 C 0.39887 0.73792 0.13874 0.0
C610 C 0.44358 0.78385 0.10873 0.0
C611 C 0.42603 0.8138 0.12377 0.0
C612 C 0.39559 0.80572 0.14734 0.0
C613 C 0.38217 0.76784 0.15498 0.0
C614 C 0.42473 0.89559 0.06889 0.0
C615 C 0.46217 0.91072 0.06608 0.0
C616 C 0.41202 0.86656 0.09154 0.0
C617 C 0.43692 0.85207 0.11068 0.0
C618 C 0.47377 0.87004 0.11053 0.0
C619 C 0.48629 0.89948 0.08845 0.0
H620 H 0.13129 0.30212 0.57693 0.0
H621 H 0.0261 0.33556 0.57447 0.0
H622 H 0.10639 0.23892 0.54891 0.0
H623 H 0.00064 0.27106 0.54648 0.0
H624 H 0.98075 0.13625 0.56997 0.0
H625 H 0.98917 0.20579 0.56887 0.0
H626 H 0.08073 0.20284 0.49317 0.0
H627 H 0.07275 0.13323 0.49543 0.0
C628 C 0.103 0.2963 0.56946 0.0
C629 C 0.08084 0.32411 0.57728 0.0
C630 C 0.08872 0.26002 0.55315 0.0
C631 C 0.05177 0.25037 0.54438 0.0
C632 C 0.02936 0.278 0.55237 0.0
C633 C 0.04383 0.31467 0.56862 0.0
C634 C 0.00105 0.15022 0.55123 0.0
C635 C 0.02654 0.12996 0.53327 0.0
C636 C 0.00605 0.19015 0.55073 0.0
C637 C 0.03653 0.2098 0.53204 0.0
C638 C 0.05758 0.18835 0.50855 0.0
C639 C 0.05273 0.14846 0.50936 0.0
H640 H 0.55089 0.18644 0.44975 0.0
H641 H 0.64644 0.25502 0.40266 0.0
H642 H 0.52765 0.2453 0.47122 0.0
H643 H 0.62368 0.3139 0.42412 0.0
H644 H 0.54597 0.39873 0.41835 0.0
H645 H 0.57406 0.34225 0.40641 0.0
H646 H 0.536 0.30667 0.51131 0.0
H647 H 0.50774 0.3643 0.52341 0.0
C648 C 0.56711 0.21424 0.44457 0.0
C649 C 0.60032 0.21643 0.42456 0.0
C650 C 0.55397 0.24793 0.45697 0.0
C651 C 0.5736 0.28439 0.44916 0.0
C652 C 0.60757 0.28635 0.43023 0.0
C653 C 0.62077 0.25274 0.41811 0.0
C654 C 0.54346 0.37885 0.43894 0.0
C655 C 0.52421 0.38565 0.47173 0.0
C656 C 0.56 0.34662 0.43222 0.0
C657 C 0.55746 0.31983 0.4579 0.0
C658 C 0.53835 0.32667 0.49088 0.0
C659 C 0.52226 0.35961 0.49793 0.0
loop_
_geom_bond_atom_site_label_1
_geom_bond_atom_site_label_2
_geom_bond_distance
_geom_bond_site_symmetry_2
_ccdc_geom_bond_type
H0 C5 0.930 . S
H1 C8 0.930 . S
H2 C10 0.930 . S
H3 C4 1.016 . S
C4 H3 1.016 . S
C4 N11 1.286 . S
C5 H0 0.930 . S
C5 C6 1.397 . S
C5 C7 1.361 . S
C6 C5 1.397 . S
C6 C10 1.390 . S
C7 C5 1.361 . S
C7 C8 1.393 . S
C7 N11 1.413 . S
C8 H1 0.930 . S
C8 C7 1.393 . S
C8 C9 1.399 . S
C9 C8 1.399 . S
C9 C10 1.381 . S
C10 H2 0.930 . S
C10 C6 1.390 . S
C10 C9 1.381 . S
N11 C4 1.286 . S
N11 C7 1.413 . S
H12 C17 0.930 . S
H13 C20 0.930 . S
H14 C22 0.930 . S
H15 C16 1.016 . S
C16 H15 1.016 . S
C16 N23 1.286 . S
C17 H12 0.930 . S
C17 C18 1.397 . S
C17 C19 1.361 . S
C18 C17 1.397 . S
C18 C22 1.390 . S
C19 C17 1.361 . S
C19 C20 1.393 . S
C19 N23 1.413 . S
C20 H13 0.930 . S
C20 C19 1.393 . S
C20 C21 1.399 . S
C21 C20 1.399 . S
C21 C22 1.381 . S
C22 H14 0.930 . S
C22 C18 1.390 . S
C22 C21 1.381 . S
N23 C16 1.286 . S
N23 C19 1.413 . S
H24 C29 0.930 . S
H25 C32 0.930 . S
H26 C34 0.930 . S
H27 C28 1.016 . S
C28 H27 1.016 . S
C28 N35 1.286 . S
C29 H24 0.930 . S
C29 C30 1.397 . S
C29 C31 1.361 . S
C30 C29 1.397 . S
C30 C34 1.390 . S
C31 C29 1.361 . S
C31 C32 1.393 . S
C31 N35 1.413 . S
C32 H25 0.930 . S
C32 C31 1.393 . S
C32 C33 1.399 . S
C33 C32 1.399 . S
C33 C34 1.381 . S
C34 H26 0.930 . S
C34 C30 1.390 . S
C34 C33 1.381 . S
N35 C28 1.286 . S
N35 C31 1.413 . S
H36 C41 0.930 . S
H37 C44 0.930 . S
H38 C46 0.930 . S
H39 C40 1.016 . S
C40 H39 1.016 . S
C40 N47 1.286 . S
C41 H36 0.930 . S
C41 C42 1.397 . S
C41 C43 1.361 . S
C42 C41 1.397 . S
C42 C46 1.390 . S
C43 C41 1.361 . S
C43 C44 1.393 . S
C43 N47 1.413 . S
C44 H37 0.930 . S
C44 C43 1.393 . S
C44 C45 1.399 . S
C45 C44 1.399 . S
C45 C46 1.381 . S
C46 H38 0.930 . S
C46 C42 1.390 . S
C46 C45 1.381 . S
N47 C40 1.286 . S
N47 C43 1.413 . S
H48 C53 0.930 . S
H49 C56 0.930 . S
H50 C58 0.930 . S
H51 C52 1.016 . S
C52 H51 1.016 . S
C52 N59 1.286 . S
C53 H48 0.930 . S
C53 C54 1.397 . S
C53 C55 1.361 . S
C54 C53 1.397 . S
C54 C58 1.390 . S
C55 C53 1.361 . S
C55 C56 1.393 . S
C55 N59 1.413 . S
C56 H49 0.930 . S
C56 C55 1.393 . S
C56 C57 1.399 . S
C57 C56 1.399 . S
C57 C58 1.381 . S
C58 H50 0.930 . S
C58 C54 1.390 . S
C58 C57 1.381 . S
N59 C52 1.286 . S
N59 C55 1.413 . S
H60 C65 0.930 . S
H61 C68 0.930 . S
H62 C70 0.930 . S
H63 C64 1.016 . S
C64 H63 1.016 . S
C64 N71 1.286 . S
C65 H60 0.930 . S
C65 C66 1.397 . S
C65 C67 1.361 . S
C66 C65 1.397 . S
C66 C70 1.390 . S
C67 C65 1.361 . S
C67 C68 1.393 . S
C67 N71 1.413 . S
C68 H61 0.930 . S
C68 C67 1.393 . S
C68 C69 1.399 . S
C69 C68 1.399 . S
C69 C70 1.381 . S
C70 H62 0.930 . S
C70 C66 1.390 . S
C70 C69 1.381 . S
N71 C64 1.286 . S
N71 C67 1.413 . S
H72 C77 0.930 . S
H73 C80 0.930 . S
H74 C82 0.930 . S
H75 C76 1.016 . S
C76 H75 1.016 . S
C76 N83 1.286 . S
C77 H72 0.930 . S
C77 C78 1.397 . S
C77 C79 1.361 . S
C78 C77 1.397 . S
C78 C82 1.390 . S
C79 C77 1.361 . S
C79 C80 1.393 . S
C79 N83 1.413 . S
C80 H73 0.930 . S
C80 C79 1.393 . S
C80 C81 1.399 . S
C81 C80 1.399 . S
C81 C82 1.381 . S
C82 H74 0.930 . S
C82 C78 1.390 . S
C82 C81 1.381 . S
N83 C76 1.286 . S
N83 C79 1.413 . S
H84 C89 0.930 . S
H85 C92 0.930 . S
H86 C94 0.930 . S
H87 C88 1.016 . S
C88 H87 1.016 . S
C88 N95 1.286 . S
C89 H84 0.930 . S
C89 C90 1.397 . S
C89 C91 1.361 . S
C90 C89 1.397 . S
C90 C94 1.390 . S
C91 C89 1.361 . S
C91 C92 1.393 . S
C91 N95 1.413 . S
C92 H85 0.930 . S
C92 C91 1.393 . S
C92 C93 1.399 . S
C93 C92 1.399 . S
C93 C94 1.381 . S
C94 H86 0.930 . S
C94 C90 1.390 . S
C94 C93 1.381 . S
N95 C88 1.286 . S
N95 C91 1.413 . S
O96 Mg97 1.990 . S
O96 C110 1.253 1_445 S
Mg97 O96 1.990 . S
Mg97 O100 2.180 . S
Mg97 O101 2.117 . S
Mg97 O115 2.030 . S
O98 Mg99 2.072 1_665 S
O98 C110 1.260 . S
Mg99 O98 2.072 1_445 S
Mg99 O100 2.099 . S
Mg99 O102 2.079 . S
Mg99 O103 2.072 1_455 S
Mg99 O105 2.099 1_445 S
Mg99 O116 2.079 1_545 S
O100 Mg97 2.180 . S
O100 Mg99 2.099 . S
O100 C111 1.279 . S
O101 Mg97 2.117 . S
O101 C111 1.250 . S
O102 Mg99 2.079 . S
O102 C112 1.264 . S
O103 Mg99 2.072 1_655 S
O103 C113 1.260 . S
Mg104 O105 2.180 . S
Mg104 O106 2.030 1_565 S
Mg104 O107 1.991 . S
Mg104 O108 2.117 . S
O105 Mg99 2.099 1_665 S
O105 Mg104 2.180 . S
O105 C114 1.279 . S
O106 Mg104 2.030 1_545 S
O106 C112 1.248 1_655 S
O107 Mg104 1.991 . S
O107 C113 1.252 1_565 S
O108 Mg104 2.117 . S
O108 C114 1.250 . S
C109 O115 1.248 1_565 S
C109 O116 1.264 . S
C110 O96 1.253 1_665 S
C110 O98 1.260 . S
C111 O100 1.279 . S
C111 O101 1.250 . S
C112 O102 1.264 . S
C112 O106 1.248 1_455 S
C113 O103 1.260 . S
C113 O107 1.252 1_545 S
C114 O105 1.279 . S
C114 O108 1.250 . S
O115 Mg97 2.030 . S
O115 C109 1.248 1_545 S
O116 Mg99 2.079 1_565 S
O116 C109 1.264 . S
O117 Mg118 1.990 . S
O117 C131 1.253 . S
Mg118 O117 1.990 . S
Mg118 O121 2.180 . S
Mg118 O122 2.117 . S
Mg118 O136 2.030 . S
O119 Mg120 2.072 . S
O119 C131 1.260 . S
Mg120 O119 2.072 . S
Mg120 O121 2.099 . S
Mg120 O123 2.079 . S
Mg120 O124 2.072 1_554 S
Mg120 O126 2.099 1_545 S
Mg120 O137 2.079 . S
O121 Mg118 2.180 . S
O121 Mg120 2.099 . S
O121 C132 1.279 1_554 S
O122 Mg118 2.117 . S
O122 C132 1.250 1_554 S
O123 Mg120 2.079 . S
O123 C133 1.264 1_544 S
O124 Mg120 2.072 1_556 S
O124 C134 1.260 1_545 S
Mg125 O126 2.180 1_556 S
Mg125 O127 2.030 . S
Mg125 O128 1.990 . S
Mg125 O129 2.117 1_556 S
O126 Mg120 2.099 1_565 S
O126 Mg125 2.180 1_554 S
O126 C135 1.279 . S
O127 Mg125 2.030 . S
O127 C133 1.248 . S
O128 Mg125 1.990 . S
O128 C134 1.253 . S
O129 Mg125 2.117 1_554 S
O129 C135 1.250 . S
C130 O136 1.248 . S
C130 O137 1.264 . S
C131 O117 1.253 . S
C131 O119 1.260 . S
C132 O121 1.279 1_556 S
C132 O122 1.250 1_556 S
C133 O123 1.264 1_566 S
C133 O127 1.248 . S
C134 O124 1.260 1_565 S
C134 O128 1.253 . S
C135 O126 1.279 . S
C135 O129 1.250 . S
O136 Mg118 2.030 . S
O136 C130 1.248 . S
O137 Mg120 2.079 . S
O137 C130 1.264 . S
O138 Mg139 1.990 . S
O138 C152 1.253 . S
Mg139 O138 1.990 . S
Mg139 O142 2.180 . S
Mg139 O143 2.117 . S
Mg139 O157 2.030 . S
O140 Mg141 2.072 . S
O140 C152 1.260 . S
Mg141 O140 2.072 . S
Mg141 O142 2.099 . S
Mg141 O144 2.079 . S
Mg141 O145 2.072 . S
Mg141 O147 2.099 . S
Mg141 O158 2.079 . S
O142 Mg139 2.180 . S
O142 Mg141 2.099 . S
O142 C153 1.279 . S
O143 Mg139 2.117 . S
O143 C153 1.250 . S
O144 Mg141 2.079 . S
O144 C154 1.264 . S
O145 Mg141 2.072 . S
O145 C155 1.260 . S
Mg146 O147 2.180 . S
Mg146 O148 2.030 . S
Mg146 O149 1.990 . S
Mg146 O150 2.117 . S
O147 Mg141 2.099 . S
O147 Mg146 2.180 . S
O147 C156 1.279 . S
O148 Mg146 2.030 . S
O148 C154 1.248 . S
O149 Mg146 1.990 . S
O149 C155 1.253 . S
O150 Mg146 2.117 . S
O150 C156 1.250 . S
C151 O157 1.248 . S
C151 O158 1.264 . S
C152 O138 1.253 . S
C152 O140 1.260 . S
C153 O142 1.279 . S
C153 O143 1.250 . S
C154 O144 1.264 . S
C154 O148 1.248 . S
C155 O145 1.260 . S
C155 O149 1.253 . S
C156 O147 1.279 . S
C156 O150 1.250 . S
O157 Mg139 2.030 . S
O157 C151 1.248 . S
O158 Mg141 2.079 . S
O158 C151 1.264 . S
O159 Mg160 1.990 . S
O159 C173 1.253 . S
Mg160 O159 1.990 . S
Mg160 O163 2.180 . S
Mg160 O164 2.117 1_455 S
Mg160 O178 2.030 . S
O161 Mg162 2.072 . S
O161 C173 1.260 . S
Mg162 O161 2.072 . S
Mg162 O163 2.099 . S
Mg162 O165 2.079 . S
Mg162 O166 2.072 1_455 S
Mg162 O168 2.099 1_554 S
Mg162 O179 2.079 . S
O163 Mg160 2.180 . S
O163 Mg162 2.099 . S
O163 C174 1.279 1_455 S
O164 Mg160 2.117 1_655 S
O164 C174 1.250 . S
O165 Mg162 2.079 . S
O165 C175 1.264 1_454 S
O166 Mg162 2.072 1_655 S
O166 C176 1.260 1_554 S
Mg167 O168 2.180 1_655 S
Mg167 O169 2.030 . S
Mg167 O170 1.990 . S
Mg167 O171 2.117 1_655 S
O168 Mg162 2.099 1_556 S
O168 Mg167 2.180 1_455 S
O168 C177 1.279 . S
O169 Mg167 2.030 . S
O169 C175 1.248 . S
O170 Mg167 1.990 . S
O170 C176 1.253 . S
O171 Mg167 2.117 1_455 S
O171 C177 1.250 . S
C172 O178 1.248 . S
C172 O179 1.264 . S
C173 O159 1.253 . S
C173 O161 1.260 . S
C174 O163 1.279 1_655 S
C174 O164 1.250 . S
C175 O165 1.264 1_656 S
C175 O169 1.248 . S
C176 O166 1.260 1_556 S
C176 O170 1.253 . S
C177 O168 1.279 . S
C177 O171 1.250 . S
O178 Mg160 2.030 . S
O178 C172 1.248 . S
O179 Mg162 2.079 . S
O179 C172 1.264 . S
H180 C188 0.950 . S
H181 C193 0.950 . S
H182 C190 0.950 . S
H183 C192 0.950 . S
H184 C194 0.950 . S
H185 C196 0.950 . S
H186 C198 0.950 . S
H187 C199 0.950 . S
C188 H180 0.950 . S
C188 C189 1.386 . S
C188 C190 1.391 . S
C189 C188 1.386 . S
C189 C193 1.393 . S
C190 H182 0.950 . S
C190 C188 1.391 . S
C190 C191 1.400 . S
C191 C190 1.400 . S
C191 C192 1.398 . S
C191 C197 1.491 . S
C192 H183 0.950 . S
C192 C191 1.398 . S
C192 C193 1.391 . S
C193 H181 0.950 . S
C193 C189 1.393 . S
C193 C192 1.391 . S
C194 H184 0.950 . S
C194 C195 1.386 . S
C194 C196 1.391 . S
C195 C194 1.386 . S
C195 C199 1.393 . S
C196 H185 0.950 . S
C196 C194 1.391 . S
C196 C197 1.400 . S
C197 C191 1.491 . S
C197 C196 1.400 . S
C197 C198 1.398 . S
C198 H186 0.950 . S
C198 C197 1.398 . S
C198 C199 1.391 . S
C199 H187 0.950 . S
C199 C195 1.393 . S
C199 C198 1.391 . S
H200 C208 0.950 . S
H201 C213 0.950 . S
H202 C210 0.950 . S
H203 C212 0.950 . S
H204 C214 0.950 . S
H205 C216 0.950 . S
H206 C218 0.950 . S
H207 C219 0.950 . S
C208 H200 0.950 . S
C208 C209 1.386 . S
C208 C210 1.391 . S
C209 C208 1.386 . S
C209 C213 1.393 . S
C210 H202 0.950 . S
C210 C208 1.391 . S
C210 C211 1.400 . S
C211 C210 1.400 . S
C211 C212 1.398 . S
C211 C217 1.491 . S
C212 H203 0.950 . S
C212 C211 1.398 . S
C212 C213 1.391 . S
C213 H201 0.950 . S
C213 C209 1.393 . S
C213 C212 1.391 . S
C214 H204 0.950 . S
C214 C215 1.386 . S
C214 C216 1.391 . S
C215 C214 1.386 . S
C215 C219 1.393 . S
C216 H205 0.950 . S
C216 C214 1.391 . S
C216 C217 1.400 . S
C217 C211 1.491 . S
C217 C216 1.400 . S
C217 C218 1.398 . S
C218 H206 0.950 . S
C218 C217 1.398 . S
C218 C219 1.391 . S
C219 H207 0.950 . S
C219 C215 1.393 . S
C219 C218 1.391 . S
H220 C228 0.950 . S
H221 C233 0.950 . S
H222 C230 0.950 . S
H223 C232 0.950 . S
H224 C234 0.950 . S
H225 C236 0.950 . S
H226 C238 0.950 . S
H227 C239 0.950 . S
C228 H220 0.950 . S
C228 C229 1.386 . S
C228 C230 1.391 . S
C229 C228 1.386 . S
C229 C233 1.393 . S
C230 H222 0.950 . S
C230 C228 1.391 . S
C230 C231 1.400 . S
C231 C230 1.400 . S
C231 C232 1.398 . S
C231 C237 1.491 . S
C232 H223 0.950 . S
C232 C231 1.398 . S
C232 C233 1.391 . S
C233 H221 0.950 . S
C233 C229 1.393 . S
C233 C232 1.391 . S
C234 H224 0.950 . S
C234 C235 1.386 . S
C234 C236 1.391 . S
C235 C234 1.386 . S
C235 C239 1.393 . S
C236 H225 0.950 . S
C236 C234 1.391 . S
C236 C237 1.400 . S
C237 C231 1.491 . S
C237 C236 1.400 . S
C237 C238 1.398 . S
C238 H226 0.950 . S
C238 C237 1.398 . S
C238 C239 1.391 . S
C239 H227 0.950 . S
C239 C235 1.393 . S
C239 C238 1.391 . S
H240 C248 0.950 . S
H241 C253 0.950 . S
H242 C250 0.950 . S
H243 C252 0.950 . S
H244 C254 0.950 . S
H245 C256 0.950 . S
H246 C258 0.950 . S
H247 C259 0.950 . S
C248 H240 0.950 . S
C248 C249 1.386 . S
C248 C250 1.391 . S
C249 C248 1.386 . S
C249 C253 1.393 . S
C250 H242 0.950 . S
C250 C248 1.391 . S
C250 C251 1.400 . S
C251 C250 1.400 . S
C251 C252 1.398 . S
C251 C257 1.491 . S
C252 H243 0.950 . S
C252 C251 1.398 . S
C252 C253 1.391 . S
C253 H241 0.950 . S
C253 C249 1.393 . S
C253 C252 1.391 . S
C254 H244 0.950 . S
C254 C255 1.386 . S
C254 C256 1.391 . S
C255 C254 1.386 . S
C255 C259 1.393 . S
C256 H245 0.950 . S
C256 C254 1.391 . S
C256 C257 1.400 . S
C257 C251 1.491 . S
C257 C256 1.400 . S
C257 C258 1.398 . S
C258 H246 0.950 . S
C258 C257 1.398 . S
C258 C259 1.391 . S
C259 H247 0.950 . S
C259 C255 1.393 . S
C259 C258 1.391 . S
H260 C268 0.950 . S
H261 C273 0.950 . S
H262 C270 0.950 . S
H263 C272 0.950 . S
H264 C274 0.950 . S
H265 C276 0.950 . S
H266 C278 0.950 . S
H267 C279 0.950 . S
C268 H260 0.950 . S
C268 C269 1.386 . S
C268 C270 1.391 . S
C269 C268 1.386 . S
C269 C273 1.393 . S
C270 H262 0.950 . S
C270 C268 1.391 . S
C270 C271 1.400 . S
C271 C270 1.400 . S
C271 C272 1.398 . S
C271 C277 1.491 . S
C272 H263 0.950 . S
C272 C271 1.398 . S
C272 C273 1.391 . S
C273 H261 0.950 . S
C273 C269 1.393 . S
C273 C272 1.391 . S
C274 H264 0.950 . S
C274 C275 1.386 . S
C274 C276 1.391 . S
C275 C274 1.386 . S
C275 C279 1.393 . S
C276 H265 0.950 . S
C276 C274 1.391 . S
C276 C277 1.400 . S
C277 C271 1.491 . S
C277 C276 1.400 . S
C277 C278 1.398 . S
C278 H266 0.950 . S
C278 C277 1.398 . S
C278 C279 1.391 . S
C279 H267 0.950 . S
C279 C275 1.393 . S
C279 C278 1.391 . S
H280 C288 0.950 . S
H281 C293 0.950 . S
H282 C290 0.950 . S
H283 C292 0.950 . S
H284 C294 0.950 . S
H285 C296 0.950 . S
H286 C298 0.950 1_545 S
H287 C299 0.950 1_545 S
C288 H280 0.950 . S
C288 C289 1.386 . S
C288 C290 1.391 . S
C289 C288 1.386 . S
C289 C293 1.393 . S
C290 H282 0.950 . S
C290 C288 1.391 . S
C290 C291 1.400 . S
C291 C290 1.400 . S
C291 C292 1.398 . S
C291 C297 1.491 . S
C292 H283 0.950 . S
C292 C291 1.398 . S
C292 C293 1.391 . S
C293 H281 0.950 . S
C293 C289 1.393 . S
C293 C292 1.391 . S
C294 H284 0.950 . S
C294 C295 1.386 . S
C294 C296 1.391 . S
C295 C294 1.386 . S
C295 C299 1.393 . S
C296 H285 0.950 . S
C296 C294 1.391 . S
C296 C297 1.400 . S
C297 C291 1.491 . S
C297 C296 1.400 . S
C297 C298 1.398 . S
C298 H286 0.950 1_565 S
C298 C297 1.398 . S
C298 C299 1.391 . S
C299 H287 0.950 1_565 S
C299 C295 1.393 . S
C299 C298 1.391 . S
H300 C308 0.950 . S
H301 C313 0.950 . S
H302 C310 0.950 . S
H303 C312 0.950 . S
H304 C314 0.950 . S
H305 C316 0.950 . S
H306 C318 0.950 . S
H307 C319 0.950 . S
C308 H300 0.950 . S
C308 C309 1.386 . S
C308 C310 1.391 . S
C309 C308 1.386 . S
C309 C313 1.393 . S
C310 H302 0.950 . S
C310 C308 1.391 . S
C310 C311 1.400 . S
C311 C310 1.400 . S
C311 C312 1.398 . S
C311 C317 1.491 . S
C312 H303 0.950 . S
C312 C311 1.398 . S
C312 C313 1.391 . S
C313 H301 0.950 . S
C313 C309 1.393 . S
C313 C312 1.391 . S
C314 H304 0.950 . S
C314 C315 1.386 . S
C314 C316 1.391 . S
C315 C314 1.386 . S
C315 C319 1.393 1_556 S
C316 H305 0.950 . S
C316 C314 1.391 . S
C316 C317 1.400 . S
C317 C311 1.491 . S
C317 C316 1.400 . S
C317 C318 1.398 . S
C318 H306 0.950 . S
C318 C317 1.398 . S
C318 C319 1.391 1_556 S
C319 H307 0.950 . S
C319 C315 1.393 1_554 S
C319 C318 1.391 1_554 S
H320 C328 0.950 . S
H321 C333 0.950 . S
H322 C330 0.950 . S
H323 C332 0.950 . S
H324 C334 0.950 . S
H325 C336 0.950 . S
H326 C338 0.950 . S
H327 C339 0.950 . S
C328 H320 0.950 . S
C328 C329 1.386 . S
C328 C330 1.391 . S
C329 C328 1.386 . S
C329 C333 1.393 . S
C330 H322 0.950 . S
C330 C328 1.391 . S
C330 C331 1.400 . S
C331 C330 1.400 . S
C331 C332 1.398 . S
C331 C337 1.491 . S
C332 H323 0.950 . S
C332 C331 1.398 . S
C332 C333 1.391 . S
C333 H321 0.950 . S
C333 C329 1.393 . S
C333 C332 1.391 . S
C334 H324 0.950 . S
C334 C335 1.386 . S
C334 C336 1.391 . S
C335 C334 1.386 . S
C335 C339 1.393 . S
C336 H325 0.950 . S
C336 C334 1.391 . S
C336 C337 1.400 . S
C337 C331 1.491 . S
C337 C336 1.400 . S
C337 C338 1.398 . S
C338 H326 0.950 . S
C338 C337 1.398 . S
C338 C339 1.391 . S
C339 H327 0.950 . S
C339 C335 1.393 . S
C339 C338 1.391 . S
H340 C348 0.950 . S
H341 C353 0.950 . S
H342 C350 0.950 . S
H343 C352 0.950 . S
H344 C354 0.950 . S
H345 C356 0.950 . S
H346 C358 0.950 . S
H347 C359 0.950 1_556 S
C348 H340 0.950 . S
C348 C349 1.386 . S
C348 C350 1.391 . S
C349 C348 1.386 . S
C349 C353 1.393 . S
C350 H342 0.950 . S
C350 C348 1.391 . S
C350 C351 1.400 . S
C351 C350 1.400 . S
C351 C352 1.398 . S
C351 C357 1.491 . S
C352 H343 0.950 . S
C352 C351 1.398 . S
C352 C353 1.391 . S
C353 H341 0.950 . S
C353 C349 1.393 . S
C353 C352 1.391 . S
C354 H344 0.950 . S
C354 C355 1.386 . S
C354 C356 1.391 . S
C355 C354 1.386 . S
C355 C359 1.393 . S
C356 H345 0.950 . S
C356 C354 1.391 . S
C356 C357 1.400 . S
C357 C351 1.491 . S
C357 C356 1.400 . S
C357 C358 1.398 . S
C358 H346 0.950 . S
C358 C357 1.398 . S
C358 C359 1.391 . S
C359 H347 0.950 1_554 S
C359 C355 1.393 . S
C359 C358 1.391 . S
H360 C368 0.950 . S
H361 C373 0.950 . S
H362 C370 0.950 . S
H363 C372 0.950 . S
H364 C374 0.950 . S
H365 C376 0.950 . S
H366 C378 0.950 . S
H367 C379 0.950 . S
C368 H360 0.950 . S
C368 C369 1.386 . S
C368 C370 1.391 . S
C369 C368 1.386 . S
C369 C373 1.393 . S
C370 H362 0.950 . S
C370 C368 1.391 . S
C370 C371 1.400 . S
C371 C370 1.400 . S
C371 C372 1.398 . S
C371 C377 1.491 . S
C372 H363 0.950 . S
C372 C371 1.398 . S
C372 C373 1.391 . S
C373 H361 0.950 . S
C373 C369 1.393 . S
C373 C372 1.391 . S
C374 H364 0.950 . S
C374 C375 1.386 . S
C374 C376 1.391 . S
C375 C374 1.386 . S
C375 C379 1.393 . S
C376 H365 0.950 . S
C376 C374 1.391 . S
C376 C377 1.400 . S
C377 C371 1.491 . S
C377 C376 1.400 . S
C377 C378 1.398 . S
C378 H366 0.950 . S
C378 C377 1.398 . S
C378 C379 1.391 . S
C379 H367 0.950 . S
C379 C375 1.393 . S
C379 C378 1.391 . S
H380 C388 0.950 . S
H381 C393 0.950 . S
H382 C390 0.950 . S
H383 C392 0.950 . S
H384 C394 0.950 . S
H385 C396 0.950 . S
H386 C398 0.950 . S
H387 C399 0.950 . S
C388 H380 0.950 . S
C388 C389 1.386 . S
C388 C390 1.391 . S
C389 C388 1.386 . S
C389 C393 1.393 . S
C390 H382 0.950 . S
C390 C388 1.391 . S
C390 C391 1.400 . S
C391 C390 1.400 . S
C391 C392 1.398 . S
C391 C397 1.491 . S
C392 H383 0.950 . S
C392 C391 1.398 . S
C392 C393 1.391 . S
C393 H381 0.950 . S
C393 C389 1.393 . S
C393 C392 1.391 . S
C394 H384 0.950 . S
C394 C395 1.386 . S
C394 C396 1.391 . S
C395 C394 1.386 . S
C395 C399 1.393 . S
C396 H385 0.950 . S
C396 C394 1.391 . S
C396 C397 1.400 . S
C397 C391 1.491 . S
C397 C396 1.400 . S
C397 C398 1.398 . S
C398 H386 0.950 . S
C398 C397 1.398 . S
C398 C399 1.391 . S
C399 H387 0.950 . S
C399 C395 1.393 . S
C399 C398 1.391 . S
H400 C408 0.950 . S
H401 C413 0.950 . S
H402 C410 0.950 . S
H403 C412 0.950 . S
H404 C414 0.950 . S
H405 C416 0.950 . S
H406 C418 0.950 . S
H407 C419 0.950 . S
C408 H400 0.950 . S
C408 C409 1.386 . S
C408 C410 1.391 . S
C409 C408 1.386 . S
C409 C413 1.393 . S
C410 H402 0.950 . S
C410 C408 1.391 . S
C410 C411 1.400 . S
C411 C410 1.400 . S
C411 C412 1.398 . S
C411 C417 1.491 . S
C412 H403 0.950 . S
C412 C411 1.398 . S
C412 C413 1.391 . S
C413 H401 0.950 . S
C413 C409 1.393 . S
C413 C412 1.391 . S
C414 H404 0.950 . S
C414 C415 1.386 . S
C414 C416 1.391 . S
C415 C414 1.386 . S
C415 C419 1.393 . S
C416 H405 0.950 . S
C416 C414 1.391 . S
C416 C417 1.400 . S
C417 C411 1.491 . S
C417 C416 1.400 . S
C417 C418 1.398 . S
C418 H406 0.950 . S
C418 C417 1.398 . S
C418 C419 1.391 . S
C419 H407 0.950 . S
C419 C415 1.393 . S
C419 C418 1.391 . S
H420 C428 0.950 . S
H421 C433 0.950 . S
H422 C430 0.975 . S
H423 C432 0.950 . S
H424 C434 0.950 . S
H425 C436 0.950 . S
H426 C438 0.950 1_545 S
H427 C439 0.950 1_545 S
C428 H420 0.950 . S
C428 C429 1.386 . S
C428 C430 1.391 . S
C429 C428 1.386 . S
C429 C433 1.393 . S
C430 H422 0.975 . S
C430 C428 1.391 . S
C430 C431 1.400 . S
C431 C430 1.400 . S
C431 C432 1.398 . S
C431 C437 1.491 . S
C432 H423 0.950 . S
C432 C431 1.398 . S
C432 C433 1.391 . S
C433 H421 0.950 . S
C433 C429 1.393 . S
C433 C432 1.391 . S
C434 H424 0.950 . S
C434 C435 1.386 . S
C434 C436 1.391 . S
C435 C434 1.386 . S
C435 C439 1.393 . S
C436 H425 0.950 . S
C436 C434 1.391 . S
C436 C437 1.400 . S
C437 C431 1.491 . S
C437 C436 1.400 . S
C437 C438 1.398 . S
C438 H426 0.950 1_565 S
C438 C437 1.398 . S
C438 C439 1.391 . S
C439 H427 0.950 1_565 S
C439 C435 1.393 . S
C439 C438 1.391 . S
H440 C448 0.950 . S
H441 C453 0.950 . S
H442 C450 0.950 . S
H443 C452 0.950 . S
H444 C454 0.950 . S
H445 C456 0.950 . S
H446 C458 0.950 . S
H447 C459 0.950 . S
C448 H440 0.950 . S
C448 C449 1.386 . S
C448 C450 1.391 . S
C449 C448 1.386 . S
C449 C453 1.393 . S
C450 H442 0.950 . S
C450 C448 1.391 . S
C450 C451 1.400 . S
C451 C450 1.400 . S
C451 C452 1.398 . S
C451 C457 1.491 . S
C452 H443 0.950 . S
C452 C451 1.398 . S
C452 C453 1.391 . S
C453 H441 0.950 . S
C453 C449 1.393 . S
C453 C452 1.391 . S
C454 H444 0.950 . S
C454 C455 1.386 . S
C454 C456 1.391 . S
C455 C454 1.386 . S
C455 C459 1.393 . S
C456 H445 0.950 . S
C456 C454 1.391 . S
C456 C457 1.400 . S
C457 C451 1.491 . S
C457 C456 1.400 . S
C457 C458 1.398 . S
C458 H446 0.950 . S
C458 C457 1.398 . S
C458 C459 1.391 . S
C459 H447 0.950 . S
C459 C455 1.393 . S
C459 C458 1.391 . S
H460 C468 0.950 . S
H461 C473 0.950 . S
H462 C470 0.950 . S
H463 C472 0.950 . S
H464 C474 0.950 . S
H465 C476 0.950 . S
H466 C478 0.950 . S
H467 C479 0.950 . S
C468 H460 0.950 . S
C468 C469 1.386 . S
C468 C470 1.391 . S
C469 C468 1.386 . S
C469 C473 1.393 . S
C470 H462 0.950 . S
C470 C468 1.391 . S
C470 C471 1.400 . S
C471 C470 1.400 . S
C471 C472 1.398 . S
C471 C477 1.491 . S
C472 H463 0.950 . S
C472 C471 1.398 . S
C472 C473 1.391 . S
C473 H461 0.950 . S
C473 C469 1.393 . S
C473 C472 1.391 . S
C474 H464 0.950 . S
C474 C475 1.386 . S
C474 C476 1.391 . S
C475 C474 1.386 . S
C475 C479 1.393 . S
C476 H465 0.950 . S
C476 C474 1.391 . S
C476 C477 1.400 . S
C477 C471 1.491 . S
C477 C476 1.400 . S
C477 C478 1.398 . S
C478 H466 0.950 . S
C478 C477 1.398 . S
C478 C479 1.391 . S
C479 H467 0.950 . S
C479 C475 1.393 . S
C479 C478 1.391 . S
H480 C488 0.950 . S
H481 C493 0.950 . S
H482 C490 0.950 . S
H483 C492 0.950 . S
H484 C494 0.950 . S
H485 C496 0.950 . S
H486 C498 0.950 . S
H487 C499 0.950 . S
C488 H480 0.950 . S
C488 C489 1.386 . S
C488 C490 1.391 . S
C489 C488 1.386 . S
C489 C493 1.393 . S
C490 H482 0.950 . S
C490 C488 1.391 . S
C490 C491 1.400 . S
C491 C490 1.400 . S
C491 C492 1.398 . S
C491 C497 1.491 . S
C492 H483 0.950 . S
C492 C491 1.398 . S
C492 C493 1.391 . S
C493 H481 0.950 . S
C493 C489 1.393 . S
C493 C492 1.391 . S
C494 H484 0.950 . S
C494 C495 1.386 . S
C494 C496 1.391 . S
C495 C494 1.386 . S
C495 C499 1.393 . S
C496 H485 0.950 . S
C496 C494 1.391 . S
C496 C497 1.400 . S
C497 C491 1.491 . S
C497 C496 1.400 . S
C497 C498 1.398 . S
C498 H486 0.950 . S
C498 C497 1.398 . S
C498 C499 1.391 . S
C499 H487 0.950 . S
C499 C495 1.393 . S
C499 C498 1.391 . S
H500 C508 0.950 . S
H501 C513 0.950 . S
H502 C510 0.950 . S
H503 C512 0.950 1_545 S
H504 C514 0.950 . S
H505 C516 0.950 1_545 S
H506 C518 0.950 . S
H507 C519 0.950 . S
C508 H500 0.950 . S
C508 C509 1.386 . S
C508 C510 1.391 . S
C509 C508 1.386 . S
C509 C513 1.393 . S
C510 H502 0.950 . S
C510 C508 1.391 . S
C510 C511 1.400 . S
C511 C510 1.400 . S
C511 C512 1.398 . S
C511 C517 1.491 . S
C512 H503 0.950 1_565 S
C512 C511 1.398 . S
C512 C513 1.391 . S
C513 H501 0.950 . S
C513 C509 1.393 . S
C513 C512 1.391 . S
C514 H504 0.950 . S
C514 C515 1.386 1_545 S
C514 C516 1.392 1_545 S
C515 C514 1.386 1_565 S
C515 C519 1.393 . S
C516 H505 0.950 1_565 S
C516 C514 1.392 1_565 S
C516 C517 1.400 . S
C517 C511 1.491 . S
C517 C516 1.400 . S
C517 C518 1.398 . S
C518 H506 0.950 . S
C518 C517 1.398 . S
C518 C519 1.391 . S
C519 H507 0.950 . S
C519 C515 1.393 . S
C519 C518 1.391 . S
H520 C528 0.950 . S
H521 C533 0.950 . S
H522 C530 0.950 . S
H523 C532 0.950 . S
H524 C534 0.950 . S
H525 C536 0.950 . S
H526 C538 0.950 . S
H527 C539 0.950 . S
C528 H520 0.950 . S
C528 C529 1.386 . S
C528 C530 1.391 . S
C529 C528 1.386 . S
C529 C533 1.393 . S
C530 H522 0.950 . S
C530 C528 1.391 . S
C530 C531 1.400 . S
C531 C530 1.400 . S
C531 C532 1.398 . S
C531 C537 1.491 . S
C532 H523 0.950 . S
C532 C531 1.398 . S
C532 C533 1.391 . S
C533 H521 0.950 . S
C533 C529 1.393 . S
C533 C532 1.391 . S
C534 H524 0.950 . S
C534 C535 1.386 . S
C534 C536 1.391 . S
C535 C534 1.386 . S
C535 C539 1.393 . S
C536 H525 0.950 . S
C536 C534 1.391 . S
C536 C537 1.400 . S
C537 C531 1.491 . S
C537 C536 1.400 . S
C537 C538 1.398 . S
C538 H526 0.950 . S
C538 C537 1.398 . S
C538 C539 1.391 . S
C539 H527 0.950 . S
C539 C535 1.393 . S
C539 C538 1.391 . S
H540 C548 0.950 . S
H541 C553 0.950 . S
H542 C550 0.950 . S
H543 C552 0.950 . S
H544 C554 0.950 . S
H545 C556 0.950 . S
H546 C558 0.950 . S
H547 C559 0.950 . S
C548 H540 0.950 . S
C548 C549 1.386 . S
C548 C550 1.391 . S
C549 C548 1.386 . S
C549 C553 1.393 . S
C550 H542 0.950 . S
C550 C548 1.391 . S
C550 C551 1.400 . S
C551 C550 1.400 . S
C551 C552 1.398 . S
C551 C557 1.491 . S
C552 H543 0.950 . S
C552 C551 1.398 . S
C552 C553 1.391 . S
C553 H541 0.950 . S
C553 C549 1.393 . S
C553 C552 1.391 . S
C554 H544 0.950 . S
C554 C555 1.386 . S
C554 C556 1.391 . S
C555 C554 1.386 . S
C555 C559 1.393 . S
C556 H545 0.950 . S
C556 C554 1.391 . S
C556 C557 1.400 . S
C557 C551 1.491 . S
C557 C556 1.400 . S
C557 C558 1.398 . S
C558 H546 0.950 . S
C558 C557 1.398 . S
C558 C559 1.391 . S
C559 H547 0.950 . S
C559 C555 1.393 . S
C559 C558 1.391 . S
H560 C568 0.950 . S
H561 C573 0.950 . S
H562 C570 0.950 . S
H563 C572 0.950 . S
H564 C574 0.950 . S
H565 C576 0.950 . S
H566 C578 0.950 . S
H567 C579 0.950 . S
C568 H560 0.950 . S
C568 C569 1.386 . S
C568 C570 1.391 . S
C569 C568 1.386 . S
C569 C573 1.393 . S
C570 H562 0.950 . S
C570 C568 1.391 . S
C570 C571 1.400 . S
C571 C570 1.400 . S
C571 C572 1.398 . S
C571 C577 1.491 . S
C572 H563 0.950 . S
C572 C571 1.398 . S
C572 C573 1.391 . S
C573 H561 0.950 . S
C573 C569 1.393 . S
C573 C572 1.391 . S
C574 H564 0.950 . S
C574 C575 1.386 . S
C574 C576 1.391 . S
C575 C574 1.386 . S
C575 C579 1.393 . S
C576 H565 0.950 . S
C576 C574 1.391 . S
C576 C577 1.400 . S
C577 C571 1.491 . S
C577 C576 1.400 . S
C577 C578 1.398 . S
C578 H566 0.950 . S
C578 C577 1.398 . S
C578 C579 1.391 . S
C579 H567 0.950 . S
C579 C575 1.393 . S
C579 C578 1.391 . S
H580 C588 0.950 . S
H581 C593 0.950 . S
H582 C590 0.950 . S
H583 C592 0.950 . S
H584 C594 0.953 . S
H585 C596 0.950 1_554 S
H586 C598 0.950 1_455 S
H587 C599 0.966 . S
C588 H580 0.950 . S
C588 C589 1.386 . S
C588 C590 1.391 . S
C589 C588 1.386 . S
C589 C593 1.393 . S
C590 H582 0.950 . S
C590 C588 1.391 . S
C590 C591 1.400 . S
C591 C590 1.400 . S
C591 C592 1.398 . S
C591 C597 1.491 . S
C592 H583 0.950 . S
C592 C591 1.398 . S
C592 C593 1.391 . S
C593 H581 0.950 . S
C593 C589 1.393 . S
C593 C592 1.391 . S
C594 H584 0.953 . S
C594 C595 1.384 1_554 S
C594 C596 1.390 1_554 S
C595 C594 1.384 1_556 S
C595 C599 1.386 1_655 S
C596 H585 0.950 1_556 S
C596 C594 1.390 1_556 S
C596 C597 1.400 . S
C597 C591 1.491 . S
C597 C596 1.400 . S
C597 C598 1.398 . S
C598 H586 0.950 1_655 S
C598 C597 1.398 . S
C598 C599 1.382 1_655 S
C599 H587 0.966 . S
C599 C595 1.386 1_455 S
C599 C598 1.382 1_455 S
H600 C608 0.950 . S
H601 C613 0.950 . S
H602 C610 0.950 . S
H603 C612 0.950 . S
H604 C614 0.950 . S
H605 C616 0.950 . S
H606 C618 0.950 . S
H607 C619 0.950 . S
C608 H600 0.950 . S
C608 C609 1.386 . S
C608 C610 1.391 . S
C609 C608 1.386 . S
C609 C613 1.393 . S
C610 H602 0.950 . S
C610 C608 1.391 . S
C610 C611 1.400 . S
C611 C610 1.400 . S
C611 C612 1.398 . S
C611 C617 1.491 . S
C612 H603 0.950 . S
C612 C611 1.398 . S
C612 C613 1.391 . S
C613 H601 0.950 . S
C613 C609 1.393 . S
C613 C612 1.391 . S
C614 H604 0.950 . S
C614 C615 1.386 . S
C614 C616 1.391 . S
C615 C614 1.386 . S
C615 C619 1.393 . S
C616 H605 0.950 . S
C616 C614 1.391 . S
C616 C617 1.400 . S
C617 C611 1.491 . S
C617 C616 1.400 . S
C617 C618 1.398 . S
C618 H606 0.950 . S
C618 C617 1.398 . S
C618 C619 1.391 . S
C619 H607 0.950 . S
C619 C615 1.393 . S
C619 C618 1.391 . S
H620 C628 0.950 . S
H621 C633 0.950 . S
H622 C630 0.950 . S
H623 C632 0.950 . S
H624 C634 0.950 1_655 S
H625 C636 0.950 . S
H626 C638 0.950 . S
H627 C639 0.950 . S
C628 H620 0.950 . S
C628 C629 1.386 . S
C628 C630 1.391 . S
C629 C628 1.386 . S
C629 C633 1.393 . S
C630 H622 0.950 . S
C630 C628 1.391 . S
C630 C631 1.400 . S
C631 C630 1.400 . S
C631 C632 1.398 . S
C631 C637 1.491 . S
C632 H623 0.950 . S
C632 C631 1.398 . S
C632 C633 1.391 . S
C633 H621 0.950 . S
C633 C629 1.393 . S
C633 C632 1.391 . S
C634 H624 0.950 1_455 S
C634 C635 1.386 . S
C634 C636 1.391 . S
C635 C634 1.386 . S
C635 C639 1.393 . S
C636 H625 0.950 . S
C636 C634 1.391 . S
C636 C637 1.400 . S
C637 C631 1.491 . S
C637 C636 1.400 . S
C637 C638 1.398 . S
C638 H626 0.950 . S
C638 C637 1.398 . S
C638 C639 1.391 . S
C639 H627 0.950 . S
C639 C635 1.393 . S
C639 C638 1.391 . S
H640 C648 0.950 . S
H641 C653 0.950 . S
H642 C650 0.950 . S
H643 C652 0.950 . S
H644 C654 0.950 . S
H645 C656 0.950 . S
H646 C658 0.950 . S
H647 C659 0.950 . S
C648 H640 0.950 . S
C648 C649 1.386 . S
C648 C650 1.391 . S
C649 C648 1.386 . S
C649 C653 1.393 . S
C650 H642 0.950 . S
C650 C648 1.391 . S
C650 C651 1.400 . S
C651 C650 1.400 . S
C651 C652 1.398 . S
C651 C657 1.491 . S
C652 H643 0.950 . S
C652 C651 1.398 . S
C652 C653 1.391 . S
C653 H641 0.950 . S
C653 C649 1.393 . S
C653 C652 1.391 . S
C654 H644 0.950 . S
C654 C655 1.386 . S
C654 C656 1.391 . S
C655 C654 1.386 . S
C655 C659 1.393 . S
C656 H645 0.950 . S
C656 C654 1.391 . S
C656 C657 1.400 . S
C657 C651 1.491 . S
C657 C656 1.400 . S
C657 C658 1.398 . S
C658 H646 0.950 . S
C658 C657 1.398 . S
C658 C659 1.391 . S
C659 H647 0.950 . S
C659 C655 1.393 . S
C659 C658 1.391 . S
C189 C6 1.745 . S
C195 C112 1.694 . S
C209 C18 1.747 . S
C215 C134 1.680 . S
C235 C153 1.268 . S
C229 C28 1.476 . S
C249 C40 1.269 . S
C255 C174 1.013 . S
C275 C131 1.949 . S
C269 C9 2.026 . S
C295 C109 1.612 . S
C289 C16 1.669 . S
C315 C176 1.313 . S
C309 C30 1.369 . S
C335 C155 1.127 . S
C329 C42 1.143 . S
C349 C4 1.670 . S
C355 C173 1.614 . S
C375 C132 1.353 . S
C369 C33 1.647 . S
C389 C45 1.428 . S
C395 C114 1.235 . S
C409 C21 1.711 . S
C415 C152 1.691 . S
C435 C110 1.724 . S
C429 C57 1.820 . S
C449 C66 1.598 . S
C455 C130 1.558 . S
C469 C76 1.560 . S
C475 C156 1.320 . S
C489 C88 1.127 . S
C495 C177 0.908 . S
C509 C54 1.937 . S
C515 C133 1.873 . S
C535 C113 1.715 . S
C529 C64 1.774 . S
C555 C172 1.112 . S
C549 C78 1.187 . S
C575 C151 1.228 . S
C569 C93 1.271 . S
C589 C52 1.471 . S
C595 C175 1.405 . S
C615 C135 1.350 . S
C609 C81 1.571 . S
C635 C111 1.130 . S
C629 C90 1.245 . S
C649 C69 1.690 . S
C655 C154 1.649 . S
