# Generated by pormake.
# Topology tsx, (6,3)-cn, num edge types: 1
# Building blocks:
#     Node 0, Type 0, BuildingBlock: VOLQOD_clean_sbu_1, # of connection points: 6
#     Node 1, Type 0, BuildingBlock: VOLQOD_clean_sbu_1, # of connection points: 6
#     Node 2, Type 1, BuildingBlock: QEWDON_clean_linker_0, # of connection points: 3
#     Node 3, Type 1, BuildingBlock: QEWDON_clean_linker_0, # of connection points: 3
#     Node 4, Type 1, BuildingBlock: QEWDON_clean_linker_0, # of connection points: 3
#     Node 5, Type 1, BuildingBlock: QEWDON_clean_linker_0, # of connection points: 3
#     Edge 6, Type (0, 1), BuildingBlock: AJUNOK_clean_linker_0, # of connection points: 2
#     Edge 7, Type (0, 1), BuildingBlock: AJUNOK_clean_linker_0, # of connection points: 2
#     Edge 8, Type (0, 1), BuildingBlock: AJUNOK_clean_linker_0, # of connection points: 2
#     Edge 9, Type (0, 1), BuildingBlock: AJUNOK_clean_linker_0, # of connection points: 2
#     Edge 10, Type (0, 1), BuildingBlock: AJUNOK_clean_linker_0, # of connection points: 2
#     Edge 11, Type (0, 1), BuildingBlock: AJUNOK_clean_linker_0, # of connection points: 2
#     Edge 12, Type (0, 1), BuildingBlock: AJUNOK_clean_linker_0, # of connection points: 2
#     Edge 13, Type (0, 1), BuildingBlock: AJUNOK_clean_linker_0, # of connection points: 2
#     Edge 14, Type (0, 1), BuildingBlock: AJUNOK_clean_linker_0, # of connection points: 2
#     Edge 15, Type (0, 1), BuildingBlock: AJUNOK_clean_linker_0, # of connection points: 2
#     Edge 16, Type (0, 1), BuildingBlock: AJUNOK_clean_linker_0, # of connection points: 2
#     Edge 17, Type (0, 1), BuildingBlock: AJUNOK_clean_linker_0, # of connection points: 2
# Relax obj value: 0.079
# Max RMSD: 0.171
# Mean RMSD: 0.146
data_MOF--net-tsx--node1-VOLQOD_clean_sbu_1--node2-QEWDON_clean_linker_0--edge1-AJUNOK_clean_linker_0
_symmetry_space_group_name_H-M    P1
_symmetry_Int_Tables_number       1
_symmetry_cell_setting            triclinic
loop_
_symmetry_equiv_pos_as_xyz
'x, y, z'
_cell_length_a     17.48431
_cell_length_b     17.257104
_cell_length_c     28.506066
_cell_angle_alpha  91.498719
_cell_angle_beta   100.91479
_cell_angle_gamma 89.717303
loop_
_atom_site_label
_atom_site_type_symbol
_atom_site_fract_x
_atom_site_fract_y
_atom_site_fract_z
_atom_type_partial_charge
O0 O 0.06344 0.9863 0.09611 0.0
Zn1 Zn 0.08344 0.99493 0.02901 0.0
O2 O -0.01093 0.02608 -0.01174 0.0
Zn3 Zn 0.95159 0.94357 0.94373 0.0
Zn4 Zn 0.91049 0.04784 0.02579 0.0
Zn5 Zn 0.00573 0.11341 0.95126 0.0
O6 O 0.91415 0.98432 0.87849 0.0
O7 O 0.0042 0.07633 0.88295 0.0
O8 O 0.12294 0.89368 0.00369 0.0
O9 O 0.03731 0.87121 0.93631 0.0
O10 O 0.87469 0.87796 0.96883 0.0
O11 O 0.84596 0.95242 0.02755 0.0
O12 O 0.84298 0.13825 -0.00197 0.0
O13 O 0.16382 0.07956 0.03215 0.0
O14 O 0.91401 0.1863 0.94858 0.0
O15 O 0.10807 0.16687 0.98065 0.0
C16 C 0.0162 0.02317 0.11767 0.0
C17 C 0.95446 0.02998 0.85846 0.0
C18 C 0.84013 0.88842 0.00396 0.0
C19 C 0.09969 0.85477 0.96489 0.0
C20 C 0.85342 0.18824 0.96753 0.0
C21 C 0.16535 0.1448 0.01233 0.0
O22 O 0.95976 0.06252 0.09493 0.0
O23 O 0.56189 0.49045 0.59357 0.0
Zn24 Zn 0.58028 0.51061 0.52691 0.0
O25 O 0.4827 0.53443 0.48758 0.0
Zn26 Zn 0.44673 0.44598 0.44747 0.0
Zn27 Zn 0.41099 0.55542 0.52953 0.0
Zn28 Zn 0.49066 0.62127 0.44824 0.0
O29 O 0.41171 0.47682 0.3798 0.0
O30 O 0.48843 0.58 0.3806 0.0
O31 O 0.63099 0.42047 0.49772 0.0
O32 O 0.53372 0.3747 0.44231 0.0
O33 O 0.37252 0.38262 0.47601 0.0
O34 O 0.35315 0.4577 0.53698 0.0
O35 O 0.33546 0.63955 0.50207 0.0
O36 O 0.65052 0.60275 0.53084 0.0
O37 O 0.39544 0.68876 0.44698 0.0
O38 O 0.59035 0.68146 0.47513 0.0
C39 C 0.52051 0.5314 0.61722 0.0
C40 C 0.44791 0.52436 0.35827 0.0
C41 C 0.34412 0.39354 0.51363 0.0
C42 C 0.60382 0.37239 0.46404 0.0
C43 C 0.33881 0.68782 0.46936 0.0
C44 C 0.64798 0.6659 0.5084 0.0
O45 O 0.46883 0.578 0.59649 0.0
H46 H 0.95926 0.06264 0.33144 0.0
C47 C -0.00806 0.01311 0.34713 0.0
C48 C 0.03121 0.96471 0.31896 0.0
C49 C 0.00123 1.00225 0.39638 0.0
H50 H 0.10829 0.866 0.31927 0.0
C51 C 0.07732 0.90341 0.34046 0.0
C52 C 0.08778 0.89312 0.38982 0.0
C53 C 0.04801 0.94126 0.41727 0.0
C54 C 0.97585 0.06205 0.42779 0.0
H55 H 0.05683 0.9333 0.45553 0.0
C56 C 0.88566 0.10485 0.41503 0.0
C57 C 0.84816 0.17553 0.44822 0.0
C58 C 0.04182 0.08797 0.4782 0.0
H59 H 0.09879 0.05945 0.48391 0.0
C60 C -0.01611 0.19478 0.52799 0.0
H61 H 0.84806 0.08566 0.38222 0.0
C62 C 0.89196 0.21855 0.50094 0.0
H63 H 0.86113 0.26274 0.51759 0.0
H64 H 0.00764 0.2255 0.56162 0.0
H65 H 0.01095 0.0689 0.64495 0.0
C66 C -0.02005 0.01777 0.62869 0.0
C67 C 0.94216 0.9698 0.65623 0.0
C68 C 0.97146 1.0041 0.57939 0.0
H69 H 0.86906 0.86893 0.6551 0.0
C70 C 0.89834 0.90619 0.63408 0.0
C71 C 0.88827 0.89283 0.58455 0.0
C72 C 0.92686 0.94081 0.55769 0.0
C73 C -0.00425 0.06302 0.54899 0.0
H74 H 0.91985 0.93042 0.51944 0.0
C75 C 0.08505 0.10768 0.56282 0.0
C76 C 0.12116 0.17849 0.53134 0.0
C77 C 0.92924 0.08701 0.49919 0.0
H78 H 0.87293 0.05723 0.49277 0.0
C79 C -0.01504 0.19435 0.45207 0.0
H80 H 0.12318 0.08934 0.59506 0.0
C81 C 0.07634 0.22024 0.47975 0.0
H82 H 0.10629 0.26467 0.46411 0.0
H83 H 0.96058 0.22422 0.41918 0.0
H84 H 0.445 0.54662 0.83141 0.0
C85 C 0.48647 0.50272 0.84622 0.0
C86 C 0.5321 0.46411 0.81709 0.0
C87 C 0.49856 0.4888 0.89528 0.0
H88 H 0.62498 0.3814 0.81575 0.0
C89 C 0.58803 0.40973 0.83755 0.0
C90 C 0.59939 0.3941 0.88639 0.0
C91 C 0.55276 0.43207 0.91464 0.0
C92 C 0.47031 0.5444 0.92828 0.0
H93 H 0.56294 0.42155 0.95267 0.0
C94 C 0.37672 0.58022 0.91884 0.0
C95 C 0.33774 0.64738 0.95395 0.0
C96 C 0.53841 0.575 0.97655 0.0
H97 H 0.59725 0.55104 0.98007 0.0
C98 C 0.47875 0.67644 0.02888 0.0
H99 H 0.33776 0.55846 0.88722 0.0
C100 C 0.38367 0.69338 0.00529 0.0
H101 H 0.35221 0.73512 0.02337 0.0
H102 H 0.50352 0.70874 0.06177 0.0
H103 H 0.52717 0.55105 0.14679 0.0
C104 C 0.49572 0.49974 0.13124 0.0
C105 C 0.46047 0.45135 0.15999 0.0
C106 C 0.48509 0.48528 0.08184 0.0
H107 H 0.38324 0.35402 0.15992 0.0
C108 C 0.41522 0.38804 0.13866 0.0
C109 C 0.40608 0.37154 0.08949 0.0
C110 C 0.44232 0.41982 0.06152 0.0
C111 C 0.5027 0.54571 0.04993 0.0
H112 H 0.43393 0.40843 0.02329 0.0
C113 C 0.58866 0.59708 0.06022 0.0
C114 C 0.61511 0.67102 0.02665 0.0
C115 C 0.43015 0.56507 0.00217 0.0
H116 H 0.37637 0.53121 -0.00196 0.0
C117 C 0.47113 0.6768 0.95207 0.0
H118 H 0.63114 0.58134 0.09126 0.0
C119 C 0.56196 0.70954 0.97622 0.0
H120 H 0.58632 0.75596 0.95888 0.0
H121 H 0.44115 0.70499 0.91976 0.0
C122 C 0.2331 0.27259 0.00964 0.0
C123 C 0.23246 0.19835 0.02911 0.0
C124 C 0.29121 0.32704 0.02807 0.0
C125 C 0.35103 0.30974 0.06684 0.0
H126 H 0.18711 0.28986 0.98076 0.0
H127 H 0.28743 0.38425 0.01301 0.0
S128 S 0.38171 0.12198 0.12791 0.0
N129 N 0.30143 0.10904 0.08749 0.0
N130 N 0.40999 0.21162 0.1217 0.0
C131 C 0.35324 0.23499 0.08538 0.0
C132 C 0.29432 0.17929 0.0666 0.0
C133 C 0.15714 0.72472 0.98239 0.0
C134 C 0.14588 0.78877 0.95266 0.0
C135 C 0.21084 0.66696 0.97585 0.0
C136 C 0.25702 0.67357 0.94072 0.0
H137 H 0.1276 0.72153 0.01245 0.0
H138 H 0.22375 0.62257 0.00243 0.0
S139 S 0.2389 0.82334 0.84877 0.0
N140 N 0.17454 0.84907 0.88192 0.0
N141 N 0.27961 0.74263 0.8716 0.0
C142 C 0.23984 0.73264 0.90757 0.0
C143 C 0.1836 0.79046 0.91341 0.0
C144 C 0.74345 0.83993 0.05087 0.0
C145 C 0.79417 0.82451 0.01878 0.0
C146 C 0.69242 0.78299 0.06087 0.0
C147 C 0.69094 0.70872 0.03953 0.0
H148 H 0.73923 0.89773 0.06592 0.0
H149 H 0.64824 0.79969 0.08122 0.0
S150 S 0.82175 0.63347 0.96101 0.0
N151 N 0.84785 0.72502 0.97192 0.0
N152 N 0.75092 0.6189 -0.00927 0.0
C153 C 0.7469 0.68994 0.01187 0.0
C154 C 0.79854 0.74778 0.00123 0.0
C155 C 0.71424 0.23342 0.95754 0.0
C156 C 0.79088 0.24548 0.95029 0.0
C157 C 0.65267 0.28205 0.93729 0.0
C158 C 0.66527 0.34433 0.90883 0.0
H159 H 0.7011 0.18476 0.9779 0.0
H160 H 0.59447 0.26976 0.943 0.0
S161 S 0.85574 0.40786 0.88409 0.0
N162 N 0.87635 0.32946 0.91604 0.0
N163 N 0.76082 0.42037 0.8784 0.0
C164 C 0.74183 0.3591 0.90296 0.0
C165 C 0.80449 0.30988 0.92356 0.0
C166 C 0.77481 0.70444 0.5606 0.0
C167 C 0.7122 0.72297 0.52353 0.0
C168 C 0.83285 0.75868 0.57892 0.0
C169 C 0.83126 0.83368 0.56083 0.0
H170 H 0.77843 0.64796 0.57657 0.0
H171 H 0.87875 0.74216 0.60809 0.0
S172 S 0.68283 0.91132 0.46259 0.0
N173 N 0.65445 0.82152 0.46813 0.0
N174 N 0.76322 0.92362 0.503 0.0
C175 C 0.77069 0.85252 0.52278 0.0
C176 C 0.71133 0.79722 0.50407 0.0
C177 C 0.71494 0.33879 0.4252 0.0
C178 C 0.6554 0.31467 0.4482 0.0
C179 C 0.77203 0.2865 0.41609 0.0
C180 C 0.77196 0.20949 0.4309 0.0
H181 H 0.71987 0.3992 0.41674 0.0
H182 H 0.82157 0.30878 0.40285 0.0
S183 S 0.62196 0.11653 0.48625 0.0
N184 N 0.59278 0.20745 0.47936 0.0
N185 N 0.70299 0.10975 0.46451 0.0
C186 C 0.70845 0.18325 0.44957 0.0
C187 C 0.64945 0.23609 0.45801 0.0
C188 C 0.30342 0.25468 0.51014 0.0
C189 C 0.30091 0.32963 0.53061 0.0
C190 C 0.25324 0.19637 0.51912 0.0
C191 C 0.1983 0.21152 0.54821 0.0
H192 H 0.34059 0.24218 0.4845 0.0
H193 H 0.25032 0.14273 0.49818 0.0
S194 S 0.18112 0.39038 0.61971 0.0
N195 N 0.24982 0.41007 0.58923 0.0
N196 N 0.15403 0.30018 0.60463 0.0
C197 C 0.20267 0.28194 0.57404 0.0
C198 C 0.25398 0.34153 0.56526 0.0
C199 C 0.2048 0.71032 0.42396 0.0
C200 C 0.27248 0.7397 0.45367 0.0
C201 C 0.14422 0.76 0.40382 0.0
C202 C 0.14908 0.84023 0.4136 0.0
H203 H 0.19986 0.6489 0.41503 0.0
H204 H 0.09374 0.73579 0.38009 0.0
S205 S 0.3136 0.94509 0.4899 0.0
N206 N 0.34094 0.85323 0.49202 0.0
N207 N 0.22632 0.94658 0.45538 0.0
C208 C 0.21574 0.86984 0.44422 0.0
C209 C 0.27778 0.81951 0.46394 0.0
C210 C 0.95473 0.01473 0.18957 0.0
C211 C 0.02248 0.01394 0.16962 0.0
C212 C 0.95805 0.99893 0.23787 0.0
C213 C 0.02929 0.98236 0.26806 0.0
H214 H 0.8983 0.0252 0.16738 0.0
H215 H 0.90422 0.99817 0.25144 0.0
S216 S 0.22455 0.9833 0.23459 0.0
N217 N 0.16338 1.00092 0.18437 0.0
N218 N 0.17015 0.97389 0.27555 0.0
C219 C 0.09787 0.98456 0.24895 0.0
C220 C 0.09432 0.99969 0.19965 0.0
C221 C 0.01655 0.02607 0.78659 0.0
C222 C 0.94888 0.02237 0.80636 0.0
C223 C 0.01391 0.00959 0.7379 0.0
C224 C 0.94337 0.98965 0.70732 0.0
H225 H 0.07241 0.03876 0.80921 0.0
H226 H 0.06775 0.01056 0.72436 0.0
S227 S 0.74828 0.98309 0.74075 0.0
N228 N 0.80875 1.00349 0.7914 0.0
N229 N 0.80292 0.97581 0.69954 0.0
C230 C 0.87472 0.98963 0.72639 0.0
C231 C 0.8777 1.00517 0.77601 0.0
C232 C 0.52688 0.44007 0.68374 0.0
C233 C 0.52485 0.51682 0.66833 0.0
C234 C 0.52699 0.42378 0.73159 0.0
C235 C 0.52643 0.48366 0.76604 0.0
H236 H 0.52679 0.39212 0.65841 0.0
H237 H 0.52749 0.36366 0.7417 0.0
S238 S 0.52722 0.69484 0.744 0.0
N239 N 0.52412 0.65337 0.69078 0.0
N240 N 0.5284 0.62323 0.78146 0.0
C241 C 0.52555 0.5609 0.75105 0.0
C242 C 0.52383 0.57734 0.70202 0.0
C243 C 0.44429 0.5647 0.27411 0.0
C244 C 0.45293 0.50641 0.30816 0.0
C245 C 0.44868 0.54698 0.22632 0.0
C246 C 0.46351 0.47071 0.2114 0.0
H247 H 0.43218 0.6238 0.28422 0.0
H248 H 0.43835 0.5929 0.2007 0.0
S249 S 0.50259 0.30022 0.28904 0.0
N250 N 0.48375 0.3713 0.32505 0.0
N251 N 0.49501 0.33858 0.2359 0.0
C252 C 0.47602 0.41292 0.24587 0.0
C253 C 0.47002 0.43064 0.29409 0.0
loop_
_geom_bond_atom_site_label_1
_geom_bond_atom_site_label_2
_geom_bond_distance
_geom_bond_site_symmetry_2
_ccdc_geom_bond_type
O0 Zn1 1.953 . S
O0 C16 1.225 1_565 S
Zn1 O0 1.953 . S
Zn1 O2 1.949 1_565 S
Zn1 O8 1.919 . S
Zn1 O13 1.924 1_565 S
O2 Zn1 1.949 1_545 S
O2 Zn3 1.923 1_444 S
O2 Zn4 1.950 1_455 S
O2 Zn5 1.945 1_554 S
Zn3 O2 1.923 1_666 S
Zn3 O6 1.933 . S
Zn3 O9 1.941 1_655 S
Zn3 O10 1.965 . S
Zn4 O2 1.950 1_655 S
Zn4 O11 1.938 1_545 S
Zn4 O12 1.906 . S
Zn4 O22 1.953 . S
Zn5 O2 1.945 1_556 S
Zn5 O7 1.932 . S
Zn5 O14 1.977 1_455 S
Zn5 O15 1.910 . S
O6 Zn3 1.933 . S
O6 C17 1.226 1_565 S
O7 Zn5 1.932 . S
O7 C17 1.307 1_455 S
O8 Zn1 1.919 . S
O8 C19 1.253 . S
O9 Zn3 1.941 1_455 S
O9 C19 1.283 1_556 S
O10 Zn3 1.965 . S
O10 C18 1.303 1_556 S
O11 Zn4 1.938 1_565 S
O11 C18 1.247 . S
O12 Zn4 1.906 . S
O12 C20 1.304 1_554 S
O13 Zn1 1.924 1_545 S
O13 C21 1.311 . S
O14 Zn5 1.977 1_655 S
O14 C20 1.272 . S
O15 Zn5 1.910 . S
O15 C21 1.231 1_556 S
C16 O0 1.225 1_545 S
C16 O22 1.298 1_455 S
C17 O6 1.226 1_545 S
C17 O7 1.307 1_655 S
C18 O10 1.303 1_554 S
C18 O11 1.247 . S
C19 O8 1.253 . S
C19 O9 1.283 1_554 S
C20 O12 1.304 1_556 S
C20 O14 1.272 . S
C21 O13 1.311 . S
C21 O15 1.231 1_554 S
O22 Zn4 1.953 . S
O22 C16 1.298 1_655 S
O23 Zn24 1.953 . S
O23 C39 1.225 . S
Zn24 O23 1.953 . S
Zn24 O25 1.949 . S
Zn24 O31 1.919 . S
Zn24 O36 1.924 . S
O25 Zn24 1.949 . S
O25 Zn26 1.923 . S
O25 Zn27 1.950 . S
O25 Zn28 1.945 . S
Zn26 O25 1.923 . S
Zn26 O29 1.933 . S
Zn26 O32 1.941 . S
Zn26 O33 1.965 . S
Zn27 O25 1.950 . S
Zn27 O34 1.938 . S
Zn27 O35 1.906 . S
Zn27 O45 1.953 . S
Zn28 O25 1.945 . S
Zn28 O30 1.932 . S
Zn28 O37 1.977 . S
Zn28 O38 1.910 . S
O29 Zn26 1.933 . S
O29 C40 1.226 . S
O30 Zn28 1.932 . S
O30 C40 1.307 . S
O31 Zn24 1.919 . S
O31 C42 1.253 . S
O32 Zn26 1.941 . S
O32 C42 1.283 . S
O33 Zn26 1.965 . S
O33 C41 1.303 . S
O34 Zn27 1.938 . S
O34 C41 1.247 . S
O35 Zn27 1.906 . S
O35 C43 1.304 . S
O36 Zn24 1.924 . S
O36 C44 1.311 . S
O37 Zn28 1.977 . S
O37 C43 1.272 . S
O38 Zn28 1.910 . S
O38 C44 1.231 . S
C39 O23 1.225 . S
C39 O45 1.298 . S
C40 O29 1.226 . S
C40 O30 1.307 . S
C41 O33 1.303 . S
C41 O34 1.247 . S
C42 O31 1.253 . S
C42 O32 1.283 . S
C43 O35 1.304 . S
C43 O37 1.272 . S
C44 O36 1.311 . S
C44 O38 1.231 . S
O45 Zn27 1.953 . S
O45 C39 1.298 . S
H46 C47 0.949 1_655 S
C47 H46 0.949 1_455 S
C47 C48 1.395 1_545 S
C47 C49 1.391 . S
C48 C47 1.395 1_565 S
C48 C51 1.390 . S
C49 C47 1.391 . S
C49 C53 1.387 1_545 S
C49 C54 1.491 . S
H50 C51 0.950 . S
C51 C48 1.390 . S
C51 H50 0.950 . S
C51 C52 1.378 . S
C52 C51 1.378 . S
C52 C53 1.409 . S
C53 C49 1.387 1_565 S
C53 C52 1.409 . S
C53 H55 0.951 . S
C54 C49 1.491 . S
C54 C56 1.382 1_455 S
C54 C58 1.404 . S
H55 C53 0.951 . S
C56 C54 1.382 1_655 S
C56 C57 1.390 . S
C56 H61 0.949 . S
C57 C56 1.390 . S
C57 C62 1.399 . S
C58 C54 1.404 . S
C58 H59 0.950 . S
C58 C60 1.375 . S
H59 C58 0.950 . S
C60 C58 1.375 . S
C60 C62 1.382 1_455 S
C60 H64 0.950 . S
H61 C56 0.949 . S
C62 C57 1.399 . S
C62 C60 1.382 1_655 S
C62 H63 0.952 . S
H63 C62 0.952 . S
H64 C60 0.950 . S
H65 C66 0.949 . S
C66 H65 0.949 . S
C66 C67 1.395 1_445 S
C66 C68 1.391 1_455 S
C67 C66 1.395 1_665 S
C67 C70 1.390 . S
C68 C66 1.391 1_655 S
C68 C72 1.387 1_545 S
C68 C73 1.491 1_655 S
H69 C70 0.950 . S
C70 C67 1.390 . S
C70 H69 0.950 . S
C70 C71 1.378 . S
C71 C70 1.378 . S
C71 C72 1.409 . S
C72 C68 1.387 1_565 S
C72 C71 1.409 . S
C72 H74 0.951 . S
C73 C68 1.491 1_455 S
C73 C75 1.382 . S
C73 C77 1.404 1_455 S
H74 C72 0.951 . S
C75 C73 1.382 . S
C75 C76 1.390 . S
C75 H80 0.949 . S
C76 C75 1.390 . S
C76 C81 1.399 . S
C77 C73 1.404 1_655 S
C77 H78 0.950 . S
C77 C79 1.375 . S
H78 C77 0.950 . S
C79 C77 1.375 . S
C79 C81 1.382 1_655 S
C79 H83 0.950 . S
H80 C75 0.949 . S
C81 C76 1.399 . S
C81 C79 1.382 1_455 S
C81 H82 0.952 . S
H82 C81 0.952 . S
H83 C79 0.950 . S
H84 C85 0.949 . S
C85 H84 0.949 . S
C85 C86 1.395 . S
C85 C87 1.391 . S
C86 C85 1.395 . S
C86 C89 1.390 . S
C87 C85 1.391 . S
C87 C91 1.387 . S
C87 C92 1.491 . S
H88 C89 0.950 . S
C89 C86 1.390 . S
C89 H88 0.950 . S
C89 C90 1.378 . S
C90 C89 1.378 . S
C90 C91 1.409 . S
C91 C87 1.387 . S
C91 C90 1.409 . S
C91 H93 0.951 . S
C92 C87 1.491 . S
C92 C94 1.382 . S
C92 C96 1.404 1_556 S
H93 C91 0.951 . S
C94 C92 1.382 . S
C94 C95 1.390 . S
C94 H99 0.949 . S
C95 C94 1.390 . S
C95 C100 1.399 1_556 S
C96 C92 1.404 1_554 S
C96 H97 0.950 . S
C96 C98 1.375 . S
H97 C96 0.950 . S
C98 C96 1.375 . S
C98 C100 1.382 . S
C98 H102 0.950 . S
H99 C94 0.949 . S
C100 C95 1.399 1_554 S
C100 C98 1.382 . S
C100 H101 0.952 . S
H101 C100 0.952 . S
H102 C98 0.950 . S
H103 C104 0.949 . S
C104 H103 0.949 . S
C104 C105 1.395 . S
C104 C106 1.391 . S
C105 C104 1.395 . S
C105 C108 1.390 . S
C106 C104 1.391 . S
C106 C110 1.387 . S
C106 C111 1.491 . S
H107 C108 0.950 . S
C108 C105 1.390 . S
C108 H107 0.950 . S
C108 C109 1.378 . S
C109 C108 1.378 . S
C109 C110 1.409 . S
C110 C106 1.387 . S
C110 C109 1.409 . S
C110 H112 0.951 . S
C111 C106 1.491 . S
C111 C113 1.382 . S
C111 C115 1.404 . S
H112 C110 0.951 . S
C113 C111 1.382 . S
C113 C114 1.390 . S
C113 H118 0.949 . S
C114 C113 1.390 . S
C114 C119 1.399 1_554 S
C115 C111 1.404 . S
C115 H116 0.950 1_554 S
C115 C117 1.375 1_554 S
H116 C115 0.950 1_556 S
C117 C115 1.375 1_556 S
C117 C119 1.382 . S
C117 H121 0.950 . S
H118 C113 0.949 . S
C119 C114 1.399 1_556 S
C119 C117 1.382 . S
C119 H120 0.952 . S
H120 C119 0.952 . S
H121 C117 0.950 . S
C122 C123 1.369 . S
C122 C124 1.419 . S
C122 H126 0.930 1_554 S
C123 C122 1.369 . S
C123 C132 1.429 . S
C124 C122 1.419 . S
C124 C125 1.363 . S
C124 H127 0.920 1_554 S
C125 C124 1.363 . S
C125 C131 1.428 . S
H126 C122 0.930 1_556 S
H127 C124 0.920 1_556 S
S128 N129 1.613 . S
S128 N130 1.610 . S
N129 S128 1.613 . S
N129 C132 1.350 . S
N130 S128 1.610 . S
N130 C131 1.351 . S
C131 C125 1.428 . S
C131 N130 1.351 . S
C131 C132 1.434 . S
C132 C123 1.429 . S
C132 N129 1.350 . S
C132 C131 1.434 . S
C133 C134 1.369 1_554 S
C133 C135 1.419 . S
C133 H137 0.930 . S
C134 C133 1.369 1_556 S
C134 C143 1.429 . S
C135 C133 1.419 . S
C135 C136 1.363 1_554 S
C135 H138 0.929 . S
C136 C135 1.363 1_556 S
C136 C142 1.428 . S
H137 C133 0.930 . S
H138 C135 0.929 . S
S139 N140 1.613 . S
S139 N141 1.610 . S
N140 S139 1.613 . S
N140 C143 1.350 . S
N141 S139 1.610 . S
N141 C142 1.351 . S
C142 C136 1.428 . S
C142 N141 1.351 . S
C142 C143 1.434 . S
C143 C134 1.429 . S
C143 N140 1.350 . S
C143 C142 1.434 . S
C144 C145 1.369 . S
C144 C146 1.419 . S
C144 H148 0.930 1_554 S
C145 C144 1.369 . S
C145 C154 1.429 . S
C146 C144 1.419 . S
C146 C147 1.363 . S
C146 H149 0.929 1_554 S
C147 C146 1.363 . S
C147 C153 1.428 . S
H148 C144 0.930 1_556 S
H149 C146 0.929 1_556 S
S150 N151 1.613 . S
S150 N152 1.610 . S
N151 S150 1.613 . S
N151 C154 1.350 . S
N152 S150 1.610 . S
N152 C153 1.351 . S
C153 C147 1.428 . S
C153 N152 1.351 . S
C153 C154 1.434 . S
C154 C145 1.429 . S
C154 N151 1.350 . S
C154 C153 1.434 . S
C155 C156 1.369 . S
C155 C157 1.419 . S
C155 H159 0.930 1_556 S
C156 C155 1.369 . S
C156 C165 1.429 . S
C157 C155 1.419 . S
C157 C158 1.363 . S
C157 H160 0.929 . S
C158 C157 1.363 . S
C158 C164 1.428 . S
H159 C155 0.930 1_554 S
H160 C157 0.929 . S
S161 N162 1.613 . S
S161 N163 1.610 . S
N162 S161 1.613 . S
N162 C165 1.350 . S
N163 S161 1.610 . S
N163 C164 1.351 . S
C164 C158 1.428 . S
C164 N163 1.351 . S
C164 C165 1.434 . S
C165 C156 1.429 . S
C165 N162 1.350 . S
C165 C164 1.434 . S
C166 C167 1.369 . S
C166 C168 1.419 . S
C166 H170 0.930 . S
C167 C166 1.369 . S
C167 C176 1.429 . S
C168 C166 1.419 . S
C168 C169 1.363 . S
C168 H171 0.929 . S
C169 C168 1.363 . S
C169 C175 1.428 . S
H170 C166 0.930 . S
H171 C168 0.929 . S
S172 N173 1.613 . S
S172 N174 1.610 . S
N173 S172 1.613 . S
N173 C176 1.350 . S
N174 S172 1.610 . S
N174 C175 1.351 . S
C175 C169 1.428 . S
C175 N174 1.351 . S
C175 C176 1.434 . S
C176 C167 1.429 . S
C176 N173 1.350 . S
C176 C175 1.434 . S
C177 C178 1.369 . S
C177 C179 1.419 . S
C177 H181 0.930 . S
C178 C177 1.369 . S
C178 C187 1.429 . S
C179 C177 1.419 . S
C179 C180 1.363 . S
C179 H182 0.929 . S
C180 C179 1.363 . S
C180 C186 1.428 . S
H181 C177 0.930 . S
H182 C179 0.929 . S
S183 N184 1.613 . S
S183 N185 1.610 . S
N184 S183 1.613 . S
N184 C187 1.350 . S
N185 S183 1.610 . S
N185 C186 1.351 . S
C186 C180 1.428 . S
C186 N185 1.351 . S
C186 C187 1.434 . S
C187 C178 1.429 . S
C187 N184 1.350 . S
C187 C186 1.434 . S
C188 C189 1.369 . S
C188 C190 1.419 . S
C188 H192 0.930 . S
C189 C188 1.369 . S
C189 C198 1.429 . S
C190 C188 1.419 . S
C190 C191 1.363 . S
C190 H193 0.929 . S
C191 C190 1.363 . S
C191 C197 1.428 . S
H192 C188 0.930 . S
H193 C190 0.929 . S
S194 N195 1.613 . S
S194 N196 1.610 . S
N195 S194 1.613 . S
N195 C198 1.350 . S
N196 S194 1.610 . S
N196 C197 1.351 . S
C197 C191 1.428 . S
C197 N196 1.351 . S
C197 C198 1.434 . S
C198 C189 1.429 . S
C198 N195 1.350 . S
C198 C197 1.434 . S
C199 C200 1.369 . S
C199 C201 1.419 . S
C199 H203 0.930 . S
C200 C199 1.369 . S
C200 C209 1.429 . S
C201 C199 1.419 . S
C201 C202 1.363 . S
C201 H204 0.929 . S
C202 C201 1.363 . S
C202 C208 1.428 . S
H203 C199 0.930 . S
H204 C201 0.929 . S
S205 N206 1.613 . S
S205 N207 1.610 . S
N206 S205 1.613 . S
N206 C209 1.350 . S
N207 S205 1.610 . S
N207 C208 1.351 . S
C208 C202 1.428 . S
C208 N207 1.351 . S
C208 C209 1.434 . S
C209 C200 1.429 . S
C209 N206 1.350 . S
C209 C208 1.434 . S
C210 C211 1.369 1_645 S
C210 C212 1.419 . S
C210 H214 0.930 . S
C211 C210 1.369 1_465 S
C211 C220 1.429 . S
C212 C210 1.419 . S
C212 C213 1.363 1_645 S
C212 H215 0.929 . S
C213 C212 1.363 1_465 S
C213 C219 1.428 . S
H214 C210 0.930 . S
H215 C212 0.929 . S
S216 N217 1.613 . S
S216 N218 1.610 . S
N217 S216 1.613 . S
N217 C220 1.350 . S
N218 S216 1.610 . S
N218 C219 1.351 . S
C219 C213 1.428 . S
C219 N218 1.351 . S
C219 C220 1.434 . S
C220 C211 1.429 . S
C220 N217 1.350 . S
C220 C219 1.434 . S
C221 C222 1.370 1_455 S
C221 C223 1.419 . S
C221 H225 0.930 . S
C222 C221 1.370 1_655 S
C222 C231 1.428 1_545 S
C223 C221 1.419 . S
C223 C224 1.363 1_445 S
C223 H226 0.929 . S
C224 C223 1.363 1_665 S
C224 C230 1.428 . S
H225 C221 0.930 . S
H226 C223 0.929 . S
S227 N228 1.613 . S
S227 N229 1.610 . S
N228 S227 1.613 . S
N228 C231 1.350 . S
N229 S227 1.610 . S
N229 C230 1.351 . S
C230 C224 1.428 . S
C230 N229 1.351 . S
C230 C231 1.434 . S
C231 C222 1.428 1_565 S
C231 N228 1.350 . S
C231 C230 1.434 . S
C232 C233 1.369 . S
C232 C234 1.419 . S
C232 H236 0.930 . S
C233 C232 1.369 . S
C233 C242 1.429 . S
C234 C232 1.419 . S
C234 C235 1.363 . S
C234 H237 0.929 . S
C235 C234 1.363 . S
C235 C241 1.428 . S
H236 C232 0.930 . S
H237 C234 0.929 . S
S238 N239 1.613 . S
S238 N240 1.610 . S
N239 S238 1.613 . S
N239 C242 1.350 . S
N240 S238 1.610 . S
N240 C241 1.351 . S
C241 C235 1.428 . S
C241 N240 1.351 . S
C241 C242 1.434 . S
C242 C233 1.429 . S
C242 N239 1.350 . S
C242 C241 1.434 . S
C243 C244 1.369 . S
C243 C245 1.419 . S
C243 H247 0.930 . S
C244 C243 1.369 . S
C244 C253 1.429 . S
C245 C243 1.419 . S
C245 C246 1.363 . S
C245 H248 0.929 . S
C246 C245 1.363 . S
C246 C252 1.428 . S
H247 C243 0.930 . S
H248 C245 0.929 . S
S249 N250 1.613 . S
S249 N251 1.610 . S
N250 S249 1.613 . S
N250 C253 1.350 . S
N251 S249 1.610 . S
N251 C252 1.351 . S
C252 C246 1.428 . S
C252 N251 1.351 . S
C252 C253 1.434 . S
C253 C244 1.429 . S
C253 N250 1.350 . S
C253 C252 1.434 . S
C125 C109 1.569 . S
C123 C21 1.564 . S
C134 C19 1.439 1_556 S
C136 C95 1.397 . S
C145 C18 1.406 . S
C147 C114 1.382 . S
C156 C20 1.541 . S
C158 C90 1.561 . S
C167 C44 1.560 . S
C169 C71 1.571 . S
C178 C42 1.436 . S
C180 C57 1.398 . S
C191 C76 1.377 . S
C189 C41 1.400 . S
C202 C52 1.563 . S
C200 C43 1.539 . S
C211 C16 1.562 1_565 S
C213 C48 1.554 . S
C222 C17 1.527 . S
C224 C67 1.519 . S
C235 C86 1.555 . S
C233 C39 1.563 . S
C244 C40 1.527 . S
C246 C105 1.519 . S
