# Generated by pormake.
# Topology eea, (3,6)-cn, num edge types: 1
# Building blocks:
#     Node 0, Type 0, BuildingBlock: BELTOD_clean_linker_0, # of connection points: 3
#     Node 1, Type 0, BuildingBlock: BELTOD_clean_linker_0, # of connection points: 3
#     Node 2, Type 0, BuildingBlock: BELTOD_clean_linker_0, # of connection points: 3
#     Node 3, Type 0, BuildingBlock: BELTOD_clean_linker_0, # of connection points: 3
#     Node 4, Type 0, BuildingBlock: BELTOD_clean_linker_0, # of connection points: 3
#     Node 5, Type 0, BuildingBlock: BELTOD_clean_linker_0, # of connection points: 3
#     Node 6, Type 0, BuildingBlock: BELTOD_clean_linker_0, # of connection points: 3
#     Node 7, Type 0, BuildingBlock: BELTOD_clean_linker_0, # of connection points: 3
#     Node 8, Type 0, BuildingBlock: BELTOD_clean_linker_0, # of connection points: 3
#     Node 9, Type 0, BuildingBlock: BELTOD_clean_linker_0, # of connection points: 3
#     Node 10, Type 0, BuildingBlock: BELTOD_clean_linker_0, # of connection points: 3
#     Node 11, Type 0, BuildingBlock: BELTOD_clean_linker_0, # of connection points: 3
#     Node 12, Type 0, BuildingBlock: BELTOD_clean_linker_0, # of connection points: 3
#     Node 13, Type 0, BuildingBlock: BELTOD_clean_linker_0, # of connection points: 3
#     Node 14, Type 0, BuildingBlock: BELTOD_clean_linker_0, # of connection points: 3
#     Node 15, Type 0, BuildingBlock: BELTOD_clean_linker_0, # of connection points: 3
#     Node 16, Type 0, BuildingBlock: BELTOD_clean_linker_0, # of connection points: 3
#     Node 17, Type 0, BuildingBlock: BELTOD_clean_linker_0, # of connection points: 3
#     Node 18, Type 1, BuildingBlock: HISSIN_clean_sbu_0, # of connection points: 6
#     Node 19, Type 1, BuildingBlock: HISSIN_clean_sbu_0, # of connection points: 6
#     Node 20, Type 1, BuildingBlock: HISSIN_clean_sbu_0, # of connection points: 6
#     Node 21, Type 1, BuildingBlock: HISSIN_clean_sbu_0, # of connection points: 6
#     Node 22, Type 1, BuildingBlock: HISSIN_clean_sbu_0, # of connection points: 6
#     Node 23, Type 1, BuildingBlock: HISSIN_clean_sbu_0, # of connection points: 6
#     Node 24, Type 1, BuildingBlock: HISSIN_clean_sbu_0, # of connection points: 6
#     Node 25, Type 1, BuildingBlock: HISSIN_clean_sbu_0, # of connection points: 6
#     Node 26, Type 1, BuildingBlock: HISSIN_clean_sbu_0, # of connection points: 6
#     Edge 27, Type (0, 1), BuildingBlock: CIFDUS_clean_linker_0, # of connection points: 2
#     Edge 28, Type (0, 1), BuildingBlock: CIFDUS_clean_linker_0, # of connection points: 2
#     Edge 29, Type (0, 1), BuildingBlock: CIFDUS_clean_linker_0, # of connection points: 2
#     Edge 30, Type (0, 1), BuildingBlock: CIFDUS_clean_linker_0, # of connection points: 2
#     Edge 31, Type (0, 1), BuildingBlock: CIFDUS_clean_linker_0, # of connection points: 2
#     Edge 32, Type (0, 1), BuildingBlock: CIFDUS_clean_linker_0, # of connection points: 2
#     Edge 33, Type (0, 1), BuildingBlock: CIFDUS_clean_linker_0, # of connection points: 2
#     Edge 34, Type (0, 1), BuildingBlock: CIFDUS_clean_linker_0, # of connection points: 2
#     Edge 35, Type (0, 1), BuildingBlock: CIFDUS_clean_linker_0, # of connection points: 2
#     Edge 36, Type (0, 1), BuildingBlock: CIFDUS_clean_linker_0, # of connection points: 2
#     Edge 37, Type (0, 1), BuildingBlock: CIFDUS_clean_linker_0, # of connection points: 2
#     Edge 38, Type (0, 1), BuildingBlock: CIFDUS_clean_linker_0, # of connection points: 2
#     Edge 39, Type (0, 1), BuildingBlock: CIFDUS_clean_linker_0, # of connection points: 2
#     Edge 40, Type (0, 1), BuildingBlock: CIFDUS_clean_linker_0, # of connection points: 2
#     Edge 41, Type (0, 1), BuildingBlock: CIFDUS_clean_linker_0, # of connection points: 2
#     Edge 42, Type (0, 1), BuildingBlock: CIFDUS_clean_linker_0, # of connection points: 2
#     Edge 43, Type (0, 1), BuildingBlock: CIFDUS_clean_linker_0, # of connection points: 2
#     Edge 44, Type (0, 1), BuildingBlock: CIFDUS_clean_linker_0, # of connection points: 2
#     Edge 45, Type (0, 1), BuildingBlock: CIFDUS_clean_linker_0, # of connection points: 2
#     Edge 46, Type (0, 1), BuildingBlock: CIFDUS_clean_linker_0, # of connection points: 2
#     Edge 47, Type (0, 1), BuildingBlock: CIFDUS_clean_linker_0, # of connection points: 2
#     Edge 48, Type (0, 1), BuildingBlock: CIFDUS_clean_linker_0, # of connection points: 2
#     Edge 49, Type (0, 1), BuildingBlock: CIFDUS_clean_linker_0, # of connection points: 2
#     Edge 50, Type (0, 1), BuildingBlock: CIFDUS_clean_linker_0, # of connection points: 2
#     Edge 51, Type (0, 1), BuildingBlock: CIFDUS_clean_linker_0, # of connection points: 2
#     Edge 52, Type (0, 1), BuildingBlock: CIFDUS_clean_linker_0, # of connection points: 2
#     Edge 53, Type (0, 1), BuildingBlock: CIFDUS_clean_linker_0, # of connection points: 2
#     Edge 54, Type (0, 1), BuildingBlock: CIFDUS_clean_linker_0, # of connection points: 2
#     Edge 55, Type (0, 1), BuildingBlock: CIFDUS_clean_linker_0, # of connection points: 2
#     Edge 56, Type (0, 1), BuildingBlock: CIFDUS_clean_linker_0, # of connection points: 2
#     Edge 57, Type (0, 1), BuildingBlock: CIFDUS_clean_linker_0, # of connection points: 2
#     Edge 58, Type (0, 1), BuildingBlock: CIFDUS_clean_linker_0, # of connection points: 2
#     Edge 59, Type (0, 1), BuildingBlock: CIFDUS_clean_linker_0, # of connection points: 2
#     Edge 60, Type (0, 1), BuildingBlock: CIFDUS_clean_linker_0, # of connection points: 2
#     Edge 61, Type (0, 1), BuildingBlock: CIFDUS_clean_linker_0, # of connection points: 2
#     Edge 62, Type (0, 1), BuildingBlock: CIFDUS_clean_linker_0, # of connection points: 2
#     Edge 63, Type (0, 1), BuildingBlock: CIFDUS_clean_linker_0, # of connection points: 2
#     Edge 64, Type (0, 1), BuildingBlock: CIFDUS_clean_linker_0, # of connection points: 2
#     Edge 65, Type (0, 1), BuildingBlock: CIFDUS_clean_linker_0, # of connection points: 2
#     Edge 66, Type (0, 1), BuildingBlock: CIFDUS_clean_linker_0, # of connection points: 2
#     Edge 67, Type (0, 1), BuildingBlock: CIFDUS_clean_linker_0, # of connection points: 2
#     Edge 68, Type (0, 1), BuildingBlock: CIFDUS_clean_linker_0, # of connection points: 2
#     Edge 69, Type (0, 1), BuildingBlock: CIFDUS_clean_linker_0, # of connection points: 2
#     Edge 70, Type (0, 1), BuildingBlock: CIFDUS_clean_linker_0, # of connection points: 2
#     Edge 71, Type (0, 1), BuildingBlock: CIFDUS_clean_linker_0, # of connection points: 2
#     Edge 72, Type (0, 1), BuildingBlock: CIFDUS_clean_linker_0, # of connection points: 2
#     Edge 73, Type (0, 1), BuildingBlock: CIFDUS_clean_linker_0, # of connection points: 2
#     Edge 74, Type (0, 1), BuildingBlock: CIFDUS_clean_linker_0, # of connection points: 2
#     Edge 75, Type (0, 1), BuildingBlock: CIFDUS_clean_linker_0, # of connection points: 2
#     Edge 76, Type (0, 1), BuildingBlock: CIFDUS_clean_linker_0, # of connection points: 2
#     Edge 77, Type (0, 1), BuildingBlock: CIFDUS_clean_linker_0, # of connection points: 2
#     Edge 78, Type (0, 1), BuildingBlock: CIFDUS_clean_linker_0, # of connection points: 2
#     Edge 79, Type (0, 1), BuildingBlock: CIFDUS_clean_linker_0, # of connection points: 2
#     Edge 80, Type (0, 1), BuildingBlock: CIFDUS_clean_linker_0, # of connection points: 2
# Relax obj value: 0.032
# Max RMSD: 0.128
# Mean RMSD: 0.086
data_MOF--net-eea--node1-HISSIN_clean_sbu_0--node2-BELTOD_clean_linker_0--edge1-CIFDUS_clean_linker_0
_symmetry_space_group_name_H-M    P1
_symmetry_Int_Tables_number       1
_symmetry_cell_setting            triclinic
loop_
_symmetry_equiv_pos_as_xyz
'x, y, z'
_cell_length_a     52.118349
_cell_length_b     52.220561
_cell_length_c     75.703936
_cell_angle_alpha  93.705481
_cell_angle_beta   93.749601
_cell_angle_gamma 119.73818
loop_
_atom_site_label
_atom_site_type_symbol
_atom_site_fract_x
_atom_site_fract_y
_atom_site_fract_z
_atom_type_partial_charge
P0 P 0.32552 0.17504 0.41515 0.0
H1 H 0.3257 0.14452 0.38139 0.0
H2 H 0.29291 0.09391 0.36684 0.0
H3 H 0.23972 0.07377 0.41083 0.0
H4 H 0.27283 0.12405 0.42547 0.0
H5 H 0.34747 0.23234 0.40098 0.0
H6 H 0.32314 0.26024 0.39252 0.0
H7 H 0.24118 0.19269 0.40938 0.0
H8 H 0.2656 0.16503 0.41787 0.0
H9 H 0.34235 0.13978 0.43583 0.0
H10 H 0.32088 0.20876 0.44637 0.0
O11 O 0.35867 0.18951 0.40749 0.0
H12 H 0.34896 0.13723 0.4678 0.0
H13 H 0.32789 0.20667 0.47837 0.0
C14 C 0.30189 0.13783 0.40459 0.0
C15 C 0.3071 0.12915 0.38794 0.0
C16 C 0.28835 0.10034 0.37963 0.0
C17 C 0.2638 0.08008 0.38772 0.0
C18 C 0.25832 0.08908 0.40424 0.0
C19 C 0.27732 0.11771 0.41264 0.0
C20 C 0.30819 0.19637 0.40976 0.0
C21 C 0.3243 0.22356 0.40289 0.0
C22 C 0.31042 0.23955 0.39814 0.0
C23 C 0.28021 0.22847 0.40016 0.0
C24 C 0.26435 0.20149 0.4074 0.0
C25 C 0.2783 0.18567 0.41226 0.0
C26 C 0.33075 0.17413 0.43875 0.0
C27 C 0.33911 0.1544 0.44505 0.0
C28 C 0.34303 0.15309 0.46332 0.0
C29 C 0.33885 0.17168 0.47562 0.0
C30 C 0.3308 0.19172 0.46922 0.0
C31 C 0.3269 0.19301 0.45092 0.0
P32 P 0.90097 0.10879 0.4366 0.0
H33 H 0.89141 0.08314 0.39957 0.0
H34 H 0.84872 0.04164 0.38164 0.0
H35 H 0.79773 0.02598 0.42659 0.0
H36 H 0.84012 0.06838 0.44416 0.0
H37 H 0.96513 0.1467 0.44057 0.0
H38 H 0.99955 0.18215 0.42214 0.0
H39 H 0.92545 0.16928 0.38603 0.0
H40 H 0.89085 0.13418 0.4049 0.0
H41 H 0.92236 0.12382 0.4745 0.0
H42 H 0.85824 0.12977 0.43865 0.0
O43 O 0.91912 0.09272 0.44503 0.0
H44 H 0.90585 0.14083 0.49975 0.0
H45 H 0.84163 0.14719 0.46399 0.0
C46 C 0.86858 0.07979 0.42296 0.0
C47 C 0.87077 0.07138 0.40541 0.0
C48 C 0.84642 0.04729 0.39523 0.0
C49 C 0.81965 0.03051 0.40261 0.0
C50 C 0.81769 0.03883 0.42031 0.0
C51 C 0.84199 0.06313 0.4304 0.0
C52 C 0.92552 0.13721 0.42382 0.0
C53 C 0.95623 0.15163 0.42878 0.0
C54 C 0.97586 0.17194 0.41826 0.0
C55 C 0.96511 0.17815 0.40256 0.0
C56 C 0.93426 0.1645 0.39793 0.0
C57 C 0.91455 0.14452 0.4087 0.0
C58 C 0.89106 0.12493 0.45477 0.0
C59 C 0.90489 0.12908 0.47204 0.0
C60 C 0.89556 0.13905 0.48648 0.0
C61 C 0.87226 0.14518 0.48391 0.0
C62 C 0.85933 0.14224 0.46643 0.0
C63 C 0.86885 0.13242 0.45195 0.0
P64 P 0.86374 0.71758 0.42642 0.0
H65 H 0.80982 0.69228 0.40133 0.0
H66 H 0.77843 0.7116 0.39052 0.0
H67 H 0.83533 0.79458 0.42344 0.0
H68 H 0.86667 0.77479 0.43443 0.0
H69 H 0.88256 0.70359 0.39372 0.0
H70 H 0.92715 0.72974 0.37891 0.0
H71 H 0.9648 0.80105 0.42195 0.0
H72 H 0.91989 0.77405 0.43701 0.0
H73 H 0.82951 0.72362 0.454 0.0
H74 H 0.90524 0.7115 0.45129 0.0
O75 O 0.84709 0.68167 0.41875 0.0
H76 H 0.8288 0.71537 0.48527 0.0
H77 H 0.90462 0.70308 0.48281 0.0
C78 C 0.84043 0.73202 0.41881 0.0
C79 C 0.81555 0.71458 0.40631 0.0
C80 C 0.79769 0.72574 0.40004 0.0
C81 C 0.80441 0.75467 0.40607 0.0
C82 C 0.82939 0.77211 0.41866 0.0
C83 C 0.84737 0.76091 0.42489 0.0
C84 C 0.89817 0.73657 0.41665 0.0
C85 C 0.90053 0.72465 0.40014 0.0
C86 C 0.92597 0.73987 0.39154 0.0
C87 C 0.94958 0.76765 0.39915 0.0
C88 C 0.94719 0.77958 0.4158 0.0
C89 C 0.92156 0.76421 0.42442 0.0
C90 C 0.86796 0.719 0.45036 0.0
C91 C 0.84668 0.72021 0.46026 0.0
C92 C 0.8462 0.71534 0.47821 0.0
C93 C 0.86665 0.70854 0.48657 0.0
C94 C 0.88846 0.7081 0.47674 0.0
C95 C 0.88906 0.71325 0.45879 0.0
P96 P 0.12242 0.27458 0.60442 0.0
H97 H 0.09663 0.24234 0.63449 0.0
H98 H 0.04646 0.21821 0.64331 0.0
H99 H 0.01453 0.23671 0.59434 0.0
H100 H 0.06449 0.25938 0.58525 0.0
H101 H 0.18482 0.30235 0.61836 0.0
H102 H 0.2167 0.28261 0.62768 0.0
H103 H 0.14237 0.19335 0.61515 0.0
H104 H 0.11047 0.21339 0.60591 0.0
H105 H 0.10834 0.3104 0.58198 0.0
H106 H 0.1467 0.25407 0.57615 0.0
O107 O 0.13563 0.30758 0.61621 0.0
H108 H 0.11943 0.32448 0.55193 0.0
H109 H 0.15863 0.26887 0.54645 0.0
C110 C 0.08438 0.25224 0.60906 0.0
C111 C 0.07869 0.24047 0.62542 0.0
C112 C 0.04997 0.22705 0.63057 0.0
C113 C 0.02632 0.22571 0.61965 0.0
C114 C 0.032 0.23695 0.60304 0.0
C115 C 0.06075 0.25011 0.59782 0.0
C116 C 0.14512 0.25936 0.61192 0.0
C117 C 0.1753 0.27853 0.61778 0.0
C118 C 0.19358 0.2672 0.62293 0.0
C119 C 0.18207 0.23639 0.62221 0.0
C120 C 0.1518 0.21718 0.61612 0.0
C121 C 0.13354 0.22859 0.61086 0.0
C122 C 0.12664 0.28118 0.58137 0.0
C123 C 0.11872 0.30071 0.57416 0.0
C124 C 0.12511 0.30879 0.55703 0.0
C125 C 0.14009 0.29792 0.54697 0.0
C126 C 0.14731 0.27776 0.55402 0.0
C127 C 0.14039 0.26925 0.571 0.0
P128 P 0.79825 0.8852 0.58905 0.0
H129 H 0.80744 0.90169 0.62772 0.0
H130 H 0.80807 0.94226 0.64586 0.0
H131 H 0.78733 0.97297 0.59823 0.0
H132 H 0.78538 0.93142 0.58024 0.0
H133 H 0.83214 0.85473 0.59091 0.0
H134 H 0.82823 0.81474 0.60753 0.0
H135 H 0.75208 0.8094 0.6303 0.0
H136 H 0.75599 0.84963 0.61338 0.0
H137 H 0.79929 0.86395 0.55283 0.0
H138 H 0.736 0.87078 0.58384 0.0
O139 O 0.8318 0.90208 0.58188 0.0
H140 H 0.76294 0.84486 0.52643 0.0
H141 H 0.69922 0.85143 0.55739 0.0
C142 C 0.79537 0.91295 0.60267 0.0
C143 C 0.80212 0.91657 0.6212 0.0
C144 C 0.80289 0.94009 0.63157 0.0
C145 C 0.79771 0.96089 0.62352 0.0
C146 C 0.79079 0.95703 0.60491 0.0
C147 C 0.78976 0.93333 0.59459 0.0
C148 C 0.79474 0.85548 0.60123 0.0
C149 C 0.81463 0.84506 0.59948 0.0
C150 C 0.81226 0.82208 0.6089 0.0
C151 C 0.78988 0.80907 0.62021 0.0
C152 C 0.76968 0.81929 0.6218 0.0
C153 C 0.77188 0.84214 0.61215 0.0
C154 C 0.77057 0.86959 0.57008 0.0
C155 C 0.77749 0.86125 0.55394 0.0
C156 C 0.75657 0.85003 0.53891 0.0
C157 C 0.72825 0.84678 0.53981 0.0
C158 C 0.721 0.85407 0.55625 0.0
C159 C 0.74196 0.86515 0.57133 0.0
P160 P 0.12681 0.82823 0.60327 0.0
H161 H 0.17806 0.86518 0.62977 0.0
H162 H 0.205 0.91825 0.63975 0.0
H163 H 0.14339 0.92979 0.60485 0.0
H164 H 0.11647 0.87638 0.59483 0.0
H165 H 0.10499 0.80602 0.63652 0.0
H166 H 0.05526 0.78072 0.64624 0.0
H167 H 0.01811 0.78749 0.59524 0.0
H168 H 0.0681 0.81329 0.58568 0.0
H169 H 0.16499 0.86794 0.57884 0.0
H170 H 0.09114 0.77838 0.57554 0.0
O171 O 0.14512 0.8127 0.61225 0.0
H172 H 0.16763 0.8617 0.54706 0.0
H173 H 0.09406 0.77175 0.54351 0.0
C174 C 0.14536 0.86695 0.61153 0.0
C175 C 0.1702 0.87904 0.62433 0.0
C176 C 0.18554 0.90938 0.63007 0.0
C177 C 0.17632 0.92818 0.62305 0.0
C178 C 0.15117 0.91589 0.61034 0.0
C179 C 0.13568 0.88543 0.60472 0.0
C180 C 0.09005 0.81058 0.61019 0.0
C181 C 0.08614 0.80207 0.62743 0.0
C182 C 0.05778 0.78787 0.63302 0.0
C183 C 0.03282 0.78194 0.62144 0.0
C184 C 0.03694 0.79142 0.60434 0.0
C185 C 0.06544 0.80601 0.59885 0.0
C186 C 0.12715 0.82397 0.57949 0.0
C187 C 0.14898 0.84703 0.57125 0.0
C188 C 0.15076 0.8433 0.55306 0.0
C189 C 0.13105 0.81622 0.54275 0.0
C190 C 0.10927 0.79302 0.55105 0.0
C191 C 0.10756 0.79679 0.56933 0.0
P192 P 0.99843 0.49725 0.74255 0.0
H193 H 0.00335 0.46349 0.71196 0.0
H194 H 0.97474 0.41109 0.70031 0.0
H195 H 0.92229 0.39337 0.74471 0.0
H196 H 0.95205 0.44549 0.75666 0.0
H197 H 0.01172 0.55787 0.73951 0.0
H198 H 0.98177 0.57871 0.72802 0.0
H199 H 0.90564 0.49027 0.71661 0.0
H200 H 0.93551 0.46971 0.72775 0.0
H201 H 0.04016 0.49227 0.76732 0.0
H202 H 0.97025 0.51335 0.77033 0.0
O203 O 0.03117 0.51434 0.73441 0.0
H204 H 0.0486 0.49795 0.79982 0.0
H205 H 0.97911 0.51997 0.80282 0.0
C206 C 0.98013 0.4582 0.73531 0.0
C207 C 0.98612 0.44815 0.71937 0.0
C208 C 0.96944 0.41823 0.7126 0.0
C209 C 0.94601 0.39792 0.72149 0.0
C210 C 0.94044 0.40816 0.73765 0.0
C211 C 0.95743 0.438 0.74451 0.0
C212 C 0.97608 0.51227 0.73425 0.0
C213 C 0.9886 0.54303 0.73446 0.0
C214 C 0.97142 0.55488 0.72801 0.0
C215 C 0.94138 0.53608 0.72129 0.0
C216 C 0.92884 0.50529 0.7214 0.0
C217 C 0.94599 0.49351 0.72787 0.0
C218 C 0.005 0.50291 0.76645 0.0
C219 C 0.0269 0.49852 0.77501 0.0
C220 C 0.03176 0.50188 0.79358 0.0
C221 C 0.01469 0.50965 0.80395 0.0
C222 C 0.99251 0.51378 0.79526 0.0
C223 C 0.98761 0.51028 0.77665 0.0
P224 P 0.57911 0.43353 0.77592 0.0
H225 H 0.57346 0.3865 0.75055 0.0
H226 H 0.53134 0.34611 0.73148 0.0
H227 H 0.47503 0.38006 0.74809 0.0
H228 H 0.51733 0.42019 0.76744 0.0
H229 H 0.6409 0.47712 0.78675 0.0
H230 H 0.67954 0.51543 0.77177 0.0
H231 H 0.61584 0.49351 0.72571 0.0
H232 H 0.57729 0.45459 0.74077 0.0
H233 H 0.55356 0.40961 0.80801 0.0
H234 H 0.57591 0.48819 0.78227 0.0
O235 O 0.59577 0.41671 0.78528 0.0
H236 H 0.53737 0.42846 0.83262 0.0
H237 H 0.55911 0.5071 0.80676 0.0
C238 C 0.54837 0.40595 0.76062 0.0
C239 C 0.55208 0.38533 0.75 0.0
C240 C 0.52799 0.36236 0.739 0.0
C241 C 0.49972 0.35972 0.73832 0.0
C242 C 0.49638 0.38118 0.74853 0.0
C243 C 0.52057 0.40419 0.75955 0.0
C244 C 0.60641 0.46282 0.76479 0.0
C245 C 0.63524 0.4806 0.77344 0.0
C246 C 0.65727 0.50264 0.76488 0.0
C247 C 0.65083 0.50758 0.7475 0.0
C248 C 0.62164 0.49002 0.73898 0.0
C249 C 0.59955 0.46786 0.7476 0.0
C250 C 0.56646 0.44776 0.79354 0.0
C251 C 0.5549 0.43094 0.80766 0.0
C252 C 0.54538 0.44165 0.82165 0.0
C253 C 0.54695 0.46934 0.8217 0.0
C254 C 0.55799 0.48589 0.80726 0.0
C255 C 0.56754 0.47509 0.79324 0.0
P256 P 0.52918 0.05843 0.75857 0.0
H257 H 0.46774 0.04278 0.76081 0.0
H258 H 0.4372 0.06246 0.74868 0.0
H259 H 0.51402 0.13192 0.72844 0.0
H260 H 0.54455 0.11239 0.74081 0.0
H261 H 0.58959 0.0944 0.77801 0.0
H262 H 0.63923 0.11491 0.76812 0.0
H263 H 0.59935 0.08173 0.71371 0.0
H264 H 0.54999 0.06159 0.72369 0.0
H265 H 0.54788 0.02489 0.77968 0.0
H266 H 0.51024 0.08106 0.7891 0.0
O267 O 0.51106 0.0243 0.7477 0.0
H268 H 0.54183 0.01189 0.81014 0.0
H269 H 0.50293 0.06723 0.81936 0.0
C270 C 0.50843 0.0761 0.75177 0.0
C271 C 0.47814 0.06258 0.75405 0.0
C272 C 0.46071 0.07388 0.74713 0.0
C273 C 0.47318 0.09868 0.73754 0.0
C274 C 0.50374 0.11261 0.73563 0.0
C275 C 0.52124 0.10149 0.74276 0.0
C276 C 0.56609 0.07616 0.7516 0.0
C277 C 0.59155 0.09169 0.76396 0.0
C278 C 0.61993 0.10332 0.75828 0.0
C279 C 0.62333 0.09985 0.74011 0.0
C280 C 0.59766 0.08511 0.72776 0.0
C281 C 0.56938 0.07339 0.73346 0.0
C282 C 0.52915 0.05358 0.782 0.0
C283 C 0.53851 0.03461 0.78837 0.0
C284 C 0.53475 0.02698 0.80576 0.0
C285 C 0.52133 0.03802 0.81718 0.0
C286 C 0.51339 0.05831 0.81101 0.0
C287 C 0.51736 0.06609 0.7936 0.0
P288 P 0.79888 0.60523 0.93686 0.0
H289 H 0.77748 0.60821 0.97105 0.0
H290 H 0.72791 0.59004 0.98032 0.0
H291 H 0.68889 0.54847 0.92682 0.0
H292 H 0.73865 0.56674 0.91761 0.0
H293 H 0.84305 0.59569 0.92005 0.0
H294 H 0.87361 0.57512 0.92992 0.0
H295 H 0.82942 0.55313 0.97766 0.0
H296 H 0.7976 0.5722 0.96712 0.0
H297 H 0.81413 0.6575 0.91827 0.0
H298 H 0.78344 0.56479 0.90398 0.0
O299 O 0.81908 0.63866 0.94846 0.0
H300 H 0.81826 0.6662 0.88712 0.0
H301 H 0.78669 0.57312 0.8725 0.0
C302 C 0.76187 0.58909 0.94361 0.0
C303 C 0.75827 0.59494 0.96133 0.0
C304 C 0.72988 0.58442 0.96664 0.0
C305 C 0.70442 0.56789 0.95429 0.0
C306 C 0.70807 0.56144 0.9366 0.0
C307 C 0.73656 0.5718 0.93133 0.0
C308 C 0.81731 0.5848 0.94255 0.0
C309 C 0.83908 0.58549 0.93233 0.0
C310 C 0.85703 0.57415 0.93819 0.0
C311 C 0.85434 0.56269 0.95473 0.0
C312 C 0.83196 0.56136 0.96475 0.0
C313 C 0.81369 0.57236 0.95873 0.0
C314 C 0.79892 0.61057 0.9135 0.0
C315 C 0.80799 0.6389 0.9084 0.0
C316 C 0.81011 0.64381 0.89049 0.0
C317 C 0.80294 0.6204 0.87723 0.0
C318 C 0.79286 0.59176 0.88236 0.0
C319 C 0.7908 0.5869 0.90033 0.0
P320 P 0.48751 0.2396 0.92112 0.0
H321 H 0.52776 0.30339 0.92292 0.0
H322 H 0.52468 0.34589 0.93558 0.0
H323 H 0.44228 0.28642 0.9558 0.0
H324 H 0.44555 0.24391 0.9431 0.0
H325 H 0.46272 0.17608 0.91226 0.0
H326 H 0.45277 0.13589 0.93044 0.0
H327 H 0.48083 0.19772 0.9781 0.0
H328 H 0.49186 0.23794 0.95978 0.0
H329 H 0.49498 0.25566 0.88497 0.0
H330 H 0.42286 0.20193 0.91487 0.0
O331 O 0.52133 0.24986 0.9153 0.0
H332 H 0.45935 0.24594 0.85923 0.0
H333 H 0.38697 0.19231 0.8892 0.0
C334 C 0.48729 0.27064 0.93249 0.0
C335 C 0.50933 0.29951 0.93035 0.0
C336 C 0.50738 0.32373 0.93742 0.0
C337 C 0.4832 0.31937 0.94663 0.0
C338 C 0.4613 0.29037 0.94893 0.0
C339 C 0.46319 0.26614 0.94174 0.0
C340 C 0.4773 0.20978 0.93469 0.0
C341 C 0.46628 0.18085 0.92663 0.0
C342 C 0.46044 0.15787 0.93706 0.0
C343 C 0.46579 0.16355 0.95574 0.0
C344 C 0.47662 0.19263 0.96375 0.0
C345 C 0.48265 0.21561 0.95329 0.0
C346 C 0.46154 0.22881 0.90159 0.0
C347 C 0.47148 0.24134 0.88588 0.0
C348 C 0.45109 0.23609 0.87127 0.0
C349 C 0.42038 0.21844 0.87224 0.0
C350 C 0.4105 0.20571 0.88801 0.0
C351 C 0.43096 0.21109 0.90264 0.0
P352 P 0.78646 0.16293 0.9431 0.0
H353 H 0.8482 0.19284 0.9591 0.0
H354 H 0.88332 0.24423 0.9712 0.0
H355 H 0.81665 0.26819 0.95811 0.0
H356 H 0.78131 0.21649 0.94627 0.0
H357 H 0.76555 0.17678 0.97521 0.0
H358 H 0.7163 0.15637 0.9853 0.0
H359 H 0.67766 0.09914 0.93567 0.0
H360 H 0.72686 0.12041 0.92546 0.0
H361 H 0.78885 0.20127 0.91568 0.0
H362 H 0.78235 0.11596 0.91792 0.0
O363 O 0.79812 0.14133 0.95166 0.0
H364 H 0.79185 0.19756 0.88373 0.0
H365 H 0.78423 0.11153 0.88578 0.0
C366 C 0.81204 0.20081 0.95205 0.0
C367 C 0.84103 0.20906 0.95894 0.0
C368 C 0.86109 0.23841 0.96582 0.0
C369 C 0.85263 0.2601 0.96561 0.0
C370 C 0.82376 0.25191 0.95832 0.0
C371 C 0.80356 0.22242 0.95167 0.0
C372 C 0.7498 0.15068 0.94941 0.0
C373 C 0.74639 0.16036 0.96633 0.0
C374 C 0.71822 0.14839 0.97217 0.0
C375 C 0.69297 0.12605 0.96131 0.0
C376 C 0.69651 0.11666 0.94426 0.0
C377 C 0.7247 0.12878 0.9384 0.0
C378 C 0.78625 0.15928 0.91928 0.0
C379 C 0.78796 0.18167 0.90932 0.0
C380 C 0.78933 0.17936 0.89095 0.0
C381 C 0.78861 0.15438 0.88219 0.0
C382 C 0.78555 0.13138 0.89216 0.0
C383 C 0.78437 0.13383 0.91053 0.0
P384 P 0.65901 0.84572 0.06809 0.0
H385 H 0.6769 0.80243 0.05799 0.0
H386 H 0.6485 0.74957 0.04697 0.0
H387 H 0.56671 0.75148 0.04852 0.0
H388 H 0.59521 0.80423 0.05933 0.0
H389 H 0.64012 0.8839 0.08678 0.0
H390 H 0.61219 0.90714 0.07619 0.0
H391 H 0.60636 0.87018 0.02228 0.0
H392 H 0.63526 0.84801 0.03293 0.0
H393 H 0.7078 0.88662 0.09501 0.0
H394 H 0.62055 0.80974 0.09382 0.0
O395 O 0.69219 0.86159 0.06044 0.0
H396 H 0.71546 0.88806 0.12737 0.0
H397 H 0.62836 0.81028 0.12593 0.0
C398 C 0.63819 0.80733 0.05906 0.0
C399 C 0.65288 0.7915 0.05574 0.0
C400 C 0.63662 0.76129 0.04958 0.0
C401 C 0.60536 0.74641 0.0468 0.0
C402 C 0.59076 0.76243 0.05021 0.0
C403 C 0.60704 0.79259 0.0564 0.0
C404 C 0.63954 0.86407 0.06062 0.0
C405 C 0.63296 0.88092 0.07268 0.0
C406 C 0.61675 0.89401 0.06661 0.0
C407 C 0.60682 0.89037 0.04839 0.0
C408 C 0.61391 0.87375 0.03636 0.0
C409 C 0.6303 0.86092 0.04243 0.0
C410 C 0.66393 0.84766 0.09198 0.0
C411 C 0.69036 0.86997 0.10171 0.0
C412 C 0.69473 0.87067 0.12019 0.0
C413 C 0.67266 0.84907 0.12926 0.0
C414 C 0.64576 0.82739 0.11945 0.0
C415 C 0.64137 0.82685 0.10101 0.0
P416 P 0.24902 0.77618 0.11507 0.0
H417 H 0.24656 0.72336 0.0981 0.0
H418 H 0.20762 0.67958 0.07947 0.0
H419 H 0.14705 0.71283 0.08507 0.0
H420 H 0.18625 0.7566 0.10402 0.0
H421 H 0.2977 0.83727 0.12171 0.0
H422 H 0.32963 0.87199 0.10195 0.0
H423 H 0.27413 0.81056 0.05625 0.0
H424 H 0.24276 0.77585 0.07601 0.0
H425 H 0.24453 0.76309 0.15177 0.0
H426 H 0.22428 0.81618 0.11854 0.0
O427 O 0.27409 0.76808 0.1237 0.0
H428 H 0.22862 0.78042 0.1772 0.0
H429 H 0.20802 0.83367 0.14417 0.0
C430 C 0.21908 0.74287 0.10276 0.0
C431 C 0.22479 0.72105 0.09556 0.0
C432 C 0.20259 0.69618 0.08473 0.0
C433 C 0.17426 0.69276 0.08074 0.0
C434 C 0.16854 0.71466 0.08807 0.0
C435 C 0.19089 0.73965 0.09891 0.0
C436 C 0.26776 0.80405 0.10041 0.0
C437 C 0.29203 0.83161 0.10743 0.0
C438 C 0.31025 0.85145 0.09609 0.0
C439 C 0.30457 0.84396 0.07749 0.0
C440 C 0.27939 0.81683 0.0705 0.0
C441 C 0.26123 0.79702 0.08185 0.0
C442 C 0.23622 0.78889 0.13339 0.0
C443 C 0.23678 0.77863 0.14997 0.0
C444 C 0.22771 0.78859 0.16452 0.0
C445 C 0.21747 0.80874 0.16275 0.0
C446 C 0.21588 0.8182 0.14592 0.0
C447 C 0.22528 0.80837 0.13133 0.0
P448 P 0.20834 0.39078 0.09232 0.0
H449 H 0.16708 0.37706 0.06044 0.0
H450 H 0.1346 0.39586 0.05101 0.0
H451 H 0.16722 0.45775 0.09886 0.0
H452 H 0.19928 0.43803 0.10847 0.0
H453 H 0.26287 0.39095 0.10413 0.0
H454 H 0.31296 0.41636 0.09501 0.0
H455 H 0.28755 0.4653 0.06104 0.0
H456 H 0.23742 0.43958 0.0701 0.0
H457 H 0.16099 0.34305 0.1081 0.0
H458 H 0.24479 0.42161 0.12682 0.0
O459 O 0.19598 0.35832 0.08005 0.0
H460 H 0.15416 0.3301 0.13852 0.0
H461 H 0.23808 0.40884 0.15748 0.0
C462 C 0.18529 0.40586 0.08528 0.0
C463 C 0.16725 0.39462 0.06895 0.0
C464 C 0.14882 0.40563 0.06348 0.0
C465 C 0.14822 0.42839 0.07415 0.0
C466 C 0.16678 0.43995 0.09042 0.0
C467 C 0.18522 0.42883 0.0959 0.0
C468 C 0.24654 0.41386 0.08819 0.0
C469 C 0.26829 0.40771 0.09508 0.0
C470 C 0.29696 0.42225 0.08981 0.0
C471 C 0.30436 0.44293 0.07728 0.0
C472 C 0.28258 0.44935 0.07059 0.0
C473 C 0.25393 0.43487 0.07595 0.0
C474 C 0.2037 0.38289 0.11514 0.0
C475 C 0.17795 0.35754 0.1188 0.0
C476 C 0.17396 0.35028 0.13624 0.0
C477 C 0.19564 0.36833 0.15047 0.0
C478 C 0.22117 0.3942 0.1468 0.0
C479 C 0.22504 0.40156 0.12929 0.0
P480 P 0.45564 0.93666 0.28077 0.0
H481 H 0.41078 0.9541 0.27789 0.0
H482 H 0.35987 0.93129 0.28568 0.0
H483 H 0.36358 0.85316 0.2973 0.0
H484 H 0.41468 0.87638 0.28979 0.0
H485 H 0.47511 0.90009 0.26087 0.0
H486 H 0.50171 0.87488 0.27049 0.0
H487 H 0.50199 0.90344 0.32541 0.0
H488 H 0.47518 0.92832 0.31568 0.0
H489 H 0.5069 0.98288 0.26679 0.0
H490 H 0.42031 0.91037 0.24568 0.0
O491 O 0.47103 0.96842 0.29422 0.0
H492 H 0.51806 0.9959 0.23677 0.0
H493 H 0.43149 0.92295 0.21538 0.0
C494 C 0.4166 0.91711 0.28343 0.0
C495 C 0.40043 0.93187 0.28185 0.0
C496 C 0.37125 0.9187 0.28623 0.0
C497 C 0.35767 0.89044 0.29227 0.0
C498 C 0.37354 0.87513 0.29299 0.0
C499 C 0.40276 0.88836 0.2886 0.0
C500 C 0.4737 0.91654 0.28758 0.0
C501 C 0.48089 0.90092 0.27497 0.0
C502 C 0.49616 0.88657 0.28049 0.0
C503 C 0.50416 0.88733 0.29871 0.0
C504 C 0.49599 0.90223 0.31129 0.0
C505 C 0.48085 0.91665 0.30575 0.0
C506 C 0.4626 0.94607 0.25846 0.0
C507 C 0.49022 0.96984 0.25565 0.0
C508 C 0.49667 0.97707 0.23845 0.0
C509 C 0.47568 0.96044 0.22364 0.0
C510 C 0.44798 0.93643 0.22651 0.0
C511 C 0.44157 0.92919 0.2438 0.0
P512 P 0.13255 0.57282 0.26786 0.0
H513 H 0.12367 0.57989 0.30571 0.0
H514 H 0.11426 0.61515 0.32247 0.0
H515 H 0.11559 0.65655 0.27453 0.0
H516 H 0.12257 0.61972 0.25771 0.0
H517 H 0.17415 0.55178 0.2747 0.0
H518 H 0.17139 0.51128 0.2904 0.0
H519 H 0.0833 0.48804 0.30289 0.0
H520 H 0.08586 0.52852 0.28675 0.0
H521 H 0.14348 0.56321 0.23142 0.0
H522 H 0.06831 0.54686 0.25947 0.0
O523 O 0.16737 0.59393 0.26315 0.0
H524 H 0.11113 0.54326 0.20336 0.0
H525 H 0.03544 0.526 0.23142 0.0
C526 C 0.12307 0.59674 0.28034 0.0
C527 C 0.12092 0.59589 0.29868 0.0
C528 C 0.11596 0.61644 0.30834 0.0
C529 C 0.11403 0.63877 0.29992 0.0
C530 C 0.11606 0.63927 0.28147 0.0
C531 C 0.12037 0.61837 0.2718 0.0
C532 C 0.1304 0.54339 0.27983 0.0
C533 C 0.15427 0.53815 0.28086 0.0
C534 C 0.15268 0.515 0.28979 0.0
C535 C 0.12721 0.49681 0.29788 0.0
C536 C 0.10326 0.50206 0.2969 0.0
C537 C 0.10469 0.52501 0.28767 0.0
C538 C 0.10831 0.55694 0.24741 0.0
C539 C 0.11994 0.55518 0.23153 0.0
C540 C 0.10134 0.54349 0.21552 0.0
C541 C 0.07067 0.53304 0.21514 0.0
C542 C 0.05901 0.53423 0.23122 0.0
C543 C 0.07771 0.54601 0.24725 0.0
P544 P 0.46249 0.48951 0.27505 0.0
H545 H 0.46561 0.52693 0.3065 0.0
H546 H 0.49117 0.58073 0.31414 0.0
H547 H 0.52474 0.5929 0.26276 0.0
H548 H 0.49837 0.53948 0.25503 0.0
H549 H 0.42886 0.43036 0.28595 0.0
H550 H 0.37916 0.40244 0.29537 0.0
H551 H 0.36609 0.47699 0.28914 0.0
H552 H 0.41595 0.50484 0.27974 0.0
H553 H 0.50172 0.48192 0.25228 0.0
H554 H 0.41715 0.47835 0.24585 0.0
O555 O 0.48446 0.47901 0.28538 0.0
H556 H 0.50098 0.47579 0.22003 0.0
H557 H 0.41558 0.471 0.21353 0.0
C558 C 0.4795 0.52912 0.28007 0.0
C559 C 0.47804 0.54124 0.29678 0.0
C560 C 0.49291 0.57201 0.30118 0.0
C561 C 0.50999 0.59121 0.28904 0.0
C562 C 0.51132 0.57887 0.2723 0.0
C563 C 0.49629 0.54815 0.26788 0.0
C564 C 0.42633 0.46989 0.28262 0.0
C565 C 0.4154 0.44078 0.28677 0.0
C566 C 0.38691 0.42477 0.292 0.0
C567 C 0.36879 0.43759 0.29306 0.0
C568 C 0.37974 0.46673 0.28872 0.0
C569 C 0.40822 0.48266 0.28338 0.0
C570 C 0.45928 0.48008 0.25144 0.0
C571 C 0.48258 0.47896 0.24391 0.0
C572 C 0.48204 0.47534 0.22543 0.0
C573 C 0.45814 0.47278 0.21414 0.0
C574 C 0.43445 0.47318 0.22181 0.0
C575 C 0.43516 0.47707 0.24031 0.0
Eu576 Eu 0.4789 0.98821 1.00059 0.0
Eu577 Eu 0.50439 0.02095 0.04186 0.0
C578 C 0.48379 0.05036 0.01306 0.0
C579 C 0.46888 0.97796 0.95002 0.0
C580 C 0.45183 0.96121 0.93408 0.0
C581 C 0.5013 0.01751 0.9331 0.0
C582 C 0.45949 0.97248 0.91773 0.0
C583 C 0.49356 0.00626 0.94943 0.0
C584 C 0.48443 0.00073 0.917 0.0
C585 C 0.46119 0.96569 0.96716 0.0
O586 O 0.45445 0.99608 0.03953 0.0
O587 O 0.44478 0.95871 0.01798 0.0
C588 C 0.43707 0.96899 0.03175 0.0
O589 O 0.5065 0.97028 0.01283 0.0
O590 O 0.50228 0.04652 0.06507 0.0
O591 O 0.53389 0.031 0.06631 0.0
O592 O 0.49739 0.97487 0.04157 0.0
C593 C 0.50641 0.96346 0.0292 0.0
O594 O 0.52294 0.02902 0.99866 0.0
O595 O 0.54484 0.03523 0.02714 0.0
O596 O 0.50463 0.05571 0.02583 0.0
O597 O 0.4823 0.96472 0.97677 0.0
O598 O 0.44709 0.9752 0.97676 0.0
O599 O 0.46636 0.0235 1.00492 0.0
C600 C 0.51188 0.03177 0.09232 0.0
C601 C 0.48422 0.00621 0.09298 0.0
C602 C 0.52239 0.03515 0.12436 0.0
C603 C 0.47563 0.99527 0.10927 0.0
C604 C 0.53088 0.04615 0.10809 0.0
C605 C 0.49468 0.00956 0.12515 0.0
C606 C 0.52136 0.04315 0.07525 0.0
C607 C 0.54671 0.04004 0.01029 0.0
H608 H 0.43264 0.93938 0.93427 0.0
H609 H 0.52083 0.03916 0.93309 0.0
H610 H 0.44569 0.95911 0.90566 0.0
H611 H 0.50702 0.01954 0.9616 0.0
H612 H 0.46935 0.99466 0.08089 0.0
H613 H 0.5374 0.04686 0.13637 0.0
H614 H 0.4543 0.97536 0.10941 0.0
H615 H 0.55233 0.06586 0.1078 0.0
Eu616 Eu 0.01263 0.49866 0.99511 0.0
Eu617 Eu 0.97959 0.4788 0.03149 0.0
C618 C 0.95897 0.43327 0.9961 0.0
C619 C 0.02972 0.51339 0.94687 0.0
C620 C 0.00482 0.48847 0.93742 0.0
C621 C 0.04128 0.53672 0.91953 0.0
C622 C 0.99853 0.48749 0.91907 0.0
C623 C 0.04765 0.5376 0.93784 0.0
C624 C 0.01691 0.51147 0.90986 0.0
C625 C 0.038 0.51429 0.96596 0.0
O626 O 0.0242 0.48215 0.03762 0.0
O627 O 0.03242 0.4744 1.00892 0.0
C628 C 0.03811 0.47501 0.02617 0.0
O629 O 0.0438 0.53336 0.01728 0.0
O630 O 0.96044 0.44619 0.05033 0.0
O631 O 0.9599 0.4873 0.05415 0.0
O632 O 0.00912 0.52846 0.03585 0.0
C633 C 0.03577 0.54369 0.0308 0.0
O634 O 0.98041 0.51559 0.99566 0.0
O635 O 0.94666 0.4821 0.01222 0.0
O636 O 0.96578 0.43718 0.01341 0.0
O637 O 0.03414 0.53213 0.97689 0.0
O638 O 0.03041 0.48894 0.97203 0.0
O639 O 0.96975 0.45576 0.98658 0.0
C640 C 0.96893 0.46829 0.0796 0.0
C641 C 0.99947 0.4788 0.08322 0.0
C642 C 0.96416 0.46689 0.11124 0.0
C643 C 0.01225 0.48309 0.1007 0.0
C644 C 0.95132 0.4624 0.09367 0.0
C645 C 0.99474 0.47714 0.1149 0.0
C646 C 0.95573 0.46352 0.06113 0.0
C647 C 0.95372 0.50201 1.0009 0.0
H648 H 0.99054 0.46956 0.94415 0.0
H649 H 0.05555 0.5558 0.91294 0.0
H650 H 0.97975 0.4676 0.91203 0.0
H651 H 0.06684 0.5571 0.94494 0.0
H652 H 0.01345 0.48372 0.07251 0.0
H653 H 0.95016 0.46204 0.12194 0.0
H654 H 0.03594 0.49148 0.10312 0.0
H655 H 0.92771 0.4543 0.09107 0.0
Eu656 Eu 0.51365 0.50482 0.03223 0.0
Eu657 Eu 0.49208 0.51987 0.99408 0.0
C658 C 0.52981 0.57067 0.02533 0.0
C659 C 0.51698 0.48624 0.08034 0.0
C660 C 0.51779 0.50813 0.09256 0.0
C661 C 0.49515 0.45032 0.10163 0.0
C662 C 0.50757 0.50125 0.10915 0.0
C663 C 0.5055 0.45725 0.08503 0.0
C664 C 0.49626 0.47231 0.11394 0.0
C665 C 0.52918 0.49372 0.0631 0.0
O666 O 0.54012 0.53237 0.99253 0.0
O667 O 0.54745 0.50719 0.0144 0.0
C668 C 0.55583 0.52212 1.00053 0.0
O669 O 0.48196 0.46115 0.01594 0.0
O670 O 0.5002 0.54796 0.97246 0.0
O671 O 0.45812 0.50712 0.97169 0.0
O672 O 0.49224 0.4774 0.98866 0.0
C673 C 0.4829 0.45595 0.99888 0.0
O674 O 0.47346 0.50821 0.03755 0.0
O675 O 0.45128 0.49835 1.00883 0.0
O676 O 0.50589 0.55957 0.01387 0.0
O677 O 0.51574 0.47363 0.04942 0.0
O678 O 0.53727 0.52032 0.05893 0.0
O679 O 0.54041 0.55401 0.0307 0.0
C680 C 0.47932 0.51886 0.94471 0.0
C681 C 0.47895 0.49191 0.94132 0.0
C682 C 0.48898 0.52847 0.91412 0.0
C683 C 0.48327 0.48319 0.92449 0.0
C684 C 0.48441 0.53712 0.93101 0.0
C685 C 0.48834 0.50134 0.91069 0.0
C686 C 0.47575 0.52835 0.96271 0.0
C687 C 0.44996 0.50003 0.02615 0.0
H688 H 0.52676 0.53078 0.08948 0.0
H689 H 0.48636 0.42777 0.10485 0.0
H690 H 0.50934 0.51888 0.11841 0.0
H691 H 0.50479 0.43998 0.07592 0.0
H692 H 0.47555 0.47764 0.95174 0.0
H693 H 0.49277 0.54287 0.90372 0.0
H694 H 0.4832 0.46243 0.92238 0.0
H695 H 0.48503 0.55811 0.9334 0.0
Eu696 Eu 0.14855 0.30587 0.32824 0.0
Eu697 Eu 0.17295 0.3506 0.36636 0.0
C698 C 0.14609 0.36581 0.33198 0.0
C699 C 0.1361 0.28686 0.27836 0.0
C700 C 0.12529 0.30514 0.27249 0.0
C701 C 0.15733 0.28952 0.2503 0.0
C702 C 0.13024 0.31526 0.2557 0.0
C703 C 0.15215 0.27915 0.26707 0.0
C704 C 0.14632 0.30761 0.2444 0.0
C705 C 0.13177 0.27681 0.2964 0.0
O706 O 0.13381 0.30773 0.3711 0.0
O707 O 0.10821 0.29239 0.34328 0.0
C708 C 0.10879 0.29288 0.36068 0.0
O709 O 0.15904 0.28088 0.3478 0.0
O710 O 0.16447 0.3747 0.38761 0.0
O711 O 0.20529 0.37331 0.38998 0.0
O712 O 0.19393 0.32184 0.36634 0.0
C713 C 0.18185 0.29369 0.3602 0.0
O714 O 0.19813 0.33669 0.32868 0.0
O715 O 0.20664 0.37657 0.34811 0.0
O716 O 0.14662 0.36559 0.34935 0.0
O717 O 0.1555 0.28138 0.30624 0.0
O718 O 0.11462 0.28276 0.30556 0.0
O719 O 0.15277 0.34889 0.32217 0.0
C720 C 0.18142 0.36955 0.41591 0.0
C721 C 0.16064 0.33975 0.4173 0.0
C722 C 0.18786 0.37952 0.4482 0.0
C723 C 0.15276 0.33011 0.43392 0.0
C724 C 0.19525 0.38935 0.43146 0.0
C725 C 0.16615 0.34993 0.4495 0.0
C726 C 0.18769 0.37984 0.39819 0.0
C727 C 0.21479 0.36467 0.33542 0.0
H728 H 0.11316 0.31188 0.28089 0.0
H729 H 0.1696 0.28305 0.24184 0.0
H730 H 0.12179 0.32947 0.25166 0.0
H731 H 0.16082 0.2652 0.27127 0.0
H732 H 0.15023 0.324 0.4055 0.0
H733 H 0.19848 0.39517 0.46007 0.0
H734 H 0.13623 0.30712 0.43461 0.0
H735 H 0.21145 0.4124 0.43065 0.0
Eu736 Eu 0.67296 0.81898 0.31859 0.0
Eu737 Eu 0.64698 0.81734 0.3572 0.0
C738 C 0.61939 0.76004 0.32911 0.0
C739 C 0.68566 0.82278 0.2691 0.0
C740 C 0.69692 0.81251 0.25584 0.0
C741 C 0.66214 0.83761 0.24636 0.0
C742 C 0.69111 0.815 0.23796 0.0
C743 C 0.66788 0.83499 0.26426 0.0
C744 C 0.67401 0.82797 0.23301 0.0
C745 C 0.6938 0.82171 0.28786 0.0
O746 O 0.68749 0.81284 0.36348 0.0
O747 O 0.69125 0.79635 0.33536 0.0
C748 C 0.69815 0.80048 0.35274 0.0
O749 O 0.70871 0.85659 0.33764 0.0
O750 O 0.61393 0.79467 0.37549 0.0
O751 O 0.64959 0.83983 0.38301 0.0
O752 O 0.67692 0.86494 0.35273 0.0
C753 C 0.70354 0.87426 0.34794 0.0
O754 O 0.64533 0.84101 0.31575 0.0
O755 O 0.61463 0.82029 0.33739 0.0
O756 O 0.63029 0.77032 0.34577 0.0
O757 O 0.7003 0.84492 0.29885 0.0
O758 O 0.67772 0.79686 0.29453 0.0
O759 O 0.62774 0.77778 0.31653 0.0
C760 C 0.63321 0.80908 0.40577 0.0
C761 C 0.65713 0.8043 0.40941 0.0
C762 C 0.62394 0.80536 0.43673 0.0
C763 C 0.66491 0.80084 0.42672 0.0
C764 C 0.61627 0.80896 0.41941 0.0
C765 C 0.64882 0.80202 0.44068 0.0
C766 C 0.62737 0.81656 0.3882 0.0
C767 C 0.62105 0.83457 0.32318 0.0
H768 H 0.71056 0.8029 0.25934 0.0
H769 H 0.64906 0.84787 0.24303 0.0
H770 H 0.70007 0.8068 0.228 0.0
H771 H 0.65892 0.84298 0.27435 0.0
H772 H 0.67047 0.80438 0.399 0.0
H773 H 0.61084 0.80592 0.44712 0.0
H774 H 0.68441 0.79869 0.4293 0.0
H775 H 0.59767 0.81254 0.41677 0.0
Eu776 Eu 0.17063 0.84537 0.36035 0.0
Eu777 Eu 0.13914 0.85556 0.32408 0.0
C778 C 0.18566 0.90914 0.35105 0.0
C779 C 0.18681 0.8319 0.40783 0.0
C780 C 0.16357 0.83442 0.4145 0.0
C781 C 0.19747 0.81837 0.4363 0.0
C782 C 0.15778 0.82966 0.43212 0.0
C783 C 0.20332 0.82329 0.41871 0.0
C784 C 0.17509 0.82218 0.44335 0.0
C785 C 0.19526 0.84 0.39003 0.0
O786 O 0.18486 0.86552 0.31803 0.0
O787 O 0.19662 0.84157 0.33874 0.0
C788 C 0.20128 0.85465 0.32408 0.0
O789 O 0.1332 0.80041 0.34898 0.0
O790 O 0.14168 0.8841 0.3036 0.0
O791 O 0.10404 0.83956 0.30187 0.0
O792 O 0.13367 0.81014 0.31993 0.0
C793 C 0.12676 0.79137 0.33189 0.0
O794 O 0.13258 0.85004 0.36928 0.0
O795 O 0.1033 0.83913 0.34265 0.0
O796 O 0.15843 0.89721 0.34322 0.0
O797 O 0.1823 0.8189 0.37682 0.0
O798 O 0.19712 0.86475 0.38604 0.0
O799 O 0.19734 0.89255 0.35432 0.0
C800 C 0.1262 0.85593 0.27569 0.0
C801 C 0.1409 0.83964 0.27421 0.0
C802 C 0.12912 0.86218 0.24418 0.0
C803 C 0.14976 0.83476 0.25795 0.0
C804 C 0.12023 0.86709 0.26057 0.0
C805 C 0.14433 0.84624 0.24275 0.0
C806 C 0.1192 0.86254 0.29335 0.0
C807 C 0.10683 0.84192 0.36019 0.0
H808 H 0.15055 0.84101 0.40625 0.0
H809 H 0.21086 0.81212 0.44449 0.0
H810 H 0.14059 0.83306 0.43713 0.0
H811 H 0.22123 0.82108 0.41372 0.0
H812 H 0.14589 0.83095 0.28574 0.0
H813 H 0.12476 0.87146 0.23275 0.0
H814 H 0.16089 0.82193 0.2573 0.0
H815 H 0.10916 0.87996 0.2615 0.0
Eu816 Eu 0.82336 0.62928 0.65929 0.0
Eu817 Eu 0.83855 0.6735 0.69707 0.0
C818 C 0.81142 0.68377 0.66071 0.0
C819 C 0.82241 0.61098 0.61066 0.0
C820 C 0.84031 0.64155 0.60968 0.0
C821 C 0.82064 0.60204 0.57859 0.0
C822 C 0.84832 0.65232 0.59329 0.0
C823 C 0.81268 0.59129 0.59504 0.0
C824 C 0.83847 0.63273 0.57749 0.0
C825 C 0.81342 0.60004 0.62795 0.0
O826 O 0.80248 0.62811 0.70126 0.0
O827 O 0.78096 0.60942 0.67259 0.0
C828 C 0.77961 0.60957 0.68987 0.0
O829 O 0.83731 0.6085 0.68011 0.0
O830 O 0.82222 0.69265 0.71669 0.0
O831 O 0.86722 0.70086 0.72114 0.0
O832 O 0.86474 0.65005 0.70029 0.0
C833 C 0.85754 0.62307 0.69383 0.0
O834 O 0.87126 0.66547 0.6606 0.0
O835 O 0.87369 0.70249 0.68025 0.0
O836 O 0.81044 0.68371 0.67799 0.0
O837 O 0.83503 0.60498 0.63992 0.0
O838 O 0.7944 0.60627 0.63457 0.0
O839 O 0.82186 0.66921 0.65193 0.0
C840 C 0.84068 0.69456 0.74615 0.0
C841 C 0.82839 0.66474 0.74929 0.0
C842 C 0.84026 0.70786 0.77742 0.0
C843 C 0.8219 0.65648 0.76638 0.0
C844 C 0.84671 0.71607 0.76031 0.0
C845 C 0.82757 0.67793 0.78065 0.0
C846 C 0.84601 0.7031 0.72801 0.0
C847 C 0.88458 0.69327 0.66775 0.0
H848 H 0.84798 0.65713 0.62162 0.0
H849 H 0.81234 0.58635 0.56669 0.0
H850 H 0.86238 0.67601 0.59302 0.0
H851 H 0.79871 0.56764 0.59553 0.0
H852 H 0.82344 0.64779 0.73846 0.0
H853 H 0.84532 0.72499 0.78813 0.0
H854 H 0.81184 0.63323 0.76833 0.0
H855 H 0.85618 0.73918 0.75812 0.0
Eu856 Eu 0.32902 0.15746 0.66584 0.0
Eu857 Eu 0.29402 0.14707 0.70171 0.0
C858 C 0.27455 0.09412 0.67073 0.0
C859 C 0.35039 0.16605 0.61795 0.0
C860 C 0.32135 0.15018 0.60923 0.0
C861 C 0.36922 0.18267 0.58995 0.0
C862 C 0.31631 0.15043 0.59087 0.0
C863 C 0.37421 0.18232 0.60824 0.0
C864 C 0.34023 0.16665 0.58102 0.0
C865 C 0.35641 0.16652 0.63719 0.0
O866 O 0.33703 0.14927 0.71105 0.0
O867 O 0.3485 0.13725 0.68408 0.0
C868 C 0.35203 0.14037 0.70162 0.0
O869 O 0.3604 0.19531 0.68629 0.0
O870 O 0.27358 0.12029 0.72307 0.0
O871 O 0.27166 0.16035 0.72054 0.0
O872 O 0.32658 0.19624 0.70379 0.0
C873 C 0.35322 0.20891 0.69848 0.0
O874 O 0.29855 0.17638 0.66221 0.0
O875 O 0.26321 0.1469 0.67942 0.0
O876 O 0.28028 0.10211 0.68794 0.0
O877 O 0.35579 0.1874 0.64723 0.0
O878 O 0.34364 0.14105 0.6437 0.0
O879 O 0.28613 0.11375 0.65936 0.0
C880 C 0.27981 0.1496 0.74928 0.0
C881 C 0.30991 0.17111 0.75346 0.0
C882 C 0.27564 0.14325 0.78062 0.0
C883 C 0.32289 0.17843 0.77105 0.0
C884 C 0.26261 0.13593 0.76293 0.0
C885 C 0.30604 0.16431 0.78481 0.0
C886 C 0.26754 0.13954 0.73059 0.0
C887 C 0.27158 0.16491 0.667 0.0
H888 H 0.30266 0.13762 0.61659 0.0
H889 H 0.38806 0.19584 0.58286 0.0
H890 H 0.29376 0.13767 0.58437 0.0
H891 H 0.39673 0.19491 0.61484 0.0
H892 H 0.32363 0.18153 0.74302 0.0
H893 H 0.26209 0.13213 0.79096 0.0
H894 H 0.34648 0.19427 0.77375 0.0
H895 H 0.23939 0.11907 0.75985 0.0
Eu896 Eu 0.8368 0.15916 0.69935 0.0
Eu897 Eu 0.81462 0.17267 0.66091 0.0
C898 C 0.84688 0.22279 0.69449 0.0
C899 C 0.84601 0.1469 0.74816 0.0
C900 C 0.81733 0.13951 0.75207 0.0
C901 C 0.86176 0.15268 0.77973 0.0
C902 C 0.81082 0.13837 0.76973 0.0
C903 C 0.86817 0.15363 0.76208 0.0
C904 C 0.83295 0.1448 0.78377 0.0
C905 C 0.85322 0.14754 0.7297 0.0
O906 O 0.85616 0.17087 0.65656 0.0
O907 O 0.87799 0.18372 0.68543 0.0
C908 C 0.87979 0.18113 0.66822 0.0
O909 O 0.83073 0.12344 0.67857 0.0
O910 O 0.81877 0.20396 0.64196 0.0
O911 O 0.78683 0.15744 0.63529 0.0
O912 O 0.79395 0.1231 0.66039 0.0
C913 C 0.80829 0.10997 0.66605 0.0
O914 O 0.78774 0.14253 0.69962 0.0
O915 O 0.78038 0.16929 0.67887 0.0
O916 O 0.84565 0.21655 0.67726 0.0
O917 O 0.83249 0.12739 0.71784 0.0
O918 O 0.86692 0.17361 0.72399 0.0
O919 O 0.83677 0.20176 0.70503 0.0
C920 C 0.81244 0.1839 0.61224 0.0
C921 C 0.83847 0.18241 0.61142 0.0
C922 C 0.80867 0.18514 0.58017 0.0
C923 C 0.84952 0.1822 0.59514 0.0
C924 C 0.79762 0.18533 0.59654 0.0
C925 C 0.83475 0.1835 0.57928 0.0
C926 C 0.80061 0.18332 0.62942 0.0
C927 C 0.77178 0.15296 0.69219 0.0
H928 H 0.79992 0.13438 0.74148 0.0
H929 H 0.87948 0.15834 0.79021 0.0
H930 H 0.78836 0.13197 0.77235 0.0
H931 H 0.89048 0.1596 0.75929 0.0
H932 H 0.85016 0.18117 0.62338 0.0
H933 H 0.7969 0.18643 0.56825 0.0
H934 H 0.86933 0.1804 0.59496 0.0
H935 H 0.77747 0.18649 0.59693 0.0
H936 H 0.33337 0.90434 0.07948 0.0
H937 H 0.32425 0.82716 0.04877 0.0
H938 H 0.36246 0.85891 0.03072 0.0
H939 H 0.40139 0.90872 0.02518 0.0
H940 H 0.41147 0.98564 0.05683 0.0
H941 H 0.37025 0.95393 0.07293 0.0
C942 C 0.33972 0.89446 0.06883 0.0
C943 C 0.32599 0.8634 0.06557 0.0
C944 C 0.36208 0.91284 0.05868 0.0
C945 C 0.33417 0.85099 0.05149 0.0
C946 C 0.35622 0.86915 0.04122 0.0
C947 C 0.39428 0.91855 0.03541 0.0
C948 C 0.40967 0.94953 0.0398 0.0
C949 C 0.37069 0.90012 0.04488 0.0
C950 C 0.4002 0.96187 0.05319 0.0
C951 C 0.3766 0.94375 0.06246 0.0
H952 H 0.13569 0.43838 0.04062 0.0
H953 H 0.115 0.44343 0.09456 0.0
H954 H 0.07998 0.45929 0.08469 0.0
H955 H 0.05367 0.46979 0.06048 0.0
H956 H 0.07365 0.46299 1.00647 0.0
H957 H 0.11003 0.44931 0.01664 0.0
C958 C 0.12339 0.44272 0.05024 0.0
C959 C 0.12796 0.43952 0.06831 0.0
C960 C 0.10294 0.45136 0.04444 0.0
C961 C 0.11224 0.44596 0.08059 0.0
C962 C 0.092 0.45482 0.07493 0.0
C963 C 0.06602 0.4654 0.05092 0.0
C964 C 0.06072 0.46735 0.03269 0.0
C965 C 0.08696 0.45735 0.05685 0.0
C966 C 0.07705 0.46158 0.02056 0.0
C967 C 0.09796 0.45376 0.02636 0.0
H968 H 0.61445 0.70328 0.05859 0.0
H969 H 0.55702 0.71718 0.02168 0.0
H970 H 0.52792 0.66389 0.01215 0.0
H971 H 0.5193 0.61347 0.01403 0.0
H972 H 0.57748 0.60003 0.05071 0.0
H973 H 0.60588 0.65306 0.06048 0.0
C974 C 0.59576 0.69468 0.04832 0.0
C975 C 0.58798 0.71415 0.04081 0.0
C976 C 0.57923 0.66411 0.04287 0.0
C977 C 0.56332 0.7026 0.02778 0.0
C978 C 0.54674 0.67217 0.02227 0.0
C979 C 0.53811 0.62211 0.02421 0.0
C980 C 0.54623 0.60276 0.03159 0.0
C981 C 0.55451 0.65271 0.02973 0.0
C982 C 0.57074 0.61438 0.04474 0.0
C983 C 0.58704 0.64474 0.05035 0.0
H984 H 0.86751 0.31114 0.95077 0.0
H985 H 0.88485 0.27795 0.99812 0.0
H986 H 0.9194 0.3286 0.0116 0.0
H987 H 0.94419 0.38201 0.01009 0.0
H988 H 0.92855 0.416 0.96258 0.0
H989 H 0.89386 0.36529 0.94894 0.0
C990 C 0.87883 0.31512 0.96406 0.0
C991 C 0.87367 0.29095 0.97349 0.0
C992 C 0.89893 0.34433 0.97165 0.0
C993 C 0.88868 0.29625 0.99059 0.0
C994 C 0.90833 0.32516 0.99831 0.0
C995 C 0.93319 0.37841 0.99675 0.0
C996 C 0.93879 0.40276 0.98741 0.0
C997 C 0.91357 0.34933 0.98898 0.0
C998 C 0.92463 0.39762 0.97005 0.0
C999 C 0.90474 0.36865 0.96227 0.0
H1000 H 0.68233 0.54392 0.98455 0.0
H1001 H 0.65901 0.57113 0.93637 0.0
H1002 H 0.61082 0.55887 0.94617 0.0
H1003 H 0.57604 0.54223 0.96899 0.0
H1004 H 0.59953 0.5148 0.0171 0.0
H1005 H 0.64686 0.52554 1.00681 0.0
C1006 C 0.66671 0.54721 0.97621 0.0
C1007 C 0.67436 0.55855 0.95979 0.0
C1008 C 0.63909 0.54023 0.98196 0.0
C1009 C 0.65363 0.5622 0.949 0.0
C1010 C 0.62613 0.55539 0.95465 0.0
C1011 C 0.5915 0.5386 0.97724 0.0
C1012 C 0.58421 0.5279 0.99387 0.0
C1013 C 0.61873 0.54467 0.9712 0.0
C1014 C 0.60445 0.52302 1.00426 0.0
C1015 C 0.63161 0.5292 0.9984 0.0
H1016 H 0.50233 0.16784 0.98446 0.0
H1017 H 0.42118 0.10543 0.95146 0.0
H1018 H 0.41844 0.06502 0.9673 0.0
H1019 H 0.4411 0.04708 0.98893 0.0
H1020 H 0.52211 0.10968 0.02203 0.0
H1021 H 0.52233 0.15056 1.00804 0.0
C1022 C 0.48364 0.14554 0.98098 0.0
C1023 C 0.46214 0.13964 0.96668 0.0
C1024 C 0.48219 0.12246 0.99013 0.0
C1025 C 0.43833 0.11049 0.9622 0.0
C1026 C 0.43667 0.08739 0.9713 0.0
C1027 C 0.45865 0.06969 0.99324 0.0
C1028 C 0.48172 0.07527 1.00637 0.0
C1029 C 0.45883 0.09305 0.98502 0.0
C1030 C 0.50411 0.10473 0.01191 0.0
C1031 C 0.50434 0.12813 1.00387 0.0
H1032 H 0.68055 0.11015 0.99459 0.0
H1033 H 0.63868 0.10893 0.94318 0.0
H1034 H 0.58983 0.08259 0.95387 0.0
H1035 H 0.55905 0.05912 0.97761 0.0
H1036 H 0.60115 0.06114 0.02917 0.0
H1037 H 0.64996 0.08859 0.01868 0.0
C1038 C 0.66082 0.10461 0.98579 0.0
C1039 C 0.66335 0.11152 0.96809 0.0
C1040 C 0.63284 0.08962 0.99204 0.0
C1041 C 0.6374 0.10357 0.95679 0.0
C1042 C 0.60946 0.08863 0.96292 0.0
C1043 C 0.57887 0.0656 0.9866 0.0
C1044 C 0.57635 0.05792 1.00415 0.0
C1045 C 0.60691 0.08135 0.98048 0.0
C1046 C 0.60236 0.06672 0.0156 0.0
C1047 C 0.63032 0.08239 1.00961 0.0
H1048 H 0.84438 0.51689 0.97453 0.0
H1049 H 0.91391 0.59001 0.95163 0.0
H1050 H 0.95008 0.57722 0.96342 0.0
H1051 H 0.96255 0.54614 0.98061 0.0
H1052 H 0.89415 0.47428 1.00485 0.0
H1053 H 0.85725 0.48616 0.99247 0.0
C1054 C 0.86746 0.53018 0.97222 0.0
C1055 C 0.87613 0.55422 0.96196 0.0
C1056 C 0.8885 0.52308 0.97938 0.0
C1057 C 0.90623 0.57094 0.95903 0.0
C1058 C 0.92711 0.56384 0.96594 0.0
C1059 C 0.93958 0.533 0.98322 0.0
C1060 C 0.93122 0.50932 0.99366 0.0
C1061 C 0.91853 0.54002 0.97614 0.0
C1062 C 0.90131 0.49269 0.99691 0.0
C1063 C 0.88015 0.49943 0.98979 0.0
H1064 H 0.4701 0.33068 0.97939 0.0
H1065 H 0.49033 0.36553 0.92879 0.0
H1066 H 0.48925 0.40974 0.94017 0.0
H1067 H 0.48583 0.43961 0.96483 0.0
H1068 H 0.4672 0.40625 0.01597 0.0
H1069 H 0.46373 0.35989 1.0039 0.0
C1070 C 0.4739 0.34783 0.97084 0.0
C1071 C 0.48062 0.3451 0.95337 0.0
C1072 C 0.47352 0.37333 0.97753 0.0
C1073 C 0.48566 0.36747 0.9424 0.0
C1074 C 0.48489 0.39263 0.94885 0.0
C1075 C 0.48068 0.42215 0.97335 0.0
C1076 C 0.47699 0.4265 0.99132 0.0
C1077 C 0.47937 0.39599 0.96647 0.0
C1078 C 0.47022 0.40351 1.0021 0.0
C1079 C 0.46836 0.37705 0.99522 0.0
H1080 H 0.11561 0.65846 0.08501 0.0
H1081 H 0.18085 0.66814 0.0497 0.0
H1082 H 0.14364 0.62346 0.03089 0.0
H1083 H 0.09307 0.58081 0.02495 0.0
H1084 H 0.02766 0.57098 0.06024 0.0
H1085 H 0.06433 0.61672 0.07837 0.0
C1086 C 0.12157 0.65099 0.07308 0.0
C1087 C 0.15102 0.6665 0.06886 0.0
C1088 C 0.10005 0.62522 0.0623 0.0
C1089 C 0.15846 0.65634 0.05343 0.0
C1090 C 0.13716 0.63087 0.04261 0.0
C1091 C 0.08673 0.58871 0.03654 0.0
C1092 C 0.05763 0.57235 0.0412 0.0
C1093 C 0.10797 0.61496 0.04701 0.0
C1094 C 0.04989 0.58304 0.05629 0.0
C1095 C 0.07087 0.60922 0.06672 0.0
H1096 H 0.31731 0.45197 0.04305 0.0
H1097 H 0.35865 0.4644 0.09659 0.0
H1098 H 0.40724 0.48396 0.08561 0.0
H1099 H 0.43781 0.49606 0.06074 0.0
H1100 H 0.39647 0.48337 1.00712 0.0
H1101 H 0.34825 0.46587 0.01827 0.0
C1102 C 0.33699 0.45938 0.05237 0.0
C1103 C 0.33422 0.45662 0.07065 0.0
C1104 C 0.36493 0.47054 0.04594 0.0
C1105 C 0.36 0.4659 0.08245 0.0
C1106 C 0.38785 0.47722 0.07618 0.0
C1107 C 0.41833 0.48968 0.05146 0.0
C1108 C 0.42092 0.49103 0.03307 0.0
C1109 C 0.39055 0.47937 0.05794 0.0
C1110 C 0.39528 0.48256 0.02132 0.0
C1111 C 0.36762 0.47249 0.02768 0.0
H1112 H 0.56308 0.8941 0.06422 0.0
H1113 H 0.61079 0.91689 0.01788 0.0
H1114 H 0.58186 0.93889 1.00711 0.0
H1115 H 0.54479 0.95378 0.01147 0.0
H1116 H 0.4994 0.93421 0.05874 0.0
H1117 H 0.52581 0.90897 0.06857 0.0
C1118 C 0.56737 0.90412 0.05185 0.0
C1119 C 0.58913 0.9038 0.0419 0.0
C1120 C 0.55105 0.91728 0.04588 0.0
C1121 C 0.59393 0.91641 0.02571 0.0
C1122 C 0.57751 0.92917 0.01957 0.0
C1123 C 0.54036 0.94365 0.02381 0.0
C1124 C 0.52009 0.94574 0.03433 0.0
C1125 C 0.55615 0.92988 0.02959 0.0
C1126 C 0.51492 0.93288 0.05041 0.0
C1127 C 0.53006 0.91852 0.05606 0.0
H1128 H 0.01177 0.2329 0.41269 0.0
H1129 H 0.96628 0.16849 0.36671 0.0
H1130 H 0.0057 0.19944 0.34878 0.0
H1131 H 0.05586 0.24301 0.34717 0.0
H1132 H 0.09999 0.3067 0.39378 0.0
H1133 H 0.0586 0.27795 0.41041 0.0
C1134 C 0.01041 0.2258 0.39869 0.0
C1135 C 0.98646 0.19843 0.39105 0.0
C1136 C 0.03314 0.24346 0.38862 0.0
C1137 C 0.98458 0.1896 0.37285 0.0
C1138 C 0.0072 0.20718 0.36265 0.0
C1139 C 0.05614 0.25069 0.36088 0.0
C1140 C 0.08136 0.27654 0.36936 0.0
C1141 C 0.03199 0.23389 0.37051 0.0
C1142 C 0.08131 0.28639 0.38709 0.0
C1143 C 0.05753 0.27007 0.39662 0.0
H1144 H 0.78251 0.74934 0.3717 0.0
H1145 H 0.78399 0.78665 0.42453 0.0
H1146 H 0.75142 0.80441 0.41279 0.0
H1147 H 0.7216 0.80832 0.38748 0.0
H1148 H 0.72057 0.77043 0.33478 0.0
H1149 H 0.75354 0.75369 0.34659 0.0
C1150 C 0.77555 0.76118 0.38069 0.0
C1151 C 0.78552 0.76648 0.39898 0.0
C1152 C 0.75679 0.77117 0.37388 0.0
C1153 C 0.7768 0.78244 0.41037 0.0
C1154 C 0.75804 0.79245 0.40368 0.0
C1155 C 0.72857 0.7964 0.37857 0.0
C1156 C 0.71845 0.79064 0.36024 0.0
C1157 C 0.74776 0.7868 0.38545 0.0
C1158 C 0.7279 0.77525 0.34893 0.0
C1159 C 0.74681 0.76561 0.35566 0.0
H1160 H 0.28177 0.0425 0.37564 0.0
H1161 H 0.20319 0.04848 0.38166 0.0
H1162 H 0.17168 0.99626 0.36959 0.0
H1163 H 0.16669 0.94825 0.35867 0.0
H1164 H 0.24578 0.94225 0.35455 0.0
H1165 H 0.27689 0.99514 0.36434 0.0
C1166 C 0.25774 0.03242 0.37406 0.0
C1167 C 0.24473 0.04916 0.37942 0.0
C1168 C 0.2399 0.00238 0.36752 0.0
C1169 C 0.2136 0.03584 0.37765 0.0
C1170 C 0.19564 0.00607 0.37074 0.0
C1171 C 0.19073 0.95867 0.35976 0.0
C1172 C 0.20394 0.94145 0.35593 0.0
C1173 C 0.20855 0.98901 0.36583 0.0
C1174 C 0.2351 0.95505 0.35755 0.0
C1175 C 0.25292 0.98528 0.36313 0.0
H1176 H 0.54091 0.6206 0.32111 0.0
H1177 H 0.51892 0.63536 0.26819 0.0
H1178 H 0.55075 0.68887 0.27586 0.0
H1179 H 0.58583 0.73146 0.29742 0.0
H1180 H 0.60618 0.71626 0.35061 0.0
H1181 H 0.57352 0.663 0.34305 0.0
C1182 C 0.54259 0.63548 0.31133 0.0
C1183 C 0.52759 0.62387 0.29407 0.0
C1184 C 0.5607 0.66621 0.31585 0.0
C1185 C 0.53056 0.64361 0.28149 0.0
C1186 C 0.54865 0.67424 0.28589 0.0
C1187 C 0.58306 0.7165 0.30737 0.0
C1188 C 0.59856 0.72787 0.32452 0.0
C1189 C 0.56408 0.68578 0.30298 0.0
C1190 C 0.59453 0.70817 0.33729 0.0
C1191 C 0.57588 0.67765 0.33299 0.0
H1192 H 0.30886 0.89198 0.2782 0.0
H1193 H 0.34012 0.86166 0.32189 0.0
H1194 H 0.2936 0.84575 0.33482 0.0
H1195 H 0.24569 0.84397 0.33503 0.0
H1196 H 0.215 0.87576 0.29184 0.0
H1197 H 0.25961 0.88764 0.27755 0.0
C1198 C 0.30548 0.88185 0.29054 0.0
C1199 C 0.32808 0.87816 0.29906 0.0
C1200 C 0.27883 0.87321 0.29811 0.0
C1201 C 0.32305 0.8645 0.31489 0.0
C1202 C 0.29651 0.8556 0.32241 0.0
C1203 C 0.24858 0.85324 0.32241 0.0
C1204 C 0.2271 0.85925 0.31467 0.0
C1205 C 0.27447 0.86033 0.31431 0.0
C1206 C 0.23127 0.87118 0.29825 0.0
C1207 C 0.25681 0.878 0.29003 0.0
H1208 H 0.13451 0.45319 0.28316 0.0
H1209 H 0.11644 0.48474 0.33212 0.0
H1210 H 0.11936 0.44584 0.34721 0.0
H1211 H 0.13051 0.40489 0.34666 0.0
H1212 H 0.14778 0.37389 0.29692 0.0
H1213 H 0.14165 0.41047 0.282 0.0
C1214 C 0.13104 0.45135 0.29712 0.0
C1215 C 0.12562 0.47175 0.30664 0.0
C1216 C 0.13279 0.42918 0.30557 0.0
C1217 C 0.12066 0.4691 0.3246 0.0
C1218 C 0.12248 0.44703 0.33321 0.0
C1219 C 0.13274 0.40605 0.33255 0.0
C1220 C 0.14 0.38688 0.32305 0.0
C1221 C 0.12909 0.42725 0.32388 0.0
C1222 C 0.14248 0.38847 0.30469 0.0
C1223 C 0.13898 0.40941 0.29606 0.0
H1224 H 0.34278 0.45662 0.31654 0.0
H1225 H 0.32694 0.38 0.28199 0.0
H1226 H 0.27777 0.35094 0.29182 0.0
H1227 H 0.23981 0.347 0.31056 0.0
H1228 H 0.25546 0.42341 0.34536 0.0
H1229 H 0.30407 0.45291 0.33493 0.0
C1230 C 0.32842 0.43365 0.31104 0.0
C1231 C 0.33852 0.42044 0.29861 0.0
C1232 C 0.3002 0.41703 0.3168 0.0
C1233 C 0.31982 0.39056 0.29175 0.0
C1234 C 0.29167 0.37397 0.2973 0.0
C1235 C 0.25376 0.37013 0.31587 0.0
C1236 C 0.24396 0.38289 0.32879 0.0
C1237 C 0.28173 0.38692 0.30991 0.0
C1238 C 0.26241 0.41293 0.33545 0.0
C1239 C 0.29025 0.42985 0.32949 0.0
H1240 H 0.5518 0.8897 0.28444 0.0
H1241 H 0.49617 0.85406 0.32648 0.0
H1242 H 0.52692 0.83398 0.33747 0.0
H1243 H 0.57045 0.8279 0.33571 0.0
H1244 H 0.62618 0.86362 0.29365 0.0
H1245 H 0.59428 0.88192 0.28199 0.0
C1246 C 0.54614 0.87716 0.29585 0.0
C1247 C 0.52176 0.87349 0.30465 0.0
C1248 C 0.56398 0.86575 0.30213 0.0
C1249 C 0.51503 0.85755 0.31959 0.0
C1250 C 0.53254 0.84596 0.32584 0.0
C1251 C 0.5756 0.83955 0.32394 0.0
C1252 C 0.60082 0.84445 0.31565 0.0
C1253 C 0.55724 0.85019 0.31733 0.0
C1254 C 0.60702 0.85959 0.30038 0.0
C1255 C 0.58877 0.87009 0.29368 0.0
H1256 H 0.08491 0.66771 0.28979 0.0
H1257 H 0.1404 0.66494 0.33375 0.0
H1258 H 0.14452 0.70946 0.34901 0.0
H1259 H 0.13884 0.75323 0.34787 0.0
H1260 H 0.0898 0.75979 0.30195 0.0
H1261 H 0.0771 0.71009 0.28932 0.0
C1262 C 0.09798 0.67681 0.30269 0.0
C1263 C 0.11264 0.66306 0.31041 0.0
C1264 C 0.10173 0.7034 0.31096 0.0
C1265 C 0.1286 0.67473 0.32745 0.0
C1266 C 0.1313 0.70047 0.33615 0.0
C1267 C 0.12483 0.74344 0.33529 0.0
C1268 C 0.11524 0.75994 0.3258 0.0
C1269 C 0.11884 0.71554 0.32775 0.0
C1270 C 0.09747 0.74737 0.30941 0.0
C1271 C 0.09028 0.71905 0.30219 0.0
H1272 H 0.82241 0.98935 0.38008 0.0
H1273 H 0.76003 0.01082 0.40195 0.0
H1274 H 0.7186 0.9648 0.38652 0.0
H1275 H 0.70015 0.91769 0.36769 0.0
H1276 H 0.76274 0.89711 0.34524 0.0
H1277 H 0.80402 0.94404 0.35969 0.0
C1278 C 0.79979 0.98433 0.38123 0.0
C1279 C 0.79442 0.00353 0.39225 0.0
C1280 C 0.77608 0.958 0.3722 0.0
C1281 C 0.76487 0.99624 0.3938 0.0
C1282 C 0.74114 0.97001 0.3849 0.0
C1283 C 0.72281 0.92354 0.36585 0.0
C1284 C 0.72832 0.9038 0.35548 0.0
C1285 C 0.7465 0.95056 0.37423 0.0
C1286 C 0.75782 0.91185 0.35315 0.0
C1287 C 0.78148 0.93866 0.36146 0.0
H1288 H 0.00809 0.7987 0.41309 0.0
H1289 H 0.95127 0.77304 0.36348 0.0
H1290 H 0.99473 0.79522 0.34717 0.0
H1291 H 0.0488 0.81921 0.34671 0.0
H1292 H 0.10573 0.84539 0.39635 0.0
H1293 H 0.06244 0.82628 0.41281 0.0
C1294 C 0.0052 0.79838 0.39875 0.0
C1295 C 0.97635 0.78379 0.38956 0.0
C1296 C 0.03037 0.81125 0.38938 0.0
C1297 C 0.97315 0.78348 0.37091 0.0
C1298 C 0.99802 0.79633 0.36155 0.0
C1299 C 0.05183 0.8211 0.36114 0.0
C1300 C 0.08062 0.83354 0.37019 0.0
C1301 C 0.02675 0.80982 0.3706 0.0
C1302 C 0.08393 0.83577 0.38893 0.0
C1303 C 0.05912 0.82478 0.39842 0.0
H1304 H 0.22653 0.20588 0.38061 0.0
H1305 H 0.30031 0.28767 0.40698 0.0
H1306 H 0.27591 0.31484 0.39728 0.0
H1307 H 0.23414 0.31541 0.38107 0.0
H1308 H 0.16057 0.23388 0.3541 0.0
H1309 H 0.1843 0.20643 0.36446 0.0
C1310 C 0.2371 0.22961 0.38436 0.0
C1311 C 0.26514 0.24478 0.3945 0.0
C1312 C 0.22303 0.24508 0.37865 0.0
C1313 C 0.27884 0.27558 0.39904 0.0
C1314 C 0.26486 0.29108 0.39357 0.0
C1315 C 0.22314 0.2916 0.37751 0.0
C1316 C 0.19557 0.27672 0.36683 0.0
C1317 C 0.23702 0.27606 0.38332 0.0
C1318 C 0.18181 0.2459 0.36227 0.0
C1319 C 0.19536 0.23019 0.36819 0.0
H1320 H 0.66159 0.50456 0.71269 0.0
H1321 H 0.69402 0.56295 0.76195 0.0
H1322 H 0.73614 0.59949 0.74827 0.0
H1323 H 0.76476 0.61413 0.72293 0.0
H1324 H 0.73265 0.55721 0.67317 0.0
H1325 H 0.689 0.52104 0.68636 0.0
C1326 C 0.6776 0.52547 0.72034 0.0
C1327 C 0.67479 0.53077 0.73842 0.0
C1328 C 0.70182 0.5466 0.71233 0.0
C1329 C 0.69592 0.55796 0.74815 0.0
C1330 C 0.71996 0.57896 0.74031 0.0
C1331 C 0.74825 0.59382 0.7149 0.0
C1332 C 0.75214 0.5882 0.69714 0.0
C1333 C 0.72335 0.57332 0.72253 0.0
C1334 C 0.73022 0.56202 0.68689 0.0
C1335 C 0.70531 0.54132 0.69444 0.0
H1336 H 0.43083 0.10727 0.75164 0.0
H1337 H 0.47221 0.11249 0.70347 0.0
H1338 H 0.43869 0.12607 0.68814 0.0
H1339 H 0.39652 0.13489 0.6881 0.0
H1340 H 0.35585 0.13083 0.73651 0.0
H1341 H 0.39003 0.11828 0.75198 0.0
C1342 C 0.43249 0.1114 0.73779 0.0
C1343 C 0.45395 0.10881 0.72871 0.0
C1344 C 0.41316 0.11928 0.72906 0.0
C1345 C 0.45609 0.11462 0.71082 0.0
C1346 C 0.4368 0.12219 0.70201 0.0
C1347 C 0.3951 0.13125 0.70203 0.0
C1348 C 0.37345 0.13359 0.71106 0.0
C1349 C 0.41507 0.12434 0.71094 0.0
C1350 C 0.37224 0.12916 0.72919 0.0
C1351 C 0.39178 0.12193 0.73807 0.0
H1352 H 0.9219 0.34846 0.73903 0.0
H1353 H 0.92676 0.37649 0.68631 0.0
H1354 H 0.89604 0.32499 0.6734 0.0
H1355 H 0.86825 0.27198 0.67698 0.0
H1356 H 0.86165 0.24411 0.72979 0.0
H1357 H 0.89177 0.2957 0.74274 0.0
C1358 C 0.91594 0.34342 0.72474 0.0
C1359 C 0.92694 0.36645 0.7137 0.0
C1360 C 0.89772 0.31377 0.71739 0.0
C1361 C 0.91926 0.35928 0.69515 0.0
C1362 C 0.90141 0.32981 0.68774 0.0
C1363 C 0.87321 0.27716 0.69134 0.0
C1364 C 0.86277 0.25416 0.70237 0.0
C1365 C 0.89063 0.30688 0.69872 0.0
C1366 C 0.86933 0.26133 0.72095 0.0
C1367 C 0.88669 0.29085 0.72839 0.0
H1368 H 0.19637 0.9547 0.65688 0.0
H1369 H 0.19396 0.97408 0.60249 0.0
H1370 H 0.22384 0.02734 0.61232 0.0
H1371 H 0.25201 0.06835 0.63646 0.0
H1372 H 0.25371 0.04792 0.69079 0.0
H1373 H 0.22305 0.99525 0.68084 0.0
C1374 C 0.20249 0.97059 0.64717 0.0
C1375 C 0.19315 0.9605 0.629 0.0
C1376 C 0.21967 0.00103 0.6529 0.0
C1377 C 0.20075 0.98134 0.61659 0.0
C1378 C 0.21797 0.01177 0.62219 0.0
C1379 C 0.24564 0.05237 0.64611 0.0
C1380 C 0.2553 0.06219 0.66434 0.0
C1381 C 0.22777 0.02188 0.64032 0.0
C1382 C 0.24666 0.04113 0.67667 0.0
C1383 C 0.2291 0.0109 0.67102 0.0
H1384 H 0.01351 0.23293 0.65336 0.0
H1385 H 0.97136 0.19262 0.60015 0.0
H1386 H 0.92252 0.17557 0.61036 0.0
H1387 H 0.89171 0.17212 0.63445 0.0
H1388 H 0.93429 0.21124 0.68777 0.0
H1389 H 0.98291 0.228 0.67748 0.0
C1390 C 0.9937 0.21996 0.644 0.0
C1391 C 0.99633 0.21411 0.62597 0.0
C1392 C 0.96565 0.20989 0.65 0.0
C1393 C 0.9702 0.19785 0.61404 0.0
C1394 C 0.94219 0.18791 0.6199 0.0
C1395 C 0.9116 0.18432 0.64384 0.0
C1396 C 0.90922 0.19046 0.66187 0.0
C1397 C 0.93964 0.19389 0.63784 0.0
C1398 C 0.93532 0.20611 0.67383 0.0
C1399 C 0.96321 0.21578 0.66796 0.0
H1400 H 0.79074 0.76035 0.60715 0.0
H1401 H 0.78519 0.80411 0.65578 0.0
H1402 H 0.78885 0.76743 0.6728 0.0
H1403 H 0.79844 0.72563 0.67395 0.0
H1404 H 0.80482 0.68321 0.62481 0.0
H1405 H 0.79608 0.71666 0.60795 0.0
C1406 C 0.79016 0.76171 0.62147 0.0
C1407 C 0.7881 0.78499 0.63026 0.0
C1408 C 0.79268 0.74094 0.63109 0.0
C1409 C 0.78675 0.78629 0.64875 0.0
C1410 C 0.78904 0.76546 0.65847 0.0
C1411 C 0.79754 0.7235 0.65955 0.0
C1412 C 0.80271 0.7022 0.65073 0.0
C1413 C 0.79273 0.74308 0.64982 0.0
C1414 C 0.80133 0.69963 0.63202 0.0
C1415 C 0.7963 0.71874 0.62231 0.0
H1416 H 0.01313 0.79008 0.65262 0.0
H1417 H 0.98474 0.73444 0.60249 0.0
H1418 H 0.936 0.70269 0.61223 0.0
H1419 H 0.90259 0.68919 0.63554 0.0
H1420 H 0.92993 0.74519 0.68548 0.0
H1421 H 0.97804 0.77841 0.67529 0.0
C1422 C 0.99619 0.77105 0.64384 0.0
C1423 C 0.00253 0.76449 0.6269 0.0
C1424 C 0.96819 0.75291 0.64952 0.0
C1425 C 0.9803 0.74004 0.61553 0.0
C1426 C 0.95252 0.72178 0.62113 0.0
C1427 C 0.91904 0.7087 0.6442 0.0
C1428 C 0.91288 0.71455 0.66132 0.0
C1429 C 0.9464 0.72776 0.63819 0.0
C1430 C 0.93419 0.7402 0.67225 0.0
C1431 C 0.96171 0.75913 0.66645 0.0
H1432 H 0.16955 0.19154 0.64278 0.0
H1433 H 0.23876 0.25484 0.61451 0.0
H1434 H 0.27216 0.23761 0.62527 0.0
H1435 H 0.28236 0.20583 0.64359 0.0
H1436 H 0.2132 0.14285 0.67212 0.0
H1437 H 0.17914 0.15841 0.66017 0.0
C1438 C 0.19181 0.20129 0.63878 0.0
C1439 C 0.20166 0.22456 0.62793 0.0
C1440 C 0.21099 0.19137 0.64509 0.0
C1441 C 0.23073 0.23719 0.62306 0.0
C1442 C 0.24982 0.22727 0.62915 0.0
C1443 C 0.25979 0.19534 0.64711 0.0
C1444 C 0.25049 0.17327 0.65882 0.0
C1445 C 0.24031 0.20459 0.64033 0.0
C1446 C 0.2211 0.15998 0.66321 0.0
C1447 C 0.20154 0.16887 0.65639 0.0
H1448 H 0.76424 0.98757 0.61995 0.0
H1449 H 0.84026 0.99456 0.65121 0.0
H1450 H 0.84873 0.04001 0.66788 0.0
H1451 H 0.83661 0.07927 0.67243 0.0
H1452 H 0.76231 0.07422 0.64031 0.0
H1453 H 0.75139 0.02667 0.62499 0.0
C1454 C 0.78272 -0.00091 0.63037 0.0
C1455 C 0.80153 0.98758 0.6343 0.0
C1456 C 0.78793 0.02567 0.63967 0.0
C1457 C 0.82509 0.00257 0.64806 0.0
C1458 C 0.83015 0.02875 0.65752 0.0
C1459 C 0.81788 0.06774 0.66216 0.0
C1460 C 0.80039 0.08037 0.65748 0.0
C1461 C 0.81196 0.04068 0.65328 0.0
C1462 C 0.77622 0.06505 0.64414 0.0
C1463 C 0.76996 0.03787 0.63536 0.0
H1464 H 0.44361 0.32662 0.74757 0.0
H1465 H 0.49749 0.33454 0.70501 0.0
H1466 H 0.45654 0.28918 0.6887 0.0
H1467 H 0.40647 0.24597 0.68721 0.0
H1468 H 0.35214 0.23822 0.72948 0.0
H1469 H 0.39207 0.28514 0.74503 0.0
C1470 C 0.44624 0.31876 0.73458 0.0
C1471 C 0.47373 0.33387 0.72762 0.0
C1472 C 0.42255 0.29263 0.72523 0.0
C1473 C 0.47678 0.32309 0.71084 0.0
C1474 C 0.45333 0.2972 0.70146 0.0
C1475 C 0.40326 0.2546 0.69978 0.0
C1476 C 0.37641 0.23847 0.70721 0.0
C1477 C 0.42631 0.28153 0.70867 0.0
C1478 C 0.37255 0.25016 0.72343 0.0
C1479 C 0.39543 0.27696 0.73237 0.0
H1480 H 0.64495 0.1276 0.71059 0.0
H1481 H 0.66914 0.09502 0.75602 0.0
H1482 H 0.71715 0.10906 0.74543 0.0
H1483 H 0.75158 0.12883 0.72277 0.0
H1484 H 0.7276 0.16147 0.67727 0.0
H1485 H 0.68017 0.14887 0.68831 0.0
C1486 C 0.66069 0.12349 0.71816 0.0
C1487 C 0.65331 0.11019 0.73409 0.0
C1488 C 0.68827 0.13145 0.71192 0.0
C1489 C 0.67426 0.10552 0.74384 0.0
C1490 C 0.70168 0.11333 0.73772 0.0
C1491 C 0.73601 0.1332 0.71522 0.0
C1492 C 0.74318 0.14592 0.69911 0.0
C1493 C 0.70881 0.12604 0.7217 0.0
C1494 C 0.72276 0.15167 0.68968 0.0
C1495 C 0.69557 0.14444 0.69598 0.0
H1496 H 0.93941 0.58428 0.73533 0.0
H1497 H 0.90232 0.51537 0.69103 0.0
H1498 H 0.87202 0.5353 0.67909 0.0
H1499 H 0.85701 0.57298 0.68081 0.0
H1500 H 0.89499 0.64262 0.72478 0.0
H1501 H 0.92406 0.62177 0.73718 0.0
C1502 C 0.92486 0.57377 0.72299 0.0
C1503 C 0.92314 0.54841 0.71409 0.0
C1504 C 0.90764 0.58544 0.71614 0.0
C1505 C 0.90382 0.53474 0.69826 0.0
C1506 C 0.88658 0.54619 0.69137 0.0
C1507 C 0.87148 0.5835 0.69317 0.0
C1508 C 0.87382 0.60936 0.70181 0.0
C1509 C 0.88836 0.57157 0.70018 0.0
C1510 C 0.89281 0.62276 0.71778 0.0
C1511 C 0.90949 0.61087 0.72491 0.0
H1512 H 0.43987 0.96231 0.19636 0.0
H1513 H 0.52797 0.97626 0.20984 0.0
H1514 H 0.5414 0.99229 0.18061 0.0
H1515 H 0.52862 0.0034 0.15146 0.0
H1516 H 0.44062 0.98941 0.13772 0.0
H1517 H 0.42646 0.97171 0.16662 0.0
C1518 C 0.46187 0.96849 0.19281 0.0
C1519 C 0.48294 0.96832 0.20537 0.0
C1520 C 0.46948 0.97766 0.17592 0.0
C1521 C 0.51147 0.97669 0.20058 0.0
C1522 C 0.51915 0.98573 0.18383 0.0
C1523 C 0.50639 0.99663 0.15483 0.0
C1524 C 0.48578 -0.00209 0.14249 0.0
C1525 C 0.49846 0.98662 0.17147 0.0
C1526 C 0.45686 0.98847 0.14692 0.0
C1527 C 0.4488 0.97849 0.16348 0.0
H1528 H 0.07183 0.49761 0.18763 0.0
H1529 H 0.026 0.54343 0.20394 0.0
H1530 H 0.99674 0.52817 0.17477 0.0
H1531 H 0.9869 0.50501 0.14388 0.0
H1532 H 0.03416 0.46084 0.12738 0.0
H1533 H 0.06052 0.47272 0.15728 0.0
C1534 C 0.0555 0.50434 0.18479 0.0
C1535 C 0.05129 0.52181 0.19792 0.0
C1536 C 0.0392 0.49601 0.1679 0.0
C1537 C 0.02954 0.52977 0.19414 0.0
C1538 C 0.01295 0.52125 0.17741 0.0
C1539 C 0.00264 0.49761 0.14693 0.0
C1540 C 0.00873 0.48225 0.13343 0.0
C1541 C 0.01793 0.50476 0.1641 0.0
C1542 C 0.02941 0.47306 0.1375 0.0
C1543 C 0.04441 0.47975 0.15459 0.0
H1544 H 0.47794 0.4431 0.19326 0.0
H1545 H 0.44075 0.50071 0.19088 0.0
H1546 H 0.44647 0.50306 0.15925 0.0
H1547 H 0.46559 0.49206 0.13285 0.0
H1548 H 0.50648 0.43778 0.13578 0.0
H1549 H 0.49556 0.43071 0.16652 0.0
C1550 C 0.47113 0.45622 0.18584 0.0
C1551 C 0.45908 0.47181 0.19453 0.0
C1552 C 0.47522 0.45817 0.16773 0.0
C1553 C 0.44976 0.48817 0.18457 0.0
C1554 C 0.45328 0.48977 0.16648 0.0
C1555 C 0.47218 0.47873 0.14022 0.0
C1556 C 0.48706 0.4657 0.13203 0.0
C1557 C 0.46654 0.47537 0.15803 0.0
C1558 C 0.49478 0.44788 0.14166 0.0
C1559 C 0.48877 0.44402 0.15931 0.0
H1560 H 0.97329 0.49143 0.82757 0.0
H1561 H 0.06804 0.53591 0.8248 0.0
H1562 H 0.07693 0.54031 0.85718 0.0
H1563 H 0.05791 0.5307 0.88617 0.0
H1564 H 0.96334 0.48813 0.88923 0.0
H1565 H 0.95432 0.48383 0.85681 0.0
C1566 C 0.99591 0.50244 0.83405 0.0
C1567 C 0.01994 0.51318 0.82372 0.0
C1568 C 1.00091 0.50512 0.85272 0.0
C1569 C 0.04909 0.52699 0.83237 0.0
C1570 C 0.05422 0.52968 0.8509 0.0
C1571 C 0.03533 0.52089 0.8798 0.0
C1572 C 0.01136 0.50977 0.89017 0.0
C1573 C 0.03031 0.51871 0.86119 0.0
C1574 C 0.98221 0.49654 0.8816 0.0
C1575 C 0.97703 0.49422 0.86305 0.0
H1576 H 0.499 0.43882 0.83968 0.0
H1577 H 0.57451 0.5262 0.83831 0.0
H1578 H 0.56175 0.54444 0.86495 0.0
H1579 H 0.53124 0.53461 0.88995 0.0
H1580 H 0.45684 0.44669 0.89168 0.0
H1581 H 0.46738 0.42954 0.86378 0.0
C1582 C 0.51275 0.46185 0.84523 0.0
C1583 C 0.53781 0.48102 0.83705 0.0
C1584 C 0.50562 0.47205 0.86072 0.0
C1585 C 0.55495 0.51097 0.84421 0.0
C1586 C 0.5478 0.52139 0.85954 0.0
C1587 C 0.51709 0.51183 0.88406 0.0
C1588 C 0.49342 0.49191 0.89294 0.0
C1589 C 0.52345 0.50201 0.86807 0.0
C1590 C 0.47545 0.46236 0.88524 0.0
C1591 C 0.4814 0.45255 0.86926 0.0
H1592 H 0.52498 0.06933 0.84876 0.0
H1593 H 0.50069 0.98145 0.82559 0.0
H1594 H 0.48789 0.96254 0.85421 0.0
H1595 H 0.483 0.97052 0.88578 0.0
H1596 H 0.50513 0.05774 0.90888 0.0
H1597 H 0.51929 0.07716 0.88042 0.0
C1598 C 0.51672 0.04601 0.84992 0.0
C1599 C 0.51408 0.02699 0.83495 0.0
C1600 C 0.50897 0.03506 0.86646 0.0
C1601 C 0.50361 0.99685 0.83688 0.0
C1602 C 0.496 0.98589 0.85325 0.0
C1603 C 0.4906 0.99372 0.88458 0.0
C1604 C 0.4929 0.01255 0.89954 0.0
C1605 C 0.49849 0.00474 0.86811 0.0
C1606 C 0.50343 0.04272 0.89771 0.0
C1607 C 0.51139 0.05385 0.88138 0.0
H1608 H 0.1059 0.29879 0.51855 0.0
H1609 H 0.19556 0.3214 0.53657 0.0
H1610 H 0.21198 0.34064 0.50829 0.0
H1611 H 0.20074 0.35099 0.47828 0.0
H1612 H 0.11052 0.32545 0.45957 0.0
H1613 H 0.09435 0.30755 0.48819 0.0
C1614 C 0.12901 0.30798 0.51624 0.0
C1615 C 0.14952 0.30874 0.52958 0.0
C1616 C 0.13817 0.31854 0.49984 0.0
C1617 C 0.17936 0.3204 0.52641 0.0
C1618 C 0.18877 0.33152 0.51029 0.0
C1619 C 0.17761 0.34163 0.48058 0.0
C1620 C 0.15684 0.33968 0.46699 0.0
C1621 C 0.16839 0.33073 0.4969 0.0
C1622 C 0.12683 0.32714 0.46992 0.0
C1623 C 0.11761 0.31693 0.48625 0.0
H1624 H 0.71485 0.80248 0.51356 0.0
H1625 H 0.69514 0.8713 0.52903 0.0
H1626 H 0.66609 0.86127 0.50023 0.0
H1627 H 0.65127 0.83704 0.46962 0.0
H1628 H 0.6714 0.76862 0.45379 0.0
H1629 H 0.69573 0.77474 0.48371 0.0
C1630 C 0.70401 0.81512 0.51065 0.0
C1631 C 0.70737 0.83777 0.52334 0.0
C1632 C 0.68778 0.8096 0.49394 0.0
C1633 C 0.69276 0.85362 0.51954 0.0
C1634 C 0.67635 0.84807 0.50301 0.0
C1635 C 0.66029 0.8229 0.47279 0.0
C1636 C 0.65972 0.80257 0.45941 0.0
C1637 C 0.67435 0.82664 0.48997 0.0
C1638 C 0.67197 0.78479 0.46375 0.0
C1639 C 0.68581 0.78821 0.48087 0.0
H1640 H 0.18171 0.83354 0.5272 0.0
H1641 H 0.08643 0.78996 0.51506 0.0
H1642 H 0.09142 0.7863 0.4832 0.0
H1643 H 0.12319 0.79774 0.45877 0.0
H1644 H 0.21862 0.84337 0.47134 0.0
H1645 H 0.21317 0.84378 0.50303 0.0
C1646 C 0.16203 0.82337 0.51758 0.0
C1647 C 0.13377 0.81233 0.52348 0.0
C1648 C 0.16508 0.82166 0.49935 0.0
C1649 C 0.10844 0.79854 0.51087 0.0
C1650 C 0.11129 0.79659 0.49265 0.0
C1651 C 0.14278 0.80781 0.46844 0.0
C1652 C 0.17126 0.82048 0.46262 0.0
C1653 C 0.13955 0.80844 0.48673 0.0
C1654 C 0.1964 0.83304 0.47537 0.0
C1655 C 0.19335 0.83353 0.49354 0.0
H1656 H 0.63347 0.83651 0.15408 0.0
H1657 H 0.72411 0.8597 0.1482 0.0
H1658 H 0.7327 0.85639 0.17978 0.0
H1659 H 0.71421 0.84545 0.20885 0.0
H1660 H 0.62288 0.81954 0.21456 0.0
H1661 H 0.61487 0.82537 0.18326 0.0
C1662 C 0.65506 0.84066 0.15967 0.0
C1663 C 0.67808 0.84835 0.14872 0.0
C1664 C 0.65973 0.83817 0.17781 0.0
C1665 C 0.70608 0.85419 0.15631 0.0
C1666 C 0.71097 0.85205 0.17436 0.0
C1667 C 0.69244 0.84077 0.20322 0.0
C1668 C 0.66915 0.83188 0.21404 0.0
C1669 C 0.68789 0.84379 0.18519 0.0
C1670 C 0.64129 0.82664 0.2066 0.0
C1671 C 0.63664 0.82981 0.18867 0.0
H1672 H 0.16756 0.81291 0.1657 0.0
H1673 H 0.24882 0.82971 0.19553 0.0
H1674 H 0.23409 0.84436 0.22257 0.0
H1675 H 0.19735 0.85019 0.23807 0.0
H1676 H 0.11506 0.83196 0.20892 0.0
H1677 H 0.13126 0.82085 0.18125 0.0
C1678 C 0.18215 0.82015 0.17809 0.0
C1679 C 0.20912 0.81995 0.17864 0.0
C1680 C 0.17337 0.82827 0.19371 0.0
C1681 C 0.22775 0.82923 0.19481 0.0
C1682 C 0.21939 0.8377 0.21027 0.0
C1683 C 0.18284 0.84364 0.22569 0.0
C1684 C 0.15487 0.84158 0.22564 0.0
C1685 C 0.19205 0.83681 0.20994 0.0
C1686 C 0.13675 0.83385 0.20936 0.0
C1687 C 0.14593 0.8273 0.19354 0.0
H1688 H 0.14518 0.34666 0.16706 0.0
H1689 H 0.23734 0.37034 0.17538 0.0
H1690 H 0.23039 0.35375 0.20507 0.0
H1691 H 0.19772 0.3314 0.22852 0.0
H1692 H 0.10558 0.30772 0.21994 0.0
H1693 H 0.11288 0.32517 0.19053 0.0
C1694 C 0.16373 0.34808 0.17533 0.0
C1695 C 0.19172 0.35966 0.16892 0.0
C1696 C 0.15955 0.33837 0.19236 0.0
C1697 C 0.21563 0.36181 0.18 0.0
C1698 C 0.21162 0.35212 0.19695 0.0
C1699 C 0.17922 0.32991 0.22015 0.0
C1700 C 0.15113 0.31821 0.22644 0.0
C1701 C 0.18361 0.34015 0.20323 0.0
C1702 C 0.12749 0.31685 0.21552 0.0
C1703 C 0.13161 0.32673 0.19866 0.0
H1704 H 0.79075 0.65706 0.85873 0.0
H1705 H 0.82493 0.59707 0.85308 0.0
H1706 H 0.83454 0.60868 0.82265 0.0
H1707 H 0.83559 0.63774 0.79808 0.0
H1708 H 0.80216 0.69831 0.804 0.0
H1709 H 0.79073 0.68519 0.834 0.0
C1710 C 0.80045 0.64661 0.8509 0.0
C1711 C 0.80714 0.62624 0.85829 0.0
C1712 C 0.8064 0.65376 0.83348 0.0
C1713 C 0.81917 0.61253 0.84774 0.0
C1714 C 0.82493 0.61935 0.83035 0.0
C1715 C 0.82551 0.64785 0.80585 0.0
C1716 C 0.81996 0.66916 0.79878 0.0
C1717 C 0.8189 0.64014 0.82313 0.0
C1718 C 0.80719 0.68225 0.80918 0.0
C1719 C 0.80044 0.67461 0.82631 0.0
H1720 H 0.37134 0.16659 0.85832 0.0
H1721 H 0.42121 0.25979 0.85176 0.0
H1722 H 0.38816 0.25164 0.825 0.0
H1723 H 0.34729 0.21761 0.80247 0.0
H1724 H 0.29858 0.12405 0.80824 0.0
H1725 H 0.3282 0.13294 0.83669 0.0
C1726 C 0.37466 0.18516 0.85117 0.0
C1727 C 0.39886 0.21367 0.85685 0.0
C1728 C 0.3557 0.18028 0.83573 0.0
C1729 C 0.40306 0.23753 0.84742 0.0
C1730 C 0.38409 0.23292 0.83219 0.0
C1731 C 0.3431 0.19918 0.80999 0.0
C1732 C 0.32097 0.17021 0.80317 0.0
C1733 C 0.36074 0.20431 0.82604 0.0
C1734 C 0.31533 0.14662 0.81324 0.0
C1735 C 0.33246 0.15163 0.82943 0.0
H1736 H 0.82095 0.13408 0.86576 0.0
H1737 H 0.76491 0.17176 0.85526 0.0
H1738 H 0.77354 0.172 0.82392 0.0
H1739 H 0.79818 0.16282 0.79971 0.0
H1740 H 0.85237 0.12307 0.81016 0.0
H1741 H 0.84313 0.12227 0.84132 0.0
C1742 C 0.81017 0.14188 0.85658 0.0
C1743 C 0.79234 0.15293 0.86291 0.0
C1744 C 0.81505 0.14178 0.83858 0.0
C1745 C 0.77907 0.1635 0.85084 0.0
C1746 C 0.78388 0.16352 0.83289 0.0
C1747 C 0.80764 0.1536 0.80873 0.0
C1748 C 0.82615 0.14325 0.80258 0.0
C1749 C 0.80201 0.15291 0.82664 0.0
C1750 C 0.83853 0.13174 0.81457 0.0
C1751 C 0.8331 0.13108 0.83238 0.0
H1752 H 0.30411 0.17275 0.50068 0.0
H1753 H 0.38293 0.1672 0.49414 0.0
H1754 H 0.38964 0.16418 0.52599 0.0
H1755 H 0.37338 0.16338 0.55566 0.0
H1756 H 0.29565 0.17073 0.56255 0.0
H1757 H 0.28813 0.17254 0.53056 0.0
C1758 C 0.32291 0.17115 0.50626 0.0
C1759 C 0.34297 0.17019 0.49504 0.0
C1760 C 0.32675 0.16959 0.52461 0.0
C1761 C 0.36694 0.16762 0.50243 0.0
C1762 C 0.37089 0.16604 0.52066 0.0
C1763 C 0.35494 0.16566 0.5502 0.0
C1764 C 0.33518 0.16702 0.56152 0.0
C1765 C 0.35096 0.16704 0.53186 0.0
C1766 C 0.31102 0.16932 0.55414 0.0
C1767 C 0.30682 0.17056 0.53586 0.0
H1768 H 0.90376 0.18295 0.5138 0.0
H1769 H 0.8141 0.12403 0.48926 0.0
H1770 H 0.79449 0.13224 0.51614 0.0
H1771 H 0.8029 0.15288 0.54748 0.0
H1772 H 0.89265 0.21153 0.57206 0.0
H1773 H 0.91207 0.20623 0.54445 0.0
C1774 C 0.87992 0.17196 0.51432 0.0
C1775 C 0.86046 0.15277 0.49956 0.0
C1776 C 0.86879 0.17643 0.52992 0.0
C1777 C 0.82961 0.13912 0.50035 0.0
C1778 C 0.81836 0.14361 0.51579 0.0
C1779 C 0.82668 0.16493 0.54672 0.0
C1780 C 0.84626 0.18234 0.56193 0.0
C1781 C 0.83775 0.16181 0.53077 0.0
C1782 C 0.87706 0.19753 0.5607 0.0
C1783 C 0.88821 0.19463 0.54487 0.0
H1784 H 0.8699 0.66241 0.49921 0.0
H1785 H 0.85607 0.735 0.51537 0.0
H1786 H 0.84675 0.71836 0.54493 0.0
H1787 H 0.84028 0.68191 0.56574 0.0
H1788 H 0.85447 0.60949 0.54967 0.0
H1789 H 0.86575 0.62728 0.52054 0.0
C1790 C 0.86535 0.67489 0.50929 0.0
C1791 C 0.86369 0.69994 0.50504 0.0
C1792 C 0.85975 0.66504 0.52624 0.0
C1793 C 0.85723 0.71551 0.51821 0.0
C1794 C 0.85194 0.70603 0.53513 0.0
C1795 C 0.84624 0.67022 0.55597 0.0
C1796 C 0.84638 0.64428 0.55994 0.0
C1797 C 0.85278 0.68061 0.53923 0.0
C1798 C 0.85371 0.62922 0.54694 0.0
C1799 C 0.86036 0.63949 0.53029 0.0
loop_
_geom_bond_atom_site_label_1
_geom_bond_atom_site_label_2
_geom_bond_distance
_geom_bond_site_symmetry_2
_ccdc_geom_bond_type
P0 O11 1.490 . S
P0 C14 1.812 . S
P0 C20 1.803 . S
P0 C26 1.819 . S
H1 C15 0.941 . S
H2 C16 0.939 . S
H3 C18 0.940 . S
H4 C19 0.940 . S
H5 C21 0.939 . S
H6 C22 0.942 . S
H7 C24 0.940 . S
H8 C25 0.939 . S
H9 C27 0.941 . S
H10 C31 0.939 . S
O11 P0 1.490 . S
H12 C28 0.939 . S
H13 C30 0.940 . S
C14 P0 1.812 . S
C14 C15 1.389 . S
C14 C19 1.391 . S
C15 H1 0.941 . S
C15 C14 1.389 . S
C15 C16 1.397 . S
C16 H2 0.939 . S
C16 C15 1.397 . S
C16 C17 1.378 . S
C17 C16 1.378 . S
C17 C18 1.378 . S
C18 H3 0.940 . S
C18 C17 1.378 . S
C18 C19 1.396 . S
C19 H4 0.940 . S
C19 C14 1.391 . S
C19 C18 1.396 . S
C20 P0 1.803 . S
C20 C21 1.378 . S
C20 C25 1.400 . S
C21 H5 0.939 . S
C21 C20 1.378 . S
C21 C22 1.361 . S
C22 H6 0.942 . S
C22 C21 1.361 . S
C22 C23 1.369 . S
C23 C22 1.369 . S
C23 C24 1.404 . S
C24 H7 0.940 . S
C24 C23 1.404 . S
C24 C25 1.389 . S
C25 H8 0.939 . S
C25 C20 1.400 . S
C25 C24 1.389 . S
C26 P0 1.819 . S
C26 C27 1.391 . S
C26 C31 1.391 . S
C27 H9 0.941 . S
C27 C26 1.391 . S
C27 C28 1.396 . S
C28 H12 0.939 . S
C28 C27 1.396 . S
C28 C29 1.397 . S
C29 C28 1.397 . S
C29 C30 1.385 . S
C30 H13 0.940 . S
C30 C29 1.385 . S
C30 C31 1.388 . S
C31 H10 0.939 . S
C31 C26 1.391 . S
C31 C30 1.388 . S
P32 O43 1.490 . S
P32 C46 1.812 . S
P32 C52 1.803 . S
P32 C58 1.819 . S
H33 C47 0.941 . S
H34 C48 0.939 . S
H35 C50 0.940 . S
H36 C51 0.940 . S
H37 C53 0.939 . S
H38 C54 0.942 . S
H39 C56 0.940 . S
H40 C57 0.939 . S
H41 C59 0.941 . S
H42 C63 0.939 . S
O43 P32 1.490 . S
H44 C60 0.939 . S
H45 C62 0.940 . S
C46 P32 1.812 . S
C46 C47 1.389 . S
C46 C51 1.391 . S
C47 H33 0.941 . S
C47 C46 1.389 . S
C47 C48 1.397 . S
C48 H34 0.939 . S
C48 C47 1.397 . S
C48 C49 1.378 . S
C49 C48 1.378 . S
C49 C50 1.378 . S
C50 H35 0.940 . S
C50 C49 1.378 . S
C50 C51 1.396 . S
C51 H36 0.940 . S
C51 C46 1.391 . S
C51 C50 1.396 . S
C52 P32 1.803 . S
C52 C53 1.378 . S
C52 C57 1.400 . S
C53 H37 0.939 . S
C53 C52 1.378 . S
C53 C54 1.361 . S
C54 H38 0.942 . S
C54 C53 1.361 . S
C54 C55 1.369 . S
C55 C54 1.369 . S
C55 C56 1.404 . S
C56 H39 0.940 . S
C56 C55 1.404 . S
C56 C57 1.389 . S
C57 H40 0.939 . S
C57 C52 1.400 . S
C57 C56 1.389 . S
C58 P32 1.819 . S
C58 C59 1.391 . S
C58 C63 1.391 . S
C59 H41 0.941 . S
C59 C58 1.391 . S
C59 C60 1.396 . S
C60 H44 0.939 . S
C60 C59 1.396 . S
C60 C61 1.397 . S
C61 C60 1.397 . S
C61 C62 1.385 . S
C62 H45 0.940 . S
C62 C61 1.385 . S
C62 C63 1.388 . S
C63 H42 0.939 . S
C63 C58 1.391 . S
C63 C62 1.388 . S
P64 O75 1.490 . S
P64 C78 1.812 . S
P64 C84 1.803 . S
P64 C90 1.819 . S
H65 C79 0.941 . S
H66 C80 0.939 . S
H67 C82 0.940 . S
H68 C83 0.940 . S
H69 C85 0.939 . S
H70 C86 0.942 . S
H71 C88 0.940 . S
H72 C89 0.939 . S
H73 C91 0.941 . S
H74 C95 0.939 . S
O75 P64 1.490 . S
H76 C92 0.939 . S
H77 C94 0.940 . S
C78 P64 1.812 . S
C78 C79 1.389 . S
C78 C83 1.391 . S
C79 H65 0.941 . S
C79 C78 1.389 . S
C79 C80 1.397 . S
C80 H66 0.939 . S
C80 C79 1.397 . S
C80 C81 1.378 . S
C81 C80 1.378 . S
C81 C82 1.378 . S
C82 H67 0.940 . S
C82 C81 1.378 . S
C82 C83 1.396 . S
C83 H68 0.940 . S
C83 C78 1.391 . S
C83 C82 1.396 . S
C84 P64 1.803 . S
C84 C85 1.378 . S
C84 C89 1.400 . S
C85 H69 0.939 . S
C85 C84 1.378 . S
C85 C86 1.361 . S
C86 H70 0.942 . S
C86 C85 1.361 . S
C86 C87 1.369 . S
C87 C86 1.369 . S
C87 C88 1.404 . S
C88 H71 0.940 . S
C88 C87 1.404 . S
C88 C89 1.389 . S
C89 H72 0.939 . S
C89 C84 1.400 . S
C89 C88 1.389 . S
C90 P64 1.819 . S
C90 C91 1.391 . S
C90 C95 1.391 . S
C91 H73 0.941 . S
C91 C90 1.391 . S
C91 C92 1.396 . S
C92 H76 0.939 . S
C92 C91 1.396 . S
C92 C93 1.397 . S
C93 C92 1.397 . S
C93 C94 1.385 . S
C94 H77 0.940 . S
C94 C93 1.385 . S
C94 C95 1.388 . S
C95 H74 0.939 . S
C95 C90 1.391 . S
C95 C94 1.388 . S
P96 O107 1.490 . S
P96 C110 1.812 . S
P96 C116 1.803 . S
P96 C122 1.819 . S
H97 C111 0.941 . S
H98 C112 0.939 . S
H99 C114 0.940 . S
H100 C115 0.940 . S
H101 C117 0.939 . S
H102 C118 0.942 . S
H103 C120 0.940 . S
H104 C121 0.939 . S
H105 C123 0.941 . S
H106 C127 0.939 . S
O107 P96 1.490 . S
H108 C124 0.939 . S
H109 C126 0.940 . S
C110 P96 1.812 . S
C110 C111 1.389 . S
C110 C115 1.391 . S
C111 H97 0.941 . S
C111 C110 1.389 . S
C111 C112 1.397 . S
C112 H98 0.939 . S
C112 C111 1.397 . S
C112 C113 1.378 . S
C113 C112 1.378 . S
C113 C114 1.378 . S
C114 H99 0.940 . S
C114 C113 1.378 . S
C114 C115 1.396 . S
C115 H100 0.940 . S
C115 C110 1.391 . S
C115 C114 1.396 . S
C116 P96 1.803 . S
C116 C117 1.378 . S
C116 C121 1.400 . S
C117 H101 0.939 . S
C117 C116 1.378 . S
C117 C118 1.361 . S
C118 H102 0.942 . S
C118 C117 1.361 . S
C118 C119 1.369 . S
C119 C118 1.369 . S
C119 C120 1.404 . S
C120 H103 0.940 . S
C120 C119 1.404 . S
C120 C121 1.389 . S
C121 H104 0.939 . S
C121 C116 1.400 . S
C121 C120 1.389 . S
C122 P96 1.819 . S
C122 C123 1.391 . S
C122 C127 1.391 . S
C123 H105 0.941 . S
C123 C122 1.391 . S
C123 C124 1.396 . S
C124 H108 0.939 . S
C124 C123 1.396 . S
C124 C125 1.397 . S
C125 C124 1.397 . S
C125 C126 1.385 . S
C126 H109 0.940 . S
C126 C125 1.385 . S
C126 C127 1.388 . S
C127 H106 0.939 . S
C127 C122 1.391 . S
C127 C126 1.388 . S
P128 O139 1.490 . S
P128 C142 1.812 . S
P128 C148 1.803 . S
P128 C154 1.819 . S
H129 C143 0.941 . S
H130 C144 0.939 . S
H131 C146 0.940 . S
H132 C147 0.940 . S
H133 C149 0.939 . S
H134 C150 0.942 . S
H135 C152 0.940 . S
H136 C153 0.939 . S
H137 C155 0.941 . S
H138 C159 0.939 . S
O139 P128 1.490 . S
H140 C156 0.939 . S
H141 C158 0.940 . S
C142 P128 1.812 . S
C142 C143 1.389 . S
C142 C147 1.391 . S
C143 H129 0.941 . S
C143 C142 1.389 . S
C143 C144 1.397 . S
C144 H130 0.939 . S
C144 C143 1.397 . S
C144 C145 1.378 . S
C145 C144 1.378 . S
C145 C146 1.378 . S
C146 H131 0.940 . S
C146 C145 1.378 . S
C146 C147 1.396 . S
C147 H132 0.940 . S
C147 C142 1.391 . S
C147 C146 1.396 . S
C148 P128 1.803 . S
C148 C149 1.378 . S
C148 C153 1.400 . S
C149 H133 0.939 . S
C149 C148 1.378 . S
C149 C150 1.361 . S
C150 H134 0.942 . S
C150 C149 1.361 . S
C150 C151 1.369 . S
C151 C150 1.369 . S
C151 C152 1.404 . S
C152 H135 0.940 . S
C152 C151 1.404 . S
C152 C153 1.389 . S
C153 H136 0.939 . S
C153 C148 1.400 . S
C153 C152 1.389 . S
C154 P128 1.819 . S
C154 C155 1.391 . S
C154 C159 1.391 . S
C155 H137 0.941 . S
C155 C154 1.391 . S
C155 C156 1.396 . S
C156 H140 0.939 . S
C156 C155 1.396 . S
C156 C157 1.397 . S
C157 C156 1.397 . S
C157 C158 1.385 . S
C158 H141 0.940 . S
C158 C157 1.385 . S
C158 C159 1.388 . S
C159 H138 0.939 . S
C159 C154 1.391 . S
C159 C158 1.388 . S
P160 O171 1.490 . S
P160 C174 1.812 . S
P160 C180 1.803 . S
P160 C186 1.819 . S
H161 C175 0.941 . S
H162 C176 0.939 . S
H163 C178 0.940 . S
H164 C179 0.940 . S
H165 C181 0.939 . S
H166 C182 0.942 . S
H167 C184 0.940 . S
H168 C185 0.939 . S
H169 C187 0.941 . S
H170 C191 0.939 . S
O171 P160 1.490 . S
H172 C188 0.939 . S
H173 C190 0.940 . S
C174 P160 1.812 . S
C174 C175 1.389 . S
C174 C179 1.391 . S
C175 H161 0.941 . S
C175 C174 1.389 . S
C175 C176 1.397 . S
C176 H162 0.939 . S
C176 C175 1.397 . S
C176 C177 1.378 . S
C177 C176 1.378 . S
C177 C178 1.378 . S
C178 H163 0.940 . S
C178 C177 1.378 . S
C178 C179 1.396 . S
C179 H164 0.940 . S
C179 C174 1.391 . S
C179 C178 1.396 . S
C180 P160 1.803 . S
C180 C181 1.378 . S
C180 C185 1.400 . S
C181 H165 0.939 . S
C181 C180 1.378 . S
C181 C182 1.361 . S
C182 H166 0.942 . S
C182 C181 1.361 . S
C182 C183 1.369 . S
C183 C182 1.369 . S
C183 C184 1.404 . S
C184 H167 0.940 . S
C184 C183 1.404 . S
C184 C185 1.389 . S
C185 H168 0.939 . S
C185 C180 1.400 . S
C185 C184 1.389 . S
C186 P160 1.819 . S
C186 C187 1.391 . S
C186 C191 1.391 . S
C187 H169 0.941 . S
C187 C186 1.391 . S
C187 C188 1.396 . S
C188 H172 0.939 . S
C188 C187 1.396 . S
C188 C189 1.397 . S
C189 C188 1.397 . S
C189 C190 1.385 . S
C190 H173 0.940 . S
C190 C189 1.385 . S
C190 C191 1.388 . S
C191 H170 0.939 . S
C191 C186 1.391 . S
C191 C190 1.388 . S
P192 O203 1.490 1_655 S
P192 C206 1.812 . S
P192 C212 1.803 . S
P192 C218 1.819 . S
H193 C207 0.941 1_455 S
H194 C208 0.939 . S
H195 C210 0.940 . S
H196 C211 0.940 . S
H197 C213 0.939 1_455 S
H198 C214 0.942 . S
H199 C216 0.940 . S
H200 C217 0.939 . S
H201 C219 0.941 . S
H202 C223 0.939 . S
O203 P192 1.490 1_455 S
H204 C220 0.939 . S
H205 C222 0.940 . S
C206 P192 1.812 . S
C206 C207 1.389 . S
C206 C211 1.391 . S
C207 H193 0.941 1_655 S
C207 C206 1.389 . S
C207 C208 1.397 . S
C208 H194 0.939 . S
C208 C207 1.397 . S
C208 C209 1.378 . S
C209 C208 1.378 . S
C209 C210 1.378 . S
C210 H195 0.940 . S
C210 C209 1.378 . S
C210 C211 1.396 . S
C211 H196 0.940 . S
C211 C206 1.391 . S
C211 C210 1.396 . S
C212 P192 1.803 . S
C212 C213 1.378 . S
C212 C217 1.400 . S
C213 H197 0.939 1_655 S
C213 C212 1.378 . S
C213 C214 1.361 . S
C214 H198 0.942 . S
C214 C213 1.361 . S
C214 C215 1.369 . S
C215 C214 1.369 . S
C215 C216 1.404 . S
C216 H199 0.940 . S
C216 C215 1.404 . S
C216 C217 1.389 . S
C217 H200 0.939 . S
C217 C212 1.400 . S
C217 C216 1.389 . S
C218 P192 1.819 . S
C218 C219 1.391 1_655 S
C218 C223 1.391 . S
C219 H201 0.941 . S
C219 C218 1.391 1_455 S
C219 C220 1.396 . S
C220 H204 0.939 . S
C220 C219 1.396 . S
C220 C221 1.397 1_455 S
C221 C220 1.397 1_655 S
C221 C222 1.385 . S
C222 H205 0.940 . S
C222 C221 1.385 . S
C222 C223 1.388 . S
C223 H202 0.939 . S
C223 C218 1.391 . S
C223 C222 1.388 . S
P224 O235 1.490 . S
P224 C238 1.812 . S
P224 C244 1.803 . S
P224 C250 1.819 . S
H225 C239 0.941 . S
H226 C240 0.939 . S
H227 C242 0.940 . S
H228 C243 0.940 . S
H229 C245 0.939 . S
H230 C246 0.942 . S
H231 C248 0.940 . S
H232 C249 0.939 . S
H233 C251 0.941 . S
H234 C255 0.939 . S
O235 P224 1.490 . S
H236 C252 0.939 . S
H237 C254 0.940 . S
C238 P224 1.812 . S
C238 C239 1.389 . S
C238 C243 1.391 . S
C239 H225 0.941 . S
C239 C238 1.389 . S
C239 C240 1.397 . S
C240 H226 0.939 . S
C240 C239 1.397 . S
C240 C241 1.378 . S
C241 C240 1.378 . S
C241 C242 1.378 . S
C242 H227 0.940 . S
C242 C241 1.378 . S
C242 C243 1.396 . S
C243 H228 0.940 . S
C243 C238 1.391 . S
C243 C242 1.396 . S
C244 P224 1.803 . S
C244 C245 1.378 . S
C244 C249 1.400 . S
C245 H229 0.939 . S
C245 C244 1.378 . S
C245 C246 1.361 . S
C246 H230 0.942 . S
C246 C245 1.361 . S
C246 C247 1.369 . S
C247 C246 1.369 . S
C247 C248 1.404 . S
C248 H231 0.940 . S
C248 C247 1.404 . S
C248 C249 1.389 . S
C249 H232 0.939 . S
C249 C244 1.400 . S
C249 C248 1.389 . S
C250 P224 1.819 . S
C250 C251 1.391 . S
C250 C255 1.391 . S
C251 H233 0.941 . S
C251 C250 1.391 . S
C251 C252 1.396 . S
C252 H236 0.939 . S
C252 C251 1.396 . S
C252 C253 1.397 . S
C253 C252 1.397 . S
C253 C254 1.385 . S
C254 H237 0.940 . S
C254 C253 1.385 . S
C254 C255 1.388 . S
C255 H234 0.939 . S
C255 C250 1.391 . S
C255 C254 1.388 . S
P256 O267 1.490 . S
P256 C270 1.812 . S
P256 C276 1.803 . S
P256 C282 1.819 . S
H257 C271 0.941 . S
H258 C272 0.939 . S
H259 C274 0.940 . S
H260 C275 0.940 . S
H261 C277 0.939 . S
H262 C278 0.942 . S
H263 C280 0.940 . S
H264 C281 0.939 . S
H265 C283 0.941 . S
H266 C287 0.939 . S
O267 P256 1.490 . S
H268 C284 0.939 . S
H269 C286 0.940 . S
C270 P256 1.812 . S
C270 C271 1.389 . S
C270 C275 1.391 . S
C271 H257 0.941 . S
C271 C270 1.389 . S
C271 C272 1.397 . S
C272 H258 0.939 . S
C272 C271 1.397 . S
C272 C273 1.378 . S
C273 C272 1.378 . S
C273 C274 1.378 . S
C274 H259 0.940 . S
C274 C273 1.378 . S
C274 C275 1.396 . S
C275 H260 0.940 . S
C275 C270 1.391 . S
C275 C274 1.396 . S
C276 P256 1.803 . S
C276 C277 1.378 . S
C276 C281 1.400 . S
C277 H261 0.939 . S
C277 C276 1.378 . S
C277 C278 1.361 . S
C278 H262 0.942 . S
C278 C277 1.361 . S
C278 C279 1.369 . S
C279 C278 1.369 . S
C279 C280 1.404 . S
C280 H263 0.940 . S
C280 C279 1.404 . S
C280 C281 1.389 . S
C281 H264 0.939 . S
C281 C276 1.400 . S
C281 C280 1.389 . S
C282 P256 1.819 . S
C282 C283 1.391 . S
C282 C287 1.391 . S
C283 H265 0.941 . S
C283 C282 1.391 . S
C283 C284 1.396 . S
C284 H268 0.939 . S
C284 C283 1.396 . S
C284 C285 1.397 . S
C285 C284 1.397 . S
C285 C286 1.385 . S
C286 H269 0.940 . S
C286 C285 1.385 . S
C286 C287 1.388 . S
C287 H266 0.939 . S
C287 C282 1.391 . S
C287 C286 1.388 . S
P288 O299 1.490 . S
P288 C302 1.812 . S
P288 C308 1.803 . S
P288 C314 1.819 . S
H289 C303 0.941 . S
H290 C304 0.939 . S
H291 C306 0.940 . S
H292 C307 0.940 . S
H293 C309 0.939 . S
H294 C310 0.942 . S
H295 C312 0.940 . S
H296 C313 0.939 . S
H297 C315 0.941 . S
H298 C319 0.939 . S
O299 P288 1.490 . S
H300 C316 0.939 . S
H301 C318 0.940 . S
C302 P288 1.812 . S
C302 C303 1.389 . S
C302 C307 1.391 . S
C303 H289 0.941 . S
C303 C302 1.389 . S
C303 C304 1.397 . S
C304 H290 0.939 . S
C304 C303 1.397 . S
C304 C305 1.378 . S
C305 C304 1.378 . S
C305 C306 1.378 . S
C306 H291 0.940 . S
C306 C305 1.378 . S
C306 C307 1.396 . S
C307 H292 0.940 . S
C307 C302 1.391 . S
C307 C306 1.396 . S
C308 P288 1.803 . S
C308 C309 1.378 . S
C308 C313 1.400 . S
C309 H293 0.939 . S
C309 C308 1.378 . S
C309 C310 1.361 . S
C310 H294 0.942 . S
C310 C309 1.361 . S
C310 C311 1.369 . S
C311 C310 1.369 . S
C311 C312 1.404 . S
C312 H295 0.940 . S
C312 C311 1.404 . S
C312 C313 1.389 . S
C313 H296 0.939 . S
C313 C308 1.400 . S
C313 C312 1.389 . S
C314 P288 1.819 . S
C314 C315 1.391 . S
C314 C319 1.391 . S
C315 H297 0.941 . S
C315 C314 1.391 . S
C315 C316 1.396 . S
C316 H300 0.939 . S
C316 C315 1.396 . S
C316 C317 1.397 . S
C317 C316 1.397 . S
C317 C318 1.385 . S
C318 H301 0.940 . S
C318 C317 1.385 . S
C318 C319 1.388 . S
C319 H298 0.939 . S
C319 C314 1.391 . S
C319 C318 1.388 . S
P320 O331 1.490 . S
P320 C334 1.812 . S
P320 C340 1.803 . S
P320 C346 1.819 . S
H321 C335 0.941 . S
H322 C336 0.939 . S
H323 C338 0.940 . S
H324 C339 0.940 . S
H325 C341 0.939 . S
H326 C342 0.942 . S
H327 C344 0.940 . S
H328 C345 0.939 . S
H329 C347 0.941 . S
H330 C351 0.939 . S
O331 P320 1.490 . S
H332 C348 0.939 . S
H333 C350 0.940 . S
C334 P320 1.812 . S
C334 C335 1.389 . S
C334 C339 1.391 . S
C335 H321 0.941 . S
C335 C334 1.389 . S
C335 C336 1.397 . S
C336 H322 0.939 . S
C336 C335 1.397 . S
C336 C337 1.378 . S
C337 C336 1.378 . S
C337 C338 1.378 . S
C338 H323 0.940 . S
C338 C337 1.378 . S
C338 C339 1.396 . S
C339 H324 0.940 . S
C339 C334 1.391 . S
C339 C338 1.396 . S
C340 P320 1.803 . S
C340 C341 1.378 . S
C340 C345 1.400 . S
C341 H325 0.939 . S
C341 C340 1.378 . S
C341 C342 1.361 . S
C342 H326 0.942 . S
C342 C341 1.361 . S
C342 C343 1.369 . S
C343 C342 1.369 . S
C343 C344 1.404 . S
C344 H327 0.940 . S
C344 C343 1.404 . S
C344 C345 1.389 . S
C345 H328 0.939 . S
C345 C340 1.400 . S
C345 C344 1.389 . S
C346 P320 1.819 . S
C346 C347 1.391 . S
C346 C351 1.391 . S
C347 H329 0.941 . S
C347 C346 1.391 . S
C347 C348 1.396 . S
C348 H332 0.939 . S
C348 C347 1.396 . S
C348 C349 1.397 . S
C349 C348 1.397 . S
C349 C350 1.385 . S
C350 H333 0.940 . S
C350 C349 1.385 . S
C350 C351 1.388 . S
C351 H330 0.939 . S
C351 C346 1.391 . S
C351 C350 1.388 . S
P352 O363 1.490 . S
P352 C366 1.812 . S
P352 C372 1.803 . S
P352 C378 1.819 . S
H353 C367 0.941 . S
H354 C368 0.939 . S
H355 C370 0.940 . S
H356 C371 0.940 . S
H357 C373 0.939 . S
H358 C374 0.942 . S
H359 C376 0.940 . S
H360 C377 0.939 . S
H361 C379 0.941 . S
H362 C383 0.939 . S
O363 P352 1.490 . S
H364 C380 0.939 . S
H365 C382 0.940 . S
C366 P352 1.812 . S
C366 C367 1.389 . S
C366 C371 1.391 . S
C367 H353 0.941 . S
C367 C366 1.389 . S
C367 C368 1.397 . S
C368 H354 0.939 . S
C368 C367 1.397 . S
C368 C369 1.378 . S
C369 C368 1.378 . S
C369 C370 1.378 . S
C370 H355 0.940 . S
C370 C369 1.378 . S
C370 C371 1.396 . S
C371 H356 0.940 . S
C371 C366 1.391 . S
C371 C370 1.396 . S
C372 P352 1.803 . S
C372 C373 1.378 . S
C372 C377 1.400 . S
C373 H357 0.939 . S
C373 C372 1.378 . S
C373 C374 1.361 . S
C374 H358 0.942 . S
C374 C373 1.361 . S
C374 C375 1.369 . S
C375 C374 1.369 . S
C375 C376 1.404 . S
C376 H359 0.940 . S
C376 C375 1.404 . S
C376 C377 1.389 . S
C377 H360 0.939 . S
C377 C372 1.400 . S
C377 C376 1.389 . S
C378 P352 1.819 . S
C378 C379 1.391 . S
C378 C383 1.391 . S
C379 H361 0.941 . S
C379 C378 1.391 . S
C379 C380 1.396 . S
C380 H364 0.939 . S
C380 C379 1.396 . S
C380 C381 1.397 . S
C381 C380 1.397 . S
C381 C382 1.385 . S
C382 H365 0.940 . S
C382 C381 1.385 . S
C382 C383 1.388 . S
C383 H362 0.939 . S
C383 C378 1.391 . S
C383 C382 1.388 . S
P384 O395 1.490 . S
P384 C398 1.812 . S
P384 C404 1.803 . S
P384 C410 1.819 . S
H385 C399 0.941 . S
H386 C400 0.939 . S
H387 C402 0.940 . S
H388 C403 0.940 . S
H389 C405 0.939 . S
H390 C406 0.942 . S
H391 C408 0.940 . S
H392 C409 0.939 . S
H393 C411 0.941 . S
H394 C415 0.939 . S
O395 P384 1.490 . S
H396 C412 0.939 . S
H397 C414 0.940 . S
C398 P384 1.812 . S
C398 C399 1.389 . S
C398 C403 1.391 . S
C399 H385 0.941 . S
C399 C398 1.389 . S
C399 C400 1.397 . S
C400 H386 0.939 . S
C400 C399 1.397 . S
C400 C401 1.378 . S
C401 C400 1.378 . S
C401 C402 1.378 . S
C402 H387 0.940 . S
C402 C401 1.378 . S
C402 C403 1.396 . S
C403 H388 0.940 . S
C403 C398 1.391 . S
C403 C402 1.396 . S
C404 P384 1.803 . S
C404 C405 1.378 . S
C404 C409 1.400 . S
C405 H389 0.939 . S
C405 C404 1.378 . S
C405 C406 1.361 . S
C406 H390 0.942 . S
C406 C405 1.361 . S
C406 C407 1.369 . S
C407 C406 1.369 . S
C407 C408 1.404 . S
C408 H391 0.940 . S
C408 C407 1.404 . S
C408 C409 1.389 . S
C409 H392 0.939 . S
C409 C404 1.400 . S
C409 C408 1.389 . S
C410 P384 1.819 . S
C410 C411 1.391 . S
C410 C415 1.391 . S
C411 H393 0.941 . S
C411 C410 1.391 . S
C411 C412 1.396 . S
C412 H396 0.939 . S
C412 C411 1.396 . S
C412 C413 1.397 . S
C413 C412 1.397 . S
C413 C414 1.385 . S
C414 H397 0.940 . S
C414 C413 1.385 . S
C414 C415 1.388 . S
C415 H394 0.939 . S
C415 C410 1.391 . S
C415 C414 1.388 . S
P416 O427 1.490 . S
P416 C430 1.812 . S
P416 C436 1.803 . S
P416 C442 1.819 . S
H417 C431 0.941 . S
H418 C432 0.939 . S
H419 C434 0.940 . S
H420 C435 0.940 . S
H421 C437 0.939 . S
H422 C438 0.942 . S
H423 C440 0.940 . S
H424 C441 0.939 . S
H425 C443 0.941 . S
H426 C447 0.939 . S
O427 P416 1.490 . S
H428 C444 0.939 . S
H429 C446 0.940 . S
C430 P416 1.812 . S
C430 C431 1.389 . S
C430 C435 1.391 . S
C431 H417 0.941 . S
C431 C430 1.389 . S
C431 C432 1.397 . S
C432 H418 0.939 . S
C432 C431 1.397 . S
C432 C433 1.378 . S
C433 C432 1.378 . S
C433 C434 1.378 . S
C434 H419 0.940 . S
C434 C433 1.378 . S
C434 C435 1.396 . S
C435 H420 0.940 . S
C435 C430 1.391 . S
C435 C434 1.396 . S
C436 P416 1.803 . S
C436 C437 1.378 . S
C436 C441 1.400 . S
C437 H421 0.939 . S
C437 C436 1.378 . S
C437 C438 1.361 . S
C438 H422 0.942 . S
C438 C437 1.361 . S
C438 C439 1.369 . S
C439 C438 1.369 . S
C439 C440 1.404 . S
C440 H423 0.940 . S
C440 C439 1.404 . S
C440 C441 1.389 . S
C441 H424 0.939 . S
C441 C436 1.400 . S
C441 C440 1.389 . S
C442 P416 1.819 . S
C442 C443 1.391 . S
C442 C447 1.391 . S
C443 H425 0.941 . S
C443 C442 1.391 . S
C443 C444 1.396 . S
C444 H428 0.939 . S
C444 C443 1.396 . S
C444 C445 1.397 . S
C445 C444 1.397 . S
C445 C446 1.385 . S
C446 H429 0.940 . S
C446 C445 1.385 . S
C446 C447 1.388 . S
C447 H426 0.939 . S
C447 C442 1.391 . S
C447 C446 1.388 . S
P448 O459 1.490 . S
P448 C462 1.812 . S
P448 C468 1.803 . S
P448 C474 1.819 . S
H449 C463 0.941 . S
H450 C464 0.939 . S
H451 C466 0.940 . S
H452 C467 0.940 . S
H453 C469 0.939 . S
H454 C470 0.942 . S
H455 C472 0.940 . S
H456 C473 0.939 . S
H457 C475 0.941 . S
H458 C479 0.939 . S
O459 P448 1.490 . S
H460 C476 0.939 . S
H461 C478 0.940 . S
C462 P448 1.812 . S
C462 C463 1.389 . S
C462 C467 1.391 . S
C463 H449 0.941 . S
C463 C462 1.389 . S
C463 C464 1.397 . S
C464 H450 0.939 . S
C464 C463 1.397 . S
C464 C465 1.378 . S
C465 C464 1.378 . S
C465 C466 1.378 . S
C466 H451 0.940 . S
C466 C465 1.378 . S
C466 C467 1.396 . S
C467 H452 0.940 . S
C467 C462 1.391 . S
C467 C466 1.396 . S
C468 P448 1.803 . S
C468 C469 1.378 . S
C468 C473 1.400 . S
C469 H453 0.939 . S
C469 C468 1.378 . S
C469 C470 1.361 . S
C470 H454 0.942 . S
C470 C469 1.361 . S
C470 C471 1.369 . S
C471 C470 1.369 . S
C471 C472 1.404 . S
C472 H455 0.940 . S
C472 C471 1.404 . S
C472 C473 1.389 . S
C473 H456 0.939 . S
C473 C468 1.400 . S
C473 C472 1.389 . S
C474 P448 1.819 . S
C474 C475 1.391 . S
C474 C479 1.391 . S
C475 H457 0.941 . S
C475 C474 1.391 . S
C475 C476 1.396 . S
C476 H460 0.939 . S
C476 C475 1.396 . S
C476 C477 1.397 . S
C477 C476 1.397 . S
C477 C478 1.385 . S
C478 H461 0.940 . S
C478 C477 1.385 . S
C478 C479 1.388 . S
C479 H458 0.939 . S
C479 C474 1.391 . S
C479 C478 1.388 . S
P480 O491 1.492 . S
P480 C494 1.812 . S
P480 C500 1.803 . S
P480 C506 1.819 . S
H481 C495 0.941 . S
H482 C496 0.939 . S
H483 C498 0.940 . S
H484 C499 0.940 . S
H485 C501 0.939 . S
H486 C502 0.942 . S
H487 C504 0.940 . S
H488 C505 0.939 . S
H489 C507 0.941 . S
H490 C511 0.939 . S
O491 P480 1.492 . S
H492 C508 0.939 . S
H493 C510 0.940 . S
C494 P480 1.812 . S
C494 C495 1.389 . S
C494 C499 1.391 . S
C495 H481 0.941 . S
C495 C494 1.389 . S
C495 C496 1.397 . S
C496 H482 0.939 . S
C496 C495 1.397 . S
C496 C497 1.378 . S
C497 C496 1.378 . S
C497 C498 1.378 . S
C498 H483 0.940 . S
C498 C497 1.378 . S
C498 C499 1.396 . S
C499 H484 0.940 . S
C499 C494 1.391 . S
C499 C498 1.396 . S
C500 P480 1.803 . S
C500 C501 1.378 . S
C500 C505 1.400 . S
C501 H485 0.939 . S
C501 C500 1.378 . S
C501 C502 1.361 . S
C502 H486 0.942 . S
C502 C501 1.361 . S
C502 C503 1.369 . S
C503 C502 1.369 . S
C503 C504 1.404 . S
C504 H487 0.940 . S
C504 C503 1.404 . S
C504 C505 1.389 . S
C505 H488 0.939 . S
C505 C500 1.400 . S
C505 C504 1.389 . S
C506 P480 1.819 . S
C506 C507 1.391 . S
C506 C511 1.391 . S
C507 H489 0.941 . S
C507 C506 1.391 . S
C507 C508 1.396 . S
C508 H492 0.939 . S
C508 C507 1.396 . S
C508 C509 1.397 . S
C509 C508 1.397 . S
C509 C510 1.385 . S
C510 H493 0.940 . S
C510 C509 1.385 . S
C510 C511 1.388 . S
C511 H490 0.939 . S
C511 C506 1.391 . S
C511 C510 1.388 . S
P512 O523 1.490 . S
P512 C526 1.812 . S
P512 C532 1.803 . S
P512 C538 1.819 . S
H513 C527 0.941 . S
H514 C528 0.939 . S
H515 C530 0.940 . S
H516 C531 0.940 . S
H517 C533 0.939 . S
H518 C534 0.942 . S
H519 C536 0.940 . S
H520 C537 0.939 . S
H521 C539 0.941 . S
H522 C543 0.939 . S
O523 P512 1.490 . S
H524 C540 0.939 . S
H525 C542 0.940 . S
C526 P512 1.812 . S
C526 C527 1.389 . S
C526 C531 1.391 . S
C527 H513 0.941 . S
C527 C526 1.389 . S
C527 C528 1.397 . S
C528 H514 0.939 . S
C528 C527 1.397 . S
C528 C529 1.378 . S
C529 C528 1.378 . S
C529 C530 1.378 . S
C530 H515 0.940 . S
C530 C529 1.378 . S
C530 C531 1.396 . S
C531 H516 0.940 . S
C531 C526 1.391 . S
C531 C530 1.396 . S
C532 P512 1.803 . S
C532 C533 1.378 . S
C532 C537 1.400 . S
C533 H517 0.939 . S
C533 C532 1.378 . S
C533 C534 1.361 . S
C534 H518 0.942 . S
C534 C533 1.361 . S
C534 C535 1.369 . S
C535 C534 1.369 . S
C535 C536 1.404 . S
C536 H519 0.940 . S
C536 C535 1.404 . S
C536 C537 1.389 . S
C537 H520 0.939 . S
C537 C532 1.400 . S
C537 C536 1.389 . S
C538 P512 1.819 . S
C538 C539 1.391 . S
C538 C543 1.391 . S
C539 H521 0.941 . S
C539 C538 1.391 . S
C539 C540 1.396 . S
C540 H524 0.939 . S
C540 C539 1.396 . S
C540 C541 1.397 . S
C541 C540 1.397 . S
C541 C542 1.385 . S
C542 H525 0.940 . S
C542 C541 1.385 . S
C542 C543 1.388 . S
C543 H522 0.939 . S
C543 C538 1.391 . S
C543 C542 1.388 . S
P544 O555 1.490 . S
P544 C558 1.812 . S
P544 C564 1.803 . S
P544 C570 1.819 . S
H545 C559 0.941 . S
H546 C560 0.939 . S
H547 C562 0.940 . S
H548 C563 0.940 . S
H549 C565 0.939 . S
H550 C566 0.942 . S
H551 C568 0.940 . S
H552 C569 0.939 . S
H553 C571 0.941 . S
H554 C575 0.939 . S
O555 P544 1.490 . S
H556 C572 0.939 . S
H557 C574 0.940 . S
C558 P544 1.812 . S
C558 C559 1.389 . S
C558 C563 1.391 . S
C559 H545 0.941 . S
C559 C558 1.389 . S
C559 C560 1.397 . S
C560 H546 0.939 . S
C560 C559 1.397 . S
C560 C561 1.378 . S
C561 C560 1.378 . S
C561 C562 1.378 . S
C562 H547 0.940 . S
C562 C561 1.378 . S
C562 C563 1.396 . S
C563 H548 0.940 . S
C563 C558 1.391 . S
C563 C562 1.396 . S
C564 P544 1.803 . S
C564 C565 1.378 . S
C564 C569 1.400 . S
C565 H549 0.939 . S
C565 C564 1.378 . S
C565 C566 1.361 . S
C566 H550 0.942 . S
C566 C565 1.361 . S
C566 C567 1.369 . S
C567 C566 1.369 . S
C567 C568 1.404 . S
C568 H551 0.940 . S
C568 C567 1.404 . S
C568 C569 1.389 . S
C569 H552 0.939 . S
C569 C564 1.400 . S
C569 C568 1.389 . S
C570 P544 1.819 . S
C570 C571 1.391 . S
C570 C575 1.391 . S
C571 H553 0.941 . S
C571 C570 1.391 . S
C571 C572 1.396 . S
C572 H556 0.939 . S
C572 C571 1.396 . S
C572 C573 1.397 . S
C573 C572 1.397 . S
C573 C574 1.385 . S
C574 H557 0.940 . S
C574 C573 1.385 . S
C574 C575 1.388 . S
C575 H554 0.939 . S
C575 C570 1.391 . S
C575 C574 1.388 . S
Eu576 C585 2.828 . S
Eu576 O587 2.388 1_556 S
Eu576 O589 2.418 . S
Eu576 O594 2.373 1_565 S
Eu576 O597 2.488 . S
Eu576 O598 2.471 1_565 S
Eu576 O599 2.349 1_565 S
Eu577 O586 2.373 1_545 S
Eu577 O590 2.488 . S
Eu577 O591 2.471 1_545 S
Eu577 O592 2.349 1_545 S
Eu577 O595 2.392 . S
Eu577 O596 2.418 . S
Eu577 C606 2.828 . S
C578 O596 1.256 . S
C578 O599 1.260 1_554 S
C579 C580 1.379 1_565 S
C579 C583 1.373 . S
C579 C585 1.505 . S
C580 C579 1.379 1_545 S
C580 C582 1.369 . S
C580 H608 0.930 . S
C581 C583 1.383 . S
C581 C584 1.382 1_565 S
C581 H609 0.930 . S
C582 C580 1.369 . S
C582 C584 1.392 . S
C582 H610 0.930 . S
C583 C579 1.373 . S
C583 C581 1.383 . S
C583 H611 0.931 . S
C584 C581 1.382 1_545 S
C584 C582 1.392 . S
C585 Eu576 2.828 . S
C585 C579 1.505 . S
C585 O597 1.249 . S
C585 O598 1.244 1_565 S
O586 Eu577 2.373 1_565 S
O586 C588 1.258 . S
O587 Eu576 2.388 1_554 S
O587 C588 1.248 . S
C588 O586 1.258 . S
C588 O587 1.248 . S
O589 Eu576 2.418 . S
O589 C593 1.244 1_556 S
O590 Eu577 2.488 . S
O590 C606 1.249 . S
O591 Eu577 2.471 1_565 S
O591 C606 1.244 1_565 S
O592 Eu577 2.349 1_565 S
O592 C593 1.265 . S
C593 O589 1.244 1_554 S
C593 O592 1.265 . S
O594 Eu576 2.373 1_545 S
O594 C607 1.258 . S
O595 Eu577 2.392 . S
O595 C607 1.242 1_554 S
O596 Eu577 2.418 . S
O596 C578 1.256 . S
O597 Eu576 2.488 . S
O597 C585 1.249 . S
O598 Eu576 2.471 1_545 S
O598 C585 1.244 1_545 S
O599 Eu576 2.349 1_545 S
O599 C578 1.260 1_556 S
C600 C601 1.379 1_545 S
C600 C604 1.373 . S
C600 C606 1.505 . S
C601 C600 1.379 1_565 S
C601 C603 1.369 . S
C601 H612 0.930 . S
C602 C604 1.383 . S
C602 C605 1.382 1_545 S
C602 H613 0.930 . S
C603 C601 1.369 . S
C603 C605 1.392 . S
C603 H614 0.930 . S
C604 C600 1.373 . S
C604 C602 1.383 . S
C604 H615 0.931 . S
C605 C602 1.382 1_565 S
C605 C603 1.392 . S
C606 Eu577 2.828 . S
C606 O590 1.249 . S
C606 O591 1.244 1_545 S
C606 C600 1.505 . S
C607 O594 1.258 . S
C607 O595 1.242 1_556 S
H608 C580 0.930 . S
H609 C581 0.930 . S
H610 C582 0.930 . S
H611 C583 0.931 . S
H612 C601 0.930 . S
H613 C602 0.930 . S
H614 C603 0.930 . S
H615 C604 0.931 . S
Eu616 C625 2.828 . S
Eu616 O627 2.392 1_556 S
Eu616 O629 2.418 . S
Eu616 O634 2.373 1_455 S
Eu616 O637 2.488 . S
Eu616 O638 2.471 1_455 S
Eu616 O639 2.349 1_455 S
Eu617 O626 2.373 1_655 S
Eu617 O630 2.488 . S
Eu617 O631 2.471 1_655 S
Eu617 O632 2.349 1_655 S
Eu617 O635 2.392 . S
Eu617 O636 2.418 . S
Eu617 C646 2.828 . S
C618 O636 1.244 1_556 S
C618 O639 1.265 . S
C619 C620 1.356 1_455 S
C619 C623 1.386 . S
C619 C625 1.515 . S
C620 C619 1.356 1_655 S
C620 C622 1.369 . S
C620 H648 0.930 . S
C621 C623 1.383 . S
C621 C624 1.382 1_455 S
C621 H649 0.930 . S
C622 C620 1.369 . S
C622 C624 1.392 . S
C622 H650 0.930 . S
C623 C619 1.386 . S
C623 C621 1.383 . S
C623 H651 0.931 . S
C624 C621 1.382 1_655 S
C624 C622 1.392 . S
C625 Eu616 2.828 . S
C625 C619 1.515 . S
C625 O637 1.249 . S
C625 O638 1.244 1_455 S
O626 Eu617 2.373 1_455 S
O626 C628 1.258 . S
O627 Eu616 2.392 1_554 S
O627 C628 1.242 . S
C628 O626 1.258 . S
C628 O627 1.242 . S
O629 Eu616 2.418 . S
O629 C633 1.244 1_556 S
O630 Eu617 2.488 . S
O630 C646 1.249 . S
O631 Eu617 2.471 1_455 S
O631 C646 1.244 1_455 S
O632 Eu617 2.349 1_455 S
O632 C633 1.265 . S
C633 O629 1.244 1_554 S
C633 O632 1.265 . S
O634 Eu616 2.373 1_655 S
O634 C647 1.258 . S
O635 Eu617 2.392 . S
O635 C647 1.242 1_554 S
O636 Eu617 2.418 . S
O636 C618 1.244 1_554 S
O637 Eu616 2.488 . S
O637 C625 1.249 . S
O638 Eu616 2.471 1_655 S
O638 C625 1.244 1_655 S
O639 Eu616 2.349 1_655 S
O639 C618 1.265 . S
C640 C641 1.395 . S
C640 C644 1.364 1_455 S
C640 C646 1.498 1_455 S
C641 C640 1.395 . S
C641 C643 1.369 . S
C641 H652 0.930 . S
C642 C644 1.383 . S
C642 C645 1.382 1_655 S
C642 H653 0.930 . S
C643 C641 1.369 . S
C643 C645 1.392 . S
C643 H654 0.930 . S
C644 C640 1.364 1_655 S
C644 C642 1.383 . S
C644 H655 0.931 . S
C645 C642 1.382 1_455 S
C645 C643 1.392 . S
C646 Eu617 2.828 . S
C646 O630 1.249 . S
C646 O631 1.244 1_655 S
C646 C640 1.498 1_655 S
C647 O634 1.258 . S
C647 O635 1.242 1_556 S
H648 C620 0.930 . S
H649 C621 0.930 . S
H650 C622 0.930 . S
H651 C623 0.931 . S
H652 C641 0.930 . S
H653 C642 0.930 . S
H654 C643 0.930 . S
H655 C644 0.931 . S
Eu656 C665 2.828 . S
Eu656 O667 2.392 . S
Eu656 O669 2.418 . S
Eu656 O674 2.373 . S
Eu656 O677 2.488 . S
Eu656 O678 2.471 . S
Eu656 O679 2.349 . S
Eu657 O666 2.373 . S
Eu657 O670 2.488 . S
Eu657 O671 2.471 . S
Eu657 O672 2.349 . S
Eu657 O675 2.392 1_556 S
Eu657 O676 2.418 . S
Eu657 C686 2.828 . S
C658 O676 1.244 1_554 S
C658 O679 1.265 . S
C659 C660 1.379 . S
C659 C663 1.373 . S
C659 C665 1.505 . S
C660 C659 1.379 . S
C660 C662 1.369 . S
C660 H688 0.930 . S
C661 C663 1.383 . S
C661 C664 1.382 . S
C661 H689 0.930 . S
C662 C660 1.369 . S
C662 C664 1.392 . S
C662 H690 0.930 . S
C663 C659 1.373 . S
C663 C661 1.383 . S
C663 H691 0.931 . S
C664 C661 1.382 . S
C664 C662 1.392 . S
C665 Eu656 2.828 . S
C665 C659 1.505 . S
C665 O677 1.249 . S
C665 O678 1.244 . S
O666 Eu657 2.373 . S
O666 C668 1.258 . S
O667 Eu656 2.392 . S
O667 C668 1.242 1_554 S
C668 O666 1.258 . S
C668 O667 1.242 1_556 S
O669 Eu656 2.418 . S
O669 C673 1.244 1_554 S
O670 Eu657 2.488 . S
O670 C686 1.249 . S
O671 Eu657 2.471 . S
O671 C686 1.244 . S
O672 Eu657 2.349 . S
O672 C673 1.265 . S
C673 O669 1.244 1_556 S
C673 O672 1.265 . S
O674 Eu656 2.373 . S
O674 C687 1.258 . S
O675 Eu657 2.392 1_554 S
O675 C687 1.242 . S
O676 Eu657 2.418 . S
O676 C658 1.244 1_556 S
O677 Eu656 2.488 . S
O677 C665 1.249 . S
O678 Eu656 2.471 . S
O678 C665 1.244 . S
O679 Eu656 2.349 . S
O679 C658 1.265 . S
C680 C681 1.379 . S
C680 C684 1.373 . S
C680 C686 1.505 . S
C681 C680 1.379 . S
C681 C683 1.369 . S
C681 H692 0.930 . S
C682 C684 1.383 . S
C682 C685 1.382 . S
C682 H693 0.930 . S
C683 C681 1.369 . S
C683 C685 1.392 . S
C683 H694 0.930 . S
C684 C680 1.373 . S
C684 C682 1.383 . S
C684 H695 0.931 . S
C685 C682 1.382 . S
C685 C683 1.392 . S
C686 Eu657 2.828 . S
C686 O670 1.249 . S
C686 O671 1.244 . S
C686 C680 1.505 . S
C687 O674 1.258 . S
C687 O675 1.242 . S
H688 C660 0.930 . S
H689 C661 0.930 . S
H690 C662 0.930 . S
H691 C663 0.931 . S
H692 C681 0.930 . S
H693 C682 0.930 . S
H694 C683 0.930 . S
H695 C684 0.931 . S
Eu696 C705 2.828 . S
Eu696 O707 2.392 . S
Eu696 O709 2.418 . S
Eu696 O714 2.373 . S
Eu696 O717 2.488 . S
Eu696 O718 2.471 . S
Eu696 O719 2.349 . S
Eu697 O706 2.373 . S
Eu697 O710 2.488 . S
Eu697 O711 2.471 . S
Eu697 O712 2.349 . S
Eu697 O715 2.392 . S
Eu697 O716 2.418 . S
Eu697 C726 2.828 . S
C698 O716 1.244 . S
C698 O719 1.265 . S
C699 C700 1.379 . S
C699 C703 1.373 . S
C699 C705 1.505 . S
C700 C699 1.379 . S
C700 C702 1.369 . S
C700 H728 0.930 . S
C701 C703 1.383 . S
C701 C704 1.382 . S
C701 H729 0.930 . S
C702 C700 1.369 . S
C702 C704 1.392 . S
C702 H730 0.930 . S
C703 C699 1.373 . S
C703 C701 1.383 . S
C703 H731 0.931 . S
C704 C701 1.382 . S
C704 C702 1.392 . S
C705 Eu696 2.828 . S
C705 C699 1.505 . S
C705 O717 1.249 . S
C705 O718 1.244 . S
O706 Eu697 2.373 . S
O706 C708 1.258 . S
O707 Eu696 2.392 . S
O707 C708 1.242 . S
C708 O706 1.258 . S
C708 O707 1.242 . S
O709 Eu696 2.418 . S
O709 C713 1.244 . S
O710 Eu697 2.488 . S
O710 C726 1.249 . S
O711 Eu697 2.471 . S
O711 C726 1.244 . S
O712 Eu697 2.349 . S
O712 C713 1.265 . S
C713 O709 1.244 . S
C713 O712 1.265 . S
O714 Eu696 2.373 . S
O714 C727 1.258 . S
O715 Eu697 2.392 . S
O715 C727 1.242 . S
O716 Eu697 2.418 . S
O716 C698 1.244 . S
O717 Eu696 2.488 . S
O717 C705 1.249 . S
O718 Eu696 2.471 . S
O718 C705 1.244 . S
O719 Eu696 2.349 . S
O719 C698 1.265 . S
C720 C721 1.379 . S
C720 C724 1.373 . S
C720 C726 1.505 . S
C721 C720 1.379 . S
C721 C723 1.369 . S
C721 H732 0.930 . S
C722 C724 1.383 . S
C722 C725 1.382 . S
C722 H733 0.930 . S
C723 C721 1.369 . S
C723 C725 1.392 . S
C723 H734 0.930 . S
C724 C720 1.373 . S
C724 C722 1.383 . S
C724 H735 0.931 . S
C725 C722 1.382 . S
C725 C723 1.392 . S
C726 Eu697 2.828 . S
C726 O710 1.249 . S
C726 O711 1.244 . S
C726 C720 1.505 . S
C727 O714 1.258 . S
C727 O715 1.242 . S
H728 C700 0.930 . S
H729 C701 0.930 . S
H730 C702 0.930 . S
H731 C703 0.931 . S
H732 C721 0.930 . S
H733 C722 0.930 . S
H734 C723 0.930 . S
H735 C724 0.931 . S
Eu736 C745 2.828 . S
Eu736 O747 2.392 . S
Eu736 O749 2.418 . S
Eu736 O754 2.373 . S
Eu736 O757 2.488 . S
Eu736 O758 2.471 . S
Eu736 O759 2.349 . S
Eu737 O746 2.373 . S
Eu737 O750 2.488 . S
Eu737 O751 2.471 . S
Eu737 O752 2.349 . S
Eu737 O755 2.392 . S
Eu737 O756 2.418 . S
Eu737 C766 2.828 . S
C738 O756 1.244 . S
C738 O759 1.265 . S
C739 C740 1.379 . S
C739 C743 1.373 . S
C739 C745 1.505 . S
C740 C739 1.379 . S
C740 C742 1.369 . S
C740 H768 0.930 . S
C741 C743 1.383 . S
C741 C744 1.382 . S
C741 H769 0.930 . S
C742 C740 1.369 . S
C742 C744 1.392 . S
C742 H770 0.930 . S
C743 C739 1.373 . S
C743 C741 1.383 . S
C743 H771 0.931 . S
C744 C741 1.382 . S
C744 C742 1.392 . S
C745 Eu736 2.828 . S
C745 C739 1.505 . S
C745 O757 1.249 . S
C745 O758 1.244 . S
O746 Eu737 2.373 . S
O746 C748 1.258 . S
O747 Eu736 2.392 . S
O747 C748 1.242 . S
C748 O746 1.258 . S
C748 O747 1.242 . S
O749 Eu736 2.418 . S
O749 C753 1.244 . S
O750 Eu737 2.488 . S
O750 C766 1.249 . S
O751 Eu737 2.471 . S
O751 C766 1.244 . S
O752 Eu737 2.349 . S
O752 C753 1.265 . S
C753 O749 1.244 . S
C753 O752 1.265 . S
O754 Eu736 2.373 . S
O754 C767 1.258 . S
O755 Eu737 2.392 . S
O755 C767 1.242 . S
O756 Eu737 2.418 . S
O756 C738 1.244 . S
O757 Eu736 2.488 . S
O757 C745 1.249 . S
O758 Eu736 2.471 . S
O758 C745 1.244 . S
O759 Eu736 2.349 . S
O759 C738 1.265 . S
C760 C761 1.379 . S
C760 C764 1.373 . S
C760 C766 1.505 . S
C761 C760 1.379 . S
C761 C763 1.369 . S
C761 H772 0.930 . S
C762 C764 1.383 . S
C762 C765 1.382 . S
C762 H773 0.930 . S
C763 C761 1.369 . S
C763 C765 1.392 . S
C763 H774 0.930 . S
C764 C760 1.373 . S
C764 C762 1.383 . S
C764 H775 0.931 . S
C765 C762 1.382 . S
C765 C763 1.392 . S
C766 Eu737 2.828 . S
C766 O750 1.249 . S
C766 O751 1.244 . S
C766 C760 1.505 . S
C767 O754 1.258 . S
C767 O755 1.242 . S
H768 C740 0.930 . S
H769 C741 0.930 . S
H770 C742 0.930 . S
H771 C743 0.931 . S
H772 C761 0.930 . S
H773 C762 0.930 . S
H774 C763 0.930 . S
H775 C764 0.931 . S
Eu776 C785 2.828 . S
Eu776 O787 2.392 . S
Eu776 O789 2.418 . S
Eu776 O794 2.373 . S
Eu776 O797 2.488 . S
Eu776 O798 2.471 . S
Eu776 O799 2.349 . S
Eu777 O786 2.373 . S
Eu777 O790 2.488 . S
Eu777 O791 2.471 . S
Eu777 O792 2.349 . S
Eu777 O795 2.392 . S
Eu777 O796 2.418 . S
Eu777 C806 2.828 . S
C778 O796 1.244 . S
C778 O799 1.265 . S
C779 C780 1.379 . S
C779 C783 1.373 . S
C779 C785 1.505 . S
C780 C779 1.379 . S
C780 C782 1.369 . S
C780 H808 0.930 . S
C781 C783 1.383 . S
C781 C784 1.382 . S
C781 H809 0.930 . S
C782 C780 1.369 . S
C782 C784 1.392 . S
C782 H810 0.930 . S
C783 C779 1.373 . S
C783 C781 1.383 . S
C783 H811 0.931 . S
C784 C781 1.382 . S
C784 C782 1.392 . S
C785 Eu776 2.828 . S
C785 C779 1.505 . S
C785 O797 1.249 . S
C785 O798 1.244 . S
O786 Eu777 2.373 . S
O786 C788 1.258 . S
O787 Eu776 2.392 . S
O787 C788 1.242 . S
C788 O786 1.258 . S
C788 O787 1.242 . S
O789 Eu776 2.418 . S
O789 C793 1.244 . S
O790 Eu777 2.488 . S
O790 C806 1.249 . S
O791 Eu777 2.471 . S
O791 C806 1.244 . S
O792 Eu777 2.349 . S
O792 C793 1.265 . S
C793 O789 1.244 . S
C793 O792 1.265 . S
O794 Eu776 2.373 . S
O794 C807 1.258 . S
O795 Eu777 2.392 . S
O795 C807 1.242 . S
O796 Eu777 2.418 . S
O796 C778 1.244 . S
O797 Eu776 2.488 . S
O797 C785 1.249 . S
O798 Eu776 2.471 . S
O798 C785 1.244 . S
O799 Eu776 2.349 . S
O799 C778 1.265 . S
C800 C801 1.379 . S
C800 C804 1.373 . S
C800 C806 1.505 . S
C801 C800 1.379 . S
C801 C803 1.369 . S
C801 H812 0.930 . S
C802 C804 1.383 . S
C802 C805 1.382 . S
C802 H813 0.930 . S
C803 C801 1.369 . S
C803 C805 1.392 . S
C803 H814 0.930 . S
C804 C800 1.373 . S
C804 C802 1.383 . S
C804 H815 0.931 . S
C805 C802 1.382 . S
C805 C803 1.392 . S
C806 Eu777 2.828 . S
C806 O790 1.249 . S
C806 O791 1.244 . S
C806 C800 1.505 . S
C807 O794 1.258 . S
C807 O795 1.242 . S
H808 C780 0.930 . S
H809 C781 0.930 . S
H810 C782 0.930 . S
H811 C783 0.931 . S
H812 C801 0.930 . S
H813 C802 0.930 . S
H814 C803 0.930 . S
H815 C804 0.931 . S
Eu816 C825 2.828 . S
Eu816 O827 2.392 . S
Eu816 O829 2.418 . S
Eu816 O834 2.373 . S
Eu816 O837 2.488 . S
Eu816 O838 2.471 . S
Eu816 O839 2.349 . S
Eu817 O826 2.373 . S
Eu817 O830 2.488 . S
Eu817 O831 2.471 . S
Eu817 O832 2.349 . S
Eu817 O835 2.392 . S
Eu817 O836 2.418 . S
Eu817 C846 2.828 . S
C818 O836 1.244 . S
C818 O839 1.265 . S
C819 C820 1.379 . S
C819 C823 1.373 . S
C819 C825 1.505 . S
C820 C819 1.379 . S
C820 C822 1.369 . S
C820 H848 0.930 . S
C821 C823 1.383 . S
C821 C824 1.382 . S
C821 H849 0.930 . S
C822 C820 1.369 . S
C822 C824 1.392 . S
C822 H850 0.930 . S
C823 C819 1.373 . S
C823 C821 1.383 . S
C823 H851 0.931 . S
C824 C821 1.382 . S
C824 C822 1.392 . S
C825 Eu816 2.828 . S
C825 C819 1.505 . S
C825 O837 1.249 . S
C825 O838 1.244 . S
O826 Eu817 2.373 . S
O826 C828 1.258 . S
O827 Eu816 2.392 . S
O827 C828 1.242 . S
C828 O826 1.258 . S
C828 O827 1.242 . S
O829 Eu816 2.418 . S
O829 C833 1.244 . S
O830 Eu817 2.488 . S
O830 C846 1.249 . S
O831 Eu817 2.471 . S
O831 C846 1.244 . S
O832 Eu817 2.349 . S
O832 C833 1.265 . S
C833 O829 1.244 . S
C833 O832 1.265 . S
O834 Eu816 2.373 . S
O834 C847 1.258 . S
O835 Eu817 2.392 . S
O835 C847 1.242 . S
O836 Eu817 2.418 . S
O836 C818 1.244 . S
O837 Eu816 2.488 . S
O837 C825 1.249 . S
O838 Eu816 2.471 . S
O838 C825 1.244 . S
O839 Eu816 2.349 . S
O839 C818 1.265 . S
C840 C841 1.379 . S
C840 C844 1.373 . S
C840 C846 1.505 . S
C841 C840 1.379 . S
C841 C843 1.369 . S
C841 H852 0.930 . S
C842 C844 1.383 . S
C842 C845 1.382 . S
C842 H853 0.930 . S
C843 C841 1.369 . S
C843 C845 1.392 . S
C843 H854 0.930 . S
C844 C840 1.373 . S
C844 C842 1.383 . S
C844 H855 0.931 . S
C845 C842 1.382 . S
C845 C843 1.392 . S
C846 Eu817 2.828 . S
C846 O830 1.249 . S
C846 O831 1.244 . S
C846 C840 1.505 . S
C847 O834 1.258 . S
C847 O835 1.242 . S
H848 C820 0.930 . S
H849 C821 0.930 . S
H850 C822 0.930 . S
H851 C823 0.931 . S
H852 C841 0.930 . S
H853 C842 0.930 . S
H854 C843 0.930 . S
H855 C844 0.931 . S
Eu856 C865 2.828 . S
Eu856 O867 2.392 . S
Eu856 O869 2.418 . S
Eu856 O874 2.373 . S
Eu856 O877 2.488 . S
Eu856 O878 2.471 . S
Eu856 O879 2.349 . S
Eu857 O866 2.373 . S
Eu857 O870 2.488 . S
Eu857 O871 2.471 . S
Eu857 O872 2.349 . S
Eu857 O875 2.392 . S
Eu857 O876 2.418 . S
Eu857 C886 2.828 . S
C858 O876 1.244 . S
C858 O879 1.265 . S
C859 C860 1.379 . S
C859 C863 1.373 . S
C859 C865 1.505 . S
C860 C859 1.379 . S
C860 C862 1.369 . S
C860 H888 0.930 . S
C861 C863 1.383 . S
C861 C864 1.382 . S
C861 H889 0.930 . S
C862 C860 1.369 . S
C862 C864 1.392 . S
C862 H890 0.930 . S
C863 C859 1.373 . S
C863 C861 1.383 . S
C863 H891 0.931 . S
C864 C861 1.382 . S
C864 C862 1.392 . S
C865 Eu856 2.828 . S
C865 C859 1.505 . S
C865 O877 1.249 . S
C865 O878 1.244 . S
O866 Eu857 2.373 . S
O866 C868 1.258 . S
O867 Eu856 2.392 . S
O867 C868 1.242 . S
C868 O866 1.258 . S
C868 O867 1.242 . S
O869 Eu856 2.418 . S
O869 C873 1.244 . S
O870 Eu857 2.488 . S
O870 C886 1.249 . S
O871 Eu857 2.471 . S
O871 C886 1.244 . S
O872 Eu857 2.349 . S
O872 C873 1.265 . S
C873 O869 1.244 . S
C873 O872 1.265 . S
O874 Eu856 2.373 . S
O874 C887 1.258 . S
O875 Eu857 2.392 . S
O875 C887 1.242 . S
O876 Eu857 2.418 . S
O876 C858 1.244 . S
O877 Eu856 2.488 . S
O877 C865 1.249 . S
O878 Eu856 2.471 . S
O878 C865 1.244 . S
O879 Eu856 2.349 . S
O879 C858 1.265 . S
C880 C881 1.379 . S
C880 C884 1.373 . S
C880 C886 1.505 . S
C881 C880 1.379 . S
C881 C883 1.369 . S
C881 H892 0.930 . S
C882 C884 1.383 . S
C882 C885 1.382 . S
C882 H893 0.930 . S
C883 C881 1.369 . S
C883 C885 1.392 . S
C883 H894 0.930 . S
C884 C880 1.373 . S
C884 C882 1.383 . S
C884 H895 0.931 . S
C885 C882 1.382 . S
C885 C883 1.392 . S
C886 Eu857 2.828 . S
C886 O870 1.249 . S
C886 O871 1.244 . S
C886 C880 1.505 . S
C887 O874 1.258 . S
C887 O875 1.242 . S
H888 C860 0.930 . S
H889 C861 0.930 . S
H890 C862 0.930 . S
H891 C863 0.931 . S
H892 C881 0.930 . S
H893 C882 0.930 . S
H894 C883 0.930 . S
H895 C884 0.931 . S
Eu896 C905 2.828 . S
Eu896 O907 2.392 . S
Eu896 O909 2.418 . S
Eu896 O914 2.373 . S
Eu896 O917 2.488 . S
Eu896 O918 2.471 . S
Eu896 O919 2.349 . S
Eu897 O906 2.373 . S
Eu897 O910 2.488 . S
Eu897 O911 2.471 . S
Eu897 O912 2.349 . S
Eu897 O915 2.392 . S
Eu897 O916 2.418 . S
Eu897 C926 2.828 . S
C898 O916 1.244 . S
C898 O919 1.265 . S
C899 C900 1.379 . S
C899 C903 1.373 . S
C899 C905 1.505 . S
C900 C899 1.379 . S
C900 C902 1.369 . S
C900 H928 0.930 . S
C901 C903 1.383 . S
C901 C904 1.382 . S
C901 H929 0.930 . S
C902 C900 1.369 . S
C902 C904 1.392 . S
C902 H930 0.930 . S
C903 C899 1.373 . S
C903 C901 1.383 . S
C903 H931 0.931 . S
C904 C901 1.382 . S
C904 C902 1.392 . S
C905 Eu896 2.828 . S
C905 C899 1.505 . S
C905 O917 1.249 . S
C905 O918 1.244 . S
O906 Eu897 2.373 . S
O906 C908 1.258 . S
O907 Eu896 2.392 . S
O907 C908 1.242 . S
C908 O906 1.258 . S
C908 O907 1.242 . S
O909 Eu896 2.418 . S
O909 C913 1.244 . S
O910 Eu897 2.488 . S
O910 C926 1.249 . S
O911 Eu897 2.471 . S
O911 C926 1.244 . S
O912 Eu897 2.349 . S
O912 C913 1.265 . S
C913 O909 1.244 . S
C913 O912 1.265 . S
O914 Eu896 2.373 . S
O914 C927 1.258 . S
O915 Eu897 2.392 . S
O915 C927 1.242 . S
O916 Eu897 2.418 . S
O916 C898 1.244 . S
O917 Eu896 2.488 . S
O917 C905 1.249 . S
O918 Eu896 2.471 . S
O918 C905 1.244 . S
O919 Eu896 2.349 . S
O919 C898 1.265 . S
C920 C921 1.379 . S
C920 C924 1.373 . S
C920 C926 1.505 . S
C921 C920 1.379 . S
C921 C923 1.369 . S
C921 H932 0.930 . S
C922 C924 1.383 . S
C922 C925 1.382 . S
C922 H933 0.930 . S
C923 C921 1.369 . S
C923 C925 1.392 . S
C923 H934 0.930 . S
C924 C920 1.373 . S
C924 C922 1.383 . S
C924 H935 0.931 . S
C925 C922 1.382 . S
C925 C923 1.392 . S
C926 Eu897 2.828 . S
C926 O910 1.249 . S
C926 O911 1.244 . S
C926 C920 1.505 . S
C927 O914 1.258 . S
C927 O915 1.242 . S
H928 C900 0.930 . S
H929 C901 0.930 . S
H930 C902 0.930 . S
H931 C903 0.931 . S
H932 C921 0.930 . S
H933 C922 0.930 . S
H934 C923 0.930 . S
H935 C924 0.931 . S
H936 C942 0.930 . S
H937 C945 0.930 . S
H938 C946 0.930 . S
H939 C947 0.930 . S
H940 C950 0.930 . S
H941 C951 0.930 . S
C942 H936 0.930 . S
C942 C943 1.355 . S
C942 C944 1.415 . S
C943 C942 1.355 . S
C943 C945 1.419 . S
C944 C942 1.415 . S
C944 C949 1.425 . S
C944 C951 1.409 . S
C945 H937 0.930 . S
C945 C943 1.419 . S
C945 C946 1.362 . S
C946 H938 0.930 . S
C946 C945 1.362 . S
C946 C949 1.409 . S
C947 H939 0.930 . S
C947 C948 1.355 . S
C947 C949 1.415 . S
C948 C947 1.355 . S
C948 C950 1.419 . S
C949 C944 1.425 . S
C949 C946 1.409 . S
C949 C947 1.415 . S
C950 H940 0.930 . S
C950 C948 1.419 . S
C950 C951 1.362 . S
C951 H941 0.930 . S
C951 C944 1.409 . S
C951 C950 1.362 . S
H952 C958 0.930 . S
H953 C961 0.930 . S
H954 C962 0.930 . S
H955 C963 0.930 . S
H956 C966 0.930 . S
H957 C967 0.930 . S
C958 H952 0.930 . S
C958 C959 1.355 . S
C958 C960 1.415 . S
C959 C958 1.355 . S
C959 C961 1.419 . S
C960 C958 1.415 . S
C960 C965 1.425 . S
C960 C967 1.409 . S
C961 H953 0.930 . S
C961 C959 1.419 . S
C961 C962 1.362 . S
C962 H954 0.930 . S
C962 C961 1.362 . S
C962 C965 1.409 . S
C963 H955 0.930 . S
C963 C964 1.355 . S
C963 C965 1.415 . S
C964 C963 1.355 . S
C964 C966 1.419 . S
C965 C960 1.425 . S
C965 C962 1.409 . S
C965 C963 1.415 . S
C966 H956 0.930 . S
C966 C964 1.419 . S
C966 C967 1.362 . S
C967 H957 0.930 . S
C967 C960 1.409 . S
C967 C966 1.362 . S
H968 C974 0.930 . S
H969 C977 0.930 . S
H970 C978 0.930 . S
H971 C979 0.930 . S
H972 C982 0.930 . S
H973 C983 0.930 . S
C974 H968 0.930 . S
C974 C975 1.355 . S
C974 C976 1.415 . S
C975 C974 1.355 . S
C975 C977 1.419 . S
C976 C974 1.415 . S
C976 C981 1.425 . S
C976 C983 1.409 . S
C977 H969 0.930 . S
C977 C975 1.419 . S
C977 C978 1.362 . S
C978 H970 0.930 . S
C978 C977 1.362 . S
C978 C981 1.409 . S
C979 H971 0.930 . S
C979 C980 1.355 . S
C979 C981 1.415 . S
C980 C979 1.355 . S
C980 C982 1.419 . S
C981 C976 1.425 . S
C981 C978 1.409 . S
C981 C979 1.415 . S
C982 H972 0.930 . S
C982 C980 1.419 . S
C982 C983 1.362 . S
C983 H973 0.930 . S
C983 C976 1.409 . S
C983 C982 1.362 . S
H984 C990 0.930 . S
H985 C993 0.930 . S
H986 C994 0.930 1_554 S
H987 C995 0.930 1_554 S
H988 C998 0.930 . S
H989 C999 0.930 . S
C990 H984 0.930 . S
C990 C991 1.355 . S
C990 C992 1.415 . S
C991 C990 1.355 . S
C991 C993 1.419 . S
C992 C990 1.415 . S
C992 C997 1.425 . S
C992 C999 1.409 . S
C993 H985 0.930 . S
C993 C991 1.419 . S
C993 C994 1.362 . S
C994 H986 0.930 1_556 S
C994 C993 1.362 . S
C994 C997 1.409 . S
C995 H987 0.930 1_556 S
C995 C996 1.355 . S
C995 C997 1.415 . S
C996 C995 1.355 . S
C996 C998 1.419 . S
C997 C992 1.425 . S
C997 C994 1.409 . S
C997 C995 1.415 . S
C998 H988 0.930 . S
C998 C996 1.419 . S
C998 C999 1.362 . S
C999 H989 0.930 . S
C999 C992 1.409 . S
C999 C998 1.362 . S
H1000 C1006 0.930 . S
H1001 C1009 0.930 . S
H1002 C1010 0.930 . S
H1003 C1011 0.930 . S
H1004 C1014 0.930 1_554 S
H1005 C1015 0.942 . S
C1006 H1000 0.930 . S
C1006 C1007 1.355 . S
C1006 C1008 1.415 . S
C1007 C1006 1.355 . S
C1007 C1009 1.419 . S
C1008 C1006 1.415 . S
C1008 C1013 1.425 . S
C1008 C1015 1.409 . S
C1009 H1001 0.930 . S
C1009 C1007 1.419 . S
C1009 C1010 1.362 . S
C1010 H1002 0.930 . S
C1010 C1009 1.362 . S
C1010 C1013 1.409 . S
C1011 H1003 0.930 . S
C1011 C1012 1.355 . S
C1011 C1013 1.415 . S
C1012 C1011 1.355 . S
C1012 C1014 1.419 . S
C1013 C1008 1.425 . S
C1013 C1010 1.409 . S
C1013 C1011 1.415 . S
C1014 H1004 0.930 1_556 S
C1014 C1012 1.419 . S
C1014 C1015 1.362 . S
C1015 H1005 0.942 . S
C1015 C1008 1.409 . S
C1015 C1014 1.362 . S
H1016 C1022 0.930 . S
H1017 C1025 0.930 . S
H1018 C1026 0.930 . S
H1019 C1027 0.930 . S
H1020 C1030 0.930 . S
H1021 C1031 0.930 . S
C1022 H1016 0.930 . S
C1022 C1023 1.355 . S
C1022 C1024 1.415 . S
C1023 C1022 1.355 . S
C1023 C1025 1.419 . S
C1024 C1022 1.415 . S
C1024 C1029 1.425 . S
C1024 C1031 1.409 . S
C1025 H1017 0.930 . S
C1025 C1023 1.419 . S
C1025 C1026 1.362 . S
C1026 H1018 0.930 . S
C1026 C1025 1.362 . S
C1026 C1029 1.409 . S
C1027 H1019 0.930 . S
C1027 C1028 1.355 . S
C1027 C1029 1.415 . S
C1028 C1027 1.355 . S
C1028 C1030 1.419 . S
C1029 C1024 1.425 . S
C1029 C1026 1.409 . S
C1029 C1027 1.415 . S
C1030 H1020 0.930 . S
C1030 C1028 1.419 . S
C1030 C1031 1.362 . S
C1031 H1021 0.930 . S
C1031 C1024 1.409 . S
C1031 C1030 1.362 . S
H1032 C1038 0.930 . S
H1033 C1041 0.930 . S
H1034 C1042 0.930 . S
H1035 C1043 0.930 . S
H1036 C1046 0.930 . S
H1037 C1047 0.930 . S
C1038 H1032 0.930 . S
C1038 C1039 1.355 . S
C1038 C1040 1.415 . S
C1039 C1038 1.355 . S
C1039 C1041 1.419 . S
C1040 C1038 1.415 . S
C1040 C1045 1.425 . S
C1040 C1047 1.409 . S
C1041 H1033 0.930 . S
C1041 C1039 1.419 . S
C1041 C1042 1.362 . S
C1042 H1034 0.930 . S
C1042 C1041 1.362 . S
C1042 C1045 1.409 . S
C1043 H1035 0.930 . S
C1043 C1044 1.355 . S
C1043 C1045 1.415 . S
C1044 C1043 1.355 . S
C1044 C1046 1.419 . S
C1045 C1040 1.425 . S
C1045 C1042 1.409 . S
C1045 C1043 1.415 . S
C1046 H1036 0.930 . S
C1046 C1044 1.419 . S
C1046 C1047 1.362 . S
C1047 H1037 0.930 . S
C1047 C1040 1.409 . S
C1047 C1046 1.362 . S
H1048 C1054 0.930 . S
H1049 C1057 0.930 . S
H1050 C1058 0.930 . S
H1051 C1059 0.930 . S
H1052 C1062 0.930 . S
H1053 C1063 0.930 . S
C1054 H1048 0.930 . S
C1054 C1055 1.355 . S
C1054 C1056 1.415 . S
C1055 C1054 1.355 . S
C1055 C1057 1.419 . S
C1056 C1054 1.415 . S
C1056 C1061 1.425 . S
C1056 C1063 1.409 . S
C1057 H1049 0.930 . S
C1057 C1055 1.419 . S
C1057 C1058 1.362 . S
C1058 H1050 0.930 . S
C1058 C1057 1.362 . S
C1058 C1061 1.409 . S
C1059 H1051 0.930 . S
C1059 C1060 1.355 . S
C1059 C1061 1.415 . S
C1060 C1059 1.355 . S
C1060 C1062 1.419 . S
C1061 C1056 1.425 . S
C1061 C1058 1.409 . S
C1061 C1059 1.415 . S
C1062 H1052 0.930 . S
C1062 C1060 1.419 . S
C1062 C1063 1.362 . S
C1063 H1053 0.930 . S
C1063 C1056 1.409 . S
C1063 C1062 1.362 . S
H1064 C1070 0.930 . S
H1065 C1073 0.930 . S
H1066 C1074 0.930 . S
H1067 C1075 0.930 . S
H1068 C1078 0.930 . S
H1069 C1079 0.930 . S
C1070 H1064 0.930 . S
C1070 C1071 1.355 . S
C1070 C1072 1.415 . S
C1071 C1070 1.355 . S
C1071 C1073 1.419 . S
C1072 C1070 1.415 . S
C1072 C1077 1.425 . S
C1072 C1079 1.409 . S
C1073 H1065 0.930 . S
C1073 C1071 1.419 . S
C1073 C1074 1.362 . S
C1074 H1066 0.930 . S
C1074 C1073 1.362 . S
C1074 C1077 1.409 . S
C1075 H1067 0.930 . S
C1075 C1076 1.355 . S
C1075 C1077 1.415 . S
C1076 C1075 1.355 . S
C1076 C1078 1.419 . S
C1077 C1072 1.425 . S
C1077 C1074 1.409 . S
C1077 C1075 1.415 . S
C1078 H1068 0.930 . S
C1078 C1076 1.419 . S
C1078 C1079 1.362 . S
C1079 H1069 0.930 . S
C1079 C1072 1.409 . S
C1079 C1078 1.362 . S
H1080 C1086 0.930 . S
H1081 C1089 0.930 . S
H1082 C1090 0.930 . S
H1083 C1091 0.930 . S
H1084 C1094 0.930 . S
H1085 C1095 0.930 . S
C1086 H1080 0.930 . S
C1086 C1087 1.355 . S
C1086 C1088 1.415 . S
C1087 C1086 1.355 . S
C1087 C1089 1.419 . S
C1088 C1086 1.415 . S
C1088 C1093 1.425 . S
C1088 C1095 1.409 . S
C1089 H1081 0.930 . S
C1089 C1087 1.419 . S
C1089 C1090 1.362 . S
C1090 H1082 0.930 . S
C1090 C1089 1.362 . S
C1090 C1093 1.409 . S
C1091 H1083 0.930 . S
C1091 C1092 1.355 . S
C1091 C1093 1.415 . S
C1092 C1091 1.355 . S
C1092 C1094 1.419 . S
C1093 C1088 1.425 . S
C1093 C1090 1.409 . S
C1093 C1091 1.415 . S
C1094 H1084 0.930 . S
C1094 C1092 1.419 . S
C1094 C1095 1.362 . S
C1095 H1085 0.930 . S
C1095 C1088 1.409 . S
C1095 C1094 1.362 . S
H1096 C1102 0.930 . S
H1097 C1105 0.930 . S
H1098 C1106 0.930 . S
H1099 C1107 0.930 . S
H1100 C1110 0.930 . S
H1101 C1111 0.930 . S
C1102 H1096 0.930 . S
C1102 C1103 1.355 . S
C1102 C1104 1.415 . S
C1103 C1102 1.355 . S
C1103 C1105 1.419 . S
C1104 C1102 1.415 . S
C1104 C1109 1.425 . S
C1104 C1111 1.409 . S
C1105 H1097 0.930 . S
C1105 C1103 1.419 . S
C1105 C1106 1.362 . S
C1106 H1098 0.930 . S
C1106 C1105 1.362 . S
C1106 C1109 1.409 . S
C1107 H1099 0.930 . S
C1107 C1108 1.355 . S
C1107 C1109 1.415 . S
C1108 C1107 1.355 . S
C1108 C1110 1.419 . S
C1109 C1104 1.425 . S
C1109 C1106 1.409 . S
C1109 C1107 1.415 . S
C1110 H1100 0.930 . S
C1110 C1108 1.419 . S
C1110 C1111 1.362 . S
C1111 H1101 0.930 . S
C1111 C1104 1.409 . S
C1111 C1110 1.362 . S
H1112 C1118 0.930 . S
H1113 C1121 0.930 . S
H1114 C1122 0.944 . S
H1115 C1123 0.930 1_556 S
H1116 C1126 0.930 . S
H1117 C1127 0.930 . S
C1118 H1112 0.930 . S
C1118 C1119 1.355 . S
C1118 C1120 1.415 . S
C1119 C1118 1.355 . S
C1119 C1121 1.419 . S
C1120 C1118 1.415 . S
C1120 C1125 1.425 . S
C1120 C1127 1.409 . S
C1121 H1113 0.930 . S
C1121 C1119 1.419 . S
C1121 C1122 1.362 . S
C1122 H1114 0.944 . S
C1122 C1121 1.362 . S
C1122 C1125 1.409 . S
C1123 H1115 0.930 1_554 S
C1123 C1124 1.355 . S
C1123 C1125 1.415 . S
C1124 C1123 1.355 . S
C1124 C1126 1.419 . S
C1125 C1120 1.425 . S
C1125 C1122 1.409 . S
C1125 C1123 1.415 . S
C1126 H1116 0.930 . S
C1126 C1124 1.419 . S
C1126 C1127 1.362 . S
C1127 H1117 0.930 . S
C1127 C1120 1.409 . S
C1127 C1126 1.362 . S
H1128 C1134 0.955 . S
H1129 C1137 0.930 . S
H1130 C1138 0.930 . S
H1131 C1139 0.930 . S
H1132 C1142 0.930 . S
H1133 C1143 0.930 . S
C1134 H1128 0.955 . S
C1134 C1135 1.368 . S
C1134 C1136 1.377 1_655 S
C1135 C1134 1.368 . S
C1135 C1137 1.419 . S
C1136 C1134 1.377 1_455 S
C1136 C1141 1.425 . S
C1136 C1143 1.409 . S
C1137 H1129 0.930 . S
C1137 C1135 1.419 . S
C1137 C1138 1.362 1_655 S
C1138 H1130 0.930 . S
C1138 C1137 1.362 1_455 S
C1138 C1141 1.409 . S
C1139 H1131 0.930 . S
C1139 C1140 1.355 . S
C1139 C1141 1.415 . S
C1140 C1139 1.355 . S
C1140 C1142 1.419 . S
C1141 C1136 1.425 . S
C1141 C1138 1.409 . S
C1141 C1139 1.415 . S
C1142 H1132 0.930 . S
C1142 C1140 1.419 . S
C1142 C1143 1.362 . S
C1143 H1133 0.930 . S
C1143 C1136 1.409 . S
C1143 C1142 1.362 . S
H1144 C1150 0.930 . S
H1145 C1153 0.930 . S
H1146 C1154 0.930 . S
H1147 C1155 0.930 . S
H1148 C1158 0.930 . S
H1149 C1159 0.930 . S
C1150 H1144 0.930 . S
C1150 C1151 1.355 . S
C1150 C1152 1.415 . S
C1151 C1150 1.355 . S
C1151 C1153 1.419 . S
C1152 C1150 1.415 . S
C1152 C1157 1.425 . S
C1152 C1159 1.409 . S
C1153 H1145 0.930 . S
C1153 C1151 1.419 . S
C1153 C1154 1.362 . S
C1154 H1146 0.930 . S
C1154 C1153 1.362 . S
C1154 C1157 1.409 . S
C1155 H1147 0.930 . S
C1155 C1156 1.355 . S
C1155 C1157 1.415 . S
C1156 C1155 1.355 . S
C1156 C1158 1.419 . S
C1157 C1152 1.425 . S
C1157 C1154 1.409 . S
C1157 C1155 1.415 . S
C1158 H1148 0.930 . S
C1158 C1156 1.419 . S
C1158 C1159 1.362 . S
C1159 H1149 0.930 . S
C1159 C1152 1.409 . S
C1159 C1158 1.362 . S
H1160 C1166 0.930 . S
H1161 C1169 0.930 . S
H1162 C1170 0.930 1_565 S
H1163 C1171 0.930 . S
H1164 C1174 0.930 . S
H1165 C1175 0.930 . S
C1166 H1160 0.930 . S
C1166 C1167 1.355 . S
C1166 C1168 1.415 1_545 S
C1167 C1166 1.355 . S
C1167 C1169 1.419 . S
C1168 C1166 1.415 1_565 S
C1168 C1173 1.425 . S
C1168 C1175 1.409 . S
C1169 H1161 0.930 . S
C1169 C1167 1.419 . S
C1169 C1170 1.362 . S
C1170 H1162 0.930 1_545 S
C1170 C1169 1.362 . S
C1170 C1173 1.409 1_545 S
C1171 H1163 0.930 . S
C1171 C1172 1.355 . S
C1171 C1173 1.415 . S
C1172 C1171 1.355 . S
C1172 C1174 1.419 . S
C1173 C1168 1.425 . S
C1173 C1170 1.409 1_565 S
C1173 C1171 1.415 . S
C1174 H1164 0.930 . S
C1174 C1172 1.419 . S
C1174 C1175 1.362 . S
C1175 H1165 0.930 . S
C1175 C1168 1.409 . S
C1175 C1174 1.362 . S
H1176 C1182 0.930 . S
H1177 C1185 0.930 . S
H1178 C1186 0.930 . S
H1179 C1187 0.930 . S
H1180 C1190 0.930 . S
H1181 C1191 0.930 . S
C1182 H1176 0.930 . S
C1182 C1183 1.355 . S
C1182 C1184 1.415 . S
C1183 C1182 1.355 . S
C1183 C1185 1.419 . S
C1184 C1182 1.415 . S
C1184 C1189 1.425 . S
C1184 C1191 1.409 . S
C1185 H1177 0.930 . S
C1185 C1183 1.419 . S
C1185 C1186 1.362 . S
C1186 H1178 0.930 . S
C1186 C1185 1.362 . S
C1186 C1189 1.409 . S
C1187 H1179 0.930 . S
C1187 C1188 1.355 . S
C1187 C1189 1.415 . S
C1188 C1187 1.355 . S
C1188 C1190 1.419 . S
C1189 C1184 1.425 . S
C1189 C1186 1.409 . S
C1189 C1187 1.415 . S
C1190 H1180 0.930 . S
C1190 C1188 1.419 . S
C1190 C1191 1.362 . S
C1191 H1181 0.930 . S
C1191 C1184 1.409 . S
C1191 C1190 1.362 . S
H1192 C1198 0.930 . S
H1193 C1201 0.930 . S
H1194 C1202 0.930 . S
H1195 C1203 0.930 . S
H1196 C1206 0.930 . S
H1197 C1207 0.930 . S
C1198 H1192 0.930 . S
C1198 C1199 1.355 . S
C1198 C1200 1.415 . S
C1199 C1198 1.355 . S
C1199 C1201 1.419 . S
C1200 C1198 1.415 . S
C1200 C1205 1.425 . S
C1200 C1207 1.409 . S
C1201 H1193 0.930 . S
C1201 C1199 1.419 . S
C1201 C1202 1.362 . S
C1202 H1194 0.930 . S
C1202 C1201 1.362 . S
C1202 C1205 1.409 . S
C1203 H1195 0.930 . S
C1203 C1204 1.355 . S
C1203 C1205 1.415 . S
C1204 C1203 1.355 . S
C1204 C1206 1.419 . S
C1205 C1200 1.425 . S
C1205 C1202 1.409 . S
C1205 C1203 1.415 . S
C1206 H1196 0.930 . S
C1206 C1204 1.419 . S
C1206 C1207 1.362 . S
C1207 H1197 0.930 . S
C1207 C1200 1.409 . S
C1207 C1206 1.362 . S
H1208 C1214 0.930 . S
H1209 C1217 0.930 . S
H1210 C1218 0.930 . S
H1211 C1219 0.930 . S
H1212 C1222 0.930 . S
H1213 C1223 0.930 . S
C1214 H1208 0.930 . S
C1214 C1215 1.355 . S
C1214 C1216 1.415 . S
C1215 C1214 1.355 . S
C1215 C1217 1.419 . S
C1216 C1214 1.415 . S
C1216 C1221 1.425 . S
C1216 C1223 1.409 . S
C1217 H1209 0.930 . S
C1217 C1215 1.419 . S
C1217 C1218 1.362 . S
C1218 H1210 0.930 . S
C1218 C1217 1.362 . S
C1218 C1221 1.409 . S
C1219 H1211 0.930 . S
C1219 C1220 1.355 . S
C1219 C1221 1.415 . S
C1220 C1219 1.355 . S
C1220 C1222 1.419 . S
C1221 C1216 1.425 . S
C1221 C1218 1.409 . S
C1221 C1219 1.415 . S
C1222 H1212 0.930 . S
C1222 C1220 1.419 . S
C1222 C1223 1.362 . S
C1223 H1213 0.930 . S
C1223 C1216 1.409 . S
C1223 C1222 1.362 . S
H1224 C1230 0.930 . S
H1225 C1233 0.930 . S
H1226 C1234 0.930 . S
H1227 C1235 0.930 . S
H1228 C1238 0.930 . S
H1229 C1239 0.930 . S
C1230 H1224 0.930 . S
C1230 C1231 1.355 . S
C1230 C1232 1.415 . S
C1231 C1230 1.355 . S
C1231 C1233 1.419 . S
C1232 C1230 1.415 . S
C1232 C1237 1.425 . S
C1232 C1239 1.409 . S
C1233 H1225 0.930 . S
C1233 C1231 1.419 . S
C1233 C1234 1.362 . S
C1234 H1226 0.930 . S
C1234 C1233 1.362 . S
C1234 C1237 1.409 . S
C1235 H1227 0.930 . S
C1235 C1236 1.355 . S
C1235 C1237 1.415 . S
C1236 C1235 1.355 . S
C1236 C1238 1.419 . S
C1237 C1232 1.425 . S
C1237 C1234 1.409 . S
C1237 C1235 1.415 . S
C1238 H1228 0.930 . S
C1238 C1236 1.419 . S
C1238 C1239 1.362 . S
C1239 H1229 0.930 . S
C1239 C1232 1.409 . S
C1239 C1238 1.362 . S
H1240 C1246 0.930 . S
H1241 C1249 0.930 . S
H1242 C1250 0.930 . S
H1243 C1251 0.930 . S
H1244 C1254 0.930 . S
H1245 C1255 0.930 . S
C1246 H1240 0.930 . S
C1246 C1247 1.355 . S
C1246 C1248 1.415 . S
C1247 C1246 1.355 . S
C1247 C1249 1.419 . S
C1248 C1246 1.415 . S
C1248 C1253 1.425 . S
C1248 C1255 1.409 . S
C1249 H1241 0.930 . S
C1249 C1247 1.419 . S
C1249 C1250 1.362 . S
C1250 H1242 0.930 . S
C1250 C1249 1.362 . S
C1250 C1253 1.409 . S
C1251 H1243 0.930 . S
C1251 C1252 1.355 . S
C1251 C1253 1.415 . S
C1252 C1251 1.355 . S
C1252 C1254 1.419 . S
C1253 C1248 1.425 . S
C1253 C1250 1.409 . S
C1253 C1251 1.415 . S
C1254 H1244 0.930 . S
C1254 C1252 1.419 . S
C1254 C1255 1.362 . S
C1255 H1245 0.930 . S
C1255 C1248 1.409 . S
C1255 C1254 1.362 . S
H1256 C1262 0.930 . S
H1257 C1265 0.930 . S
H1258 C1266 0.930 . S
H1259 C1267 0.930 . S
H1260 C1270 0.930 . S
H1261 C1271 0.930 . S
C1262 H1256 0.930 . S
C1262 C1263 1.355 . S
C1262 C1264 1.415 . S
C1263 C1262 1.355 . S
C1263 C1265 1.419 . S
C1264 C1262 1.415 . S
C1264 C1269 1.425 . S
C1264 C1271 1.409 . S
C1265 H1257 0.930 . S
C1265 C1263 1.419 . S
C1265 C1266 1.362 . S
C1266 H1258 0.930 . S
C1266 C1265 1.362 . S
C1266 C1269 1.409 . S
C1267 H1259 0.930 . S
C1267 C1268 1.355 . S
C1267 C1269 1.415 . S
C1268 C1267 1.355 . S
C1268 C1270 1.419 . S
C1269 C1264 1.425 . S
C1269 C1266 1.409 . S
C1269 C1267 1.415 . S
C1270 H1260 0.930 . S
C1270 C1268 1.419 . S
C1270 C1271 1.362 . S
C1271 H1261 0.930 . S
C1271 C1264 1.409 . S
C1271 C1270 1.362 . S
H1272 C1278 0.930 . S
H1273 C1281 0.930 . S
H1274 C1282 0.930 . S
H1275 C1283 0.930 . S
H1276 C1286 0.930 . S
H1277 C1287 0.930 . S
C1278 H1272 0.930 . S
C1278 C1279 1.355 . S
C1278 C1280 1.415 1_545 S
C1279 C1278 1.355 . S
C1279 C1281 1.419 . S
C1280 C1278 1.415 1_565 S
C1280 C1285 1.425 . S
C1280 C1287 1.409 . S
C1281 H1273 0.930 . S
C1281 C1279 1.419 . S
C1281 C1282 1.362 1_545 S
C1282 H1274 0.930 . S
C1282 C1281 1.362 1_565 S
C1282 C1285 1.409 . S
C1283 H1275 0.930 . S
C1283 C1284 1.355 . S
C1283 C1285 1.415 . S
C1284 C1283 1.355 . S
C1284 C1286 1.419 . S
C1285 C1280 1.425 . S
C1285 C1282 1.409 . S
C1285 C1283 1.415 . S
C1286 H1276 0.930 . S
C1286 C1284 1.419 . S
C1286 C1287 1.362 . S
C1287 H1277 0.930 . S
C1287 C1280 1.409 . S
C1287 C1286 1.362 . S
H1288 C1294 0.930 . S
H1289 C1297 0.930 . S
H1290 C1298 0.930 . S
H1291 C1299 0.930 . S
H1292 C1302 0.930 . S
H1293 C1303 0.930 . S
C1294 H1288 0.930 . S
C1294 C1295 1.355 1_455 S
C1294 C1296 1.415 . S
C1295 C1294 1.355 1_655 S
C1295 C1297 1.419 . S
C1296 C1294 1.415 . S
C1296 C1301 1.425 . S
C1296 C1303 1.409 . S
C1297 H1289 0.930 . S
C1297 C1295 1.419 . S
C1297 C1298 1.362 1_655 S
C1298 H1290 0.930 . S
C1298 C1297 1.362 1_455 S
C1298 C1301 1.409 . S
C1299 H1291 0.930 . S
C1299 C1300 1.355 . S
C1299 C1301 1.415 . S
C1300 C1299 1.355 . S
C1300 C1302 1.419 . S
C1301 C1296 1.425 . S
C1301 C1298 1.409 . S
C1301 C1299 1.415 . S
C1302 H1292 0.930 . S
C1302 C1300 1.419 . S
C1302 C1303 1.362 . S
C1303 H1293 0.930 . S
C1303 C1296 1.409 . S
C1303 C1302 1.362 . S
H1304 C1310 0.930 . S
H1305 C1313 0.930 . S
H1306 C1314 0.930 . S
H1307 C1315 0.930 . S
H1308 C1318 0.930 . S
H1309 C1319 0.930 . S
C1310 H1304 0.930 . S
C1310 C1311 1.355 . S
C1310 C1312 1.415 . S
C1311 C1310 1.355 . S
C1311 C1313 1.419 . S
C1312 C1310 1.415 . S
C1312 C1317 1.425 . S
C1312 C1319 1.409 . S
C1313 H1305 0.930 . S
C1313 C1311 1.419 . S
C1313 C1314 1.362 . S
C1314 H1306 0.930 . S
C1314 C1313 1.362 . S
C1314 C1317 1.409 . S
C1315 H1307 0.930 . S
C1315 C1316 1.355 . S
C1315 C1317 1.415 . S
C1316 C1315 1.355 . S
C1316 C1318 1.419 . S
C1317 C1312 1.425 . S
C1317 C1314 1.409 . S
C1317 C1315 1.415 . S
C1318 H1308 0.930 . S
C1318 C1316 1.419 . S
C1318 C1319 1.362 . S
C1319 H1309 0.930 . S
C1319 C1312 1.409 . S
C1319 C1318 1.362 . S
H1320 C1326 0.930 . S
H1321 C1329 0.930 . S
H1322 C1330 0.930 . S
H1323 C1331 0.930 . S
H1324 C1334 0.930 . S
H1325 C1335 0.930 . S
C1326 H1320 0.930 . S
C1326 C1327 1.355 . S
C1326 C1328 1.415 . S
C1327 C1326 1.355 . S
C1327 C1329 1.419 . S
C1328 C1326 1.415 . S
C1328 C1333 1.425 . S
C1328 C1335 1.409 . S
C1329 H1321 0.930 . S
C1329 C1327 1.419 . S
C1329 C1330 1.362 . S
C1330 H1322 0.930 . S
C1330 C1329 1.362 . S
C1330 C1333 1.409 . S
C1331 H1323 0.930 . S
C1331 C1332 1.355 . S
C1331 C1333 1.415 . S
C1332 C1331 1.355 . S
C1332 C1334 1.419 . S
C1333 C1328 1.425 . S
C1333 C1330 1.409 . S
C1333 C1331 1.415 . S
C1334 H1324 0.930 . S
C1334 C1332 1.419 . S
C1334 C1335 1.362 . S
C1335 H1325 0.930 . S
C1335 C1328 1.409 . S
C1335 C1334 1.362 . S
H1336 C1342 0.930 . S
H1337 C1345 0.930 . S
H1338 C1346 0.930 . S
H1339 C1347 0.930 . S
H1340 C1350 0.930 . S
H1341 C1351 0.930 . S
C1342 H1336 0.930 . S
C1342 C1343 1.355 . S
C1342 C1344 1.415 . S
C1343 C1342 1.355 . S
C1343 C1345 1.419 . S
C1344 C1342 1.415 . S
C1344 C1349 1.425 . S
C1344 C1351 1.409 . S
C1345 H1337 0.930 . S
C1345 C1343 1.419 . S
C1345 C1346 1.362 . S
C1346 H1338 0.930 . S
C1346 C1345 1.362 . S
C1346 C1349 1.409 . S
C1347 H1339 0.930 . S
C1347 C1348 1.355 . S
C1347 C1349 1.415 . S
C1348 C1347 1.355 . S
C1348 C1350 1.419 . S
C1349 C1344 1.425 . S
C1349 C1346 1.409 . S
C1349 C1347 1.415 . S
C1350 H1340 0.930 . S
C1350 C1348 1.419 . S
C1350 C1351 1.362 . S
C1351 H1341 0.930 . S
C1351 C1344 1.409 . S
C1351 C1350 1.362 . S
H1352 C1358 0.930 . S
H1353 C1361 0.930 . S
H1354 C1362 0.930 . S
H1355 C1363 0.930 . S
H1356 C1366 0.930 . S
H1357 C1367 0.930 . S
C1358 H1352 0.930 . S
C1358 C1359 1.355 . S
C1358 C1360 1.415 . S
C1359 C1358 1.355 . S
C1359 C1361 1.419 . S
C1360 C1358 1.415 . S
C1360 C1365 1.425 . S
C1360 C1367 1.409 . S
C1361 H1353 0.930 . S
C1361 C1359 1.419 . S
C1361 C1362 1.362 . S
C1362 H1354 0.930 . S
C1362 C1361 1.362 . S
C1362 C1365 1.409 . S
C1363 H1355 0.930 . S
C1363 C1364 1.355 . S
C1363 C1365 1.415 . S
C1364 C1363 1.355 . S
C1364 C1366 1.419 . S
C1365 C1360 1.425 . S
C1365 C1362 1.409 . S
C1365 C1363 1.415 . S
C1366 H1356 0.930 . S
C1366 C1364 1.419 . S
C1366 C1367 1.362 . S
C1367 H1357 0.930 . S
C1367 C1360 1.409 . S
C1367 C1366 1.362 . S
H1368 C1374 0.930 . S
H1369 C1377 0.930 . S
H1370 C1378 0.930 . S
H1371 C1379 0.930 . S
H1372 C1382 0.930 . S
H1373 C1383 0.930 . S
C1374 H1368 0.930 . S
C1374 C1375 1.355 . S
C1374 C1376 1.415 1_565 S
C1375 C1374 1.355 . S
C1375 C1377 1.419 . S
C1376 C1374 1.415 1_545 S
C1376 C1381 1.425 . S
C1376 C1383 1.409 . S
C1377 H1369 0.930 . S
C1377 C1375 1.419 . S
C1377 C1378 1.362 1_565 S
C1378 H1370 0.930 . S
C1378 C1377 1.362 1_545 S
C1378 C1381 1.409 . S
C1379 H1371 0.930 . S
C1379 C1380 1.355 . S
C1379 C1381 1.415 . S
C1380 C1379 1.355 . S
C1380 C1382 1.419 . S
C1381 C1376 1.425 . S
C1381 C1378 1.409 . S
C1381 C1379 1.415 . S
C1382 H1372 0.930 . S
C1382 C1380 1.419 . S
C1382 C1383 1.362 . S
C1383 H1373 0.930 . S
C1383 C1376 1.409 . S
C1383 C1382 1.362 . S
H1384 C1390 0.930 1_455 S
H1385 C1393 0.930 . S
H1386 C1394 0.930 . S
H1387 C1395 0.930 . S
H1388 C1398 0.930 . S
H1389 C1399 0.930 . S
C1390 H1384 0.930 1_655 S
C1390 C1391 1.355 1_655 S
C1390 C1392 1.415 . S
C1391 C1390 1.355 1_455 S
C1391 C1393 1.419 . S
C1392 C1390 1.415 . S
C1392 C1397 1.425 . S
C1392 C1399 1.409 . S
C1393 H1385 0.930 . S
C1393 C1391 1.419 . S
C1393 C1394 1.362 1_455 S
C1394 H1386 0.930 . S
C1394 C1393 1.362 1_655 S
C1394 C1397 1.409 . S
C1395 H1387 0.930 . S
C1395 C1396 1.355 . S
C1395 C1397 1.415 . S
C1396 C1395 1.355 . S
C1396 C1398 1.419 . S
C1397 C1392 1.425 . S
C1397 C1394 1.409 . S
C1397 C1395 1.415 . S
C1398 H1388 0.930 . S
C1398 C1396 1.419 . S
C1398 C1399 1.362 . S
C1399 H1389 0.930 . S
C1399 C1392 1.409 . S
C1399 C1398 1.362 . S
H1400 C1406 0.930 . S
H1401 C1409 0.930 . S
H1402 C1410 0.930 . S
H1403 C1411 0.930 . S
H1404 C1414 0.930 . S
H1405 C1415 0.930 . S
C1406 H1400 0.930 . S
C1406 C1407 1.355 . S
C1406 C1408 1.415 . S
C1407 C1406 1.355 . S
C1407 C1409 1.419 . S
C1408 C1406 1.415 . S
C1408 C1413 1.425 . S
C1408 C1415 1.409 . S
C1409 H1401 0.930 . S
C1409 C1407 1.419 . S
C1409 C1410 1.362 . S
C1410 H1402 0.930 . S
C1410 C1409 1.362 . S
C1410 C1413 1.409 . S
C1411 H1403 0.930 . S
C1411 C1412 1.355 . S
C1411 C1413 1.415 . S
C1412 C1411 1.355 . S
C1412 C1414 1.419 . S
C1413 C1408 1.425 . S
C1413 C1410 1.409 . S
C1413 C1411 1.415 . S
C1414 H1404 0.930 . S
C1414 C1412 1.419 . S
C1414 C1415 1.362 . S
C1415 H1405 0.930 . S
C1415 C1408 1.409 . S
C1415 C1414 1.362 . S
H1416 C1422 0.930 . S
H1417 C1425 0.930 . S
H1418 C1426 0.930 . S
H1419 C1427 0.930 . S
H1420 C1430 0.930 . S
H1421 C1431 0.930 . S
C1422 H1416 0.930 . S
C1422 C1423 1.355 . S
C1422 C1424 1.415 1_455 S
C1423 C1422 1.355 . S
C1423 C1425 1.419 . S
C1424 C1422 1.415 1_655 S
C1424 C1429 1.425 . S
C1424 C1431 1.409 . S
C1425 H1417 0.930 . S
C1425 C1423 1.419 . S
C1425 C1426 1.362 1_455 S
C1426 H1418 0.930 . S
C1426 C1425 1.362 1_655 S
C1426 C1429 1.409 . S
C1427 H1419 0.930 . S
C1427 C1428 1.355 . S
C1427 C1429 1.415 . S
C1428 C1427 1.355 . S
C1428 C1430 1.419 . S
C1429 C1424 1.425 . S
C1429 C1426 1.409 . S
C1429 C1427 1.415 . S
C1430 H1420 0.930 . S
C1430 C1428 1.419 . S
C1430 C1431 1.362 . S
C1431 H1421 0.930 . S
C1431 C1424 1.409 . S
C1431 C1430 1.362 . S
H1432 C1438 0.930 . S
H1433 C1441 0.930 . S
H1434 C1442 0.930 . S
H1435 C1443 0.930 . S
H1436 C1446 0.930 . S
H1437 C1447 0.930 . S
C1438 H1432 0.930 . S
C1438 C1439 1.355 . S
C1438 C1440 1.415 . S
C1439 C1438 1.355 . S
C1439 C1441 1.419 . S
C1440 C1438 1.415 . S
C1440 C1445 1.425 . S
C1440 C1447 1.409 . S
C1441 H1433 0.930 . S
C1441 C1439 1.419 . S
C1441 C1442 1.362 . S
C1442 H1434 0.930 . S
C1442 C1441 1.362 . S
C1442 C1445 1.409 . S
C1443 H1435 0.930 . S
C1443 C1444 1.355 . S
C1443 C1445 1.415 . S
C1444 C1443 1.355 . S
C1444 C1446 1.419 . S
C1445 C1440 1.425 . S
C1445 C1442 1.409 . S
C1445 C1443 1.415 . S
C1446 H1436 0.930 . S
C1446 C1444 1.419 . S
C1446 C1447 1.362 . S
C1447 H1437 0.930 . S
C1447 C1440 1.409 . S
C1447 C1446 1.362 . S
H1448 C1454 0.930 . S
H1449 C1457 0.930 . S
H1450 C1458 0.930 . S
H1451 C1459 0.930 . S
H1452 C1462 0.930 . S
H1453 C1463 0.930 . S
C1454 H1448 0.930 . S
C1454 C1455 1.355 . S
C1454 C1456 1.415 1_565 S
C1455 C1454 1.355 . S
C1455 C1457 1.419 . S
C1456 C1454 1.415 1_545 S
C1456 C1461 1.425 . S
C1456 C1463 1.409 . S
C1457 H1449 0.930 . S
C1457 C1455 1.419 . S
C1457 C1458 1.362 1_565 S
C1458 H1450 0.930 . S
C1458 C1457 1.362 1_545 S
C1458 C1461 1.409 . S
C1459 H1451 0.930 . S
C1459 C1460 1.355 . S
C1459 C1461 1.415 . S
C1460 C1459 1.355 . S
C1460 C1462 1.419 . S
C1461 C1456 1.425 . S
C1461 C1458 1.409 . S
C1461 C1459 1.415 . S
C1462 H1452 0.930 . S
C1462 C1460 1.419 . S
C1462 C1463 1.362 . S
C1463 H1453 0.930 . S
C1463 C1456 1.409 . S
C1463 C1462 1.362 . S
H1464 C1470 0.930 . S
H1465 C1473 0.930 . S
H1466 C1474 0.930 . S
H1467 C1475 0.930 . S
H1468 C1478 0.930 . S
H1469 C1479 0.930 . S
C1470 H1464 0.930 . S
C1470 C1471 1.355 . S
C1470 C1472 1.415 . S
C1471 C1470 1.355 . S
C1471 C1473 1.419 . S
C1472 C1470 1.415 . S
C1472 C1477 1.425 . S
C1472 C1479 1.409 . S
C1473 H1465 0.930 . S
C1473 C1471 1.419 . S
C1473 C1474 1.362 . S
C1474 H1466 0.930 . S
C1474 C1473 1.362 . S
C1474 C1477 1.409 . S
C1475 H1467 0.930 . S
C1475 C1476 1.355 . S
C1475 C1477 1.415 . S
C1476 C1475 1.355 . S
C1476 C1478 1.419 . S
C1477 C1472 1.425 . S
C1477 C1474 1.409 . S
C1477 C1475 1.415 . S
C1478 H1468 0.930 . S
C1478 C1476 1.419 . S
C1478 C1479 1.362 . S
C1479 H1469 0.930 . S
C1479 C1472 1.409 . S
C1479 C1478 1.362 . S
H1480 C1486 0.930 . S
H1481 C1489 0.930 . S
H1482 C1490 0.930 . S
H1483 C1491 0.930 . S
H1484 C1494 0.930 . S
H1485 C1495 0.930 . S
C1486 H1480 0.930 . S
C1486 C1487 1.355 . S
C1486 C1488 1.415 . S
C1487 C1486 1.355 . S
C1487 C1489 1.419 . S
C1488 C1486 1.415 . S
C1488 C1493 1.425 . S
C1488 C1495 1.409 . S
C1489 H1481 0.930 . S
C1489 C1487 1.419 . S
C1489 C1490 1.362 . S
C1490 H1482 0.930 . S
C1490 C1489 1.362 . S
C1490 C1493 1.409 . S
C1491 H1483 0.930 . S
C1491 C1492 1.355 . S
C1491 C1493 1.415 . S
C1492 C1491 1.355 . S
C1492 C1494 1.419 . S
C1493 C1488 1.425 . S
C1493 C1490 1.409 . S
C1493 C1491 1.415 . S
C1494 H1484 0.930 . S
C1494 C1492 1.419 . S
C1494 C1495 1.362 . S
C1495 H1485 0.930 . S
C1495 C1488 1.409 . S
C1495 C1494 1.362 . S
H1496 C1502 0.930 . S
H1497 C1505 0.930 . S
H1498 C1506 0.930 . S
H1499 C1507 0.930 . S
H1500 C1510 0.930 . S
H1501 C1511 0.930 . S
C1502 H1496 0.930 . S
C1502 C1503 1.355 . S
C1502 C1504 1.415 . S
C1503 C1502 1.355 . S
C1503 C1505 1.419 . S
C1504 C1502 1.415 . S
C1504 C1509 1.425 . S
C1504 C1511 1.409 . S
C1505 H1497 0.930 . S
C1505 C1503 1.419 . S
C1505 C1506 1.362 . S
C1506 H1498 0.930 . S
C1506 C1505 1.362 . S
C1506 C1509 1.409 . S
C1507 H1499 0.930 . S
C1507 C1508 1.355 . S
C1507 C1509 1.415 . S
C1508 C1507 1.355 . S
C1508 C1510 1.419 . S
C1509 C1504 1.425 . S
C1509 C1506 1.409 . S
C1509 C1507 1.415 . S
C1510 H1500 0.930 . S
C1510 C1508 1.419 . S
C1510 C1511 1.362 . S
C1511 H1501 0.930 . S
C1511 C1504 1.409 . S
C1511 C1510 1.362 . S
H1512 C1518 0.930 . S
H1513 C1521 0.930 1_545 S
H1514 C1522 0.930 . S
H1515 C1523 0.930 . S
H1516 C1526 0.930 . S
H1517 C1527 0.930 . S
C1518 H1512 0.930 . S
C1518 C1519 1.355 . S
C1518 C1520 1.415 . S
C1519 C1518 1.355 . S
C1519 C1521 1.419 . S
C1520 C1518 1.415 . S
C1520 C1525 1.425 . S
C1520 C1527 1.409 . S
C1521 H1513 0.930 1_565 S
C1521 C1519 1.419 . S
C1521 C1522 1.362 1_565 S
C1522 H1514 0.930 . S
C1522 C1521 1.362 1_545 S
C1522 C1525 1.409 1_545 S
C1523 H1515 0.930 . S
C1523 C1524 1.355 1_545 S
C1523 C1525 1.415 1_545 S
C1524 C1523 1.355 1_565 S
C1524 C1526 1.419 . S
C1525 C1520 1.425 . S
C1525 C1522 1.409 1_565 S
C1525 C1523 1.415 1_565 S
C1526 H1516 0.930 . S
C1526 C1524 1.419 . S
C1526 C1527 1.362 . S
C1527 H1517 0.930 . S
C1527 C1520 1.409 . S
C1527 C1526 1.362 . S
H1528 C1534 0.930 . S
H1529 C1537 0.930 . S
H1530 C1538 0.930 . S
H1531 C1539 0.939 . S
H1532 C1542 0.930 . S
H1533 C1543 0.930 . S
C1534 H1528 0.930 . S
C1534 C1535 1.355 . S
C1534 C1536 1.415 . S
C1535 C1534 1.355 . S
C1535 C1537 1.419 1_455 S
C1536 C1534 1.415 . S
C1536 C1541 1.425 . S
C1536 C1543 1.409 . S
C1537 H1529 0.930 . S
C1537 C1535 1.419 1_655 S
C1537 C1538 1.362 . S
C1538 H1530 0.930 . S
C1538 C1537 1.362 . S
C1538 C1541 1.409 1_655 S
C1539 H1531 0.939 . S
C1539 C1540 1.346 1_655 S
C1539 C1541 1.415 1_655 S
C1540 C1539 1.346 1_455 S
C1540 C1542 1.419 . S
C1541 C1536 1.425 . S
C1541 C1538 1.409 1_455 S
C1541 C1539 1.415 1_455 S
C1542 H1532 0.930 . S
C1542 C1540 1.419 . S
C1542 C1543 1.362 . S
C1543 H1533 0.930 . S
C1543 C1536 1.409 . S
C1543 C1542 1.362 . S
H1544 C1550 0.930 . S
H1545 C1553 0.930 . S
H1546 C1554 0.930 . S
H1547 C1555 0.930 . S
H1548 C1558 0.930 . S
H1549 C1559 0.930 . S
C1550 H1544 0.930 . S
C1550 C1551 1.355 . S
C1550 C1552 1.415 . S
C1551 C1550 1.355 . S
C1551 C1553 1.419 . S
C1552 C1550 1.415 . S
C1552 C1557 1.425 . S
C1552 C1559 1.409 . S
C1553 H1545 0.930 . S
C1553 C1551 1.419 . S
C1553 C1554 1.362 . S
C1554 H1546 0.930 . S
C1554 C1553 1.362 . S
C1554 C1557 1.409 . S
C1555 H1547 0.930 . S
C1555 C1556 1.355 . S
C1555 C1557 1.415 . S
C1556 C1555 1.355 . S
C1556 C1558 1.419 . S
C1557 C1552 1.425 . S
C1557 C1554 1.409 . S
C1557 C1555 1.415 . S
C1558 H1548 0.930 . S
C1558 C1556 1.419 . S
C1558 C1559 1.362 . S
C1559 H1549 0.930 . S
C1559 C1552 1.409 . S
C1559 C1558 1.362 . S
H1560 C1566 0.930 . S
H1561 C1569 0.930 . S
H1562 C1570 0.930 . S
H1563 C1571 0.930 1_455 S
H1564 C1574 0.930 . S
H1565 C1575 0.930 . S
C1566 H1560 0.930 . S
C1566 C1567 1.355 . S
C1566 C1568 1.415 . S
C1567 C1566 1.355 . S
C1567 C1569 1.419 1_655 S
C1568 C1566 1.415 . S
C1568 C1573 1.425 . S
C1568 C1575 1.409 . S
C1569 H1561 0.930 . S
C1569 C1567 1.419 1_455 S
C1569 C1570 1.362 . S
C1570 H1562 0.930 . S
C1570 C1569 1.362 . S
C1570 C1573 1.409 1_455 S
C1571 H1563 0.930 1_655 S
C1571 C1572 1.355 . S
C1571 C1573 1.415 . S
C1572 C1571 1.355 . S
C1572 C1574 1.419 . S
C1573 C1568 1.425 . S
C1573 C1570 1.409 1_655 S
C1573 C1571 1.415 . S
C1574 H1564 0.930 . S
C1574 C1572 1.419 . S
C1574 C1575 1.362 . S
C1575 H1565 0.930 . S
C1575 C1568 1.409 . S
C1575 C1574 1.362 . S
H1576 C1582 0.930 . S
H1577 C1585 0.930 . S
H1578 C1586 0.930 . S
H1579 C1587 0.930 . S
H1580 C1590 0.930 . S
H1581 C1591 0.930 . S
C1582 H1576 0.930 . S
C1582 C1583 1.355 . S
C1582 C1584 1.415 . S
C1583 C1582 1.355 . S
C1583 C1585 1.419 . S
C1584 C1582 1.415 . S
C1584 C1589 1.425 . S
C1584 C1591 1.409 . S
C1585 H1577 0.930 . S
C1585 C1583 1.419 . S
C1585 C1586 1.362 . S
C1586 H1578 0.930 . S
C1586 C1585 1.362 . S
C1586 C1589 1.409 . S
C1587 H1579 0.930 . S
C1587 C1588 1.355 . S
C1587 C1589 1.415 . S
C1588 C1587 1.355 . S
C1588 C1590 1.419 . S
C1589 C1584 1.425 . S
C1589 C1586 1.409 . S
C1589 C1587 1.415 . S
C1590 H1580 0.930 . S
C1590 C1588 1.419 . S
C1590 C1591 1.362 . S
C1591 H1581 0.930 . S
C1591 C1584 1.409 . S
C1591 C1590 1.362 . S
H1592 C1598 0.930 . S
H1593 C1601 0.930 . S
H1594 C1602 0.930 . S
H1595 C1603 0.930 . S
H1596 C1606 0.930 . S
H1597 C1607 0.930 . S
C1598 H1592 0.930 . S
C1598 C1599 1.355 . S
C1598 C1600 1.415 . S
C1599 C1598 1.355 . S
C1599 C1601 1.419 . S
C1600 C1598 1.415 . S
C1600 C1605 1.425 . S
C1600 C1607 1.409 . S
C1601 H1593 0.930 . S
C1601 C1599 1.419 . S
C1601 C1602 1.362 . S
C1602 H1594 0.930 . S
C1602 C1601 1.362 . S
C1602 C1605 1.409 . S
C1603 H1595 0.930 . S
C1603 C1604 1.355 . S
C1603 C1605 1.415 . S
C1604 C1603 1.355 . S
C1604 C1606 1.419 . S
C1605 C1600 1.425 . S
C1605 C1602 1.409 . S
C1605 C1603 1.415 . S
C1606 H1596 0.930 . S
C1606 C1604 1.419 . S
C1606 C1607 1.362 . S
C1607 H1597 0.930 . S
C1607 C1600 1.409 . S
C1607 C1606 1.362 . S
H1608 C1614 0.930 . S
H1609 C1617 0.930 . S
H1610 C1618 0.930 . S
H1611 C1619 0.930 . S
H1612 C1622 0.930 . S
H1613 C1623 0.930 . S
C1614 H1608 0.930 . S
C1614 C1615 1.355 . S
C1614 C1616 1.415 . S
C1615 C1614 1.355 . S
C1615 C1617 1.419 . S
C1616 C1614 1.415 . S
C1616 C1621 1.425 . S
C1616 C1623 1.409 . S
C1617 H1609 0.930 . S
C1617 C1615 1.419 . S
C1617 C1618 1.362 . S
C1618 H1610 0.930 . S
C1618 C1617 1.362 . S
C1618 C1621 1.409 . S
C1619 H1611 0.930 . S
C1619 C1620 1.355 . S
C1619 C1621 1.415 . S
C1620 C1619 1.355 . S
C1620 C1622 1.419 . S
C1621 C1616 1.425 . S
C1621 C1618 1.409 . S
C1621 C1619 1.415 . S
C1622 H1612 0.930 . S
C1622 C1620 1.419 . S
C1622 C1623 1.362 . S
C1623 H1613 0.930 . S
C1623 C1616 1.409 . S
C1623 C1622 1.362 . S
H1624 C1630 0.930 . S
H1625 C1633 0.930 . S
H1626 C1634 0.930 . S
H1627 C1635 0.930 . S
H1628 C1638 0.930 . S
H1629 C1639 0.930 . S
C1630 H1624 0.930 . S
C1630 C1631 1.355 . S
C1630 C1632 1.415 . S
C1631 C1630 1.355 . S
C1631 C1633 1.419 . S
C1632 C1630 1.415 . S
C1632 C1637 1.425 . S
C1632 C1639 1.409 . S
C1633 H1625 0.930 . S
C1633 C1631 1.419 . S
C1633 C1634 1.362 . S
C1634 H1626 0.930 . S
C1634 C1633 1.362 . S
C1634 C1637 1.409 . S
C1635 H1627 0.930 . S
C1635 C1636 1.355 . S
C1635 C1637 1.415 . S
C1636 C1635 1.355 . S
C1636 C1638 1.419 . S
C1637 C1632 1.425 . S
C1637 C1634 1.409 . S
C1637 C1635 1.415 . S
C1638 H1628 0.930 . S
C1638 C1636 1.419 . S
C1638 C1639 1.362 . S
C1639 H1629 0.930 . S
C1639 C1632 1.409 . S
C1639 C1638 1.362 . S
H1640 C1646 0.930 . S
H1641 C1649 0.930 . S
H1642 C1650 0.930 . S
H1643 C1651 0.930 . S
H1644 C1654 0.930 . S
H1645 C1655 0.930 . S
C1646 H1640 0.930 . S
C1646 C1647 1.355 . S
C1646 C1648 1.415 . S
C1647 C1646 1.355 . S
C1647 C1649 1.419 . S
C1648 C1646 1.415 . S
C1648 C1653 1.425 . S
C1648 C1655 1.409 . S
C1649 H1641 0.930 . S
C1649 C1647 1.419 . S
C1649 C1650 1.362 . S
C1650 H1642 0.930 . S
C1650 C1649 1.362 . S
C1650 C1653 1.409 . S
C1651 H1643 0.930 . S
C1651 C1652 1.355 . S
C1651 C1653 1.415 . S
C1652 C1651 1.355 . S
C1652 C1654 1.419 . S
C1653 C1648 1.425 . S
C1653 C1650 1.409 . S
C1653 C1651 1.415 . S
C1654 H1644 0.930 . S
C1654 C1652 1.419 . S
C1654 C1655 1.362 . S
C1655 H1645 0.930 . S
C1655 C1648 1.409 . S
C1655 C1654 1.362 . S
H1656 C1662 0.930 . S
H1657 C1665 0.930 . S
H1658 C1666 0.930 . S
H1659 C1667 0.930 . S
H1660 C1670 0.930 . S
H1661 C1671 0.930 . S
C1662 H1656 0.930 . S
C1662 C1663 1.355 . S
C1662 C1664 1.415 . S
C1663 C1662 1.355 . S
C1663 C1665 1.419 . S
C1664 C1662 1.415 . S
C1664 C1669 1.425 . S
C1664 C1671 1.409 . S
C1665 H1657 0.930 . S
C1665 C1663 1.419 . S
C1665 C1666 1.362 . S
C1666 H1658 0.930 . S
C1666 C1665 1.362 . S
C1666 C1669 1.409 . S
C1667 H1659 0.930 . S
C1667 C1668 1.355 . S
C1667 C1669 1.415 . S
C1668 C1667 1.355 . S
C1668 C1670 1.419 . S
C1669 C1664 1.425 . S
C1669 C1666 1.409 . S
C1669 C1667 1.415 . S
C1670 H1660 0.930 . S
C1670 C1668 1.419 . S
C1670 C1671 1.362 . S
C1671 H1661 0.930 . S
C1671 C1664 1.409 . S
C1671 C1670 1.362 . S
H1672 C1678 0.930 . S
H1673 C1681 0.930 . S
H1674 C1682 0.930 . S
H1675 C1683 0.930 . S
H1676 C1686 0.930 . S
H1677 C1687 0.930 . S
C1678 H1672 0.930 . S
C1678 C1679 1.355 . S
C1678 C1680 1.415 . S
C1679 C1678 1.355 . S
C1679 C1681 1.419 . S
C1680 C1678 1.415 . S
C1680 C1685 1.425 . S
C1680 C1687 1.409 . S
C1681 H1673 0.930 . S
C1681 C1679 1.419 . S
C1681 C1682 1.362 . S
C1682 H1674 0.930 . S
C1682 C1681 1.362 . S
C1682 C1685 1.409 . S
C1683 H1675 0.930 . S
C1683 C1684 1.355 . S
C1683 C1685 1.415 . S
C1684 C1683 1.355 . S
C1684 C1686 1.419 . S
C1685 C1680 1.425 . S
C1685 C1682 1.409 . S
C1685 C1683 1.415 . S
C1686 H1676 0.930 . S
C1686 C1684 1.419 . S
C1686 C1687 1.362 . S
C1687 H1677 0.930 . S
C1687 C1680 1.409 . S
C1687 C1686 1.362 . S
H1688 C1694 0.930 . S
H1689 C1697 0.930 . S
H1690 C1698 0.930 . S
H1691 C1699 0.930 . S
H1692 C1702 0.930 . S
H1693 C1703 0.930 . S
C1694 H1688 0.930 . S
C1694 C1695 1.355 . S
C1694 C1696 1.415 . S
C1695 C1694 1.355 . S
C1695 C1697 1.419 . S
C1696 C1694 1.415 . S
C1696 C1701 1.425 . S
C1696 C1703 1.409 . S
C1697 H1689 0.930 . S
C1697 C1695 1.419 . S
C1697 C1698 1.362 . S
C1698 H1690 0.930 . S
C1698 C1697 1.362 . S
C1698 C1701 1.409 . S
C1699 H1691 0.930 . S
C1699 C1700 1.355 . S
C1699 C1701 1.415 . S
C1700 C1699 1.355 . S
C1700 C1702 1.419 . S
C1701 C1696 1.425 . S
C1701 C1698 1.409 . S
C1701 C1699 1.415 . S
C1702 H1692 0.930 . S
C1702 C1700 1.419 . S
C1702 C1703 1.362 . S
C1703 H1693 0.930 . S
C1703 C1696 1.409 . S
C1703 C1702 1.362 . S
H1704 C1710 0.930 . S
H1705 C1713 0.930 . S
H1706 C1714 0.930 . S
H1707 C1715 0.930 . S
H1708 C1718 0.930 . S
H1709 C1719 0.930 . S
C1710 H1704 0.930 . S
C1710 C1711 1.355 . S
C1710 C1712 1.415 . S
C1711 C1710 1.355 . S
C1711 C1713 1.419 . S
C1712 C1710 1.415 . S
C1712 C1717 1.425 . S
C1712 C1719 1.409 . S
C1713 H1705 0.930 . S
C1713 C1711 1.419 . S
C1713 C1714 1.362 . S
C1714 H1706 0.930 . S
C1714 C1713 1.362 . S
C1714 C1717 1.409 . S
C1715 H1707 0.930 . S
C1715 C1716 1.355 . S
C1715 C1717 1.415 . S
C1716 C1715 1.355 . S
C1716 C1718 1.419 . S
C1717 C1712 1.425 . S
C1717 C1714 1.409 . S
C1717 C1715 1.415 . S
C1718 H1708 0.930 . S
C1718 C1716 1.419 . S
C1718 C1719 1.362 . S
C1719 H1709 0.930 . S
C1719 C1712 1.409 . S
C1719 C1718 1.362 . S
H1720 C1726 0.930 . S
H1721 C1729 0.930 . S
H1722 C1730 0.930 . S
H1723 C1731 0.930 . S
H1724 C1734 0.930 . S
H1725 C1735 0.930 . S
C1726 H1720 0.930 . S
C1726 C1727 1.355 . S
C1726 C1728 1.415 . S
C1727 C1726 1.355 . S
C1727 C1729 1.419 . S
C1728 C1726 1.415 . S
C1728 C1733 1.425 . S
C1728 C1735 1.409 . S
C1729 H1721 0.930 . S
C1729 C1727 1.419 . S
C1729 C1730 1.362 . S
C1730 H1722 0.930 . S
C1730 C1729 1.362 . S
C1730 C1733 1.409 . S
C1731 H1723 0.930 . S
C1731 C1732 1.355 . S
C1731 C1733 1.415 . S
C1732 C1731 1.355 . S
C1732 C1734 1.419 . S
C1733 C1728 1.425 . S
C1733 C1730 1.409 . S
C1733 C1731 1.415 . S
C1734 H1724 0.930 . S
C1734 C1732 1.419 . S
C1734 C1735 1.362 . S
C1735 H1725 0.930 . S
C1735 C1728 1.409 . S
C1735 C1734 1.362 . S
H1736 C1742 0.930 . S
H1737 C1745 0.930 . S
H1738 C1746 0.930 . S
H1739 C1747 0.930 . S
H1740 C1750 0.930 . S
H1741 C1751 0.930 . S
C1742 H1736 0.930 . S
C1742 C1743 1.355 . S
C1742 C1744 1.415 . S
C1743 C1742 1.355 . S
C1743 C1745 1.419 . S
C1744 C1742 1.415 . S
C1744 C1749 1.425 . S
C1744 C1751 1.409 . S
C1745 H1737 0.930 . S
C1745 C1743 1.419 . S
C1745 C1746 1.362 . S
C1746 H1738 0.930 . S
C1746 C1745 1.362 . S
C1746 C1749 1.409 . S
C1747 H1739 0.930 . S
C1747 C1748 1.355 . S
C1747 C1749 1.415 . S
C1748 C1747 1.355 . S
C1748 C1750 1.419 . S
C1749 C1744 1.425 . S
C1749 C1746 1.409 . S
C1749 C1747 1.415 . S
C1750 H1740 0.930 . S
C1750 C1748 1.419 . S
C1750 C1751 1.362 . S
C1751 H1741 0.930 . S
C1751 C1744 1.409 . S
C1751 C1750 1.362 . S
H1752 C1758 0.930 . S
H1753 C1761 0.930 . S
H1754 C1762 0.930 . S
H1755 C1763 0.930 . S
H1756 C1766 0.930 . S
H1757 C1767 0.930 . S
C1758 H1752 0.930 . S
C1758 C1759 1.355 . S
C1758 C1760 1.415 . S
C1759 C1758 1.355 . S
C1759 C1761 1.419 . S
C1760 C1758 1.415 . S
C1760 C1765 1.425 . S
C1760 C1767 1.409 . S
C1761 H1753 0.930 . S
C1761 C1759 1.419 . S
C1761 C1762 1.362 . S
C1762 H1754 0.930 . S
C1762 C1761 1.362 . S
C1762 C1765 1.409 . S
C1763 H1755 0.930 . S
C1763 C1764 1.355 . S
C1763 C1765 1.415 . S
C1764 C1763 1.355 . S
C1764 C1766 1.419 . S
C1765 C1760 1.425 . S
C1765 C1762 1.409 . S
C1765 C1763 1.415 . S
C1766 H1756 0.930 . S
C1766 C1764 1.419 . S
C1766 C1767 1.362 . S
C1767 H1757 0.930 . S
C1767 C1760 1.409 . S
C1767 C1766 1.362 . S
H1768 C1774 0.930 . S
H1769 C1777 0.930 . S
H1770 C1778 0.930 . S
H1771 C1779 0.930 . S
H1772 C1782 0.930 . S
H1773 C1783 0.930 . S
C1774 H1768 0.930 . S
C1774 C1775 1.355 . S
C1774 C1776 1.415 . S
C1775 C1774 1.355 . S
C1775 C1777 1.419 . S
C1776 C1774 1.415 . S
C1776 C1781 1.425 . S
C1776 C1783 1.409 . S
C1777 H1769 0.930 . S
C1777 C1775 1.419 . S
C1777 C1778 1.362 . S
C1778 H1770 0.930 . S
C1778 C1777 1.362 . S
C1778 C1781 1.409 . S
C1779 H1771 0.930 . S
C1779 C1780 1.355 . S
C1779 C1781 1.415 . S
C1780 C1779 1.355 . S
C1780 C1782 1.419 . S
C1781 C1776 1.425 . S
C1781 C1778 1.409 . S
C1781 C1779 1.415 . S
C1782 H1772 0.930 . S
C1782 C1780 1.419 . S
C1782 C1783 1.362 . S
C1783 H1773 0.930 . S
C1783 C1776 1.409 . S
C1783 C1782 1.362 . S
H1784 C1790 0.930 . S
H1785 C1793 0.930 . S
H1786 C1794 0.930 . S
H1787 C1795 0.930 . S
H1788 C1798 0.930 . S
H1789 C1799 0.930 . S
C1790 H1784 0.930 . S
C1790 C1791 1.355 . S
C1790 C1792 1.415 . S
C1791 C1790 1.355 . S
C1791 C1793 1.419 . S
C1792 C1790 1.415 . S
C1792 C1797 1.425 . S
C1792 C1799 1.409 . S
C1793 H1785 0.930 . S
C1793 C1791 1.419 . S
C1793 C1794 1.362 . S
C1794 H1786 0.930 . S
C1794 C1793 1.362 . S
C1794 C1797 1.409 . S
C1795 H1787 0.930 . S
C1795 C1796 1.355 . S
C1795 C1797 1.415 . S
C1796 C1795 1.355 . S
C1796 C1798 1.419 . S
C1797 C1792 1.425 . S
C1797 C1794 1.409 . S
C1797 C1795 1.415 . S
C1798 H1788 0.930 . S
C1798 C1796 1.419 . S
C1798 C1799 1.362 . S
C1799 H1789 0.930 . S
C1799 C1792 1.409 . S
C1799 C1798 1.362 . S
C943 C439 1.470 . S
C948 C588 1.616 . S
C959 C465 1.797 . S
C964 C628 1.771 . S
C975 C401 1.729 . S
C980 C658 1.698 . S
C991 C369 1.579 . S
C996 C618 1.557 . S
C1012 C668 1.514 . S
C1007 C305 1.530 . S
C1023 C343 1.340 . S
C1028 C578 1.405 1_556 S
C1044 C607 1.648 . S
C1039 C375 1.679 . S
C1060 C647 1.762 . S
C1055 C311 1.753 . S
C1071 C337 1.543 . S
C1076 C673 1.676 . S
C1087 C433 1.418 . S
C1092 C633 1.534 . S
C1103 C471 1.488 . S
C1108 C687 1.495 . S
C1124 C593 1.451 . S
C1119 C407 1.461 . S
C1140 C708 1.625 . S
C1135 C55 1.494 . S
C1151 C81 1.796 . S
C1156 C748 1.773 . S
C1167 C17 1.730 . S
C1172 C778 1.701 . S
C1183 C561 1.569 . S
C1188 C738 1.528 . S
C1199 C497 1.503 . S
C1204 C788 1.513 . S
C1215 C535 1.290 . S
C1220 C698 1.431 . S
C1231 C567 1.690 . S
C1236 C727 1.669 . S
C1247 C503 1.764 . S
C1252 C767 1.738 . S
C1268 C793 1.676 . S
C1263 C529 1.543 . S
C1279 C49 1.510 . S
C1284 C753 1.541 . S
C1300 C807 1.495 . S
C1295 C87 1.474 . S
C1311 C23 1.480 . S
C1316 C713 1.462 . S
C1332 C828 1.617 . S
C1327 C247 1.473 . S
C1343 C273 1.792 . S
C1348 C868 1.789 . S
C1364 C898 1.712 . S
C1359 C209 1.742 . S
C1380 C858 1.511 . S
C1375 C177 1.570 . S
C1396 C908 1.508 . S
C1391 C113 1.509 . S
C1407 C151 1.348 . S
C1412 C818 1.436 . S
C1423 C183 1.685 . S
C1428 C847 1.654 . S
C1439 C119 1.753 . S
C1444 C887 1.752 . S
C1460 C913 1.679 . S
C1455 C145 1.543 . S
C1471 C241 1.453 . S
C1476 C873 1.560 . S
C1487 C279 1.475 . S
C1492 C927 1.496 . S
C1503 C215 1.465 . S
C1508 C833 1.461 . S
C1519 C509 1.343 . S
C1524 C605 1.390 . S
C1540 C645 1.788 . S
C1535 C541 1.714 . S
C1551 C573 1.565 . S
C1556 C664 1.538 . S
C1567 C221 1.818 . S
C1572 C624 1.807 . S
C1583 C253 1.494 . S
C1588 C685 1.532 . S
C1604 C584 1.391 . S
C1599 C285 1.353 . S
C1615 C125 1.354 . S
C1620 C725 1.398 . S
C1631 C157 1.719 . S
C1636 C765 1.787 . S
C1647 C189 1.563 . S
C1652 C784 1.547 . S
C1663 C413 1.826 . S
C1668 C744 1.798 . S
C1684 C805 1.513 . S
C1679 C445 1.420 . S
C1695 C477 1.370 . S
C1700 C704 1.358 . S
C1711 C317 1.380 . S
C1716 C845 1.397 . S
C1727 C349 1.683 . S
C1732 C885 1.778 . S
C1748 C904 1.558 . S
C1743 C381 1.555 . S
C1759 C29 1.811 . S
C1764 C864 1.787 . S
C1775 C61 1.482 . S
C1780 C925 1.539 . S
C1791 C93 1.372 . S
C1796 C824 1.396 . S
