# Generated by pormake.
# Topology anh, (6,3)-cn, num edge types: 1
# Building blocks:
#     Node 0, Type 0, BuildingBlock: PAMTUU_clean_sbu_0, # of connection points: 6
#     Node 1, Type 0, BuildingBlock: PAMTUU_clean_sbu_0, # of connection points: 6
#     Node 2, Type 0, BuildingBlock: PAMTUU_clean_sbu_0, # of connection points: 6
#     Node 3, Type 1, BuildingBlock: QEWDON_clean_linker_0, # of connection points: 3
#     Node 4, Type 1, BuildingBlock: QEWDON_clean_linker_0, # of connection points: 3
#     Node 5, Type 1, BuildingBlock: QEWDON_clean_linker_0, # of connection points: 3
#     Node 6, Type 1, BuildingBlock: QEWDON_clean_linker_0, # of connection points: 3
#     Node 7, Type 1, BuildingBlock: QEWDON_clean_linker_0, # of connection points: 3
#     Node 8, Type 1, BuildingBlock: QEWDON_clean_linker_0, # of connection points: 3
#     Edge 9, Type (0, 1), BuildingBlock: EZIPEK_clean_linker_0, # of connection points: 2
#     Edge 10, Type (0, 1), BuildingBlock: EZIPEK_clean_linker_0, # of connection points: 2
#     Edge 11, Type (0, 1), BuildingBlock: EZIPEK_clean_linker_0, # of connection points: 2
#     Edge 12, Type (0, 1), BuildingBlock: EZIPEK_clean_linker_0, # of connection points: 2
#     Edge 13, Type (0, 1), BuildingBlock: EZIPEK_clean_linker_0, # of connection points: 2
#     Edge 14, Type (0, 1), BuildingBlock: EZIPEK_clean_linker_0, # of connection points: 2
#     Edge 15, Type (0, 1), BuildingBlock: EZIPEK_clean_linker_0, # of connection points: 2
#     Edge 16, Type (0, 1), BuildingBlock: EZIPEK_clean_linker_0, # of connection points: 2
#     Edge 17, Type (0, 1), BuildingBlock: EZIPEK_clean_linker_0, # of connection points: 2
#     Edge 18, Type (0, 1), BuildingBlock: EZIPEK_clean_linker_0, # of connection points: 2
#     Edge 19, Type (0, 1), BuildingBlock: EZIPEK_clean_linker_0, # of connection points: 2
#     Edge 20, Type (0, 1), BuildingBlock: EZIPEK_clean_linker_0, # of connection points: 2
#     Edge 21, Type (0, 1), BuildingBlock: EZIPEK_clean_linker_0, # of connection points: 2
#     Edge 22, Type (0, 1), BuildingBlock: EZIPEK_clean_linker_0, # of connection points: 2
#     Edge 23, Type (0, 1), BuildingBlock: EZIPEK_clean_linker_0, # of connection points: 2
#     Edge 24, Type (0, 1), BuildingBlock: EZIPEK_clean_linker_0, # of connection points: 2
#     Edge 25, Type (0, 1), BuildingBlock: EZIPEK_clean_linker_0, # of connection points: 2
#     Edge 26, Type (0, 1), BuildingBlock: EZIPEK_clean_linker_0, # of connection points: 2
# Relax obj value: 0.334
# Max RMSD: 0.148
# Mean RMSD: 0.116
data_MOF--net-anh--node1-PAMTUU_clean_sbu_0--node2-QEWDON_clean_linker_0--edge1-EZIPEK_clean_linker_0
_symmetry_space_group_name_H-M    P1
_symmetry_Int_Tables_number       1
_symmetry_cell_setting            triclinic
loop_
_symmetry_equiv_pos_as_xyz
'x, y, z'
_cell_length_a     25.441496
_cell_length_b     25.400583
_cell_length_c     36.265457
_cell_angle_alpha  95.346651
_cell_angle_beta   95.495375
_cell_angle_gamma 120.0059
loop_
_atom_site_label
_atom_site_type_symbol
_atom_site_fract_x
_atom_site_fract_y
_atom_site_fract_z
_atom_type_partial_charge
Tb0 Tb 0.17242 0.74316 0.15186 0.0
Tb1 Tb 0.24159 0.67363 0.16853 0.0
C2 C 0.19977 0.68053 0.08316 0.0
C3 C 1.07107 0.80588 0.1608 0.0
C4 C 0.95509 0.76781 0.17962 0.0
C5 C 0.96764 0.78499 0.14439 0.0
C6 C 1.0255 0.80423 0.13509 0.0
C7 C 1.06076 0.79568 0.19765 0.0
C8 C 1.00292 0.77764 0.20725 0.0
C9 C 0.12392 0.80791 0.14675 0.0
O10 O 1.08897 0.64613 0.15389 0.0
O11 O 0.14154 0.59805 0.16882 0.0
O12 O 0.24768 0.72272 0.2229 0.0
O13 O 0.15842 0.7205 0.20684 0.0
O14 O 0.31231 0.65365 0.16519 0.0
O15 O 0.23569 0.6003 0.19324 0.0
O16 O 0.32573 0.77139 0.17307 0.0
O17 O 0.27418 0.82128 0.16103 0.0
O18 O 0.18326 0.71924 0.09537 0.0
O19 O 0.21979 0.65503 0.10644 0.0
C20 C 1.08704 0.59462 0.16257 0.0
O21 O 0.17119 0.82245 0.17197 0.0
O22 O 0.11036 0.76094 0.12144 0.0
C23 C 0.20112 0.72625 0.23229 0.0
C24 C 0.32728 0.60296 0.2144 0.0
C25 C 0.40269 0.56971 0.25606 0.0
C26 C 0.33816 0.53471 0.25303 0.0
C27 C 0.30101 0.55076 0.23204 0.0
C28 C 0.39108 0.64292 0.22175 0.0
C29 C 0.42837 0.62707 0.24284 0.0
C30 C 0.28776 0.6093 0.18494 0.0
C31 C 0.32866 0.8249 0.16919 0.0
H32 H 0.93113 0.77824 0.12292 0.0
H33 H 1.03294 0.81251 0.10673 0.0
H34 H 1.09557 0.79704 0.2181 0.0
H35 H 0.99377 0.76503 0.23465 0.0
H36 H 0.31569 0.49199 0.26399 0.0
H37 H 0.25157 0.51974 0.2274 0.0
H38 H 0.41254 0.68434 0.20922 0.0
H39 H 0.47754 0.65763 0.24543 0.0
Tb40 Tb 0.57319 0.09797 0.47565 0.0
Tb41 Tb 0.71264 0.16774 0.50709 0.0
C42 C 0.66605 0.14836 0.4182 0.0
C43 C 0.40223 1.00099 0.46928 0.0
C44 C 0.28735 0.93854 0.49251 0.0
C45 C 0.29799 0.91493 0.45929 0.0
C46 C 0.35488 0.94591 0.44778 0.0
C47 C 0.39322 1.02301 0.50381 0.0
C48 C 0.3359 0.99157 0.51551 0.0
C49 C 0.45834 1.03634 0.45344 0.0
O50 O 0.59259 1.01881 0.48536 0.0
O51 O 0.69728 1.07055 0.49945 0.0
O52 O 0.66511 0.11492 0.55011 0.0
O53 O 0.57836 0.11713 0.53533 0.0
O54 O 0.80465 0.19629 0.50304 0.0
O55 O 0.78081 0.22568 0.55326 0.0
O56 O 0.69208 0.24706 0.5116 0.0
O57 O 0.59305 0.19749 0.48158 0.0
O58 O 0.60902 0.11675 0.42353 0.0
O59 O 0.71232 0.1723 0.44638 0.0
C60 C 0.64436 1.0162 0.49302 0.0
O61 O 0.48962 0.09541 0.46476 0.0
O62 O 0.4938 1.01349 0.45116 0.0
C63 C 0.61288 0.1067 0.55855 0.0
C64 C 0.86124 0.30175 0.52724 0.0
C65 C 0.88786 0.40126 0.48944 0.0
C66 C 0.91526 0.36603 0.48221 0.0
C67 C 0.90167 0.31611 0.50094 0.0
C68 C 0.84267 0.34362 0.53863 0.0
C69 C 0.85523 0.3925 0.5195 0.0
C70 C 0.82451 0.23732 0.53339 0.0
C71 C 0.64291 0.25075 0.49862 0.0
H72 H 0.26119 0.87381 0.44126 0.0
H73 H 0.36109 0.92813 0.42123 0.0
H74 H 0.42971 1.06526 0.5211 0.0
H75 H 0.32881 1.00985 0.54152 0.0
H76 H 0.94186 0.37329 0.45961 0.0
H77 H 0.91715 0.28501 0.49192 0.0
H78 H 0.81257 0.33496 0.55936 0.0
H79 H 0.83512 0.42036 0.52615 0.0
Tb80 Tb 0.68104 0.5544 0.81813 0.0
Tb81 Tb 0.75654 0.69653 0.83268 0.0
C82 C 0.7081 0.62381 0.75019 0.0
C83 C 0.62073 0.38467 0.8141 0.0
C84 C 0.59307 0.26719 0.82603 0.0
C85 C 0.60413 0.28461 0.79072 0.0
C86 C 0.61771 0.34291 0.78477 0.0
C87 C 0.61524 0.36926 0.85044 0.0
C88 C 0.60162 0.31048 0.85641 0.0
C89 C 0.61991 0.43894 0.80448 0.0
O90 O 0.78054 0.57296 0.82155 0.0
O91 O 0.83545 0.67677 0.84143 0.0
O92 O 0.72358 0.66994 0.88526 0.0
O93 O 0.7136 0.57558 0.8777 0.0
O94 O 0.78337 0.77836 0.81128 0.0
O95 O 0.81868 0.78071 0.86823 0.0
O96 O 0.65693 0.67858 0.82743 0.0
O97 O 0.60396 0.57479 0.82585 0.0
O98 O 0.6653 0.57988 0.76439 0.0
O99 O 0.7557 0.66963 0.77291 0.0
C100 C 0.8361 0.62441 0.83336 0.0
O101 O 0.61168 0.47171 0.83059 0.0
O102 O 0.6603 0.47268 0.78433 0.0
C103 C 0.71675 0.62148 0.89912 0.0
C104 C 0.78752 0.85213 0.85613 0.0
C105 C 0.68908 0.87183 0.85306 0.0
C106 C 0.73241 0.89796 0.82912 0.0
C107 C 0.78207 0.88852 0.83088 0.0
C108 C 0.75162 0.83777 0.88494 0.0
C109 C 0.70282 0.84845 0.8836 0.0
C110 C 0.8116 0.81255 0.84401 0.0
C111 C 0.60239 0.62696 0.82723 0.0
H112 H 0.5979 0.25149 0.76704 0.0
H113 H 0.62175 0.35386 0.75662 0.0
H114 H 0.61779 0.40104 0.87362 0.0
H115 H 0.59358 0.29749 0.88385 0.0
H116 H 0.72292 0.91727 0.80575 0.0
H117 H 0.80982 0.90085 0.80875 0.0
H118 H 0.7556 0.81094 0.90538 0.0
H119 H 0.67133 0.83102 0.90341 0.0
H120 H 0.74055 0.23354 0.25095 0.0
C121 C 0.69944 0.19281 0.23567 0.0
C122 C 0.6592 0.14867 0.25662 0.0
C123 C 0.68715 0.18611 0.19596 0.0
H124 H 0.57509 1.06293 0.25577 0.0
C125 C 0.6041 0.09466 0.23846 0.0
C126 C 0.5845 0.08009 0.19932 0.0
C127 C 0.62773 0.12736 0.17825 0.0
C128 C 0.73498 0.24121 0.17458 0.0
H129 H 0.61431 0.11781 0.14816 0.0
C130 C 0.79806 0.2986 0.18901 0.0
C131 C 0.8358 0.3456 0.16501 0.0
C132 C 0.71445 0.23619 0.13635 0.0
H133 H 0.6701 0.19833 0.12268 0.0
C134 C 0.74874 0.27937 0.11406 0.0
H135 H 0.81768 0.30634 0.21817 0.0
C136 C 0.80665 0.33154 0.12768 0.0
H137 H 0.82945 0.362 0.10805 0.0
H138 H 0.72945 0.27207 0.08481 0.0
H139 H 0.66695 0.66393 0.57736 0.0
C140 C 0.66242 0.62233 0.56282 0.0
C141 C 0.66856 0.58158 0.58484 0.0
C142 C 0.64978 0.61042 0.52317 0.0
H143 H 0.66748 0.49631 0.58589 0.0
C144 C 0.66263 0.52575 0.56774 0.0
C145 C 0.65061 0.50636 0.52849 0.0
C146 C 0.64444 0.55062 0.50639 0.0
C147 C 0.64123 0.66005 0.50113 0.0
H148 H 0.63513 0.53767 0.47626 0.0
C149 C 0.64921 0.72222 0.51595 0.0
C150 C 0.63882 0.76261 0.4916 0.0
C151 C 0.62254 0.643 0.46208 0.0
H152 H 0.61468 0.59971 0.44808 0.0
C153 C 0.61248 0.67982 0.43935 0.0
H154 H 0.66373 0.73927 0.54574 0.0
C155 C 0.62027 0.73694 0.45341 0.0
H156 H 0.61146 0.76195 0.43345 0.0
H157 H 0.59797 0.66331 0.40944 0.0
H158 H 0.24503 0.63915 0.91074 0.0
C159 C 0.204 0.6358 0.89626 0.0
C160 C 0.16205 0.63914 0.91828 0.0
C161 C 0.1947 0.62892 0.85665 0.0
H162 H 1.07696 0.63795 0.91952 0.0
C163 C 0.10717 0.63516 0.90131 0.0
C164 C 1.08993 0.62815 0.86213 0.0
C165 C 0.13569 0.62537 0.84 0.0
C166 C 0.24707 0.62629 0.83449 0.0
H167 H 0.12435 0.61978 0.80992 0.0
C168 C 0.30576 0.62696 0.84907 0.0
C169 C 0.34933 0.62359 0.82444 0.0
C170 C 0.23724 0.62312 0.79541 0.0
H171 H 0.19777 0.62305 0.78154 0.0
C172 C 0.27716 0.62022 0.77241 0.0
H173 H 0.31705 0.62924 0.87889 0.0
C174 C 0.33052 0.62038 0.7862 0.0
H175 H 0.35818 0.61808 0.76589 0.0
H176 H 0.26638 0.61801 0.74249 0.0
H177 H 1.00763 0.68155 0.32002 0.0
C178 C 1.02785 0.71445 0.34592 0.0
C179 C 1.09183 0.75439 0.35427 0.0
C180 C 0.99082 0.71256 0.37261 0.0
H181 H 0.16773 0.82256 0.39595 0.0
C182 C 0.11815 0.79306 0.38907 0.0
C183 C 1.08118 0.79206 0.41558 0.0
C184 C 1.01749 0.75242 0.40717 0.0
C185 C 0.9301 0.65751 0.36998 0.0
H186 H 0.98947 0.74889 0.42862 0.0
C187 C 0.92685 0.61119 0.38918 0.0
C188 C 0.87013 0.56068 0.39205 0.0
C189 C 0.8762 0.6519 0.35147 0.0
H190 H 0.8783 0.68767 0.33647 0.0
C191 C 0.81905 0.60019 0.3532 0.0
H192 H 0.96883 0.61593 0.40356 0.0
C193 C 0.8158 0.55495 0.37389 0.0
H194 H 0.77135 0.51618 0.3761 0.0
H195 H 0.77721 0.59586 0.33923 0.0
H196 H 0.46962 0.91045 0.67177 0.0
C197 C 0.47393 0.94587 0.69309 0.0
C198 C 0.50684 1.00826 0.68854 0.0
C199 C 0.44868 0.9299 0.726 0.0
H200 H 0.54303 0.1021 0.715 0.0
C201 C 0.51584 1.05383 0.71763 0.0
C202 C 0.49309 1.0377 0.75098 0.0
C203 C 0.45815 0.97605 0.75465 0.0
C204 C 0.42707 0.86888 0.73635 0.0
H205 H 0.44266 0.96424 0.78118 0.0
C206 C 0.47167 0.86081 0.75607 0.0
C207 C 0.45546 0.81819 0.7807 0.0
C208 C 0.36478 0.82972 0.73858 0.0
H209 H 0.32988 0.83696 0.72461 0.0
C210 C 0.34799 0.78419 0.76149 0.0
H211 H 0.52005 0.89285 0.7557 0.0
C212 C 0.39343 0.77964 0.78348 0.0
H213 H 0.38072 0.74788 0.80339 0.0
H214 H 0.3001 0.75498 0.76393 0.0
H215 H 0.57447 0.53188 0.03814 0.0
C216 C 0.61298 0.5579 0.06087 0.0
C217 C 0.6726 0.59289 0.05217 0.0
C218 C 0.60329 0.55905 0.09856 0.0
H219 H 0.76889 0.65313 0.07485 0.0
C220 C 0.72278 0.62624 0.08127 0.0
C221 C 0.71382 0.62556 0.11861 0.0
C222 C 0.65478 0.59339 0.12718 0.0
C223 C 0.54036 0.53133 0.10863 0.0
H224 H 0.65 0.59714 0.15645 0.0
C225 C 0.53081 0.51544 0.14467 0.0
C226 C 0.48031 0.51107 0.15954 0.0
C227 C 0.49244 0.53079 0.0853 0.0
H228 H 0.4976 0.54303 0.05754 0.0
C229 C 0.43844 0.51876 0.09866 0.0
H230 H 0.56551 0.51291 0.16288 0.0
C231 C 0.43309 0.51081 0.13594 0.0
H232 H 0.39314 0.50664 0.14675 0.0
H233 H 0.4023 0.51948 0.08077 0.0
C234 C 0.50335 0.57687 0.26169 0.0
C235 C 0.44093 0.54076 0.26442 0.0
C236 C 0.42903 0.46497 0.21348 0.0
C237 C 0.47903 0.51373 0.20052 0.0
N238 N 0.57081 0.61659 0.21614 0.0
N239 N 0.37408 0.43381 0.26642 0.0
C240 C 0.52045 0.56916 0.22636 0.0
C241 C 0.41363 0.47837 0.24835 0.0
N242 N 0.54212 0.62313 0.29031 0.0
N243 N 0.3953 0.4081 0.19189 0.0
H244 H 0.365 0.44552 0.29247 0.0
H245 H 0.35489 0.38688 0.25708 0.0
H246 H 0.40785 0.39741 0.16693 0.0
H247 H 0.35488 0.3727 0.19847 0.0
H248 H 0.58931 0.65037 0.29052 0.0
H249 H 0.52617 0.63001 0.31477 0.0
H250 H 0.59806 0.65936 0.23329 0.0
H251 H 0.58318 0.61511 0.18977 0.0
C252 C 0.85439 0.41674 0.42572 0.0
C253 C 0.88624 0.44212 0.46329 0.0
C254 C 0.89431 0.54013 0.45543 0.0
C255 C 0.86973 0.51731 0.41674 0.0
N256 N 0.83682 0.43737 0.36335 0.0
N257 N 0.94759 0.53144 0.51127 0.0
C258 C 0.85279 0.4566 0.40131 0.0
C259 C 0.9096 0.50497 0.47735 0.0
N260 N 0.82213 0.35439 0.41398 0.0
N261 N 0.9014 0.59467 0.47146 0.0
H262 H 0.96105 0.50722 0.52767 0.0
H263 H 0.97058 0.5786 0.52123 0.0
H264 H 0.88874 0.62084 0.45647 0.0
H265 H 0.91362 0.61052 0.50028 0.0
H266 H 0.79294 0.33363 0.38822 0.0
H267 H 0.81894 0.32275 0.43129 0.0
H268 H 0.8306 0.39578 0.35047 0.0
H269 H 0.83484 0.46511 0.34445 0.0
C270 C 0.59764 0.88476 0.85376 0.0
C271 C 0.62402 0.85142 0.83939 0.0
C272 C 0.52868 0.78224 0.79473 0.0
C273 C 0.50581 0.82057 0.80603 0.0
N274 N 0.51498 0.90415 0.8499 0.0
N275 N 0.61554 0.76704 0.79701 0.0
C276 C 0.53859 0.86974 0.83674 0.0
C277 C 0.58936 0.79905 0.81045 0.0
N278 N 0.62964 0.93249 0.88299 0.0
N279 N 0.49202 0.72978 0.76908 0.0
H280 H 0.65844 0.77551 0.80898 0.0
H281 H 0.59615 0.73331 0.77319 0.0
H282 H 0.44784 0.71736 0.75671 0.0
H283 H 0.50277 0.69598 0.76219 0.0
H284 H 0.61168 0.95846 0.89399 0.0
H285 H 0.67357 0.94546 0.8963 0.0
H286 H 0.47141 0.89594 0.8394 0.0
H287 H 0.47141 0.89594 0.8394 0.0
C288 C 0.85366 0.75688 0.18176 0.0
C289 C 0.88992 0.72922 0.18338 0.0
C290 C 0.79877 0.62825 0.15973 0.0
C291 C 0.76748 0.65854 0.14881 0.0
N292 N 0.75921 0.74918 0.15322 0.0
N293 N 0.89736 0.63765 0.17723 0.0
C294 C 0.79254 0.72205 0.16186 0.0
C295 C 0.86214 0.66422 0.17476 0.0
N296 N 0.87935 0.81705 0.19774 0.0
N297 N 0.76818 0.56532 0.15459 0.0
H298 H 0.9435 0.66171 0.18952 0.0
H299 H 0.88156 0.59222 0.16561 0.0
H300 H 0.72169 0.53801 0.1429 0.0
H301 H 0.78709 0.5405 0.16502 0.0
H302 H 0.85503 0.83989 0.19948 0.0
H303 H 0.92458 0.84239 0.21211 0.0
H304 H 0.77694 0.79649 0.15853 0.0
H305 H 0.7136 0.7239 0.13957 0.0
C306 C 0.1883 0.93367 0.48311 0.0
C307 C 0.223 0.90978 0.49922 0.0
C308 C 0.1365 0.80519 0.47903 0.0
C309 C 0.1118 0.82897 0.45326 0.0
N310 N 1.10252 0.91328 0.43619 0.0
N311 N 0.22441 0.82761 0.52524 0.0
C312 C 0.13287 0.89263 0.45801 0.0
C313 C 0.19369 0.84683 0.50255 0.0
N314 N 0.21099 0.99555 0.49002 0.0
N315 N 0.10744 0.74306 0.47859 0.0
H316 H 0.26685 0.85938 0.54184 0.0
H317 H 0.2082 0.78194 0.52823 0.0
H318 H 1.06543 0.71269 0.46123 0.0
H319 H 0.12296 0.72186 0.49618 0.0
H320 H 0.18749 1.01651 0.48013 0.0
H321 H 0.25185 1.02524 0.50853 0.0
H322 H 0.11827 0.95959 0.43537 0.0
H323 H 1.06096 0.88285 0.4184 0.0
C324 C 0.49946 0.16506 0.8172 0.0
C325 C 0.56412 0.20111 0.82794 0.0
C326 C 0.5745 0.11556 0.80278 0.0
C327 C 0.51292 0.08596 0.78376 0.0
N328 N 0.41348 0.07702 0.77574 0.0
N329 N 0.66138 0.20686 0.83979 0.0
C330 C 0.47369 0.10807 0.79272 0.0
C331 C 0.60057 0.17431 0.8244 0.0
N332 N 0.46383 0.18712 0.82918 0.0
N333 N 0.61022 0.09014 0.79917 0.0
H334 H 0.68133 0.25042 0.85613 0.0
H335 H 0.69053 0.18949 0.83676 0.0
H336 H 0.59433 1.04652 0.78397 0.0
H337 H 0.59433 1.04652 0.78397 0.0
H338 H 0.41595 0.16199 0.82433 0.0
H339 H 0.48273 0.22905 0.84711 0.0
H340 H 0.384 0.09398 0.77788 0.0
H341 H 0.39329 1.0346 0.75814 0.0
C342 C 0.6877 0.93823 0.47986 0.0
C343 C 0.6441 0.95125 0.49527 0.0
C344 C 0.59979 0.84187 0.51292 0.0
C345 C 0.64619 0.83105 0.50004 0.0
N346 N 0.74142 0.88012 0.47633 0.0
N347 N 0.56565 0.91314 0.53426 0.0
C348 C 0.69187 0.88296 0.48519 0.0
C349 C 0.6022 0.90192 0.51376 0.0
N350 N 0.72374 0.97711 0.45746 0.0
N351 N 0.55108 0.79344 0.52365 0.0
H352 H 0.56742 0.95516 0.53685 0.0
H353 H 0.53881 0.88379 0.55171 0.0
H354 H 0.54891 0.75152 0.5249 0.0
H355 H 0.51156 0.79354 0.52881 0.0
H356 H 0.7511 0.96808 0.44151 0.0
H357 H 0.72121 1.01517 0.45147 0.0
H358 H 0.78029 0.91729 0.46961 0.0
H359 H 0.74625 0.84229 0.47964 0.0
C360 C 0.957 0.66847 0.82579 0.0
C361 C 0.90108 0.62354 0.83808 0.0
C362 C 0.96612 0.57525 0.85742 0.0
C363 C 1.02352 0.62336 0.84861 0.0
N364 N 1.06971 0.72168 0.82823 0.0
N365 N 0.86211 0.53857 0.87232 0.0
C366 C 1.01712 0.67118 0.83375 0.0
C367 C 0.90884 0.5781 0.85535 0.0
N368 N 0.95262 0.70807 0.80452 0.0
N369 N 0.96535 0.52426 0.86711 0.0
H370 H 0.82154 0.53926 0.87253 0.0
H371 H 0.86589 0.50954 0.88945 0.0
H372 H 1.00409 0.51982 0.86861 0.0
H373 H 0.92533 0.48411 0.86973 0.0
H374 H 0.98769 0.73726 0.79084 0.0
H375 H 0.91151 0.70725 0.79739 0.0
H376 H 1.07187 0.76199 0.82234 0.0
H377 H 0.11231 0.7246 0.83235 0.0
C378 C 0.45034 0.89832 0.16238 0.0
C379 C 0.39456 0.89143 0.17436 0.0
C380 C 0.46085 1.01019 0.19322 0.0
C381 C 0.5178 1.01601 0.18491 0.0
N382 N 0.56324 0.95713 0.16592 0.0
N383 N 0.35688 0.94874 0.20808 0.0
C384 C 0.51086 0.95736 0.17069 0.0
C385 C 0.40311 0.94998 0.19125 0.0
N386 N 0.44558 0.84864 0.1409 0.0
N387 N 0.46116 1.06363 0.20267 0.0
H388 H 0.31581 0.90835 0.20849 0.0
H389 H 0.36155 0.9867 0.22506 0.0
H390 H 0.50067 0.10688 0.20462 0.0
H391 H 0.42149 1.06536 0.2047 0.0
H392 H 0.48092 0.85068 0.12761 0.0
H393 H 0.4041 0.80697 0.13296 0.0
H394 H 0.56476 0.91695 0.16059 0.0
H395 H 0.60614 0.99765 0.17002 0.0
C396 C 0.68785 0.37183 0.49141 0.0
C397 C 0.64321 0.31627 0.50394 0.0
C398 C 0.59637 0.38227 0.5241 0.0
C399 C 0.64436 0.43934 0.5148 0.0
N400 N 0.74164 0.48445 0.49336 0.0
N401 N 0.5577 0.27663 0.53738 0.0
C402 C 0.6912 0.43223 0.49934 0.0
C403 C 0.59817 0.32425 0.52134 0.0
N404 N 0.72642 0.36683 0.46974 0.0
N405 N 0.54664 0.38266 0.53493 0.0
H406 H 0.55717 0.2352 0.53631 0.0
H407 H 0.52859 0.27986 0.55454 0.0
H408 H 0.54326 0.42208 0.53707 0.0
H409 H 0.50649 0.34319 0.53816 0.0
H410 H 0.75284 0.40089 0.45456 0.0
H411 H 0.72731 0.32628 0.46415 0.0
H412 H 0.78138 0.48581 0.4872 0.0
H413 H 0.74512 0.52737 0.49736 0.0
C414 C 0.53037 0.6705 0.8536 0.0
C415 C 0.53716 0.62632 0.829 0.0
C416 C 0.41906 0.57327 0.81164 0.0
C417 C 0.41318 0.62128 0.83237 0.0
N418 N 0.47248 0.72117 0.87035 0.0
N419 N 0.48036 0.54032 0.77873 0.0
C420 C 0.47172 0.67101 0.85264 0.0
C421 C 0.47897 0.57903 0.80683 0.0
N422 N 0.57993 0.71177 0.87971 0.0
N423 N 0.36591 0.51943 0.79685 0.0
H424 H 0.52115 0.5437 0.77288 0.0
H425 H 0.4422 0.50978 0.75855 0.0
H426 H 0.32271 0.51231 0.80038 0.0
H427 H 0.36491 0.47986 0.78511 0.0
H428 H 0.57705 0.73866 0.902 0.0
H429 H 0.62244 0.71481 0.88102 0.0
H430 H 0.51284 0.76223 0.88203 0.0
H431 H 0.43239 0.72281 0.87089 0.0
C432 C 0.97533 0.52786 0.18614 0.0
C433 C 1.02282 0.5304 0.16574 0.0
C434 C 0.95475 0.41128 0.15566 0.0
C435 C 0.90445 0.40888 0.17262 0.0
N436 N 0.86909 0.47265 0.19984 0.0
N437 N 1.04679 0.46654 0.12622 0.0
C438 C 0.91609 0.46971 0.18663 0.0
C439 C 1.00919 0.46953 0.1497 0.0
N440 N 0.98765 0.58138 0.20707 0.0
N441 N 0.95116 0.35638 0.14536 0.0
H442 H 1.08458 0.50566 0.1202 0.0
H443 H 1.03717 0.42604 0.10968 0.0
H444 H 0.9138 0.31452 0.14897 0.0
H445 H 0.98734 0.35263 0.13703 0.0
H446 H 0.96038 0.58345 0.22614 0.0
H447 H 1.02841 0.62306 0.20789 0.0
H448 H 0.86942 0.51359 0.2065 0.0
H449 H 0.82796 0.43308 0.202 0.0
C450 C 0.15019 0.60814 0.02033 0.0
C451 C 0.19575 0.66663 0.04125 0.0
C452 C 0.2199 0.70697 0.98171 0.0
C453 C 0.17601 0.64791 0.96074 0.0
N454 N 0.10745 0.53958 0.96008 0.0
N455 N 0.28245 0.76791 0.04182 0.0
C456 C 0.14369 0.59768 0.98014 0.0
C457 C 0.23312 0.71484 0.02182 0.0
N458 N 0.11102 0.56338 0.03874 0.0
N459 N 0.24724 0.75634 0.9634 0.0
H460 H 0.29372 0.77492 0.071 0.0
H461 H 0.31542 0.80244 0.02945 0.0
H462 H 0.23937 0.75252 0.93425 0.0
H463 H 0.27402 0.80175 0.9771 0.0
H464 H 1.07224 0.52239 0.02518 0.0
H465 H 0.11483 0.56901 0.06791 0.0
H466 H 1.08765 0.5 0.97238 0.0
H467 H 1.10126 0.53039 0.93084 0.0
C468 C 0.69394 0.12118 0.35643 0.0
C469 C 0.67688 0.1578 0.37846 0.0
C470 C 0.65606 0.19513 0.32131 0.0
C471 C 0.67294 0.1584 0.29918 0.0
N472 N 0.71964 0.09626 0.29672 0.0
N473 N 0.65461 0.23943 0.38346 0.0
C474 C 0.69573 0.12465 0.31722 0.0
C475 C 0.66212 0.19793 0.36129 0.0
N476 N 0.70569 0.08089 0.37266 0.0
N477 N 0.63132 0.2251 0.30387 0.0
H478 H 0.65809 0.24208 0.41255 0.0
H479 H 0.65037 0.2746 0.37369 0.0
H480 H 0.62764 0.2255 0.27502 0.0
H481 H 0.61104 0.24646 0.31748 0.0
H482 H 0.71114 1.04745 0.35765 0.0
H483 H 0.70663 0.07859 0.40127 0.0
H484 H 0.74235 0.07568 0.30839 0.0
H485 H 0.72129 0.0978 0.26818 0.0
C486 C 0.74707 0.61937 0.68818 0.0
C487 C 0.7016 0.61999 0.70799 0.0
C488 C 0.63382 0.59385 0.64722 0.0
C489 C 0.68073 0.59715 0.62737 0.0
N490 N 0.78666 0.62547 0.6293 0.0
N491 N 0.60738 0.62149 0.70567 0.0
C492 C 0.73879 0.61374 0.64803 0.0
C493 C 0.64664 0.61121 0.68722 0.0
N494 N 0.79674 0.6207 0.70742 0.0
N495 N 0.57599 0.57165 0.62804 0.0
H496 H 0.61591 0.63582 0.73463 0.0
H497 H 0.5698 0.62203 0.69196 0.0
H498 H 0.56455 0.55823 0.59897 0.0
H499 H 0.53812 0.56148 0.6412 0.0
H500 H 0.82764 0.61322 0.69431 0.0
H501 H 0.80436 0.62395 0.73651 0.0
H502 H 0.83174 0.6441 0.64276 0.0
H503 H 0.78241 0.62187 0.60014 0.0
C504 C 0.62497 0.09745 0.6275 0.0
C505 C 0.58779 0.07739 0.59149 0.0
C506 C 0.49705 1.01121 0.61913 0.0
C507 C 0.53497 1.02742 0.65438 0.0
N508 N 0.63731 0.07326 0.68965 0.0
N509 N 0.49194 0.99939 0.55205 0.0
C510 C 0.59977 1.06647 0.65775 0.0
C511 C 0.52485 1.02955 0.58697 0.0
N512 N 0.68297 0.14807 0.63355 0.0
N513 N 0.43443 0.98063 0.61633 0.0
H514 H 0.51084 1.00836 0.52756 0.0
H515 H 0.44807 0.96023 0.54779 0.0
H516 H 0.41181 0.96714 0.63925 0.0
H517 H 0.40528 0.97393 0.59184 0.0
H518 H 0.70943 0.16805 0.66018 0.0
H519 H 0.70235 0.17399 0.61274 0.0
H520 H 0.68511 0.09671 0.69226 0.0
H521 H 0.62046 1.04994 0.71193 0.0
C522 C 0.73906 0.59554 0.96199 0.0
C523 C 0.70652 0.61534 0.93863 0.0
C524 C 0.65686 0.62623 -0.00894 0.0
C525 C 0.68287 0.59871 0.01269 0.0
N526 N 0.73978 0.54609 0.01587 0.0
N527 N 0.62048 0.63125 0.92863 0.0
C528 C 0.72141 0.58004 -0.00269 0.0
C529 C 0.66163 0.62584 0.95251 0.0
N530 N 0.78824 0.59376 0.95121 0.0
N531 N 0.62915 0.6545 0.00735 0.0
H532 H 0.61869 0.62549 0.89976 0.0
H533 H 0.58338 0.63328 0.93703 0.0
H534 H 0.62628 0.65783 0.03588 0.0
H535 H 0.61489 0.68027 -0.00677 0.0
H536 H 0.81701 0.58515 0.96876 0.0
H537 H 0.80424 0.60728 0.9263 0.0
H538 H 0.76301 0.5263 0.00422 0.0
H539 H 0.7265 0.53257 0.04135 0.0
C540 C 0.20309 0.79692 0.28409 0.0
C541 C 0.19475 0.73855 0.27152 0.0
C542 C 0.13451 0.69658 0.32107 0.0
C543 C 0.13193 0.75119 0.32811 0.0
N544 N 0.16159 0.85314 0.31506 0.0
N545 N 0.15341 0.63203 0.27729 0.0
C546 C 0.16658 0.80192 0.3098 0.0
C547 C 0.16165 0.68831 0.29028 0.0
N548 N 0.24522 0.84706 0.2706 0.0
N549 N 0.11167 0.65321 0.34403 0.0
H550 H 0.17527 0.62565 0.25584 0.0
H551 H 0.12307 0.59159 0.28656 0.0
H552 H 1.09248 0.65845 0.36726 0.0
H553 H 0.11693 0.61499 0.34216 0.0
H554 H 0.25719 0.8921 0.28051 0.0
H555 H 0.2728 0.84344 0.25218 0.0
H556 H 0.18065 0.88862 0.29933 0.0
H557 H 0.13426 0.85817 0.33307 0.0
loop_
_geom_bond_atom_site_label_1
_geom_bond_atom_site_label_2
_geom_bond_distance
_geom_bond_site_symmetry_2
_ccdc_geom_bond_type
Tb0 C9 2.764 1_455 S
Tb0 O10 2.325 1_455 S
Tb0 O13 2.303 . S
Tb0 O17 2.322 . S
Tb0 O18 2.349 . S
Tb0 O21 2.415 1_455 S
Tb0 O22 2.399 1_455 S
Tb1 O11 2.322 1_455 S
Tb1 O12 2.349 . S
Tb1 O14 2.415 . S
Tb1 O15 2.399 . S
Tb1 O16 2.325 . S
Tb1 O19 2.303 . S
Tb1 C30 2.764 . S
C2 O18 1.261 . S
C2 O19 1.257 . S
C3 C6 1.358 . S
C3 C7 1.332 . S
C3 C9 1.504 . S
C4 C5 1.373 . S
C4 C8 1.308 . S
C5 C4 1.373 . S
C5 C6 1.429 . S
C5 H32 0.932 . S
C6 C3 1.358 . S
C6 C5 1.429 . S
C6 H33 0.930 . S
C7 C3 1.332 . S
C7 C8 1.394 . S
C7 H34 0.932 . S
C8 C4 1.308 . S
C8 C7 1.394 . S
C8 H35 0.929 . S
C9 Tb0 2.764 1_655 S
C9 C3 1.504 . S
C9 O21 1.239 . S
C9 O22 1.263 . S
O10 Tb0 2.325 1_655 S
O10 C20 1.236 . S
O11 Tb1 2.322 1_655 S
O11 C20 1.257 . S
O12 Tb1 2.349 . S
O12 C23 1.261 . S
O13 Tb0 2.303 . S
O13 C23 1.257 . S
O14 Tb1 2.415 . S
O14 C30 1.239 . S
O15 Tb1 2.399 . S
O15 C30 1.263 . S
O16 Tb1 2.325 . S
O16 C31 1.236 . S
O17 Tb0 2.322 . S
O17 C31 1.257 . S
O18 Tb0 2.349 . S
O18 C2 1.261 . S
O19 Tb1 2.303 . S
O19 C2 1.257 . S
C20 O10 1.236 . S
C20 O11 1.257 . S
O21 Tb0 2.415 1_655 S
O21 C9 1.239 . S
O22 Tb0 2.399 1_655 S
O22 C9 1.263 . S
C23 O12 1.261 . S
C23 O13 1.257 . S
C24 C27 1.358 . S
C24 C28 1.332 . S
C24 C30 1.504 . S
C25 C26 1.373 . S
C25 C29 1.308 . S
C26 C25 1.373 . S
C26 C27 1.429 . S
C26 H36 0.932 . S
C27 C24 1.358 . S
C27 C26 1.429 . S
C27 H37 0.930 . S
C28 C24 1.332 . S
C28 C29 1.394 . S
C28 H38 0.932 . S
C29 C25 1.308 . S
C29 C28 1.394 . S
C29 H39 0.929 . S
C30 Tb1 2.764 . S
C30 O14 1.239 . S
C30 O15 1.263 . S
C30 C24 1.504 . S
C31 O16 1.236 . S
C31 O17 1.257 . S
H32 C5 0.932 . S
H33 C6 0.930 . S
H34 C7 0.932 . S
H35 C8 0.929 . S
H36 C26 0.932 . S
H37 C27 0.930 . S
H38 C28 0.932 . S
H39 C29 0.929 . S
Tb40 C49 2.764 1_545 S
Tb40 O50 2.325 1_545 S
Tb40 O53 2.303 . S
Tb40 O57 2.322 . S
Tb40 O58 2.349 . S
Tb40 O61 2.415 1_545 S
Tb40 O62 2.399 1_545 S
Tb41 O51 2.322 . S
Tb41 O52 2.349 . S
Tb41 O54 2.415 . S
Tb41 O55 2.399 . S
Tb41 O56 2.325 . S
Tb41 O59 2.303 . S
Tb41 C70 2.764 . S
C42 O58 1.261 . S
C42 O59 1.257 . S
C43 C46 1.358 . S
C43 C47 1.332 . S
C43 C49 1.504 . S
C44 C45 1.373 . S
C44 C48 1.308 . S
C45 C44 1.373 . S
C45 C46 1.429 . S
C45 H72 0.932 . S
C46 C43 1.358 . S
C46 C45 1.429 . S
C46 H73 0.930 . S
C47 C43 1.332 . S
C47 C48 1.394 . S
C47 H74 0.932 . S
C48 C44 1.308 . S
C48 C47 1.394 . S
C48 H75 0.929 . S
C49 Tb40 2.764 1_565 S
C49 C43 1.504 . S
C49 O61 1.239 . S
C49 O62 1.263 . S
O50 Tb40 2.325 1_565 S
O50 C60 1.236 . S
O51 Tb41 2.322 . S
O51 C60 1.257 1_545 S
O52 Tb41 2.349 . S
O52 C63 1.261 . S
O53 Tb40 2.303 . S
O53 C63 1.257 . S
O54 Tb41 2.415 . S
O54 C70 1.239 . S
O55 Tb41 2.399 . S
O55 C70 1.263 . S
O56 Tb41 2.325 . S
O56 C71 1.236 . S
O57 Tb40 2.322 . S
O57 C71 1.257 . S
O58 Tb40 2.349 . S
O58 C42 1.261 . S
O59 Tb41 2.303 . S
O59 C42 1.257 . S
C60 O50 1.236 . S
C60 O51 1.257 1_565 S
O61 Tb40 2.415 1_565 S
O61 C49 1.239 . S
O62 Tb40 2.399 1_565 S
O62 C49 1.263 . S
C63 O52 1.261 . S
C63 O53 1.257 . S
C64 C67 1.358 . S
C64 C68 1.332 . S
C64 C70 1.504 . S
C65 C66 1.373 . S
C65 C69 1.308 . S
C66 C65 1.373 . S
C66 C67 1.429 . S
C66 H76 0.932 . S
C67 C64 1.358 . S
C67 C66 1.429 . S
C67 H77 0.930 . S
C68 C64 1.332 . S
C68 C69 1.394 . S
C68 H78 0.932 . S
C69 C65 1.308 . S
C69 C68 1.394 . S
C69 H79 0.929 . S
C70 Tb41 2.764 . S
C70 O54 1.239 . S
C70 O55 1.263 . S
C70 C64 1.504 . S
C71 O56 1.236 . S
C71 O57 1.257 . S
H72 C45 0.932 . S
H73 C46 0.930 . S
H74 C47 0.932 . S
H75 C48 0.929 . S
H76 C66 0.932 . S
H77 C67 0.930 . S
H78 C68 0.932 . S
H79 C69 0.929 . S
Tb80 C89 2.764 . S
Tb80 O90 2.325 . S
Tb80 O93 2.303 . S
Tb80 O97 2.322 . S
Tb80 O98 2.349 . S
Tb80 O101 2.415 . S
Tb80 O102 2.399 . S
Tb81 O91 2.322 . S
Tb81 O92 2.349 . S
Tb81 O94 2.415 . S
Tb81 O95 2.399 . S
Tb81 O96 2.325 . S
Tb81 O99 2.303 . S
Tb81 C110 2.764 . S
C82 O98 1.261 . S
C82 O99 1.257 . S
C83 C86 1.358 . S
C83 C87 1.332 . S
C83 C89 1.504 . S
C84 C85 1.373 . S
C84 C88 1.308 . S
C85 C84 1.373 . S
C85 C86 1.429 . S
C85 H112 0.932 . S
C86 C83 1.358 . S
C86 C85 1.429 . S
C86 H113 0.930 . S
C87 C83 1.332 . S
C87 C88 1.394 . S
C87 H114 0.932 . S
C88 C84 1.308 . S
C88 C87 1.394 . S
C88 H115 0.929 . S
C89 Tb80 2.764 . S
C89 C83 1.504 . S
C89 O101 1.239 . S
C89 O102 1.263 . S
O90 Tb80 2.325 . S
O90 C100 1.236 . S
O91 Tb81 2.322 . S
O91 C100 1.257 . S
O92 Tb81 2.349 . S
O92 C103 1.261 . S
O93 Tb80 2.303 . S
O93 C103 1.257 . S
O94 Tb81 2.415 . S
O94 C110 1.239 . S
O95 Tb81 2.399 . S
O95 C110 1.263 . S
O96 Tb81 2.325 . S
O96 C111 1.236 . S
O97 Tb80 2.322 . S
O97 C111 1.257 . S
O98 Tb80 2.349 . S
O98 C82 1.261 . S
O99 Tb81 2.303 . S
O99 C82 1.257 . S
C100 O90 1.236 . S
C100 O91 1.257 . S
O101 Tb80 2.415 . S
O101 C89 1.239 . S
O102 Tb80 2.399 . S
O102 C89 1.263 . S
C103 O92 1.261 . S
C103 O93 1.257 . S
C104 C107 1.358 . S
C104 C108 1.332 . S
C104 C110 1.504 . S
C105 C106 1.373 . S
C105 C109 1.308 . S
C106 C105 1.373 . S
C106 C107 1.429 . S
C106 H116 0.932 . S
C107 C104 1.358 . S
C107 C106 1.429 . S
C107 H117 0.930 . S
C108 C104 1.332 . S
C108 C109 1.394 . S
C108 H118 0.932 . S
C109 C105 1.308 . S
C109 C108 1.394 . S
C109 H119 0.929 . S
C110 Tb81 2.764 . S
C110 O94 1.239 . S
C110 O95 1.263 . S
C110 C104 1.504 . S
C111 O96 1.236 . S
C111 O97 1.257 . S
H112 C85 0.932 . S
H113 C86 0.930 . S
H114 C87 0.932 . S
H115 C88 0.929 . S
H116 C106 0.932 . S
H117 C107 0.930 . S
H118 C108 0.932 . S
H119 C109 0.929 . S
H120 C121 0.949 . S
C121 H120 0.949 . S
C121 C122 1.395 . S
C121 C123 1.391 . S
C122 C121 1.395 . S
C122 C125 1.390 . S
C123 C121 1.391 . S
C123 C127 1.387 . S
C123 C128 1.491 . S
H124 C125 0.950 1_565 S
C125 C122 1.390 . S
C125 H124 0.950 1_545 S
C125 C126 1.378 1_545 S
C126 C125 1.378 1_565 S
C126 C127 1.409 1_565 S
C127 C123 1.387 . S
C127 C126 1.409 1_545 S
C127 H129 0.951 . S
C128 C123 1.491 . S
C128 C130 1.382 . S
C128 C132 1.404 . S
H129 C127 0.951 . S
C130 C128 1.382 . S
C130 C131 1.390 . S
C130 H135 0.949 . S
C131 C130 1.390 . S
C131 C136 1.399 . S
C132 C128 1.404 . S
C132 H133 0.950 . S
C132 C134 1.375 . S
H133 C132 0.950 . S
C134 C132 1.375 . S
C134 C136 1.382 . S
C134 H138 0.950 . S
H135 C130 0.949 . S
C136 C131 1.399 . S
C136 C134 1.382 . S
C136 H137 0.952 . S
H137 C136 0.952 . S
H138 C134 0.950 . S
H139 C140 0.949 . S
C140 H139 0.949 . S
C140 C141 1.395 . S
C140 C142 1.391 . S
C141 C140 1.395 . S
C141 C144 1.390 . S
C142 C140 1.391 . S
C142 C146 1.387 . S
C142 C147 1.491 . S
H143 C144 0.950 . S
C144 C141 1.390 . S
C144 H143 0.950 . S
C144 C145 1.378 . S
C145 C144 1.378 . S
C145 C146 1.409 . S
C146 C142 1.387 . S
C146 C145 1.409 . S
C146 H148 0.951 . S
C147 C142 1.491 . S
C147 C149 1.382 . S
C147 C151 1.404 . S
H148 C146 0.951 . S
C149 C147 1.382 . S
C149 C150 1.390 . S
C149 H154 0.949 . S
C150 C149 1.390 . S
C150 C155 1.399 . S
C151 C147 1.404 . S
C151 H152 0.950 . S
C151 C153 1.375 . S
H152 C151 0.950 . S
C153 C151 1.375 . S
C153 C155 1.382 . S
C153 H157 0.950 . S
H154 C149 0.949 . S
C155 C150 1.399 . S
C155 C153 1.382 . S
C155 H156 0.952 . S
H156 C155 0.952 . S
H157 C153 0.950 . S
H158 C159 0.949 . S
C159 H158 0.949 . S
C159 C160 1.395 . S
C159 C161 1.391 . S
C160 C159 1.395 . S
C160 C163 1.390 1_455 S
C161 C159 1.391 . S
C161 C165 1.387 . S
C161 C166 1.491 . S
H162 C163 0.950 . S
C163 C160 1.390 1_655 S
C163 H162 0.950 . S
C163 C164 1.378 . S
C164 C163 1.378 . S
C164 C165 1.409 1_655 S
C165 C161 1.387 . S
C165 C164 1.409 1_455 S
C165 H167 0.951 . S
C166 C161 1.491 . S
C166 C168 1.382 . S
C166 C170 1.404 . S
H167 C165 0.951 . S
C168 C166 1.382 . S
C168 C169 1.390 . S
C168 H173 0.949 . S
C169 C168 1.390 . S
C169 C174 1.399 . S
C170 C166 1.404 . S
C170 H171 0.950 . S
C170 C172 1.375 . S
H171 C170 0.950 . S
C172 C170 1.375 . S
C172 C174 1.382 . S
C172 H176 0.950 . S
H173 C168 0.949 . S
C174 C169 1.399 . S
C174 C172 1.382 . S
C174 H175 0.952 . S
H175 C174 0.952 . S
H176 C172 0.950 . S
H177 C178 0.949 . S
C178 H177 0.949 . S
C178 C179 1.395 1_655 S
C178 C180 1.391 1_655 S
C179 C178 1.395 1_455 S
C179 C182 1.390 . S
C180 C178 1.391 1_455 S
C180 C184 1.387 . S
C180 C185 1.491 1_455 S
H181 C182 0.950 . S
C182 C179 1.390 . S
C182 H181 0.950 . S
C182 C183 1.378 . S
C183 C182 1.378 . S
C183 C184 1.409 . S
C184 C180 1.387 . S
C184 C183 1.409 . S
C184 H186 0.951 . S
C185 C180 1.491 1_655 S
C185 C187 1.382 . S
C185 C189 1.404 . S
H186 C184 0.951 . S
C187 C185 1.382 . S
C187 C188 1.390 . S
C187 H192 0.949 . S
C188 C187 1.390 . S
C188 C193 1.399 . S
C189 C185 1.404 . S
C189 H190 0.950 . S
C189 C191 1.375 . S
H190 C189 0.950 . S
C191 C189 1.375 . S
C191 C193 1.382 . S
C191 H195 0.950 . S
H192 C187 0.949 . S
C193 C188 1.399 . S
C193 C191 1.382 . S
C193 H194 0.952 . S
H194 C193 0.952 . S
H195 C191 0.950 . S
H196 C197 0.949 1_565 S
C197 H196 0.949 1_545 S
C197 C198 1.395 . S
C197 C199 1.391 . S
C198 C197 1.395 . S
C198 C201 1.390 . S
C199 C197 1.391 . S
C199 C203 1.387 . S
C199 C204 1.491 1_545 S
H200 C201 0.950 . S
C201 C198 1.390 . S
C201 H200 0.950 . S
C201 C202 1.378 . S
C202 C201 1.378 . S
C202 C203 1.409 . S
C203 C199 1.387 . S
C203 C202 1.409 . S
C203 H205 0.951 . S
C204 C199 1.491 1_565 S
C204 C206 1.382 . S
C204 C208 1.404 . S
H205 C203 0.951 . S
C206 C204 1.382 . S
C206 C207 1.390 . S
C206 H211 0.949 . S
C207 C206 1.390 . S
C207 C212 1.399 . S
C208 C204 1.404 . S
C208 H209 0.950 . S
C208 C210 1.375 . S
H209 C208 0.950 . S
C210 C208 1.375 . S
C210 C212 1.382 . S
C210 H214 0.950 . S
H211 C206 0.949 . S
C212 C207 1.399 . S
C212 C210 1.382 . S
C212 H213 0.952 . S
H213 C212 0.952 . S
H214 C210 0.950 . S
H215 C216 0.949 . S
C216 H215 0.949 . S
C216 C217 1.395 . S
C216 C218 1.391 . S
C217 C216 1.395 . S
C217 C220 1.390 . S
C218 C216 1.391 . S
C218 C222 1.387 . S
C218 C223 1.491 . S
H219 C220 0.950 . S
C220 C217 1.390 . S
C220 H219 0.950 . S
C220 C221 1.378 . S
C221 C220 1.378 . S
C221 C222 1.409 . S
C222 C218 1.387 . S
C222 C221 1.409 . S
C222 H224 0.951 . S
C223 C218 1.491 . S
C223 C225 1.382 . S
C223 C227 1.404 . S
H224 C222 0.951 . S
C225 C223 1.382 . S
C225 C226 1.390 . S
C225 H230 0.949 . S
C226 C225 1.390 . S
C226 C231 1.399 . S
C227 C223 1.404 . S
C227 H228 0.950 . S
C227 C229 1.375 . S
H228 C227 0.950 . S
C229 C227 1.375 . S
C229 C231 1.382 . S
C229 H233 0.950 . S
H230 C225 0.949 . S
C231 C226 1.399 . S
C231 C229 1.382 . S
C231 H232 0.952 . S
H232 C231 0.952 . S
H233 C229 0.950 . S
C234 C235 1.363 . S
C234 C240 1.379 . S
C234 N242 1.356 . S
C235 C234 1.363 . S
C235 C241 1.363 . S
C236 C237 1.363 . S
C236 C241 1.379 . S
C236 N243 1.356 . S
C237 C236 1.363 . S
C237 C240 1.363 . S
N238 C240 1.356 . S
N238 H250 0.984 . S
N238 H251 0.985 . S
N239 C241 1.356 . S
N239 H244 0.984 . S
N239 H245 0.985 . S
C240 C234 1.379 . S
C240 C237 1.363 . S
C240 N238 1.356 . S
C241 C235 1.363 . S
C241 C236 1.379 . S
C241 N239 1.356 . S
N242 C234 1.356 . S
N242 H248 0.984 . S
N242 H249 0.984 . S
N243 C236 1.356 . S
N243 H246 0.984 . S
N243 H247 0.985 . S
H244 N239 0.984 . S
H245 N239 0.985 . S
H246 N243 0.984 . S
H247 N243 0.985 . S
H248 N242 0.984 . S
H249 N242 0.984 . S
H250 N238 0.984 . S
H251 N238 0.985 . S
C252 C253 1.363 . S
C252 C258 1.379 . S
C252 N260 1.356 . S
C253 C252 1.363 . S
C253 C259 1.363 . S
C254 C255 1.363 . S
C254 C259 1.379 . S
C254 N261 1.356 . S
C255 C254 1.363 . S
C255 C258 1.363 . S
N256 C258 1.356 . S
N256 H268 0.984 . S
N256 H269 0.985 . S
N257 C259 1.356 . S
N257 H262 0.984 . S
N257 H263 0.985 . S
C258 C252 1.379 . S
C258 C255 1.363 . S
C258 N256 1.356 . S
C259 C253 1.363 . S
C259 C254 1.379 . S
C259 N257 1.356 . S
N260 C252 1.356 . S
N260 H266 0.984 . S
N260 H267 0.984 . S
N261 C254 1.356 . S
N261 H264 0.984 . S
N261 H265 0.985 . S
H262 N257 0.984 . S
H263 N257 0.985 . S
H264 N261 0.984 . S
H265 N261 0.985 . S
H266 N260 0.984 . S
H267 N260 0.984 . S
H268 N256 0.984 . S
H269 N256 0.985 . S
C270 C271 1.363 . S
C270 C276 1.379 . S
C270 N278 1.356 . S
C271 C270 1.363 . S
C271 C277 1.363 . S
C272 C273 1.363 . S
C272 C277 1.379 . S
C272 N279 1.356 . S
C273 C272 1.363 . S
C273 C276 1.363 . S
N274 C276 1.356 . S
N274 H286 0.984 . S
N274 H287 0.985 . S
N275 C277 1.356 . S
N275 H280 0.984 . S
N275 H281 0.985 . S
C276 C270 1.379 . S
C276 C273 1.363 . S
C276 N274 1.356 . S
C277 C271 1.363 . S
C277 C272 1.379 . S
C277 N275 1.356 . S
N278 C270 1.356 . S
N278 H284 0.984 . S
N278 H285 0.984 . S
N279 C272 1.356 . S
N279 H282 0.984 . S
N279 H283 0.985 . S
H280 N275 0.984 . S
H281 N275 0.985 . S
H282 N279 0.984 . S
H283 N279 0.985 . S
H284 N278 0.984 . S
H285 N278 0.984 . S
H286 N274 0.984 . S
H287 N274 0.985 . S
C288 C289 1.363 . S
C288 C294 1.379 . S
C288 N296 1.356 . S
C289 C288 1.363 . S
C289 C295 1.363 . S
C290 C291 1.363 . S
C290 C295 1.379 . S
C290 N297 1.356 . S
C291 C290 1.363 . S
C291 C294 1.363 . S
N292 C294 1.356 . S
N292 H304 0.984 . S
N292 H305 0.985 . S
N293 C295 1.356 . S
N293 H298 0.984 . S
N293 H299 0.985 . S
C294 C288 1.379 . S
C294 C291 1.363 . S
C294 N292 1.356 . S
C295 C289 1.363 . S
C295 C290 1.379 . S
C295 N293 1.356 . S
N296 C288 1.356 . S
N296 H302 0.984 . S
N296 H303 0.984 . S
N297 C290 1.356 . S
N297 H300 0.984 . S
N297 H301 0.985 . S
H298 N293 0.984 . S
H299 N293 0.985 . S
H300 N297 0.984 . S
H301 N297 0.985 . S
H302 N296 0.984 . S
H303 N296 0.984 . S
H304 N292 0.984 . S
H305 N292 0.985 . S
C306 C307 1.363 . S
C306 C312 1.379 . S
C306 N314 1.356 . S
C307 C306 1.363 . S
C307 C313 1.363 . S
C308 C309 1.363 . S
C308 C313 1.379 . S
C308 N315 1.356 . S
C309 C308 1.363 . S
C309 C312 1.363 . S
N310 C312 1.356 . S
N310 H322 0.984 . S
N310 H323 0.985 . S
N311 C313 1.356 . S
N311 H316 0.984 . S
N311 H317 0.985 . S
C312 C306 1.379 . S
C312 C309 1.363 . S
C312 N310 1.356 . S
C313 C307 1.363 . S
C313 C308 1.379 . S
C313 N311 1.356 . S
N314 C306 1.356 . S
N314 H320 0.984 . S
N314 H321 0.984 . S
N315 C308 1.356 . S
N315 H318 0.984 . S
N315 H319 0.985 . S
H316 N311 0.984 . S
H317 N311 0.985 . S
H318 N315 0.984 . S
H319 N315 0.985 . S
H320 N314 0.984 . S
H321 N314 0.984 . S
H322 N310 0.984 . S
H323 N310 0.985 . S
C324 C325 1.363 . S
C324 C330 1.379 . S
C324 N332 1.356 . S
C325 C324 1.363 . S
C325 C331 1.363 . S
C326 C327 1.363 . S
C326 C331 1.379 . S
C326 N333 1.356 . S
C327 C326 1.363 . S
C327 C330 1.363 . S
N328 C330 1.356 . S
N328 H340 0.984 . S
N328 H341 0.985 . S
N329 C331 1.356 . S
N329 H334 0.984 . S
N329 H335 0.985 . S
C330 C324 1.379 . S
C330 C327 1.363 . S
C330 N328 1.356 . S
C331 C325 1.363 . S
C331 C326 1.379 . S
C331 N329 1.356 . S
N332 C324 1.356 . S
N332 H338 0.984 . S
N332 H339 0.984 . S
N333 C326 1.356 . S
N333 H336 0.984 . S
N333 H337 0.985 . S
H334 N329 0.984 . S
H335 N329 0.985 . S
H336 N333 0.984 . S
H337 N333 0.985 . S
H338 N332 0.984 . S
H339 N332 0.984 . S
H340 N328 0.984 . S
H341 N328 0.985 . S
C342 C343 1.363 . S
C342 C348 1.379 . S
C342 N350 1.356 . S
C343 C342 1.363 . S
C343 C349 1.363 . S
C344 C345 1.363 . S
C344 C349 1.379 . S
C344 N351 1.356 . S
C345 C344 1.363 . S
C345 C348 1.363 . S
N346 C348 1.356 . S
N346 H358 0.984 . S
N346 H359 0.985 . S
N347 C349 1.356 . S
N347 H352 0.984 . S
N347 H353 0.985 . S
C348 C342 1.379 . S
C348 C345 1.363 . S
C348 N346 1.356 . S
C349 C343 1.363 . S
C349 C344 1.379 . S
C349 N347 1.356 . S
N350 C342 1.356 . S
N350 H356 0.984 . S
N350 H357 0.984 . S
N351 C344 1.356 . S
N351 H354 0.984 . S
N351 H355 0.985 . S
H352 N347 0.984 . S
H353 N347 0.985 . S
H354 N351 0.984 . S
H355 N351 0.985 . S
H356 N350 0.984 . S
H357 N350 0.984 . S
H358 N346 0.984 . S
H359 N346 0.985 . S
C360 C361 1.363 . S
C360 C366 1.379 . S
C360 N368 1.356 . S
C361 C360 1.363 . S
C361 C367 1.363 . S
C362 C363 1.363 . S
C362 C367 1.379 . S
C362 N369 1.356 . S
C363 C362 1.363 . S
C363 C366 1.363 . S
N364 C366 1.356 . S
N364 H376 0.984 . S
N364 H377 0.985 . S
N365 C367 1.356 . S
N365 H370 0.984 . S
N365 H371 0.985 . S
C366 C360 1.379 . S
C366 C363 1.363 . S
C366 N364 1.356 . S
C367 C361 1.363 . S
C367 C362 1.379 . S
C367 N365 1.356 . S
N368 C360 1.356 . S
N368 H374 0.984 . S
N368 H375 0.984 . S
N369 C362 1.356 . S
N369 H372 0.984 . S
N369 H373 0.985 . S
H370 N365 0.984 . S
H371 N365 0.985 . S
H372 N369 0.984 . S
H373 N369 0.985 . S
H374 N368 0.984 . S
H375 N368 0.984 . S
H376 N364 0.984 . S
H377 N364 0.985 . S
C378 C379 1.363 . S
C378 C384 1.379 . S
C378 N386 1.356 . S
C379 C378 1.363 . S
C379 C385 1.363 . S
C380 C381 1.363 . S
C380 C385 1.379 . S
C380 N387 1.356 . S
C381 C380 1.363 . S
C381 C384 1.363 . S
N382 C384 1.356 . S
N382 H394 0.984 . S
N382 H395 0.985 . S
N383 C385 1.356 . S
N383 H388 0.984 . S
N383 H389 0.985 . S
C384 C378 1.379 . S
C384 C381 1.363 . S
C384 N382 1.356 . S
C385 C379 1.363 . S
C385 C380 1.379 . S
C385 N383 1.356 . S
N386 C378 1.356 . S
N386 H392 0.984 . S
N386 H393 0.984 . S
N387 C380 1.356 . S
N387 H390 0.984 . S
N387 H391 0.985 . S
H388 N383 0.984 . S
H389 N383 0.985 . S
H390 N387 0.984 . S
H391 N387 0.985 . S
H392 N386 0.984 . S
H393 N386 0.984 . S
H394 N382 0.984 . S
H395 N382 0.985 . S
C396 C397 1.363 . S
C396 C402 1.379 . S
C396 N404 1.356 . S
C397 C396 1.363 . S
C397 C403 1.363 . S
C398 C399 1.363 . S
C398 C403 1.379 . S
C398 N405 1.356 . S
C399 C398 1.363 . S
C399 C402 1.363 . S
N400 C402 1.356 . S
N400 H412 0.984 . S
N400 H413 0.985 . S
N401 C403 1.356 . S
N401 H406 0.984 . S
N401 H407 0.985 . S
C402 C396 1.379 . S
C402 C399 1.363 . S
C402 N400 1.356 . S
C403 C397 1.363 . S
C403 C398 1.379 . S
C403 N401 1.356 . S
N404 C396 1.356 . S
N404 H410 0.984 . S
N404 H411 0.984 . S
N405 C398 1.356 . S
N405 H408 0.984 . S
N405 H409 0.985 . S
H406 N401 0.984 . S
H407 N401 0.985 . S
H408 N405 0.984 . S
H409 N405 0.985 . S
H410 N404 0.984 . S
H411 N404 0.984 . S
H412 N400 0.984 . S
H413 N400 0.985 . S
C414 C415 1.363 . S
C414 C420 1.379 . S
C414 N422 1.356 . S
C415 C414 1.363 . S
C415 C421 1.363 . S
C416 C417 1.363 . S
C416 C421 1.379 . S
C416 N423 1.356 . S
C417 C416 1.363 . S
C417 C420 1.363 . S
N418 C420 1.356 . S
N418 H430 0.984 . S
N418 H431 0.985 . S
N419 C421 1.356 . S
N419 H424 0.984 . S
N419 H425 0.985 . S
C420 C414 1.379 . S
C420 C417 1.363 . S
C420 N418 1.356 . S
C421 C415 1.363 . S
C421 C416 1.379 . S
C421 N419 1.356 . S
N422 C414 1.356 . S
N422 H428 0.984 . S
N422 H429 0.984 . S
N423 C416 1.356 . S
N423 H426 0.984 . S
N423 H427 0.985 . S
H424 N419 0.984 . S
H425 N419 0.985 . S
H426 N423 0.984 . S
H427 N423 0.985 . S
H428 N422 0.984 . S
H429 N422 0.984 . S
H430 N418 0.984 . S
H431 N418 0.985 . S
C432 C433 1.363 . S
C432 C438 1.379 . S
C432 N440 1.356 . S
C433 C432 1.363 . S
C433 C439 1.363 . S
C434 C435 1.363 . S
C434 C439 1.379 . S
C434 N441 1.356 . S
C435 C434 1.363 . S
C435 C438 1.363 . S
N436 C438 1.356 . S
N436 H448 0.984 . S
N436 H449 0.985 . S
N437 C439 1.356 . S
N437 H442 0.984 . S
N437 H443 0.985 . S
C438 C432 1.379 . S
C438 C435 1.363 . S
C438 N436 1.356 . S
C439 C433 1.363 . S
C439 C434 1.379 . S
C439 N437 1.356 . S
N440 C432 1.356 . S
N440 H446 0.984 . S
N440 H447 0.984 . S
N441 C434 1.356 . S
N441 H444 0.984 . S
N441 H445 0.985 . S
H442 N437 0.984 . S
H443 N437 0.985 . S
H444 N441 0.984 . S
H445 N441 0.985 . S
H446 N440 0.984 . S
H447 N440 0.984 . S
H448 N436 0.984 . S
H449 N436 0.985 . S
C450 C451 1.363 . S
C450 C456 1.379 . S
C450 N458 1.356 . S
C451 C450 1.363 . S
C451 C457 1.363 . S
C452 C453 1.363 . S
C452 C457 1.379 1_556 S
C452 N459 1.356 . S
C453 C452 1.363 . S
C453 C456 1.363 1_556 S
N454 C456 1.356 1_556 S
N454 H466 0.984 . S
N454 H467 0.985 . S
N455 C457 1.356 . S
N455 H460 0.984 . S
N455 H461 0.985 . S
C456 C450 1.379 . S
C456 C453 1.363 1_554 S
C456 N454 1.356 1_554 S
C457 C451 1.363 . S
C457 C452 1.379 1_554 S
C457 N455 1.356 . S
N458 C450 1.356 . S
N458 H464 0.984 . S
N458 H465 0.984 . S
N459 C452 1.356 . S
N459 H462 0.984 . S
N459 H463 0.985 . S
H460 N455 0.984 . S
H461 N455 0.985 . S
H462 N459 0.984 . S
H463 N459 0.985 . S
H464 N458 0.984 . S
H465 N458 0.984 . S
H466 N454 0.984 . S
H467 N454 0.985 . S
C468 C469 1.363 . S
C468 C474 1.379 . S
C468 N476 1.356 . S
C469 C468 1.363 . S
C469 C475 1.363 . S
C470 C471 1.363 . S
C470 C475 1.379 . S
C470 N477 1.356 . S
C471 C470 1.363 . S
C471 C474 1.363 . S
N472 C474 1.370 . S
N472 H484 0.964 1_545 S
N472 H485 0.992 . S
N473 C475 1.356 . S
N473 H478 0.984 . S
N473 H479 0.985 . S
C474 C468 1.379 . S
C474 C471 1.363 . S
C474 N472 1.370 . S
C475 C469 1.363 . S
C475 C470 1.379 . S
C475 N473 1.356 . S
N476 C468 1.356 . S
N476 H482 0.984 1_545 S
N476 H483 0.984 . S
N477 C470 1.356 . S
N477 H480 0.984 . S
N477 H481 0.985 . S
H478 N473 0.984 . S
H479 N473 0.985 . S
H480 N477 0.984 . S
H481 N477 0.985 . S
H482 N476 0.984 1_565 S
H483 N476 0.984 . S
H484 N472 0.964 1_565 S
H485 N472 0.992 . S
C486 C487 1.363 . S
C486 C492 1.379 . S
C486 N494 1.356 . S
C487 C486 1.363 . S
C487 C493 1.363 . S
C488 C489 1.363 . S
C488 C493 1.379 . S
C488 N495 1.356 . S
C489 C488 1.363 . S
C489 C492 1.363 . S
N490 C492 1.356 . S
N490 H502 0.984 . S
N490 H503 0.985 . S
N491 C493 1.356 . S
N491 H496 0.984 . S
N491 H497 0.985 . S
C492 C486 1.379 . S
C492 C489 1.363 . S
C492 N490 1.356 . S
C493 C487 1.363 . S
C493 C488 1.379 . S
C493 N491 1.356 . S
N494 C486 1.356 . S
N494 H500 0.984 . S
N494 H501 0.984 . S
N495 C488 1.356 . S
N495 H498 0.984 . S
N495 H499 0.985 . S
H496 N491 0.984 . S
H497 N491 0.985 . S
H498 N495 0.984 . S
H499 N495 0.985 . S
H500 N494 0.984 . S
H501 N494 0.984 . S
H502 N490 0.984 . S
H503 N490 0.985 . S
C504 C505 1.363 . S
C504 C510 1.379 . S
C504 N512 1.356 . S
C505 C504 1.363 . S
C505 C511 1.363 . S
C506 C507 1.363 . S
C506 C511 1.379 . S
C506 N513 1.356 1_545 S
C507 C506 1.363 . S
C507 C510 1.363 . S
N508 C510 1.356 . S
N508 H520 0.984 . S
N508 H521 0.985 . S
N509 C511 1.356 1_565 S
N509 H514 0.984 1_565 S
N509 H515 0.985 . S
C510 C504 1.379 . S
C510 C507 1.363 . S
C510 N508 1.356 . S
C511 C505 1.363 . S
C511 C506 1.379 . S
C511 N509 1.356 1_545 S
N512 C504 1.356 . S
N512 H518 0.984 . S
N512 H519 0.984 . S
N513 C506 1.356 1_565 S
N513 H516 0.984 . S
N513 H517 0.985 . S
H514 N509 0.984 1_545 S
H515 N509 0.985 . S
H516 N513 0.984 . S
H517 N513 0.985 . S
H518 N512 0.984 . S
H519 N512 0.984 . S
H520 N508 0.984 . S
H521 N508 0.985 . S
C522 C523 1.363 . S
C522 C528 1.379 1_556 S
C522 N530 1.356 . S
C523 C522 1.363 . S
C523 C529 1.363 . S
C524 C525 1.363 . S
C524 C529 1.379 1_554 S
C524 N531 1.356 . S
C525 C524 1.363 . S
C525 C528 1.363 . S
N526 C528 1.356 . S
N526 H538 0.984 . S
N526 H539 0.985 . S
N527 C529 1.356 . S
N527 H532 0.984 . S
N527 H533 0.985 . S
C528 C522 1.379 1_554 S
C528 C525 1.363 . S
C528 N526 1.356 . S
C529 C523 1.363 . S
C529 C524 1.379 1_556 S
C529 N527 1.356 . S
N530 C522 1.356 . S
N530 H536 0.984 . S
N530 H537 0.984 . S
N531 C524 1.356 . S
N531 H534 0.984 . S
N531 H535 0.985 . S
H532 N527 0.984 . S
H533 N527 0.985 . S
H534 N531 0.984 . S
H535 N531 0.985 . S
H536 N530 0.984 . S
H537 N530 0.984 . S
H538 N526 0.984 . S
H539 N526 0.985 . S
C540 C541 1.363 . S
C540 C546 1.379 . S
C540 N548 1.356 . S
C541 C540 1.363 . S
C541 C547 1.363 1_455 S
C542 C543 1.363 1_655 S
C542 C547 1.379 . S
C542 N549 1.356 . S
C543 C542 1.363 1_455 S
C543 C546 1.363 . S
N544 C546 1.356 . S
N544 H556 0.984 . S
N544 H557 0.985 . S
N545 C547 1.356 . S
N545 H550 0.984 . S
N545 H551 0.985 . S
C546 C540 1.379 . S
C546 C543 1.363 . S
C546 N544 1.356 . S
C547 C541 1.363 1_655 S
C547 C542 1.379 . S
C547 N545 1.356 . S
N548 C540 1.356 . S
N548 H554 0.984 . S
N548 H555 0.984 . S
N549 C542 1.356 . S
N549 H552 0.984 . S
N549 H553 0.985 . S
H550 N545 0.984 . S
H551 N545 0.985 . S
H552 N549 0.984 . S
H553 N549 0.985 . S
H554 N548 0.984 . S
H555 N548 0.984 . S
H556 N544 0.984 . S
H557 N544 0.985 . S
C235 C25 0.803 . S
C237 C226 0.766 . S
C253 C65 0.598 . S
C255 C188 0.687 . S
C271 C105 0.633 . S
C273 C207 0.663 . S
C289 C4 0.744 . S
C291 C221 0.741 . S
C309 C183 0.360 . S
C307 C44 0.510 . S
C327 C202 0.311 . S
C325 C84 0.461 . S
C343 C60 3.117 . S
C345 C150 3.034 . S
C361 C100 3.092 . S
C363 C164 3.046 . S
C379 C31 3.084 . S
C381 C126 3.027 . S
C399 C145 3.033 . S
C397 C71 3.081 . S
C417 C169 3.029 . S
C415 C111 3.098 . S
C433 C20 3.122 . S
C435 C131 3.038 . S
C453 C160 1.767 . S
C451 C2 1.747 . S
C469 C42 1.788 . S
C471 C122 1.787 . S
C487 C82 1.762 . S
C489 C141 1.777 . S
C507 C198 1.175 . S
C505 C63 1.159 . S
C525 C217 1.270 . S
C523 C103 1.282 . S
C541 C23 1.141 . S
C543 C179 1.160 . S
