# Generated by pormake.
# Topology zzz, (3,6)-cn, num edge types: 1
# Building blocks:
#     Node 0, Type 0, BuildingBlock: BETDAH_clean_linker_0, # of connection points: 3
#     Node 1, Type 0, BuildingBlock: BETDAH_clean_linker_0, # of connection points: 3
#     Node 2, Type 0, BuildingBlock: BETDAH_clean_linker_0, # of connection points: 3
#     Node 3, Type 0, BuildingBlock: BETDAH_clean_linker_0, # of connection points: 3
#     Node 4, Type 0, BuildingBlock: BETDAH_clean_linker_0, # of connection points: 3
#     Node 5, Type 0, BuildingBlock: BETDAH_clean_linker_0, # of connection points: 3
#     Node 6, Type 0, BuildingBlock: BETDAH_clean_linker_0, # of connection points: 3
#     Node 7, Type 0, BuildingBlock: BETDAH_clean_linker_0, # of connection points: 3
#     Node 8, Type 1, BuildingBlock: KUMBUR_clean_sbu_0, # of connection points: 6
#     Node 9, Type 1, BuildingBlock: KUMBUR_clean_sbu_0, # of connection points: 6
#     Node 10, Type 1, BuildingBlock: KUMBUR_clean_sbu_0, # of connection points: 6
#     Node 11, Type 1, BuildingBlock: KUMBUR_clean_sbu_0, # of connection points: 6
#     Edge 12, Type (0, 1), BuildingBlock: AJUNOK_clean_linker_0, # of connection points: 2
#     Edge 13, Type (0, 1), BuildingBlock: AJUNOK_clean_linker_0, # of connection points: 2
#     Edge 14, Type (0, 1), BuildingBlock: AJUNOK_clean_linker_0, # of connection points: 2
#     Edge 15, Type (0, 1), BuildingBlock: AJUNOK_clean_linker_0, # of connection points: 2
#     Edge 16, Type (0, 1), BuildingBlock: AJUNOK_clean_linker_0, # of connection points: 2
#     Edge 17, Type (0, 1), BuildingBlock: AJUNOK_clean_linker_0, # of connection points: 2
#     Edge 18, Type (0, 1), BuildingBlock: AJUNOK_clean_linker_0, # of connection points: 2
#     Edge 19, Type (0, 1), BuildingBlock: AJUNOK_clean_linker_0, # of connection points: 2
#     Edge 20, Type (0, 1), BuildingBlock: AJUNOK_clean_linker_0, # of connection points: 2
#     Edge 21, Type (0, 1), BuildingBlock: AJUNOK_clean_linker_0, # of connection points: 2
#     Edge 22, Type (0, 1), BuildingBlock: AJUNOK_clean_linker_0, # of connection points: 2
#     Edge 23, Type (0, 1), BuildingBlock: AJUNOK_clean_linker_0, # of connection points: 2
#     Edge 24, Type (0, 1), BuildingBlock: AJUNOK_clean_linker_0, # of connection points: 2
#     Edge 25, Type (0, 1), BuildingBlock: AJUNOK_clean_linker_0, # of connection points: 2
#     Edge 26, Type (0, 1), BuildingBlock: AJUNOK_clean_linker_0, # of connection points: 2
#     Edge 27, Type (0, 1), BuildingBlock: AJUNOK_clean_linker_0, # of connection points: 2
#     Edge 28, Type (0, 1), BuildingBlock: AJUNOK_clean_linker_0, # of connection points: 2
#     Edge 29, Type (0, 1), BuildingBlock: AJUNOK_clean_linker_0, # of connection points: 2
#     Edge 30, Type (0, 1), BuildingBlock: AJUNOK_clean_linker_0, # of connection points: 2
#     Edge 31, Type (0, 1), BuildingBlock: AJUNOK_clean_linker_0, # of connection points: 2
#     Edge 32, Type (0, 1), BuildingBlock: AJUNOK_clean_linker_0, # of connection points: 2
#     Edge 33, Type (0, 1), BuildingBlock: AJUNOK_clean_linker_0, # of connection points: 2
#     Edge 34, Type (0, 1), BuildingBlock: AJUNOK_clean_linker_0, # of connection points: 2
#     Edge 35, Type (0, 1), BuildingBlock: AJUNOK_clean_linker_0, # of connection points: 2
# Relax obj value: 0.232
# Max RMSD: 0.183
# Mean RMSD: 0.120
data_MOF--net-zzz--node1-KUMBUR_clean_sbu_0--node2-BETDAH_clean_linker_0--edge1-AJUNOK_clean_linker_0
_symmetry_space_group_name_H-M    P1
_symmetry_Int_Tables_number       1
_symmetry_cell_setting            triclinic
loop_
_symmetry_equiv_pos_as_xyz
'x, y, z'
_cell_length_a     36.607481
_cell_length_b     36.494519
_cell_length_c     11.099416
_cell_angle_alpha  92.297172
_cell_angle_beta   89.903373
_cell_angle_gamma 89.811757
loop_
_atom_site_label
_atom_site_type_symbol
_atom_site_fract_x
_atom_site_fract_y
_atom_site_fract_z
_atom_type_partial_charge
H0 H 0.87215 0.60047 0.24558 0.0
H1 H 0.75922 0.60133 0.13783 0.0
H2 H 0.7939 0.53516 0.42697 0.0
C3 C 0.84406 0.5925 0.25801 0.0
C4 C 0.83665 0.56915 0.35339 0.0
C5 C 0.81701 0.60329 0.17478 0.0
C6 C 0.78101 0.59166 0.19303 0.0
C7 C 0.77254 0.56559 0.27731 0.0
C8 C 0.80046 0.55461 0.35928 0.0
N9 N 0.73661 0.54945 0.27673 0.0
C10 C 0.70806 0.5559 0.19318 0.0
H11 H 0.97897 0.86638 0.33709 0.0
H12 H 1.00071 0.75988 0.18152 0.0
H13 H 0.0439 0.79085 0.5315 0.0
C14 C 0.98834 0.83868 0.34877 0.0
C15 C 1.01003 0.83257 0.44984 0.0
C16 C 0.99101 0.81498 0.24581 0.0
C17 C 1.00102 0.77855 0.25992 0.0
C18 C 1.01979 0.7686 0.36331 0.0
C19 C 1.02604 0.79661 0.45692 0.0
N20 N 0.03587 0.73241 0.36637 0.0
C21 C 0.03449 0.70466 0.2723 0.0
H22 H 0.69764 0.05891 0.25736 0.0
H23 H 0.80898 0.04855 0.15414 0.0
H24 H 0.77614 1.01574 0.50799 0.0
C25 C 0.72491 0.05099 0.28351 0.0
C26 C 0.73166 0.03772 0.39916 0.0
C27 C 0.75289 0.05549 0.19917 0.0
C28 C 0.78823 0.04438 0.22196 0.0
C29 C 0.79717 0.02895 0.33081 0.0
C30 C 0.76884 1.02611 0.42138 0.0
N31 N 0.83447 1.0174 0.34925 0.0
C32 C 0.86319 1.01924 0.2626 0.0
H33 H 0.49358 0.7187 0.32369 0.0
H34 H 0.52096 0.81874 0.1583 0.0
H35 H 0.59932 0.76664 0.38775 0.0
C36 C 0.51253 0.74122 0.3159 0.0
C37 C 0.54657 0.73918 0.37312 0.0
C38 C 0.5027 0.77017 0.2427 0.0
C39 C 0.52831 0.79734 0.21869 0.0
C40 C 0.5636 0.79612 0.26829 0.0
C41 C 0.57249 0.76711 0.34714 0.0
N42 N 0.59049 0.82302 0.23778 0.0
C43 C 0.58462 0.8536 0.16534 0.0
H44 H 0.21978 0.48572 0.23422 0.0
H45 H 0.32891 0.50706 0.34542 0.0
H46 H 0.2962 0.52849 0.98054 0.0
C47 C 0.24698 0.49468 0.21112 0.0
C48 C 0.25281 0.50805 0.09576 0.0
C49 C 0.27249 0.50085 0.30418 0.0
C50 C 0.30894 0.50563 0.27362 0.0
C51 C 0.31861 0.51533 0.15725 0.0
C52 C 0.28991 0.51792 0.06789 0.0
N53 N 0.35583 0.52633 0.13526 0.0
C54 C 0.38487 0.52619 0.22086 0.0
H55 H 0.10971 0.20369 0.17082 0.0
H56 H 0.09842 0.31125 0.34345 0.0
H57 H 0.03143 0.27946 0.0407 0.0
C58 C 0.09815 0.2308 0.17592 0.0
C59 C 0.0712 0.23831 0.09084 0.0
C60 C 0.10648 0.25531 0.27447 0.0
C61 C 0.09129 0.29099 0.2745 0.0
C62 C 0.06394 0.30026 0.19313 0.0
C63 C 0.05347 0.27333 0.10169 0.0
N64 N 0.04533 0.33531 0.20689 0.0
C65 C 0.05144 0.36396 0.2959 0.0
H66 H 0.36618 1.01906 0.14868 0.0
H67 H 0.25739 0.03815 0.27239 0.0
H68 H 0.28717 0.06629 0.90999 0.0
C69 C 0.33904 0.02909 0.12909 0.0
C70 C 0.3312 0.04252 0.01496 0.0
C71 C 0.3125 1.02766 0.21946 0.0
C72 C 0.2772 0.04001 0.20028 0.0
C73 C 0.26735 0.05441 0.09013 0.0
C74 C 0.29464 0.0558 0.99641 0.0
N75 N 0.23034 0.06688 0.07375 0.0
C76 C 0.20215 0.06545 0.16174 0.0
H77 H 0.4612 0.35701 0.10215 0.0
H78 H 0.47735 0.25309 0.2634 0.0
H79 H 0.53122 0.27704 0.92898 0.0
C80 C 0.47212 0.32942 0.09831 0.0
C81 C 0.4952 0.31989 1.00147 0.0
C82 C 0.46681 0.30647 0.19628 0.0
C83 C 0.48197 0.27111 0.18982 0.0
C84 C 0.50536 0.26002 0.09445 0.0
C85 C 0.51235 0.28485 1.00079 0.0
N86 N 0.52358 0.22511 0.09503 0.0
C87 C 0.52268 0.20065 0.19037 0.0
Tb88 Tb 0.07698 0.02887 0.80644 0.0
C89 C 0.94021 0.99646 0.57434 0.0
C90 C 0.95467 0.96356 0.38508 0.0
C91 C 0.9072 0.94123 0.5205 0.0
C92 C 0.96338 0.99027 0.47841 0.0
C93 C 0.90975 0.97379 0.58996 0.0
C94 C 0.93102 0.93511 0.4232 0.0
C95 C 0.88555 1.01915 0.73161 0.0
N96 N 0.94523 1.02727 0.64385 0.0
C97 C 0.91641 0.04067 0.71259 0.0
C98 C 0.88289 0.98472 0.67348 0.0
Tb99 Tb 1.00162 0.05608 0.63086 0.0
N100 N 0.99192 1.01314 0.47116 0.0
C101 C 1.01197 1.0114 0.3679 0.0
C102 C 0.96782 0.96832 0.25878 0.0
C103 C 1.00202 0.98905 0.26807 0.0
H104 H 0.91805 0.06724 0.7591 0.0
H105 H 1.02035 0.99213 0.19258 0.0
H106 H 0.92783 0.90938 0.37314 0.0
H107 H 0.86404 0.02905 0.79168 0.0
H108 H 0.03454 0.02933 0.3547 0.0
H109 H 0.04621 0.09229 0.24919 0.0
H110 H 0.93533 0.94983 0.0624 0.0
H111 H 0.16144 1.02512 0.67497 0.0
H112 H 0.03996 0.04695 0.08699 0.0
H113 H 0.21634 0.06296 0.67147 0.0
H114 H 0.88615 0.92133 0.53802 0.0
H115 H 0.09519 0.1382 0.24487 0.0
H116 H 0.15284 0.15974 0.14842 0.0
H117 H 0.85916 0.96782 0.68844 0.0
H118 H 0.1977 0.15363 0.98646 0.0
N119 N 0.08253 0.06826 0.97581 0.0
C120 C 0.06045 0.06737 0.07602 0.0
C121 C 0.09213 0.11868 0.16995 0.0
C122 C 0.11678 0.1176 0.07409 0.0
C123 C 0.06438 0.09289 0.17227 0.0
C124 C 0.11135 0.09167 0.97774 0.0
H125 H 0.22191 0.11749 0.80881 0.0
N126 N 0.13295 0.0597 0.80569 0.0
C127 C 0.19412 0.07063 0.73192 0.0
C128 C 0.13718 0.08761 0.88829 0.0
C129 C 0.16253 0.04936 0.73438 0.0
C130 C 0.19708 0.10141 0.80894 0.0
C131 C 0.16912 0.1094 0.89156 0.0
O132 O 0.12196 0.99354 0.82475 0.0
O133 O 0.0309 1.00818 0.69552 0.0
O134 O 0.97922 0.04724 0.81114 0.0
O135 O 1.02561 1.01794 0.91185 0.0
O136 O 0.08183 0.98829 0.65712 0.0
O137 O 0.07458 0.98823 0.93522 0.0
O138 O 0.96088 0.09599 0.6045 0.0
O139 O 0.04725 0.07625 0.74491 0.0
O140 O 0.10035 0.04415 0.63401 0.0
O141 O 0.0518 0.06292 0.51892 0.0
O142 O 0.9973 0.10064 0.7688 0.0
O143 O 1.00575 0.08937 0.48153 0.0
C144 C 0.04795 0.98359 0.63151 0.0
C145 C 0.10035 0.93385 0.84591 0.0
C146 C 0.0674 0.87642 0.8497 0.0
C147 C 0.06864 0.91445 0.87037 0.0
C148 C 0.09493 0.85883 0.78118 0.0
C149 C 0.12825 0.91618 0.7781 0.0
C150 C 0.12484 0.87908 0.74229 0.0
C151 C 0.99138 0.03051 0.90609 0.0
C152 C 0.10394 0.97214 0.89255 0.0
C153 C 0.17341 0.13673 0.98244 0.0
C154 C 0.14757 0.14043 0.07447 0.0
C155 C 0.03055 0.10201 0.80539 0.0
C156 C 0.98855 0.14962 0.54001 0.0
C157 C 1.025 0.16004 0.56078 0.0
C158 C 0.03505 0.19719 0.56912 0.0
C159 C 1.00698 0.22382 0.56988 0.0
C160 C 0.9612 0.17648 0.54075 0.0
C161 C 0.97039 0.2134 0.55811 0.0
C162 C 0.08713 0.05632 0.53342 0.0
C163 C 0.97925 0.11068 0.51926 0.0
H164 H 0.04703 0.92761 0.92351 0.0
H165 H 0.09484 0.82929 0.76672 0.0
H166 H 0.15278 0.9308 0.75456 0.0
H167 H 0.1466 0.86545 0.69163 0.0
H168 H 0.04582 0.13903 0.56513 0.0
H169 H 1.01309 0.25281 0.57231 0.0
H170 H 0.93286 0.16891 0.52732 0.0
H171 H 0.94921 0.23416 0.55734 0.0
Tb172 Tb 0.53988 0.07149 0.84075 0.0
C173 C 0.59642 0.97697 0.46801 0.0
C174 C 0.60186 1.01307 0.29264 0.0
C175 C 0.64949 0.96938 0.33681 0.0
C176 C 0.58267 1.00308 0.39658 0.0
C177 C 0.62883 0.95795 0.43504 0.0
C178 C 0.63616 0.99736 0.26621 0.0
C179 C 0.61429 0.91422 0.58389 0.0
N180 N 0.57547 0.96708 0.56145 0.0
C181 C 0.58246 0.93411 0.61227 0.0
C182 C 0.63825 0.92685 0.49734 0.0
Tb183 Tb 0.52549 1.00403 0.61362 0.0
N184 N 0.54827 1.015 0.42076 0.0
C185 C 0.52981 0.03267 0.33205 0.0
C186 C 0.58516 0.03695 0.21509 0.0
C187 C 0.5486 0.04633 0.23361 0.0
H188 H 0.56373 0.92267 0.6757 0.0
H189 H 0.5347 0.06353 0.17132 0.0
H190 H 0.65152 1.00512 0.1877 0.0
H191 H 0.62008 0.88895 0.62807 0.0
H192 H 0.50085 0.03819 0.3401 0.0
H193 H 0.45114 0.99981 0.15135 0.0
H194 H 0.59965 0.0461 0.13705 0.0
H195 H 0.51674 0.15038 0.68819 0.0
H196 H 0.49258 1.003 0.97891 0.0
H197 H 0.47259 0.19885 0.7062 0.0
H198 H 0.67495 0.95585 0.31196 0.0
H199 H 0.41772 0.05516 0.22237 0.0
H200 H 0.39699 0.11795 0.1764 0.0
H201 H 0.66278 0.91134 0.47475 0.0
H202 H 0.40087 0.17108 0.04854 0.0
N203 N 0.49169 0.06105 0.97269 0.0
C204 C 0.48285 1.02818 0.02013 0.0
C205 C 0.43797 0.05701 0.15159 0.0
C206 C 0.44207 0.08896 0.08847 0.0
C207 C 0.45731 1.02592 0.1134 0.0
C208 C 0.46946 0.09023 0.9983 0.0
H209 H 0.42793 0.20068 0.87224 0.0
N210 N 0.49519 0.11805 0.83016 0.0
C211 C 0.47118 0.17631 0.76652 0.0
C212 C 0.47076 0.1194 0.92326 0.0
C213 C 0.49539 0.14683 0.75258 0.0
C214 C 0.44649 0.17757 0.86138 0.0
C215 C 0.44581 0.14895 0.94065 0.0
O216 O 0.54832 0.12674 0.89017 0.0
O217 O 0.56445 0.04308 0.68376 0.0
O218 O 0.55091 0.97964 0.7766 0.0
O219 O 0.55217 1.0214 0.9409 0.0
O220 O 0.59817 0.05386 0.82265 0.0
O221 O 0.57715 0.0856 0.98006 0.0
O222 O 0.50399 0.95678 0.68729 0.0
O223 O 0.49999 0.03278 0.76821 0.0
O224 O 0.54668 0.09561 0.66131 0.0
O225 O 0.51113 0.05798 0.5396 0.0
O226 O 0.46995 1.02768 0.61377 0.0
O227 O 0.49298 0.96919 0.50345 0.0
C228 C 0.59749 0.03862 0.71604 0.0
C229 C 0.60961 0.13862 0.92088 0.0
C230 C 0.67519 0.13545 0.88791 0.0
C231 C 0.64319 0.12168 0.93845 0.0
C232 C 0.67389 0.16734 0.82203 0.0
C233 C 0.60845 0.17086 0.85493 0.0
C234 C 0.64045 0.18502 0.80586 0.0
C235 C 0.55655 0.9875 0.89341 0.0
C236 C 0.5757 0.12034 0.95799 0.0
C237 C 0.42007 0.14865 0.03435 0.0
C238 C 0.41796 0.11854 0.10746 0.0
C239 C 0.46846 0.04005 0.7243 0.0
C240 C 0.44654 0.9402 0.61645 0.0
C241 C 0.41897 0.95975 0.56058 0.0
C242 C 0.38233 0.95528 0.59305 0.0
C243 C 0.37302 0.93037 0.68086 0.0
C244 C 0.43707 0.91516 0.70422 0.0
C245 C 0.40046 0.91033 0.73619 0.0
C246 C 0.52764 0.08973 0.56083 0.0
C247 C 0.48519 0.94794 0.59173 0.0
H248 H 0.64452 0.09745 0.99189 0.0
H249 H 0.6986 0.17866 0.78493 0.0
H250 H 0.58276 0.18465 0.83895 0.0
H251 H 0.63925 0.20966 0.75482 0.0
H252 H 0.4259 0.97866 0.49122 0.0
H253 H 0.34475 0.92646 0.70614 0.0
H254 H 0.45805 0.89989 0.74951 0.0
H255 H 0.39338 0.89118 0.80437 0.0
Tb256 Tb 0.58196 0.51459 0.64346 0.0
C257 C 0.43105 0.50691 0.86556 0.0
C258 C 0.38602 0.52625 0.72231 0.0
C259 C 0.36929 0.48281 0.873 0.0
C260 C 0.42217 0.52651 0.76588 0.0
C261 C 0.40467 0.48516 0.92125 0.0
C262 C 0.35987 0.5036 0.7743 0.0
C263 C 0.44866 0.47361 0.07692 0.0
N264 N 0.46523 0.51069 0.9116 0.0
C265 C 0.4737 0.49599 0.01991 0.0
C266 C 0.41432 0.46742 0.02597 0.0
Tb267 Tb 0.50434 0.54733 0.80841 0.0
N268 N 0.44815 0.54813 0.71799 0.0
C269 C 0.43863 0.57281 0.63382 0.0
C270 C 0.37686 0.5498 0.63099 0.0
C271 C 0.40309 0.57365 0.58791 0.0
H272 H 0.50012 0.50076 0.06042 0.0
H273 H 0.39598 0.59264 0.5192 0.0
H274 H 0.33208 0.5027 0.74085 0.0
H275 H 0.45538 0.46195 0.16186 0.0
H276 H 0.4585 0.59158 0.59986 0.0
H277 H 0.61791 0.44014 0.04693 0.0
H278 H 0.34938 0.55044 0.59615 0.0
H279 H 0.6345 0.57284 0.50574 0.0
H280 H 0.57704 0.4749 0.92074 0.0
H281 H 0.69977 0.58442 0.47235 0.0
H282 H 0.34868 0.46607 0.91404 0.0
H283 H 0.68381 0.43697 1.00234 0.0
H284 H 0.73649 0.4583 0.87928 0.0
H285 H 0.39487 0.4504 0.07146 0.0
H286 H 0.75923 0.49851 0.72315 0.0
N287 N 0.61804 0.48899 0.79319 0.0
C288 C 0.60527 0.47282 0.89471 0.0
C289 C 0.66574 0.45148 0.94332 0.0
C290 C 0.67937 0.47007 0.84565 0.0
C291 C 0.6286 0.45346 0.96915 0.0
C292 C 0.65455 0.48853 0.77157 0.0
H293 H 0.74576 0.54675 0.57431 0.0
N294 N 0.64234 0.53151 0.62803 0.0
C295 C 0.69117 0.56344 0.53237 0.0
C296 C 0.66727 0.51093 0.68511 0.0
C297 C 0.65401 0.55741 0.55241 0.0
C298 C 0.71697 0.54202 0.58919 0.0
C299 C 0.70521 0.51572 0.6684 0.0
O300 O 0.59849 0.50641 0.4627 0.0
O301 O 0.52218 0.5194 0.6441 0.0
O302 O 0.50004 0.48604 0.79882 0.0
O303 O 0.5558 0.46597 0.71929 0.0
O304 O 0.54822 0.53024 0.48793 0.0
O305 O 0.59169 0.46081 0.57886 0.0
O306 O 0.49014 0.57375 0.97446 0.0
O307 O 0.56384 0.54693 0.79804 0.0
O308 O 0.58253 0.57598 0.63029 0.0
O309 O 0.52164 0.58919 0.67861 0.0
O310 O 0.54147 0.54503 0.96328 0.0
O311 O 0.48826 0.60244 0.80784 0.0
C312 C 0.51633 0.52705 0.53474 0.0
C313 C 0.56789 0.45438 0.38255 0.0
C314 C 0.51294 0.41821 0.34408 0.0
C315 C 0.53827 0.43388 0.42467 0.0
C316 C 0.51697 0.42398 0.22022 0.0
C317 C 0.57089 0.46062 0.25919 0.0
C318 C 0.54537 0.44548 0.17859 0.0
C319 C 0.5241 0.45945 0.77203 0.0
C320 C 0.59428 0.47107 0.46797 0.0
C321 C 0.73003 0.49548 0.73554 0.0
C322 C 0.71709 0.47259 0.82421 0.0
C323 C 0.5722 0.54766 0.90875 0.0
C324 C 0.44658 0.62202 0.9579 0.0
C325 C 0.44714 0.66001 0.97582 0.0
C326 C 0.41543 0.67979 1.00922 0.0
C327 C 0.38241 0.66075 0.02099 0.0
C328 C 0.41369 0.60312 0.97291 0.0
C329 C 0.38164 0.62254 1.00266 0.0
C330 C 0.55391 0.59908 0.63369 0.0
C331 C 0.48112 0.60392 0.92271 0.0
H332 H 0.53507 0.42938 0.51982 0.0
H333 H 0.4988 0.41097 0.15477 0.0
H334 H 0.5929 0.47717 0.22551 0.0
H335 H 0.54786 0.44976 0.08328 0.0
H336 H 0.47311 0.67403 0.96899 0.0
H337 H 0.35759 0.67519 0.04737 0.0
H338 H 0.41271 0.57366 0.96322 0.0
H339 H 0.3563 0.60784 0.01399 0.0
Tb340 Tb 0.05624 0.57161 0.67538 0.0
C341 C 0.0579 0.43043 0.93961 0.0
C342 C 0.03923 0.38199 0.79802 0.0
C343 C 0.07928 0.368 0.96425 0.0
C344 C 0.04001 0.41944 0.83499 0.0
C345 C 0.07823 0.40488 1.00455 0.0
C346 C 0.05857 0.35638 0.86433 0.0
C347 C 0.08902 0.4522 0.15736 0.0
N348 N 0.05386 0.4658 0.98096 0.0
C349 C 0.06677 0.47586 0.0939 0.0
C350 C 0.09536 0.41672 0.11137 0.0
Tb351 Tb 1.02073 0.50361 0.85792 0.0
N352 N 1.02055 0.44484 0.7759 0.0
C353 C 0.99796 0.43396 0.68315 0.0
C354 C 1.01765 0.37116 0.69918 0.0
C355 C 0.99662 0.39724 0.64229 0.0
H356 H 0.06119 0.50228 0.1361 0.0
H357 H 0.97918 0.3891 0.56732 0.0
H358 H 0.05677 0.32737 0.84167 0.0
H359 H 0.10048 0.46109 0.24348 0.0
H360 H 0.98098 0.45352 0.63956 0.0
H361 H 0.19018 0.63545 0.75248 0.0
H362 H 1.01634 0.34266 0.66807 0.0
H363 H 0.9712 0.60282 0.76378 0.0
H364 H 0.14993 0.58437 0.70582 0.0
H365 H 0.94401 0.66132 0.8249 0.0
H366 H 0.09451 0.34795 0.01331 0.0
H367 H 0.16515 0.6959 0.81634 0.0
H368 H 0.11125 0.73502 0.86633 0.0
H369 H 0.11185 0.39813 0.16237 0.0
H370 H 0.04491 0.74201 0.88655 0.0
N371 N 0.09999 0.61386 0.74517 0.0
C372 C 0.13739 0.61003 0.73503 0.0
C373 C 0.14673 0.67329 0.79643 0.0
C374 C 0.10898 0.67778 0.80681 0.0
C375 C 0.16094 0.63924 0.76113 0.0
C376 C 0.08592 0.64746 0.77957 0.0
H377 H 0.98282 0.71487 0.87113 0.0
N378 N 1.02628 0.62258 0.75905 0.0
C379 C 0.9733 0.6591 0.81369 0.0
C380 C 0.04818 0.65182 0.7878 0.0
C381 C 0.98917 0.62582 0.77512 0.0
C382 C 0.99529 0.68931 0.83968 0.0
C383 C 0.03312 0.68596 0.82788 0.0
O384 O 0.06698 0.56411 0.48871 0.0
O385 O 0.03683 0.51487 0.67671 0.0
O386 O 0.08186 0.49851 0.87046 0.0
O387 O 0.10237 0.55211 0.78529 0.0
O388 O 0.08583 0.52326 0.59541 0.0
O389 O 0.05581 0.61723 0.56309 0.0
O390 O 0.98121 0.52244 0.98439 0.0
O391 O 0.02884 0.56243 0.84184 0.0
O392 O 0.99918 0.56591 0.61301 0.0
O393 O 0.97817 0.51579 0.71589 0.0
O394 O 0.03651 0.54197 1.00669 0.0
O395 O 0.977 0.46899 0.90123 0.0
C396 C 0.06222 0.49816 0.61766 0.0
C397 C 0.10835 0.61092 0.44626 0.0
C398 C 0.17425 0.59881 0.46131 0.0
C399 C 0.13773 0.58835 0.47532 0.0
C400 C 0.18049 0.63356 0.41302 0.0
C401 C 0.11536 0.64627 0.40923 0.0
C402 C 0.15137 0.65735 0.39114 0.0
C403 C 0.10857 0.52179 0.84423 0.0
C404 C 0.07119 0.59891 0.47552 0.0
C405 C 0.0561 0.71572 0.85588 0.0
C406 C 0.09387 0.7117 0.84458 0.0
C407 C 0.03919 0.57153 0.94916 0.0
C408 C 0.92317 0.5037 0.91241 0.0
C409 C 0.91368 0.54005 0.88892 0.0
C410 C 0.879 0.54918 0.84349 0.0
C411 C 0.85546 0.51978 0.80987 0.0
C412 C 0.89878 0.47544 0.88152 0.0
C413 C 0.86542 0.48347 0.82844 0.0
C414 C 0.9729 0.54229 0.6374 0.0
C415 C 0.95971 0.49502 0.95963 0.0
H416 H 0.13158 0.56275 0.51379 0.0
H417 H 0.20735 0.64268 0.38855 0.0
H418 H 0.09312 0.66519 0.39517 0.0
H419 H 0.15675 0.68431 0.3581 0.0
H420 H 0.93344 0.56119 0.9096 0.0
H421 H 0.82855 0.52408 0.77396 0.0
H422 H 0.90583 0.44712 0.89633 0.0
H423 H 0.84678 0.46148 0.80369 0.0
C424 C 0.16724 0.09146 0.34278 0.0
C425 C 0.17208 0.06374 0.25156 0.0
C426 C 0.13911 0.08956 0.43085 0.0
C427 C 0.11401 0.06022 0.43078 0.0
H428 H 0.18563 0.11466 0.34715 0.0
H429 H 0.1374 0.111 0.50098 0.0
S430 S 0.11645 0.9792 0.21707 0.0
N431 N 0.14989 1.00539 0.16995 0.0
N432 N 0.09834 1.00134 0.33546 0.0
C433 C 0.11904 0.03214 0.34095 0.0
C434 C 0.14753 0.03411 0.25133 0.0
C435 C 0.49612 0.14753 0.29633 0.0
C436 C 0.52384 0.1738 0.28607 0.0
C437 C 0.49752 0.12047 0.38415 0.0
C438 C 0.52667 0.11873 0.46705 0.0
H439 H 0.47312 0.14804 0.23601 0.0
H440 H 0.47529 0.10104 0.38789 0.0
S441 S 0.60566 0.18267 0.481 0.0
N442 N 0.58099 0.19695 0.36744 0.0
N443 N 0.58351 0.14737 0.53387 0.0
C444 C 0.55422 0.14563 0.45894 0.0
C445 C 0.55288 0.17276 0.36838 0.0
C446 C 0.44607 0.55105 0.28952 0.0
C447 C 0.41707 0.52619 0.30342 0.0
C448 C 0.47747 0.55095 0.36475 0.0
C449 C 0.48145 0.52644 0.4597 0.0
H450 H 0.44469 0.57069 0.21902 0.0
H451 H 0.49882 0.5707 0.34906 0.0
S452 S 0.4147 0.45371 0.52841 0.0
N453 N 0.3955 0.47494 0.41598 0.0
N454 N 0.4541 0.47448 0.55517 0.0
C455 C 0.45309 0.50066 0.4719 0.0
C456 C 0.42109 0.50075 0.39505 0.0
C457 C 0.08057 0.40124 0.46976 0.0
C458 C 0.05378 0.39739 0.37844 0.0
C459 C 0.08312 0.43354 0.54626 0.0
C460 C 0.05874 0.46351 0.53666 0.0
H461 H 0.09985 0.37915 0.48221 0.0
H462 H 0.1042 0.43488 0.61462 0.0
S463 S 0.98521 0.46864 0.30755 0.0
N464 N 1.00338 0.42759 0.28074 0.0
N465 N 1.0083 0.48744 0.42177 0.0
C466 C 0.03247 0.46023 0.44377 0.0
C467 C 0.02983 0.42745 0.36637 0.0
C468 C 0.9051 0.0513 0.11343 0.0
C469 C 0.89475 1.01996 0.17761 0.0
C470 C 0.93602 0.05371 0.03205 0.0
C471 C 0.96406 1.0267 1.00905 0.0
H472 H 0.88767 0.07529 0.12307 0.0
H473 H 0.93791 0.07884 0.98389 0.0
S474 S 0.95837 0.91115 0.15507 0.0
N475 N 0.91204 0.94724 0.20717 0.0
N476 N 0.98498 0.95589 0.06542 0.0
C477 C 0.96022 0.99532 0.07457 0.0
C478 C 0.91765 0.99018 0.16027 0.0
C479 C 0.59833 0.89541 0.99315 0.0
C480 C 0.57902 0.88769 0.09934 0.0
C481 C 0.59209 0.92827 0.93098 0.0
C482 C 0.56665 0.95537 0.9723 0.0
H483 H 0.6181 0.87577 0.9568 0.0
H484 H 0.60746 0.93244 0.84948 0.0
S485 S 0.50884 0.94676 0.24609 0.0
N486 N 0.53334 0.90889 0.24171 0.0
N487 N 0.52281 0.97042 0.1315 0.0
C488 C 0.54831 0.94783 0.08117 0.0
C489 C 0.55411 0.91417 0.14242 0.0
C490 C 0.67538 0.55976 0.99059 0.0
C491 C 0.67466 0.55934 0.11785 0.0
C492 C 0.6424 0.56001 0.92199 0.0
C493 C 0.60786 0.55534 0.9759 0.0
H494 H 0.70134 0.56029 0.94386 0.0
H495 H 0.64392 0.56398 0.82705 0.0
S496 S 0.59094 0.57272 0.30164 0.0
N497 N 0.63583 0.56973 0.29109 0.0
N498 N 0.57534 0.56469 0.16459 0.0
C499 C 0.60708 0.55988 0.10227 0.0
C500 C 0.64009 0.56247 0.17178 0.0
C501 C 1.00351 0.65444 0.14506 0.0
C502 C 0.03549 0.67356 0.18057 0.0
C503 C 1.00471 0.62274 0.06588 0.0
C504 C 0.03791 0.60854 0.01752 0.0
H505 H 0.97731 0.66354 0.18074 0.0
H506 H 0.97939 0.60865 0.04458 0.0
S507 S 0.12961 0.64724 0.08636 0.0
N508 N 0.10129 0.67591 0.15819 0.0
N509 N 0.10377 0.61535 0.02044 0.0
C510 C 0.06999 0.62708 0.05485 0.0
C511 C 0.06868 0.65991 0.13203 0.0
C512 C 0.12265 0.20229 0.39829 0.0
C513 C 0.12225 0.24069 0.38955 0.0
C514 C 0.09601 0.18597 0.46926 0.0
C515 C 0.07386 0.20792 0.54793 0.0
H516 H 0.13715 0.18515 0.33274 0.0
H517 H 0.09051 0.15725 0.45124 0.0
S518 S 0.10111 0.30123 0.65497 0.0
N519 N 0.12503 0.29345 0.53042 0.0
N520 N 0.07579 0.26437 0.67331 0.0
C521 C 0.08686 0.24347 0.57614 0.0
C522 C 0.11305 0.2593 0.49877 0.0
C523 C 0.34336 0.03101 0.41757 0.0
C524 C 0.32178 1.01131 0.33364 0.0
C525 C 0.35935 1.01331 0.51348 0.0
C526 C 0.35468 0.97539 0.52611 0.0
H527 H 0.34979 0.05954 0.40445 0.0
H528 H 0.37819 1.02855 0.57135 0.0
S529 S 0.29663 0.9133 0.33736 0.0
N530 N 0.29277 0.95359 0.27575 0.0
N531 N 0.3238 0.91981 0.45494 0.0
C532 C 0.33038 0.95632 0.44906 0.0
C533 C 0.31381 0.97445 0.35215 0.0
C534 C 0.43381 0.35591 0.30869 0.0
C535 C 0.45497 0.32368 0.31484 0.0
C536 C 0.45103 0.38973 0.33306 0.0
C537 C 0.48628 0.39072 0.38383 0.0
H538 H 0.40975 0.35582 0.25193 0.0
H539 H 0.43924 0.41412 0.29648 0.0
S540 S 0.53246 0.31263 0.52378 0.0
N541 N 0.49826 0.29407 0.44625 0.0
N542 N 0.52954 0.35722 0.50527 0.0
C543 C 0.49904 0.35867 0.43606 0.0
C544 C 0.48216 0.3246 0.40421 0.0
C545 C 0.22422 0.50727 0.45958 0.0
C546 C 0.25837 0.51852 0.41829 0.0
C547 C 0.19715 0.53334 0.48688 0.0
C548 C 0.20445 0.57157 0.48384 0.0
H549 H 0.2161 0.47883 0.44702 0.0
H550 H 0.17015 0.52224 0.4962 0.0
S551 S 0.29757 0.61138 0.47781 0.0
N552 N 0.30309 0.56791 0.43512 0.0
N553 N 0.25367 0.61617 0.50835 0.0
C554 C 0.24156 0.58153 0.4837 0.0
C555 C 0.26857 0.55506 0.44777 0.0
C556 C 0.03745 0.85319 0.15547 0.0
C557 C 1.00649 0.83108 0.13713 0.0
C558 C 0.05767 0.86525 0.06071 0.0
C559 C 0.04759 0.85668 0.94146 0.0
H560 H 0.04714 0.86063 0.24448 0.0
H561 H 0.08117 0.88242 0.08129 0.0
S562 S 0.97212 0.79579 0.84081 0.0
N563 N 0.96882 0.79757 0.98967 0.0
N564 N 1.00727 0.82183 0.80692 0.0
C565 C 1.01784 0.83332 0.91913 0.0
C566 C 0.9971 0.82026 0.01797 0.0
C567 C 0.72916 0.05866 0.99097 0.0
C568 C 0.74555 0.07608 0.09163 0.0
C569 C 0.71194 0.07949 0.90463 0.0
C570 C 0.70961 0.11792 0.92077 0.0
H571 H 0.72671 0.02906 0.98498 0.0
H572 H 0.69567 0.06539 0.83587 0.0
S573 S 0.75631 0.17573 0.15396 0.0
N574 N 0.76551 0.13317 0.18962 0.0
N575 N 0.7317 0.17248 0.02939 0.0
C576 C 0.73083 0.13546 1.01054 0.0
C577 C 0.74879 0.11432 0.09722 0.0
C578 C 0.46871 0.76401 0.05006 0.0
C579 C 0.46755 0.76716 0.17658 0.0
C580 C 0.44454 0.74049 0.9874 0.0
C581 C 0.41992 0.71867 0.05081 0.0
H582 H 0.49162 0.77489 1.00116 0.0
H583 H 0.4497 0.73443 0.89248 0.0
S584 S 0.3957 0.73109 0.3741 0.0
N585 N 0.43084 0.7586 0.35567 0.0
N586 N 0.38724 0.71201 0.23964 0.0
C587 C 0.41292 0.72857 0.17224 0.0
C588 C 0.4366 0.75357 0.23511 0.0
C589 C 0.86489 0.62826 0.03831 0.0
C590 C 0.8279 0.61933 0.05652 0.0
C591 C 0.88358 0.61267 0.93845 0.0
C592 C 0.86512 0.58813 0.85769 0.0
H593 H 0.88071 0.6418 0.10924 0.0
H594 H 0.91293 0.61522 0.9378 0.0
S595 S 0.76641 0.59861 0.79602 0.0
N596 N 0.77176 0.6145 0.93631 0.0
N597 N 0.80751 0.5861 0.74798 0.0
C598 C 0.82754 0.595 0.84775 0.0
C599 C 0.80836 0.61027 0.94954 0.0
C600 C 0.08082 0.19216 0.91031 0.0
C601 C 0.05895 0.20607 1.00792 0.0
C602 C 0.073 0.15815 0.84672 0.0
C603 C 0.04362 0.13555 0.88028 0.0
H604 H 0.10452 0.20754 0.88352 0.0
H605 H 0.08999 0.14966 0.77061 0.0
S606 S 0.97977 0.15729 0.13456 0.0
N607 N 1.00769 0.19276 0.13675 0.0
N608 N 0.99315 0.13013 0.02026 0.0
C609 C 1.02191 0.14923 0.97787 0.0
C610 C 0.02964 0.18371 0.04123 0.0
C611 C 0.38652 1.01035 0.91679 0.0
C612 C 0.36243 0.04098 0.92211 0.0
C613 C 0.41993 1.01022 0.85232 0.0
C614 C 0.43188 0.04086 0.79017 0.0
H615 H 0.37999 0.98621 0.9661 0.0
H616 H 0.43711 0.98605 0.85404 0.0
S617 S 0.37499 0.12346 0.74112 0.0
N618 N 0.35057 0.10013 0.83707 0.0
N619 N 0.41238 0.09905 0.71282 0.0
C620 C 0.40634 0.06986 0.7821 0.0
C621 C 0.37219 0.07023 0.84897 0.0
C622 C 0.53891 0.36334 0.8991 0.0
C623 C 0.50322 0.34983 0.91397 0.0
C624 C 0.54544 0.39754 0.84647 0.0
C625 C 0.51662 0.42063 0.80993 0.0
H626 H 0.56187 0.34845 0.93464 0.0
H627 H 0.5734 0.40662 0.84008 0.0
S628 S 0.41876 0.39441 0.80491 0.0
N629 N 0.43922 0.35965 0.86781 0.0
N630 N 0.45137 0.42392 0.77544 0.0
C631 C 0.48114 0.40608 0.81625 0.0
C632 C 0.47456 0.37089 0.86636 0.0
C633 C 0.21314 0.50387 0.89809 0.0
C634 C 0.21795 0.5153 0.02091 0.0
C635 C 0.17818 0.50569 0.83943 0.0
C636 C 0.14607 0.51767 0.90193 0.0
H637 H 0.23622 0.49265 0.84771 0.0
H638 H 0.17618 0.49699 0.74526 0.0
S639 S 0.14306 0.55376 0.21579 0.0
N640 N 0.1866 0.544 0.19418 0.0
N641 N 0.12224 0.54241 0.08915 0.0
C642 C 0.1508 0.52966 0.0217 0.0
C643 C 0.18607 0.52982 0.07927 0.0
C644 C 0.05349 0.88614 0.48365 0.0
C645 C 1.02203 0.8674 0.52098 0.0
C646 C 0.05996 0.92353 0.51622 0.0
C647 C 0.03615 0.94471 0.59208 0.0
H648 H 0.07297 0.87213 0.42454 0.0
H649 H 0.08441 0.93604 0.48156 0.0
S650 S 0.95518 0.9063 0.74432 0.0
N651 N 0.96871 0.87245 0.65105 0.0
N652 N 0.98372 0.94062 0.72506 0.0
C653 C 1.00627 0.92548 0.63954 0.0
C654 C 0.9986 0.88767 0.60108 0.0
C655 C 0.66963 0.06339 0.47773 0.0
C656 C 0.69904 0.03796 0.48959 0.0
C657 C 0.63695 0.06231 0.5464 0.0
C658 C 0.6316 0.03689 0.63646 0.0
H659 H 0.67145 0.08502 0.41432 0.0
H660 H 0.61577 0.08215 0.5297 0.0
S661 S 0.69993 0.96706 0.72191 0.0
N662 N 0.71977 0.98732 0.60855 0.0
N663 N 0.6601 0.98776 0.74336 0.0
C664 C 0.66126 1.01289 0.65654 0.0
C665 C 0.69428 1.0129 0.58288 0.0
C666 C 0.52265 0.69275 0.51988 0.0
C667 C 0.5526 0.70668 0.45481 0.0
C668 C 0.524 0.65901 0.57757 0.0
C669 C 0.55585 0.63707 0.57916 0.0
H670 H 0.497 0.70761 0.52384 0.0
H671 H 0.49916 0.64996 0.61997 0.0
S672 S 0.64522 0.66477 0.45003 0.0
N673 N 0.61693 0.69736 0.40955 0.0
N674 N 0.62063 0.63662 0.52971 0.0
C675 C 0.58725 0.65252 0.52581 0.0
C676 C 0.58545 0.68649 0.46194 0.0
C677 C 0.89303 0.58899 0.47438 0.0
C678 C 0.86831 0.5607 0.43972 0.0
C679 C 0.92581 0.58246 0.53753 0.0
C680 C 0.93613 0.54725 0.57397 0.0
H681 H 0.88745 0.61688 0.44989 0.0
H682 H 0.94344 0.60567 0.55737 0.0
S683 S 0.88134 0.46291 0.51279 0.0
N684 N 0.85692 0.49535 0.45091 0.0
N685 N 0.91752 0.48342 0.57304 0.0
C686 C 0.91111 0.51869 0.54499 0.0
C687 C 0.87765 0.52529 0.47808 0.0
loop_
_geom_bond_atom_site_label_1
_geom_bond_atom_site_label_2
_geom_bond_distance
_geom_bond_site_symmetry_2
_ccdc_geom_bond_type
H0 C3 0.929 . S
H1 C6 0.929 . S
H2 C8 0.930 . S
C3 H0 0.929 . S
C3 C4 1.398 . S
C3 C5 1.396 . S
C4 C3 1.398 . S
C4 C8 1.407 . S
C5 C3 1.396 . S
C5 C6 1.394 . S
C6 H1 0.929 . S
C6 C5 1.394 . S
C6 C7 1.382 . S
C7 C6 1.382 . S
C7 C8 1.392 . S
C7 N9 1.420 . S
C8 H2 0.930 . S
C8 C4 1.407 . S
C8 C7 1.392 . S
N9 C7 1.420 . S
N9 C10 1.244 . S
C10 N9 1.244 . S
H11 C14 0.929 . S
H12 C17 0.929 . S
H13 C19 0.930 . S
C14 H11 0.929 . S
C14 C15 1.398 . S
C14 C16 1.396 . S
C15 C14 1.398 . S
C15 C19 1.407 . S
C16 C14 1.396 . S
C16 C17 1.394 . S
C17 H12 0.929 . S
C17 C16 1.394 . S
C17 C18 1.382 . S
C18 C17 1.382 . S
C18 C19 1.392 . S
C18 N20 1.420 . S
C19 H13 0.930 . S
C19 C15 1.407 . S
C19 C18 1.392 . S
N20 C18 1.420 . S
N20 C21 1.244 . S
C21 N20 1.244 . S
H22 C25 0.929 . S
H23 C28 0.929 . S
H24 C30 0.930 . S
C25 H22 0.929 . S
C25 C26 1.398 . S
C25 C27 1.396 . S
C26 C25 1.398 . S
C26 C30 1.407 . S
C27 C25 1.396 . S
C27 C28 1.394 . S
C28 H23 0.929 . S
C28 C27 1.394 . S
C28 C29 1.382 . S
C29 C28 1.382 . S
C29 C30 1.392 . S
C29 N31 1.420 . S
C30 H24 0.930 . S
C30 C26 1.407 . S
C30 C29 1.392 . S
N31 C29 1.420 . S
N31 C32 1.244 . S
C32 N31 1.244 . S
H33 C36 0.929 . S
H34 C39 0.929 . S
H35 C41 0.930 . S
C36 H33 0.929 . S
C36 C37 1.398 . S
C36 C38 1.396 . S
C37 C36 1.398 . S
C37 C41 1.407 . S
C38 C36 1.396 . S
C38 C39 1.394 . S
C39 H34 0.929 . S
C39 C38 1.394 . S
C39 C40 1.382 . S
C40 C39 1.382 . S
C40 C41 1.392 . S
C40 N42 1.420 . S
C41 H35 0.930 . S
C41 C37 1.407 . S
C41 C40 1.392 . S
N42 C40 1.420 . S
N42 C43 1.244 . S
C43 N42 1.244 . S
H44 C47 0.929 . S
H45 C50 0.929 . S
H46 C52 0.930 . S
C47 H44 0.929 . S
C47 C48 1.398 . S
C47 C49 1.396 1_556 S
C48 C47 1.398 . S
C48 C52 1.407 . S
C49 C47 1.396 1_554 S
C49 C50 1.394 . S
C50 H45 0.929 . S
C50 C49 1.394 . S
C50 C51 1.382 . S
C51 C50 1.382 . S
C51 C52 1.392 1_554 S
C51 N53 1.420 . S
C52 H46 0.930 . S
C52 C48 1.407 . S
C52 C51 1.392 1_556 S
N53 C51 1.420 . S
N53 C54 1.244 . S
C54 N53 1.244 . S
H55 C58 0.929 . S
H56 C61 0.929 . S
H57 C63 0.930 . S
C58 H55 0.929 . S
C58 C59 1.398 . S
C58 C60 1.396 1_556 S
C59 C58 1.398 . S
C59 C63 1.407 . S
C60 C58 1.396 1_554 S
C60 C61 1.394 . S
C61 H56 0.929 . S
C61 C60 1.394 . S
C61 C62 1.382 . S
C62 C61 1.382 . S
C62 C63 1.392 1_554 S
C62 N64 1.420 . S
C63 H57 0.930 . S
C63 C59 1.407 . S
C63 C62 1.392 1_556 S
N64 C62 1.420 . S
N64 C65 1.244 . S
C65 N64 1.244 . S
H66 C69 0.929 . S
H67 C72 0.929 . S
H68 C74 0.930 . S
C69 H66 0.929 . S
C69 C70 1.398 . S
C69 C71 1.396 1_556 S
C70 C69 1.398 . S
C70 C74 1.407 . S
C71 C69 1.396 1_554 S
C71 C72 1.394 . S
C72 H67 0.929 . S
C72 C71 1.394 . S
C72 C73 1.382 . S
C73 C72 1.382 . S
C73 C74 1.392 1_554 S
C73 N75 1.420 . S
C74 H68 0.930 . S
C74 C70 1.407 . S
C74 C73 1.392 1_556 S
N75 C73 1.420 . S
N75 C76 1.244 . S
C76 N75 1.244 . S
H77 C80 0.929 . S
H78 C83 0.929 . S
H79 C85 0.930 . S
C80 H77 0.929 . S
C80 C81 1.398 . S
C80 C82 1.396 1_556 S
C81 C80 1.398 . S
C81 C85 1.407 . S
C82 C80 1.396 1_554 S
C82 C83 1.394 . S
C83 H78 0.929 . S
C83 C82 1.394 . S
C83 C84 1.382 . S
C84 C83 1.382 . S
C84 C85 1.392 1_554 S
C84 N86 1.420 . S
C85 H79 0.930 . S
C85 C81 1.407 . S
C85 C84 1.392 1_556 S
N86 C84 1.420 . S
N86 C87 1.244 . S
C87 N86 1.244 . S
Tb88 N119 2.660 1_566 S
Tb88 N126 2.600 1_565 S
Tb88 O132 2.546 . S
Tb88 O133 2.610 1_455 S
Tb88 O135 2.320 1_455 S
Tb88 O136 2.552 . S
Tb88 O137 2.413 1_556 S
Tb88 O139 2.362 1_565 S
Tb88 O140 2.421 . S
Tb88 C152 2.833 . S
C89 C92 1.432 . S
C89 C93 1.414 . S
C89 N96 1.359 1_565 S
C90 C92 1.417 . S
C90 C94 1.432 . S
C90 C102 1.410 . S
C91 C93 1.444 . S
C91 C94 1.317 . S
C91 H114 0.929 . S
C92 C89 1.432 . S
C92 C90 1.417 . S
C92 N100 1.360 . S
C93 C89 1.414 . S
C93 C91 1.444 . S
C93 C98 1.385 1_565 S
C94 C90 1.432 . S
C94 C91 1.317 . S
C94 H106 0.930 . S
C95 C97 1.392 . S
C95 C98 1.370 . S
C95 H107 0.931 . S
N96 C89 1.359 1_545 S
N96 C97 1.327 . S
N96 Tb99 2.600 . S
C97 C95 1.392 . S
C97 N96 1.327 . S
C97 H104 0.930 . S
C98 C93 1.385 1_545 S
C98 C95 1.370 . S
C98 H117 0.930 . S
Tb99 N96 2.600 . S
Tb99 N100 2.660 1_545 S
Tb99 O133 2.362 1_545 S
Tb99 O134 2.421 . S
Tb99 O138 2.546 . S
Tb99 O139 2.610 1_655 S
Tb99 O141 2.320 1_655 S
Tb99 O142 2.552 1_655 S
Tb99 O143 2.413 . S
Tb99 C163 2.833 . S
N100 C92 1.360 . S
N100 Tb99 2.660 1_565 S
N100 C101 1.305 1_655 S
C101 N100 1.305 1_455 S
C101 C103 1.407 . S
C101 H108 0.930 . S
C102 C90 1.410 . S
C102 C103 1.345 1_655 S
C102 H110 0.930 . S
C103 C101 1.407 . S
C103 C102 1.345 1_455 S
C103 H105 0.930 . S
H104 C97 0.930 . S
H105 C103 0.930 . S
H106 C94 0.930 . S
H107 C95 0.931 . S
H108 C101 0.930 . S
H109 C123 0.930 1_655 S
H110 C102 0.930 . S
H111 C129 0.930 . S
H112 C120 0.930 1_655 S
H113 C127 0.931 . S
H114 C91 0.929 . S
H115 C121 0.930 . S
H116 C154 0.930 . S
H117 C98 0.930 . S
H118 C153 0.929 . S
N119 Tb88 2.660 1_544 S
N119 C120 1.305 . S
N119 C124 1.360 . S
C120 H112 0.930 1_455 S
C120 N119 1.305 . S
C120 C123 1.407 . S
C121 H115 0.930 . S
C121 C122 1.410 . S
C121 C123 1.345 . S
C122 C121 1.410 . S
C122 C124 1.417 . S
C122 C154 1.432 . S
C123 H109 0.930 1_455 S
C123 C120 1.407 . S
C123 C121 1.345 . S
C124 N119 1.360 . S
C124 C122 1.417 . S
C124 C128 1.432 . S
H125 C130 0.930 . S
N126 Tb88 2.600 1_545 S
N126 C128 1.359 1_556 S
N126 C129 1.327 1_545 S
C127 H113 0.931 . S
C127 C129 1.392 . S
C127 C130 1.370 1_566 S
C128 C124 1.432 . S
C128 N126 1.359 1_554 S
C128 C131 1.414 . S
C129 H111 0.930 . S
C129 N126 1.327 1_565 S
C129 C127 1.392 . S
C130 H125 0.930 . S
C130 C127 1.370 1_544 S
C130 C131 1.385 . S
C131 C128 1.414 . S
C131 C130 1.385 . S
C131 C153 1.444 . S
O132 Tb88 2.546 . S
O132 C152 1.251 . S
O133 Tb88 2.610 1_655 S
O133 Tb99 2.362 1_565 S
O133 C144 1.283 . S
O134 Tb99 2.421 . S
O134 C151 1.262 . S
O135 Tb88 2.320 1_655 S
O135 C151 1.260 1_565 S
O136 Tb88 2.552 . S
O136 C144 1.243 1_455 S
O137 Tb88 2.413 1_554 S
O137 C152 1.256 1_554 S
O138 Tb99 2.546 . S
O138 C163 1.251 . S
O139 Tb88 2.362 1_545 S
O139 Tb99 2.610 1_455 S
O139 C155 1.283 . S
O140 Tb88 2.421 . S
O140 C162 1.262 1_565 S
O141 Tb99 2.320 1_455 S
O141 C162 1.260 . S
O142 Tb99 2.552 1_455 S
O142 C155 1.243 . S
O143 Tb99 2.413 . S
O143 C163 1.256 . S
C144 O133 1.283 . S
C144 O136 1.243 1_655 S
C145 C147 1.382 . S
C145 C149 1.393 . S
C145 C152 1.500 1_554 S
C146 C147 1.400 . S
C146 C148 1.384 . S
C147 C145 1.382 . S
C147 C146 1.400 . S
C147 H164 0.930 . S
C148 C146 1.384 . S
C148 C150 1.392 . S
C148 H165 0.931 . S
C149 C145 1.393 . S
C149 C150 1.401 . S
C149 H166 0.930 . S
C150 C148 1.392 . S
C150 C149 1.401 . S
C150 H167 0.930 . S
C151 O134 1.262 . S
C151 O135 1.260 1_545 S
C152 Tb88 2.833 . S
C152 O132 1.251 . S
C152 O137 1.256 1_556 S
C152 C145 1.500 1_556 S
C153 H118 0.929 . S
C153 C131 1.444 . S
C153 C154 1.317 . S
C154 H116 0.930 . S
C154 C122 1.432 . S
C154 C153 1.317 . S
C155 O139 1.283 . S
C155 O142 1.243 . S
C156 C157 1.382 . S
C156 C160 1.393 . S
C156 C163 1.500 . S
C157 C156 1.382 . S
C157 C158 1.400 . S
C157 H168 0.930 1_655 S
C158 C157 1.400 . S
C158 C159 1.384 . S
C159 C158 1.384 . S
C159 C161 1.392 . S
C159 H169 0.931 . S
C160 C156 1.393 . S
C160 C161 1.401 . S
C160 H170 0.930 . S
C161 C159 1.392 . S
C161 C160 1.401 . S
C161 H171 0.930 . S
C162 O140 1.262 1_545 S
C162 O141 1.260 . S
C163 Tb99 2.833 . S
C163 O138 1.251 . S
C163 O143 1.256 . S
C163 C156 1.500 . S
H164 C147 0.930 . S
H165 C148 0.931 . S
H166 C149 0.930 . S
H167 C150 0.930 . S
H168 C157 0.930 1_455 S
H169 C159 0.931 . S
H170 C160 0.930 . S
H171 C161 0.930 . S
Tb172 N203 2.660 1_556 S
Tb172 N210 2.600 . S
Tb172 O216 2.546 . S
Tb172 O217 2.610 1_545 S
Tb172 O219 2.320 1_545 S
Tb172 O220 2.552 . S
Tb172 O221 2.413 1_556 S
Tb172 O223 2.362 . S
Tb172 O224 2.421 . S
Tb172 C236 2.833 . S
C173 C176 1.432 . S
C173 C177 1.414 . S
C173 N180 1.359 . S
C174 C176 1.417 . S
C174 C178 1.432 . S
C174 C186 1.410 . S
C175 C177 1.444 . S
C175 C178 1.317 . S
C175 H198 0.929 . S
C176 C173 1.432 . S
C176 C174 1.417 . S
C176 N184 1.360 . S
C177 C173 1.414 . S
C177 C175 1.444 . S
C177 C182 1.385 . S
C178 C174 1.432 . S
C178 C175 1.317 . S
C178 H190 0.930 . S
C179 C181 1.392 . S
C179 C182 1.370 . S
C179 H191 0.931 . S
N180 C173 1.359 . S
N180 C181 1.327 . S
N180 Tb183 2.600 . S
C181 C179 1.392 . S
C181 N180 1.327 . S
C181 H188 0.930 . S
C182 C177 1.385 . S
C182 C179 1.370 . S
C182 H201 0.930 . S
Tb183 N180 2.600 . S
Tb183 N184 2.660 . S
Tb183 O217 2.362 . S
Tb183 O218 2.421 . S
Tb183 O222 2.546 . S
Tb183 O223 2.610 1_565 S
Tb183 O225 2.320 1_565 S
Tb183 O226 2.552 1_565 S
Tb183 O227 2.413 . S
Tb183 C247 2.833 . S
N184 C176 1.360 . S
N184 Tb183 2.660 . S
N184 C185 1.305 1_565 S
C185 N184 1.305 1_545 S
C185 C187 1.407 . S
C185 H192 0.930 . S
C186 C174 1.410 . S
C186 C187 1.345 1_565 S
C186 H194 0.930 . S
C187 C185 1.407 . S
C187 C186 1.345 1_545 S
C187 H189 0.930 . S
H188 C181 0.930 . S
H189 C187 0.930 . S
H190 C178 0.930 . S
H191 C179 0.931 . S
H192 C185 0.930 . S
H193 C207 0.930 1_565 S
H194 C186 0.930 . S
H195 C213 0.930 . S
H196 C204 0.930 1_565 S
H197 C211 0.931 . S
H198 C175 0.929 . S
H199 C205 0.930 . S
H200 C238 0.930 . S
H201 C182 0.930 . S
H202 C237 0.929 . S
N203 Tb172 2.660 1_554 S
N203 C204 1.305 . S
N203 C208 1.360 . S
C204 H196 0.930 1_545 S
C204 N203 1.305 . S
C204 C207 1.407 . S
C205 H199 0.930 . S
C205 C206 1.410 . S
C205 C207 1.345 . S
C206 C205 1.410 . S
C206 C208 1.417 . S
C206 C238 1.432 . S
C207 H193 0.930 1_545 S
C207 C204 1.407 . S
C207 C205 1.345 . S
C208 N203 1.360 . S
C208 C206 1.417 . S
C208 C212 1.432 . S
H209 C214 0.930 . S
N210 Tb172 2.600 . S
N210 C212 1.359 1_556 S
N210 C213 1.327 . S
C211 H197 0.931 . S
C211 C213 1.392 . S
C211 C214 1.370 1_556 S
C212 C208 1.432 . S
C212 N210 1.359 1_554 S
C212 C215 1.414 . S
C213 H195 0.930 . S
C213 N210 1.327 . S
C213 C211 1.392 . S
C214 H209 0.930 . S
C214 C211 1.370 1_554 S
C214 C215 1.385 . S
C215 C212 1.414 . S
C215 C214 1.385 . S
C215 C237 1.444 . S
O216 Tb172 2.546 . S
O216 C236 1.251 . S
O217 Tb172 2.610 1_565 S
O217 Tb183 2.362 . S
O217 C228 1.283 . S
O218 Tb183 2.421 . S
O218 C235 1.262 . S
O219 Tb172 2.320 1_565 S
O219 C235 1.260 . S
O220 Tb172 2.552 . S
O220 C228 1.243 1_545 S
O221 Tb172 2.413 1_554 S
O221 C236 1.256 1_554 S
O222 Tb183 2.546 . S
O222 C247 1.251 . S
O223 Tb172 2.362 . S
O223 Tb183 2.610 1_545 S
O223 C239 1.283 . S
O224 Tb172 2.421 . S
O224 C246 1.262 . S
O225 Tb183 2.320 1_545 S
O225 C246 1.260 . S
O226 Tb183 2.552 1_545 S
O226 C239 1.243 . S
O227 Tb183 2.413 . S
O227 C247 1.256 . S
C228 O217 1.283 . S
C228 O220 1.243 1_565 S
C229 C231 1.382 . S
C229 C233 1.393 . S
C229 C236 1.500 1_554 S
C230 C231 1.400 . S
C230 C232 1.384 . S
C231 C229 1.382 . S
C231 C230 1.400 . S
C231 H248 0.930 . S
C232 C230 1.384 . S
C232 C234 1.392 . S
C232 H249 0.931 . S
C233 C229 1.393 . S
C233 C234 1.401 . S
C233 H250 0.930 . S
C234 C232 1.392 . S
C234 C233 1.401 . S
C234 H251 0.930 . S
C235 O218 1.262 . S
C235 O219 1.260 . S
C236 Tb172 2.833 . S
C236 O216 1.251 . S
C236 O221 1.256 1_556 S
C236 C229 1.500 1_556 S
C237 H202 0.929 . S
C237 C215 1.444 . S
C237 C238 1.317 . S
C238 H200 0.930 . S
C238 C206 1.432 . S
C238 C237 1.317 . S
C239 O223 1.283 . S
C239 O226 1.243 . S
C240 C241 1.382 . S
C240 C244 1.393 . S
C240 C247 1.500 . S
C241 C240 1.382 . S
C241 C242 1.400 . S
C241 H252 0.930 1_565 S
C242 C241 1.400 . S
C242 C243 1.384 . S
C243 C242 1.384 . S
C243 C245 1.392 . S
C243 H253 0.931 . S
C244 C240 1.393 . S
C244 C245 1.401 . S
C244 H254 0.930 . S
C245 C243 1.392 . S
C245 C244 1.401 . S
C245 H255 0.930 . S
C246 O224 1.262 . S
C246 O225 1.260 . S
C247 Tb183 2.833 . S
C247 O222 1.251 . S
C247 O227 1.256 . S
C247 C240 1.500 . S
H248 C231 0.930 . S
H249 C232 0.931 . S
H250 C233 0.930 . S
H251 C234 0.930 . S
H252 C241 0.930 1_545 S
H253 C243 0.931 . S
H254 C244 0.930 . S
H255 C245 0.930 . S
Tb256 N287 2.660 . S
Tb256 N294 2.600 . S
Tb256 O300 2.546 . S
Tb256 O301 2.610 . S
Tb256 O303 2.320 . S
Tb256 O304 2.552 . S
Tb256 O305 2.413 . S
Tb256 O307 2.362 . S
Tb256 O308 2.421 . S
Tb256 C320 2.833 . S
C257 C260 1.432 . S
C257 C261 1.414 . S
C257 N264 1.359 . S
C258 C260 1.417 . S
C258 C262 1.432 . S
C258 C270 1.410 . S
C259 C261 1.444 . S
C259 C262 1.317 . S
C259 H282 0.929 . S
C260 C257 1.432 . S
C260 C258 1.417 . S
C260 N268 1.360 . S
C261 C257 1.414 . S
C261 C259 1.444 . S
C261 C266 1.385 1_556 S
C262 C258 1.432 . S
C262 C259 1.317 . S
C262 H274 0.930 . S
C263 C265 1.392 . S
C263 C266 1.370 . S
C263 H275 0.931 . S
N264 C257 1.359 . S
N264 C265 1.327 1_556 S
N264 Tb267 2.600 . S
C265 C263 1.392 . S
C265 N264 1.327 1_554 S
C265 H272 0.930 . S
C266 C261 1.385 1_554 S
C266 C263 1.370 . S
C266 H285 0.930 . S
Tb267 N264 2.600 . S
Tb267 N268 2.660 . S
Tb267 O301 2.362 . S
Tb267 O302 2.421 . S
Tb267 O306 2.546 1_556 S
Tb267 O307 2.610 . S
Tb267 O309 2.320 . S
Tb267 O310 2.552 . S
Tb267 O311 2.413 . S
Tb267 C331 2.833 1_556 S
N268 C260 1.360 . S
N268 Tb267 2.660 . S
N268 C269 1.305 . S
C269 N268 1.305 . S
C269 C271 1.407 . S
C269 H276 0.930 . S
C270 C258 1.410 . S
C270 C271 1.345 . S
C270 H278 0.930 . S
C271 C269 1.407 . S
C271 C270 1.345 . S
C271 H273 0.930 . S
H272 C265 0.930 . S
H273 C271 0.930 . S
H274 C262 0.930 . S
H275 C263 0.931 . S
H276 C269 0.930 . S
H277 C291 0.930 . S
H278 C270 0.930 . S
H279 C297 0.930 . S
H280 C288 0.930 . S
H281 C295 0.931 . S
H282 C259 0.929 . S
H283 C289 0.930 . S
H284 C322 0.930 . S
H285 C266 0.930 . S
H286 C321 0.929 . S
N287 Tb256 2.660 . S
N287 C288 1.305 . S
N287 C292 1.360 . S
C288 H280 0.930 . S
C288 N287 1.305 . S
C288 C291 1.407 . S
C289 H283 0.930 . S
C289 C290 1.410 . S
C289 C291 1.345 . S
C290 C289 1.410 . S
C290 C292 1.417 . S
C290 C322 1.432 . S
C291 H277 0.930 . S
C291 C288 1.407 . S
C291 C289 1.345 . S
C292 N287 1.360 . S
C292 C290 1.417 . S
C292 C296 1.432 . S
H293 C298 0.930 . S
N294 Tb256 2.600 . S
N294 C296 1.359 . S
N294 C297 1.327 . S
C295 H281 0.931 . S
C295 C297 1.392 . S
C295 C298 1.370 . S
C296 C292 1.432 . S
C296 N294 1.359 . S
C296 C299 1.414 . S
C297 H279 0.930 . S
C297 N294 1.327 . S
C297 C295 1.392 . S
C298 H293 0.930 . S
C298 C295 1.370 . S
C298 C299 1.385 . S
C299 C296 1.414 . S
C299 C298 1.385 . S
C299 C321 1.444 . S
O300 Tb256 2.546 . S
O300 C320 1.251 . S
O301 Tb256 2.610 . S
O301 Tb267 2.362 . S
O301 C312 1.283 . S
O302 Tb267 2.421 . S
O302 C319 1.262 . S
O303 Tb256 2.320 . S
O303 C319 1.260 . S
O304 Tb256 2.552 . S
O304 C312 1.243 . S
O305 Tb256 2.413 . S
O305 C320 1.256 . S
O306 Tb267 2.546 1_554 S
O306 C331 1.251 . S
O307 Tb256 2.362 . S
O307 Tb267 2.610 . S
O307 C323 1.283 . S
O308 Tb256 2.421 . S
O308 C330 1.262 . S
O309 Tb267 2.320 . S
O309 C330 1.260 . S
O310 Tb267 2.552 . S
O310 C323 1.243 . S
O311 Tb267 2.413 . S
O311 C331 1.256 1_556 S
C312 O301 1.283 . S
C312 O304 1.243 . S
C313 C315 1.382 . S
C313 C317 1.393 . S
C313 C320 1.500 . S
C314 C315 1.400 . S
C314 C316 1.384 . S
C315 C313 1.382 . S
C315 C314 1.400 . S
C315 H332 0.930 . S
C316 C314 1.384 . S
C316 C318 1.392 . S
C316 H333 0.931 . S
C317 C313 1.393 . S
C317 C318 1.401 . S
C317 H334 0.930 . S
C318 C316 1.392 . S
C318 C317 1.401 . S
C318 H335 0.930 . S
C319 O302 1.262 . S
C319 O303 1.260 . S
C320 Tb256 2.833 . S
C320 O300 1.251 . S
C320 O305 1.256 . S
C320 C313 1.500 . S
C321 H286 0.929 . S
C321 C299 1.444 . S
C321 C322 1.317 . S
C322 H284 0.930 . S
C322 C290 1.432 . S
C322 C321 1.317 . S
C323 O307 1.283 . S
C323 O310 1.243 . S
C324 C325 1.382 . S
C324 C328 1.393 . S
C324 C331 1.500 . S
C325 C324 1.382 . S
C325 C326 1.400 . S
C325 H336 0.930 . S
C326 C325 1.400 . S
C326 C327 1.384 . S
C327 C326 1.384 . S
C327 C329 1.392 . S
C327 H337 0.931 . S
C328 C324 1.393 . S
C328 C329 1.401 . S
C328 H338 0.930 . S
C329 C327 1.392 . S
C329 C328 1.401 . S
C329 H339 0.930 . S
C330 O308 1.262 . S
C330 O309 1.260 . S
C331 Tb267 2.833 1_554 S
C331 O306 1.251 . S
C331 O311 1.256 1_554 S
C331 C324 1.500 . S
H332 C315 0.930 . S
H333 C316 0.931 . S
H334 C317 0.930 . S
H335 C318 0.930 . S
H336 C325 0.930 . S
H337 C327 0.931 . S
H338 C328 0.930 . S
H339 C329 0.930 . S
Tb340 N371 2.660 . S
Tb340 N378 2.600 . S
Tb340 O384 2.546 . S
Tb340 O385 2.610 . S
Tb340 O387 2.320 . S
Tb340 O388 2.552 . S
Tb340 O389 2.413 . S
Tb340 O391 2.362 . S
Tb340 O392 2.421 1_455 S
Tb340 C404 2.833 . S
C341 C344 1.432 . S
C341 C345 1.414 . S
C341 N348 1.368 . S
C342 C344 1.417 . S
C342 C346 1.432 . S
C342 C354 1.410 . S
C343 C345 1.444 . S
C343 C346 1.317 . S
C343 H366 0.929 . S
C344 C341 1.432 . S
C344 C342 1.417 . S
C344 N352 1.360 . S
C345 C341 1.414 . S
C345 C343 1.444 . S
C345 C350 1.385 1_656 S
C346 C342 1.432 . S
C346 C343 1.317 . S
C346 H358 0.930 . S
C347 C349 1.392 . S
C347 C350 1.370 . S
C347 H359 0.931 . S
N348 C341 1.368 . S
N348 C349 1.315 1_656 S
N348 Tb351 2.605 . S
C349 C347 1.392 . S
C349 N348 1.315 1_454 S
C349 H356 0.930 . S
C350 C345 1.385 1_454 S
C350 C347 1.370 . S
C350 H369 0.930 . S
Tb351 N348 2.605 . S
Tb351 N352 2.660 . S
Tb351 O385 2.362 1_655 S
Tb351 O386 2.421 1_655 S
Tb351 O390 2.546 1_556 S
Tb351 O391 2.610 1_655 S
Tb351 O393 2.320 . S
Tb351 O394 2.552 . S
Tb351 O395 2.413 . S
Tb351 C415 2.833 1_556 S
N352 C344 1.360 . S
N352 Tb351 2.660 . S
N352 C353 1.305 . S
C353 N352 1.305 . S
C353 C355 1.407 . S
C353 H360 0.930 . S
C354 C342 1.410 . S
C354 C355 1.345 . S
C354 H362 0.930 . S
C355 C353 1.407 . S
C355 C354 1.345 . S
C355 H357 0.930 . S
H356 C349 0.930 . S
H357 C355 0.930 . S
H358 C346 0.930 . S
H359 C347 0.931 . S
H360 C353 0.930 . S
H361 C375 0.930 . S
H362 C354 0.930 . S
H363 C381 0.930 . S
H364 C372 0.930 . S
H365 C379 0.931 . S
H366 C343 0.929 . S
H367 C373 0.930 . S
H368 C406 0.930 . S
H369 C350 0.930 . S
H370 C405 0.929 . S
N371 Tb340 2.660 . S
N371 C372 1.305 . S
N371 C376 1.360 . S
C372 H364 0.930 . S
C372 N371 1.305 . S
C372 C375 1.407 . S
C373 H367 0.930 . S
C373 C374 1.410 . S
C373 C375 1.345 . S
C374 C373 1.410 . S
C374 C376 1.417 . S
C374 C406 1.432 . S
C375 H361 0.930 . S
C375 C372 1.407 . S
C375 C373 1.345 . S
C376 N371 1.360 . S
C376 C374 1.417 . S
C376 C380 1.432 . S
H377 C382 0.930 1_655 S
N378 Tb340 2.600 . S
N378 C380 1.359 . S
N378 C381 1.327 1_455 S
C379 H365 0.931 . S
C379 C381 1.392 . S
C379 C382 1.370 1_655 S
C380 C376 1.432 . S
C380 N378 1.359 . S
C380 C383 1.414 . S
C381 H363 0.930 . S
C381 N378 1.327 1_655 S
C381 C379 1.392 . S
C382 H377 0.930 1_455 S
C382 C379 1.370 1_455 S
C382 C383 1.385 . S
C383 C380 1.414 . S
C383 C382 1.385 . S
C383 C405 1.444 . S
O384 Tb340 2.546 . S
O384 C404 1.251 . S
O385 Tb340 2.610 . S
O385 Tb351 2.362 1_455 S
O385 C396 1.283 . S
O386 Tb351 2.421 1_455 S
O386 C403 1.262 . S
O387 Tb340 2.320 . S
O387 C403 1.260 . S
O388 Tb340 2.552 . S
O388 C396 1.243 . S
O389 Tb340 2.413 . S
O389 C404 1.256 . S
O390 Tb351 2.546 1_554 S
O390 C415 1.251 . S
O391 Tb340 2.362 . S
O391 Tb351 2.610 1_455 S
O391 C407 1.283 1_455 S
O392 Tb340 2.421 1_655 S
O392 C414 1.262 . S
O393 Tb351 2.320 . S
O393 C414 1.260 . S
O394 Tb351 2.552 . S
O394 C407 1.243 . S
O395 Tb351 2.413 . S
O395 C415 1.256 1_556 S
C396 O385 1.283 . S
C396 O388 1.243 . S
C397 C399 1.382 . S
C397 C401 1.393 . S
C397 C404 1.500 . S
C398 C399 1.400 . S
C398 C400 1.384 . S
C399 C397 1.382 . S
C399 C398 1.400 . S
C399 H416 0.930 . S
C400 C398 1.384 . S
C400 C402 1.392 . S
C400 H417 0.931 . S
C401 C397 1.393 . S
C401 C402 1.401 . S
C401 H418 0.930 . S
C402 C400 1.392 . S
C402 C401 1.401 . S
C402 H419 0.930 . S
C403 O386 1.262 . S
C403 O387 1.260 . S
C404 Tb340 2.833 . S
C404 O384 1.251 . S
C404 O389 1.256 . S
C404 C397 1.500 . S
C405 H370 0.929 . S
C405 C383 1.444 . S
C405 C406 1.317 . S
C406 H368 0.930 . S
C406 C374 1.432 . S
C406 C405 1.317 . S
C407 O391 1.283 1_655 S
C407 O394 1.243 . S
C408 C409 1.382 . S
C408 C412 1.393 . S
C408 C415 1.500 . S
C409 C408 1.382 . S
C409 C410 1.400 . S
C409 H420 0.930 . S
C410 C409 1.400 . S
C410 C411 1.384 . S
C411 C410 1.384 . S
C411 C413 1.392 . S
C411 H421 0.931 . S
C412 C408 1.393 . S
C412 C413 1.401 . S
C412 H422 0.930 . S
C413 C411 1.392 . S
C413 C412 1.401 . S
C413 H423 0.930 . S
C414 O392 1.262 . S
C414 O393 1.260 . S
C415 Tb351 2.833 1_554 S
C415 O390 1.251 . S
C415 O395 1.256 1_554 S
C415 C408 1.500 . S
H416 C399 0.930 . S
H417 C400 0.931 . S
H418 C401 0.930 . S
H419 C402 0.930 . S
H420 C409 0.930 . S
H421 C411 0.931 . S
H422 C412 0.930 . S
H423 C413 0.930 . S
C424 C425 1.369 . S
C424 C426 1.419 . S
C424 H428 0.930 . S
C425 C424 1.369 . S
C425 C434 1.429 . S
C426 C424 1.419 . S
C426 C427 1.363 . S
C426 H429 0.929 . S
C427 C426 1.363 . S
C427 C433 1.428 . S
H428 C424 0.930 . S
H429 C426 0.929 . S
S430 N431 1.613 . S
S430 N432 1.610 . S
N431 S430 1.613 . S
N431 C434 1.350 1_565 S
N432 S430 1.610 . S
N432 C433 1.351 1_565 S
C433 C427 1.428 . S
C433 N432 1.351 1_545 S
C433 C434 1.434 . S
C434 C425 1.429 . S
C434 N431 1.350 1_545 S
C434 C433 1.434 . S
C435 C436 1.369 . S
C435 C437 1.419 . S
C435 H439 0.930 . S
C436 C435 1.369 . S
C436 C445 1.429 . S
C437 C435 1.419 . S
C437 C438 1.363 . S
C437 H440 0.929 . S
C438 C437 1.363 . S
C438 C444 1.428 . S
H439 C435 0.930 . S
H440 C437 0.929 . S
S441 N442 1.613 . S
S441 N443 1.610 . S
N442 S441 1.613 . S
N442 C445 1.350 . S
N443 S441 1.610 . S
N443 C444 1.351 . S
C444 C438 1.428 . S
C444 N443 1.351 . S
C444 C445 1.434 . S
C445 C436 1.429 . S
C445 N442 1.350 . S
C445 C444 1.434 . S
C446 C447 1.369 . S
C446 C448 1.419 . S
C446 H450 0.930 . S
C447 C446 1.369 . S
C447 C456 1.429 . S
C448 C446 1.419 . S
C448 C449 1.363 . S
C448 H451 0.929 . S
C449 C448 1.363 . S
C449 C455 1.428 . S
H450 C446 0.930 . S
H451 C448 0.929 . S
S452 N453 1.613 . S
S452 N454 1.610 . S
N453 S452 1.613 . S
N453 C456 1.350 . S
N454 S452 1.610 . S
N454 C455 1.351 . S
C455 C449 1.428 . S
C455 N454 1.351 . S
C455 C456 1.434 . S
C456 C447 1.429 . S
C456 N453 1.350 . S
C456 C455 1.434 . S
C457 C458 1.369 . S
C457 C459 1.419 . S
C457 H461 0.930 . S
C458 C457 1.369 . S
C458 C467 1.429 . S
C459 C457 1.419 . S
C459 C460 1.363 . S
C459 H462 0.929 . S
C460 C459 1.363 . S
C460 C466 1.428 . S
H461 C457 0.930 . S
H462 C459 0.929 . S
S463 N464 1.613 1_655 S
S463 N465 1.610 1_655 S
N464 S463 1.613 1_455 S
N464 C467 1.350 . S
N465 S463 1.610 1_455 S
N465 C466 1.351 . S
C466 C460 1.428 . S
C466 N465 1.351 . S
C466 C467 1.434 . S
C467 C458 1.429 . S
C467 N464 1.350 . S
C467 C466 1.434 . S
C468 C469 1.369 . S
C468 C470 1.418 1_565 S
C468 H472 0.930 1_565 S
C469 C468 1.369 . S
C469 C478 1.429 . S
C470 C468 1.418 1_545 S
C470 C471 1.363 1_544 S
C470 H473 0.929 1_554 S
C471 C470 1.363 1_566 S
C471 C477 1.428 1_556 S
H472 C468 0.930 1_545 S
H473 C470 0.929 1_556 S
S474 N475 1.613 . S
S474 N476 1.610 . S
N475 S474 1.613 . S
N475 C478 1.350 . S
N476 S474 1.610 . S
N476 C477 1.351 . S
C477 C471 1.428 1_554 S
C477 N476 1.351 . S
C477 C478 1.434 . S
C478 C469 1.429 . S
C478 N475 1.350 . S
C478 C477 1.434 . S
C479 C480 1.369 . S
C479 C481 1.419 . S
C479 H483 0.930 . S
C480 C479 1.369 . S
C480 C489 1.429 . S
C481 C479 1.419 . S
C481 C482 1.363 1_554 S
C481 H484 0.929 1_554 S
C482 C481 1.363 1_556 S
C482 C488 1.428 1_556 S
H483 C479 0.930 . S
H484 C481 0.929 1_556 S
S485 N486 1.613 . S
S485 N487 1.610 . S
N486 S485 1.613 . S
N486 C489 1.350 . S
N487 S485 1.610 . S
N487 C488 1.351 . S
C488 C482 1.428 1_554 S
C488 N487 1.351 . S
C488 C489 1.434 . S
C489 C480 1.429 . S
C489 N486 1.350 . S
C489 C488 1.434 . S
C490 C491 1.369 . S
C490 C492 1.419 . S
C490 H494 0.930 . S
C491 C490 1.369 . S
C491 C500 1.429 . S
C492 C490 1.419 . S
C492 C493 1.363 1_554 S
C492 H495 0.929 1_554 S
C493 C492 1.363 1_556 S
C493 C499 1.428 1_556 S
H494 C490 0.930 . S
H495 C492 0.929 1_556 S
S496 N497 1.613 . S
S496 N498 1.610 . S
N497 S496 1.613 . S
N497 C500 1.350 . S
N498 S496 1.610 . S
N498 C499 1.351 . S
C499 C493 1.428 1_554 S
C499 N498 1.351 . S
C499 C500 1.434 . S
C500 C491 1.429 . S
C500 N497 1.350 . S
C500 C499 1.434 . S
C501 C502 1.369 . S
C501 C503 1.419 . S
C501 H505 0.930 . S
C502 C501 1.369 . S
C502 C511 1.429 1_655 S
C503 C501 1.419 . S
C503 C504 1.363 1_554 S
C503 H506 0.929 1_554 S
C504 C503 1.363 1_556 S
C504 C510 1.428 1_656 S
H505 C501 0.930 . S
H506 C503 0.929 1_556 S
S507 N508 1.613 . S
S507 N509 1.610 . S
N508 S507 1.613 . S
N508 C511 1.350 . S
N509 S507 1.610 . S
N509 C510 1.351 . S
C510 C504 1.428 1_454 S
C510 N509 1.351 . S
C510 C511 1.434 . S
C511 C502 1.429 1_455 S
C511 N508 1.350 . S
C511 C510 1.434 . S
C512 C513 1.369 . S
C512 C514 1.419 . S
C512 H516 0.930 . S
C513 C512 1.369 . S
C513 C522 1.429 . S
C514 C512 1.419 . S
C514 C515 1.363 1_455 S
C514 H517 0.929 . S
C515 C514 1.363 1_655 S
C515 C521 1.428 . S
H516 C512 0.930 . S
H517 C514 0.929 . S
S518 N519 1.606 1_655 S
S518 N520 1.610 . S
N519 S518 1.606 1_455 S
N519 C522 1.353 . S
N520 S518 1.610 . S
N520 C521 1.351 . S
C521 C515 1.428 . S
C521 N520 1.351 . S
C521 C522 1.434 1_655 S
C522 C513 1.429 . S
C522 N519 1.353 . S
C522 C521 1.434 1_455 S
C523 C524 1.369 . S
C523 C525 1.419 . S
C523 H527 0.930 . S
C524 C523 1.369 . S
C524 C533 1.429 . S
C525 C523 1.419 . S
C525 C526 1.363 1_545 S
C525 H528 0.929 . S
C526 C525 1.363 1_565 S
C526 C532 1.428 1_565 S
H527 C523 0.930 . S
H528 C525 0.929 . S
S529 N530 1.613 . S
S529 N531 1.610 1_546 S
N530 S529 1.613 . S
N530 C533 1.350 1_556 S
N531 S529 1.610 1_564 S
N531 C532 1.351 1_565 S
C532 C526 1.428 1_545 S
C532 N531 1.351 1_545 S
C532 C533 1.434 . S
C533 C524 1.429 . S
C533 N530 1.350 1_554 S
C533 C532 1.434 . S
C534 C535 1.369 . S
C534 C536 1.419 . S
C534 H538 0.930 . S
C535 C534 1.369 . S
C535 C544 1.429 . S
C536 C534 1.419 . S
C536 C537 1.363 . S
C536 H539 0.929 . S
C537 C536 1.363 . S
C537 C543 1.428 . S
H538 C534 0.930 . S
H539 C536 0.929 . S
S540 N541 1.613 . S
S540 N542 1.610 . S
N541 S540 1.613 . S
N541 C544 1.350 . S
N542 S540 1.610 . S
N542 C543 1.351 . S
C543 C537 1.428 . S
C543 N542 1.351 . S
C543 C544 1.434 . S
C544 C535 1.429 . S
C544 N541 1.350 . S
C544 C543 1.434 . S
C545 C546 1.369 . S
C545 C547 1.419 . S
C545 H549 0.930 . S
C546 C545 1.369 . S
C546 C555 1.429 . S
C547 C545 1.419 . S
C547 C548 1.363 . S
C547 H550 0.929 . S
C548 C547 1.363 . S
C548 C554 1.428 . S
H549 C545 0.930 . S
H550 C547 0.929 . S
S551 N552 1.613 1_556 S
S551 N553 1.610 1_556 S
N552 S551 1.613 1_554 S
N552 C555 1.350 . S
N553 S551 1.610 1_554 S
N553 C554 1.351 . S
C554 C548 1.428 . S
C554 N553 1.351 . S
C554 C555 1.434 . S
C555 C546 1.429 . S
C555 N552 1.350 . S
C555 C554 1.434 . S
C556 C557 1.369 . S
C556 C558 1.404 1_655 S
C556 H560 0.930 . S
C557 C556 1.369 . S
C557 C566 1.429 . S
C558 C556 1.404 1_455 S
C558 C559 1.372 . S
C558 H561 0.935 . S
C559 C558 1.372 . S
C559 C565 1.428 . S
H560 C556 0.930 . S
H561 C558 0.935 . S
S562 N563 1.613 1_556 S
S562 N564 1.610 1_656 S
N563 S562 1.613 1_554 S
N563 C566 1.350 . S
N564 S562 1.610 1_454 S
N564 C565 1.351 . S
C565 C559 1.428 . S
C565 N564 1.351 . S
C565 C566 1.434 1_455 S
C566 C557 1.429 . S
C566 N563 1.350 . S
C566 C565 1.434 1_655 S
C567 C568 1.369 . S
C567 C569 1.419 . S
C567 H571 0.930 . S
C568 C567 1.369 . S
C568 C577 1.429 1_565 S
C569 C567 1.419 . S
C569 C570 1.363 1_565 S
C569 H572 0.929 . S
C570 C569 1.363 1_545 S
C570 C576 1.428 . S
H571 C567 0.930 . S
H572 C569 0.929 . S
S573 N574 1.613 . S
S573 N575 1.610 . S
N574 S573 1.613 . S
N574 C577 1.350 . S
N575 S573 1.610 . S
N575 C576 1.351 . S
C576 C570 1.428 . S
C576 N575 1.351 . S
C576 C577 1.434 . S
C577 C568 1.429 1_545 S
C577 N574 1.350 . S
C577 C576 1.434 . S
C578 C579 1.369 . S
C578 C580 1.419 . S
C578 H582 0.930 . S
C579 C578 1.369 . S
C579 C588 1.429 . S
C580 C578 1.419 . S
C580 C581 1.363 . S
C580 H583 0.929 . S
C581 C580 1.363 . S
C581 C587 1.428 . S
H582 C578 0.930 . S
H583 C580 0.929 . S
S584 N585 1.613 . S
S584 N586 1.610 . S
N585 S584 1.613 . S
N585 C588 1.350 . S
N586 S584 1.610 . S
N586 C587 1.351 . S
C587 C581 1.428 . S
C587 N586 1.351 . S
C587 C588 1.434 . S
C588 C579 1.429 . S
C588 N585 1.350 . S
C588 C587 1.434 . S
C589 C590 1.369 . S
C589 C591 1.419 . S
C589 H593 0.930 . S
C590 C589 1.369 . S
C590 C599 1.429 . S
C591 C589 1.419 . S
C591 C592 1.363 . S
C591 H594 0.929 . S
C592 C591 1.363 . S
C592 C598 1.428 . S
H593 C589 0.930 . S
H594 C591 0.929 . S
S595 N596 1.613 . S
S595 N597 1.610 . S
N596 S595 1.613 . S
N596 C599 1.350 . S
N597 S595 1.610 . S
N597 C598 1.351 . S
C598 C592 1.428 . S
C598 N597 1.351 . S
C598 C599 1.434 . S
C599 C590 1.429 . S
C599 N596 1.350 . S
C599 C598 1.434 . S
C600 C601 1.369 . S
C600 C602 1.419 . S
C600 H604 0.930 . S
C601 C600 1.369 . S
C601 C610 1.429 . S
C602 C600 1.419 . S
C602 C603 1.363 . S
C602 H605 0.929 . S
C603 C602 1.363 . S
C603 C609 1.428 . S
H604 C600 0.930 . S
H605 C602 0.929 . S
S606 N607 1.613 . S
S606 N608 1.610 . S
N607 S606 1.613 . S
N607 C610 1.350 . S
N608 S606 1.610 . S
N608 C609 1.351 . S
C609 C603 1.428 . S
C609 N608 1.351 . S
C609 C610 1.434 . S
C610 C601 1.429 . S
C610 N607 1.350 . S
C610 C609 1.434 . S
C611 C612 1.369 . S
C611 C613 1.419 . S
C611 H615 0.930 . S
C612 C611 1.369 . S
C612 C621 1.429 . S
C613 C611 1.419 . S
C613 C614 1.363 . S
C613 H616 0.929 1_545 S
C614 C613 1.363 . S
C614 C620 1.428 . S
H615 C611 0.930 . S
H616 C613 0.929 1_565 S
S617 N618 1.613 . S
S617 N619 1.610 . S
N618 S617 1.613 . S
N618 C621 1.350 . S
N619 S617 1.610 . S
N619 C620 1.351 . S
C620 C614 1.428 . S
C620 N619 1.351 . S
C620 C621 1.434 . S
C621 C612 1.429 . S
C621 N618 1.350 . S
C621 C620 1.434 . S
C622 C623 1.369 . S
C622 C624 1.419 . S
C622 H626 0.930 . S
C623 C622 1.369 . S
C623 C632 1.429 . S
C624 C622 1.419 . S
C624 C625 1.363 . S
C624 H627 0.929 . S
C625 C624 1.363 . S
C625 C631 1.428 . S
H626 C622 0.930 . S
H627 C624 0.929 . S
S628 N629 1.613 . S
S628 N630 1.610 . S
N629 S628 1.613 . S
N629 C632 1.350 . S
N630 S628 1.610 . S
N630 C631 1.351 . S
C631 C625 1.428 . S
C631 N630 1.351 . S
C631 C632 1.434 . S
C632 C623 1.429 . S
C632 N629 1.350 . S
C632 C631 1.434 . S
C633 C634 1.369 . S
C633 C635 1.419 . S
C633 H637 0.930 . S
C634 C633 1.369 . S
C634 C643 1.429 . S
C635 C633 1.419 . S
C635 C636 1.363 . S
C635 H638 0.929 . S
C636 C635 1.363 . S
C636 C642 1.428 . S
H637 C633 0.930 . S
H638 C635 0.929 . S
S639 N640 1.613 . S
S639 N641 1.610 . S
N640 S639 1.613 . S
N640 C643 1.350 1_554 S
N641 S639 1.610 . S
N641 C642 1.351 1_554 S
C642 C636 1.428 . S
C642 N641 1.351 1_556 S
C642 C643 1.434 . S
C643 C634 1.429 . S
C643 N640 1.350 1_556 S
C643 C642 1.434 . S
C644 C645 1.369 . S
C644 C646 1.419 . S
C644 H648 0.930 . S
C645 C644 1.369 . S
C645 C654 1.429 . S
C646 C644 1.419 . S
C646 C647 1.363 . S
C646 H649 0.929 . S
C647 C646 1.363 . S
C647 C653 1.428 . S
H648 C644 0.930 . S
H649 C646 0.929 . S
S650 N651 1.613 . S
S650 N652 1.610 . S
N651 S650 1.613 . S
N651 C654 1.350 . S
N652 S650 1.610 . S
N652 C653 1.351 . S
C653 C647 1.428 . S
C653 N652 1.351 . S
C653 C654 1.434 . S
C654 C645 1.429 . S
C654 N651 1.350 . S
C654 C653 1.434 . S
C655 C656 1.369 . S
C655 C657 1.419 . S
C655 H659 0.930 . S
C656 C655 1.369 . S
C656 C665 1.429 . S
C657 C655 1.419 . S
C657 C658 1.363 . S
C657 H660 0.929 . S
C658 C657 1.363 . S
C658 C664 1.428 . S
H659 C655 0.930 . S
H660 C657 0.929 . S
S661 N662 1.613 . S
S661 N663 1.610 . S
N662 S661 1.613 . S
N662 C665 1.350 . S
N663 S661 1.610 . S
N663 C664 1.351 . S
C664 C658 1.428 . S
C664 N663 1.351 . S
C664 C665 1.434 . S
C665 C656 1.429 . S
C665 N662 1.350 . S
C665 C664 1.434 . S
C666 C667 1.369 . S
C666 C668 1.419 . S
C666 H670 0.930 . S
C667 C666 1.369 . S
C667 C676 1.429 . S
C668 C666 1.419 . S
C668 C669 1.363 . S
C668 H671 0.929 . S
C669 C668 1.363 . S
C669 C675 1.428 . S
H670 C666 0.930 . S
H671 C668 0.929 . S
S672 N673 1.613 . S
S672 N674 1.610 . S
N673 S672 1.613 . S
N673 C676 1.350 . S
N674 S672 1.610 . S
N674 C675 1.351 . S
C675 C669 1.428 . S
C675 N674 1.351 . S
C675 C676 1.434 . S
C676 C667 1.429 . S
C676 N673 1.350 . S
C676 C675 1.434 . S
C677 C678 1.369 . S
C677 C679 1.419 . S
C677 H681 0.930 . S
C678 C677 1.369 . S
C678 C687 1.429 . S
C679 C677 1.419 . S
C679 C680 1.363 . S
C679 H682 0.929 . S
C680 C679 1.363 . S
C680 C686 1.428 . S
H681 C677 0.930 . S
H682 C679 0.929 . S
S683 N684 1.613 . S
S683 N685 1.610 . S
N684 S683 1.613 . S
N684 C687 1.350 . S
N685 S683 1.610 . S
N685 C686 1.351 . S
C686 C680 1.428 . S
C686 N685 1.351 . S
C686 C687 1.434 . S
C687 C678 1.429 . S
C687 N684 1.350 . S
C687 C686 1.434 . S
C425 C76 1.957 . S
C427 C162 2.083 . S
C438 C246 2.094 . S
C436 C87 1.969 . S
C449 C312 2.003 . S
C447 C54 2.036 . S
C460 C396 1.990 . S
C458 C65 2.034 . S
C471 C151 2.084 1_565 S
C469 C32 1.969 . S
C480 C43 1.977 . S
C482 C235 2.094 . S
C491 C10 2.050 . S
C493 C323 1.998 . S
C502 C21 2.034 . S
C504 C407 1.997 . S
C515 C158 0.930 . S
C513 C60 0.881 . S
C526 C242 0.895 . S
C524 C71 0.849 . S
C537 C314 0.874 . S
C535 C82 0.848 . S
C546 C49 0.851 . S
C548 C398 0.905 . S
C557 C16 0.880 . S
C559 C146 0.931 . S
C570 C230 0.895 . S
C568 C27 0.843 . S
C581 C326 0.868 . S
C579 C38 0.828 . S
C590 C5 0.844 . S
C592 C410 0.905 . S
C601 C59 2.108 . S
C603 C155 2.205 . S
C612 C70 2.081 . S
C614 C239 2.191 . S
C625 C319 2.281 . S
C623 C81 2.009 . S
C636 C403 2.300 . S
C634 C48 2.018 . S
C645 C15 2.090 . S
C647 C144 2.211 . S
C658 C228 2.185 . S
C656 C26 2.081 . S
C669 C330 2.281 . S
C667 C37 1.989 . S
C678 C4 2.017 . S
C680 C414 2.299 . S
