# Generated by pormake.
# Topology pyr, (3,6)-cn, num edge types: 1
# Building blocks:
#     Node 0, Type 0, BuildingBlock: BETDIP_clean_linker_0, # of connection points: 3
#     Node 1, Type 0, BuildingBlock: BETDIP_clean_linker_0, # of connection points: 3
#     Node 2, Type 0, BuildingBlock: BETDIP_clean_linker_0, # of connection points: 3
#     Node 3, Type 0, BuildingBlock: BETDIP_clean_linker_0, # of connection points: 3
#     Node 4, Type 0, BuildingBlock: BETDIP_clean_linker_0, # of connection points: 3
#     Node 5, Type 0, BuildingBlock: BETDIP_clean_linker_0, # of connection points: 3
#     Node 6, Type 0, BuildingBlock: BETDIP_clean_linker_0, # of connection points: 3
#     Node 7, Type 0, BuildingBlock: BETDIP_clean_linker_0, # of connection points: 3
#     Node 8, Type 1, BuildingBlock: BETDIP_clean_sbu_0, # of connection points: 6
#     Node 9, Type 1, BuildingBlock: BETDIP_clean_sbu_0, # of connection points: 6
#     Node 10, Type 1, BuildingBlock: BETDIP_clean_sbu_0, # of connection points: 6
#     Node 11, Type 1, BuildingBlock: BETDIP_clean_sbu_0, # of connection points: 6
#     Edge 12, Type (0, 1), BuildingBlock: KIFKEQ_clean_linker_1, # of connection points: 2
#     Edge 13, Type (0, 1), BuildingBlock: KIFKEQ_clean_linker_1, # of connection points: 2
#     Edge 14, Type (0, 1), BuildingBlock: KIFKEQ_clean_linker_1, # of connection points: 2
#     Edge 15, Type (0, 1), BuildingBlock: KIFKEQ_clean_linker_1, # of connection points: 2
#     Edge 16, Type (0, 1), BuildingBlock: KIFKEQ_clean_linker_1, # of connection points: 2
#     Edge 17, Type (0, 1), BuildingBlock: KIFKEQ_clean_linker_1, # of connection points: 2
#     Edge 18, Type (0, 1), BuildingBlock: KIFKEQ_clean_linker_1, # of connection points: 2
#     Edge 19, Type (0, 1), BuildingBlock: KIFKEQ_clean_linker_1, # of connection points: 2
#     Edge 20, Type (0, 1), BuildingBlock: KIFKEQ_clean_linker_1, # of connection points: 2
#     Edge 21, Type (0, 1), BuildingBlock: KIFKEQ_clean_linker_1, # of connection points: 2
#     Edge 22, Type (0, 1), BuildingBlock: KIFKEQ_clean_linker_1, # of connection points: 2
#     Edge 23, Type (0, 1), BuildingBlock: KIFKEQ_clean_linker_1, # of connection points: 2
#     Edge 24, Type (0, 1), BuildingBlock: KIFKEQ_clean_linker_1, # of connection points: 2
#     Edge 25, Type (0, 1), BuildingBlock: KIFKEQ_clean_linker_1, # of connection points: 2
#     Edge 26, Type (0, 1), BuildingBlock: KIFKEQ_clean_linker_1, # of connection points: 2
#     Edge 27, Type (0, 1), BuildingBlock: KIFKEQ_clean_linker_1, # of connection points: 2
#     Edge 28, Type (0, 1), BuildingBlock: KIFKEQ_clean_linker_1, # of connection points: 2
#     Edge 29, Type (0, 1), BuildingBlock: KIFKEQ_clean_linker_1, # of connection points: 2
#     Edge 30, Type (0, 1), BuildingBlock: KIFKEQ_clean_linker_1, # of connection points: 2
#     Edge 31, Type (0, 1), BuildingBlock: KIFKEQ_clean_linker_1, # of connection points: 2
#     Edge 32, Type (0, 1), BuildingBlock: KIFKEQ_clean_linker_1, # of connection points: 2
#     Edge 33, Type (0, 1), BuildingBlock: KIFKEQ_clean_linker_1, # of connection points: 2
#     Edge 34, Type (0, 1), BuildingBlock: KIFKEQ_clean_linker_1, # of connection points: 2
#     Edge 35, Type (0, 1), BuildingBlock: KIFKEQ_clean_linker_1, # of connection points: 2
# Relax obj value: 0.166
# Max RMSD: 0.236
# Mean RMSD: 0.149
data_MOF--net-pyr--node1-BETDIP_clean_sbu_0--node2-BETDIP_clean_linker_0--edge1-KIFKEQ_clean_linker_1
_symmetry_space_group_name_H-M    P1
_symmetry_Int_Tables_number       1
_symmetry_cell_setting            triclinic
loop_
_symmetry_equiv_pos_as_xyz
'x, y, z'
_cell_length_a     37.075355
_cell_length_b     38.777191
_cell_length_c     39.118072
_cell_angle_alpha  88.767552
_cell_angle_beta   91.695663
_cell_angle_gamma 111.37664
loop_
_atom_site_label
_atom_site_type_symbol
_atom_site_fract_x
_atom_site_fract_y
_atom_site_fract_z
_atom_type_partial_charge
H0 H 0.33418 0.32705 0.25326 0.0
H1 H 0.39301 0.31365 0.16443 0.0
H2 H 0.3828 0.24201 0.25215 0.0
H3 H 0.34558 0.33427 0.1387 0.0
C4 C 0.34025 0.35249 0.15694 0.0
C5 C 0.35098 0.3134 0.2408 0.0
C6 C 0.35702 0.28322 0.25679 0.0
C7 C 0.36313 0.32404 0.20742 0.0
C8 C 0.38333 0.30543 0.19022 0.0
C9 C 0.3915 0.27642 0.20674 0.0
C10 C 0.37809 0.26543 0.23991 0.0
N11 N 0.35252 0.35229 0.19164 0.0
H12 H 0.13032 0.79122 0.76423 0.0
H13 H 0.16716 0.74818 0.67734 0.0
H14 H 0.20807 0.73277 0.77859 0.0
H15 H 0.16396 0.84314 0.72299 0.0
C16 C 0.14105 0.83055 0.70403 0.0
C17 C 0.14565 0.77485 0.75395 0.0
C18 C 0.16938 0.76274 0.77569 0.0
C19 C 0.1454 0.77039 0.71845 0.0
C20 C 0.16589 0.74999 0.70485 0.0
C21 C 0.18856 0.73607 0.72653 0.0
C22 C 0.1892 0.74178 0.762 0.0
N23 N 0.13101 0.79238 0.69655 0.0
H24 H 0.6913 0.44212 0.87408 0.0
H25 H 0.59333 0.34049 0.86164 0.0
H26 H 0.68252 0.34733 0.93693 0.0
H27 H 0.59126 0.36315 0.80703 0.0
C28 C 0.60271 0.39315 0.80856 0.0
C29 C 0.67624 0.41343 0.88135 0.0
C30 C 0.69079 0.39765 0.90865 0.0
C31 C 0.64207 0.39275 0.86323 0.0
C32 C 0.62086 0.35589 0.87393 0.0
C33 C 0.63453 0.33955 0.90167 0.0
C34 C 0.67031 0.36038 0.91746 0.0
N35 N 0.62951 0.41078 0.83551 0.0
H36 H 0.81515 0.66012 0.36806 0.0
H37 H 0.90584 0.76554 0.34953 0.0
H38 H 0.83005 0.75175 0.43395 0.0
H39 H 0.9066 0.7428 0.29749 0.0
C40 C 0.89605 0.7128 0.29928 0.0
C41 C 0.83015 0.68884 0.37489 0.0
C42 C 0.81846 0.70331 0.40341 0.0
C43 C 0.86129 0.71091 0.35499 0.0
C44 C 0.8815 0.74825 0.36422 0.0
C45 C 0.87027 0.76339 0.39276 0.0
C46 C 0.83881 0.7405 0.41197 0.0
N47 N 0.87163 0.69405 0.3266 0.0
H48 H 0.61007 0.78365 0.94013 0.0
H49 H 0.67419 0.76626 0.8567 0.0
H50 H 0.63817 0.85972 0.85455 0.0
H51 H 0.64218 0.70274 0.87711 0.0
C52 C 0.65348 0.71132 0.90278 0.0
C53 C 0.62259 0.79174 0.91516 0.0
C54 C 0.62085 0.82366 0.89866 0.0
C55 C 0.64075 0.77029 0.8998 0.0
C56 C 0.65812 0.78141 0.8679 0.0
C57 C 0.65762 0.81383 0.85163 0.0
C58 C 0.6383 0.83443 0.86686 0.0
N59 N 0.64476 0.73997 0.9184 0.0
H60 H 0.86674 0.30333 0.36788 0.0
H61 H 0.85677 0.36422 0.45513 0.0
H62 H 0.78279 0.35595 0.3665 0.0
H63 H 0.94002 0.33186 0.39537 0.0
C64 C 0.92332 0.31455 0.41587 0.0
C65 C 0.8544 0.32148 0.37953 0.0
C66 C 0.82355 0.32837 0.36295 0.0
C67 C 0.86676 0.33487 0.41263 0.0
C68 C 0.84823 0.35532 0.42907 0.0
C69 C 0.81829 0.36358 0.41235 0.0
C70 C 0.80672 0.35062 0.37907 0.0
N71 N 0.89407 0.32384 0.43143 0.0
H72 H 0.31076 0.66368 0.25308 0.0
H73 H 0.41404 0.76149 0.26474 0.0
H74 H 0.33914 0.74984 0.17627 0.0
H75 H 0.43443 0.72359 0.29887 0.0
C76 C 0.40932 0.70249 0.30997 0.0
C77 C 0.32985 0.69039 0.24365 0.0
C78 C 0.32088 0.70432 0.21233 0.0
C79 C 0.36399 0.70993 0.2624 0.0
C80 C 0.38837 0.74523 0.25026 0.0
C81 C 0.37946 0.75969 0.21903 0.0
C82 C 0.34613 0.73871 0.20017 0.0
N83 N 0.37231 0.6931 0.29312 0.0
H84 H 0.08355 0.32553 0.76312 0.0
H85 H 0.18548 0.42522 0.75952 0.0
H86 H 0.17238 0.33594 0.6911 0.0
H87 H 0.17372 0.42237 0.81808 0.0
C88 C 0.14262 0.41581 0.81797 0.0
C89 C 0.11128 0.34151 0.75217 0.0
C90 C 0.12571 0.32639 0.72578 0.0
C91 C 0.13322 0.37664 0.76545 0.0
C92 C 0.1689 0.39762 0.75049 0.0
C93 C 0.18328 0.38306 0.72365 0.0
C94 C 0.16172 0.34726 0.71196 0.0
N95 N 0.11862 0.39031 0.79347 0.0
Tb96 Tb 0.9603 1.02865 0.55802 0.0
Tb97 Tb 0.04401 0.06996 0.54455 0.0
C98 C 0.89406 0.97969 0.56518 0.0
C99 C 0.87226 0.95885 0.59447 0.0
C100 C 0.84396 0.92356 0.58967 0.0
C101 C 0.8218 0.90428 0.61712 0.0
C102 C 0.82744 0.92014 0.64983 0.0
C103 C 0.85647 0.95533 0.65453 0.0
C104 C 0.87881 0.97437 0.62719 0.0
C105 C 0.99329 0.08682 0.59782 0.0
C106 C 0.02486 1.00493 0.59568 0.0
C107 C 0.11117 0.11728 0.53763 0.0
C108 C 0.13581 0.13639 0.50914 0.0
C109 C 0.16153 0.17303 0.51314 0.0
C110 C 0.18699 0.19082 0.48712 0.0
C111 C 0.18729 0.172 0.4569 0.0
C112 C 0.16081 0.13559 0.45265 0.0
C113 C 0.1351 0.118 0.47846 0.0
C114 C 0.01025 1.01139 0.50537 0.0
C115 C 0.98009 0.09519 0.5076 0.0
O116 O 0.92436 0.97231 0.55689 0.0
O117 O 0.901 1.01524 0.56484 0.0
O118 O 0.00869 0.06505 0.58755 0.0
O119 O 0.95684 0.07329 0.58978 0.0
O120 O 0.98891 0.9939 0.5833 0.0
O121 O 0.04943 0.03884 0.58968 0.0
O122 O 0.08087 0.126 0.54282 0.0
O123 O 0.1033 0.08161 0.54017 0.0
O124 O 0.9956 1.03401 0.51489 0.0
O125 O 0.04634 1.02342 0.51478 0.0
O126 O 0.01654 0.10465 0.51821 0.0
O127 O 0.9536 0.06264 0.51528 0.0
H128 H 0.83875 0.91106 0.56461 0.0
H129 H 0.80021 0.877 0.61267 0.0
H130 H 0.86133 0.96872 0.67914 0.0
H131 H 0.90071 1.00155 0.63149 0.0
H132 H 0.16239 0.18764 0.53663 0.0
H133 H 0.20719 0.21887 0.49101 0.0
H134 H 0.16008 0.1207 0.42936 0.0
H135 H 0.11516 0.08982 0.47467 0.0
Tb136 Tb 0.55129 0.06845 0.06626 0.0
Tb137 Tb 0.46705 1.02852 0.05197 0.0
C138 C 0.61889 0.1151 0.07462 0.0
C139 C 0.64285 0.1361 0.10337 0.0
C140 C 0.65994 0.17478 0.1008 0.0
C141 C 0.68234 0.19532 0.12793 0.0
C142 C 0.68825 0.17747 0.15809 0.0
C143 C 0.67155 0.13862 0.16033 0.0
C144 C 0.64893 0.11814 0.13334 0.0
C145 C 0.51843 1.00886 0.10525 0.0
C146 C 0.48928 0.09419 0.10162 0.0
C147 C 0.39994 0.98035 1.04667 0.0
C148 C 0.37536 0.95554 1.02032 0.0
C149 C 0.35831 0.91745 1.02734 0.0
C150 C 0.3339 0.89357 1.00307 0.0
C151 C 0.32596 0.90747 0.97141 0.0
C152 C 0.34308 0.94571 0.96455 0.0
C153 C 0.36768 0.96946 0.98865 0.0
C154 C 0.49937 0.08799 1.01264 0.0
C155 C 0.52911 1.00488 1.01408 0.0
O156 O 0.58929 0.12402 0.0651 0.0
O157 O 0.61028 0.07927 0.07521 0.0
O158 O 0.50373 1.03211 0.09562 0.0
O159 O 0.554 1.02069 0.09587 0.0
O160 O 0.52527 0.10361 0.09126 0.0
O161 O 0.46285 0.06146 0.09456 0.0
O162 O 0.42997 0.97302 0.05798 0.0
O163 O 0.40798 1.01586 1.04197 0.0
O164 O 0.5145 0.06522 1.02281 0.0
O165 O 0.46337 0.07522 1.02105 0.0
O166 O 0.49316 0.99467 1.02487 0.0
O167 O 0.55537 0.03751 1.02199 0.0
H168 H 0.65562 0.18916 0.0779 0.0
H169 H 0.6943 0.22522 0.12553 0.0
H170 H 0.67598 0.12395 0.18297 0.0
H171 H 0.63617 0.08829 0.13605 0.0
H172 H 0.36383 0.90618 0.05167 0.0
H173 H 0.32155 0.86424 1.009 0.0
H174 H 0.33705 0.95749 0.9407 0.0
H175 H 0.38033 0.99874 0.98252 0.0
Tb176 Tb 0.50555 0.58268 0.57718 0.0
Tb177 Tb 0.49321 0.51034 0.54612 0.0
C178 C 0.49589 0.64098 0.59342 0.0
C179 C 0.46367 0.64839 0.60864 0.0
C180 C 0.45251 0.67674 0.59485 0.0
C181 C 0.42001 0.68229 0.607 0.0
C182 C 0.39803 0.6595 0.63318 0.0
C183 C 0.40955 0.6313 0.64717 0.0
C184 C 0.44206 0.62578 0.635 0.0
C185 C 0.53412 0.54038 0.6143 0.0
C186 C 0.42574 0.51348 0.58924 0.0
C187 C 0.50224 0.45196 0.52935 0.0
C188 C 0.53585 0.44387 0.51801 0.0
C189 C 0.54746 0.41825 0.53665 0.0
C190 C 0.58096 0.41221 0.52812 0.0
C191 C 0.60345 0.43156 0.50061 0.0
C192 C 0.59143 0.45686 0.48165 0.0
C193 C 0.558 0.46301 0.4903 0.0
C194 C 0.46511 0.55321 0.509 0.0
C195 C 0.57342 0.5786 0.53524 0.0
O196 O 0.48854 0.62695 0.56276 0.0
O197 O 0.51423 0.62462 0.61301 0.0
O198 O 0.50246 0.52994 0.59739 0.0
O199 O 0.55005 0.57621 0.61205 0.0
O200 O 0.44504 0.54976 0.59063 0.0
O201 O 0.44046 0.49131 0.57475 0.0
O202 O 0.50464 0.46304 0.56096 0.0
O203 O 0.48847 0.47119 0.5084 0.0
O204 O 0.49667 0.56319 0.52598 0.0
O205 O 0.44889 0.51739 0.51123 0.0
O206 O 0.55453 0.54226 0.53538 0.0
O207 O 0.55798 0.60129 0.54773 0.0
H208 H 0.4687 0.69431 0.57435 0.0
H209 H 0.41227 0.70462 0.59607 0.0
H210 H 0.39302 0.61306 0.66712 0.0
H211 H 0.44989 0.60346 0.64582 0.0
H212 H 0.53098 0.40342 0.5583 0.0
H213 H 0.58962 0.39289 0.54354 0.0
H214 H 0.60772 0.47181 0.45999 0.0
H215 H 0.54985 0.48309 0.47553 0.0
Tb216 Tb 0.00873 0.58667 1.0343 0.0
Tb217 Tb 0.00557 0.5241 0.08082 0.0
C218 C 0.99148 0.63244 0.99722 0.0
C219 C 0.95704 0.64241 0.99314 0.0
C220 C 0.92213 0.6207 1.00841 0.0
C221 C 0.88847 0.6282 1.00164 0.0
C222 C 0.88921 0.65743 0.9794 0.0
C223 C 0.92462 0.67976 0.96507 0.0
C224 C 0.95824 0.67226 0.97187 0.0
C225 C 0.07524 0.59589 0.06697 0.0
C226 C 0.97377 0.5812 0.1089 0.0
C227 C 0.02115 0.47647 0.1165 0.0
C228 C 0.05263 0.46172 0.11755 0.0
C229 C 0.07274 0.4623 0.14854 0.0
C230 C 0.10385 0.45017 0.1502 0.0
C231 C 0.11541 0.43686 0.12088 0.0
C232 C 0.0951 0.43618 0.08977 0.0
C233 C 0.06402 0.44856 0.0881 0.0
C234 C 0.93941 0.51624 1.04804 0.0
C235 C 0.0407 0.52947 1.00652 0.0
O236 O 0.98648 0.59884 0.98785 0.0
O237 O 0.01084 0.64116 1.02625 0.0
O238 O 0.04172 0.5812 0.07868 0.0
O239 O 0.07228 0.60891 1.03665 0.0
O240 O 0.97292 0.59203 0.07657 0.0
O241 O 0.98935 0.55654 0.11767 0.0
O242 O 0.03138 0.51116 0.12513 0.0
O243 O 0.99732 0.46823 0.08996 0.0
O244 O 0.97297 0.52966 1.03639 0.0
O245 O 0.94185 0.50415 0.07883 0.0
O246 O 0.04161 0.51867 1.03882 0.0
O247 O 0.02497 0.55397 0.99775 0.0
H248 H 0.92067 0.59731 1.02472 0.0
H249 H 0.86161 0.61029 1.01281 0.0
H250 H 0.92622 0.70281 0.94824 0.0
H251 H 0.98498 0.68924 0.9599 0.0
H252 H 0.06469 0.47267 0.17148 0.0
H253 H 0.11927 0.45185 0.17442 0.0
H254 H 0.10298 0.42582 0.06678 0.0
H255 H 0.04909 0.44795 0.06378 0.0
H256 H 0.31483 0.21112 0.27092 0.0
H257 H 0.3535 0.3202 0.31481 0.0
H258 H 0.27663 0.18547 0.32102 0.0
H259 H 0.31584 0.29437 0.36575 0.0
H260 H 0.20498 0.24108 0.42863 0.0
H261 H 0.24958 0.26889 0.38235 0.0
H262 H 0.27933 0.17102 0.37982 0.0
H263 H 0.23385 0.143 0.42518 0.0
C264 C 0.3159 0.22947 0.29174 0.0
C265 C 0.33731 0.26762 0.28907 0.0
C266 C 0.29399 0.21477 0.32052 0.0
C267 C 0.29315 0.23782 0.34752 0.0
C268 C 0.31537 0.27592 0.34522 0.0
C269 C 0.3371 0.2907 0.31619 0.0
C270 C 0.22132 0.22574 0.41824 0.0
C271 C 0.21572 0.18978 0.43013 0.0
C272 C 0.24702 0.24169 0.39188 0.0
C273 C 0.26793 0.22212 0.37718 0.0
C274 C 0.26312 0.18658 0.38999 0.0
C275 C 0.23713 0.17052 0.41601 0.0
H276 H 0.18535 0.83462 0.79197 0.0
H277 H 0.18288 0.73047 0.83592 0.0
H278 H 0.21893 0.86662 0.84267 0.0
H279 H 0.21772 0.76336 0.88694 0.0
H280 H 0.25843 0.8478 0.98161 0.0
H281 H 0.21423 0.8092 0.93781 0.0
H282 H 0.29017 0.87282 0.8591 0.0
H283 H 0.33483 0.91034 0.90235 0.0
C284 C 0.19069 0.81824 0.8129 0.0
C285 C 0.1814 0.77985 0.8098 0.0
C286 C 0.21043 0.83677 0.84179 0.0
C287 C 0.22137 0.81747 0.86828 0.0
C288 C 0.20958 0.77876 0.86668 0.0
C289 C 0.18983 0.76006 0.83751 0.0
C290 C 0.26598 0.85314 0.95498 0.0
C291 C 0.29994 0.8825 0.94544 0.0
C292 C 0.24061 0.83116 0.93003 0.0
C293 C 0.24864 0.83856 0.89526 0.0
C294 C 0.28301 0.86712 0.8858 0.0
C295 C 0.30847 0.88868 0.91058 0.0
H296 H 0.62156 0.46892 0.80272 0.0
H297 H 0.56197 0.36673 0.74971 0.0
H298 H 0.60499 0.50343 0.75584 0.0
H299 H 0.54653 0.40109 0.70212 0.0
H300 H 0.49225 0.46955 0.63617 0.0
H301 H 0.50844 0.43451 0.68288 0.0
H302 H 0.61761 0.52487 0.69943 0.0
H303 H 0.60052 0.56017 0.65358 0.0
C304 C 0.60513 0.45379 0.78092 0.0
C305 C 0.59311 0.41497 0.78004 0.0
C306 C 0.59579 0.47365 0.75375 0.0
C307 C 0.57436 0.45535 0.7247 0.0
C308 C 0.56246 0.41642 0.72401 0.0
C309 C 0.57157 0.3966 0.75128 0.0
C310 C 0.51979 0.48181 0.64971 0.0
C311 C 0.54503 0.51774 0.64114 0.0
C312 C 0.52926 0.46162 0.67653 0.0
C313 C 0.56443 0.47664 0.69546 0.0
C314 C 0.58993 0.51241 0.68623 0.0
C315 C 0.5803 0.53264 0.65961 0.0
H316 H 0.87668 0.63726 0.29313 0.0
H317 H 0.93615 0.74141 0.24189 0.0
H318 H 0.89245 0.60437 0.24665 0.0
H319 H 0.95237 0.70869 0.19559 0.0
H320 H 0.94511 0.6373 0.10244 0.0
H321 H 0.92426 0.66769 0.14779 0.0
H322 H 0.94768 0.59464 0.22266 0.0
H323 H 0.96804 0.564 0.17742 0.0
C324 C 0.89313 0.65317 0.27195 0.0
C325 C 0.90516 0.69202 0.27121 0.0
C326 C 0.90236 0.6343 0.24532 0.0
C327 C 0.92369 0.65377 0.21718 0.0
C328 C 0.93545 0.69264 0.21649 0.0
C329 C 0.92639 0.71147 0.24316 0.0
C330 C 0.94553 0.62748 0.12853 0.0
C331 C 0.9584 0.59816 0.13613 0.0
C332 C 0.93381 0.64512 0.15463 0.0
C333 C 0.93442 0.63384 0.18906 0.0
C334 C 0.94641 0.60393 0.1965 0.0
C335 C 0.9583 0.58642 0.17046 0.0
H336 H 0.45259 0.25886 0.23042 0.0
H337 H 0.37417 0.24538 0.14364 0.0
H338 H 0.4789 0.21614 0.20497 0.0
H339 H 0.40045 0.20263 0.11818 0.0
H340 H 0.41589 0.09001 0.11397 0.0
H341 H 0.39582 0.13761 0.13753 0.0
H342 H 0.51559 0.20857 0.15225 0.0
H343 H 0.536 0.16091 0.12833 0.0
C344 C 0.44146 0.24716 0.20565 0.0
C345 C 0.41132 0.25526 0.18898 0.0
C346 C 0.45657 0.22287 0.19108 0.0
C347 C 0.4414 0.20585 0.15983 0.0
C348 C 0.41233 0.21511 0.14251 0.0
C349 C 0.39758 0.23979 0.15687 0.0
C350 C 0.43805 0.11557 0.12251 0.0
C351 C 0.47757 0.12163 0.11932 0.0
C352 C 0.4265 0.14297 0.13565 0.0
C353 C 0.45416 0.1769 0.14628 0.0
C354 C 0.4937 0.18264 0.14416 0.0
C355 C 0.50533 0.15535 0.13054 0.0
H356 H 0.08577 0.81434 0.65168 0.0
H357 H 0.15008 0.89893 0.72349 0.0
H358 H 0.05489 0.85588 0.62727 0.0
H359 H 0.11868 0.93967 0.70022 0.0
H360 H 0.09713 1.01858 0.62265 0.0
H361 H 0.12253 0.97475 0.64881 0.0
H362 H 0.00989 0.88771 0.63853 0.0
H363 H 0.98443 0.93175 0.61118 0.0
C364 C 0.093 0.84164 0.66237 0.0
C365 C 0.12052 0.85371 0.68918 0.0
C366 C 0.07518 0.86531 0.64862 0.0
C367 C 0.08459 0.90122 0.66162 0.0
C368 C 0.11135 0.91255 0.6891 0.0
C369 C 0.12923 0.88916 0.70254 0.0
C370 C 0.07754 0.99023 0.62622 0.0
C371 C 0.03868 0.97874 0.61493 0.0
C372 C 0.09213 0.96504 0.64137 0.0
C373 C 0.06822 0.9277 0.64588 0.0
C374 C 0.02914 0.9162 0.63509 0.0
C375 C 0.01448 0.94151 0.61976 0.0
H376 H 0.70616 0.39242 0.97732 0.0
H377 H 0.75736 0.45353 0.88624 0.0
H378 H 0.7654 0.42325 1.00928 0.0
H379 H 0.81589 0.48739 0.91929 0.0
H380 H 0.93142 0.50978 0.97849 0.0
H381 H 0.87153 0.48442 0.94464 0.0
H382 H 0.80561 0.47466 1.03621 0.0
H383 H 0.86569 0.49746 0.06999 0.0
C384 C 0.73001 0.41258 0.96396 0.0
C385 C 0.72678 0.41967 0.92875 0.0
C386 C 0.76409 0.43108 0.9827 0.0
C387 C 0.79606 0.45821 0.96724 0.0
C388 C 0.79243 0.46631 0.93224 0.0
C389 C 0.75842 0.44719 0.91325 0.0
C390 C 0.90403 0.50229 0.99125 0.0
C391 C 0.90317 0.50505 1.02694 0.0
C392 C 0.86948 0.48794 0.97179 0.0
C393 C 0.83312 0.47671 0.98744 0.0
C394 C 0.83267 0.4816 1.02307 0.0
C395 C 0.86718 0.49509 1.04256 0.0
H396 H 0.74909 0.65173 0.38082 0.0
H397 H 0.81073 0.70261 0.47312 0.0
H398 H 0.69171 0.61889 0.41427 0.0
H399 H 0.75301 0.67078 0.5061 0.0
H400 H 0.62647 0.64942 0.5388 0.0
H401 H 0.68696 0.67624 0.50811 0.0
H402 H 0.66696 0.57046 0.46213 0.0
H403 H 0.60651 0.54346 0.49304 0.0
C404 C 0.75069 0.65556 0.40824 0.0
C405 C 0.78456 0.68031 0.42408 0.0
C406 C 0.71772 0.63681 0.42739 0.0
C407 C 0.7177 0.6426 0.46276 0.0
C408 C 0.75189 0.66627 0.47879 0.0
C409 C 0.78494 0.68462 0.45978 0.0
C410 C 0.63505 0.63176 0.52238 0.0
C411 C 0.61151 0.59427 0.51838 0.0
C412 C 0.66983 0.64711 0.5049 0.0
C413 C 0.6817 0.62549 0.48263 0.0
C414 C 0.65844 0.5879 0.47889 0.0
C415 C 0.62391 0.57239 0.49678 0.0
H416 H 0.29939 0.34741 0.0969 0.0
H417 H 0.31602 0.39641 0.19708 0.0
H418 H 0.24541 0.36878 0.08524 0.0
H419 H 0.26245 0.41728 0.18554 0.0
H420 H 0.13358 0.39716 0.17263 0.0
H421 H 0.1903 0.37993 0.17858 0.0
H422 H 0.22896 0.42871 0.07972 0.0
H423 H 0.17248 0.44712 0.07399 0.0
C424 C 0.2919 0.36319 0.11614 0.0
C425 C 0.31157 0.36981 0.14799 0.0
C426 C 0.26112 0.37539 0.10948 0.0
C427 C 0.24943 0.39411 0.13474 0.0
C428 C 0.27041 0.40228 0.16588 0.0
C429 C 0.30121 0.39041 0.1724 0.0
C430 C 0.15428 0.40462 0.15225 0.0
C431 C 0.14868 0.42403 0.12305 0.0
C432 C 0.18672 0.39463 0.15564 0.0
C433 C 0.21424 0.40343 0.1298 0.0
C434 C 0.20812 0.42158 0.09999 0.0
C435 C 0.17571 0.43196 0.09671 0.0
H436 H 0.58646 0.27686 0.86701 0.0
H437 H 0.62999 0.31516 0.96855 0.0
H438 H 0.55257 0.21448 0.89082 0.0
H439 H 0.59849 0.25284 0.99119 0.0
H440 H 0.5764 0.12192 0.99771 0.0
H441 H 0.60767 0.18192 0.9687 0.0
H442 H 0.49628 0.1913 0.9513 0.0
H443 H 0.46512 0.13227 0.98166 0.0
C444 C 0.58894 0.27226 0.89422 0.0
C445 C 0.61186 0.30139 0.91552 0.0
C446 C 0.56975 0.23643 0.90776 0.0
C447 C 0.57357 0.22882 0.94273 0.0
C448 C 0.5957 0.25781 0.96405 0.0
C449 C 0.61404 0.29357 0.95082 0.0
C450 C 0.5586 0.13678 0.98776 0.0
C451 C 0.51835 0.12257 0.99245 0.0
C452 C 0.57646 0.17096 0.97097 0.0
C453 C 0.55431 0.19107 0.95761 0.0
C454 C 0.51395 0.17621 0.9611 0.0
C455 C 0.49621 0.1425 0.9786 0.0
H456 H 0.83953 0.81201 0.41811 0.0
H457 H 0.94878 0.8044 0.39214 0.0
H458 H 0.87334 0.87166 0.44378 0.0
H459 H 0.98279 0.86599 0.41513 0.0
H460 H 0.03507 0.95454 0.49611 0.0
H461 H 0.00201 0.89683 0.46609 0.0
H462 H 0.90784 0.9338 0.43905 0.0
H463 H 0.94022 0.99052 0.47114 0.0
C464 C 0.87087 0.82319 0.41755 0.0
C465 C 0.89131 0.80268 0.40362 0.0
C466 C 0.89041 0.85801 0.43186 0.0
C467 C 0.93113 0.87405 0.43207 0.0
C468 C 0.95152 0.85442 0.4164 0.0
C469 C 0.93192 0.81918 0.40257 0.0
C470 C 0.00728 0.95024 0.4837 0.0
C471 C 0.99018 0.97696 0.48601 0.0
C472 C 0.98837 0.9172 0.4661 0.0
C473 C 0.95203 0.91019 0.44976 0.0
C474 C 0.93532 0.9375 0.45171 0.0
C475 C 0.95398 0.97027 0.46991 0.0
H476 H 0.17749 0.68695 0.67382 0.0
H477 H 0.26419 0.75361 0.74587 0.0
H478 H 0.22544 0.66421 0.65058 0.0
H479 H 0.31118 0.73069 0.7233 0.0
H480 H 0.3771 0.65829 0.69965 0.0
H481 H 0.32317 0.67219 0.72159 0.0
H482 H 0.28798 0.68973 0.61847 0.0
H483 H 0.34141 0.67468 0.59635 0.0
C484 C 0.2066 0.69658 0.68476 0.0
C485 C 0.21674 0.72144 0.71217 0.0
C486 C 0.23398 0.6836 0.6715 0.0
C487 C 0.27187 0.69524 0.68552 0.0
C488 C 0.28197 0.72041 0.71258 0.0
C489 C 0.25488 0.73346 0.72559 0.0
C490 C 0.3575 0.66445 0.6816 0.0
C491 C 0.36373 0.6657 0.64628 0.0
C492 C 0.32679 0.67271 0.69418 0.0
C493 C 0.30158 0.68237 0.67175 0.0
C494 C 0.30684 0.68222 0.63635 0.0
C495 C 0.33769 0.67406 0.62374 0.0
H496 H 0.658 0.77646 0.79314 0.0
H497 H 0.70987 0.88325 0.84084 0.0
H498 H 0.69915 0.7999 0.7434 0.0
H499 H 0.75086 0.90653 0.79142 0.0
H500 H 0.84844 0.91831 0.71749 0.0
H501 H 0.80636 0.89154 0.76544 0.0
H502 H 0.70794 0.85036 0.6959 0.0
H503 H 0.7496 0.87829 0.64782 0.0
C504 C 0.67806 0.80493 0.79286 0.0
C505 C 0.68065 0.82814 0.82065 0.0
C506 C 0.70144 0.81833 0.76447 0.0
C507 C 0.72826 0.85492 0.76375 0.0
C508 C 0.73066 0.8781 0.79149 0.0
C509 C 0.70695 0.86491 0.81957 0.0
C510 C 0.81781 0.90382 0.71232 0.0
C511 C 0.80243 0.90086 0.67873 0.0
C512 C 0.79378 0.88837 0.7398 0.0
C513 C 0.75393 0.86915 0.73432 0.0
C514 C 0.73865 0.86487 0.70075 0.0
C515 C 0.7626 0.88075 0.67324 0.0
H516 H 0.85938 0.31488 0.30686 0.0
H517 H 0.7465 0.29558 0.3477 0.0
H518 H 0.82842 0.2777 0.25694 0.0
H519 H 0.71591 0.26046 0.29746 0.0
H520 H 0.67207 0.16489 0.22587 0.0
H521 H 0.70708 0.20123 0.27426 0.0
H522 H 0.78864 0.27726 0.20569 0.0
H523 H 0.75468 0.23959 0.15713 0.0
C524 C 0.82805 0.30304 0.30504 0.0
C525 C 0.80546 0.30842 0.33117 0.0
C526 C 0.81033 0.28202 0.27636 0.0
C527 C 0.76971 0.26592 0.27336 0.0
C528 C 0.74726 0.27194 0.29921 0.0
C529 C 0.76487 0.2927 0.32779 0.0
C530 C 0.69785 0.18896 0.22106 0.0
C531 C 0.7105 0.19933 0.18758 0.0
C532 C 0.71764 0.21012 0.24881 0.0
C533 C 0.75039 0.2424 0.2438 0.0
C534 C 0.7636 0.25245 0.21041 0.0
C535 C 0.74386 0.23112 0.18257 0.0
H536 H 0.47805 0.70833 0.34032 0.0
H537 H 0.35523 0.64834 0.3486 0.0
H538 H 0.49048 0.67329 0.3887 0.0
H539 H 0.36731 0.61399 0.39799 0.0
H540 H 0.40452 0.53143 0.46265 0.0
H541 H 0.39025 0.56736 0.41581 0.0
H542 H 0.48799 0.66351 0.44779 0.0
H543 H 0.50305 0.62687 0.49365 0.0
C544 C 0.45361 0.68781 0.35273 0.0
C545 C 0.41569 0.68114 0.34042 0.0
C546 C 0.4607 0.66779 0.3808 0.0
C547 C 0.43001 0.64056 0.39776 0.0
C548 C 0.3919 0.63418 0.38553 0.0
C549 C 0.38486 0.6541 0.35722 0.0
C550 C 0.42287 0.5603 0.45975 0.0
C551 C 0.45496 0.57619 0.48198 0.0
C552 C 0.41453 0.58112 0.4329 0.0
C553 C 0.43792 0.61863 0.42751 0.0
C554 C 0.46958 0.63465 0.4504 0.0
C555 C 0.47805 0.61371 0.47709 0.0
H556 H 0.06776 0.41342 0.82509 0.0
H557 H 0.18111 0.45268 0.87389 0.0
H558 H 0.0431 0.44019 0.87105 0.0
H559 H 0.15656 0.47921 0.91984 0.0
H560 H 0.08759 0.48857 1.01374 0.0
H561 H 0.11105 0.45978 0.96868 0.0
H562 H 0.0519 0.50328 0.8925 0.0
H563 H 0.02849 0.532 0.93735 0.0
C564 C 0.08735 0.42759 0.84569 0.0
C565 C 0.1264 0.4309 0.8459 0.0
C566 C 0.0733 0.44311 0.87196 0.0
C567 C 0.09784 0.46185 0.89923 0.0
C568 C 0.13675 0.46466 0.89951 0.0
C569 C 0.15086 0.44961 0.87308 0.0
C570 C 0.0796 0.49202 0.9874 0.0
C571 C 0.05619 0.51273 0.97927 0.0
C572 C 0.09318 0.47562 0.96153 0.0
C573 C 0.08325 0.47907 0.92691 0.0
C574 C 0.05975 0.49967 0.91886 0.0
C575 C 0.04661 0.51644 0.94464 0.0
H576 H 0.56769 0.85101 0.87196 0.0
H577 H 0.63587 0.85062 0.96326 0.0
H578 H 0.5433 0.89467 0.89868 0.0
H579 H 0.61183 0.8944 0.98976 0.0
H580 H 0.60237 1.00883 1.00192 0.0
H581 H 0.62202 0.96322 0.97383 0.0
H582 H 0.50215 0.89638 0.95285 0.0
H583 H 0.48211 0.94189 0.98152 0.0
C584 C 0.57717 0.86009 0.8978 0.0
C585 C 0.60358 0.84751 0.91562 0.0
C586 C 0.56316 0.88487 0.91306 0.0
C587 C 0.57593 0.89796 0.94612 0.0
C588 C 0.6018 0.88487 0.96413 0.0
C589 C 0.61529 0.85967 0.94911 0.0
C590 C 0.58012 0.98465 0.99103 0.0
C591 C 0.54067 0.97896 0.99394 0.0
C592 C 0.59142 0.95843 0.9752 0.0
C593 C 0.56356 0.92624 0.9615 0.0
C594 C 0.52413 0.92105 0.96325 0.0
C595 C 0.51274 0.94704 0.97964 0.0
H596 H 0.99254 0.30571 0.42092 0.0
H597 H 0.87019 0.24829 0.43491 0.0
H598 H 0.00493 0.25101 0.44076 0.0
H599 H 0.88146 0.19228 0.45146 0.0
H600 H 0.91568 0.11065 0.51665 0.0
H601 H 0.9016 0.16301 0.49355 0.0
H602 H 0.00385 0.19346 0.43163 0.0
H603 H 0.01945 0.14285 0.4577 0.0
C604 C 0.9683 0.28102 0.42789 0.0
C605 C 0.93062 0.28118 0.42708 0.0
C606 C 0.97519 0.24937 0.43884 0.0
C607 C 0.94426 0.21669 0.44794 0.0
C608 C 0.90631 0.21689 0.44583 0.0
C609 C 0.89967 0.24896 0.43611 0.0
C610 C 0.93474 0.12836 0.49772 0.0
C611 C 0.96853 0.12286 0.48884 0.0
C612 C 0.92666 0.15846 0.48423 0.0
C613 C 0.95162 0.18311 0.46062 0.0
C614 C 0.98444 0.17608 0.45044 0.0
C615 C 0.99319 0.14671 0.46493 0.0
H616 H 0.24592 0.676 0.23378 0.0
H617 H 0.31518 0.68609 0.1449 0.0
H618 H 0.18701 0.64777 0.199 0.0
H619 H 0.25679 0.65614 0.11028 0.0
H620 H 0.14681 0.6432 1.04869 0.0
H621 H 0.20544 0.66677 0.08408 0.0
H622 H 0.14506 0.59798 0.1684 0.0
H623 H 0.08577 0.57641 0.13329 0.0
C624 C 0.2485 0.67144 0.20689 0.0
C625 C 0.28513 0.68348 0.19203 0.0
C626 C 0.21469 0.65508 0.18683 0.0
C627 C 0.21666 0.64976 0.15145 0.0
C628 C 0.25364 0.66055 0.13707 0.0
C629 C 0.2873 0.67748 0.15699 0.0
C630 C 0.14612 0.63302 0.07476 0.0
C631 C 0.11159 0.60785 0.08811 0.0
C632 C 0.17997 0.64632 0.09514 0.0
C633 C 0.18053 0.63439 0.12941 0.0
C634 C 0.14597 0.60847 0.14245 0.0
C635 C 0.11192 0.59563 0.12216 0.0
H636 H 0.24263 0.36052 0.70912 0.0
H637 H 0.20747 0.4549 0.70008 0.0
H638 H 0.30043 0.39361 0.67682 0.0
H639 H 0.26506 0.48802 0.66683 0.0
H640 H 0.3919 0.5468 0.63292 0.0
H641 H 0.33445 0.51723 0.66703 0.0
H642 H 0.31714 0.41256 0.61965 0.0
H643 H 0.37505 0.44182 0.58659 0.0
C644 C 0.24732 0.38842 0.70017 0.0
C645 C 0.22037 0.405 0.70695 0.0
C646 C 0.28035 0.40736 0.6814 0.0
C647 C 0.28723 0.44334 0.66857 0.0
C648 C 0.2609 0.46046 0.6764 0.0
C649 C 0.22789 0.44152 0.69548 0.0
C650 C 0.37571 0.51755 0.62965 0.0
C651 C 0.38845 0.4967 0.60723 0.0
C652 C 0.34261 0.50055 0.64917 0.0
C653 C 0.32133 0.46228 0.6466 0.0
C654 C 0.3333 0.44184 0.62312 0.0
C655 C 0.36644 0.45875 0.60384 0.0
H656 H 0.68183 0.66382 0.87444 0.0
H657 H 0.69405 0.73104 0.96375 0.0
H658 H 0.73683 0.64784 0.89455 0.0
H659 H 0.74946 0.71564 0.98361 0.0
H660 H 0.83041 0.65596 1.02109 0.0
H661 H 0.7703 0.66506 1.00454 0.0
H662 H 0.80661 0.68237 0.8996 0.0
H663 H 0.86584 0.67224 0.91589 0.0
C664 C 0.69608 0.67485 0.89854 0.0
C665 C 0.68389 0.6988 0.91739 0.0
C666 C 0.72771 0.66595 0.90993 0.0
C667 C 0.74777 0.68083 0.94047 0.0
C668 C 0.73448 0.70357 0.96009 0.0
C669 C 0.70284 0.71252 0.94863 0.0
C670 C 0.82534 0.66144 0.99447 0.0
C671 C 0.85294 0.66354 0.96982 0.0
C672 C 0.79109 0.66691 0.98505 0.0
C673 C 0.78364 0.67428 0.95075 0.0
C674 C 0.81121 0.67623 0.92616 0.0
C675 C 0.84543 0.67094 0.93557 0.0
H676 H 0.4169 0.77519 0.1586 0.0
H677 H 0.39586 0.82778 0.24782 0.0
H678 H 0.45096 0.83597 0.13251 0.0
H679 H 0.4294 0.88895 0.2214 0.0
H680 H 0.54412 0.95202 0.11419 0.0
H681 H 0.51263 0.8927 0.14339 0.0
H682 H 0.41699 0.92542 0.16767 0.0
H683 H 0.44841 0.98492 0.13771 0.0
C684 C 0.42006 0.79985 0.17279 0.0
C685 C 0.40415 0.79676 0.2054 0.0
C686 C 0.43948 0.83466 0.15785 0.0
C687 C 0.44279 0.86736 0.17479 0.0
C688 C 0.42713 0.8643 0.20759 0.0
C689 C 0.40833 0.82936 0.22287 0.0
C690 C 0.51639 0.94664 0.12578 0.0
C691 C 0.49876 0.97318 0.12362 0.0
C692 C 0.49829 0.91257 0.14244 0.0
C693 C 0.46232 0.90429 0.15795 0.0
C694 C 0.44486 0.93107 0.15625 0.0
C695 C 0.46271 0.96503 0.13897 0.0
H696 H 0.14872 0.2674 0.72399 0.0
H697 H 0.05386 0.3018 0.69502 0.0
H698 H 0.11604 0.20809 0.69614 0.0
H699 H 0.02187 0.24356 0.66511 0.0
H700 H 0.95825 0.12572 0.63219 0.0
H701 H 0.98828 0.18089 0.66649 0.0
H702 H 0.10139 0.17963 0.64403 0.0
H703 H 0.07074 0.1228 0.61183 0.0
C704 C 0.12068 0.26206 0.71166 0.0
C705 C 0.10366 0.28901 0.71183 0.0
C706 C 0.10207 0.22821 0.69523 0.0
C707 C 0.06624 0.22067 0.67777 0.0
C708 C 0.04899 0.24766 0.67861 0.0
C709 C 0.06732 0.28124 0.69569 0.0
C710 C 0.98955 0.13714 0.63486 0.0
C711 C 0.01215 0.12001 0.6192 0.0
C712 C 0.00692 0.16912 0.65432 0.0
C713 C 0.04754 0.1854 0.65814 0.0
C714 C 0.07008 0.16792 0.64244 0.0
C715 C 0.05257 0.13544 0.62355 0.0
H716 H 0.78889 0.34701 0.47624 0.0
H717 H 0.79477 0.41913 0.3892 0.0
H718 H 0.74106 0.36763 0.50185 0.0
H719 H 0.74633 0.43919 0.41447 0.0
H720 H 0.67281 0.48277 0.48005 0.0
H721 H 0.73037 0.47145 0.46303 0.0
H722 H 0.67244 0.35471 0.48424 0.0
H723 H 0.61483 0.36575 0.50058 0.0
C724 C 0.78071 0.36798 0.46301 0.0
C725 C 0.79535 0.38134 0.43065 0.0
C726 C 0.75302 0.37945 0.47748 0.0
C727 C 0.73961 0.40463 0.45994 0.0
C728 C 0.7562 0.41986 0.42865 0.0
C729 C 0.78374 0.40824 0.4141 0.0
C730 C 0.6723 0.45466 0.48092 0.0
C731 C 0.63912 0.42513 0.49156 0.0
C732 C 0.70534 0.44826 0.47137 0.0
C733 C 0.70597 0.41226 0.47251 0.0
C734 C 0.6731 0.38288 0.48374 0.0
C735 C 0.64004 0.38922 0.49307 0.0
loop_
_geom_bond_atom_site_label_1
_geom_bond_atom_site_label_2
_geom_bond_distance
_geom_bond_site_symmetry_2
_ccdc_geom_bond_type
H0 C5 0.930 . S
H1 C8 0.930 . S
H2 C10 0.930 . S
H3 C4 1.016 . S
C4 H3 1.016 . S
C4 N11 1.286 . S
C5 H0 0.930 . S
C5 C6 1.397 . S
C5 C7 1.361 . S
C6 C5 1.397 . S
C6 C10 1.390 . S
C7 C5 1.361 . S
C7 C8 1.393 . S
C7 N11 1.413 . S
C8 H1 0.930 . S
C8 C7 1.393 . S
C8 C9 1.399 . S
C9 C8 1.399 . S
C9 C10 1.381 . S
C10 H2 0.930 . S
C10 C6 1.390 . S
C10 C9 1.381 . S
N11 C4 1.286 . S
N11 C7 1.413 . S
H12 C17 0.930 . S
H13 C20 0.930 . S
H14 C22 0.930 . S
H15 C16 1.016 . S
C16 H15 1.016 . S
C16 N23 1.286 . S
C17 H12 0.930 . S
C17 C18 1.397 . S
C17 C19 1.361 . S
C18 C17 1.397 . S
C18 C22 1.390 . S
C19 C17 1.361 . S
C19 C20 1.393 . S
C19 N23 1.413 . S
C20 H13 0.930 . S
C20 C19 1.393 . S
C20 C21 1.399 . S
C21 C20 1.399 . S
C21 C22 1.381 . S
C22 H14 0.930 . S
C22 C18 1.390 . S
C22 C21 1.381 . S
N23 C16 1.286 . S
N23 C19 1.413 . S
H24 C29 0.930 . S
H25 C32 0.930 . S
H26 C34 0.930 . S
H27 C28 1.016 . S
C28 H27 1.016 . S
C28 N35 1.286 . S
C29 H24 0.930 . S
C29 C30 1.397 . S
C29 C31 1.361 . S
C30 C29 1.397 . S
C30 C34 1.390 . S
C31 C29 1.361 . S
C31 C32 1.393 . S
C31 N35 1.413 . S
C32 H25 0.930 . S
C32 C31 1.393 . S
C32 C33 1.399 . S
C33 C32 1.399 . S
C33 C34 1.381 . S
C34 H26 0.930 . S
C34 C30 1.390 . S
C34 C33 1.381 . S
N35 C28 1.286 . S
N35 C31 1.413 . S
H36 C41 0.930 . S
H37 C44 0.930 . S
H38 C46 0.930 . S
H39 C40 1.016 . S
C40 H39 1.016 . S
C40 N47 1.286 . S
C41 H36 0.930 . S
C41 C42 1.397 . S
C41 C43 1.361 . S
C42 C41 1.397 . S
C42 C46 1.390 . S
C43 C41 1.361 . S
C43 C44 1.393 . S
C43 N47 1.413 . S
C44 H37 0.930 . S
C44 C43 1.393 . S
C44 C45 1.399 . S
C45 C44 1.399 . S
C45 C46 1.381 . S
C46 H38 0.930 . S
C46 C42 1.390 . S
C46 C45 1.381 . S
N47 C40 1.286 . S
N47 C43 1.413 . S
H48 C53 0.930 . S
H49 C56 0.930 . S
H50 C58 0.930 . S
H51 C52 1.016 . S
C52 H51 1.016 . S
C52 N59 1.286 . S
C53 H48 0.930 . S
C53 C54 1.397 . S
C53 C55 1.361 . S
C54 C53 1.397 . S
C54 C58 1.390 . S
C55 C53 1.361 . S
C55 C56 1.393 . S
C55 N59 1.413 . S
C56 H49 0.930 . S
C56 C55 1.393 . S
C56 C57 1.399 . S
C57 C56 1.399 . S
C57 C58 1.381 . S
C58 H50 0.930 . S
C58 C54 1.390 . S
C58 C57 1.381 . S
N59 C52 1.286 . S
N59 C55 1.413 . S
H60 C65 0.930 . S
H61 C68 0.930 . S
H62 C70 0.930 . S
H63 C64 1.016 . S
C64 H63 1.016 . S
C64 N71 1.286 . S
C65 H60 0.930 . S
C65 C66 1.397 . S
C65 C67 1.361 . S
C66 C65 1.397 . S
C66 C70 1.390 . S
C67 C65 1.361 . S
C67 C68 1.393 . S
C67 N71 1.413 . S
C68 H61 0.930 . S
C68 C67 1.393 . S
C68 C69 1.399 . S
C69 C68 1.399 . S
C69 C70 1.381 . S
C70 H62 0.930 . S
C70 C66 1.390 . S
C70 C69 1.381 . S
N71 C64 1.286 . S
N71 C67 1.413 . S
H72 C77 0.930 . S
H73 C80 0.930 . S
H74 C82 0.930 . S
H75 C76 1.016 . S
C76 H75 1.016 . S
C76 N83 1.286 . S
C77 H72 0.930 . S
C77 C78 1.397 . S
C77 C79 1.361 . S
C78 C77 1.397 . S
C78 C82 1.390 . S
C79 C77 1.361 . S
C79 C80 1.393 . S
C79 N83 1.413 . S
C80 H73 0.930 . S
C80 C79 1.393 . S
C80 C81 1.399 . S
C81 C80 1.399 . S
C81 C82 1.381 . S
C82 H74 0.930 . S
C82 C78 1.390 . S
C82 C81 1.381 . S
N83 C76 1.286 . S
N83 C79 1.413 . S
H84 C89 0.930 . S
H85 C92 0.930 . S
H86 C94 0.930 . S
H87 C88 1.016 . S
C88 H87 1.016 . S
C88 N95 1.286 . S
C89 H84 0.930 . S
C89 C90 1.397 . S
C89 C91 1.361 . S
C90 C89 1.397 . S
C90 C94 1.390 . S
C91 C89 1.361 . S
C91 C92 1.393 . S
C91 N95 1.413 . S
C92 H85 0.930 . S
C92 C91 1.393 . S
C92 C93 1.399 . S
C93 C92 1.399 . S
C93 C94 1.381 . S
C94 H86 0.930 . S
C94 C90 1.390 . S
C94 C93 1.381 . S
N95 C88 1.286 . S
N95 C91 1.413 . S
Tb96 C98 2.805 1_545 S
Tb96 O116 2.478 1_545 S
Tb96 O117 2.439 1_545 S
Tb96 O118 2.660 1_655 S
Tb96 O119 2.413 . S
Tb96 O120 2.374 1_545 S
Tb96 O124 2.320 1_545 S
Tb96 O127 2.346 . S
Tb97 C107 2.809 . S
Tb97 O118 2.325 . S
Tb97 O121 2.341 1_545 S
Tb97 O122 2.484 . S
Tb97 O123 2.440 . S
Tb97 O124 2.658 1_445 S
Tb97 O125 2.409 1_545 S
Tb97 O126 2.378 . S
C98 Tb96 2.805 1_565 S
C98 C99 1.514 . S
C98 O116 1.248 . S
C98 O117 1.266 . S
C99 C98 1.514 . S
C99 C100 1.359 . S
C99 C104 1.348 . S
C100 C99 1.359 . S
C100 C101 1.380 . S
C100 H128 0.929 . S
C101 C100 1.380 . S
C101 C102 1.347 . S
C101 H129 0.931 . S
C102 C101 1.347 . S
C102 C103 1.369 . S
C103 C102 1.369 . S
C103 C104 1.408 . S
C103 H130 0.930 . S
C104 C99 1.348 . S
C104 C103 1.408 . S
C104 H131 0.930 . S
C105 O118 1.281 . S
C105 O119 1.254 1_455 S
C106 O120 1.236 1_455 S
C106 O121 1.266 . S
C107 Tb97 2.809 . S
C107 C108 1.514 . S
C107 O122 1.248 . S
C107 O123 1.266 . S
C108 C107 1.514 . S
C108 C109 1.359 . S
C108 C113 1.348 . S
C109 C108 1.359 . S
C109 C110 1.380 . S
C109 H132 0.929 . S
C110 C109 1.380 . S
C110 C111 1.347 . S
C110 H133 0.931 . S
C111 C110 1.347 . S
C111 C112 1.369 . S
C112 C111 1.369 . S
C112 C113 1.408 . S
C112 H134 0.930 . S
C113 C108 1.348 . S
C113 C112 1.408 . S
C113 H135 0.930 . S
C114 O124 1.281 . S
C114 O125 1.254 1_655 S
C115 O126 1.236 1_655 S
C115 O127 1.266 . S
O116 Tb96 2.478 1_565 S
O116 C98 1.248 . S
O117 Tb96 2.439 1_565 S
O117 C98 1.266 . S
O118 Tb96 2.660 1_455 S
O118 Tb97 2.325 . S
O118 C105 1.281 . S
O119 Tb96 2.413 . S
O119 C105 1.254 1_655 S
O120 Tb96 2.374 1_565 S
O120 C106 1.236 1_655 S
O121 Tb97 2.341 1_565 S
O121 C106 1.266 . S
O122 Tb97 2.484 . S
O122 C107 1.248 . S
O123 Tb97 2.440 . S
O123 C107 1.266 . S
O124 Tb96 2.320 1_565 S
O124 Tb97 2.658 1_665 S
O124 C114 1.281 . S
O125 Tb97 2.409 1_565 S
O125 C114 1.254 1_455 S
O126 Tb97 2.378 . S
O126 C115 1.236 1_455 S
O127 Tb96 2.346 . S
O127 C115 1.266 . S
H128 C100 0.929 . S
H129 C101 0.931 . S
H130 C103 0.930 . S
H131 C104 0.930 . S
H132 C109 0.929 . S
H133 C110 0.931 . S
H134 C112 0.930 . S
H135 C113 0.930 . S
Tb136 C138 2.809 . S
Tb136 O156 2.484 . S
Tb136 O157 2.440 . S
Tb136 O158 2.658 1_545 S
Tb136 O159 2.409 1_545 S
Tb136 O160 2.378 . S
Tb136 O164 2.325 1_554 S
Tb136 O167 2.341 1_544 S
Tb137 C147 2.809 1_545 S
Tb137 O158 2.325 1_546 S
Tb137 O161 2.341 1_556 S
Tb137 O162 2.484 1_545 S
Tb137 O163 2.440 1_545 S
Tb137 O164 2.658 . S
Tb137 O165 2.409 . S
Tb137 O166 2.378 1_545 S
C138 Tb136 2.809 . S
C138 C139 1.514 . S
C138 O156 1.248 . S
C138 O157 1.266 . S
C139 C138 1.514 . S
C139 C140 1.359 . S
C139 C144 1.348 . S
C140 C139 1.359 . S
C140 C141 1.380 . S
C140 H168 0.929 . S
C141 C140 1.380 . S
C141 C142 1.347 . S
C141 H169 0.931 . S
C142 C141 1.347 . S
C142 C143 1.369 . S
C143 C142 1.369 . S
C143 C144 1.408 . S
C143 H170 0.930 . S
C144 C139 1.348 . S
C144 C143 1.408 . S
C144 H171 0.930 . S
C145 O158 1.281 . S
C145 O159 1.254 . S
C146 O160 1.236 . S
C146 O161 1.266 . S
C147 Tb137 2.809 1_565 S
C147 C148 1.514 . S
C147 O162 1.248 . S
C147 O163 1.266 . S
C148 C147 1.514 . S
C148 C149 1.359 . S
C148 C153 1.348 . S
C149 C148 1.359 . S
C149 C150 1.380 . S
C149 H172 0.929 . S
C150 C149 1.380 . S
C150 C151 1.347 . S
C150 H173 0.931 . S
C151 C150 1.347 . S
C151 C152 1.369 . S
C152 C151 1.369 . S
C152 C153 1.408 . S
C152 H174 0.930 . S
C153 C148 1.348 . S
C153 C152 1.408 . S
C153 H175 0.930 . S
C154 O164 1.281 . S
C154 O165 1.254 . S
C155 O166 1.236 . S
C155 O167 1.266 . S
O156 Tb136 2.484 . S
O156 C138 1.248 . S
O157 Tb136 2.440 . S
O157 C138 1.266 . S
O158 Tb136 2.658 1_565 S
O158 Tb137 2.325 1_564 S
O158 C145 1.281 . S
O159 Tb136 2.409 1_565 S
O159 C145 1.254 . S
O160 Tb136 2.378 . S
O160 C146 1.236 . S
O161 Tb137 2.341 1_554 S
O161 C146 1.266 . S
O162 Tb137 2.484 1_565 S
O162 C147 1.248 . S
O163 Tb137 2.440 1_565 S
O163 C147 1.266 . S
O164 Tb136 2.325 1_556 S
O164 Tb137 2.658 . S
O164 C154 1.281 . S
O165 Tb137 2.409 . S
O165 C154 1.254 . S
O166 Tb137 2.378 1_565 S
O166 C155 1.236 . S
O167 Tb136 2.341 1_566 S
O167 C155 1.266 . S
H168 C140 0.929 . S
H169 C141 0.931 . S
H170 C143 0.930 . S
H171 C144 0.930 . S
H172 C149 0.929 . S
H173 C150 0.931 . S
H174 C152 0.930 . S
H175 C153 0.930 . S
Tb176 C178 2.809 . S
Tb176 O196 2.484 . S
Tb176 O197 2.440 . S
Tb176 O198 2.658 . S
Tb176 O199 2.409 . S
Tb176 O200 2.378 . S
Tb176 O204 2.325 . S
Tb176 O207 2.341 . S
Tb177 C187 2.809 . S
Tb177 O198 2.325 . S
Tb177 O201 2.341 . S
Tb177 O202 2.484 . S
Tb177 O203 2.440 . S
Tb177 O204 2.658 . S
Tb177 O205 2.409 . S
Tb177 O206 2.378 . S
C178 Tb176 2.809 . S
C178 C179 1.514 . S
C178 O196 1.248 . S
C178 O197 1.266 . S
C179 C178 1.514 . S
C179 C180 1.359 . S
C179 C184 1.348 . S
C180 C179 1.359 . S
C180 C181 1.380 . S
C180 H208 0.929 . S
C181 C180 1.380 . S
C181 C182 1.347 . S
C181 H209 0.931 . S
C182 C181 1.347 . S
C182 C183 1.369 . S
C183 C182 1.369 . S
C183 C184 1.408 . S
C183 H210 0.930 . S
C184 C179 1.348 . S
C184 C183 1.408 . S
C184 H211 0.930 . S
C185 O198 1.281 . S
C185 O199 1.254 . S
C186 O200 1.236 . S
C186 O201 1.266 . S
C187 Tb177 2.809 . S
C187 C188 1.514 . S
C187 O202 1.248 . S
C187 O203 1.266 . S
C188 C187 1.514 . S
C188 C189 1.359 . S
C188 C193 1.348 . S
C189 C188 1.359 . S
C189 C190 1.380 . S
C189 H212 0.929 . S
C190 C189 1.380 . S
C190 C191 1.347 . S
C190 H213 0.931 . S
C191 C190 1.347 . S
C191 C192 1.369 . S
C192 C191 1.369 . S
C192 C193 1.408 . S
C192 H214 0.930 . S
C193 C188 1.348 . S
C193 C192 1.408 . S
C193 H215 0.930 . S
C194 O204 1.281 . S
C194 O205 1.254 . S
C195 O206 1.236 . S
C195 O207 1.266 . S
O196 Tb176 2.484 . S
O196 C178 1.248 . S
O197 Tb176 2.440 . S
O197 C178 1.266 . S
O198 Tb176 2.658 . S
O198 Tb177 2.325 . S
O198 C185 1.281 . S
O199 Tb176 2.409 . S
O199 C185 1.254 . S
O200 Tb176 2.378 . S
O200 C186 1.236 . S
O201 Tb177 2.341 . S
O201 C186 1.266 . S
O202 Tb177 2.484 . S
O202 C187 1.248 . S
O203 Tb177 2.440 . S
O203 C187 1.266 . S
O204 Tb176 2.325 . S
O204 Tb177 2.658 . S
O204 C194 1.281 . S
O205 Tb177 2.409 . S
O205 C194 1.254 . S
O206 Tb177 2.378 . S
O206 C195 1.236 . S
O207 Tb176 2.341 . S
O207 C195 1.266 . S
H208 C180 0.929 . S
H209 C181 0.931 . S
H210 C183 0.930 . S
H211 C184 0.930 . S
H212 C189 0.929 . S
H213 C190 0.931 . S
H214 C192 0.930 . S
H215 C193 0.930 . S
Tb216 C218 2.809 1_455 S
Tb216 O236 2.484 1_455 S
Tb216 O237 2.440 . S
Tb216 O238 2.658 1_556 S
Tb216 O239 2.409 1_556 S
Tb216 O240 2.378 1_456 S
Tb216 O244 2.325 1_455 S
Tb216 O247 2.341 . S
Tb217 C227 2.809 . S
Tb217 O238 2.325 . S
Tb217 O241 2.341 1_455 S
Tb217 O242 2.484 . S
Tb217 O243 2.440 . S
Tb217 O244 2.658 1_454 S
Tb217 O245 2.409 1_454 S
Tb217 O246 2.378 1_554 S
C218 Tb216 2.809 1_655 S
C218 C219 1.514 . S
C218 O236 1.248 . S
C218 O237 1.266 1_655 S
C219 C218 1.514 . S
C219 C220 1.359 . S
C219 C224 1.348 . S
C220 C219 1.359 . S
C220 C221 1.380 . S
C220 H248 0.929 . S
C221 C220 1.380 . S
C221 C222 1.347 . S
C221 H249 0.931 . S
C222 C221 1.347 . S
C222 C223 1.369 . S
C223 C222 1.369 . S
C223 C224 1.408 . S
C223 H250 0.930 . S
C224 C219 1.348 . S
C224 C223 1.408 . S
C224 H251 0.938 . S
C225 O238 1.281 . S
C225 O239 1.254 . S
C226 O240 1.236 . S
C226 O241 1.266 . S
C227 Tb217 2.809 . S
C227 C228 1.514 . S
C227 O242 1.248 . S
C227 O243 1.266 . S
C228 C227 1.514 . S
C228 C229 1.359 . S
C228 C233 1.348 . S
C229 C228 1.359 . S
C229 C230 1.380 . S
C229 H252 0.929 . S
C230 C229 1.380 . S
C230 C231 1.347 . S
C230 H253 0.931 . S
C231 C230 1.347 . S
C231 C232 1.369 . S
C232 C231 1.369 . S
C232 C233 1.408 . S
C232 H254 0.930 . S
C233 C228 1.348 . S
C233 C232 1.408 . S
C233 H255 0.930 . S
C234 O244 1.281 . S
C234 O245 1.254 . S
C235 O246 1.236 . S
C235 O247 1.266 . S
O236 Tb216 2.484 1_655 S
O236 C218 1.248 . S
O237 Tb216 2.440 . S
O237 C218 1.266 1_455 S
O238 Tb216 2.658 1_554 S
O238 Tb217 2.325 . S
O238 C225 1.281 . S
O239 Tb216 2.409 1_554 S
O239 C225 1.254 . S
O240 Tb216 2.378 1_654 S
O240 C226 1.236 . S
O241 Tb217 2.341 1_655 S
O241 C226 1.266 . S
O242 Tb217 2.484 . S
O242 C227 1.248 . S
O243 Tb217 2.440 . S
O243 C227 1.266 . S
O244 Tb216 2.325 1_655 S
O244 Tb217 2.658 1_656 S
O244 C234 1.281 . S
O245 Tb217 2.409 1_656 S
O245 C234 1.254 . S
O246 Tb217 2.378 1_556 S
O246 C235 1.236 . S
O247 Tb216 2.341 . S
O247 C235 1.266 . S
H248 C220 0.929 . S
H249 C221 0.931 . S
H250 C223 0.930 . S
H251 C224 0.938 . S
H252 C229 0.929 . S
H253 C230 0.931 . S
H254 C232 0.930 . S
H255 C233 0.930 . S
H256 C264 0.950 . S
H257 C269 0.950 . S
H258 C266 0.950 . S
H259 C268 0.950 . S
H260 C270 0.950 . S
H261 C272 0.950 . S
H262 C274 0.950 . S
H263 C275 0.950 . S
C264 H256 0.950 . S
C264 C265 1.386 . S
C264 C266 1.391 . S
C265 C264 1.386 . S
C265 C269 1.393 . S
C266 H258 0.950 . S
C266 C264 1.391 . S
C266 C267 1.400 . S
C267 C266 1.400 . S
C267 C268 1.398 . S
C267 C273 1.491 . S
C268 H259 0.950 . S
C268 C267 1.398 . S
C268 C269 1.391 . S
C269 H257 0.950 . S
C269 C265 1.393 . S
C269 C268 1.391 . S
C270 H260 0.950 . S
C270 C271 1.386 . S
C270 C272 1.391 . S
C271 C270 1.386 . S
C271 C275 1.393 . S
C272 H261 0.950 . S
C272 C270 1.391 . S
C272 C273 1.400 . S
C273 C267 1.491 . S
C273 C272 1.400 . S
C273 C274 1.398 . S
C274 H262 0.950 . S
C274 C273 1.398 . S
C274 C275 1.391 . S
C275 H263 0.950 . S
C275 C271 1.393 . S
C275 C274 1.391 . S
H276 C284 0.950 . S
H277 C289 0.950 . S
H278 C286 0.950 . S
H279 C288 0.950 . S
H280 C290 0.950 . S
H281 C292 0.950 . S
H282 C294 0.950 . S
H283 C295 0.950 . S
C284 H276 0.950 . S
C284 C285 1.386 . S
C284 C286 1.391 . S
C285 C284 1.386 . S
C285 C289 1.393 . S
C286 H278 0.950 . S
C286 C284 1.391 . S
C286 C287 1.400 . S
C287 C286 1.400 . S
C287 C288 1.398 . S
C287 C293 1.491 . S
C288 H279 0.950 . S
C288 C287 1.398 . S
C288 C289 1.391 . S
C289 H277 0.950 . S
C289 C285 1.393 . S
C289 C288 1.391 . S
C290 H280 0.950 . S
C290 C291 1.386 . S
C290 C292 1.391 . S
C291 C290 1.386 . S
C291 C295 1.393 . S
C292 H281 0.950 . S
C292 C290 1.391 . S
C292 C293 1.400 . S
C293 C287 1.491 . S
C293 C292 1.400 . S
C293 C294 1.398 . S
C294 H282 0.950 . S
C294 C293 1.398 . S
C294 C295 1.391 . S
C295 H283 0.950 . S
C295 C291 1.393 . S
C295 C294 1.391 . S
H296 C304 0.950 . S
H297 C309 0.950 . S
H298 C306 0.950 . S
H299 C308 0.950 . S
H300 C310 0.950 . S
H301 C312 0.950 . S
H302 C314 0.950 . S
H303 C315 0.950 . S
C304 H296 0.950 . S
C304 C305 1.386 . S
C304 C306 1.391 . S
C305 C304 1.386 . S
C305 C309 1.393 . S
C306 H298 0.950 . S
C306 C304 1.391 . S
C306 C307 1.400 . S
C307 C306 1.400 . S
C307 C308 1.398 . S
C307 C313 1.491 . S
C308 H299 0.950 . S
C308 C307 1.398 . S
C308 C309 1.391 . S
C309 H297 0.950 . S
C309 C305 1.393 . S
C309 C308 1.391 . S
C310 H300 0.950 . S
C310 C311 1.386 . S
C310 C312 1.391 . S
C311 C310 1.386 . S
C311 C315 1.393 . S
C312 H301 0.950 . S
C312 C310 1.391 . S
C312 C313 1.400 . S
C313 C307 1.491 . S
C313 C312 1.400 . S
C313 C314 1.398 . S
C314 H302 0.950 . S
C314 C313 1.398 . S
C314 C315 1.391 . S
C315 H303 0.950 . S
C315 C311 1.393 . S
C315 C314 1.391 . S
H316 C324 0.950 . S
H317 C329 0.950 . S
H318 C326 0.950 . S
H319 C328 0.950 . S
H320 C330 0.950 . S
H321 C332 0.950 . S
H322 C334 0.950 . S
H323 C335 0.950 . S
C324 H316 0.950 . S
C324 C325 1.386 . S
C324 C326 1.391 . S
C325 C324 1.386 . S
C325 C329 1.393 . S
C326 H318 0.950 . S
C326 C324 1.391 . S
C326 C327 1.400 . S
C327 C326 1.400 . S
C327 C328 1.398 . S
C327 C333 1.491 . S
C328 H319 0.950 . S
C328 C327 1.398 . S
C328 C329 1.391 . S
C329 H317 0.950 . S
C329 C325 1.393 . S
C329 C328 1.391 . S
C330 H320 0.950 . S
C330 C331 1.386 . S
C330 C332 1.391 . S
C331 C330 1.386 . S
C331 C335 1.393 . S
C332 H321 0.950 . S
C332 C330 1.391 . S
C332 C333 1.400 . S
C333 C327 1.491 . S
C333 C332 1.400 . S
C333 C334 1.398 . S
C334 H322 0.950 . S
C334 C333 1.398 . S
C334 C335 1.391 . S
C335 H323 0.950 . S
C335 C331 1.393 . S
C335 C334 1.391 . S
H336 C344 0.950 . S
H337 C349 0.950 . S
H338 C346 0.950 . S
H339 C348 0.950 . S
H340 C350 0.950 . S
H341 C352 0.950 . S
H342 C354 0.950 . S
H343 C355 0.950 . S
C344 H336 0.950 . S
C344 C345 1.386 . S
C344 C346 1.391 . S
C345 C344 1.386 . S
C345 C349 1.393 . S
C346 H338 0.950 . S
C346 C344 1.391 . S
C346 C347 1.400 . S
C347 C346 1.400 . S
C347 C348 1.398 . S
C347 C353 1.491 . S
C348 H339 0.950 . S
C348 C347 1.398 . S
C348 C349 1.391 . S
C349 H337 0.950 . S
C349 C345 1.393 . S
C349 C348 1.391 . S
C350 H340 0.950 . S
C350 C351 1.386 . S
C350 C352 1.391 . S
C351 C350 1.386 . S
C351 C355 1.393 . S
C352 H341 0.950 . S
C352 C350 1.391 . S
C352 C353 1.400 . S
C353 C347 1.491 . S
C353 C352 1.400 . S
C353 C354 1.398 . S
C354 H342 0.950 . S
C354 C353 1.398 . S
C354 C355 1.391 . S
C355 H343 0.950 . S
C355 C351 1.393 . S
C355 C354 1.391 . S
H356 C364 0.950 1_655 S
H357 C369 0.950 . S
H358 C366 0.950 1_655 S
H359 C368 0.950 . S
H360 C370 0.950 . S
H361 C372 0.950 . S
H362 C374 0.950 . S
H363 C375 0.950 . S
C364 H356 0.950 1_455 S
C364 C365 1.386 . S
C364 C366 1.391 . S
C365 C364 1.386 . S
C365 C369 1.393 . S
C366 H358 0.950 1_455 S
C366 C364 1.391 . S
C366 C367 1.400 . S
C367 C366 1.400 . S
C367 C368 1.398 . S
C367 C373 1.491 . S
C368 H359 0.950 . S
C368 C367 1.398 . S
C368 C369 1.391 . S
C369 H357 0.950 . S
C369 C365 1.393 . S
C369 C368 1.391 . S
C370 H360 0.950 . S
C370 C371 1.386 . S
C370 C372 1.391 . S
C371 C370 1.386 . S
C371 C375 1.393 1_455 S
C372 H361 0.950 . S
C372 C370 1.391 . S
C372 C373 1.400 . S
C373 C367 1.491 . S
C373 C372 1.400 . S
C373 C374 1.398 1_455 S
C374 H362 0.950 . S
C374 C373 1.398 1_655 S
C374 C375 1.391 . S
C375 H363 0.950 . S
C375 C371 1.393 1_655 S
C375 C374 1.391 . S
H376 C384 0.950 . S
H377 C389 0.950 . S
H378 C386 0.950 . S
H379 C388 0.950 . S
H380 C390 0.950 . S
H381 C392 0.950 . S
H382 C394 0.950 . S
H383 C395 0.950 . S
C384 H376 0.950 . S
C384 C385 1.386 . S
C384 C386 1.391 . S
C385 C384 1.386 . S
C385 C389 1.393 . S
C386 H378 0.950 . S
C386 C384 1.391 . S
C386 C387 1.400 . S
C387 C386 1.400 . S
C387 C388 1.398 . S
C387 C393 1.491 . S
C388 H379 0.950 . S
C388 C387 1.398 . S
C388 C389 1.391 . S
C389 H377 0.950 . S
C389 C385 1.393 . S
C389 C388 1.391 . S
C390 H380 0.950 . S
C390 C391 1.386 . S
C390 C392 1.391 . S
C391 C390 1.386 . S
C391 C395 1.393 . S
C392 H381 0.950 . S
C392 C390 1.391 . S
C392 C393 1.400 . S
C393 C387 1.491 . S
C393 C392 1.400 . S
C393 C394 1.398 . S
C394 H382 0.950 . S
C394 C393 1.398 . S
C394 C395 1.391 . S
C395 H383 0.950 . S
C395 C391 1.393 . S
C395 C394 1.391 . S
H396 C404 0.950 . S
H397 C409 0.950 . S
H398 C406 0.950 . S
H399 C408 0.950 . S
H400 C410 0.950 . S
H401 C412 0.950 . S
H402 C414 0.950 . S
H403 C415 0.950 . S
C404 H396 0.950 . S
C404 C405 1.386 . S
C404 C406 1.391 . S
C405 C404 1.386 . S
C405 C409 1.393 . S
C406 H398 0.950 . S
C406 C404 1.391 . S
C406 C407 1.400 . S
C407 C406 1.400 . S
C407 C408 1.398 . S
C407 C413 1.491 . S
C408 H399 0.950 . S
C408 C407 1.398 . S
C408 C409 1.391 . S
C409 H397 0.950 . S
C409 C405 1.393 . S
C409 C408 1.391 . S
C410 H400 0.950 . S
C410 C411 1.386 . S
C410 C412 1.391 . S
C411 C410 1.386 . S
C411 C415 1.393 . S
C412 H401 0.950 . S
C412 C410 1.391 . S
C412 C413 1.400 . S
C413 C407 1.491 . S
C413 C412 1.400 . S
C413 C414 1.398 . S
C414 H402 0.950 . S
C414 C413 1.398 . S
C414 C415 1.391 . S
C415 H403 0.950 . S
C415 C411 1.393 . S
C415 C414 1.391 . S
H416 C424 0.950 . S
H417 C429 0.950 . S
H418 C426 0.950 . S
H419 C428 0.950 . S
H420 C430 0.950 . S
H421 C432 0.950 . S
H422 C434 0.950 . S
H423 C435 0.950 . S
C424 H416 0.950 . S
C424 C425 1.386 . S
C424 C426 1.391 . S
C425 C424 1.386 . S
C425 C429 1.393 . S
C426 H418 0.950 . S
C426 C424 1.391 . S
C426 C427 1.400 . S
C427 C426 1.400 . S
C427 C428 1.398 . S
C427 C433 1.491 . S
C428 H419 0.950 . S
C428 C427 1.398 . S
C428 C429 1.391 . S
C429 H417 0.950 . S
C429 C425 1.393 . S
C429 C428 1.391 . S
C430 H420 0.950 . S
C430 C431 1.386 . S
C430 C432 1.391 . S
C431 C430 1.386 . S
C431 C435 1.393 . S
C432 H421 0.950 . S
C432 C430 1.391 . S
C432 C433 1.400 . S
C433 C427 1.491 . S
C433 C432 1.400 . S
C433 C434 1.398 . S
C434 H422 0.950 . S
C434 C433 1.398 . S
C434 C435 1.391 . S
C435 H423 0.950 . S
C435 C431 1.393 . S
C435 C434 1.391 . S
H436 C444 0.950 . S
H437 C449 0.950 . S
H438 C446 0.950 . S
H439 C448 0.950 . S
H440 C450 0.950 . S
H441 C452 0.950 . S
H442 C454 0.950 . S
H443 C455 0.950 . S
C444 H436 0.950 . S
C444 C445 1.386 . S
C444 C446 1.391 . S
C445 C444 1.386 . S
C445 C449 1.393 . S
C446 H438 0.950 . S
C446 C444 1.391 . S
C446 C447 1.400 . S
C447 C446 1.400 . S
C447 C448 1.398 . S
C447 C453 1.491 . S
C448 H439 0.950 . S
C448 C447 1.398 . S
C448 C449 1.391 . S
C449 H437 0.950 . S
C449 C445 1.393 . S
C449 C448 1.391 . S
C450 H440 0.950 . S
C450 C451 1.386 . S
C450 C452 1.391 . S
C451 C450 1.386 . S
C451 C455 1.393 . S
C452 H441 0.950 . S
C452 C450 1.391 . S
C452 C453 1.400 . S
C453 C447 1.491 . S
C453 C452 1.400 . S
C453 C454 1.398 . S
C454 H442 0.950 . S
C454 C453 1.398 . S
C454 C455 1.391 . S
C455 H443 0.950 . S
C455 C451 1.393 . S
C455 C454 1.391 . S
H456 C464 0.950 . S
H457 C469 0.950 . S
H458 C466 0.950 . S
H459 C468 0.950 . S
H460 C470 0.950 . S
H461 C472 0.950 . S
H462 C474 0.950 . S
H463 C475 0.950 . S
C464 H456 0.950 . S
C464 C465 1.386 . S
C464 C466 1.391 . S
C465 C464 1.386 . S
C465 C469 1.393 . S
C466 H458 0.950 . S
C466 C464 1.391 . S
C466 C467 1.400 . S
C467 C466 1.400 . S
C467 C468 1.398 . S
C467 C473 1.491 . S
C468 H459 0.950 . S
C468 C467 1.398 . S
C468 C469 1.391 . S
C469 H457 0.950 . S
C469 C465 1.393 . S
C469 C468 1.391 . S
C470 H460 0.950 . S
C470 C471 1.386 . S
C470 C472 1.391 . S
C471 C470 1.386 . S
C471 C475 1.393 . S
C472 H461 0.950 . S
C472 C470 1.391 . S
C472 C473 1.400 . S
C473 C467 1.491 . S
C473 C472 1.400 . S
C473 C474 1.398 . S
C474 H462 0.950 . S
C474 C473 1.398 . S
C474 C475 1.391 . S
C475 H463 0.950 . S
C475 C471 1.393 . S
C475 C474 1.391 . S
H476 C484 0.950 . S
H477 C489 0.950 . S
H478 C486 0.950 . S
H479 C488 0.950 . S
H480 C490 0.950 . S
H481 C492 0.950 . S
H482 C494 0.950 . S
H483 C495 0.950 . S
C484 H476 0.950 . S
C484 C485 1.386 . S
C484 C486 1.391 . S
C485 C484 1.386 . S
C485 C489 1.393 . S
C486 H478 0.950 . S
C486 C484 1.391 . S
C486 C487 1.400 . S
C487 C486 1.400 . S
C487 C488 1.398 . S
C487 C493 1.491 . S
C488 H479 0.950 . S
C488 C487 1.398 . S
C488 C489 1.391 . S
C489 H477 0.950 . S
C489 C485 1.393 . S
C489 C488 1.391 . S
C490 H480 0.950 . S
C490 C491 1.386 . S
C490 C492 1.391 . S
C491 C490 1.386 . S
C491 C495 1.393 . S
C492 H481 0.950 . S
C492 C490 1.391 . S
C492 C493 1.400 . S
C493 C487 1.491 . S
C493 C492 1.400 . S
C493 C494 1.398 . S
C494 H482 0.950 . S
C494 C493 1.398 . S
C494 C495 1.391 . S
C495 H483 0.950 . S
C495 C491 1.393 . S
C495 C494 1.391 . S
H496 C504 0.950 . S
H497 C509 0.950 . S
H498 C506 0.950 . S
H499 C508 0.950 . S
H500 C510 0.950 . S
H501 C512 0.950 . S
H502 C514 0.950 . S
H503 C515 0.950 . S
C504 H496 0.950 . S
C504 C505 1.386 . S
C504 C506 1.391 . S
C505 C504 1.386 . S
C505 C509 1.393 . S
C506 H498 0.950 . S
C506 C504 1.391 . S
C506 C507 1.400 . S
C507 C506 1.400 . S
C507 C508 1.398 . S
C507 C513 1.491 . S
C508 H499 0.950 . S
C508 C507 1.398 . S
C508 C509 1.391 . S
C509 H497 0.950 . S
C509 C505 1.393 . S
C509 C508 1.391 . S
C510 H500 0.950 . S
C510 C511 1.386 . S
C510 C512 1.391 . S
C511 C510 1.386 . S
C511 C515 1.393 . S
C512 H501 0.950 . S
C512 C510 1.391 . S
C512 C513 1.400 . S
C513 C507 1.491 . S
C513 C512 1.400 . S
C513 C514 1.398 . S
C514 H502 0.950 . S
C514 C513 1.398 . S
C514 C515 1.391 . S
C515 H503 0.950 . S
C515 C511 1.393 . S
C515 C514 1.391 . S
H516 C524 0.950 . S
H517 C529 0.950 . S
H518 C526 0.950 . S
H519 C528 0.950 . S
H520 C530 0.950 . S
H521 C532 0.950 . S
H522 C534 0.950 . S
H523 C535 0.950 . S
C524 H516 0.950 . S
C524 C525 1.386 . S
C524 C526 1.391 . S
C525 C524 1.386 . S
C525 C529 1.393 . S
C526 H518 0.950 . S
C526 C524 1.391 . S
C526 C527 1.400 . S
C527 C526 1.400 . S
C527 C528 1.398 . S
C527 C533 1.491 . S
C528 H519 0.950 . S
C528 C527 1.398 . S
C528 C529 1.391 . S
C529 H517 0.950 . S
C529 C525 1.393 . S
C529 C528 1.391 . S
C530 H520 0.950 . S
C530 C531 1.386 . S
C530 C532 1.391 . S
C531 C530 1.386 . S
C531 C535 1.393 . S
C532 H521 0.950 . S
C532 C530 1.391 . S
C532 C533 1.400 . S
C533 C527 1.491 . S
C533 C532 1.400 . S
C533 C534 1.398 . S
C534 H522 0.950 . S
C534 C533 1.398 . S
C534 C535 1.391 . S
C535 H523 0.950 . S
C535 C531 1.393 . S
C535 C534 1.391 . S
H536 C544 0.950 . S
H537 C549 0.950 . S
H538 C546 0.950 . S
H539 C548 0.950 . S
H540 C550 0.950 . S
H541 C552 0.950 . S
H542 C554 0.950 . S
H543 C555 0.950 . S
C544 H536 0.950 . S
C544 C545 1.386 . S
C544 C546 1.391 . S
C545 C544 1.386 . S
C545 C549 1.393 . S
C546 H538 0.950 . S
C546 C544 1.391 . S
C546 C547 1.400 . S
C547 C546 1.400 . S
C547 C548 1.398 . S
C547 C553 1.491 . S
C548 H539 0.950 . S
C548 C547 1.398 . S
C548 C549 1.391 . S
C549 H537 0.950 . S
C549 C545 1.393 . S
C549 C548 1.391 . S
C550 H540 0.950 . S
C550 C551 1.386 . S
C550 C552 1.391 . S
C551 C550 1.386 . S
C551 C555 1.393 . S
C552 H541 0.950 . S
C552 C550 1.391 . S
C552 C553 1.400 . S
C553 C547 1.491 . S
C553 C552 1.400 . S
C553 C554 1.398 . S
C554 H542 0.950 . S
C554 C553 1.398 . S
C554 C555 1.391 . S
C555 H543 0.950 . S
C555 C551 1.393 . S
C555 C554 1.391 . S
H556 C564 0.950 . S
H557 C569 0.950 . S
H558 C566 0.950 . S
H559 C568 0.950 . S
H560 C570 0.950 . S
H561 C572 0.950 . S
H562 C574 0.950 . S
H563 C575 0.950 . S
C564 H556 0.950 . S
C564 C565 1.386 . S
C564 C566 1.391 . S
C565 C564 1.386 . S
C565 C569 1.393 . S
C566 H558 0.950 . S
C566 C564 1.391 . S
C566 C567 1.400 . S
C567 C566 1.400 . S
C567 C568 1.398 . S
C567 C573 1.491 . S
C568 H559 0.950 . S
C568 C567 1.398 . S
C568 C569 1.391 . S
C569 H557 0.950 . S
C569 C565 1.393 . S
C569 C568 1.391 . S
C570 H560 0.950 . S
C570 C571 1.386 . S
C570 C572 1.391 . S
C571 C570 1.386 . S
C571 C575 1.393 . S
C572 H561 0.950 . S
C572 C570 1.391 . S
C572 C573 1.400 . S
C573 C567 1.491 . S
C573 C572 1.400 . S
C573 C574 1.398 . S
C574 H562 0.950 . S
C574 C573 1.398 . S
C574 C575 1.391 . S
C575 H563 0.950 . S
C575 C571 1.393 . S
C575 C574 1.391 . S
H576 C584 0.950 . S
H577 C589 0.950 . S
H578 C586 0.950 . S
H579 C588 0.950 . S
H580 C590 0.950 . S
H581 C592 0.950 . S
H582 C594 0.950 . S
H583 C595 0.950 . S
C584 H576 0.950 . S
C584 C585 1.386 . S
C584 C586 1.391 . S
C585 C584 1.386 . S
C585 C589 1.393 . S
C586 H578 0.950 . S
C586 C584 1.391 . S
C586 C587 1.400 . S
C587 C586 1.400 . S
C587 C588 1.398 . S
C587 C593 1.491 . S
C588 H579 0.950 . S
C588 C587 1.398 . S
C588 C589 1.391 . S
C589 H577 0.950 . S
C589 C585 1.393 . S
C589 C588 1.391 . S
C590 H580 0.950 . S
C590 C591 1.386 . S
C590 C592 1.391 . S
C591 C590 1.386 . S
C591 C595 1.393 . S
C592 H581 0.950 . S
C592 C590 1.391 . S
C592 C593 1.400 . S
C593 C587 1.491 . S
C593 C592 1.400 . S
C593 C594 1.398 . S
C594 H582 0.950 . S
C594 C593 1.398 . S
C594 C595 1.391 . S
C595 H583 0.950 . S
C595 C591 1.393 . S
C595 C594 1.391 . S
H596 C604 0.950 1_455 S
H597 C609 0.950 . S
H598 C606 0.950 1_455 S
H599 C608 0.950 . S
H600 C610 0.950 . S
H601 C612 0.950 . S
H602 C614 0.950 1_455 S
H603 C615 0.964 . S
C604 H596 0.950 1_655 S
C604 C605 1.386 . S
C604 C606 1.391 . S
C605 C604 1.386 . S
C605 C609 1.393 . S
C606 H598 0.950 1_655 S
C606 C604 1.391 . S
C606 C607 1.400 . S
C607 C606 1.400 . S
C607 C608 1.398 . S
C607 C613 1.491 . S
C608 H599 0.950 . S
C608 C607 1.398 . S
C608 C609 1.391 . S
C609 H597 0.950 . S
C609 C605 1.393 . S
C609 C608 1.391 . S
C610 H600 0.950 . S
C610 C611 1.386 . S
C610 C612 1.391 . S
C611 C610 1.386 . S
C611 C615 1.385 1_655 S
C612 H601 0.950 . S
C612 C610 1.391 . S
C612 C613 1.400 . S
C613 C607 1.491 . S
C613 C612 1.400 . S
C613 C614 1.398 . S
C614 H602 0.950 1_655 S
C614 C613 1.398 . S
C614 C615 1.385 1_655 S
C615 H603 0.964 . S
C615 C611 1.385 1_455 S
C615 C614 1.385 1_455 S
H616 C624 0.950 . S
H617 C629 0.950 . S
H618 C626 0.950 . S
H619 C628 0.950 . S
H620 C630 0.950 . S
H621 C632 0.950 . S
H622 C634 0.950 . S
H623 C635 0.950 . S
C624 H616 0.950 . S
C624 C625 1.386 . S
C624 C626 1.391 . S
C625 C624 1.386 . S
C625 C629 1.393 . S
C626 H618 0.950 . S
C626 C624 1.391 . S
C626 C627 1.400 . S
C627 C626 1.400 . S
C627 C628 1.398 . S
C627 C633 1.491 . S
C628 H619 0.950 . S
C628 C627 1.398 . S
C628 C629 1.391 . S
C629 H617 0.950 . S
C629 C625 1.393 . S
C629 C628 1.391 . S
C630 H620 0.950 . S
C630 C631 1.386 . S
C630 C632 1.391 . S
C631 C630 1.386 . S
C631 C635 1.393 . S
C632 H621 0.950 . S
C632 C630 1.391 . S
C632 C633 1.400 . S
C633 C627 1.491 . S
C633 C632 1.400 . S
C633 C634 1.398 . S
C634 H622 0.950 . S
C634 C633 1.398 . S
C634 C635 1.391 . S
C635 H623 0.950 . S
C635 C631 1.393 . S
C635 C634 1.391 . S
H636 C644 0.950 . S
H637 C649 0.950 . S
H638 C646 0.950 . S
H639 C648 0.950 . S
H640 C650 0.950 . S
H641 C652 0.950 . S
H642 C654 0.950 . S
H643 C655 0.950 . S
C644 H636 0.950 . S
C644 C645 1.386 . S
C644 C646 1.391 . S
C645 C644 1.386 . S
C645 C649 1.393 . S
C646 H638 0.950 . S
C646 C644 1.391 . S
C646 C647 1.400 . S
C647 C646 1.400 . S
C647 C648 1.398 . S
C647 C653 1.491 . S
C648 H639 0.950 . S
C648 C647 1.398 . S
C648 C649 1.391 . S
C649 H637 0.950 . S
C649 C645 1.393 . S
C649 C648 1.391 . S
C650 H640 0.950 . S
C650 C651 1.386 . S
C650 C652 1.391 . S
C651 C650 1.386 . S
C651 C655 1.393 . S
C652 H641 0.950 . S
C652 C650 1.391 . S
C652 C653 1.400 . S
C653 C647 1.491 . S
C653 C652 1.400 . S
C653 C654 1.398 . S
C654 H642 0.950 . S
C654 C653 1.398 . S
C654 C655 1.391 . S
C655 H643 0.950 . S
C655 C651 1.393 . S
C655 C654 1.391 . S
H656 C664 0.950 . S
H657 C669 0.950 . S
H658 C666 0.950 . S
H659 C668 0.950 . S
H660 C670 0.950 . S
H661 C672 0.950 . S
H662 C674 0.950 . S
H663 C675 0.950 . S
C664 H656 0.950 . S
C664 C665 1.386 . S
C664 C666 1.391 . S
C665 C664 1.386 . S
C665 C669 1.393 . S
C666 H658 0.950 . S
C666 C664 1.391 . S
C666 C667 1.400 . S
C667 C666 1.400 . S
C667 C668 1.398 . S
C667 C673 1.491 . S
C668 H659 0.950 . S
C668 C667 1.398 . S
C668 C669 1.391 . S
C669 H657 0.950 . S
C669 C665 1.393 . S
C669 C668 1.391 . S
C670 H660 0.950 . S
C670 C671 1.386 . S
C670 C672 1.391 . S
C671 C670 1.386 . S
C671 C675 1.393 . S
C672 H661 0.950 . S
C672 C670 1.391 . S
C672 C673 1.400 . S
C673 C667 1.491 . S
C673 C672 1.400 . S
C673 C674 1.398 . S
C674 H662 0.950 . S
C674 C673 1.398 . S
C674 C675 1.391 . S
C675 H663 0.950 . S
C675 C671 1.393 . S
C675 C674 1.391 . S
H676 C684 0.950 . S
H677 C689 0.950 . S
H678 C686 0.950 . S
H679 C688 0.950 . S
H680 C690 0.950 . S
H681 C692 0.950 . S
H682 C694 0.950 . S
H683 C695 0.950 . S
C684 H676 0.950 . S
C684 C685 1.386 . S
C684 C686 1.391 . S
C685 C684 1.386 . S
C685 C689 1.393 . S
C686 H678 0.950 . S
C686 C684 1.391 . S
C686 C687 1.400 . S
C687 C686 1.400 . S
C687 C688 1.398 . S
C687 C693 1.491 . S
C688 H679 0.950 . S
C688 C687 1.398 . S
C688 C689 1.391 . S
C689 H677 0.950 . S
C689 C685 1.393 . S
C689 C688 1.391 . S
C690 H680 0.950 . S
C690 C691 1.386 . S
C690 C692 1.391 . S
C691 C690 1.386 . S
C691 C695 1.393 . S
C692 H681 0.950 . S
C692 C690 1.391 . S
C692 C693 1.400 . S
C693 C687 1.491 . S
C693 C692 1.400 . S
C693 C694 1.398 . S
C694 H682 0.950 . S
C694 C693 1.398 . S
C694 C695 1.391 . S
C695 H683 0.950 . S
C695 C691 1.393 . S
C695 C694 1.391 . S
H696 C704 0.950 . S
H697 C709 0.950 . S
H698 C706 0.950 . S
H699 C708 0.950 . S
H700 C710 0.950 . S
H701 C712 0.950 . S
H702 C714 0.950 . S
H703 C715 0.950 . S
C704 H696 0.950 . S
C704 C705 1.386 . S
C704 C706 1.391 . S
C705 C704 1.386 . S
C705 C709 1.393 . S
C706 H698 0.950 . S
C706 C704 1.391 . S
C706 C707 1.400 . S
C707 C706 1.400 . S
C707 C708 1.398 . S
C707 C713 1.491 . S
C708 H699 0.950 . S
C708 C707 1.398 . S
C708 C709 1.391 . S
C709 H697 0.950 . S
C709 C705 1.393 . S
C709 C708 1.391 . S
C710 H700 0.950 . S
C710 C711 1.386 . S
C710 C712 1.391 . S
C711 C710 1.386 . S
C711 C715 1.393 . S
C712 H701 0.950 . S
C712 C710 1.391 . S
C712 C713 1.400 . S
C713 C707 1.491 . S
C713 C712 1.400 . S
C713 C714 1.398 . S
C714 H702 0.950 . S
C714 C713 1.398 . S
C714 C715 1.391 . S
C715 H703 0.950 . S
C715 C711 1.393 . S
C715 C714 1.391 . S
H716 C724 0.950 . S
H717 C729 0.950 . S
H718 C726 0.950 . S
H719 C728 0.950 . S
H720 C730 0.950 . S
H721 C732 0.950 . S
H722 C734 0.950 . S
H723 C735 0.950 . S
C724 H716 0.950 . S
C724 C725 1.386 . S
C724 C726 1.391 . S
C725 C724 1.386 . S
C725 C729 1.393 . S
C726 H718 0.950 . S
C726 C724 1.391 . S
C726 C727 1.400 . S
C727 C726 1.400 . S
C727 C728 1.398 . S
C727 C733 1.491 . S
C728 H719 0.950 . S
C728 C727 1.398 . S
C728 C729 1.391 . S
C729 H717 0.950 . S
C729 C725 1.393 . S
C729 C728 1.391 . S
C730 H720 0.950 . S
C730 C731 1.386 . S
C730 C732 1.391 . S
C731 C730 1.386 . S
C731 C735 1.393 . S
C732 H721 0.950 . S
C732 C730 1.391 . S
C732 C733 1.400 . S
C733 C727 1.491 . S
C733 C732 1.400 . S
C733 C734 1.398 . S
C734 H722 0.950 . S
C734 C733 1.398 . S
C734 C735 1.391 . S
C735 H723 0.950 . S
C735 C731 1.393 . S
C735 C734 1.391 . S
C265 C6 1.240 . S
C271 C111 1.249 . S
C285 C18 1.289 . S
C291 C151 1.304 . S
C311 C185 2.391 . S
C305 C28 2.419 . S
C325 C40 2.054 . S
C331 C226 1.996 . S
C351 C146 1.569 . S
C345 C9 1.530 . S
C371 C106 1.991 . S
C365 C16 1.885 . S
C391 C234 1.583 . S
C385 C30 1.586 . S
C411 C195 1.463 . S
C405 C42 1.511 . S
C425 C4 1.339 . S
C431 C231 1.328 . S
C451 C154 2.187 . S
C445 C33 2.243 . S
C465 C45 2.118 . S
C471 C114 2.067 . S
C485 C21 1.647 . S
C491 C182 1.706 . S
C511 C102 1.295 . S
C505 C57 1.292 . S
C525 C66 1.239 . S
C531 C142 1.283 . S
C545 C76 2.469 . S
C551 C194 2.445 . S
C565 C88 1.961 . S
C571 C235 1.919 . S
C585 C54 1.530 . S
C591 C155 1.584 . S
C611 C115 2.082 . S
C605 C64 2.015 . S
C631 C225 1.505 . S
C625 C78 1.500 . S
C651 C186 1.527 . S
C645 C93 1.571 . S
C665 C52 1.351 . S
C671 C222 1.360 . S
C691 C145 2.174 . S
C685 C81 2.234 . S
C711 C105 2.039 . S
C705 C90 2.098 . S
C725 C69 1.664 . S
C731 C191 1.726 . S
