# Generated by pormake.
# Topology pyr, (3,6)-cn, num edge types: 1
# Building blocks:
#     Node 0, Type 0, BuildingBlock: BETDIP_clean_linker_0, # of connection points: 3
#     Node 1, Type 0, BuildingBlock: BETDIP_clean_linker_0, # of connection points: 3
#     Node 2, Type 0, BuildingBlock: BETDIP_clean_linker_0, # of connection points: 3
#     Node 3, Type 0, BuildingBlock: BETDIP_clean_linker_0, # of connection points: 3
#     Node 4, Type 0, BuildingBlock: BETDIP_clean_linker_0, # of connection points: 3
#     Node 5, Type 0, BuildingBlock: BETDIP_clean_linker_0, # of connection points: 3
#     Node 6, Type 0, BuildingBlock: BETDIP_clean_linker_0, # of connection points: 3
#     Node 7, Type 0, BuildingBlock: BETDIP_clean_linker_0, # of connection points: 3
#     Node 8, Type 1, BuildingBlock: JUFBIX_clean_sbu_0, # of connection points: 6
#     Node 9, Type 1, BuildingBlock: JUFBIX_clean_sbu_0, # of connection points: 6
#     Node 10, Type 1, BuildingBlock: JUFBIX_clean_sbu_0, # of connection points: 6
#     Node 11, Type 1, BuildingBlock: JUFBIX_clean_sbu_0, # of connection points: 6
#     Edge 12, Type (0, 1), BuildingBlock: MIFKUJ_clean_linker_0, # of connection points: 2
#     Edge 13, Type (0, 1), BuildingBlock: MIFKUJ_clean_linker_0, # of connection points: 2
#     Edge 14, Type (0, 1), BuildingBlock: MIFKUJ_clean_linker_0, # of connection points: 2
#     Edge 15, Type (0, 1), BuildingBlock: MIFKUJ_clean_linker_0, # of connection points: 2
#     Edge 16, Type (0, 1), BuildingBlock: MIFKUJ_clean_linker_0, # of connection points: 2
#     Edge 17, Type (0, 1), BuildingBlock: MIFKUJ_clean_linker_0, # of connection points: 2
#     Edge 18, Type (0, 1), BuildingBlock: MIFKUJ_clean_linker_0, # of connection points: 2
#     Edge 19, Type (0, 1), BuildingBlock: MIFKUJ_clean_linker_0, # of connection points: 2
#     Edge 20, Type (0, 1), BuildingBlock: MIFKUJ_clean_linker_0, # of connection points: 2
#     Edge 21, Type (0, 1), BuildingBlock: MIFKUJ_clean_linker_0, # of connection points: 2
#     Edge 22, Type (0, 1), BuildingBlock: MIFKUJ_clean_linker_0, # of connection points: 2
#     Edge 23, Type (0, 1), BuildingBlock: MIFKUJ_clean_linker_0, # of connection points: 2
#     Edge 24, Type (0, 1), BuildingBlock: MIFKUJ_clean_linker_0, # of connection points: 2
#     Edge 25, Type (0, 1), BuildingBlock: MIFKUJ_clean_linker_0, # of connection points: 2
#     Edge 26, Type (0, 1), BuildingBlock: MIFKUJ_clean_linker_0, # of connection points: 2
#     Edge 27, Type (0, 1), BuildingBlock: MIFKUJ_clean_linker_0, # of connection points: 2
#     Edge 28, Type (0, 1), BuildingBlock: MIFKUJ_clean_linker_0, # of connection points: 2
#     Edge 29, Type (0, 1), BuildingBlock: MIFKUJ_clean_linker_0, # of connection points: 2
#     Edge 30, Type (0, 1), BuildingBlock: MIFKUJ_clean_linker_0, # of connection points: 2
#     Edge 31, Type (0, 1), BuildingBlock: MIFKUJ_clean_linker_0, # of connection points: 2
#     Edge 32, Type (0, 1), BuildingBlock: MIFKUJ_clean_linker_0, # of connection points: 2
#     Edge 33, Type (0, 1), BuildingBlock: MIFKUJ_clean_linker_0, # of connection points: 2
#     Edge 34, Type (0, 1), BuildingBlock: MIFKUJ_clean_linker_0, # of connection points: 2
#     Edge 35, Type (0, 1), BuildingBlock: MIFKUJ_clean_linker_0, # of connection points: 2
# Relax obj value: 0.132
# Max RMSD: 0.195
# Mean RMSD: 0.130
data_MOF--net-pyr--node1-JUFBIX_clean_sbu_0--node2-BETDIP_clean_linker_0--edge1-MIFKUJ_clean_linker_0
_symmetry_space_group_name_H-M    P1
_symmetry_Int_Tables_number       1
_symmetry_cell_setting            triclinic
loop_
_symmetry_equiv_pos_as_xyz
'x, y, z'
_cell_length_a     48.248743
_cell_length_b     45.06351
_cell_length_c     49.895185
_cell_angle_alpha  89.373207
_cell_angle_beta   86.560263
_cell_angle_gamma 98.301034
loop_
_atom_site_label
_atom_site_type_symbol
_atom_site_fract_x
_atom_site_fract_y
_atom_site_fract_z
_atom_type_partial_charge
H0 H 0.14877 0.17634 0.21754 0.0
H1 H 0.21154 0.18087 0.15224 0.0
H2 H 0.21121 0.11686 0.21756 0.0
H3 H 0.18847 0.21564 0.13393 0.0
C4 C 0.17145 0.22133 0.14717 0.0
C5 C 0.1668 0.16792 0.20808 0.0
C6 C 0.17815 0.14465 0.22099 0.0
C7 C 0.17825 0.18123 0.18335 0.0
C8 C 0.20226 0.17068 0.17098 0.0
C9 C 0.21488 0.14741 0.18304 0.0
C10 C 0.20247 0.13492 0.20823 0.0
N11 N 0.16481 0.20508 0.17229 0.0
H12 H 0.39506 0.91183 0.66924 0.0
H13 H 0.39258 0.84507 0.60829 0.0
H14 H 0.44831 0.84323 0.67212 0.0
H15 H 0.37548 0.8829 0.58376 0.0
C16 C 0.36115 0.8892 0.59962 0.0
C17 C 0.40321 0.89273 0.66038 0.0
C18 C 0.42351 0.87938 0.67319 0.0
C19 C 0.39224 0.88081 0.63684 0.0
C20 C 0.40159 0.85511 0.626 0.0
C21 C 0.42194 0.84158 0.63859 0.0
C22 C 0.43301 0.85398 0.66203 0.0
N23 N 0.36999 0.89351 0.62609 0.0
H24 H 0.72149 0.40541 0.83582 0.0
H25 H 0.64852 0.33794 0.83701 0.0
H26 H 0.70921 0.33497 0.89618 0.0
H27 H 0.62997 0.37416 0.81671 0.0
C28 C 0.64673 0.38547 0.80315 0.0
C29 C 0.70922 0.38532 0.84477 0.0
C30 C 0.71832 0.3719 0.86771 0.0
C31 C 0.68378 0.37369 0.83379 0.0
C32 C 0.66782 0.34752 0.8455 0.0
C33 C 0.67661 0.33346 0.86823 0.0
C34 C 0.70187 0.34595 0.87911 0.0
N35 N 0.67501 0.3885 0.81089 0.0
H36 H 0.91811 0.57004 0.43314 0.0
H37 H 0.98698 0.64211 0.42676 0.0
H38 H 0.91188 0.6527 0.47391 0.0
H39 H 1.00722 0.61425 0.39775 0.0
C40 C 0.99071 0.5978 0.39071 0.0
C41 C 0.92728 0.59232 0.43872 0.0
C42 C 0.91178 0.60965 0.45545 0.0
C43 C 0.95407 0.60396 0.42778 0.0
C44 C 0.96619 0.6329 0.43475 0.0
C45 C 0.95132 0.65042 0.45191 0.0
C46 C 0.92409 0.63862 0.46205 0.0
N47 N 0.96664 0.58705 0.4078 0.0
H48 H 0.8003 0.84611 0.90266 0.0
H49 H 0.8678 0.85091 0.84189 0.0
H50 H 0.80439 0.90895 0.83643 0.0
H51 H 0.87546 0.80742 0.85783 0.0
C52 C 0.86689 0.80368 0.87837 0.0
C53 C 0.81049 0.85579 0.88399 0.0
C54 C 0.7994 0.87947 0.87123 0.0
C55 C 0.83488 0.84469 0.87345 0.0
C56 C 0.84842 0.85801 0.84926 0.0
C57 C 0.83783 0.88113 0.83496 0.0
C58 C 0.81332 0.89167 0.84667 0.0
N59 N 0.84535 0.82084 0.88798 0.0
H60 H 0.63992 0.13161 0.36796 0.0
H61 H 0.64604 0.20437 0.42321 0.0
H62 H 0.58297 0.19661 0.3654 0.0
H63 H 0.66537 0.16867 0.44886 0.0
C64 C 0.6792 0.16215 0.43267 0.0
C65 C 0.63201 0.15124 0.37599 0.0
C66 C 0.60962 0.16212 0.36437 0.0
C67 C 0.64495 0.16605 0.39741 0.0
C68 C 0.63543 0.19207 0.40734 0.0
C69 C 0.61321 0.20334 0.3957 0.0
C70 C 0.60033 0.18818 0.3743 0.0
N71 N 0.66891 0.15566 0.40704 0.0
H72 H 0.30113 0.62186 0.21255 0.0
H73 H 0.37128 0.69249 0.21309 0.0
H74 H 0.31406 0.68991 0.15009 0.0
H75 H 0.39175 0.65704 0.23243 0.0
C76 C 0.37539 0.64475 0.24583 0.0
C77 C 0.31315 0.64205 0.20352 0.0
C78 C 0.30431 0.65462 0.18004 0.0
C79 C 0.33803 0.65473 0.21494 0.0
C80 C 0.35329 0.68138 0.20342 0.0
C81 C 0.34495 0.69442 0.17995 0.0
C82 C 0.3206 0.6805 0.16833 0.0
N83 N 0.34708 0.64051 0.23804 0.0
H84 H 0.03842 0.38985 0.61518 0.0
H85 H 0.10948 0.45882 0.61931 0.0
H86 H 0.1171 0.38044 0.57318 0.0
H87 H 0.07706 0.48777 0.63274 0.0
C88 C 0.06266 0.47179 0.64516 0.0
C89 C 0.05986 0.39888 0.60875 0.0
C90 C 0.07639 0.38156 0.59309 0.0
C91 C 0.0713 0.42714 0.61772 0.0
C92 C 0.09977 0.43808 0.61104 0.0
C93 C 0.1165 0.42115 0.59523 0.0
C94 C 0.10438 0.39337 0.58575 0.0
N95 N 0.05463 0.44225 0.63597 0.0
Co96 Co 0.98899 0.01517 0.52081 0.0
C97 C 0.00907 0.96013 0.51612 0.0
Co98 Co 0.0299 0.01385 0.53745 0.0
C99 C 0.94234 0.03618 0.49651 0.0
C100 C 0.93291 0.9907 0.51102 0.0
N101 N 0.954 0.01384 0.50752 0.0
N102 N 0.91473 0.02798 0.49356 0.0
C103 C 0.90871 0.99938 0.50255 0.0
H104 H 0.95334 0.05863 0.49256 0.0
H105 H 0.93463 0.96946 0.52061 0.0
C106 C 0.00972 0.06902 0.54186 0.0
N107 N 0.06457 0.0149 0.55156 0.0
C108 C 0.08551 0.99943 0.54375 0.0
C109 C 0.07448 0.03187 0.572 0.0
N110 N 0.10807 0.00633 0.55835 0.0
C111 C 0.10132 0.02678 0.57609 0.0
C112 C 0.0344 0.0325 0.48204 0.0
O113 O 0.98892 0.05576 0.53022 0.0
O114 O 0.02956 0.05459 0.54701 0.0
O115 O 0.04831 0.02742 0.50223 0.0
O116 O 1.00758 0.02832 0.4854 0.0
O117 O 0.03003 0.97329 0.52763 0.0
H118 H 0.06288 0.04682 0.5834 0.0
H119 H 0.08437 0.98354 0.5276 0.0
O120 O 0.9891 0.97452 0.51137 0.0
O121 O 0.97073 1.00233 0.55626 0.0
O122 O 0.01132 1.00003 0.57264 0.0
C123 C 0.98459 0.99657 0.57621 0.0
H124 H 0.88803 0.9862 0.50397 0.0
H125 H 0.11457 0.03664 0.59139 0.0
Co126 Co 0.49441 0.00874 0.00714 0.0
C127 C 0.49 0.96613 0.04948 0.0
Co128 Co 0.51974 0.02245 0.0409 0.0
C129 C 0.47863 0.99246 0.95379 0.0
C130 C 0.44472 0.98222 0.9837 0.0
N131 N 0.47176 0.99509 0.98016 0.0
N132 N 0.45704 0.97801 0.94091 0.0
C133 C 0.43566 0.97154 0.9596 0.0
H134 H 0.49943 0.99958 0.94451 0.0
H135 H 0.43271 0.9797 1.00281 0.0
C136 C 0.52399 0.06516 0.9986 0.0
N137 N 0.54218 0.03614 0.06795 0.0
C138 C 0.53538 0.03666 0.09452 0.0
C139 C 0.56857 0.05093 0.06467 0.0
N140 N 0.55637 0.05164 0.10782 0.0
C141 C 0.57731 0.06065 0.08918 0.0
C142 C 0.54973 0.99291 1.00038 0.0
O143 O 0.50778 0.04506 0.98717 0.0
O144 O 0.53069 0.06001 0.02227 0.0
O145 O 0.55185 0.00681 0.02249 0.0
O146 O 0.52581 0.98984 0.99016 0.0
O147 O 0.50869 0.98471 0.05963 0.0
H148 H 0.58029 0.05537 0.04552 0.0
H149 H 0.51497 0.02764 0.10372 0.0
O150 O 0.48113 0.97261 0.02701 0.0
O151 O 0.46323 0.02755 0.02426 0.0
O152 O 0.48744 0.03822 0.05928 0.0
C153 C 0.46446 0.03834 0.04782 0.0
H154 H 0.41518 0.95938 0.95614 0.0
H155 H 0.5972 0.07389 0.09296 0.0
Co156 Co 0.53409 0.53011 0.51622 0.0
C157 C 0.49004 0.53325 0.48254 0.0
Co158 Co 0.49364 0.50521 0.53206 0.0
C159 C 0.59374 0.54422 0.50355 0.0
C160 C 0.57137 0.5792 0.49117 0.0
N161 N 0.5677 0.55176 0.50297 0.0
N162 N 0.61357 0.56589 0.49257 0.0
C163 C 0.59949 0.58793 0.48473 0.0
H164 H 0.598 0.52316 0.51184 0.0
H165 H 0.55468 0.59222 0.48781 0.0
C166 C 0.5376 0.50189 0.56574 0.0
N167 N 0.46022 0.48352 0.54552 0.0
C168 C 0.43406 0.49072 0.54506 0.0
C169 C 0.45705 0.45659 0.5582 0.0
N170 N 0.41459 0.46926 0.55694 0.0
C171 C 0.4291 0.4478 0.56528 0.0
C172 C 0.52579 0.4716 0.50037 0.0
O173 O 0.55203 0.51762 0.54708 0.0
O174 O 0.51141 0.49458 0.5634 0.0
O175 O 0.50325 0.47058 0.51501 0.0
O176 O 0.54262 0.49596 0.49755 0.0
O177 O 0.47607 0.51605 0.50051 0.0
H178 H 0.47401 0.44417 0.56212 0.0
H179 H 0.42946 0.51117 0.53588 0.0
O180 O 0.51589 0.54227 0.48557 0.0
O181 O 0.52525 0.56423 0.53485 0.0
O182 O 0.48423 0.53991 0.54909 0.0
C183 C 0.50172 0.56388 0.54781 0.0
H184 H 0.60887 0.60921 0.47561 0.0
H185 H 0.4203 0.42735 0.57611 0.0
Co186 Co 0.02561 0.51281 1.00369 0.0
C187 C 0.97132 0.48155 1.00035 0.0
Co188 Co 0.99905 0.51289 0.04096 0.0
C189 C 0.03871 0.51367 0.94676 0.0
C190 C 0.07499 0.511 0.96881 0.0
N191 N 0.04735 0.51277 0.97193 0.0
N192 N 0.05979 0.51235 0.92793 0.0
C193 C 0.08271 0.51076 0.94182 0.0
H194 H 0.01712 0.51446 0.94245 0.0
H195 H 0.08859 0.50963 0.98511 0.0
C196 C 0.05337 0.54411 0.04435 0.0
N197 N 0.97753 0.51258 0.07291 0.0
C198 C 0.97999 0.53328 0.09227 0.0
C199 C 0.95962 0.48931 0.08385 0.0
N200 N 0.96497 0.52361 0.11524 0.0
C201 C 0.95187 0.49599 0.1098 0.0
C202 C 0.03176 0.46479 0.03928 0.0
O203 O 0.05602 0.53706 0.01982 0.0
O204 O 0.02982 0.53636 0.05713 0.0
O205 O 0.01314 0.47648 0.05311 0.0
O206 O 0.04001 0.47672 0.01629 0.0
O207 O 0.96852 0.4894 0.02464 0.0
H208 H 0.95407 0.46806 0.07425 0.0
H209 H 0.99372 0.55444 0.08988 0.0
O210 O 0.99507 0.48855 0.98766 0.0
O211 O 0.01109 0.54884 0.99133 0.0
O212 O 0.985 0.54934 0.02866 0.0
C213 C 0.99284 0.56087 1.0054 0.0
H214 H 0.1036 0.50944 0.93321 0.0
H215 H 0.93924 0.48067 0.12406 0.0
H216 H 0.12141 0.13283 0.23685 0.0
H217 H 0.09852 0.11382 0.27974 0.0
H218 H 0.17897 0.10552 0.30969 0.0
H219 H 0.20215 0.12442 0.26634 0.0
H220 H 0.1441 0.05998 0.32935 0.0
H221 H 0.13702 0.16465 0.32812 0.0
H222 H 0.1253 0.2122 0.31017 0.0
H223 H 0.03846 0.17391 0.31048 0.0
H224 H 0.04972 0.12598 0.3281 0.0
H225 H 0.09147 0.04197 0.46763 0.0
H226 H 0.11579 0.05985 0.42471 0.0
H227 H 0.03634 0.06599 0.39164 0.0
H228 H 0.01191 0.0484 0.43476 0.0
H229 H 0.07153 0.11308 0.37412 0.0
H230 H 0.07914 0.00817 0.3755 0.0
H231 H 0.09127 0.96109 0.39407 0.0
H232 H 0.17774 1.0006 0.39433 0.0
H233 H 0.16605 0.04807 0.37608 0.0
C234 C 0.13452 0.1273 0.25249 0.0
C235 C 0.16404 0.13089 0.24761 0.0
C236 C 0.12119 0.11632 0.2774 0.0
C237 C 0.13664 0.10866 0.29896 0.0
C238 C 0.1661 0.11126 0.29392 0.0
C239 C 0.1795 0.12213 0.26882 0.0
C240 C 0.12209 0.09804 0.32637 0.0
C241 C 0.12856 0.07201 0.33918 0.0
C242 C 0.10112 0.11285 0.3397 0.0
C243 C 0.09426 0.14164 0.32918 0.0
C244 C 0.11545 0.16631 0.32418 0.0
C245 C 0.10889 0.19333 0.31409 0.0
C246 C 0.08116 0.19605 0.30912 0.0
C247 C 0.05993 0.17176 0.3143 0.0
C248 C 0.06638 0.14466 0.32436 0.0
C249 C 0.07901 0.04699 0.45128 0.0
C250 C 0.04942 0.04338 0.45513 0.0
C251 C 0.09309 0.05717 0.42639 0.0
C252 C 0.07828 0.06413 0.40409 0.0
C253 C 0.04871 0.06089 0.40803 0.0
C254 C 0.0346 0.05062 0.43293 0.0
C255 C 0.09342 0.07496 0.37702 0.0
C256 C 0.08707 0.10106 0.36429 0.0
C257 C 0.11456 0.06029 0.36385 0.0
C258 C 0.12167 0.03176 0.37468 0.0
C259 C 0.10071 0.00688 0.37969 0.0
C260 C 0.10751 0.98012 0.39014 0.0
C261 C 0.13525 0.97789 0.39544 0.0
C262 C 0.15626 1.00238 0.39024 0.0
C263 C 0.14956 0.02921 0.37983 0.0
H264 H 0.14047 0.95715 0.40353 0.0
H265 H 0.07612 0.21699 0.30131 0.0
H266 H 0.42547 0.84625 0.71868 0.0
H267 H 0.43605 0.86462 0.76342 0.0
H268 H 0.45246 0.95539 0.73195 0.0
H269 H 0.44176 0.93712 0.68697 0.0
H270 H 0.492 0.93712 0.7717 0.0
H271 H 0.39319 0.93856 0.75841 0.0
H272 H 0.3463 0.9156 0.74596 0.0
H273 H 0.3442 0.84763 0.80734 0.0
H274 H 0.39131 0.86992 0.81985 0.0
H275 H 0.48006 0.01038 0.8973 0.0
H276 H 0.47853 0.99474 0.85039 0.0
H277 H 0.43467 0.90792 0.87666 0.0
H278 H 0.43508 0.92417 0.92319 0.0
H279 H 0.40998 0.92599 0.83784 0.0
H280 H 0.50646 0.92115 0.85224 0.0
H281 H 0.55437 0.9397 0.86504 0.0
H282 H 0.56277 0.00818 0.80337 0.0
H283 H 0.51475 0.99027 0.79042 0.0
C284 C 0.43189 0.87006 0.72119 0.0
C285 C 0.43278 0.89033 0.69946 0.0
C286 C 0.43783 0.88049 0.74671 0.0
C287 C 0.44492 0.9113 0.75083 0.0
C288 C 0.44709 0.93151 0.729 0.0
C289 C 0.44082 0.92111 0.70347 0.0
C290 C 0.44766 0.92242 0.77835 0.0
C291 C 0.47411 0.93512 0.78619 0.0
C292 C 0.42434 0.91892 0.7972 0.0
C293 C 0.39588 0.90574 0.78988 0.0
C294 C 0.38283 0.91857 0.76909 0.0
C295 C 0.3562 0.90571 0.76205 0.0
C296 C 0.34231 0.88013 0.7758 0.0
C297 C 0.35499 0.86742 0.79668 0.0
C298 C 0.38165 0.88017 0.80376 0.0
C299 C 0.47028 0.98795 0.89287 0.0
C300 C 0.45748 0.9685 0.9136 0.0
C301 C 0.46954 0.97894 0.86617 0.0
C302 C 0.4567 0.95002 0.85997 0.0
C303 C 0.44453 0.9304 0.88088 0.0
C304 C 0.44472 0.93964 0.90742 0.0
C305 C 0.45457 0.94049 0.83172 0.0
C306 C 0.42807 0.92812 0.82357 0.0
C307 C 0.478 0.94375 0.81282 0.0
C308 C 0.50689 0.95456 0.82055 0.0
C309 C 0.51844 0.94031 0.84155 0.0
C310 C 0.54563 0.95068 0.84881 0.0
C311 C 0.56157 0.97515 0.83508 0.0
C312 C 0.55038 0.98925 0.81401 0.0
C313 C 0.52319 0.97898 0.80669 0.0
H314 H 0.58262 0.98315 0.84072 0.0
H315 H 0.32168 0.87021 0.77032 0.0
H316 H 0.59443 0.38257 0.78604 0.0
H317 H 0.57946 0.40313 0.7447 0.0
H318 H 0.66537 0.43881 0.72115 0.0
H319 H 0.68049 0.41838 0.76295 0.0
H320 H 0.63006 0.47934 0.71088 0.0
H321 H 0.63341 0.37635 0.69164 0.0
H322 H 0.62377 0.3216 0.69939 0.0
H323 H 0.53525 0.32431 0.69838 0.0
H324 H 0.54433 0.37916 0.691 0.0
H325 H 0.59337 0.51169 0.57695 0.0
H326 H 0.61507 0.49303 0.61575 0.0
H327 H 0.53394 0.44986 0.64744 0.0
H328 H 0.51225 0.468 0.60868 0.0
H329 H 0.57131 0.4128 0.65131 0.0
H330 H 0.56782 0.51601 0.67352 0.0
H331 H 0.57723 0.57081 0.66598 0.0
H332 H 0.66591 0.56763 0.66123 0.0
H333 H 0.657 0.51272 0.66839 0.0
C334 C 0.61018 0.3948 0.77207 0.0
C335 C 0.63864 0.39871 0.77775 0.0
C336 C 0.60159 0.40646 0.74834 0.0
C337 C 0.62127 0.42221 0.72947 0.0
C338 C 0.64976 0.42666 0.73529 0.0
C339 C 0.65841 0.4149 0.75915 0.0
C340 C 0.61177 0.43384 0.70385 0.0
C341 C 0.61764 0.46469 0.6976 0.0
C342 C 0.59511 0.41494 0.68663 0.0
C343 C 0.58955 0.38192 0.69098 0.0
C344 C 0.61187 0.36531 0.69327 0.0
C345 C 0.60651 0.33425 0.69756 0.0
C346 C 0.57891 0.31949 0.69943 0.0
C347 C 0.55662 0.33577 0.69695 0.0
C348 C 0.56186 0.36684 0.69268 0.0
C349 C 0.58012 0.49833 0.59224 0.0
C350 C 0.55099 0.49147 0.58964 0.0
C351 C 0.59257 0.48773 0.61452 0.0
C352 C 0.57618 0.47016 0.6348 0.0
C353 C 0.54713 0.4633 0.63216 0.0
C354 C 0.5347 0.47384 0.60995 0.0
C355 C 0.5891 0.4584 0.65857 0.0
C356 C 0.58391 0.42746 0.66445 0.0
C357 C 0.60634 0.47723 0.6754 0.0
C358 C 0.61173 0.51023 0.67119 0.0
C359 C 0.58932 0.52697 0.67065 0.0
C360 C 0.59457 0.55805 0.66649 0.0
C361 C 0.62215 0.57268 0.66305 0.0
C362 C 0.64455 0.55626 0.66385 0.0
C363 C 0.63942 0.52516 0.66798 0.0
H364 H 0.62617 0.59675 0.65983 0.0
H365 H 0.5748 0.29544 0.70276 0.0
H366 H 0.02809 0.62272 0.35098 0.0
H367 H 0.02577 0.61523 0.30243 0.0
H368 H 0.95185 0.54952 0.31714 0.0
H369 H 0.95384 0.55714 0.36532 0.0
H370 H 0.027 0.56736 0.27006 0.0
H371 H 0.90541 0.5575 0.27091 0.0
H372 H 0.86674 0.57666 0.29673 0.0
H373 H 0.92356 0.65321 0.31948 0.0
H374 H 0.96247 0.63478 0.29348 0.0
H375 H 0.92907 0.51019 0.15919 0.0
H376 H 0.93583 0.52757 0.20466 0.0
H377 H 0.01051 0.58662 0.17631 0.0
H378 H 1.00504 0.56805 0.13115 0.0
H379 H 0.93798 0.57906 0.22889 0.0
H380 H 0.05796 0.59283 0.22442 0.0
H381 H 0.09719 0.57527 0.19807 0.0
H382 H 0.04449 0.49289 0.18238 0.0
H383 H 1.00506 0.50983 0.20888 0.0
C384 C 0.01155 0.60648 0.34377 0.0
C385 C 0.99103 0.59075 0.36185 0.0
C386 C 0.01024 0.60224 0.31611 0.0
C387 C 0.98832 0.58227 0.30619 0.0
C388 C 0.96859 0.56554 0.32434 0.0
C389 C 0.96983 0.56982 0.35191 0.0
C390 C 0.98552 0.57921 0.27689 0.0
C391 C 1.00771 0.57037 0.26094 0.0
C392 C 0.9603 0.58306 0.26505 0.0
C393 C 0.93691 0.59459 0.28042 0.0
C394 C 0.90962 0.5785 0.28131 0.0
C395 C 0.88767 0.58922 0.296 0.0
C396 C 0.89271 0.61609 0.3098 0.0
C397 C 0.9197 0.63235 0.30886 0.0
C398 C 0.94172 0.62175 0.29418 0.0
C399 C 0.94706 0.52672 0.16253 0.0
C400 C 0.96676 0.53711 0.14134 0.0
C401 C 0.95074 0.53689 0.18857 0.0
C402 C 0.97404 0.55789 0.19402 0.0
C403 C 0.99275 0.56984 0.17271 0.0
C404 C 0.98933 0.55937 0.1467 0.0
C405 C 0.9791 0.56624 0.22219 0.0
C406 C 0.95735 0.57625 0.23793 0.0
C407 C 1.00479 0.56362 0.23376 0.0
C408 C 0.02851 0.55275 0.2184 0.0
C409 C 0.05481 0.57091 0.21545 0.0
C410 C 0.07706 0.56109 0.20046 0.0
C411 C 0.07331 0.53303 0.18848 0.0
C412 C 0.04734 0.51466 0.19159 0.0
C413 C 0.02503 0.52437 0.20658 0.0
H414 H 0.09055 0.52552 0.17682 0.0
H415 H 0.87569 0.62433 0.32118 0.0
H416 H 0.22914 0.14174 0.12835 0.0
H417 H 0.2704 0.12435 0.10644 0.0
H418 H 0.3016 0.10908 0.18366 0.0
H419 H 0.26059 0.12714 0.20578 0.0
H420 H 0.34508 0.13227 0.15089 0.0
H421 H 0.27101 0.05024 0.14166 0.0
H422 H 0.22483 0.02586 0.12855 0.0
H423 H 0.24728 0.05255 0.04631 0.0
H424 H 0.29348 0.07742 0.059 0.0
H425 H 0.45495 0.05124 0.10168 0.0
H426 H 0.414 0.06841 0.12448 0.0
H427 H 0.3754 0.0708 0.04895 0.0
H428 H 0.41576 0.05195 0.02642 0.0
H429 H 0.33537 0.05436 0.08142 0.0
H430 H 0.40828 0.13756 0.08944 0.0
H431 H 0.45431 0.16347 0.10151 0.0
H432 H 0.43425 0.1372 0.18419 0.0
H433 H 0.38821 0.11084 0.17255 0.0
C434 C 0.24473 0.13495 0.14092 0.0
C435 C 0.24078 0.13612 0.16924 0.0
C436 C 0.26852 0.12454 0.12816 0.0
C437 C 0.28967 0.11471 0.14301 0.0
C438 C 0.28601 0.11622 0.17127 0.0
C439 C 0.2621 0.12644 0.18407 0.0
C440 C 0.31537 0.1031 0.12924 0.0
C441 C 0.34275 0.11493 0.13596 0.0
C442 C 0.31329 0.08095 0.109 0.0
C443 C 0.28559 0.06593 0.10133 0.0
C444 C 0.26602 0.05108 0.12081 0.0
C445 C 0.23985 0.03715 0.11345 0.0
C446 C 0.2331 0.03773 0.08663 0.0
C447 C 0.25253 0.05216 0.06709 0.0
C448 C 0.27871 0.06616 0.07435 0.0
C449 C 0.43785 0.05552 0.08978 0.0
C450 C 0.43928 0.05019 0.06189 0.0
C451 C 0.41418 0.06576 0.10296 0.0
C452 C 0.391 0.07203 0.08882 0.0
C453 C 0.39244 0.06651 0.06091 0.0
C454 C 0.4159 0.05573 0.04781 0.0
C455 C 0.36531 0.08365 0.10287 0.0
C456 C 0.33785 0.07178 0.09627 0.0
C457 C 0.36736 0.10604 0.123 0.0
C458 C 0.39493 0.12198 0.13008 0.0
C459 C 0.41376 0.13717 0.11017 0.0
C460 C 0.43984 0.15195 0.11694 0.0
C461 C 0.44723 0.15191 0.14359 0.0
C462 C 0.42851 0.13717 0.16355 0.0
C463 C 0.40241 0.12234 0.15688 0.0
H464 H 0.46743 0.16335 0.14879 0.0
H465 H 0.21283 0.02693 0.08097 0.0
H466 H 0.31509 0.88969 0.63372 0.0
H467 H 0.27021 0.90454 0.6235 0.0
H468 H 0.30072 0.92211 0.54085 0.0
H469 H 0.34534 0.90566 0.55089 0.0
H470 H 0.25918 0.95491 0.6105 0.0
H471 H 0.24698 0.91788 0.49967 0.0
H472 H 0.2574 0.87641 0.47062 0.0
H473 H 0.25625 0.81887 0.53997 0.0
H474 H 0.24546 0.85984 0.56939 0.0
H475 H 0.1606 0.03515 0.56059 0.0
H476 H 0.2034 0.0122 0.56309 0.0
H477 H 0.15485 0.92443 0.55711 0.0
H478 H 0.11231 0.9477 0.55316 0.0
H479 H 0.20329 0.92371 0.53267 0.0
H480 H 0.17241 0.95501 0.61884 0.0
H481 H 0.15704 0.98986 0.6525 0.0
H482 H 0.23651 0.04658 0.64092 0.0
H483 H 0.25221 0.01226 0.60689 0.0
C484 C 0.31212 0.8965 0.61332 0.0
C485 C 0.33366 0.89689 0.59308 0.0
C486 C 0.28647 0.90497 0.60749 0.0
C487 C 0.28199 0.91446 0.5814 0.0
C488 C 0.30343 0.91439 0.56103 0.0
C489 C 0.32896 0.90524 0.56677 0.0
C490 C 0.25562 0.92627 0.57615 0.0
C491 C 0.24698 0.94796 0.59349 0.0
C492 C 0.23929 0.91686 0.5543 0.0
C493 C 0.24573 0.89206 0.53674 0.0
C494 C 0.24888 0.89636 0.50871 0.0
C495 C 0.25486 0.87294 0.49218 0.0
C496 C 0.25758 0.84506 0.50345 0.0
C497 C 0.25426 0.84051 0.53127 0.0
C498 C 0.24826 0.86385 0.54788 0.0
C499 C 0.1593 0.01102 0.55944 0.0
C500 C 0.13336 0.99307 0.55697 0.0
C501 C 0.18363 0.9979 0.56095 0.0
C502 C 0.18222 0.96653 0.56102 0.0
C503 C 0.15645 0.94866 0.55721 0.0
C504 C 0.1322 0.96188 0.555 0.0
C505 C 0.20719 0.95245 0.56688 0.0
C506 C 0.21556 0.93051 0.54966 0.0
C507 C 0.22266 0.96057 0.58957 0.0
C508 C 0.21338 0.98121 0.61014 0.0
C509 C 0.18654 0.97501 0.62335 0.0
C510 C 0.17777 0.99466 0.64251 0.0
C511 C 0.19576 0.02045 0.6488 0.0
C512 C 0.22258 0.02661 0.636 0.0
C513 C 0.23143 0.00706 0.61679 0.0
H514 H 0.18894 0.03564 0.66364 0.0
H515 H 0.26221 0.82697 0.49062 0.0
H516 H 0.76995 0.39322 0.84267 0.0
H517 H 0.81358 0.41214 0.8637 0.0
H518 H 0.77031 0.3984 0.94196 0.0
H519 H 0.7267 0.37989 0.92112 0.0
H520 H 0.80479 0.45207 0.93836 0.0
H521 H 0.81198 0.34894 0.91761 0.0
H522 H 0.81227 0.30567 0.88781 0.0
H523 H 0.88186 0.35343 0.83998 0.0
H524 H 0.88172 0.39716 0.86931 0.0
H525 H 0.91828 0.46129 0.02203 0.0
H526 H 0.87657 0.44259 0.99834 0.0
H527 H 0.92598 0.45169 0.92297 0.0
H528 H 0.96796 0.46982 0.94664 0.0
H529 H 0.88929 0.40202 0.92299 0.0
H530 H 0.8843 0.50399 0.94357 0.0
H531 H 0.88484 0.54826 0.97227 0.0
H532 H 0.81184 0.50502 0.01831 0.0
H533 H 0.81119 0.46023 0.99022 0.0
C534 C 0.76967 0.3945 0.86434 0.0
C535 C 0.74479 0.3848 0.88018 0.0
C536 C 0.79471 0.40512 0.87637 0.0
C537 C 0.79541 0.40642 0.9045 0.0
C538 C 0.77043 0.39754 0.92027 0.0
C539 C 0.7455 0.38674 0.90829 0.0
C540 C 0.82212 0.41665 0.91767 0.0
C541 C 0.82315 0.4409 0.93522 0.0
C542 C 0.84647 0.40274 0.91304 0.0
C543 C 0.84664 0.37643 0.89548 0.0
C544 C 0.8272 0.3503 0.90061 0.0
C545 C 0.82736 0.32568 0.88383 0.0
C546 C 0.84702 0.32683 0.86197 0.0
C547 C 0.86661 0.35259 0.85689 0.0
C548 C 0.86651 0.37729 0.8736 0.0
C549 C 0.92039 0.45901 1.00044 0.0
C550 C 0.94656 0.46719 0.98629 0.0
C551 C 0.89642 0.44848 0.98685 0.0
C552 C 0.89786 0.44622 0.95871 0.0
C553 C 0.92417 0.45329 0.94464 0.0
C554 C 0.94822 0.46367 0.95824 0.0
C555 C 0.87187 0.43723 0.94401 0.0
C556 C 0.87098 0.41328 0.92611 0.0
C557 C 0.84771 0.45163 0.94811 0.0
C558 C 0.84785 0.47864 0.96492 0.0
C559 C 0.86847 0.50385 0.95992 0.0
C560 C 0.86879 0.52904 0.97606 0.0
C561 C 0.8484 0.52945 0.9971 0.0
C562 C 0.82763 0.50467 1.00201 0.0
C563 C 0.82728 0.47936 0.98599 0.0
H564 H 0.84868 0.54898 0.00957 0.0
H565 H 0.84711 0.30775 0.849 0.0
H566 H 0.87199 0.5781 0.42576 0.0
H567 H 0.82191 0.56533 0.43742 0.0
H568 H 0.83294 0.60515 0.51493 0.0
H569 H 0.88348 0.61727 0.50381 0.0
H570 H 0.78868 0.53261 0.47908 0.0
H571 H 0.77768 0.64669 0.52462 0.0
H572 H 0.80303 0.69839 0.52403 0.0
H573 H 0.83775 0.68647 0.44426 0.0
H574 H 0.81228 0.63491 0.44425 0.0
H575 H 0.64448 0.53621 0.52468 0.0
H576 H 0.6956 0.53903 0.52231 0.0
H577 H 0.70184 0.5992 0.45368 0.0
H578 H 0.6509 0.59636 0.45583 0.0
H579 H 0.73795 0.62043 0.48986 0.0
H580 H 0.71522 0.5249 0.44441 0.0
H581 H 0.69169 0.47293 0.44052 0.0
H582 H 0.72381 0.4486 0.51477 0.0
H583 H 0.74819 0.50034 0.51873 0.0
C584 C 0.86404 0.58339 0.44562 0.0
C585 C 0.88184 0.59885 0.46381 0.0
C586 C 0.83532 0.57613 0.4522 0.0
C587 C 0.82374 0.58448 0.47693 0.0
C588 C 0.8415 0.59872 0.49565 0.0
C589 C 0.87032 0.6058 0.48917 0.0
C590 C 0.79287 0.58069 0.48188 0.0
C591 C 0.77758 0.55176 0.48175 0.0
C592 C 0.7784 0.6057 0.48508 0.0
C593 C 0.79336 0.63686 0.4846 0.0
C594 C 0.79066 0.65517 0.50694 0.0
C595 C 0.80504 0.68443 0.5067 0.0
C596 C 0.82208 0.69567 0.48416 0.0
C597 C 0.82464 0.67771 0.46175 0.0
C598 C 0.81025 0.64846 0.46186 0.0
C599 C 0.65669 0.54969 0.50885 0.0
C600 C 0.64356 0.56619 0.49051 0.0
C601 C 0.68593 0.55132 0.50755 0.0
C602 C 0.70254 0.5693 0.4878 0.0
C603 C 0.68945 0.58536 0.46923 0.0
C604 C 0.66031 0.58379 0.47054 0.0
C605 C 0.73362 0.57232 0.48676 0.0
C606 C 0.749 0.60118 0.48771 0.0
C607 C 0.74813 0.54729 0.48406 0.0
C608 C 0.73321 0.51644 0.48199 0.0
C609 C 0.71709 0.50848 0.45997 0.0
C610 C 0.70366 0.47907 0.45773 0.0
C611 C 0.70594 0.45754 0.47753 0.0
C612 C 0.72196 0.46532 0.49949 0.0
C613 C 0.73574 0.49462 0.50167 0.0
H614 H 0.69541 0.43482 0.47577 0.0
H615 H 0.83323 0.7183 0.48403 0.0
H616 H 0.18055 0.25334 0.09998 0.0
H617 H 0.15645 0.29314 0.08303 0.0
H618 H 0.10226 0.28624 0.15535 0.0
H619 H 0.12625 0.24567 0.17222 0.0
H620 H 0.07148 0.29517 0.11487 0.0
H621 H 0.15894 0.34675 0.14072 0.0
H622 H 0.21037 0.35789 0.14236 0.0
H623 H 0.21859 0.37395 0.05707 0.0
H624 H 0.16721 0.36252 0.05486 0.0
H625 H 0.01874 0.43363 0.08771 0.0
H626 H 0.04086 0.39314 0.10663 0.0
H627 H 0.09668 0.39572 0.03568 0.0
H628 H 0.07481 0.43652 0.01682 0.0
H629 H 0.1262 0.38951 0.07714 0.0
H630 H 0.03828 0.33714 0.05161 0.0
H631 H 0.98676 0.32655 0.05056 0.0
H632 H 0.97937 0.31279 0.13614 0.0
H633 H 0.03085 0.32369 0.13774 0.0
C634 C 0.16353 0.26024 0.11242 0.0
C635 C 0.15567 0.24606 0.13765 0.0
C636 C 0.14972 0.28339 0.10269 0.0
C637 C 0.12752 0.29373 0.11785 0.0
C638 C 0.11927 0.27922 0.14299 0.0
C639 C 0.13314 0.2559 0.15277 0.0
C640 C 0.11312 0.31931 0.10732 0.0
C641 C 0.08359 0.31593 0.10704 0.0
C642 C 0.12835 0.34664 0.09637 0.0
C643 C 0.15925 0.35349 0.0976 0.0
C644 C 0.17173 0.35244 0.12228 0.0
C645 C 0.20087 0.35884 0.12332 0.0
C646 C 0.21774 0.36655 0.09983 0.0
C647 C 0.2055 0.36793 0.07525 0.0
C648 C 0.17637 0.36152 0.0741 0.0
C649 C 0.03558 0.42552 0.07593 0.0
C650 C 0.04462 0.43864 0.05044 0.0
C651 C 0.04829 0.40203 0.08683 0.0
C652 C 0.07055 0.39049 0.07272 0.0
C653 C 0.07967 0.40371 0.0473 0.0
C654 C 0.06692 0.42716 0.03635 0.0
C655 C 0.0846 0.36529 0.08448 0.0
C656 C 0.11409 0.36877 0.08499 0.0
C657 C 0.06931 0.33814 0.09573 0.0
C658 C 0.03839 0.33154 0.09482 0.0
C659 C 0.02565 0.33208 0.07023 0.0
C660 C 0.99646 0.32599 0.06953 0.0
C661 C 0.9798 0.31909 0.09328 0.0
C662 C 0.9923 0.31819 0.11777 0.0
C663 C 0.02148 0.3243 0.11858 0.0
H664 H 0.9572 0.31437 0.0927 0.0
H665 H 0.2403 0.3715 0.10068 0.0
H666 H 0.64769 0.28541 0.84307 0.0
H667 H 0.62011 0.24024 0.86376 0.0
H668 H 0.63961 0.27301 0.94228 0.0
H669 H 0.66665 0.31851 0.92187 0.0
H670 H 0.64681 0.21427 0.9371 0.0
H671 H 0.5753 0.27506 0.91911 0.0
H672 H 0.54941 0.3051 0.89057 0.0
H673 H 0.52747 0.22885 0.84122 0.0
H674 H 0.55358 0.19845 0.86927 0.0
H675 H 0.55289 0.115 0.01997 0.0
H676 H 0.57671 0.16014 0.99646 0.0
H677 H 0.54833 0.12483 0.92126 0.0
H678 H 0.52366 0.07971 0.9449 0.0
H679 H 0.54601 0.18338 0.92243 0.0
H680 H 0.61584 0.12199 0.93977 0.0
H681 H 0.64185 0.09096 0.96724 0.0
H682 H 0.668 0.16683 0.01574 0.0
H683 H 0.64175 0.19822 0.98882 0.0
C684 C 0.64583 0.28328 0.86476 0.0
C685 C 0.6595 0.3058 0.88073 0.0
C686 C 0.6301 0.25731 0.87657 0.0
C687 C 0.62762 0.25321 0.90463 0.0
C688 C 0.64128 0.27555 0.9206 0.0
C689 C 0.65688 0.30156 0.90884 0.0
C690 C 0.61112 0.22554 0.91742 0.0
C691 C 0.62469 0.20773 0.93414 0.0
C692 C 0.58246 0.21637 0.9129 0.0
C693 C 0.56663 0.23457 0.89613 0.0
C694 C 0.56514 0.26476 0.90205 0.0
C695 C 0.5504 0.28185 0.88598 0.0
C696 C 0.53687 0.26892 0.86405 0.0
C697 C 0.53799 0.23885 0.85819 0.0
C698 C 0.55274 0.22168 0.87418 0.0
C699 C 0.55148 0.11686 0.99844 0.0
C700 C 0.53647 0.09358 0.98432 0.0
C701 C 0.56529 0.14269 0.98497 0.0
C702 C 0.56492 0.14574 0.95694 0.0
C703 C 0.5491 0.12301 0.94286 0.0
C704 C 0.535 0.09719 0.9564 0.0
C705 C 0.58161 0.1723 0.94245 0.0
C706 C 0.56815 0.18984 0.92535 0.0
C707 C 0.61049 0.1811 0.94638 0.0
C708 C 0.62662 0.1624 0.96241 0.0
C709 C 0.62699 0.13202 0.9564 0.0
C710 C 0.64179 0.11437 0.97186 0.0
C711 C 0.65652 0.1269 0.99325 0.0
C712 C 0.65655 0.15714 0.99917 0.0
C713 C 0.64173 0.17488 0.98381 0.0
H714 H 0.66796 0.1132 1.00521 0.0
H715 H 0.52546 0.28218 0.85164 0.0
H716 H 0.98184 0.6925 0.41753 0.0
H717 H 0.99965 0.74458 0.42684 0.0
H718 H 0.96399 0.73215 0.50829 0.0
H719 H 0.94755 0.67959 0.4996 0.0
H720 H 0.97276 0.78819 0.43823 0.0
H721 H 0.99933 0.77853 0.55036 0.0
H722 H 0.01875 0.74334 0.57973 0.0
H723 H 0.06032 0.70831 0.51114 0.0
H724 H 0.0415 0.74356 0.4814 0.0
H725 H 0.96281 0.9227 0.50275 0.0
H726 H 0.95966 0.87034 0.49013 0.0
H727 H 0.04847 0.87336 0.49895 0.0
H728 H 0.05157 0.92577 0.51265 0.0
H729 H 0.02208 0.82299 0.51911 0.0
H730 H 0.02139 0.87476 0.43597 0.0
H731 H 1.00684 0.91061 0.40384 0.0
H732 H 0.92318 0.86223 0.40878 0.0
H733 H 0.93711 0.82631 0.44124 0.0
C734 C 0.9784 0.70059 0.43764 0.0
C735 C 0.96334 0.68177 0.45786 0.0
C736 C 0.98836 0.7305 0.44284 0.0
C737 C 0.98341 0.74227 0.46832 0.0
C738 C 0.96857 0.72349 0.48861 0.0
C739 C 0.95884 0.69351 0.4835 0.0
C740 C 0.99215 0.77461 0.47327 0.0
C741 C 0.98372 0.79578 0.45582 0.0
C742 C 1.00713 0.78462 0.49581 0.0
C743 C 0.0188 0.76356 0.51363 0.0
C744 C 0.01273 0.76343 0.54155 0.0
C745 C 0.02361 0.74345 0.55827 0.0
C746 C 0.04069 0.72355 0.54731 0.0
C747 C 0.047 0.72366 0.5196 0.0
C748 C 0.0362 0.74361 0.5028 0.0
C749 C 0.98172 0.91228 0.50196 0.0
C750 C 1.00749 0.9284 0.5085 0.0
C751 C 0.97991 0.88236 0.4946 0.0
C752 C 1.00394 0.86807 0.49302 0.0
C753 C 0.02968 0.88397 0.4999 0.0
C754 C 0.03144 0.9139 0.50767 0.0
C755 C 1.00182 0.83639 0.48456 0.0
C756 C 0.01146 0.81538 0.50134 0.0
C757 C 0.98873 0.82655 0.46093 0.0
C758 C 0.98028 0.84792 0.44117 0.0
C759 C 0.99985 0.87185 0.43032 0.0
C760 C 0.99171 0.89218 0.41204 0.0
C761 C 0.96409 0.88873 0.4043 0.0
C762 C 0.94457 0.86488 0.41479 0.0
C763 C 0.95258 0.8445 0.4331 0.0
H764 H 0.95783 0.9045 0.39016 0.0
H765 H 0.04908 0.70808 0.56028 0.0
H766 H 0.475 0.82843 0.62927 0.0
H767 H 0.48874 0.7806 0.61455 0.0
H768 H 0.40154 0.74325 0.61106 0.0
H769 H 0.38769 0.79102 0.62575 0.0
H770 H 0.43422 0.70643 0.63852 0.0
H771 H 0.43634 0.76123 0.55491 0.0
H772 H 0.45024 0.8046 0.524 0.0
H773 H 0.537 0.79474 0.52899 0.0
H774 H 0.52361 0.75155 0.56026 0.0
H775 H 0.44991 0.57446 0.56669 0.0
H776 H 0.43696 0.62155 0.58349 0.0
H777 H 0.5236 0.6626 0.57363 0.0
H778 H 0.53657 0.61581 0.55595 0.0
H779 H 0.49142 0.69795 0.55368 0.0
H780 H 0.49025 0.64305 0.63654 0.0
H781 H 0.47718 0.60004 0.66799 0.0
H782 H 0.39024 0.61028 0.66565 0.0
H783 H 0.40277 0.65313 0.63389 0.0
C784 C 0.45883 0.81 0.62525 0.0
C785 C 0.43034 0.81334 0.62845 0.0
C786 C 0.46666 0.78282 0.61683 0.0
C787 C 0.44611 0.75857 0.61169 0.0
C788 C 0.41765 0.7618 0.61494 0.0
C789 C 0.4098 0.78908 0.62308 0.0
C790 C 0.45435 0.72972 0.60306 0.0
C791 C 0.44644 0.70438 0.61984 0.0
C792 C 0.4709 0.72748 0.57905 0.0
C793 C 0.47899 0.75336 0.56015 0.0
C794 C 0.45839 0.76847 0.54961 0.0
C795 C 0.46618 0.79299 0.53198 0.0
C796 C 0.49449 0.80247 0.52459 0.0
C797 C 0.51507 0.7874 0.53476 0.0
C798 C 0.5074 0.76289 0.55242 0.0
C799 C 0.46625 0.59343 0.56837 0.0
C800 C 0.49425 0.59149 0.56002 0.0
C801 C 0.45883 0.6203 0.57807 0.0
C802 C 0.47937 0.6455 0.58008 0.0
C803 C 0.50742 0.64342 0.57221 0.0
C804 C 0.51481 0.61667 0.5622 0.0
C805 C 0.4714 0.67442 0.58918 0.0
C806 C 0.47931 0.69987 0.57246 0.0
C807 C 0.45503 0.67677 0.61337 0.0
C808 C 0.44744 0.65115 0.63265 0.0
C809 C 0.46833 0.63601 0.64259 0.0
C810 C 0.46102 0.61167 0.6605 0.0
C811 C 0.43289 0.60239 0.66877 0.0
C812 C 0.41202 0.61748 0.65921 0.0
C813 C 0.41922 0.64182 0.64128 0.0
H814 H 0.42728 0.58353 0.68262 0.0
H815 H 0.50047 0.82146 0.51094 0.0
H816 H 0.87282 0.855 0.79781 0.0
H817 H 0.89732 0.8758 0.75627 0.0
H818 H 0.85988 0.95623 0.766 0.0
H819 H 0.83674 0.93682 0.80889 0.0
H820 H 0.85872 0.92441 0.70942 0.0
H821 H 0.92076 0.9671 0.77666 0.0
H822 H 0.94947 0.9638 0.81554 0.0
H823 H 0.99855 0.90596 0.77183 0.0
H824 H 0.96981 0.90856 0.73282 0.0
H825 H 0.93288 0.00709 0.59781 0.0
H826 H 0.90872 0.99009 0.64088 0.0
H827 H 0.97693 0.94216 0.65831 0.0
H828 H 1.0021 0.96142 0.6161 0.0
H829 H 0.96153 0.95707 0.70233 0.0
H830 H 0.9026 0.90997 0.63705 0.0
H831 H 0.87388 0.90621 0.59763 0.0
H832 H 0.81901 0.96238 0.63558 0.0
H833 H 0.84762 0.96677 0.67511 0.0
C834 C 0.86999 0.87746 0.79194 0.0
C835 C 0.85247 0.89392 0.808 0.0
C836 C 0.88402 0.88926 0.76755 0.0
C837 C 0.88074 0.91778 0.75752 0.0
C838 C 0.86291 0.93413 0.77291 0.0
C839 C 0.84935 0.92266 0.7977 0.0
C840 C 0.89606 0.93037 0.73125 0.0
C841 C 0.88115 0.93198 0.70799 0.0
C842 C 0.92558 0.93917 0.72858 0.0
C843 C 0.94294 0.93777 0.75194 0.0
C844 C 0.93749 0.95344 0.77544 0.0
C845 C 0.95381 0.95175 0.79747 0.0
C846 C 0.97577 0.93461 0.79619 0.0
C847 C 0.9815 0.9192 0.77282 0.0
C848 C 0.96522 0.92079 0.75074 0.0
C849 C 0.94283 0.99296 0.6108 0.0
C850 C 0.96962 0.98571 0.60303 0.0
C851 C 0.92868 0.98274 0.63563 0.0
C852 C 0.94006 0.96364 0.6534 0.0
C853 C 0.96705 0.95664 0.64561 0.0
C854 C 0.9816 0.96766 0.62114 0.0
C855 C 0.92428 0.95143 0.67993 0.0
C856 C 0.93909 0.94967 0.7034 0.0
C857 C 0.89471 0.94157 0.68257 0.0
C858 C 0.87742 0.93895 0.6589 0.0
C859 C 0.88451 0.92166 0.63691 0.0
C860 C 0.86824 0.9194 0.61456 0.0
C861 C 0.84468 0.93412 0.61407 0.0
C862 C 0.83729 0.95104 0.63597 0.0
C863 C 0.85351 0.9534 0.65836 0.0
H864 H 0.83212 0.93235 0.59675 0.0
H865 H 0.98839 0.93333 0.81327 0.0
H866 H 0.60047 0.18823 0.3171 0.0
H867 H 0.5822 0.16367 0.27721 0.0
H868 H 0.57161 0.07791 0.31891 0.0
H869 H 0.59085 0.10252 0.35876 0.0
H870 H 0.59542 0.07281 0.2721 0.0
H871 H 0.51408 0.11273 0.3025 0.0
H872 H 0.48569 0.15037 0.31999 0.0
H873 H 0.50821 0.2045 0.24851 0.0
H874 H 0.53711 0.16744 0.23073 0.0
H875 H 0.53485 0.01583 0.14992 0.0
H876 H 0.53501 0.02907 0.19769 0.0
H877 H 0.57519 0.11848 0.17549 0.0
H878 H 0.57557 0.10515 0.12805 0.0
H879 H 0.52684 0.11291 0.21649 0.0
H880 H 0.61584 0.07607 0.19269 0.0
H881 H 0.64341 0.03746 0.17567 0.0
H882 H 0.60283 0.97524 0.23657 0.0
H883 H 0.57471 0.01343 0.2537 0.0
C884 C 0.59385 0.1642 0.31785 0.0
C885 C 0.59694 0.14722 0.34093 0.0
C886 C 0.58325 0.15018 0.29512 0.0
C887 C 0.57497 0.11898 0.29523 0.0
C888 C 0.57772 0.10201 0.31844 0.0
C889 C 0.58872 0.11602 0.34111 0.0
C890 C 0.56564 0.10413 0.27032 0.0
C891 C 0.57984 0.08108 0.26034 0.0
C892 C 0.5454 0.11493 0.25482 0.0
C893 C 0.5279 0.1373 0.26533 0.0
C894 C 0.51314 0.13274 0.29056 0.0
C895 C 0.49693 0.15398 0.30053 0.0
C896 C 0.49517 0.17982 0.28538 0.0
C897 C 0.50958 0.18446 0.26021 0.0
C898 C 0.52585 0.16332 0.25016 0.0
C899 C 0.54351 0.03829 0.1554 0.0
C900 C 0.55546 0.05944 0.13557 0.0
C901 C 0.54357 0.04581 0.18251 0.0
C902 C 0.55505 0.07472 0.18989 0.0
C903 C 0.56615 0.0961 0.17004 0.0
C904 C 0.56662 0.08842 0.14309 0.0
C905 C 0.55724 0.08255 0.21832 0.0
C906 C 0.54174 0.10421 0.22881 0.0
C907 C 0.57596 0.07026 0.23444 0.0
C908 C 0.59292 0.04742 0.22422 0.0
C909 C 0.6126 0.05405 0.20227 0.0
C910 C 0.62837 0.03228 0.19264 0.0
C911 C 0.6248 1.00387 0.20497 0.0
C912 C 0.60552 0.99722 0.227 0.0
C913 C 0.58967 0.01892 0.23667 0.0
H914 H 0.63703 0.98704 0.1975 0.0
H915 H 0.48262 0.19624 0.29314 0.0
H916 H 0.34326 0.60879 0.28523 0.0
H917 H 0.35989 0.58721 0.32575 0.0
H918 H 0.44423 0.62951 0.30331 0.0
H919 H 0.42783 0.65049 0.26286 0.0
H920 H 0.44569 0.5744 0.31939 0.0
H921 H 0.40126 0.65654 0.35405 0.0
H922 H 0.36219 0.6857 0.36223 0.0
H923 H 0.31309 0.60984 0.40339 0.0
H924 H 0.35177 0.58009 0.39515 0.0
H925 H 0.5143 0.56906 0.44022 0.0
H926 H 0.49215 0.58525 0.40091 0.0
H927 H 0.41281 0.53587 0.43064 0.0
H928 H 0.43482 0.51982 0.47032 0.0
H929 H 0.40566 0.59017 0.41114 0.0
H930 H 0.4517 0.50921 0.37902 0.0
H931 H 0.49129 0.48066 0.37138 0.0
H932 H 0.53764 0.55466 0.32545 0.0
H933 H 0.49848 0.58384 0.33315 0.0
C934 C 0.36532 0.61346 0.289 0.0
C935 C 0.38425 0.63137 0.27083 0.0
C936 C 0.37482 0.60122 0.31225 0.0
C937 C 0.40339 0.60683 0.31786 0.0
C938 C 0.42216 0.62467 0.29957 0.0
C939 C 0.41272 0.63677 0.27644 0.0
C940 C 0.41413 0.59416 0.34247 0.0
C941 C 0.43704 0.57814 0.33944 0.0
C942 C 0.40252 0.59816 0.36875 0.0
C943 C 0.37927 0.61599 0.3737 0.0
C944 C 0.38204 0.646 0.36465 0.0
C945 C 0.35998 0.66265 0.36934 0.0
C946 C 0.33514 0.6496 0.38325 0.0
C947 C 0.33233 0.6199 0.39257 0.0
C948 C 0.35431 0.60314 0.38791 0.0
C949 C 0.49214 0.56155 0.43845 0.0
C950 C 0.47643 0.54294 0.45847 0.0
C951 C 0.47948 0.57077 0.41583 0.0
C952 C 0.4508 0.56152 0.41249 0.0
C953 C 0.43496 0.54329 0.43263 0.0
C954 C 0.44763 0.53401 0.45529 0.0
C955 C 0.43752 0.57096 0.38801 0.0
C956 C 0.41415 0.58627 0.39107 0.0
C957 C 0.44872 0.56638 0.36172 0.0
C958 C 0.47223 0.5488 0.35686 0.0
C959 C 0.47041 0.51948 0.36745 0.0
C960 C 0.49276 0.50317 0.36308 0.0
C961 C 0.51698 0.51587 0.34798 0.0
C962 C 0.51887 0.54487 0.33716 0.0
C963 C 0.49659 0.56129 0.3415 0.0
H964 H 0.53427 0.50321 0.34463 0.0
H965 H 0.31809 0.66253 0.38686 0.0
H966 H 0.02306 0.44152 0.68117 0.0
H967 H 0.01611 0.45134 0.72902 0.0
H968 H 0.08185 0.52739 0.72087 0.0
H969 H 0.08801 0.51829 0.67281 0.0
H970 H 0.04943 0.44752 0.76592 0.0
H971 H 0.07513 0.57786 0.76864 0.0
H972 H 0.06788 0.62191 0.74158 0.0
H973 H 0.99662 0.57065 0.70806 0.0
H974 H 1.0032 0.52642 0.73517 0.0
H975 H 0.0955 0.49049 0.89152 0.0
H976 H 0.09099 0.48623 0.84338 0.0
H977 H 0.01439 0.52521 0.85054 0.0
H978 H 0.01943 0.53096 0.89866 0.0
H979 H 0.04458 0.54658 0.80693 0.0
H980 H 0.01232 0.44951 0.84455 0.0
H981 H 0.01391 0.40422 0.87227 0.0
H982 H 0.08735 0.38663 0.82575 0.0
H983 H 0.08645 0.43207 0.79798 0.0
C984 C 0.03568 0.46063 0.68953 0.0
C985 C 0.05614 0.47916 0.67338 0.0
C986 C 0.03175 0.46619 0.71689 0.0
C987 C 0.04834 0.4902 0.72863 0.0
C988 C 0.06835 0.50911 0.71229 0.0
C989 C 0.07198 0.50382 0.68485 0.0
C990 C 0.04629 0.49406 0.7582 0.0
C991 C 0.04819 0.46918 0.77482 0.0
C992 C 0.04412 0.52215 0.77 0.0
C993 C 0.03982 0.54875 0.7538 0.0
C994 C 0.05784 0.57602 0.75559 0.0
C995 C 0.05386 0.60102 0.74022 0.0
C996 C 0.03186 0.59905 0.72306 0.0
C997 C 0.01372 0.57211 0.72129 0.0
C998 C 0.01759 0.54706 0.73663 0.0
C999 C 0.07789 0.49862 0.88295 0.0
C1000 C 0.05772 0.51088 0.8992 0.0
C1001 C 0.07518 0.49584 0.85537 0.0
C1002 C 0.05206 0.50486 0.84343 0.0
C1003 C 0.0323 0.51789 0.85936 0.0
C1004 C 0.03509 0.52088 0.88697 0.0
C1005 C 0.04844 0.50024 0.81437 0.0
C1006 C 0.04555 0.52493 0.79792 0.0
C1007 C 0.04885 0.47179 0.80275 0.0
C1008 C 0.04943 0.44434 0.81932 0.0
C1009 C 0.02893 0.4361 0.84035 0.0
C1010 C 0.02969 0.41038 0.85605 0.0
C1011 C 0.05075 0.39259 0.85081 0.0
C1012 C 0.07106 0.40045 0.8298 0.0
C1013 C 0.07042 0.42616 0.81405 0.0
H1014 H 0.0513 0.37269 0.86299 0.0
H1015 H 0.02883 0.61842 0.71116 0.0
H1016 H 0.74893 0.84774 0.89252 0.0
H1017 H 0.70741 0.86676 0.91294 0.0
H1018 H 0.74881 0.95734 0.89996 0.0
H1019 H 0.79005 0.93845 0.87869 0.0
H1020 H 0.72034 0.94279 0.95551 0.0
H1021 H 0.70039 0.93657 0.86167 0.0
H1022 H 0.69382 0.91039 0.81888 0.0
H1023 H 0.62784 0.84702 0.85703 0.0
H1024 H 0.63433 0.87257 0.90017 0.0
H1025 H 0.60549 0.01809 0.9986 0.0
H1026 H 0.64632 1.00084 0.97593 0.0
H1027 H 0.59339 0.92258 0.94947 0.0
H1028 H 0.55211 0.94169 0.97002 0.0
H1029 H 0.6289 0.92987 0.9137 0.0
H1030 H 0.64769 0.92959 1.00657 0.0
H1031 H 0.65387 0.94971 0.05196 0.0
H1032 H 0.72073 0.01659 0.02047 0.0
H1033 H 0.71474 0.99707 0.97485 0.0
C1034 C 0.74932 0.87175 0.89389 0.0
C1035 C 0.77332 0.89134 0.88366 0.0
C1036 C 0.72532 0.8827 0.90564 0.0
C1037 C 0.72444 0.91374 0.90832 0.0
C1038 C 0.74848 0.93335 0.8984 0.0
C1039 C 0.77221 0.92242 0.886 0.0
C1040 C 0.69868 0.9256 0.92137 0.0
C1041 C 0.70045 0.94026 0.94615 0.0
C1042 C 0.67202 0.92156 0.91014 0.0
C1043 C 0.66806 0.90629 0.88421 0.0
C1044 C 0.68467 0.91688 0.861 0.0
C1045 C 0.68092 0.90219 0.83666 0.0
C1046 C 0.66048 0.87701 0.83525 0.0
C1047 C 0.6437 0.86651 0.85816 0.0
C1048 C 0.64739 0.8811 0.88255 0.0
C1049 C 0.60245 0.99715 0.98797 0.0
C1050 C 0.57511 0.98134 0.98657 0.0
C1051 C 0.62622 0.98684 0.97512 0.0
C1052 C 0.62414 0.95934 0.96132 0.0
C1053 C 0.59657 0.9437 0.95977 0.0
C1054 C 0.57263 0.95463 0.97179 0.0
C1055 C 0.65018 0.94729 0.94829 0.0
C1056 C 0.64858 0.93249 0.9234 0.0
C1057 C 0.67683 0.95031 0.9599 0.0
C1058 C 0.68057 0.96205 0.98728 0.0
C1059 C 0.66361 0.94868 0.00932 0.0
C1060 C 0.66709 0.95997 0.03508 0.0
C1061 C 0.68763 0.98446 0.03908 0.0
C1062 C 0.7048 0.99765 0.01734 0.0
C1063 C 0.70139 0.98647 0.99153 0.0
H1064 H 0.69028 0.99318 0.05904 0.0
H1065 H 0.6576 0.86567 0.81639 0.0
H1066 H 0.69732 0.14787 0.48087 0.0
H1067 H 0.74282 0.13316 0.48973 0.0
H1068 H 0.77034 0.14948 0.40618 0.0
H1069 H 0.7243 0.1624 0.39711 0.0
H1070 H 0.78332 0.10003 0.41954 0.0
H1071 H 0.79739 0.19536 0.45972 0.0
H1072 H 0.78688 0.23703 0.4884 0.0
H1073 H 0.78498 0.18076 0.55868 0.0
H1074 H 0.79509 0.1386 0.53041 0.0
H1075 H 0.92028 0.06883 0.45297 0.0
H1076 H 0.8851 0.10037 0.44072 0.0
H1077 H 0.83008 0.06248 0.50761 0.0
H1078 H 0.86473 0.03063 0.5194 0.0
H1079 H 0.8374 0.12975 0.49886 0.0
H1080 H 0.81585 0.03303 0.4545 0.0
H1081 H 0.82847 0.99335 0.42442 0.0
H1082 H 0.84801 0.05772 0.35948 0.0
H1083 H 0.83587 0.09788 0.38934 0.0
C1084 C 0.71325 0.14849 0.46453 0.0
C1085 C 0.70736 0.15586 0.43833 0.0
C1086 C 0.73933 0.1404 0.4696 0.0
C1087 C 0.76025 0.14057 0.44868 0.0
C1088 C 0.75458 0.14906 0.42263 0.0
C1089 C 0.72828 0.1564 0.41746 0.0
C1090 C 0.78703 0.12939 0.45349 0.0
C1091 C 0.79544 0.1072 0.43654 0.0
C1092 C 0.80291 0.13843 0.47575 0.0
C1093 C 0.79683 0.16374 0.4929 0.0
C1094 C 0.79454 0.19179 0.48128 0.0
C1095 C 0.78868 0.21552 0.49747 0.0
C1096 C 0.78521 0.21153 0.52534 0.0
C1097 C 0.78766 0.18382 0.53708 0.0
C1098 C 0.7935 0.16001 0.52099 0.0
C1099 C 0.90069 0.0675 0.46501 0.0
C1100 C 0.89488 0.0472 0.48684 0.0
C1101 C 0.88077 0.08545 0.45811 0.0
C1102 C 0.85518 0.08366 0.47338 0.0
C1103 C 0.84981 0.06416 0.49572 0.0
C1104 C 0.8694 0.04583 0.50224 0.0
C1105 C 0.83295 0.10043 0.4652 0.0
C1106 C 0.82545 0.12343 0.48155 0.0
C1107 C 0.81821 0.09263 0.44214 0.0
C1108 C 0.82533 0.06848 0.42421 0.0
C1109 C 0.82311 0.03876 0.43388 0.0
C1110 C 0.83011 0.01618 0.41686 0.0
C1111 C 0.83913 0.02303 0.39008 0.0
C1112 C 0.84108 0.05246 0.38024 0.0
C1113 C 0.83414 0.07513 0.3972 0.0
H1114 H 0.84453 0.00551 0.37693 0.0
H1115 H 0.78068 0.22993 0.53784 0.0
H1116 H 0.25204 0.63544 0.20447 0.0
H1117 H 0.20854 0.61726 0.18301 0.0
H1118 H 0.25401 0.62483 0.10552 0.0
H1119 H 0.29723 0.64355 0.12683 0.0
H1120 H 0.20821 0.64715 0.10136 0.0
H1121 H 0.22911 0.55551 0.14061 0.0
H1122 H 0.23898 0.52173 0.17692 0.0
H1123 H 0.15958 0.52984 0.21774 0.0
H1124 H 0.14941 0.56403 0.18186 0.0
H1125 H 0.10724 0.56219 0.02357 0.0
H1126 H 0.1484 0.58158 0.04782 0.0
H1127 H 0.09685 0.57755 0.12181 0.0
H1128 H 0.05561 0.5579 0.09771 0.0
H1129 H 0.14387 0.55465 0.1294 0.0
H1130 H 0.12245 0.64501 0.0898 0.0
H1131 H 0.11201 0.67815 0.05324 0.0
H1132 H 0.19207 0.67187 0.01295 0.0
H1133 H 0.20284 0.63835 0.04911 0.0
C1134 C 0.2528 0.63284 0.1829 0.0
C1135 C 0.27816 0.64106 0.1674 0.0
C1136 C 0.22787 0.6224 0.17059 0.0
C1137 C 0.22779 0.61939 0.14252 0.0
C1138 C 0.25327 0.62705 0.12714 0.0
C1139 C 0.27806 0.63776 0.13938 0.0
C1140 C 0.20123 0.60926 0.1289 0.0
C1141 C 0.19441 0.62667 0.10733 0.0
C1142 C 0.18248 0.58305 0.13704 0.0
C1143 C 0.18867 0.56265 0.15871 0.0
C1144 C 0.21388 0.55033 0.15746 0.0
C1145 C 0.2195 0.53106 0.17794 0.0
C1146 C 0.19997 0.52373 0.19968 0.0
C1147 C 0.17473 0.5356 0.20093 0.0
C1148 C 0.16902 0.55492 0.18053 0.0
C1149 C 0.10455 0.56578 0.04494 0.0
C1150 C 0.07798 0.5586 0.05858 0.0
C1151 C 0.12816 0.57692 0.05883 0.0
C1152 C 0.12585 0.58132 0.08671 0.0
C1153 C 0.0993 0.57442 0.10034 0.0
C1154 C 0.07565 0.56333 0.08646 0.0
C1155 C 0.15123 0.5923 0.10167 0.0
C1156 C 0.15773 0.57513 0.1235 0.0
C1157 C 0.16971 0.61871 0.09379 0.0
C1158 C 0.16334 0.63894 0.07205 0.0
C1159 C 0.13774 0.65051 0.07304 0.0
C1160 C 0.13178 0.6694 0.05241 0.0
C1161 C 0.15133 0.67705 0.03075 0.0
C1162 C 0.17693 0.6659 0.02972 0.0
C1163 C 0.18299 0.64698 0.0503 0.0
H1164 H 0.14668 0.69168 0.0148 0.0
H1165 H 0.20436 0.50879 0.2155 0.0
H1166 H 0.14444 0.47771 0.58264 0.0
H1167 H 0.1954 0.49318 0.577 0.0
H1168 H 0.20851 0.40191 0.59201 0.0
H1169 H 0.15809 0.38662 0.5986 0.0
H1170 H 0.24248 0.43987 0.61982 0.0
H1171 H 0.21406 0.4332 0.52818 0.0
H1172 H 0.18752 0.4463 0.4901 0.0
H1173 H 0.22446 0.53856 0.49464 0.0
H1174 H 0.25096 0.52603 0.533 0.0
H1175 H 0.37454 0.42066 0.56463 0.0
H1176 H 0.32422 0.42027 0.57218 0.0
H1177 H 0.33547 0.5166 0.56332 0.0
H1178 H 0.38627 0.51739 0.55638 0.0
H1179 H 0.28998 0.48609 0.53534 0.0
H1180 H 0.32336 0.49048 0.6235 0.0
H1181 H 0.35061 0.47604 0.66052 0.0
H1182 H 0.30451 0.38703 0.66204 0.0
H1183 H 0.27725 0.40081 0.62474 0.0
C1184 C 0.15825 0.46102 0.58481 0.0
C1185 C 0.14721 0.43088 0.5908 0.0
C1186 C 0.18731 0.46984 0.58141 0.0
C1187 C 0.20573 0.44864 0.5839 0.0
C1188 C 0.1947 0.41864 0.58997 0.0
C1189 C 0.16582 0.40987 0.59342 0.0
C1190 C 0.23659 0.45726 0.58049 0.0
C1191 C 0.25284 0.44989 0.60131 0.0
C1192 C 0.2501 0.47125 0.55669 0.0
C1193 C 0.23419 0.47875 0.53366 0.0
C1194 C 0.21633 0.45632 0.5212 0.0
C1195 C 0.20134 0.46363 0.49954 0.0
C1196 C 0.20423 0.49326 0.49002 0.0
C1197 C 0.22219 0.51563 0.50208 0.0
C1198 C 0.2372 0.50844 0.52377 0.0
C1199 C 0.36652 0.44186 0.56455 0.0
C1200 C 0.38464 0.46909 0.5602 0.0
C1201 C 0.33768 0.44156 0.56873 0.0
C1202 C 0.32623 0.46843 0.56862 0.0
C1203 C 0.34399 0.49564 0.56351 0.0
C1204 C 0.373 0.496 0.55947 0.0
C1205 C 0.29569 0.46766 0.57429 0.0
C1206 C 0.27956 0.47659 0.55402 0.0
C1207 C 0.28221 0.45498 0.59856 0.0
C1208 C 0.29837 0.44665 0.6212 0.0
C1209 C 0.31915 0.46777 0.6316 0.0
C1210 C 0.33459 0.45971 0.65266 0.0
C1211 C 0.32933 0.43062 0.6636 0.0
C1212 C 0.30857 0.40956 0.65355 0.0
C1213 C 0.29309 0.41749 0.63247 0.0
H1214 H 0.3413 0.42442 0.6799 0.0
H1215 H 0.19261 0.49888 0.47324 0.0
H1216 H 0.85272 0.78106 0.93131 0.0
H1217 H 0.87204 0.74068 0.95453 0.0
H1218 H 0.92605 0.73059 0.88425 0.0
H1219 H 0.90657 0.77011 0.86118 0.0
H1220 H 0.90822 0.6777 0.90165 0.0
H1221 H 0.94846 0.76587 0.94675 0.0
H1222 H 0.94809 0.81194 0.97293 0.0
H1223 H 0.90003 0.76119 0.03763 0.0
H1224 H 0.89982 0.71485 0.01168 0.0
H1225 H 1.00415 0.59008 0.95598 0.0
H1226 H 0.98214 0.63051 0.93697 0.0
H1227 H 0.92914 0.63143 0.00948 0.0
H1228 H 0.95155 0.59121 0.02882 0.0
H1229 H 0.94378 0.68764 0.99273 0.0
H1230 H 0.90529 0.59909 0.94788 0.0
H1231 H 0.90677 0.55313 0.92174 0.0
H1232 H 0.95219 0.605 0.8563 0.0
H1233 H 0.95131 0.65125 0.88217 0.0
C1234 C 0.86873 0.77027 0.92082 0.0
C1235 C 0.87795 0.77919 0.89417 0.0
C1236 C 0.88002 0.74708 0.93424 0.0
C1237 C 0.90105 0.73212 0.92154 0.0
C1238 C 0.90998 0.74115 0.89491 0.0
C1239 C 0.89877 0.7641 0.88162 0.0
C1240 C 0.9137 0.70703 0.93531 0.0
C1241 C 0.91623 0.68027 0.92147 0.0
C1242 C 0.92382 0.70918 0.96156 0.0
C1243 C 0.92384 0.73697 0.97715 0.0
C1244 C 0.93762 0.76458 0.96647 0.0
C1245 C 0.93755 0.79073 0.98128 0.0
C1246 C 0.92397 0.78951 1.00689 0.0
C1247 C 0.91049 0.76211 0.01777 0.0
C1248 C 0.91047 0.7359 1.00303 0.0
C1249 C 0.9879 0.59886 0.96807 0.0
C1250 C 0.97987 0.58692 0.99415 0.0
C1251 C 0.97502 0.62209 0.95698 0.0
C1252 C 0.95329 0.63429 0.97132 0.0
C1253 C 0.94564 0.62281 0.99762 0.0
C1254 C 0.95856 0.59955 0.00876 0.0
C1255 C 0.93861 0.6586 0.95888 0.0
C1256 C 0.93568 0.68511 0.97295 0.0
C1257 C 0.92815 0.6563 0.93278 0.0
C1258 C 0.92845 0.62859 0.91706 0.0
C1259 C 0.91573 0.60066 0.92798 0.0
C1260 C 0.91645 0.57457 0.91321 0.0
C1261 C 0.92962 0.57613 0.88742 0.0
C1262 C 0.94202 0.60382 0.8763 0.0
C1263 C 0.9414 0.62999 0.89099 0.0
H1264 H 0.93017 0.55589 0.87604 0.0
H1265 H 0.92395 0.80977 0.01833 0.0
H1266 H 0.40236 0.7123 0.17796 0.0
H1267 H 0.42912 0.75808 0.15763 0.0
H1268 H 0.35282 0.78549 0.13209 0.0
H1269 H 0.32558 0.74086 0.15367 0.0
H1270 H 0.40005 0.78693 0.09066 0.0
H1271 H 0.37816 0.81984 0.18091 0.0
H1272 H 0.37807 0.81656 0.23027 0.0
H1273 H 0.46808 0.82597 0.2253 0.0
H1274 H 0.46867 0.82885 0.17585 0.0
H1275 H 0.43862 0.93433 0.0434 0.0
H1276 H 0.41677 0.88839 0.06666 0.0
H1277 H 0.49086 0.88709 0.11078 0.0
H1278 H 0.51228 0.93448 0.08845 0.0
H1279 H 0.44863 0.86963 0.14297 0.0
H1280 H 0.47334 0.83902 0.05514 0.0
H1281 H 0.47666 0.83996 1.00562 0.0
H1282 H 0.38684 0.82237 1.00499 0.0
H1283 H 0.38294 0.82173 0.05452 0.0
C1284 C 0.39106 0.72823 0.1685 0.0
C1285 C 0.36159 0.72252 0.16756 0.0
C1286 C 0.40652 0.75434 0.15668 0.0
C1287 C 0.39298 0.77516 0.1433 0.0
C1288 C 0.36372 0.76961 0.14216 0.0
C1289 C 0.34818 0.74384 0.15439 0.0
C1290 C 0.40924 0.80259 0.13013 0.0
C1291 C 0.41046 0.80519 0.10205 0.0
C1292 C 0.4238 0.82578 0.14496 0.0
C1293 C 0.42343 0.8242 0.17468 0.0
C1294 C 0.39791 0.82091 0.19033 0.0
C1295 C 0.39777 0.81919 0.21833 0.0
C1296 C 0.42304 0.82096 0.23092 0.0
C1297 C 0.44851 0.82454 0.21553 0.0
C1298 C 0.44876 0.82624 0.18751 0.0
C1299 C 0.45036 0.92426 0.05799 0.0
C1300 C 0.47735 0.9379 0.06384 0.0
C1301 C 0.43787 0.89777 0.07121 0.0
C1302 C 0.45235 0.88352 0.09002 0.0
C1303 C 0.47922 0.89738 0.09625 0.0
C1304 C 0.49152 0.92443 0.08342 0.0
C1305 C 0.43911 0.85448 0.10325 0.0
C1306 C 0.43848 0.85142 0.13138 0.0
C1307 C 0.42563 0.83045 0.08838 0.0
C1308 C 0.42785 0.83055 0.05857 0.0
C1309 C 0.45428 0.83552 0.04445 0.0
C1310 C 0.45627 0.83599 0.01637 0.0
C1311 C 0.43198 0.83129 1.00217 0.0
C1312 C 0.40564 0.82603 0.01602 0.0
C1313 C 0.40353 0.82557 0.0441 0.0
H1314 H 0.43356 0.83168 0.98044 0.0
H1315 H 0.42289 0.81963 0.2526 0.0
H1316 H 0.02437 0.3588 0.57616 0.0
H1317 H 1.00737 0.30648 0.56543 0.0
H1318 H 0.08696 0.28135 0.58452 0.0
H1319 H 0.10381 0.33298 0.59558 0.0
H1320 H 0.06996 0.25801 0.53737 0.0
H1321 H 0.03044 0.26697 0.62802 0.0
H1322 H 1.00178 0.2887 0.66316 0.0
H1323 H 0.92835 0.26526 0.61896 0.0
H1324 H 0.95669 0.24374 0.58335 0.0
H1325 H 0.05336 0.10433 0.56307 0.0
H1326 H 0.05873 0.15833 0.56965 0.0
H1327 H 0.97654 0.16108 0.54107 0.0
H1328 H 0.97089 0.10672 0.53431 0.0
H1329 H 0.98875 0.19712 0.58718 0.0
H1330 H 0.02811 0.18244 0.49908 0.0
H1331 H 0.05721 0.15942 0.4652 0.0
H1332 H 0.13136 0.19334 0.50507 0.0
H1333 H 0.10265 0.21615 0.53947 0.0
C1334 C 0.03814 0.34204 0.57818 0.0
C1335 C 0.06555 0.35012 0.58641 0.0
C1336 C 0.02844 0.31223 0.57201 0.0
C1337 C 0.04596 0.29009 0.57412 0.0
C1338 C 0.07321 0.29813 0.58246 0.0
C1339 C 0.08284 0.32773 0.58866 0.0
C1340 C 0.03636 0.25836 0.56776 0.0
C1341 C 0.05224 0.24469 0.54831 0.0
C1342 C 0.01275 0.24122 0.58149 0.0
C1343 C 0.99573 0.25412 0.60287 0.0
C1344 C 1.00823 0.2667 0.62568 0.0
C1345 C 0.99204 0.27893 0.64571 0.0
C1346 C 0.96328 0.27846 0.64325 0.0
C1347 C 0.95064 0.26567 0.6208 0.0
C1348 C 0.96675 0.25346 0.6007 0.0
C1349 C 0.03627 0.11628 0.55838 0.0
C1350 C 0.01177 0.10126 0.54797 0.0
C1351 C 0.03942 0.14716 0.56211 0.0
C1352 C 0.01817 0.16367 0.55552 0.0
C1353 C 0.99318 0.14867 0.54618 0.0
C1354 C 0.99005 0.11768 0.54228 0.0
C1355 C 0.02291 0.19673 0.55743 0.0
C1356 C 1.00613 0.21061 0.57592 0.0
C1357 C 0.04575 0.21414 0.54285 0.0
C1358 C 0.06318 0.20085 0.52196 0.0
C1359 C 0.0506 0.18483 0.50073 0.0
C1360 C 0.06703 0.17183 0.48142 0.0
C1361 C 0.09611 0.17488 0.483 0.0
C1362 C 0.10883 0.19099 0.50387 0.0
C1363 C 0.09249 0.20399 0.52327 0.0
H1364 H 0.10879 0.16479 0.46804 0.0
H1365 H 0.95078 0.28792 0.65878 0.0
H1366 H 0.60261 0.21912 0.4475 0.0
H1367 H 0.58682 0.26558 0.46319 0.0
H1368 H 0.58736 0.29725 0.38122 0.0
H1369 H 0.60344 0.25099 0.36541 0.0
H1370 H 0.61187 0.34062 0.41577 0.0
H1371 H 0.52706 0.27078 0.41139 0.0
H1372 H 0.49622 0.22278 0.42082 0.0
H1373 H 0.49748 0.2386 0.50548 0.0
H1374 H 0.52868 0.28653 0.49656 0.0
H1375 H 0.54238 0.46459 0.44821 0.0
H1376 H 0.55444 0.41871 0.42748 0.0
H1377 H 0.53916 0.37248 0.50448 0.0
H1378 H 0.5247 0.41758 0.52447 0.0
H1379 H 0.52124 0.33636 0.46927 0.0
H1380 H 0.60851 0.40498 0.47404 0.0
H1381 H 0.63763 0.45408 0.46455 0.0
H1382 H 0.63218 0.44064 0.37984 0.0
H1383 H 0.60272 0.39168 0.38885 0.0
C1384 C 0.59952 0.2361 0.43288 0.0
C1385 C 0.60403 0.23147 0.40527 0.0
C1386 C 0.5904 0.26248 0.44182 0.0
C1387 C 0.58574 0.2846 0.42329 0.0
C1388 C 0.59079 0.28033 0.39576 0.0
C1389 C 0.59973 0.25387 0.38679 0.0
C1390 C 0.57522 0.31207 0.4327 0.0
C1391 C 0.59195 0.33981 0.42726 0.0
C1392 C 0.5494 0.31078 0.44791 0.0
C1393 C 0.5304 0.28212 0.45331 0.0
C1394 C 0.52093 0.26392 0.43202 0.0
C1395 C 0.50335 0.23674 0.43727 0.0
C1396 C 0.49494 0.22761 0.46373 0.0
C1397 C 0.50403 0.24569 0.48499 0.0
C1398 C 0.52164 0.27288 0.47985 0.0
C1399 C 0.5415 0.44446 0.4605 0.0
C1400 C 0.53289 0.44433 0.48781 0.0
C1401 C 0.54856 0.41837 0.44877 0.0
C1402 C 0.5485 0.3923 0.46457 0.0
C1403 C 0.53946 0.39226 0.49187 0.0
C1404 C 0.53134 0.41798 0.50331 0.0
C1405 C 0.55818 0.36514 0.45298 0.0
C1406 C 0.54124 0.33733 0.45789 0.0
C1407 C 0.58396 0.36637 0.43748 0.0
C1408 C 0.60321 0.39483 0.43212 0.0
C1409 C 0.61358 0.4125 0.4534 0.0
C1410 C 0.63007 0.44033 0.4481 0.0
C1411 C 0.63658 0.45054 0.4216 0.0
C1412 C 0.62702 0.43274 0.40035 0.0
C1413 C 0.61046 0.40494 0.40553 0.0
H1414 H 0.64899 0.47226 0.4175 0.0
H1415 H 0.48134 0.20656 0.46776 0.0
loop_
_geom_bond_atom_site_label_1
_geom_bond_atom_site_label_2
_geom_bond_distance
_geom_bond_site_symmetry_2
_ccdc_geom_bond_type
H0 C5 0.930 . S
H1 C8 0.930 . S
H2 C10 0.930 . S
H3 C4 1.016 . S
C4 H3 1.016 . S
C4 N11 1.286 . S
C5 H0 0.930 . S
C5 C6 1.397 . S
C5 C7 1.361 . S
C6 C5 1.397 . S
C6 C10 1.390 . S
C7 C5 1.361 . S
C7 C8 1.393 . S
C7 N11 1.413 . S
C8 H1 0.930 . S
C8 C7 1.393 . S
C8 C9 1.399 . S
C9 C8 1.399 . S
C9 C10 1.381 . S
C10 H2 0.930 . S
C10 C6 1.390 . S
C10 C9 1.381 . S
N11 C4 1.286 . S
N11 C7 1.413 . S
H12 C17 0.930 . S
H13 C20 0.930 . S
H14 C22 0.930 . S
H15 C16 1.016 . S
C16 H15 1.016 . S
C16 N23 1.286 . S
C17 H12 0.930 . S
C17 C18 1.397 . S
C17 C19 1.361 . S
C18 C17 1.397 . S
C18 C22 1.390 . S
C19 C17 1.361 . S
C19 C20 1.393 . S
C19 N23 1.413 . S
C20 H13 0.930 . S
C20 C19 1.393 . S
C20 C21 1.399 . S
C21 C20 1.399 . S
C21 C22 1.381 . S
C22 H14 0.930 . S
C22 C18 1.390 . S
C22 C21 1.381 . S
N23 C16 1.286 . S
N23 C19 1.413 . S
H24 C29 0.930 . S
H25 C32 0.930 . S
H26 C34 0.930 . S
H27 C28 1.016 . S
C28 H27 1.016 . S
C28 N35 1.286 . S
C29 H24 0.930 . S
C29 C30 1.397 . S
C29 C31 1.361 . S
C30 C29 1.397 . S
C30 C34 1.390 . S
C31 C29 1.361 . S
C31 C32 1.393 . S
C31 N35 1.413 . S
C32 H25 0.930 . S
C32 C31 1.393 . S
C32 C33 1.399 . S
C33 C32 1.399 . S
C33 C34 1.381 . S
C34 H26 0.930 . S
C34 C30 1.390 . S
C34 C33 1.381 . S
N35 C28 1.286 . S
N35 C31 1.413 . S
H36 C41 0.930 . S
H37 C44 0.930 . S
H38 C46 0.930 . S
H39 C40 1.016 . S
C40 H39 1.016 . S
C40 N47 1.286 . S
C41 H36 0.930 . S
C41 C42 1.397 . S
C41 C43 1.361 . S
C42 C41 1.397 . S
C42 C46 1.390 . S
C43 C41 1.361 . S
C43 C44 1.393 . S
C43 N47 1.413 . S
C44 H37 0.930 . S
C44 C43 1.393 . S
C44 C45 1.399 . S
C45 C44 1.399 . S
C45 C46 1.381 . S
C46 H38 0.930 . S
C46 C42 1.390 . S
C46 C45 1.381 . S
N47 C40 1.286 . S
N47 C43 1.413 . S
H48 C53 0.930 . S
H49 C56 0.930 . S
H50 C58 0.930 . S
H51 C52 1.016 . S
C52 H51 1.016 . S
C52 N59 1.286 . S
C53 H48 0.930 . S
C53 C54 1.397 . S
C53 C55 1.361 . S
C54 C53 1.397 . S
C54 C58 1.390 . S
C55 C53 1.361 . S
C55 C56 1.393 . S
C55 N59 1.413 . S
C56 H49 0.930 . S
C56 C55 1.393 . S
C56 C57 1.399 . S
C57 C56 1.399 . S
C57 C58 1.381 . S
C58 H50 0.930 . S
C58 C54 1.390 . S
C58 C57 1.381 . S
N59 C52 1.286 . S
N59 C55 1.413 . S
H60 C65 0.930 . S
H61 C68 0.930 . S
H62 C70 0.930 . S
H63 C64 1.016 . S
C64 H63 1.016 . S
C64 N71 1.286 . S
C65 H60 0.930 . S
C65 C66 1.397 . S
C65 C67 1.361 . S
C66 C65 1.397 . S
C66 C70 1.390 . S
C67 C65 1.361 . S
C67 C68 1.393 . S
C67 N71 1.413 . S
C68 H61 0.930 . S
C68 C67 1.393 . S
C68 C69 1.399 . S
C69 C68 1.399 . S
C69 C70 1.381 . S
C70 H62 0.930 . S
C70 C66 1.390 . S
C70 C69 1.381 . S
N71 C64 1.286 . S
N71 C67 1.413 . S
H72 C77 0.930 . S
H73 C80 0.930 . S
H74 C82 0.930 . S
H75 C76 1.016 . S
C76 H75 1.016 . S
C76 N83 1.286 . S
C77 H72 0.930 . S
C77 C78 1.397 . S
C77 C79 1.361 . S
C78 C77 1.397 . S
C78 C82 1.390 . S
C79 C77 1.361 . S
C79 C80 1.393 . S
C79 N83 1.413 . S
C80 H73 0.930 . S
C80 C79 1.393 . S
C80 C81 1.399 . S
C81 C80 1.399 . S
C81 C82 1.381 . S
C82 H74 0.930 . S
C82 C78 1.390 . S
C82 C81 1.381 . S
N83 C76 1.286 . S
N83 C79 1.413 . S
H84 C89 0.930 . S
H85 C92 0.930 . S
H86 C94 0.930 . S
H87 C88 1.016 . S
C88 H87 1.016 . S
C88 N95 1.286 . S
C89 H84 0.930 . S
C89 C90 1.397 . S
C89 C91 1.361 . S
C90 C89 1.397 . S
C90 C94 1.390 . S
C91 C89 1.361 . S
C91 C92 1.393 . S
C91 N95 1.413 . S
C92 H85 0.930 . S
C92 C91 1.393 . S
C92 C93 1.399 . S
C93 C92 1.399 . S
C93 C94 1.381 . S
C94 H86 0.930 . S
C94 C90 1.390 . S
C94 C93 1.381 . S
N95 C88 1.286 . S
N95 C91 1.413 . S
Co96 N101 2.057 . S
Co96 O113 2.021 . S
Co96 O116 2.062 . S
Co96 O120 2.117 1_545 S
Co96 O121 2.030 . S
C97 O117 1.259 1_655 S
C97 O120 1.258 . S
Co98 N107 2.057 . S
Co98 O114 2.117 1_565 S
Co98 O115 2.020 1_565 S
Co98 O117 2.021 . S
Co98 O122 2.062 . S
C99 N101 1.316 . S
C99 N102 1.347 . S
C99 H104 0.931 . S
C100 N101 1.375 1_565 S
C100 C103 1.350 1_565 S
C100 H105 0.930 . S
N101 Co96 2.057 . S
N101 C99 1.316 . S
N101 C100 1.375 1_545 S
N102 C99 1.347 . S
N102 C103 1.373 . S
C103 C100 1.350 1_545 S
C103 N102 1.373 . S
C103 H124 0.931 1_545 S
H104 C99 0.931 . S
H105 C100 0.930 . S
C106 O113 1.259 1_455 S
C106 O114 1.258 . S
N107 Co98 2.057 . S
N107 C108 1.316 . S
N107 C109 1.375 1_565 S
C108 N107 1.316 . S
C108 N110 1.347 . S
C108 H119 0.931 . S
C109 N107 1.375 1_545 S
C109 C111 1.350 . S
C109 H118 0.930 . S
N110 C108 1.347 . S
N110 C111 1.373 1_565 S
C111 C109 1.350 . S
C111 N110 1.373 1_545 S
C111 H125 0.931 . S
C112 O115 1.256 . S
C112 O116 1.255 1_455 S
O113 Co96 2.021 . S
O113 C106 1.259 1_655 S
O114 Co98 2.117 1_545 S
O114 C106 1.258 . S
O115 Co98 2.020 1_545 S
O115 C112 1.256 . S
O116 Co96 2.062 . S
O116 C112 1.255 1_655 S
O117 C97 1.259 1_455 S
O117 Co98 2.021 . S
H118 C109 0.930 . S
H119 C108 0.931 . S
O120 Co96 2.117 1_565 S
O120 C97 1.258 . S
O121 Co96 2.030 . S
O121 C123 1.240 1_545 S
O122 Co98 2.062 . S
O122 C123 1.255 1_455 S
C123 O121 1.240 1_565 S
C123 O122 1.255 1_655 S
H124 C103 0.931 1_565 S
H125 C111 0.931 . S
Co126 N131 2.057 1_545 S
Co126 O143 2.021 . S
Co126 O146 2.062 . S
Co126 O150 2.117 1_546 S
Co126 O151 2.020 1_556 S
C127 O147 1.259 . S
C127 O150 1.258 . S
Co128 N137 2.057 . S
Co128 O144 2.117 . S
Co128 O145 2.020 . S
Co128 O147 2.021 1_545 S
Co128 O152 2.062 . S
C129 N131 1.316 . S
C129 N132 1.347 . S
C129 H134 0.931 1_565 S
C130 N131 1.375 . S
C130 C133 1.350 . S
C130 H135 0.930 . S
N131 Co126 2.057 1_565 S
N131 C129 1.316 . S
N131 C130 1.375 . S
N132 C129 1.347 . S
N132 C133 1.373 . S
C133 C130 1.350 . S
C133 N132 1.373 . S
C133 H154 0.931 . S
H134 C129 0.931 1_545 S
H135 C130 0.930 . S
C136 O143 1.259 . S
C136 O144 1.258 1_556 S
N137 Co128 2.057 . S
N137 C138 1.316 . S
N137 C139 1.375 . S
C138 N137 1.316 . S
C138 N140 1.347 . S
C138 H149 0.931 . S
C139 N137 1.375 . S
C139 C141 1.350 . S
C139 H148 0.930 . S
N140 C138 1.347 . S
N140 C141 1.373 . S
C141 C139 1.350 . S
C141 N140 1.373 . S
C141 H155 0.931 . S
C142 O145 1.272 . S
C142 O146 1.243 1_554 S
O143 Co126 2.021 . S
O143 C136 1.259 . S
O144 Co128 2.117 . S
O144 C136 1.258 1_554 S
O145 Co128 2.020 . S
O145 C142 1.272 . S
O146 Co126 2.062 . S
O146 C142 1.243 1_556 S
O147 C127 1.259 . S
O147 Co128 2.021 1_565 S
H148 C139 0.930 . S
H149 C138 0.931 . S
O150 Co126 2.117 1_564 S
O150 C127 1.258 . S
O151 Co126 2.020 1_554 S
O151 C153 1.256 . S
O152 Co128 2.062 . S
O152 C153 1.255 . S
C153 O151 1.256 . S
C153 O152 1.255 . S
H154 C133 0.931 . S
H155 C141 0.931 . S
Co156 N161 2.057 . S
Co156 O173 2.021 . S
Co156 O176 2.062 . S
Co156 O180 2.117 . S
Co156 O181 2.020 . S
C157 O177 1.259 . S
C157 O180 1.258 . S
Co158 N167 2.057 . S
Co158 O174 2.117 . S
Co158 O175 2.020 . S
Co158 O177 2.021 . S
Co158 O182 2.062 . S
C159 N161 1.316 . S
C159 N162 1.347 . S
C159 H164 0.931 . S
C160 N161 1.375 . S
C160 C163 1.350 . S
C160 H165 0.930 . S
N161 Co156 2.057 . S
N161 C159 1.316 . S
N161 C160 1.375 . S
N162 C159 1.347 . S
N162 C163 1.373 . S
C163 C160 1.350 . S
C163 N162 1.373 . S
C163 H184 0.931 . S
H164 C159 0.931 . S
H165 C160 0.930 . S
C166 O173 1.259 . S
C166 O174 1.258 . S
N167 Co158 2.057 . S
N167 C168 1.316 . S
N167 C169 1.375 . S
C168 N167 1.316 . S
C168 N170 1.347 . S
C168 H179 0.931 . S
C169 N167 1.375 . S
C169 C171 1.350 . S
C169 H178 0.930 . S
N170 C168 1.347 . S
N170 C171 1.373 . S
C171 C169 1.350 . S
C171 N170 1.373 . S
C171 H185 0.931 . S
C172 O175 1.256 . S
C172 O176 1.255 . S
O173 Co156 2.021 . S
O173 C166 1.259 . S
O174 Co158 2.117 . S
O174 C166 1.258 . S
O175 Co158 2.020 . S
O175 C172 1.256 . S
O176 Co156 2.062 . S
O176 C172 1.255 . S
O177 C157 1.259 . S
O177 Co158 2.021 . S
H178 C169 0.930 . S
H179 C168 0.931 . S
O180 Co156 2.117 . S
O180 C157 1.258 . S
O181 Co156 2.020 . S
O181 C183 1.256 . S
O182 Co158 2.062 . S
O182 C183 1.255 . S
C183 O181 1.256 . S
C183 O182 1.255 . S
H184 C163 0.931 . S
H185 C171 0.931 . S
Co186 N191 2.057 . S
Co186 O203 2.021 . S
Co186 O206 2.062 1_556 S
Co186 O210 2.117 1_455 S
Co186 O211 2.020 . S
C187 O207 1.259 . S
C187 O210 1.258 1_554 S
Co188 N197 2.057 . S
Co188 O204 2.117 1_655 S
Co188 O205 2.020 1_655 S
Co188 O207 2.021 . S
Co188 O212 2.062 . S
C189 N191 1.316 . S
C189 N192 1.347 . S
C189 H194 0.931 . S
C190 N191 1.375 . S
C190 C193 1.350 . S
C190 H195 0.930 1_455 S
N191 Co186 2.057 . S
N191 C189 1.316 . S
N191 C190 1.375 . S
N192 C189 1.347 . S
N192 C193 1.373 . S
C193 C190 1.350 . S
C193 N192 1.373 . S
C193 H214 0.931 . S
H194 C189 0.931 . S
H195 C190 0.930 1_655 S
C196 O203 1.259 1_554 S
C196 O204 1.258 . S
N197 Co188 2.057 . S
N197 C198 1.316 . S
N197 C199 1.375 1_655 S
C198 N197 1.316 . S
C198 N200 1.347 . S
C198 H209 0.931 . S
C199 N197 1.375 1_455 S
C199 C201 1.350 . S
C199 H208 0.930 . S
N200 C198 1.347 . S
N200 C201 1.373 1_655 S
C201 C199 1.350 . S
C201 N200 1.373 1_455 S
C201 H215 0.931 . S
C202 O205 1.256 . S
C202 O206 1.255 . S
O203 Co186 2.021 . S
O203 C196 1.259 1_556 S
O204 Co188 2.117 1_455 S
O204 C196 1.258 . S
O205 Co188 2.020 1_455 S
O205 C202 1.256 . S
O206 Co186 2.062 1_554 S
O206 C202 1.255 . S
O207 C187 1.259 . S
O207 Co188 2.021 . S
H208 C199 0.930 . S
H209 C198 0.931 . S
O210 Co186 2.117 1_655 S
O210 C187 1.258 1_556 S
O211 Co186 2.020 . S
O211 C213 1.241 1_456 S
O212 Co188 2.062 . S
O212 C213 1.272 . S
C213 O211 1.241 1_654 S
C213 O212 1.272 . S
H214 C193 0.931 . S
H215 C201 0.931 . S
H216 C234 0.951 . S
H217 C236 0.951 . S
H218 C238 0.950 . S
H219 C239 0.950 . S
H220 C241 0.950 . S
H221 C244 0.950 . S
H222 C245 0.950 . S
H223 C247 0.950 . S
H224 C248 0.948 1_655 S
H225 C249 0.951 . S
H226 C251 0.951 . S
H227 C253 0.950 . S
H228 C254 0.950 1_655 S
H229 C256 0.950 . S
H230 C259 0.950 . S
H231 C260 0.950 . S
H232 C262 0.950 . S
H233 C263 0.950 . S
C234 H216 0.951 . S
C234 C235 1.366 . S
C234 C236 1.388 . S
C235 C234 1.366 . S
C235 C239 1.385 . S
C236 H217 0.951 . S
C236 C234 1.388 . S
C236 C237 1.366 . S
C237 C236 1.366 . S
C237 C238 1.414 . S
C237 C240 1.499 . S
C238 H218 0.950 . S
C238 C237 1.414 . S
C238 C239 1.374 . S
C239 H219 0.950 . S
C239 C235 1.385 . S
C239 C238 1.374 . S
C240 C237 1.499 . S
C240 C241 1.373 . S
C240 C242 1.389 . S
C241 H220 0.950 . S
C241 C240 1.373 . S
C241 C257 1.377 . S
C242 C240 1.389 . S
C242 C243 1.524 . S
C242 C256 1.377 . S
C243 C242 1.524 . S
C243 C244 1.397 . S
C243 C248 1.378 . S
C244 H221 0.950 . S
C244 C243 1.397 . S
C244 C245 1.334 . S
C245 H222 0.950 . S
C245 C244 1.334 . S
C245 C246 1.287 1_455 S
C246 C245 1.287 1_655 S
C246 C247 1.524 . S
C246 H265 0.913 . S
C247 H223 0.950 . S
C247 C246 1.524 . S
C247 C248 1.402 1_655 S
C248 H224 0.948 1_455 S
C248 C243 1.378 . S
C248 C247 1.402 1_455 S
C249 H225 0.951 . S
C249 C250 1.366 . S
C249 C251 1.388 . S
C250 C249 1.366 . S
C250 C254 1.385 . S
C251 H226 0.951 . S
C251 C249 1.388 . S
C251 C252 1.366 . S
C252 C251 1.366 . S
C252 C253 1.414 . S
C252 C255 1.499 . S
C253 H227 0.950 . S
C253 C252 1.414 . S
C253 C254 1.374 . S
C254 H228 0.950 1_455 S
C254 C250 1.385 . S
C254 C253 1.374 . S
C255 C252 1.499 . S
C255 C256 1.373 . S
C255 C257 1.389 . S
C256 H229 0.950 . S
C256 C242 1.377 . S
C256 C255 1.373 . S
C257 C241 1.377 . S
C257 C255 1.389 . S
C257 C258 1.524 . S
C258 C257 1.524 . S
C258 C259 1.397 . S
C258 C263 1.363 . S
C259 H230 0.950 . S
C259 C258 1.397 . S
C259 C260 1.334 1_545 S
C260 H231 0.950 . S
C260 C259 1.334 1_565 S
C260 C261 1.287 1_565 S
C261 C260 1.287 1_545 S
C261 C262 1.524 . S
C261 H264 0.999 1_545 S
C262 H232 0.950 . S
C262 C261 1.524 . S
C262 C263 1.415 . S
C263 H233 0.950 . S
C263 C258 1.363 . S
C263 C262 1.415 . S
H264 C261 0.999 1_565 S
H265 C246 0.913 . S
H266 C284 0.951 . S
H267 C286 0.951 . S
H268 C288 0.950 . S
H269 C289 0.950 . S
H270 C291 0.950 . S
H271 C294 0.950 . S
H272 C295 0.950 . S
H273 C297 0.950 . S
H274 C298 0.950 . S
H275 C299 0.951 1_545 S
H276 C301 0.951 . S
H277 C303 0.950 . S
H278 C304 0.950 . S
H279 C306 0.950 . S
H280 C309 0.950 . S
H281 C310 0.950 . S
H282 C312 0.950 . S
H283 C313 0.950 . S
C284 H266 0.951 . S
C284 C285 1.366 . S
C284 C286 1.388 . S
C285 C284 1.366 . S
C285 C289 1.385 . S
C286 H267 0.951 . S
C286 C284 1.388 . S
C286 C287 1.366 . S
C287 C286 1.366 . S
C287 C288 1.414 . S
C287 C290 1.499 . S
C288 H268 0.950 . S
C288 C287 1.414 . S
C288 C289 1.374 . S
C289 H269 0.950 . S
C289 C285 1.385 . S
C289 C288 1.374 . S
C290 C287 1.499 . S
C290 C291 1.373 . S
C290 C292 1.389 . S
C291 H270 0.950 . S
C291 C290 1.373 . S
C291 C307 1.377 . S
C292 C290 1.389 . S
C292 C293 1.524 . S
C292 C306 1.377 . S
C293 C292 1.524 . S
C293 C294 1.397 . S
C293 C298 1.363 . S
C294 H271 0.950 . S
C294 C293 1.397 . S
C294 C295 1.334 . S
C295 H272 0.950 . S
C295 C294 1.334 . S
C295 C296 1.287 . S
C296 C295 1.287 . S
C296 C297 1.524 . S
C296 H315 0.913 . S
C297 H273 0.950 . S
C297 C296 1.524 . S
C297 C298 1.415 . S
C298 H274 0.950 . S
C298 C293 1.363 . S
C298 C297 1.415 . S
C299 H275 0.951 1_565 S
C299 C300 1.366 . S
C299 C301 1.388 . S
C300 C299 1.366 . S
C300 C304 1.385 . S
C301 H276 0.951 . S
C301 C299 1.388 . S
C301 C302 1.366 . S
C302 C301 1.366 . S
C302 C303 1.414 . S
C302 C305 1.499 . S
C303 H277 0.950 . S
C303 C302 1.414 . S
C303 C304 1.374 . S
C304 H278 0.950 . S
C304 C300 1.385 . S
C304 C303 1.374 . S
C305 C302 1.499 . S
C305 C306 1.373 . S
C305 C307 1.389 . S
C306 H279 0.950 . S
C306 C292 1.377 . S
C306 C305 1.373 . S
C307 C291 1.377 . S
C307 C305 1.389 . S
C307 C308 1.524 . S
C308 C307 1.524 . S
C308 C309 1.397 . S
C308 C313 1.363 1_565 S
C309 H280 0.950 . S
C309 C308 1.397 . S
C309 C310 1.334 1_565 S
C310 H281 0.950 . S
C310 C309 1.334 1_545 S
C310 C311 1.287 . S
C311 C310 1.287 . S
C311 C312 1.524 . S
C311 H314 0.999 . S
C312 H282 0.950 . S
C312 C311 1.524 . S
C312 C313 1.415 . S
C313 H283 0.950 . S
C313 C308 1.363 1_545 S
C313 C312 1.415 . S
H314 C311 0.999 . S
H315 C296 0.913 . S
H316 C334 0.951 . S
H317 C336 0.951 . S
H318 C338 0.950 . S
H319 C339 0.950 . S
H320 C341 0.950 . S
H321 C344 0.950 . S
H322 C345 0.950 . S
H323 C347 0.950 . S
H324 C348 0.950 . S
H325 C349 0.951 . S
H326 C351 0.951 . S
H327 C353 0.950 . S
H328 C354 0.950 . S
H329 C356 0.950 . S
H330 C359 0.950 . S
H331 C360 0.950 . S
H332 C362 0.950 . S
H333 C363 0.950 . S
C334 H316 0.951 . S
C334 C335 1.366 . S
C334 C336 1.388 . S
C335 C334 1.366 . S
C335 C339 1.385 . S
C336 H317 0.951 . S
C336 C334 1.388 . S
C336 C337 1.366 . S
C337 C336 1.366 . S
C337 C338 1.414 . S
C337 C340 1.499 . S
C338 H318 0.950 . S
C338 C337 1.414 . S
C338 C339 1.374 . S
C339 H319 0.950 . S
C339 C335 1.385 . S
C339 C338 1.374 . S
C340 C337 1.499 . S
C340 C341 1.373 . S
C340 C342 1.389 . S
C341 H320 0.950 . S
C341 C340 1.373 . S
C341 C357 1.377 . S
C342 C340 1.389 . S
C342 C343 1.524 . S
C342 C356 1.377 . S
C343 C342 1.524 . S
C343 C344 1.397 . S
C343 C348 1.363 . S
C344 H321 0.950 . S
C344 C343 1.397 . S
C344 C345 1.334 . S
C345 H322 0.950 . S
C345 C344 1.334 . S
C345 C346 1.287 . S
C346 C345 1.287 . S
C346 C347 1.524 . S
C346 H365 0.913 . S
C347 H323 0.950 . S
C347 C346 1.524 . S
C347 C348 1.415 . S
C348 H324 0.950 . S
C348 C343 1.363 . S
C348 C347 1.415 . S
C349 H325 0.951 . S
C349 C350 1.366 . S
C349 C351 1.388 . S
C350 C349 1.366 . S
C350 C354 1.385 . S
C351 H326 0.951 . S
C351 C349 1.388 . S
C351 C352 1.366 . S
C352 C351 1.366 . S
C352 C353 1.414 . S
C352 C355 1.499 . S
C353 H327 0.950 . S
C353 C352 1.414 . S
C353 C354 1.374 . S
C354 H328 0.950 . S
C354 C350 1.385 . S
C354 C353 1.374 . S
C355 C352 1.499 . S
C355 C356 1.373 . S
C355 C357 1.389 . S
C356 H329 0.950 . S
C356 C342 1.377 . S
C356 C355 1.373 . S
C357 C341 1.377 . S
C357 C355 1.389 . S
C357 C358 1.524 . S
C358 C357 1.524 . S
C358 C359 1.397 . S
C358 C363 1.363 . S
C359 H330 0.950 . S
C359 C358 1.397 . S
C359 C360 1.334 . S
C360 H331 0.950 . S
C360 C359 1.334 . S
C360 C361 1.287 . S
C361 C360 1.287 . S
C361 C362 1.524 . S
C361 H364 0.999 . S
C362 H332 0.950 . S
C362 C361 1.524 . S
C362 C363 1.415 . S
C363 H333 0.950 . S
C363 C358 1.363 . S
C363 C362 1.415 . S
H364 C361 0.999 . S
H365 C346 0.913 . S
H366 C384 0.951 . S
H367 C386 0.951 . S
H368 C388 0.950 . S
H369 C389 0.950 . S
H370 C391 0.950 . S
H371 C394 0.950 . S
H372 C395 0.950 . S
H373 C397 0.950 . S
H374 C398 0.950 . S
H375 C399 0.951 . S
H376 C401 0.951 . S
H377 C403 0.950 . S
H378 C404 0.950 . S
H379 C406 0.950 . S
H380 C409 0.950 . S
H381 C410 0.950 . S
H382 C412 0.950 . S
H383 C413 0.950 . S
C384 H366 0.951 . S
C384 C385 1.366 . S
C384 C386 1.388 . S
C385 C384 1.366 . S
C385 C389 1.385 . S
C386 H367 0.951 . S
C386 C384 1.388 . S
C386 C387 1.366 . S
C387 C386 1.366 . S
C387 C388 1.414 . S
C387 C390 1.499 . S
C388 H368 0.950 . S
C388 C387 1.414 . S
C388 C389 1.374 . S
C389 H369 0.950 . S
C389 C385 1.385 . S
C389 C388 1.374 . S
C390 C387 1.499 . S
C390 C391 1.373 . S
C390 C392 1.389 . S
C391 H370 0.950 . S
C391 C390 1.373 . S
C391 C407 1.377 . S
C392 C390 1.389 . S
C392 C393 1.524 . S
C392 C406 1.377 . S
C393 C392 1.524 . S
C393 C394 1.397 . S
C393 C398 1.363 . S
C394 H371 0.950 . S
C394 C393 1.397 . S
C394 C395 1.334 . S
C395 H372 0.950 . S
C395 C394 1.334 . S
C395 C396 1.287 . S
C396 C395 1.287 . S
C396 C397 1.524 . S
C396 H415 0.913 . S
C397 H373 0.950 . S
C397 C396 1.524 . S
C397 C398 1.415 . S
C398 H374 0.950 . S
C398 C393 1.363 . S
C398 C397 1.415 . S
C399 H375 0.951 . S
C399 C400 1.366 . S
C399 C401 1.388 . S
C400 C399 1.366 . S
C400 C404 1.385 . S
C401 H376 0.951 . S
C401 C399 1.388 . S
C401 C402 1.366 . S
C402 C401 1.366 . S
C402 C403 1.414 . S
C402 C405 1.499 . S
C403 H377 0.950 . S
C403 C402 1.414 . S
C403 C404 1.374 . S
C404 H378 0.950 . S
C404 C400 1.385 . S
C404 C403 1.374 . S
C405 C402 1.499 . S
C405 C406 1.373 . S
C405 C407 1.389 . S
C406 H379 0.950 . S
C406 C392 1.377 . S
C406 C405 1.373 . S
C407 C391 1.377 . S
C407 C405 1.389 . S
C407 C408 1.524 1_655 S
C408 C407 1.524 1_455 S
C408 C409 1.397 . S
C408 C413 1.363 . S
C409 H380 0.950 . S
C409 C408 1.397 . S
C409 C410 1.334 . S
C410 H381 0.950 . S
C410 C409 1.334 . S
C410 C411 1.287 . S
C411 C410 1.287 . S
C411 C412 1.524 . S
C411 H414 0.999 . S
C412 H382 0.950 . S
C412 C411 1.524 . S
C412 C413 1.415 . S
C413 H383 0.950 . S
C413 C408 1.363 . S
C413 C412 1.415 . S
H414 C411 0.999 . S
H415 C396 0.913 . S
H416 C434 0.951 . S
H417 C436 0.951 . S
H418 C438 0.950 . S
H419 C439 0.950 . S
H420 C441 0.950 . S
H421 C444 0.950 . S
H422 C445 0.950 . S
H423 C447 0.950 . S
H424 C448 0.950 . S
H425 C449 0.951 . S
H426 C451 0.951 . S
H427 C453 0.950 . S
H428 C454 0.950 . S
H429 C456 0.950 . S
H430 C459 0.950 . S
H431 C460 0.950 . S
H432 C462 0.950 . S
H433 C463 0.950 . S
C434 H416 0.951 . S
C434 C435 1.366 . S
C434 C436 1.388 . S
C435 C434 1.366 . S
C435 C439 1.385 . S
C436 H417 0.951 . S
C436 C434 1.388 . S
C436 C437 1.366 . S
C437 C436 1.366 . S
C437 C438 1.414 . S
C437 C440 1.499 . S
C438 H418 0.950 . S
C438 C437 1.414 . S
C438 C439 1.374 . S
C439 H419 0.950 . S
C439 C435 1.385 . S
C439 C438 1.374 . S
C440 C437 1.499 . S
C440 C441 1.373 . S
C440 C442 1.389 . S
C441 H420 0.950 . S
C441 C440 1.373 . S
C441 C457 1.377 . S
C442 C440 1.389 . S
C442 C443 1.524 . S
C442 C456 1.377 . S
C443 C442 1.524 . S
C443 C444 1.397 . S
C443 C448 1.363 . S
C444 H421 0.950 . S
C444 C443 1.397 . S
C444 C445 1.334 . S
C445 H422 0.950 . S
C445 C444 1.334 . S
C445 C446 1.287 . S
C446 C445 1.287 . S
C446 C447 1.524 1_554 S
C446 H465 0.913 1_554 S
C447 H423 0.950 . S
C447 C446 1.524 1_556 S
C447 C448 1.415 1_556 S
C448 H424 0.950 . S
C448 C443 1.363 . S
C448 C447 1.415 1_554 S
C449 H425 0.951 . S
C449 C450 1.366 . S
C449 C451 1.388 . S
C450 C449 1.366 . S
C450 C454 1.385 . S
C451 H426 0.951 . S
C451 C449 1.388 . S
C451 C452 1.366 . S
C452 C451 1.366 . S
C452 C453 1.414 . S
C452 C455 1.499 . S
C453 H427 0.950 . S
C453 C452 1.414 . S
C453 C454 1.374 . S
C454 H428 0.950 . S
C454 C450 1.385 . S
C454 C453 1.374 . S
C455 C452 1.499 . S
C455 C456 1.373 . S
C455 C457 1.389 . S
C456 H429 0.950 . S
C456 C442 1.377 . S
C456 C455 1.373 . S
C457 C441 1.377 . S
C457 C455 1.389 . S
C457 C458 1.524 . S
C458 C457 1.524 . S
C458 C459 1.397 . S
C458 C463 1.363 . S
C459 H430 0.950 . S
C459 C458 1.397 . S
C459 C460 1.334 . S
C460 H431 0.950 . S
C460 C459 1.334 . S
C460 C461 1.287 . S
C461 C460 1.287 . S
C461 C462 1.524 . S
C461 H464 0.999 . S
C462 H432 0.950 . S
C462 C461 1.524 . S
C462 C463 1.415 . S
C463 H433 0.950 . S
C463 C458 1.363 . S
C463 C462 1.415 . S
H464 C461 0.999 . S
H465 C446 0.913 1_556 S
H466 C484 0.951 . S
H467 C486 0.951 . S
H468 C488 0.950 . S
H469 C489 0.950 . S
H470 C491 0.950 . S
H471 C494 0.950 . S
H472 C495 0.950 . S
H473 C497 0.950 . S
H474 C498 0.950 . S
H475 C499 0.951 1_545 S
H476 C501 0.951 . S
H477 C503 0.950 . S
H478 C504 0.950 . S
H479 C506 0.950 . S
H480 C509 0.950 . S
H481 C510 0.950 . S
H482 C512 0.950 . S
H483 C513 0.950 . S
C484 H466 0.951 . S
C484 C485 1.366 . S
C484 C486 1.388 . S
C485 C484 1.366 . S
C485 C489 1.385 . S
C486 H467 0.951 . S
C486 C484 1.388 . S
C486 C487 1.366 . S
C487 C486 1.366 . S
C487 C488 1.414 . S
C487 C490 1.499 . S
C488 H468 0.950 . S
C488 C487 1.414 . S
C488 C489 1.374 . S
C489 H469 0.950 . S
C489 C485 1.385 . S
C489 C488 1.374 . S
C490 C487 1.499 . S
C490 C491 1.373 . S
C490 C492 1.389 . S
C491 H470 0.950 . S
C491 C490 1.373 . S
C491 C507 1.377 . S
C492 C490 1.389 . S
C492 C493 1.524 . S
C492 C506 1.377 . S
C493 C492 1.524 . S
C493 C494 1.397 . S
C493 C498 1.363 . S
C494 H471 0.950 . S
C494 C493 1.397 . S
C494 C495 1.334 . S
C495 H472 0.950 . S
C495 C494 1.334 . S
C495 C496 1.287 . S
C496 C495 1.287 . S
C496 C497 1.524 . S
C496 H515 0.913 . S
C497 H473 0.950 . S
C497 C496 1.524 . S
C497 C498 1.415 . S
C498 H474 0.950 . S
C498 C493 1.363 . S
C498 C497 1.415 . S
C499 H475 0.951 1_565 S
C499 C500 1.366 . S
C499 C501 1.388 . S
C500 C499 1.366 . S
C500 C504 1.385 . S
C501 H476 0.951 . S
C501 C499 1.388 . S
C501 C502 1.366 . S
C502 C501 1.366 . S
C502 C503 1.414 . S
C502 C505 1.499 . S
C503 H477 0.950 . S
C503 C502 1.414 . S
C503 C504 1.374 . S
C504 H478 0.950 . S
C504 C500 1.385 . S
C504 C503 1.374 . S
C505 C502 1.499 . S
C505 C506 1.373 . S
C505 C507 1.389 . S
C506 H479 0.950 . S
C506 C492 1.377 . S
C506 C505 1.373 . S
C507 C491 1.377 . S
C507 C505 1.389 . S
C507 C508 1.524 . S
C508 C507 1.524 . S
C508 C509 1.397 . S
C508 C513 1.363 1_565 S
C509 H480 0.950 . S
C509 C508 1.397 . S
C509 C510 1.334 1_565 S
C510 H481 0.950 . S
C510 C509 1.334 1_545 S
C510 C511 1.287 . S
C511 C510 1.287 . S
C511 C512 1.524 . S
C511 H514 0.999 . S
C512 H482 0.950 . S
C512 C511 1.524 . S
C512 C513 1.415 . S
C513 H483 0.950 . S
C513 C508 1.363 1_545 S
C513 C512 1.415 . S
H514 C511 0.999 . S
H515 C496 0.913 . S
H516 C534 0.951 . S
H517 C536 0.951 . S
H518 C538 0.950 . S
H519 C539 0.950 . S
H520 C541 0.950 . S
H521 C544 0.950 . S
H522 C545 0.950 . S
H523 C547 0.950 . S
H524 C548 0.950 . S
H525 C549 0.951 . S
H526 C551 0.951 1_554 S
H527 C553 0.950 . S
H528 C554 0.950 . S
H529 C556 0.950 . S
H530 C559 0.950 . S
H531 C560 0.950 . S
H532 C562 0.950 . S
H533 C563 0.951 . S
C534 H516 0.951 . S
C534 C535 1.366 . S
C534 C536 1.388 . S
C535 C534 1.366 . S
C535 C539 1.385 . S
C536 H517 0.951 . S
C536 C534 1.388 . S
C536 C537 1.366 . S
C537 C536 1.366 . S
C537 C538 1.414 . S
C537 C540 1.499 . S
C538 H518 0.950 . S
C538 C537 1.414 . S
C538 C539 1.374 . S
C539 H519 0.950 . S
C539 C535 1.385 . S
C539 C538 1.374 . S
C540 C537 1.499 . S
C540 C541 1.373 . S
C540 C542 1.389 . S
C541 H520 0.950 . S
C541 C540 1.373 . S
C541 C557 1.377 . S
C542 C540 1.389 . S
C542 C543 1.524 . S
C542 C556 1.377 . S
C543 C542 1.524 . S
C543 C544 1.397 . S
C543 C548 1.363 . S
C544 H521 0.950 . S
C544 C543 1.397 . S
C544 C545 1.334 . S
C545 H522 0.950 . S
C545 C544 1.334 . S
C545 C546 1.287 . S
C546 C545 1.287 . S
C546 C547 1.524 . S
C546 H565 0.913 . S
C547 H523 0.950 . S
C547 C546 1.524 . S
C547 C548 1.415 . S
C548 H524 0.950 . S
C548 C543 1.363 . S
C548 C547 1.415 . S
C549 H525 0.951 . S
C549 C550 1.366 1_554 S
C549 C551 1.388 1_554 S
C550 C549 1.366 1_556 S
C550 C554 1.385 . S
C551 H526 0.951 1_556 S
C551 C549 1.388 1_556 S
C551 C552 1.366 . S
C552 C551 1.366 . S
C552 C553 1.414 . S
C552 C555 1.499 . S
C553 H527 0.950 . S
C553 C552 1.414 . S
C553 C554 1.374 . S
C554 H528 0.950 . S
C554 C550 1.385 . S
C554 C553 1.374 . S
C555 C552 1.499 . S
C555 C556 1.373 . S
C555 C557 1.389 . S
C556 H529 0.950 . S
C556 C542 1.377 . S
C556 C555 1.373 . S
C557 C541 1.377 . S
C557 C555 1.389 . S
C557 C558 1.524 . S
C558 C557 1.524 . S
C558 C559 1.397 . S
C558 C563 1.362 1_556 S
C559 H530 0.950 . S
C559 C558 1.397 . S
C559 C560 1.334 . S
C560 H531 0.950 . S
C560 C559 1.334 . S
C560 C561 1.287 . S
C561 C560 1.287 . S
C561 C562 1.524 1_556 S
C561 H564 0.999 1_556 S
C562 H532 0.950 . S
C562 C561 1.524 1_554 S
C562 C563 1.415 . S
C563 H533 0.951 . S
C563 C558 1.362 1_554 S
C563 C562 1.415 . S
H564 C561 0.999 1_554 S
H565 C546 0.913 . S
H566 C584 0.951 . S
H567 C586 0.951 . S
H568 C588 0.950 . S
H569 C589 0.950 . S
H570 C591 0.950 . S
H571 C594 0.950 . S
H572 C595 0.950 . S
H573 C597 0.950 . S
H574 C598 0.950 . S
H575 C599 0.951 . S
H576 C601 0.951 . S
H577 C603 0.950 . S
H578 C604 0.950 . S
H579 C606 0.950 . S
H580 C609 0.950 . S
H581 C610 0.950 . S
H582 C612 0.950 . S
H583 C613 0.950 . S
C584 H566 0.951 . S
C584 C585 1.366 . S
C584 C586 1.388 . S
C585 C584 1.366 . S
C585 C589 1.385 . S
C586 H567 0.951 . S
C586 C584 1.388 . S
C586 C587 1.366 . S
C587 C586 1.366 . S
C587 C588 1.414 . S
C587 C590 1.499 . S
C588 H568 0.950 . S
C588 C587 1.414 . S
C588 C589 1.374 . S
C589 H569 0.950 . S
C589 C585 1.385 . S
C589 C588 1.374 . S
C590 C587 1.499 . S
C590 C591 1.373 . S
C590 C592 1.389 . S
C591 H570 0.950 . S
C591 C590 1.373 . S
C591 C607 1.377 . S
C592 C590 1.389 . S
C592 C593 1.524 . S
C592 C606 1.377 . S
C593 C592 1.524 . S
C593 C594 1.397 . S
C593 C598 1.363 . S
C594 H571 0.950 . S
C594 C593 1.397 . S
C594 C595 1.334 . S
C595 H572 0.950 . S
C595 C594 1.334 . S
C595 C596 1.287 . S
C596 C595 1.287 . S
C596 C597 1.524 . S
C596 H615 0.913 . S
C597 H573 0.950 . S
C597 C596 1.524 . S
C597 C598 1.415 . S
C598 H574 0.950 . S
C598 C593 1.363 . S
C598 C597 1.415 . S
C599 H575 0.951 . S
C599 C600 1.366 . S
C599 C601 1.388 . S
C600 C599 1.366 . S
C600 C604 1.385 . S
C601 H576 0.951 . S
C601 C599 1.388 . S
C601 C602 1.366 . S
C602 C601 1.366 . S
C602 C603 1.414 . S
C602 C605 1.499 . S
C603 H577 0.950 . S
C603 C602 1.414 . S
C603 C604 1.374 . S
C604 H578 0.950 . S
C604 C600 1.385 . S
C604 C603 1.374 . S
C605 C602 1.499 . S
C605 C606 1.373 . S
C605 C607 1.389 . S
C606 H579 0.950 . S
C606 C592 1.377 . S
C606 C605 1.373 . S
C607 C591 1.377 . S
C607 C605 1.389 . S
C607 C608 1.524 . S
C608 C607 1.524 . S
C608 C609 1.397 . S
C608 C613 1.363 . S
C609 H580 0.950 . S
C609 C608 1.397 . S
C609 C610 1.334 . S
C610 H581 0.950 . S
C610 C609 1.334 . S
C610 C611 1.287 . S
C611 C610 1.287 . S
C611 C612 1.524 . S
C611 H614 0.999 . S
C612 H582 0.950 . S
C612 C611 1.524 . S
C612 C613 1.415 . S
C613 H583 0.950 . S
C613 C608 1.363 . S
C613 C612 1.415 . S
H614 C611 0.999 . S
H615 C596 0.913 . S
H616 C634 0.951 . S
H617 C636 0.951 . S
H618 C638 0.950 . S
H619 C639 0.950 . S
H620 C641 0.950 . S
H621 C644 0.950 . S
H622 C645 0.950 . S
H623 C647 0.950 . S
H624 C648 0.950 . S
H625 C649 0.951 1_655 S
H626 C651 0.951 . S
H627 C653 0.950 . S
H628 C654 0.950 . S
H629 C656 0.950 . S
H630 C659 0.950 . S
H631 C660 0.950 . S
H632 C662 0.950 . S
H633 C663 0.950 . S
C634 H616 0.951 . S
C634 C635 1.366 . S
C634 C636 1.388 . S
C635 C634 1.366 . S
C635 C639 1.385 . S
C636 H617 0.951 . S
C636 C634 1.388 . S
C636 C637 1.366 . S
C637 C636 1.366 . S
C637 C638 1.414 . S
C637 C640 1.499 . S
C638 H618 0.950 . S
C638 C637 1.414 . S
C638 C639 1.374 . S
C639 H619 0.950 . S
C639 C635 1.385 . S
C639 C638 1.374 . S
C640 C637 1.499 . S
C640 C641 1.373 . S
C640 C642 1.389 . S
C641 H620 0.950 . S
C641 C640 1.373 . S
C641 C657 1.377 . S
C642 C640 1.389 . S
C642 C643 1.524 . S
C642 C656 1.377 . S
C643 C642 1.524 . S
C643 C644 1.397 . S
C643 C648 1.363 . S
C644 H621 0.950 . S
C644 C643 1.397 . S
C644 C645 1.334 . S
C645 H622 0.950 . S
C645 C644 1.334 . S
C645 C646 1.287 . S
C646 C645 1.287 . S
C646 C647 1.524 . S
C646 H665 0.913 . S
C647 H623 0.950 . S
C647 C646 1.524 . S
C647 C648 1.415 . S
C648 H624 0.950 . S
C648 C643 1.363 . S
C648 C647 1.415 . S
C649 H625 0.951 1_455 S
C649 C650 1.366 . S
C649 C651 1.388 . S
C650 C649 1.366 . S
C650 C654 1.385 . S
C651 H626 0.951 . S
C651 C649 1.388 . S
C651 C652 1.366 . S
C652 C651 1.366 . S
C652 C653 1.414 . S
C652 C655 1.499 . S
C653 H627 0.950 . S
C653 C652 1.414 . S
C653 C654 1.374 . S
C654 H628 0.950 . S
C654 C650 1.385 . S
C654 C653 1.374 . S
C655 C652 1.499 . S
C655 C656 1.373 . S
C655 C657 1.389 . S
C656 H629 0.950 . S
C656 C642 1.377 . S
C656 C655 1.373 . S
C657 C641 1.377 . S
C657 C655 1.389 . S
C657 C658 1.524 . S
C658 C657 1.524 . S
C658 C659 1.397 . S
C658 C663 1.363 1_455 S
C659 H630 0.950 . S
C659 C658 1.397 . S
C659 C660 1.334 1_454 S
C660 H631 0.950 . S
C660 C659 1.334 1_656 S
C660 C661 1.287 1_556 S
C661 C660 1.287 1_554 S
C661 C662 1.524 . S
C661 H664 0.999 1_554 S
C662 H632 0.950 . S
C662 C661 1.524 . S
C662 C663 1.415 . S
C663 H633 0.950 . S
C663 C658 1.363 1_655 S
C663 C662 1.415 . S
H664 C661 0.999 1_556 S
H665 C646 0.913 . S
H666 C684 0.951 . S
H667 C686 0.951 . S
H668 C688 0.950 . S
H669 C689 0.950 . S
H670 C691 0.950 . S
H671 C694 0.950 . S
H672 C695 0.950 . S
H673 C697 0.950 . S
H674 C698 0.950 . S
H675 C699 0.951 1_554 S
H676 C701 0.951 . S
H677 C703 0.950 . S
H678 C704 0.950 . S
H679 C706 0.950 . S
H680 C709 0.950 . S
H681 C710 0.950 . S
H682 C712 0.950 . S
H683 C713 0.950 . S
C684 H666 0.951 . S
C684 C685 1.366 . S
C684 C686 1.388 . S
C685 C684 1.366 . S
C685 C689 1.385 . S
C686 H667 0.951 . S
C686 C684 1.388 . S
C686 C687 1.366 . S
C687 C686 1.366 . S
C687 C688 1.414 . S
C687 C690 1.499 . S
C688 H668 0.950 . S
C688 C687 1.414 . S
C688 C689 1.374 . S
C689 H669 0.950 . S
C689 C685 1.385 . S
C689 C688 1.374 . S
C690 C687 1.499 . S
C690 C691 1.373 . S
C690 C692 1.389 . S
C691 H670 0.950 . S
C691 C690 1.373 . S
C691 C707 1.377 . S
C692 C690 1.389 . S
C692 C693 1.524 . S
C692 C706 1.377 . S
C693 C692 1.524 . S
C693 C694 1.397 . S
C693 C698 1.363 . S
C694 H671 0.950 . S
C694 C693 1.397 . S
C694 C695 1.334 . S
C695 H672 0.950 . S
C695 C694 1.334 . S
C695 C696 1.287 . S
C696 C695 1.287 . S
C696 C697 1.524 . S
C696 H715 0.913 . S
C697 H673 0.950 . S
C697 C696 1.524 . S
C697 C698 1.415 . S
C698 H674 0.950 . S
C698 C693 1.363 . S
C698 C697 1.415 . S
C699 H675 0.951 1_556 S
C699 C700 1.366 . S
C699 C701 1.388 . S
C700 C699 1.366 . S
C700 C704 1.385 . S
C701 H676 0.951 . S
C701 C699 1.388 . S
C701 C702 1.366 . S
C702 C701 1.366 . S
C702 C703 1.414 . S
C702 C705 1.499 . S
C703 H677 0.950 . S
C703 C702 1.414 . S
C703 C704 1.374 . S
C704 H678 0.950 . S
C704 C700 1.385 . S
C704 C703 1.374 . S
C705 C702 1.499 . S
C705 C706 1.373 . S
C705 C707 1.389 . S
C706 H679 0.950 . S
C706 C692 1.377 . S
C706 C705 1.373 . S
C707 C691 1.377 . S
C707 C705 1.389 . S
C707 C708 1.524 1_556 S
C708 C707 1.524 1_554 S
C708 C709 1.397 . S
C708 C713 1.363 . S
C709 H680 0.950 . S
C709 C708 1.397 . S
C709 C710 1.334 . S
C710 H681 0.950 . S
C710 C709 1.334 . S
C710 C711 1.287 . S
C711 C710 1.287 . S
C711 C712 1.524 . S
C711 H714 0.999 . S
C712 H682 0.950 . S
C712 C711 1.524 . S
C712 C713 1.415 . S
C713 H683 0.950 . S
C713 C708 1.363 . S
C713 C712 1.415 . S
H714 C711 0.999 . S
H715 C696 0.913 . S
H716 C734 0.951 . S
H717 C736 0.951 . S
H718 C738 0.950 . S
H719 C739 0.950 . S
H720 C741 0.950 . S
H721 C744 0.950 . S
H722 C745 0.950 1_655 S
H723 C747 0.950 . S
H724 C748 0.950 . S
H725 C749 0.951 . S
H726 C751 0.951 . S
H727 C753 0.973 . S
H728 C754 0.950 1_455 S
H729 C756 0.950 . S
H730 C759 0.950 . S
H731 C760 0.950 . S
H732 C762 0.950 . S
H733 C763 0.950 . S
C734 H716 0.951 . S
C734 C735 1.366 . S
C734 C736 1.388 . S
C735 C734 1.366 . S
C735 C739 1.385 . S
C736 H717 0.951 . S
C736 C734 1.388 . S
C736 C737 1.366 . S
C737 C736 1.366 . S
C737 C738 1.414 . S
C737 C740 1.499 . S
C738 H718 0.950 . S
C738 C737 1.414 . S
C738 C739 1.374 . S
C739 H719 0.950 . S
C739 C735 1.385 . S
C739 C738 1.374 . S
C740 C737 1.499 . S
C740 C741 1.373 . S
C740 C742 1.389 . S
C741 H720 0.950 . S
C741 C740 1.373 . S
C741 C757 1.377 . S
C742 C740 1.389 . S
C742 C743 1.524 . S
C742 C756 1.377 . S
C743 C742 1.524 . S
C743 C744 1.397 . S
C743 C748 1.363 1_655 S
C744 H721 0.950 . S
C744 C743 1.397 . S
C744 C745 1.334 1_655 S
C745 H722 0.950 1_455 S
C745 C744 1.334 1_455 S
C745 C746 1.287 . S
C746 C745 1.287 . S
C746 C747 1.524 . S
C746 H765 0.913 . S
C747 H723 0.950 . S
C747 C746 1.524 . S
C747 C748 1.415 . S
C748 H724 0.950 . S
C748 C743 1.363 1_455 S
C748 C747 1.415 . S
C749 H725 0.951 . S
C749 C750 1.366 . S
C749 C751 1.388 . S
C750 C749 1.366 . S
C750 C754 1.385 . S
C751 H726 0.951 . S
C751 C749 1.388 . S
C751 C752 1.366 . S
C752 C751 1.366 . S
C752 C753 1.414 . S
C752 C755 1.499 . S
C753 H727 0.973 . S
C753 C752 1.414 . S
C753 C754 1.374 . S
C754 H728 0.950 1_655 S
C754 C750 1.385 . S
C754 C753 1.374 . S
C755 C752 1.499 . S
C755 C756 1.373 . S
C755 C757 1.389 . S
C756 H729 0.950 . S
C756 C742 1.377 . S
C756 C755 1.373 . S
C757 C741 1.377 . S
C757 C755 1.389 . S
C757 C758 1.524 . S
C758 C757 1.524 . S
C758 C759 1.397 . S
C758 C763 1.363 . S
C759 H730 0.950 . S
C759 C758 1.397 . S
C759 C760 1.334 . S
C760 H731 0.950 . S
C760 C759 1.334 . S
C760 C761 1.287 . S
C761 C760 1.287 . S
C761 C762 1.524 . S
C761 H764 0.999 . S
C762 H732 0.950 . S
C762 C761 1.524 . S
C762 C763 1.415 . S
C763 H733 0.950 . S
C763 C758 1.363 . S
C763 C762 1.415 . S
H764 C761 0.999 . S
H765 C746 0.913 . S
H766 C784 0.951 . S
H767 C786 0.951 . S
H768 C788 0.950 . S
H769 C789 0.950 . S
H770 C791 0.950 . S
H771 C794 0.950 . S
H772 C795 0.950 . S
H773 C797 0.950 . S
H774 C798 0.950 . S
H775 C799 0.951 . S
H776 C801 0.951 . S
H777 C803 0.950 . S
H778 C804 0.950 . S
H779 C806 0.950 . S
H780 C809 0.950 . S
H781 C810 0.950 . S
H782 C812 0.950 . S
H783 C813 0.950 . S
C784 H766 0.951 . S
C784 C785 1.366 . S
C784 C786 1.388 . S
C785 C784 1.366 . S
C785 C789 1.385 . S
C786 H767 0.951 . S
C786 C784 1.388 . S
C786 C787 1.366 . S
C787 C786 1.366 . S
C787 C788 1.414 . S
C787 C790 1.499 . S
C788 H768 0.950 . S
C788 C787 1.414 . S
C788 C789 1.374 . S
C789 H769 0.950 . S
C789 C785 1.385 . S
C789 C788 1.374 . S
C790 C787 1.499 . S
C790 C791 1.373 . S
C790 C792 1.389 . S
C791 H770 0.950 . S
C791 C790 1.373 . S
C791 C807 1.377 . S
C792 C790 1.389 . S
C792 C793 1.524 . S
C792 C806 1.377 . S
C793 C792 1.524 . S
C793 C794 1.397 . S
C793 C798 1.363 . S
C794 H771 0.950 . S
C794 C793 1.397 . S
C794 C795 1.334 . S
C795 H772 0.950 . S
C795 C794 1.334 . S
C795 C796 1.287 . S
C796 C795 1.287 . S
C796 C797 1.524 . S
C796 H815 0.913 . S
C797 H773 0.950 . S
C797 C796 1.524 . S
C797 C798 1.415 . S
C798 H774 0.950 . S
C798 C793 1.363 . S
C798 C797 1.415 . S
C799 H775 0.951 . S
C799 C800 1.366 . S
C799 C801 1.388 . S
C800 C799 1.366 . S
C800 C804 1.385 . S
C801 H776 0.951 . S
C801 C799 1.388 . S
C801 C802 1.366 . S
C802 C801 1.366 . S
C802 C803 1.414 . S
C802 C805 1.499 . S
C803 H777 0.950 . S
C803 C802 1.414 . S
C803 C804 1.374 . S
C804 H778 0.950 . S
C804 C800 1.385 . S
C804 C803 1.374 . S
C805 C802 1.499 . S
C805 C806 1.373 . S
C805 C807 1.389 . S
C806 H779 0.950 . S
C806 C792 1.377 . S
C806 C805 1.373 . S
C807 C791 1.377 . S
C807 C805 1.389 . S
C807 C808 1.524 . S
C808 C807 1.524 . S
C808 C809 1.397 . S
C808 C813 1.363 . S
C809 H780 0.950 . S
C809 C808 1.397 . S
C809 C810 1.334 . S
C810 H781 0.950 . S
C810 C809 1.334 . S
C810 C811 1.287 . S
C811 C810 1.287 . S
C811 C812 1.524 . S
C811 H814 0.999 . S
C812 H782 0.950 . S
C812 C811 1.524 . S
C812 C813 1.415 . S
C813 H783 0.950 . S
C813 C808 1.363 . S
C813 C812 1.415 . S
H814 C811 0.999 . S
H815 C796 0.913 . S
H816 C834 0.951 . S
H817 C836 0.951 . S
H818 C838 0.950 . S
H819 C839 0.950 . S
H820 C841 0.950 . S
H821 C844 0.950 . S
H822 C845 0.950 . S
H823 C847 0.965 . S
H824 C848 0.950 . S
H825 C849 0.943 1_545 S
H826 C851 0.951 1_545 S
H827 C853 0.950 . S
H828 C854 0.950 . S
H829 C856 0.950 . S
H830 C859 0.950 . S
H831 C860 0.950 . S
H832 C862 0.950 . S
H833 C863 0.950 . S
C834 H816 0.951 . S
C834 C835 1.366 . S
C834 C836 1.388 . S
C835 C834 1.366 . S
C835 C839 1.385 . S
C836 H817 0.951 . S
C836 C834 1.388 . S
C836 C837 1.366 . S
C837 C836 1.366 . S
C837 C838 1.414 . S
C837 C840 1.499 . S
C838 H818 0.950 . S
C838 C837 1.414 . S
C838 C839 1.374 . S
C839 H819 0.950 . S
C839 C835 1.385 . S
C839 C838 1.374 . S
C840 C837 1.499 . S
C840 C841 1.373 . S
C840 C842 1.389 . S
C841 H820 0.950 . S
C841 C840 1.373 . S
C841 C857 1.377 . S
C842 C840 1.389 . S
C842 C843 1.524 . S
C842 C856 1.377 . S
C843 C842 1.524 . S
C843 C844 1.397 . S
C843 C848 1.363 . S
C844 H821 0.950 . S
C844 C843 1.397 . S
C844 C845 1.334 1_655 S
C845 H822 0.950 . S
C845 C844 1.334 1_455 S
C845 C846 1.287 . S
C846 C845 1.287 . S
C846 C847 1.537 . S
C846 H865 0.913 . S
C847 H823 0.965 . S
C847 C846 1.537 . S
C847 C848 1.385 1_455 S
C848 H824 0.950 . S
C848 C843 1.363 . S
C848 C847 1.385 1_655 S
C849 H825 0.943 1_565 S
C849 C850 1.372 . S
C849 C851 1.389 . S
C850 C849 1.372 . S
C850 C854 1.385 . S
C851 H826 0.951 1_565 S
C851 C849 1.389 . S
C851 C852 1.366 . S
C852 C851 1.366 . S
C852 C853 1.414 . S
C852 C855 1.499 . S
C853 H827 0.950 . S
C853 C852 1.414 . S
C853 C854 1.374 . S
C854 H828 0.950 . S
C854 C850 1.385 . S
C854 C853 1.374 . S
C855 C852 1.499 . S
C855 C856 1.373 . S
C855 C857 1.389 . S
C856 H829 0.950 . S
C856 C842 1.377 . S
C856 C855 1.373 . S
C857 C841 1.377 . S
C857 C855 1.389 . S
C857 C858 1.524 . S
C858 C857 1.524 . S
C858 C859 1.397 . S
C858 C863 1.363 1_565 S
C859 H830 0.950 . S
C859 C858 1.397 . S
C859 C860 1.334 . S
C860 H831 0.950 . S
C860 C859 1.334 . S
C860 C861 1.287 1_565 S
C861 C860 1.287 1_545 S
C861 C862 1.524 . S
C861 H864 0.999 . S
C862 H832 0.950 . S
C862 C861 1.524 . S
C862 C863 1.415 . S
C863 H833 0.950 . S
C863 C858 1.363 1_545 S
C863 C862 1.415 . S
H864 C861 0.999 . S
H865 C846 0.913 . S
H866 C884 0.951 . S
H867 C886 0.951 . S
H868 C888 0.950 . S
H869 C889 0.950 . S
H870 C891 0.950 . S
H871 C894 0.950 . S
H872 C895 0.950 . S
H873 C897 0.950 . S
H874 C898 0.950 . S
H875 C899 0.951 . S
H876 C901 0.951 . S
H877 C903 0.950 . S
H878 C904 0.950 . S
H879 C906 0.950 . S
H880 C909 0.950 . S
H881 C910 0.950 . S
H882 C912 0.950 . S
H883 C913 0.950 . S
C884 H866 0.951 . S
C884 C885 1.366 . S
C884 C886 1.388 . S
C885 C884 1.366 . S
C885 C889 1.385 . S
C886 H867 0.951 . S
C886 C884 1.388 . S
C886 C887 1.366 . S
C887 C886 1.366 . S
C887 C888 1.414 . S
C887 C890 1.499 . S
C888 H868 0.950 . S
C888 C887 1.414 . S
C888 C889 1.374 . S
C889 H869 0.950 . S
C889 C885 1.385 . S
C889 C888 1.374 . S
C890 C887 1.499 . S
C890 C891 1.373 . S
C890 C892 1.389 . S
C891 H870 0.950 . S
C891 C890 1.373 . S
C891 C907 1.377 . S
C892 C890 1.389 . S
C892 C893 1.524 . S
C892 C906 1.377 . S
C893 C892 1.524 . S
C893 C894 1.397 . S
C893 C898 1.363 . S
C894 H871 0.950 . S
C894 C893 1.397 . S
C894 C895 1.334 . S
C895 H872 0.950 . S
C895 C894 1.334 . S
C895 C896 1.287 . S
C896 C895 1.287 . S
C896 C897 1.524 . S
C896 H915 0.913 . S
C897 H873 0.950 . S
C897 C896 1.524 . S
C897 C898 1.415 . S
C898 H874 0.950 . S
C898 C893 1.363 . S
C898 C897 1.415 . S
C899 H875 0.951 . S
C899 C900 1.366 . S
C899 C901 1.388 . S
C900 C899 1.366 . S
C900 C904 1.385 . S
C901 H876 0.951 . S
C901 C899 1.388 . S
C901 C902 1.366 . S
C902 C901 1.366 . S
C902 C903 1.414 . S
C902 C905 1.499 . S
C903 H877 0.950 . S
C903 C902 1.414 . S
C903 C904 1.374 . S
C904 H878 0.950 . S
C904 C900 1.385 . S
C904 C903 1.374 . S
C905 C902 1.499 . S
C905 C906 1.373 . S
C905 C907 1.389 . S
C906 H879 0.950 . S
C906 C892 1.377 . S
C906 C905 1.373 . S
C907 C891 1.377 . S
C907 C905 1.389 . S
C907 C908 1.524 . S
C908 C907 1.524 . S
C908 C909 1.397 . S
C908 C913 1.363 . S
C909 H880 0.950 . S
C909 C908 1.397 . S
C909 C910 1.334 . S
C910 H881 0.950 . S
C910 C909 1.334 . S
C910 C911 1.287 . S
C911 C910 1.287 . S
C911 C912 1.524 . S
C911 H914 0.999 . S
C912 H882 0.950 . S
C912 C911 1.524 . S
C912 C913 1.415 . S
C913 H883 0.950 . S
C913 C908 1.363 . S
C913 C912 1.415 . S
H914 C911 0.999 . S
H915 C896 0.913 . S
H916 C934 0.951 . S
H917 C936 0.951 . S
H918 C938 0.950 . S
H919 C939 0.950 . S
H920 C941 0.950 . S
H921 C944 0.950 . S
H922 C945 0.950 . S
H923 C947 0.950 . S
H924 C948 0.950 . S
H925 C949 0.951 . S
H926 C951 0.951 . S
H927 C953 0.950 . S
H928 C954 0.950 . S
H929 C956 0.950 . S
H930 C959 0.950 . S
H931 C960 0.950 . S
H932 C962 0.950 . S
H933 C963 0.950 . S
C934 H916 0.951 . S
C934 C935 1.366 . S
C934 C936 1.388 . S
C935 C934 1.366 . S
C935 C939 1.385 . S
C936 H917 0.951 . S
C936 C934 1.388 . S
C936 C937 1.366 . S
C937 C936 1.366 . S
C937 C938 1.414 . S
C937 C940 1.499 . S
C938 H918 0.950 . S
C938 C937 1.414 . S
C938 C939 1.374 . S
C939 H919 0.950 . S
C939 C935 1.385 . S
C939 C938 1.374 . S
C940 C937 1.499 . S
C940 C941 1.373 . S
C940 C942 1.389 . S
C941 H920 0.950 . S
C941 C940 1.373 . S
C941 C957 1.377 . S
C942 C940 1.389 . S
C942 C943 1.524 . S
C942 C956 1.377 . S
C943 C942 1.524 . S
C943 C944 1.397 . S
C943 C948 1.363 . S
C944 H921 0.950 . S
C944 C943 1.397 . S
C944 C945 1.334 . S
C945 H922 0.950 . S
C945 C944 1.334 . S
C945 C946 1.287 . S
C946 C945 1.287 . S
C946 C947 1.524 . S
C946 H965 0.913 . S
C947 H923 0.950 . S
C947 C946 1.524 . S
C947 C948 1.415 . S
C948 H924 0.950 . S
C948 C943 1.363 . S
C948 C947 1.415 . S
C949 H925 0.951 . S
C949 C950 1.366 . S
C949 C951 1.388 . S
C950 C949 1.366 . S
C950 C954 1.385 . S
C951 H926 0.951 . S
C951 C949 1.388 . S
C951 C952 1.366 . S
C952 C951 1.366 . S
C952 C953 1.414 . S
C952 C955 1.499 . S
C953 H927 0.950 . S
C953 C952 1.414 . S
C953 C954 1.374 . S
C954 H928 0.950 . S
C954 C950 1.385 . S
C954 C953 1.374 . S
C955 C952 1.499 . S
C955 C956 1.373 . S
C955 C957 1.389 . S
C956 H929 0.950 . S
C956 C942 1.377 . S
C956 C955 1.373 . S
C957 C941 1.377 . S
C957 C955 1.389 . S
C957 C958 1.524 . S
C958 C957 1.524 . S
C958 C959 1.397 . S
C958 C963 1.363 . S
C959 H930 0.950 . S
C959 C958 1.397 . S
C959 C960 1.334 . S
C960 H931 0.950 . S
C960 C959 1.334 . S
C960 C961 1.287 . S
C961 C960 1.287 . S
C961 C962 1.524 . S
C961 H964 0.999 . S
C962 H932 0.950 . S
C962 C961 1.524 . S
C962 C963 1.415 . S
C963 H933 0.950 . S
C963 C958 1.363 . S
C963 C962 1.415 . S
H964 C961 0.999 . S
H965 C946 0.913 . S
H966 C984 0.951 . S
H967 C986 0.951 . S
H968 C988 0.950 . S
H969 C989 0.950 . S
H970 C991 0.950 . S
H971 C994 0.950 . S
H972 C995 0.950 . S
H973 C997 0.950 . S
H974 C998 0.950 . S
H975 C999 0.951 . S
H976 C1001 0.951 . S
H977 C1003 0.950 . S
H978 C1004 0.950 . S
H979 C1006 0.950 . S
H980 C1009 0.950 . S
H981 C1010 0.950 . S
H982 C1012 0.950 . S
H983 C1013 0.950 . S
C984 H966 0.951 . S
C984 C985 1.366 . S
C984 C986 1.388 . S
C985 C984 1.366 . S
C985 C989 1.385 . S
C986 H967 0.951 . S
C986 C984 1.388 . S
C986 C987 1.366 . S
C987 C986 1.366 . S
C987 C988 1.414 . S
C987 C990 1.499 . S
C988 H968 0.950 . S
C988 C987 1.414 . S
C988 C989 1.374 . S
C989 H969 0.950 . S
C989 C985 1.385 . S
C989 C988 1.374 . S
C990 C987 1.499 . S
C990 C991 1.373 . S
C990 C992 1.389 . S
C991 H970 0.950 . S
C991 C990 1.373 . S
C991 C1007 1.377 . S
C992 C990 1.389 . S
C992 C993 1.524 . S
C992 C1006 1.377 . S
C993 C992 1.524 . S
C993 C994 1.397 . S
C993 C998 1.363 . S
C994 H971 0.950 . S
C994 C993 1.397 . S
C994 C995 1.334 . S
C995 H972 0.950 . S
C995 C994 1.334 . S
C995 C996 1.287 . S
C996 C995 1.287 . S
C996 C997 1.524 . S
C996 H1015 0.913 . S
C997 H973 0.950 . S
C997 C996 1.524 . S
C997 C998 1.415 . S
C998 H974 0.950 . S
C998 C993 1.363 . S
C998 C997 1.415 . S
C999 H975 0.951 . S
C999 C1000 1.366 . S
C999 C1001 1.388 . S
C1000 C999 1.366 . S
C1000 C1004 1.385 . S
C1001 H976 0.951 . S
C1001 C999 1.388 . S
C1001 C1002 1.366 . S
C1002 C1001 1.366 . S
C1002 C1003 1.414 . S
C1002 C1005 1.499 . S
C1003 H977 0.950 . S
C1003 C1002 1.414 . S
C1003 C1004 1.374 . S
C1004 H978 0.950 . S
C1004 C1000 1.385 . S
C1004 C1003 1.374 . S
C1005 C1002 1.499 . S
C1005 C1006 1.373 . S
C1005 C1007 1.389 . S
C1006 H979 0.950 . S
C1006 C992 1.377 . S
C1006 C1005 1.373 . S
C1007 C991 1.377 . S
C1007 C1005 1.389 . S
C1007 C1008 1.524 . S
C1008 C1007 1.524 . S
C1008 C1009 1.397 . S
C1008 C1013 1.363 . S
C1009 H980 0.950 . S
C1009 C1008 1.397 . S
C1009 C1010 1.334 . S
C1010 H981 0.950 . S
C1010 C1009 1.334 . S
C1010 C1011 1.287 . S
C1011 C1010 1.287 . S
C1011 C1012 1.524 . S
C1011 H1014 0.999 . S
C1012 H982 0.950 . S
C1012 C1011 1.524 . S
C1012 C1013 1.415 . S
C1013 H983 0.950 . S
C1013 C1008 1.363 . S
C1013 C1012 1.415 . S
H1014 C1011 0.999 . S
H1015 C996 0.913 . S
H1016 C1034 0.951 . S
H1017 C1036 0.951 . S
H1018 C1038 0.950 . S
H1019 C1039 0.950 . S
H1020 C1041 0.950 . S
H1021 C1044 0.950 . S
H1022 C1045 0.950 . S
H1023 C1047 0.950 . S
H1024 C1048 0.950 . S
H1025 C1049 0.951 . S
H1026 C1051 0.951 . S
H1027 C1053 0.950 . S
H1028 C1054 0.956 . S
H1029 C1056 0.950 . S
H1030 C1059 0.950 1_565 S
H1031 C1060 0.950 . S
H1032 C1062 0.950 . S
H1033 C1063 0.950 . S
C1034 H1016 0.951 . S
C1034 C1035 1.366 . S
C1034 C1036 1.388 . S
C1035 C1034 1.366 . S
C1035 C1039 1.385 . S
C1036 H1017 0.951 . S
C1036 C1034 1.388 . S
C1036 C1037 1.366 . S
C1037 C1036 1.366 . S
C1037 C1038 1.414 . S
C1037 C1040 1.499 . S
C1038 H1018 0.950 . S
C1038 C1037 1.414 . S
C1038 C1039 1.374 . S
C1039 H1019 0.950 . S
C1039 C1035 1.385 . S
C1039 C1038 1.374 . S
C1040 C1037 1.499 . S
C1040 C1041 1.373 . S
C1040 C1042 1.389 . S
C1041 H1020 0.950 . S
C1041 C1040 1.373 . S
C1041 C1057 1.377 . S
C1042 C1040 1.389 . S
C1042 C1043 1.524 . S
C1042 C1056 1.377 . S
C1043 C1042 1.524 . S
C1043 C1044 1.397 . S
C1043 C1048 1.363 . S
C1044 H1021 0.950 . S
C1044 C1043 1.397 . S
C1044 C1045 1.334 . S
C1045 H1022 0.950 . S
C1045 C1044 1.334 . S
C1045 C1046 1.287 . S
C1046 C1045 1.287 . S
C1046 C1047 1.524 . S
C1046 H1065 0.913 . S
C1047 H1023 0.950 . S
C1047 C1046 1.524 . S
C1047 C1048 1.415 . S
C1048 H1024 0.950 . S
C1048 C1043 1.363 . S
C1048 C1047 1.415 . S
C1049 H1025 0.951 . S
C1049 C1050 1.366 1_545 S
C1049 C1051 1.388 . S
C1050 C1049 1.366 1_565 S
C1050 C1054 1.385 . S
C1051 H1026 0.951 . S
C1051 C1049 1.388 . S
C1051 C1052 1.366 1_545 S
C1052 C1051 1.366 1_565 S
C1052 C1053 1.414 . S
C1052 C1055 1.499 . S
C1053 H1027 0.950 . S
C1053 C1052 1.414 . S
C1053 C1054 1.374 . S
C1054 H1028 0.956 . S
C1054 C1050 1.385 . S
C1054 C1053 1.374 . S
C1055 C1052 1.499 . S
C1055 C1056 1.373 . S
C1055 C1057 1.389 . S
C1056 H1029 0.950 . S
C1056 C1042 1.377 . S
C1056 C1055 1.373 . S
C1057 C1041 1.377 . S
C1057 C1055 1.389 . S
C1057 C1058 1.524 1_565 S
C1058 C1057 1.524 1_545 S
C1058 C1059 1.397 1_556 S
C1058 C1063 1.363 . S
C1059 H1030 0.950 1_545 S
C1059 C1058 1.397 1_554 S
C1059 C1060 1.334 . S
C1060 H1031 0.950 . S
C1060 C1059 1.334 . S
C1060 C1061 1.287 . S
C1061 C1060 1.287 . S
C1061 C1062 1.524 1_554 S
C1061 H1064 0.999 . S
C1062 H1032 0.950 . S
C1062 C1061 1.524 1_556 S
C1062 C1063 1.415 . S
C1063 H1033 0.950 . S
C1063 C1058 1.363 . S
C1063 C1062 1.415 . S
H1064 C1061 0.999 . S
H1065 C1046 0.913 . S
H1066 C1084 0.951 . S
H1067 C1086 0.951 . S
H1068 C1088 0.950 . S
H1069 C1089 0.950 . S
H1070 C1091 0.950 . S
H1071 C1094 0.950 . S
H1072 C1095 0.950 . S
H1073 C1097 0.950 . S
H1074 C1098 0.950 . S
H1075 C1099 0.951 . S
H1076 C1101 0.951 . S
H1077 C1103 0.950 . S
H1078 C1104 0.950 . S
H1079 C1106 0.950 . S
H1080 C1109 0.950 . S
H1081 C1110 0.950 . S
H1082 C1112 0.950 . S
H1083 C1113 0.950 . S
C1084 H1066 0.951 . S
C1084 C1085 1.366 . S
C1084 C1086 1.388 . S
C1085 C1084 1.366 . S
C1085 C1089 1.385 . S
C1086 H1067 0.951 . S
C1086 C1084 1.388 . S
C1086 C1087 1.366 . S
C1087 C1086 1.366 . S
C1087 C1088 1.414 . S
C1087 C1090 1.499 . S
C1088 H1068 0.950 . S
C1088 C1087 1.414 . S
C1088 C1089 1.374 . S
C1089 H1069 0.950 . S
C1089 C1085 1.385 . S
C1089 C1088 1.374 . S
C1090 C1087 1.499 . S
C1090 C1091 1.373 . S
C1090 C1092 1.389 . S
C1091 H1070 0.950 . S
C1091 C1090 1.373 . S
C1091 C1107 1.377 . S
C1092 C1090 1.389 . S
C1092 C1093 1.524 . S
C1092 C1106 1.377 . S
C1093 C1092 1.524 . S
C1093 C1094 1.397 . S
C1093 C1098 1.363 . S
C1094 H1071 0.950 . S
C1094 C1093 1.397 . S
C1094 C1095 1.334 . S
C1095 H1072 0.950 . S
C1095 C1094 1.334 . S
C1095 C1096 1.287 . S
C1096 C1095 1.287 . S
C1096 C1097 1.524 . S
C1096 H1115 0.913 . S
C1097 H1073 0.950 . S
C1097 C1096 1.524 . S
C1097 C1098 1.415 . S
C1098 H1074 0.950 . S
C1098 C1093 1.363 . S
C1098 C1097 1.415 . S
C1099 H1075 0.951 . S
C1099 C1100 1.366 . S
C1099 C1101 1.388 . S
C1100 C1099 1.366 . S
C1100 C1104 1.385 . S
C1101 H1076 0.951 . S
C1101 C1099 1.388 . S
C1101 C1102 1.366 . S
C1102 C1101 1.366 . S
C1102 C1103 1.414 . S
C1102 C1105 1.499 . S
C1103 H1077 0.950 . S
C1103 C1102 1.414 . S
C1103 C1104 1.374 . S
C1104 H1078 0.950 . S
C1104 C1100 1.385 . S
C1104 C1103 1.374 . S
C1105 C1102 1.499 . S
C1105 C1106 1.373 . S
C1105 C1107 1.389 . S
C1106 H1079 0.950 . S
C1106 C1092 1.377 . S
C1106 C1105 1.373 . S
C1107 C1091 1.377 . S
C1107 C1105 1.389 . S
C1107 C1108 1.524 . S
C1108 C1107 1.524 . S
C1108 C1109 1.397 . S
C1108 C1113 1.363 . S
C1109 H1080 0.950 . S
C1109 C1108 1.397 . S
C1109 C1110 1.334 1_545 S
C1110 H1081 0.950 . S
C1110 C1109 1.334 1_565 S
C1110 C1111 1.287 1_565 S
C1111 C1110 1.287 1_545 S
C1111 C1112 1.524 . S
C1111 H1114 0.999 1_545 S
C1112 H1082 0.950 . S
C1112 C1111 1.524 . S
C1112 C1113 1.415 . S
C1113 H1083 0.950 . S
C1113 C1108 1.363 . S
C1113 C1112 1.415 . S
H1114 C1111 0.999 1_565 S
H1115 C1096 0.913 . S
H1116 C1134 0.951 . S
H1117 C1136 0.951 . S
H1118 C1138 0.950 . S
H1119 C1139 0.950 . S
H1120 C1141 0.950 . S
H1121 C1144 0.950 . S
H1122 C1145 0.950 . S
H1123 C1147 0.950 . S
H1124 C1148 0.950 . S
H1125 C1149 0.962 . S
H1126 C1151 0.951 . S
H1127 C1153 0.950 . S
H1128 C1154 0.950 . S
H1129 C1156 0.950 . S
H1130 C1159 0.950 . S
H1131 C1160 0.950 . S
H1132 C1162 0.950 . S
H1133 C1163 0.950 . S
C1134 H1116 0.951 . S
C1134 C1135 1.366 . S
C1134 C1136 1.388 . S
C1135 C1134 1.366 . S
C1135 C1139 1.385 . S
C1136 H1117 0.951 . S
C1136 C1134 1.388 . S
C1136 C1137 1.366 . S
C1137 C1136 1.366 . S
C1137 C1138 1.414 . S
C1137 C1140 1.499 . S
C1138 H1118 0.950 . S
C1138 C1137 1.414 . S
C1138 C1139 1.374 . S
C1139 H1119 0.950 . S
C1139 C1135 1.385 . S
C1139 C1138 1.374 . S
C1140 C1137 1.499 . S
C1140 C1141 1.373 . S
C1140 C1142 1.389 . S
C1141 H1120 0.950 . S
C1141 C1140 1.373 . S
C1141 C1157 1.377 . S
C1142 C1140 1.389 . S
C1142 C1143 1.524 . S
C1142 C1156 1.377 . S
C1143 C1142 1.524 . S
C1143 C1144 1.397 . S
C1143 C1148 1.363 . S
C1144 H1121 0.950 . S
C1144 C1143 1.397 . S
C1144 C1145 1.334 . S
C1145 H1122 0.950 . S
C1145 C1144 1.334 . S
C1145 C1146 1.287 . S
C1146 C1145 1.287 . S
C1146 C1147 1.524 . S
C1146 H1165 0.913 . S
C1147 H1123 0.950 . S
C1147 C1146 1.524 . S
C1147 C1148 1.415 . S
C1148 H1124 0.950 . S
C1148 C1143 1.363 . S
C1148 C1147 1.415 . S
C1149 H1125 0.962 . S
C1149 C1150 1.366 . S
C1149 C1151 1.388 . S
C1150 C1149 1.366 . S
C1150 C1154 1.385 . S
C1151 H1126 0.951 . S
C1151 C1149 1.388 . S
C1151 C1152 1.366 . S
C1152 C1151 1.366 . S
C1152 C1153 1.414 . S
C1152 C1155 1.499 . S
C1153 H1127 0.950 . S
C1153 C1152 1.414 . S
C1153 C1154 1.374 . S
C1154 H1128 0.950 . S
C1154 C1150 1.385 . S
C1154 C1153 1.374 . S
C1155 C1152 1.499 . S
C1155 C1156 1.373 . S
C1155 C1157 1.389 . S
C1156 H1129 0.950 . S
C1156 C1142 1.377 . S
C1156 C1155 1.373 . S
C1157 C1141 1.377 . S
C1157 C1155 1.389 . S
C1157 C1158 1.524 . S
C1158 C1157 1.524 . S
C1158 C1159 1.397 . S
C1158 C1163 1.363 . S
C1159 H1130 0.950 . S
C1159 C1158 1.397 . S
C1159 C1160 1.334 . S
C1160 H1131 0.950 . S
C1160 C1159 1.334 . S
C1160 C1161 1.287 . S
C1161 C1160 1.287 . S
C1161 C1162 1.524 . S
C1161 H1164 0.999 . S
C1162 H1132 0.950 . S
C1162 C1161 1.524 . S
C1162 C1163 1.415 . S
C1163 H1133 0.950 . S
C1163 C1158 1.363 . S
C1163 C1162 1.415 . S
H1164 C1161 0.999 . S
H1165 C1146 0.913 . S
H1166 C1184 0.951 . S
H1167 C1186 0.951 . S
H1168 C1188 0.950 . S
H1169 C1189 0.950 . S
H1170 C1191 0.950 . S
H1171 C1194 0.950 . S
H1172 C1195 0.950 . S
H1173 C1197 0.950 . S
H1174 C1198 0.950 . S
H1175 C1199 0.951 . S
H1176 C1201 0.951 . S
H1177 C1203 0.950 . S
H1178 C1204 0.950 . S
H1179 C1206 0.950 . S
H1180 C1209 0.950 . S
H1181 C1210 0.950 . S
H1182 C1212 0.950 . S
H1183 C1213 0.950 . S
C1184 H1166 0.951 . S
C1184 C1185 1.366 . S
C1184 C1186 1.388 . S
C1185 C1184 1.366 . S
C1185 C1189 1.385 . S
C1186 H1167 0.951 . S
C1186 C1184 1.388 . S
C1186 C1187 1.366 . S
C1187 C1186 1.366 . S
C1187 C1188 1.414 . S
C1187 C1190 1.499 . S
C1188 H1168 0.950 . S
C1188 C1187 1.414 . S
C1188 C1189 1.374 . S
C1189 H1169 0.950 . S
C1189 C1185 1.385 . S
C1189 C1188 1.374 . S
C1190 C1187 1.499 . S
C1190 C1191 1.373 . S
C1190 C1192 1.389 . S
C1191 H1170 0.950 . S
C1191 C1190 1.373 . S
C1191 C1207 1.377 . S
C1192 C1190 1.389 . S
C1192 C1193 1.524 . S
C1192 C1206 1.377 . S
C1193 C1192 1.524 . S
C1193 C1194 1.397 . S
C1193 C1198 1.363 . S
C1194 H1171 0.950 . S
C1194 C1193 1.397 . S
C1194 C1195 1.334 . S
C1195 H1172 0.950 . S
C1195 C1194 1.334 . S
C1195 C1196 1.287 . S
C1196 C1195 1.287 . S
C1196 C1197 1.524 . S
C1196 H1215 0.913 . S
C1197 H1173 0.950 . S
C1197 C1196 1.524 . S
C1197 C1198 1.415 . S
C1198 H1174 0.950 . S
C1198 C1193 1.363 . S
C1198 C1197 1.415 . S
C1199 H1175 0.951 . S
C1199 C1200 1.366 . S
C1199 C1201 1.388 . S
C1200 C1199 1.366 . S
C1200 C1204 1.385 . S
C1201 H1176 0.951 . S
C1201 C1199 1.388 . S
C1201 C1202 1.366 . S
C1202 C1201 1.366 . S
C1202 C1203 1.414 . S
C1202 C1205 1.499 . S
C1203 H1177 0.950 . S
C1203 C1202 1.414 . S
C1203 C1204 1.374 . S
C1204 H1178 0.950 . S
C1204 C1200 1.385 . S
C1204 C1203 1.374 . S
C1205 C1202 1.499 . S
C1205 C1206 1.373 . S
C1205 C1207 1.389 . S
C1206 H1179 0.950 . S
C1206 C1192 1.377 . S
C1206 C1205 1.373 . S
C1207 C1191 1.377 . S
C1207 C1205 1.389 . S
C1207 C1208 1.524 . S
C1208 C1207 1.524 . S
C1208 C1209 1.397 . S
C1208 C1213 1.363 . S
C1209 H1180 0.950 . S
C1209 C1208 1.397 . S
C1209 C1210 1.334 . S
C1210 H1181 0.950 . S
C1210 C1209 1.334 . S
C1210 C1211 1.287 . S
C1211 C1210 1.287 . S
C1211 C1212 1.524 . S
C1211 H1214 0.999 . S
C1212 H1182 0.950 . S
C1212 C1211 1.524 . S
C1212 C1213 1.415 . S
C1213 H1183 0.950 . S
C1213 C1208 1.363 . S
C1213 C1212 1.415 . S
H1214 C1211 0.999 . S
H1215 C1196 0.913 . S
H1216 C1234 0.951 . S
H1217 C1236 0.951 . S
H1218 C1238 0.950 . S
H1219 C1239 0.950 . S
H1220 C1241 0.950 . S
H1221 C1244 0.950 1_655 S
H1222 C1245 0.950 . S
H1223 C1247 0.950 . S
H1224 C1248 0.950 . S
H1225 C1249 0.951 . S
H1226 C1251 0.951 . S
H1227 C1253 0.967 . S
H1228 C1254 0.950 1_455 S
H1229 C1256 0.950 1_455 S
H1230 C1259 0.950 1_554 S
H1231 C1260 0.950 1_554 S
H1232 C1262 0.950 . S
H1233 C1263 0.950 . S
C1234 H1216 0.951 . S
C1234 C1235 1.366 . S
C1234 C1236 1.388 . S
C1235 C1234 1.366 . S
C1235 C1239 1.385 . S
C1236 H1217 0.951 . S
C1236 C1234 1.388 . S
C1236 C1237 1.366 . S
C1237 C1236 1.366 . S
C1237 C1238 1.414 . S
C1237 C1240 1.499 . S
C1238 H1218 0.950 . S
C1238 C1237 1.414 . S
C1238 C1239 1.374 . S
C1239 H1219 0.950 . S
C1239 C1235 1.385 . S
C1239 C1238 1.374 . S
C1240 C1237 1.499 . S
C1240 C1241 1.373 . S
C1240 C1242 1.389 . S
C1241 H1220 0.950 . S
C1241 C1240 1.373 . S
C1241 C1257 1.377 . S
C1242 C1240 1.389 . S
C1242 C1243 1.524 . S
C1242 C1256 1.377 . S
C1243 C1242 1.524 . S
C1243 C1244 1.397 1_655 S
C1243 C1248 1.363 1_655 S
C1244 H1221 0.950 1_455 S
C1244 C1243 1.397 1_455 S
C1244 C1245 1.334 . S
C1245 H1222 0.950 . S
C1245 C1244 1.334 . S
C1245 C1246 1.287 . S
C1246 C1245 1.287 . S
C1246 C1247 1.524 . S
C1246 H1265 0.913 . S
C1247 H1223 0.950 . S
C1247 C1246 1.524 . S
C1247 C1248 1.415 . S
C1248 H1224 0.950 . S
C1248 C1243 1.363 1_455 S
C1248 C1247 1.415 . S
C1249 H1225 0.951 . S
C1249 C1250 1.366 . S
C1249 C1251 1.388 . S
C1250 C1249 1.366 . S
C1250 C1254 1.385 1_556 S
C1251 H1226 0.951 . S
C1251 C1249 1.388 . S
C1251 C1252 1.366 . S
C1252 C1251 1.366 . S
C1252 C1253 1.390 1_556 S
C1252 C1255 1.499 . S
C1253 H1227 0.967 . S
C1253 C1252 1.390 1_554 S
C1253 C1254 1.382 . S
C1254 H1228 0.950 1_655 S
C1254 C1250 1.385 1_554 S
C1254 C1253 1.382 . S
C1255 C1252 1.499 . S
C1255 C1256 1.373 . S
C1255 C1257 1.389 . S
C1256 H1229 0.950 1_655 S
C1256 C1242 1.377 . S
C1256 C1255 1.373 . S
C1257 C1241 1.377 . S
C1257 C1255 1.389 . S
C1257 C1258 1.524 . S
C1258 C1257 1.524 . S
C1258 C1259 1.397 . S
C1258 C1263 1.363 . S
C1259 H1230 0.950 1_556 S
C1259 C1258 1.397 . S
C1259 C1260 1.334 . S
C1260 H1231 0.950 1_556 S
C1260 C1259 1.334 . S
C1260 C1261 1.287 . S
C1261 C1260 1.287 . S
C1261 C1262 1.524 . S
C1261 H1264 0.999 . S
C1262 H1232 0.950 . S
C1262 C1261 1.524 . S
C1262 C1263 1.415 . S
C1263 H1233 0.950 . S
C1263 C1258 1.363 . S
C1263 C1262 1.415 . S
H1264 C1261 0.999 . S
H1265 C1246 0.913 . S
H1266 C1284 0.951 . S
H1267 C1286 0.951 . S
H1268 C1288 0.950 . S
H1269 C1289 0.950 . S
H1270 C1291 0.950 . S
H1271 C1294 0.950 . S
H1272 C1295 0.950 . S
H1273 C1297 0.950 . S
H1274 C1298 0.950 . S
H1275 C1299 0.951 . S
H1276 C1301 0.951 . S
H1277 C1303 0.950 . S
H1278 C1304 0.950 . S
H1279 C1306 0.950 . S
H1280 C1309 0.950 . S
H1281 C1310 0.950 . S
H1282 C1312 0.950 . S
H1283 C1313 0.950 . S
C1284 H1266 0.951 . S
C1284 C1285 1.366 . S
C1284 C1286 1.388 . S
C1285 C1284 1.366 . S
C1285 C1289 1.385 . S
C1286 H1267 0.951 . S
C1286 C1284 1.388 . S
C1286 C1287 1.366 . S
C1287 C1286 1.366 . S
C1287 C1288 1.414 . S
C1287 C1290 1.499 . S
C1288 H1268 0.950 . S
C1288 C1287 1.414 . S
C1288 C1289 1.374 . S
C1289 H1269 0.950 . S
C1289 C1285 1.385 . S
C1289 C1288 1.374 . S
C1290 C1287 1.499 . S
C1290 C1291 1.373 . S
C1290 C1292 1.389 . S
C1291 H1270 0.950 . S
C1291 C1290 1.373 . S
C1291 C1307 1.377 . S
C1292 C1290 1.389 . S
C1292 C1293 1.524 . S
C1292 C1306 1.377 . S
C1293 C1292 1.524 . S
C1293 C1294 1.397 . S
C1293 C1298 1.363 . S
C1294 H1271 0.950 . S
C1294 C1293 1.397 . S
C1294 C1295 1.334 . S
C1295 H1272 0.950 . S
C1295 C1294 1.334 . S
C1295 C1296 1.287 . S
C1296 C1295 1.287 . S
C1296 C1297 1.524 . S
C1296 H1315 0.913 . S
C1297 H1273 0.950 . S
C1297 C1296 1.524 . S
C1297 C1298 1.415 . S
C1298 H1274 0.950 . S
C1298 C1293 1.363 . S
C1298 C1297 1.415 . S
C1299 H1275 0.951 . S
C1299 C1300 1.366 . S
C1299 C1301 1.388 . S
C1300 C1299 1.366 . S
C1300 C1304 1.385 . S
C1301 H1276 0.951 . S
C1301 C1299 1.388 . S
C1301 C1302 1.366 . S
C1302 C1301 1.366 . S
C1302 C1303 1.414 . S
C1302 C1305 1.499 . S
C1303 H1277 0.950 . S
C1303 C1302 1.414 . S
C1303 C1304 1.374 . S
C1304 H1278 0.950 . S
C1304 C1300 1.385 . S
C1304 C1303 1.374 . S
C1305 C1302 1.499 . S
C1305 C1306 1.373 . S
C1305 C1307 1.389 . S
C1306 H1279 0.950 . S
C1306 C1292 1.377 . S
C1306 C1305 1.373 . S
C1307 C1291 1.377 . S
C1307 C1305 1.389 . S
C1307 C1308 1.524 . S
C1308 C1307 1.524 . S
C1308 C1309 1.397 . S
C1308 C1313 1.363 . S
C1309 H1280 0.950 . S
C1309 C1308 1.397 . S
C1309 C1310 1.334 1_554 S
C1310 H1281 0.950 . S
C1310 C1309 1.334 1_556 S
C1310 C1311 1.287 . S
C1311 C1310 1.287 . S
C1311 C1312 1.524 1_556 S
C1311 H1314 0.999 . S
C1312 H1282 0.950 . S
C1312 C1311 1.524 1_554 S
C1312 C1313 1.415 . S
C1313 H1283 0.950 . S
C1313 C1308 1.363 . S
C1313 C1312 1.415 . S
H1314 C1311 0.999 . S
H1315 C1296 0.913 . S
H1316 C1334 0.951 . S
H1317 C1336 0.951 . S
H1318 C1338 0.950 . S
H1319 C1339 0.950 . S
H1320 C1341 0.950 . S
H1321 C1344 0.950 . S
H1322 C1345 0.950 . S
H1323 C1347 0.950 1_655 S
H1324 C1348 0.950 1_655 S
H1325 C1349 0.951 . S
H1326 C1351 0.951 . S
H1327 C1353 0.950 1_655 S
H1328 C1354 0.950 1_655 S
H1329 C1356 0.950 . S
H1330 C1359 0.950 . S
H1331 C1360 0.950 . S
H1332 C1362 0.950 . S
H1333 C1363 0.950 . S
C1334 H1316 0.951 . S
C1334 C1335 1.366 . S
C1334 C1336 1.388 . S
C1335 C1334 1.366 . S
C1335 C1339 1.385 . S
C1336 H1317 0.951 . S
C1336 C1334 1.388 . S
C1336 C1337 1.366 . S
C1337 C1336 1.366 . S
C1337 C1338 1.414 . S
C1337 C1340 1.499 . S
C1338 H1318 0.950 . S
C1338 C1337 1.414 . S
C1338 C1339 1.374 . S
C1339 H1319 0.950 . S
C1339 C1335 1.385 . S
C1339 C1338 1.374 . S
C1340 C1337 1.499 . S
C1340 C1341 1.373 . S
C1340 C1342 1.389 . S
C1341 H1320 0.950 . S
C1341 C1340 1.373 . S
C1341 C1357 1.377 . S
C1342 C1340 1.389 . S
C1342 C1343 1.524 . S
C1342 C1356 1.377 . S
C1343 C1342 1.524 . S
C1343 C1344 1.397 . S
C1343 C1348 1.363 . S
C1344 H1321 0.950 . S
C1344 C1343 1.397 . S
C1344 C1345 1.334 . S
C1345 H1322 0.950 . S
C1345 C1344 1.334 . S
C1345 C1346 1.287 . S
C1346 C1345 1.287 . S
C1346 C1347 1.524 . S
C1346 H1365 0.913 . S
C1347 H1323 0.950 1_455 S
C1347 C1346 1.524 . S
C1347 C1348 1.415 . S
C1348 H1324 0.950 1_455 S
C1348 C1343 1.363 . S
C1348 C1347 1.415 . S
C1349 H1325 0.951 . S
C1349 C1350 1.366 . S
C1349 C1351 1.388 . S
C1350 C1349 1.366 . S
C1350 C1354 1.385 . S
C1351 H1326 0.951 . S
C1351 C1349 1.388 . S
C1351 C1352 1.366 . S
C1352 C1351 1.366 . S
C1352 C1353 1.414 . S
C1352 C1355 1.499 . S
C1353 H1327 0.950 1_455 S
C1353 C1352 1.414 . S
C1353 C1354 1.374 . S
C1354 H1328 0.950 1_455 S
C1354 C1350 1.385 . S
C1354 C1353 1.374 . S
C1355 C1352 1.499 . S
C1355 C1356 1.373 . S
C1355 C1357 1.389 . S
C1356 H1329 0.950 . S
C1356 C1342 1.377 . S
C1356 C1355 1.373 . S
C1357 C1341 1.377 . S
C1357 C1355 1.389 . S
C1357 C1358 1.524 . S
C1358 C1357 1.524 . S
C1358 C1359 1.397 . S
C1358 C1363 1.363 . S
C1359 H1330 0.950 . S
C1359 C1358 1.397 . S
C1359 C1360 1.334 . S
C1360 H1331 0.950 . S
C1360 C1359 1.334 . S
C1360 C1361 1.287 . S
C1361 C1360 1.287 . S
C1361 C1362 1.524 . S
C1361 H1364 0.999 . S
C1362 H1332 0.950 . S
C1362 C1361 1.524 . S
C1362 C1363 1.415 . S
C1363 H1333 0.950 . S
C1363 C1358 1.363 . S
C1363 C1362 1.415 . S
H1364 C1361 0.999 . S
H1365 C1346 0.913 . S
H1366 C1384 0.951 . S
H1367 C1386 0.951 . S
H1368 C1388 0.950 . S
H1369 C1389 0.950 . S
H1370 C1391 0.950 . S
H1371 C1394 0.950 . S
H1372 C1395 0.950 . S
H1373 C1397 0.950 . S
H1374 C1398 0.950 . S
H1375 C1399 0.951 . S
H1376 C1401 0.951 . S
H1377 C1403 0.950 . S
H1378 C1404 0.950 . S
H1379 C1406 0.950 . S
H1380 C1409 0.950 . S
H1381 C1410 0.950 . S
H1382 C1412 0.950 . S
H1383 C1413 0.950 . S
C1384 H1366 0.951 . S
C1384 C1385 1.366 . S
C1384 C1386 1.388 . S
C1385 C1384 1.366 . S
C1385 C1389 1.385 . S
C1386 H1367 0.951 . S
C1386 C1384 1.388 . S
C1386 C1387 1.366 . S
C1387 C1386 1.366 . S
C1387 C1388 1.414 . S
C1387 C1390 1.499 . S
C1388 H1368 0.950 . S
C1388 C1387 1.414 . S
C1388 C1389 1.374 . S
C1389 H1369 0.950 . S
C1389 C1385 1.385 . S
C1389 C1388 1.374 . S
C1390 C1387 1.499 . S
C1390 C1391 1.373 . S
C1390 C1392 1.389 . S
C1391 H1370 0.950 . S
C1391 C1390 1.373 . S
C1391 C1407 1.377 . S
C1392 C1390 1.389 . S
C1392 C1393 1.524 . S
C1392 C1406 1.377 . S
C1393 C1392 1.524 . S
C1393 C1394 1.397 . S
C1393 C1398 1.363 . S
C1394 H1371 0.950 . S
C1394 C1393 1.397 . S
C1394 C1395 1.334 . S
C1395 H1372 0.950 . S
C1395 C1394 1.334 . S
C1395 C1396 1.287 . S
C1396 C1395 1.287 . S
C1396 C1397 1.524 . S
C1396 H1415 0.913 . S
C1397 H1373 0.950 . S
C1397 C1396 1.524 . S
C1397 C1398 1.415 . S
C1398 H1374 0.950 . S
C1398 C1393 1.363 . S
C1398 C1397 1.415 . S
C1399 H1375 0.951 . S
C1399 C1400 1.366 . S
C1399 C1401 1.388 . S
C1400 C1399 1.366 . S
C1400 C1404 1.385 . S
C1401 H1376 0.951 . S
C1401 C1399 1.388 . S
C1401 C1402 1.366 . S
C1402 C1401 1.366 . S
C1402 C1403 1.414 . S
C1402 C1405 1.499 . S
C1403 H1377 0.950 . S
C1403 C1402 1.414 . S
C1403 C1404 1.374 . S
C1404 H1378 0.950 . S
C1404 C1400 1.385 . S
C1404 C1403 1.374 . S
C1405 C1402 1.499 . S
C1405 C1406 1.373 . S
C1405 C1407 1.389 . S
C1406 H1379 0.950 . S
C1406 C1392 1.377 . S
C1406 C1405 1.373 . S
C1407 C1391 1.377 . S
C1407 C1405 1.389 . S
C1407 C1408 1.524 . S
C1408 C1407 1.524 . S
C1408 C1409 1.397 . S
C1408 C1413 1.363 . S
C1409 H1380 0.950 . S
C1409 C1408 1.397 . S
C1409 C1410 1.334 . S
C1410 H1381 0.950 . S
C1410 C1409 1.334 . S
C1410 C1411 1.287 . S
C1411 C1410 1.287 . S
C1411 C1412 1.524 . S
C1411 H1414 0.999 . S
C1412 H1382 0.950 . S
C1412 C1411 1.524 . S
C1412 C1413 1.415 . S
C1413 H1383 0.950 . S
C1413 C1408 1.363 . S
C1413 C1412 1.415 . S
H1414 C1411 0.999 . S
H1415 C1396 0.913 . S
C235 C6 2.353 . S
C250 C112 2.361 . S
C285 C18 1.393 . S
C300 N132 1.381 . S
C350 C166 2.009 . S
C335 C28 1.985 . S
C385 C40 0.728 . S
C400 N200 0.733 . S
C450 C153 2.658 . S
C435 C9 2.647 . S
C500 N110 1.113 . S
C485 C16 1.139 . S
C550 C187 1.955 1_556 S
C535 C30 1.953 . S
C600 N162 0.707 . S
C585 C42 0.705 . S
C635 C4 1.784 . S
C650 C202 1.797 . S
C700 C136 1.725 . S
C685 C33 1.717 . S
C735 C45 1.085 . S
C750 C97 1.092 . S
C785 C21 1.735 . S
C800 C183 1.756 . S
C850 C123 2.412 . S
C835 C57 2.405 . S
C885 C66 1.381 . S
C900 N140 1.361 . S
C935 C76 2.044 . S
C950 C157 2.057 . S
C985 C88 0.676 . S
C1000 N192 0.687 . S
C1035 C54 2.615 . S
C1050 C142 2.615 1_566 S
C1100 N102 1.158 . S
C1085 C64 1.177 . S
C1150 C196 1.833 . S
C1135 C78 1.815 . S
C1200 N170 0.736 . S
C1185 C93 0.734 . S
C1235 C52 1.720 . S
C1250 C213 1.738 1_556 S
C1300 C127 1.734 . S
C1285 C81 1.718 . S
C1350 C106 1.083 . S
C1335 C90 1.081 . S
C1385 C69 1.789 . S
C1400 C172 1.801 . S
