# Generated by pormake.
# Topology anh, (6,3)-cn, num edge types: 1
# Building blocks:
#     Node 0, Type 0, BuildingBlock: BETDAH_clean_sbu_0, # of connection points: 6
#     Node 1, Type 0, BuildingBlock: BETDAH_clean_sbu_0, # of connection points: 6
#     Node 2, Type 0, BuildingBlock: BETDAH_clean_sbu_0, # of connection points: 6
#     Node 3, Type 1, BuildingBlock: BELTOD_clean_linker_0, # of connection points: 3
#     Node 4, Type 1, BuildingBlock: BELTOD_clean_linker_0, # of connection points: 3
#     Node 5, Type 1, BuildingBlock: BELTOD_clean_linker_0, # of connection points: 3
#     Node 6, Type 1, BuildingBlock: BELTOD_clean_linker_0, # of connection points: 3
#     Node 7, Type 1, BuildingBlock: BELTOD_clean_linker_0, # of connection points: 3
#     Node 8, Type 1, BuildingBlock: BELTOD_clean_linker_0, # of connection points: 3
#     Edge 9, Type (0, 1), BuildingBlock: ZUJKAS_clean_linker_0, # of connection points: 2
#     Edge 10, Type (0, 1), BuildingBlock: ZUJKAS_clean_linker_0, # of connection points: 2
#     Edge 11, Type (0, 1), BuildingBlock: ZUJKAS_clean_linker_0, # of connection points: 2
#     Edge 12, Type (0, 1), BuildingBlock: ZUJKAS_clean_linker_0, # of connection points: 2
#     Edge 13, Type (0, 1), BuildingBlock: ZUJKAS_clean_linker_0, # of connection points: 2
#     Edge 14, Type (0, 1), BuildingBlock: ZUJKAS_clean_linker_0, # of connection points: 2
#     Edge 15, Type (0, 1), BuildingBlock: ZUJKAS_clean_linker_0, # of connection points: 2
#     Edge 16, Type (0, 1), BuildingBlock: ZUJKAS_clean_linker_0, # of connection points: 2
#     Edge 17, Type (0, 1), BuildingBlock: ZUJKAS_clean_linker_0, # of connection points: 2
#     Edge 18, Type (0, 1), BuildingBlock: ZUJKAS_clean_linker_0, # of connection points: 2
#     Edge 19, Type (0, 1), BuildingBlock: ZUJKAS_clean_linker_0, # of connection points: 2
#     Edge 20, Type (0, 1), BuildingBlock: ZUJKAS_clean_linker_0, # of connection points: 2
#     Edge 21, Type (0, 1), BuildingBlock: ZUJKAS_clean_linker_0, # of connection points: 2
#     Edge 22, Type (0, 1), BuildingBlock: ZUJKAS_clean_linker_0, # of connection points: 2
#     Edge 23, Type (0, 1), BuildingBlock: ZUJKAS_clean_linker_0, # of connection points: 2
#     Edge 24, Type (0, 1), BuildingBlock: ZUJKAS_clean_linker_0, # of connection points: 2
#     Edge 25, Type (0, 1), BuildingBlock: ZUJKAS_clean_linker_0, # of connection points: 2
#     Edge 26, Type (0, 1), BuildingBlock: ZUJKAS_clean_linker_0, # of connection points: 2
# Relax obj value: 0.157
# Max RMSD: 0.197
# Mean RMSD: 0.142
data_MOF--net-anh--node1-BETDAH_clean_sbu_0--node2-BELTOD_clean_linker_0--edge1-ZUJKAS_clean_linker_0
_symmetry_space_group_name_H-M    P1
_symmetry_Int_Tables_number       1
_symmetry_cell_setting            triclinic
loop_
_symmetry_equiv_pos_as_xyz
'x, y, z'
_cell_length_a     44.874027
_cell_length_b     50.34583
_cell_length_c     76.462935
_cell_angle_alpha  92.793182
_cell_angle_beta   89.596885
_cell_angle_gamma 127.50338
loop_
_atom_site_label
_atom_site_type_symbol
_atom_site_fract_x
_atom_site_fract_y
_atom_site_fract_z
_atom_type_partial_charge
Ho0 Ho 0.07685 0.52305 0.14558 0.0
Ho1 Ho 0.03871 0.55135 0.16145 0.0
C2 C 0.12606 0.60425 0.15573 0.0
C3 C 0.11639 0.51267 0.12623 0.0
C4 C 0.15572 0.52533 0.12734 0.0
C5 C 0.17581 0.53155 0.11202 0.0
C6 C 0.21233 0.54126 0.11293 0.0
C7 C 0.22915 0.54447 0.12918 0.0
C8 C 0.2095 0.53994 0.14456 0.0
C9 C 0.17326 0.53071 0.14365 0.0
C10 C 0.07397 0.52292 0.18073 0.0
C11 C 0.99062 0.47077 0.15299 0.0
C12 C 0.99885 0.56188 0.18063 0.0
C13 C 0.95946 0.53998 0.18568 0.0
C14 C 0.94775 0.54875 0.20039 0.0
C15 C 0.90989 0.52836 0.20481 0.0
C16 C 0.88332 0.49887 0.19459 0.0
C17 C 0.89561 0.4897 0.18021 0.0
C18 C 0.9333 0.51009 0.17579 0.0
C19 C 0.04219 0.55048 0.12608 0.0
O20 O 0.12412 0.57938 0.14748 0.0
O21 O 0.097 0.59918 0.16379 0.0
O22 O 0.09482 0.49297 0.13853 0.0
O23 O 0.11103 0.53472 0.12282 0.0
O24 O 0.07289 0.50054 0.17099 0.0
O25 O 0.08016 0.5458 0.17153 0.0
O26 O 0.99526 0.49517 0.16312 0.0
O27 O 1.01692 0.47691 0.1421 0.0
O28 O 1.00435 0.56794 0.16401 0.0
O29 O 1.02011 0.55489 0.18704 0.0
O30 O 0.04538 0.57423 0.13555 0.0
O31 O 0.03508 0.52783 0.13569 0.0
H32 H 0.16292 0.52812 0.09934 0.0
H33 H 0.22695 0.54526 0.10085 0.0
H34 H 0.2212 0.54177 0.1573 0.0
H35 H 0.15847 0.52665 0.15569 0.0
H36 H 0.96774 0.57161 0.20825 0.0
H37 H 0.90129 0.53595 0.21602 0.0
H38 H 0.87587 0.46753 0.17186 0.0
H39 H 0.94181 0.50291 0.16437 0.0
Ho40 Ho 0.55833 0.0056 0.48829 0.0
Ho41 Ho 0.51279 0.02936 0.47879 0.0
C42 C 0.46812 0.95068 0.47914 0.0
C43 C 0.58397 0.97814 0.50355 0.0
C44 C 0.5747 0.94482 0.50554 0.0
C45 C 0.57583 0.93546 0.52236 0.0
C46 C 0.57 0.90523 0.52466 0.0
C47 C 0.56311 0.88374 0.51015 0.0
C48 C 0.5611 0.89278 0.49331 0.0
C49 C 0.56671 0.92298 0.49102 0.0
C50 C 0.55595 0.01345 0.45385 0.0
C51 C 0.60405 0.08368 0.48432 0.0
C52 C 0.48734 0.05952 0.46685 0.0
C53 C 0.49365 0.09115 0.47221 0.0
C54 C 0.48669 0.10722 0.46031 0.0
C55 C 0.49221 0.13706 0.46545 0.0
C56 C 0.50471 0.15133 0.48265 0.0
C57 C 0.51184 0.13509 0.49447 0.0
C58 C 0.50656 0.10544 0.48928 0.0
C59 C 0.5189 0.02427 0.51348 0.0
O60 O 0.49827 0.95743 0.48724 0.0
O61 O 0.46872 0.97451 0.47214 0.0
O62 O 0.59445 0.99072 0.48814 0.0
O63 O 0.56191 0.98374 0.51115 0.0
O64 O 0.58461 0.01886 0.46199 0.0
O65 O 0.52872 0.00144 0.464 0.0
O66 O 0.57292 0.07602 0.47692 0.0
O67 O 0.60421 0.06103 0.49231 0.0
O68 O 0.46956 0.03595 0.47799 0.0
O69 O 0.51612 0.06241 0.46031 0.0
O70 O 0.48945 0.01819 0.506 0.0
O71 O 0.5443 0.03516 0.50252 0.0
H72 H 0.58208 0.95194 0.53374 0.0
H73 H 0.57219 0.89927 0.53778 0.0
H74 H 0.55541 0.8766 0.48188 0.0
H75 H 0.56541 0.92944 0.47789 0.0
H76 H 0.47697 0.09668 0.44703 0.0
H77 H 0.48702 0.14908 0.45589 0.0
H78 H 0.52094 0.14494 0.50787 0.0
H79 H 0.51225 0.09348 0.49867 0.0
Ho80 Ho 0.58093 0.55896 0.85131 0.0
Ho81 Ho 0.52832 0.48339 0.85221 0.0
C82 C 0.48881 0.51995 0.85341 0.0
C83 C 0.61524 0.62045 0.84321 0.0
C84 C 0.60652 0.64387 0.84042 0.0
C85 C 0.57252 0.63313 0.83237 0.0
C86 C 0.56593 0.65631 0.82908 0.0
C87 C 0.5931 0.6906 0.83388 0.0
C88 C 0.62674 0.70103 0.84224 0.0
C89 C 0.63337 0.67791 0.84544 0.0
C90 C 0.56768 0.53472 0.88333 0.0
C91 C 0.62123 0.52322 0.85237 0.0
C92 C 0.49441 0.42118 0.8587 0.0
C93 C 0.50015 0.39559 0.85461 0.0
C94 C 0.53526 0.40248 0.85722 0.0
C95 C 0.54022 0.37815 0.85261 0.0
C96 C 0.51022 0.34652 0.8452 0.0
C97 C 0.47503 0.33965 0.84279 0.0
C98 C 0.47007 0.36391 0.84748 0.0
C99 C 0.54212 0.50705 0.81986 0.0
O100 O 0.52237 0.54701 0.84886 0.0
O101 O 0.48512 0.49275 0.85766 0.0
O102 O 0.61332 0.61178 0.85926 0.0
O103 O 0.60133 0.5953 0.83162 0.0
O104 O 0.60019 0.56107 0.87886 0.0
O105 O 0.54381 0.52389 0.87105 0.0
O106 O 0.58679 0.4952 0.85501 0.0
O107 O 0.6259 0.55117 0.84889 0.0
O108 O 0.48558 0.43063 0.84535 0.0
O109 O 0.51852 0.44633 0.86965 0.0
O110 O 0.51006 0.48053 0.82444 0.0
O111 O 0.56587 0.51833 0.83229 0.0
H112 H 0.55125 0.60692 0.82846 0.0
H113 H 0.53955 0.6474 0.8228 0.0
H114 H 0.64845 0.72727 0.84591 0.0
H115 H 0.65981 0.68671 0.85162 0.0
H116 H 0.55898 0.42673 0.86265 0.0
H117 H 0.56777 0.38439 0.85448 0.0
H118 H 0.45122 0.31542 0.83735 0.0
H119 H 0.44272 0.358 0.84538 0.0
P120 P 0.59264 0.02699 0.20725 0.0
H121 H 0.56848 0.98722 0.1738 0.0
H122 H 0.50715 0.93612 0.16336 0.0
H123 H 0.45486 0.94682 0.20783 0.0
H124 H 0.51548 0.99805 0.21792 0.0
H125 H 0.65311 0.09122 0.22419 0.0
H126 H 0.69623 0.1475 0.21398 0.0
H127 H 0.63951 0.11249 0.16324 0.0
H128 H 0.59558 0.05564 0.17376 0.0
H129 H 0.58872 0.98569 0.23404 0.0
H130 H 0.57983 0.06602 0.23162 0.0
O131 O 0.61825 0.01362 0.20326 0.0
H132 H 0.57714 0.98296 0.26542 0.0
H133 H 0.56823 0.06347 0.26308 0.0
C134 C 0.54688 0.99631 0.1968 0.0
C135 C 0.54364 0.97918 0.181 0.0
C136 C 0.50862 0.94993 0.17507 0.0
C137 C 0.47643 0.93721 0.18499 0.0
C138 C 0.47934 0.95579 0.20009 0.0
C139 C 0.51413 0.98524 0.20583 0.0
C140 C 0.62002 0.06932 0.19999 0.0
C141 C 0.64895 0.09568 0.21104 0.0
C142 C 0.67385 0.128 0.20515 0.0
C143 C 0.67116 0.13471 0.18784 0.0
C144 C 0.64229 0.1082 0.17667 0.0
C145 C 0.61694 0.07576 0.18271 0.0
C146 C 0.58632 0.02676 0.23062 0.0
C147 C 0.58474 0.00303 0.24031 0.0
C148 C 0.57771 0.00126 0.25821 0.0
C149 C 0.57192 0.02311 0.26675 0.0
C150 C 0.57318 0.04668 0.25694 0.0
C151 C 0.57992 0.04823 0.23898 0.0
P152 P 0.61897 0.5594 0.57617 0.0
H153 H 0.59407 0.53004 0.54033 0.0
H154 H 0.57121 0.47516 0.52705 0.0
H155 H 0.56754 0.44129 0.57841 0.0
H156 H 0.59069 0.496 0.5915 0.0
H157 H 0.66433 0.6287 0.56641 0.0
H158 H 0.64905 0.66318 0.55445 0.0
H159 H 0.53122 0.57857 0.55282 0.0
H160 H 0.5469 0.54376 0.56469 0.0
H161 H 0.66509 0.56754 0.6058 0.0
H162 H 0.55963 0.55077 0.59801 0.0
O163 O 0.66425 0.57795 0.57251 0.0
H164 H 0.65712 0.56632 0.63738 0.0
H165 H 0.55187 0.55045 0.62969 0.0
C166 C 0.59347 0.51702 0.56694 0.0
C167 C 0.58731 0.51047 0.54876 0.0
C168 C 0.5743 0.47909 0.54118 0.0
C169 C 0.56782 0.45391 0.55167 0.0
C170 C 0.5727 0.46025 0.56994 0.0
C171 C 0.58557 0.49151 0.57748 0.0
C172 C 0.60681 0.58351 0.56619 0.0
C173 C 0.63523 0.6173 0.56324 0.0
C174 C 0.62646 0.63704 0.55637 0.0
C175 C 0.58895 0.62355 0.55255 0.0
C176 C 0.56037 0.58966 0.55565 0.0
C177 C 0.56929 0.56974 0.56235 0.0
C178 C 0.61335 0.55994 0.59954 0.0
C179 C 0.64046 0.56412 0.61089 0.0
C180 C 0.63592 0.56354 0.629 0.0
C181 C 0.60401 0.55861 0.63615 0.0
C182 C 0.57668 0.55412 0.62466 0.0
C183 C 0.58124 0.5546 0.60652 0.0
P184 P 0.07403 0.54877 0.87744 0.0
H185 H 0.12655 0.56598 0.84828 0.0
H186 H 0.17545 0.55903 0.84358 0.0
H187 H 0.13263 0.49189 0.88579 0.0
H188 H 0.08337 0.49841 0.89007 0.0
H189 H 0.05302 0.59347 0.87606 0.0
H190 H 0.99547 0.58679 0.8716 0.0
H191 H 0.9358 0.48101 0.85954 0.0
H192 H 0.99496 0.48808 0.864 0.0
H193 H 0.1306 0.57886 0.90573 0.0
H194 H 1.00977 0.5087 0.90096 0.0
O195 O 0.10653 0.58989 0.8754 0.0
H196 H 0.12711 0.57602 0.93752 0.0
H197 H 1.00588 0.50687 0.93273 0.0
C198 C 0.09999 0.5325 0.86943 0.0
C199 C 0.1266 0.54874 0.85618 0.0
C200 C 0.15556 0.54527 0.85375 0.0
C201 C 0.15951 0.52531 0.86447 0.0
C202 C 0.13138 0.50747 0.87706 0.0
C203 C 0.10246 0.51103 0.87948 0.0
C204 C 0.02982 0.54162 0.8699 0.0
C205 C 0.02809 0.56871 0.87201 0.0
C206 C 0.99434 0.56474 0.86973 0.0
C207 C 0.95984 0.53324 0.86534 0.0
C208 C 0.96137 0.5059 0.86279 0.0
C209 C 0.99559 0.50993 0.86523 0.0
C210 C 0.07048 0.54456 0.90091 0.0
C211 C 0.10326 0.56299 0.91153 0.0
C212 C 0.10118 0.5615 0.92977 0.0
C213 C 0.06617 0.54158 0.93784 0.0
C214 C 0.03337 0.52235 0.92706 0.0
C215 C 0.03554 0.52364 0.9088 0.0
P216 P 0.05922 0.49517 0.4279 0.0
H217 H 0.10155 0.52678 0.46123 0.0
H218 H 0.14822 0.58593 0.47112 0.0
H219 H 0.12093 0.61579 0.42575 0.0
H220 H 0.07387 0.55712 0.41619 0.0
H221 H 0.9931 0.43371 0.4111 0.0
H222 H 0.93358 0.38666 0.422 0.0
H223 H 0.96418 0.43667 0.47351 0.0
H224 H 1.02405 0.48464 0.46229 0.0
H225 H 0.11105 0.50564 0.4008 0.0
H226 H 1.0069 0.49262 0.40357 0.0
O227 O 0.08454 0.48199 0.43222 0.0
H228 H 0.11218 0.51199 0.36929 0.0
H229 H 1.00788 0.49909 0.37197 0.0
C230 C 0.08446 0.5373 0.43782 0.0
C231 C 0.10474 0.546 0.4537 0.0
C232 C 0.1315 0.57981 0.45932 0.0
C233 C 0.13866 0.60543 0.44902 0.0
C234 C 0.1164 0.59656 0.4338 0.0
C235 C 0.08931 0.56286 0.42836 0.0
C236 C 1.0126 0.46357 0.43566 0.0
C237 C 0.98664 0.43539 0.42459 0.0
C238 C 0.95252 0.40821 0.43088 0.0
C239 C 0.94387 0.40796 0.44859 0.0
C240 C 0.96995 0.43614 0.45977 0.0
C241 C 1.00402 0.46371 0.45334 0.0
C242 C 0.05833 0.49767 0.40444 0.0
C243 C 0.08816 0.50374 0.39459 0.0
C244 C 0.08898 0.50772 0.37659 0.0
C245 C 0.06004 0.50592 0.3681 0.0
C246 C 0.03026 0.50005 0.37806 0.0
C247 C 0.02962 0.49628 0.39611 0.0
P248 P 0.61326 0.05262 0.75808 0.0
H249 H 0.64746 0.10626 0.78567 0.0
H250 H 0.6276 0.13755 0.79957 0.0
H251 H 0.52003 0.07169 0.77206 0.0
H252 H 0.54069 0.04096 0.75783 0.0
H253 H 0.62218 0.00349 0.74391 0.0
H254 H 0.60945 0.95309 0.75518 0.0
H255 H 0.5636 0.96633 0.80171 0.0
H256 H 0.57668 0.01709 0.7903 0.0
H257 H 0.64017 0.10038 0.73101 0.0
H258 H 0.55406 0.99433 0.7355 0.0
O259 O 0.66013 0.07907 0.75915 0.0
H260 H 0.62307 0.09455 0.69997 0.0
H261 H 0.53717 0.98825 0.70438 0.0
C262 C 0.59578 0.07165 0.7705 0.0
C263 C 0.61945 0.09831 0.78276 0.0
C264 C 0.60791 0.11609 0.7908 0.0
C265 C 0.57229 0.10742 0.78683 0.0
C266 C 0.54791 0.0795 0.77518 0.0
C267 C 0.55955 0.06174 0.76712 0.0
C268 C 0.5997 0.01366 0.76609 0.0
C269 C 0.60877 0.99523 0.7564 0.0
C270 C 0.60139 0.96634 0.76286 0.0
C271 C 0.58524 0.95549 0.7793 0.0
C272 C 0.57616 0.97407 0.78902 0.0
C273 C 0.58337 0.00296 0.78246 0.0
C274 C 0.59911 0.04768 0.73542 0.0
C275 C 0.61765 0.07583 0.72529 0.0
C276 C 0.60771 0.0725 0.7076 0.0
C277 C 0.57901 0.04088 0.69972 0.0
C278 C 0.55981 0.01282 0.71004 0.0
C279 C 0.5695 0.01627 0.72781 0.0
P280 P 0.4244 0.32888 0.09998 0.0
H281 H 0.42566 0.29081 0.12734 0.0
H282 H 0.47658 0.30358 0.14699 0.0
H283 H 0.55597 0.39276 0.11944 0.0
H284 H 0.50566 0.37982 0.09981 0.0
H285 H 0.35841 0.32666 0.09671 0.0
H286 H 0.34581 0.36536 0.10753 0.0
H287 H 0.44904 0.42123 0.13867 0.0
H288 H 0.46082 0.38216 0.12831 0.0
H289 H 0.43211 0.30273 0.06656 0.0
H290 H 0.45376 0.39449 0.08718 0.0
O291 O 0.38796 0.2883 0.09741 0.0
H292 H 0.45626 0.32765 0.03822 0.0
H293 H 0.47641 0.41885 0.05907 0.0
C294 C 0.46203 0.33403 0.11195 0.0
C295 C 0.45422 0.31258 0.12527 0.0
C296 C 0.48313 0.31993 0.13651 0.0
C297 C 0.51989 0.34925 0.13474 0.0
C298 C 0.52771 0.37013 0.1211 0.0
C299 C 0.49904 0.36253 0.10977 0.0
C300 C 0.41033 0.35126 0.11174 0.0
C301 C 0.37764 0.34658 0.10631 0.0
C302 C 0.37077 0.36898 0.11233 0.0
C303 C 0.39677 0.39668 0.12375 0.0
C304 C 0.42834 0.40007 0.12999 0.0
C305 C 0.43512 0.37761 0.124 0.0
C306 C 0.44033 0.3464 0.07888 0.0
C307 C 0.44157 0.32801 0.06493 0.0
C308 C 0.45531 0.34227 0.04875 0.0
C309 C 0.46831 0.37528 0.04636 0.0
C310 C 0.46716 0.39358 0.06048 0.0
C311 C 0.45363 0.37939 0.07658 0.0
H312 H 0.25147 0.51655 0.10648 0.0
H313 H 0.30237 0.51291 0.11076 0.0
H314 H 0.33721 0.57486 0.15858 0.0
H315 H 0.28678 0.57987 0.1541 0.0
H316 H 0.38638 0.56332 0.11902 0.0
H317 H 0.29845 0.47754 0.17173 0.0
H318 H 0.27836 0.4881 0.15572 0.0
H319 H 0.31132 0.51916 0.17207 0.0
C320 C 0.27069 0.53061 0.11756 0.0
C321 C 0.26462 0.54818 0.13006 0.0
C322 C 0.29976 0.52834 0.12002 0.0
C323 C 0.32316 0.54332 0.13506 0.0
C324 C 0.31915 0.56294 0.14696 0.0
H325 H 0.40994 0.43159 0.15521 0.0
H326 H 0.40444 0.47677 0.16122 0.0
C327 C 0.29016 0.56552 0.14442 0.0
C328 C 0.34752 0.53383 0.1391 0.0
H329 H 0.34179 0.47176 0.15892 0.0
C330 C 0.37754 0.54407 0.12814 0.0
C331 C 0.33619 0.50909 0.15119 0.0
C332 C 0.30432 0.49763 0.1634 0.0
C333 C 0.3943 0.52796 0.12785 0.0
C334 C 0.37975 0.50036 0.13838 0.0
C335 C 0.35257 0.49264 0.15069 0.0
C336 C 0.38712 0.47574 0.13469 0.0
C337 C 0.42605 0.5395 0.11559 0.0
C338 C 0.37861 0.45987 0.1179 0.0
C339 C 0.38169 0.43424 0.11445 0.0
C340 C 0.39285 0.42351 0.12779 0.0
C341 C 0.40145 0.43943 0.14464 0.0
C342 C 0.39841 0.46525 0.14809 0.0
H343 H 0.44343 0.56701 0.11426 0.0
H344 H 0.44441 0.53323 0.12018 0.0
H345 H 0.41426 0.52715 0.10238 0.0
H346 H 0.36869 0.46678 0.10749 0.0
H347 H 0.37549 0.42295 0.10126 0.0
H348 H 0.67306 0.11218 0.50019 0.0
H349 H 0.73118 0.16921 0.49761 0.0
H350 H 0.6735 0.19038 0.46294 0.0
H351 H 0.61541 0.13412 0.46582 0.0
H352 H 0.77206 0.19949 0.46961 0.0
H353 H 0.72399 0.27134 0.49603 0.0
H354 H 0.69726 0.22679 0.49823 0.0
H355 H 0.69399 0.2426 0.47827 0.0
C356 C 0.67265 0.1291 0.49217 0.0
C357 C 0.63937 0.11851 0.48333 0.0
C358 C 0.70595 0.16174 0.49069 0.0
C359 C 0.70671 0.1845 0.48036 0.0
C360 C 0.67356 0.17381 0.47142 0.0
H361 H 0.87294 0.37079 0.43385 0.0
H362 H 0.81646 0.31755 0.44319 0.0
C363 C 0.64029 0.14139 0.473 0.0
C364 C 0.74241 0.21879 0.47813 0.0
H365 H 0.78021 0.30193 0.47931 0.0
C366 C 0.77396 0.2219 0.47199 0.0
C367 C 0.74513 0.24821 0.48126 0.0
C368 C 0.71339 0.24713 0.48899 0.0
C369 C 0.80743 0.25329 0.46827 0.0
C370 C 0.80955 0.28242 0.47079 0.0
C371 C 0.77843 0.27952 0.47729 0.0
C372 C 0.84336 0.31586 0.46599 0.0
C373 C 0.83998 0.25508 0.46111 0.0
C374 C 0.87705 0.33298 0.47594 0.0
C375 C 0.90937 0.36358 0.4707 0.0
C376 C 0.90866 0.37748 0.45531 0.0
C377 C 0.87453 0.36064 0.44567 0.0
C378 C 0.8422 0.33027 0.45102 0.0
H379 H 0.83234 0.22982 0.45792 0.0
H380 H 0.85023 0.26954 0.44912 0.0
H381 H 0.86351 0.26839 0.47097 0.0
H382 H 0.87848 0.32237 0.4876 0.0
H383 H 0.93524 0.37573 0.47833 0.0
H384 H 0.56394 0.69429 0.80353 0.0
H385 H 0.55837 0.73784 0.79598 0.0
H386 H 0.60302 0.78709 0.84716 0.0
H387 H 0.60883 0.74374 0.85478 0.0
H388 H 0.51978 0.75986 0.81097 0.0
H389 H 0.67369 0.86158 0.81479 0.0
H390 H 0.65378 0.81781 0.81466 0.0
H391 H 0.65491 0.83929 0.83444 0.0
C392 C 0.57218 0.71418 0.81326 0.0
C393 C 0.58716 0.71569 0.82971 0.0
C394 C 0.56911 0.73913 0.8089 0.0
C395 C 0.58097 0.7661 0.82088 0.0
C396 C 0.59461 0.767 0.83754 0.0
H397 H 0.60028 0.94836 0.8127 0.0
H398 H 0.59584 0.90118 0.82369 0.0
C399 C 0.59786 0.74218 0.84188 0.0
C400 C 0.57965 0.79352 0.81581 0.0
H401 H 0.63485 0.87778 0.81026 0.0
C402 C 0.54493 0.78564 0.8108 0.0
C403 C 0.61251 0.82717 0.81558 0.0
C404 C 0.6509 0.83703 0.82 0.0
C405 C 0.54214 0.81055 0.80572 0.0
C406 C 0.57501 0.84414 0.80543 0.0
C407 C 0.60965 0.85205 0.81059 0.0
C408 C 0.5745 0.87135 0.7992 0.0
C409 C 0.50398 0.80077 0.8009 0.0
C410 C 0.56381 0.8702 0.7818 0.0
C411 C 0.56622 0.89706 0.77551 0.0
C412 C 0.57953 0.92573 0.78645 0.0
C413 C 0.58946 0.9265 0.80399 0.0
C414 C 0.58717 0.89966 0.81026 0.0
H415 H 0.48099 0.77653 0.80631 0.0
H416 H 0.50126 0.82035 0.80573 0.0
H417 H 0.50026 0.79793 0.78643 0.0
H418 H 0.55456 0.8489 0.77294 0.0
H419 H 0.55809 0.89554 0.76198 0.0
H420 H 0.84501 0.52381 0.20241 0.0
H421 H 0.77722 0.4935 0.20025 0.0
H422 H 0.76126 0.40056 0.19 0.0
H423 H 0.82917 0.43058 0.19266 0.0
H424 H 0.74567 0.46019 0.16679 0.0
H425 H 0.67013 0.37377 0.22059 0.0
H426 H 0.71861 0.41074 0.22289 0.0
H427 H 0.70677 0.37398 0.21069 0.0
C428 C 0.82708 0.49675 0.20047 0.0
C429 C 0.84249 0.47964 0.19748 0.0
C430 C 0.78831 0.47948 0.19919 0.0
C431 C 0.76432 0.44484 0.19501 0.0
C432 C 0.77929 0.42723 0.19348 0.0
H433 H 0.54466 0.31362 0.14355 0.0
H434 H 0.60207 0.33506 0.16077 0.0
C435 C 0.81812 0.44449 0.19478 0.0
C436 C 0.72549 0.42878 0.18875 0.0
H437 H 0.63291 0.367 0.19618 0.0
C438 C 0.721 0.44005 0.17331 0.0
C439 C 0.69358 0.4021 0.19713 0.0
C440 C 0.69727 0.38946 0.21382 0.0
C441 C 0.68539 0.42525 0.16591 0.0
C442 C 0.6533 0.39895 0.17442 0.0
C443 C 0.65765 0.38736 0.18981 0.0
C444 C 0.61527 0.38357 0.16722 0.0
C445 C 0.6825 0.43744 0.1488 0.0
C446 C 0.60318 0.40333 0.16583 0.0
C447 C 0.57103 0.39141 0.15586 0.0
C448 C 0.55016 0.35933 0.1474 0.0
C449 C 0.56049 0.33847 0.14996 0.0
C450 C 0.59307 0.35062 0.1598 0.0
H451 H 0.70954 0.45158 0.14187 0.0
H452 H 0.66042 0.41615 0.13996 0.0
H453 H 0.67489 0.45447 0.15145 0.0
H454 H 0.61975 0.42866 0.17168 0.0
H455 H 0.56318 0.40769 0.15424 0.0
H456 H 0.46224 0.89335 0.48022 0.0
H457 H 0.40567 0.8353 0.4756 0.0
H458 H 0.3391 0.87 0.46986 0.0
H459 H 0.39586 0.92807 0.4735 0.0
H460 H 0.34437 0.79679 0.49215 0.0
H461 H 0.30371 0.81041 0.42705 0.0
H462 H 0.34806 0.84311 0.43775 0.0
H463 H 0.30606 0.83848 0.44333 0.0
C464 C 0.43555 0.8886 0.47788 0.0
C465 C 0.43363 0.91537 0.47701 0.0
C466 C 0.40314 0.85534 0.47526 0.0
C467 C 0.36797 0.84802 0.47194 0.0
C468 C 0.3659 0.87478 0.47173 0.0
H469 H 0.15706 0.64319 0.47993 0.0
H470 H 0.21146 0.70202 0.48613 0.0
C471 C 0.3984 0.90806 0.47396 0.0
C472 C 0.3336 0.81246 0.46887 0.0
H473 H 0.25816 0.75999 0.44085 0.0
C474 C 0.32565 0.78874 0.48087 0.0
C475 C 0.30926 0.80157 0.45401 0.0
C476 C 0.31741 0.82466 0.43972 0.0
C477 C 0.29429 0.75473 0.47848 0.0
C478 C 0.26907 0.74416 0.46403 0.0
C479 C 0.27705 0.76792 0.45205 0.0
C480 C 0.23531 0.70846 0.4605 0.0
C481 C 0.28946 0.73041 0.49117 0.0
C482 C 0.22943 0.69261 0.44384 0.0
C483 C 0.19782 0.65944 0.44016 0.0
C484 C 0.17143 0.64104 0.45309 0.0
C485 C 0.17713 0.65671 0.46977 0.0
C486 C 0.20845 0.69026 0.47335 0.0
H487 H 0.31653 0.74017 0.49785 0.0
H488 H 0.26976 0.7266 0.50142 0.0
H489 H 0.27795 0.70575 0.48447 0.0
H490 H 0.24953 0.70585 0.43365 0.0
H491 H 0.19435 0.64791 0.42724 0.0
H492 H 0.54878 0.32927 0.8628 0.0
H493 H 0.55812 0.28756 0.85343 0.0
H494 H 0.49286 0.26394 0.80609 0.0
H495 H 0.48393 0.30588 0.81517 0.0
H496 H 0.50105 0.21646 0.84451 0.0
H497 H 0.59314 0.28539 0.78899 0.0
H498 H 0.58463 0.30548 0.80633 0.0
H499 H 0.54977 0.28013 0.7892 0.0
C500 C 0.53668 0.31538 0.85032 0.0
C501 C 0.51568 0.32098 0.83971 0.0
C502 C 0.54185 0.29144 0.84505 0.0
C503 C 0.52651 0.27292 0.82899 0.0
C504 C 0.50532 0.27824 0.81844 0.0
H505 H 0.53447 0.12601 0.76992 0.0
H506 H 0.5211 0.16404 0.78092 0.0
C507 C 0.49997 0.30201 0.82373 0.0
C508 C 0.53243 0.24788 0.82326 0.0
H509 H 0.57251 0.2299 0.7915 0.0
C510 C 0.51681 0.2194 0.83297 0.0
C511 C 0.55291 0.25179 0.80818 0.0
C512 C 0.57139 0.28245 0.79761 0.0
C513 C 0.52042 0.19432 0.82777 0.0
C514 C 0.54092 0.19822 0.81266 0.0
C515 C 0.55669 0.22684 0.80303 0.0
C516 C 0.54662 0.17311 0.80659 0.0
C517 C 0.50142 0.16349 0.83823 0.0
C518 C 0.56523 0.16533 0.81738 0.0
C519 C 0.57254 0.14324 0.8112 0.0
C520 C 0.56173 0.12867 0.794 0.0
C521 C 0.54265 0.13623 0.78331 0.0
C522 C 0.53527 0.15824 0.78953 0.0
H523 H 0.47847 0.15991 0.84614 0.0
H524 H 0.48957 0.14063 0.82955 0.0
H525 H 0.52237 0.1663 0.84739 0.0
H526 H 0.57492 0.17695 0.83047 0.0
H527 H 0.58703 0.13783 0.81984 0.0
H528 H 0.52474 0.8378 0.53524 0.0
H529 H 0.52458 0.79013 0.54073 0.0
H530 H 0.59415 0.81236 0.49617 0.0
H531 H 0.59489 0.86027 0.49071 0.0
H532 H 0.50368 0.73187 0.51652 0.0
H533 H 0.65312 0.81531 0.53992 0.0
H534 H 0.62485 0.82966 0.53881 0.0
H535 H 0.64315 0.82418 0.51918 0.0
C536 C 0.53993 0.83249 0.52658 0.0
C537 C 0.56002 0.85298 0.51259 0.0
C538 C 0.53961 0.80514 0.52967 0.0
C539 C 0.55964 0.79795 0.51895 0.0
C540 C 0.57874 0.81766 0.50467 0.0
H541 H 0.62372 0.6676 0.52662 0.0
H542 H 0.61353 0.70747 0.51753 0.0
C543 C 0.57889 0.84488 0.50149 0.0
C544 C 0.56203 0.77083 0.52315 0.0
H545 H 0.62328 0.7573 0.53765 0.0
C546 C 0.52976 0.73732 0.52116 0.0
C547 C 0.5961 0.7781 0.5292 0.0
C548 C 0.63131 0.81373 0.53206 0.0
C549 C 0.53089 0.71076 0.52473 0.0
C550 C 0.565 0.71805 0.53086 0.0
C551 C 0.59717 0.75165 0.5329 0.0
C552 C 0.56833 0.69146 0.53529 0.0
C553 C 0.49579 0.67521 0.52148 0.0
C554 C 0.54606 0.66886 0.54819 0.0
C555 C 0.55169 0.64584 0.55332 0.0
C556 C 0.58012 0.64537 0.54586 0.0
C557 C 0.60183 0.66756 0.53272 0.0
C558 C 0.59598 0.69031 0.5275 0.0
H559 H 0.47597 0.67376 0.51211 0.0
H560 H 0.50262 0.65857 0.51626 0.0
H561 H 0.48122 0.66561 0.53401 0.0
H562 H 0.52519 0.66976 0.55472 0.0
H563 H 0.53488 0.62938 0.56365 0.0
H564 H 0.69566 0.57301 0.844 0.0
H565 H 0.75035 0.57318 0.84571 0.0
H566 H 0.68062 0.47377 0.86469 0.0
H567 H 0.62586 0.47357 0.86306 0.0
H568 H 0.747 0.51144 0.88329 0.0
H569 H 0.78233 0.52955 0.81335 0.0
H570 H 0.78073 0.56159 0.82343 0.0
H571 H 0.73851 0.519 0.82125 0.0
C572 C 0.69163 0.55097 0.84846 0.0
C573 C 0.65543 0.52315 0.85324 0.0
C574 C 0.72332 0.551 0.84933 0.0
C575 C 0.7205 0.52325 0.85507 0.0
C576 C 0.68444 0.49564 0.86009 0.0
H577 H 0.89674 0.49176 0.84259 0.0
H578 H 0.8398 0.48843 0.84018 0.0
C579 C 0.65268 0.49549 0.85908 0.0
C580 C 0.75482 0.52323 0.8562 0.0
H581 H 0.8274 0.53476 0.8325 0.0
C582 C 0.76438 0.51654 0.8721 0.0
C583 C 0.7781 0.52932 0.84173 0.0
C584 C 0.76931 0.53495 0.82392 0.0
C585 C 0.79606 0.51659 0.87401 0.0
C586 C 0.82002 0.52372 0.8597 0.0
C587 C 0.80994 0.52957 0.84368 0.0
C588 C 0.85548 0.52549 0.86119 0.0
C589 C 0.80309 0.50828 0.89144 0.0
C590 C 0.88453 0.5475 0.87368 0.0
C591 C 0.91741 0.54954 0.87505 0.0
C592 C 0.92318 0.52967 0.864 0.0
C593 C 0.89395 0.50743 0.85153 0.0
C594 C 0.8611 0.50566 0.85005 0.0
H595 H 0.7772 0.49402 0.89921 0.0
H596 H 0.8137 0.49336 0.88973 0.0
H597 H 0.82455 0.53192 0.8991 0.0
H598 H 0.88211 0.56369 0.88238 0.0
H599 H 0.93837 0.56681 0.88501 0.0
H600 H 0.19729 0.62243 0.15364 0.0
H601 H 0.25694 0.67896 0.15768 0.0
H602 H 0.19635 0.7201 0.16321 0.0
H603 H 0.13686 0.66365 0.16015 0.0
H604 H 0.29211 0.73401 0.14121 0.0
H605 H 0.2597 0.76119 0.20646 0.0
H606 H 0.23026 0.72009 0.19554 0.0
H607 H 0.22549 0.75188 0.19025 0.0
C608 C 0.19674 0.64357 0.15575 0.0
C609 C 0.16235 0.63853 0.15684 0.0
C610 C 0.23088 0.67591 0.15804 0.0
C611 C 0.23135 0.70393 0.16126 0.0
C612 C 0.19694 0.69896 0.16145 0.0
H613 H 0.43578 0.91205 0.15384 0.0
H614 H 0.37651 0.85591 0.14741 0.0
C615 C 0.16286 0.66663 0.15955 0.0
C616 C 0.26767 0.73822 0.1645 0.0
H617 H 0.31263 0.80764 0.19271 0.0
C618 C 0.29667 0.75003 0.15254 0.0
C619 C 0.27413 0.7591 0.17944 0.0
C620 C 0.24589 0.74727 0.19374 0.0
C621 C 0.33158 0.78201 0.15499 0.0
C622 C 0.33731 0.8035 0.16948 0.0
C623 C 0.30834 0.79155 0.18147 0.0
C624 C 0.37347 0.83783 0.17303 0.0
C625 C 0.36223 0.79185 0.14231 0.0
C626 C 0.39104 0.84711 0.18973 0.0
C627 C 0.42412 0.87941 0.19353 0.0
C628 C 0.44083 0.90323 0.18069 0.0
C629 C 0.42359 0.89408 0.16393 0.0
C630 C 0.38991 0.86186 0.16022 0.0
H631 H 0.35766 0.76946 0.13566 0.0
H632 H 0.3622 0.80667 0.13205 0.0
H633 H 0.39031 0.80727 0.14901 0.0
H634 H 0.37919 0.82924 0.19988 0.0
H635 H 0.43701 0.88567 0.20651 0.0
H636 H 0.55999 0.20343 0.50453 0.0
H637 H 0.56719 0.25375 0.51481 0.0
H638 H 0.47055 0.22241 0.48317 0.0
H639 H 0.46185 0.17104 0.47354 0.0
H640 H 0.58036 0.30474 0.49709 0.0
H641 H 0.44389 0.24171 0.53006 0.0
H642 H 0.46199 0.21959 0.52264 0.0
H643 H 0.43959 0.22884 0.50733 0.0
C644 C 0.53983 0.20687 0.49995 0.0
C645 C 0.51006 0.18284 0.48832 0.0
C646 C 0.54422 0.23588 0.50573 0.0
C647 C 0.51903 0.24165 0.50003 0.0
C648 C 0.48983 0.21818 0.48809 0.0
H649 H 0.51808 0.41371 0.52442 0.0
H650 H 0.50539 0.36237 0.51079 0.0
C651 C 0.48524 0.189 0.48239 0.0
C652 C 0.52393 0.27253 0.50643 0.0
H653 H 0.48087 0.3007 0.52873 0.0
C654 C 0.55856 0.3038 0.50399 0.0
C655 C 0.49546 0.27137 0.51542 0.0
C656 C 0.45826 0.2386 0.51918 0.0
C657 C 0.56557 0.33382 0.51036 0.0
C658 C 0.53731 0.3326 0.51951 0.0
C659 C 0.5024 0.30149 0.52164 0.0
C660 C 0.54436 0.36329 0.52779 0.0
C661 C 0.6032 0.36671 0.50728 0.0
C662 C 0.57003 0.38045 0.54198 0.0
C663 C 0.5772 0.40956 0.5498 0.0
C664 C 0.55883 0.42218 0.54359 0.0
C665 C 0.53285 0.40476 0.52942 0.0
C666 C 0.52548 0.37541 0.52168 0.0
H667 H 0.61847 0.36401 0.49672 0.0
H668 H 0.5998 0.38589 0.50378 0.0
H669 H 0.62076 0.37599 0.5195 0.0
H670 H 0.58462 0.37133 0.547 0.0
H671 H 0.59773 0.42255 0.56052 0.0
H672 H 0.41535 0.4703 0.86314 0.0
H673 H 0.36137 0.47131 0.86456 0.0
H674 H 0.43061 0.57234 0.84769 0.0
H675 H 0.48442 0.57122 0.84597 0.0
H676 H 0.34388 0.50568 0.8832 0.0
H677 H 0.34427 0.53579 0.81468 0.0
H678 H 0.37295 0.52445 0.82221 0.0
H679 H 0.38807 0.56663 0.82611 0.0
C680 C 0.41928 0.49279 0.8596 0.0
C681 C 0.45498 0.52057 0.85429 0.0
C682 C 0.388 0.49338 0.86046 0.0
C683 C 0.39063 0.52165 0.85592 0.0
C684 C 0.42647 0.5496 0.85083 0.0
H685 H 0.233 0.57416 0.85375 0.0
H686 H 0.28639 0.57266 0.85192 0.0
C687 C 0.45778 0.54904 0.84998 0.0
C688 C 0.35647 0.52202 0.85689 0.0
H689 H 0.30417 0.53865 0.83374 0.0
C690 C 0.33528 0.51273 0.87226 0.0
C691 C 0.34423 0.53124 0.84285 0.0
C692 C 0.36328 0.53977 0.82547 0.0
C693 C 0.30385 0.51314 0.87411 0.0
C694 C 0.29155 0.5223 0.86006 0.0
C695 C 0.31274 0.53159 0.84469 0.0
C696 C 0.25739 0.52271 0.86104 0.0
C697 C 0.28499 0.50482 0.89154 0.0
C698 C 0.22173 0.49505 0.86647 0.0
C699 C 0.19054 0.49578 0.86749 0.0
C700 C 0.19311 0.52408 0.86296 0.0
C701 C 0.2287 0.55149 0.85721 0.0
C702 C 0.25988 0.55076 0.85623 0.0
H703 H 0.30418 0.50903 0.9023 0.0
H704 H 0.27526 0.5201 0.89476 0.0
H705 H 0.2603 0.47793 0.89102 0.0
H706 H 0.21761 0.47239 0.86975 0.0
H707 H 0.16408 0.47364 0.87164 0.0
H708 H 0.96695 0.41415 0.13264 0.0
H709 H 0.9096 0.35683 0.13552 0.0
H710 H 0.87804 0.39115 0.1794 0.0
H711 H 0.9345 0.44831 0.17637 0.0
H712 H 0.88775 0.3166 0.16205 0.0
H713 H 0.78126 0.33682 0.1515 0.0
H714 H 0.83014 0.36791 0.14676 0.0
H715 H 0.81419 0.36426 0.16883 0.0
C716 C 0.94759 0.40956 0.14278 0.0
C717 C 0.95533 0.436 0.15418 0.0
C718 C 0.91478 0.37673 0.14443 0.0
C719 C 0.88895 0.3696 0.15747 0.0
C720 C 0.89678 0.39597 0.1689 0.0
H721 H 0.69917 0.19528 0.20463 0.0
H722 H 0.7508 0.25131 0.19574 0.0
C723 C 0.92937 0.42876 0.16721 0.0
C724 C 0.85492 0.33443 0.15977 0.0
H725 H 0.75962 0.28556 0.1644 0.0
C726 C 0.8597 0.30975 0.16231 0.0
C727 C 0.81816 0.32533 0.16015 0.0
C728 C 0.81054 0.34991 0.15648 0.0
C729 C 0.82911 0.27672 0.16583 0.0
C730 C 0.79258 0.2679 0.16666 0.0
C731 C 0.78763 0.29235 0.16381 0.0
C732 C 0.75953 0.23385 0.17127 0.0
C733 C 0.83628 0.25176 0.16926 0.0
C734 C 0.74655 0.20538 0.16026 0.0
C735 C 0.71691 0.17324 0.1653 0.0
C736 C 0.69976 0.16893 0.18149 0.0
C737 C 0.71203 0.19764 0.19218 0.0
C738 C 0.74145 0.22972 0.18709 0.0
H739 H 0.86666 0.26406 0.17142 0.0
H740 H 0.82089 0.23748 0.18088 0.0
H741 H 0.82596 0.23357 0.1578 0.0
H742 H 0.75974 0.20799 0.14788 0.0
H743 H 0.70834 0.1517 0.1568 0.0
H744 H 0.05134 0.59501 0.10334 0.0
H745 H 0.05473 0.59231 0.0713 0.0
H746 H 0.04216 0.50052 0.07327 0.0
H747 H 0.03839 0.50289 0.10525 0.0
H748 H 0.10337 0.55263 0.05168 0.0
H749 H 0.96427 0.52222 0.03654 0.0
H750 H 0.99431 0.55705 0.05204 0.0
H751 H 0.97604 0.51551 0.05759 0.0
C752 C 0.0492 0.57422 0.09692 0.0
C753 C 0.0445 0.54912 0.10677 0.0
C754 C 0.05104 0.57266 0.07864 0.0
C755 C 0.04836 0.54605 0.06991 0.0
C756 C 0.04415 0.52119 0.07974 0.0
H757 H 1.01672 0.48866 0.95819 0.0
H758 H 1.01247 0.4893 0.99013 0.0
C759 C 0.04198 0.52258 0.098 0.0
C760 C 0.05034 0.54431 0.05053 0.0
H761 H 1.00331 0.53327 0.01257 0.0
C762 C 0.08151 0.54837 0.04311 0.0
C763 C 1.02158 0.53839 0.0394 0.0
C764 C 0.98695 0.53277 0.04671 0.0
C765 C 0.085 0.54732 0.02485 0.0
C766 C 0.05663 0.54214 0.01372 0.0
C767 C 1.02512 0.53742 0.02113 0.0
C768 C 0.05936 0.54181 0.99435 0.0
C769 C 0.11884 0.55147 0.01754 0.0
C770 C 0.08688 0.57121 0.98612 0.0
C771 C 0.08911 0.57109 0.96785 0.0
C772 C 0.06391 0.54148 0.95737 0.0
C773 C 0.03632 0.51204 0.96574 0.0
C774 C 0.03395 0.51227 0.98402 0.0
H775 H 0.13412 0.54842 0.02762 0.0
H776 H 0.11039 0.53299 0.00639 0.0
H777 H 0.13848 0.57695 0.01259 0.0
H778 H 0.10638 0.59441 0.99383 0.0
H779 H 0.11021 0.59443 0.96195 0.0
H780 H 0.49447 0.9925 0.4334 0.0
H781 H 0.49116 0.99211 0.40128 0.0
H782 H 0.6094 0.03809 0.39931 0.0
H783 H 0.61272 0.03804 0.43117 0.0
H784 H 0.52996 0.04391 0.37796 0.0
H785 H 0.56159 0.95397 0.36684 0.0
H786 H 0.54853 0.96115 0.38791 0.0
H787 H 0.59605 0.98976 0.3808 0.0
C788 C 0.5197 0.00254 0.42607 0.0
C789 C 0.55374 0.01489 0.43471 0.0
C790 C 0.51779 0.00234 0.40776 0.0
C791 C 0.54987 0.01442 0.3979 0.0
C792 C 0.58412 0.02789 0.40662 0.0
H793 H 0.60248 0.07501 0.29153 0.0
H794 H 0.59308 0.07167 0.32313 0.0
C795 C 0.586 0.02799 0.42483 0.0
C796 C 0.54786 0.01282 0.37847 0.0
H797 H 0.56666 0.98365 0.34217 0.0
C798 C 0.53762 0.03049 0.3701 0.0
C799 C 0.55721 0.9948 0.36823 0.0
C800 C 0.56609 0.97356 0.37638 0.0
C801 C 0.53789 0.03167 0.35176 0.0
C802 C 0.54939 0.01525 0.34158 0.0
C803 C 0.55826 0.99657 0.34996 0.0
C804 C 0.55318 0.01748 0.32228 0.0
C805 C 0.52565 0.05032 0.34347 0.0
C806 C 0.53445 0.98816 0.31128 0.0
C807 C 0.54012 0.99 0.29324 0.0
C808 C 0.56466 0.02124 0.28582 0.0
C809 C 0.58299 0.05061 0.29682 0.0
C810 C 0.57751 0.04873 0.31488 0.0
H811 H 0.50697 0.05219 0.35215 0.0
H812 H 0.5508 0.07619 0.34116 0.0
H813 H 0.51066 0.0379 0.33071 0.0
H814 H 0.51565 0.96376 0.31669 0.0
H815 H 0.52527 0.96694 0.2851 0.0
H816 H 0.49352 0.48111 0.79191 0.0
H817 H 0.5079 0.49544 0.76135 0.0
H818 H 0.62474 0.57107 0.77605 0.0
H819 H 0.61057 0.55624 0.80671 0.0
H820 H 0.53899 0.55501 0.74555 0.0
H821 H 0.62944 0.51452 0.73772 0.0
H822 H 0.59982 0.50419 0.75628 0.0
H823 H 0.64366 0.54545 0.75524 0.0
C824 C 0.52229 0.50082 0.78864 0.0
C825 C 0.55099 0.5174 0.80165 0.0
C826 C 0.53045 0.50903 0.77118 0.0
C827 C 0.56747 0.53395 0.76636 0.0
C828 C 0.59609 0.55128 0.77942 0.0
H829 H 0.65768 0.59795 0.66209 0.0
H830 H 0.64994 0.59445 0.6938 0.0
C831 C 0.58794 0.54298 0.79693 0.0
C832 C 0.57577 0.54124 0.74761 0.0
H833 H 0.62288 0.5378 0.71338 0.0
C834 C 0.55743 0.55136 0.73853 0.0
C835 C 0.59984 0.53645 0.73847 0.0
C836 C 0.61912 0.52428 0.74734 0.0
C837 C 0.56238 0.55668 0.72053 0.0
C838 C 0.58589 0.5513 0.71134 0.0
C839 C 0.60487 0.5419 0.72048 0.0
C840 C 0.5902 0.55417 0.69212 0.0
C841 C 0.54253 0.56815 0.71152 0.0
C842 C 0.55921 0.53249 0.68065 0.0
C843 C 0.56356 0.53419 0.66251 0.0
C844 C 0.59907 0.55756 0.65546 0.0
C845 C 0.63002 0.57936 0.66704 0.0
C846 C 0.62565 0.57756 0.68517 0.0
H847 H 0.53389 0.57956 0.72102 0.0
H848 H 0.56074 0.58669 0.7017 0.0
H849 H 0.51683 0.54623 0.70457 0.0
H850 H 0.53175 0.51375 0.68574 0.0
H851 H 0.53925 0.51661 0.65403 0.0
H852 H 0.46868 0.00913 0.53883 0.0
H853 H 0.47799 0.01147 0.57054 0.0
H854 H 0.5896 0.04103 0.56278 0.0
H855 H 0.58092 0.04001 0.53111 0.0
H856 H 0.49144 0.97766 0.59065 0.0
H857 H 0.61095 0.11306 0.59797 0.0
H858 H 0.5829 0.09379 0.578 0.0
H859 H 0.61969 0.09042 0.58274 0.0
C860 C 0.49525 0.01625 0.54391 0.0
C861 C 0.52416 0.02455 0.53254 0.0
C862 C 0.50051 0.01751 0.56202 0.0
C863 C 0.53474 0.02701 0.56909 0.0
C864 C 0.56331 0.03447 0.55769 0.0
H865 H 0.56911 0.99416 0.67555 0.0
H866 H 0.55716 0.98994 0.64399 0.0
C867 C 0.5582 0.03357 0.53958 0.0
C868 C 0.54031 0.02885 0.58838 0.0
H869 H 0.59758 0.0812 0.62283 0.0
C870 C 0.51457 1.00034 0.5977 0.0
C871 C 0.57012 0.05862 0.59763 0.0
C872 C 0.59726 0.09081 0.58861 0.0
C873 C 0.51808 1.00062 0.61597 0.0
C874 C 0.54879 0.02996 0.62512 0.0
C875 C 0.57424 0.05859 0.61581 0.0
C876 C 0.55497 0.03177 0.64435 0.0
C877 C 0.48834 0.9697 0.62529 0.0
C878 C 0.55867 0.05717 0.65505 0.0
C879 C 0.56605 0.05992 0.67305 0.0
C880 C 0.56974 0.03722 0.68073 0.0
C881 C 0.56578 0.01166 0.67004 0.0
C882 C 0.55881 0.00916 0.652 0.0
H883 H 0.46154 0.95384 0.61748 0.0
H884 H 0.49813 0.95443 0.62729 0.0
H885 H 0.48269 0.97638 0.63829 0.0
H886 H 0.55591 0.07496 0.64945 0.0
H887 H 0.56876 0.07974 0.68098 0.0
H888 H 0.49953 0.48364 0.89507 0.0
H889 H 0.48599 0.45678 0.92295 0.0
H890 H 0.60404 0.52235 0.93721 0.0
H891 H 0.61786 0.5496 0.90933 0.0
H892 H 0.55496 0.44339 0.94063 0.0
H893 H 0.50449 0.51012 0.97338 0.0
H894 H 0.48869 0.49379 0.95111 0.0
H895 H 0.53728 0.52766 0.95576 0.0
C896 C 0.52259 0.49236 0.90416 0.0
C897 C 0.55972 0.51877 0.90014 0.0
C898 C 0.51481 0.477 0.92002 0.0
C899 C 0.54403 0.48772 0.93205 0.0
C900 C 0.58119 0.51384 0.92802 0.0
H901 H 0.52857 0.43984 0.04057 0.0
H902 H 0.5487 0.4667 0.01264 0.0
C903 C 0.58899 0.5294 0.91218 0.0
C904 C 0.53553 0.4718 0.94894 0.0
H905 H 0.4984 0.46756 0.98871 0.0
C906 C 0.54271 0.44867 0.95119 0.0
C907 C 0.51974 0.47899 0.96262 0.0
C908 C 0.51217 0.50411 0.96077 0.0
C909 C 0.53386 0.43205 0.96683 0.0
C910 C 0.51743 0.4388 0.9804 0.0
C911 C 0.51088 0.46239 0.97822 0.0
C912 C 0.50674 0.42173 0.99704 0.0
C913 C 0.54234 0.40759 0.96882 0.0
C914 C 0.47656 0.3875 0.99744 0.0
C915 C 0.46463 0.3721 0.01342 0.0
C916 C 0.48268 0.39076 0.02925 0.0
C917 C 0.5136 0.42488 0.02867 0.0
C918 C 0.52533 0.44024 0.01273 0.0
H919 H 0.56128 0.40982 0.95855 0.0
H920 H 0.55552 0.4116 0.9819 0.0
H921 H 0.51569 0.38165 0.96779 0.0
H922 H 0.46156 0.37294 0.98545 0.0
H923 H 0.44047 0.34592 0.0134 0.0
H924 H 0.08758 0.57303 0.20357 0.0
H925 H 0.08606 0.57313 0.23569 0.0
H926 H 0.05454 0.47317 0.23331 0.0
H927 H 0.05648 0.47312 0.20135 0.0
H928 H 0.02812 0.53077 0.25791 0.0
H929 H 0.14609 0.52436 0.26654 0.0
H930 H 0.13605 0.53428 0.24609 0.0
H931 H 0.1094 0.49141 0.25199 0.0
C932 C 0.08032 0.55112 0.20994 0.0
C933 C 0.07241 0.52316 0.20002 0.0
C934 C 0.07946 0.55119 0.22826 0.0
C935 C 0.07085 0.52339 0.2369 0.0
C936 C 0.06212 0.49519 0.22695 0.0
H937 H 1.00229 0.46932 0.34373 0.0
H938 H 1.00496 0.47553 0.31209 0.0
C939 C 0.06309 0.49515 0.20869 0.0
C940 C 0.07076 0.52362 0.25632 0.0
H941 H 0.10922 0.51415 0.29155 0.0
C942 C 0.04602 0.52737 0.2653 0.0
C943 C 0.09452 0.51968 0.26596 0.0
C944 C 0.12329 0.51754 0.25718 0.0
C945 C 0.04368 0.52636 0.28363 0.0
C946 C 0.06622 0.52086 0.29318 0.0
C947 C 0.09165 0.518 0.28422 0.0
C948 C 0.06402 0.51794 0.31247 0.0
C949 C 1.01742 0.53159 0.29259 0.0
C950 C 0.09644 0.53926 0.32319 0.0
C951 C 0.09505 0.53557 0.34124 0.0
C952 C 0.06119 0.51042 0.34897 0.0
C953 C 0.02866 0.48924 0.33822 0.0
C954 C 0.03013 0.49283 0.32013 0.0
H955 H 1.0108 0.54502 0.28431 0.0
H956 H 0.99063 0.50683 0.29509 0.0
H957 H 0.02964 0.54606 0.30534 0.0
H958 H 0.12291 0.55876 0.31757 0.0
H959 H 0.12049 0.55253 0.34918 0.0
loop_
_geom_bond_atom_site_label_1
_geom_bond_atom_site_label_2
_geom_bond_distance
_geom_bond_site_symmetry_2
_ccdc_geom_bond_type
Ho0 C3 2.811 . S
Ho0 O20 2.322 . S
Ho0 O22 2.378 . S
Ho0 O23 2.524 . S
Ho0 O24 2.381 . S
Ho0 O25 2.669 . S
Ho0 O27 2.346 1_455 S
Ho0 O31 2.305 . S
Ho1 C12 2.811 1_455 S
Ho1 O21 2.346 . S
Ho1 O25 2.305 . S
Ho1 O26 2.322 1_455 S
Ho1 O28 2.378 1_455 S
Ho1 O29 2.524 1_455 S
Ho1 O30 2.381 . S
Ho1 O31 2.669 . S
C2 O20 1.259 . S
C2 O21 1.268 . S
C3 Ho0 2.811 . S
C3 C4 1.488 . S
C3 O22 1.215 . S
C3 O23 1.289 . S
C4 C3 1.488 . S
C4 C5 1.348 . S
C4 C9 1.413 . S
C5 C4 1.348 . S
C5 C6 1.442 . S
C5 H32 0.930 . S
C6 C5 1.442 . S
C6 C7 1.381 . S
C6 H33 0.931 . S
C7 C6 1.381 . S
C7 C8 1.321 . S
C8 C7 1.321 . S
C8 C9 1.403 . S
C8 H34 0.934 . S
C9 C4 1.413 . S
C9 C8 1.403 . S
C9 H35 0.930 . S
C10 O24 1.275 . S
C10 O25 1.256 . S
C11 O26 1.259 . S
C11 O27 1.268 . S
C12 Ho1 2.811 1_655 S
C12 C13 1.488 . S
C12 O28 1.215 . S
C12 O29 1.289 . S
C13 C12 1.488 . S
C13 C14 1.348 . S
C13 C18 1.413 . S
C14 C13 1.348 . S
C14 C15 1.442 . S
C14 H36 0.930 . S
C15 C14 1.442 . S
C15 C16 1.381 . S
C15 H37 0.931 . S
C16 C15 1.381 . S
C16 C17 1.321 . S
C17 C16 1.321 . S
C17 C18 1.403 . S
C17 H38 0.934 . S
C18 C13 1.413 . S
C18 C17 1.403 . S
C18 H39 0.930 . S
C19 O30 1.275 . S
C19 O31 1.256 . S
O20 Ho0 2.322 . S
O20 C2 1.259 . S
O21 Ho1 2.346 . S
O21 C2 1.268 . S
O22 Ho0 2.378 . S
O22 C3 1.215 . S
O23 Ho0 2.524 . S
O23 C3 1.289 . S
O24 Ho0 2.381 . S
O24 C10 1.275 . S
O25 Ho0 2.669 . S
O25 Ho1 2.305 . S
O25 C10 1.256 . S
O26 Ho1 2.322 1_655 S
O26 C11 1.259 . S
O27 Ho0 2.346 1_655 S
O27 C11 1.268 . S
O28 Ho1 2.378 1_655 S
O28 C12 1.215 . S
O29 Ho1 2.524 1_655 S
O29 C12 1.289 . S
O30 Ho1 2.381 . S
O30 C19 1.275 . S
O31 Ho0 2.305 . S
O31 Ho1 2.669 . S
O31 C19 1.256 . S
H32 C5 0.930 . S
H33 C6 0.931 . S
H34 C8 0.934 . S
H35 C9 0.930 . S
H36 C14 0.930 . S
H37 C15 0.931 . S
H38 C17 0.934 . S
H39 C18 0.930 . S
Ho40 C43 2.811 . S
Ho40 O60 2.322 . S
Ho40 O62 2.378 . S
Ho40 O63 2.524 . S
Ho40 O64 2.381 . S
Ho40 O65 2.669 1_565 S
Ho40 O67 2.346 1_565 S
Ho40 O71 2.305 1_565 S
Ho41 C52 2.811 . S
Ho41 O61 2.346 1_545 S
Ho41 O65 2.305 . S
Ho41 O66 2.322 . S
Ho41 O68 2.378 . S
Ho41 O69 2.524 . S
Ho41 O70 2.381 . S
Ho41 O71 2.669 . S
C42 O60 1.259 . S
C42 O61 1.268 . S
C43 Ho40 2.811 . S
C43 C44 1.488 . S
C43 O62 1.215 . S
C43 O63 1.289 . S
C44 C43 1.488 . S
C44 C45 1.348 . S
C44 C49 1.413 . S
C45 C44 1.348 . S
C45 C46 1.442 . S
C45 H72 0.930 . S
C46 C45 1.442 . S
C46 C47 1.381 . S
C46 H73 0.931 . S
C47 C46 1.381 . S
C47 C48 1.321 . S
C48 C47 1.321 . S
C48 C49 1.403 . S
C48 H74 0.934 . S
C49 C44 1.413 . S
C49 C48 1.403 . S
C49 H75 0.930 . S
C50 O64 1.275 1_545 S
C50 O65 1.256 . S
C51 O66 1.259 . S
C51 O67 1.268 . S
C52 Ho41 2.811 . S
C52 C53 1.488 . S
C52 O68 1.215 . S
C52 O69 1.289 . S
C53 C52 1.488 . S
C53 C54 1.348 . S
C53 C58 1.413 . S
C54 C53 1.348 . S
C54 C55 1.442 . S
C54 H76 0.930 . S
C55 C54 1.442 . S
C55 C56 1.381 . S
C55 H77 0.931 . S
C56 C55 1.381 . S
C56 C57 1.321 . S
C57 C56 1.321 . S
C57 C58 1.403 . S
C57 H78 0.934 . S
C58 C53 1.413 . S
C58 C57 1.403 . S
C58 H79 0.930 . S
C59 O70 1.275 . S
C59 O71 1.256 . S
O60 Ho40 2.322 . S
O60 C42 1.259 . S
O61 Ho41 2.346 1_565 S
O61 C42 1.268 . S
O62 Ho40 2.378 . S
O62 C43 1.215 . S
O63 Ho40 2.524 . S
O63 C43 1.289 . S
O64 Ho40 2.381 . S
O64 C50 1.275 1_565 S
O65 Ho40 2.669 1_545 S
O65 Ho41 2.305 . S
O65 C50 1.256 . S
O66 Ho41 2.322 . S
O66 C51 1.259 . S
O67 Ho40 2.346 1_545 S
O67 C51 1.268 . S
O68 Ho41 2.378 . S
O68 C52 1.215 . S
O69 Ho41 2.524 . S
O69 C52 1.289 . S
O70 Ho41 2.381 . S
O70 C59 1.275 . S
O71 Ho40 2.305 1_545 S
O71 Ho41 2.669 . S
O71 C59 1.256 . S
H72 C45 0.930 . S
H73 C46 0.931 . S
H74 C48 0.934 . S
H75 C49 0.930 . S
H76 C54 0.930 . S
H77 C55 0.931 . S
H78 C57 0.934 . S
H79 C58 0.930 . S
Ho80 C83 2.811 . S
Ho80 O100 2.322 . S
Ho80 O102 2.378 . S
Ho80 O103 2.524 . S
Ho80 O104 2.381 . S
Ho80 O105 2.669 . S
Ho80 O107 2.346 . S
Ho80 O111 2.305 . S
Ho81 C92 2.811 . S
Ho81 O101 2.346 . S
Ho81 O105 2.305 . S
Ho81 O106 2.322 . S
Ho81 O108 2.378 . S
Ho81 O109 2.524 . S
Ho81 O110 2.381 . S
Ho81 O111 2.669 . S
C82 O100 1.259 . S
C82 O101 1.268 . S
C83 Ho80 2.811 . S
C83 C84 1.488 . S
C83 O102 1.215 . S
C83 O103 1.289 . S
C84 C83 1.488 . S
C84 C85 1.348 . S
C84 C89 1.413 . S
C85 C84 1.348 . S
C85 C86 1.442 . S
C85 H112 0.930 . S
C86 C85 1.442 . S
C86 C87 1.381 . S
C86 H113 0.931 . S
C87 C86 1.381 . S
C87 C88 1.321 . S
C88 C87 1.321 . S
C88 C89 1.403 . S
C88 H114 0.934 . S
C89 C84 1.413 . S
C89 C88 1.403 . S
C89 H115 0.930 . S
C90 O104 1.275 . S
C90 O105 1.256 . S
C91 O106 1.259 . S
C91 O107 1.268 . S
C92 Ho81 2.811 . S
C92 C93 1.488 . S
C92 O108 1.215 . S
C92 O109 1.289 . S
C93 C92 1.488 . S
C93 C94 1.348 . S
C93 C98 1.413 . S
C94 C93 1.348 . S
C94 C95 1.442 . S
C94 H116 0.930 . S
C95 C94 1.442 . S
C95 C96 1.381 . S
C95 H117 0.931 . S
C96 C95 1.381 . S
C96 C97 1.321 . S
C97 C96 1.321 . S
C97 C98 1.403 . S
C97 H118 0.934 . S
C98 C93 1.413 . S
C98 C97 1.403 . S
C98 H119 0.930 . S
C99 O110 1.275 . S
C99 O111 1.256 . S
O100 Ho80 2.322 . S
O100 C82 1.259 . S
O101 Ho81 2.346 . S
O101 C82 1.268 . S
O102 Ho80 2.378 . S
O102 C83 1.215 . S
O103 Ho80 2.524 . S
O103 C83 1.289 . S
O104 Ho80 2.381 . S
O104 C90 1.275 . S
O105 Ho80 2.669 . S
O105 Ho81 2.305 . S
O105 C90 1.256 . S
O106 Ho81 2.322 . S
O106 C91 1.259 . S
O107 Ho80 2.346 . S
O107 C91 1.268 . S
O108 Ho81 2.378 . S
O108 C92 1.215 . S
O109 Ho81 2.524 . S
O109 C92 1.289 . S
O110 Ho81 2.381 . S
O110 C99 1.275 . S
O111 Ho80 2.305 . S
O111 Ho81 2.669 . S
O111 C99 1.256 . S
H112 C85 0.930 . S
H113 C86 0.931 . S
H114 C88 0.934 . S
H115 C89 0.930 . S
H116 C94 0.930 . S
H117 C95 0.931 . S
H118 C97 0.934 . S
H119 C98 0.930 . S
P120 O131 1.490 1_545 S
P120 C134 1.812 1_545 S
P120 C140 1.803 . S
P120 C146 1.819 . S
H121 C135 0.941 . S
H122 C136 0.939 . S
H123 C138 0.940 . S
H124 C139 0.940 . S
H125 C141 0.939 . S
H126 C142 0.942 . S
H127 C144 0.940 . S
H128 C145 0.939 . S
H129 C147 0.941 . S
H130 C151 0.939 . S
O131 P120 1.490 1_565 S
H132 C148 0.939 . S
H133 C150 0.940 . S
C134 P120 1.812 1_565 S
C134 C135 1.389 . S
C134 C139 1.391 . S
C135 H121 0.941 . S
C135 C134 1.389 . S
C135 C136 1.397 . S
C136 H122 0.939 . S
C136 C135 1.397 . S
C136 C137 1.378 . S
C137 C136 1.378 . S
C137 C138 1.378 . S
C138 H123 0.940 . S
C138 C137 1.378 . S
C138 C139 1.396 . S
C139 H124 0.940 . S
C139 C134 1.391 . S
C139 C138 1.396 . S
C140 P120 1.803 . S
C140 C141 1.378 . S
C140 C145 1.400 . S
C141 H125 0.939 . S
C141 C140 1.378 . S
C141 C142 1.361 . S
C142 H126 0.942 . S
C142 C141 1.361 . S
C142 C143 1.369 . S
C143 C142 1.369 . S
C143 C144 1.404 . S
C144 H127 0.940 . S
C144 C143 1.404 . S
C144 C145 1.389 . S
C145 H128 0.939 . S
C145 C140 1.400 . S
C145 C144 1.389 . S
C146 P120 1.819 . S
C146 C147 1.391 1_545 S
C146 C151 1.391 . S
C147 H129 0.941 . S
C147 C146 1.391 1_565 S
C147 C148 1.396 . S
C148 H132 0.939 . S
C148 C147 1.396 . S
C148 C149 1.397 1_565 S
C149 C148 1.397 1_545 S
C149 C150 1.385 . S
C150 H133 0.940 . S
C150 C149 1.385 . S
C150 C151 1.388 . S
C151 H130 0.939 . S
C151 C146 1.391 . S
C151 C150 1.388 . S
P152 O163 1.490 . S
P152 C166 1.812 . S
P152 C172 1.803 . S
P152 C178 1.819 . S
H153 C167 0.941 . S
H154 C168 0.939 . S
H155 C170 0.940 . S
H156 C171 0.940 . S
H157 C173 0.939 . S
H158 C174 0.942 . S
H159 C176 0.940 . S
H160 C177 0.939 . S
H161 C179 0.941 . S
H162 C183 0.939 . S
O163 P152 1.490 . S
H164 C180 0.939 . S
H165 C182 0.940 . S
C166 P152 1.812 . S
C166 C167 1.389 . S
C166 C171 1.391 . S
C167 H153 0.941 . S
C167 C166 1.389 . S
C167 C168 1.397 . S
C168 H154 0.939 . S
C168 C167 1.397 . S
C168 C169 1.378 . S
C169 C168 1.378 . S
C169 C170 1.378 . S
C170 H155 0.940 . S
C170 C169 1.378 . S
C170 C171 1.396 . S
C171 H156 0.940 . S
C171 C166 1.391 . S
C171 C170 1.396 . S
C172 P152 1.803 . S
C172 C173 1.378 . S
C172 C177 1.400 . S
C173 H157 0.939 . S
C173 C172 1.378 . S
C173 C174 1.361 . S
C174 H158 0.942 . S
C174 C173 1.361 . S
C174 C175 1.369 . S
C175 C174 1.369 . S
C175 C176 1.404 . S
C176 H159 0.940 . S
C176 C175 1.404 . S
C176 C177 1.389 . S
C177 H160 0.939 . S
C177 C172 1.400 . S
C177 C176 1.389 . S
C178 P152 1.819 . S
C178 C179 1.391 . S
C178 C183 1.391 . S
C179 H161 0.941 . S
C179 C178 1.391 . S
C179 C180 1.396 . S
C180 H164 0.939 . S
C180 C179 1.396 . S
C180 C181 1.397 . S
C181 C180 1.397 . S
C181 C182 1.385 . S
C182 H165 0.940 . S
C182 C181 1.385 . S
C182 C183 1.388 . S
C183 H162 0.939 . S
C183 C178 1.391 . S
C183 C182 1.388 . S
P184 O195 1.490 . S
P184 C198 1.812 . S
P184 C204 1.803 . S
P184 C210 1.819 . S
H185 C199 0.941 . S
H186 C200 0.939 . S
H187 C202 0.940 . S
H188 C203 0.940 . S
H189 C205 0.939 . S
H190 C206 0.942 . S
H191 C208 0.940 . S
H192 C209 0.939 . S
H193 C211 0.941 . S
H194 C215 0.939 . S
O195 P184 1.490 . S
H196 C212 0.939 . S
H197 C214 0.940 1_655 S
C198 P184 1.812 . S
C198 C199 1.389 . S
C198 C203 1.391 . S
C199 H185 0.941 . S
C199 C198 1.389 . S
C199 C200 1.397 . S
C200 H186 0.939 . S
C200 C199 1.397 . S
C200 C201 1.378 . S
C201 C200 1.378 . S
C201 C202 1.378 . S
C202 H187 0.940 . S
C202 C201 1.378 . S
C202 C203 1.396 . S
C203 H188 0.940 . S
C203 C198 1.391 . S
C203 C202 1.396 . S
C204 P184 1.803 . S
C204 C205 1.378 . S
C204 C209 1.400 . S
C205 H189 0.939 . S
C205 C204 1.378 . S
C205 C206 1.361 1_455 S
C206 H190 0.942 . S
C206 C205 1.361 1_655 S
C206 C207 1.369 . S
C207 C206 1.369 . S
C207 C208 1.404 . S
C208 H191 0.940 . S
C208 C207 1.404 . S
C208 C209 1.389 1_655 S
C209 H192 0.939 . S
C209 C204 1.400 . S
C209 C208 1.389 1_455 S
C210 P184 1.819 . S
C210 C211 1.391 . S
C210 C215 1.391 . S
C211 H193 0.941 . S
C211 C210 1.391 . S
C211 C212 1.396 . S
C212 H196 0.939 . S
C212 C211 1.396 . S
C212 C213 1.397 . S
C213 C212 1.397 . S
C213 C214 1.385 . S
C214 H197 0.940 1_455 S
C214 C213 1.385 . S
C214 C215 1.388 . S
C215 H194 0.939 . S
C215 C210 1.391 . S
C215 C214 1.388 . S
P216 O227 1.490 . S
P216 C230 1.812 . S
P216 C236 1.803 1_455 S
P216 C242 1.819 . S
H217 C231 0.941 . S
H218 C232 0.939 . S
H219 C234 0.940 . S
H220 C235 0.940 . S
H221 C237 0.939 . S
H222 C238 0.942 . S
H223 C240 0.940 . S
H224 C241 0.939 . S
H225 C243 0.941 . S
H226 C247 0.939 . S
O227 P216 1.490 . S
H228 C244 0.939 . S
H229 C246 0.940 . S
C230 P216 1.812 . S
C230 C231 1.389 . S
C230 C235 1.391 . S
C231 H217 0.941 . S
C231 C230 1.389 . S
C231 C232 1.397 . S
C232 H218 0.939 . S
C232 C231 1.397 . S
C232 C233 1.378 . S
C233 C232 1.378 . S
C233 C234 1.378 . S
C234 H219 0.940 . S
C234 C233 1.378 . S
C234 C235 1.396 . S
C235 H220 0.940 . S
C235 C230 1.391 . S
C235 C234 1.396 . S
C236 P216 1.803 1_655 S
C236 C237 1.378 . S
C236 C241 1.400 . S
C237 H221 0.939 . S
C237 C236 1.378 . S
C237 C238 1.361 . S
C238 H222 0.942 . S
C238 C237 1.361 . S
C238 C239 1.369 . S
C239 C238 1.369 . S
C239 C240 1.404 . S
C240 H223 0.940 . S
C240 C239 1.404 . S
C240 C241 1.389 . S
C241 H224 0.939 . S
C241 C236 1.400 . S
C241 C240 1.389 . S
C242 P216 1.819 . S
C242 C243 1.391 . S
C242 C247 1.391 1_455 S
C243 H225 0.941 . S
C243 C242 1.391 . S
C243 C244 1.396 . S
C244 H228 0.939 . S
C244 C243 1.396 . S
C244 C245 1.397 . S
C245 C244 1.397 . S
C245 C246 1.385 1_455 S
C246 H229 0.940 . S
C246 C245 1.385 1_655 S
C246 C247 1.388 . S
C247 H226 0.939 . S
C247 C242 1.391 1_655 S
C247 C246 1.388 . S
P248 O259 1.490 . S
P248 C262 1.812 . S
P248 C268 1.803 1_545 S
P248 C274 1.819 . S
H249 C263 0.941 . S
H250 C264 0.939 . S
H251 C266 0.940 . S
H252 C267 0.940 . S
H253 C269 0.939 . S
H254 C270 0.942 . S
H255 C272 0.940 . S
H256 C273 0.939 . S
H257 C275 0.941 . S
H258 C279 0.939 . S
O259 P248 1.490 . S
H260 C276 0.939 . S
H261 C278 0.940 . S
C262 P248 1.812 . S
C262 C263 1.389 . S
C262 C267 1.391 . S
C263 H249 0.941 . S
C263 C262 1.389 . S
C263 C264 1.397 . S
C264 H250 0.939 . S
C264 C263 1.397 . S
C264 C265 1.378 . S
C265 C264 1.378 . S
C265 C266 1.378 . S
C266 H251 0.940 . S
C266 C265 1.378 . S
C266 C267 1.396 . S
C267 H252 0.940 . S
C267 C262 1.391 . S
C267 C266 1.396 . S
C268 P248 1.803 1_565 S
C268 C269 1.378 . S
C268 C273 1.400 . S
C269 H253 0.939 . S
C269 C268 1.378 . S
C269 C270 1.361 . S
C270 H254 0.942 . S
C270 C269 1.361 . S
C270 C271 1.369 . S
C271 C270 1.369 . S
C271 C272 1.404 . S
C272 H255 0.940 . S
C272 C271 1.404 . S
C272 C273 1.389 . S
C273 H256 0.939 . S
C273 C268 1.400 . S
C273 C272 1.389 . S
C274 P248 1.819 . S
C274 C275 1.391 . S
C274 C279 1.391 1_545 S
C275 H257 0.941 . S
C275 C274 1.391 . S
C275 C276 1.396 . S
C276 H260 0.939 . S
C276 C275 1.396 . S
C276 C277 1.397 . S
C277 C276 1.397 . S
C277 C278 1.385 1_545 S
C278 H261 0.940 . S
C278 C277 1.385 1_565 S
C278 C279 1.388 . S
C279 H258 0.939 . S
C279 C274 1.391 1_565 S
C279 C278 1.388 . S
P280 O291 1.490 . S
P280 C294 1.812 . S
P280 C300 1.803 . S
P280 C306 1.819 . S
H281 C295 0.941 . S
H282 C296 0.939 . S
H283 C298 0.940 . S
H284 C299 0.940 . S
H285 C301 0.939 . S
H286 C302 0.942 . S
H287 C304 0.940 . S
H288 C305 0.939 . S
H289 C307 0.941 . S
H290 C311 0.939 . S
O291 P280 1.490 . S
H292 C308 0.939 . S
H293 C310 0.940 . S
C294 P280 1.812 . S
C294 C295 1.389 . S
C294 C299 1.391 . S
C295 H281 0.941 . S
C295 C294 1.389 . S
C295 C296 1.397 . S
C296 H282 0.939 . S
C296 C295 1.397 . S
C296 C297 1.378 . S
C297 C296 1.378 . S
C297 C298 1.378 . S
C298 H283 0.940 . S
C298 C297 1.378 . S
C298 C299 1.396 . S
C299 H284 0.940 . S
C299 C294 1.391 . S
C299 C298 1.396 . S
C300 P280 1.803 . S
C300 C301 1.378 . S
C300 C305 1.400 . S
C301 H285 0.939 . S
C301 C300 1.378 . S
C301 C302 1.361 . S
C302 H286 0.942 . S
C302 C301 1.361 . S
C302 C303 1.369 . S
C303 C302 1.369 . S
C303 C304 1.404 . S
C304 H287 0.940 . S
C304 C303 1.404 . S
C304 C305 1.389 . S
C305 H288 0.939 . S
C305 C300 1.400 . S
C305 C304 1.389 . S
C306 P280 1.819 . S
C306 C307 1.391 . S
C306 C311 1.391 . S
C307 H289 0.941 . S
C307 C306 1.391 . S
C307 C308 1.396 . S
C308 H292 0.939 . S
C308 C307 1.396 . S
C308 C309 1.397 . S
C309 C308 1.397 . S
C309 C310 1.385 . S
C310 H293 0.940 . S
C310 C309 1.385 . S
C310 C311 1.388 . S
C311 H290 0.939 . S
C311 C306 1.391 . S
C311 C310 1.388 . S
H312 C320 0.929 . S
H313 C322 0.930 . S
H314 C324 0.930 . S
H315 C327 0.929 . S
H316 C330 0.930 . S
H317 C332 0.960 . S
H318 C332 0.960 . S
H319 C332 0.960 . S
C320 H312 0.929 . S
C320 C321 1.377 . S
C320 C322 1.384 . S
C321 C320 1.377 . S
C321 C327 1.390 . S
C322 H313 0.930 . S
C322 C320 1.384 . S
C322 C323 1.372 . S
C323 C322 1.372 . S
C323 C324 1.400 . S
C323 C328 1.490 . S
C324 H314 0.930 . S
C324 C323 1.400 . S
C324 C327 1.386 . S
H325 C341 0.930 . S
H326 C342 0.931 . S
C327 H315 0.929 . S
C327 C321 1.390 . S
C327 C324 1.386 . S
C328 C323 1.490 . S
C328 C330 1.395 . S
C328 C331 1.403 . S
H329 C335 0.930 . S
C330 H316 0.930 . S
C330 C328 1.395 . S
C330 C333 1.403 . S
C331 C328 1.403 . S
C331 C332 1.524 . S
C331 C335 1.400 . S
C332 H317 0.960 . S
C332 H318 0.960 . S
C332 H319 0.960 . S
C332 C331 1.524 . S
C333 C330 1.403 . S
C333 C334 1.392 . S
C333 C337 1.495 . S
C334 C333 1.392 . S
C334 C335 1.385 . S
C334 C336 1.478 . S
C335 H329 0.930 . S
C335 C331 1.400 . S
C335 C334 1.385 . S
C336 C334 1.478 . S
C336 C338 1.381 . S
C336 C342 1.383 . S
C337 C333 1.495 . S
C337 H343 0.959 . S
C337 H344 0.961 . S
C337 H345 0.960 . S
C338 C336 1.381 . S
C338 C339 1.394 . S
C338 H346 0.930 . S
C339 C338 1.394 . S
C339 C340 1.383 . S
C339 H347 0.929 . S
C340 C339 1.383 . S
C340 C341 1.377 . S
C341 H325 0.930 . S
C341 C340 1.377 . S
C341 C342 1.379 . S
C342 H326 0.931 . S
C342 C336 1.383 . S
C342 C341 1.379 . S
H343 C337 0.959 . S
H344 C337 0.961 . S
H345 C337 0.960 . S
H346 C338 0.930 . S
H347 C339 0.929 . S
H348 C356 0.929 . S
H349 C358 0.930 . S
H350 C360 0.930 . S
H351 C363 0.929 . S
H352 C366 0.930 . S
H353 C368 0.960 . S
H354 C368 0.960 . S
H355 C368 0.960 . S
C356 H348 0.929 . S
C356 C357 1.377 . S
C356 C358 1.384 . S
C357 C356 1.377 . S
C357 C363 1.390 . S
C358 H349 0.930 . S
C358 C356 1.384 . S
C358 C359 1.372 . S
C359 C358 1.372 . S
C359 C360 1.400 . S
C359 C364 1.490 . S
C360 H350 0.930 . S
C360 C359 1.400 . S
C360 C363 1.386 . S
H361 C377 0.930 . S
H362 C378 0.931 . S
C363 H351 0.929 . S
C363 C357 1.390 . S
C363 C360 1.386 . S
C364 C359 1.490 . S
C364 C366 1.395 . S
C364 C367 1.403 . S
H365 C371 0.930 . S
C366 H352 0.930 . S
C366 C364 1.395 . S
C366 C369 1.403 . S
C367 C364 1.403 . S
C367 C368 1.524 . S
C367 C371 1.400 . S
C368 H353 0.960 . S
C368 H354 0.960 . S
C368 H355 0.960 . S
C368 C367 1.524 . S
C369 C366 1.403 . S
C369 C370 1.392 . S
C369 C373 1.495 . S
C370 C369 1.392 . S
C370 C371 1.385 . S
C370 C372 1.478 . S
C371 H365 0.930 . S
C371 C367 1.400 . S
C371 C370 1.385 . S
C372 C370 1.478 . S
C372 C374 1.381 . S
C372 C378 1.383 . S
C373 C369 1.495 . S
C373 H379 0.959 . S
C373 H380 0.961 . S
C373 H381 0.960 . S
C374 C372 1.381 . S
C374 C375 1.394 . S
C374 H382 0.930 . S
C375 C374 1.394 . S
C375 C376 1.383 . S
C375 H383 0.929 . S
C376 C375 1.383 . S
C376 C377 1.377 . S
C377 H361 0.930 . S
C377 C376 1.377 . S
C377 C378 1.379 . S
C378 H362 0.931 . S
C378 C372 1.383 . S
C378 C377 1.379 . S
H379 C373 0.959 . S
H380 C373 0.961 . S
H381 C373 0.960 . S
H382 C374 0.930 . S
H383 C375 0.929 . S
H384 C392 0.929 . S
H385 C394 0.930 . S
H386 C396 0.930 . S
H387 C399 0.929 . S
H388 C402 0.930 . S
H389 C404 0.960 . S
H390 C404 0.960 . S
H391 C404 0.960 . S
C392 H384 0.929 . S
C392 C393 1.377 . S
C392 C394 1.384 . S
C393 C392 1.377 . S
C393 C399 1.390 . S
C394 H385 0.930 . S
C394 C392 1.384 . S
C394 C395 1.372 . S
C395 C394 1.372 . S
C395 C396 1.400 . S
C395 C400 1.490 . S
C396 H386 0.930 . S
C396 C395 1.400 . S
C396 C399 1.386 . S
H397 C413 0.930 . S
H398 C414 0.931 . S
C399 H387 0.929 . S
C399 C393 1.390 . S
C399 C396 1.386 . S
C400 C395 1.490 . S
C400 C402 1.395 . S
C400 C403 1.403 . S
H401 C407 0.930 . S
C402 H388 0.930 . S
C402 C400 1.395 . S
C402 C405 1.403 . S
C403 C400 1.403 . S
C403 C404 1.524 . S
C403 C407 1.400 . S
C404 H389 0.960 . S
C404 H390 0.960 . S
C404 H391 0.960 . S
C404 C403 1.524 . S
C405 C402 1.403 . S
C405 C406 1.392 . S
C405 C409 1.495 . S
C406 C405 1.392 . S
C406 C407 1.385 . S
C406 C408 1.478 . S
C407 H401 0.930 . S
C407 C403 1.400 . S
C407 C406 1.385 . S
C408 C406 1.478 . S
C408 C410 1.381 . S
C408 C414 1.383 . S
C409 C405 1.495 . S
C409 H415 0.959 . S
C409 H416 0.961 . S
C409 H417 0.960 . S
C410 C408 1.381 . S
C410 C411 1.394 . S
C410 H418 0.930 . S
C411 C410 1.394 . S
C411 C412 1.383 . S
C411 H419 0.929 . S
C412 C411 1.383 . S
C412 C413 1.377 . S
C413 H397 0.930 . S
C413 C412 1.377 . S
C413 C414 1.379 . S
C414 H398 0.931 . S
C414 C408 1.383 . S
C414 C413 1.379 . S
H415 C409 0.959 . S
H416 C409 0.961 . S
H417 C409 0.960 . S
H418 C410 0.930 . S
H419 C411 0.929 . S
H420 C428 0.929 . S
H421 C430 0.930 . S
H422 C432 0.930 . S
H423 C435 0.929 . S
H424 C438 0.930 . S
H425 C440 0.960 . S
H426 C440 0.960 . S
H427 C440 0.960 . S
C428 H420 0.929 . S
C428 C429 1.377 . S
C428 C430 1.384 . S
C429 C428 1.377 . S
C429 C435 1.390 . S
C430 H421 0.930 . S
C430 C428 1.384 . S
C430 C431 1.372 . S
C431 C430 1.372 . S
C431 C432 1.400 . S
C431 C436 1.490 . S
C432 H422 0.930 . S
C432 C431 1.400 . S
C432 C435 1.386 . S
H433 C449 0.930 . S
H434 C450 0.931 . S
C435 H423 0.929 . S
C435 C429 1.390 . S
C435 C432 1.386 . S
C436 C431 1.490 . S
C436 C438 1.395 . S
C436 C439 1.403 . S
H437 C443 0.930 . S
C438 H424 0.930 . S
C438 C436 1.395 . S
C438 C441 1.403 . S
C439 C436 1.403 . S
C439 C440 1.524 . S
C439 C443 1.400 . S
C440 H425 0.960 . S
C440 H426 0.960 . S
C440 H427 0.960 . S
C440 C439 1.524 . S
C441 C438 1.403 . S
C441 C442 1.392 . S
C441 C445 1.495 . S
C442 C441 1.392 . S
C442 C443 1.385 . S
C442 C444 1.478 . S
C443 H437 0.930 . S
C443 C439 1.400 . S
C443 C442 1.385 . S
C444 C442 1.478 . S
C444 C446 1.381 . S
C444 C450 1.383 . S
C445 C441 1.495 . S
C445 H451 0.959 . S
C445 H452 0.961 . S
C445 H453 0.960 . S
C446 C444 1.381 . S
C446 C447 1.394 . S
C446 H454 0.930 . S
C447 C446 1.394 . S
C447 C448 1.383 . S
C447 H455 0.929 . S
C448 C447 1.383 . S
C448 C449 1.377 . S
C449 H433 0.930 . S
C449 C448 1.377 . S
C449 C450 1.379 . S
C450 H434 0.931 . S
C450 C444 1.383 . S
C450 C449 1.379 . S
H451 C445 0.959 . S
H452 C445 0.961 . S
H453 C445 0.960 . S
H454 C446 0.930 . S
H455 C447 0.929 . S
H456 C464 0.929 . S
H457 C466 0.930 . S
H458 C468 0.930 . S
H459 C471 0.929 . S
H460 C474 0.930 . S
H461 C476 0.960 . S
H462 C476 0.960 . S
H463 C476 0.960 . S
C464 H456 0.929 . S
C464 C465 1.377 . S
C464 C466 1.384 . S
C465 C464 1.377 . S
C465 C471 1.390 . S
C466 H457 0.930 . S
C466 C464 1.384 . S
C466 C467 1.372 . S
C467 C466 1.372 . S
C467 C468 1.400 . S
C467 C472 1.490 . S
C468 H458 0.930 . S
C468 C467 1.400 . S
C468 C471 1.386 . S
H469 C485 0.930 . S
H470 C486 0.931 . S
C471 H459 0.929 . S
C471 C465 1.390 . S
C471 C468 1.386 . S
C472 C467 1.490 . S
C472 C474 1.395 . S
C472 C475 1.403 . S
H473 C479 0.930 . S
C474 H460 0.930 . S
C474 C472 1.395 . S
C474 C477 1.403 . S
C475 C472 1.403 . S
C475 C476 1.524 . S
C475 C479 1.400 . S
C476 H461 0.960 . S
C476 H462 0.960 . S
C476 H463 0.960 . S
C476 C475 1.524 . S
C477 C474 1.403 . S
C477 C478 1.392 . S
C477 C481 1.495 . S
C478 C477 1.392 . S
C478 C479 1.385 . S
C478 C480 1.478 . S
C479 H473 0.930 . S
C479 C475 1.400 . S
C479 C478 1.385 . S
C480 C478 1.478 . S
C480 C482 1.381 . S
C480 C486 1.383 . S
C481 C477 1.495 . S
C481 H487 0.959 . S
C481 H488 0.961 . S
C481 H489 0.960 . S
C482 C480 1.381 . S
C482 C483 1.394 . S
C482 H490 0.930 . S
C483 C482 1.394 . S
C483 C484 1.383 . S
C483 H491 0.929 . S
C484 C483 1.383 . S
C484 C485 1.377 . S
C485 H469 0.930 . S
C485 C484 1.377 . S
C485 C486 1.379 . S
C486 H470 0.931 . S
C486 C480 1.383 . S
C486 C485 1.379 . S
H487 C481 0.959 . S
H488 C481 0.961 . S
H489 C481 0.960 . S
H490 C482 0.930 . S
H491 C483 0.929 . S
H492 C500 0.929 . S
H493 C502 0.930 . S
H494 C504 0.930 . S
H495 C507 0.929 . S
H496 C510 0.930 . S
H497 C512 0.960 . S
H498 C512 0.960 . S
H499 C512 0.960 . S
C500 H492 0.929 . S
C500 C501 1.377 . S
C500 C502 1.384 . S
C501 C500 1.377 . S
C501 C507 1.390 . S
C502 H493 0.930 . S
C502 C500 1.384 . S
C502 C503 1.372 . S
C503 C502 1.372 . S
C503 C504 1.400 . S
C503 C508 1.490 . S
C504 H494 0.930 . S
C504 C503 1.400 . S
C504 C507 1.386 . S
H505 C521 0.930 . S
H506 C522 0.931 . S
C507 H495 0.929 . S
C507 C501 1.390 . S
C507 C504 1.386 . S
C508 C503 1.490 . S
C508 C510 1.395 . S
C508 C511 1.403 . S
H509 C515 0.930 . S
C510 H496 0.930 . S
C510 C508 1.395 . S
C510 C513 1.403 . S
C511 C508 1.403 . S
C511 C512 1.524 . S
C511 C515 1.400 . S
C512 H497 0.960 . S
C512 H498 0.960 . S
C512 H499 0.960 . S
C512 C511 1.524 . S
C513 C510 1.403 . S
C513 C514 1.392 . S
C513 C517 1.495 . S
C514 C513 1.392 . S
C514 C515 1.385 . S
C514 C516 1.478 . S
C515 H509 0.930 . S
C515 C511 1.400 . S
C515 C514 1.385 . S
C516 C514 1.478 . S
C516 C518 1.381 . S
C516 C522 1.383 . S
C517 C513 1.495 . S
C517 H523 0.959 . S
C517 H524 0.961 . S
C517 H525 0.960 . S
C518 C516 1.381 . S
C518 C519 1.394 . S
C518 H526 0.930 . S
C519 C518 1.394 . S
C519 C520 1.383 . S
C519 H527 0.929 . S
C520 C519 1.383 . S
C520 C521 1.377 . S
C521 H505 0.930 . S
C521 C520 1.377 . S
C521 C522 1.379 . S
C522 H506 0.931 . S
C522 C516 1.383 . S
C522 C521 1.379 . S
H523 C517 0.959 . S
H524 C517 0.961 . S
H525 C517 0.960 . S
H526 C518 0.930 . S
H527 C519 0.929 . S
H528 C536 0.929 . S
H529 C538 0.930 . S
H530 C540 0.930 . S
H531 C543 0.929 . S
H532 C546 0.930 . S
H533 C548 0.960 . S
H534 C548 0.960 . S
H535 C548 0.960 . S
C536 H528 0.929 . S
C536 C537 1.377 . S
C536 C538 1.384 . S
C537 C536 1.377 . S
C537 C543 1.390 . S
C538 H529 0.930 . S
C538 C536 1.384 . S
C538 C539 1.372 . S
C539 C538 1.372 . S
C539 C540 1.400 . S
C539 C544 1.490 . S
C540 H530 0.930 . S
C540 C539 1.400 . S
C540 C543 1.386 . S
H541 C557 0.930 . S
H542 C558 0.931 . S
C543 H531 0.929 . S
C543 C537 1.390 . S
C543 C540 1.386 . S
C544 C539 1.490 . S
C544 C546 1.395 . S
C544 C547 1.403 . S
H545 C551 0.930 . S
C546 H532 0.930 . S
C546 C544 1.395 . S
C546 C549 1.403 . S
C547 C544 1.403 . S
C547 C548 1.524 . S
C547 C551 1.400 . S
C548 H533 0.960 . S
C548 H534 0.960 . S
C548 H535 0.960 . S
C548 C547 1.524 . S
C549 C546 1.403 . S
C549 C550 1.392 . S
C549 C553 1.495 . S
C550 C549 1.392 . S
C550 C551 1.385 . S
C550 C552 1.478 . S
C551 H545 0.930 . S
C551 C547 1.400 . S
C551 C550 1.385 . S
C552 C550 1.478 . S
C552 C554 1.381 . S
C552 C558 1.383 . S
C553 C549 1.495 . S
C553 H559 0.959 . S
C553 H560 0.961 . S
C553 H561 0.960 . S
C554 C552 1.381 . S
C554 C555 1.394 . S
C554 H562 0.930 . S
C555 C554 1.394 . S
C555 C556 1.383 . S
C555 H563 0.929 . S
C556 C555 1.383 . S
C556 C557 1.377 . S
C557 H541 0.930 . S
C557 C556 1.377 . S
C557 C558 1.379 . S
C558 H542 0.931 . S
C558 C552 1.383 . S
C558 C557 1.379 . S
H559 C553 0.959 . S
H560 C553 0.961 . S
H561 C553 0.960 . S
H562 C554 0.930 . S
H563 C555 0.929 . S
H564 C572 0.929 . S
H565 C574 0.930 . S
H566 C576 0.930 . S
H567 C579 0.929 . S
H568 C582 0.930 . S
H569 C584 0.960 . S
H570 C584 0.960 . S
H571 C584 0.960 . S
C572 H564 0.929 . S
C572 C573 1.377 . S
C572 C574 1.384 . S
C573 C572 1.377 . S
C573 C579 1.390 . S
C574 H565 0.930 . S
C574 C572 1.384 . S
C574 C575 1.372 . S
C575 C574 1.372 . S
C575 C576 1.400 . S
C575 C580 1.490 . S
C576 H566 0.930 . S
C576 C575 1.400 . S
C576 C579 1.386 . S
H577 C593 0.930 . S
H578 C594 0.931 . S
C579 H567 0.929 . S
C579 C573 1.390 . S
C579 C576 1.386 . S
C580 C575 1.490 . S
C580 C582 1.395 . S
C580 C583 1.403 . S
H581 C587 0.930 . S
C582 H568 0.930 . S
C582 C580 1.395 . S
C582 C585 1.403 . S
C583 C580 1.403 . S
C583 C584 1.524 . S
C583 C587 1.400 . S
C584 H569 0.960 . S
C584 H570 0.960 . S
C584 H571 0.960 . S
C584 C583 1.524 . S
C585 C582 1.403 . S
C585 C586 1.392 . S
C585 C589 1.495 . S
C586 C585 1.392 . S
C586 C587 1.385 . S
C586 C588 1.478 . S
C587 H581 0.930 . S
C587 C583 1.400 . S
C587 C586 1.385 . S
C588 C586 1.478 . S
C588 C590 1.381 . S
C588 C594 1.383 . S
C589 C585 1.495 . S
C589 H595 0.959 . S
C589 H596 0.961 . S
C589 H597 0.960 . S
C590 C588 1.381 . S
C590 C591 1.394 . S
C590 H598 0.930 . S
C591 C590 1.394 . S
C591 C592 1.383 . S
C591 H599 0.929 . S
C592 C591 1.383 . S
C592 C593 1.377 . S
C593 H577 0.930 . S
C593 C592 1.377 . S
C593 C594 1.379 . S
C594 H578 0.931 . S
C594 C588 1.383 . S
C594 C593 1.379 . S
H595 C589 0.959 . S
H596 C589 0.961 . S
H597 C589 0.960 . S
H598 C590 0.930 . S
H599 C591 0.929 . S
H600 C608 0.929 . S
H601 C610 0.930 . S
H602 C612 0.930 . S
H603 C615 0.929 . S
H604 C618 0.930 . S
H605 C620 0.960 . S
H606 C620 0.960 . S
H607 C620 0.960 . S
C608 H600 0.929 . S
C608 C609 1.377 . S
C608 C610 1.384 . S
C609 C608 1.377 . S
C609 C615 1.390 . S
C610 H601 0.930 . S
C610 C608 1.384 . S
C610 C611 1.372 . S
C611 C610 1.372 . S
C611 C612 1.400 . S
C611 C616 1.490 . S
C612 H602 0.930 . S
C612 C611 1.400 . S
C612 C615 1.386 . S
H613 C629 0.930 . S
H614 C630 0.931 . S
C615 H603 0.929 . S
C615 C609 1.390 . S
C615 C612 1.386 . S
C616 C611 1.490 . S
C616 C618 1.395 . S
C616 C619 1.403 . S
H617 C623 0.930 . S
C618 H604 0.930 . S
C618 C616 1.395 . S
C618 C621 1.403 . S
C619 C616 1.403 . S
C619 C620 1.524 . S
C619 C623 1.400 . S
C620 H605 0.960 . S
C620 H606 0.960 . S
C620 H607 0.960 . S
C620 C619 1.524 . S
C621 C618 1.403 . S
C621 C622 1.392 . S
C621 C625 1.495 . S
C622 C621 1.392 . S
C622 C623 1.385 . S
C622 C624 1.478 . S
C623 H617 0.930 . S
C623 C619 1.400 . S
C623 C622 1.385 . S
C624 C622 1.478 . S
C624 C626 1.381 . S
C624 C630 1.383 . S
C625 C621 1.495 . S
C625 H631 0.959 . S
C625 H632 0.961 . S
C625 H633 0.960 . S
C626 C624 1.381 . S
C626 C627 1.394 . S
C626 H634 0.930 . S
C627 C626 1.394 . S
C627 C628 1.383 . S
C627 H635 0.929 . S
C628 C627 1.383 . S
C628 C629 1.377 . S
C629 H613 0.930 . S
C629 C628 1.377 . S
C629 C630 1.379 . S
C630 H614 0.931 . S
C630 C624 1.383 . S
C630 C629 1.379 . S
H631 C625 0.959 . S
H632 C625 0.961 . S
H633 C625 0.960 . S
H634 C626 0.930 . S
H635 C627 0.929 . S
H636 C644 0.929 . S
H637 C646 0.930 . S
H638 C648 0.930 . S
H639 C651 0.929 . S
H640 C654 0.930 . S
H641 C656 0.960 . S
H642 C656 0.960 . S
H643 C656 0.960 . S
C644 H636 0.929 . S
C644 C645 1.377 . S
C644 C646 1.384 . S
C645 C644 1.377 . S
C645 C651 1.390 . S
C646 H637 0.930 . S
C646 C644 1.384 . S
C646 C647 1.372 . S
C647 C646 1.372 . S
C647 C648 1.400 . S
C647 C652 1.490 . S
C648 H638 0.930 . S
C648 C647 1.400 . S
C648 C651 1.386 . S
H649 C665 0.930 . S
H650 C666 0.931 . S
C651 H639 0.929 . S
C651 C645 1.390 . S
C651 C648 1.386 . S
C652 C647 1.490 . S
C652 C654 1.395 . S
C652 C655 1.403 . S
H653 C659 0.930 . S
C654 H640 0.930 . S
C654 C652 1.395 . S
C654 C657 1.403 . S
C655 C652 1.403 . S
C655 C656 1.524 . S
C655 C659 1.400 . S
C656 H641 0.960 . S
C656 H642 0.960 . S
C656 H643 0.960 . S
C656 C655 1.524 . S
C657 C654 1.403 . S
C657 C658 1.392 . S
C657 C661 1.495 . S
C658 C657 1.392 . S
C658 C659 1.385 . S
C658 C660 1.478 . S
C659 H653 0.930 . S
C659 C655 1.400 . S
C659 C658 1.385 . S
C660 C658 1.478 . S
C660 C662 1.381 . S
C660 C666 1.383 . S
C661 C657 1.495 . S
C661 H667 0.959 . S
C661 H668 0.961 . S
C661 H669 0.960 . S
C662 C660 1.381 . S
C662 C663 1.394 . S
C662 H670 0.930 . S
C663 C662 1.394 . S
C663 C664 1.383 . S
C663 H671 0.929 . S
C664 C663 1.383 . S
C664 C665 1.377 . S
C665 H649 0.930 . S
C665 C664 1.377 . S
C665 C666 1.379 . S
C666 H650 0.931 . S
C666 C660 1.383 . S
C666 C665 1.379 . S
H667 C661 0.959 . S
H668 C661 0.961 . S
H669 C661 0.960 . S
H670 C662 0.930 . S
H671 C663 0.929 . S
H672 C680 0.929 . S
H673 C682 0.930 . S
H674 C684 0.930 . S
H675 C687 0.929 . S
H676 C690 0.930 . S
H677 C692 0.960 . S
H678 C692 0.960 . S
H679 C692 0.960 . S
C680 H672 0.929 . S
C680 C681 1.377 . S
C680 C682 1.384 . S
C681 C680 1.377 . S
C681 C687 1.390 . S
C682 H673 0.930 . S
C682 C680 1.384 . S
C682 C683 1.372 . S
C683 C682 1.372 . S
C683 C684 1.400 . S
C683 C688 1.490 . S
C684 H674 0.930 . S
C684 C683 1.400 . S
C684 C687 1.386 . S
H685 C701 0.930 . S
H686 C702 0.931 . S
C687 H675 0.929 . S
C687 C681 1.390 . S
C687 C684 1.386 . S
C688 C683 1.490 . S
C688 C690 1.395 . S
C688 C691 1.403 . S
H689 C695 0.930 . S
C690 H676 0.930 . S
C690 C688 1.395 . S
C690 C693 1.403 . S
C691 C688 1.403 . S
C691 C692 1.524 . S
C691 C695 1.400 . S
C692 H677 0.960 . S
C692 H678 0.960 . S
C692 H679 0.960 . S
C692 C691 1.524 . S
C693 C690 1.403 . S
C693 C694 1.392 . S
C693 C697 1.495 . S
C694 C693 1.392 . S
C694 C695 1.385 . S
C694 C696 1.478 . S
C695 H689 0.930 . S
C695 C691 1.400 . S
C695 C694 1.385 . S
C696 C694 1.478 . S
C696 C698 1.381 . S
C696 C702 1.383 . S
C697 C693 1.495 . S
C697 H703 0.959 . S
C697 H704 0.961 . S
C697 H705 0.960 . S
C698 C696 1.381 . S
C698 C699 1.394 . S
C698 H706 0.930 . S
C699 C698 1.394 . S
C699 C700 1.383 . S
C699 H707 0.929 . S
C700 C699 1.383 . S
C700 C701 1.377 . S
C701 H685 0.930 . S
C701 C700 1.377 . S
C701 C702 1.379 . S
C702 H686 0.931 . S
C702 C696 1.383 . S
C702 C701 1.379 . S
H703 C697 0.959 . S
H704 C697 0.961 . S
H705 C697 0.960 . S
H706 C698 0.930 . S
H707 C699 0.929 . S
H708 C716 0.929 . S
H709 C718 0.930 . S
H710 C720 0.930 . S
H711 C723 0.929 . S
H712 C726 0.930 . S
H713 C728 0.960 . S
H714 C728 0.960 . S
H715 C728 0.960 . S
C716 H708 0.929 . S
C716 C717 1.377 . S
C716 C718 1.384 . S
C717 C716 1.377 . S
C717 C723 1.390 . S
C718 H709 0.930 . S
C718 C716 1.384 . S
C718 C719 1.372 . S
C719 C718 1.372 . S
C719 C720 1.400 . S
C719 C724 1.490 . S
C720 H710 0.930 . S
C720 C719 1.400 . S
C720 C723 1.386 . S
H721 C737 0.930 . S
H722 C738 0.931 . S
C723 H711 0.929 . S
C723 C717 1.390 . S
C723 C720 1.386 . S
C724 C719 1.490 . S
C724 C726 1.395 . S
C724 C727 1.403 . S
H725 C731 0.930 . S
C726 H712 0.930 . S
C726 C724 1.395 . S
C726 C729 1.403 . S
C727 C724 1.403 . S
C727 C728 1.524 . S
C727 C731 1.400 . S
C728 H713 0.960 . S
C728 H714 0.960 . S
C728 H715 0.960 . S
C728 C727 1.524 . S
C729 C726 1.403 . S
C729 C730 1.392 . S
C729 C733 1.495 . S
C730 C729 1.392 . S
C730 C731 1.385 . S
C730 C732 1.478 . S
C731 H725 0.930 . S
C731 C727 1.400 . S
C731 C730 1.385 . S
C732 C730 1.478 . S
C732 C734 1.381 . S
C732 C738 1.383 . S
C733 C729 1.495 . S
C733 H739 0.959 . S
C733 H740 0.961 . S
C733 H741 0.960 . S
C734 C732 1.381 . S
C734 C735 1.394 . S
C734 H742 0.930 . S
C735 C734 1.394 . S
C735 C736 1.383 . S
C735 H743 0.929 . S
C736 C735 1.383 . S
C736 C737 1.377 . S
C737 H721 0.930 . S
C737 C736 1.377 . S
C737 C738 1.379 . S
C738 H722 0.931 . S
C738 C732 1.383 . S
C738 C737 1.379 . S
H739 C733 0.959 . S
H740 C733 0.961 . S
H741 C733 0.960 . S
H742 C734 0.930 . S
H743 C735 0.929 . S
H744 C752 0.929 . S
H745 C754 0.930 . S
H746 C756 0.930 1_655 S
H747 C759 0.929 1_655 S
H748 C762 0.930 . S
H749 C764 0.960 . S
H750 C764 0.960 . S
H751 C764 0.960 . S
C752 H744 0.929 . S
C752 C753 1.377 . S
C752 C754 1.384 . S
C753 C752 1.377 . S
C753 C759 1.390 . S
C754 H745 0.930 . S
C754 C752 1.384 . S
C754 C755 1.372 . S
C755 C754 1.372 . S
C755 C756 1.400 . S
C755 C760 1.490 . S
C756 H746 0.930 1_455 S
C756 C755 1.400 . S
C756 C759 1.386 . S
H757 C773 0.930 . S
H758 C774 0.931 . S
C759 H747 0.929 1_455 S
C759 C753 1.390 . S
C759 C756 1.386 . S
C760 C755 1.490 . S
C760 C762 1.395 . S
C760 C763 1.403 . S
H761 C767 0.930 1_655 S
C762 H748 0.930 . S
C762 C760 1.395 . S
C762 C765 1.403 . S
C763 C760 1.403 . S
C763 C764 1.524 1_455 S
C763 C767 1.400 . S
C764 H749 0.960 . S
C764 H750 0.960 . S
C764 H751 0.960 . S
C764 C763 1.524 1_655 S
C765 C762 1.403 . S
C765 C766 1.392 . S
C765 C769 1.495 . S
C766 C765 1.392 . S
C766 C767 1.385 . S
C766 C768 1.478 . S
C767 H761 0.930 1_455 S
C767 C763 1.400 . S
C767 C766 1.385 . S
C768 C766 1.478 . S
C768 C770 1.381 1_554 S
C768 C774 1.383 1_554 S
C769 C765 1.495 . S
C769 H775 0.959 . S
C769 H776 0.961 . S
C769 H777 0.960 . S
C770 C768 1.381 1_556 S
C770 C771 1.394 . S
C770 H778 0.930 1_556 S
C771 C770 1.394 . S
C771 C772 1.383 . S
C771 H779 0.929 . S
C772 C771 1.383 . S
C772 C773 1.377 . S
C773 H757 0.930 . S
C773 C772 1.377 . S
C773 C774 1.379 . S
C774 H758 0.931 . S
C774 C768 1.383 1_556 S
C774 C773 1.379 . S
H775 C769 0.959 . S
H776 C769 0.961 . S
H777 C769 0.960 . S
H778 C770 0.930 1_554 S
H779 C771 0.929 . S
H780 C788 0.929 . S
H781 C790 0.930 . S
H782 C792 0.930 . S
H783 C795 0.929 . S
H784 C798 0.930 . S
H785 C800 0.960 . S
H786 C800 0.960 . S
H787 C800 0.960 1_545 S
C788 H780 0.929 . S
C788 C789 1.377 1_565 S
C788 C790 1.384 . S
C789 C788 1.377 1_545 S
C789 C795 1.390 . S
C790 H781 0.930 . S
C790 C788 1.384 . S
C790 C791 1.372 1_565 S
C791 C790 1.372 1_545 S
C791 C792 1.400 . S
C791 C796 1.490 . S
C792 H782 0.930 . S
C792 C791 1.400 . S
C792 C795 1.386 . S
H793 C809 0.930 . S
H794 C810 0.931 . S
C795 H783 0.929 . S
C795 C789 1.390 . S
C795 C792 1.386 . S
C796 C791 1.490 . S
C796 C798 1.395 . S
C796 C799 1.403 . S
H797 C803 0.930 1_565 S
C798 H784 0.930 . S
C798 C796 1.395 . S
C798 C801 1.403 . S
C799 C796 1.403 . S
C799 C800 1.524 1_545 S
C799 C803 1.400 . S
C800 H785 0.960 . S
C800 H786 0.960 . S
C800 H787 0.960 1_565 S
C800 C799 1.524 1_565 S
C801 C798 1.403 . S
C801 C802 1.392 . S
C801 C805 1.495 . S
C802 C801 1.392 . S
C802 C803 1.385 . S
C802 C804 1.478 . S
C803 H797 0.930 1_545 S
C803 C799 1.400 . S
C803 C802 1.385 . S
C804 C802 1.478 . S
C804 C806 1.381 . S
C804 C810 1.383 . S
C805 C801 1.495 . S
C805 H811 0.959 . S
C805 H812 0.961 . S
C805 H813 0.960 . S
C806 C804 1.381 . S
C806 C807 1.394 . S
C806 H814 0.930 1_545 S
C807 C806 1.394 . S
C807 C808 1.383 . S
C807 H815 0.929 1_545 S
C808 C807 1.383 . S
C808 C809 1.377 . S
C809 H793 0.930 . S
C809 C808 1.377 . S
C809 C810 1.379 . S
C810 H794 0.931 . S
C810 C804 1.383 . S
C810 C809 1.379 . S
H811 C805 0.959 . S
H812 C805 0.961 . S
H813 C805 0.960 . S
H814 C806 0.930 1_565 S
H815 C807 0.929 1_565 S
H816 C824 0.929 . S
H817 C826 0.930 . S
H818 C828 0.930 . S
H819 C831 0.929 . S
H820 C834 0.930 . S
H821 C836 0.960 . S
H822 C836 0.960 . S
H823 C836 0.960 . S
C824 H816 0.929 . S
C824 C825 1.377 . S
C824 C826 1.384 . S
C825 C824 1.377 . S
C825 C831 1.390 . S
C826 H817 0.930 . S
C826 C824 1.384 . S
C826 C827 1.372 . S
C827 C826 1.372 . S
C827 C828 1.400 . S
C827 C832 1.490 . S
C828 H818 0.930 . S
C828 C827 1.400 . S
C828 C831 1.386 . S
H829 C845 0.930 . S
H830 C846 0.931 . S
C831 H819 0.929 . S
C831 C825 1.390 . S
C831 C828 1.386 . S
C832 C827 1.490 . S
C832 C834 1.395 . S
C832 C835 1.403 . S
H833 C839 0.930 . S
C834 H820 0.930 . S
C834 C832 1.395 . S
C834 C837 1.403 . S
C835 C832 1.403 . S
C835 C836 1.524 . S
C835 C839 1.400 . S
C836 H821 0.960 . S
C836 H822 0.960 . S
C836 H823 0.960 . S
C836 C835 1.524 . S
C837 C834 1.403 . S
C837 C838 1.392 . S
C837 C841 1.495 . S
C838 C837 1.392 . S
C838 C839 1.385 . S
C838 C840 1.478 . S
C839 H833 0.930 . S
C839 C835 1.400 . S
C839 C838 1.385 . S
C840 C838 1.478 . S
C840 C842 1.381 . S
C840 C846 1.383 . S
C841 C837 1.495 . S
C841 H847 0.959 . S
C841 H848 0.961 . S
C841 H849 0.960 . S
C842 C840 1.381 . S
C842 C843 1.394 . S
C842 H850 0.930 . S
C843 C842 1.394 . S
C843 C844 1.383 . S
C843 H851 0.929 . S
C844 C843 1.383 . S
C844 C845 1.377 . S
C845 H829 0.930 . S
C845 C844 1.377 . S
C845 C846 1.379 . S
C846 H830 0.931 . S
C846 C840 1.383 . S
C846 C845 1.379 . S
H847 C841 0.959 . S
H848 C841 0.961 . S
H849 C841 0.960 . S
H850 C842 0.930 . S
H851 C843 0.929 . S
H852 C860 0.929 . S
H853 C862 0.930 . S
H854 C864 0.930 . S
H855 C867 0.929 . S
H856 C870 0.930 . S
H857 C872 0.960 . S
H858 C872 0.960 . S
H859 C872 0.960 . S
C860 H852 0.929 . S
C860 C861 1.377 . S
C860 C862 1.384 . S
C861 C860 1.377 . S
C861 C867 1.390 1_545 S
C862 H853 0.930 . S
C862 C860 1.384 . S
C862 C863 1.372 . S
C863 C862 1.372 . S
C863 C864 1.400 1_545 S
C863 C868 1.490 . S
C864 H854 0.930 . S
C864 C863 1.400 1_565 S
C864 C867 1.386 . S
H865 C881 0.930 . S
H866 C882 0.931 . S
C867 H855 0.929 . S
C867 C861 1.390 1_565 S
C867 C864 1.386 . S
C868 C863 1.490 . S
C868 C870 1.395 1_545 S
C868 C871 1.403 . S
H869 C875 0.930 . S
C870 H856 0.930 . S
C870 C868 1.395 1_565 S
C870 C873 1.403 . S
C871 C868 1.403 . S
C871 C872 1.524 . S
C871 C875 1.400 . S
C872 H857 0.960 . S
C872 H858 0.960 . S
C872 H859 0.960 . S
C872 C871 1.524 . S
C873 C870 1.403 . S
C873 C874 1.392 1_565 S
C873 C877 1.495 . S
C874 C873 1.392 1_545 S
C874 C875 1.385 . S
C874 C876 1.478 . S
C875 H869 0.930 . S
C875 C871 1.400 . S
C875 C874 1.385 . S
C876 C874 1.478 . S
C876 C878 1.381 . S
C876 C882 1.383 1_545 S
C877 C873 1.495 . S
C877 H883 0.959 . S
C877 H884 0.961 . S
C877 H885 0.960 1_565 S
C878 C876 1.381 . S
C878 C879 1.394 . S
C878 H886 0.930 . S
C879 C878 1.394 . S
C879 C880 1.395 . S
C879 H887 0.929 . S
C880 C879 1.395 . S
C880 C881 1.366 1_545 S
C881 H865 0.930 . S
C881 C880 1.366 1_565 S
C881 C882 1.379 . S
C882 H866 0.931 . S
C882 C876 1.383 1_565 S
C882 C881 1.379 . S
H883 C877 0.959 . S
H884 C877 0.961 . S
H885 C877 0.960 1_545 S
H886 C878 0.930 . S
H887 C879 0.929 . S
H888 C896 0.929 . S
H889 C898 0.930 . S
H890 C900 0.930 . S
H891 C903 0.929 . S
H892 C906 0.930 . S
H893 C908 0.960 . S
H894 C908 0.960 . S
H895 C908 0.960 . S
C896 H888 0.929 . S
C896 C897 1.377 . S
C896 C898 1.384 . S
C897 C896 1.377 . S
C897 C903 1.390 . S
C898 H889 0.930 . S
C898 C896 1.384 . S
C898 C899 1.372 . S
C899 C898 1.372 . S
C899 C900 1.400 . S
C899 C904 1.490 . S
C900 H890 0.930 . S
C900 C899 1.400 . S
C900 C903 1.386 . S
H901 C917 0.930 . S
H902 C918 0.931 . S
C903 H891 0.929 . S
C903 C897 1.390 . S
C903 C900 1.386 . S
C904 C899 1.490 . S
C904 C906 1.395 . S
C904 C907 1.403 . S
H905 C911 0.930 . S
C906 H892 0.930 . S
C906 C904 1.395 . S
C906 C909 1.403 . S
C907 C904 1.403 . S
C907 C908 1.524 . S
C907 C911 1.400 . S
C908 H893 0.960 . S
C908 H894 0.960 . S
C908 H895 0.960 . S
C908 C907 1.524 . S
C909 C906 1.403 . S
C909 C910 1.392 . S
C909 C913 1.495 . S
C910 C909 1.392 . S
C910 C911 1.385 . S
C910 C912 1.478 . S
C911 H905 0.930 . S
C911 C907 1.400 . S
C911 C910 1.385 . S
C912 C910 1.478 . S
C912 C914 1.381 1_556 S
C912 C918 1.383 1_556 S
C913 C909 1.495 . S
C913 H919 0.959 . S
C913 H920 0.961 . S
C913 H921 0.960 . S
C914 C912 1.381 1_554 S
C914 C915 1.394 . S
C914 H922 0.930 1_554 S
C915 C914 1.394 . S
C915 C916 1.383 . S
C915 H923 0.929 . S
C916 C915 1.383 . S
C916 C917 1.377 . S
C917 H901 0.930 . S
C917 C916 1.377 . S
C917 C918 1.379 . S
C918 H902 0.931 . S
C918 C912 1.383 1_554 S
C918 C917 1.379 . S
H919 C913 0.959 . S
H920 C913 0.961 . S
H921 C913 0.960 . S
H922 C914 0.930 1_556 S
H923 C915 0.929 . S
H924 C932 0.929 . S
H925 C934 0.930 . S
H926 C936 0.930 . S
H927 C939 0.929 . S
H928 C942 0.930 . S
H929 C944 0.960 . S
H930 C944 0.960 . S
H931 C944 0.960 1_655 S
C932 H924 0.929 . S
C932 C933 1.377 . S
C932 C934 1.384 . S
C933 C932 1.377 . S
C933 C939 1.390 1_455 S
C934 H925 0.930 . S
C934 C932 1.384 . S
C934 C935 1.372 . S
C935 C934 1.372 . S
C935 C936 1.400 1_455 S
C935 C940 1.490 . S
C936 H926 0.930 . S
C936 C935 1.400 1_655 S
C936 C939 1.386 . S
H937 C953 0.930 . S
H938 C954 0.931 . S
C939 H927 0.929 . S
C939 C933 1.390 1_655 S
C939 C936 1.386 . S
C940 C935 1.490 . S
C940 C942 1.395 . S
C940 C943 1.403 . S
H941 C947 0.930 . S
C942 H928 0.930 . S
C942 C940 1.395 . S
C942 C945 1.403 . S
C943 C940 1.403 . S
C943 C944 1.524 . S
C943 C947 1.400 . S
C944 H929 0.960 . S
C944 H930 0.960 . S
C944 H931 0.960 1_455 S
C944 C943 1.524 . S
C945 C942 1.403 . S
C945 C946 1.392 . S
C945 C949 1.495 . S
C946 C945 1.392 . S
C946 C947 1.385 . S
C946 C948 1.478 . S
C947 H941 0.930 . S
C947 C943 1.400 . S
C947 C946 1.385 . S
C948 C946 1.478 . S
C948 C950 1.381 . S
C948 C954 1.383 1_455 S
C949 C945 1.495 . S
C949 H955 0.959 . S
C949 H956 0.961 1_455 S
C949 H957 0.960 . S
C950 C948 1.381 . S
C950 C951 1.394 . S
C950 H958 0.930 . S
C951 C950 1.394 . S
C951 C952 1.383 . S
C951 H959 0.929 . S
C952 C951 1.383 . S
C952 C953 1.377 1_455 S
C953 H937 0.930 . S
C953 C952 1.377 1_655 S
C953 C954 1.379 . S
C954 H938 0.931 . S
C954 C948 1.383 1_655 S
C954 C953 1.379 . S
H955 C949 0.959 . S
H956 C949 0.961 1_655 S
H957 C949 0.960 . S
H958 C950 0.930 . S
H959 C951 0.929 . S
C321 C7 0.424 . S
C340 C303 0.402 . S
C357 C51 1.843 . S
C376 C239 1.777 . S
C393 C87 1.160 . S
C412 C271 1.151 . S
C429 C16 0.361 . S
C448 C297 0.313 . S
C484 C233 1.855 . S
C465 C42 1.903 . S
C520 C265 1.251 . S
C501 C96 1.244 . S
C537 C47 1.157 . S
C556 C175 1.173 . S
C573 C91 3.010 . S
C592 C207 2.935 . S
C609 C2 1.932 . S
C628 C137 1.882 . S
C664 C169 1.190 . S
C645 C56 1.218 . S
C700 C201 2.888 . S
C681 C82 2.922 . S
C717 C11 1.836 . S
C736 C143 1.782 . S
C772 C213 1.721 . S
C753 C19 1.698 . S
C789 C50 1.348 . S
C808 C149 1.378 . S
C825 C99 1.460 . S
C844 C181 1.489 . S
C880 C277 1.473 . S
C861 C59 1.454 . S
C916 C309 1.113 . S
C897 C90 1.113 . S
C933 C10 1.342 . S
C952 C245 1.368 . S
