# Generated by pormake.
# Topology anh, (6,3)-cn, num edge types: 1
# Building blocks:
#     Node 0, Type 0, BuildingBlock: PAMTUU_clean_sbu_0, # of connection points: 6
#     Node 1, Type 0, BuildingBlock: PAMTUU_clean_sbu_0, # of connection points: 6
#     Node 2, Type 0, BuildingBlock: PAMTUU_clean_sbu_0, # of connection points: 6
#     Node 3, Type 1, BuildingBlock: VETTIZ_charged_linker_0, # of connection points: 3
#     Node 4, Type 1, BuildingBlock: VETTIZ_charged_linker_0, # of connection points: 3
#     Node 5, Type 1, BuildingBlock: VETTIZ_charged_linker_0, # of connection points: 3
#     Node 6, Type 1, BuildingBlock: VETTIZ_charged_linker_0, # of connection points: 3
#     Node 7, Type 1, BuildingBlock: VETTIZ_charged_linker_0, # of connection points: 3
#     Node 8, Type 1, BuildingBlock: VETTIZ_charged_linker_0, # of connection points: 3
#     Edge 9, Type (0, 1), BuildingBlock: UVAHIK_clean_linker_0, # of connection points: 2
#     Edge 10, Type (0, 1), BuildingBlock: UVAHIK_clean_linker_0, # of connection points: 2
#     Edge 11, Type (0, 1), BuildingBlock: UVAHIK_clean_linker_0, # of connection points: 2
#     Edge 12, Type (0, 1), BuildingBlock: UVAHIK_clean_linker_0, # of connection points: 2
#     Edge 13, Type (0, 1), BuildingBlock: UVAHIK_clean_linker_0, # of connection points: 2
#     Edge 14, Type (0, 1), BuildingBlock: UVAHIK_clean_linker_0, # of connection points: 2
#     Edge 15, Type (0, 1), BuildingBlock: UVAHIK_clean_linker_0, # of connection points: 2
#     Edge 16, Type (0, 1), BuildingBlock: UVAHIK_clean_linker_0, # of connection points: 2
#     Edge 17, Type (0, 1), BuildingBlock: UVAHIK_clean_linker_0, # of connection points: 2
#     Edge 18, Type (0, 1), BuildingBlock: UVAHIK_clean_linker_0, # of connection points: 2
#     Edge 19, Type (0, 1), BuildingBlock: UVAHIK_clean_linker_0, # of connection points: 2
#     Edge 20, Type (0, 1), BuildingBlock: UVAHIK_clean_linker_0, # of connection points: 2
#     Edge 21, Type (0, 1), BuildingBlock: UVAHIK_clean_linker_0, # of connection points: 2
#     Edge 22, Type (0, 1), BuildingBlock: UVAHIK_clean_linker_0, # of connection points: 2
#     Edge 23, Type (0, 1), BuildingBlock: UVAHIK_clean_linker_0, # of connection points: 2
#     Edge 24, Type (0, 1), BuildingBlock: UVAHIK_clean_linker_0, # of connection points: 2
#     Edge 25, Type (0, 1), BuildingBlock: UVAHIK_clean_linker_0, # of connection points: 2
#     Edge 26, Type (0, 1), BuildingBlock: UVAHIK_clean_linker_0, # of connection points: 2
# Relax obj value: 0.204
# Max RMSD: 0.185
# Mean RMSD: 0.153
data_MOF--net-anh--node1-PAMTUU_clean_sbu_0--node2-VETTIZ_charged_linker_0--edge1-UVAHIK_clean_linker_0
_symmetry_space_group_name_H-M    P1
_symmetry_Int_Tables_number       1
_symmetry_cell_setting            triclinic
loop_
_symmetry_equiv_pos_as_xyz
'x, y, z'
_cell_length_a     45.384895
_cell_length_b     45.367267
_cell_length_c     82.061031
_cell_angle_alpha  93.633749
_cell_angle_beta   90.545607
_cell_angle_gamma 120.20888
loop_
_atom_site_label
_atom_site_type_symbol
_atom_site_fract_x
_atom_site_fract_y
_atom_site_fract_z
_atom_type_partial_charge
Tb0 Tb 0.07678 0.5856 0.1632 0.0
Tb1 Tb 0.11774 0.54447 0.16364 0.0
C2 C 0.09748 0.56256 0.13107 0.0
C3 C 1.00398 0.59394 0.16994 0.0
C4 C 0.93486 0.54848 0.17497 0.0
C5 C 0.9443 0.57659 0.16561 0.0
C6 C 0.97876 0.59909 0.163 0.0
C7 C 0.99456 0.56744 0.18033 0.0
C8 C 0.9603 0.54486 0.18279 0.0
C9 C 1.03865 0.61081 0.16395 0.0
O10 O 1.03631 0.53093 0.15963 0.0
O11 O 0.0651 0.50532 0.16875 0.0
O12 O 0.12604 0.56976 0.18789 0.0
O13 O 0.07655 0.57118 0.18788 0.0
O14 O 0.15152 0.53136 0.15259 0.0
O15 O 0.12734 0.50958 0.17479 0.0
O16 O 0.15878 0.59829 0.16201 0.0
O17 O 0.13029 0.62788 0.16696 0.0
O18 O 0.09762 0.58837 0.13927 0.0
O19 O 0.09657 0.53768 0.1388 0.0
C20 C 1.03612 0.50375 0.16468 0.0
O21 O 0.06316 0.6193 0.17493 0.0
O22 O 1.0419 0.59495 0.15088 0.0
C23 C 0.10261 0.57277 0.19567 0.0
C24 C 0.18449 0.52432 0.17284 0.0
C25 C 0.24734 0.54378 0.18912 0.0
C26 C 0.21825 0.51194 0.19132 0.0
C27 C 0.18716 0.50227 0.18319 0.0
C28 C 0.21319 0.55653 0.17098 0.0
C29 C 0.24432 0.56605 0.17895 0.0
C30 C 0.15126 0.51425 0.16485 0.0
C31 C 0.15902 0.62752 0.16487 0.0
H32 H 0.92501 0.57964 0.15933 0.0
H33 H 0.98551 0.61903 0.15475 0.0
H34 H 1.01353 0.56267 0.18566 0.0
H35 H 0.95361 0.52342 0.19007 0.0
H36 H 0.21955 0.49434 0.19921 0.0
H37 H 0.16513 0.47756 0.185 0.0
H38 H 0.21173 0.57431 0.16327 0.0
H39 H 0.26626 0.59049 0.17671 0.0
Tb40 Tb 0.55888 0.03984 0.49655 0.0
Tb41 Tb 0.64136 0.08073 0.49998 0.0
C42 C 0.60179 0.06382 0.46507 0.0
C43 C 0.47371 0.97733 0.50757 0.0
C44 C 0.43376 0.92049 0.52536 0.0
C45 C 0.41826 0.9319 0.5144 0.0
C46 C 0.43815 0.96011 0.50554 0.0
C47 C 0.48927 0.96691 0.51894 0.0
C48 C 0.46944 0.93859 0.52773 0.0
C49 C 0.49483 1.00513 0.4974 0.0
O50 O 0.57231 1.00005 0.50101 0.0
O51 O 0.62982 1.02724 0.49663 0.0
O52 O 0.62434 0.05827 0.5231 0.0
O53 O 0.57456 0.05868 0.5219 0.0
O54 O 0.68965 0.09608 0.49074 0.0
O55 O 0.68478 0.1161 0.51448 0.0
O56 O 0.62571 0.11971 0.50412 0.0
O57 O 0.57203 0.09234 0.49187 0.0
O58 O 0.57229 0.04368 0.4712 0.0
O59 O 0.62992 0.08206 0.47427 0.0
C60 C 0.60076 0.99907 0.49901 0.0
O61 O 0.51342 1.03498 0.50527 0.0
O62 O 0.5124 0.99832 0.48693 0.0
C63 C 0.59839 0.05737 0.53032 0.0
C64 C 0.72159 0.15536 0.49713 0.0
C65 C 0.74573 0.22397 0.49154 0.0
C66 C 0.76569 0.21522 0.50105 0.0
C67 C 0.75345 0.18093 0.50399 0.0
C68 C 0.70268 0.16424 0.48696 0.0
C69 C 0.71455 0.19823 0.48426 0.0
C70 C 0.70473 0.12052 0.50242 0.0
C71 C 0.59911 0.12073 0.4981 0.0
H72 H 0.39083 0.91809 0.51212 0.0
H73 H 0.42583 0.96787 0.49679 0.0
H74 H 0.51681 0.98019 0.52072 0.0
H75 H 0.48201 0.93045 0.53613 0.0
H76 H 0.78988 0.23496 0.50674 0.0
H77 H 0.76808 0.17457 0.51208 0.0
H78 H 0.67783 0.14506 0.48173 0.0
H79 H 0.69893 0.20453 0.47682 0.0
Tb80 Tb 0.59869 0.54588 0.82806 0.0
Tb81 Tb 0.63872 0.62825 0.83297 0.0
C82 C 0.61816 0.5896 0.79823 0.0
C83 C 0.58227 0.45948 0.8326 0.0
C84 C 0.60817 0.42102 0.8462 0.0
C85 C 0.61654 0.43217 0.83043 0.0
C86 C 0.60367 0.45111 0.82368 0.0
C87 C 0.57353 0.44796 0.84831 0.0
C88 C 0.58641 0.42898 0.85506 0.0
C89 C 0.57088 0.48189 0.826 0.0
O90 O 0.65302 0.56051 0.82605 0.0
O91 O 0.68058 0.61709 0.83599 0.0
O92 O 0.61738 0.60853 0.85615 0.0
O93 O 0.6208 0.56047 0.85268 0.0
O94 O 0.65303 0.6751 0.82336 0.0
O95 O 0.66802 0.67346 0.84816 0.0
O96 O 0.5847 0.61444 0.82937 0.0
O97 O 0.55725 0.55705 0.83315 0.0
O98 O 0.59358 0.56329 0.8048 0.0
O99 O 0.64302 0.6147 0.80744 0.0
C100 C 0.68133 0.58899 0.83133 0.0
O101 O 0.56325 0.49907 0.83681 0.0
O102 O 0.58884 0.50082 0.81449 0.0
C103 C 0.61891 0.58341 0.86229 0.0
C104 C 0.64593 0.7094 0.84318 0.0
C105 C 0.59723 0.73038 0.84433 0.0
C106 C 0.62872 0.7503 0.83716 0.0
C107 C 0.65277 0.73968 0.83647 0.0
C108 C 0.61638 0.69172 0.85199 0.0
C109 C 0.59229 0.70218 0.85261 0.0
C110 C 0.66419 0.69184 0.83765 0.0
C111 C 0.55639 0.58549 0.83164 0.0
H112 H 0.63254 0.42569 0.82313 0.0
H113 H 0.61074 0.45938 0.81151 0.0
H114 H 0.55706 0.45394 0.85551 0.0
H115 H 0.57949 0.4207 0.86723 0.0
H116 H 0.63385 0.77285 0.83113 0.0
H117 H 0.67537 0.75359 0.82958 0.0
H118 H 0.61037 0.66803 0.85716 0.0
H119 H 0.5685 0.68624 0.85829 0.0
C120 C 0.68634 0.15691 0.18502 0.0
C121 C 0.71447 0.18652 0.19361 0.0
C122 C 0.71576 0.18767 0.21077 0.0
C123 C 0.66295 0.13283 0.2109 0.0
C124 C 0.66054 0.13029 0.19401 0.0
C125 C 0.62766 0.09698 0.18782 0.0
H126 H 0.48379 0.94851 0.21139 0.0
C127 C 0.63319 0.10237 0.21714 0.0
C128 C 0.61167 0.08043 0.20376 0.0
H129 H 0.50478 0.9728 0.16136 0.0
H130 H 0.55741 1.02676 0.17075 0.0
H131 H 0.55696 0.96807 0.2224 0.0
H132 H 0.49967 1.01953 0.22473 0.0
H133 H 0.52386 1.03283 0.24323 0.0
H134 H 0.49378 0.98794 0.23842 0.0
H135 H 0.52508 0.95947 0.23705 0.0
H136 H 0.56932 0.99164 0.24144 0.0
C137 C 0.6371 0.07415 0.17714 0.0
C138 C 0.60421 0.10605 0.17841 0.0
C139 C 0.62527 0.09545 0.2792 0.0
C140 C 0.60114 0.07083 0.289 0.0
C141 C 0.57353 0.0409 0.28119 0.0
C142 C 0.56942 1.03584 0.26415 0.0
C143 C 0.59319 0.06083 0.25449 0.0
C144 C 0.62069 0.08987 0.26202 0.0
C145 C 0.64344 0.11331 0.24969 0.0
C146 C 0.62479 0.09365 0.23353 0.0
C147 C 0.59542 0.06308 0.2365 0.0
C148 C 0.6789 0.11625 0.25177 0.0
C149 C 0.64374 0.14764 0.25241 0.0
C150 C 0.49952 0.96476 0.20219 0.0
C151 C 0.48967 0.95526 0.18556 0.0
C152 C 0.51124 0.97882 0.17434 0.0
C153 C 0.54189 1.01014 0.17977 0.0
C154 C 0.55126 1.01862 0.19666 0.0
C155 C 0.52945 0.99556 0.20732 0.0
C156 C 0.54107 1.00702 0.22477 0.0
C157 C 0.57355 0.04073 0.22331 0.0
C158 C 0.58069 0.04859 0.20685 0.0
C159 C 0.54831 0.98023 0.23193 0.0
C160 C 0.51326 1.01193 0.23337 0.0
H161 H 0.69413 0.16498 0.23233 0.0
H162 H 0.68417 0.15493 0.1718 0.0
H163 H 0.59929 0.12403 0.18612 0.0
H164 H 0.57927 0.08306 0.17484 0.0
H165 H 0.6162 0.11846 0.16714 0.0
H166 H 0.65527 0.06928 0.184 0.0
H167 H 0.64935 0.08668 0.16594 0.0
H168 H 0.61431 0.0491 0.17338 0.0
H169 H 0.64685 0.11877 0.28472 0.0
H170 H 0.555 1.02101 0.28829 0.0
H171 H 0.54763 1.01249 0.25925 0.0
H172 H 0.67657 0.09259 0.2563 0.0
H173 H 0.696 0.13792 0.26068 0.0
H174 H 0.6917 0.11901 0.2401 0.0
H175 H 0.61873 0.14336 0.2566 0.0
H176 H 0.64746 0.16082 0.24108 0.0
H177 H 0.66363 0.16523 0.26183 0.0
H178 H 0.73664 0.2093 0.2178 0.0
C179 C 0.69074 0.1615 0.2193 0.0
C180 C 0.59938 0.64898 0.51698 0.0
C181 C 0.60041 0.67826 0.52552 0.0
C182 C 0.60517 0.68165 0.54263 0.0
C183 C 0.60498 0.62794 0.54293 0.0
C184 C 0.60169 0.62389 0.52606 0.0
C185 C 0.60095 0.59044 0.52008 0.0
H186 H 0.5991 0.44408 0.54521 0.0
C187 C 0.60511 0.59805 0.54936 0.0
C188 C 0.60285 0.57517 0.53616 0.0
H189 H 0.6017 0.46702 0.49487 0.0
H190 H 0.60094 0.51986 0.50367 0.0
H191 H 0.65515 0.51587 0.55811 0.0
H192 H 0.54587 0.46417 0.55588 0.0
H193 H 0.55827 0.48833 0.57477 0.0
H194 H 0.56968 0.45586 0.57062 0.0
H195 H 0.62975 0.48408 0.57174 0.0
H196 H 0.6446 0.52885 0.5766 0.0
C197 C 0.63233 0.59939 0.50998 0.0
C198 C 0.56744 0.56646 0.51013 0.0
C199 C 0.60889 0.59421 0.61141 0.0
C200 C 0.60697 0.56956 0.62163 0.0
C201 C 0.60421 0.53923 0.61437 0.0
C202 C 0.60329 0.53347 0.59734 0.0
C203 C 0.60507 0.55822 0.58724 0.0
C204 C 0.60767 0.58787 0.59435 0.0
C205 C 0.60829 0.61081 0.58174 0.0
C206 C 0.60591 0.59018 0.56584 0.0
C207 C 0.60427 0.55961 0.56916 0.0
C208 C 0.64308 0.6448 0.58408 0.0
C209 C 0.57628 0.61454 0.58381 0.0
C210 C 0.60017 0.46026 0.53582 0.0
C211 C 0.60131 0.45081 0.51929 0.0
C212 C 0.60106 0.47307 0.50779 0.0
C213 C 0.60086 0.50393 0.51288 0.0
C214 C 0.60087 0.51313 0.5297 0.0
C215 C 0.60041 0.49073 0.54062 0.0
C216 C 0.60106 0.50287 0.55798 0.0
C217 C 0.6025 0.53651 0.55617 0.0
C218 C 0.60203 0.54349 0.53958 0.0
C219 C 0.6341 0.50804 0.5667 0.0
C220 C 0.56721 0.47651 0.56534 0.0
H221 H 0.61066 0.66225 0.56418 0.0
H222 H 0.59611 0.6454 0.50379 0.0
H223 H 0.54517 0.56149 0.51748 0.0
H224 H 0.56538 0.54154 0.50651 0.0
H225 H 0.56591 0.57806 0.49886 0.0
H226 H 0.65614 0.61797 0.51719 0.0
H227 H 0.63111 0.61106 0.49867 0.0
H228 H 0.63413 0.57646 0.50643 0.0
H229 H 0.61061 0.61765 0.61656 0.0
H230 H 0.60313 0.51997 0.6219 0.0
H231 H 0.60128 0.50984 0.59277 0.0
H232 H 0.66349 0.64048 0.5889 0.0
H233 H 0.64153 0.66359 0.59285 0.0
H234 H 0.6527 0.65661 0.57246 0.0
H235 H 0.55486 0.5914 0.58866 0.0
H236 H 0.56561 0.61686 0.57211 0.0
H237 H 0.58189 0.63678 0.59245 0.0
H238 H 0.6069 0.7036 0.54963 0.0
C239 C 0.60743 0.65723 0.55119 0.0
C240 C 0.20429 0.58356 0.85146 0.0
C241 C 0.23182 0.58283 0.85997 0.0
C242 C 0.23155 0.58392 0.87713 0.0
C243 C 0.17768 0.58346 0.87733 0.0
C244 C 0.17724 0.58386 0.8605 0.0
C245 C 0.14503 0.58431 0.85451 0.0
H246 H 0.99458 0.5797 0.87893 0.0
C247 C 0.14647 0.58229 0.88363 0.0
C248 C 0.12645 0.58296 0.87044 0.0
H249 H 1.02665 0.58959 0.82932 0.0
H250 H 0.07762 0.58701 0.83812 0.0
H251 H 1.01105 0.52351 0.88649 0.0
H252 H 0.06448 0.63272 0.89495 0.0
H253 H 0.07333 0.6183 0.91262 0.0
H254 H 1.0297 0.6052 0.90691 0.0
H255 H 1.0006 0.54514 0.90242 0.0
H256 H 1.03152 0.532 0.90584 0.0
C257 C 0.12306 0.55269 0.84267 0.0
C258 C 0.15604 0.61776 0.84643 0.0
C259 C 0.12911 0.57246 0.94496 0.0
C260 C 0.10271 0.56937 0.95492 0.0
C261 C 0.07451 0.56936 0.94755 0.0
C262 C 0.07247 0.5721 0.93071 0.0
C263 C 0.09893 0.575 0.92088 0.0
C264 C 0.12658 0.57513 0.92807 0.0
C265 C 0.15208 0.57813 0.91573 0.0
C266 C 0.13514 0.5797 0.8999 0.0
C267 C 0.10417 0.57801 0.90303 0.0
C268 C 0.15458 0.5452 0.91565 0.0
C269 C 0.18601 0.61207 0.92038 0.0
C270 C 1.01242 0.58198 0.86974 0.0
C271 C 1.00607 0.58568 0.85343 0.0
C272 C 1.03031 0.58696 0.84208 0.0
C273 C 0.06008 0.58568 0.84718 0.0
C274 C 0.06607 0.58293 0.86384 0.0
C275 C 1.04175 0.58097 0.87456 0.0
C276 C 1.05031 0.5782 0.89175 0.0
C277 C 0.08396 0.57925 0.89009 0.0
C278 C 0.09425 0.58183 0.8737 0.0
C279 C 1.02195 0.54311 0.89706 0.0
C280 C 1.05449 0.60998 0.90223 0.0
H281 H 0.20747 0.58456 0.89865 0.0
H282 H 0.20347 0.58311 0.83826 0.0
H283 H 0.17313 0.64021 0.855 0.0
H284 H 0.13381 0.6202 0.84297 0.0
H285 H 0.17006 0.61884 0.83525 0.0
H286 H 0.11666 0.52891 0.84857 0.0
H287 H 0.13693 0.55347 0.83147 0.0
H288 H 0.09882 0.55122 0.83896 0.0
H289 H 0.15108 0.5723 0.95013 0.0
H290 H 1.05405 0.56768 0.95486 0.0
H291 H 1.05026 0.57197 0.92608 0.0
H292 H 0.12963 0.52267 0.91824 0.0
H293 H 0.17365 0.5479 0.92509 0.0
H294 H 0.16078 0.53782 0.90364 0.0
H295 H 0.18132 0.63141 0.927 0.0
H296 H 0.19984 0.62475 0.90956 0.0
H297 H 0.20314 0.60789 0.92845 0.0
H298 H 0.25206 0.58426 0.88418 0.0
C299 C 0.20525 0.5842 0.88566 0.0
C300 C 0.94511 0.57008 0.46013 0.0
C301 C 0.91599 0.54735 0.45016 0.0
C302 C 0.91991 0.54328 0.43323 0.0
C303 C 0.98128 0.57888 0.43724 0.0
C304 C 0.97734 0.5842 0.45363 0.0
C305 C 1.01067 0.6012 0.46345 0.0
H306 H 0.1798 0.65896 0.46721 0.0
C307 C 1.0181 0.59339 0.43482 0.0
C308 C 1.03535 0.60603 0.45016 0.0
H309 H 0.1139 0.64822 0.50689 0.0
H310 H 0.0663 0.62918 0.48767 0.0
H311 H 0.12419 0.58718 0.44419 0.0
H312 H 0.1526 0.69331 0.44505 0.0
H313 H 0.13972 0.67624 0.42473 0.0
H314 H 0.17649 0.67743 0.43418 0.0
H315 H 0.16626 0.62164 0.44075 0.0
H316 H 0.13421 0.6021 0.42442 0.0
C317 C 1.00927 0.57613 0.47594 0.0
C318 C 1.01682 0.63591 0.47127 0.0
C319 C 0.05935 0.59028 0.37789 0.0
C320 C 0.09199 0.60524 0.37141 0.0
C321 C 0.12089 0.62285 0.38238 0.0
C322 C 0.11729 0.62543 0.39929 0.0
C323 C 0.08448 0.61079 0.4054 0.0
C324 C 1.05624 0.59415 0.3947 0.0
C325 C 1.02339 0.58265 0.40316 0.0
C326 C 1.03662 0.59547 0.4207 0.0
C327 C 0.07234 0.611 0.42202 0.0
C328 C 1.00202 0.54303 0.40093 0.0
C329 C 1.0056 0.60103 0.3962 0.0
C330 C 0.15488 0.65169 0.47173 0.0
C331 C 0.15041 0.65457 0.48859 0.0
C332 C 0.11792 0.64612 0.49398 0.0
C333 C 0.09027 0.63494 0.48279 0.0
C334 C 0.09499 0.63184 0.46601 0.0
C335 C 0.12689 0.64036 0.46068 0.0
C336 C 0.12716 0.6367 0.44231 0.0
C337 C 0.0897 0.62268 0.43763 0.0
C338 C 0.07118 0.62012 0.45159 0.0
C339 C 0.13867 0.61063 0.43755 0.0
C340 C 0.1503 0.67263 0.43615 0.0
H341 H 0.9536 0.55399 0.4139 0.0
H342 H 0.94339 0.57454 0.47311 0.0
H343 H 1.0099 0.64917 0.46234 0.0
H344 H 1.04386 0.65388 0.47502 0.0
H345 H 1.001 0.63219 0.48204 0.0
H346 H 0.98981 0.54912 0.47208 0.0
H347 H 1.00277 0.58232 0.48821 0.0
H348 H 1.03339 0.57577 0.47706 0.0
H349 H 1.03636 0.57595 0.37012 0.0
H350 H 0.14643 0.6354 0.37794 0.0
H351 H 0.14018 0.63915 0.40697 0.0
H352 H 1.0188 0.53169 0.40032 0.0
H353 H 0.98574 0.53421 0.38946 0.0
H354 H 0.98582 0.53167 0.41133 0.0
H355 H 1.02467 0.62797 0.39408 0.0
H356 H 0.98766 0.60284 0.4046 0.0
H357 H 0.99175 0.58806 0.38432 0.0
H358 H 0.89837 0.5258 0.4251 0.0
C359 C 0.9523 0.55922 0.42672 0.0
C360 C 0.44128 0.91132 0.79609 0.0
C361 C 0.43427 0.88022 0.78785 0.0
C362 C 0.43862 0.87918 0.77085 0.0
C363 C 0.46326 0.94074 0.77152 0.0
C364 C 0.45703 0.94123 0.78796 0.0
C365 C 0.47433 0.97678 0.79618 0.0
H366 H 0.58735 0.14466 0.79344 0.0
C367 C 0.48468 0.97663 0.76744 0.0
C368 C 0.49159 0.99769 0.78193 0.0
H369 H 0.537 0.09001 0.83532 0.0
H370 H 0.50424 1.0382 0.8179 0.0
H371 H 0.59911 0.08466 0.77507 0.0
H372 H 0.52238 0.11307 0.77069 0.0
H373 H 0.52289 0.09454 0.75132 0.0
H374 H 0.56057 0.13318 0.75958 0.0
H375 H 0.60644 0.12463 0.76832 0.0
H376 H 0.59145 0.08752 0.75424 0.0
C377 C 0.50051 0.97973 0.80953 0.0
C378 C 0.44643 0.98389 0.8027 0.0
C379 C 0.52191 1.00424 0.70933 0.0
C380 C 0.54076 1.03537 0.70211 0.0
C381 C 0.5537 0.06638 0.71189 0.0
C382 C 0.54836 0.06648 0.72865 0.0
C383 C 0.52976 1.03524 0.73575 0.0
C384 C 0.51632 1.00479 0.7261 0.0
C385 C 0.49601 0.9742 0.73577 0.0
C386 C 0.49901 0.99146 0.75268 0.0
C387 C 0.51955 1.02716 0.75263 0.0
C388 C 0.5138 0.95263 0.73529 0.0
C389 C 0.45874 0.95469 0.72867 0.0
C390 C 0.56974 0.12132 0.79887 0.0
C391 C 0.56519 0.12122 0.81581 0.0
C392 C 0.54106 0.09068 0.82233 0.0
C393 C 0.52217 0.06058 0.81219 0.0
C394 C 0.52765 0.06084 0.79537 0.0
C395 C 0.55071 0.09095 0.78891 0.0
C396 C 0.55219 0.08649 0.77066 0.0
C397 C 0.52758 0.04828 0.76741 0.0
C398 C 0.51341 1.03355 0.78193 0.0
C399 C 0.58922 0.09644 0.76673 0.0
C400 C 0.53908 0.10801 0.76255 0.0
H401 H 0.45673 0.9071 0.74982 0.0
H402 H 0.43791 0.91308 0.8091 0.0
H403 H 0.42442 0.97357 0.79366 0.0
H404 H 0.4554 1.01148 0.80477 0.0
H405 H 0.43666 0.97151 0.81424 0.0
H406 H 0.50827 0.96025 0.80708 0.0
H407 H 0.48973 0.97611 0.82182 0.0
H408 H 0.52485 1.00435 0.80998 0.0
H409 H 0.51134 0.98005 0.70204 0.0
H410 H 0.56839 0.09063 0.70656 0.0
H411 H 0.5591 0.09088 0.73545 0.0
H412 H 0.5419 0.96911 0.73446 0.0
H413 H 0.50425 0.9335 0.72456 0.0
H414 H 0.51074 0.9394 0.74654 0.0
H415 H 0.44995 0.97292 0.72614 0.0
H416 H 0.44054 0.93725 0.73716 0.0
H417 H 0.45647 0.93971 0.71701 0.0
H418 H 0.43358 0.85567 0.76412 0.0
C419 C 0.45273 0.90925 0.76261 0.0
C420 C 0.59011 0.40544 0.12382 0.0
C421 C 0.61439 0.39916 0.11641 0.0
C422 C 0.62072 0.40537 0.0998 0.0
C423 C 0.58502 0.43104 0.09968 0.0
C424 C 0.57702 0.42265 0.11557 0.0
C425 C 0.5591 0.43963 0.12347 0.0
H426 H 0.51511 0.56065 0.12253 0.0
C427 C 0.57235 0.45421 0.09573 0.0
C428 C 0.55771 0.45972 0.10974 0.0
H429 H 0.50675 0.49758 0.16168 0.0
H430 H 0.52619 0.46691 0.14429 0.0
H431 H 0.58622 0.57065 0.10787 0.0
H432 H 0.47994 0.49959 0.09608 0.0
H433 H 0.50062 0.50244 0.07777 0.0
H434 H 0.50171 0.54001 0.08734 0.0
H435 H 0.55647 0.58189 0.09989 0.0
H436 H 0.57835 0.56727 0.08652 0.0
C437 C 0.58165 0.46328 0.13851 0.0
C438 C 0.52296 0.41131 0.12754 0.0
C439 C 0.58932 0.50125 0.03977 0.0
C440 C 0.58026 0.52335 0.03279 0.0
C441 C 0.56358 0.53693 0.04237 0.0
C442 C 0.55638 0.529 0.05859 0.0
C443 C 0.56584 0.50718 0.06539 0.0
C444 C 0.58162 0.49331 0.05597 0.0
C445 C 0.58926 0.47015 0.06526 0.0
C446 C 0.57433 0.47155 0.08159 0.0
C447 C 0.56139 0.49391 0.08166 0.0
C448 C 0.62855 0.48604 0.06682 0.0
C449 C 0.57 0.43385 0.05639 0.0
C450 C 0.51752 0.54028 0.12738 0.0
C451 C 0.51016 0.53221 0.14369 0.0
C452 C 0.51333 0.50521 0.14939 0.0
C453 C 0.52428 0.4871 0.1392 0.0
C454 C 0.53236 0.49606 0.12311 0.0
C455 C 0.52828 0.52175 0.11732 0.0
C456 C 0.53636 0.52636 0.09959 0.0
C457 C 0.5478 0.50045 0.09604 0.0
C458 C 0.54556 0.48303 0.10989 0.0
C459 C 0.56579 0.56351 0.09826 0.0
C460 C 0.50314 0.51687 0.0896 0.0
H461 H 0.6128 0.42648 0.07898 0.0
H462 H 0.58436 0.40065 0.13649 0.0
H463 H 0.51178 0.39033 0.11758 0.0
H464 H 0.50467 0.42057 0.12863 0.0
H465 H 0.52378 0.39992 0.139 0.0
H466 H 0.60907 0.47164 0.13715 0.0
H467 H 0.5738 0.45002 0.14996 0.0
H468 H 0.58148 0.48754 0.14013 0.0
H469 H 0.60248 0.49061 0.03286 0.0
H470 H 0.55561 0.55339 0.03727 0.0
H471 H 0.54376 0.54024 0.06522 0.0
H472 H 0.64203 0.51437 0.06657 0.0
H473 H 0.63779 0.47598 0.05663 0.0
H474 H 0.63729 0.48177 0.07859 0.0
H475 H 0.54339 0.42673 0.05281 0.0
H476 H 0.56773 0.41386 0.06414 0.0
H477 H 0.58277 0.43261 0.0451 0.0
H478 H 0.63932 0.40084 0.09373 0.0
C479 C 0.60583 0.42095 0.09134 0.0
C480 C 0.29076 0.52728 0.19568 0.0
C481 C 0.28142 0.55248 0.19597 0.0
C482 C 0.32465 0.53635 0.19872 0.0
C483 C 0.40562 0.60596 0.18936 0.0
H484 H 0.43461 0.54336 0.20221 0.0
C485 C 0.50613 0.55675 0.1714 0.0
C486 C 0.49734 0.55036 0.15452 0.0
C487 C 0.49044 0.56964 0.18186 0.0
C488 C 0.42757 0.56182 0.19892 0.0
H489 H 0.29963 0.60648 0.20167 0.0
H490 H 0.35923 0.62244 0.20652 0.0
H491 H 0.38456 0.54114 0.21405 0.0
H492 H 0.46646 0.55429 0.13536 0.0
H493 H 0.43972 0.57716 0.15346 0.0
H494 H 0.44713 0.6249 0.17334 0.0
C495 C 0.34025 0.59571 0.20381 0.0
C496 C 0.39876 0.56038 0.20563 0.0
C497 C 0.3062 0.58657 0.2009 0.0
C498 C 0.47424 0.55928 0.14822 0.0
C499 C 0.45892 0.5725 0.15863 0.0
C500 C 0.43438 0.60737 0.18265 0.0
C501 C 0.35002 0.57086 0.202 0.0
C502 C 0.3862 0.58081 0.20005 0.0
C503 C 0.46608 0.57686 0.1756 0.0
C504 C 0.44418 0.58374 0.18656 0.0
H505 H 0.27253 0.50083 0.19182 0.0
H506 H 0.33131 0.51658 0.197 0.0
H507 H 0.39667 0.62212 0.1848 0.0
H508 H 0.52443 0.5509 0.1766 0.0
H509 H 0.49649 0.57291 0.19488 0.0
C510 C 0.78454 0.28023 0.48075 0.0
C511 C 0.75602 0.25981 0.48959 0.0
C512 C 0.7915 0.31272 0.47714 0.0
C513 C 0.78098 0.38403 0.49066 0.0
H514 H 0.80424 0.40899 0.44629 0.0
C515 C 0.88517 0.51114 0.47298 0.0
C516 C 0.88366 0.52305 0.45771 0.0
C517 C 0.85721 0.48213 0.47826 0.0
C518 C 0.79686 0.40229 0.45864 0.0
H519 H 0.71314 0.25702 0.50218 0.0
H520 H 0.72581 0.31448 0.49622 0.0
H521 H 0.78119 0.34974 0.45248 0.0
H522 H 0.84945 0.51618 0.43725 0.0
H523 H 0.80114 0.46399 0.44613 0.0
H524 H 0.79897 0.43714 0.49701 0.0
C525 C 0.74243 0.30526 0.4919 0.0
C526 C 0.78419 0.36848 0.46221 0.0
C527 C 0.73523 0.2726 0.4953 0.0
C528 C 0.85207 0.50716 0.44877 0.0
C529 C 0.82422 0.47751 0.45393 0.0
C530 C 0.79406 0.41801 0.48712 0.0
C531 C 0.77024 0.32528 0.48251 0.0
C532 C 0.77757 0.35942 0.47835 0.0
C533 C 0.82724 0.46383 0.46831 0.0
C534 C 0.80353 0.42767 0.4712 0.0
H535 H 0.80069 0.27062 0.47618 0.0
H536 H 0.81345 0.32802 0.4701 0.0
H537 H 0.77584 0.37752 0.5032 0.0
H538 H 0.90878 0.52194 0.48028 0.0
H539 H 0.86047 0.47205 0.48933 0.0
C540 C 0.56341 0.74486 0.82562 0.0
C541 C 0.56804 0.73574 0.84108 0.0
C542 C 0.535 0.74763 0.82184 0.0
C543 C 0.47117 0.76343 0.84096 0.0
H544 H 0.44093 0.75138 0.79543 0.0
C545 C 0.44906 0.85916 0.81222 0.0
C546 C 0.42965 0.85158 0.79748 0.0
C547 C 0.45043 0.83357 0.82003 0.0
C548 C 0.44802 0.75404 0.8083 0.0
H549 H 0.54583 0.72197 0.86468 0.0
H550 H 0.49557 0.72611 0.85791 0.0
H551 H 0.47355 0.72572 0.80411 0.0
H552 H 0.39425 0.81039 0.78012 0.0
H553 H 0.39688 0.76527 0.79381 0.0
H554 H 0.44582 0.79198 0.84512 0.0
C555 C 0.51435 0.73152 0.84879 0.0
C556 C 0.46734 0.73981 0.81324 0.0
C557 C 0.54312 0.72905 0.85264 0.0
C558 C 0.4098 0.81718 0.79133 0.0
C559 C 0.41125 0.79135 0.7992 0.0
C560 C 0.45123 0.77708 0.83609 0.0
C561 C 0.50997 0.74085 0.83331 0.0
C562 C 0.48128 0.74656 0.82935 0.0
C563 C 0.43263 0.7995 0.81332 0.0
C564 C 0.44172 0.7748 0.81947 0.0
H565 H 0.58146 0.74933 0.81621 0.0
H566 H 0.53307 0.75574 0.80995 0.0
H567 H 0.48101 0.76876 0.85353 0.0
H568 H 0.46547 0.8853 0.81721 0.0
H569 H 0.46784 0.84122 0.83061 0.0
C570 C 0.87246 0.52684 0.17783 0.0
C571 C 0.89903 0.52037 0.17454 0.0
C572 C 0.83852 0.50041 0.17553 0.0
C573 C 0.78775 0.42881 0.14781 0.0
H574 H 0.71479 0.4103 0.177 0.0
C575 C 0.65243 0.37436 0.1211 0.0
C576 C 0.63814 0.39405 0.12685 0.0
C577 C 0.67977 0.37566 0.12987 0.0
C578 C 0.73484 0.41503 0.16869 0.0
H579 H 0.91135 0.48159 0.16663 0.0
H580 H 0.85189 0.4356 0.16204 0.0
H581 H 0.77407 0.4427 0.18759 0.0
H582 H 0.64065 0.42939 0.14675 0.0
H583 H 0.68745 0.43178 0.16165 0.0
H584 H 0.74933 0.4046 0.12855 0.0
C585 C 0.85734 0.46075 0.16678 0.0
C586 C 0.76868 0.43341 0.1748 0.0
C587 C 0.8912 0.48696 0.16941 0.0
C588 C 0.65026 0.41316 0.14204 0.0
C589 C 0.6774 0.41452 0.15071 0.0
C590 C 0.75399 0.41115 0.1416 0.0
C591 C 0.83077 0.46741 0.16958 0.0
C592 C 0.79536 0.44163 0.16425 0.0
C593 C 0.69343 0.39688 0.14447 0.0
C594 C 0.72723 0.40564 0.15181 0.0
H595 H 0.87796 0.55242 0.18176 0.0
H596 H 0.81833 0.50618 0.17754 0.0
H597 H 0.80803 0.43495 0.13944 0.0
H598 H 0.64344 0.3591 0.10952 0.0
H599 H 0.69119 0.36132 0.12484 0.0
C600 C 0.4223 0.86269 0.53192 0.0
C601 C 0.41277 0.8878 0.53285 0.0
C602 C 0.399 0.82916 0.5353 0.0
C603 C 0.31048 0.77213 0.54835 0.0
H604 H 0.30162 0.722 0.50683 0.0
C605 C 0.18509 0.69425 0.51254 0.0
C606 C 0.17997 0.66861 0.50044 0.0
C607 C 0.215 0.71081 0.52242 0.0
C608 C 0.30383 0.73474 0.51877 0.0
H609 H 0.37323 0.89874 0.53999 0.0
H610 H 0.33234 0.84025 0.5456 0.0
H611 H 0.35541 0.77241 0.51522 0.0
H612 H 0.20065 0.63807 0.49011 0.0
H613 H 0.25303 0.66684 0.50755 0.0
H614 H 0.258 0.73539 0.55134 0.0
C615 C 0.35772 0.84624 0.54233 0.0
C616 C 0.3349 0.76386 0.52361 0.0
C617 C 0.38096 0.87969 0.5389 0.0
C618 C 0.20431 0.65823 0.49916 0.0
C619 C 0.2342 0.67462 0.50917 0.0
C620 C 0.27939 0.74274 0.54357 0.0
C621 C 0.36584 0.82025 0.53968 0.0
C622 C 0.33785 0.7841 0.53791 0.0
C623 C 0.24046 0.70199 0.5205 0.0
C624 C 0.27511 0.72514 0.52818 0.0
H625 H 0.44671 0.86822 0.5273 0.0
H626 H 0.40603 0.8097 0.53332 0.0
H627 H 0.31229 0.78691 0.5596 0.0
H628 H 0.16691 0.70298 0.51372 0.0
H629 H 0.21906 0.73214 0.53075 0.0
C630 C 0.65337 0.40541 0.85014 0.0
C631 C 0.62015 0.39899 0.85277 0.0
C632 C 0.6624 0.38108 0.85342 0.0
C633 C 0.63002 0.29541 0.86967 0.0
H634 H 0.65737 0.27457 0.82793 0.0
C635 C 0.56731 0.16234 0.83818 0.0
C636 C 0.58434 0.15325 0.82651 0.0
C637 C 0.58415 0.19431 0.84689 0.0
C638 C 0.65071 0.28016 0.8399 0.0
H639 H 0.5714 0.36355 0.86228 0.0
H640 H 0.58689 0.32112 0.86783 0.0
H641 H 0.66616 0.33113 0.83452 0.0
H642 H 0.63309 0.16919 0.8158 0.0
H643 H 0.66267 0.22526 0.83107 0.0
H644 H 0.61237 0.24341 0.87446 0.0
C645 C 0.60622 0.34501 0.86343 0.0
C646 C 0.6558 0.31281 0.84371 0.0
C647 C 0.59722 0.36931 0.86016 0.0
C648 C 0.61918 0.17587 0.82449 0.0
C649 C 0.63612 0.20785 0.83329 0.0
C650 C 0.62502 0.2627 0.86587 0.0
C651 C 0.63833 0.34989 0.85936 0.0
C652 C 0.64354 0.3201 0.85817 0.0
C653 C 0.61845 0.21789 0.84416 0.0
C654 C 0.63334 0.25417 0.85049 0.0
H655 H 0.67185 0.42852 0.84481 0.0
H656 H 0.68751 0.38576 0.8504 0.0
H657 H 0.62099 0.30057 0.88106 0.0
H658 H 0.54039 0.14554 0.83991 0.0
H659 H 0.5695 0.20133 0.85493 0.0
C660 C 0.56916 0.93363 0.4995 0.0
C661 C 0.60014 0.9652 0.50009 0.0
C662 C 0.56844 0.90217 0.50061 0.0
C663 C 0.62626 0.86215 0.5012 0.0
H664 H 0.5435 0.78415 0.51415 0.0
C665 C 0.61817 0.72812 0.50694 0.0
C666 C 0.59563 0.70573 0.51802 0.0
C667 C 0.61787 0.75834 0.50333 0.0
C668 C 0.56729 0.80545 0.51073 0.0
H669 H 0.65492 0.98724 0.5026 0.0
H670 H 0.65386 0.93352 0.50519 0.0
H671 H 0.54555 0.83781 0.51196 0.0
H672 H 0.55456 0.69829 0.53356 0.0
H673 H 0.55431 0.74969 0.52776 0.0
H674 H 0.64845 0.82992 0.50085 0.0
C675 C 0.6297 0.9324 0.50333 0.0
C676 C 0.56827 0.83685 0.50912 0.0
C677 C 0.6304 0.96381 0.50194 0.0
C678 C 0.57213 0.71428 0.5248 0.0
C679 C 0.57199 0.74433 0.52136 0.0
C680 C 0.62543 0.83077 0.50306 0.0
C681 C 0.59867 0.90054 0.50269 0.0
C682 C 0.59777 0.86626 0.50432 0.0
C683 C 0.59517 0.76767 0.51073 0.0
C684 C 0.59594 0.80148 0.50797 0.0
H685 H 0.54514 0.93305 0.498 0.0
H686 H 0.54373 0.87906 0.49962 0.0
H687 H 0.64959 0.88315 0.4972 0.0
H688 H 0.63716 0.72317 0.50163 0.0
H689 H 0.63598 0.77461 0.49486 0.0
C690 C 0.74661 0.61968 0.83594 0.0
C691 C 0.71513 0.58914 0.83237 0.0
C692 C 0.77789 0.6198 0.83717 0.0
C693 C 0.81847 0.56368 0.82897 0.0
H694 H 0.89331 0.63687 0.85569 0.0
C695 C 0.95423 0.57345 0.83444 0.0
C696 C 0.97451 0.58847 0.84909 0.0
C697 C 0.92341 0.57393 0.83159 0.0
C698 C 0.87286 0.61576 0.84828 0.0
H699 H 0.69313 0.53442 0.82743 0.0
H700 H 0.74674 0.53439 0.82995 0.0
H701 H 0.83969 0.63584 0.85309 0.0
H702 H 0.97755 0.61745 0.87178 0.0
H703 H 0.92485 0.61725 0.86721 0.0
H704 H 0.85154 0.54299 0.82471 0.0
C705 C 0.74774 0.55873 0.83146 0.0
C706 C 0.84163 0.61551 0.84652 0.0
C707 C 0.71647 0.55868 0.83008 0.0
C708 C 0.96294 0.60482 0.86044 0.0
C709 C 0.93236 0.60519 0.85765 0.0
C710 C 0.84974 0.56382 0.83083 0.0
C711 C 0.77941 0.58931 0.83508 0.0
C712 C 0.81343 0.58947 0.83684 0.0
C713 C 0.91149 0.58963 0.84322 0.0
C714 C 0.87781 0.5898 0.84062 0.0
H715 H 0.74724 0.64384 0.83773 0.0
H716 H 0.80103 0.64425 0.83961 0.0
H717 H 0.79828 0.5432 0.82117 0.0
H718 H 0.96166 0.56049 0.82529 0.0
H719 H 0.90899 0.56195 0.82015 0.0
C720 C 0.22423 0.66214 0.16318 0.0
C721 C 0.19309 0.66125 0.16586 0.0
C722 C 0.25591 0.69332 0.16424 0.0
C723 C 0.2958 0.79078 0.16621 0.0
H724 H 0.37747 0.79001 0.1794 0.0
C725 C 0.4328 0.91656 0.16865 0.0
C726 C 0.45724 0.92084 0.18078 0.0
C727 C 0.40115 0.88526 0.1659 0.0
C728 C 0.35512 0.79123 0.17583 0.0
H729 H 0.17218 0.69404 0.17187 0.0
H730 H 0.22676 0.74775 0.17397 0.0
H731 H 0.3229 0.7371 0.17726 0.0
H732 H 0.46685 0.8935 0.19891 0.0
H733 H 0.41286 0.84052 0.19446 0.0
H734 H 0.32814 0.84525 0.16527 0.0
C735 C 0.2269 0.72434 0.17073 0.0
C736 C 0.32333 0.76023 0.17433 0.0
C737 C 0.19518 0.69312 0.16963 0.0
C738 C 0.44901 0.89203 0.18958 0.0
C739 C 0.41767 0.86098 0.18686 0.0
C740 C 0.32768 0.82188 0.16773 0.0
C741 C 0.25819 0.72531 0.16811 0.0
C742 C 0.29272 0.75909 0.16953 0.0
C743 C 0.39265 0.85671 0.17507 0.0
C744 C 0.35821 0.82298 0.1727 0.0
H745 H 0.22426 0.63856 0.16019 0.0
H746 H 0.27869 0.69213 0.16179 0.0
H747 H 0.27352 0.79175 0.16225 0.0
H748 H 0.43762 0.93778 0.16158 0.0
H749 H 0.38332 0.88354 0.15652 0.0
C750 C 0.5698 0.15654 0.49598 0.0
C751 C 0.5996 0.15477 0.49889 0.0
C752 C 0.5703 0.1882 0.49723 0.0
C753 C 0.62765 0.2834 0.51218 0.0
H754 H 0.55609 0.29241 0.49127 0.0
C755 C 0.62025 0.40802 0.52574 0.0
C756 C 0.60324 0.4183 0.51491 0.0
C757 C 0.61999 0.37683 0.523 0.0
C758 C 0.5767 0.29091 0.49712 0.0
H759 H 0.65369 0.18651 0.50512 0.0
H760 H 0.65494 0.24079 0.50665 0.0
H761 H 0.55551 0.23848 0.48779 0.0
H762 H 0.57348 0.40242 0.49197 0.0
H763 H 0.57404 0.34881 0.48681 0.0
H764 H 0.64978 0.33607 0.52085 0.0
C765 C 0.63059 0.21783 0.50389 0.0
C766 C 0.57609 0.2592 0.49532 0.0
C767 C 0.62999 0.1862 0.50286 0.0
C768 C 0.58697 0.39605 0.50074 0.0
C769 C 0.58693 0.36467 0.49789 0.0
C770 C 0.62848 0.3151 0.5138 0.0
C771 C 0.60074 0.21985 0.50126 0.0
C772 C 0.60145 0.2544 0.50289 0.0
C773 C 0.60324 0.35404 0.50906 0.0
C774 C 0.60285 0.31978 0.5065 0.0
H775 H 0.5457 0.13325 0.49298 0.0
H776 H 0.54633 0.18746 0.49529 0.0
H777 H 0.64774 0.28189 0.51856 0.0
H778 H 0.63398 0.42415 0.53664 0.0
H779 H 0.63258 0.3705 0.53224 0.0
C780 C 0.521 0.61546 0.83432 0.0
C781 C 0.52247 0.58503 0.83277 0.0
C782 C 0.48964 0.61505 0.83594 0.0
C783 C 0.39329 0.55347 0.8416 0.0
H784 H 0.38773 0.63469 0.83633 0.0
C785 C 0.26856 0.55526 0.85786 0.0
C786 C 0.26087 0.57961 0.85231 0.0
C787 C 0.29919 0.55577 0.85431 0.0
C788 C 0.38819 0.61137 0.83769 0.0
H789 H 0.49038 0.52993 0.83116 0.0
H790 H 0.43658 0.5288 0.83297 0.0
H791 H 0.44119 0.63596 0.83231 0.0
H792 H 0.28063 0.6234 0.83792 0.0
H793 H 0.3332 0.6234 0.83088 0.0
H794 H 0.34007 0.52831 0.84605 0.0
C795 C 0.45952 0.55361 0.83375 0.0
C796 C 0.41973 0.61223 0.8356 0.0
C797 C 0.49094 0.55412 0.83251 0.0
C798 C 0.28489 0.60376 0.84228 0.0
C799 C 0.31573 0.60409 0.83852 0.0
C800 C 0.36178 0.55247 0.84339 0.0
C801 C 0.45777 0.58405 0.83572 0.0
C802 C 0.42339 0.58332 0.83762 0.0
C803 C 0.32406 0.58042 0.84471 0.0
C804 C 0.35823 0.58146 0.84173 0.0
H805 H 0.54432 0.63993 0.83447 0.0
H806 H 0.49088 0.63948 0.83758 0.0
H807 H 0.3936 0.53035 0.84364 0.0
H808 H 0.25126 0.53633 0.86575 0.0
H809 H 0.3036 0.53725 0.85982 0.0
C810 C 1.00087 0.44218 0.17315 0.0
C811 C 1.00229 0.47039 0.16599 0.0
C812 C 0.96952 0.41142 0.17468 0.0
C813 C 0.87282 0.37406 0.1727 0.0
H814 H 0.87021 0.28755 0.17361 0.0
C815 C 0.74991 0.25073 0.1914 0.0
C816 C 0.74283 0.21753 0.18592 0.0
C817 C 0.78014 0.2805 0.18761 0.0
C818 C 0.86999 0.31123 0.17323 0.0
H819 H 0.97029 0.48688 0.15465 0.0
H820 H 0.9164 0.43341 0.1567 0.0
H821 H 0.924 0.33957 0.1697 0.0
H822 H 0.7633 0.19071 0.17177 0.0
H823 H 0.81552 0.2424 0.16471 0.0
H824 H 0.8188 0.34579 0.17585 0.0
C825 C 0.93949 0.4353 0.16169 0.0
C826 C 0.90143 0.34164 0.17119 0.0
C827 C 0.97081 0.46621 0.16031 0.0
C828 C 0.7671 0.21554 0.17599 0.0
C829 C 0.79763 0.24552 0.1722 0.0
C830 C 0.84143 0.34371 0.17471 0.0
C831 C 0.9379 0.40713 0.16904 0.0
C832 C 0.90376 0.37396 0.17095 0.0
C833 C 0.80523 0.27882 0.17817 0.0
C834 C 0.83912 0.31144 0.17515 0.0
H835 H 1.02415 0.44392 0.1778 0.0
H836 H 0.97022 0.39115 0.18062 0.0
H837 H 0.87272 0.39787 0.17284 0.0
H838 H 0.73245 0.2537 0.19931 0.0
H839 H 0.78435 0.3049 0.19281 0.0
C840 C 0.09934 0.58834 0.10461 0.0
C841 C 0.09881 0.56192 0.11294 0.0
C842 C 0.10113 0.58826 0.08759 0.0
C843 C 0.08587 0.53134 0.05007 0.0
H844 H 0.14021 0.61715 0.03046 0.0
C845 C 0.07464 0.54434 0.98088 0.0
C846 C 0.10426 0.56637 0.97291 0.0
C847 C 0.07545 0.54274 0.99784 0.0
C848 C 0.12519 0.59288 0.0357 0.0
H849 H 0.09975 0.51459 0.10974 0.0
H850 H 0.10314 0.51456 0.08005 0.0
H851 H 0.13925 0.6165 0.06011 0.0
H852 H 0.1582 0.60362 0.97668 0.0
H853 H 0.15977 0.6004 0.00626 0.0
H854 H 0.07215 0.50767 0.02564 0.0
C855 C 0.10178 0.53521 0.0867 0.0
C856 C 0.12427 0.59256 0.05275 0.0
C857 C 0.09999 0.5353 0.10375 0.0
C858 C 0.13493 0.58621 0.98236 0.0
C859 C 0.13573 0.58465 0.99937 0.0
C860 C 0.08677 0.53166 0.03301 0.0
C861 C 0.10248 0.56176 0.07837 0.0
C862 C 0.10438 0.56184 0.06018 0.0
C863 C 0.10592 0.5631 0.00737 0.0
C864 C 0.10623 0.56247 0.02557 0.0
H865 H 0.09834 0.60923 0.11123 0.0
H866 H 0.10102 0.60883 0.08163 0.0
H867 H 0.07005 0.50722 0.05531 0.0
H868 H 1.05065 0.5283 0.974 0.0
H869 H 1.0519 0.52608 0.00353 0.0
C870 C 0.63489 0.08395 0.43966 0.0
C871 C 0.60335 0.06648 0.44706 0.0
C872 C 0.63627 0.08607 0.42268 0.0
C873 C 0.58322 0.0448 0.38403 0.0
H874 H 0.6519 0.12663 0.36525 0.0
C875 C 0.57443 0.06487 0.31618 0.0
C876 C 0.60401 0.07558 0.30726 0.0
C877 C 0.57602 0.06572 0.33322 0.0
C878 C 0.63275 0.1035 0.37032 0.0
H879 H 0.54847 1.03819 0.44229 0.0
H880 H 0.55079 0.04257 0.41292 0.0
H881 H 0.65111 0.12408 0.39494 0.0
H882 H 0.65883 0.09718 0.3095 0.0
H883 H 0.66168 0.09919 0.33945 0.0
H884 H 0.56452 1.02448 0.35946 0.0
C885 C 0.57461 0.05391 0.42012 0.0
C886 C 0.63231 0.10196 0.38735 0.0
C887 C 0.57325 0.05157 0.43705 0.0
C888 C 0.63557 0.08884 0.31595 0.0
C889 C 0.63719 0.08991 0.33311 0.0
C890 C 0.58349 0.04647 0.36708 0.0
C891 C 0.60613 0.07097 0.41264 0.0
C892 C 0.60735 0.07264 0.39447 0.0
C893 C 0.60727 0.07761 0.3419 0.0
C894 C 0.60807 0.07591 0.35999 0.0
H895 H 0.65864 0.09572 0.44696 0.0
H896 H 0.66103 0.09906 0.41742 0.0
H897 H 0.56415 1.02143 0.38893 0.0
H898 H 0.54979 0.05539 0.30996 0.0
H899 H 0.55261 0.05683 0.33962 0.0
C900 C 0.64196 0.61923 0.7725 0.0
C901 C 0.61766 0.59048 0.78013 0.0
C902 C 0.64104 0.61968 0.75541 0.0
C903 C 0.58305 0.57588 0.7184 0.0
H904 H 0.66697 0.61486 0.69524 0.0
C905 C 0.58512 0.54802 0.64897 0.0
C906 C 0.60752 0.57496 0.63977 0.0
C907 C 0.58628 0.5524 0.66603 0.0
C908 C 0.64331 0.60426 0.70153 0.0
H909 H 0.57351 0.53951 0.77567 0.0
H910 H 0.57229 0.54008 0.74612 0.0
H911 H 0.66946 0.61784 0.72509 0.0
H912 H 0.64862 0.62778 0.64137 0.0
H913 H 0.65065 0.63549 0.67126 0.0
H914 H 0.5569 0.56171 0.69485 0.0
C915 C 0.59168 0.56263 0.75326 0.0
C916 C 0.64473 0.60599 0.71867 0.0
C917 C 0.59254 0.56222 0.77027 0.0
C918 C 0.63088 0.60658 0.64809 0.0
C919 C 0.63226 0.61089 0.66521 0.0
C920 C 0.58165 0.57401 0.7013 0.0
C921 C 0.61581 0.59138 0.74556 0.0
C922 C 0.61458 0.59143 0.72734 0.0
C923 C 0.61001 0.5838 0.6744 0.0
C924 C 0.61173 0.5878 0.69263 0.0
H925 H 0.66162 0.64149 0.7797 0.0
H926 H 0.65984 0.64241 0.74996 0.0
H927 H 0.5593 0.56508 0.72461 0.0
H928 H 0.56656 0.52345 0.64296 0.0
H929 H 0.56899 0.53089 0.6727 0.0
C930 C 0.61307 0.04305 0.55717 0.0
C931 C 0.59596 0.05584 0.54821 0.0
C932 C 0.60933 0.04056 0.57404 0.0
C933 C 0.58962 0.0775 0.61004 0.0
H934 H 0.55721 0.99022 0.62834 0.0
C935 C 0.54052 0.05671 0.67482 0.0
C936 C 0.54698 1.0359 0.68444 0.0
C937 C 0.54777 0.05858 0.65831 0.0
C938 C 0.56685 1.01495 0.62352 0.0
H939 H 0.56207 0.07656 0.54988 0.0
H940 H 0.55634 0.07299 0.57929 0.0
H941 H 0.56958 0.99546 0.5994 0.0
H942 H 0.56591 1.00061 0.6844 0.0
H943 H 0.57965 1.00459 0.65561 0.0
H944 H 0.58764 0.09741 0.63401 0.0
C945 C 0.57235 0.06466 0.57328 0.0
C946 C 0.57384 1.01786 0.60694 0.0
C947 C 0.57554 0.06654 0.55644 0.0
C948 C 0.56046 1.01664 0.67719 0.0
C949 C 0.56822 1.01889 0.66068 0.0
C950 C 0.58317 0.07477 0.62663 0.0
C951 C 0.58904 0.0515 0.58222 0.0
C952 C 0.5847 0.04902 0.60002 0.0
C953 C 0.5622 0.04011 0.65105 0.0
C954 C 0.57104 0.0433 0.63355 0.0
H955 H 0.6288 1.03444 0.5511 0.0
H956 H 0.62248 1.03038 0.58071 0.0
H957 H 0.59837 0.10192 0.605 0.0
H958 H 0.5297 0.07145 0.68009 0.0
H959 H 0.54186 0.07445 0.65123 0.0
C960 C 0.61978 0.60618 0.8911 0.0
C961 C 0.61768 0.58009 0.88011 0.0
C962 C 0.6184 0.60253 0.90793 0.0
C963 C 0.62791 0.55161 0.93919 0.0
H964 H 0.57548 0.58124 0.96536 0.0
C965 C 0.58429 0.50709 0.00338 0.0
C966 C 0.58773 0.532 0.01557 0.0
C967 C 0.59041 0.51501 0.98713 0.0
C968 C 0.59052 0.57319 0.95823 0.0
H969 H 0.61212 0.52955 0.87813 0.0
H970 H 0.60896 0.52292 0.90726 0.0
H971 H 0.58152 0.59153 0.93643 0.0
H972 H 0.60129 0.58511 0.02022 0.0
H973 H 0.61121 0.5986 0.99178 0.0
H974 H 0.63608 0.53246 0.96094 0.0
C975 C 0.61252 0.54658 0.90302 0.0
C976 C 0.59408 0.57916 0.94167 0.0
C977 C 0.61412 0.5503 0.88627 0.0
C978 C 0.59773 0.5651 0.01111 0.0
C979 C 0.60354 0.5729 0.99484 0.0
C980 C 0.6241 0.5454 0.9557 0.0
C981 C 0.61473 0.57264 0.91408 0.0
C982 C 0.61254 0.56813 0.93191 0.0
C983 C 0.59984 0.54791 0.98268 0.0
C984 C 0.60513 0.55586 0.96535 0.0
H985 H 0.62264 0.62947 0.88673 0.0
H986 H 0.62054 0.62325 0.91613 0.0
H987 H 0.6429 0.54341 0.93212 0.0
H988 H 0.57611 0.48121 0.0063 0.0
H989 H 0.58695 0.49512 0.97797 0.0
C990 C 0.10298 0.60538 0.22115 0.0
C991 C 0.10557 0.57834 0.21355 0.0
C992 C 0.10511 0.61056 0.23817 0.0
C993 C 0.12467 0.58049 0.27644 0.0
H994 H 0.07606 0.62283 0.29562 0.0
C995 C 0.12424 0.60364 0.34667 0.0
C996 C 0.09563 0.60336 0.35334 0.0
C997 C 0.12756 0.60232 0.32974 0.0
C998 C 0.08925 0.61029 0.2906 0.0
H999 H 0.11214 0.53527 0.2174 0.0
H1000 H 0.11297 0.54225 0.24712 0.0
H1001 H 0.0763 0.6154 0.26641 0.0
H1002 H 1.04827 0.60196 0.34694 0.0
H1003 H 1.05223 0.59602 0.31791 0.0
H1004 H 0.13481 0.57249 0.30071 0.0
C1005 C 0.1111 0.56077 0.24018 0.0
C1006 C 0.09018 0.60681 0.27364 0.0
C1007 C 0.11029 0.55644 0.22312 0.0
C1008 C 0.07034 0.60136 0.3425 0.0
C1009 C 0.07309 0.59886 0.32563 0.0
C1010 C 0.12271 0.58289 0.29344 0.0
C1011 C 0.10841 0.58789 0.24801 0.0
C1012 C 0.10798 0.59194 0.26623 0.0
C1013 C 0.10191 0.59971 0.31893 0.0
C1014 C 0.10488 0.59778 0.3008 0.0
H1015 H 0.09978 0.62282 0.2139 0.0
H1016 H 0.10415 0.63246 0.24351 0.0
H1017 H 0.13931 0.56956 0.2714 0.0
H1018 H 0.14413 0.60463 0.35447 0.0
H1019 H 0.15047 0.60362 0.32522 0.0
loop_
_geom_bond_atom_site_label_1
_geom_bond_atom_site_label_2
_geom_bond_distance
_geom_bond_site_symmetry_2
_ccdc_geom_bond_type
Tb0 C9 2.764 1_455 S
Tb0 O10 2.325 1_455 S
Tb0 O13 2.303 . S
Tb0 O17 2.322 . S
Tb0 O18 2.349 . S
Tb0 O21 2.415 1_455 S
Tb0 O22 2.399 1_455 S
Tb1 O11 2.322 . S
Tb1 O12 2.349 . S
Tb1 O14 2.415 . S
Tb1 O15 2.399 . S
Tb1 O16 2.325 . S
Tb1 O19 2.303 . S
Tb1 C30 2.764 . S
C2 O18 1.261 . S
C2 O19 1.257 . S
C3 C6 1.358 . S
C3 C7 1.332 . S
C3 C9 1.504 . S
C4 C5 1.373 . S
C4 C8 1.308 . S
C5 C4 1.373 . S
C5 C6 1.429 . S
C5 H32 0.932 . S
C6 C3 1.358 . S
C6 C5 1.429 . S
C6 H33 0.930 . S
C7 C3 1.332 . S
C7 C8 1.394 . S
C7 H34 0.932 . S
C8 C4 1.308 . S
C8 C7 1.394 . S
C8 H35 0.929 . S
C9 Tb0 2.764 1_655 S
C9 C3 1.504 . S
C9 O21 1.239 . S
C9 O22 1.263 . S
O10 Tb0 2.325 1_655 S
O10 C20 1.236 . S
O11 Tb1 2.322 . S
O11 C20 1.257 1_455 S
O12 Tb1 2.349 . S
O12 C23 1.261 . S
O13 Tb0 2.303 . S
O13 C23 1.257 . S
O14 Tb1 2.415 . S
O14 C30 1.239 . S
O15 Tb1 2.399 . S
O15 C30 1.263 . S
O16 Tb1 2.325 . S
O16 C31 1.236 . S
O17 Tb0 2.322 . S
O17 C31 1.257 . S
O18 Tb0 2.349 . S
O18 C2 1.261 . S
O19 Tb1 2.303 . S
O19 C2 1.257 . S
C20 O10 1.236 . S
C20 O11 1.257 1_655 S
O21 Tb0 2.415 1_655 S
O21 C9 1.239 . S
O22 Tb0 2.399 1_655 S
O22 C9 1.263 . S
C23 O12 1.261 . S
C23 O13 1.257 . S
C24 C27 1.358 . S
C24 C28 1.332 . S
C24 C30 1.504 . S
C25 C26 1.373 . S
C25 C29 1.308 . S
C26 C25 1.373 . S
C26 C27 1.429 . S
C26 H36 0.932 . S
C27 C24 1.358 . S
C27 C26 1.429 . S
C27 H37 0.930 . S
C28 C24 1.332 . S
C28 C29 1.394 . S
C28 H38 0.932 . S
C29 C25 1.308 . S
C29 C28 1.394 . S
C29 H39 0.929 . S
C30 Tb1 2.764 . S
C30 O14 1.239 . S
C30 O15 1.263 . S
C30 C24 1.504 . S
C31 O16 1.236 . S
C31 O17 1.257 . S
H32 C5 0.932 . S
H33 C6 0.930 . S
H34 C7 0.932 . S
H35 C8 0.929 . S
H36 C26 0.932 . S
H37 C27 0.930 . S
H38 C28 0.932 . S
H39 C29 0.929 . S
Tb40 C49 2.764 1_545 S
Tb40 O50 2.325 1_545 S
Tb40 O53 2.303 . S
Tb40 O57 2.322 . S
Tb40 O58 2.349 . S
Tb40 O61 2.415 1_545 S
Tb40 O62 2.399 1_545 S
Tb41 O51 2.322 1_545 S
Tb41 O52 2.349 . S
Tb41 O54 2.415 . S
Tb41 O55 2.399 . S
Tb41 O56 2.325 . S
Tb41 O59 2.303 . S
Tb41 C70 2.764 . S
C42 O58 1.261 . S
C42 O59 1.257 . S
C43 C46 1.358 . S
C43 C47 1.332 . S
C43 C49 1.504 . S
C44 C45 1.373 . S
C44 C48 1.308 . S
C45 C44 1.373 . S
C45 C46 1.429 . S
C45 H72 0.932 . S
C46 C43 1.358 . S
C46 C45 1.429 . S
C46 H73 0.930 . S
C47 C43 1.332 . S
C47 C48 1.394 . S
C47 H74 0.932 . S
C48 C44 1.308 . S
C48 C47 1.394 . S
C48 H75 0.929 . S
C49 Tb40 2.764 1_565 S
C49 C43 1.504 . S
C49 O61 1.239 . S
C49 O62 1.263 . S
O50 Tb40 2.325 1_565 S
O50 C60 1.236 . S
O51 Tb41 2.322 1_565 S
O51 C60 1.257 . S
O52 Tb41 2.349 . S
O52 C63 1.261 . S
O53 Tb40 2.303 . S
O53 C63 1.257 . S
O54 Tb41 2.415 . S
O54 C70 1.239 . S
O55 Tb41 2.399 . S
O55 C70 1.263 . S
O56 Tb41 2.325 . S
O56 C71 1.236 . S
O57 Tb40 2.322 . S
O57 C71 1.257 . S
O58 Tb40 2.349 . S
O58 C42 1.261 . S
O59 Tb41 2.303 . S
O59 C42 1.257 . S
C60 O50 1.236 . S
C60 O51 1.257 . S
O61 Tb40 2.415 1_565 S
O61 C49 1.239 . S
O62 Tb40 2.399 1_565 S
O62 C49 1.263 . S
C63 O52 1.261 . S
C63 O53 1.257 . S
C64 C67 1.358 . S
C64 C68 1.332 . S
C64 C70 1.504 . S
C65 C66 1.373 . S
C65 C69 1.308 . S
C66 C65 1.373 . S
C66 C67 1.429 . S
C66 H76 0.932 . S
C67 C64 1.358 . S
C67 C66 1.429 . S
C67 H77 0.930 . S
C68 C64 1.332 . S
C68 C69 1.394 . S
C68 H78 0.932 . S
C69 C65 1.308 . S
C69 C68 1.394 . S
C69 H79 0.929 . S
C70 Tb41 2.764 . S
C70 O54 1.239 . S
C70 O55 1.263 . S
C70 C64 1.504 . S
C71 O56 1.236 . S
C71 O57 1.257 . S
H72 C45 0.932 . S
H73 C46 0.930 . S
H74 C47 0.932 . S
H75 C48 0.929 . S
H76 C66 0.932 . S
H77 C67 0.930 . S
H78 C68 0.932 . S
H79 C69 0.929 . S
Tb80 C89 2.764 . S
Tb80 O90 2.325 . S
Tb80 O93 2.303 . S
Tb80 O97 2.322 . S
Tb80 O98 2.349 . S
Tb80 O101 2.415 . S
Tb80 O102 2.399 . S
Tb81 O91 2.322 . S
Tb81 O92 2.349 . S
Tb81 O94 2.415 . S
Tb81 O95 2.399 . S
Tb81 O96 2.325 . S
Tb81 O99 2.303 . S
Tb81 C110 2.764 . S
C82 O98 1.261 . S
C82 O99 1.257 . S
C83 C86 1.358 . S
C83 C87 1.332 . S
C83 C89 1.504 . S
C84 C85 1.373 . S
C84 C88 1.308 . S
C85 C84 1.373 . S
C85 C86 1.429 . S
C85 H112 0.932 . S
C86 C83 1.358 . S
C86 C85 1.429 . S
C86 H113 0.930 . S
C87 C83 1.332 . S
C87 C88 1.394 . S
C87 H114 0.932 . S
C88 C84 1.308 . S
C88 C87 1.394 . S
C88 H115 0.929 . S
C89 Tb80 2.764 . S
C89 C83 1.504 . S
C89 O101 1.239 . S
C89 O102 1.263 . S
O90 Tb80 2.325 . S
O90 C100 1.236 . S
O91 Tb81 2.322 . S
O91 C100 1.257 . S
O92 Tb81 2.349 . S
O92 C103 1.261 . S
O93 Tb80 2.303 . S
O93 C103 1.257 . S
O94 Tb81 2.415 . S
O94 C110 1.239 . S
O95 Tb81 2.399 . S
O95 C110 1.263 . S
O96 Tb81 2.325 . S
O96 C111 1.236 . S
O97 Tb80 2.322 . S
O97 C111 1.257 . S
O98 Tb80 2.349 . S
O98 C82 1.261 . S
O99 Tb81 2.303 . S
O99 C82 1.257 . S
C100 O90 1.236 . S
C100 O91 1.257 . S
O101 Tb80 2.415 . S
O101 C89 1.239 . S
O102 Tb80 2.399 . S
O102 C89 1.263 . S
C103 O92 1.261 . S
C103 O93 1.257 . S
C104 C107 1.358 . S
C104 C108 1.332 . S
C104 C110 1.504 . S
C105 C106 1.373 . S
C105 C109 1.308 . S
C106 C105 1.373 . S
C106 C107 1.429 . S
C106 H116 0.932 . S
C107 C104 1.358 . S
C107 C106 1.429 . S
C107 H117 0.930 . S
C108 C104 1.332 . S
C108 C109 1.394 . S
C108 H118 0.932 . S
C109 C105 1.308 . S
C109 C108 1.394 . S
C109 H119 0.929 . S
C110 Tb81 2.764 . S
C110 O94 1.239 . S
C110 O95 1.263 . S
C110 C104 1.504 . S
C111 O96 1.236 . S
C111 O97 1.257 . S
H112 C85 0.932 . S
H113 C86 0.930 . S
H114 C87 0.932 . S
H115 C88 0.929 . S
H116 C106 0.932 . S
H117 C107 0.930 . S
H118 C108 0.932 . S
H119 C109 0.929 . S
C120 C121 1.391 . S
C120 C124 1.391 . S
C120 H162 0.948 . S
C121 C120 1.391 . S
C121 C122 1.391 . S
C122 C121 1.391 . S
C122 H178 0.947 . S
C122 C179 1.392 . S
C123 C124 1.391 . S
C123 C127 1.397 . S
C123 C179 1.419 . S
C124 C120 1.391 . S
C124 C123 1.391 . S
C124 C125 1.399 . S
C125 C124 1.399 . S
C125 C128 1.396 . S
C125 C137 1.453 . S
C125 C138 1.684 . S
H126 C150 0.948 . S
C127 C123 1.397 . S
C127 C128 1.394 . S
C127 C146 1.723 . S
C128 C125 1.396 . S
C128 C127 1.394 . S
C128 C158 1.719 1_545 S
H129 C152 0.947 . S
H130 C153 0.948 . S
H131 C159 0.982 . S
H132 C160 0.979 . S
H133 C160 0.980 . S
H134 C160 0.983 . S
H135 C159 0.979 . S
H136 C159 0.977 . S
C137 C125 1.453 . S
C137 H166 0.982 . S
C137 H167 0.979 . S
C137 H168 0.977 . S
C138 C125 1.684 . S
C138 H163 0.979 . S
C138 H164 0.980 . S
C138 H165 0.983 . S
C139 C140 1.391 . S
C139 C144 1.391 . S
C139 H169 0.948 . S
C140 C139 1.391 . S
C140 C141 1.391 . S
C141 C140 1.391 . S
C141 C142 1.392 1_545 S
C141 H170 0.947 1_545 S
C142 C141 1.392 1_565 S
C142 C143 1.418 1_565 S
C142 H171 0.949 . S
C143 C142 1.418 1_545 S
C143 C144 1.391 . S
C143 C147 1.397 . S
C144 C139 1.391 . S
C144 C143 1.391 . S
C144 C145 1.399 . S
C145 C144 1.399 . S
C145 C146 1.396 . S
C145 C148 1.453 . S
C145 C149 1.684 . S
C146 C127 1.723 . S
C146 C145 1.396 . S
C146 C147 1.394 . S
C147 C143 1.397 . S
C147 C146 1.394 . S
C147 C157 1.723 1_545 S
C148 C145 1.453 . S
C148 H172 0.982 . S
C148 H173 0.979 . S
C148 H174 0.977 . S
C149 C145 1.684 . S
C149 H175 0.979 . S
C149 H176 0.980 . S
C149 H177 0.983 . S
C150 H126 0.948 . S
C150 C151 1.391 . S
C150 C155 1.391 . S
C151 C150 1.391 . S
C151 C152 1.391 . S
C152 H129 0.947 . S
C152 C151 1.391 . S
C152 C153 1.392 . S
C153 H130 0.948 . S
C153 C152 1.392 . S
C153 C154 1.419 . S
C154 C153 1.419 . S
C154 C155 1.391 . S
C154 C158 1.400 . S
C155 C150 1.391 . S
C155 C154 1.391 . S
C155 C156 1.399 . S
C156 C155 1.399 . S
C156 C157 1.396 . S
C156 C159 1.453 . S
C156 C160 1.684 . S
C157 C147 1.723 1_565 S
C157 C156 1.396 . S
C157 C158 1.396 . S
C158 C128 1.719 1_565 S
C158 C154 1.400 . S
C158 C157 1.396 . S
C159 H131 0.982 . S
C159 H135 0.979 . S
C159 H136 0.977 . S
C159 C156 1.453 . S
C160 H132 0.979 . S
C160 H133 0.980 . S
C160 H134 0.983 . S
C160 C156 1.684 . S
H161 C179 0.948 . S
H162 C120 0.948 . S
H163 C138 0.979 . S
H164 C138 0.980 . S
H165 C138 0.983 . S
H166 C137 0.982 . S
H167 C137 0.979 . S
H168 C137 0.977 . S
H169 C139 0.948 . S
H170 C141 0.947 1_565 S
H171 C142 0.949 . S
H172 C148 0.982 . S
H173 C148 0.979 . S
H174 C148 0.977 . S
H175 C149 0.979 . S
H176 C149 0.980 . S
H177 C149 0.983 . S
H178 C122 0.947 . S
C179 C122 1.392 . S
C179 C123 1.419 . S
C179 H161 0.948 . S
C180 C181 1.391 . S
C180 C184 1.391 . S
C180 H222 0.948 . S
C181 C180 1.391 . S
C181 C182 1.391 . S
C182 C181 1.391 . S
C182 H238 0.947 . S
C182 C239 1.392 . S
C183 C184 1.391 . S
C183 C187 1.397 . S
C183 C239 1.419 . S
C184 C180 1.391 . S
C184 C183 1.391 . S
C184 C185 1.399 . S
C185 C184 1.399 . S
C185 C188 1.396 . S
C185 C197 1.453 . S
C185 C198 1.684 . S
H186 C210 0.948 . S
C187 C183 1.397 . S
C187 C188 1.394 . S
C187 C206 1.723 . S
C188 C185 1.396 . S
C188 C187 1.394 . S
C188 C218 1.723 . S
H189 C212 0.947 . S
H190 C213 0.948 . S
H191 C219 0.982 . S
H192 C220 0.979 . S
H193 C220 0.980 . S
H194 C220 0.983 . S
H195 C219 0.979 . S
H196 C219 0.977 . S
C197 C185 1.453 . S
C197 H226 0.982 . S
C197 H227 0.979 . S
C197 H228 0.977 . S
C198 C185 1.684 . S
C198 H223 0.979 . S
C198 H224 0.980 . S
C198 H225 0.983 . S
C199 C200 1.391 . S
C199 C204 1.391 . S
C199 H229 0.948 . S
C200 C199 1.391 . S
C200 C201 1.391 . S
C201 C200 1.391 . S
C201 C202 1.392 . S
C201 H230 0.947 . S
C202 C201 1.392 . S
C202 C203 1.419 . S
C202 H231 0.948 . S
C203 C202 1.419 . S
C203 C204 1.391 . S
C203 C207 1.397 . S
C204 C199 1.391 . S
C204 C203 1.391 . S
C204 C205 1.399 . S
C205 C204 1.399 . S
C205 C206 1.396 . S
C205 C208 1.453 . S
C205 C209 1.684 . S
C206 C187 1.723 . S
C206 C205 1.396 . S
C206 C207 1.394 . S
C207 C203 1.397 . S
C207 C206 1.394 . S
C207 C217 1.723 . S
C208 C205 1.453 . S
C208 H232 0.982 . S
C208 H233 0.979 . S
C208 H234 0.977 . S
C209 C205 1.684 . S
C209 H235 0.979 . S
C209 H236 0.980 . S
C209 H237 0.983 . S
C210 H186 0.948 . S
C210 C211 1.391 . S
C210 C215 1.391 . S
C211 C210 1.391 . S
C211 C212 1.391 . S
C212 H189 0.947 . S
C212 C211 1.391 . S
C212 C213 1.392 . S
C213 H190 0.948 . S
C213 C212 1.392 . S
C213 C214 1.419 . S
C214 C213 1.419 . S
C214 C215 1.391 . S
C214 C218 1.397 . S
C215 C210 1.391 . S
C215 C214 1.391 . S
C215 C216 1.399 . S
C216 C215 1.399 . S
C216 C217 1.396 . S
C216 C219 1.453 . S
C216 C220 1.684 . S
C217 C207 1.723 . S
C217 C216 1.396 . S
C217 C218 1.394 . S
C218 C188 1.723 . S
C218 C214 1.397 . S
C218 C217 1.394 . S
C219 H191 0.982 . S
C219 H195 0.979 . S
C219 H196 0.977 . S
C219 C216 1.453 . S
C220 H192 0.979 . S
C220 H193 0.980 . S
C220 H194 0.983 . S
C220 C216 1.684 . S
H221 C239 0.948 . S
H222 C180 0.948 . S
H223 C198 0.979 . S
H224 C198 0.980 . S
H225 C198 0.983 . S
H226 C197 0.982 . S
H227 C197 0.979 . S
H228 C197 0.977 . S
H229 C199 0.948 . S
H230 C201 0.947 . S
H231 C202 0.948 . S
H232 C208 0.982 . S
H233 C208 0.979 . S
H234 C208 0.977 . S
H235 C209 0.979 . S
H236 C209 0.980 . S
H237 C209 0.983 . S
H238 C182 0.947 . S
C239 C182 1.392 . S
C239 C183 1.419 . S
C239 H221 0.948 . S
C240 C241 1.391 . S
C240 C244 1.391 . S
C240 H282 0.948 . S
C241 C240 1.391 . S
C241 C242 1.391 . S
C242 C241 1.391 . S
C242 H298 0.947 . S
C242 C299 1.392 . S
C243 C244 1.391 . S
C243 C247 1.397 . S
C243 C299 1.419 . S
C244 C240 1.391 . S
C244 C243 1.391 . S
C244 C245 1.399 . S
C245 C244 1.399 . S
C245 C248 1.396 . S
C245 C257 1.453 . S
C245 C258 1.684 . S
H246 C270 0.948 . S
C247 C243 1.397 . S
C247 C248 1.394 . S
C247 C266 1.723 . S
C248 C245 1.396 . S
C248 C247 1.394 . S
C248 C278 1.723 . S
H249 C272 0.947 . S
H250 C273 0.948 . S
H251 C279 0.982 . S
H252 C280 0.979 1_455 S
H253 C280 0.991 . S
H254 C280 0.983 . S
H255 C279 0.979 . S
H256 C279 0.977 . S
C257 C245 1.453 . S
C257 H286 0.982 . S
C257 H287 0.979 . S
C257 H288 0.977 . S
C258 C245 1.684 . S
C258 H283 0.979 . S
C258 H284 0.980 . S
C258 H285 0.983 . S
C259 C260 1.391 . S
C259 C264 1.391 . S
C259 H289 0.948 . S
C260 C259 1.391 . S
C260 C261 1.391 . S
C261 C260 1.391 . S
C261 C262 1.392 . S
C261 H290 0.947 . S
C262 C261 1.392 . S
C262 C263 1.419 . S
C262 H291 0.948 . S
C263 C262 1.419 . S
C263 C264 1.391 . S
C263 C267 1.397 . S
C264 C259 1.391 . S
C264 C263 1.391 . S
C264 C265 1.399 . S
C265 C264 1.399 . S
C265 C266 1.396 . S
C265 C268 1.453 . S
C265 C269 1.684 . S
C266 C247 1.723 . S
C266 C265 1.396 . S
C266 C267 1.394 . S
C267 C263 1.397 . S
C267 C266 1.394 . S
C267 C277 1.723 . S
C268 C265 1.453 . S
C268 H292 0.982 . S
C268 H293 0.979 . S
C268 H294 0.977 . S
C269 C265 1.684 . S
C269 H295 0.979 . S
C269 H296 0.980 . S
C269 H297 0.983 . S
C270 H246 0.948 . S
C270 C271 1.391 . S
C270 C275 1.391 . S
C271 C270 1.391 . S
C271 C272 1.391 . S
C272 H249 0.947 . S
C272 C271 1.391 . S
C272 C273 1.392 1_655 S
C273 H250 0.948 . S
C273 C272 1.392 1_455 S
C273 C274 1.419 . S
C274 C273 1.419 . S
C274 C275 1.391 1_455 S
C274 C278 1.397 . S
C275 C270 1.391 . S
C275 C274 1.391 1_655 S
C275 C276 1.396 1_655 S
C276 C275 1.396 1_455 S
C276 C277 1.410 . S
C276 C279 1.448 1_455 S
C276 C280 1.677 1_455 S
C277 C267 1.723 . S
C277 C276 1.410 . S
C277 C278 1.394 . S
C278 C248 1.723 . S
C278 C274 1.397 . S
C278 C277 1.394 . S
C279 H251 0.982 . S
C279 H255 0.979 . S
C279 H256 0.977 . S
C279 C276 1.448 1_655 S
C280 H252 0.979 1_655 S
C280 H253 0.991 . S
C280 H254 0.983 . S
C280 C276 1.677 1_655 S
H281 C299 0.948 . S
H282 C240 0.948 . S
H283 C258 0.979 . S
H284 C258 0.980 . S
H285 C258 0.983 . S
H286 C257 0.982 . S
H287 C257 0.979 . S
H288 C257 0.977 . S
H289 C259 0.948 . S
H290 C261 0.947 . S
H291 C262 0.948 . S
H292 C268 0.982 . S
H293 C268 0.979 . S
H294 C268 0.977 . S
H295 C269 0.979 . S
H296 C269 0.980 . S
H297 C269 0.983 . S
H298 C242 0.947 . S
C299 C242 1.392 . S
C299 C243 1.419 . S
C299 H281 0.948 . S
C300 C301 1.391 . S
C300 C304 1.391 . S
C300 H342 0.948 . S
C301 C300 1.391 . S
C301 C302 1.391 . S
C302 C301 1.391 . S
C302 H358 0.947 . S
C302 C359 1.392 . S
C303 C304 1.391 . S
C303 C307 1.397 . S
C303 C359 1.419 . S
C304 C300 1.391 . S
C304 C303 1.391 . S
C304 C305 1.399 . S
C305 C304 1.399 . S
C305 C308 1.396 . S
C305 C317 1.453 . S
C305 C318 1.684 . S
H306 C330 0.948 . S
C307 C303 1.397 . S
C307 C308 1.394 . S
C307 C326 1.723 . S
C308 C305 1.396 . S
C308 C307 1.394 . S
C308 C338 1.723 1_655 S
H309 C332 0.947 . S
H310 C333 0.948 . S
H311 C339 0.982 . S
H312 C340 0.979 . S
H313 C340 0.980 . S
H314 C340 0.983 . S
H315 C339 0.979 . S
H316 C339 0.977 . S
C317 C305 1.453 . S
C317 H346 0.982 1_655 S
C317 H347 0.979 . S
C317 H348 0.977 1_655 S
C318 C305 1.684 . S
C318 H343 0.979 . S
C318 H344 0.980 . S
C318 H345 0.983 . S
C319 C320 1.391 1_655 S
C319 C324 1.391 . S
C319 H349 0.948 . S
C320 C319 1.391 1_455 S
C320 C321 1.391 . S
C321 C320 1.391 . S
C321 C322 1.392 . S
C321 H350 0.947 . S
C322 C321 1.392 . S
C322 C323 1.419 . S
C322 H351 0.948 . S
C323 C322 1.419 . S
C323 C324 1.391 1_455 S
C323 C327 1.397 . S
C324 C319 1.391 . S
C324 C323 1.391 1_655 S
C324 C325 1.399 . S
C325 C324 1.399 . S
C325 C326 1.396 . S
C325 C328 1.453 . S
C325 C329 1.684 . S
C326 C307 1.723 . S
C326 C325 1.396 . S
C326 C327 1.394 1_655 S
C327 C323 1.397 . S
C327 C326 1.394 1_455 S
C327 C337 1.723 . S
C328 C325 1.453 . S
C328 H352 0.982 . S
C328 H353 0.979 . S
C328 H354 0.977 . S
C329 C325 1.684 . S
C329 H355 0.979 . S
C329 H356 0.980 . S
C329 H357 0.983 . S
C330 H306 0.948 . S
C330 C331 1.391 . S
C330 C335 1.391 . S
C331 C330 1.391 . S
C331 C332 1.391 . S
C332 H309 0.947 . S
C332 C331 1.391 . S
C332 C333 1.392 . S
C333 H310 0.948 . S
C333 C332 1.392 . S
C333 C334 1.419 . S
C334 C333 1.419 . S
C334 C335 1.391 . S
C334 C338 1.397 . S
C335 C330 1.391 . S
C335 C334 1.391 . S
C335 C336 1.399 . S
C336 C335 1.399 . S
C336 C337 1.396 . S
C336 C339 1.453 . S
C336 C340 1.684 . S
C337 C327 1.723 . S
C337 C336 1.396 . S
C337 C338 1.394 . S
C338 C308 1.723 1_455 S
C338 C334 1.397 . S
C338 C337 1.394 . S
C339 H311 0.982 . S
C339 H315 0.979 . S
C339 H316 0.977 . S
C339 C336 1.453 . S
C340 H312 0.979 . S
C340 H313 0.980 . S
C340 H314 0.983 . S
C340 C336 1.684 . S
H341 C359 0.948 . S
H342 C300 0.948 . S
H343 C318 0.979 . S
H344 C318 0.980 . S
H345 C318 0.983 . S
H346 C317 0.982 1_455 S
H347 C317 0.979 . S
H348 C317 0.977 1_455 S
H349 C319 0.948 . S
H350 C321 0.947 . S
H351 C322 0.948 . S
H352 C328 0.982 . S
H353 C328 0.979 . S
H354 C328 0.977 . S
H355 C329 0.979 . S
H356 C329 0.980 . S
H357 C329 0.983 . S
H358 C302 0.947 . S
C359 C302 1.392 . S
C359 C303 1.419 . S
C359 H341 0.948 . S
C360 C361 1.391 . S
C360 C364 1.391 . S
C360 H402 0.948 . S
C361 C360 1.391 . S
C361 C362 1.391 . S
C362 C361 1.391 . S
C362 H418 0.947 . S
C362 C419 1.392 . S
C363 C364 1.391 . S
C363 C367 1.397 . S
C363 C419 1.419 . S
C364 C360 1.391 . S
C364 C363 1.391 . S
C364 C365 1.399 . S
C365 C364 1.399 . S
C365 C368 1.396 . S
C365 C377 1.453 1_565 S
C365 C378 1.684 . S
H366 C390 0.948 . S
C367 C363 1.397 . S
C367 C368 1.394 . S
C367 C386 1.723 . S
C368 C365 1.396 . S
C368 C367 1.394 . S
C368 C398 1.723 1_565 S
H369 C392 0.947 . S
H370 C393 0.948 . S
H371 C399 0.982 . S
H372 C400 0.979 . S
H373 C400 0.980 . S
H374 C400 0.983 . S
H375 C399 0.979 . S
H376 C399 0.977 . S
C377 C365 1.453 1_545 S
C377 H406 0.982 . S
C377 H407 0.979 1_545 S
C377 H408 0.977 . S
C378 C365 1.684 . S
C378 H403 0.979 . S
C378 H404 0.949 1_565 S
C378 H405 0.983 . S
C379 C380 1.391 . S
C379 C384 1.391 . S
C379 H409 0.948 . S
C380 C379 1.391 . S
C380 C381 1.391 1_565 S
C381 C380 1.391 1_545 S
C381 C382 1.392 . S
C381 H410 0.947 . S
C382 C381 1.392 . S
C382 C383 1.419 . S
C382 H411 0.948 . S
C383 C382 1.419 . S
C383 C384 1.391 1_545 S
C383 C387 1.397 . S
C384 C379 1.391 . S
C384 C383 1.391 1_565 S
C384 C385 1.399 . S
C385 C384 1.399 . S
C385 C386 1.396 . S
C385 C388 1.453 . S
C385 C389 1.684 . S
C386 C367 1.723 . S
C386 C385 1.396 . S
C386 C387 1.394 1_565 S
C387 C383 1.397 . S
C387 C386 1.394 1_545 S
C387 C397 1.723 . S
C388 C385 1.453 . S
C388 H412 0.982 . S
C388 H413 0.979 . S
C388 H414 0.977 . S
C389 C385 1.684 . S
C389 H415 0.979 . S
C389 H416 0.980 . S
C389 H417 0.983 . S
C390 H366 0.948 . S
C390 C391 1.391 . S
C390 C395 1.391 . S
C391 C390 1.391 . S
C391 C392 1.391 . S
C392 H369 0.947 . S
C392 C391 1.391 . S
C392 C393 1.392 . S
C393 H370 0.948 . S
C393 C392 1.392 . S
C393 C394 1.419 . S
C394 C393 1.419 . S
C394 C395 1.391 . S
C394 C398 1.397 . S
C395 C390 1.391 . S
C395 C394 1.391 . S
C395 C396 1.399 . S
C396 C395 1.399 . S
C396 C397 1.396 . S
C396 C399 1.453 . S
C396 C400 1.684 . S
C397 C387 1.723 . S
C397 C396 1.396 . S
C397 C398 1.394 . S
C398 C368 1.723 1_545 S
C398 C394 1.397 . S
C398 C397 1.394 . S
C399 H371 0.982 . S
C399 H375 0.979 . S
C399 H376 0.977 . S
C399 C396 1.453 . S
C400 H372 0.979 . S
C400 H373 0.980 . S
C400 H374 0.983 . S
C400 C396 1.684 . S
H401 C419 0.948 . S
H402 C360 0.948 . S
H403 C378 0.979 . S
H404 C378 0.949 1_545 S
H405 C378 0.983 . S
H406 C377 0.982 . S
H407 C377 0.979 1_565 S
H408 C377 0.977 . S
H409 C379 0.948 . S
H410 C381 0.947 . S
H411 C382 0.948 . S
H412 C388 0.982 . S
H413 C388 0.979 . S
H414 C388 0.977 . S
H415 C389 0.979 . S
H416 C389 0.980 . S
H417 C389 0.983 . S
H418 C362 0.947 . S
C419 C362 1.392 . S
C419 C363 1.419 . S
C419 H401 0.948 . S
C420 C421 1.391 . S
C420 C424 1.391 . S
C420 H462 0.948 . S
C421 C420 1.391 . S
C421 C422 1.391 . S
C422 C421 1.391 . S
C422 H478 0.947 . S
C422 C479 1.392 . S
C423 C424 1.391 . S
C423 C427 1.397 . S
C423 C479 1.419 . S
C424 C420 1.391 . S
C424 C423 1.391 . S
C424 C425 1.399 . S
C425 C424 1.399 . S
C425 C428 1.396 . S
C425 C437 1.453 . S
C425 C438 1.684 . S
H426 C450 0.948 . S
C427 C423 1.397 . S
C427 C428 1.394 . S
C427 C446 1.723 . S
C428 C425 1.396 . S
C428 C427 1.394 . S
C428 C458 1.723 . S
H429 C452 0.947 . S
H430 C453 0.948 . S
H431 C459 0.982 . S
H432 C460 0.979 . S
H433 C460 0.980 . S
H434 C460 0.983 . S
H435 C459 0.979 . S
H436 C459 0.977 . S
C437 C425 1.453 . S
C437 H466 0.982 . S
C437 H467 0.979 . S
C437 H468 0.977 . S
C438 C425 1.684 . S
C438 H463 0.979 . S
C438 H464 0.980 . S
C438 H465 0.983 . S
C439 C440 1.391 . S
C439 C444 1.391 . S
C439 H469 0.948 . S
C440 C439 1.391 . S
C440 C441 1.391 . S
C441 C440 1.391 . S
C441 C442 1.392 . S
C441 H470 0.947 . S
C442 C441 1.392 . S
C442 C443 1.419 . S
C442 H471 0.948 . S
C443 C442 1.419 . S
C443 C444 1.391 . S
C443 C447 1.397 . S
C444 C439 1.391 . S
C444 C443 1.391 . S
C444 C445 1.399 . S
C445 C444 1.399 . S
C445 C446 1.396 . S
C445 C448 1.453 . S
C445 C449 1.684 . S
C446 C427 1.723 . S
C446 C445 1.396 . S
C446 C447 1.394 . S
C447 C443 1.397 . S
C447 C446 1.394 . S
C447 C457 1.723 . S
C448 C445 1.453 . S
C448 H472 0.982 . S
C448 H473 0.979 . S
C448 H474 0.977 . S
C449 C445 1.684 . S
C449 H475 0.979 . S
C449 H476 0.980 . S
C449 H477 0.983 . S
C450 H426 0.948 . S
C450 C451 1.391 . S
C450 C455 1.391 . S
C451 C450 1.391 . S
C451 C452 1.391 . S
C452 H429 0.947 . S
C452 C451 1.391 . S
C452 C453 1.392 . S
C453 H430 0.948 . S
C453 C452 1.392 . S
C453 C454 1.419 . S
C454 C453 1.419 . S
C454 C455 1.391 . S
C454 C458 1.397 . S
C455 C450 1.391 . S
C455 C454 1.391 . S
C455 C456 1.399 . S
C456 C455 1.399 . S
C456 C457 1.396 . S
C456 C459 1.453 . S
C456 C460 1.684 . S
C457 C447 1.723 . S
C457 C456 1.396 . S
C457 C458 1.394 . S
C458 C428 1.723 . S
C458 C454 1.397 . S
C458 C457 1.394 . S
C459 H431 0.982 . S
C459 H435 0.979 . S
C459 H436 0.977 . S
C459 C456 1.453 . S
C460 H432 0.979 . S
C460 H433 0.980 . S
C460 H434 0.983 . S
C460 C456 1.684 . S
H461 C479 0.948 . S
H462 C420 0.948 . S
H463 C438 0.979 . S
H464 C438 0.980 . S
H465 C438 0.983 . S
H466 C437 0.982 . S
H467 C437 0.979 . S
H468 C437 0.977 . S
H469 C439 0.948 . S
H470 C441 0.947 . S
H471 C442 0.948 . S
H472 C448 0.982 . S
H473 C448 0.979 . S
H474 C448 0.977 . S
H475 C449 0.979 . S
H476 C449 0.980 . S
H477 C449 0.983 . S
H478 C422 0.947 . S
C479 C422 1.392 . S
C479 C423 1.419 . S
C479 H461 0.948 . S
C480 C481 1.349 . S
C480 C482 1.327 . S
C480 H505 0.950 . S
C481 C480 1.349 . S
C481 C497 1.349 . S
C482 C480 1.327 . S
C482 C501 1.429 . S
C482 H506 0.950 . S
C483 C500 1.574 . S
C483 C502 1.368 . S
C483 H507 0.949 . S
H484 C488 0.949 . S
C485 C486 1.349 . S
C485 C487 1.327 . S
C485 H508 0.950 . S
C486 C485 1.349 . S
C486 C498 1.349 . S
C487 C485 1.327 . S
C487 C503 1.429 . S
C487 H509 0.950 . S
C488 H484 0.949 . S
C488 C496 1.574 . S
C488 C504 1.368 . S
H489 C497 0.950 . S
H490 C495 0.950 . S
H491 C496 0.949 . S
H492 C498 0.950 . S
H493 C499 0.950 . S
H494 C500 0.949 . S
C495 H490 0.950 . S
C495 C497 1.327 . S
C495 C501 1.429 . S
C496 C488 1.574 . S
C496 H491 0.949 . S
C496 C502 1.368 . S
C497 C481 1.349 . S
C497 H489 0.950 . S
C497 C495 1.327 . S
C498 C486 1.349 . S
C498 H492 0.950 . S
C498 C499 1.327 . S
C499 H493 0.950 . S
C499 C498 1.327 . S
C499 C503 1.429 . S
C500 C483 1.574 . S
C500 H494 0.949 . S
C500 C504 1.368 . S
C501 C482 1.429 . S
C501 C495 1.429 . S
C501 C502 1.523 . S
C502 C483 1.368 . S
C502 C496 1.368 . S
C502 C501 1.523 . S
C503 C487 1.429 . S
C503 C499 1.429 . S
C503 C504 1.523 . S
C504 C488 1.368 . S
C504 C500 1.368 . S
C504 C503 1.523 . S
H505 C480 0.950 . S
H506 C482 0.950 . S
H507 C483 0.949 . S
H508 C485 0.950 . S
H509 C487 0.950 . S
C510 C511 1.349 . S
C510 C512 1.327 . S
C510 H535 0.950 . S
C511 C510 1.349 . S
C511 C527 1.349 . S
C512 C510 1.327 . S
C512 C531 1.429 . S
C512 H536 0.950 . S
C513 C530 1.574 . S
C513 C532 1.368 . S
C513 H537 0.949 . S
H514 C518 0.949 . S
C515 C516 1.349 . S
C515 C517 1.327 . S
C515 H538 0.950 . S
C516 C515 1.349 . S
C516 C528 1.349 . S
C517 C515 1.327 . S
C517 C533 1.429 . S
C517 H539 0.950 . S
C518 H514 0.949 . S
C518 C526 1.574 . S
C518 C534 1.368 . S
H519 C527 0.950 . S
H520 C525 0.950 . S
H521 C526 0.949 . S
H522 C528 0.950 . S
H523 C529 0.950 . S
H524 C530 0.949 . S
C525 H520 0.950 . S
C525 C527 1.327 . S
C525 C531 1.429 . S
C526 C518 1.574 . S
C526 H521 0.949 . S
C526 C532 1.368 . S
C527 C511 1.349 . S
C527 H519 0.950 . S
C527 C525 1.327 . S
C528 C516 1.349 . S
C528 H522 0.950 . S
C528 C529 1.327 . S
C529 H523 0.950 . S
C529 C528 1.327 . S
C529 C533 1.429 . S
C530 C513 1.574 . S
C530 H524 0.949 . S
C530 C534 1.368 . S
C531 C512 1.429 . S
C531 C525 1.429 . S
C531 C532 1.523 . S
C532 C513 1.368 . S
C532 C526 1.368 . S
C532 C531 1.523 . S
C533 C517 1.429 . S
C533 C529 1.429 . S
C533 C534 1.523 . S
C534 C518 1.368 . S
C534 C530 1.368 . S
C534 C533 1.523 . S
H535 C510 0.950 . S
H536 C512 0.950 . S
H537 C513 0.949 . S
H538 C515 0.950 . S
H539 C517 0.950 . S
C540 C541 1.349 . S
C540 C542 1.327 . S
C540 H565 0.950 . S
C541 C540 1.349 . S
C541 C557 1.349 . S
C542 C540 1.327 . S
C542 C561 1.429 . S
C542 H566 0.950 . S
C543 C560 1.574 . S
C543 C562 1.368 . S
C543 H567 0.949 . S
H544 C548 0.949 . S
C545 C546 1.349 . S
C545 C547 1.327 . S
C545 H568 0.950 . S
C546 C545 1.349 . S
C546 C558 1.349 . S
C547 C545 1.327 . S
C547 C563 1.429 . S
C547 H569 0.950 . S
C548 H544 0.949 . S
C548 C556 1.574 . S
C548 C564 1.368 . S
H549 C557 0.950 . S
H550 C555 0.950 . S
H551 C556 0.949 . S
H552 C558 0.950 . S
H553 C559 0.950 . S
H554 C560 0.949 . S
C555 H550 0.950 . S
C555 C557 1.327 . S
C555 C561 1.429 . S
C556 C548 1.574 . S
C556 H551 0.949 . S
C556 C562 1.368 . S
C557 C541 1.349 . S
C557 H549 0.950 . S
C557 C555 1.327 . S
C558 C546 1.349 . S
C558 H552 0.950 . S
C558 C559 1.327 . S
C559 H553 0.950 . S
C559 C558 1.327 . S
C559 C563 1.429 . S
C560 C543 1.574 . S
C560 H554 0.949 . S
C560 C564 1.368 . S
C561 C542 1.429 . S
C561 C555 1.429 . S
C561 C562 1.523 . S
C562 C543 1.368 . S
C562 C556 1.368 . S
C562 C561 1.523 . S
C563 C547 1.429 . S
C563 C559 1.429 . S
C563 C564 1.523 . S
C564 C548 1.368 . S
C564 C560 1.368 . S
C564 C563 1.523 . S
H565 C540 0.950 . S
H566 C542 0.950 . S
H567 C543 0.949 . S
H568 C545 0.950 . S
H569 C547 0.950 . S
C570 C571 1.349 . S
C570 C572 1.327 . S
C570 H595 0.950 . S
C571 C570 1.349 . S
C571 C587 1.349 . S
C572 C570 1.327 . S
C572 C591 1.429 . S
C572 H596 0.950 . S
C573 C590 1.574 . S
C573 C592 1.368 . S
C573 H597 0.949 . S
H574 C578 0.949 . S
C575 C576 1.349 . S
C575 C577 1.327 . S
C575 H598 0.950 . S
C576 C575 1.349 . S
C576 C588 1.349 . S
C577 C575 1.327 . S
C577 C593 1.429 . S
C577 H599 0.950 . S
C578 H574 0.949 . S
C578 C586 1.574 . S
C578 C594 1.368 . S
H579 C587 0.950 . S
H580 C585 0.950 . S
H581 C586 0.949 . S
H582 C588 0.950 . S
H583 C589 0.950 . S
H584 C590 0.949 . S
C585 H580 0.950 . S
C585 C587 1.327 . S
C585 C591 1.429 . S
C586 C578 1.574 . S
C586 H581 0.949 . S
C586 C592 1.368 . S
C587 C571 1.349 . S
C587 H579 0.950 . S
C587 C585 1.327 . S
C588 C576 1.349 . S
C588 H582 0.950 . S
C588 C589 1.327 . S
C589 H583 0.950 . S
C589 C588 1.327 . S
C589 C593 1.429 . S
C590 C573 1.574 . S
C590 H584 0.949 . S
C590 C594 1.368 . S
C591 C572 1.429 . S
C591 C585 1.429 . S
C591 C592 1.523 . S
C592 C573 1.368 . S
C592 C586 1.368 . S
C592 C591 1.523 . S
C593 C577 1.429 . S
C593 C589 1.429 . S
C593 C594 1.523 . S
C594 C578 1.368 . S
C594 C590 1.368 . S
C594 C593 1.523 . S
H595 C570 0.950 . S
H596 C572 0.950 . S
H597 C573 0.949 . S
H598 C575 0.950 . S
H599 C577 0.950 . S
C600 C601 1.349 . S
C600 C602 1.327 . S
C600 H625 0.950 . S
C601 C600 1.349 . S
C601 C617 1.349 . S
C602 C600 1.327 . S
C602 C621 1.429 . S
C602 H626 0.950 . S
C603 C620 1.574 . S
C603 C622 1.368 . S
C603 H627 0.949 . S
H604 C608 0.949 . S
C605 C606 1.349 . S
C605 C607 1.327 . S
C605 H628 0.950 . S
C606 C605 1.349 . S
C606 C618 1.349 . S
C607 C605 1.327 . S
C607 C623 1.429 . S
C607 H629 0.950 . S
C608 H604 0.949 . S
C608 C616 1.574 . S
C608 C624 1.368 . S
H609 C617 0.950 . S
H610 C615 0.950 . S
H611 C616 0.949 . S
H612 C618 0.950 . S
H613 C619 0.950 . S
H614 C620 0.949 . S
C615 H610 0.950 . S
C615 C617 1.327 . S
C615 C621 1.429 . S
C616 C608 1.574 . S
C616 H611 0.949 . S
C616 C622 1.368 . S
C617 C601 1.349 . S
C617 H609 0.950 . S
C617 C615 1.327 . S
C618 C606 1.349 . S
C618 H612 0.950 . S
C618 C619 1.327 . S
C619 H613 0.950 . S
C619 C618 1.327 . S
C619 C623 1.429 . S
C620 C603 1.574 . S
C620 H614 0.949 . S
C620 C624 1.368 . S
C621 C602 1.429 . S
C621 C615 1.429 . S
C621 C622 1.523 . S
C622 C603 1.368 . S
C622 C616 1.368 . S
C622 C621 1.523 . S
C623 C607 1.429 . S
C623 C619 1.429 . S
C623 C624 1.523 . S
C624 C608 1.368 . S
C624 C620 1.368 . S
C624 C623 1.523 . S
H625 C600 0.950 . S
H626 C602 0.950 . S
H627 C603 0.949 . S
H628 C605 0.950 . S
H629 C607 0.950 . S
C630 C631 1.349 . S
C630 C632 1.327 . S
C630 H655 0.950 . S
C631 C630 1.349 . S
C631 C647 1.349 . S
C632 C630 1.327 . S
C632 C651 1.429 . S
C632 H656 0.950 . S
C633 C650 1.574 . S
C633 C652 1.368 . S
C633 H657 0.949 . S
H634 C638 0.949 . S
C635 C636 1.349 . S
C635 C637 1.327 . S
C635 H658 0.950 . S
C636 C635 1.349 . S
C636 C648 1.349 . S
C637 C635 1.327 . S
C637 C653 1.429 . S
C637 H659 0.950 . S
C638 H634 0.949 . S
C638 C646 1.574 . S
C638 C654 1.368 . S
H639 C647 0.950 . S
H640 C645 0.950 . S
H641 C646 0.949 . S
H642 C648 0.950 . S
H643 C649 0.950 . S
H644 C650 0.949 . S
C645 H640 0.950 . S
C645 C647 1.327 . S
C645 C651 1.429 . S
C646 C638 1.574 . S
C646 H641 0.949 . S
C646 C652 1.368 . S
C647 C631 1.349 . S
C647 H639 0.950 . S
C647 C645 1.327 . S
C648 C636 1.349 . S
C648 H642 0.950 . S
C648 C649 1.327 . S
C649 H643 0.950 . S
C649 C648 1.327 . S
C649 C653 1.429 . S
C650 C633 1.574 . S
C650 H644 0.949 . S
C650 C654 1.368 . S
C651 C632 1.429 . S
C651 C645 1.429 . S
C651 C652 1.523 . S
C652 C633 1.368 . S
C652 C646 1.368 . S
C652 C651 1.523 . S
C653 C637 1.429 . S
C653 C649 1.429 . S
C653 C654 1.523 . S
C654 C638 1.368 . S
C654 C650 1.368 . S
C654 C653 1.523 . S
H655 C630 0.950 . S
H656 C632 0.950 . S
H657 C633 0.949 . S
H658 C635 0.950 . S
H659 C637 0.950 . S
C660 C661 1.349 . S
C660 C662 1.327 . S
C660 H685 0.950 . S
C661 C660 1.349 . S
C661 C677 1.349 . S
C662 C660 1.327 . S
C662 C681 1.429 . S
C662 H686 0.950 . S
C663 C680 1.574 . S
C663 C682 1.368 . S
C663 H687 0.949 . S
H664 C668 0.949 . S
C665 C666 1.349 . S
C665 C667 1.327 . S
C665 H688 0.950 . S
C666 C665 1.349 . S
C666 C678 1.349 . S
C667 C665 1.327 . S
C667 C683 1.429 . S
C667 H689 0.950 . S
C668 H664 0.949 . S
C668 C676 1.574 . S
C668 C684 1.368 . S
H669 C677 0.950 . S
H670 C675 0.950 . S
H671 C676 0.949 . S
H672 C678 0.950 . S
H673 C679 0.950 . S
H674 C680 0.949 . S
C675 H670 0.950 . S
C675 C677 1.327 . S
C675 C681 1.429 . S
C676 C668 1.574 . S
C676 H671 0.949 . S
C676 C682 1.368 . S
C677 C661 1.349 . S
C677 H669 0.950 . S
C677 C675 1.327 . S
C678 C666 1.349 . S
C678 H672 0.950 . S
C678 C679 1.327 . S
C679 H673 0.950 . S
C679 C678 1.327 . S
C679 C683 1.429 . S
C680 C663 1.574 . S
C680 H674 0.949 . S
C680 C684 1.368 . S
C681 C662 1.429 . S
C681 C675 1.429 . S
C681 C682 1.523 . S
C682 C663 1.368 . S
C682 C676 1.368 . S
C682 C681 1.523 . S
C683 C667 1.429 . S
C683 C679 1.429 . S
C683 C684 1.523 . S
C684 C668 1.368 . S
C684 C680 1.368 . S
C684 C683 1.523 . S
H685 C660 0.950 . S
H686 C662 0.950 . S
H687 C663 0.949 . S
H688 C665 0.950 . S
H689 C667 0.950 . S
C690 C691 1.349 . S
C690 C692 1.327 . S
C690 H715 0.950 . S
C691 C690 1.349 . S
C691 C707 1.349 . S
C692 C690 1.327 . S
C692 C711 1.429 . S
C692 H716 0.950 . S
C693 C710 1.574 . S
C693 C712 1.368 . S
C693 H717 0.949 . S
H694 C698 0.949 . S
C695 C696 1.349 . S
C695 C697 1.327 . S
C695 H718 0.950 . S
C696 C695 1.349 . S
C696 C708 1.349 . S
C697 C695 1.327 . S
C697 C713 1.429 . S
C697 H719 0.950 . S
C698 H694 0.949 . S
C698 C706 1.574 . S
C698 C714 1.368 . S
H699 C707 0.950 . S
H700 C705 0.950 . S
H701 C706 0.949 . S
H702 C708 0.950 . S
H703 C709 0.950 . S
H704 C710 0.949 . S
C705 H700 0.950 . S
C705 C707 1.327 . S
C705 C711 1.429 . S
C706 C698 1.574 . S
C706 H701 0.949 . S
C706 C712 1.368 . S
C707 C691 1.349 . S
C707 H699 0.950 . S
C707 C705 1.327 . S
C708 C696 1.349 . S
C708 H702 0.950 . S
C708 C709 1.327 . S
C709 H703 0.950 . S
C709 C708 1.327 . S
C709 C713 1.429 . S
C710 C693 1.574 . S
C710 H704 0.949 . S
C710 C714 1.368 . S
C711 C692 1.429 . S
C711 C705 1.429 . S
C711 C712 1.523 . S
C712 C693 1.368 . S
C712 C706 1.368 . S
C712 C711 1.523 . S
C713 C697 1.429 . S
C713 C709 1.429 . S
C713 C714 1.523 . S
C714 C698 1.368 . S
C714 C710 1.368 . S
C714 C713 1.523 . S
H715 C690 0.950 . S
H716 C692 0.950 . S
H717 C693 0.949 . S
H718 C695 0.950 . S
H719 C697 0.950 . S
C720 C721 1.349 . S
C720 C722 1.327 . S
C720 H745 0.950 . S
C721 C720 1.349 . S
C721 C737 1.349 . S
C722 C720 1.327 . S
C722 C741 1.429 . S
C722 H746 0.950 . S
C723 C740 1.574 . S
C723 C742 1.368 . S
C723 H747 0.949 . S
H724 C728 0.949 . S
C725 C726 1.349 . S
C725 C727 1.327 . S
C725 H748 0.950 . S
C726 C725 1.349 . S
C726 C738 1.349 . S
C727 C725 1.327 . S
C727 C743 1.429 . S
C727 H749 0.950 . S
C728 H724 0.949 . S
C728 C736 1.574 . S
C728 C744 1.368 . S
H729 C737 0.950 . S
H730 C735 0.950 . S
H731 C736 0.949 . S
H732 C738 0.950 . S
H733 C739 0.950 . S
H734 C740 0.949 . S
C735 H730 0.950 . S
C735 C737 1.327 . S
C735 C741 1.429 . S
C736 C728 1.574 . S
C736 H731 0.949 . S
C736 C742 1.368 . S
C737 C721 1.349 . S
C737 H729 0.950 . S
C737 C735 1.327 . S
C738 C726 1.349 . S
C738 H732 0.950 . S
C738 C739 1.327 . S
C739 H733 0.950 . S
C739 C738 1.327 . S
C739 C743 1.429 . S
C740 C723 1.574 . S
C740 H734 0.949 . S
C740 C744 1.368 . S
C741 C722 1.429 . S
C741 C735 1.429 . S
C741 C742 1.523 . S
C742 C723 1.368 . S
C742 C736 1.368 . S
C742 C741 1.523 . S
C743 C727 1.429 . S
C743 C739 1.429 . S
C743 C744 1.523 . S
C744 C728 1.368 . S
C744 C740 1.368 . S
C744 C743 1.523 . S
H745 C720 0.950 . S
H746 C722 0.950 . S
H747 C723 0.949 . S
H748 C725 0.950 . S
H749 C727 0.950 . S
C750 C751 1.349 . S
C750 C752 1.327 . S
C750 H775 0.950 . S
C751 C750 1.349 . S
C751 C767 1.349 . S
C752 C750 1.327 . S
C752 C771 1.429 . S
C752 H776 0.950 . S
C753 C770 1.574 . S
C753 C772 1.368 . S
C753 H777 0.949 . S
H754 C758 0.949 . S
C755 C756 1.349 . S
C755 C757 1.327 . S
C755 H778 0.950 . S
C756 C755 1.349 . S
C756 C768 1.349 . S
C757 C755 1.327 . S
C757 C773 1.429 . S
C757 H779 0.950 . S
C758 H754 0.949 . S
C758 C766 1.574 . S
C758 C774 1.368 . S
H759 C767 0.950 . S
H760 C765 0.950 . S
H761 C766 0.949 . S
H762 C768 0.950 . S
H763 C769 0.950 . S
H764 C770 0.949 . S
C765 H760 0.950 . S
C765 C767 1.327 . S
C765 C771 1.429 . S
C766 C758 1.574 . S
C766 H761 0.949 . S
C766 C772 1.368 . S
C767 C751 1.349 . S
C767 H759 0.950 . S
C767 C765 1.327 . S
C768 C756 1.349 . S
C768 H762 0.950 . S
C768 C769 1.327 . S
C769 H763 0.950 . S
C769 C768 1.327 . S
C769 C773 1.429 . S
C770 C753 1.574 . S
C770 H764 0.949 . S
C770 C774 1.368 . S
C771 C752 1.429 . S
C771 C765 1.429 . S
C771 C772 1.523 . S
C772 C753 1.368 . S
C772 C766 1.368 . S
C772 C771 1.523 . S
C773 C757 1.429 . S
C773 C769 1.429 . S
C773 C774 1.523 . S
C774 C758 1.368 . S
C774 C770 1.368 . S
C774 C773 1.523 . S
H775 C750 0.950 . S
H776 C752 0.950 . S
H777 C753 0.949 . S
H778 C755 0.950 . S
H779 C757 0.950 . S
C780 C781 1.349 . S
C780 C782 1.327 . S
C780 H805 0.950 . S
C781 C780 1.349 . S
C781 C797 1.349 . S
C782 C780 1.327 . S
C782 C801 1.429 . S
C782 H806 0.950 . S
C783 C800 1.574 . S
C783 C802 1.368 . S
C783 H807 0.949 . S
H784 C788 0.949 . S
C785 C786 1.349 . S
C785 C787 1.327 . S
C785 H808 0.950 . S
C786 C785 1.349 . S
C786 C798 1.349 . S
C787 C785 1.327 . S
C787 C803 1.429 . S
C787 H809 0.950 . S
C788 H784 0.949 . S
C788 C796 1.574 . S
C788 C804 1.368 . S
H789 C797 0.950 . S
H790 C795 0.950 . S
H791 C796 0.949 . S
H792 C798 0.950 . S
H793 C799 0.950 . S
H794 C800 0.949 . S
C795 H790 0.950 . S
C795 C797 1.327 . S
C795 C801 1.429 . S
C796 C788 1.574 . S
C796 H791 0.949 . S
C796 C802 1.368 . S
C797 C781 1.349 . S
C797 H789 0.950 . S
C797 C795 1.327 . S
C798 C786 1.349 . S
C798 H792 0.950 . S
C798 C799 1.327 . S
C799 H793 0.950 . S
C799 C798 1.327 . S
C799 C803 1.429 . S
C800 C783 1.574 . S
C800 H794 0.949 . S
C800 C804 1.368 . S
C801 C782 1.429 . S
C801 C795 1.429 . S
C801 C802 1.523 . S
C802 C783 1.368 . S
C802 C796 1.368 . S
C802 C801 1.523 . S
C803 C787 1.429 . S
C803 C799 1.429 . S
C803 C804 1.523 . S
C804 C788 1.368 . S
C804 C800 1.368 . S
C804 C803 1.523 . S
H805 C780 0.950 . S
H806 C782 0.950 . S
H807 C783 0.949 . S
H808 C785 0.950 . S
H809 C787 0.950 . S
C810 C811 1.349 . S
C810 C812 1.327 . S
C810 H835 0.950 . S
C811 C810 1.349 . S
C811 C827 1.349 . S
C812 C810 1.327 . S
C812 C831 1.429 . S
C812 H836 0.950 . S
C813 C830 1.574 . S
C813 C832 1.368 . S
C813 H837 0.949 . S
H814 C818 0.949 . S
C815 C816 1.349 . S
C815 C817 1.327 . S
C815 H838 0.950 . S
C816 C815 1.349 . S
C816 C828 1.349 . S
C817 C815 1.327 . S
C817 C833 1.429 . S
C817 H839 0.950 . S
C818 H814 0.949 . S
C818 C826 1.574 . S
C818 C834 1.368 . S
H819 C827 0.950 . S
H820 C825 0.950 . S
H821 C826 0.949 . S
H822 C828 0.950 . S
H823 C829 0.950 . S
H824 C830 0.949 . S
C825 H820 0.950 . S
C825 C827 1.327 . S
C825 C831 1.429 . S
C826 C818 1.574 . S
C826 H821 0.949 . S
C826 C832 1.368 . S
C827 C811 1.349 . S
C827 H819 0.950 . S
C827 C825 1.327 . S
C828 C816 1.349 . S
C828 H822 0.950 . S
C828 C829 1.327 . S
C829 H823 0.950 . S
C829 C828 1.327 . S
C829 C833 1.429 . S
C830 C813 1.574 . S
C830 H824 0.949 . S
C830 C834 1.368 . S
C831 C812 1.429 . S
C831 C825 1.429 . S
C831 C832 1.523 . S
C832 C813 1.368 . S
C832 C826 1.368 . S
C832 C831 1.523 . S
C833 C817 1.429 . S
C833 C829 1.429 . S
C833 C834 1.523 . S
C834 C818 1.368 . S
C834 C830 1.368 . S
C834 C833 1.523 . S
H835 C810 0.950 . S
H836 C812 0.950 . S
H837 C813 0.949 . S
H838 C815 0.950 . S
H839 C817 0.950 . S
C840 C841 1.349 . S
C840 C842 1.327 . S
C840 H865 0.950 . S
C841 C840 1.349 . S
C841 C857 1.349 . S
C842 C840 1.327 . S
C842 C861 1.429 . S
C842 H866 0.950 . S
C843 C860 1.574 . S
C843 C862 1.368 . S
C843 H867 0.949 . S
H844 C848 0.949 . S
C845 C846 1.349 . S
C845 C847 1.327 1_556 S
C845 H868 0.950 . S
C846 C845 1.349 . S
C846 C858 1.349 . S
C847 C845 1.327 1_554 S
C847 C863 1.429 . S
C847 H869 0.950 . S
C848 H844 0.949 . S
C848 C856 1.574 . S
C848 C864 1.368 . S
H849 C857 0.950 . S
H850 C855 0.950 . S
H851 C856 0.949 . S
H852 C858 0.950 . S
H853 C859 0.950 . S
H854 C860 0.949 . S
C855 H850 0.950 . S
C855 C857 1.327 . S
C855 C861 1.429 . S
C856 C848 1.574 . S
C856 H851 0.949 . S
C856 C862 1.368 . S
C857 C841 1.349 . S
C857 H849 0.950 . S
C857 C855 1.327 . S
C858 C846 1.349 . S
C858 H852 0.950 . S
C858 C859 1.327 1_556 S
C859 H853 0.950 . S
C859 C858 1.327 1_554 S
C859 C863 1.429 . S
C860 C843 1.574 . S
C860 H854 0.949 . S
C860 C864 1.368 . S
C861 C842 1.429 . S
C861 C855 1.429 . S
C861 C862 1.523 . S
C862 C843 1.368 . S
C862 C856 1.368 . S
C862 C861 1.523 . S
C863 C847 1.429 . S
C863 C859 1.429 . S
C863 C864 1.523 . S
C864 C848 1.368 . S
C864 C860 1.368 . S
C864 C863 1.523 . S
H865 C840 0.950 . S
H866 C842 0.950 . S
H867 C843 0.949 . S
H868 C845 0.950 . S
H869 C847 0.950 . S
C870 C871 1.349 . S
C870 C872 1.327 . S
C870 H895 0.950 . S
C871 C870 1.349 . S
C871 C887 1.349 . S
C872 C870 1.327 . S
C872 C891 1.429 . S
C872 H896 0.950 . S
C873 C890 1.574 . S
C873 C892 1.368 . S
C873 H897 0.949 1_545 S
H874 C878 0.949 . S
C875 C876 1.349 . S
C875 C877 1.327 . S
C875 H898 0.958 . S
C876 C875 1.349 . S
C876 C888 1.349 . S
C877 C875 1.327 . S
C877 C893 1.429 . S
C877 H899 0.942 1_545 S
C878 H874 0.949 . S
C878 C886 1.574 . S
C878 C894 1.368 . S
H879 C887 0.950 1_565 S
H880 C885 0.950 1_565 S
H881 C886 0.949 . S
H882 C888 0.950 . S
H883 C889 0.950 . S
H884 C890 0.949 1_565 S
C885 H880 0.950 1_545 S
C885 C887 1.327 . S
C885 C891 1.429 . S
C886 C878 1.574 . S
C886 H881 0.949 . S
C886 C892 1.368 . S
C887 C871 1.349 . S
C887 H879 0.950 1_545 S
C887 C885 1.327 . S
C888 C876 1.349 . S
C888 H882 0.950 . S
C888 C889 1.327 . S
C889 H883 0.950 . S
C889 C888 1.327 . S
C889 C893 1.429 . S
C890 C873 1.574 . S
C890 H884 0.949 1_545 S
C890 C894 1.368 . S
C891 C872 1.429 . S
C891 C885 1.429 . S
C891 C892 1.523 . S
C892 C873 1.368 . S
C892 C886 1.368 . S
C892 C891 1.523 . S
C893 C877 1.429 . S
C893 C889 1.429 . S
C893 C894 1.523 . S
C894 C878 1.368 . S
C894 C890 1.368 . S
C894 C893 1.523 . S
H895 C870 0.950 . S
H896 C872 0.950 . S
H897 C873 0.949 1_565 S
H898 C875 0.958 . S
H899 C877 0.942 1_565 S
C900 C901 1.349 . S
C900 C902 1.327 . S
C900 H925 0.950 . S
C901 C900 1.349 . S
C901 C917 1.349 . S
C902 C900 1.327 . S
C902 C921 1.429 . S
C902 H926 0.950 . S
C903 C920 1.574 . S
C903 C922 1.368 . S
C903 H927 0.949 . S
H904 C908 0.949 . S
C905 C906 1.349 . S
C905 C907 1.327 . S
C905 H928 0.950 . S
C906 C905 1.349 . S
C906 C918 1.349 . S
C907 C905 1.327 . S
C907 C923 1.429 . S
C907 H929 0.950 . S
C908 H904 0.949 . S
C908 C916 1.574 . S
C908 C924 1.368 . S
H909 C917 0.950 . S
H910 C915 0.950 . S
H911 C916 0.949 . S
H912 C918 0.950 . S
H913 C919 0.950 . S
H914 C920 0.949 . S
C915 H910 0.950 . S
C915 C917 1.327 . S
C915 C921 1.429 . S
C916 C908 1.574 . S
C916 H911 0.949 . S
C916 C922 1.368 . S
C917 C901 1.349 . S
C917 H909 0.950 . S
C917 C915 1.327 . S
C918 C906 1.349 . S
C918 H912 0.950 . S
C918 C919 1.327 . S
C919 H913 0.950 . S
C919 C918 1.327 . S
C919 C923 1.429 . S
C920 C903 1.574 . S
C920 H914 0.949 . S
C920 C924 1.368 . S
C921 C902 1.429 . S
C921 C915 1.429 . S
C921 C922 1.523 . S
C922 C903 1.368 . S
C922 C916 1.368 . S
C922 C921 1.523 . S
C923 C907 1.429 . S
C923 C919 1.429 . S
C923 C924 1.523 . S
C924 C908 1.368 . S
C924 C920 1.368 . S
C924 C923 1.523 . S
H925 C900 0.950 . S
H926 C902 0.950 . S
H927 C903 0.949 . S
H928 C905 0.950 . S
H929 C907 0.950 . S
C930 C931 1.349 1_565 S
C930 C932 1.327 . S
C930 H955 0.950 . S
C931 C930 1.349 1_545 S
C931 C947 1.349 . S
C932 C930 1.327 . S
C932 C951 1.429 1_565 S
C932 H956 0.950 . S
C933 C950 1.574 . S
C933 C952 1.368 . S
C933 H957 0.949 . S
H934 C938 0.949 . S
C935 C936 1.349 1_545 S
C935 C937 1.327 . S
C935 H958 0.950 . S
C936 C935 1.349 1_565 S
C936 C948 1.349 . S
C937 C935 1.327 . S
C937 C953 1.429 . S
C937 H959 0.950 . S
C938 H934 0.949 . S
C938 C946 1.574 . S
C938 C954 1.368 1_565 S
H939 C947 0.950 . S
H940 C945 0.950 . S
H941 C946 0.949 . S
H942 C948 0.950 . S
H943 C949 0.950 . S
H944 C950 0.949 . S
C945 H940 0.950 . S
C945 C947 1.327 . S
C945 C951 1.429 . S
C946 C938 1.574 . S
C946 H941 0.949 . S
C946 C952 1.368 1_565 S
C947 C931 1.349 . S
C947 H939 0.950 . S
C947 C945 1.327 . S
C948 C936 1.349 . S
C948 H942 0.950 . S
C948 C949 1.327 . S
C949 H943 0.950 . S
C949 C948 1.327 . S
C949 C953 1.429 1_565 S
C950 C933 1.574 . S
C950 H944 0.949 . S
C950 C954 1.368 . S
C951 C932 1.429 1_545 S
C951 C945 1.429 . S
C951 C952 1.523 . S
C952 C933 1.368 . S
C952 C946 1.368 1_545 S
C952 C951 1.523 . S
C953 C937 1.429 . S
C953 C949 1.429 1_545 S
C953 C954 1.523 . S
C954 C938 1.368 1_545 S
C954 C950 1.368 . S
C954 C953 1.523 . S
H955 C930 0.950 . S
H956 C932 0.950 . S
H957 C933 0.949 . S
H958 C935 0.950 . S
H959 C937 0.950 . S
C960 C961 1.349 . S
C960 C962 1.327 . S
C960 H985 0.950 . S
C961 C960 1.349 . S
C961 C977 1.349 . S
C962 C960 1.327 . S
C962 C981 1.429 . S
C962 H986 0.950 . S
C963 C980 1.574 . S
C963 C982 1.368 . S
C963 H987 0.949 . S
H964 C968 0.949 . S
C965 C966 1.349 . S
C965 C967 1.327 1_554 S
C965 H988 0.950 . S
C966 C965 1.349 . S
C966 C978 1.349 . S
C967 C965 1.327 1_556 S
C967 C983 1.429 . S
C967 H989 0.950 . S
C968 H964 0.949 . S
C968 C976 1.574 . S
C968 C984 1.368 . S
H969 C977 0.950 . S
H970 C975 0.950 . S
H971 C976 0.949 . S
H972 C978 0.950 . S
H973 C979 0.950 . S
H974 C980 0.949 . S
C975 H970 0.950 . S
C975 C977 1.327 . S
C975 C981 1.429 . S
C976 C968 1.574 . S
C976 H971 0.949 . S
C976 C982 1.368 . S
C977 C961 1.349 . S
C977 H969 0.950 . S
C977 C975 1.327 . S
C978 C966 1.349 . S
C978 H972 0.950 . S
C978 C979 1.327 1_554 S
C979 H973 0.950 . S
C979 C978 1.327 1_556 S
C979 C983 1.429 . S
C980 C963 1.574 . S
C980 H974 0.949 . S
C980 C984 1.368 . S
C981 C962 1.429 . S
C981 C975 1.429 . S
C981 C982 1.523 . S
C982 C963 1.368 . S
C982 C976 1.368 . S
C982 C981 1.523 . S
C983 C967 1.429 . S
C983 C979 1.429 . S
C983 C984 1.523 . S
C984 C968 1.368 . S
C984 C980 1.368 . S
C984 C983 1.523 . S
H985 C960 0.950 . S
H986 C962 0.950 . S
H987 C963 0.949 . S
H988 C965 0.950 . S
H989 C967 0.950 . S
C990 C991 1.349 . S
C990 C992 1.327 . S
C990 H1015 0.950 . S
C991 C990 1.349 . S
C991 C1007 1.349 . S
C992 C990 1.327 . S
C992 C1011 1.429 . S
C992 H1016 0.950 . S
C993 C1010 1.574 . S
C993 C1012 1.368 . S
C993 H1017 0.949 . S
H994 C998 0.949 . S
C995 C996 1.349 1_455 S
C995 C997 1.327 . S
C995 H1018 0.950 . S
C996 C995 1.349 1_655 S
C996 C1008 1.349 . S
C997 C995 1.327 . S
C997 C1013 1.429 . S
C997 H1019 0.950 . S
C998 H994 0.949 . S
C998 C1006 1.574 . S
C998 C1014 1.368 . S
H999 C1007 0.950 . S
H1000 C1005 0.950 . S
H1001 C1006 0.949 . S
H1002 C1008 0.950 . S
H1003 C1009 0.950 . S
H1004 C1010 0.949 . S
C1005 H1000 0.950 . S
C1005 C1007 1.327 . S
C1005 C1011 1.429 . S
C1006 C998 1.574 . S
C1006 H1001 0.949 . S
C1006 C1012 1.368 . S
C1007 C991 1.349 . S
C1007 H999 0.950 . S
C1007 C1005 1.327 . S
C1008 C996 1.349 . S
C1008 H1002 0.950 . S
C1008 C1009 1.327 1_655 S
C1009 H1003 0.950 . S
C1009 C1008 1.327 1_455 S
C1009 C1013 1.429 . S
C1010 C993 1.574 . S
C1010 H1004 0.949 . S
C1010 C1014 1.368 . S
C1011 C992 1.429 . S
C1011 C1005 1.429 . S
C1011 C1012 1.523 . S
C1012 C993 1.368 . S
C1012 C1006 1.368 . S
C1012 C1011 1.523 . S
C1013 C997 1.429 . S
C1013 C1009 1.429 . S
C1013 C1014 1.523 . S
C1014 C998 1.368 . S
C1014 C1010 1.368 . S
C1014 C1013 1.523 . S
H1015 C990 0.950 . S
H1016 C992 0.950 . S
H1017 C993 0.949 . S
H1018 C995 0.950 . S
H1019 C997 0.950 . S
C481 C25 0.298 . S
C486 C451 0.254 . S
C511 C65 0.263 . S
C516 C301 0.365 . S
C541 C105 0.322 . S
C546 C361 0.338 . S
C571 C4 0.298 . S
C576 C421 0.357 . S
C606 C331 0.234 . S
C601 C44 0.286 . S
C636 C391 0.293 . S
C631 C84 0.331 . S
C661 C60 2.826 . S
C666 C181 2.685 . S
C691 C100 3.035 . S
C696 C271 3.025 . S
C721 C31 3.042 . S
C726 C151 3.038 . S
C756 C211 3.025 . S
C751 C71 3.025 . S
C786 C241 2.690 . S
C781 C111 2.817 . S
C811 C20 2.822 . S
C816 C121 2.687 . S
C846 C260 1.769 . S
C841 C2 1.729 . S
C871 C42 1.740 . S
C876 C140 1.745 . S
C901 C82 1.739 . S
C906 C200 1.755 . S
C936 C380 1.067 . S
C931 C63 1.070 . S
C966 C440 1.106 . S
C961 C103 1.102 . S
C991 C23 1.069 . S
C996 C320 1.065 1_655 S
