# Generated by pormake.
# Topology ctn, (3,4)-cn, num edge types: 1
# Building blocks:
#     Node 0, Type 0, BuildingBlock: PAMTOO_clean_linker_0, # of connection points: 3
#     Node 1, Type 0, BuildingBlock: PAMTOO_clean_linker_0, # of connection points: 3
#     Node 2, Type 0, BuildingBlock: PAMTOO_clean_linker_0, # of connection points: 3
#     Node 3, Type 0, BuildingBlock: PAMTOO_clean_linker_0, # of connection points: 3
#     Node 4, Type 0, BuildingBlock: PAMTOO_clean_linker_0, # of connection points: 3
#     Node 5, Type 0, BuildingBlock: PAMTOO_clean_linker_0, # of connection points: 3
#     Node 6, Type 0, BuildingBlock: PAMTOO_clean_linker_0, # of connection points: 3
#     Node 7, Type 0, BuildingBlock: PAMTOO_clean_linker_0, # of connection points: 3
#     Node 8, Type 0, BuildingBlock: PAMTOO_clean_linker_0, # of connection points: 3
#     Node 9, Type 0, BuildingBlock: PAMTOO_clean_linker_0, # of connection points: 3
#     Node 10, Type 0, BuildingBlock: PAMTOO_clean_linker_0, # of connection points: 3
#     Node 11, Type 0, BuildingBlock: PAMTOO_clean_linker_0, # of connection points: 3
#     Node 12, Type 0, BuildingBlock: PAMTOO_clean_linker_0, # of connection points: 3
#     Node 13, Type 0, BuildingBlock: PAMTOO_clean_linker_0, # of connection points: 3
#     Node 14, Type 0, BuildingBlock: PAMTOO_clean_linker_0, # of connection points: 3
#     Node 15, Type 0, BuildingBlock: PAMTOO_clean_linker_0, # of connection points: 3
#     Node 16, Type 1, BuildingBlock: QUQFOY_clean_sbu_1, # of connection points: 4
#     Node 17, Type 1, BuildingBlock: QUQFOY_clean_sbu_1, # of connection points: 4
#     Node 18, Type 1, BuildingBlock: QUQFOY_clean_sbu_1, # of connection points: 4
#     Node 19, Type 1, BuildingBlock: QUQFOY_clean_sbu_1, # of connection points: 4
#     Node 20, Type 1, BuildingBlock: QUQFOY_clean_sbu_1, # of connection points: 4
#     Node 21, Type 1, BuildingBlock: QUQFOY_clean_sbu_1, # of connection points: 4
#     Node 22, Type 1, BuildingBlock: QUQFOY_clean_sbu_1, # of connection points: 4
#     Node 23, Type 1, BuildingBlock: QUQFOY_clean_sbu_1, # of connection points: 4
#     Node 24, Type 1, BuildingBlock: QUQFOY_clean_sbu_1, # of connection points: 4
#     Node 25, Type 1, BuildingBlock: QUQFOY_clean_sbu_1, # of connection points: 4
#     Node 26, Type 1, BuildingBlock: QUQFOY_clean_sbu_1, # of connection points: 4
#     Node 27, Type 1, BuildingBlock: QUQFOY_clean_sbu_1, # of connection points: 4
#     Edge 28, Type (0, 1), BuildingBlock: KIFKEQ_clean_linker_1, # of connection points: 2
#     Edge 29, Type (0, 1), BuildingBlock: KIFKEQ_clean_linker_1, # of connection points: 2
#     Edge 30, Type (0, 1), BuildingBlock: KIFKEQ_clean_linker_1, # of connection points: 2
#     Edge 31, Type (0, 1), BuildingBlock: KIFKEQ_clean_linker_1, # of connection points: 2
#     Edge 32, Type (0, 1), BuildingBlock: KIFKEQ_clean_linker_1, # of connection points: 2
#     Edge 33, Type (0, 1), BuildingBlock: KIFKEQ_clean_linker_1, # of connection points: 2
#     Edge 34, Type (0, 1), BuildingBlock: KIFKEQ_clean_linker_1, # of connection points: 2
#     Edge 35, Type (0, 1), BuildingBlock: KIFKEQ_clean_linker_1, # of connection points: 2
#     Edge 36, Type (0, 1), BuildingBlock: KIFKEQ_clean_linker_1, # of connection points: 2
#     Edge 37, Type (0, 1), BuildingBlock: KIFKEQ_clean_linker_1, # of connection points: 2
#     Edge 38, Type (0, 1), BuildingBlock: KIFKEQ_clean_linker_1, # of connection points: 2
#     Edge 39, Type (0, 1), BuildingBlock: KIFKEQ_clean_linker_1, # of connection points: 2
#     Edge 40, Type (0, 1), BuildingBlock: KIFKEQ_clean_linker_1, # of connection points: 2
#     Edge 41, Type (0, 1), BuildingBlock: KIFKEQ_clean_linker_1, # of connection points: 2
#     Edge 42, Type (0, 1), BuildingBlock: KIFKEQ_clean_linker_1, # of connection points: 2
#     Edge 43, Type (0, 1), BuildingBlock: KIFKEQ_clean_linker_1, # of connection points: 2
#     Edge 44, Type (0, 1), BuildingBlock: KIFKEQ_clean_linker_1, # of connection points: 2
#     Edge 45, Type (0, 1), BuildingBlock: KIFKEQ_clean_linker_1, # of connection points: 2
#     Edge 46, Type (0, 1), BuildingBlock: KIFKEQ_clean_linker_1, # of connection points: 2
#     Edge 47, Type (0, 1), BuildingBlock: KIFKEQ_clean_linker_1, # of connection points: 2
#     Edge 48, Type (0, 1), BuildingBlock: KIFKEQ_clean_linker_1, # of connection points: 2
#     Edge 49, Type (0, 1), BuildingBlock: KIFKEQ_clean_linker_1, # of connection points: 2
#     Edge 50, Type (0, 1), BuildingBlock: KIFKEQ_clean_linker_1, # of connection points: 2
#     Edge 51, Type (0, 1), BuildingBlock: KIFKEQ_clean_linker_1, # of connection points: 2
#     Edge 52, Type (0, 1), BuildingBlock: KIFKEQ_clean_linker_1, # of connection points: 2
#     Edge 53, Type (0, 1), BuildingBlock: KIFKEQ_clean_linker_1, # of connection points: 2
#     Edge 54, Type (0, 1), BuildingBlock: KIFKEQ_clean_linker_1, # of connection points: 2
#     Edge 55, Type (0, 1), BuildingBlock: KIFKEQ_clean_linker_1, # of connection points: 2
#     Edge 56, Type (0, 1), BuildingBlock: KIFKEQ_clean_linker_1, # of connection points: 2
#     Edge 57, Type (0, 1), BuildingBlock: KIFKEQ_clean_linker_1, # of connection points: 2
#     Edge 58, Type (0, 1), BuildingBlock: KIFKEQ_clean_linker_1, # of connection points: 2
#     Edge 59, Type (0, 1), BuildingBlock: KIFKEQ_clean_linker_1, # of connection points: 2
#     Edge 60, Type (0, 1), BuildingBlock: KIFKEQ_clean_linker_1, # of connection points: 2
#     Edge 61, Type (0, 1), BuildingBlock: KIFKEQ_clean_linker_1, # of connection points: 2
#     Edge 62, Type (0, 1), BuildingBlock: KIFKEQ_clean_linker_1, # of connection points: 2
#     Edge 63, Type (0, 1), BuildingBlock: KIFKEQ_clean_linker_1, # of connection points: 2
#     Edge 64, Type (0, 1), BuildingBlock: KIFKEQ_clean_linker_1, # of connection points: 2
#     Edge 65, Type (0, 1), BuildingBlock: KIFKEQ_clean_linker_1, # of connection points: 2
#     Edge 66, Type (0, 1), BuildingBlock: KIFKEQ_clean_linker_1, # of connection points: 2
#     Edge 67, Type (0, 1), BuildingBlock: KIFKEQ_clean_linker_1, # of connection points: 2
#     Edge 68, Type (0, 1), BuildingBlock: KIFKEQ_clean_linker_1, # of connection points: 2
#     Edge 69, Type (0, 1), BuildingBlock: KIFKEQ_clean_linker_1, # of connection points: 2
#     Edge 70, Type (0, 1), BuildingBlock: KIFKEQ_clean_linker_1, # of connection points: 2
#     Edge 71, Type (0, 1), BuildingBlock: KIFKEQ_clean_linker_1, # of connection points: 2
#     Edge 72, Type (0, 1), BuildingBlock: KIFKEQ_clean_linker_1, # of connection points: 2
#     Edge 73, Type (0, 1), BuildingBlock: KIFKEQ_clean_linker_1, # of connection points: 2
#     Edge 74, Type (0, 1), BuildingBlock: KIFKEQ_clean_linker_1, # of connection points: 2
#     Edge 75, Type (0, 1), BuildingBlock: KIFKEQ_clean_linker_1, # of connection points: 2
# Relax obj value: 0.092
# Max RMSD: 0.209
# Mean RMSD: 0.144
data_MOF--net-ctn--node1-QUQFOY_clean_sbu_1--node2-PAMTOO_clean_linker_0--edge1-KIFKEQ_clean_linker_1
_symmetry_space_group_name_H-M    P1
_symmetry_Int_Tables_number       1
_symmetry_cell_setting            triclinic
loop_
_symmetry_equiv_pos_as_xyz
'x, y, z'
_cell_length_a     54.998364
_cell_length_b     55.084309
_cell_length_c     56.103288
_cell_angle_alpha  87.592417
_cell_angle_beta   92.726907
_cell_angle_gamma 102.68526
loop_
_atom_site_label
_atom_site_type_symbol
_atom_site_fract_x
_atom_site_fract_y
_atom_site_fract_z
_atom_type_partial_charge
H0 H 0.02059 0.11138 0.04304 0.0
H1 H 0.05807 0.05294 0.06691 0.0
H2 H 0.07132 0.08814 0.99777 0.0
H3 H 0.05875 0.03131 0.00262 0.0
C4 C 0.07143 0.02973 0.01842 0.0
O5 O 0.081 0.053 0.02739 0.0
H6 H 0.06033 0.01765 0.0322 0.0
C7 C 0.03375 0.09978 0.04053 0.0
C8 C 0.04617 0.10241 0.01902 0.0
C9 C 0.03744 0.08178 0.05811 0.0
C10 C 0.05425 0.06664 0.05369 0.0
C11 C 0.06606 0.06864 0.03186 0.0
C12 C 0.06205 0.08656 0.01456 0.0
H13 H 0.29963 0.71851 0.25627 0.0
H14 H 0.25376 0.73809 0.19736 0.0
H15 H 0.31798 0.79145 0.22237 0.0
H16 H 0.2748 0.81373 0.20774 0.0
C17 C 0.26535 0.79962 0.19477 0.0
O18 O 0.28032 0.78314 0.19122 0.0
H19 H 0.24733 0.78956 0.20219 0.0
C20 C 0.29562 0.73191 0.24277 0.0
C21 C 0.31131 0.75571 0.24132 0.0
C22 C 0.27484 0.72526 0.227 0.0
C23 C 0.26962 0.74286 0.2098 0.0
C24 C 0.28513 0.76665 0.20826 0.0
C25 C 0.30606 0.773 0.2238 0.0
H26 H 0.93682 0.51473 0.10564 0.0
H27 H 0.91984 0.48708 0.03477 0.0
H28 H 0.97492 0.46139 0.07894 0.0
H29 H 0.9851 0.47573 0.02856 0.0
C30 C 0.96715 0.4652 0.02055 0.0
O31 O 0.95038 0.45698 0.03821 0.0
H32 H 0.95956 0.47788 0.00774 0.0
C33 C 0.94007 0.5031 0.09157 0.0
C34 C 0.95791 0.48829 0.09529 0.0
C35 C 0.92646 0.50326 0.06971 0.0
C36 C 0.92978 0.48719 0.05191 0.0
C37 C 0.94692 0.47193 0.05561 0.0
C38 C 0.96101 0.4726 0.07705 0.0
H39 H 0.71448 0.85235 0.2839 0.0
H40 H 0.69617 0.7745 0.26757 0.0
H41 H 0.75449 0.82429 0.23106 0.0
H42 H 0.71055 0.79212 0.20344 0.0
C43 C 0.71183 0.77438 0.2132 0.0
O44 O 0.72735 0.77911 0.23331 0.0
H45 H 0.69278 0.76514 0.21877 0.0
C46 C 0.71814 0.83679 0.27457 0.0
C47 C 0.73697 0.84121 0.25781 0.0
C48 C 0.70316 0.81283 0.27838 0.0
C49 C 0.7074 0.79315 0.26513 0.0
C50 C 0.72549 0.79752 0.24782 0.0
C51 C 0.74041 0.82135 0.24438 0.0
H52 H 0.10078 0.99206 0.5011 0.0
H53 H 0.03181 0.96519 0.46093 0.0
H54 H 0.08304 0.03035 0.43641 0.0
H55 H 0.03215 0.03518 0.44057 0.0
C56 C 0.02205 0.01672 0.43407 0.0
O57 O 0.03878 0.00215 0.42991 0.0
H58 H 0.00926 0.00743 0.44814 0.0
C59 C 0.08854 0.993 0.48555 0.0
C60 C 0.09516 0.01267 0.46866 0.0
C61 C 0.06565 0.9756 0.48322 0.0
C62 C 0.04951 0.97822 0.46348 0.0
C63 C 0.05564 0.9982 0.44708 0.0
C64 C 0.07855 0.01506 0.44939 0.0
H65 H 0.20161 0.79604 0.77549 0.0
H66 H 0.22646 0.746 0.73016 0.0
H67 H 0.25929 0.75847 0.80067 0.0
H68 H 0.29482 0.75612 0.76293 0.0
C69 C 0.28269 0.74147 0.75199 0.0
O70 O 0.25935 0.73467 0.76137 0.0
H71 H 0.28114 0.74923 0.73348 0.0
C72 C 0.21391 0.78367 0.77246 0.0
C73 C 0.23065 0.77892 0.79085 0.0
C74 C 0.21201 0.77182 0.75057 0.0
C75 C 0.2278 0.75558 0.7468 0.0
C76 C 0.2451 0.75123 0.76472 0.0
C77 C 0.24646 0.76277 0.7867 0.0
H78 H 0.93792 0.59231 0.51751 0.0
H79 H 0.97405 0.55727 0.4665 0.0
H80 H 0.01299 0.62528 0.4978 0.0
H81 H 0.03453 0.62177 0.45016 0.0
C82 C 0.02037 0.60439 0.44675 0.0
O83 O 0.01573 0.59099 0.46802 0.0
H84 H 0.00308 0.6097 0.43914 0.0
C85 C 0.95406 0.59203 0.50725 0.0
C86 C 0.97539 0.61128 0.50946 0.0
C87 C 0.95339 0.57237 0.49194 0.0
C88 C 0.97422 0.57226 0.47846 0.0
C89 C 0.99566 0.59126 0.48081 0.0
C90 C 0.99634 0.61056 0.49641 0.0
H91 H 0.76403 0.83685 0.86122 0.0
H92 H 0.82285 0.80745 0.83305 0.0
H93 H 0.79006 0.85894 0.7906 0.0
H94 H 0.80139 0.81734 0.76354 0.0
C95 C 0.81695 0.81344 0.77544 0.0
O96 O 0.8231 0.83156 0.79225 0.0
H97 H 0.81069 0.79478 0.7843 0.0
C98 C 0.7763 0.8358 0.84694 0.0
C99 C 0.77458 0.84971 0.82551 0.0
C100 C 0.79376 0.82055 0.85006 0.0
C101 C 0.80955 0.81936 0.83139 0.0
C102 C 0.80788 0.83298 0.81004 0.0
C103 C 0.79061 0.84815 0.80713 0.0
H104 H 0.2676 0.34735 0.35414 0.0
H105 H 0.31965 0.31192 0.32139 0.0
H106 H 0.28374 0.36189 0.27991 0.0
H107 H 0.29184 0.31796 0.25209 0.0
C108 C 0.30647 0.31313 0.26463 0.0
O109 O 0.31529 0.33276 0.27944 0.0
H110 H 0.29806 0.29601 0.27516 0.0
C111 C 0.27727 0.34397 0.33864 0.0
C112 C 0.27352 0.3564 0.31684 0.0
C113 C 0.29411 0.32801 0.3407 0.0
C114 C 0.30694 0.32447 0.3205 0.0
C115 C 0.30299 0.33651 0.2987 0.0
C116 C 0.28651 0.35256 0.2969 0.0
H117 H 0.4456 0.02634 0.60291 0.0
H118 H 0.42089 0.00238 0.53214 0.0
H119 H 0.46861 0.96386 0.57411 0.0
H120 H 0.48253 0.98353 0.52483 0.0
C121 C 0.46439 0.97473 0.51592 0.0
O122 O 0.44624 0.96729 0.5325 0.0
H123 H 0.45868 0.9888 0.50333 0.0
C124 C 0.44502 0.01341 0.58874 0.0
C125 C 0.45842 0.99438 0.59151 0.0
C126 C 0.43126 0.01623 0.5675 0.0
C127 C 0.43099 2e-05 0.54884 0.0
C128 C 0.44481 0.98149 0.55119 0.0
C129 C 0.45818 0.97845 0.57254 0.0
H130 H 0.2083 0.33879 0.77577 0.0
H131 H 0.19085 0.25952 0.7676 0.0
H132 H 0.25067 0.30513 0.72908 0.0
H133 H 0.19643 0.2591 0.71251 0.0
C134 C 0.2102 0.24797 0.71911 0.0
O135 O 0.22556 0.25958 0.73737 0.0
H136 H 0.19918 0.22995 0.72618 0.0
C137 C 0.21212 0.32244 0.7679 0.0
C138 C 0.23154 0.325 0.75193 0.0
C139 C 0.19723 0.29896 0.77347 0.0
C140 C 0.20226 0.27777 0.7635 0.0
C141 C 0.22151 0.28006 0.74755 0.0
C142 C 0.23606 0.3036 0.74171 0.0
H143 H 0.79353 0.21377 0.75659 0.0
H144 H 0.74362 0.23508 0.70222 0.0
H145 H 0.81249 0.28554 0.7204 0.0
H146 H 0.76669 0.30912 0.70945 0.0
C147 C 0.75697 0.29488 0.69672 0.0
O148 O 0.77206 0.27858 0.69286 0.0
H149 H 0.7392 0.28473 0.70451 0.0
C150 C 0.78903 0.22729 0.74349 0.0
C151 C 0.8059 0.25026 0.74026 0.0
C152 C 0.76645 0.22153 0.72999 0.0
C153 C 0.76089 0.23906 0.71289 0.0
C154 C 0.77734 0.26216 0.70977 0.0
C155 C 0.79973 0.26778 0.72342 0.0
H156 H 0.50725 0.60451 0.54597 0.0
H157 H 0.55095 0.55138 0.57039 0.0
H158 H 0.56441 0.58972 0.50274 0.0
H159 H 0.55911 0.53515 0.50255 0.0
C160 C 0.56772 0.53214 0.52047 0.0
O161 O 0.57549 0.55462 0.53152 0.0
H162 H 0.55336 0.51963 0.5313 0.0
C163 C 0.52204 0.5948 0.54365 0.0
C164 C 0.53561 0.59971 0.52274 0.0
C165 C 0.52733 0.57757 0.56132 0.0
C166 C 0.54621 0.56473 0.55728 0.0
C167 C 0.55907 0.56872 0.53601 0.0
C168 C 0.55421 0.5866 0.51904 0.0
H169 H 0.58199 0.48167 0.00876 0.0
H170 H 0.50977 0.46093 0.97284 0.0
H171 H 0.56243 0.52516 0.94812 0.0
H172 H 0.5127 0.53214 0.95227 0.0
C173 C 0.50175 0.51392 0.94597 0.0
O174 O 0.51748 0.49829 0.94197 0.0
H175 H 0.48862 0.50545 0.96006 0.0
C176 C 0.56893 0.4846 0.99441 0.0
C177 C 0.5753 0.50524 0.97857 0.0
C178 C 0.54531 0.46846 0.99263 0.0
C179 C 0.52807 0.47313 0.97465 0.0
C180 C 0.53431 0.4936 0.95882 0.0
C181 C 0.55789 0.50944 0.96061 0.0
H182 H 0.70042 0.29731 0.28931 0.0
H183 H 0.71562 0.24279 0.24264 0.0
H184 H 0.76557 0.26684 0.30244 0.0
H185 H 0.78963 0.26214 0.25753 0.0
C186 C 0.77692 0.24485 0.25106 0.0
O187 O 0.75692 0.2379 0.26567 0.0
H188 H 0.77011 0.24874 0.2326 0.0
C189 C 0.71231 0.28527 0.28413 0.0
C190 C 0.73391 0.28418 0.29801 0.0
C191 C 0.70522 0.27019 0.26435 0.0
C192 C 0.72084 0.25477 0.25772 0.0
C193 C 0.74271 0.25379 0.27133 0.0
C194 C 0.74901 0.26818 0.29166 0.0
H195 H 0.44378 0.06983 0.02341 0.0
H196 H 0.48315 0.03594 0.97431 0.0
H197 H 0.52179 0.09965 0.01271 0.0
H198 H 0.55141 0.09638 0.96815 0.0
C199 C 0.53427 0.08278 0.96245 0.0
O200 O 0.52605 0.06714 0.98168 0.0
H201 H 0.52011 0.09363 0.95627 0.0
C202 C 0.46087 0.06922 0.01481 0.0
C203 C 0.48263 0.08719 0.01993 0.0
C204 C 0.46086 0.05058 -0.00147 0.0
C205 C 0.48287 0.0501 0.98707 0.0
C206 C 0.50482 0.06761 0.99257 0.0
C207 C 0.50477 0.0859 0.00911 0.0
O208 O 0.24471 0.86835 0.95996 0.0
Cd209 Cd 0.25546 0.88929 0.98967 0.0
Cd210 Cd 0.23826 0.92451 0.9618 0.0
O211 O 0.23072 0.89652 0.93734 0.0
O212 O 0.2665 0.8653 0.01282 0.0
O213 O 0.23645 0.88438 0.02016 0.0
C214 C 0.25064 0.8695 0.02737 0.0
C215 C 0.20668 0.94339 0.97298 0.0
C216 C 0.23536 0.87493 0.94024 0.0
C217 C 0.29205 0.93711 0.97685 0.0
O218 O 0.27462 0.94458 0.96508 0.0
O219 O 0.28776 0.91607 0.98777 0.0
O220 O 0.21721 0.94887 0.9528 0.0
O221 O 0.2139 0.92673 0.98682 0.0
O222 O 0.1688 0.54771 0.28405 0.0
Cd223 Cd 0.14751 0.51691 0.30064 0.0
Cd224 Cd 0.10985 0.5279 0.26756 0.0
O225 O 0.14023 0.55484 0.25741 0.0
O226 O 0.17288 0.50249 0.31918 0.0
O227 O 0.14856 0.48254 0.29044 0.0
C228 C 0.16651 0.48315 0.30628 0.0
C229 C 0.08135 0.51566 0.23577 0.0
C230 C 0.16226 0.56036 0.26644 0.0
C231 C 0.10218 0.52877 0.3209 0.0
O232 O 0.0941 0.53132 0.29954 0.0
O233 O 0.12304 0.52282 0.32524 0.0
O234 O 0.08502 0.53749 0.24432 0.0
O235 O 0.09353 0.50009 0.24556 0.0
O236 O 0.77684 0.70221 0.00776 0.0
Cd237 Cd 0.76412 0.67632 0.03448 0.0
Cd238 Cd 0.7916 0.64952 0.00825 0.0
O239 O 0.8006 0.68258 0.98866 0.0
O240 O 0.74414 0.6946 0.05269 0.0
O241 O 0.7766 0.68177 0.06892 0.0
C242 C 0.7584 0.69272 0.07118 0.0
C243 C 0.82179 0.62759 0.02099 0.0
C244 C 0.79152 0.70162 0.99107 0.0
C245 C 0.73686 0.62855 0.01158 0.0
O246 O 0.75689 0.62717 0.00194 0.0
O247 O 0.73652 0.64595 0.0256 0.0
O248 O 0.8145 0.62861 -0.00113 0.0
O249 O 0.81277 0.64021 0.03592 0.0
O250 O 0.92427 0.03924 0.26621 0.0
Cd251 Cd 0.90364 0.03898 0.23455 0.0
Cd252 Cd 0.87391 0.06051 0.26274 0.0
O253 O 0.90221 0.05852 0.28774 0.0
O254 O 0.92438 0.028 0.21078 0.0
O255 O 0.91566 0.06538 0.2091 0.0
C256 C 0.92665 0.04955 0.20028 0.0
C257 C 0.85895 0.09721 0.2597 0.0
C258 C 0.92068 0.04842 0.28581 0.0
C259 C 0.85089 0.01062 0.24246 0.0
O260 O 0.84845 0.02778 0.25601 0.0
O261 O 0.87095 0.01228 0.23157 0.0
O262 O 0.85414 0.08174 0.27759 0.0
O263 O 0.87256 0.09195 0.24334 0.0
O264 O 0.28944 0.21733 0.5015 0.0
Cd265 Cd 0.27679 0.19057 0.52741 0.0
Cd266 Cd 0.30569 0.16571 0.50312 0.0
O267 O 0.31442 0.19857 0.48319 0.0
O268 O 0.25795 0.20866 0.54713 0.0
O269 O 0.28976 0.19359 0.56179 0.0
C270 C 0.27241 0.2054 0.56511 0.0
C271 C 0.3362 0.14658 0.5203 0.0
C272 C 0.30466 0.21723 0.48519 0.0
C273 C 0.25131 0.14284 0.50365 0.0
O274 O 0.2721 0.14194 0.4952 0.0
O275 O 0.24969 0.16019 0.5173 0.0
O276 O 0.33185 0.14704 0.49751 0.0
O277 O 0.32386 0.158 0.53342 0.0
O278 O 0.41391 0.52875 0.77176 0.0
Cd279 Cd 0.3954 0.52661 0.73882 0.0
Cd280 Cd 0.36117 0.5456 0.76331 0.0
O281 O 0.38664 0.54366 0.7911 0.0
O282 O 0.41887 0.5175 0.71663 0.0
O283 O 0.40668 0.55325 0.71343 0.0
C284 C 0.41962 0.53857 0.70555 0.0
C285 C 0.34683 0.58255 0.75885 0.0
C286 C 0.4069 0.53615 0.79092 0.0
C287 C 0.3427 0.49566 0.74182 0.0
O288 O 0.3373 0.51273 0.75376 0.0
O289 O 0.36448 0.49806 0.73414 0.0
O290 O 0.33936 0.56632 0.77563 0.0
O291 O 0.36239 0.57767 0.74417 0.0
O292 O 0.75039 0.37535 0.4663 0.0
Cd293 Cd 0.75842 0.39554 0.49682 0.0
Cd294 Cd 0.73741 0.42832 0.47024 0.0
O295 O 0.73157 0.40102 0.44517 0.0
O296 O 0.76766 0.37107 0.5206 0.0
O297 O 0.73666 0.38987 0.52538 0.0
C298 C 0.74999 0.37449 0.53344 0.0
C299 C 0.70468 0.44587 0.48089 0.0
C300 C 0.73937 0.38091 0.44711 0.0
C301 C 0.79135 0.44515 0.4852 0.0
O302 O 0.77284 0.45039 0.47328 0.0
O303 O 0.78924 0.42437 0.49648 0.0
O304 O 0.71512 0.45135 0.46068 0.0
O305 O 0.71254 0.42983 0.49502 0.0
O306 O 0.66292 0.03927 0.77961 0.0
Cd307 Cd 0.64403 0.00708 0.79612 0.0
Cd308 Cd 0.60323 0.02038 0.76774 0.0
O309 O 0.63171 0.04996 0.75863 0.0
O310 O 0.67168 0.99501 0.81343 0.0
O311 O 0.64731 0.97321 0.78592 0.0
C312 C 0.66588 0.97517 0.80122 0.0
C313 C 0.5731 0.00876 0.73704 0.0
C314 C 0.65461 0.05426 0.76526 0.0
C315 C 0.59966 0.01524 0.82165 0.0
O316 O 0.58945 0.01883 0.80141 0.0
O317 O 0.6213 0.01058 0.82325 0.0
O318 O 0.57496 0.02892 0.74836 0.0
O319 O 0.58843 0.99471 0.74322 0.0
O320 O 0.97845 0.30245 0.92387 0.0
Cd321 Cd 0.97842 0.27228 0.9031 0.0
Cd322 Cd 0.00505 0.3073 0.87435 0.0
O323 O 0.00335 0.33049 0.90175 0.0
O324 O 0.97077 0.24137 0.92376 0.0
O325 O 0.00709 0.25517 0.90704 0.0
C326 C 0.99307 0.23872 0.92037 0.0
C327 C 0.04327 0.30572 0.85921 0.0
C328 C 0.99048 0.32472 0.9202 0.0
C329 C 0.95535 0.28014 0.85477 0.0
O330 O 0.97407 0.29797 0.85174 0.0
O331 O 0.95388 0.26663 0.87381 0.0
O332 O 0.03257 0.32389 0.85351 0.0
O333 O 0.03246 0.28862 0.87402 0.0
O334 O 0.48251 0.80928 0.4278 0.0
Cd335 Cd 0.4815 0.77863 0.4074 0.0
Cd336 Cd 0.50869 0.81221 0.37804 0.0
O337 O 0.5064 0.8365 0.40425 0.0
O338 O 0.47129 0.74902 0.4292 0.0
O339 O 0.50773 0.75832 0.41208 0.0
C340 C 0.49259 0.74372 0.42604 0.0
C341 C 0.54766 0.81017 0.365 0.0
C342 C 0.49406 0.83147 0.42307 0.0
C343 C 0.45896 0.78598 0.35845 0.0
O344 O 0.47831 0.80289 0.35471 0.0
O345 O 0.45688 0.77352 0.37813 0.0
O346 O 0.53768 0.82877 0.35903 0.0
O347 O 0.53546 0.7926 0.37857 0.0
O348 O 0.97814 0.7882 0.68471 0.0
Cd349 Cd 0.00423 0.7784 0.66407 0.0
Cd350 Cd 0.98595 0.80586 0.62931 0.0
O351 O 0.96344 0.81056 0.65632 0.0
O352 O 0.02694 0.76437 0.68642 0.0
O353 O 0.03978 0.79768 0.66305 0.0
C354 C 0.04503 0.78142 0.6786 0.0
C355 C 0.00522 0.84091 0.60747 0.0
C356 C 0.96303 0.80165 0.67758 0.0
C357 C 0.98263 0.75245 0.61933 0.0
O358 O 0.97808 0.77299 0.61139 0.0
O359 O 0.99253 0.75081 0.64006 0.0
O360 O 0.98153 0.83211 0.60528 0.0
O361 O 0.01821 0.82994 0.6224 0.0
O362 O 0.46647 0.26948 0.18492 0.0
Cd363 Cd 0.49544 0.25953 0.16859 0.0
Cd364 Cd 0.4793 0.28516 0.12946 0.0
O365 O 0.45294 0.2885 0.15326 0.0
O366 O 0.51642 0.24813 0.19452 0.0
O367 O 0.53051 0.2801 0.16994 0.0
C368 C 0.53476 0.26532 0.18739 0.0
C369 C 0.49367 0.3203 0.10517 0.0
C370 C 0.45099 0.28115 0.17499 0.0
C371 C 0.4814 0.23144 0.12382 0.0
O372 O 0.47768 0.25158 0.11401 0.0
O373 O 0.48768 0.23045 0.14582 0.0
O374 O 0.47176 0.30641 0.10191 0.0
O375 O 0.50772 0.31425 0.12251 0.0
H376 H 0.27082 0.79802 0.82063 0.0
H377 H 0.19036 0.78517 0.81479 0.0
H378 H 0.27051 0.81899 0.85818 0.0
H379 H 0.19028 0.80688 0.85169 0.0
H380 H 0.20856 0.878 0.89827 0.0
H381 H 0.20679 0.85262 0.86325 0.0
H382 H 0.25377 0.80914 0.90081 0.0
H383 H 0.25539 0.83424 0.93593 0.0
C384 C 0.25309 0.79944 0.82741 0.0
C385 C 0.23066 0.79025 0.81447 0.0
C386 C 0.25293 0.81149 0.84886 0.0
C387 C 0.23037 0.81474 0.85763 0.0
C388 C 0.20794 0.80498 0.84508 0.0
C389 C 0.20806 0.79268 0.82388 0.0
C390 C 0.21825 0.86285 0.89916 0.0
C391 C 0.2321 0.85815 0.91987 0.0
C392 C 0.2172 0.84831 0.87915 0.0
C393 C 0.23027 0.82905 0.87935 0.0
C394 C 0.24372 0.82403 0.90017 0.0
C395 C 0.24446 0.83829 0.9203 0.0
H396 H 0.0163 0.60852 0.39837 0.0
H397 H 0.04786 0.56819 0.45505 0.0
H398 H 0.03448 0.58731 0.36889 0.0
H399 H 0.06514 0.54606 0.42562 0.0
H400 H 0.11877 0.53813 0.36698 0.0
H401 H 0.09749 0.55393 0.39795 0.0
H402 H 0.03211 0.54854 0.35084 0.0
H403 H 0.0538 0.53366 0.31955 0.0
C404 C 0.02668 0.59469 0.40446 0.0
C405 C 0.03015 0.58959 0.42893 0.0
C406 C 0.03698 0.5824 0.3876 0.0
C407 C 0.05108 0.56475 0.39485 0.0
C408 C 0.05452 0.55963 0.4194 0.0
C409 C 0.0444 0.57213 0.43627 0.0
C410 C 0.09973 0.54 0.36334 0.0
C411 C 0.08806 0.5349 0.34073 0.0
C412 C 0.08746 0.54897 0.38116 0.0
C413 C 0.06315 0.55278 0.37683 0.0
C414 C 0.05104 0.54639 0.3546 0.0
C415 C 0.0634 0.53769 0.33671 0.0
H416 H 0.75516 0.7954 0.87675 0.0
H417 H 0.83557 0.81123 0.87413 0.0
H418 H 0.75735 0.76948 0.91266 0.0
H419 H 0.83759 0.78462 0.90978 0.0
H420 H 0.82175 0.70747 0.95277 0.0
H421 H 0.82406 0.73847 0.92004 0.0
H422 H 0.77323 0.7733 0.95541 0.0
H423 H 0.77081 0.74245 0.98806 0.0
C424 C 0.77333 0.79366 0.88399 0.0
C425 C 0.79519 0.80544 0.8725 0.0
C426 C 0.77457 0.77874 0.90455 0.0
C427 C 0.79765 0.77507 0.91401 0.0
C428 C 0.81953 0.78695 0.90273 0.0
C429 C 0.81833 0.8021 0.88227 0.0
C430 C 0.81137 0.72196 0.95376 0.0
C431 C 0.79591 0.7223 0.97294 0.0
C432 C 0.81276 0.73976 0.93505 0.0
C433 C 0.79859 0.7581 0.93509 0.0
C434 C 0.78405 0.75913 0.95476 0.0
C435 C 0.78281 0.74151 0.97353 0.0
H436 H 0.97135 0.0082 0.42659 0.0
H437 H 0.04041 0.03559 0.39111 0.0
H438 H 0.94792 0.01711 0.39042 0.0
H439 H 0.017 0.04472 0.35479 0.0
H440 H 0.96287 0.02957 0.28804 0.0
H441 H 0.98794 0.02222 0.32355 0.0
H442 H 0.94101 0.05421 0.36694 0.0
H443 H 0.91577 0.06138 0.33157 0.0
C444 C 0.98147 0.016 0.41095 0.0
C445 C 0.00762 0.02095 0.41144 0.0
C446 C 0.9681 0.0213 0.39034 0.0
C447 C 0.98064 0.0317 0.36981 0.0
C448 C 0.00684 0.0365 0.37027 0.0
C449 C 0.02021 0.03131 0.39097 0.0
C450 C 0.958 0.03522 0.30512 0.0
C451 C 0.93721 0.04594 0.30696 0.0
C452 C 0.97243 0.03108 0.32544 0.0
C453 C 0.9663 0.03745 0.34804 0.0
C454 C 0.94594 0.04875 0.3498 0.0
C455 C 0.93159 0.05301 0.32949 0.0
H456 H 0.23012 0.28166 0.68442 0.0
H457 H 0.22452 0.20524 0.70818 0.0
H458 H 0.25038 0.27394 0.64841 0.0
H459 H 0.24442 0.19726 0.6721 0.0
H460 H 0.29234 0.19387 0.60888 0.0
H461 H 0.28237 0.20653 0.64799 0.0
H462 H 0.23319 0.24966 0.61341 0.0
H463 H 0.2432 0.23731 0.57469 0.0
C464 C 0.23351 0.2633 0.68197 0.0
C465 C 0.22534 0.24389 0.69865 0.0
C466 C 0.24501 0.25884 0.66141 0.0
C467 C 0.24868 0.2349 0.65727 0.0
C468 C 0.24196 0.21592 0.67481 0.0
C469 C 0.23041 0.22039 0.69535 0.0
C470 C 0.27967 0.20632 0.6097 0.0
C471 C 0.26843 0.21446 0.58874 0.0
C472 C 0.27389 0.21347 0.63206 0.0
C473 C 0.25701 0.22912 0.63378 0.0
C474 C 0.24653 0.2379 0.61272 0.0
C475 C 0.25211 0.23062 0.5905 0.0
H476 H 0.50643 0.61008 0.58548 0.0
H477 H 0.51474 0.5337 0.58792 0.0
H478 H 0.47951 0.60101 0.61895 0.0
H479 H 0.49064 0.52556 0.62332 0.0
H480 H 0.42607 0.50777 0.6713 0.0
H481 H 0.4516 0.51771 0.63666 0.0
H482 H 0.47483 0.59404 0.65873 0.0
H483 H 0.44729 0.58417 0.69225 0.0
C484 C 0.50269 0.59134 0.59314 0.0
C485 C 0.51265 0.57258 0.58346 0.0
C486 C 0.48756 0.58625 0.61285 0.0
C487 C 0.48251 0.56243 0.62405 0.0
C488 C 0.49333 0.54397 0.61496 0.0
C489 C 0.5078 0.54884 0.5948 0.0
C490 C 0.43653 0.52671 0.66854 0.0
C491 C 0.43475 0.54523 0.68433 0.0
C492 C 0.45149 0.53243 0.6488 0.0
C493 C 0.46581 0.55669 0.64478 0.0
C494 C 0.46389 0.57524 0.66077 0.0
C495 C 0.44822 0.56963 0.68013 0.0
H496 H 0.73483 0.27164 0.65689 0.0
H497 H 0.76558 0.34472 0.68378 0.0
H498 H 0.72866 0.29017 0.61722 0.0
H499 H 0.75919 0.36333 0.64416 0.0
H500 H 0.72727 0.38802 0.57167 0.0
H501 H 0.72484 0.36847 0.61189 0.0
H502 H 0.76145 0.31252 0.58822 0.0
H503 H 0.76416 0.33206 0.54841 0.0
C504 C 0.73997 0.29169 0.6543 0.0
C505 C 0.75099 0.30676 0.67318 0.0
C506 C 0.73646 0.30226 0.63169 0.0
C507 C 0.74356 0.32815 0.62765 0.0
C508 C 0.75339 0.34334 0.64686 0.0
C509 C 0.75719 0.33272 0.66943 0.0
C510 C 0.73447 0.37136 0.57505 0.0
C511 C 0.74599 0.3616 0.55699 0.0
C512 C 0.73319 0.36028 0.59803 0.0
C513 C 0.74293 0.339 0.6031 0.0
C514 C 0.75357 0.32876 0.58475 0.0
C515 C 0.75524 0.34004 0.562 0.0
H516 H 0.50584 0.98646 0.59582 0.0
H517 H 0.44503 0.99681 0.63745 0.0
H518 H 0.53183 0.98601 0.63223 0.0
H519 H 0.47097 0.99624 0.67388 0.0
H520 H 0.53603 0.03265 0.7243 0.0
H521 H 0.50699 0.02548 0.69014 0.0
H522 H 0.5382 0.964 0.67054 0.0
H523 H 0.56783 0.97148 0.70488 0.0
C524 C 0.49788 0.98816 0.6128 0.0
C525 C 0.47348 0.99192 0.61377 0.0
C526 C 0.51275 0.98783 0.63366 0.0
C527 C 0.50352 0.99127 0.65592 0.0
C528 C 0.47876 0.99398 0.65695 0.0
C529 C 0.46392 0.99435 0.63611 0.0
C530 C 0.53664 0.01745 0.71286 0.0
C531 C 0.55433 0.00271 0.71722 0.0
C532 C 0.51981 0.01321 0.69335 0.0
C533 C 0.52024 0.99414 0.67765 0.0
C534 C 0.53756 0.97897 0.68225 0.0
C535 C 0.55442 0.98316 0.70194 0.0
H536 H 0.82886 0.29392 0.76126 0.0
H537 H 0.83703 0.2187 0.75172 0.0
H538 H 0.86637 0.30137 0.78747 0.0
H539 H 0.87408 0.22604 0.77828 0.0
H540 H 0.91623 0.23991 0.85167 0.0
H541 H 0.88145 0.23334 0.82231 0.0
H542 H 0.91294 0.30365 0.78707 0.0
H543 H 0.94781 0.31031 0.81642 0.0
C544 C 0.83881 0.2791 0.76449 0.0
C545 C 0.82977 0.25562 0.75463 0.0
C546 C 0.86025 0.28335 0.77953 0.0
C547 C 0.87295 0.26419 0.78509 0.0
C548 C 0.86438 0.241 0.77464 0.0
C549 C 0.84312 0.23681 0.75949 0.0
C550 C 0.91583 0.25392 0.83761 0.0
C551 C 0.93479 0.27563 0.8364 0.0
C552 C 0.89597 0.2501 0.82073 0.0
C553 C 0.89452 0.268 0.80243 0.0
C554 C 0.91351 0.28964 0.80111 0.0
C555 C 0.93353 0.29336 0.81784 0.0
H556 H 0.47553 0.93179 0.53495 0.0
H557 H 0.46244 0.96849 0.46762 0.0
H558 H 0.48388 0.89664 0.51372 0.0
H559 H 0.47059 0.93348 0.44638 0.0
H560 H 0.5137 0.88119 0.41648 0.0
H561 H 0.50679 0.91521 0.43971 0.0
H562 H 0.46177 0.86236 0.48766 0.0
H563 H 0.46884 0.82813 0.46453 0.0
C564 C 0.4742 0.93213 0.51561 0.0
C565 C 0.46811 0.95262 0.50288 0.0
C566 C 0.47894 0.91209 0.50348 0.0
C567 C 0.47798 0.91237 0.47839 0.0
C568 C 0.47179 0.93289 0.46571 0.0
C569 C 0.46693 0.95282 0.47784 0.0
C570 C 0.5025 0.87674 0.43209 0.0
C571 C 0.49171 0.8519 0.43855 0.0
C572 C 0.4984 0.89627 0.4453 0.0
C573 C 0.48351 0.89146 0.46534 0.0
C574 C 0.47342 0.86663 0.47234 0.0
C575 C 0.47743 0.84704 0.45904 0.0
H576 H 0.19598 0.31667 0.81803 0.0
H577 H 0.14916 0.2774 0.76174 0.0
H578 H 0.15877 0.3168 0.84062 0.0
H579 H 0.11207 0.27812 0.78404 0.0
H580 H 0.06187 0.32885 0.81815 0.0
H581 H 0.09966 0.32491 0.79881 0.0
H582 H 0.11574 0.27554 0.85619 0.0
H583 H 0.07741 0.27882 0.87543 0.0
C584 C 0.17776 0.30786 0.81068 0.0
C585 C 0.17531 0.29696 0.78825 0.0
C586 C 0.15661 0.30788 0.82357 0.0
C587 C 0.13279 0.29747 0.81393 0.0
C588 C 0.13036 0.28617 0.79175 0.0
C589 C 0.15149 0.28569 0.77911 0.0
C590 C 0.07348 0.31722 0.82672 0.0
C591 C 0.06672 0.30413 0.84829 0.0
C592 C 0.09497 0.31492 0.8156 0.0
C593 C 0.11035 0.29991 0.82609 0.0
C594 C 0.10403 0.28721 0.84788 0.0
C595 C 0.08217 0.28907 0.85879 0.0
H596 H 0.56833 0.63925 0.50318 0.0
H597 H 0.4904 0.60287 0.5026 0.0
H598 H 0.55834 0.67338 0.47806 0.0
H599 H 0.48036 0.63634 0.47686 0.0
H600 H 0.46716 0.71384 0.46058 0.0
H601 H 0.47818 0.67817 0.48162 0.0
H602 H 0.54395 0.68733 0.44001 0.0
H603 H 0.53326 0.72383 0.41943 0.0
C604 C 0.54913 0.63835 0.49721 0.0
C605 C 0.53009 0.61863 0.50499 0.0
C606 C 0.54338 0.65784 0.48279 0.0
C607 C 0.51847 0.65784 0.47568 0.0
C608 C 0.49965 0.63734 0.4825 0.0
C609 C 0.50538 0.61807 0.49711 0.0
C610 C 0.48395 0.70824 0.45584 0.0
C611 C 0.49933 0.72168 0.43832 0.0
C612 C 0.49019 0.68761 0.4678 0.0
C613 C 0.51186 0.67965 0.46241 0.0
C614 C 0.52724 0.69305 0.44479 0.0
C615 C 0.52107 0.7139 0.43291 0.0
H616 H 0.8212 0.81654 0.72684 0.0
H617 H 0.863 0.80886 0.79271 0.0
H618 H 0.85757 0.81488 0.70423 0.0
H619 H 0.89983 0.80808 0.77024 0.0
H620 H 0.9499 0.77806 0.72046 0.0
H621 H 0.91525 0.78177 0.7445 0.0
H622 H 0.89816 0.83854 0.695 0.0
H623 H 0.93227 0.83425 0.67058 0.0
C624 C 0.83831 0.81477 0.73644 0.0
C625 C 0.83948 0.81308 0.76146 0.0
C626 C 0.85921 0.81399 0.72354 0.0
C627 C 0.88171 0.81154 0.73542 0.0
C628 C 0.88276 0.80977 0.76051 0.0
C629 C 0.8618 0.81039 0.77339 0.0
C630 C 0.93889 0.7915 0.71483 0.0
C631 C 0.94373 0.80572 0.69351 0.0
C632 C 0.91907 0.7937 0.72867 0.0
C633 C 0.90377 0.81031 0.72158 0.0
C634 C 0.90922 0.82518 0.70071 0.0
C635 C 0.92891 0.82284 0.6868 0.0
H636 H 0.09528 0.95045 0.51131 0.0
H637 H 0.01844 0.95591 0.49848 0.0
H638 H 0.08279 0.92049 0.54378 0.0
H639 H 0.00571 0.92397 0.52875 0.0
H640 H 0.98754 0.88224 0.59675 0.0
H641 H 0.00391 0.91602 0.5687 0.0
H642 H 0.06415 0.88021 0.55442 0.0
H643 H 0.04864 0.84761 0.5842 0.0
C644 C 0.07571 0.94523 0.51524 0.0
C645 C 0.05796 0.95585 0.50211 0.0
C646 C 0.06846 0.92763 0.53371 0.0
C647 C 0.04319 0.91972 0.53921 0.0
C648 C 0.02544 0.92992 0.52566 0.0
C649 C 0.03273 0.94795 0.5077 0.0
C650 C 0.00453 0.88195 0.58786 0.0
C651 C 0.01686 0.86245 0.59249 0.0
C652 C 0.0138 0.90111 0.5715 0.0
C653 C 0.03511 0.90072 0.55867 0.0
C654 C 0.04787 0.88145 0.564 0.0
C655 C 0.03898 0.86266 0.581 0.0
H656 H 0.17998 0.73502 0.72673 0.0
H657 H 0.19733 0.81455 0.73567 0.0
H658 H 0.1411 0.73809 0.70533 0.0
H659 H 0.15798 0.8175 0.71498 0.0
H660 H 0.08805 0.81415 0.66566 0.0
H661 H 0.13098 0.81226 0.67797 0.0
H662 H 0.10326 0.7464 0.72163 0.0
H663 H 0.06079 0.74809 0.70929 0.0
C664 C 0.17582 0.75324 0.72358 0.0
C665 C 0.19154 0.7745 0.73316 0.0
C666 C 0.15339 0.75497 0.71159 0.0
C667 C 0.14625 0.77796 0.70894 0.0
C668 C 0.16294 0.79952 0.71676 0.0
C669 C 0.18538 0.7978 0.72876 0.0
C670 C 0.0912 0.79931 0.6779 0.0
C671 C 0.07103 0.7813 0.68654 0.0
C672 C 0.11574 0.79822 0.68491 0.0
C673 C 0.1205 0.77899 0.7005 0.0
C674 C 0.10027 0.76112 0.70915 0.0
C675 C 0.07587 0.76227 0.70228 0.0
H676 H 0.01216 0.63197 0.54153 0.0
H677 H 0.93906 0.63744 0.51319 0.0
H678 H 0.01215 0.66582 0.56824 0.0
H679 H 0.9388 0.67092 0.54032 0.0
H680 H 0.96381 0.74929 0.57318 0.0
H681 H 0.96123 0.71487 0.54647 0.0
H682 H 0.98925 0.67231 0.60367 0.0
H683 H 0.99209 0.70662 0.6303 0.0
C684 C 0.99615 0.64048 0.54098 0.0
C685 C 0.9756 0.63207 0.52536 0.0
C686 C 0.99602 0.65964 0.55642 0.0
C687 C 0.97539 0.67085 0.55644 0.0
C688 C 0.95497 0.66267 0.5406 0.0
C689 C 0.95505 0.6434 0.52525 0.0
C690 C 0.96916 0.73249 0.58013 0.0
C691 C 0.97832 0.73077 0.60382 0.0
C692 C 0.96763 0.71278 0.56484 0.0
C693 C 0.97531 0.69107 0.57296 0.0
C694 C 0.98364 0.68903 0.59684 0.0
C695 C 0.98508 0.70864 0.61212 0.0
H696 H 0.75208 0.86524 0.21541 0.0
H697 H 0.75688 0.87493 0.29166 0.0
H698 H 0.77745 0.90722 0.2095 0.0
H699 H 0.78195 0.91684 0.28571 0.0
H700 H 0.80776 0.99834 0.26692 0.0
H701 H 0.77858 0.95807 0.26894 0.0
H702 H 0.82086 0.92977 0.21785 0.0
H703 H 0.84988 0.97008 0.21553 0.0
C704 C 0.75866 0.87624 0.23091 0.0
C705 C 0.75246 0.86671 0.25402 0.0
C706 C 0.7731 0.90032 0.22751 0.0
C707 C 0.78156 0.9154 0.24712 0.0
C708 C 0.7753 0.90588 0.27019 0.0
C709 C 0.76097 0.88183 0.2736 0.0
C710 C 0.81064 0.98367 0.25583 0.0
C711 C 0.8313 0.9874 0.24122 0.0
C712 C 0.79401 0.96054 0.25713 0.0
C713 C 0.7976 0.94066 0.24379 0.0
C714 C 0.81752 0.94475 0.22827 0.0
C715 C 0.8342 0.96785 0.22702 0.0
H716 H 0.80652 0.23134 0.28728 0.0
H717 H 0.77843 0.21191 0.21594 0.0
H718 H 0.82814 0.19686 0.28904 0.0
H719 H 0.79984 0.17727 0.21763 0.0
H720 H 0.86053 0.13113 0.22218 0.0
H721 H 0.84224 0.16792 0.21959 0.0
H722 H 0.81572 0.15119 0.29094 0.0
H723 H 0.83404 0.11475 0.29362 0.0
C724 C 0.80516 0.21973 0.27194 0.0
C725 C 0.79104 0.22432 0.25143 0.0
C726 C 0.81739 0.19995 0.27296 0.0
C727 C 0.8157 0.18433 0.25346 0.0
C728 C 0.80177 0.18916 0.23281 0.0
C729 C 0.78944 0.20888 0.23187 0.0
C730 C 0.8509 0.13541 0.23733 0.0
C731 C 0.84873 0.12 0.25809 0.0
C732 C 0.84032 0.15639 0.23581 0.0
C733 C 0.82756 0.16249 0.25508 0.0
C734 C 0.8257 0.14721 0.27589 0.0
C735 C 0.83609 0.12622 0.27736 0.0
H736 H 0.43135 0.02267 0.03131 0.0
H737 H 0.43798 0.03665 0.95535 0.0
H738 H 0.39105 0.99444 0.02441 0.0
H739 H 0.39744 0.00806 0.94833 0.0
H740 H 0.30996 0.98196 0.95363 0.0
H741 H 0.35213 0.00798 0.95721 0.0
H742 H 0.37394 0.95335 0.00625 0.0
H743 H 0.3321 0.92751 0.00292 0.0
C744 C 0.4242 0.01949 0.01312 0.0
C745 C 0.43764 0.0318 0.99385 0.0
C746 C 0.40123 0.00326 0.00915 0.0
C747 C 0.39114 -0.00088 0.98583 0.0
C748 C 0.40476 0.01111 0.96648 0.0
C749 C 0.42797 0.02721 0.97046 0.0
C750 C 0.32379 0.97549 0.9651 0.0
C751 C 0.3176 0.95277 0.97815 0.0
C752 C 0.34795 0.99028 0.96699 0.0
C753 C 0.36622 0.98267 0.98207 0.0
C754 C 0.36013 0.95977 0.9947 0.0
C755 C 0.33614 0.94497 0.99273 0.0
H756 H 0.28412 0.40423 0.29972 0.0
H757 H 0.22509 0.34812 0.32991 0.0
H758 H 0.25683 0.4339 0.29752 0.0
H759 H 0.19756 0.37784 0.32736 0.0
H760 H 0.15349 0.43601 0.28883 0.0
H761 H 0.17847 0.40402 0.29163 0.0
H762 H 0.23622 0.45353 0.33172 0.0
H763 H 0.21137 0.48517 0.32939 0.0
C764 C 0.26523 0.39824 0.30569 0.0
C765 C 0.25666 0.37398 0.31502 0.0
C766 C 0.2497 0.41519 0.30453 0.0
C767 C 0.22518 0.40807 0.3123 0.0
C768 C 0.21638 0.38366 0.32118 0.0
C769 C 0.23211 0.3668 0.32277 0.0
C770 C 0.17142 0.43993 0.2984 0.0
C771 C 0.18049 0.46309 0.30886 0.0
C772 C 0.18562 0.42165 0.30005 0.0
C773 C 0.20926 0.42649 0.31175 0.0
C774 C 0.21813 0.44947 0.32244 0.0
C775 C 0.20382 0.4675 0.32118 0.0
H776 H 0.14156 0.00497 0.4814 0.0
H777 H 0.10167 0.06315 0.46391 0.0
H778 H 0.17974 0.03644 0.48912 0.0
H779 H 0.13988 0.0945 0.47097 0.0
H780 H 0.20353 0.14117 0.51587 0.0
H781 H 0.16634 0.10955 0.50634 0.0
H782 H 0.21054 0.06939 0.46811 0.0
H783 H 0.248 0.10096 0.47787 0.0
C784 C 0.14101 0.02447 0.4791 0.0
C785 C 0.11865 0.03161 0.47208 0.0
C786 C 0.16288 0.04245 0.4833 0.0
C787 C 0.16275 0.06791 0.48072 0.0
C788 C 0.14047 0.07501 0.47335 0.0
C789 C 0.11867 0.05706 0.46905 0.0
C790 C 0.20539 0.12563 0.50543 0.0
C791 C 0.22876 0.12361 0.49763 0.0
C792 C 0.18403 0.10759 0.49984 0.0
C793 C 0.18553 0.08706 0.4864 0.0
C794 C 0.20887 0.08493 0.47865 0.0
C795 C 0.23028 0.10308 0.48415 0.0
H796 H 0.73932 0.19072 0.69642 0.0
H797 H 0.7538 0.1973 0.77255 0.0
H798 H 0.71217 0.14965 0.70325 0.0
H799 H 0.72724 0.15624 0.77921 0.0
H800 H 0.64448 0.08964 0.73275 0.0
H801 H 0.67127 0.1301 0.72291 0.0
H802 H 0.72953 0.11244 0.77036 0.0
H803 H 0.70293 0.07215 0.78029 0.0
C804 C 0.73656 0.18353 0.71459 0.0
C805 C 0.74893 0.19717 0.73393 0.0
C806 C 0.7211 0.16001 0.71846 0.0
C807 C 0.71791 0.14968 0.74173 0.0
C808 C 0.72982 0.16354 0.76105 0.0
C809 C 0.74505 0.18705 0.75722 0.0
C810 C 0.66309 0.09429 0.74091 0.0
C811 C 0.67149 0.07773 0.75746 0.0
C812 C 0.67843 0.11741 0.7352 0.0
C813 C 0.70234 0.12446 0.74608 0.0
C814 C 0.71102 0.10761 0.762 0.0
C815 C 0.69581 0.08447 0.76757 0.0
H816 H 0.38132 0.01333 0.56279 0.0
H817 H 0.45235 0.06556 0.56442 0.0
H818 H 0.36 0.04783 0.55494 0.0
H819 H 0.43112 0.10002 0.5558 0.0
H820 H 0.3767 0.13627 0.50031 0.0
H821 H 0.40131 0.10639 0.51516 0.0
H822 H 0.35776 0.09162 0.57818 0.0
H823 H 0.33358 0.12219 0.56373 0.0
C824 C 0.39226 0.03224 0.56163 0.0
C825 C 0.41834 0.03698 0.5642 0.0
C826 C 0.38014 0.05189 0.55728 0.0
C827 C 0.39401 0.07646 0.5549 0.0
C828 C 0.4201 0.0812 0.55767 0.0
C829 C 0.43218 0.0616 0.56259 0.0
C830 C 0.37277 0.12706 0.51758 0.0
C831 C 0.3533 0.13153 0.53091 0.0
C832 C 0.38684 0.11004 0.52606 0.0
C833 C 0.38128 0.09675 0.54771 0.0
C834 C 0.36232 0.1017 0.56141 0.0
C835 C 0.34864 0.11924 0.55322 0.0
H836 H 0.57279 0.4852 0.53492 0.0
H837 H 0.61102 0.55196 0.49805 0.0
H838 H 0.60618 0.46448 0.52626 0.0
H839 H 0.6449 0.53158 0.48987 0.0
H840 H 0.68321 0.47828 0.45374 0.0
H841 H 0.65118 0.49941 0.46477 0.0
H842 H 0.64944 0.46329 0.53474 0.0
H843 H 0.68122 0.44159 0.52344 0.0
C844 C 0.58861 0.49556 0.52531 0.0
C845 C 0.58948 0.52022 0.51727 0.0
C846 C 0.60779 0.48374 0.52042 0.0
C847 C 0.62822 0.49631 0.50729 0.0
C848 C 0.62928 0.52121 0.49972 0.0
C849 C 0.61005 0.53299 0.50456 0.0
C850 C 0.676 0.47478 0.47148 0.0
C851 C 0.68477 0.45821 0.4877 0.0
C852 C 0.65775 0.48709 0.47788 0.0
C853 C 0.64783 0.48324 0.50072 0.0
C854 C 0.65651 0.46654 0.51693 0.0
C855 C 0.67477 0.45415 0.51049 0.0
H856 H 0.73785 0.33386 0.30197 0.0
H857 H 0.74066 0.26673 0.34343 0.0
H858 H 0.73973 0.35668 0.33857 0.0
H859 H 0.74159 0.28919 0.38023 0.0
H860 H 0.76327 0.34309 0.4416 0.0
H861 H 0.76451 0.32013 0.40575 0.0
H862 H 0.71278 0.35944 0.36957 0.0
H863 H 0.71234 0.38312 0.40516 0.0
C864 C 0.73912 0.3241 0.31901 0.0
C865 C 0.73916 0.29862 0.31998 0.0
C866 C 0.73988 0.33704 0.33997 0.0
C867 C 0.74032 0.32469 0.3624 0.0
C868 C 0.74142 0.29936 0.36331 0.0
C869 C 0.74096 0.28647 0.34227 0.0
C870 C 0.75198 0.34669 0.42605 0.0
C871 C 0.73777 0.36503 0.42621 0.0
C872 C 0.75267 0.33347 0.40548 0.0
C873 C 0.73899 0.3381 0.38463 0.0
C874 C 0.72408 0.35583 0.38509 0.0
C875 C 0.72359 0.36924 0.40559 0.0
H876 H 0.52474 0.08959 0.91475 0.0
H877 H 0.55864 0.0442 0.96496 0.0
H878 H 0.53815 0.06907 0.88172 0.0
H879 H 0.57132 0.02283 0.93194 0.0
H880 H 0.61976 0.01979 0.86714 0.0
H881 H 0.60141 0.03253 0.9018 0.0
H882 H 0.53272 0.03138 0.86061 0.0
H883 H 0.55142 0.01946 0.82565 0.0
C884 C 0.53458 0.07478 0.91867 0.0
C885 C 0.54032 0.06818 0.94235 0.0
C886 C 0.54214 0.06289 0.89977 0.0
C887 C 0.5557 0.04416 0.90415 0.0
C888 C 0.56107 0.03729 0.92792 0.0
C889 C 0.55365 0.04935 0.94683 0.0
C890 C 0.60061 0.02187 0.86556 0.0
C891 C 0.58717 0.01894 0.84355 0.0
C892 C 0.59002 0.02907 0.8855 0.0
C893 C 0.56567 0.03328 0.88393 0.0
C894 C 0.55172 0.02884 0.86229 0.0
C895 C 0.56238 0.02186 0.84228 0.0
H896 H 0.25913 0.30657 0.37275 0.0
H897 H 0.33804 0.31929 0.3607 0.0
H898 H 0.26521 0.28327 0.40955 0.0
H899 H 0.34399 0.29551 0.39741 0.0
H900 H 0.33192 0.22143 0.44495 0.0
H901 H 0.33167 0.25104 0.4114 0.0
H902 H 0.28545 0.28862 0.44999 0.0
H903 H 0.28546 0.25901 0.48343 0.0
C904 C 0.27784 0.30473 0.37811 0.0
C905 C 0.29807 0.31477 0.36371 0.0
C906 C 0.28132 0.29136 0.39922 0.0
C907 C 0.3051 0.28761 0.40638 0.0
C908 C 0.32542 0.29791 0.39221 0.0
C909 C 0.32196 0.31144 0.37115 0.0
C910 C 0.32211 0.23629 0.44649 0.0
C911 C 0.30844 0.23763 0.46677 0.0
C912 C 0.32202 0.2533 0.42727 0.0
C913 C 0.30823 0.27191 0.42796 0.0
C914 C 0.29585 0.27417 0.4488 0.0
C915 C 0.29601 0.25727 0.46801 0.0
H916 H 0.52098 0.53763 0.90523 0.0
H917 H 0.45149 0.49992 0.93535 0.0
H918 H 0.49876 0.54461 0.86752 0.0
H919 H 0.42923 0.5067 0.89775 0.0
H920 H 0.3951 0.54588 0.83582 0.0
H921 H 0.41845 0.54168 0.87321 0.0
H922 H 0.47556 0.51928 0.83461 0.0
H923 H 0.45236 0.52366 0.7971 0.0
C924 C 0.50094 0.53089 0.90369 0.0
C925 C 0.48788 0.51834 0.92307 0.0
C926 C 0.48826 0.53476 0.88217 0.0
C927 C 0.46226 0.52625 0.87973 0.0
C928 C 0.44922 0.51376 0.89922 0.0
C929 C 0.46193 0.50977 0.92067 0.0
C930 C 0.41272 0.54022 0.83524 0.0
C931 C 0.42182 0.53501 0.81345 0.0
C932 C 0.426 0.53767 0.85669 0.0
C933 C 0.44874 0.53001 0.85684 0.0
C934 C 0.45817 0.52539 0.83503 0.0
C935 C 0.44481 0.52779 0.81356 0.0
H936 H 0.75769 0.78347 0.19346 0.0
H937 H 0.68731 0.73019 0.19454 0.0
H938 H 0.77088 0.76108 0.1612 0.0
H939 H 0.70039 0.70787 0.16249 0.0
H940 H 0.71591 0.70592 0.08259 0.0
H941 H 0.70675 0.7227 0.1196 0.0
H942 H 0.77983 0.71877 0.14898 0.0
H943 H 0.78913 0.7016 0.11154 0.0
C944 C 0.74536 0.76662 0.18717 0.0
C945 C 0.72155 0.75849 0.19643 0.0
C946 C 0.7529 0.75381 0.16881 0.0
C947 C 0.73657 0.73287 0.15927 0.0
C948 C 0.71324 0.7241 0.16939 0.0
C949 C 0.7058 0.73679 0.18776 0.0
C950 C 0.73007 0.70851 0.09691 0.0
C951 C 0.75328 0.70247 0.09413 0.0
C952 C 0.72472 0.71795 0.1182 0.0
C953 C 0.7425 0.72183 0.13722 0.0
C954 C 0.76581 0.71591 0.13455 0.0
C955 C 0.77108 0.70606 0.11321 0.0
H956 H 0.02029 0.11671 0.08271 0.0
H957 H 0.02099 0.03827 0.08424 0.0
H958 H 0.99247 0.10961 0.1156 0.0
H959 H 0.99592 0.03181 0.11898 0.0
H960 H 0.92994 0.01884 0.16482 0.0
H961 H 0.95643 0.02744 0.13075 0.0
H962 H 0.98608 0.10208 0.15525 0.0
H963 H 0.95771 0.09376 0.18821 0.0
C964 C 0.01473 0.09794 0.09008 0.0
C965 C 0.02278 0.07804 0.08028 0.0
C966 C -0.00096 0.09393 0.10942 0.0
C967 C 0.99148 0.07002 0.12006 0.0
C968 C 0.00053 0.05038 0.11098 0.0
C969 C 0.01559 0.05424 0.09122 0.0
C970 C 0.94196 0.03716 0.16267 0.0
C971 C 0.94181 0.05566 0.17902 0.0
C972 C 0.95748 0.04207 0.14329 0.0
C973 C 0.97397 0.06539 0.14021 0.0
C974 C 0.97353 0.08401 0.15662 0.0
C975 C 0.95734 0.07928 0.17563 0.0
H976 H 0.29932 0.83275 0.16948 0.0
H977 H 0.22187 0.79458 0.16714 0.0
H978 H 0.29408 0.85036 0.12927 0.0
H979 H 0.21651 0.81238 0.12689 0.0
H980 H 0.21758 0.87123 0.06227 0.0
H981 H 0.21954 0.85561 0.10384 0.0
H982 H 0.28509 0.82849 0.08937 0.0
H983 H 0.28313 0.84369 0.04822 0.0
C984 C 0.28111 0.8285 0.16043 0.0
C985 C 0.261 0.81244 0.1713 0.0
C986 C 0.27812 0.83843 0.13747 0.0
C987 C 0.25491 0.83259 0.125 0.0
C988 C 0.23452 0.81728 0.13622 0.0
C989 C 0.2376 0.8071 0.15915 0.0
C990 C 0.23225 0.86175 0.06798 0.0
C991 C 0.25022 0.85875 0.05198 0.0
C992 C 0.23335 0.85283 0.09169 0.0
C993 C 0.25266 0.84116 0.0998 0.0
C994 C 0.27026 0.83778 0.08367 0.0
C995 C 0.26899 0.84635 0.06004 0.0
H996 H 0.97548 0.52982 0.12166 0.0
H997 H 0.9783 0.45208 0.11913 0.0
H998 H 0.00355 0.53432 0.15623 0.0
H999 H 0.00888 0.45743 0.15229 0.0
H1000 H 0.04935 0.47121 0.22595 0.0
H1001 H 0.01802 0.46332 0.19303 0.0
H1002 H 0.04519 0.53839 0.16516 0.0
H1003 H 0.07482 0.54648 0.19875 0.0
C1004 C 0.98192 0.51356 0.12845 0.0
C1005 C 0.97444 0.49055 0.11734 0.0
C1006 C 0.99864 0.51633 0.1481 0.0
C1007 C 0.00911 0.49643 0.15685 0.0
C1008 C 0.00125 0.47321 0.14616 0.0
C1009 C 0.98395 0.47026 0.12681 0.0
C1010 C 0.04848 0.48587 0.21265 0.0
C1011 C 0.06417 0.50951 0.21493 0.0
C1012 C 0.03063 0.48139 0.19374 0.0
C1013 C 0.02863 0.50036 0.17655 0.0
C1014 C 0.04537 0.52358 0.17843 0.0
C1015 C 0.06261 0.52819 0.19756 0.0
H1016 H 0.35957 0.77672 0.23095 0.0
H1017 H 0.31211 0.74894 0.2896 0.0
H1018 H 0.39599 0.78394 0.25857 0.0
H1019 H 0.34818 0.75677 0.31732 0.0
H1020 H 0.41874 0.74683 0.35687 0.0
H1021 H 0.38369 0.74025 0.32802 0.0
H1022 H 0.41669 0.80885 0.29048 0.0
H1023 H 0.45224 0.81494 0.3189 0.0
C1024 C 0.35694 0.77255 0.24982 0.0
C1025 C 0.33312 0.76212 0.25816 0.0
C1026 C 0.37776 0.77668 0.26565 0.0
C1027 C 0.37508 0.77068 0.29017 0.0
C1028 C 0.35105 0.761 0.29851 0.0
C1029 C 0.33035 0.75666 0.28267 0.0
C1030 C 0.41859 0.76045 0.34239 0.0
C1031 C 0.43825 0.78144 0.34023 0.0
C1032 C 0.39838 0.75679 0.32593 0.0
C1033 C 0.39719 0.77417 0.30704 0.0
C1034 C 0.41708 0.79496 0.30465 0.0
C1035 C 0.43743 0.7985 0.32101 0.0
H1036 H 0.01157 0.45316 0.01129 0.0
H1037 H 0.93199 0.42862 -0.00045 0.0
H1038 H 0.01814 0.41832 0.98861 0.0
H1039 H 0.93847 0.39374 0.97682 0.0
H1040 H 0.95904 0.32123 0.9572 0.0
H1041 H 0.95408 0.35444 0.9828 0.0
H1042 H 0.01234 0.40583 0.94621 0.0
H1043 H 0.01746 0.37271 0.92071 0.0
C1044 C 0.99551 0.44019 0.00396 0.0
C1045 C 0.97126 0.44334 0.00732 0.0
C1046 C -0.00075 0.42035 0.99091 0.0
C1047 C 0.97881 0.40327 0.98103 0.0
C1048 C 0.95455 0.40639 0.98453 0.0
C1049 C 0.95083 0.42634 0.99743 0.0
C1050 C 0.97095 0.33955 0.95474 0.0
C1051 C 0.98859 0.34433 0.93684 0.0
C1052 C 0.96798 0.35859 0.96931 0.0
C1053 C 0.98275 0.38273 0.96644 0.0
C1054 C 0.00084 0.38735 0.94898 0.0
C1055 C 0.00367 0.36839 0.93429 0.0
H1056 H 0.70136 0.83496 0.3211 0.0
H1057 H 0.65672 0.78216 0.2728 0.0
H1058 H 0.6649 0.83287 0.34491 0.0
H1059 H 0.62082 0.77927 0.29741 0.0
H1060 H 0.5667 0.76886 0.36 0.0
H1061 H 0.60598 0.76704 0.34187 0.0
H1062 H 0.62298 0.84701 0.33191 0.0
H1063 H 0.58367 0.84885 0.34945 0.0
C1064 C 0.68392 0.82275 0.31564 0.0
C1065 C 0.68201 0.80897 0.29479 0.0
C1066 C 0.66314 0.82144 0.3294 0.0
C1067 C 0.64014 0.80595 0.32291 0.0
C1068 C 0.63846 0.79115 0.3029 0.0
C1069 C 0.65911 0.79277 0.28887 0.0
C1070 C 0.57898 0.78604 0.35415 0.0
C1071 C 0.57213 0.80899 0.35599 0.0
C1072 C 0.60134 0.78497 0.34375 0.0
C1073 C 0.61744 0.8069 0.33561 0.0
C1074 C 0.61098 0.82988 0.33826 0.0
C1075 C 0.58844 0.8309 0.34815 0.0
H1076 H 0.06401 0.15218 0.02106 0.0
H1077 H 0.01796 0.09569 0.97777 0.0
H1078 H 0.05289 0.18469 0.99423 0.0
H1079 H 0.00637 0.12819 0.95106 0.0
H1080 H 0.96553 0.19526 0.93861 0.0
H1081 H 0.9807 0.16137 0.95956 0.0
H1082 H 0.05665 0.20091 0.94964 0.0
H1083 H 0.04151 0.23474 0.92824 0.0
C1084 C 0.05185 0.14683 0.00551 0.0
C1085 C 0.04191 0.12163 0.00123 0.0
C1086 C 0.04553 0.16534 0.99019 0.0
C1087 C 0.02876 0.1589 0.97062 0.0
C1088 C 0.01928 0.1336 0.96607 0.0
C1089 C 0.02596 0.11508 0.98118 0.0
C1090 C 0.98546 0.19663 0.94071 0.0
C1091 C 0.00234 0.21768 0.93188 0.0
C1092 C 0.99412 0.17717 0.95255 0.0
C1093 C 0.01982 0.17856 0.95616 0.0
C1094 C 0.03674 0.19945 0.9471 0.0
C1095 C 0.02807 0.21873 0.93483 0.0
H1096 H 0.35118 0.30587 0.28319 0.0
H1097 H 0.30918 0.30784 0.21648 0.0
H1098 H 0.3864 0.29836 0.26189 0.0
H1099 H 0.3439 0.29932 0.19511 0.0
H1100 H 0.41955 0.31187 0.16203 0.0
H1101 H 0.3849 0.31931 0.18386 0.0
H1102 H 0.40003 0.26791 0.24008 0.0
H1103 H 0.43531 0.26113 0.21857 0.0
C1104 C 0.34955 0.30461 0.26393 0.0
C1105 C 0.32776 0.30789 0.25137 0.0
C1106 C 0.36958 0.30008 0.25174 0.0
C1107 C 0.36806 0.29839 0.22675 0.0
C1108 C 0.34592 0.30106 0.2143 0.0
C1109 C 0.32598 0.30578 0.22649 0.0
C1110 C 0.41553 0.30218 0.17908 0.0
C1111 C 0.4302 0.2859 0.18857 0.0
C1112 C 0.39553 0.30632 0.19153 0.0
C1113 C 0.38955 0.29411 0.21368 0.0
C1114 C 0.4043 0.27788 0.22322 0.0
C1115 C 0.42447 0.27391 0.21084 0.0
H1116 H 0.5738 0.43598 0.00948 0.0
H1117 H 0.50138 0.45318 0.01514 0.0
H1118 H 0.56209 0.40071 0.03761 0.0
H1119 H 0.48971 0.41803 0.04319 0.0
H1120 H 0.46738 0.33682 0.06807 0.0
H1121 H 0.48059 0.37283 0.0416 0.0
H1122 H 0.55201 0.39019 0.07985 0.0
H1123 H 0.53886 0.35363 0.10632 0.0
C1124 C 0.55547 0.43234 0.01689 0.0
C1125 C 0.53843 0.44722 0.00995 0.0
C1126 C 0.5488 0.41219 0.03303 0.0
C1127 C 0.52494 0.40652 0.04252 0.0
C1128 C 0.50808 0.42165 0.03585 0.0
C1129 C 0.51473 0.44176 0.01975 0.0
C1130 C 0.48591 0.34828 0.07091 0.0
C1131 C 0.50207 0.34238 0.08934 0.0
C1132 C 0.49342 0.36903 0.0558 0.0
C1133 C 0.51728 0.38445 0.05872 0.0
C1134 C 0.53356 0.37853 0.07706 0.0
C1135 C 0.52601 0.3577 0.09228 0.0
H1136 H 0.69362 0.27138 0.21614 0.0
H1137 H 0.66107 0.26702 0.28518 0.0
H1138 H 0.6525 0.27079 0.19677 0.0
H1139 H 0.62058 0.26717 0.26606 0.0
H1140 H 0.54796 0.23779 0.22515 0.0
H1141 H 0.58943 0.23869 0.24243 0.0
H1142 H 0.62055 0.29739 0.19197 0.0
H1143 H 0.57873 0.29624 0.17424 0.0
C1144 C 0.67771 0.27028 0.22712 0.0
C1145 C 0.68056 0.26939 0.25214 0.0
C1146 C 0.65429 0.2702 0.21608 0.0
C1147 C 0.63334 0.26894 0.22991 0.0
C1148 C 0.63628 0.26791 0.2549 0.0
C1149 C 0.65956 0.26807 0.26586 0.0
C1150 C 0.56357 0.25099 0.21774 0.0
C1151 C 0.56002 0.26705 0.1984 0.0
C1152 C 0.58736 0.25154 0.22771 0.0
C1153 C 0.60825 0.26817 0.21862 0.0
C1154 C 0.6048 0.28423 0.19921 0.0
C1155 C 0.58087 0.28373 0.18922 0.0
H1156 H 0.51638 0.10619 0.05548 0.0
H1157 H 0.44713 0.11471 0.02002 0.0
H1158 H 0.51516 0.14073 0.08103 0.0
H1159 H 0.44548 0.14857 0.04601 0.0
H1160 H 0.46844 0.22685 0.07634 0.0
H1161 H 0.46846 0.19152 0.05171 0.0
H1162 H 0.4905 0.15079 0.11351 0.0
H1163 H 0.49088 0.18626 0.13818 0.0
C1164 C 0.50091 0.11542 0.05319 0.0
C1165 C 0.48184 0.10775 0.03581 0.0
C1166 C 0.50006 0.13498 0.06796 0.0
C1167 C 0.48019 0.14729 0.06551 0.0
C1168 C 0.46112 0.13957 0.04816 0.0
C1169 C 0.46194 0.12001 0.03347 0.0
C1170 C 0.47314 0.21032 0.08474 0.0
C1171 C 0.47971 0.20939 0.10922 0.0
C1172 C 0.47306 0.19005 0.07063 0.0
C1173 C 0.47956 0.16845 0.08069 0.0
C1174 C 0.48573 0.16734 0.10523 0.0
C1175 C 0.48577 0.1876 0.11937 0.0
H1176 H 0.21561 0.36806 0.74162 0.0
H1177 H 0.28222 0.33856 0.7492 0.0
H1178 H 0.24108 0.40987 0.73544 0.0
H1179 H 0.30773 0.38037 0.74322 0.0
H1180 H 0.34748 0.45589 0.71623 0.0
H1181 H 0.31955 0.41495 0.715 0.0
H1182 H 0.26883 0.4402 0.75971 0.0
H1183 H 0.29645 0.48129 0.76052 0.0
C1184 C 0.23571 0.37053 0.74196 0.0
C1185 C 0.24694 0.35006 0.74612 0.0
C1186 C 0.25029 0.39448 0.73842 0.0
C1187 C 0.27645 0.39851 0.73899 0.0
C1188 C 0.28763 0.3779 0.74236 0.0
C1189 C 0.27303 0.35393 0.74583 0.0
C1190 C 0.3302 0.45283 0.72554 0.0
C1191 C 0.32431 0.47185 0.73863 0.0
C1192 C 0.31427 0.42929 0.72494 0.0
C1193 C 0.29209 0.4242 0.73745 0.0
C1194 C 0.28566 0.44353 0.74968 0.0
C1195 C 0.30157 0.4671 0.75023 0.0
H1196 H 0.30331 0.71981 0.79006 0.0
H1197 H 0.28667 0.7122 0.7145 0.0
H1198 H 0.31982 0.68197 0.79125 0.0
H1199 H 0.30298 0.67418 0.71558 0.0
H1200 H 0.35674 0.61997 0.72442 0.0
H1201 H 0.34242 0.65911 0.72229 0.0
H1202 H 0.30251 0.63727 0.78694 0.0
H1203 H 0.31688 0.5985 0.78921 0.0
C1204 C 0.30342 0.71008 0.7737 0.0
C1205 C 0.29406 0.71899 0.75217 0.0
C1206 C 0.31268 0.68837 0.77436 0.0
C1207 C 0.31269 0.67507 0.7535 0.0
C1208 C 0.30352 0.68417 0.73188 0.0
C1209 C 0.29413 0.70585 0.73126 0.0
C1210 C 0.3449 0.62356 0.73815 0.0
C1211 C 0.33798 0.60613 0.75699 0.0
C1212 C 0.33663 0.64591 0.73688 0.0
C1213 C 0.32145 0.65134 0.75452 0.0
C1214 C 0.3145 0.63384 0.77327 0.0
C1215 C 0.32261 0.61151 0.77446 0.0
H1216 H 0.92823 0.55249 0.45166 0.0
H1217 H 0.92778 0.54669 0.52865 0.0
H1218 H 0.88942 0.52061 0.44935 0.0
H1219 H 0.88897 0.5152 0.52637 0.0
H1220 H 0.83314 0.44221 0.51245 0.0
H1221 H 0.87329 0.47169 0.51314 0.0
H1222 H 0.8448 0.51819 0.45978 0.0
H1223 H 0.80459 0.48864 0.4589 0.0
C1224 C 0.91993 0.54422 0.46804 0.0
C1225 C 0.93086 0.55206 0.49032 0.0
C1226 C 0.89767 0.52619 0.46673 0.0
C1227 C 0.88619 0.51554 0.48769 0.0
C1228 C 0.89751 0.52297 0.50994 0.0
C1229 C 0.91959 0.5411 0.51124 0.0
C1230 C 0.83541 0.45869 0.50083 0.0
C1231 C 0.81563 0.46313 0.48568 0.0
C1232 C 0.85839 0.47558 0.50128 0.0
C1233 C 0.86213 0.49718 0.4865 0.0
C1234 C 0.84248 0.50153 0.47117 0.0
C1235 C 0.81942 0.48471 0.47082 0.0
H1236 H 0.76167 0.87924 0.85871 0.0
H1237 H 0.74651 0.85768 0.78537 0.0
H1238 H 0.73337 0.90742 0.85334 0.0
H1239 H 0.71937 0.88711 0.77958 0.0
H1240 H 0.65594 0.92849 0.78267 0.0
H1241 H 0.68037 0.89649 0.78926 0.0
H1242 H 0.73357 0.94642 0.8337 0.0
H1243 H 0.70891 0.97779 0.82779 0.0
C1244 C 0.7522 0.88037 0.84147 0.0
C1245 C 0.7565 0.86624 0.82245 0.0
C1246 C 0.7362 0.89683 0.83828 0.0
C1247 C 0.72428 0.89978 0.81594 0.0
C1248 C 0.72809 0.88521 0.79706 0.0
C1249 C 0.74396 0.86858 0.8003 0.0
C1250 C 0.67282 0.93252 0.79389 0.0
C1251 C 0.68044 0.95562 0.80477 0.0
C1252 C 0.68688 0.91425 0.7976 0.0
C1253 C 0.70888 0.9188 0.81215 0.0
C1254 C 0.71647 0.94201 0.82284 0.0
C1255 C 0.70238 0.96012 0.81928 0.0
H1256 H 0.58392 0.55593 0.97663 0.0
H1257 H 0.62138 0.49492 0.98769 0.0
H1258 H 0.62341 0.58549 0.98344 0.0
H1259 H 0.66086 0.52457 0.99522 0.0
H1260 H 0.73055 0.5876 0.98393 0.0
H1261 H 0.69175 0.55765 0.97469 0.0
H1262 H 0.65189 0.59753 0.01817 0.0
H1263 H 0.69041 0.62758 0.02718 0.0
C1264 C 0.60064 0.54885 0.9803 0.0
C1265 C 0.59957 0.52312 0.98163 0.0
C1266 C 0.62319 0.56577 0.98447 0.0
C1267 C 0.64517 0.55732 0.99002 0.0
C1268 C 0.64424 0.53161 0.99084 0.0
C1269 C 0.62163 0.51465 0.98675 0.0
C1270 C 0.7135 0.58998 0.99152 0.0
C1271 C 0.71357 0.61002 0.00625 0.0
C1272 C 0.69133 0.57276 0.9863 0.0
C1273 C 0.6688 0.57534 0.99561 0.0
C1274 C 0.66891 0.59529 0.01043 0.0
C1275 C 0.69104 0.61242 0.01572 0.0
H1276 H 0.28913 0.68087 0.23229 0.0
H1277 H 0.22393 0.71273 0.226 0.0
H1278 H 0.2626 0.63962 0.23873 0.0
H1279 H 0.19737 0.67152 0.23266 0.0
H1280 H 0.15466 0.59174 0.22907 0.0
H1281 H 0.18242 0.63046 0.21628 0.0
H1282 H 0.23721 0.61857 0.27076 0.0
H1283 H 0.20978 0.57966 0.28322 0.0
C1284 C 0.2691 0.67902 0.23227 0.0
C1285 C 0.25858 0.70002 0.22886 0.0
C1286 C 0.25393 0.65542 0.23597 0.0
C1287 C 0.2279 0.65232 0.23639 0.0
C1288 C 0.21733 0.67323 0.23215 0.0
C1289 C 0.23253 0.69684 0.22838 0.0
C1290 C 0.17275 0.59724 0.23815 0.0
C1291 C 0.17993 0.58267 0.25728 0.0
C1292 C 0.18858 0.61951 0.2309 0.0
C1293 C 0.21194 0.62767 0.2426 0.0
C1294 C 0.21945 0.61268 0.26119 0.0
C1295 C 0.20365 0.59042 0.26843 0.0
H1296 H 0.93484 0.55181 0.08303 0.0
H1297 H 0.88121 0.49583 0.04512 0.0
H1298 H 0.90967 0.58232 0.07258 0.0
H1299 H 0.85645 0.5266 0.03421 0.0
H1300 H 0.83873 0.5952 0.99418 0.0
H1301 H 0.86336 0.56516 0.00751 0.0
H1302 H 0.86724 0.59166 0.07923 0.0
H1303 H 0.8424 0.62193 0.06589 0.0
C1304 C 0.9175 0.54586 0.07281 0.0
C1305 C 0.91011 0.52131 0.06486 0.0
C1306 C 0.90315 0.56341 0.06676 0.0
C1307 C 0.88124 0.55689 0.05242 0.0
C1308 C 0.8735 0.53225 0.04496 0.0
C1309 C 0.88771 0.51464 0.05118 0.0
C1310 C 0.84494 0.59481 0.01278 0.0
C1311 C 0.83857 0.61095 0.02899 0.0
C1312 C 0.85888 0.57743 0.02043 0.0
C1313 C 0.86696 0.57588 0.04445 0.0
C1314 C 0.86126 0.59248 0.06059 0.0
C1315 C 0.84705 0.60978 0.05296 0.0
H1316 H 0.08238 0.01726 0.97393 0.0
H1317 H 0.10711 0.01541 0.04795 0.0
H1318 H 0.11488 0.99627 0.96339 0.0
H1319 H 0.14028 0.99497 0.03746 0.0
H1320 H 0.17872 0.93456 0.01292 0.0
H1321 H 0.14648 0.95574 0.02403 0.0
H1322 H 0.15902 0.00291 0.9603 0.0
H1323 H 0.19061 0.98136 0.94894 0.0
C1324 C 0.09498 0.01253 0.98791 0.0
C1325 C 0.09229 0.01791 0.01175 0.0
C1326 C 0.1137 0.00062 0.98189 0.0
C1327 C 0.13026 0.9939 -0.00043 0.0
C1328 C 0.12766 -0.00046 0.02343 0.0
C1329 C 0.10885 0.01141 0.02944 0.0
C1330 C 0.17454 0.94942 0.00128 0.0
C1331 C 0.18716 0.95617 0.97999 0.0
C1332 C 0.15618 0.96169 0.00772 0.0
C1333 C 0.15008 0.98103 0.99304 0.0
C1334 C 0.16289 0.98784 0.97185 0.0
C1335 C 0.18113 0.97554 0.96538 0.0
loop_
_geom_bond_atom_site_label_1
_geom_bond_atom_site_label_2
_geom_bond_distance
_geom_bond_site_symmetry_2
_ccdc_geom_bond_type
H0 C7 0.929 . S
H1 C10 0.930 . S
H2 C12 0.929 . S
H3 C4 0.969 . S
C4 H3 0.969 . S
C4 O5 1.550 . S
C4 H6 0.973 . S
O5 C4 1.550 . S
O5 C11 1.412 . S
H6 C4 0.973 . S
C7 H0 0.929 . S
C7 C8 1.400 . S
C7 C9 1.364 . S
C8 C7 1.400 . S
C8 C12 1.377 . S
C9 C7 1.364 . S
C9 C10 1.374 . S
C10 H1 0.930 . S
C10 C9 1.374 . S
C10 C11 1.383 . S
C11 O5 1.412 . S
C11 C10 1.383 . S
C11 C12 1.394 . S
C12 H2 0.929 . S
C12 C8 1.377 . S
C12 C11 1.394 . S
H13 C20 0.929 . S
H14 C23 0.930 . S
H15 C25 0.929 . S
H16 C17 0.969 . S
C17 H16 0.969 . S
C17 O18 1.550 . S
C17 H19 0.973 . S
O18 C17 1.550 . S
O18 C24 1.412 . S
H19 C17 0.973 . S
C20 H13 0.929 . S
C20 C21 1.400 . S
C20 C22 1.364 . S
C21 C20 1.400 . S
C21 C25 1.377 . S
C22 C20 1.364 . S
C22 C23 1.374 . S
C23 H14 0.930 . S
C23 C22 1.374 . S
C23 C24 1.383 . S
C24 O18 1.412 . S
C24 C23 1.383 . S
C24 C25 1.394 . S
C25 H15 0.929 . S
C25 C21 1.377 . S
C25 C24 1.394 . S
H26 C33 0.929 . S
H27 C36 0.930 . S
H28 C38 0.929 . S
H29 C30 0.969 . S
C30 H29 0.969 . S
C30 O31 1.550 . S
C30 H32 0.973 . S
O31 C30 1.550 . S
O31 C37 1.412 . S
H32 C30 0.973 . S
C33 H26 0.929 . S
C33 C34 1.400 . S
C33 C35 1.364 . S
C34 C33 1.400 . S
C34 C38 1.377 . S
C35 C33 1.364 . S
C35 C36 1.374 . S
C36 H27 0.930 . S
C36 C35 1.374 . S
C36 C37 1.383 . S
C37 O31 1.412 . S
C37 C36 1.383 . S
C37 C38 1.394 . S
C38 H28 0.929 . S
C38 C34 1.377 . S
C38 C37 1.394 . S
H39 C46 0.929 . S
H40 C49 0.930 . S
H41 C51 0.929 . S
H42 C43 0.969 . S
C43 H42 0.969 . S
C43 O44 1.550 . S
C43 H45 0.973 . S
O44 C43 1.550 . S
O44 C50 1.412 . S
H45 C43 0.973 . S
C46 H39 0.929 . S
C46 C47 1.400 . S
C46 C48 1.364 . S
C47 C46 1.400 . S
C47 C51 1.377 . S
C48 C46 1.364 . S
C48 C49 1.374 . S
C49 H40 0.930 . S
C49 C48 1.374 . S
C49 C50 1.383 . S
C50 O44 1.412 . S
C50 C49 1.383 . S
C50 C51 1.394 . S
C51 H41 0.929 . S
C51 C47 1.377 . S
C51 C50 1.394 . S
H52 C59 0.929 . S
H53 C62 0.930 . S
H54 C64 0.929 1_545 S
H55 C56 0.969 . S
C56 H55 0.969 . S
C56 O57 1.550 . S
C56 H58 0.973 . S
O57 C56 1.550 . S
O57 C63 1.412 . S
H58 C56 0.973 . S
C59 H52 0.929 . S
C59 C60 1.400 . S
C59 C61 1.364 . S
C60 C59 1.400 . S
C60 C64 1.377 . S
C61 C59 1.364 . S
C61 C62 1.374 . S
C62 H53 0.930 . S
C62 C61 1.374 . S
C62 C63 1.383 . S
C63 O57 1.412 . S
C63 C62 1.383 . S
C63 C64 1.394 . S
C64 H54 0.929 1_565 S
C64 C60 1.377 . S
C64 C63 1.394 . S
H65 C72 0.929 . S
H66 C75 0.930 . S
H67 C77 0.929 . S
H68 C69 0.969 . S
C69 H68 0.969 . S
C69 O70 1.550 . S
C69 H71 0.973 . S
O70 C69 1.550 . S
O70 C76 1.412 . S
H71 C69 0.973 . S
C72 H65 0.929 . S
C72 C73 1.400 . S
C72 C74 1.364 . S
C73 C72 1.400 . S
C73 C77 1.377 . S
C74 C72 1.364 . S
C74 C75 1.374 . S
C75 H66 0.930 . S
C75 C74 1.374 . S
C75 C76 1.383 . S
C76 O70 1.412 . S
C76 C75 1.383 . S
C76 C77 1.394 . S
C77 H67 0.929 . S
C77 C73 1.377 . S
C77 C76 1.394 . S
H78 C85 0.929 . S
H79 C88 0.930 . S
H80 C90 0.929 . S
H81 C82 0.969 . S
C82 H81 0.969 . S
C82 O83 1.550 . S
C82 H84 0.973 . S
O83 C82 1.550 . S
O83 C89 1.412 . S
H84 C82 0.973 . S
C85 H78 0.929 . S
C85 C86 1.400 . S
C85 C87 1.364 . S
C86 C85 1.400 . S
C86 C90 1.377 . S
C87 C85 1.364 . S
C87 C88 1.374 . S
C88 H79 0.930 . S
C88 C87 1.374 . S
C88 C89 1.383 . S
C89 O83 1.412 . S
C89 C88 1.383 . S
C89 C90 1.394 . S
C90 H80 0.929 . S
C90 C86 1.377 . S
C90 C89 1.394 . S
H91 C98 0.929 . S
H92 C101 0.930 . S
H93 C103 0.929 . S
H94 C95 0.969 . S
C95 H94 0.969 . S
C95 O96 1.550 . S
C95 H97 0.973 . S
O96 C95 1.550 . S
O96 C102 1.412 . S
H97 C95 0.973 . S
C98 H91 0.929 . S
C98 C99 1.400 . S
C98 C100 1.364 . S
C99 C98 1.400 . S
C99 C103 1.377 . S
C100 C98 1.364 . S
C100 C101 1.374 . S
C101 H92 0.930 . S
C101 C100 1.374 . S
C101 C102 1.383 . S
C102 O96 1.412 . S
C102 C101 1.383 . S
C102 C103 1.394 . S
C103 H93 0.929 . S
C103 C99 1.377 . S
C103 C102 1.394 . S
H104 C111 0.929 . S
H105 C114 0.930 . S
H106 C116 0.929 . S
H107 C108 0.969 . S
C108 H107 0.969 . S
C108 O109 1.550 . S
C108 H110 0.973 . S
O109 C108 1.550 . S
O109 C115 1.412 . S
H110 C108 0.973 . S
C111 H104 0.929 . S
C111 C112 1.400 . S
C111 C113 1.364 . S
C112 C111 1.400 . S
C112 C116 1.377 . S
C113 C111 1.364 . S
C113 C114 1.374 . S
C114 H105 0.930 . S
C114 C113 1.374 . S
C114 C115 1.383 . S
C115 O109 1.412 . S
C115 C114 1.383 . S
C115 C116 1.394 . S
C116 H106 0.929 . S
C116 C112 1.377 . S
C116 C115 1.394 . S
H117 C124 0.929 . S
H118 C127 0.930 . S
H119 C129 0.929 . S
H120 C121 0.969 . S
C121 H120 0.969 . S
C121 O122 1.550 . S
C121 H123 0.973 . S
O122 C121 1.550 . S
O122 C128 1.412 . S
H123 C121 0.973 . S
C124 H117 0.929 . S
C124 C125 1.400 . S
C124 C126 1.364 . S
C125 C124 1.400 . S
C125 C129 1.377 . S
C126 C124 1.364 . S
C126 C127 1.374 . S
C127 H118 0.930 . S
C127 C126 1.374 . S
C127 C128 1.383 . S
C128 O122 1.412 . S
C128 C127 1.383 . S
C128 C129 1.394 . S
C129 H119 0.929 . S
C129 C125 1.377 . S
C129 C128 1.394 . S
H130 C137 0.929 . S
H131 C140 0.930 . S
H132 C142 0.929 . S
H133 C134 0.969 . S
C134 H133 0.969 . S
C134 O135 1.550 . S
C134 H136 0.973 . S
O135 C134 1.550 . S
O135 C141 1.412 . S
H136 C134 0.973 . S
C137 H130 0.929 . S
C137 C138 1.400 . S
C137 C139 1.364 . S
C138 C137 1.400 . S
C138 C142 1.377 . S
C139 C137 1.364 . S
C139 C140 1.374 . S
C140 H131 0.930 . S
C140 C139 1.374 . S
C140 C141 1.383 . S
C141 O135 1.412 . S
C141 C140 1.383 . S
C141 C142 1.394 . S
C142 H132 0.929 . S
C142 C138 1.377 . S
C142 C141 1.394 . S
H143 C150 0.929 . S
H144 C153 0.930 . S
H145 C155 0.929 . S
H146 C147 0.969 . S
C147 H146 0.969 . S
C147 O148 1.550 . S
C147 H149 0.973 . S
O148 C147 1.550 . S
O148 C154 1.412 . S
H149 C147 0.973 . S
C150 H143 0.929 . S
C150 C151 1.400 . S
C150 C152 1.364 . S
C151 C150 1.400 . S
C151 C155 1.377 . S
C152 C150 1.364 . S
C152 C153 1.374 . S
C153 H144 0.930 . S
C153 C152 1.374 . S
C153 C154 1.383 . S
C154 O148 1.412 . S
C154 C153 1.383 . S
C154 C155 1.394 . S
C155 H145 0.929 . S
C155 C151 1.377 . S
C155 C154 1.394 . S
H156 C163 0.929 . S
H157 C166 0.930 . S
H158 C168 0.929 . S
H159 C160 0.969 . S
C160 H159 0.969 . S
C160 O161 1.550 . S
C160 H162 0.973 . S
O161 C160 1.550 . S
O161 C167 1.412 . S
H162 C160 0.973 . S
C163 H156 0.929 . S
C163 C164 1.400 . S
C163 C165 1.364 . S
C164 C163 1.400 . S
C164 C168 1.377 . S
C165 C163 1.364 . S
C165 C166 1.374 . S
C166 H157 0.930 . S
C166 C165 1.374 . S
C166 C167 1.383 . S
C167 O161 1.412 . S
C167 C166 1.383 . S
C167 C168 1.394 . S
C168 H158 0.929 . S
C168 C164 1.377 . S
C168 C167 1.394 . S
H169 C176 0.929 . S
H170 C179 0.930 . S
H171 C181 0.929 . S
H172 C173 0.969 . S
C173 H172 0.969 . S
C173 O174 1.550 . S
C173 H175 0.973 . S
O174 C173 1.550 . S
O174 C180 1.412 . S
H175 C173 0.973 . S
C176 H169 0.929 . S
C176 C177 1.400 . S
C176 C178 1.364 . S
C177 C176 1.400 . S
C177 C181 1.377 . S
C178 C176 1.364 . S
C178 C179 1.374 . S
C179 H170 0.930 . S
C179 C178 1.374 . S
C179 C180 1.383 . S
C180 O174 1.412 . S
C180 C179 1.383 . S
C180 C181 1.394 . S
C181 H171 0.929 . S
C181 C177 1.377 . S
C181 C180 1.394 . S
H182 C189 0.929 . S
H183 C192 0.930 . S
H184 C194 0.929 . S
H185 C186 0.969 . S
C186 H185 0.969 . S
C186 O187 1.550 . S
C186 H188 0.973 . S
O187 C186 1.550 . S
O187 C193 1.412 . S
H188 C186 0.973 . S
C189 H182 0.929 . S
C189 C190 1.400 . S
C189 C191 1.364 . S
C190 C189 1.400 . S
C190 C194 1.377 . S
C191 C189 1.364 . S
C191 C192 1.374 . S
C192 H183 0.930 . S
C192 C191 1.374 . S
C192 C193 1.383 . S
C193 O187 1.412 . S
C193 C192 1.383 . S
C193 C194 1.394 . S
C194 H184 0.929 . S
C194 C190 1.377 . S
C194 C193 1.394 . S
H195 C202 0.929 . S
H196 C205 0.930 . S
H197 C207 0.929 . S
H198 C199 0.969 . S
C199 H198 0.969 . S
C199 O200 1.550 . S
C199 H201 0.973 . S
O200 C199 1.550 . S
O200 C206 1.412 . S
H201 C199 0.973 . S
C202 H195 0.929 . S
C202 C203 1.400 . S
C202 C204 1.364 . S
C203 C202 1.400 . S
C203 C207 1.377 . S
C204 C202 1.364 . S
C204 C205 1.374 . S
C205 H196 0.930 . S
C205 C204 1.374 . S
C205 C206 1.383 . S
C206 O200 1.412 . S
C206 C205 1.383 . S
C206 C207 1.394 . S
C207 H197 0.929 . S
C207 C203 1.377 . S
C207 C206 1.394 . S
O208 Cd209 2.177 1_556 S
O208 C216 1.330 . S
Cd209 O208 2.177 1_554 S
Cd209 O212 2.297 . S
Cd209 O213 2.439 . S
Cd209 O219 2.240 . S
Cd210 O211 2.240 . S
Cd210 O218 2.223 1_554 S
Cd210 O220 2.297 . S
Cd210 O221 2.439 . S
O211 Cd210 2.240 . S
O211 C216 1.279 1_554 S
O212 Cd209 2.297 . S
O212 C214 1.247 . S
O213 Cd209 2.439 . S
O213 C214 1.208 . S
C214 O212 1.247 . S
C214 O213 1.208 . S
C215 O220 1.247 . S
C215 O221 1.208 . S
C216 O208 1.330 . S
C216 O211 1.279 1_556 S
C217 O218 1.341 . S
C217 O219 1.240 1_556 S
O218 Cd210 2.223 1_556 S
O218 C217 1.341 . S
O219 Cd209 2.240 . S
O219 C217 1.240 1_554 S
O220 Cd210 2.297 . S
O220 C215 1.247 . S
O221 Cd210 2.439 . S
O221 C215 1.208 . S
O222 Cd223 2.223 . S
O222 C230 1.315 . S
Cd223 O222 2.223 . S
Cd223 O226 2.297 . S
Cd223 O227 2.439 . S
Cd223 O233 2.240 . S
Cd224 O225 2.240 . S
Cd224 O232 2.223 . S
Cd224 O234 2.297 . S
Cd224 O235 2.439 . S
O225 Cd224 2.240 . S
O225 C230 1.279 . S
O226 Cd223 2.297 . S
O226 C228 1.247 . S
O227 Cd223 2.439 . S
O227 C228 1.208 . S
C228 O226 1.247 . S
C228 O227 1.208 . S
C229 O234 1.247 . S
C229 O235 1.208 . S
C230 O222 1.315 . S
C230 O225 1.279 . S
C231 O232 1.315 . S
C231 O233 1.279 . S
O232 Cd224 2.223 . S
O232 C231 1.315 . S
O233 Cd223 2.240 . S
O233 C231 1.279 . S
O234 Cd224 2.297 . S
O234 C229 1.247 . S
O235 Cd224 2.439 . S
O235 C229 1.208 . S
O236 Cd237 2.223 1_556 S
O236 C244 1.315 . S
Cd237 O236 2.223 1_554 S
Cd237 O240 2.297 . S
Cd237 O241 2.439 . S
Cd237 O247 2.240 . S
Cd238 O239 2.240 . S
Cd238 O246 2.223 1_554 S
Cd238 O248 2.297 . S
Cd238 O249 2.439 . S
O239 Cd238 2.240 . S
O239 C244 1.279 1_554 S
O240 Cd237 2.297 . S
O240 C242 1.247 . S
O241 Cd237 2.439 . S
O241 C242 1.208 . S
C242 O240 1.247 . S
C242 O241 1.208 . S
C243 O248 1.247 . S
C243 O249 1.208 . S
C244 O236 1.315 . S
C244 O239 1.279 1_556 S
C245 O246 1.315 . S
C245 O247 1.279 1_556 S
O246 Cd238 2.223 1_556 S
O246 C245 1.315 . S
O247 Cd237 2.240 . S
O247 C245 1.279 1_554 S
O248 Cd238 2.297 . S
O248 C243 1.247 . S
O249 Cd238 2.439 . S
O249 C243 1.208 . S
O250 Cd251 2.223 . S
O250 C258 1.315 . S
Cd251 O250 2.223 . S
Cd251 O254 2.297 . S
Cd251 O255 2.439 . S
Cd251 O261 2.240 . S
Cd252 O253 2.240 . S
Cd252 O260 2.223 . S
Cd252 O262 2.297 . S
Cd252 O263 2.439 . S
O253 Cd252 2.240 . S
O253 C258 1.279 . S
O254 Cd251 2.297 . S
O254 C256 1.247 . S
O255 Cd251 2.439 . S
O255 C256 1.208 . S
C256 O254 1.247 . S
C256 O255 1.208 . S
C257 O262 1.247 . S
C257 O263 1.208 . S
C258 O250 1.315 . S
C258 O253 1.279 . S
C259 O260 1.315 . S
C259 O261 1.279 . S
O260 Cd252 2.223 . S
O260 C259 1.315 . S
O261 Cd251 2.240 . S
O261 C259 1.279 . S
O262 Cd252 2.297 . S
O262 C257 1.247 . S
O263 Cd252 2.439 . S
O263 C257 1.208 . S
O264 Cd265 2.223 . S
O264 C272 1.315 . S
Cd265 O264 2.223 . S
Cd265 O268 2.297 . S
Cd265 O269 2.439 . S
Cd265 O275 2.240 . S
Cd266 O267 2.240 . S
Cd266 O274 2.223 . S
Cd266 O276 2.297 . S
Cd266 O277 2.439 . S
O267 Cd266 2.240 . S
O267 C272 1.279 . S
O268 Cd265 2.297 . S
O268 C270 1.247 . S
O269 Cd265 2.439 . S
O269 C270 1.208 . S
C270 O268 1.247 . S
C270 O269 1.208 . S
C271 O276 1.247 . S
C271 O277 1.208 . S
C272 O264 1.315 . S
C272 O267 1.279 . S
C273 O274 1.315 . S
C273 O275 1.279 . S
O274 Cd266 2.223 . S
O274 C273 1.315 . S
O275 Cd265 2.240 . S
O275 C273 1.279 . S
O276 Cd266 2.297 . S
O276 C271 1.247 . S
O277 Cd266 2.439 . S
O277 C271 1.208 . S
O278 Cd279 2.223 . S
O278 C286 1.315 . S
Cd279 O278 2.223 . S
Cd279 O282 2.297 . S
Cd279 O283 2.439 . S
Cd279 O289 2.240 . S
Cd280 O281 2.240 . S
Cd280 O288 2.223 . S
Cd280 O290 2.297 . S
Cd280 O291 2.439 . S
O281 Cd280 2.240 . S
O281 C286 1.279 . S
O282 Cd279 2.297 . S
O282 C284 1.247 . S
O283 Cd279 2.439 . S
O283 C284 1.208 . S
C284 O282 1.247 . S
C284 O283 1.208 . S
C285 O290 1.247 . S
C285 O291 1.208 . S
C286 O278 1.315 . S
C286 O281 1.279 . S
C287 O288 1.315 . S
C287 O289 1.279 . S
O288 Cd280 2.223 . S
O288 C287 1.315 . S
O289 Cd279 2.240 . S
O289 C287 1.279 . S
O290 Cd280 2.297 . S
O290 C285 1.247 . S
O291 Cd280 2.439 . S
O291 C285 1.208 . S
O292 Cd293 2.223 . S
O292 C300 1.315 . S
Cd293 O292 2.223 . S
Cd293 O296 2.297 . S
Cd293 O297 2.439 . S
Cd293 O303 2.240 . S
Cd294 O295 2.240 . S
Cd294 O302 2.223 . S
Cd294 O304 2.297 . S
Cd294 O305 2.439 . S
O295 Cd294 2.240 . S
O295 C300 1.279 . S
O296 Cd293 2.297 . S
O296 C298 1.247 . S
O297 Cd293 2.439 . S
O297 C298 1.208 . S
C298 O296 1.247 . S
C298 O297 1.208 . S
C299 O304 1.247 . S
C299 O305 1.208 . S
C300 O292 1.315 . S
C300 O295 1.279 . S
C301 O302 1.315 . S
C301 O303 1.279 . S
O302 Cd294 2.223 . S
O302 C301 1.315 . S
O303 Cd293 2.240 . S
O303 C301 1.279 . S
O304 Cd294 2.297 . S
O304 C299 1.247 . S
O305 Cd294 2.439 . S
O305 C299 1.208 . S
O306 Cd307 2.223 1_545 S
O306 C314 1.315 . S
Cd307 O306 2.223 1_565 S
Cd307 O310 2.297 . S
Cd307 O311 2.439 . S
Cd307 O317 2.240 1_565 S
Cd308 O309 2.240 . S
Cd308 O316 2.223 . S
Cd308 O318 2.297 . S
Cd308 O319 2.439 1_545 S
O309 Cd308 2.240 . S
O309 C314 1.279 . S
O310 Cd307 2.297 . S
O310 C312 1.247 . S
O311 Cd307 2.439 . S
O311 C312 1.208 . S
C312 O310 1.247 . S
C312 O311 1.208 . S
C313 O318 1.247 1_565 S
C313 O319 1.208 . S
C314 O306 1.315 . S
C314 O309 1.279 . S
C315 O316 1.315 . S
C315 O317 1.279 . S
O316 Cd308 2.223 . S
O316 C315 1.315 . S
O317 Cd307 2.240 1_545 S
O317 C315 1.279 . S
O318 Cd308 2.297 . S
O318 C313 1.247 1_545 S
O319 Cd308 2.439 1_565 S
O319 C313 1.208 . S
O320 Cd321 2.223 . S
O320 C328 1.315 . S
Cd321 O320 2.223 . S
Cd321 O324 2.297 . S
Cd321 O325 2.439 1_655 S
Cd321 O331 2.240 . S
Cd322 O323 2.240 . S
Cd322 O330 2.223 1_455 S
Cd322 O332 2.297 . S
Cd322 O333 2.439 . S
O323 Cd322 2.240 . S
O323 C328 1.279 1_455 S
O324 Cd321 2.297 . S
O324 C326 1.247 1_655 S
O325 Cd321 2.439 1_455 S
O325 C326 1.208 . S
C326 O324 1.247 1_455 S
C326 O325 1.208 . S
C327 O332 1.247 . S
C327 O333 1.208 . S
C328 O320 1.315 . S
C328 O323 1.279 1_655 S
C329 O330 1.315 . S
C329 O331 1.279 . S
O330 Cd322 2.223 1_655 S
O330 C329 1.315 . S
O331 Cd321 2.240 . S
O331 C329 1.279 . S
O332 Cd322 2.297 . S
O332 C327 1.247 . S
O333 Cd322 2.439 . S
O333 C327 1.208 . S
O334 Cd335 2.223 . S
O334 C342 1.315 . S
Cd335 O334 2.223 . S
Cd335 O338 2.297 . S
Cd335 O339 2.439 . S
Cd335 O345 2.240 . S
Cd336 O337 2.240 . S
Cd336 O344 2.223 . S
Cd336 O346 2.297 . S
Cd336 O347 2.439 . S
O337 Cd336 2.240 . S
O337 C342 1.279 . S
O338 Cd335 2.297 . S
O338 C340 1.247 . S
O339 Cd335 2.439 . S
O339 C340 1.208 . S
C340 O338 1.247 . S
C340 O339 1.208 . S
C341 O346 1.247 . S
C341 O347 1.208 . S
C342 O334 1.315 . S
C342 O337 1.279 . S
C343 O344 1.315 . S
C343 O345 1.279 . S
O344 Cd336 2.223 . S
O344 C343 1.315 . S
O345 Cd335 2.240 . S
O345 C343 1.279 . S
O346 Cd336 2.297 . S
O346 C341 1.247 . S
O347 Cd336 2.439 . S
O347 C341 1.208 . S
O348 Cd349 2.223 1_655 S
O348 C356 1.315 . S
Cd349 O348 2.223 1_455 S
Cd349 O352 2.297 . S
Cd349 O353 2.439 . S
Cd349 O359 2.240 . S
Cd350 O351 2.240 . S
Cd350 O358 2.223 1_455 S
Cd350 O360 2.297 . S
Cd350 O361 2.439 . S
O351 Cd350 2.240 . S
O351 C356 1.279 1_455 S
O352 Cd349 2.297 . S
O352 C354 1.247 . S
O353 Cd349 2.439 . S
O353 C354 1.208 . S
C354 O352 1.247 . S
C354 O353 1.208 . S
C355 O360 1.247 . S
C355 O361 1.208 . S
C356 O348 1.315 . S
C356 O351 1.279 1_655 S
C357 O358 1.315 . S
C357 O359 1.279 1_655 S
O358 Cd350 2.223 1_655 S
O358 C357 1.315 . S
O359 Cd349 2.240 . S
O359 C357 1.279 1_455 S
O360 Cd350 2.297 . S
O360 C355 1.247 . S
O361 Cd350 2.439 . S
O361 C355 1.208 . S
O362 Cd363 2.223 . S
O362 C370 1.315 . S
Cd363 O362 2.223 . S
Cd363 O366 2.297 . S
Cd363 O367 2.439 . S
Cd363 O373 2.240 . S
Cd364 O365 2.240 . S
Cd364 O372 2.223 . S
Cd364 O374 2.297 . S
Cd364 O375 2.439 . S
O365 Cd364 2.240 . S
O365 C370 1.279 . S
O366 Cd363 2.297 . S
O366 C368 1.247 . S
O367 Cd363 2.439 . S
O367 C368 1.208 . S
C368 O366 1.247 . S
C368 O367 1.208 . S
C369 O374 1.247 . S
C369 O375 1.208 . S
C370 O362 1.315 . S
C370 O365 1.279 . S
C371 O372 1.315 . S
C371 O373 1.279 . S
O372 Cd364 2.223 . S
O372 C371 1.315 . S
O373 Cd363 2.240 . S
O373 C371 1.279 . S
O374 Cd364 2.297 . S
O374 C369 1.247 . S
O375 Cd364 2.439 . S
O375 C369 1.208 . S
H376 C384 0.950 . S
H377 C389 0.950 . S
H378 C386 0.950 . S
H379 C388 0.950 . S
H380 C390 0.950 . S
H381 C392 0.950 . S
H382 C394 0.950 . S
H383 C395 0.950 . S
C384 H376 0.950 . S
C384 C385 1.386 . S
C384 C386 1.391 . S
C385 C384 1.386 . S
C385 C389 1.393 . S
C386 H378 0.950 . S
C386 C384 1.391 . S
C386 C387 1.400 . S
C387 C386 1.400 . S
C387 C388 1.398 . S
C387 C393 1.491 . S
C388 H379 0.950 . S
C388 C387 1.398 . S
C388 C389 1.391 . S
C389 H377 0.950 . S
C389 C385 1.393 . S
C389 C388 1.391 . S
C390 H380 0.950 . S
C390 C391 1.386 . S
C390 C392 1.391 . S
C391 C390 1.386 . S
C391 C395 1.393 . S
C392 H381 0.950 . S
C392 C390 1.391 . S
C392 C393 1.400 . S
C393 C387 1.491 . S
C393 C392 1.400 . S
C393 C394 1.398 . S
C394 H382 0.950 . S
C394 C393 1.398 . S
C394 C395 1.391 . S
C395 H383 0.950 . S
C395 C391 1.393 . S
C395 C394 1.391 . S
H396 C404 0.950 . S
H397 C409 0.950 . S
H398 C406 0.950 . S
H399 C408 0.950 . S
H400 C410 0.950 . S
H401 C412 0.950 . S
H402 C414 0.950 . S
H403 C415 0.950 . S
C404 H396 0.950 . S
C404 C405 1.386 . S
C404 C406 1.389 . S
C405 C404 1.386 . S
C405 C409 1.393 1_655 S
C406 H398 0.950 . S
C406 C404 1.389 . S
C406 C407 1.403 1_655 S
C407 C406 1.403 1_455 S
C407 C408 1.398 . S
C407 C413 1.491 . S
C408 H399 0.950 . S
C408 C407 1.398 . S
C408 C409 1.391 . S
C409 H397 0.950 . S
C409 C405 1.393 1_455 S
C409 C408 1.391 . S
C410 H400 0.950 . S
C410 C411 1.386 . S
C410 C412 1.391 . S
C411 C410 1.386 . S
C411 C415 1.393 . S
C412 H401 0.950 . S
C412 C410 1.391 . S
C412 C413 1.400 . S
C413 C407 1.491 . S
C413 C412 1.400 . S
C413 C414 1.398 . S
C414 H402 0.950 . S
C414 C413 1.398 . S
C414 C415 1.391 . S
C415 H403 0.950 . S
C415 C411 1.393 . S
C415 C414 1.391 . S
H416 C424 0.950 . S
H417 C429 0.950 . S
H418 C426 0.950 . S
H419 C428 0.950 . S
H420 C430 0.950 . S
H421 C432 0.950 . S
H422 C434 0.950 . S
H423 C435 0.950 . S
C424 H416 0.950 . S
C424 C425 1.386 . S
C424 C426 1.391 . S
C425 C424 1.386 . S
C425 C429 1.393 . S
C426 H418 0.950 . S
C426 C424 1.391 . S
C426 C427 1.400 . S
C427 C426 1.400 . S
C427 C428 1.398 . S
C427 C433 1.491 . S
C428 H419 0.950 . S
C428 C427 1.398 . S
C428 C429 1.391 . S
C429 H417 0.950 . S
C429 C425 1.393 . S
C429 C428 1.391 . S
C430 H420 0.950 . S
C430 C431 1.386 . S
C430 C432 1.391 . S
C431 C430 1.386 . S
C431 C435 1.393 . S
C432 H421 0.950 . S
C432 C430 1.391 . S
C432 C433 1.400 . S
C433 C427 1.491 . S
C433 C432 1.400 . S
C433 C434 1.398 . S
C434 H422 0.950 . S
C434 C433 1.398 . S
C434 C435 1.391 . S
C435 H423 0.950 . S
C435 C431 1.393 . S
C435 C434 1.391 . S
H436 C444 0.950 1_655 S
H437 C449 0.950 . S
H438 C446 0.950 . S
H439 C448 0.950 . S
H440 C450 0.950 . S
H441 C452 0.950 . S
H442 C454 0.960 . S
H443 C455 0.966 . S
C444 H436 0.950 1_455 S
C444 C445 1.386 . S
C444 C446 1.391 1_455 S
C445 C444 1.386 . S
C445 C449 1.393 1_565 S
C446 H438 0.950 . S
C446 C444 1.391 1_655 S
C446 C447 1.400 1_565 S
C447 C446 1.400 1_545 S
C447 C448 1.398 1_655 S
C447 C453 1.491 . S
C448 H439 0.950 . S
C448 C447 1.398 1_455 S
C448 C449 1.391 . S
C449 H437 0.950 . S
C449 C445 1.393 1_545 S
C449 C448 1.391 . S
C450 H440 0.950 . S
C450 C451 1.386 . S
C450 C452 1.391 . S
C451 C450 1.386 . S
C451 C455 1.393 . S
C452 H441 0.950 . S
C452 C450 1.391 . S
C452 C453 1.400 . S
C453 C447 1.491 . S
C453 C452 1.400 . S
C453 C454 1.395 1_545 S
C454 H442 0.960 . S
C454 C453 1.395 1_565 S
C454 C455 1.384 1_565 S
C455 H443 0.966 . S
C455 C451 1.393 . S
C455 C454 1.384 1_545 S
H456 C464 0.950 . S
H457 C469 0.950 . S
H458 C466 0.950 . S
H459 C468 0.950 . S
H460 C470 0.950 . S
H461 C472 0.950 . S
H462 C474 0.950 . S
H463 C475 0.950 . S
C464 H456 0.950 . S
C464 C465 1.386 . S
C464 C466 1.391 . S
C465 C464 1.386 . S
C465 C469 1.393 . S
C466 H458 0.950 . S
C466 C464 1.391 . S
C466 C467 1.400 . S
C467 C466 1.400 . S
C467 C468 1.398 . S
C467 C473 1.491 . S
C468 H459 0.950 . S
C468 C467 1.398 . S
C468 C469 1.391 . S
C469 H457 0.950 . S
C469 C465 1.393 . S
C469 C468 1.391 . S
C470 H460 0.950 . S
C470 C471 1.386 . S
C470 C472 1.391 . S
C471 C470 1.386 . S
C471 C475 1.393 . S
C472 H461 0.950 . S
C472 C470 1.391 . S
C472 C473 1.400 . S
C473 C467 1.491 . S
C473 C472 1.400 . S
C473 C474 1.398 . S
C474 H462 0.950 . S
C474 C473 1.398 . S
C474 C475 1.391 . S
C475 H463 0.950 . S
C475 C471 1.393 . S
C475 C474 1.391 . S
H476 C484 0.950 . S
H477 C489 0.950 . S
H478 C486 0.950 . S
H479 C488 0.950 . S
H480 C490 0.950 . S
H481 C492 0.950 . S
H482 C494 0.950 . S
H483 C495 0.950 . S
C484 H476 0.950 . S
C484 C485 1.386 . S
C484 C486 1.391 . S
C485 C484 1.386 . S
C485 C489 1.393 . S
C486 H478 0.950 . S
C486 C484 1.391 . S
C486 C487 1.400 . S
C487 C486 1.400 . S
C487 C488 1.398 . S
C487 C493 1.491 . S
C488 H479 0.950 . S
C488 C487 1.398 . S
C488 C489 1.391 . S
C489 H477 0.950 . S
C489 C485 1.393 . S
C489 C488 1.391 . S
C490 H480 0.950 . S
C490 C491 1.386 . S
C490 C492 1.391 . S
C491 C490 1.386 . S
C491 C495 1.393 . S
C492 H481 0.950 . S
C492 C490 1.391 . S
C492 C493 1.400 . S
C493 C487 1.491 . S
C493 C492 1.400 . S
C493 C494 1.398 . S
C494 H482 0.950 . S
C494 C493 1.398 . S
C494 C495 1.391 . S
C495 H483 0.950 . S
C495 C491 1.393 . S
C495 C494 1.391 . S
H496 C504 0.950 . S
H497 C509 0.950 . S
H498 C506 0.950 . S
H499 C508 0.950 . S
H500 C510 0.950 . S
H501 C512 0.950 . S
H502 C514 0.950 . S
H503 C515 0.950 . S
C504 H496 0.950 . S
C504 C505 1.386 . S
C504 C506 1.391 . S
C505 C504 1.386 . S
C505 C509 1.393 . S
C506 H498 0.950 . S
C506 C504 1.391 . S
C506 C507 1.400 . S
C507 C506 1.400 . S
C507 C508 1.398 . S
C507 C513 1.491 . S
C508 H499 0.950 . S
C508 C507 1.398 . S
C508 C509 1.391 . S
C509 H497 0.950 . S
C509 C505 1.393 . S
C509 C508 1.391 . S
C510 H500 0.950 . S
C510 C511 1.386 . S
C510 C512 1.391 . S
C511 C510 1.386 . S
C511 C515 1.393 . S
C512 H501 0.950 . S
C512 C510 1.391 . S
C512 C513 1.400 . S
C513 C507 1.491 . S
C513 C512 1.400 . S
C513 C514 1.398 . S
C514 H502 0.950 . S
C514 C513 1.398 . S
C514 C515 1.391 . S
C515 H503 0.950 . S
C515 C511 1.393 . S
C515 C514 1.391 . S
H516 C524 0.950 . S
H517 C529 0.950 . S
H518 C526 0.950 . S
H519 C528 0.950 . S
H520 C530 0.950 . S
H521 C532 0.950 . S
H522 C534 0.950 . S
H523 C535 0.950 . S
C524 H516 0.950 . S
C524 C525 1.386 . S
C524 C526 1.391 . S
C525 C524 1.386 . S
C525 C529 1.393 . S
C526 H518 0.950 . S
C526 C524 1.391 . S
C526 C527 1.400 . S
C527 C526 1.400 . S
C527 C528 1.398 . S
C527 C533 1.491 . S
C528 H519 0.950 . S
C528 C527 1.398 . S
C528 C529 1.391 . S
C529 H517 0.950 . S
C529 C525 1.393 . S
C529 C528 1.391 . S
C530 H520 0.950 . S
C530 C531 1.386 . S
C530 C532 1.391 . S
C531 C530 1.386 . S
C531 C535 1.393 . S
C532 H521 0.950 . S
C532 C530 1.391 . S
C532 C533 1.400 . S
C533 C527 1.491 . S
C533 C532 1.400 . S
C533 C534 1.398 . S
C534 H522 0.950 . S
C534 C533 1.398 . S
C534 C535 1.391 . S
C535 H523 0.950 . S
C535 C531 1.393 . S
C535 C534 1.391 . S
H536 C544 0.950 . S
H537 C549 0.950 . S
H538 C546 0.950 . S
H539 C548 0.950 . S
H540 C550 0.950 . S
H541 C552 0.950 . S
H542 C554 0.950 . S
H543 C555 0.950 . S
C544 H536 0.950 . S
C544 C545 1.386 . S
C544 C546 1.391 . S
C545 C544 1.386 . S
C545 C549 1.393 . S
C546 H538 0.950 . S
C546 C544 1.391 . S
C546 C547 1.400 . S
C547 C546 1.400 . S
C547 C548 1.398 . S
C547 C553 1.491 . S
C548 H539 0.950 . S
C548 C547 1.398 . S
C548 C549 1.391 . S
C549 H537 0.950 . S
C549 C545 1.393 . S
C549 C548 1.391 . S
C550 H540 0.950 . S
C550 C551 1.386 . S
C550 C552 1.391 . S
C551 C550 1.386 . S
C551 C555 1.393 . S
C552 H541 0.950 . S
C552 C550 1.391 . S
C552 C553 1.400 . S
C553 C547 1.491 . S
C553 C552 1.400 . S
C553 C554 1.398 . S
C554 H542 0.950 . S
C554 C553 1.398 . S
C554 C555 1.391 . S
C555 H543 0.950 . S
C555 C551 1.393 . S
C555 C554 1.391 . S
H556 C564 0.950 . S
H557 C569 0.950 . S
H558 C566 0.950 . S
H559 C568 0.950 . S
H560 C570 0.950 . S
H561 C572 0.950 . S
H562 C574 0.950 . S
H563 C575 0.950 . S
C564 H556 0.950 . S
C564 C565 1.386 . S
C564 C566 1.391 . S
C565 C564 1.386 . S
C565 C569 1.393 . S
C566 H558 0.950 . S
C566 C564 1.391 . S
C566 C567 1.400 . S
C567 C566 1.400 . S
C567 C568 1.398 . S
C567 C573 1.491 . S
C568 H559 0.950 . S
C568 C567 1.398 . S
C568 C569 1.391 . S
C569 H557 0.950 . S
C569 C565 1.393 . S
C569 C568 1.391 . S
C570 H560 0.950 . S
C570 C571 1.386 . S
C570 C572 1.391 . S
C571 C570 1.386 . S
C571 C575 1.393 . S
C572 H561 0.950 . S
C572 C570 1.391 . S
C572 C573 1.400 . S
C573 C567 1.491 . S
C573 C572 1.400 . S
C573 C574 1.398 . S
C574 H562 0.950 . S
C574 C573 1.398 . S
C574 C575 1.391 . S
C575 H563 0.950 . S
C575 C571 1.393 . S
C575 C574 1.391 . S
H576 C584 0.950 . S
H577 C589 0.950 . S
H578 C586 0.950 . S
H579 C588 0.950 . S
H580 C590 0.950 . S
H581 C592 0.950 . S
H582 C594 0.950 . S
H583 C595 0.950 . S
C584 H576 0.950 . S
C584 C585 1.386 . S
C584 C586 1.391 . S
C585 C584 1.386 . S
C585 C589 1.393 . S
C586 H578 0.950 . S
C586 C584 1.391 . S
C586 C587 1.400 . S
C587 C586 1.400 . S
C587 C588 1.398 . S
C587 C593 1.491 . S
C588 H579 0.950 . S
C588 C587 1.398 . S
C588 C589 1.391 . S
C589 H577 0.950 . S
C589 C585 1.393 . S
C589 C588 1.391 . S
C590 H580 0.950 . S
C590 C591 1.386 . S
C590 C592 1.391 . S
C591 C590 1.386 . S
C591 C595 1.393 . S
C592 H581 0.950 . S
C592 C590 1.391 . S
C592 C593 1.400 . S
C593 C587 1.491 . S
C593 C592 1.400 . S
C593 C594 1.398 . S
C594 H582 0.950 . S
C594 C593 1.398 . S
C594 C595 1.391 . S
C595 H583 0.950 . S
C595 C591 1.393 . S
C595 C594 1.391 . S
H596 C604 0.950 . S
H597 C609 0.950 . S
H598 C606 0.950 . S
H599 C608 0.950 . S
H600 C610 0.950 . S
H601 C612 0.950 . S
H602 C614 0.950 . S
H603 C615 0.950 . S
C604 H596 0.950 . S
C604 C605 1.386 . S
C604 C606 1.391 . S
C605 C604 1.386 . S
C605 C609 1.393 . S
C606 H598 0.950 . S
C606 C604 1.391 . S
C606 C607 1.400 . S
C607 C606 1.400 . S
C607 C608 1.398 . S
C607 C613 1.491 . S
C608 H599 0.950 . S
C608 C607 1.398 . S
C608 C609 1.391 . S
C609 H597 0.950 . S
C609 C605 1.393 . S
C609 C608 1.391 . S
C610 H600 0.950 . S
C610 C611 1.386 . S
C610 C612 1.391 . S
C611 C610 1.386 . S
C611 C615 1.393 . S
C612 H601 0.950 . S
C612 C610 1.391 . S
C612 C613 1.400 . S
C613 C607 1.491 . S
C613 C612 1.400 . S
C613 C614 1.398 . S
C614 H602 0.950 . S
C614 C613 1.398 . S
C614 C615 1.391 . S
C615 H603 0.950 . S
C615 C611 1.393 . S
C615 C614 1.391 . S
H616 C624 0.950 . S
H617 C629 0.950 . S
H618 C626 0.950 . S
H619 C628 0.950 . S
H620 C630 0.950 . S
H621 C632 0.950 . S
H622 C634 0.950 . S
H623 C635 0.950 . S
C624 H616 0.950 . S
C624 C625 1.386 . S
C624 C626 1.391 . S
C625 C624 1.386 . S
C625 C629 1.393 . S
C626 H618 0.950 . S
C626 C624 1.391 . S
C626 C627 1.400 . S
C627 C626 1.400 . S
C627 C628 1.398 . S
C627 C633 1.491 . S
C628 H619 0.950 . S
C628 C627 1.398 . S
C628 C629 1.391 . S
C629 H617 0.950 . S
C629 C625 1.393 . S
C629 C628 1.391 . S
C630 H620 0.950 . S
C630 C631 1.386 . S
C630 C632 1.391 . S
C631 C630 1.386 . S
C631 C635 1.393 . S
C632 H621 0.950 . S
C632 C630 1.391 . S
C632 C633 1.400 . S
C633 C627 1.491 . S
C633 C632 1.400 . S
C633 C634 1.398 . S
C634 H622 0.950 . S
C634 C633 1.398 . S
C634 C635 1.391 . S
C635 H623 0.950 . S
C635 C631 1.393 . S
C635 C634 1.391 . S
H636 C644 0.950 . S
H637 C649 0.950 . S
H638 C646 0.950 . S
H639 C648 0.950 . S
H640 C650 0.950 . S
H641 C652 0.950 . S
H642 C654 0.950 . S
H643 C655 0.950 . S
C644 H636 0.950 . S
C644 C645 1.386 . S
C644 C646 1.391 . S
C645 C644 1.386 . S
C645 C649 1.393 . S
C646 H638 0.950 . S
C646 C644 1.391 . S
C646 C647 1.400 . S
C647 C646 1.400 . S
C647 C648 1.398 . S
C647 C653 1.491 . S
C648 H639 0.950 . S
C648 C647 1.398 . S
C648 C649 1.391 . S
C649 H637 0.950 . S
C649 C645 1.393 . S
C649 C648 1.391 . S
C650 H640 0.950 . S
C650 C651 1.386 . S
C650 C652 1.391 . S
C651 C650 1.386 . S
C651 C655 1.393 . S
C652 H641 0.950 . S
C652 C650 1.391 . S
C652 C653 1.400 . S
C653 C647 1.491 . S
C653 C652 1.400 . S
C653 C654 1.398 . S
C654 H642 0.950 . S
C654 C653 1.398 . S
C654 C655 1.391 . S
C655 H643 0.950 . S
C655 C651 1.393 . S
C655 C654 1.391 . S
H656 C664 0.950 . S
H657 C669 0.950 . S
H658 C666 0.950 . S
H659 C668 0.950 . S
H660 C670 0.950 . S
H661 C672 0.950 . S
H662 C674 0.950 . S
H663 C675 0.950 . S
C664 H656 0.950 . S
C664 C665 1.386 . S
C664 C666 1.391 . S
C665 C664 1.386 . S
C665 C669 1.393 . S
C666 H658 0.950 . S
C666 C664 1.391 . S
C666 C667 1.400 . S
C667 C666 1.400 . S
C667 C668 1.398 . S
C667 C673 1.491 . S
C668 H659 0.950 . S
C668 C667 1.398 . S
C668 C669 1.391 . S
C669 H657 0.950 . S
C669 C665 1.393 . S
C669 C668 1.391 . S
C670 H660 0.950 . S
C670 C671 1.386 . S
C670 C672 1.391 . S
C671 C670 1.386 . S
C671 C675 1.393 . S
C672 H661 0.950 . S
C672 C670 1.391 . S
C672 C673 1.400 . S
C673 C667 1.491 . S
C673 C672 1.400 . S
C673 C674 1.398 . S
C674 H662 0.950 . S
C674 C673 1.398 . S
C674 C675 1.391 . S
C675 H663 0.950 . S
C675 C671 1.393 . S
C675 C674 1.391 . S
H676 C684 0.950 . S
H677 C689 0.950 . S
H678 C686 0.950 . S
H679 C688 0.950 . S
H680 C690 0.950 . S
H681 C692 0.950 . S
H682 C694 0.950 1_455 S
H683 C695 0.966 . S
C684 H676 0.950 . S
C684 C685 1.386 . S
C684 C686 1.391 . S
C685 C684 1.386 . S
C685 C689 1.393 . S
C686 H678 0.950 . S
C686 C684 1.391 . S
C686 C687 1.400 . S
C687 C686 1.400 . S
C687 C688 1.398 . S
C687 C693 1.491 . S
C688 H679 0.950 . S
C688 C687 1.398 . S
C688 C689 1.391 . S
C689 H677 0.950 . S
C689 C685 1.393 . S
C689 C688 1.391 . S
C690 H680 0.950 . S
C690 C691 1.386 . S
C690 C692 1.391 . S
C691 C690 1.386 . S
C691 C695 1.378 1_655 S
C692 H681 0.950 . S
C692 C690 1.391 . S
C692 C693 1.400 . S
C693 C687 1.491 . S
C693 C692 1.400 . S
C693 C694 1.398 . S
C694 H682 0.950 1_655 S
C694 C693 1.398 . S
C694 C695 1.389 1_655 S
C695 H683 0.966 . S
C695 C691 1.378 1_455 S
C695 C694 1.389 1_455 S
H696 C704 0.950 . S
H697 C709 0.950 . S
H698 C706 0.950 . S
H699 C708 0.950 . S
H700 C710 0.950 . S
H701 C712 0.950 . S
H702 C714 0.950 . S
H703 C715 0.950 1_545 S
C704 H696 0.950 . S
C704 C705 1.386 . S
C704 C706 1.391 . S
C705 C704 1.386 . S
C705 C709 1.393 . S
C706 H698 0.950 . S
C706 C704 1.391 . S
C706 C707 1.400 . S
C707 C706 1.400 . S
C707 C708 1.398 . S
C707 C713 1.491 . S
C708 H699 0.950 . S
C708 C707 1.398 . S
C708 C709 1.391 . S
C709 H697 0.950 . S
C709 C705 1.393 . S
C709 C708 1.391 . S
C710 H700 0.950 . S
C710 C711 1.386 1_565 S
C710 C712 1.391 . S
C711 C710 1.386 1_545 S
C711 C715 1.393 1_545 S
C712 H701 0.950 . S
C712 C710 1.391 . S
C712 C713 1.400 . S
C713 C707 1.491 . S
C713 C712 1.400 . S
C713 C714 1.398 . S
C714 H702 0.950 . S
C714 C713 1.398 . S
C714 C715 1.391 . S
C715 H703 0.950 1_565 S
C715 C711 1.393 1_565 S
C715 C714 1.391 . S
H716 C724 0.950 . S
H717 C729 0.950 . S
H718 C726 0.950 . S
H719 C728 0.950 . S
H720 C730 0.950 . S
H721 C732 0.950 . S
H722 C734 0.950 . S
H723 C735 0.950 . S
C724 H716 0.950 . S
C724 C725 1.386 . S
C724 C726 1.391 . S
C725 C724 1.386 . S
C725 C729 1.393 . S
C726 H718 0.950 . S
C726 C724 1.391 . S
C726 C727 1.400 . S
C727 C726 1.400 . S
C727 C728 1.398 . S
C727 C733 1.491 . S
C728 H719 0.950 . S
C728 C727 1.398 . S
C728 C729 1.391 . S
C729 H717 0.950 . S
C729 C725 1.393 . S
C729 C728 1.391 . S
C730 H720 0.950 . S
C730 C731 1.386 . S
C730 C732 1.391 . S
C731 C730 1.386 . S
C731 C735 1.393 . S
C732 H721 0.950 . S
C732 C730 1.391 . S
C732 C733 1.400 . S
C733 C727 1.491 . S
C733 C732 1.400 . S
C733 C734 1.398 . S
C734 H722 0.950 . S
C734 C733 1.398 . S
C734 C735 1.391 . S
C735 H723 0.950 . S
C735 C731 1.393 . S
C735 C734 1.391 . S
H736 C744 0.950 . S
H737 C749 0.950 . S
H738 C746 0.950 . S
H739 C748 0.950 . S
H740 C750 0.950 . S
H741 C752 0.950 . S
H742 C754 0.962 . S
H743 C755 0.970 . S
C744 H736 0.950 . S
C744 C745 1.386 . S
C744 C746 1.391 . S
C745 C744 1.386 . S
C745 C749 1.393 . S
C746 H738 0.950 . S
C746 C744 1.391 . S
C746 C747 1.400 . S
C747 C746 1.400 . S
C747 C748 1.398 . S
C747 C753 1.491 . S
C748 H739 0.950 . S
C748 C747 1.398 . S
C748 C749 1.391 . S
C749 H737 0.950 . S
C749 C745 1.393 . S
C749 C748 1.391 . S
C750 H740 0.950 . S
C750 C751 1.386 1_545 S
C750 C752 1.391 . S
C751 C750 1.386 1_565 S
C751 C755 1.383 1_556 S
C752 H741 0.950 . S
C752 C750 1.391 . S
C752 C753 1.400 . S
C753 C747 1.491 . S
C753 C752 1.400 . S
C753 C754 1.398 . S
C754 H742 0.962 . S
C754 C753 1.398 . S
C754 C755 1.382 1_546 S
C755 H743 0.970 . S
C755 C751 1.383 1_554 S
C755 C754 1.382 1_564 S
H756 C764 0.950 . S
H757 C769 0.950 . S
H758 C766 0.950 . S
H759 C768 0.950 . S
H760 C770 0.950 . S
H761 C772 0.950 . S
H762 C774 0.950 . S
H763 C775 0.950 . S
C764 H756 0.950 . S
C764 C765 1.386 . S
C764 C766 1.391 . S
C765 C764 1.386 . S
C765 C769 1.393 . S
C766 H758 0.950 . S
C766 C764 1.391 . S
C766 C767 1.400 . S
C767 C766 1.400 . S
C767 C768 1.398 . S
C767 C773 1.491 . S
C768 H759 0.950 . S
C768 C767 1.398 . S
C768 C769 1.391 . S
C769 H757 0.950 . S
C769 C765 1.393 . S
C769 C768 1.391 . S
C770 H760 0.950 . S
C770 C771 1.386 . S
C770 C772 1.391 . S
C771 C770 1.386 . S
C771 C775 1.393 . S
C772 H761 0.950 . S
C772 C770 1.391 . S
C772 C773 1.400 . S
C773 C767 1.491 . S
C773 C772 1.400 . S
C773 C774 1.398 . S
C774 H762 0.950 . S
C774 C773 1.398 . S
C774 C775 1.391 . S
C775 H763 0.950 . S
C775 C771 1.393 . S
C775 C774 1.391 . S
H776 C784 0.950 . S
H777 C789 0.950 . S
H778 C786 0.950 . S
H779 C788 0.950 . S
H780 C790 0.950 . S
H781 C792 0.950 . S
H782 C794 0.950 . S
H783 C795 0.950 . S
C784 H776 0.950 . S
C784 C785 1.386 . S
C784 C786 1.391 1_565 S
C785 C784 1.386 . S
C785 C789 1.393 1_565 S
C786 H778 0.950 . S
C786 C784 1.391 1_545 S
C786 C787 1.400 . S
C787 C786 1.400 . S
C787 C788 1.398 . S
C787 C793 1.491 . S
C788 H779 0.950 . S
C788 C787 1.398 . S
C788 C789 1.391 . S
C789 H777 0.950 . S
C789 C785 1.393 1_545 S
C789 C788 1.391 . S
C790 H780 0.950 . S
C790 C791 1.386 . S
C790 C792 1.391 . S
C791 C790 1.386 . S
C791 C795 1.393 . S
C792 H781 0.950 . S
C792 C790 1.391 . S
C792 C793 1.400 . S
C793 C787 1.491 . S
C793 C792 1.400 . S
C793 C794 1.398 . S
C794 H782 0.950 . S
C794 C793 1.398 . S
C794 C795 1.391 . S
C795 H783 0.950 . S
C795 C791 1.393 . S
C795 C794 1.391 . S
H796 C804 0.950 . S
H797 C809 0.950 . S
H798 C806 0.950 . S
H799 C808 0.950 . S
H800 C810 0.950 . S
H801 C812 0.950 . S
H802 C814 0.950 . S
H803 C815 0.950 . S
C804 H796 0.950 . S
C804 C805 1.386 . S
C804 C806 1.391 . S
C805 C804 1.386 . S
C805 C809 1.393 . S
C806 H798 0.950 . S
C806 C804 1.391 . S
C806 C807 1.400 . S
C807 C806 1.400 . S
C807 C808 1.398 . S
C807 C813 1.491 . S
C808 H799 0.950 . S
C808 C807 1.398 . S
C808 C809 1.391 . S
C809 H797 0.950 . S
C809 C805 1.393 . S
C809 C808 1.391 . S
C810 H800 0.950 . S
C810 C811 1.386 . S
C810 C812 1.391 . S
C811 C810 1.386 . S
C811 C815 1.393 . S
C812 H801 0.950 . S
C812 C810 1.391 . S
C812 C813 1.400 . S
C813 C807 1.491 . S
C813 C812 1.400 . S
C813 C814 1.398 . S
C814 H802 0.950 . S
C814 C813 1.398 . S
C814 C815 1.391 . S
C815 H803 0.950 . S
C815 C811 1.393 . S
C815 C814 1.391 . S
H816 C824 0.950 . S
H817 C829 0.950 . S
H818 C826 0.950 . S
H819 C828 0.950 . S
H820 C830 0.950 . S
H821 C832 0.950 . S
H822 C834 0.950 . S
H823 C835 0.950 . S
C824 H816 0.950 . S
C824 C825 1.386 . S
C824 C826 1.391 . S
C825 C824 1.386 . S
C825 C829 1.393 . S
C826 H818 0.950 . S
C826 C824 1.391 . S
C826 C827 1.400 1_565 S
C827 C826 1.400 1_545 S
C827 C828 1.398 . S
C827 C833 1.491 . S
C828 H819 0.950 . S
C828 C827 1.398 . S
C828 C829 1.391 1_545 S
C829 H817 0.950 . S
C829 C825 1.393 . S
C829 C828 1.391 1_565 S
C830 H820 0.950 . S
C830 C831 1.386 . S
C830 C832 1.391 . S
C831 C830 1.386 . S
C831 C835 1.393 . S
C832 H821 0.950 . S
C832 C830 1.391 . S
C832 C833 1.400 . S
C833 C827 1.491 . S
C833 C832 1.400 . S
C833 C834 1.398 . S
C834 H822 0.950 . S
C834 C833 1.398 . S
C834 C835 1.391 . S
C835 H823 0.950 . S
C835 C831 1.393 . S
C835 C834 1.391 . S
H836 C844 0.950 . S
H837 C849 0.950 . S
H838 C846 0.950 . S
H839 C848 0.950 . S
H840 C850 0.950 . S
H841 C852 0.950 . S
H842 C854 0.950 . S
H843 C855 0.950 . S
C844 H836 0.950 . S
C844 C845 1.386 . S
C844 C846 1.391 . S
C845 C844 1.386 . S
C845 C849 1.393 . S
C846 H838 0.950 . S
C846 C844 1.391 . S
C846 C847 1.400 . S
C847 C846 1.400 . S
C847 C848 1.398 . S
C847 C853 1.491 . S
C848 H839 0.950 . S
C848 C847 1.398 . S
C848 C849 1.391 . S
C849 H837 0.950 . S
C849 C845 1.393 . S
C849 C848 1.391 . S
C850 H840 0.950 . S
C850 C851 1.386 . S
C850 C852 1.391 . S
C851 C850 1.386 . S
C851 C855 1.393 . S
C852 H841 0.950 . S
C852 C850 1.391 . S
C852 C853 1.400 . S
C853 C847 1.491 . S
C853 C852 1.400 . S
C853 C854 1.398 . S
C854 H842 0.950 . S
C854 C853 1.398 . S
C854 C855 1.391 . S
C855 H843 0.950 . S
C855 C851 1.393 . S
C855 C854 1.391 . S
H856 C864 0.950 . S
H857 C869 0.950 . S
H858 C866 0.950 . S
H859 C868 0.950 . S
H860 C870 0.950 . S
H861 C872 0.950 . S
H862 C874 0.950 . S
H863 C875 0.950 . S
C864 H856 0.950 . S
C864 C865 1.386 . S
C864 C866 1.391 . S
C865 C864 1.386 . S
C865 C869 1.393 . S
C866 H858 0.950 . S
C866 C864 1.391 . S
C866 C867 1.400 . S
C867 C866 1.400 . S
C867 C868 1.398 . S
C867 C873 1.491 . S
C868 H859 0.950 . S
C868 C867 1.398 . S
C868 C869 1.391 . S
C869 H857 0.950 . S
C869 C865 1.393 . S
C869 C868 1.391 . S
C870 H860 0.950 . S
C870 C871 1.386 . S
C870 C872 1.391 . S
C871 C870 1.386 . S
C871 C875 1.393 . S
C872 H861 0.950 . S
C872 C870 1.391 . S
C872 C873 1.400 . S
C873 C867 1.491 . S
C873 C872 1.400 . S
C873 C874 1.398 . S
C874 H862 0.950 . S
C874 C873 1.398 . S
C874 C875 1.391 . S
C875 H863 0.950 . S
C875 C871 1.393 . S
C875 C874 1.391 . S
H876 C884 0.950 . S
H877 C889 0.950 . S
H878 C886 0.950 . S
H879 C888 0.950 . S
H880 C890 0.950 . S
H881 C892 0.950 . S
H882 C894 0.950 . S
H883 C895 0.950 . S
C884 H876 0.950 . S
C884 C885 1.386 . S
C884 C886 1.391 . S
C885 C884 1.386 . S
C885 C889 1.393 . S
C886 H878 0.950 . S
C886 C884 1.391 . S
C886 C887 1.400 . S
C887 C886 1.400 . S
C887 C888 1.398 . S
C887 C893 1.491 . S
C888 H879 0.950 . S
C888 C887 1.398 . S
C888 C889 1.391 . S
C889 H877 0.950 . S
C889 C885 1.393 . S
C889 C888 1.391 . S
C890 H880 0.950 . S
C890 C891 1.386 . S
C890 C892 1.391 . S
C891 C890 1.386 . S
C891 C895 1.393 . S
C892 H881 0.950 . S
C892 C890 1.391 . S
C892 C893 1.400 . S
C893 C887 1.491 . S
C893 C892 1.400 . S
C893 C894 1.398 . S
C894 H882 0.950 . S
C894 C893 1.398 . S
C894 C895 1.391 . S
C895 H883 0.950 . S
C895 C891 1.393 . S
C895 C894 1.391 . S
H896 C904 0.950 . S
H897 C909 0.950 . S
H898 C906 0.950 . S
H899 C908 0.950 . S
H900 C910 0.950 . S
H901 C912 0.950 . S
H902 C914 0.950 . S
H903 C915 0.950 . S
C904 H896 0.950 . S
C904 C905 1.386 . S
C904 C906 1.391 . S
C905 C904 1.386 . S
C905 C909 1.393 . S
C906 H898 0.950 . S
C906 C904 1.391 . S
C906 C907 1.400 . S
C907 C906 1.400 . S
C907 C908 1.398 . S
C907 C913 1.491 . S
C908 H899 0.950 . S
C908 C907 1.398 . S
C908 C909 1.391 . S
C909 H897 0.950 . S
C909 C905 1.393 . S
C909 C908 1.391 . S
C910 H900 0.950 . S
C910 C911 1.386 . S
C910 C912 1.391 . S
C911 C910 1.386 . S
C911 C915 1.393 . S
C912 H901 0.950 . S
C912 C910 1.391 . S
C912 C913 1.400 . S
C913 C907 1.491 . S
C913 C912 1.400 . S
C913 C914 1.398 . S
C914 H902 0.950 . S
C914 C913 1.398 . S
C914 C915 1.391 . S
C915 H903 0.950 . S
C915 C911 1.393 . S
C915 C914 1.391 . S
H916 C924 0.950 . S
H917 C929 0.950 . S
H918 C926 0.950 . S
H919 C928 0.950 . S
H920 C930 0.950 . S
H921 C932 0.950 . S
H922 C934 0.950 . S
H923 C935 0.950 . S
C924 H916 0.950 . S
C924 C925 1.386 . S
C924 C926 1.391 . S
C925 C924 1.386 . S
C925 C929 1.393 . S
C926 H918 0.950 . S
C926 C924 1.391 . S
C926 C927 1.400 . S
C927 C926 1.400 . S
C927 C928 1.398 . S
C927 C933 1.491 . S
C928 H919 0.950 . S
C928 C927 1.398 . S
C928 C929 1.391 . S
C929 H917 0.950 . S
C929 C925 1.393 . S
C929 C928 1.391 . S
C930 H920 0.950 . S
C930 C931 1.386 . S
C930 C932 1.391 . S
C931 C930 1.386 . S
C931 C935 1.393 . S
C932 H921 0.950 . S
C932 C930 1.391 . S
C932 C933 1.400 . S
C933 C927 1.491 . S
C933 C932 1.400 . S
C933 C934 1.398 . S
C934 H922 0.950 . S
C934 C933 1.398 . S
C934 C935 1.391 . S
C935 H923 0.950 . S
C935 C931 1.393 . S
C935 C934 1.391 . S
H936 C944 0.950 . S
H937 C949 0.950 . S
H938 C946 0.950 . S
H939 C948 0.950 . S
H940 C950 0.950 . S
H941 C952 0.950 . S
H942 C954 0.950 . S
H943 C955 0.950 . S
C944 H936 0.950 . S
C944 C945 1.386 . S
C944 C946 1.391 . S
C945 C944 1.386 . S
C945 C949 1.393 . S
C946 H938 0.950 . S
C946 C944 1.391 . S
C946 C947 1.400 . S
C947 C946 1.400 . S
C947 C948 1.398 . S
C947 C953 1.491 . S
C948 H939 0.950 . S
C948 C947 1.398 . S
C948 C949 1.391 . S
C949 H937 0.950 . S
C949 C945 1.393 . S
C949 C948 1.391 . S
C950 H940 0.950 . S
C950 C951 1.386 . S
C950 C952 1.391 . S
C951 C950 1.386 . S
C951 C955 1.393 . S
C952 H941 0.950 . S
C952 C950 1.391 . S
C952 C953 1.400 . S
C953 C947 1.491 . S
C953 C952 1.400 . S
C953 C954 1.398 . S
C954 H942 0.950 . S
C954 C953 1.398 . S
C954 C955 1.391 . S
C955 H943 0.950 . S
C955 C951 1.393 . S
C955 C954 1.391 . S
H956 C964 0.950 . S
H957 C969 0.950 . S
H958 C966 0.950 . S
H959 C968 0.950 . S
H960 C970 0.950 . S
H961 C972 0.950 . S
H962 C974 0.950 . S
H963 C975 0.950 . S
C964 H956 0.950 . S
C964 C965 1.386 . S
C964 C966 1.391 . S
C965 C964 1.386 . S
C965 C969 1.393 . S
C966 H958 0.950 . S
C966 C964 1.391 . S
C966 C967 1.400 . S
C967 C966 1.400 . S
C967 C968 1.398 . S
C967 C973 1.491 . S
C968 H959 0.950 . S
C968 C967 1.398 . S
C968 C969 1.391 . S
C969 H957 0.950 . S
C969 C965 1.393 . S
C969 C968 1.391 . S
C970 H960 0.950 . S
C970 C971 1.386 . S
C970 C972 1.391 . S
C971 C970 1.386 . S
C971 C975 1.393 . S
C972 H961 0.950 . S
C972 C970 1.391 . S
C972 C973 1.400 1_655 S
C973 C967 1.491 . S
C973 C972 1.400 1_455 S
C973 C974 1.398 . S
C974 H962 0.950 . S
C974 C973 1.398 . S
C974 C975 1.391 1_455 S
C975 H963 0.950 . S
C975 C971 1.393 . S
C975 C974 1.391 1_655 S
H976 C984 0.950 . S
H977 C989 0.950 . S
H978 C986 0.950 . S
H979 C988 0.950 . S
H980 C990 0.950 . S
H981 C992 0.950 . S
H982 C994 0.950 . S
H983 C995 0.950 . S
C984 H976 0.950 . S
C984 C985 1.386 . S
C984 C986 1.391 . S
C985 C984 1.386 . S
C985 C989 1.393 . S
C986 H978 0.950 . S
C986 C984 1.391 . S
C986 C987 1.400 . S
C987 C986 1.400 . S
C987 C988 1.398 . S
C987 C993 1.491 . S
C988 H979 0.950 . S
C988 C987 1.398 . S
C988 C989 1.391 . S
C989 H977 0.950 . S
C989 C985 1.393 . S
C989 C988 1.391 . S
C990 H980 0.950 . S
C990 C991 1.386 . S
C990 C992 1.391 . S
C991 C990 1.386 . S
C991 C995 1.393 . S
C992 H981 0.950 . S
C992 C990 1.391 . S
C992 C993 1.400 . S
C993 C987 1.491 . S
C993 C992 1.400 . S
C993 C994 1.398 . S
C994 H982 0.950 . S
C994 C993 1.398 . S
C994 C995 1.391 . S
C995 H983 0.950 . S
C995 C991 1.393 . S
C995 C994 1.391 . S
H996 C1004 0.950 . S
H997 C1009 0.950 . S
H998 C1006 0.950 . S
H999 C1008 0.950 . S
H1000 C1010 0.950 . S
H1001 C1012 0.950 1_655 S
H1002 C1014 0.950 . S
H1003 C1015 0.950 . S
C1004 H996 0.950 . S
C1004 C1005 1.386 . S
C1004 C1006 1.391 . S
C1005 C1004 1.386 . S
C1005 C1009 1.393 . S
C1006 H998 0.950 . S
C1006 C1004 1.391 . S
C1006 C1007 1.400 . S
C1007 C1006 1.400 . S
C1007 C1008 1.398 . S
C1007 C1013 1.491 1_655 S
C1008 H999 0.950 . S
C1008 C1007 1.398 . S
C1008 C1009 1.391 . S
C1009 H997 0.950 . S
C1009 C1005 1.393 . S
C1009 C1008 1.391 . S
C1010 H1000 0.950 . S
C1010 C1011 1.386 . S
C1010 C1012 1.391 . S
C1011 C1010 1.386 . S
C1011 C1015 1.393 . S
C1012 H1001 0.950 1_455 S
C1012 C1010 1.391 . S
C1012 C1013 1.400 . S
C1013 C1007 1.491 1_455 S
C1013 C1012 1.400 . S
C1013 C1014 1.398 . S
C1014 H1002 0.950 . S
C1014 C1013 1.398 . S
C1014 C1015 1.391 . S
C1015 H1003 0.950 . S
C1015 C1011 1.393 . S
C1015 C1014 1.391 . S
H1016 C1024 0.950 . S
H1017 C1029 0.950 . S
H1018 C1026 0.950 . S
H1019 C1028 0.950 . S
H1020 C1030 0.950 . S
H1021 C1032 0.950 . S
H1022 C1034 0.950 . S
H1023 C1035 0.950 . S
C1024 H1016 0.950 . S
C1024 C1025 1.386 . S
C1024 C1026 1.391 . S
C1025 C1024 1.386 . S
C1025 C1029 1.393 . S
C1026 H1018 0.950 . S
C1026 C1024 1.391 . S
C1026 C1027 1.400 . S
C1027 C1026 1.400 . S
C1027 C1028 1.398 . S
C1027 C1033 1.491 . S
C1028 H1019 0.950 . S
C1028 C1027 1.398 . S
C1028 C1029 1.391 . S
C1029 H1017 0.950 . S
C1029 C1025 1.393 . S
C1029 C1028 1.391 . S
C1030 H1020 0.950 . S
C1030 C1031 1.386 . S
C1030 C1032 1.391 . S
C1031 C1030 1.386 . S
C1031 C1035 1.393 . S
C1032 H1021 0.950 . S
C1032 C1030 1.391 . S
C1032 C1033 1.400 . S
C1033 C1027 1.491 . S
C1033 C1032 1.400 . S
C1033 C1034 1.398 . S
C1034 H1022 0.950 . S
C1034 C1033 1.398 . S
C1034 C1035 1.391 . S
C1035 H1023 0.950 . S
C1035 C1031 1.393 . S
C1035 C1034 1.391 . S
H1036 C1044 0.950 . S
H1037 C1049 0.950 . S
H1038 C1046 0.950 . S
H1039 C1048 0.950 . S
H1040 C1050 0.950 . S
H1041 C1052 0.950 . S
H1042 C1054 0.950 . S
H1043 C1055 0.950 1_455 S
C1044 H1036 0.950 . S
C1044 C1045 1.386 . S
C1044 C1046 1.391 . S
C1045 C1044 1.386 . S
C1045 C1049 1.393 . S
C1046 H1038 0.950 . S
C1046 C1044 1.391 . S
C1046 C1047 1.400 1_554 S
C1047 C1046 1.400 1_556 S
C1047 C1048 1.398 . S
C1047 C1053 1.491 . S
C1048 H1039 0.950 . S
C1048 C1047 1.398 . S
C1048 C1049 1.391 1_556 S
C1049 H1037 0.950 . S
C1049 C1045 1.393 . S
C1049 C1048 1.391 1_554 S
C1050 H1040 0.950 . S
C1050 C1051 1.386 . S
C1050 C1052 1.391 . S
C1051 C1050 1.386 . S
C1051 C1055 1.393 . S
C1052 H1041 0.950 . S
C1052 C1050 1.391 . S
C1052 C1053 1.400 . S
C1053 C1047 1.491 . S
C1053 C1052 1.400 . S
C1053 C1054 1.398 . S
C1054 H1042 0.950 . S
C1054 C1053 1.398 . S
C1054 C1055 1.391 . S
C1055 H1043 0.950 1_655 S
C1055 C1051 1.393 . S
C1055 C1054 1.391 . S
H1056 C1064 0.950 . S
H1057 C1069 0.950 . S
H1058 C1066 0.950 . S
H1059 C1068 0.950 . S
H1060 C1070 0.950 . S
H1061 C1072 0.950 . S
H1062 C1074 0.950 . S
H1063 C1075 0.950 . S
C1064 H1056 0.950 . S
C1064 C1065 1.386 . S
C1064 C1066 1.391 . S
C1065 C1064 1.386 . S
C1065 C1069 1.393 . S
C1066 H1058 0.950 . S
C1066 C1064 1.391 . S
C1066 C1067 1.400 . S
C1067 C1066 1.400 . S
C1067 C1068 1.398 . S
C1067 C1073 1.491 . S
C1068 H1059 0.950 . S
C1068 C1067 1.398 . S
C1068 C1069 1.391 . S
C1069 H1057 0.950 . S
C1069 C1065 1.393 . S
C1069 C1068 1.391 . S
C1070 H1060 0.950 . S
C1070 C1071 1.386 . S
C1070 C1072 1.391 . S
C1071 C1070 1.386 . S
C1071 C1075 1.393 . S
C1072 H1061 0.950 . S
C1072 C1070 1.391 . S
C1072 C1073 1.400 . S
C1073 C1067 1.491 . S
C1073 C1072 1.400 . S
C1073 C1074 1.398 . S
C1074 H1062 0.950 . S
C1074 C1073 1.398 . S
C1074 C1075 1.391 . S
C1075 H1063 0.950 . S
C1075 C1071 1.393 . S
C1075 C1074 1.391 . S
H1076 C1084 0.950 . S
H1077 C1089 0.950 . S
H1078 C1086 0.950 . S
H1079 C1088 0.950 . S
H1080 C1090 0.950 . S
H1081 C1092 0.950 . S
H1082 C1094 0.950 . S
H1083 C1095 0.950 . S
C1084 H1076 0.950 . S
C1084 C1085 1.386 . S
C1084 C1086 1.391 . S
C1085 C1084 1.386 . S
C1085 C1089 1.393 . S
C1086 H1078 0.950 . S
C1086 C1084 1.391 . S
C1086 C1087 1.400 . S
C1087 C1086 1.400 . S
C1087 C1088 1.398 . S
C1087 C1093 1.491 . S
C1088 H1079 0.950 . S
C1088 C1087 1.398 . S
C1088 C1089 1.391 . S
C1089 H1077 0.950 . S
C1089 C1085 1.393 . S
C1089 C1088 1.391 . S
C1090 H1080 0.950 . S
C1090 C1091 1.386 . S
C1090 C1092 1.391 . S
C1091 C1090 1.386 . S
C1091 C1095 1.393 . S
C1092 H1081 0.950 . S
C1092 C1090 1.391 . S
C1092 C1093 1.400 1_556 S
C1093 C1087 1.491 . S
C1093 C1092 1.400 1_554 S
C1093 C1094 1.398 . S
C1094 H1082 0.950 . S
C1094 C1093 1.398 . S
C1094 C1095 1.391 1_554 S
C1095 H1083 0.950 . S
C1095 C1091 1.393 . S
C1095 C1094 1.391 1_556 S
H1096 C1104 0.950 . S
H1097 C1109 0.950 . S
H1098 C1106 0.950 . S
H1099 C1108 0.950 . S
H1100 C1110 0.950 . S
H1101 C1112 0.950 . S
H1102 C1114 0.950 . S
H1103 C1115 0.950 . S
C1104 H1096 0.950 . S
C1104 C1105 1.386 . S
C1104 C1106 1.391 . S
C1105 C1104 1.386 . S
C1105 C1109 1.393 . S
C1106 H1098 0.950 . S
C1106 C1104 1.391 . S
C1106 C1107 1.400 . S
C1107 C1106 1.400 . S
C1107 C1108 1.398 . S
C1107 C1113 1.491 . S
C1108 H1099 0.950 . S
C1108 C1107 1.398 . S
C1108 C1109 1.391 . S
C1109 H1097 0.950 . S
C1109 C1105 1.393 . S
C1109 C1108 1.391 . S
C1110 H1100 0.950 . S
C1110 C1111 1.386 . S
C1110 C1112 1.391 . S
C1111 C1110 1.386 . S
C1111 C1115 1.393 . S
C1112 H1101 0.950 . S
C1112 C1110 1.391 . S
C1112 C1113 1.400 . S
C1113 C1107 1.491 . S
C1113 C1112 1.400 . S
C1113 C1114 1.398 . S
C1114 H1102 0.950 . S
C1114 C1113 1.398 . S
C1114 C1115 1.391 . S
C1115 H1103 0.950 . S
C1115 C1111 1.393 . S
C1115 C1114 1.391 . S
H1116 C1124 0.950 . S
H1117 C1129 0.950 . S
H1118 C1126 0.950 . S
H1119 C1128 0.950 . S
H1120 C1130 0.950 . S
H1121 C1132 0.950 . S
H1122 C1134 0.950 . S
H1123 C1135 0.950 . S
C1124 H1116 0.950 . S
C1124 C1125 1.386 . S
C1124 C1126 1.391 . S
C1125 C1124 1.386 . S
C1125 C1129 1.393 . S
C1126 H1118 0.950 . S
C1126 C1124 1.391 . S
C1126 C1127 1.400 . S
C1127 C1126 1.400 . S
C1127 C1128 1.398 . S
C1127 C1133 1.491 1_556 S
C1128 H1119 0.950 . S
C1128 C1127 1.398 . S
C1128 C1129 1.391 . S
C1129 H1117 0.950 . S
C1129 C1125 1.393 . S
C1129 C1128 1.391 . S
C1130 H1120 0.950 . S
C1130 C1131 1.386 . S
C1130 C1132 1.391 . S
C1131 C1130 1.386 . S
C1131 C1135 1.393 . S
C1132 H1121 0.950 . S
C1132 C1130 1.391 . S
C1132 C1133 1.400 . S
C1133 C1127 1.491 1_554 S
C1133 C1132 1.400 . S
C1133 C1134 1.398 . S
C1134 H1122 0.950 . S
C1134 C1133 1.398 . S
C1134 C1135 1.391 . S
C1135 H1123 0.950 . S
C1135 C1131 1.393 . S
C1135 C1134 1.391 . S
H1136 C1144 0.950 . S
H1137 C1149 0.950 . S
H1138 C1146 0.950 . S
H1139 C1148 0.950 . S
H1140 C1150 0.950 . S
H1141 C1152 0.950 . S
H1142 C1154 0.950 . S
H1143 C1155 0.950 . S
C1144 H1136 0.950 . S
C1144 C1145 1.386 . S
C1144 C1146 1.391 . S
C1145 C1144 1.386 . S
C1145 C1149 1.393 . S
C1146 H1138 0.950 . S
C1146 C1144 1.391 . S
C1146 C1147 1.400 . S
C1147 C1146 1.400 . S
C1147 C1148 1.398 . S
C1147 C1153 1.491 . S
C1148 H1139 0.950 . S
C1148 C1147 1.398 . S
C1148 C1149 1.391 . S
C1149 H1137 0.950 . S
C1149 C1145 1.393 . S
C1149 C1148 1.391 . S
C1150 H1140 0.950 . S
C1150 C1151 1.386 . S
C1150 C1152 1.391 . S
C1151 C1150 1.386 . S
C1151 C1155 1.393 . S
C1152 H1141 0.950 . S
C1152 C1150 1.391 . S
C1152 C1153 1.400 . S
C1153 C1147 1.491 . S
C1153 C1152 1.400 . S
C1153 C1154 1.398 . S
C1154 H1142 0.950 . S
C1154 C1153 1.398 . S
C1154 C1155 1.391 . S
C1155 H1143 0.950 . S
C1155 C1151 1.393 . S
C1155 C1154 1.391 . S
H1156 C1164 0.950 . S
H1157 C1169 0.950 . S
H1158 C1166 0.950 . S
H1159 C1168 0.950 . S
H1160 C1170 0.950 . S
H1161 C1172 0.950 . S
H1162 C1174 0.950 . S
H1163 C1175 0.950 . S
C1164 H1156 0.950 . S
C1164 C1165 1.386 . S
C1164 C1166 1.391 1_556 S
C1165 C1164 1.386 . S
C1165 C1169 1.393 . S
C1166 H1158 0.950 . S
C1166 C1164 1.391 1_554 S
C1166 C1167 1.400 . S
C1167 C1166 1.400 . S
C1167 C1168 1.398 . S
C1167 C1173 1.491 . S
C1168 H1159 0.950 . S
C1168 C1167 1.398 . S
C1168 C1169 1.391 1_554 S
C1169 H1157 0.950 . S
C1169 C1165 1.393 . S
C1169 C1168 1.391 1_556 S
C1170 H1160 0.950 . S
C1170 C1171 1.386 . S
C1170 C1172 1.391 . S
C1171 C1170 1.386 . S
C1171 C1175 1.393 . S
C1172 H1161 0.950 . S
C1172 C1170 1.391 . S
C1172 C1173 1.400 . S
C1173 C1167 1.491 . S
C1173 C1172 1.400 . S
C1173 C1174 1.398 . S
C1174 H1162 0.950 . S
C1174 C1173 1.398 . S
C1174 C1175 1.391 . S
C1175 H1163 0.950 . S
C1175 C1171 1.393 . S
C1175 C1174 1.391 . S
H1176 C1184 0.950 . S
H1177 C1189 0.950 . S
H1178 C1186 0.950 . S
H1179 C1188 0.950 . S
H1180 C1190 0.950 . S
H1181 C1192 0.950 . S
H1182 C1194 0.950 . S
H1183 C1195 0.950 . S
C1184 H1176 0.950 . S
C1184 C1185 1.386 . S
C1184 C1186 1.391 . S
C1185 C1184 1.386 . S
C1185 C1189 1.393 . S
C1186 H1178 0.950 . S
C1186 C1184 1.391 . S
C1186 C1187 1.400 . S
C1187 C1186 1.400 . S
C1187 C1188 1.398 . S
C1187 C1193 1.491 . S
C1188 H1179 0.950 . S
C1188 C1187 1.398 . S
C1188 C1189 1.391 . S
C1189 H1177 0.950 . S
C1189 C1185 1.393 . S
C1189 C1188 1.391 . S
C1190 H1180 0.950 . S
C1190 C1191 1.386 . S
C1190 C1192 1.391 . S
C1191 C1190 1.386 . S
C1191 C1195 1.393 . S
C1192 H1181 0.950 . S
C1192 C1190 1.391 . S
C1192 C1193 1.400 . S
C1193 C1187 1.491 . S
C1193 C1192 1.400 . S
C1193 C1194 1.398 . S
C1194 H1182 0.950 . S
C1194 C1193 1.398 . S
C1194 C1195 1.391 . S
C1195 H1183 0.950 . S
C1195 C1191 1.393 . S
C1195 C1194 1.391 . S
H1196 C1204 0.950 . S
H1197 C1209 0.950 . S
H1198 C1206 0.950 . S
H1199 C1208 0.950 . S
H1200 C1210 0.950 . S
H1201 C1212 0.950 . S
H1202 C1214 0.950 . S
H1203 C1215 0.950 . S
C1204 H1196 0.950 . S
C1204 C1205 1.386 . S
C1204 C1206 1.391 . S
C1205 C1204 1.386 . S
C1205 C1209 1.393 . S
C1206 H1198 0.950 . S
C1206 C1204 1.391 . S
C1206 C1207 1.400 . S
C1207 C1206 1.400 . S
C1207 C1208 1.398 . S
C1207 C1213 1.491 . S
C1208 H1199 0.950 . S
C1208 C1207 1.398 . S
C1208 C1209 1.391 . S
C1209 H1197 0.950 . S
C1209 C1205 1.393 . S
C1209 C1208 1.391 . S
C1210 H1200 0.950 . S
C1210 C1211 1.386 . S
C1210 C1212 1.391 . S
C1211 C1210 1.386 . S
C1211 C1215 1.393 . S
C1212 H1201 0.950 . S
C1212 C1210 1.391 . S
C1212 C1213 1.400 . S
C1213 C1207 1.491 . S
C1213 C1212 1.400 . S
C1213 C1214 1.398 . S
C1214 H1202 0.950 . S
C1214 C1213 1.398 . S
C1214 C1215 1.391 . S
C1215 H1203 0.950 . S
C1215 C1211 1.393 . S
C1215 C1214 1.391 . S
H1216 C1224 0.950 . S
H1217 C1229 0.950 . S
H1218 C1226 0.950 . S
H1219 C1228 0.950 . S
H1220 C1230 0.950 . S
H1221 C1232 0.950 . S
H1222 C1234 0.950 . S
H1223 C1235 0.950 . S
C1224 H1216 0.950 . S
C1224 C1225 1.386 . S
C1224 C1226 1.391 . S
C1225 C1224 1.386 . S
C1225 C1229 1.393 . S
C1226 H1218 0.950 . S
C1226 C1224 1.391 . S
C1226 C1227 1.400 . S
C1227 C1226 1.400 . S
C1227 C1228 1.398 . S
C1227 C1233 1.491 . S
C1228 H1219 0.950 . S
C1228 C1227 1.398 . S
C1228 C1229 1.391 . S
C1229 H1217 0.950 . S
C1229 C1225 1.393 . S
C1229 C1228 1.391 . S
C1230 H1220 0.950 . S
C1230 C1231 1.386 . S
C1230 C1232 1.391 . S
C1231 C1230 1.386 . S
C1231 C1235 1.393 . S
C1232 H1221 0.950 . S
C1232 C1230 1.391 . S
C1232 C1233 1.400 . S
C1233 C1227 1.491 . S
C1233 C1232 1.400 . S
C1233 C1234 1.398 . S
C1234 H1222 0.950 . S
C1234 C1233 1.398 . S
C1234 C1235 1.391 . S
C1235 H1223 0.950 . S
C1235 C1231 1.393 . S
C1235 C1234 1.391 . S
H1236 C1244 0.950 . S
H1237 C1249 0.950 . S
H1238 C1246 0.950 . S
H1239 C1248 0.950 . S
H1240 C1250 0.950 . S
H1241 C1252 0.950 . S
H1242 C1254 0.950 . S
H1243 C1255 0.950 . S
C1244 H1236 0.950 . S
C1244 C1245 1.386 . S
C1244 C1246 1.391 . S
C1245 C1244 1.386 . S
C1245 C1249 1.393 . S
C1246 H1238 0.950 . S
C1246 C1244 1.391 . S
C1246 C1247 1.400 . S
C1247 C1246 1.400 . S
C1247 C1248 1.398 . S
C1247 C1253 1.491 . S
C1248 H1239 0.950 . S
C1248 C1247 1.398 . S
C1248 C1249 1.391 . S
C1249 H1237 0.950 . S
C1249 C1245 1.393 . S
C1249 C1248 1.391 . S
C1250 H1240 0.950 . S
C1250 C1251 1.386 . S
C1250 C1252 1.391 . S
C1251 C1250 1.386 . S
C1251 C1255 1.393 . S
C1252 H1241 0.950 . S
C1252 C1250 1.391 . S
C1252 C1253 1.400 . S
C1253 C1247 1.491 . S
C1253 C1252 1.400 . S
C1253 C1254 1.398 . S
C1254 H1242 0.950 . S
C1254 C1253 1.398 . S
C1254 C1255 1.391 . S
C1255 H1243 0.950 . S
C1255 C1251 1.393 . S
C1255 C1254 1.391 . S
H1256 C1264 0.950 . S
H1257 C1269 0.950 . S
H1258 C1266 0.950 . S
H1259 C1268 0.950 . S
H1260 C1270 0.950 . S
H1261 C1272 0.950 . S
H1262 C1274 0.950 . S
H1263 C1275 0.950 1_554 S
C1264 H1256 0.950 . S
C1264 C1265 1.386 . S
C1264 C1266 1.391 . S
C1265 C1264 1.386 . S
C1265 C1269 1.393 . S
C1266 H1258 0.950 . S
C1266 C1264 1.391 . S
C1266 C1267 1.400 . S
C1267 C1266 1.400 . S
C1267 C1268 1.398 . S
C1267 C1273 1.491 . S
C1268 H1259 0.950 . S
C1268 C1267 1.398 . S
C1268 C1269 1.391 . S
C1269 H1257 0.950 . S
C1269 C1265 1.393 . S
C1269 C1268 1.391 . S
C1270 H1260 0.950 . S
C1270 C1271 1.386 . S
C1270 C1272 1.391 . S
C1271 C1270 1.386 . S
C1271 C1275 1.393 . S
C1272 H1261 0.950 . S
C1272 C1270 1.391 . S
C1272 C1273 1.400 . S
C1273 C1267 1.491 . S
C1273 C1272 1.400 . S
C1273 C1274 1.398 . S
C1274 H1262 0.950 . S
C1274 C1273 1.398 . S
C1274 C1275 1.391 . S
C1275 H1263 0.950 1_556 S
C1275 C1271 1.393 . S
C1275 C1274 1.391 . S
H1276 C1284 0.950 . S
H1277 C1289 0.950 . S
H1278 C1286 0.950 . S
H1279 C1288 0.950 . S
H1280 C1290 0.950 . S
H1281 C1292 0.950 . S
H1282 C1294 0.950 . S
H1283 C1295 0.950 . S
C1284 H1276 0.950 . S
C1284 C1285 1.386 . S
C1284 C1286 1.391 . S
C1285 C1284 1.386 . S
C1285 C1289 1.393 . S
C1286 H1278 0.950 . S
C1286 C1284 1.391 . S
C1286 C1287 1.400 . S
C1287 C1286 1.400 . S
C1287 C1288 1.398 . S
C1287 C1293 1.491 . S
C1288 H1279 0.950 . S
C1288 C1287 1.398 . S
C1288 C1289 1.391 . S
C1289 H1277 0.950 . S
C1289 C1285 1.393 . S
C1289 C1288 1.391 . S
C1290 H1280 0.950 . S
C1290 C1291 1.386 . S
C1290 C1292 1.391 . S
C1291 C1290 1.386 . S
C1291 C1295 1.393 . S
C1292 H1281 0.950 . S
C1292 C1290 1.391 . S
C1292 C1293 1.400 . S
C1293 C1287 1.491 . S
C1293 C1292 1.400 . S
C1293 C1294 1.398 . S
C1294 H1282 0.950 . S
C1294 C1293 1.398 . S
C1294 C1295 1.391 . S
C1295 H1283 0.950 . S
C1295 C1291 1.393 . S
C1295 C1294 1.391 . S
H1296 C1304 0.950 . S
H1297 C1309 0.950 . S
H1298 C1306 0.950 . S
H1299 C1308 0.950 . S
H1300 C1310 0.950 . S
H1301 C1312 0.950 . S
H1302 C1314 0.950 . S
H1303 C1315 0.950 . S
C1304 H1296 0.950 . S
C1304 C1305 1.386 . S
C1304 C1306 1.391 . S
C1305 C1304 1.386 . S
C1305 C1309 1.393 . S
C1306 H1298 0.950 . S
C1306 C1304 1.391 . S
C1306 C1307 1.400 . S
C1307 C1306 1.400 . S
C1307 C1308 1.398 . S
C1307 C1313 1.491 . S
C1308 H1299 0.950 . S
C1308 C1307 1.398 . S
C1308 C1309 1.391 . S
C1309 H1297 0.950 . S
C1309 C1305 1.393 . S
C1309 C1308 1.391 . S
C1310 H1300 0.950 . S
C1310 C1311 1.386 . S
C1310 C1312 1.391 . S
C1311 C1310 1.386 . S
C1311 C1315 1.393 . S
C1312 H1301 0.950 . S
C1312 C1310 1.391 . S
C1312 C1313 1.400 . S
C1313 C1307 1.491 . S
C1313 C1312 1.400 . S
C1313 C1314 1.398 . S
C1314 H1302 0.950 . S
C1314 C1313 1.398 . S
C1314 C1315 1.391 . S
C1315 H1303 0.950 . S
C1315 C1311 1.393 . S
C1315 C1314 1.391 . S
H1316 C1324 0.950 . S
H1317 C1329 0.950 . S
H1318 C1326 0.950 . S
H1319 C1328 0.950 . S
H1320 C1330 0.950 . S
H1321 C1332 0.950 . S
H1322 C1334 0.950 . S
H1323 C1335 0.950 . S
C1324 H1316 0.950 . S
C1324 C1325 1.386 . S
C1324 C1326 1.391 . S
C1325 C1324 1.386 . S
C1325 C1329 1.393 . S
C1326 H1318 0.950 . S
C1326 C1324 1.391 . S
C1326 C1327 1.400 . S
C1327 C1326 1.400 . S
C1327 C1328 1.398 . S
C1327 C1333 1.491 . S
C1328 H1319 0.950 . S
C1328 C1327 1.398 . S
C1328 C1329 1.391 . S
C1329 H1317 0.950 . S
C1329 C1325 1.393 . S
C1329 C1328 1.391 . S
C1330 H1320 0.950 . S
C1330 C1331 1.386 . S
C1330 C1332 1.391 1_565 S
C1331 C1330 1.386 . S
C1331 C1335 1.393 1_565 S
C1332 H1321 0.950 . S
C1332 C1330 1.391 1_545 S
C1332 C1333 1.400 . S
C1333 C1327 1.491 . S
C1333 C1332 1.400 . S
C1333 C1334 1.398 . S
C1334 H1322 0.950 . S
C1334 C1333 1.398 . S
C1334 C1335 1.391 . S
C1335 H1323 0.950 . S
C1335 C1331 1.393 1_545 S
C1335 C1334 1.391 . S
C391 C216 1.768 . S
C385 C73 1.787 . S
C411 C231 1.474 . S
C405 C82 1.500 . S
C425 C100 2.038 . S
C431 C244 2.015 . S
C451 C258 1.417 . S
C445 C56 1.352 . S
C471 C270 1.457 . S
C465 C134 1.530 . S
C491 C284 1.447 . S
C485 C165 1.458 . S
C505 C147 1.416 . S
C511 C298 1.413 . S
C531 C313 1.734 . S
C525 C125 1.772 . S
C545 C151 1.441 . S
C551 C329 1.422 . S
C571 C342 1.455 . S
C565 C121 1.410 . S
C585 C139 1.769 . S
C591 C327 1.758 . S
C611 C340 1.235 . S
C605 C164 1.196 . S
C625 C95 1.615 . S
C631 C356 1.671 . S
C645 C61 1.438 . S
C651 C355 1.451 . S
C665 C74 1.719 . S
C671 C354 1.649 . S
C685 C86 1.900 . S
C691 C357 1.867 . S
C705 C47 1.634 . S
C711 C259 1.630 . S
C725 C186 1.329 . S
C731 C257 1.355 . S
C751 C217 1.450 . S
C745 C204 1.439 . S
C771 C228 2.017 . S
C765 C112 2.036 . S
C785 C60 1.397 . S
C791 C273 1.397 . S
C811 C314 1.789 . S
C805 C152 1.774 . S
C831 C271 1.782 . S
C825 C126 1.806 . S
C851 C299 1.270 . S
C845 C160 1.170 . S
C871 C300 1.765 . S
C865 C190 1.787 . S
C885 C199 1.495 . S
C891 C315 1.482 . S
C905 C113 2.038 . S
C911 C272 2.013 . S
C931 C286 1.427 . S
C925 C173 1.365 . S
C945 C43 1.521 . S
C951 C242 1.470 . S
C971 C256 1.442 . S
C965 C9 1.461 . S
C991 C214 1.420 . S
C985 C17 1.422 . S
C1011 C229 1.726 . S
C1005 C34 1.777 . S
C1025 C21 1.438 . S
C1031 C343 1.429 . S
C1045 C30 1.411 . S
C1051 C328 1.455 . S
C1065 C48 1.770 . S
C1071 C341 1.756 . S
C1085 C8 1.218 . S
C1091 C326 1.225 . S
C1111 C370 1.667 . S
C1105 C108 1.603 . S
C1131 C369 1.459 . S
C1125 C178 1.442 . S
C1151 C368 1.652 . S
C1145 C191 1.723 . S
C1165 C203 1.900 . S
C1171 C371 1.866 . S
C1185 C138 1.631 . S
C1191 C287 1.628 . S
C1211 C285 1.351 . S
C1205 C69 1.324 . S
C1231 C301 1.420 . S
C1225 C87 1.438 . S
C1251 C312 2.020 . S
C1245 C99 2.034 . S
C1265 C177 1.403 . S
C1271 C245 1.411 . S
C1291 C230 1.785 . S
C1285 C22 1.779 . S
C1305 C35 1.811 . S
C1311 C243 1.800 . S
C1331 C215 1.275 . S
C1325 C4 1.203 . S
