# Generated by pormake.
# Topology pyr, (3,6)-cn, num edge types: 1
# Building blocks:
#     Node 0, Type 0, BuildingBlock: MIDCAF_clean_linker_0, # of connection points: 3
#     Node 1, Type 0, BuildingBlock: MIDCAF_clean_linker_0, # of connection points: 3
#     Node 2, Type 0, BuildingBlock: MIDCAF_clean_linker_0, # of connection points: 3
#     Node 3, Type 0, BuildingBlock: MIDCAF_clean_linker_0, # of connection points: 3
#     Node 4, Type 0, BuildingBlock: MIDCAF_clean_linker_0, # of connection points: 3
#     Node 5, Type 0, BuildingBlock: MIDCAF_clean_linker_0, # of connection points: 3
#     Node 6, Type 0, BuildingBlock: MIDCAF_clean_linker_0, # of connection points: 3
#     Node 7, Type 0, BuildingBlock: MIDCAF_clean_linker_0, # of connection points: 3
#     Node 8, Type 1, BuildingBlock: JUFBIX_clean_sbu_0, # of connection points: 6
#     Node 9, Type 1, BuildingBlock: JUFBIX_clean_sbu_0, # of connection points: 6
#     Node 10, Type 1, BuildingBlock: JUFBIX_clean_sbu_0, # of connection points: 6
#     Node 11, Type 1, BuildingBlock: JUFBIX_clean_sbu_0, # of connection points: 6
#     Edge 12, Type (0, 1), BuildingBlock: ZUJKAS_clean_linker_0, # of connection points: 2
#     Edge 13, Type (0, 1), BuildingBlock: ZUJKAS_clean_linker_0, # of connection points: 2
#     Edge 14, Type (0, 1), BuildingBlock: ZUJKAS_clean_linker_0, # of connection points: 2
#     Edge 15, Type (0, 1), BuildingBlock: ZUJKAS_clean_linker_0, # of connection points: 2
#     Edge 16, Type (0, 1), BuildingBlock: ZUJKAS_clean_linker_0, # of connection points: 2
#     Edge 17, Type (0, 1), BuildingBlock: ZUJKAS_clean_linker_0, # of connection points: 2
#     Edge 18, Type (0, 1), BuildingBlock: ZUJKAS_clean_linker_0, # of connection points: 2
#     Edge 19, Type (0, 1), BuildingBlock: ZUJKAS_clean_linker_0, # of connection points: 2
#     Edge 20, Type (0, 1), BuildingBlock: ZUJKAS_clean_linker_0, # of connection points: 2
#     Edge 21, Type (0, 1), BuildingBlock: ZUJKAS_clean_linker_0, # of connection points: 2
#     Edge 22, Type (0, 1), BuildingBlock: ZUJKAS_clean_linker_0, # of connection points: 2
#     Edge 23, Type (0, 1), BuildingBlock: ZUJKAS_clean_linker_0, # of connection points: 2
#     Edge 24, Type (0, 1), BuildingBlock: ZUJKAS_clean_linker_0, # of connection points: 2
#     Edge 25, Type (0, 1), BuildingBlock: ZUJKAS_clean_linker_0, # of connection points: 2
#     Edge 26, Type (0, 1), BuildingBlock: ZUJKAS_clean_linker_0, # of connection points: 2
#     Edge 27, Type (0, 1), BuildingBlock: ZUJKAS_clean_linker_0, # of connection points: 2
#     Edge 28, Type (0, 1), BuildingBlock: ZUJKAS_clean_linker_0, # of connection points: 2
#     Edge 29, Type (0, 1), BuildingBlock: ZUJKAS_clean_linker_0, # of connection points: 2
#     Edge 30, Type (0, 1), BuildingBlock: ZUJKAS_clean_linker_0, # of connection points: 2
#     Edge 31, Type (0, 1), BuildingBlock: ZUJKAS_clean_linker_0, # of connection points: 2
#     Edge 32, Type (0, 1), BuildingBlock: ZUJKAS_clean_linker_0, # of connection points: 2
#     Edge 33, Type (0, 1), BuildingBlock: ZUJKAS_clean_linker_0, # of connection points: 2
#     Edge 34, Type (0, 1), BuildingBlock: ZUJKAS_clean_linker_0, # of connection points: 2
#     Edge 35, Type (0, 1), BuildingBlock: ZUJKAS_clean_linker_0, # of connection points: 2
# Relax obj value: 0.035
# Max RMSD: 0.087
# Mean RMSD: 0.029
data_MOF--net-pyr--node1-JUFBIX_clean_sbu_0--node2-MIDCAF_clean_linker_0--edge1-ZUJKAS_clean_linker_0
_symmetry_space_group_name_H-M    P1
_symmetry_Int_Tables_number       1
_symmetry_cell_setting            triclinic
loop_
_symmetry_equiv_pos_as_xyz
'x, y, z'
_cell_length_a     56.891861
_cell_length_b     54.541478
_cell_length_c     56.732695
_cell_angle_alpha  86.661235
_cell_angle_beta   90.323315
_cell_angle_gamma 91.737563
loop_
_atom_site_label
_atom_site_type_symbol
_atom_site_fract_x
_atom_site_fract_y
_atom_site_fract_z
_atom_type_partial_charge
C0 C 0.13278 0.14257 0.23771 0.0
C1 C 0.14287 0.12251 0.25033 0.0
C2 C 0.16377 0.11329 0.24156 0.0
C3 C 0.17415 0.12373 0.22074 0.0
H4 H 0.23228 0.1197 0.17586 0.0
H5 H 0.26744 0.10291 0.15932 0.0
H6 H 0.26143 0.15271 0.09776 0.0
H7 H 0.22617 0.16935 0.11411 0.0
H8 H 0.19024 0.21454 0.1158 0.0
H9 H 0.17194 0.25047 0.09678 0.0
H10 H 0.11365 0.24095 0.14524 0.0
H11 H 0.13219 0.20562 0.16462 0.0
H12 H 0.13472 0.16845 0.20793 0.0
H13 H 0.11693 0.1505 0.24401 0.0
H14 H 0.17198 0.09773 0.2506 0.0
H15 H 0.19015 0.11601 0.21455 0.0
N16 N 0.19468 0.14592 0.17675 0.0
N17 N 0.19403 0.17593 0.14526 0.0
N18 N 0.16478 0.17469 0.17432 0.0
C19 C 0.20443 0.15621 0.15642 0.0
C20 C 0.1742 0.18533 0.15408 0.0
C21 C 0.17482 0.15504 0.18584 0.0
C22 C 0.22617 0.14596 0.14641 0.0
C23 C 0.23838 0.12712 0.15879 0.0
C24 C 0.25872 0.11754 0.14934 0.0
C25 C 0.26741 0.12637 0.12713 0.0
C26 C 0.25519 0.14518 0.11475 0.0
C27 C 0.23495 0.15487 0.12426 0.0
C28 C 0.16285 0.20706 0.1419 0.0
C29 C 0.17352 0.22008 0.12243 0.0
C30 C 0.1629 0.24069 0.11138 0.0
C31 C 0.14125 0.24888 0.11941 0.0
C32 C 0.13051 0.23566 0.13874 0.0
C33 C 0.14114 0.21516 0.14982 0.0
C34 C 0.16398 0.14376 0.20809 0.0
C35 C 0.14315 0.15302 0.21697 0.0
C36 C 0.32787 0.91385 0.60121 0.0
C37 C 0.31386 0.89786 0.58811 0.0
C38 C 0.32366 0.87639 0.58049 0.0
C39 C 0.34677 0.87065 0.58641 0.0
H40 H 0.39073 0.81546 0.5849 0.0
H41 H 0.40246 0.77423 0.57752 0.0
H42 H 0.46584 0.78492 0.61835 0.0
H43 H 0.45425 0.82656 0.62576 0.0
H44 H 0.45318 0.87025 0.6624 0.0
H45 H 0.46856 0.8913 0.69612 0.0
H46 H 0.42579 0.95352 0.67686 0.0
H47 H 0.40993 0.93227 0.64349 0.0
H48 H 0.36108 0.92054 0.61781 0.0
H49 H 0.32074 0.93046 0.60749 0.0
H50 H 0.31339 0.86392 0.57005 0.0
H51 H 0.35358 0.85371 0.58055 0.0
N52 N 0.39273 0.85706 0.60261 0.0
N53 N 0.42587 0.86307 0.62654 0.0
N54 N 0.39686 0.89278 0.62333 0.0
C55 C 0.4135 0.84903 0.61148 0.0
C56 C 0.41771 0.88508 0.63242 0.0
C57 C 0.38427 0.87888 0.60837 0.0
C58 C 0.42149 0.82438 0.60605 0.0
C59 C 0.40723 0.8092 0.5923 0.0
C60 C 0.41385 0.78545 0.58818 0.0
C61 C 0.43492 0.77629 0.59758 0.0
C62 C 0.44951 0.79157 0.61085 0.0
C63 C 0.44283 0.81538 0.61512 0.0
C64 C 0.42997 0.89936 0.65047 0.0
C65 C 0.44733 0.88858 0.66509 0.0
C66 C 0.45627 0.90073 0.68439 0.0
C67 C 0.44815 0.92396 0.68938 0.0
C68 C 0.43202 0.93541 0.6738 0.0
C69 C 0.42298 0.92323 0.65461 0.0
C70 C 0.36059 0.88623 0.60019 0.0
C71 C 0.35098 0.9081 0.6072 0.0
C72 C 0.65598 0.27511 0.88881 0.0
C73 C 0.63224 0.26975 0.88381 0.0
C74 C 0.6198 0.28607 0.86869 0.0
C75 C 0.63095 0.30732 0.85863 0.0
H76 H 0.63057 0.35274 0.79802 0.0
H77 H 0.61456 0.37213 0.76216 0.0
H78 H 0.66605 0.43169 0.76559 0.0
H79 H 0.6826 0.41193 0.80139 0.0
H80 H 0.71996 0.41035 0.8447 0.0
H81 H 0.75463 0.42688 0.8646 0.0
H82 H 0.75627 0.36125 0.91092 0.0
H83 H 0.72195 0.34456 0.89102 0.0
H84 H 0.68533 0.30024 0.88337 0.0
H85 H 0.6659 0.26287 0.90055 0.0
H86 H 0.60151 0.28226 0.86446 0.0
H87 H 0.62089 0.31953 0.84702 0.0
N88 N 0.65734 0.34747 0.83399 0.0
N89 N 0.68754 0.37767 0.83489 0.0
N90 N 0.68608 0.34495 0.86365 0.0
C91 C 0.66785 0.36842 0.82445 0.0
C92 C 0.69676 0.366 0.85454 0.0
C93 C 0.66634 0.33562 0.85354 0.0
C94 C 0.65793 0.38073 0.80272 0.0
C95 C 0.63854 0.37 0.79126 0.0
C96 C 0.62921 0.38122 0.77069 0.0
C97 C 0.63891 0.40356 0.76102 0.0
C98 C 0.6583 0.41436 0.77243 0.0
C99 C 0.66771 0.40308 0.79305 0.0
C100 C 0.71808 0.3761 0.86621 0.0
C101 C 0.72774 0.39938 0.85907 0.0
C102 C 0.74753 0.40895 0.87057 0.0
C103 C 0.75819 0.39537 0.88934 0.0
C104 C 0.74864 0.37205 0.89635 0.0
C105 C 0.72883 0.36256 0.88498 0.0
C106 C 0.65465 0.31287 0.86383 0.0
C107 C 0.66703 0.29655 0.87907 0.0
C108 C 0.84757 0.60908 0.45643 0.0
C109 C 0.83369 0.5907 0.44622 0.0
C110 C 0.84051 0.58234 0.42439 0.0
C111 C 0.85995 0.59301 0.41244 0.0
H112 H 0.88558 0.60006 0.34632 0.0
H113 H 0.88749 0.59343 0.30439 0.0
H114 H 0.93844 0.6535 0.29499 0.0
H115 H 0.93695 0.65993 0.33708 0.0
H116 H 0.9539 0.68799 0.38102 0.0
H117 H 0.97408 0.72373 0.39623 0.0
H118 H 0.94033 0.70863 0.46375 0.0
H119 H 0.91974 0.67307 0.44848 0.0
H120 H 0.8769 0.63446 0.45248 0.0
H121 H 0.84293 0.6157 0.47337 0.0
H122 H 0.8301 0.56841 0.41588 0.0
H123 H 0.86412 0.58664 0.39526 0.0
N124 N 0.89402 0.62145 0.38458 0.0
N125 N 0.92314 0.65263 0.3803 0.0
N126 N 0.90516 0.64382 0.41707 0.0
C127 C 0.90969 0.63473 0.37072 0.0
C128 C 0.92107 0.65723 0.40349 0.0
C129 C 0.89165 0.62579 0.40776 0.0
C130 C 0.91116 0.63051 0.34518 0.0
C131 C 0.89723 0.61189 0.33539 0.0
C132 C 0.89815 0.6082 0.31126 0.0
C133 C 0.91302 0.62301 0.29632 0.0
C134 C 0.92696 0.64162 0.30607 0.0
C135 C 0.92605 0.64533 0.33022 0.0
C136 C 0.93495 0.67771 0.41342 0.0
C137 C 0.95087 0.69211 0.39918 0.0
C138 C 0.96261 0.71254 0.40795 0.0
C139 C 0.95873 0.7191 0.43117 0.0
C140 C 0.94344 0.70426 0.44567 0.0
C141 C 0.93171 0.6838 0.43692 0.0
C142 C 0.87308 0.61235 0.422 0.0
C143 C 0.8671 0.61976 0.44448 0.0
C144 C 0.76234 0.89665 0.8617 0.0
C145 C 0.75392 0.8877 0.88398 0.0
C146 C 0.76624 0.86876 0.89606 0.0
C147 C 0.78631 0.8591 0.88622 0.0
H148 H 0.83093 0.79994 0.89445 0.0
H149 H 0.84935 0.76427 0.91374 0.0
H150 H 0.90709 0.7729 0.86455 0.0
H151 H 0.88839 0.80801 0.84487 0.0
H152 H 0.88547 0.8453 0.80136 0.0
H153 H 0.90285 0.86305 0.765 0.0
H154 H 0.84787 0.91593 0.7589 0.0
H155 H 0.83011 0.89784 0.79523 0.0
H156 H 0.78844 0.8946 0.83479 0.0
H157 H 0.75354 0.91138 0.85194 0.0
H158 H 0.76019 0.86112 0.91308 0.0
H159 H 0.79515 0.84452 0.89616 0.0
N160 N 0.82691 0.83816 0.86476 0.0
N161 N 0.85581 0.83922 0.83537 0.0
N162 N 0.82594 0.86806 0.83321 0.0
C163 C 0.84661 0.82868 0.85575 0.0
C164 C 0.84568 0.85886 0.8239 0.0
C165 C 0.81642 0.85786 0.85368 0.0
C166 C 0.85803 0.807 0.86796 0.0
C167 C 0.84755 0.79426 0.8877 0.0
C168 C 0.85824 0.77379 0.89891 0.0
C169 C 0.8798 0.76545 0.8908 0.0
C170 C 0.89032 0.77834 0.87115 0.0
C171 C 0.8796 0.7987 0.85989 0.0
C172 C 0.85628 0.87005 0.80147 0.0
C173 C 0.87698 0.86072 0.79237 0.0
C174 C 0.88711 0.87105 0.77147 0.0
C175 C 0.87692 0.89109 0.75888 0.0
C176 C 0.85615 0.90039 0.76788 0.0
C177 C 0.84601 0.89006 0.78888 0.0
C178 C 0.79484 0.86813 0.864 0.0
C179 C 0.78253 0.88708 0.8519 0.0
C180 C 0.5833 0.06544 0.34336 0.0
C181 C 0.56862 0.07817 0.32717 0.0
C182 C 0.5612 0.1016 0.33234 0.0
C183 C 0.56914 0.11251 0.35273 0.0
H184 H 0.56011 0.17268 0.39745 0.0
H185 H 0.55087 0.21493 0.40498 0.0
H186 H 0.6186 0.22428 0.43881 0.0
H187 H 0.62731 0.18204 0.43224 0.0
H188 H 0.64821 0.13243 0.45602 0.0
H189 H 0.68461 0.11774 0.47363 0.0
H190 H 0.6833 0.05765 0.42724 0.0
H191 H 0.64663 0.072 0.40985 0.0
H192 H 0.60304 0.0662 0.37544 0.0
H193 H 0.58899 0.04718 0.34008 0.0
H194 H 0.55006 0.11199 0.32014 0.0
H195 H 0.56367 0.13092 0.35574 0.0
N196 N 0.58903 0.13596 0.39305 0.0
N197 N 0.61765 0.13734 0.42285 0.0
N198 N 0.61304 0.10224 0.40127 0.0
C199 C 0.60011 0.14827 0.41027 0.0
C200 C 0.62416 0.11432 0.41859 0.0
C201 C 0.59538 0.11287 0.38847 0.0
C202 C 0.59433 0.17391 0.41444 0.0
C203 C 0.57296 0.18379 0.40654 0.0
C204 C 0.56775 0.20806 0.41072 0.0
C205 C 0.58394 0.22303 0.42262 0.0
C206 C 0.60546 0.21318 0.4301 0.0
C207 C 0.61051 0.18891 0.42622 0.0
C208 C 0.64461 0.1036 0.43126 0.0
C209 C 0.65548 0.1159 0.44973 0.0
C210 C 0.6764 0.10754 0.45981 0.0
C211 C 0.68697 0.08671 0.45166 0.0
C212 C 0.6755 0.07366 0.43406 0.0
C213 C 0.65452 0.08198 0.42399 0.0
C214 C 0.58473 0.10025 0.36837 0.0
C215 C 0.59127 0.07635 0.3637 0.0
C216 C 0.27157 0.60473 0.14208 0.0
C217 C 0.2647 0.61492 0.11984 0.0
C218 C 0.27822 0.63453 0.10933 0.0
C219 C 0.29803 0.64388 0.12081 0.0
H220 H 0.34169 0.70493 0.11969 0.0
H221 H 0.36123 0.74229 0.10322 0.0
H222 H 0.41796 0.73241 0.15352 0.0
H223 H 0.39812 0.69543 0.17048 0.0
H224 H 0.38934 0.65918 0.21428 0.0
H225 H 0.40466 0.64018 0.25063 0.0
H226 H 0.35375 0.58018 0.24649 0.0
H227 H 0.3379 0.59952 0.21012 0.0
H228 H 0.29626 0.60574 0.17066 0.0
H229 H 0.26162 0.58945 0.15054 0.0
H230 H 0.27323 0.643 0.09237 0.0
H231 H 0.30787 0.65911 0.11215 0.0
N232 N 0.33705 0.66476 0.14595 0.0
N233 N 0.36418 0.66335 0.17712 0.0
N234 N 0.33405 0.63312 0.17574 0.0
C235 C 0.35622 0.67451 0.15674 0.0
C236 C 0.35325 0.64269 0.18678 0.0
C237 C 0.32586 0.64408 0.15526 0.0
C238 C 0.36828 0.69712 0.14646 0.0
C239 C 0.35834 0.71067 0.12726 0.0
C240 C 0.36963 0.73206 0.1177 0.0
C241 C 0.39121 0.74037 0.127 0.0
C242 C 0.40119 0.72677 0.14614 0.0
C243 C 0.38985 0.70545 0.15579 0.0
C244 C 0.36237 0.63089 0.20912 0.0
C245 C 0.38133 0.64193 0.221 0.0
C246 C 0.39026 0.63094 0.24185 0.0
C247 C 0.38058 0.60854 0.25141 0.0
C248 C 0.3615 0.59754 0.2397 0.0
C249 C 0.35249 0.60859 0.21878 0.0
C250 C 0.30492 0.63378 0.14309 0.0
C251 C 0.2915 0.614 0.15355 0.0
C252 C 0.07701 0.30775 0.56591 0.0
C253 C 0.06163 0.29261 0.58002 0.0
C254 C 0.05821 0.29816 0.60362 0.0
C255 C 0.07033 0.318 0.61305 0.0
H256 H 0.08273 0.34974 0.67571 0.0
H257 H 0.08078 0.35547 0.71794 0.0
H258 H 0.13334 0.41419 0.71028 0.0
H259 H 0.13565 0.40831 0.66826 0.0
H260 H 0.14999 0.42872 0.61585 0.0
H261 H 0.18387 0.44911 0.5965 0.0
H262 H 0.18454 0.3926 0.5462 0.0
H263 H 0.15009 0.3726 0.56512 0.0
H264 H 0.10109 0.33866 0.564 0.0
H265 H 0.0798 0.30415 0.54757 0.0
H266 H 0.04672 0.2867 0.61507 0.0
H267 H 0.06754 0.32139 0.63143 0.0
N268 N 0.09781 0.35705 0.63287 0.0
N269 N 0.12656 0.38864 0.62931 0.0
N270 N 0.11599 0.36675 0.59633 0.0
C271 C 0.111 0.37487 0.64287 0.0
C272 C 0.12916 0.38476 0.60607 0.0
C273 C 0.1001 0.35294 0.60959 0.0
C274 C 0.10931 0.37858 0.66849 0.0
C275 C 0.09389 0.36388 0.68299 0.0
C276 C 0.09273 0.36718 0.70721 0.0
C277 C 0.10698 0.38521 0.71747 0.0
C278 C 0.12242 0.39986 0.703 0.0
C279 C 0.12356 0.3966 0.67882 0.0
C280 C 0.14756 0.39882 0.59225 0.0
C281 C 0.15715 0.42081 0.60046 0.0
C282 C 0.17664 0.43247 0.58941 0.0
C283 C 0.1872 0.42227 0.57005 0.0
C284 C 0.17677 0.40106 0.56097 0.0
C285 C 0.15707 0.38951 0.5719 0.0
C286 C 0.0862 0.33279 0.59912 0.0
C287 C 0.08915 0.32762 0.57533 0.0
Co288 Co 0.99151 0.00936 0.49519 0.0
C289 C 0.01201 0.96367 0.49146 0.0
Co290 Co 0.02583 0.00545 0.51293 0.0
C291 C 0.94224 0.01846 0.48769 0.0
C292 C 0.9584 1.00378 0.45779 0.0
N293 N 0.96293 0.01079 0.47979 0.0
N294 N 0.92491 0.01644 0.47148 0.0
C295 C 0.93509 0.00725 0.45262 0.0
H296 H 0.93994 0.02505 0.50513 0.0
H297 H 0.97126 0.99658 0.44625 0.0
C298 C 1.00498 0.05111 0.51663 0.0
N299 N 0.05485 0.00427 0.52791 0.0
C300 C 0.06668 0.98459 0.53654 0.0
C301 C 0.06958 0.02371 0.53096 0.0
N302 N 0.08814 0.99106 0.54487 0.0
C303 C 0.08993 0.01568 0.54145 0.0
C304 C 0.02939 0.02401 0.46592 0.0
O305 O 0.98861 0.04215 0.50417 0.0
O306 O 0.02236 0.03797 0.5224 0.0
O307 O 0.04115 0.01803 0.4844 0.0
O308 O 0.00709 0.02158 0.46668 0.0
O309 O 0.02876 0.97282 0.50333 0.0
H310 H 0.06619 0.0425 0.52512 0.0
H311 H 0.05993 0.96584 0.53629 0.0
O312 O 0.99438 0.97666 0.4862 0.0
O313 O 0.97623 0.99711 0.52397 0.0
O314 O 0.0105 0.99287 0.54137 0.0
C315 C 0.98815 0.99078 0.54231 0.0
H316 H 0.92646 1.00362 0.43609 0.0
H317 H 0.10536 0.02696 0.5451 0.0
Co318 Co 0.50066 1.00309 0.99055 0.0
C319 C 0.49664 0.96478 0.02515 0.0
Co320 Co 0.52097 0.00925 0.02294 0.0
C321 C 0.48972 0.99759 0.94132 0.0
C322 C 0.45978 0.99077 0.96371 0.0
N323 N 0.48282 0.9973 0.96406 0.0
N324 N 0.47186 0.99149 0.92679 0.0
C325 C 0.45299 0.98724 0.94085 0.0
H326 H 0.50753 1.00206 0.93559 0.0
H327 H 0.44873 0.98821 0.97917 0.0
C328 C 0.52492 0.04755 0.98834 0.0
N329 N 0.53865 0.01499 0.04955 0.0
C330 C 0.53145 0.01381 0.07221 0.0
C331 C 0.5615 0.0222 0.05035 0.0
N332 N 0.54887 0.02008 0.08716 0.0
C333 C 0.56785 0.0253 0.07344 0.0
C334 C 0.54631 0.98597 0.98855 0.0
O335 O 0.51129 0.03387 0.97665 0.0
O336 O 0.53114 0.04031 0.00909 0.0
O337 O 0.54745 0.99408 0.00914 0.0
O338 O 0.52707 0.98777 0.97712 0.0
O339 O 0.51061 0.97825 0.03668 0.0
H340 H 0.5727 0.02546 0.03507 0.0
H341 H 0.5137 0.00851 0.07759 0.0
O342 O 0.49019 0.97223 1.00455 0.0
O343 O 0.47436 0.01859 1.0042 0.0
O344 O 0.49442 0.02429 0.0365 0.0
C345 C 0.47532 0.02642 0.02488 0.0
H346 H 0.43569 0.98116 0.93518 0.0
H347 H 0.5849 0.03168 0.07952 0.0
Co348 Co 0.52649 0.51167 0.49819 0.0
C349 C 0.48849 0.51509 0.46683 0.0
Co350 Co 0.49383 0.49299 0.51138 0.0
C351 C 0.57578 0.5244 0.49021 0.0
C352 C 0.55267 0.55152 0.47536 0.0
N353 N 0.55281 0.52931 0.48711 0.0
N354 N 0.58995 0.54284 0.48106 0.0
C355 C 0.57542 0.55986 0.47161 0.0
H356 H 0.58196 0.50804 0.49972 0.0
H357 H 0.53699 0.56129 0.47031 0.0
C358 C 0.53178 0.48963 0.54278 0.0
N359 N 0.46744 0.47554 0.52243 0.0
C360 C 0.44468 0.48168 0.52052 0.0
C361 C 0.46703 0.45298 0.53348 0.0
N362 N 0.43004 0.4638 0.52993 0.0
C363 C 0.44411 0.44573 0.53812 0.0
C364 C 0.52335 0.46393 0.48617 0.0
O365 O 0.54259 0.50239 0.52658 0.0
O366 O 0.51032 0.48345 0.53965 0.0
O367 O 0.50397 0.46467 0.49707 0.0
O368 O 0.53679 0.48299 0.48446 0.0
O369 O 0.47757 0.50268 0.48318 0.0
H370 H 0.48241 0.44231 0.53752 0.0
H371 H 0.43903 0.49895 0.51235 0.0
O372 O 0.51009 0.52078 0.46977 0.0
O373 O 0.51609 0.54018 0.51212 0.0
O374 O 0.48382 0.52144 0.52553 0.0
C375 C 0.49695 0.5407 0.52346 0.0
H376 H 0.58082 0.57718 0.4627 0.0
H377 H 0.43828 0.4282 0.54632 0.0
Co378 Co 0.01745 0.50519 0.98761 0.0
C379 C 0.97086 0.48716 0.99497 0.0
Co380 Co 1.00297 0.50909 0.02322 0.0
C381 C 0.04214 0.4878 0.94705 0.0
C382 C 0.01478 0.51264 0.93754 0.0
N383 N 0.02625 0.50242 0.95638 0.0
N384 N 0.04068 0.48836 0.92324 0.0
C385 C 0.02363 0.50415 0.91726 0.0
H386 H 0.0535 0.47583 0.95749 0.0
H387 H 0.99995 0.52448 0.9384 0.0
C388 C 0.04958 0.52709 0.01585 0.0
N389 N 0.99423 0.51181 0.05446 0.0
C390 C 0.97798 0.52589 0.06395 0.0
C391 C 1.00616 0.50196 0.07317 0.0
N392 N 0.97966 0.52535 0.08774 0.0
C393 C 0.99722 0.51014 0.09354 0.0
C394 C 0.02688 0.46487 0.01752 0.0
O395 O 0.04696 0.52026 0.99491 0.0
O396 O 0.0326 0.52397 0.03029 0.0
O397 O 0.01528 0.47721 0.03153 0.0
O398 O 0.0299 0.47355 0.99643 0.0
O399 O 0.97339 0.49423 0.01584 0.0
H400 H 0.02131 0.49059 0.07214 0.0
H401 H 0.96618 0.53747 0.05362 0.0
O402 O 0.98791 0.4901 0.98059 0.0
O403 O 1.00499 0.53695 0.97927 0.0
O404 O 0.99068 0.54087 0.01447 0.0
C405 C 0.99357 0.54943 0.99331 0.0
H406 H 0.0174 0.50856 0.8995 0.0
H407 H 1.00372 0.50592 0.11124 0.0
H408 H 0.1642 0.10521 0.29155 0.0
H409 H 0.1455 0.08748 0.3277 0.0
H410 H 0.07721 0.09759 0.29599 0.0
H411 H 0.09571 0.11461 0.25961 0.0
H412 H 0.11421 0.10846 0.3576 0.0
H413 H 0.07253 0.02597 0.3204 0.0
H414 H 0.09509 0.04443 0.30497 0.0
H415 H 0.06519 0.05426 0.30473 0.0
C416 C 0.14521 0.10335 0.29209 0.0
C417 C 0.13155 0.11135 0.27247 0.0
C418 C 0.13451 0.09334 0.3129 0.0
C419 C 0.1099 0.09082 0.31458 0.0
C420 C 0.09622 0.09886 0.29509 0.0
H421 H 0.00946 0.03931 0.42356 0.0
H422 H 0.02934 0.05566 0.38756 0.0
C423 C 0.10688 0.10891 0.27432 0.0
C424 C 0.09851 0.08045 0.33687 0.0
H425 H 0.06085 0.03477 0.3591 0.0
C426 C 0.10267 0.09225 0.35794 0.0
C427 C 0.08335 0.05931 0.33743 0.0
C428 C 0.0789 0.04509 0.31574 0.0
C429 C 0.09173 0.08391 0.3793 0.0
C430 C 0.0765 0.06281 0.37984 0.0
C431 C 0.07244 0.05095 0.35879 0.0
C432 C 0.0645 0.05284 0.40198 0.0
C433 C 0.09606 0.09826 0.40093 0.0
C434 C 0.07754 0.04542 0.42215 0.0
C435 C 0.06619 0.03612 0.44285 0.0
C436 C 0.04149 0.03378 0.44386 0.0
C437 C 0.02848 0.04089 0.42352 0.0
C438 C 0.03985 0.05023 0.40286 0.0
H439 H 0.10255 0.11733 0.39621 0.0
H440 H 0.0798 0.09909 0.41155 0.0
H441 H 0.10966 0.0891 0.41211 0.0
H442 H 0.09657 0.04663 0.42187 0.0
H443 H 0.07683 0.03068 0.45805 0.0
H444 H 0.41918 0.94674 0.71867 0.0
H445 H 0.42819 0.96113 0.75765 0.0
H446 H 0.49997 0.93935 0.75116 0.0
H447 H 0.49127 0.92541 0.7116 0.0
H448 H 0.44538 0.92809 0.79478 0.0
H449 H 0.50496 0.00991 0.77681 0.0
H450 H 0.4853 0.99835 0.75462 0.0
H451 H 0.51149 0.98229 0.76254 0.0
C452 C 0.43708 0.94562 0.72516 0.0
C453 C 0.45454 0.935 0.71195 0.0
C454 C 0.44213 0.9537 0.74753 0.0
C455 C 0.46475 0.95144 0.75716 0.0
C456 C 0.48247 0.94153 0.74386 0.0
H457 H 0.50961 0.97866 0.90161 0.0
H458 H 0.50994 0.96939 0.85985 0.0
C459 C 0.47742 0.93338 0.72139 0.0
C460 C 0.46891 0.95745 0.78193 0.0
H461 H 0.49656 0.99851 0.81676 0.0
C462 C 0.45664 0.94342 0.79961 0.0
C463 C 0.48381 0.97729 0.78809 0.0
C464 C 0.49711 0.99301 0.76959 0.0
C465 C 0.45849 0.94899 0.82333 0.0
C466 C 0.47266 0.9694 0.82945 0.0
C467 C 0.4856 0.98298 0.8119 0.0
C468 C 0.4733 0.97735 0.8539 0.0
C469 C 0.44518 0.93301 0.84168 0.0
C470 C 0.45279 0.98559 0.86406 0.0
C471 C 0.45255 0.99092 0.88779 0.0
C472 C 0.47286 0.98822 0.90181 0.0
C473 C 0.49372 0.98105 0.89127 0.0
C474 C 0.49393 0.97567 0.86746 0.0
H475 H 0.44022 0.91476 0.83511 0.0
H476 H 0.45576 0.93023 0.85807 0.0
H477 H 0.42877 0.94215 0.84621 0.0
H478 H 0.43681 0.9874 0.85371 0.0
H479 H 0.43638 0.9969 0.89524 0.0
H480 H 0.66252 0.42647 0.72341 0.0
H481 H 0.64577 0.44432 0.68667 0.0
H482 H 0.57603 0.42385 0.71158 0.0
H483 H 0.59248 0.40693 0.74863 0.0
H484 H 0.61951 0.42085 0.65379 0.0
H485 H 0.56814 0.49494 0.68933 0.0
H486 H 0.59032 0.47891 0.70648 0.0
H487 H 0.56128 0.46537 0.70355 0.0
C488 C 0.64359 0.42621 0.72127 0.0
C489 C 0.62885 0.41529 0.73901 0.0
C490 C 0.63406 0.43626 0.70019 0.0
C491 C 0.60963 0.43574 0.69651 0.0
C492 C 0.59489 0.42494 0.7142 0.0
H493 H 0.51288 0.46516 0.58196 0.0
H494 H 0.53297 0.4528 0.61879 0.0
C495 C 0.60437 0.41496 0.73527 0.0
C496 C 0.59954 0.44533 0.67374 0.0
H497 H 0.55902 0.48461 0.64982 0.0
C498 C 0.6065 0.435 0.65287 0.0
C499 C 0.58255 0.4638 0.67258 0.0
C500 C 0.5753 0.47658 0.69416 0.0
C501 C 0.59634 0.44204 0.63099 0.0
C502 C 0.57895 0.46005 0.62996 0.0
C503 C 0.57228 0.4707 0.65072 0.0
C504 C 0.56703 0.46766 0.60755 0.0
C505 C 0.60371 0.42964 0.60924 0.0
C506 C 0.57953 0.4803 0.58913 0.0
C507 C 0.5681 0.48746 0.56806 0.0
C508 C 0.54396 0.4821 0.56507 0.0
C509 C 0.53149 0.46952 0.58365 0.0
C510 C 0.54292 0.46248 0.60472 0.0
H511 H 0.61388 0.41291 0.61371 0.0
H512 H 0.5881 0.42444 0.59858 0.0
H513 H 0.61495 0.4426 0.59813 0.0
H514 H 0.5981 0.48474 0.59112 0.0
H515 H 0.5782 0.49718 0.55412 0.0
H516 H 0.95245 0.62314 0.26911 0.0
H517 H 0.95527 0.61326 0.22789 0.0
H518 H 0.87996 0.60221 0.22453 0.0
H519 H 0.87695 0.61225 0.26593 0.0
H520 H 0.90352 0.56399 0.20805 0.0
H521 H 0.93957 0.65098 0.16643 0.0
H522 H 0.9564 0.64155 0.19201 0.0
H523 H 0.92604 0.64923 0.19524 0.0
C524 C 0.93641 0.61917 0.25949 0.0
C525 C 0.91447 0.61854 0.2708 0.0
C526 C 0.93804 0.6136 0.23588 0.0
C527 C 0.91777 0.60748 0.22299 0.0
C528 C 0.89579 0.6071 0.2341 0.0
H529 H 0.93398 0.53836 0.08596 0.0
H530 H 0.91342 0.56134 0.11545 0.0
C531 C 0.89413 0.61267 0.25778 0.0
C532 C 0.92008 0.59923 0.19871 0.0
H533 H 0.94853 0.61382 0.14677 0.0
C534 C 0.91272 0.57511 0.19435 0.0
C535 C 0.93189 0.61384 0.1808 0.0
C536 C 0.93868 0.64043 0.18378 0.0
C537 C 0.91878 0.5645 0.17335 0.0
C538 C 0.93238 0.57846 0.15636 0.0
C539 C 0.93815 0.60316 0.15992 0.0
C540 C 0.94432 0.56656 0.13722 0.0
C541 C 0.91225 0.53786 0.17022 0.0
C542 C 0.96841 0.56242 0.1396 0.0
C543 C 0.97997 0.54933 0.12307 0.0
C544 C 0.96772 0.54022 0.10371 0.0
C545 C 0.94375 0.5452 0.10076 0.0
C546 C 0.93204 0.5582 0.11755 0.0
H547 H 0.90219 0.52934 0.18547 0.0
H548 H 0.90141 0.53633 0.15402 0.0
H549 H 0.92839 0.5273 0.16797 0.0
H550 H 0.97816 0.56879 0.15464 0.0
H551 H 0.99854 0.5462 0.12552 0.0
H552 H 0.27568 0.11593 0.08104 0.0
H553 H 0.31095 0.0991 0.06444 0.0
H554 H 0.34378 0.09686 0.13316 0.0
H555 H 0.30851 0.11347 0.14991 0.0
H556 H 0.35561 0.11632 0.06136 0.0
H557 H 0.35463 0.02809 0.11493 0.0
H558 H 0.33004 0.04825 0.11402 0.0
H559 H 0.35507 0.05434 0.13257 0.0
C560 C 0.29041 0.11193 0.09266 0.0
C561 C 0.28905 0.116 0.11692 0.0
C562 C 0.3106 0.10218 0.08312 0.0
C563 C 0.33004 0.09618 0.09753 0.0
C564 C 0.32888 0.10058 0.12169 0.0
H565 H 0.46998 0.04125 0.07003 0.0
H566 H 0.43521 0.05858 0.08734 0.0
C567 C 0.30864 0.11018 0.13128 0.0
C568 C 0.35162 0.08594 0.08714 0.0
H569 H 0.38893 0.03771 0.09206 0.0
C570 C 0.36278 0.09906 0.06804 0.0
C571 C 0.36117 0.06339 0.09574 0.0
C572 C 0.3495 0.04756 0.11529 0.0
C573 C 0.38322 0.09054 0.05763 0.0
C574 C 0.39278 0.06807 0.0663 0.0
C575 C 0.38172 0.05497 0.08543 0.0
C576 C 0.41407 0.05771 0.05557 0.0
C577 C 0.3947 0.10594 0.0377 0.0
C578 C 0.41383 0.05115 0.03197 0.0
C579 C 0.43368 0.04115 0.02202 0.0
C580 C 0.45433 0.03744 0.03542 0.0
C581 C 0.45449 0.04395 0.0591 0.0
C582 C 0.43457 0.05382 0.06907 0.0
H583 H 0.38891 0.12524 0.03709 0.0
H584 H 0.41416 0.10596 0.03938 0.0
H585 H 0.38981 0.09811 0.02067 0.0
H586 H 0.39815 0.0535 0.02126 0.0
H587 H 0.43279 0.03625 1.0038 0.0
H588 H 0.29538 0.94188 0.57354 0.0
H589 H 0.25391 0.95097 0.567 0.0
H590 H 0.23451 0.87504 0.58432 0.0
H591 H 0.27592 0.86586 0.5914 0.0
H592 H 0.2212 0.92853 0.53484 0.0
H593 H 0.19453 0.91508 0.62915 0.0
H594 H 0.22488 0.91959 0.62035 0.0
H595 H 0.20997 0.89058 0.61678 0.0
C596 C 0.28227 0.92715 0.57607 0.0
C597 C 0.28888 0.90319 0.58308 0.0
C598 C 0.25865 0.93233 0.5722 0.0
C599 C 0.24123 0.9137 0.57542 0.0
C600 C 0.24773 0.88968 0.58201 0.0
H601 H 0.09656 0.9456 0.53043 0.0
H602 H 0.13182 0.92186 0.53908 0.0
C603 C 0.27138 0.88446 0.58583 0.0
C604 C 0.21627 0.91969 0.57196 0.0
H605 H 0.16534 0.92744 0.60179 0.0
C606 C 0.20885 0.92801 0.54937 0.0
C607 C 0.20037 0.91903 0.59106 0.0
C608 C 0.20774 0.91075 0.61578 0.0
C609 C 0.18605 0.93645 0.54546 0.0
C610 C 0.17027 0.93626 0.56465 0.0
C611 C 0.17747 0.92728 0.58712 0.0
C612 C 0.14732 0.94813 0.56221 0.0
C613 C 0.17939 0.94664 0.5211 0.0
C614 C 0.14398 0.97008 0.57323 0.0
C615 C 0.12391 0.98355 0.56843 0.0
C616 C 0.10678 0.97525 0.55259 0.0
C617 C 0.10943 0.95241 0.54276 0.0
C618 C 0.12961 0.93894 0.54753 0.0
H619 H 0.19481 0.94889 0.50915 0.0
H620 H 0.16639 0.93393 0.51319 0.0
H621 H 0.17113 0.96474 0.52209 0.0
H622 H 0.15743 0.97738 0.58471 0.0
H623 H 0.12211 1.00087 0.57653 0.0
H624 H 0.79801 0.37144 0.90297 0.0
H625 H 0.83225 0.38781 0.92376 0.0
H626 H 0.80008 0.45836 0.92452 0.0
H627 H 0.76577 0.44211 0.90357 0.0
H628 H 0.84557 0.46256 0.91088 0.0
H629 H 0.83855 0.40244 0.99276 0.0
H630 H 0.83912 0.38536 0.96668 0.0
H631 H 0.81494 0.40501 0.97143 0.0
C632 C 0.79811 0.39037 0.90779 0.0
C633 C 0.77912 0.40545 0.90173 0.0
C634 C 0.81765 0.39968 0.91976 0.0
C635 C 0.81852 0.42416 0.92615 0.0
C636 C 0.79971 0.43935 0.9199 0.0
H637 H 0.92829 0.48443 0.01783 0.0
H638 H 0.89033 0.46998 1.00216 0.0
C639 C 0.78019 0.43009 0.90782 0.0
C640 C 0.83952 0.43419 0.93838 0.0
H641 H 0.87526 0.4245 0.98643 0.0
C642 C 0.85193 0.45438 0.92751 0.0
C643 C 0.84761 0.42378 0.96029 0.0
C644 C 0.83423 0.40312 0.97361 0.0
C645 C 0.87266 0.46385 0.93749 0.0
C646 C 0.88149 0.45252 0.95866 0.0
C647 C 0.86863 0.43295 0.97003 0.0
C648 C 0.90447 0.46023 0.96874 0.0
C649 C 0.88489 0.48596 0.92524 0.0
C650 C 0.92503 0.45886 0.95544 0.0
C651 C 0.9466 0.46712 0.96426 0.0
C652 C 0.94815 0.4767 0.98673 0.0
C653 C 0.92767 0.47719 1.00045 0.0
C654 C 0.90599 0.46898 0.99152 0.0
H655 H 0.87258 0.49669 0.91373 0.0
H656 H 0.89288 0.49827 0.93821 0.0
H657 H 0.89912 0.47971 0.91392 0.0
H658 H 0.92436 0.45158 0.93808 0.0
H659 H 0.96205 0.46623 0.95329 0.0
H660 H 0.81455 0.54377 0.44973 0.0
H661 H 0.77394 0.53158 0.46036 0.0
H662 H 0.76059 0.60599 0.47693 0.0
H663 H 0.80081 0.61848 0.46594 0.0
H664 H 0.74342 0.54109 0.50473 0.0
H665 H 0.71679 0.58608 0.41853 0.0
H666 H 0.74641 0.57634 0.42446 0.0
H667 H 0.73623 0.60377 0.43656 0.0
C668 C 0.80305 0.55746 0.45597 0.0
C669 C 0.81084 0.58215 0.45678 0.0
C670 C 0.77996 0.55042 0.46217 0.0
C671 C 0.76436 0.56796 0.46922 0.0
C672 C 0.77246 0.59223 0.47149 0.0
H673 H 0.61671 0.58447 0.48267 0.0
H674 H 0.6595 0.5882 0.48146 0.0
C675 C 0.7955 0.59929 0.46533 0.0
C676 C 0.73902 0.56176 0.47161 0.0
H677 H 0.68634 0.57246 0.44462 0.0
C678 C 0.73087 0.54774 0.49158 0.0
C679 C 0.72287 0.57039 0.45427 0.0
C680 C 0.73091 0.58484 0.43212 0.0
C681 C 0.70667 0.54291 0.49509 0.0
C682 C 0.69048 0.5521 0.47798 0.0
C683 C 0.69881 0.56555 0.45775 0.0
C684 C 0.66471 0.54911 0.48097 0.0
C685 C 0.69854 0.52881 0.51736 0.0
C686 C 0.65345 0.52583 0.48129 0.0
C687 C 0.62887 0.52364 0.48191 0.0
C688 C 0.61523 0.54473 0.48195 0.0
C689 C 0.62667 0.56792 0.48218 0.0
C690 C 0.65113 0.57007 0.48167 0.0
H691 H 0.71276 0.52737 0.53084 0.0
H692 H 0.68329 0.53769 0.52507 0.0
H693 H 0.69284 0.50994 0.51309 0.0
H694 H 0.66361 0.50945 0.48032 0.0
H695 H 0.62053 0.50557 0.48153 0.0
H696 H 0.14029 0.26432 0.07216 0.0
H697 H 0.12203 0.30077 0.05375 0.0
H698 H 0.09721 0.31977 0.12176 0.0
H699 H 0.11627 0.28415 0.14043 0.0
H700 H 0.07648 0.31409 0.05132 0.0
H701 H 0.12783 0.38396 0.09843 0.0
H702 H 0.1359 0.35219 0.09906 0.0
H703 H 0.11324 0.36174 0.11827 0.0
C704 C 0.1313 0.27643 0.08332 0.0
C705 C 0.12997 0.27114 0.10791 0.0
C706 C 0.12066 0.29723 0.07268 0.0
C707 C 0.10851 0.31339 0.08633 0.0
C708 C 0.10689 0.30801 0.11081 0.0
H709 H 0.02548 0.44321 0.06228 0.0
H710 H 0.0451 0.40629 0.07749 0.0
C711 C 0.11757 0.28731 0.12146 0.0
C712 C 0.09711 0.33555 0.075 0.0
H713 H 0.0938 0.39793 0.07754 0.0
C714 C 0.08044 0.33243 0.05692 0.0
C715 C 0.10225 0.35962 0.08216 0.0
C716 C 0.12095 0.36466 0.10037 0.0
C717 C 0.06831 0.35248 0.04643 0.0
C718 C 0.0731 0.37643 0.05398 0.0
C719 C 0.08998 0.37959 0.07181 0.0
C720 C 0.06045 0.3984 0.04409 0.0
C721 C 0.04993 0.34776 0.02784 0.0
C722 C 0.06247 0.40645 0.02015 0.0
C723 C 0.05124 0.42771 0.01133 0.0
C724 C 0.03775 0.44144 0.02627 0.0
C725 C 0.03562 0.43315 0.05018 0.0
C726 C 0.0469 0.41201 0.05897 0.0
H727 H 0.04462 0.328 0.02776 0.0
H728 H 0.03406 0.35857 0.03062 0.0
H729 H 0.05717 0.35354 0.01019 0.0
H730 H 0.07313 0.39656 0.00836 0.0
H731 H 0.05343 0.43359 0.99289 0.0
H732 H 0.59032 0.26607 0.90702 0.0
H733 H 0.5713 0.22902 0.92562 0.0
H734 H 0.62801 0.18565 0.90232 0.0
H735 H 0.64747 0.2228 0.88449 0.0
H736 H 0.5544 0.18834 0.90838 0.0
H737 H 0.6263 0.16409 0.97074 0.0
H738 H 0.62599 0.19313 0.95386 0.0
H739 H 0.63615 0.16611 0.94072 0.0
C740 C 0.5987 0.2486 0.90594 0.0
C741 C 0.62043 0.24727 0.89452 0.0
C742 C 0.58785 0.22747 0.91657 0.0
C743 C 0.59845 0.2046 0.91581 0.0
C744 C 0.61986 0.20317 0.90381 0.0
H745 H 0.52641 0.06275 0.94164 0.0
H746 H 0.54347 0.10125 0.92417 0.0
C747 C 0.6309 0.22436 0.89352 0.0
C748 C 0.58689 0.18222 0.92721 0.0
H749 H 0.5963 0.13325 0.96598 0.0
C750 C 0.5635 0.17638 0.92111 0.0
C751 C 0.5986 0.16684 0.94415 0.0
C752 C 0.62305 0.17299 0.95295 0.0
C753 C 0.55166 0.15538 0.93115 0.0
C754 C 0.5638 0.13931 0.94714 0.0
C755 C 0.58705 0.14539 0.95352 0.0
C756 C 0.5528 0.11618 0.95764 0.0
C757 C 0.52612 0.151 0.92487 0.0
C758 C 0.55298 0.11137 0.98223 0.0
C759 C 0.54376 0.08914 0.99221 0.0
C760 C 0.53397 0.07136 0.9778 0.0
C761 C 0.53358 0.07625 0.9532 0.0
C762 C 0.54318 0.09833 0.94321 0.0
H763 H 0.51764 0.16841 0.91899 0.0
H764 H 0.52489 0.13858 0.91008 0.0
H765 H 0.51611 0.14236 0.94008 0.0
H766 H 0.56038 0.12481 0.99374 0.0
H767 H 0.54429 0.0859 0.01123 0.0
H768 H 0.93776 0.75297 0.45699 0.0
H769 H 0.95411 0.7925 0.46828 0.0
H770 H 0.02 0.7774 0.43568 0.0
H771 H 1.00376 0.73761 0.42433 0.0
H772 H 0.99382 0.8053 0.49528 0.0
H773 H 1.00066 0.84257 0.40202 0.0
H774 H 0.9842 0.81463 0.4103 0.0
H775 H 0.01574 0.81461 0.40921 0.0
C776 C 0.95587 0.75782 0.45256 0.0
C777 C 0.96943 0.74218 0.43966 0.0
C778 C 0.96516 0.78048 0.45895 0.0
C779 C 0.98815 0.788 0.45254 0.0
C780 C 1.00207 0.77211 0.44041 0.0
H781 H 0.04432 0.92855 0.50347 0.0
H782 H 0.04262 0.88522 0.49384 0.0
C783 C 0.99276 0.74942 0.43395 0.0
C784 C 0.99692 0.81296 0.45777 0.0
H785 H 0.01109 0.86936 0.43154 0.0
C786 C 0.99793 0.81927 0.4814 0.0
C787 C 1.00207 0.83112 0.43955 0.0
C788 C 1.00049 0.82557 0.41382 0.0
C789 C 1.0032 0.84348 0.48729 0.0
C790 C 0.00789 0.86173 0.46904 0.0
C791 C 0.00767 0.85524 0.44546 0.0
C792 C 0.01024 0.8881 0.47381 0.0
C793 C 1.00252 0.84962 0.51287 0.0
C794 C 0.99299 0.90413 0.46516 0.0
C795 C 0.99394 0.92876 0.47051 0.0
C796 C 0.01224 0.93793 0.48458 0.0
C797 C 0.02996 0.92201 0.49266 0.0
C798 C 0.02895 0.89725 0.48729 0.0
H799 H 0.9949 0.83425 0.52437 0.0
H800 H 0.02067 0.85368 0.5191 0.0
H801 H 0.99203 0.8662 0.51494 0.0
H802 H 0.97843 0.89742 0.45468 0.0
H803 H 0.98007 0.94051 0.46389 0.0
H804 H 0.47772 0.76015 0.58451 0.0
H805 H 0.48743 0.71835 0.5751 0.0
H806 H 0.41661 0.69327 0.59223 0.0
H807 H 0.40675 0.73495 0.60152 0.0
H808 H 0.48485 0.67353 0.60216 0.0
H809 H 0.42472 0.67273 0.52463 0.0
H810 H 0.4328 0.70053 0.53884 0.0
H811 H 0.41089 0.67952 0.55177 0.0
C812 C 0.46431 0.74566 0.58648 0.0
C813 C 0.44141 0.75082 0.59346 0.0
C814 C 0.46985 0.72185 0.58105 0.0
C815 C 0.45259 0.70289 0.58254 0.0
C816 C 0.43 0.7078 0.59042 0.0
H817 H 0.45539 0.5501 0.54486 0.0
H818 H 0.44426 0.58864 0.56138 0.0
C819 C 0.42441 0.73158 0.59572 0.0
C820 C 0.4581 0.67809 0.57539 0.0
H821 H 0.44362 0.63571 0.53537 0.0
C822 C 0.47585 0.66523 0.58758 0.0
C823 C 0.44626 0.66736 0.55636 0.0
C824 C 0.42775 0.68079 0.54198 0.0
C825 C 0.48206 0.64181 0.58125 0.0
C826 C 0.47038 0.63123 0.5621 0.0
C827 C 0.45241 0.64391 0.55014 0.0
C828 C 0.47743 0.60762 0.55327 0.0
C829 C 0.50099 0.62852 0.59511 0.0
C830 C 0.49964 0.60575 0.54311 0.0
C831 C 0.50599 0.58393 0.53357 0.0
C832 C 0.4902 0.56356 0.53401 0.0
C833 C 0.46796 0.56545 0.54433 0.0
C834 C 0.46158 0.58739 0.55377 0.0
H835 H 0.50394 0.63617 0.61265 0.0
H836 H 0.49642 0.60861 0.59772 0.0
H837 H 0.51775 0.6305 0.58516 0.0
H838 H 0.51193 0.62134 0.54219 0.0
H839 H 0.52324 0.58309 0.52572 0.0
H840 H 0.85511 0.90862 0.71795 0.0
H841 H 0.87342 0.92558 0.68131 0.0
H842 H 0.94205 0.91568 0.7123 0.0
H843 H 0.92397 0.89884 0.74894 0.0
H844 H 0.90299 0.96591 0.67193 0.0
H845 H 0.94849 0.88142 0.65125 0.0
H846 H 0.92596 0.88147 0.6735 0.0
H847 H 0.95554 0.89166 0.68001 0.0
C848 C 0.87411 0.91017 0.71708 0.0
C849 C 0.88798 0.90207 0.73651 0.0
C850 C 0.88458 0.9198 0.69601 0.0
C851 C 0.90919 0.9215 0.69372 0.0
C852 C 0.92306 0.91396 0.71325 0.0
H853 H 0.0084 0.97444 0.58417 0.0
H854 H 0.98881 0.95835 0.62041 0.0
C855 C 0.91264 0.90431 0.73429 0.0
C856 C 0.92034 0.93145 0.67112 0.0
H857 H 0.959 0.91776 0.62807 0.0
C858 C 0.91512 0.9553 0.66227 0.0
C859 C 0.93622 0.91771 0.65839 0.0
C860 C 0.94174 0.89156 0.66611 0.0
C861 C 0.9257 0.96593 0.64153 0.0
C862 C 0.94172 0.95225 0.62891 0.0
C863 C 0.94683 0.92836 0.63769 0.0
C864 C 0.9535 0.96238 0.6067 0.0
C865 C 0.92013 0.99203 0.63369 0.0
C866 C 0.94029 0.96982 0.58665 0.0
C867 C 0.95147 0.97907 0.56583 0.0
C868 C 0.97618 0.981 0.56447 0.0
C869 C 0.98936 0.97333 0.58452 0.0
C870 C 0.97816 0.96407 0.6053 0.0
H871 H 0.91274 1.00205 0.64831 0.0
H872 H 0.93606 1.00228 0.62686 0.0
H873 H 0.90686 0.99183 0.61928 0.0
H874 H 0.92127 0.96824 0.58699 0.0
H875 H 0.94071 0.98464 0.55076 0.0
H876 H 0.52623 0.07907 0.30376 0.0
H877 H 0.51751 0.06481 0.26436 0.0
H878 H 0.58856 0.04029 0.2592 0.0
H879 H 0.59742 0.05451 0.29829 0.0
H880 H 0.53948 0.08153 0.22319 0.0
H881 H 0.55049 0.98133 0.23781 0.0
H882 H 0.54704 1.00125 0.26181 0.0
H883 H 0.57528 0.99883 0.24813 0.0
C884 C 0.53992 0.07046 0.29428 0.0
C885 C 0.56248 0.06781 0.30421 0.0
C886 C 0.53488 0.06223 0.27185 0.0
C887 C 0.55227 0.0511 0.25905 0.0
C888 C 0.57468 0.04818 0.26904 0.0
H889 H 0.58408 0.01525 0.11923 0.0
H890 H 0.58205 0.02176 0.16143 0.0
C891 C 0.57972 0.05635 0.29141 0.0
C892 C 0.54777 0.0444 0.23447 0.0
H893 H 0.55252 0.99761 0.1975 0.0
C894 C 0.5419 0.06309 0.21761 0.0
C895 C 0.55097 0.02033 0.22727 0.0
C896 C 0.55606 0.99924 0.24476 0.0
C897 C 0.54031 0.05864 0.19353 0.0
C898 C 0.54441 0.03479 0.18625 0.0
C899 C 0.54948 0.0159 0.20318 0.0
C900 C 0.54499 0.02953 0.16099 0.0
C901 C 0.53537 0.07973 0.17596 0.0
C902 C 0.5247 0.03132 0.14691 0.0
C903 C 0.52584 0.02774 0.12274 0.0
C904 C 0.5473 0.02229 0.11228 0.0
C905 C 0.5674 0.01982 0.12665 0.0
C906 C 0.56623 0.02334 0.15078 0.0
H907 H 0.53693 0.09779 0.18404 0.0
H908 H 0.54764 0.07988 0.1608 0.0
H909 H 0.5172 0.0775 0.16902 0.0
H910 H 0.50808 0.03579 0.15455 0.0
H911 H 0.51007 0.02994 0.11218 0.0
H912 H 0.35681 0.58535 0.28884 0.0
H913 H 0.37346 0.56803 0.32591 0.0
H914 H 0.44325 0.58829 0.30114 0.0
H915 H 0.42691 0.60521 0.26398 0.0
H916 H 0.40895 0.53055 0.33343 0.0
H917 H 0.4373 0.62125 0.36521 0.0
H918 H 0.41589 0.61801 0.34188 0.0
H919 H 0.4467 0.61573 0.33585 0.0
C920 C 0.37572 0.58586 0.29116 0.0
C921 C 0.39051 0.59691 0.27351 0.0
C922 C 0.38517 0.57606 0.31239 0.0
C923 C 0.40953 0.57728 0.31637 0.0
C924 C 0.42437 0.58764 0.29858 0.0
H925 H 0.50744 0.53967 0.42778 0.0
H926 H 0.48718 0.55357 0.39158 0.0
C927 C 0.41497 0.59735 0.27738 0.0
C928 C 0.41959 0.56793 0.33916 0.0
H929 H 0.45115 0.586 0.3868 0.0
C930 C 0.41803 0.54263 0.34524 0.0
C931 C 0.43139 0.5838 0.35446 0.0
C932 C 0.4328 0.61125 0.3492 0.0
C933 C 0.42868 0.53264 0.3659 0.0
C934 C 0.44079 0.5485 0.38105 0.0
C935 C 0.44195 0.57386 0.37513 0.0
C936 C 0.45292 0.53923 0.40285 0.0
C937 C 0.42759 0.50516 0.37091 0.0
C938 C 0.44036 0.52665 0.42129 0.0
C939 C 0.45192 0.51856 0.44202 0.0
C940 C 0.47623 0.52312 0.44474 0.0
C941 C 0.48872 0.53581 0.42626 0.0
C942 C 0.47717 0.54379 0.40555 0.0
H943 H 0.42293 0.49529 0.35487 0.0
H944 H 0.44466 0.49847 0.37788 0.0
H945 H 0.41392 0.5004 0.38442 0.0
H946 H 0.42155 0.5234 0.41981 0.0
H947 H 0.44175 0.509 0.45599 0.0
H948 H 0.14278 0.39411 0.7487 0.0
H949 H 0.13933 0.40438 0.79 0.0
H950 H 0.06383 0.39655 0.78494 0.0
H951 H 0.06711 0.38636 0.74385 0.0
H952 H 0.11743 0.44374 0.80531 0.0
H953 H 0.07621 0.35949 0.8473 0.0
H954 H 0.09024 0.35997 0.81877 0.0
H955 H 0.0603 0.36937 0.82127 0.0
C956 C 0.12546 0.39439 0.75649 0.0
C957 C 0.1052 0.38941 0.74301 0.0
C958 C 0.12354 0.4001 0.7801 0.0
C959 C 0.10136 0.40077 0.79068 0.0
C960 C 0.08117 0.39539 0.77738 0.0
H961 H 0.02177 0.4687 0.8848 0.0
H962 H 0.04157 0.44464 0.85644 0.0
C963 C 0.08306 0.38965 0.75383 0.0
C964 C 0.09888 0.40958 0.81473 0.0
H965 H 0.06848 0.39762 0.86598 0.0
C966 C 0.10735 0.4334 0.8189 0.0
C967 C 0.08592 0.39598 0.83252 0.0
C968 C 0.07789 0.36968 0.82982 0.0
C969 C 0.10134 0.44477 0.8395 0.0
C970 C 0.08663 0.4319 0.85628 0.0
C971 C 0.07969 0.40745 0.85298 0.0
C972 C 0.07494 0.44487 0.87487 0.0
C973 C 0.10917 0.47111 0.84239 0.0
C974 C 0.08715 0.45264 0.89481 0.0
C975 C 0.0758 0.46651 0.91115 0.0
C976 C 0.05225 0.47294 0.90749 0.0
C977 C 0.04005 0.46449 0.88781 0.0
C978 C 0.05126 0.45055 0.87172 0.0
H979 H 0.12009 0.47874 0.82737 0.0
H980 H 0.09358 0.48267 0.84391 0.0
H981 H 0.11957 0.47232 0.85891 0.0
H982 H 0.10546 0.44832 0.8975 0.0
H983 H 0.08553 0.4728 0.92621 0.0
H984 H 0.71254 0.90108 0.86192 0.0
H985 H 0.67762 0.91784 0.87946 0.0
H986 H 0.71129 0.91399 0.94774 0.0
H987 H 0.7464 0.89768 0.93032 0.0
H988 H 0.64846 0.89673 0.91639 0.0
H989 H 0.68937 0.98529 0.94114 0.0
H990 H 0.70279 0.96604 0.92048 0.0
H991 H 0.70477 0.95852 0.95167 0.0
C992 C 0.71267 0.90404 0.88063 0.0
C993 C 0.73247 0.89804 0.89462 0.0
C994 C 0.69258 0.9135 0.89068 0.0
C995 C 0.69182 0.91752 0.91491 0.0
C996 C 0.71149 0.91146 0.92895 0.0
H997 H 0.58915 0.97634 0.00917 0.0
H998 H 0.62362 0.95912 0.99133 0.0
C999 C 0.73152 0.90187 0.91896 0.0
C1000 C 0.67037 0.92759 0.92558 0.0
H1001 H 0.65085 0.97591 0.95524 0.0
C1002 C 0.64895 0.91411 0.92479 0.0
C1003 C 0.67094 0.95021 0.93668 0.0
C1004 C 0.69312 0.96602 0.93743 0.0
C1005 C 0.62834 0.9223 0.93516 0.0
C1006 C 0.62885 0.94503 0.94617 0.0
C1007 C 0.65029 0.95852 0.94689 0.0
C1008 C 0.60746 0.95512 0.95708 0.0
C1009 C 0.60638 0.90609 0.93481 0.0
C1010 C 0.58675 0.95895 0.94386 0.0
C1011 C 0.56689 0.96864 0.95411 0.0
C1012 C 0.56727 0.97509 0.97781 0.0
C1013 C 0.5881 0.97152 0.99093 0.0
C1014 C 0.60791 0.96169 0.9807 0.0
H1015 H 0.61058 0.88663 0.93242 0.0
H1016 H 0.59621 0.90693 0.95137 0.0
H1017 H 0.59508 0.91238 0.91978 0.0
H1018 H 0.586 0.95476 0.92545 0.0
H1019 H 0.5513 0.97136 0.94334 0.0
H1020 H 0.70332 0.04057 0.46248 0.0
H1021 H 0.74396 0.02953 0.47142 0.0
H1022 H 0.765 0.10627 0.46844 0.0
H1023 H 0.72469 0.11744 0.4589 0.0
H1024 H 0.7908 0.07776 0.43916 0.0
H1025 H 0.78609 0.03556 0.53054 0.0
H1026 H 0.76446 0.02378 0.51058 0.0
H1027 H 0.76369 0.05529 0.51809 0.0
C1028 C 0.71657 0.05508 0.46397 0.0
C1029 C 0.71079 0.07987 0.45996 0.0
C1030 C 0.7397 0.04876 0.46934 0.0
C1031 C 0.75738 0.06712 0.47085 0.0
C1032 C 0.75154 0.09187 0.46756 0.0
H1033 H 0.9071 0.04963 0.50002 0.0
H1034 H 0.86619 0.06214 0.50169 0.0
C1035 C 0.72846 0.0982 0.46225 0.0
C1036 C 0.7823 0.06051 0.4733 0.0
H1037 H 0.82129 0.02959 0.50908 0.0
C1038 C 0.79752 0.06742 0.45454 0.0
C1039 C 0.79098 0.04716 0.49345 0.0
C1040 C 0.77554 0.04017 0.51443 0.0
C1041 C 0.82108 0.06072 0.45509 0.0
C1042 C 0.82954 0.04661 0.47482 0.0
C1043 C 0.81458 0.04028 0.49392 0.0
C1044 C 0.85375 0.03769 0.47537 0.0
C1045 C 0.83678 0.0686 0.43449 0.0
C1046 C 0.86002 0.01949 0.46037 0.0
C1047 C 0.88325 0.01219 0.45947 0.0
C1048 C 0.90069 0.02302 0.47352 0.0
C1049 C 0.89414 0.04078 0.48909 0.0
C1050 C 0.87081 0.04802 0.49003 0.0
H1051 H 0.82892 0.08333 0.4229 0.0
H1052 H 0.85422 0.07527 0.4408 0.0
H1053 H 0.83964 0.05259 0.42375 0.0
H1054 H 0.84695 0.01117 0.44911 0.0
H1055 H 0.88753 0.99809 0.44768 0.0
H1056 H 0.25929 0.60597 0.07309 0.0
H1057 H 0.22345 0.5923 0.05292 0.0
H1058 H 0.18611 0.58853 0.11901 0.0
H1059 H 0.22171 0.60262 0.13925 0.0
H1060 H 0.19513 0.54811 0.06253 0.0
H1061 H 0.14575 0.63288 0.07381 0.0
H1062 H 0.17727 0.63174 0.07736 0.0
H1063 H 0.15818 0.6194 0.10053 0.0
C1064 C 0.2434 0.60237 0.08331 0.0
C1065 C 0.2433 0.60551 0.10776 0.0
C1066 C 0.223 0.59445 0.07177 0.0
C1067 C 0.20209 0.58976 0.08442 0.0
C1068 C 0.20201 0.59242 0.10888 0.0
H1069 H 0.06023 0.54175 0.05983 0.0
H1070 H 0.09787 0.55727 0.07432 0.0
C1071 C 0.22242 0.60022 0.12045 0.0
C1072 C 0.18033 0.58196 0.07211 0.0
H1073 H 0.12406 0.59872 0.05987 0.0
C1074 C 0.17962 0.55922 0.06172 0.0
C1075 C 0.16022 0.59659 0.07106 0.0
C1076 C 0.16034 0.62162 0.08109 0.0
C1077 C 0.15896 0.55025 0.05111 0.0
C1078 C 0.13868 0.56469 0.05046 0.0
C1079 C 0.13962 0.58769 0.06038 0.0
C1080 C 0.11587 0.55565 0.04098 0.0
C1081 C 0.15875 0.525 0.04154 0.0
C1082 C 0.11335 0.54991 0.01726 0.0
C1083 C 0.09175 0.54089 0.00886 0.0
C1084 C 0.07229 0.53766 0.02403 0.0
C1085 C 0.07482 0.54396 0.04763 0.0
C1086 C 0.09635 0.55287 0.05598 0.0
H1087 H 0.17395 0.5142 0.04808 0.0
H1088 H 0.14227 0.51457 0.04647 0.0
H1089 H 0.15969 0.52685 0.02198 0.0
H1090 H 0.12808 0.55238 1.00526 0.0
H1091 H 0.09035 0.5363 0.99057 0.0
H1092 H 0.20247 0.42749 0.52397 0.0
H1093 H 0.24213 0.4398 0.51014 0.0
H1094 H 0.26349 0.45173 0.5817 0.0
H1095 H 0.22436 0.43919 0.59568 0.0
H1096 H 0.28028 0.48878 0.54709 0.0
H1097 H 0.29762 0.39309 0.52384 0.0
H1098 H 0.27225 0.40737 0.51069 0.0
H1099 H 0.27305 0.40019 0.54195 0.0
C1100 C 0.2156 0.43284 0.53673 0.0
C1101 C 0.21022 0.43227 0.56095 0.0
C1102 C 0.23819 0.43993 0.52879 0.0
C1103 C 0.25572 0.44646 0.54496 0.0
C1104 C 0.25015 0.44687 0.56894 0.0
H1105 H 0.4018 0.4378 0.56112 0.0
H1106 H 0.35894 0.43564 0.56115 0.0
C1107 C 0.22769 0.43978 0.57688 0.0
C1108 C 0.28041 0.45117 0.53754 0.0
H1109 H 0.3293 0.42157 0.52149 0.0
C1110 C 0.29097 0.47427 0.54106 0.0
C1111 C 0.29424 0.43205 0.52991 0.0
C1112 C 0.28388 0.4067 0.52647 0.0
C1113 C 0.31526 0.4785 0.53798 0.0
C1114 C 0.32918 0.45913 0.53112 0.0
C1115 C 0.31847 0.43635 0.52669 0.0
C1116 C 0.35513 0.46122 0.53089 0.0
C1117 C 0.32611 0.50316 0.54327 0.0
C1118 C 0.36714 0.47638 0.51384 0.0
C1119 C 0.39175 0.47753 0.51366 0.0
C1120 C 0.40469 0.46348 0.53051 0.0
C1121 C 0.39246 0.44854 0.54767 0.0
C1122 C 0.36795 0.44737 0.54779 0.0
H1123 H 0.31325 0.5153 0.55103 0.0
H1124 H 0.34113 0.50075 0.5557 0.0
H1125 H 0.33302 0.51247 0.52671 0.0
H1126 H 0.35749 0.48699 0.50049 0.0
H1127 H 0.40059 0.48897 0.50001 0.0
H1128 H 0.90478 0.72973 0.87037 0.0
H1129 H 0.92405 0.69448 0.88971 0.0
H1130 H 0.90004 0.71536 0.95736 0.0
H1131 H 0.8811 0.75104 0.93828 0.0
H1132 H 0.95953 0.69404 0.9253 0.0
H1133 H 0.87889 0.64235 0.95656 0.0
H1134 H 0.87814 0.66723 0.93414 0.0
H1135 H 0.88143 0.67369 0.96469 0.0
C1136 C 0.9037 0.72706 0.88939 0.0
C1137 C 0.89126 0.74347 0.90265 0.0
C1138 C 0.91465 0.70671 0.90043 0.0
C1139 C 0.91331 0.70199 0.925 0.0
C1140 C 0.90097 0.71827 0.93834 0.0
H1141 H 0.96728 0.5811 0.01784 0.0
H1142 H 0.94872 0.61885 1.00242 0.0
C1143 C 0.89008 0.73871 0.92733 0.0
C1144 C 0.9253 0.68039 0.93658 0.0
H1145 H 0.91529 0.62582 0.9684 0.0
C1146 C 0.94984 0.67913 0.93471 0.0
C1147 C 0.91275 0.66096 0.94907 0.0
C1148 C 0.88632 0.66089 0.95115 0.0
C1149 C 0.96214 0.65913 0.94499 0.0
C1150 C 0.94955 0.63939 0.95703 0.0
C1151 C 0.92502 0.64084 0.95921 0.0
C1152 C 0.96138 0.61674 0.9667 0.0
C1153 C 0.9886 0.65964 0.94318 0.0
C1154 C 0.97456 0.60272 0.95185 0.0
C1155 C 0.9853 0.58126 0.96064 0.0
C1156 C 0.98295 0.57299 0.98452 0.0
C1157 C 0.96962 0.58695 0.9994 0.0
C1158 C 0.95891 0.60853 0.99057 0.0
H1159 H 0.99586 0.67874 0.94053 0.0
H1160 H 0.99676 0.65088 0.95925 0.0
H1161 H 0.99374 0.64945 0.92773 0.0
H1162 H 0.97627 0.60815 0.93326 0.0
H1163 H 0.9952 0.57096 0.94854 0.0
H1164 H 0.39475 0.75633 0.08038 0.0
H1165 H 0.41373 0.79429 0.06385 0.0
H1166 H 0.43418 0.81379 0.13375 0.0
H1167 H 0.41474 0.77621 0.15058 0.0
H1168 H 0.40321 0.84428 0.07682 0.0
H1169 H 0.49618 0.81927 0.0936 0.0
H1170 H 0.47246 0.79653 0.09284 0.0
H1171 H 0.47628 0.8146 0.1181 0.0
C1172 C 0.40311 0.76875 0.0923 0.0
C1173 C 0.4032 0.76318 0.11684 0.0
C1174 C 0.41408 0.79034 0.08279 0.0
C1175 C 0.42555 0.80663 0.09758 0.0
C1176 C 0.42575 0.8012 0.12203 0.0
H1177 H 0.50181 0.94607 0.07067 0.0
H1178 H 0.48442 0.90781 0.0885 0.0
C1179 C 0.41467 0.77968 0.13159 0.0
C1180 C 0.43663 0.82973 0.08744 0.0
H1181 H 0.48962 0.85965 0.07812 0.0
C1182 C 0.4221 0.84767 0.07703 0.0
C1183 C 0.46123 0.83406 0.08796 0.0
C1184 C 0.47756 0.81509 0.09856 0.0
C1185 C 0.43153 0.87004 0.06727 0.0
C1186 C 0.45621 0.87425 0.06738 0.0
C1187 C 0.47072 0.85634 0.07799 0.0
C1188 C 0.46728 0.89704 0.0564 0.0
C1189 C 0.41492 0.88914 0.05738 0.0
C1190 C 0.46384 0.90338 0.03233 0.0
C1191 C 0.4736 0.92526 0.02214 0.0
C1192 C 0.48729 0.94107 0.03576 0.0
C1193 C 0.49133 0.93431 0.05971 0.0
C1194 C 0.48141 0.91247 0.06993 0.0
H1195 H 0.39694 0.88612 0.06475 0.0
H1196 H 0.4213 0.90796 0.06115 0.0
H1197 H 0.41365 0.88799 0.03795 0.0
H1198 H 0.45351 0.89143 0.02142 0.0
H1199 H 0.47033 0.92981 1.00359 0.0
H1200 H 0.08111 0.25956 0.55212 0.0
H1201 H 0.06346 0.22123 0.53932 0.0
H1202 H 0.99884 0.23633 0.57434 0.0
H1203 H 0.01638 0.27494 0.58716 0.0
H1204 H 0.01447 0.19036 0.58628 0.0
H1205 H 0.0146 0.2064 0.48915 0.0
H1206 H 0.0429 0.21296 0.5018 0.0
H1207 H 0.01824 0.23107 0.50888 0.0
C1208 C 0.06295 0.25507 0.55663 0.0
C1209 C 0.05014 0.27035 0.57062 0.0
C1210 C 0.05287 0.23314 0.54926 0.0
C1211 C 0.02971 0.22611 0.55555 0.0
C1212 C 0.0167 0.2415 0.56917 0.0
H1213 H 0.97392 0.08683 0.50284 0.0
H1214 H 0.97534 0.13 0.51307 0.0
C1215 C 0.02679 0.26347 0.57658 0.0
C1216 C 0.02002 0.20169 0.54966 0.0
H1217 H 0.01295 0.16396 0.50405 0.0
C1218 C 0.01371 0.18472 0.56826 0.0
C1219 C 0.01865 0.19444 0.52614 0.0
C1220 C 0.02372 0.21227 0.50534 0.0
C1221 C 0.00754 0.16026 0.56408 0.0
C1222 C 0.00804 0.15254 0.54073 0.0
C1223 C 0.01284 0.16986 0.52198 0.0
C1224 C 1.00594 0.12624 0.53566 0.0
C1225 C 1.0011 0.14275 0.58476 0.0
C1226 C 0.02272 0.10997 0.54489 0.0
C1227 C 0.02202 0.08548 0.53906 0.0
C1228 C 1.00455 0.07674 0.52377 0.0
C1229 C 0.98753 0.093 0.51474 0.0
C1230 C 0.98833 0.11763 0.52053 0.0
H1231 H 0.99426 0.15267 0.59972 0.0
H1232 H 0.98765 0.12881 0.57969 0.0
H1233 H 0.01702 0.13303 0.59102 0.0
H1234 H 0.03676 0.11636 0.55619 0.0
H1235 H 0.03544 0.0735 0.54629 0.0
H1236 H 0.56028 0.25692 0.39442 0.0
H1237 H 0.55083 0.2988 0.40331 0.0
H1238 H 0.58671 0.28958 0.47028 0.0
H1239 H 0.59484 0.24732 0.46231 0.0
H1240 H 0.54592 0.30959 0.47555 0.0
H1241 H 0.59255 0.35966 0.40104 0.0
H1242 H 0.5713 0.33733 0.3915 0.0
H1243 H 0.59647 0.32742 0.40846 0.0
C1244 C 0.56599 0.26371 0.41113 0.0
C1245 C 0.57844 0.24871 0.42759 0.0
C1246 C 0.56092 0.28782 0.41601 0.0
C1247 C 0.56852 0.29751 0.43723 0.0
C1248 C 0.58088 0.28258 0.45368 0.0
H1249 H 0.56736 0.45053 0.47359 0.0
H1250 H 0.57868 0.41031 0.46092 0.0
C1251 C 0.58569 0.25844 0.44898 0.0
C1252 C 0.5626 0.32273 0.44303 0.0
H1253 H 0.5669 0.3831 0.42343 0.0
C1254 C 0.55062 0.32566 0.46419 0.0
C1255 C 0.56905 0.34373 0.42838 0.0
C1256 C 0.58327 0.34195 0.4062 0.0
C1257 C 0.54469 0.34894 0.47101 0.0
C1258 C 0.55016 0.36983 0.45585 0.0
C1259 C 0.56246 0.36701 0.43486 0.0
C1260 C 0.54322 0.39471 0.46164 0.0
C1261 C 0.53305 0.3509 0.49466 0.0
C1262 C 0.5195 0.39945 0.46548 0.0
C1263 C 0.51307 0.42216 0.47301 0.0
C1264 C 0.5302 0.44076 0.47634 0.0
C1265 C 0.55381 0.43649 0.47123 0.0
C1266 C 0.56029 0.41356 0.46399 0.0
H1267 H 0.53661 0.33474 0.50685 0.0
H1268 H 0.53917 0.36777 0.5032 0.0
H1269 H 0.51373 0.35164 0.4921 0.0
H1270 H 0.50598 0.38539 0.46308 0.0
H1271 H 0.49468 0.42506 0.47645 0.0
loop_
_geom_bond_atom_site_label_1
_geom_bond_atom_site_label_2
_geom_bond_distance
_geom_bond_site_symmetry_2
_ccdc_geom_bond_type
C0 C1 1.384 . S
C0 H13 0.947 . S
C0 C35 1.382 . S
C1 C0 1.384 . S
C1 C2 1.378 . S
C2 C1 1.378 . S
C2 C3 1.378 . S
C2 H14 0.952 . S
C3 C2 1.378 . S
C3 H15 0.950 . S
C3 C34 1.383 . S
H4 C23 0.947 . S
H5 C24 0.946 . S
H6 C26 0.953 . S
H7 C27 0.945 . S
H8 C29 0.952 . S
H9 C30 0.949 . S
H10 C32 0.950 . S
H11 C33 0.948 . S
H12 C35 0.951 . S
H13 C0 0.947 . S
H14 C2 0.952 . S
H15 C3 0.950 . S
N16 C19 1.382 . S
N16 C21 1.363 . S
N17 C19 1.371 . S
N17 C20 1.372 . S
N18 C20 1.361 . S
N18 C21 1.377 . S
C19 N16 1.382 . S
C19 N17 1.371 . S
C19 C22 1.480 . S
C20 N17 1.372 . S
C20 N18 1.361 . S
C20 C28 1.457 . S
C21 N16 1.363 . S
C21 N18 1.377 . S
C21 C34 1.479 . S
C22 C19 1.480 . S
C22 C23 1.383 . S
C22 C27 1.385 . S
C23 H4 0.947 . S
C23 C22 1.383 . S
C23 C24 1.388 . S
C24 H5 0.946 . S
C24 C23 1.388 . S
C24 C25 1.384 . S
C25 C24 1.384 . S
C25 C26 1.377 . S
C26 H6 0.953 . S
C26 C25 1.377 . S
C26 C27 1.369 . S
C27 H7 0.945 . S
C27 C22 1.385 . S
C27 C26 1.369 . S
C28 C20 1.457 . S
C28 C29 1.372 . S
C28 C33 1.364 . S
C29 H8 0.952 . S
C29 C28 1.372 . S
C29 C30 1.389 . S
C30 H9 0.949 . S
C30 C29 1.389 . S
C30 C31 1.387 . S
C31 C30 1.387 . S
C31 C32 1.372 . S
C32 H10 0.950 . S
C32 C31 1.372 . S
C32 C33 1.379 . S
C33 H11 0.948 . S
C33 C28 1.364 . S
C33 C32 1.379 . S
C34 C3 1.383 . S
C34 C21 1.479 . S
C34 C35 1.398 . S
C35 C0 1.382 . S
C35 H12 0.951 . S
C35 C34 1.398 . S
C36 C37 1.384 . S
C36 H49 0.947 . S
C36 C71 1.382 . S
C37 C36 1.384 . S
C37 C38 1.378 . S
C38 C37 1.378 . S
C38 C39 1.378 . S
C38 H50 0.952 . S
C39 C38 1.378 . S
C39 H51 0.950 . S
C39 C70 1.383 . S
H40 C59 0.947 . S
H41 C60 0.946 . S
H42 C62 0.953 . S
H43 C63 0.945 . S
H44 C65 0.952 . S
H45 C66 0.949 . S
H46 C68 0.950 . S
H47 C69 0.948 . S
H48 C71 0.951 . S
H49 C36 0.947 . S
H50 C38 0.952 . S
H51 C39 0.950 . S
N52 C55 1.382 . S
N52 C57 1.363 . S
N53 C55 1.371 . S
N53 C56 1.372 . S
N54 C56 1.361 . S
N54 C57 1.377 . S
C55 N52 1.382 . S
C55 N53 1.371 . S
C55 C58 1.480 . S
C56 N53 1.372 . S
C56 N54 1.361 . S
C56 C64 1.457 . S
C57 N52 1.363 . S
C57 N54 1.377 . S
C57 C70 1.479 . S
C58 C55 1.480 . S
C58 C59 1.383 . S
C58 C63 1.385 . S
C59 H40 0.947 . S
C59 C58 1.383 . S
C59 C60 1.388 . S
C60 H41 0.946 . S
C60 C59 1.388 . S
C60 C61 1.384 . S
C61 C60 1.384 . S
C61 C62 1.377 . S
C62 H42 0.953 . S
C62 C61 1.377 . S
C62 C63 1.369 . S
C63 H43 0.945 . S
C63 C58 1.385 . S
C63 C62 1.369 . S
C64 C56 1.457 . S
C64 C65 1.372 . S
C64 C69 1.364 . S
C65 H44 0.952 . S
C65 C64 1.372 . S
C65 C66 1.389 . S
C66 H45 0.949 . S
C66 C65 1.389 . S
C66 C67 1.387 . S
C67 C66 1.387 . S
C67 C68 1.372 . S
C68 H46 0.950 . S
C68 C67 1.372 . S
C68 C69 1.379 . S
C69 H47 0.948 . S
C69 C64 1.364 . S
C69 C68 1.379 . S
C70 C39 1.383 . S
C70 C57 1.479 . S
C70 C71 1.398 . S
C71 C36 1.382 . S
C71 H48 0.951 . S
C71 C70 1.398 . S
C72 C73 1.384 . S
C72 H85 0.947 . S
C72 C107 1.382 . S
C73 C72 1.384 . S
C73 C74 1.378 . S
C74 C73 1.378 . S
C74 C75 1.378 . S
C74 H86 0.952 . S
C75 C74 1.378 . S
C75 H87 0.950 . S
C75 C106 1.383 . S
H76 C95 0.947 . S
H77 C96 0.946 . S
H78 C98 0.953 . S
H79 C99 0.945 . S
H80 C101 0.952 . S
H81 C102 0.949 . S
H82 C104 0.950 . S
H83 C105 0.948 . S
H84 C107 0.951 . S
H85 C72 0.947 . S
H86 C74 0.952 . S
H87 C75 0.950 . S
N88 C91 1.382 . S
N88 C93 1.363 . S
N89 C91 1.371 . S
N89 C92 1.372 . S
N90 C92 1.361 . S
N90 C93 1.377 . S
C91 N88 1.382 . S
C91 N89 1.371 . S
C91 C94 1.480 . S
C92 N89 1.372 . S
C92 N90 1.361 . S
C92 C100 1.457 . S
C93 N88 1.363 . S
C93 N90 1.377 . S
C93 C106 1.479 . S
C94 C91 1.480 . S
C94 C95 1.383 . S
C94 C99 1.385 . S
C95 H76 0.947 . S
C95 C94 1.383 . S
C95 C96 1.388 . S
C96 H77 0.946 . S
C96 C95 1.388 . S
C96 C97 1.384 . S
C97 C96 1.384 . S
C97 C98 1.377 . S
C98 H78 0.953 . S
C98 C97 1.377 . S
C98 C99 1.369 . S
C99 H79 0.945 . S
C99 C94 1.385 . S
C99 C98 1.369 . S
C100 C92 1.457 . S
C100 C101 1.372 . S
C100 C105 1.364 . S
C101 H80 0.952 . S
C101 C100 1.372 . S
C101 C102 1.389 . S
C102 H81 0.949 . S
C102 C101 1.389 . S
C102 C103 1.387 . S
C103 C102 1.387 . S
C103 C104 1.372 . S
C104 H82 0.950 . S
C104 C103 1.372 . S
C104 C105 1.379 . S
C105 H83 0.948 . S
C105 C100 1.364 . S
C105 C104 1.379 . S
C106 C75 1.383 . S
C106 C93 1.479 . S
C106 C107 1.398 . S
C107 C72 1.382 . S
C107 H84 0.951 . S
C107 C106 1.398 . S
C108 C109 1.384 . S
C108 H121 0.947 . S
C108 C143 1.382 . S
C109 C108 1.384 . S
C109 C110 1.378 . S
C110 C109 1.378 . S
C110 C111 1.378 . S
C110 H122 0.952 . S
C111 C110 1.378 . S
C111 H123 0.950 . S
C111 C142 1.383 . S
H112 C131 0.947 . S
H113 C132 0.946 . S
H114 C134 0.953 . S
H115 C135 0.945 . S
H116 C137 0.952 . S
H117 C138 0.949 . S
H118 C140 0.950 . S
H119 C141 0.948 . S
H120 C143 0.951 . S
H121 C108 0.947 . S
H122 C110 0.952 . S
H123 C111 0.950 . S
N124 C127 1.382 . S
N124 C129 1.363 . S
N125 C127 1.371 . S
N125 C128 1.372 . S
N126 C128 1.361 . S
N126 C129 1.377 . S
C127 N124 1.382 . S
C127 N125 1.371 . S
C127 C130 1.480 . S
C128 N125 1.372 . S
C128 N126 1.361 . S
C128 C136 1.457 . S
C129 N124 1.363 . S
C129 N126 1.377 . S
C129 C142 1.479 . S
C130 C127 1.480 . S
C130 C131 1.383 . S
C130 C135 1.385 . S
C131 H112 0.947 . S
C131 C130 1.383 . S
C131 C132 1.388 . S
C132 H113 0.946 . S
C132 C131 1.388 . S
C132 C133 1.384 . S
C133 C132 1.384 . S
C133 C134 1.377 . S
C134 H114 0.953 . S
C134 C133 1.377 . S
C134 C135 1.369 . S
C135 H115 0.945 . S
C135 C130 1.385 . S
C135 C134 1.369 . S
C136 C128 1.457 . S
C136 C137 1.372 . S
C136 C141 1.364 . S
C137 H116 0.952 . S
C137 C136 1.372 . S
C137 C138 1.389 . S
C138 H117 0.949 . S
C138 C137 1.389 . S
C138 C139 1.387 . S
C139 C138 1.387 . S
C139 C140 1.372 . S
C140 H118 0.950 . S
C140 C139 1.372 . S
C140 C141 1.379 . S
C141 H119 0.948 . S
C141 C136 1.364 . S
C141 C140 1.379 . S
C142 C111 1.383 . S
C142 C129 1.479 . S
C142 C143 1.398 . S
C143 C108 1.382 . S
C143 H120 0.951 . S
C143 C142 1.398 . S
C144 C145 1.384 . S
C144 H157 0.947 . S
C144 C179 1.382 . S
C145 C144 1.384 . S
C145 C146 1.378 . S
C146 C145 1.378 . S
C146 C147 1.378 . S
C146 H158 0.952 . S
C147 C146 1.378 . S
C147 H159 0.950 . S
C147 C178 1.383 . S
H148 C167 0.947 . S
H149 C168 0.946 . S
H150 C170 0.953 . S
H151 C171 0.945 . S
H152 C173 0.952 . S
H153 C174 0.949 . S
H154 C176 0.950 . S
H155 C177 0.948 . S
H156 C179 0.951 . S
H157 C144 0.947 . S
H158 C146 0.952 . S
H159 C147 0.950 . S
N160 C163 1.382 . S
N160 C165 1.363 . S
N161 C163 1.371 . S
N161 C164 1.372 . S
N162 C164 1.361 . S
N162 C165 1.377 . S
C163 N160 1.382 . S
C163 N161 1.371 . S
C163 C166 1.480 . S
C164 N161 1.372 . S
C164 N162 1.361 . S
C164 C172 1.457 . S
C165 N160 1.363 . S
C165 N162 1.377 . S
C165 C178 1.479 . S
C166 C163 1.480 . S
C166 C167 1.383 . S
C166 C171 1.385 . S
C167 H148 0.947 . S
C167 C166 1.383 . S
C167 C168 1.388 . S
C168 H149 0.946 . S
C168 C167 1.388 . S
C168 C169 1.384 . S
C169 C168 1.384 . S
C169 C170 1.377 . S
C170 H150 0.953 . S
C170 C169 1.377 . S
C170 C171 1.369 . S
C171 H151 0.945 . S
C171 C166 1.385 . S
C171 C170 1.369 . S
C172 C164 1.457 . S
C172 C173 1.372 . S
C172 C177 1.364 . S
C173 H152 0.952 . S
C173 C172 1.372 . S
C173 C174 1.389 . S
C174 H153 0.949 . S
C174 C173 1.389 . S
C174 C175 1.387 . S
C175 C174 1.387 . S
C175 C176 1.372 . S
C176 H154 0.950 . S
C176 C175 1.372 . S
C176 C177 1.379 . S
C177 H155 0.948 . S
C177 C172 1.364 . S
C177 C176 1.379 . S
C178 C147 1.383 . S
C178 C165 1.479 . S
C178 C179 1.398 . S
C179 C144 1.382 . S
C179 H156 0.951 . S
C179 C178 1.398 . S
C180 C181 1.384 . S
C180 H193 0.947 . S
C180 C215 1.382 . S
C181 C180 1.384 . S
C181 C182 1.378 . S
C182 C181 1.378 . S
C182 C183 1.378 . S
C182 H194 0.952 . S
C183 C182 1.378 . S
C183 H195 0.950 . S
C183 C214 1.383 . S
H184 C203 0.947 . S
H185 C204 0.946 . S
H186 C206 0.953 . S
H187 C207 0.945 . S
H188 C209 0.952 . S
H189 C210 0.949 . S
H190 C212 0.950 . S
H191 C213 0.948 . S
H192 C215 0.951 . S
H193 C180 0.947 . S
H194 C182 0.952 . S
H195 C183 0.950 . S
N196 C199 1.382 . S
N196 C201 1.363 . S
N197 C199 1.371 . S
N197 C200 1.372 . S
N198 C200 1.361 . S
N198 C201 1.377 . S
C199 N196 1.382 . S
C199 N197 1.371 . S
C199 C202 1.480 . S
C200 N197 1.372 . S
C200 N198 1.361 . S
C200 C208 1.457 . S
C201 N196 1.363 . S
C201 N198 1.377 . S
C201 C214 1.479 . S
C202 C199 1.480 . S
C202 C203 1.383 . S
C202 C207 1.385 . S
C203 H184 0.947 . S
C203 C202 1.383 . S
C203 C204 1.388 . S
C204 H185 0.946 . S
C204 C203 1.388 . S
C204 C205 1.384 . S
C205 C204 1.384 . S
C205 C206 1.377 . S
C206 H186 0.953 . S
C206 C205 1.377 . S
C206 C207 1.369 . S
C207 H187 0.945 . S
C207 C202 1.385 . S
C207 C206 1.369 . S
C208 C200 1.457 . S
C208 C209 1.372 . S
C208 C213 1.364 . S
C209 H188 0.952 . S
C209 C208 1.372 . S
C209 C210 1.389 . S
C210 H189 0.949 . S
C210 C209 1.389 . S
C210 C211 1.387 . S
C211 C210 1.387 . S
C211 C212 1.372 . S
C212 H190 0.950 . S
C212 C211 1.372 . S
C212 C213 1.379 . S
C213 H191 0.948 . S
C213 C208 1.364 . S
C213 C212 1.379 . S
C214 C183 1.383 . S
C214 C201 1.479 . S
C214 C215 1.398 . S
C215 C180 1.382 . S
C215 H192 0.951 . S
C215 C214 1.398 . S
C216 C217 1.384 . S
C216 H229 0.947 . S
C216 C251 1.382 . S
C217 C216 1.384 . S
C217 C218 1.378 . S
C218 C217 1.378 . S
C218 C219 1.378 . S
C218 H230 0.952 . S
C219 C218 1.378 . S
C219 H231 0.950 . S
C219 C250 1.383 . S
H220 C239 0.947 . S
H221 C240 0.946 . S
H222 C242 0.953 . S
H223 C243 0.945 . S
H224 C245 0.952 . S
H225 C246 0.949 . S
H226 C248 0.950 . S
H227 C249 0.948 . S
H228 C251 0.951 . S
H229 C216 0.947 . S
H230 C218 0.952 . S
H231 C219 0.950 . S
N232 C235 1.382 . S
N232 C237 1.363 . S
N233 C235 1.371 . S
N233 C236 1.372 . S
N234 C236 1.361 . S
N234 C237 1.377 . S
C235 N232 1.382 . S
C235 N233 1.371 . S
C235 C238 1.480 . S
C236 N233 1.372 . S
C236 N234 1.361 . S
C236 C244 1.457 . S
C237 N232 1.363 . S
C237 N234 1.377 . S
C237 C250 1.479 . S
C238 C235 1.480 . S
C238 C239 1.383 . S
C238 C243 1.385 . S
C239 H220 0.947 . S
C239 C238 1.383 . S
C239 C240 1.388 . S
C240 H221 0.946 . S
C240 C239 1.388 . S
C240 C241 1.384 . S
C241 C240 1.384 . S
C241 C242 1.377 . S
C242 H222 0.953 . S
C242 C241 1.377 . S
C242 C243 1.369 . S
C243 H223 0.945 . S
C243 C238 1.385 . S
C243 C242 1.369 . S
C244 C236 1.457 . S
C244 C245 1.372 . S
C244 C249 1.364 . S
C245 H224 0.952 . S
C245 C244 1.372 . S
C245 C246 1.389 . S
C246 H225 0.949 . S
C246 C245 1.389 . S
C246 C247 1.387 . S
C247 C246 1.387 . S
C247 C248 1.372 . S
C248 H226 0.950 . S
C248 C247 1.372 . S
C248 C249 1.379 . S
C249 H227 0.948 . S
C249 C244 1.364 . S
C249 C248 1.379 . S
C250 C219 1.383 . S
C250 C237 1.479 . S
C250 C251 1.398 . S
C251 C216 1.382 . S
C251 H228 0.951 . S
C251 C250 1.398 . S
C252 C253 1.384 . S
C252 H265 0.947 . S
C252 C287 1.382 . S
C253 C252 1.384 . S
C253 C254 1.378 . S
C254 C253 1.378 . S
C254 C255 1.378 . S
C254 H266 0.952 . S
C255 C254 1.378 . S
C255 H267 0.950 . S
C255 C286 1.383 . S
H256 C275 0.947 . S
H257 C276 0.946 . S
H258 C278 0.953 . S
H259 C279 0.945 . S
H260 C281 0.952 . S
H261 C282 0.949 . S
H262 C284 0.950 . S
H263 C285 0.948 . S
H264 C287 0.951 . S
H265 C252 0.947 . S
H266 C254 0.952 . S
H267 C255 0.950 . S
N268 C271 1.382 . S
N268 C273 1.363 . S
N269 C271 1.371 . S
N269 C272 1.372 . S
N270 C272 1.361 . S
N270 C273 1.377 . S
C271 N268 1.382 . S
C271 N269 1.371 . S
C271 C274 1.480 . S
C272 N269 1.372 . S
C272 N270 1.361 . S
C272 C280 1.457 . S
C273 N268 1.363 . S
C273 N270 1.377 . S
C273 C286 1.479 . S
C274 C271 1.480 . S
C274 C275 1.383 . S
C274 C279 1.385 . S
C275 H256 0.947 . S
C275 C274 1.383 . S
C275 C276 1.388 . S
C276 H257 0.946 . S
C276 C275 1.388 . S
C276 C277 1.384 . S
C277 C276 1.384 . S
C277 C278 1.377 . S
C278 H258 0.953 . S
C278 C277 1.377 . S
C278 C279 1.369 . S
C279 H259 0.945 . S
C279 C274 1.385 . S
C279 C278 1.369 . S
C280 C272 1.457 . S
C280 C281 1.372 . S
C280 C285 1.364 . S
C281 H260 0.952 . S
C281 C280 1.372 . S
C281 C282 1.389 . S
C282 H261 0.949 . S
C282 C281 1.389 . S
C282 C283 1.387 . S
C283 C282 1.387 . S
C283 C284 1.372 . S
C284 H262 0.950 . S
C284 C283 1.372 . S
C284 C285 1.379 . S
C285 H263 0.948 . S
C285 C280 1.364 . S
C285 C284 1.379 . S
C286 C255 1.383 . S
C286 C273 1.479 . S
C286 C287 1.398 . S
C287 C252 1.382 . S
C287 H264 0.951 . S
C287 C286 1.398 . S
Co288 N293 2.057 . S
Co288 O305 2.021 . S
Co288 O308 2.062 . S
Co288 O312 2.117 1_545 S
Co288 O313 2.020 1_545 S
C289 O309 1.259 1_655 S
C289 O312 1.258 . S
Co290 N299 2.057 . S
Co290 O306 2.117 1_565 S
Co290 O307 2.020 1_565 S
Co290 O309 2.021 . S
Co290 O314 2.062 . S
C291 N293 1.316 . S
C291 N294 1.347 . S
C291 H296 0.931 . S
C292 N293 1.375 1_565 S
C292 C295 1.350 1_565 S
C292 H297 0.930 . S
N293 Co288 2.057 . S
N293 C291 1.316 . S
N293 C292 1.375 1_545 S
N294 C291 1.347 . S
N294 C295 1.373 . S
C295 C292 1.350 1_545 S
C295 N294 1.373 . S
C295 H316 0.931 1_545 S
H296 C291 0.931 . S
H297 C292 0.930 . S
C298 O305 1.259 1_455 S
C298 O306 1.258 . S
N299 Co290 2.057 . S
N299 C300 1.316 . S
N299 C301 1.375 1_565 S
C300 N299 1.316 . S
C300 N302 1.347 . S
C300 H311 0.931 . S
C301 N299 1.375 1_545 S
C301 C303 1.350 1_545 S
C301 H310 0.930 . S
N302 C300 1.347 . S
N302 C303 1.373 . S
C303 C301 1.350 1_565 S
C303 N302 1.373 . S
C303 H317 0.931 1_565 S
C304 O307 1.256 . S
C304 O308 1.255 1_455 S
O305 Co288 2.021 . S
O305 C298 1.259 1_655 S
O306 Co290 2.117 1_545 S
O306 C298 1.258 . S
O307 Co290 2.020 1_545 S
O307 C304 1.256 . S
O308 Co288 2.062 . S
O308 C304 1.255 1_655 S
O309 C289 1.259 1_455 S
O309 Co290 2.021 . S
H310 C301 0.930 . S
H311 C300 0.931 . S
O312 Co288 2.117 1_565 S
O312 C289 1.258 . S
O313 Co288 2.020 1_565 S
O313 C315 1.256 . S
O314 Co290 2.062 . S
O314 C315 1.255 1_455 S
C315 O313 1.256 . S
C315 O314 1.255 1_655 S
H316 C295 0.931 1_565 S
H317 C303 0.931 1_545 S
Co318 N323 2.057 . S
Co318 O335 2.021 1_565 S
Co318 O338 2.062 . S
Co318 O342 2.117 . S
Co318 O343 2.020 1_565 S
C319 O339 1.259 . S
C319 O342 1.258 1_554 S
Co320 N329 2.057 . S
Co320 O336 2.117 . S
Co320 O337 2.020 1_545 S
Co320 O339 2.021 1_545 S
Co320 O344 2.062 . S
C321 N323 1.316 . S
C321 N324 1.347 . S
C321 H326 0.931 1_565 S
C322 N323 1.375 . S
C322 C325 1.350 . S
C322 H327 0.930 . S
N323 Co318 2.057 . S
N323 C321 1.316 . S
N323 C322 1.375 . S
N324 C321 1.347 . S
N324 C325 1.373 . S
C325 C322 1.350 . S
C325 N324 1.373 . S
C325 H346 0.931 . S
H326 C321 0.931 1_545 S
H327 C322 0.930 . S
C328 O335 1.259 . S
C328 O336 1.258 1_556 S
N329 Co320 2.057 . S
N329 C330 1.316 . S
N329 C331 1.375 . S
C330 N329 1.316 . S
C330 N332 1.347 . S
C330 H341 0.931 1_545 S
C331 N329 1.375 . S
C331 C333 1.350 . S
C331 H340 0.930 . S
N332 C330 1.347 . S
N332 C333 1.373 . S
C333 C331 1.350 . S
C333 N332 1.373 . S
C333 H347 0.931 . S
C334 O337 1.256 1_556 S
C334 O338 1.255 . S
O335 Co318 2.021 1_545 S
O335 C328 1.259 . S
O336 Co320 2.117 . S
O336 C328 1.258 1_554 S
O337 Co320 2.020 1_565 S
O337 C334 1.256 1_554 S
O338 Co318 2.062 . S
O338 C334 1.255 . S
O339 C319 1.259 . S
O339 Co320 2.021 1_565 S
H340 C331 0.930 . S
H341 C330 0.931 1_565 S
O342 Co318 2.117 . S
O342 C319 1.258 1_556 S
O343 Co318 2.020 1_545 S
O343 C345 1.256 1_556 S
O344 Co320 2.062 . S
O344 C345 1.255 . S
C345 O343 1.256 1_554 S
C345 O344 1.255 . S
H346 C325 0.931 . S
H347 C333 0.931 . S
Co348 N353 2.057 . S
Co348 O365 2.021 . S
Co348 O368 2.062 . S
Co348 O372 2.117 . S
Co348 O373 2.020 . S
C349 O369 1.259 . S
C349 O372 1.258 . S
Co350 N359 2.057 . S
Co350 O366 2.117 . S
Co350 O367 2.020 . S
Co350 O369 2.021 . S
Co350 O374 2.062 . S
C351 N353 1.316 . S
C351 N354 1.347 . S
C351 H356 0.931 . S
C352 N353 1.375 . S
C352 C355 1.350 . S
C352 H357 0.930 . S
N353 Co348 2.057 . S
N353 C351 1.316 . S
N353 C352 1.375 . S
N354 C351 1.347 . S
N354 C355 1.373 . S
C355 C352 1.350 . S
C355 N354 1.373 . S
C355 H376 0.931 . S
H356 C351 0.931 . S
H357 C352 0.930 . S
C358 O365 1.259 . S
C358 O366 1.258 . S
N359 Co350 2.057 . S
N359 C360 1.316 . S
N359 C361 1.375 . S
C360 N359 1.316 . S
C360 N362 1.347 . S
C360 H371 0.931 . S
C361 N359 1.375 . S
C361 C363 1.350 . S
C361 H370 0.930 . S
N362 C360 1.347 . S
N362 C363 1.373 . S
C363 C361 1.350 . S
C363 N362 1.373 . S
C363 H377 0.931 . S
C364 O367 1.256 . S
C364 O368 1.255 . S
O365 Co348 2.021 . S
O365 C358 1.259 . S
O366 Co350 2.117 . S
O366 C358 1.258 . S
O367 Co350 2.020 . S
O367 C364 1.256 . S
O368 Co348 2.062 . S
O368 C364 1.255 . S
O369 C349 1.259 . S
O369 Co350 2.021 . S
H370 C361 0.930 . S
H371 C360 0.931 . S
O372 Co348 2.117 . S
O372 C349 1.258 . S
O373 Co348 2.020 . S
O373 C375 1.256 . S
O374 Co350 2.062 . S
O374 C375 1.255 . S
C375 O373 1.256 . S
C375 O374 1.255 . S
H376 C355 0.931 . S
H377 C363 0.931 . S
Co378 N383 2.057 . S
Co378 O395 2.021 . S
Co378 O398 2.062 . S
Co378 O402 2.117 1_455 S
Co378 O403 2.027 . S
C379 O399 1.259 1_556 S
C379 O402 1.258 . S
Co380 N389 2.057 . S
Co380 O396 2.117 1_655 S
Co380 O397 2.020 1_655 S
Co380 O399 2.021 . S
Co380 O404 2.062 . S
C381 N383 1.316 . S
C381 N384 1.347 . S
C381 H386 0.931 . S
C382 N383 1.375 1_655 S
C382 C385 1.350 1_655 S
C382 H387 0.930 . S
N383 Co378 2.057 . S
N383 C381 1.316 . S
N383 C382 1.375 1_455 S
N384 C381 1.347 . S
N384 C385 1.373 . S
C385 C382 1.350 1_455 S
C385 N384 1.373 . S
C385 H406 0.931 1_455 S
H386 C381 0.931 . S
H387 C382 0.930 . S
C388 O395 1.259 1_554 S
C388 O396 1.258 . S
N389 Co380 2.057 . S
N389 C390 1.316 . S
N389 C391 1.375 1_655 S
C390 N389 1.316 . S
C390 N392 1.347 . S
C390 H401 0.931 . S
C391 N389 1.375 1_455 S
C391 C393 1.350 1_455 S
C391 H400 0.930 . S
N392 C390 1.347 . S
N392 C393 1.373 . S
C393 C391 1.350 1_655 S
C393 N392 1.373 . S
C393 H407 0.931 1_655 S
C394 O397 1.256 . S
C394 O398 1.255 1_554 S
O395 Co378 2.021 . S
O395 C388 1.259 1_556 S
O396 Co380 2.117 1_455 S
O396 C388 1.258 . S
O397 Co380 2.020 1_455 S
O397 C394 1.256 . S
O398 Co378 2.062 . S
O398 C394 1.255 1_556 S
O399 C379 1.259 1_554 S
O399 Co380 2.021 . S
H400 C391 0.930 . S
H401 C390 0.931 . S
O402 Co378 2.117 1_655 S
O402 C379 1.258 . S
O403 Co378 2.027 . S
O403 C405 1.246 1_455 S
O404 Co380 2.062 . S
O404 C405 1.255 1_554 S
C405 O403 1.246 1_655 S
C405 O404 1.255 1_556 S
H406 C385 0.931 1_655 S
H407 C393 0.931 1_455 S
H408 C416 0.929 . S
H409 C418 0.930 . S
H410 C420 0.930 . S
H411 C423 0.929 . S
H412 C426 0.930 . S
H413 C428 0.960 . S
H414 C428 0.960 . S
H415 C428 0.960 . S
C416 H408 0.929 . S
C416 C417 1.377 . S
C416 C418 1.384 . S
C417 C416 1.377 . S
C417 C423 1.390 . S
C418 H409 0.930 . S
C418 C416 1.384 . S
C418 C419 1.372 . S
C419 C418 1.372 . S
C419 C420 1.400 . S
C419 C424 1.490 . S
C420 H410 0.930 . S
C420 C419 1.400 . S
C420 C423 1.386 . S
H421 C437 0.930 1_655 S
H422 C438 0.931 . S
C423 H411 0.929 . S
C423 C417 1.390 . S
C423 C420 1.386 . S
C424 C419 1.490 . S
C424 C426 1.395 . S
C424 C427 1.403 . S
H425 C431 0.930 . S
C426 H412 0.930 . S
C426 C424 1.395 . S
C426 C429 1.403 . S
C427 C424 1.403 . S
C427 C428 1.524 . S
C427 C431 1.400 . S
C428 H413 0.960 . S
C428 H414 0.960 . S
C428 H415 0.960 . S
C428 C427 1.524 . S
C429 C426 1.403 . S
C429 C430 1.392 . S
C429 C433 1.495 . S
C430 C429 1.392 . S
C430 C431 1.385 . S
C430 C432 1.478 . S
C431 H425 0.930 . S
C431 C427 1.400 . S
C431 C430 1.385 . S
C432 C430 1.478 . S
C432 C434 1.381 . S
C432 C438 1.383 . S
C433 C429 1.495 . S
C433 H439 0.959 . S
C433 H440 0.961 . S
C433 H441 0.960 . S
C434 C432 1.381 . S
C434 C435 1.394 . S
C434 H442 0.930 . S
C435 C434 1.394 . S
C435 C436 1.383 . S
C435 H443 0.929 . S
C436 C435 1.383 . S
C436 C437 1.377 . S
C437 H421 0.930 1_455 S
C437 C436 1.377 . S
C437 C438 1.379 . S
C438 H422 0.931 . S
C438 C432 1.383 . S
C438 C437 1.379 . S
H439 C433 0.959 . S
H440 C433 0.961 . S
H441 C433 0.960 . S
H442 C434 0.930 . S
H443 C435 0.929 . S
H444 C452 0.929 . S
H445 C454 0.930 . S
H446 C456 0.930 . S
H447 C459 0.929 . S
H448 C462 0.930 . S
H449 C464 0.960 . S
H450 C464 0.960 . S
H451 C464 0.960 . S
C452 H444 0.929 . S
C452 C453 1.377 . S
C452 C454 1.384 . S
C453 C452 1.377 . S
C453 C459 1.390 . S
C454 H445 0.930 . S
C454 C452 1.384 . S
C454 C455 1.372 . S
C455 C454 1.372 . S
C455 C456 1.400 . S
C455 C460 1.490 . S
C456 H446 0.930 . S
C456 C455 1.400 . S
C456 C459 1.386 . S
H457 C473 0.930 . S
H458 C474 0.931 . S
C459 H447 0.929 . S
C459 C453 1.390 . S
C459 C456 1.386 . S
C460 C455 1.490 . S
C460 C462 1.395 . S
C460 C463 1.403 . S
H461 C467 0.930 . S
C462 H448 0.930 . S
C462 C460 1.395 . S
C462 C465 1.403 . S
C463 C460 1.403 . S
C463 C464 1.524 . S
C463 C467 1.400 . S
C464 H449 0.960 . S
C464 H450 0.960 . S
C464 H451 0.960 . S
C464 C463 1.524 . S
C465 C462 1.403 . S
C465 C466 1.392 . S
C465 C469 1.495 . S
C466 C465 1.392 . S
C466 C467 1.385 . S
C466 C468 1.478 . S
C467 H461 0.930 . S
C467 C463 1.400 . S
C467 C466 1.385 . S
C468 C466 1.478 . S
C468 C470 1.381 . S
C468 C474 1.383 . S
C469 C465 1.495 . S
C469 H475 0.959 . S
C469 H476 0.961 . S
C469 H477 0.960 . S
C470 C468 1.381 . S
C470 C471 1.394 . S
C470 H478 0.930 . S
C471 C470 1.394 . S
C471 C472 1.383 . S
C471 H479 0.929 . S
C472 C471 1.383 . S
C472 C473 1.377 . S
C473 H457 0.930 . S
C473 C472 1.377 . S
C473 C474 1.379 . S
C474 H458 0.931 . S
C474 C468 1.383 . S
C474 C473 1.379 . S
H475 C469 0.959 . S
H476 C469 0.961 . S
H477 C469 0.960 . S
H478 C470 0.930 . S
H479 C471 0.929 . S
H480 C488 0.929 . S
H481 C490 0.930 . S
H482 C492 0.930 . S
H483 C495 0.929 . S
H484 C498 0.930 . S
H485 C500 0.960 . S
H486 C500 0.960 . S
H487 C500 0.960 . S
C488 H480 0.929 . S
C488 C489 1.377 . S
C488 C490 1.384 . S
C489 C488 1.377 . S
C489 C495 1.390 . S
C490 H481 0.930 . S
C490 C488 1.384 . S
C490 C491 1.372 . S
C491 C490 1.372 . S
C491 C492 1.400 . S
C491 C496 1.490 . S
C492 H482 0.930 . S
C492 C491 1.400 . S
C492 C495 1.386 . S
H493 C509 0.930 . S
H494 C510 0.931 . S
C495 H483 0.929 . S
C495 C489 1.390 . S
C495 C492 1.386 . S
C496 C491 1.490 . S
C496 C498 1.395 . S
C496 C499 1.403 . S
H497 C503 0.930 . S
C498 H484 0.930 . S
C498 C496 1.395 . S
C498 C501 1.403 . S
C499 C496 1.403 . S
C499 C500 1.524 . S
C499 C503 1.400 . S
C500 H485 0.960 . S
C500 H486 0.960 . S
C500 H487 0.960 . S
C500 C499 1.524 . S
C501 C498 1.403 . S
C501 C502 1.392 . S
C501 C505 1.495 . S
C502 C501 1.392 . S
C502 C503 1.385 . S
C502 C504 1.478 . S
C503 H497 0.930 . S
C503 C499 1.400 . S
C503 C502 1.385 . S
C504 C502 1.478 . S
C504 C506 1.381 . S
C504 C510 1.383 . S
C505 C501 1.495 . S
C505 H511 0.959 . S
C505 H512 0.961 . S
C505 H513 0.960 . S
C506 C504 1.381 . S
C506 C507 1.394 . S
C506 H514 0.930 . S
C507 C506 1.394 . S
C507 C508 1.383 . S
C507 H515 0.929 . S
C508 C507 1.383 . S
C508 C509 1.377 . S
C509 H493 0.930 . S
C509 C508 1.377 . S
C509 C510 1.379 . S
C510 H494 0.931 . S
C510 C504 1.383 . S
C510 C509 1.379 . S
H511 C505 0.959 . S
H512 C505 0.961 . S
H513 C505 0.960 . S
H514 C506 0.930 . S
H515 C507 0.929 . S
H516 C524 0.929 . S
H517 C526 0.930 . S
H518 C528 0.930 . S
H519 C531 0.929 . S
H520 C534 0.930 . S
H521 C536 0.960 . S
H522 C536 0.960 . S
H523 C536 0.960 . S
C524 H516 0.929 . S
C524 C525 1.377 . S
C524 C526 1.384 . S
C525 C524 1.377 . S
C525 C531 1.390 . S
C526 H517 0.930 . S
C526 C524 1.384 . S
C526 C527 1.372 . S
C527 C526 1.372 . S
C527 C528 1.400 . S
C527 C532 1.490 . S
C528 H518 0.930 . S
C528 C527 1.400 . S
C528 C531 1.386 . S
H529 C545 0.930 . S
H530 C546 0.931 . S
C531 H519 0.929 . S
C531 C525 1.390 . S
C531 C528 1.386 . S
C532 C527 1.490 . S
C532 C534 1.395 . S
C532 C535 1.403 . S
H533 C539 0.930 . S
C534 H520 0.930 . S
C534 C532 1.395 . S
C534 C537 1.403 . S
C535 C532 1.403 . S
C535 C536 1.524 . S
C535 C539 1.400 . S
C536 H521 0.960 . S
C536 H522 0.960 . S
C536 H523 0.960 . S
C536 C535 1.524 . S
C537 C534 1.403 . S
C537 C538 1.392 . S
C537 C541 1.495 . S
C538 C537 1.392 . S
C538 C539 1.385 . S
C538 C540 1.478 . S
C539 H533 0.930 . S
C539 C535 1.400 . S
C539 C538 1.385 . S
C540 C538 1.478 . S
C540 C542 1.381 . S
C540 C546 1.383 . S
C541 C537 1.495 . S
C541 H547 0.959 . S
C541 H548 0.961 . S
C541 H549 0.960 . S
C542 C540 1.381 . S
C542 C543 1.394 . S
C542 H550 0.930 . S
C543 C542 1.394 . S
C543 C544 1.383 . S
C543 H551 0.966 . S
C544 C543 1.383 . S
C544 C545 1.377 . S
C545 H529 0.930 . S
C545 C544 1.377 . S
C545 C546 1.379 . S
C546 H530 0.931 . S
C546 C540 1.383 . S
C546 C545 1.379 . S
H547 C541 0.959 . S
H548 C541 0.961 . S
H549 C541 0.960 . S
H550 C542 0.930 . S
H551 C543 0.966 . S
H552 C560 0.929 . S
H553 C562 0.930 . S
H554 C564 0.930 . S
H555 C567 0.929 . S
H556 C570 0.930 . S
H557 C572 0.960 1_565 S
H558 C572 0.960 . S
H559 C572 0.960 . S
C560 H552 0.929 . S
C560 C561 1.377 . S
C560 C562 1.384 . S
C561 C560 1.377 . S
C561 C567 1.390 . S
C562 H553 0.930 . S
C562 C560 1.384 . S
C562 C563 1.372 . S
C563 C562 1.372 . S
C563 C564 1.400 . S
C563 C568 1.490 . S
C564 H554 0.930 . S
C564 C563 1.400 . S
C564 C567 1.386 . S
H565 C581 0.930 . S
H566 C582 0.931 . S
C567 H555 0.929 . S
C567 C561 1.390 . S
C567 C564 1.386 . S
C568 C563 1.490 . S
C568 C570 1.395 . S
C568 C571 1.403 . S
H569 C575 0.930 . S
C570 H556 0.930 . S
C570 C568 1.395 . S
C570 C573 1.403 . S
C571 C568 1.403 . S
C571 C572 1.524 . S
C571 C575 1.400 . S
C572 H557 0.960 1_545 S
C572 H558 0.960 . S
C572 H559 0.960 . S
C572 C571 1.524 . S
C573 C570 1.403 . S
C573 C574 1.392 . S
C573 C577 1.495 . S
C574 C573 1.392 . S
C574 C575 1.385 . S
C574 C576 1.478 . S
C575 H569 0.930 . S
C575 C571 1.400 . S
C575 C574 1.385 . S
C576 C574 1.478 . S
C576 C578 1.381 . S
C576 C582 1.383 . S
C577 C573 1.495 . S
C577 H583 0.959 . S
C577 H584 0.961 . S
C577 H585 0.960 . S
C578 C576 1.381 . S
C578 C579 1.394 . S
C578 H586 0.930 . S
C579 C578 1.394 . S
C579 C580 1.383 . S
C579 H587 0.929 1_554 S
C580 C579 1.383 . S
C580 C581 1.377 . S
C581 H565 0.930 . S
C581 C580 1.377 . S
C581 C582 1.379 . S
C582 H566 0.931 . S
C582 C576 1.383 . S
C582 C581 1.379 . S
H583 C577 0.959 . S
H584 C577 0.961 . S
H585 C577 0.960 . S
H586 C578 0.930 . S
H587 C579 0.929 1_556 S
H588 C596 0.929 . S
H589 C598 0.930 . S
H590 C600 0.930 . S
H591 C603 0.929 . S
H592 C606 0.930 . S
H593 C608 0.960 . S
H594 C608 0.960 . S
H595 C608 0.960 . S
C596 H588 0.929 . S
C596 C597 1.377 . S
C596 C598 1.384 . S
C597 C596 1.377 . S
C597 C603 1.390 . S
C598 H589 0.930 . S
C598 C596 1.384 . S
C598 C599 1.372 . S
C599 C598 1.372 . S
C599 C600 1.400 . S
C599 C604 1.490 . S
C600 H590 0.930 . S
C600 C599 1.400 . S
C600 C603 1.386 . S
H601 C617 0.930 . S
H602 C618 0.931 . S
C603 H591 0.929 . S
C603 C597 1.390 . S
C603 C600 1.386 . S
C604 C599 1.490 . S
C604 C606 1.395 . S
C604 C607 1.403 . S
H605 C611 0.930 . S
C606 H592 0.930 . S
C606 C604 1.395 . S
C606 C609 1.403 . S
C607 C604 1.403 . S
C607 C608 1.524 . S
C607 C611 1.400 . S
C608 H593 0.960 . S
C608 H594 0.960 . S
C608 H595 0.960 . S
C608 C607 1.524 . S
C609 C606 1.403 . S
C609 C610 1.392 . S
C609 C613 1.495 . S
C610 C609 1.392 . S
C610 C611 1.385 . S
C610 C612 1.478 . S
C611 H605 0.930 . S
C611 C607 1.400 . S
C611 C610 1.385 . S
C612 C610 1.478 . S
C612 C614 1.381 . S
C612 C618 1.383 . S
C613 C609 1.495 . S
C613 H619 0.959 . S
C613 H620 0.961 . S
C613 H621 0.960 . S
C614 C612 1.381 . S
C614 C615 1.394 . S
C614 H622 0.930 . S
C615 C614 1.394 . S
C615 C616 1.383 . S
C615 H623 0.929 . S
C616 C615 1.383 . S
C616 C617 1.377 . S
C617 H601 0.930 . S
C617 C616 1.377 . S
C617 C618 1.379 . S
C618 H602 0.931 . S
C618 C612 1.383 . S
C618 C617 1.379 . S
H619 C613 0.959 . S
H620 C613 0.961 . S
H621 C613 0.960 . S
H622 C614 0.930 . S
H623 C615 0.929 . S
H624 C632 0.929 . S
H625 C634 0.930 . S
H626 C636 0.930 . S
H627 C639 0.929 . S
H628 C642 0.930 . S
H629 C644 0.960 1_554 S
H630 C644 0.960 . S
H631 C644 0.960 . S
C632 H624 0.929 . S
C632 C633 1.377 . S
C632 C634 1.384 . S
C633 C632 1.377 . S
C633 C639 1.390 . S
C634 H625 0.930 . S
C634 C632 1.384 . S
C634 C635 1.372 . S
C635 C634 1.372 . S
C635 C636 1.400 . S
C635 C640 1.490 . S
C636 H626 0.930 . S
C636 C635 1.400 . S
C636 C639 1.386 . S
H637 C653 0.930 . S
H638 C654 0.931 . S
C639 H627 0.929 . S
C639 C633 1.390 . S
C639 C636 1.386 . S
C640 C635 1.490 . S
C640 C642 1.395 . S
C640 C643 1.403 . S
H641 C647 0.930 . S
C642 H628 0.930 . S
C642 C640 1.395 . S
C642 C645 1.403 . S
C643 C640 1.403 . S
C643 C644 1.524 . S
C643 C647 1.400 . S
C644 H629 0.960 1_556 S
C644 H630 0.960 . S
C644 H631 0.960 . S
C644 C643 1.524 . S
C645 C642 1.403 . S
C645 C646 1.392 . S
C645 C649 1.495 . S
C646 C645 1.392 . S
C646 C647 1.385 . S
C646 C648 1.478 . S
C647 H641 0.930 . S
C647 C643 1.400 . S
C647 C646 1.385 . S
C648 C646 1.478 . S
C648 C650 1.381 . S
C648 C654 1.383 . S
C649 C645 1.495 . S
C649 H655 0.959 . S
C649 H656 0.961 . S
C649 H657 0.960 . S
C650 C648 1.381 . S
C650 C651 1.394 . S
C650 H658 0.930 . S
C651 C650 1.394 . S
C651 C652 1.383 . S
C651 H659 0.929 . S
C652 C651 1.383 . S
C652 C653 1.377 . S
C653 H637 0.930 . S
C653 C652 1.377 . S
C653 C654 1.379 . S
C654 H638 0.931 . S
C654 C648 1.383 . S
C654 C653 1.379 . S
H655 C649 0.959 . S
H656 C649 0.961 . S
H657 C649 0.960 . S
H658 C650 0.930 . S
H659 C651 0.929 . S
H660 C668 0.929 . S
H661 C670 0.930 . S
H662 C672 0.930 . S
H663 C675 0.929 . S
H664 C678 0.930 . S
H665 C680 0.960 . S
H666 C680 0.960 . S
H667 C680 0.960 . S
C668 H660 0.929 . S
C668 C669 1.377 . S
C668 C670 1.384 . S
C669 C668 1.377 . S
C669 C675 1.390 . S
C670 H661 0.930 . S
C670 C668 1.384 . S
C670 C671 1.372 . S
C671 C670 1.372 . S
C671 C672 1.400 . S
C671 C676 1.490 . S
C672 H662 0.930 . S
C672 C671 1.400 . S
C672 C675 1.386 . S
H673 C689 0.930 . S
H674 C690 0.931 . S
C675 H663 0.929 . S
C675 C669 1.390 . S
C675 C672 1.386 . S
C676 C671 1.490 . S
C676 C678 1.395 . S
C676 C679 1.403 . S
H677 C683 0.930 . S
C678 H664 0.930 . S
C678 C676 1.395 . S
C678 C681 1.403 . S
C679 C676 1.403 . S
C679 C680 1.524 . S
C679 C683 1.400 . S
C680 H665 0.960 . S
C680 H666 0.960 . S
C680 H667 0.960 . S
C680 C679 1.524 . S
C681 C678 1.403 . S
C681 C682 1.392 . S
C681 C685 1.495 . S
C682 C681 1.392 . S
C682 C683 1.385 . S
C682 C684 1.478 . S
C683 H677 0.930 . S
C683 C679 1.400 . S
C683 C682 1.385 . S
C684 C682 1.478 . S
C684 C686 1.381 . S
C684 C690 1.383 . S
C685 C681 1.495 . S
C685 H691 0.959 . S
C685 H692 0.961 . S
C685 H693 0.960 . S
C686 C684 1.381 . S
C686 C687 1.394 . S
C686 H694 0.930 . S
C687 C686 1.394 . S
C687 C688 1.383 . S
C687 H695 0.929 . S
C688 C687 1.383 . S
C688 C689 1.377 . S
C689 H673 0.930 . S
C689 C688 1.377 . S
C689 C690 1.379 . S
C690 H674 0.931 . S
C690 C684 1.383 . S
C690 C689 1.379 . S
H691 C685 0.959 . S
H692 C685 0.961 . S
H693 C685 0.960 . S
H694 C686 0.930 . S
H695 C687 0.929 . S
H696 C704 0.929 . S
H697 C706 0.930 . S
H698 C708 0.930 . S
H699 C711 0.929 . S
H700 C714 0.930 . S
H701 C716 0.960 . S
H702 C716 0.960 . S
H703 C716 0.960 . S
C704 H696 0.929 . S
C704 C705 1.377 . S
C704 C706 1.384 . S
C705 C704 1.377 . S
C705 C711 1.390 . S
C706 H697 0.930 . S
C706 C704 1.384 . S
C706 C707 1.372 . S
C707 C706 1.372 . S
C707 C708 1.400 . S
C707 C712 1.490 . S
C708 H698 0.930 . S
C708 C707 1.400 . S
C708 C711 1.386 . S
H709 C725 0.930 . S
H710 C726 0.931 . S
C711 H699 0.929 . S
C711 C705 1.390 . S
C711 C708 1.386 . S
C712 C707 1.490 . S
C712 C714 1.395 . S
C712 C715 1.403 . S
H713 C719 0.930 . S
C714 H700 0.930 . S
C714 C712 1.395 . S
C714 C717 1.403 . S
C715 C712 1.403 . S
C715 C716 1.524 . S
C715 C719 1.400 . S
C716 H701 0.960 . S
C716 H702 0.960 . S
C716 H703 0.960 . S
C716 C715 1.524 . S
C717 C714 1.403 . S
C717 C718 1.392 . S
C717 C721 1.495 . S
C718 C717 1.392 . S
C718 C719 1.385 . S
C718 C720 1.478 . S
C719 H713 0.930 . S
C719 C715 1.400 . S
C719 C718 1.385 . S
C720 C718 1.478 . S
C720 C722 1.381 . S
C720 C726 1.383 . S
C721 C717 1.495 . S
C721 H727 0.959 1_455 S
C721 H728 0.961 1_455 S
C721 H729 0.961 . S
C722 C720 1.381 . S
C722 C723 1.394 . S
C722 H730 0.930 1_554 S
C723 C722 1.394 . S
C723 C724 1.383 . S
C723 H731 0.929 1_554 S
C724 C723 1.383 . S
C724 C725 1.377 . S
C725 H709 0.930 . S
C725 C724 1.377 . S
C725 C726 1.379 . S
C726 H710 0.931 . S
C726 C720 1.383 . S
C726 C725 1.379 . S
H727 C721 0.959 1_655 S
H728 C721 0.961 1_655 S
H729 C721 0.961 . S
H730 C722 0.930 1_556 S
H731 C723 0.929 1_556 S
H732 C740 0.929 . S
H733 C742 0.930 . S
H734 C744 0.930 . S
H735 C747 0.929 . S
H736 C750 0.930 . S
H737 C752 0.960 . S
H738 C752 0.960 . S
H739 C752 0.960 . S
C740 H732 0.929 . S
C740 C741 1.377 . S
C740 C742 1.384 . S
C741 C740 1.377 . S
C741 C747 1.390 . S
C742 H733 0.930 . S
C742 C740 1.384 . S
C742 C743 1.372 . S
C743 C742 1.372 . S
C743 C744 1.400 . S
C743 C748 1.490 . S
C744 H734 0.930 . S
C744 C743 1.400 . S
C744 C747 1.386 . S
H745 C761 0.930 . S
H746 C762 0.931 . S
C747 H735 0.929 . S
C747 C741 1.390 . S
C747 C744 1.386 . S
C748 C743 1.490 . S
C748 C750 1.395 . S
C748 C751 1.403 . S
H749 C755 0.930 . S
C750 H736 0.930 . S
C750 C748 1.395 . S
C750 C753 1.403 . S
C751 C748 1.403 . S
C751 C752 1.524 . S
C751 C755 1.400 . S
C752 H737 0.960 . S
C752 H738 0.960 . S
C752 H739 0.960 . S
C752 C751 1.524 . S
C753 C750 1.403 . S
C753 C754 1.392 . S
C753 C757 1.495 . S
C754 C753 1.392 . S
C754 C755 1.385 . S
C754 C756 1.478 . S
C755 H749 0.930 . S
C755 C751 1.400 . S
C755 C754 1.385 . S
C756 C754 1.478 . S
C756 C758 1.381 . S
C756 C762 1.383 . S
C757 C753 1.495 . S
C757 H763 0.959 . S
C757 H764 0.961 . S
C757 H765 0.960 . S
C758 C756 1.381 . S
C758 C759 1.394 . S
C758 H766 0.930 . S
C759 C758 1.394 . S
C759 C760 1.383 . S
C759 H767 0.929 . S
C760 C759 1.383 . S
C760 C761 1.377 . S
C761 H745 0.930 . S
C761 C760 1.377 . S
C761 C762 1.379 . S
C762 H746 0.931 . S
C762 C756 1.383 . S
C762 C761 1.379 . S
H763 C757 0.959 . S
H764 C757 0.961 . S
H765 C757 0.960 . S
H766 C758 0.930 . S
H767 C759 0.929 . S
H768 C776 0.929 . S
H769 C778 0.930 . S
H770 C780 0.930 . S
H771 C783 0.929 . S
H772 C786 0.930 . S
H773 C788 0.960 . S
H774 C788 0.960 . S
H775 C788 0.960 . S
C776 H768 0.929 . S
C776 C777 1.377 . S
C776 C778 1.384 . S
C777 C776 1.377 . S
C777 C783 1.390 . S
C778 H769 0.930 . S
C778 C776 1.384 . S
C778 C779 1.372 . S
C779 C778 1.372 . S
C779 C780 1.400 . S
C779 C784 1.490 . S
C780 H770 0.930 . S
C780 C779 1.400 . S
C780 C783 1.386 . S
H781 C797 0.930 1_455 S
H782 C798 0.931 1_455 S
C783 H771 0.929 . S
C783 C777 1.390 . S
C783 C780 1.386 . S
C784 C779 1.490 . S
C784 C786 1.395 . S
C784 C787 1.403 . S
H785 C791 0.930 . S
C786 H772 0.930 . S
C786 C784 1.395 . S
C786 C789 1.403 . S
C787 C784 1.403 . S
C787 C788 1.524 . S
C787 C791 1.400 . S
C788 H773 0.960 . S
C788 H774 0.960 . S
C788 H775 0.960 . S
C788 C787 1.524 . S
C789 C786 1.403 . S
C789 C790 1.392 . S
C789 C793 1.495 . S
C790 C789 1.392 . S
C790 C791 1.385 . S
C790 C792 1.478 . S
C791 H785 0.930 . S
C791 C787 1.400 . S
C791 C790 1.385 . S
C792 C790 1.478 . S
C792 C794 1.381 . S
C792 C798 1.383 . S
C793 C789 1.495 . S
C793 H799 0.959 . S
C793 H800 0.929 1_655 S
C793 H801 0.960 . S
C794 C792 1.381 . S
C794 C795 1.394 . S
C794 H802 0.930 . S
C795 C794 1.394 . S
C795 C796 1.383 . S
C795 H803 0.929 . S
C796 C795 1.383 . S
C796 C797 1.377 . S
C797 H781 0.930 1_655 S
C797 C796 1.377 . S
C797 C798 1.379 . S
C798 H782 0.931 1_655 S
C798 C792 1.383 . S
C798 C797 1.379 . S
H799 C793 0.959 . S
H800 C793 0.929 1_455 S
H801 C793 0.960 . S
H802 C794 0.930 . S
H803 C795 0.929 . S
H804 C812 0.929 . S
H805 C814 0.930 . S
H806 C816 0.930 . S
H807 C819 0.929 . S
H808 C822 0.930 . S
H809 C824 0.960 . S
H810 C824 0.960 . S
H811 C824 0.960 . S
C812 H804 0.929 . S
C812 C813 1.377 . S
C812 C814 1.384 . S
C813 C812 1.377 . S
C813 C819 1.390 . S
C814 H805 0.930 . S
C814 C812 1.384 . S
C814 C815 1.372 . S
C815 C814 1.372 . S
C815 C816 1.400 . S
C815 C820 1.490 . S
C816 H806 0.930 . S
C816 C815 1.400 . S
C816 C819 1.386 . S
H817 C833 0.930 . S
H818 C834 0.931 . S
C819 H807 0.929 . S
C819 C813 1.390 . S
C819 C816 1.386 . S
C820 C815 1.490 . S
C820 C822 1.395 . S
C820 C823 1.403 . S
H821 C827 0.930 . S
C822 H808 0.930 . S
C822 C820 1.395 . S
C822 C825 1.403 . S
C823 C820 1.403 . S
C823 C824 1.524 . S
C823 C827 1.400 . S
C824 H809 0.960 . S
C824 H810 0.960 . S
C824 H811 0.960 . S
C824 C823 1.524 . S
C825 C822 1.403 . S
C825 C826 1.392 . S
C825 C829 1.495 . S
C826 C825 1.392 . S
C826 C827 1.385 . S
C826 C828 1.478 . S
C827 H821 0.930 . S
C827 C823 1.400 . S
C827 C826 1.385 . S
C828 C826 1.478 . S
C828 C830 1.381 . S
C828 C834 1.383 . S
C829 C825 1.495 . S
C829 H835 0.959 . S
C829 H836 0.961 . S
C829 H837 0.960 . S
C830 C828 1.381 . S
C830 C831 1.394 . S
C830 H838 0.930 . S
C831 C830 1.394 . S
C831 C832 1.383 . S
C831 H839 0.929 . S
C832 C831 1.383 . S
C832 C833 1.377 . S
C833 H817 0.930 . S
C833 C832 1.377 . S
C833 C834 1.379 . S
C834 H818 0.931 . S
C834 C828 1.383 . S
C834 C833 1.379 . S
H835 C829 0.959 . S
H836 C829 0.961 . S
H837 C829 0.960 . S
H838 C830 0.930 . S
H839 C831 0.929 . S
H840 C848 0.929 . S
H841 C850 0.930 . S
H842 C852 0.930 . S
H843 C855 0.929 . S
H844 C858 0.930 . S
H845 C860 0.960 . S
H846 C860 0.960 . S
H847 C860 0.960 . S
C848 H840 0.929 . S
C848 C849 1.377 . S
C848 C850 1.384 . S
C849 C848 1.377 . S
C849 C855 1.390 . S
C850 H841 0.930 . S
C850 C848 1.384 . S
C850 C851 1.372 . S
C851 C850 1.372 . S
C851 C852 1.400 . S
C851 C856 1.490 . S
C852 H842 0.930 . S
C852 C851 1.400 . S
C852 C855 1.386 . S
H853 C869 0.930 1_455 S
H854 C870 0.933 1_455 S
C855 H843 0.929 . S
C855 C849 1.390 . S
C855 C852 1.386 . S
C856 C851 1.490 . S
C856 C858 1.395 . S
C856 C859 1.403 . S
H857 C863 0.930 . S
C858 H844 0.930 . S
C858 C856 1.395 . S
C858 C861 1.403 . S
C859 C856 1.403 . S
C859 C860 1.524 . S
C859 C863 1.400 . S
C860 H845 0.960 . S
C860 H846 0.960 . S
C860 H847 0.960 . S
C860 C859 1.524 . S
C861 C858 1.403 . S
C861 C862 1.392 . S
C861 C865 1.495 1_565 S
C862 C861 1.392 . S
C862 C863 1.385 . S
C862 C864 1.478 . S
C863 H857 0.930 . S
C863 C859 1.400 . S
C863 C862 1.385 . S
C864 C862 1.478 . S
C864 C866 1.381 . S
C864 C870 1.383 . S
C865 C861 1.495 1_545 S
C865 H871 0.959 . S
C865 H872 0.961 . S
C865 H873 0.960 . S
C866 C864 1.381 . S
C866 C867 1.394 . S
C866 H874 0.930 . S
C867 C866 1.394 . S
C867 C868 1.383 . S
C867 H875 0.929 . S
C868 C867 1.383 . S
C868 C869 1.377 . S
C869 H853 0.930 1_655 S
C869 C868 1.377 . S
C869 C870 1.379 . S
C870 H854 0.933 1_655 S
C870 C864 1.383 . S
C870 C869 1.379 . S
H871 C865 0.959 . S
H872 C865 0.961 . S
H873 C865 0.960 . S
H874 C866 0.930 . S
H875 C867 0.929 . S
H876 C884 0.929 . S
H877 C886 0.930 . S
H878 C888 0.930 . S
H879 C891 0.929 . S
H880 C894 0.930 . S
H881 C896 0.960 . S
H882 C896 0.960 . S
H883 C896 0.960 . S
C884 H876 0.929 . S
C884 C885 1.377 . S
C884 C886 1.384 . S
C885 C884 1.377 . S
C885 C891 1.390 . S
C886 H877 0.930 . S
C886 C884 1.384 . S
C886 C887 1.372 . S
C887 C886 1.372 . S
C887 C888 1.400 . S
C887 C892 1.490 . S
C888 H878 0.930 . S
C888 C887 1.400 . S
C888 C891 1.386 . S
H889 C905 0.930 . S
H890 C906 0.931 . S
C891 H879 0.929 . S
C891 C885 1.390 . S
C891 C888 1.386 . S
C892 C887 1.490 . S
C892 C894 1.395 . S
C892 C895 1.403 . S
H893 C899 0.930 . S
C894 H880 0.930 . S
C894 C892 1.395 . S
C894 C897 1.403 . S
C895 C892 1.403 . S
C895 C896 1.524 . S
C895 C899 1.400 . S
C896 H881 0.960 . S
C896 H882 0.960 . S
C896 H883 0.960 . S
C896 C895 1.524 . S
C897 C894 1.403 . S
C897 C898 1.392 . S
C897 C901 1.495 . S
C898 C897 1.392 . S
C898 C899 1.385 . S
C898 C900 1.478 . S
C899 H893 0.930 . S
C899 C895 1.400 . S
C899 C898 1.385 . S
C900 C898 1.478 . S
C900 C902 1.381 . S
C900 C906 1.383 . S
C901 C897 1.495 . S
C901 H907 0.959 . S
C901 H908 0.961 . S
C901 H909 0.960 . S
C902 C900 1.381 . S
C902 C903 1.394 . S
C902 H910 0.930 . S
C903 C902 1.394 . S
C903 C904 1.383 . S
C903 H911 0.929 . S
C904 C903 1.383 . S
C904 C905 1.377 . S
C905 H889 0.930 . S
C905 C904 1.377 . S
C905 C906 1.379 . S
C906 H890 0.931 . S
C906 C900 1.383 . S
C906 C905 1.379 . S
H907 C901 0.959 . S
H908 C901 0.961 . S
H909 C901 0.960 . S
H910 C902 0.930 . S
H911 C903 0.929 . S
H912 C920 0.929 . S
H913 C922 0.930 . S
H914 C924 0.930 . S
H915 C927 0.929 . S
H916 C930 0.930 . S
H917 C932 0.960 . S
H918 C932 0.960 . S
H919 C932 0.960 . S
C920 H912 0.929 . S
C920 C921 1.377 . S
C920 C922 1.384 . S
C921 C920 1.377 . S
C921 C927 1.390 . S
C922 H913 0.930 . S
C922 C920 1.384 . S
C922 C923 1.372 . S
C923 C922 1.372 . S
C923 C924 1.400 . S
C923 C928 1.490 . S
C924 H914 0.930 . S
C924 C923 1.400 . S
C924 C927 1.386 . S
H925 C941 0.930 . S
H926 C942 0.931 . S
C927 H915 0.929 . S
C927 C921 1.390 . S
C927 C924 1.386 . S
C928 C923 1.490 . S
C928 C930 1.395 . S
C928 C931 1.403 . S
H929 C935 0.930 . S
C930 H916 0.930 . S
C930 C928 1.395 . S
C930 C933 1.403 . S
C931 C928 1.403 . S
C931 C932 1.524 . S
C931 C935 1.400 . S
C932 H917 0.960 . S
C932 H918 0.960 . S
C932 H919 0.960 . S
C932 C931 1.524 . S
C933 C930 1.403 . S
C933 C934 1.392 . S
C933 C937 1.495 . S
C934 C933 1.392 . S
C934 C935 1.385 . S
C934 C936 1.478 . S
C935 H929 0.930 . S
C935 C931 1.400 . S
C935 C934 1.385 . S
C936 C934 1.478 . S
C936 C938 1.381 . S
C936 C942 1.383 . S
C937 C933 1.495 . S
C937 H943 0.959 . S
C937 H944 0.961 . S
C937 H945 0.960 . S
C938 C936 1.381 . S
C938 C939 1.394 . S
C938 H946 0.930 . S
C939 C938 1.394 . S
C939 C940 1.383 . S
C939 H947 0.929 . S
C940 C939 1.383 . S
C940 C941 1.377 . S
C941 H925 0.930 . S
C941 C940 1.377 . S
C941 C942 1.379 . S
C942 H926 0.931 . S
C942 C936 1.383 . S
C942 C941 1.379 . S
H943 C937 0.959 . S
H944 C937 0.961 . S
H945 C937 0.960 . S
H946 C938 0.930 . S
H947 C939 0.929 . S
H948 C956 0.929 . S
H949 C958 0.930 . S
H950 C960 0.930 . S
H951 C963 0.929 . S
H952 C966 0.930 . S
H953 C968 0.960 . S
H954 C968 0.960 . S
H955 C968 0.960 . S
C956 H948 0.929 . S
C956 C957 1.377 . S
C956 C958 1.384 . S
C957 C956 1.377 . S
C957 C963 1.390 . S
C958 H949 0.930 . S
C958 C956 1.384 . S
C958 C959 1.372 . S
C959 C958 1.372 . S
C959 C960 1.400 . S
C959 C964 1.490 . S
C960 H950 0.930 . S
C960 C959 1.400 . S
C960 C963 1.386 . S
H961 C977 0.930 . S
H962 C978 0.931 . S
C963 H951 0.929 . S
C963 C957 1.390 . S
C963 C960 1.386 . S
C964 C959 1.490 . S
C964 C966 1.395 . S
C964 C967 1.403 . S
H965 C971 0.930 . S
C966 H952 0.930 . S
C966 C964 1.395 . S
C966 C969 1.403 . S
C967 C964 1.403 . S
C967 C968 1.524 . S
C967 C971 1.400 . S
C968 H953 0.960 . S
C968 H954 0.960 . S
C968 H955 0.960 . S
C968 C967 1.524 . S
C969 C966 1.403 . S
C969 C970 1.392 . S
C969 C973 1.495 . S
C970 C969 1.392 . S
C970 C971 1.385 . S
C970 C972 1.478 . S
C971 H965 0.930 . S
C971 C967 1.400 . S
C971 C970 1.385 . S
C972 C970 1.478 . S
C972 C974 1.381 . S
C972 C978 1.383 . S
C973 C969 1.495 . S
C973 H979 0.959 . S
C973 H980 0.961 . S
C973 H981 0.960 . S
C974 C972 1.381 . S
C974 C975 1.394 . S
C974 H982 0.930 . S
C975 C974 1.394 . S
C975 C976 1.383 . S
C975 H983 0.929 . S
C976 C975 1.383 . S
C976 C977 1.377 . S
C977 H961 0.930 . S
C977 C976 1.377 . S
C977 C978 1.379 . S
C978 H962 0.931 . S
C978 C972 1.383 . S
C978 C977 1.379 . S
H979 C973 0.959 . S
H980 C973 0.961 . S
H981 C973 0.960 . S
H982 C974 0.930 . S
H983 C975 0.929 . S
H984 C992 0.929 . S
H985 C994 0.930 . S
H986 C996 0.930 . S
H987 C999 0.929 . S
H988 C1002 0.930 . S
H989 C1004 0.960 . S
H990 C1004 0.960 . S
H991 C1004 0.960 . S
C992 H984 0.929 . S
C992 C993 1.377 . S
C992 C994 1.384 . S
C993 C992 1.377 . S
C993 C999 1.390 . S
C994 H985 0.930 . S
C994 C992 1.384 . S
C994 C995 1.372 . S
C995 C994 1.372 . S
C995 C996 1.400 . S
C995 C1000 1.490 . S
C996 H986 0.930 . S
C996 C995 1.400 . S
C996 C999 1.386 . S
H997 C1013 0.930 1_554 S
H998 C1014 0.931 . S
C999 H987 0.929 . S
C999 C993 1.390 . S
C999 C996 1.386 . S
C1000 C995 1.490 . S
C1000 C1002 1.395 . S
C1000 C1003 1.403 . S
H1001 C1007 0.930 . S
C1002 H988 0.930 . S
C1002 C1000 1.395 . S
C1002 C1005 1.403 . S
C1003 C1000 1.403 . S
C1003 C1004 1.524 . S
C1003 C1007 1.400 . S
C1004 H989 0.960 . S
C1004 H990 0.960 . S
C1004 H991 0.960 . S
C1004 C1003 1.524 . S
C1005 C1002 1.403 . S
C1005 C1006 1.392 . S
C1005 C1009 1.495 . S
C1006 C1005 1.392 . S
C1006 C1007 1.385 . S
C1006 C1008 1.478 . S
C1007 H1001 0.930 . S
C1007 C1003 1.400 . S
C1007 C1006 1.385 . S
C1008 C1006 1.478 . S
C1008 C1010 1.381 . S
C1008 C1014 1.383 . S
C1009 C1005 1.495 . S
C1009 H1015 0.959 . S
C1009 H1016 0.961 . S
C1009 H1017 0.960 . S
C1010 C1008 1.381 . S
C1010 C1011 1.394 . S
C1010 H1018 0.930 . S
C1011 C1010 1.394 . S
C1011 C1012 1.383 . S
C1011 H1019 0.929 . S
C1012 C1011 1.383 . S
C1012 C1013 1.377 . S
C1013 H997 0.930 1_556 S
C1013 C1012 1.377 . S
C1013 C1014 1.379 . S
C1014 H998 0.931 . S
C1014 C1008 1.383 . S
C1014 C1013 1.379 . S
H1015 C1009 0.959 . S
H1016 C1009 0.961 . S
H1017 C1009 0.960 . S
H1018 C1010 0.930 . S
H1019 C1011 0.929 . S
H1020 C1028 0.929 . S
H1021 C1030 0.930 . S
H1022 C1032 0.930 . S
H1023 C1035 0.929 . S
H1024 C1038 0.930 . S
H1025 C1040 0.960 . S
H1026 C1040 0.960 . S
H1027 C1040 0.960 . S
C1028 H1020 0.929 . S
C1028 C1029 1.377 . S
C1028 C1030 1.384 . S
C1029 C1028 1.377 . S
C1029 C1035 1.390 . S
C1030 H1021 0.930 . S
C1030 C1028 1.384 . S
C1030 C1031 1.372 . S
C1031 C1030 1.372 . S
C1031 C1032 1.400 . S
C1031 C1036 1.490 . S
C1032 H1022 0.930 . S
C1032 C1031 1.400 . S
C1032 C1035 1.386 . S
H1033 C1049 0.930 . S
H1034 C1050 0.931 . S
C1035 H1023 0.929 . S
C1035 C1029 1.390 . S
C1035 C1032 1.386 . S
C1036 C1031 1.490 . S
C1036 C1038 1.395 . S
C1036 C1039 1.403 . S
H1037 C1043 0.930 . S
C1038 H1024 0.930 . S
C1038 C1036 1.395 . S
C1038 C1041 1.403 . S
C1039 C1036 1.403 . S
C1039 C1040 1.524 . S
C1039 C1043 1.400 . S
C1040 H1025 0.960 . S
C1040 H1026 0.960 . S
C1040 H1027 0.960 . S
C1040 C1039 1.524 . S
C1041 C1038 1.403 . S
C1041 C1042 1.392 . S
C1041 C1045 1.495 . S
C1042 C1041 1.392 . S
C1042 C1043 1.385 . S
C1042 C1044 1.478 . S
C1043 H1037 0.930 . S
C1043 C1039 1.400 . S
C1043 C1042 1.385 . S
C1044 C1042 1.478 . S
C1044 C1046 1.381 . S
C1044 C1050 1.383 . S
C1045 C1041 1.495 . S
C1045 H1051 0.959 . S
C1045 H1052 0.961 . S
C1045 H1053 0.960 . S
C1046 C1044 1.381 . S
C1046 C1047 1.394 . S
C1046 H1054 0.930 . S
C1047 C1046 1.394 . S
C1047 C1048 1.383 . S
C1047 H1055 0.929 . S
C1048 C1047 1.383 . S
C1048 C1049 1.377 . S
C1049 H1033 0.930 . S
C1049 C1048 1.377 . S
C1049 C1050 1.379 . S
C1050 H1034 0.931 . S
C1050 C1044 1.383 . S
C1050 C1049 1.379 . S
H1051 C1045 0.959 . S
H1052 C1045 0.961 . S
H1053 C1045 0.960 . S
H1054 C1046 0.930 . S
H1055 C1047 0.929 . S
H1056 C1064 0.929 . S
H1057 C1066 0.930 . S
H1058 C1068 0.930 . S
H1059 C1071 0.929 . S
H1060 C1074 0.930 . S
H1061 C1076 0.960 . S
H1062 C1076 0.960 . S
H1063 C1076 0.960 . S
C1064 H1056 0.929 . S
C1064 C1065 1.377 . S
C1064 C1066 1.384 . S
C1065 C1064 1.377 . S
C1065 C1071 1.390 . S
C1066 H1057 0.930 . S
C1066 C1064 1.384 . S
C1066 C1067 1.372 . S
C1067 C1066 1.372 . S
C1067 C1068 1.400 . S
C1067 C1072 1.490 . S
C1068 H1058 0.930 . S
C1068 C1067 1.400 . S
C1068 C1071 1.386 . S
H1069 C1085 0.930 . S
H1070 C1086 0.931 . S
C1071 H1059 0.929 . S
C1071 C1065 1.390 . S
C1071 C1068 1.386 . S
C1072 C1067 1.490 . S
C1072 C1074 1.395 . S
C1072 C1075 1.403 . S
H1073 C1079 0.930 . S
C1074 H1060 0.930 . S
C1074 C1072 1.395 . S
C1074 C1077 1.403 . S
C1075 C1072 1.403 . S
C1075 C1076 1.524 . S
C1075 C1079 1.400 . S
C1076 H1061 0.960 . S
C1076 H1062 0.960 . S
C1076 H1063 0.960 . S
C1076 C1075 1.524 . S
C1077 C1074 1.403 . S
C1077 C1078 1.392 . S
C1077 C1081 1.495 . S
C1078 C1077 1.392 . S
C1078 C1079 1.385 . S
C1078 C1080 1.478 . S
C1079 H1073 0.930 . S
C1079 C1075 1.400 . S
C1079 C1078 1.385 . S
C1080 C1078 1.478 . S
C1080 C1082 1.381 . S
C1080 C1086 1.383 . S
C1081 C1077 1.495 . S
C1081 H1087 0.959 . S
C1081 H1088 0.961 . S
C1081 H1089 0.960 . S
C1082 C1080 1.381 . S
C1082 C1083 1.394 . S
C1082 H1090 0.930 . S
C1083 C1082 1.394 . S
C1083 C1084 1.383 . S
C1083 H1091 0.929 1_554 S
C1084 C1083 1.383 . S
C1084 C1085 1.377 . S
C1085 H1069 0.930 . S
C1085 C1084 1.377 . S
C1085 C1086 1.379 . S
C1086 H1070 0.931 . S
C1086 C1080 1.383 . S
C1086 C1085 1.379 . S
H1087 C1081 0.959 . S
H1088 C1081 0.961 . S
H1089 C1081 0.960 . S
H1090 C1082 0.930 . S
H1091 C1083 0.929 1_556 S
H1092 C1100 0.929 . S
H1093 C1102 0.930 . S
H1094 C1104 0.930 . S
H1095 C1107 0.929 . S
H1096 C1110 0.930 . S
H1097 C1112 0.960 . S
H1098 C1112 0.960 . S
H1099 C1112 0.960 . S
C1100 H1092 0.929 . S
C1100 C1101 1.377 . S
C1100 C1102 1.384 . S
C1101 C1100 1.377 . S
C1101 C1107 1.390 . S
C1102 H1093 0.930 . S
C1102 C1100 1.384 . S
C1102 C1103 1.372 . S
C1103 C1102 1.372 . S
C1103 C1104 1.400 . S
C1103 C1108 1.490 . S
C1104 H1094 0.930 . S
C1104 C1103 1.400 . S
C1104 C1107 1.386 . S
H1105 C1121 0.930 . S
H1106 C1122 0.931 . S
C1107 H1095 0.929 . S
C1107 C1101 1.390 . S
C1107 C1104 1.386 . S
C1108 C1103 1.490 . S
C1108 C1110 1.395 . S
C1108 C1111 1.403 . S
H1109 C1115 0.930 . S
C1110 H1096 0.930 . S
C1110 C1108 1.395 . S
C1110 C1113 1.403 . S
C1111 C1108 1.403 . S
C1111 C1112 1.524 . S
C1111 C1115 1.400 . S
C1112 H1097 0.960 . S
C1112 H1098 0.960 . S
C1112 H1099 0.960 . S
C1112 C1111 1.524 . S
C1113 C1110 1.403 . S
C1113 C1114 1.392 . S
C1113 C1117 1.495 . S
C1114 C1113 1.392 . S
C1114 C1115 1.385 . S
C1114 C1116 1.478 . S
C1115 H1109 0.930 . S
C1115 C1111 1.400 . S
C1115 C1114 1.385 . S
C1116 C1114 1.478 . S
C1116 C1118 1.381 . S
C1116 C1122 1.383 . S
C1117 C1113 1.495 . S
C1117 H1123 0.959 . S
C1117 H1124 0.961 . S
C1117 H1125 0.960 . S
C1118 C1116 1.381 . S
C1118 C1119 1.394 . S
C1118 H1126 0.930 . S
C1119 C1118 1.394 . S
C1119 C1120 1.383 . S
C1119 H1127 0.929 . S
C1120 C1119 1.383 . S
C1120 C1121 1.377 . S
C1121 H1105 0.930 . S
C1121 C1120 1.377 . S
C1121 C1122 1.379 . S
C1122 H1106 0.931 . S
C1122 C1116 1.383 . S
C1122 C1121 1.379 . S
H1123 C1117 0.959 . S
H1124 C1117 0.961 . S
H1125 C1117 0.960 . S
H1126 C1118 0.930 . S
H1127 C1119 0.929 . S
H1128 C1136 0.929 . S
H1129 C1138 0.930 . S
H1130 C1140 0.930 . S
H1131 C1143 0.929 . S
H1132 C1146 0.930 . S
H1133 C1148 0.960 . S
H1134 C1148 0.960 . S
H1135 C1148 0.960 . S
C1136 H1128 0.929 . S
C1136 C1137 1.377 . S
C1136 C1138 1.384 . S
C1137 C1136 1.377 . S
C1137 C1143 1.390 . S
C1138 H1129 0.930 . S
C1138 C1136 1.384 . S
C1138 C1139 1.372 . S
C1139 C1138 1.372 . S
C1139 C1140 1.400 . S
C1139 C1144 1.490 . S
C1140 H1130 0.930 . S
C1140 C1139 1.400 . S
C1140 C1143 1.386 . S
H1141 C1157 0.930 1_554 S
H1142 C1158 0.931 1_554 S
C1143 H1131 0.929 . S
C1143 C1137 1.390 . S
C1143 C1140 1.386 . S
C1144 C1139 1.490 . S
C1144 C1146 1.395 . S
C1144 C1147 1.403 . S
H1145 C1151 0.930 . S
C1146 H1132 0.930 . S
C1146 C1144 1.395 . S
C1146 C1149 1.403 . S
C1147 C1144 1.403 . S
C1147 C1148 1.524 . S
C1147 C1151 1.400 . S
C1148 H1133 0.960 . S
C1148 H1134 0.960 . S
C1148 H1135 0.960 . S
C1148 C1147 1.524 . S
C1149 C1146 1.403 . S
C1149 C1150 1.392 . S
C1149 C1153 1.495 1_655 S
C1150 C1149 1.392 . S
C1150 C1151 1.385 . S
C1150 C1152 1.478 . S
C1151 H1145 0.930 . S
C1151 C1147 1.400 . S
C1151 C1150 1.385 . S
C1152 C1150 1.478 . S
C1152 C1154 1.381 . S
C1152 C1158 1.383 . S
C1153 C1149 1.495 1_455 S
C1153 H1159 0.959 . S
C1153 H1160 0.961 . S
C1153 H1161 0.960 . S
C1154 C1152 1.381 . S
C1154 C1155 1.394 . S
C1154 H1162 0.930 . S
C1155 C1154 1.394 . S
C1155 C1156 1.383 . S
C1155 H1163 0.929 . S
C1156 C1155 1.383 . S
C1156 C1157 1.377 . S
C1157 H1141 0.930 1_556 S
C1157 C1156 1.377 . S
C1157 C1158 1.379 . S
C1158 H1142 0.931 1_556 S
C1158 C1152 1.383 . S
C1158 C1157 1.379 . S
H1159 C1153 0.959 . S
H1160 C1153 0.961 . S
H1161 C1153 0.960 . S
H1162 C1154 0.930 . S
H1163 C1155 0.929 . S
H1164 C1172 0.929 . S
H1165 C1174 0.930 . S
H1166 C1176 0.930 . S
H1167 C1179 0.929 . S
H1168 C1182 0.930 . S
H1169 C1184 0.960 . S
H1170 C1184 0.960 . S
H1171 C1184 0.960 . S
C1172 H1164 0.929 . S
C1172 C1173 1.377 . S
C1172 C1174 1.384 . S
C1173 C1172 1.377 . S
C1173 C1179 1.390 . S
C1174 H1165 0.930 . S
C1174 C1172 1.384 . S
C1174 C1175 1.372 . S
C1175 C1174 1.372 . S
C1175 C1176 1.400 . S
C1175 C1180 1.490 . S
C1176 H1166 0.930 . S
C1176 C1175 1.400 . S
C1176 C1179 1.386 . S
H1177 C1193 0.930 . S
H1178 C1194 0.931 . S
C1179 H1167 0.929 . S
C1179 C1173 1.390 . S
C1179 C1176 1.386 . S
C1180 C1175 1.490 . S
C1180 C1182 1.395 . S
C1180 C1183 1.403 . S
H1181 C1187 0.930 . S
C1182 H1168 0.930 . S
C1182 C1180 1.395 . S
C1182 C1185 1.403 . S
C1183 C1180 1.403 . S
C1183 C1184 1.524 . S
C1183 C1187 1.400 . S
C1184 H1169 0.960 . S
C1184 H1170 0.960 . S
C1184 H1171 0.960 . S
C1184 C1183 1.524 . S
C1185 C1182 1.403 . S
C1185 C1186 1.392 . S
C1185 C1189 1.495 . S
C1186 C1185 1.392 . S
C1186 C1187 1.385 . S
C1186 C1188 1.478 . S
C1187 H1181 0.930 . S
C1187 C1183 1.400 . S
C1187 C1186 1.385 . S
C1188 C1186 1.478 . S
C1188 C1190 1.381 . S
C1188 C1194 1.383 . S
C1189 C1185 1.495 . S
C1189 H1195 0.959 . S
C1189 H1196 0.961 . S
C1189 H1197 0.960 . S
C1190 C1188 1.381 . S
C1190 C1191 1.394 . S
C1190 H1198 0.930 . S
C1191 C1190 1.394 . S
C1191 C1192 1.383 . S
C1191 H1199 0.929 1_554 S
C1192 C1191 1.383 . S
C1192 C1193 1.377 . S
C1193 H1177 0.930 . S
C1193 C1192 1.377 . S
C1193 C1194 1.379 . S
C1194 H1178 0.931 . S
C1194 C1188 1.383 . S
C1194 C1193 1.379 . S
H1195 C1189 0.959 . S
H1196 C1189 0.961 . S
H1197 C1189 0.960 . S
H1198 C1190 0.930 . S
H1199 C1191 0.929 1_556 S
H1200 C1208 0.929 . S
H1201 C1210 0.930 . S
H1202 C1212 0.930 . S
H1203 C1215 0.929 . S
H1204 C1218 0.930 . S
H1205 C1220 0.960 1_655 S
H1206 C1220 0.960 . S
H1207 C1220 0.960 . S
C1208 H1200 0.929 . S
C1208 C1209 1.377 . S
C1208 C1210 1.384 . S
C1209 C1208 1.377 . S
C1209 C1215 1.390 . S
C1210 H1201 0.930 . S
C1210 C1208 1.384 . S
C1210 C1211 1.372 . S
C1211 C1210 1.372 . S
C1211 C1212 1.400 . S
C1211 C1216 1.490 . S
C1212 H1202 0.930 . S
C1212 C1211 1.400 . S
C1212 C1215 1.386 . S
H1213 C1229 0.930 1_655 S
H1214 C1230 0.931 . S
C1215 H1203 0.929 . S
C1215 C1209 1.390 . S
C1215 C1212 1.386 . S
C1216 C1211 1.490 . S
C1216 C1218 1.395 . S
C1216 C1219 1.403 . S
H1217 C1223 0.930 . S
C1218 H1204 0.930 . S
C1218 C1216 1.395 . S
C1218 C1221 1.403 . S
C1219 C1216 1.403 . S
C1219 C1220 1.524 . S
C1219 C1223 1.400 . S
C1220 H1205 0.960 1_455 S
C1220 H1206 0.960 . S
C1220 H1207 0.960 . S
C1220 C1219 1.524 . S
C1221 C1218 1.403 . S
C1221 C1222 1.392 . S
C1221 C1225 1.495 . S
C1222 C1221 1.392 . S
C1222 C1223 1.385 . S
C1222 C1224 1.478 . S
C1223 H1217 0.930 . S
C1223 C1219 1.400 . S
C1223 C1222 1.385 . S
C1224 C1222 1.478 . S
C1224 C1226 1.381 . S
C1224 C1230 1.383 . S
C1225 C1221 1.495 . S
C1225 H1231 0.959 . S
C1225 H1232 0.961 . S
C1225 H1233 0.960 . S
C1226 C1224 1.381 . S
C1226 C1227 1.394 . S
C1226 H1234 0.930 . S
C1227 C1226 1.394 . S
C1227 C1228 1.383 . S
C1227 H1235 0.929 . S
C1228 C1227 1.383 . S
C1228 C1229 1.377 . S
C1229 H1213 0.930 1_455 S
C1229 C1228 1.377 . S
C1229 C1230 1.379 . S
C1230 H1214 0.931 . S
C1230 C1224 1.383 . S
C1230 C1229 1.379 . S
H1231 C1225 0.959 . S
H1232 C1225 0.961 . S
H1233 C1225 0.960 . S
H1234 C1226 0.930 . S
H1235 C1227 0.929 . S
H1236 C1244 0.929 . S
H1237 C1246 0.930 . S
H1238 C1248 0.930 . S
H1239 C1251 0.929 . S
H1240 C1254 0.930 . S
H1241 C1256 0.960 . S
H1242 C1256 0.960 . S
H1243 C1256 0.960 . S
C1244 H1236 0.929 . S
C1244 C1245 1.377 . S
C1244 C1246 1.384 . S
C1245 C1244 1.377 . S
C1245 C1251 1.390 . S
C1246 H1237 0.930 . S
C1246 C1244 1.384 . S
C1246 C1247 1.372 . S
C1247 C1246 1.372 . S
C1247 C1248 1.400 . S
C1247 C1252 1.490 . S
C1248 H1238 0.930 . S
C1248 C1247 1.400 . S
C1248 C1251 1.386 . S
H1249 C1265 0.930 . S
H1250 C1266 0.931 . S
C1251 H1239 0.929 . S
C1251 C1245 1.390 . S
C1251 C1248 1.386 . S
C1252 C1247 1.490 . S
C1252 C1254 1.395 . S
C1252 C1255 1.403 . S
H1253 C1259 0.930 . S
C1254 H1240 0.930 . S
C1254 C1252 1.395 . S
C1254 C1257 1.403 . S
C1255 C1252 1.403 . S
C1255 C1256 1.524 . S
C1255 C1259 1.400 . S
C1256 H1241 0.960 . S
C1256 H1242 0.960 . S
C1256 H1243 0.960 . S
C1256 C1255 1.524 . S
C1257 C1254 1.403 . S
C1257 C1258 1.392 . S
C1257 C1261 1.495 . S
C1258 C1257 1.392 . S
C1258 C1259 1.385 . S
C1258 C1260 1.478 . S
C1259 H1253 0.930 . S
C1259 C1255 1.400 . S
C1259 C1258 1.385 . S
C1260 C1258 1.478 . S
C1260 C1262 1.381 . S
C1260 C1266 1.383 . S
C1261 C1257 1.495 . S
C1261 H1267 0.959 . S
C1261 H1268 0.961 . S
C1261 H1269 0.960 . S
C1262 C1260 1.381 . S
C1262 C1263 1.394 . S
C1262 H1270 0.930 . S
C1263 C1262 1.394 . S
C1263 C1264 1.383 . S
C1263 H1271 0.929 . S
C1264 C1263 1.383 . S
C1264 C1265 1.377 . S
C1265 H1249 0.930 . S
C1265 C1264 1.377 . S
C1265 C1266 1.379 . S
C1266 H1250 0.931 . S
C1266 C1260 1.383 . S
C1266 C1265 1.379 . S
H1267 C1261 0.959 . S
H1268 C1261 0.961 . S
H1269 C1261 0.960 . S
H1270 C1262 0.930 . S
H1271 C1263 0.929 . S
C417 C1 2.156 . S
C436 C304 2.183 . S
C453 C67 1.090 . S
C472 N324 1.052 . S
C508 C358 1.967 . S
C489 C97 1.934 . S
C525 C133 1.342 . S
C544 N392 1.247 . S
C580 C345 2.378 . S
C561 C25 2.343 . S
C616 N302 1.128 . S
C597 C37 1.190 . S
C652 C379 1.967 . S
C633 C103 1.934 . S
C688 N354 1.024 . S
C669 C109 1.010 . S
C705 C31 1.827 . S
C724 C394 1.860 . S
C760 C328 1.689 . S
C741 C73 1.670 . S
C777 C139 1.491 . S
C796 C289 1.484 . S
C813 C61 1.435 . S
C832 C375 1.459 . S
C868 C315 2.191 . S
C849 C175 2.194 . S
C885 C181 1.085 . S
C904 N332 1.069 . S
C921 C247 1.989 . S
C940 C349 1.978 . S
C957 C277 1.329 . S
C976 N384 1.247 . S
C993 C145 2.371 . S
C1012 C334 2.372 . S
C1048 N294 1.174 . S
C1029 C211 1.198 . S
C1084 C388 1.944 . S
C1065 C217 1.944 . S
C1120 N362 1.045 . S
C1101 C283 1.030 . S
C1137 C169 1.849 . S
C1156 C405 1.853 . S
C1192 C319 1.699 . S
C1173 C241 1.697 . S
C1228 C298 1.486 . S
C1209 C253 1.479 . S
C1245 C205 1.437 . S
C1264 C364 1.465 . S
