# Generated by pormake.
# Topology ptr, (4,4)-cn, num edge types: 1
# Building blocks:
#     Node 0, Type 0, BuildingBlock: NAHDIM_clean_sbu_0, # of connection points: 4
#     Node 1, Type 0, BuildingBlock: NAHDIM_clean_sbu_0, # of connection points: 4
#     Node 2, Type 0, BuildingBlock: NAHDIM_clean_sbu_0, # of connection points: 4
#     Node 3, Type 0, BuildingBlock: NAHDIM_clean_sbu_0, # of connection points: 4
#     Node 4, Type 0, BuildingBlock: NAHDIM_clean_sbu_0, # of connection points: 4
#     Node 5, Type 0, BuildingBlock: NAHDIM_clean_sbu_0, # of connection points: 4
#     Node 6, Type 0, BuildingBlock: NAHDIM_clean_sbu_0, # of connection points: 4
#     Node 7, Type 0, BuildingBlock: NAHDIM_clean_sbu_0, # of connection points: 4
#     Node 8, Type 0, BuildingBlock: NAHDIM_clean_sbu_0, # of connection points: 4
#     Node 9, Type 0, BuildingBlock: NAHDIM_clean_sbu_0, # of connection points: 4
#     Node 10, Type 0, BuildingBlock: NAHDIM_clean_sbu_0, # of connection points: 4
#     Node 11, Type 0, BuildingBlock: NAHDIM_clean_sbu_0, # of connection points: 4
#     Node 12, Type 0, BuildingBlock: NAHDIM_clean_sbu_0, # of connection points: 4
#     Node 13, Type 0, BuildingBlock: NAHDIM_clean_sbu_0, # of connection points: 4
#     Node 14, Type 0, BuildingBlock: NAHDIM_clean_sbu_0, # of connection points: 4
#     Node 15, Type 0, BuildingBlock: NAHDIM_clean_sbu_0, # of connection points: 4
#     Node 16, Type 0, BuildingBlock: NAHDIM_clean_sbu_0, # of connection points: 4
#     Node 17, Type 0, BuildingBlock: NAHDIM_clean_sbu_0, # of connection points: 4
#     Node 18, Type 1, BuildingBlock: GIZVER_clean_linker_0, # of connection points: 4
#     Node 19, Type 1, BuildingBlock: GIZVER_clean_linker_0, # of connection points: 4
#     Node 20, Type 1, BuildingBlock: GIZVER_clean_linker_0, # of connection points: 4
#     Node 21, Type 1, BuildingBlock: GIZVER_clean_linker_0, # of connection points: 4
#     Node 22, Type 1, BuildingBlock: GIZVER_clean_linker_0, # of connection points: 4
#     Node 23, Type 1, BuildingBlock: GIZVER_clean_linker_0, # of connection points: 4
#     Node 24, Type 1, BuildingBlock: GIZVER_clean_linker_0, # of connection points: 4
#     Node 25, Type 1, BuildingBlock: GIZVER_clean_linker_0, # of connection points: 4
#     Node 26, Type 1, BuildingBlock: GIZVER_clean_linker_0, # of connection points: 4
#     Node 27, Type 1, BuildingBlock: GIZVER_clean_linker_0, # of connection points: 4
#     Node 28, Type 1, BuildingBlock: GIZVER_clean_linker_0, # of connection points: 4
#     Node 29, Type 1, BuildingBlock: GIZVER_clean_linker_0, # of connection points: 4
#     Node 30, Type 1, BuildingBlock: GIZVER_clean_linker_0, # of connection points: 4
#     Node 31, Type 1, BuildingBlock: GIZVER_clean_linker_0, # of connection points: 4
#     Node 32, Type 1, BuildingBlock: GIZVER_clean_linker_0, # of connection points: 4
#     Node 33, Type 1, BuildingBlock: GIZVER_clean_linker_0, # of connection points: 4
#     Node 34, Type 1, BuildingBlock: GIZVER_clean_linker_0, # of connection points: 4
#     Node 35, Type 1, BuildingBlock: GIZVER_clean_linker_0, # of connection points: 4
#     Edge 36, Type (0, 1), BuildingBlock: AJUNOK_clean_linker_0, # of connection points: 2
#     Edge 37, Type (0, 1), BuildingBlock: AJUNOK_clean_linker_0, # of connection points: 2
#     Edge 38, Type (0, 1), BuildingBlock: AJUNOK_clean_linker_0, # of connection points: 2
#     Edge 39, Type (0, 1), BuildingBlock: AJUNOK_clean_linker_0, # of connection points: 2
#     Edge 40, Type (0, 1), BuildingBlock: AJUNOK_clean_linker_0, # of connection points: 2
#     Edge 41, Type (0, 1), BuildingBlock: AJUNOK_clean_linker_0, # of connection points: 2
#     Edge 42, Type (0, 1), BuildingBlock: AJUNOK_clean_linker_0, # of connection points: 2
#     Edge 43, Type (0, 1), BuildingBlock: AJUNOK_clean_linker_0, # of connection points: 2
#     Edge 44, Type (0, 1), BuildingBlock: AJUNOK_clean_linker_0, # of connection points: 2
#     Edge 45, Type (0, 1), BuildingBlock: AJUNOK_clean_linker_0, # of connection points: 2
#     Edge 46, Type (0, 1), BuildingBlock: AJUNOK_clean_linker_0, # of connection points: 2
#     Edge 47, Type (0, 1), BuildingBlock: AJUNOK_clean_linker_0, # of connection points: 2
#     Edge 48, Type (0, 1), BuildingBlock: AJUNOK_clean_linker_0, # of connection points: 2
#     Edge 49, Type (0, 1), BuildingBlock: AJUNOK_clean_linker_0, # of connection points: 2
#     Edge 50, Type (0, 1), BuildingBlock: AJUNOK_clean_linker_0, # of connection points: 2
#     Edge 51, Type (0, 1), BuildingBlock: AJUNOK_clean_linker_0, # of connection points: 2
#     Edge 52, Type (0, 1), BuildingBlock: AJUNOK_clean_linker_0, # of connection points: 2
#     Edge 53, Type (0, 1), BuildingBlock: AJUNOK_clean_linker_0, # of connection points: 2
#     Edge 54, Type (0, 1), BuildingBlock: AJUNOK_clean_linker_0, # of connection points: 2
#     Edge 55, Type (0, 1), BuildingBlock: AJUNOK_clean_linker_0, # of connection points: 2
#     Edge 56, Type (0, 1), BuildingBlock: AJUNOK_clean_linker_0, # of connection points: 2
#     Edge 57, Type (0, 1), BuildingBlock: AJUNOK_clean_linker_0, # of connection points: 2
#     Edge 58, Type (0, 1), BuildingBlock: AJUNOK_clean_linker_0, # of connection points: 2
#     Edge 59, Type (0, 1), BuildingBlock: AJUNOK_clean_linker_0, # of connection points: 2
#     Edge 60, Type (0, 1), BuildingBlock: AJUNOK_clean_linker_0, # of connection points: 2
#     Edge 61, Type (0, 1), BuildingBlock: AJUNOK_clean_linker_0, # of connection points: 2
#     Edge 62, Type (0, 1), BuildingBlock: AJUNOK_clean_linker_0, # of connection points: 2
#     Edge 63, Type (0, 1), BuildingBlock: AJUNOK_clean_linker_0, # of connection points: 2
#     Edge 64, Type (0, 1), BuildingBlock: AJUNOK_clean_linker_0, # of connection points: 2
#     Edge 65, Type (0, 1), BuildingBlock: AJUNOK_clean_linker_0, # of connection points: 2
#     Edge 66, Type (0, 1), BuildingBlock: AJUNOK_clean_linker_0, # of connection points: 2
#     Edge 67, Type (0, 1), BuildingBlock: AJUNOK_clean_linker_0, # of connection points: 2
#     Edge 68, Type (0, 1), BuildingBlock: AJUNOK_clean_linker_0, # of connection points: 2
#     Edge 69, Type (0, 1), BuildingBlock: AJUNOK_clean_linker_0, # of connection points: 2
#     Edge 70, Type (0, 1), BuildingBlock: AJUNOK_clean_linker_0, # of connection points: 2
#     Edge 71, Type (0, 1), BuildingBlock: AJUNOK_clean_linker_0, # of connection points: 2
#     Edge 72, Type (0, 1), BuildingBlock: AJUNOK_clean_linker_0, # of connection points: 2
#     Edge 73, Type (0, 1), BuildingBlock: AJUNOK_clean_linker_0, # of connection points: 2
#     Edge 74, Type (0, 1), BuildingBlock: AJUNOK_clean_linker_0, # of connection points: 2
#     Edge 75, Type (0, 1), BuildingBlock: AJUNOK_clean_linker_0, # of connection points: 2
#     Edge 76, Type (0, 1), BuildingBlock: AJUNOK_clean_linker_0, # of connection points: 2
#     Edge 77, Type (0, 1), BuildingBlock: AJUNOK_clean_linker_0, # of connection points: 2
#     Edge 78, Type (0, 1), BuildingBlock: AJUNOK_clean_linker_0, # of connection points: 2
#     Edge 79, Type (0, 1), BuildingBlock: AJUNOK_clean_linker_0, # of connection points: 2
#     Edge 80, Type (0, 1), BuildingBlock: AJUNOK_clean_linker_0, # of connection points: 2
#     Edge 81, Type (0, 1), BuildingBlock: AJUNOK_clean_linker_0, # of connection points: 2
#     Edge 82, Type (0, 1), BuildingBlock: AJUNOK_clean_linker_0, # of connection points: 2
#     Edge 83, Type (0, 1), BuildingBlock: AJUNOK_clean_linker_0, # of connection points: 2
#     Edge 84, Type (0, 1), BuildingBlock: AJUNOK_clean_linker_0, # of connection points: 2
#     Edge 85, Type (0, 1), BuildingBlock: AJUNOK_clean_linker_0, # of connection points: 2
#     Edge 86, Type (0, 1), BuildingBlock: AJUNOK_clean_linker_0, # of connection points: 2
#     Edge 87, Type (0, 1), BuildingBlock: AJUNOK_clean_linker_0, # of connection points: 2
#     Edge 88, Type (0, 1), BuildingBlock: AJUNOK_clean_linker_0, # of connection points: 2
#     Edge 89, Type (0, 1), BuildingBlock: AJUNOK_clean_linker_0, # of connection points: 2
#     Edge 90, Type (0, 1), BuildingBlock: AJUNOK_clean_linker_0, # of connection points: 2
#     Edge 91, Type (0, 1), BuildingBlock: AJUNOK_clean_linker_0, # of connection points: 2
#     Edge 92, Type (0, 1), BuildingBlock: AJUNOK_clean_linker_0, # of connection points: 2
#     Edge 93, Type (0, 1), BuildingBlock: AJUNOK_clean_linker_0, # of connection points: 2
#     Edge 94, Type (0, 1), BuildingBlock: AJUNOK_clean_linker_0, # of connection points: 2
#     Edge 95, Type (0, 1), BuildingBlock: AJUNOK_clean_linker_0, # of connection points: 2
#     Edge 96, Type (0, 1), BuildingBlock: AJUNOK_clean_linker_0, # of connection points: 2
#     Edge 97, Type (0, 1), BuildingBlock: AJUNOK_clean_linker_0, # of connection points: 2
#     Edge 98, Type (0, 1), BuildingBlock: AJUNOK_clean_linker_0, # of connection points: 2
#     Edge 99, Type (0, 1), BuildingBlock: AJUNOK_clean_linker_0, # of connection points: 2
#     Edge 100, Type (0, 1), BuildingBlock: AJUNOK_clean_linker_0, # of connection points: 2
#     Edge 101, Type (0, 1), BuildingBlock: AJUNOK_clean_linker_0, # of connection points: 2
#     Edge 102, Type (0, 1), BuildingBlock: AJUNOK_clean_linker_0, # of connection points: 2
#     Edge 103, Type (0, 1), BuildingBlock: AJUNOK_clean_linker_0, # of connection points: 2
#     Edge 104, Type (0, 1), BuildingBlock: AJUNOK_clean_linker_0, # of connection points: 2
#     Edge 105, Type (0, 1), BuildingBlock: AJUNOK_clean_linker_0, # of connection points: 2
#     Edge 106, Type (0, 1), BuildingBlock: AJUNOK_clean_linker_0, # of connection points: 2
#     Edge 107, Type (0, 1), BuildingBlock: AJUNOK_clean_linker_0, # of connection points: 2
# Relax obj value: 0.076
# Max RMSD: 0.213
# Mean RMSD: 0.115
data_MOF--net-ptr--node1-NAHDIM_clean_sbu_0--node2-GIZVER_clean_linker_0--edge1-AJUNOK_clean_linker_0
_symmetry_space_group_name_H-M    P1
_symmetry_Int_Tables_number       1
_symmetry_cell_setting            triclinic
loop_
_symmetry_equiv_pos_as_xyz
'x, y, z'
_cell_length_a     60.653703
_cell_length_b     59.484322
_cell_length_c     35.262617
_cell_angle_alpha  92.327152
_cell_angle_beta   89.440883
_cell_angle_gamma 121.8758
loop_
_atom_site_label
_atom_site_type_symbol
_atom_site_fract_x
_atom_site_fract_y
_atom_site_fract_z
_atom_type_partial_charge
C0 C 0.04864 0.36363 0.99078 0.0
O1 O 0.02871 0.34445 0.97143 0.0
O2 O 0.98426 0.34773 -0.00248 0.0
Zn3 Zn 0.01525 0.38529 0.00097 0.0
O4 O 0.01522 0.40331 0.05033 0.0
C5 C 0.99586 0.40466 0.9445 0.0
O6 O 0.97418 0.39015 0.96283 0.0
O7 O 0.04749 0.38329 0.00363 0.0
C8 C 0.0111 0.42197 0.05644 0.0
O9 O 1.00428 0.4308 0.02811 0.0
C10 C 0.96142 0.33908 0.0096 0.0
O11 O 0.95561 0.35555 0.02577 0.0
O12 O 0.01632 0.4059 0.9559 0.0
C13 C 0.69456 0.65138 0.02318 0.0
O14 O 0.69642 0.67398 0.03212 0.0
O15 O 0.64668 0.66721 0.02803 0.0
Zn16 Zn 0.63861 0.62975 0.02186 0.0
O17 O 0.62119 0.61343 0.97159 0.0
C18 C 0.59635 0.60664 0.07504 0.0
O19 O 0.58874 0.62017 0.05658 0.0
O20 O 0.67218 0.63043 0.0195 0.0
C21 C 0.5998 0.59166 0.96564 0.0
O22 O 0.58552 0.57856 0.99446 0.0
C23 C 0.63286 0.67594 0.01659 0.0
O24 O 0.61066 0.65979 -0.00105 0.0
O25 O 0.6171 0.60779 0.06513 0.0
C26 C 0.36482 0.05315 0.02353 0.0
O27 O 0.34497 0.03378 0.04077 0.0
O28 O 0.34347 0.98547 0.01946 0.0
Zn29 Zn 0.38107 0.01506 0.01486 0.0
O30 O 0.39585 0.00889 0.96693 0.0
C31 C 0.40516 0.99608 0.06176 0.0
O32 O 0.39634 0.97798 0.03394 0.0
O33 O 0.38292 0.04994 0.0117 0.0
C34 C 0.41995 0.018 0.96272 0.0
O35 O 0.43618 0.03229 0.99059 0.0
C36 C 0.33383 0.9622 0.00478 0.0
O37 O 0.34876 0.95639 0.98498 0.0
O38 O 0.40123 0.01502 0.06007 0.0
C39 C 0.95903 0.64487 0.01511 0.0
O40 O 0.9799 0.66619 0.02927 0.0
O41 O 0.02402 0.66207 0.0073 0.0
Zn42 Zn 0.99324 0.62436 0.00454 0.0
O43 O 0.99282 0.60465 0.95646 0.0
C44 C 0.01581 0.60964 0.06222 0.0
O45 O 0.03729 0.62732 0.04582 0.0
O46 O 0.96033 0.62496 0.00424 0.0
C47 C 0.00656 0.59455 0.95054 0.0
O48 O 0.02347 0.59764 0.9764 0.0
C49 C 0.04495 0.67143 0.98871 0.0
O50 O 0.0477 0.65608 0.96384 0.0
O51 O 0.99419 0.6051 0.04966 0.0
C52 C 0.31804 0.37233 0.99147 0.0
O53 O 0.31718 0.35454 0.96716 0.0
O54 O 0.36467 0.35155 0.99391 0.0
Zn55 Zn 0.37258 0.389 0.00216 0.0
O56 O 0.39311 0.40418 0.05063 0.0
C57 C 0.41675 0.41663 0.95467 0.0
O58 O 0.42701 0.40976 0.98099 0.0
O59 O 0.33941 0.38882 0.00822 0.0
C60 C 0.40851 0.42858 0.05939 0.0
O61 O 0.41183 0.44639 0.03535 0.0
C62 C 0.37909 0.34439 0.00827 0.0
O63 O 0.39896 0.36146 0.02982 0.0
O64 O 0.39328 0.4103 0.95796 0.0
C65 C 0.64311 0.95213 -0.00404 0.0
O66 O 0.6607 0.9697 0.97359 0.0
O67 O 0.66421 0.01981 -0.00161 0.0
Zn68 Zn 0.62684 0.99045 0.0059 0.0
O69 O 0.61292 0.99571 0.05551 0.0
C70 C 0.60503 0.00815 0.95111 0.0
O71 O 0.62087 0.03101 0.96886 0.0
O72 O 0.6264 0.95645 0.01072 0.0
C73 C 0.59271 0.99693 0.05964 0.0
O74 O 0.58018 0.997 0.02954 0.0
C75 C 0.67567 0.04348 0.01215 0.0
O76 O 0.66261 0.05114 0.03314 0.0
O77 O 0.60428 0.9876 0.96179 0.0
C78 C 0.71372 0.69345 0.3323 0.0
O79 O 0.69412 0.67488 0.31171 0.0
O80 O 0.6479 0.67684 0.34631 0.0
Zn81 Zn 0.67962 0.71393 0.34713 0.0
O82 O 0.68084 0.7342 0.3947 0.0
C83 C 0.69641 0.75595 0.29384 0.0
O84 O 0.71713 0.76864 0.31592 0.0
O85 O 0.71188 0.71203 0.34794 0.0
C86 C 0.67122 0.74864 0.39851 0.0
O87 O 0.6587 0.75053 0.36986 0.0
C88 C 0.62503 0.67199 0.35156 0.0
O89 O 0.62172 0.69179 0.35921 0.0
O90 O 0.67847 0.73262 0.30163 0.0
C91 C 0.35506 0.97929 0.35361 0.0
O92 O 0.35581 1.00025 0.36868 0.0
O93 O 0.30829 0.99617 0.34751 0.0
Zn94 Zn 0.29954 0.95824 0.34538 0.0
O95 O 0.28031 0.93837 0.29755 0.0
C96 C 0.26065 0.94205 0.40312 0.0
O97 O 0.25657 0.95898 0.38671 0.0
O98 O 0.33321 0.95896 0.34389 0.0
C99 C 0.25695 0.92998 0.28824 0.0
O100 O 0.24231 0.93453 0.31091 0.0
C101 C 0.29619 0.00591 0.33298 0.0
O102 O 0.27448 0.99045 0.31388 0.0
O103 O 0.27847 0.93868 0.39055 0.0
C104 C 0.03338 0.38867 0.35468 0.0
O105 O 0.01353 0.36975 0.37254 0.0
O106 O 0.01011 0.32099 0.35249 0.0
Zn107 Zn 0.04788 0.34932 0.34549 0.0
O108 O 0.06059 0.34181 0.29643 0.0
C109 C 0.07227 0.32934 0.38953 0.0
O110 O 0.06274 0.31155 0.3613 0.0
O111 O 0.05099 0.38481 0.34247 0.0
C112 C 0.08453 0.35117 0.2902 0.0
O113 O 0.10171 0.36646 0.31656 0.0
C114 C 0.99917 0.29739 0.33861 0.0
O115 O 0.01279 0.29024 0.318 0.0
O116 O 0.06876 0.34862 0.3892 0.0
C117 C 0.62641 0.98288 0.35975 0.0
O118 O 0.64546 1.00166 0.38091 0.0
O119 O 0.69351 0.99829 0.34114 0.0
Zn120 Zn 0.66081 0.96239 0.34538 0.0
O121 O 0.65859 0.93863 0.30166 0.0
C122 C 0.6569 0.92442 0.39995 0.0
O123 O 0.64548 0.90648 0.37219 0.0
O124 O 0.62892 0.9648 0.34382 0.0
C125 C 0.67719 0.93549 0.29302 0.0
O126 O 0.6987 0.94813 0.31349 0.0
C127 C 0.6966 0.01896 0.32654 0.0
O128 O 0.67671 0.0184 0.31103 0.0
O129 O 0.66383 0.94828 0.39459 0.0
C130 C 0.9827 0.70297 0.3234 0.0
O131 O 0.98175 0.68456 0.30034 0.0
O132 O 0.02786 0.68164 0.32831 0.0
Zn133 Zn 0.03704 0.71958 0.33349 0.0
O134 O 0.0583 0.73624 0.38109 0.0
C135 C 0.07968 0.74239 0.28262 0.0
O136 O 0.08911 0.73407 0.30812 0.0
O137 O 1.00424 0.72015 0.33912 0.0
C138 C 0.07483 0.76076 0.38727 0.0
O139 O 0.07922 0.77742 0.36066 0.0
C140 C 0.04083 0.67345 0.34451 0.0
O141 O 0.06104 0.69013 0.36583 0.0
O142 O 0.05727 0.73881 0.28765 0.0
C143 C 0.31146 0.28737 0.31996 0.0
O144 O 0.33108 0.30672 0.30228 0.0
O145 O 0.33108 0.35525 0.3267 0.0
Zn146 Zn 0.29382 0.32476 0.33069 0.0
O147 O 0.2786 0.32746 0.38042 0.0
C148 C 0.2732 0.34512 0.27845 0.0
O149 O 0.28854 0.36697 0.2987 0.0
O150 O 0.29346 0.29057 0.33221 0.0
C151 C 0.25859 0.32897 0.38493 0.0
O152 O 0.24688 0.33085 0.35521 0.0
C153 C 0.34092 0.37806 0.34312 0.0
O154 O 0.32635 0.38324 0.36496 0.0
O155 O 0.27215 0.32396 0.28671 0.0
C156 C 0.38173 0.02879 0.6638 0.0
O157 O 0.36249 0.01035 0.64255 0.0
O158 O 0.31677 0.01289 0.66859 0.0
Zn159 Zn 0.3481 0.05015 0.67371 0.0
O160 O 0.34649 0.06772 0.72264 0.0
C161 C 0.33075 0.07042 0.61545 0.0
O162 O 0.30813 0.05478 0.63095 0.0
O163 O 0.38004 0.04782 0.67804 0.0
C164 C 0.3417 0.08605 0.72686 0.0
O165 O 0.33634 0.09484 0.69694 0.0
C166 C 0.29437 0.00507 0.68188 0.0
O167 O 0.29005 0.02213 0.69981 0.0
O168 O 0.35073 0.07159 0.62885 0.0
C169 C 0.02064 0.30731 0.68028 0.0
O170 O 0.02305 0.3287 0.6968 0.0
O171 O 0.97495 0.32673 0.67955 0.0
Zn172 Zn 0.96535 0.28843 0.67705 0.0
O173 O 0.94255 0.26774 0.63198 0.0
C174 C 0.92895 0.24792 0.72882 0.0
O175 O 0.91783 0.23306 0.69801 0.0
O176 O 0.99818 0.28804 0.67052 0.0
C177 C 0.91991 0.26249 0.62379 0.0
O178 O 0.90823 0.27094 0.64642 0.0
C179 C 0.96562 0.33791 0.66117 0.0
O180 O 0.94659 0.32401 0.63659 0.0
O181 O 0.94864 0.27124 0.72594 0.0
C182 C 0.69697 0.72093 0.68747 0.0
O183 O 0.67767 0.70188 0.706 0.0
O184 O 0.67486 0.65302 0.68253 0.0
Zn185 Zn 0.71252 0.6824 0.6776 0.0
O186 O 0.72739 0.67585 0.62999 0.0
C187 C 0.73438 0.66188 0.72536 0.0
O188 O 0.72383 0.64316 0.69844 0.0
O189 O 0.7146 0.71742 0.67432 0.0
C190 C 0.75133 0.68381 0.6268 0.0
O191 O 0.76726 0.69723 0.65537 0.0
C192 C 0.66442 0.63015 0.66617 0.0
O193 O 0.67847 0.62456 0.64376 0.0
O194 O 0.73238 0.68203 0.72294 0.0
C195 C 0.29213 0.31017 0.68315 0.0
O196 O 0.31217 0.33067 0.70044 0.0
O197 O 0.35756 0.328 0.68236 0.0
Zn198 Zn 0.32699 0.29046 0.67533 0.0
O199 O 0.33108 0.27428 0.62672 0.0
C200 C 0.344 0.26466 0.72317 0.0
O201 O 0.36189 0.27231 0.69703 0.0
O202 O 0.29389 0.29064 0.67158 0.0
C203 C 0.32184 0.24963 0.62088 0.0
O204 O 0.30867 0.2333 0.64782 0.0
C205 C 0.37978 0.3359 0.66833 0.0
O206 O 0.38318 0.31933 0.64715 0.0
O207 O 0.32634 0.26989 0.71971 0.0
C208 C 0.65115 0.03963 0.66233 0.0
O209 O 0.65078 0.02125 0.63988 0.0
O210 O 0.69675 0.01957 0.67261 0.0
Zn211 Zn 0.7058 0.05763 0.67413 0.0
O212 O 0.72668 0.07752 0.72116 0.0
C213 C 0.742 0.07026 0.61382 0.0
O214 O 0.74555 0.05335 0.63135 0.0
O215 O 0.67249 0.05732 0.67799 0.0
C216 C 0.75123 0.09006 0.72518 0.0
O217 O 0.7656 0.0906 0.69672 0.0
C218 C 0.70953 0.011 0.68838 0.0
O219 O 0.73065 0.02759 0.70811 0.0
O220 O 0.72547 0.07545 0.6269 0.0
C221 C 0.97815 0.623 0.65674 0.0
O222 O 0.99645 0.64113 0.63578 0.0
O223 O 0.99938 0.69185 0.66333 0.0
Zn224 Zn 0.96204 0.66161 0.6686 0.0
O225 O 0.9466 0.66577 0.7175 0.0
C226 C 0.94188 0.6808 0.61364 0.0
O227 O 0.95757 0.70319 0.63251 0.0
O228 O 0.96156 0.62739 0.67181 0.0
C229 C 0.92679 0.66785 0.72013 0.0
O230 O 0.91544 0.6686 0.68914 0.0
C231 C 0.00936 0.71527 0.67766 0.0
O232 O 0.995 0.7213 0.6985 0.0
O233 O 0.9405 0.6598 0.62373 0.0
H234 H 0.14066 0.31995 0.15642 0.0
H235 H 0.13684 0.33129 0.03705 0.0
H236 H 0.09985 0.35591 0.11871 0.0
H237 H 0.14643 0.29236 0.10373 0.0
H238 H 0.15229 0.30364 0.05651 0.0
H239 H 0.17919 0.31966 0.1564 0.0
H240 H 0.25796 0.36448 0.11944 0.0
H241 H 0.19573 0.33591 0.03784 0.0
C242 C 0.13511 0.32771 0.13362 0.0
C243 C 0.11998 0.33868 0.1418 0.0
C244 C 0.14165 0.32524 0.09588 0.0
C245 C 0.13274 0.33392 0.06632 0.0
C246 C 0.11774 0.34514 0.07451 0.0
C247 C 0.11189 0.34779 0.1123 0.0
C248 C 0.15528 0.3105 0.08691 0.0
C249 C 0.18403 0.32705 0.09629 0.0
C250 C 0.19291 0.32938 0.13392 0.0
C251 C 0.2196 0.3435 0.14238 0.0
C252 C 0.23737 0.35496 0.11309 0.0
C253 C 0.22902 0.35226 0.07539 0.0
C254 C 0.20228 0.3385 0.06707 0.0
H255 H 0.70585 0.83616 0.16056 0.0
H256 H 0.67834 0.80754 0.0458 0.0
H257 H 0.6634 0.75273 0.13235 0.0
H258 H 0.72466 0.86563 0.10425 0.0
H259 H 0.70903 0.85422 0.05879 0.0
H260 H 0.69708 0.86853 0.16012 0.0
H261 H 0.65477 0.90348 0.12551 0.0
H262 H 0.68056 0.86843 0.04136 0.0
C263 C 0.69497 0.81995 0.14004 0.0
C264 C 0.6841 0.79381 0.1513 0.0
C265 C 0.69233 0.82517 0.10221 0.0
C266 C 0.67945 0.80384 0.07535 0.0
C267 C 0.669 0.77777 0.08644 0.0
C268 C 0.67093 0.77293 0.12433 0.0
C269 C 0.70538 0.85344 0.08984 0.0
C270 C 0.68959 0.86579 0.09972 0.0
C271 C 0.68771 0.87257 0.13781 0.0
C272 C 0.67447 0.88542 0.14731 0.0
C273 C 0.66352 0.89201 0.11838 0.0
C274 C 0.66551 0.88593 0.08018 0.0
C275 C 0.67848 0.87266 0.07091 0.0
H276 H 0.17056 0.7982 0.15723 0.0
H277 H 0.15988 0.78202 0.03637 0.0
H278 H 0.09434 0.74785 0.11071 0.0
H279 H 0.20651 0.80203 0.1117 0.0
H280 H 0.20268 0.80405 0.06217 0.0
H281 H 0.20442 0.83728 0.1574 0.0
H282 H 0.25214 0.91496 0.11723 0.0
H283 H 0.22516 0.84755 0.03945 0.0
C284 C 0.15808 0.79003 0.13245 0.0
C285 C 0.13117 0.7747 0.13763 0.0
C286 C 0.16871 0.7938 0.09583 0.0
C287 C 0.15192 0.78034 0.06449 0.0
C288 C 0.12505 0.76339 0.06973 0.0
C289 C 0.1149 0.76144 0.1062 0.0
C290 C 0.19792 0.80886 0.09075 0.0
C291 C 0.21089 0.83864 0.09681 0.0
C292 C 0.21255 0.84972 0.13345 0.0
C293 C 0.22642 0.87715 0.14026 0.0
C294 C 0.2397 0.89386 0.11071 0.0
C295 C 0.23978 0.88345 0.07431 0.0
C296 C 0.22478 0.85577 0.06727 0.0
H297 H 0.37732 0.21141 0.85264 0.0
H298 H 0.38541 0.23588 0.97104 0.0
H299 H 0.35098 0.26193 0.89163 0.0
H300 H 0.41254 0.21422 0.89924 0.0
H301 H 0.40666 0.21406 0.94883 0.0
H302 H 0.37805 0.17566 0.8561 0.0
H303 H 0.34326 0.10044 0.9068 0.0
H304 H 0.38434 0.17191 0.97674 0.0
C305 C 0.37337 0.22086 0.87618 0.0
C306 C 0.3612 0.23476 0.8687 0.0
C307 C 0.38147 0.22034 0.91331 0.0
C308 C 0.3783 0.23519 0.94268 0.0
C309 C 0.36754 0.25051 0.93496 0.0
C310 C 0.35839 0.24944 0.89819 0.0
C311 C 0.39685 0.20741 0.92052 0.0
C312 C 0.3805 0.1774 0.9173 0.0
C313 C 0.37217 0.16435 0.88138 0.0
C314 C 0.35823 0.13663 0.87743 0.0
C315 C 0.35317 0.12185 0.90979 0.0
C316 C 0.36305 0.13441 0.94541 0.0
C317 C 0.37629 0.16219 0.9493 0.0
H318 H 0.87073 0.17591 0.87596 0.0
H319 H 0.86795 0.20739 0.98684 0.0
H320 H 0.91007 0.25992 0.89763 0.0
H321 H 0.85591 0.14822 0.9344 0.0
H322 H 0.84894 0.16062 0.97685 0.0
H323 H 0.82835 0.15304 0.87234 0.0
H324 H 0.74819 0.10002 0.89661 0.0
H325 H 0.80391 0.13357 0.98804 0.0
C326 C 0.87454 0.19257 0.89451 0.0
C327 C 0.89003 0.21831 0.88147 0.0
C328 C 0.86477 0.18828 0.93172 0.0
C329 C 0.87339 0.2103 0.95726 0.0
C330 C 0.89029 0.23604 0.94499 0.0
C331 C 0.89743 0.23988 0.90692 0.0
C332 C 0.84795 0.16029 0.94533 0.0
C333 C 0.81976 0.14625 0.93202 0.0
C334 C 0.81343 0.14323 0.893 0.0
C335 C 0.78775 0.12664 0.8799 0.0
C336 C 0.76804 0.11354 0.90633 0.0
C337 C 0.77371 0.11626 0.94516 0.0
C338 C 0.79953 0.13249 0.95806 0.0
H339 H 0.8389 0.63513 0.84391 0.0
H340 H 0.84383 0.62818 0.96403 0.0
H341 H 0.91331 0.6687 0.89859 0.0
H342 H 0.80176 0.59965 0.88202 0.0
H343 H 0.80266 0.60332 0.93246 0.0
H344 H 0.79916 0.63256 0.84209 0.0
H345 H 0.75558 0.66336 0.89377 0.0
H346 H 0.78822 0.63007 0.96311 0.0
C347 C 0.8505 0.6405 0.86963 0.0
C348 C 0.87768 0.65399 0.86722 0.0
C349 C 0.83812 0.63187 0.90468 0.0
C350 C 0.85322 0.63622 0.93737 0.0
C351 C 0.88035 0.64925 0.93511 0.0
C352 C 0.89238 0.65903 0.9004 0.0
C353 C 0.80888 0.61464 0.90605 0.0
C354 C 0.7961 0.63049 0.9031 0.0
C355 C 0.79202 0.63749 0.86734 0.0
C356 C 0.77755 0.64954 0.8638 0.0
C357 C 0.76782 0.65524 0.89651 0.0
C358 C 0.77142 0.64816 0.9323 0.0
C359 C 0.78591 0.63612 0.93559 0.0
H360 H 0.80702 0.65025 0.4937 0.0
H361 H 0.80271 0.661 0.37429 0.0
H362 H 0.76746 0.68757 0.45604 0.0
H363 H 0.81285 0.62265 0.44184 0.0
H364 H 0.8177 0.63295 0.39408 0.0
H365 H 0.84638 0.65137 0.49292 0.0
H366 H 0.9244 0.69652 0.45298 0.0
H367 H 0.86068 0.66513 0.37342 0.0
C368 C 0.80157 0.65814 0.47096 0.0
C369 C 0.78713 0.6699 0.47928 0.0
C370 C 0.80771 0.65522 0.43315 0.0
C371 C 0.79889 0.66395 0.40358 0.0
C372 C 0.78437 0.67568 0.4118 0.0
C373 C 0.77904 0.67893 0.44965 0.0
C374 C 0.82123 0.64039 0.42424 0.0
C375 C 0.85009 0.65735 0.43242 0.0
C376 C 0.85967 0.66071 0.46982 0.0
C377 C 0.88648 0.67544 0.47734 0.0
C378 C 0.90369 0.68651 0.44732 0.0
C379 C 0.89464 0.68285 0.40983 0.0
C380 C 0.86777 0.66844 0.40246 0.0
H381 H 0.35693 0.15991 0.48685 0.0
H382 H 0.34117 0.13708 0.36775 0.0
H383 H 0.31494 0.07781 0.45108 0.0
H384 H 0.38231 0.19172 0.4338 0.0
H385 H 0.37 0.18295 0.38621 0.0
H386 H 0.35369 0.19571 0.48527 0.0
H387 H 0.31352 0.23183 0.44593 0.0
H388 H 0.34301 0.19836 0.36516 0.0
C389 C 0.34765 0.14481 0.46436 0.0
C390 C 0.33476 0.11806 0.47345 0.0
C391 C 0.34919 0.15198 0.42631 0.0
C392 C 0.33882 0.13193 0.39727 0.0
C393 C 0.3265 0.10522 0.40634 0.0
C394 C 0.3239 0.09847 0.44432 0.0
C395 C 0.36411 0.18087 0.41647 0.0
C396 C 0.34868 0.19388 0.42436 0.0
C397 C 0.34522 0.20007 0.46204 0.0
C398 C 0.33228 0.21343 0.4699 0.0
C399 C 0.32285 0.22078 0.43984 0.0
C400 C 0.32671 0.21558 0.40205 0.0
C401 C 0.33953 0.20195 0.39434 0.0
H402 H 0.83157 0.13206 0.48721 0.0
H403 H 0.81761 0.12475 0.36655 0.0
H404 H 0.75373 0.08904 0.44357 0.0
H405 H 0.86575 0.13893 0.43849 0.0
H406 H 0.86076 0.14263 0.38995 0.0
H407 H 0.86169 0.17365 0.48745 0.0
H408 H 0.91641 0.25183 0.45393 0.0
H409 H 0.88779 0.18663 0.37184 0.0
C410 C 0.81839 0.12632 0.46332 0.0
C411 C 0.79159 0.11149 0.46974 0.0
C412 C 0.82809 0.13255 0.42627 0.0
C413 C 0.81046 0.12195 0.39533 0.0
C414 C 0.78362 0.10603 0.40152 0.0
C415 C 0.77438 0.10194 0.43873 0.0
C416 C 0.85709 0.14686 0.41958 0.0
C417 C 0.87113 0.17658 0.42773 0.0
C418 C 0.87194 0.18673 0.46478 0.0
C419 C 0.88751 0.21388 0.47381 0.0
C420 C 0.90288 0.23117 0.44583 0.0
C421 C 0.90332 0.22157 0.40899 0.0
C422 C 0.88702 0.19426 0.39993 0.0
H423 H 0.0461 0.54912 0.18469 0.0
H424 H 0.04932 0.56728 0.30486 0.0
H425 H 0.01404 0.59375 0.22778 0.0
H426 H 0.07988 0.55065 0.23062 0.0
H427 H 0.07404 0.54955 0.28033 0.0
H428 H 0.04604 0.51185 0.18671 0.0
H429 H 0.01468 0.43636 0.23582 0.0
H430 H 0.05226 0.50719 0.30744 0.0
C431 C 0.04053 0.55669 0.20887 0.0
C432 C 0.02739 0.56977 0.20256 0.0
C433 C 0.04772 0.55476 0.24592 0.0
C434 C 0.04251 0.56721 0.27653 0.0
C435 C 0.03014 0.58119 0.27023 0.0
C436 C 0.02216 0.58173 0.2333 0.0
C437 C 0.0642 0.54297 0.25203 0.0
C438 C 0.0488 0.513 0.24799 0.0
C439 C 0.04106 0.50028 0.21173 0.0
C440 C 0.02884 0.4727 0.20719 0.0
C441 C 0.02375 0.45768 0.23927 0.0
C442 C 0.03256 0.46998 0.27525 0.0
C443 C 0.04485 0.49763 0.27971 0.0
H444 H 0.52981 0.51796 0.2036 0.0
H445 H 0.53134 0.54068 0.32175 0.0
H446 H 0.56676 0.59985 0.23805 0.0
H447 H 0.52153 0.48699 0.25818 0.0
H448 H 0.51454 0.49506 0.30423 0.0
H449 H 0.49073 0.48326 0.20146 0.0
H450 H 0.411 0.43653 0.23206 0.0
H451 H 0.46974 0.47228 0.31969 0.0
C452 C 0.53395 0.53286 0.22566 0.0
C453 C 0.54768 0.55955 0.21631 0.0
C454 C 0.52654 0.52561 0.2634 0.0
C455 C 0.5351 0.54575 0.29224 0.0
C456 C 0.54966 0.57253 0.28301 0.0
C457 C 0.55495 0.57915 0.24501 0.0
C458 C 0.51237 0.49671 0.27335 0.0
C459 C 0.48382 0.48158 0.26209 0.0
C460 C 0.47636 0.47635 0.22342 0.0
C461 C 0.45019 0.46038 0.21266 0.0
C462 C 0.43125 0.44947 0.24048 0.0
C463 C 0.43816 0.45346 0.27891 0.0
C464 C 0.46441 0.46977 0.28989 0.0
H465 H 0.50698 0.96742 0.18433 0.0
H466 H 0.51245 0.96616 0.30576 0.0
H467 H 0.58162 0.0047 0.23935 0.0
H468 H 0.4699 0.93419 0.22417 0.0
H469 H 0.47127 0.93901 0.27448 0.0
H470 H 0.46954 0.96872 0.18298 0.0
H471 H 0.42247 0.99663 0.2306 0.0
H472 H 0.45293 0.96259 0.30254 0.0
C473 C 0.5186 0.97401 0.21016 0.0
C474 C 0.54575 0.98738 0.20771 0.0
C475 C 0.50636 0.9671 0.24561 0.0
C476 C 0.52167 0.97317 0.27866 0.0
C477 C 0.54883 0.98668 0.27643 0.0
C478 C 0.56067 0.99474 0.24114 0.0
C479 C 0.47711 0.94969 0.24751 0.0
C480 C 0.46395 0.96512 0.24353 0.0
C481 C 0.46113 0.97277 0.2075 0.0
C482 C 0.44621 0.98419 0.2026 0.0
C483 C 0.43495 0.98889 0.23437 0.0
C484 C 0.43733 0.98123 0.27038 0.0
C485 C 0.45188 0.9694 0.27495 0.0
H486 H 0.47445 0.98511 0.82791 0.0
H487 H 0.4691 0.9952 0.70856 0.0
H488 H 0.43486 0.02255 0.79095 0.0
H489 H 0.47852 0.95631 0.77492 0.0
H490 H 0.48472 0.96775 0.72777 0.0
H491 H 0.51139 0.98216 0.82746 0.0
H492 H 0.59035 0.0276 0.79112 0.0
H493 H 0.52831 1.00067 0.70962 0.0
C494 C 0.46891 0.99296 0.80525 0.0
C495 C 0.45467 0.0049 0.81383 0.0
C496 C 0.47464 0.98975 0.76734 0.0
C497 C 0.4656 0.99838 0.73792 0.0
C498 C 0.45125 0.01028 0.74638 0.0
C499 C 0.44633 0.01381 0.78434 0.0
C500 C 0.48773 0.97451 0.75821 0.0
C501 C 0.51646 0.9906 0.76773 0.0
C502 C 0.52523 0.99217 0.8052 0.0
C503 C 0.5519 0.00589 0.81379 0.0
C504 C 0.56976 0.0181 0.78479 0.0
C505 C 0.56148 0.0162 0.74721 0.0
C506 C 0.53478 1.00262 0.73877 0.0
H507 H 0.02135 0.49148 0.81395 0.0
H508 H 0.00846 0.46886 0.69454 0.0
H509 H 0.98088 0.40961 0.77811 0.0
H510 H 0.04862 0.52298 0.75937 0.0
H511 H 0.03492 0.51471 0.71265 0.0
H512 H 0.02287 0.52898 0.81352 0.0
H513 H 0.9857 0.56921 0.77916 0.0
H514 H 0.00784 0.53096 0.69475 0.0
C515 C 0.01245 0.47653 0.79127 0.0
C516 C 0.99943 0.44979 0.80038 0.0
C517 C 0.01468 0.48376 0.75312 0.0
C518 C 0.00532 0.4637 0.72406 0.0
C519 C 0.99329 0.43701 0.73322 0.0
C520 C 0.98967 0.43023 0.77122 0.0
C521 C 0.02989 0.51272 0.74326 0.0
C522 C 0.01572 0.52687 0.75313 0.0
C523 C 0.01424 0.53392 0.79126 0.0
C524 C 1.00256 0.54831 0.80092 0.0
C525 C 0.99307 0.55648 0.77201 0.0
C526 C 0.99475 0.55027 0.73379 0.0
C527 C 0.00598 0.5353 0.72434 0.0
H528 H 0.50726 0.4741 0.82733 0.0
H529 H 0.49488 0.44708 0.70974 0.0
H530 H 0.43055 0.4189 0.78568 0.0
H531 H 0.54127 0.46906 0.7821 0.0
H532 H 0.53793 0.47216 0.73293 0.0
H533 H 0.54817 0.50552 0.82955 0.0
H534 H 0.59219 0.58331 0.78693 0.0
H535 H 0.55674 0.51554 0.70896 0.0
C536 C 0.49446 0.46343 0.80348 0.0
C537 C 0.46768 0.44808 0.80987 0.0
C538 C 0.50459 0.46377 0.7672 0.0
C539 C 0.48733 0.44783 0.73742 0.0
C540 C 0.46055 0.43152 0.74393 0.0
C541 C 0.45097 0.43233 0.77996 0.0
C542 C 0.53366 0.47722 0.76168 0.0
C543 C 0.54841 0.50705 0.76833 0.0
C544 C 0.55418 0.51817 0.8056 0.0
C545 C 0.56958 0.54564 0.81232 0.0
C546 C 0.57956 0.56213 0.78151 0.0
C547 C 0.57564 0.55152 0.74421 0.0
C548 C 0.5595 0.52393 0.73765 0.0
H549 H 0.69868 0.87855 0.52537 0.0
H550 H 0.71169 0.90161 0.64446 0.0
H551 H 0.67352 0.92823 0.57337 0.0
H552 H 0.73641 0.88231 0.56665 0.0
H553 H 0.73272 0.88111 0.6167 0.0
H554 H 0.7022 0.84327 0.52413 0.0
H555 H 0.67697 0.76853 0.57156 0.0
H556 H 0.71146 0.83884 0.64427 0.0
C557 C 0.69542 0.88749 0.55033 0.0
C558 C 0.6837 0.90221 0.54592 0.0
C559 C 0.70505 0.88649 0.58607 0.0
C560 C 0.70303 0.90088 0.61733 0.0
C561 C 0.69149 0.91586 0.61303 0.0
C562 C 0.68145 0.91585 0.57742 0.0
C563 C 0.72163 0.8745 0.58937 0.0
C564 C 0.70645 0.8445 0.58528 0.0
C565 C 0.69831 0.83179 0.54903 0.0
C566 C 0.68746 0.80441 0.54421 0.0
C567 C 0.68436 0.78954 0.57567 0.0
C568 C 0.69301 0.80178 0.61169 0.0
C569 C 0.70387 0.82925 0.61662 0.0
H570 H 0.19379 0.85318 0.5299 0.0
H571 H 0.20065 0.87421 0.6496 0.0
H572 H 0.23285 0.9346 0.56746 0.0
H573 H 0.1888 0.82173 0.58337 0.0
H574 H 0.1822 0.82877 0.63028 0.0
H575 H 0.15704 0.81554 0.52878 0.0
H576 H 0.07751 0.77152 0.56177 0.0
H577 H 0.13753 0.80768 0.64749 0.0
C578 C 0.19883 0.86773 0.55284 0.0
C579 C 0.21225 0.89458 0.54434 0.0
C580 C 0.1931 0.85994 0.59072 0.0
C581 C 0.20302 0.8797 0.62023 0.0
C582 C 0.2174 0.90663 0.61174 0.0
C583 C 0.22101 0.9138 0.5739 0.0
C584 C 0.17953 0.83088 0.59974 0.0
C585 C 0.15083 0.81549 0.58938 0.0
C586 C 0.14287 0.80952 0.55097 0.0
C587 C 0.1165 0.79413 0.54088 0.0
C588 C 0.09794 0.78403 0.5694 0.0
C589 C 0.10538 0.78849 0.60767 0.0
C590 C 0.1318 0.80459 0.61781 0.0
H591 H 0.17176 0.29565 0.5088 0.0
H592 H 0.17643 0.29112 0.62976 0.0
H593 H 0.24602 0.33147 0.56451 0.0
H594 H 0.13426 0.26154 0.54729 0.0
H595 H 0.13525 0.26538 0.59774 0.0
H596 H 0.1349 0.29739 0.50764 0.0
H597 H 0.08815 0.32519 0.5568 0.0
H598 H 0.11723 0.28888 0.62681 0.0
C599 C 0.18319 0.30153 0.53477 0.0
C600 C 0.21033 0.31495 0.53263 0.0
C601 C 0.17072 0.29371 0.56993 0.0
C602 C 0.18581 0.2988 0.60297 0.0
C603 C 0.21299 0.31241 0.601 0.0
C604 C 0.22504 0.32141 0.5661 0.0
C605 C 0.14145 0.27659 0.57124 0.0
C606 C 0.12871 0.2925 0.56798 0.0
C607 C 0.12642 0.30108 0.53239 0.0
C608 C 0.11194 0.31306 0.52817 0.0
C609 C 0.10039 0.31712 0.56013 0.0
C610 C 0.1021 0.30836 0.59561 0.0
C611 C 0.11652 0.29633 0.59959 0.0
C612 C 0.00624 0.45138 0.10451 0.0
C613 C 0.01554 0.43462 0.09505 0.0
C614 C 0.01061 0.46376 0.1408 0.0
C615 C 0.02438 0.45976 0.16883 0.0
H616 H 0.99539 0.45487 0.08385 0.0
H617 H 1.00296 0.47633 0.14711 0.0
S618 S 0.05496 0.4199 0.15764 0.0
N619 N 0.04047 0.41599 0.11641 0.0
N620 N 0.04889 0.43952 0.18403 0.0
C621 C 0.03425 0.44356 0.15951 0.0
C622 C 0.02975 0.4309 0.1228 0.0
C623 C 0.56379 0.59686 0.12579 0.0
C624 C 0.58183 0.59175 0.10855 0.0
C625 C 0.55176 0.58524 0.15974 0.0
C626 C 0.557 0.56777 0.1774 0.0
H627 H 0.55965 0.61076 0.11386 0.0
H628 H 0.53886 0.59059 0.17294 0.0
S629 S 0.60094 0.54603 0.14258 0.0
N630 N 0.60302 0.56661 0.11065 0.0
N631 N 0.58029 0.54481 0.17452 0.0
C632 C 0.57396 0.56144 0.15965 0.0
C633 C 0.58643 0.57344 0.12522 0.0
C634 C 0.42968 0.01442 0.1234 0.0
C635 C 0.41818 0.9937 0.09547 0.0
C636 C 0.44004 0.01176 0.15708 0.0
C637 C 0.43932 0.98828 0.16422 0.0
H638 H 0.43016 0.03266 0.1197 0.0
H639 H 0.44803 0.02795 0.17823 0.0
S640 S 0.4122 0.92837 0.09992 0.0
N641 N 0.40773 0.94921 0.07669 0.0
N642 N 0.42667 0.94411 0.1403 0.0
C643 C 0.42875 0.96776 0.13602 0.0
C644 C 0.41829 0.97049 0.10161 0.0
C645 C 0.41176 1.00012 0.89564 0.0
C646 C 0.42945 0.01332 0.92605 0.0
C647 C 0.42008 0.9968 0.85992 0.0
C648 C 0.44642 0.00642 0.85305 0.0
H649 H 0.3913 0.9927 0.89909 0.0
H650 H 0.40578 0.98693 0.83724 0.0
S651 S 0.50051 0.04082 0.92316 0.0
N652 N 0.47458 0.03487 0.9472 0.0
N653 N 0.49008 0.0286 0.87964 0.0
C654 C 0.46425 0.01876 0.88333 0.0
C655 C 0.45582 0.02227 0.91988 0.0
C656 C 0.02009 0.43728 0.89411 0.0
C657 C 0.99623 0.41834 0.90995 0.0
C658 C 0.02099 0.44883 0.85974 0.0
C659 C 0.99809 0.44169 0.83986 0.0
H660 H 0.03826 0.44278 0.90786 0.0
H661 H 0.03973 0.46244 0.84772 0.0
S662 S 0.93072 0.39477 0.86987 0.0
N663 N 0.94906 0.39436 0.90379 0.0
N664 N 0.95102 0.41591 0.83908 0.0
C665 C 0.97416 0.42368 0.85597 0.0
C666 C 0.97317 0.41208 0.89106 0.0
C667 C 0.56614 0.56171 0.91685 0.0
C668 C 0.59233 0.58013 0.92653 0.0
C669 C 0.55885 0.55045 0.87989 0.0
C670 C 0.57752 0.55713 0.8515 0.0
H671 H 0.55116 0.55619 0.93785 0.0
H672 H 0.53846 0.53669 0.87334 0.0
S673 S 0.64891 0.60174 0.86345 0.0
N674 N 0.63712 0.60302 0.90531 0.0
N675 N 0.62345 0.58139 0.83637 0.0
C676 C 0.60382 0.57485 0.86115 0.0
C677 C 0.61121 0.58648 0.89852 0.0
C678 C 0.02603 0.58048 0.89932 0.0
C679 C 1.0044 0.58054 0.91392 0.0
C680 C 0.02503 0.56912 0.86328 0.0
C681 C 1.00225 0.55711 0.84081 0.0
H682 H 0.04418 0.59018 0.91521 0.0
H683 H 0.04253 0.57069 0.85238 0.0
S684 S 0.93915 0.54855 0.86855 0.0
N685 N 0.95887 0.56549 0.90473 0.0
N686 N 0.95674 0.54339 0.83752 0.0
C687 C 0.98007 0.55573 0.85605 0.0
C688 C 0.9812 0.56764 0.89245 0.0
C689 C 0.4549 0.42985 0.91279 0.0
C690 C 0.43141 0.42872 0.91971 0.0
C691 C 0.46747 0.4378 0.87794 0.0
C692 C 0.45711 0.44503 0.84873 0.0
H693 H 0.4631 0.42341 0.93376 0.0
H694 H 0.48464 0.43685 0.87315 0.0
S695 S 0.39852 0.44962 0.85424 0.0
N696 N 0.39995 0.43846 0.8957 0.0
N697 N 0.42379 0.45356 0.83033 0.0
C698 C 0.43467 0.44574 0.85611 0.0
C699 C 0.42178 0.43757 0.89154 0.0
C700 C 0.59396 0.03037 0.90268 0.0
C701 C 0.58901 0.00677 0.91843 0.0
C702 C 0.58077 0.02989 0.86996 0.0
C703 C 0.56186 0.00581 0.85197 0.0
H704 H 0.60879 0.04946 0.91487 0.0
H705 H 0.58599 0.04852 0.85791 0.0
S706 S 0.5401 0.93845 0.88298 0.0
N707 N 0.56261 0.95853 0.91453 0.0
N708 N 0.5379 0.9578 0.85297 0.0
C709 C 0.5558 0.98207 0.86826 0.0
C710 C 0.56937 0.98251 0.90146 0.0
C711 C 0.56407 0.00363 0.10441 0.0
C712 C 0.58188 0.99555 0.09796 0.0
C713 C 0.55257 1.00119 0.14001 0.0
C714 C 0.55841 0.99048 0.17035 0.0
H715 H 0.55893 0.0119 0.08179 0.0
H716 H 0.53905 0.00775 0.14384 0.0
S717 S 0.6019 0.96405 0.16732 0.0
N718 N 0.60382 0.97524 0.1246 0.0
N719 N 0.58177 0.97003 0.19086 0.0
C720 C 0.57587 0.98194 0.16408 0.0
C721 C 0.58774 0.98466 0.12809 0.0
C722 C 0.04099 0.59903 0.10589 0.0
C723 C 0.01715 0.59604 0.09564 0.0
C724 C 0.04368 0.58868 0.13929 0.0
C725 C 0.02267 0.57506 0.16376 0.0
H726 H 0.05801 0.61017 0.08861 0.0
H727 H 0.06271 0.59268 0.14704 0.0
S728 S 0.95549 0.55924 0.14847 0.0
N729 N 0.97154 0.57638 0.11144 0.0
N730 N 0.97681 0.55711 0.17434 0.0
C731 C 0.99841 0.57063 0.15298 0.0
C732 C 0.99558 0.58105 0.11888 0.0
C733 C 0.43538 0.46364 0.10959 0.0
C734 C 0.42134 0.4367 0.09735 0.0
C735 C 0.44576 0.47148 0.14658 0.0
C736 C 0.44233 0.45261 0.17247 0.0
H737 H 0.43778 0.47876 0.09088 0.0
H738 H 0.45567 0.49225 0.15542 0.0
S739 S 0.41003 0.38016 0.15387 0.0
N740 N 0.40674 0.39147 0.11369 0.0
N741 N 0.42611 0.4064 0.18299 0.0
C742 C 0.42948 0.42587 0.16023 0.0
C743 C 0.41901 0.41785 0.12272 0.0
C744 C 0.6949 0.76789 0.46003 0.0
C745 C 0.67518 0.76382 0.43477 0.0
C746 C 0.69896 0.78157 0.49494 0.0
C747 C 0.6835 0.79174 0.50598 0.0
H748 H 0.70736 0.76041 0.45289 0.0
H749 H 0.71423 0.78405 0.51367 0.0
S750 S 0.62866 0.78564 0.45149 0.0
N751 N 0.6396 0.77066 0.42382 0.0
N752 N 0.64748 0.79656 0.48985 0.0
C753 C 0.66387 0.78811 0.48117 0.0
C754 C 0.65964 0.77409 0.44545 0.0
C755 C 0.24906 0.90855 0.45254 0.0
C756 C 0.2455 0.92783 0.43675 0.0
C757 C 0.23676 0.89645 0.48615 0.0
C758 C 0.22055 0.90326 0.50528 0.0
H759 H 0.26204 0.90327 0.43948 0.0
H760 H 0.24103 0.88268 0.49827 0.0
S761 S 0.20245 0.95024 0.47434 0.0
N762 N 0.22266 0.95142 0.44163 0.0
N763 N 0.19983 0.9287 0.50495 0.0
C764 C 0.21575 0.92142 0.48899 0.0
C765 C 0.22813 0.93368 0.45468 0.0
C766 C 0.09693 0.34604 0.45128 0.0
C767 C 0.08525 0.32599 0.42244 0.0
C768 C 0.10696 0.34231 0.48446 0.0
C769 C 0.10571 0.31839 0.49016 0.0
H770 H 0.09773 0.36455 0.44876 0.0
H771 H 0.11502 0.35798 0.5064 0.0
S772 S 0.07821 0.26001 0.42283 0.0
N773 N 0.07428 0.28173 0.40109 0.0
N774 N 0.09259 0.27462 0.46377 0.0
C775 C 0.09508 0.29859 0.46096 0.0
C776 C 0.08497 0.3024 0.42705 0.0
C777 C 0.11979 0.35735 0.24586 0.0
C778 C 0.09309 0.34577 0.25315 0.0
C779 C 0.12847 0.35403 0.21022 0.0
C780 C 0.11076 0.33916 0.18063 0.0
H781 H 0.1342 0.36958 0.26752 0.0
H782 H 0.14916 0.36395 0.20535 0.0
S783 S 0.03895 0.30246 0.18557 0.0
N784 N 0.04903 0.31704 0.22808 0.0
N785 N 0.0655 0.31105 0.16134 0.0
C786 C 0.08408 0.32657 0.18787 0.0
C787 C 0.0752 0.32981 0.22405 0.0
C788 C 0.66912 0.75773 0.24296 0.0
C789 C 0.69379 0.76824 0.25978 0.0
C790 C 0.66607 0.76726 0.20903 0.0
C791 C 0.68756 0.78759 0.19035 0.0
H792 H 0.652 0.74162 0.2557 0.0
H793 H 0.64677 0.75807 0.19667 0.0
S794 S 0.75624 0.82256 0.22304 0.0
N795 N 0.74004 0.801 0.25597 0.0
N796 N 0.73428 0.8185 0.19162 0.0
C797 C 0.71223 0.79902 0.2075 0.0
C798 C 0.71535 0.78942 0.24232 0.0
C799 C 0.25469 0.89766 0.23925 0.0
C800 C 0.24658 0.91484 0.25198 0.0
C801 C 0.24689 0.88446 0.20367 0.0
C802 C 0.23115 0.88842 0.1794 0.0
H803 H 0.26742 0.89463 0.25675 0.0
H804 H 0.25402 0.87185 0.19446 0.0
S805 S 0.20445 0.93101 0.19932 0.0
N806 N 0.22132 0.93451 0.23803 0.0
N807 N 0.20733 0.9102 0.17031 0.0
C808 C 0.22255 0.90516 0.19188 0.0
C809 C 0.23005 0.91821 0.2285 0.0
C810 C 0.6981 0.92221 0.2428 0.0
C811 C 0.67545 0.91968 0.25829 0.0
C812 C 0.69745 0.90989 0.20771 0.0
C813 C 0.6741 0.89452 0.18694 0.0
H814 H 0.71671 0.93467 0.25705 0.0
H815 H 0.71555 0.91347 0.19595 0.0
S816 S 0.60878 0.87835 0.21732 0.0
N817 N 0.62851 0.89827 0.25178 0.0
N818 N 0.6274 0.87503 0.18605 0.0
C819 C 0.65109 0.8905 0.20311 0.0
C820 C 0.65172 0.90308 0.23872 0.0
C821 C 0.11649 0.75284 0.23914 0.0
C822 C 0.09407 0.75359 0.2471 0.0
C823 C 0.12912 0.76084 0.20432 0.0
C824 C 0.11985 0.76995 0.17614 0.0
H825 H 0.12394 0.74518 0.25941 0.0
H826 H 0.14561 0.7588 0.19884 0.0
S827 S 0.06399 0.77902 0.18421 0.0
N828 N 0.06455 0.76648 0.22485 0.0
N829 N 0.08847 0.78163 0.15957 0.0
C830 C 0.09829 0.77208 0.18435 0.0
C831 C 0.08537 0.76391 0.21977 0.0
C832 C 0.23814 0.32104 0.22871 0.0
C833 C 0.25754 0.34517 0.24632 0.0
C834 C 0.22442 0.32058 0.19654 0.0
C835 C 0.22973 0.34421 0.18072 0.0
H836 H 0.23393 0.30233 0.23921 0.0
H837 H 0.21056 0.30164 0.18281 0.0
S838 S 0.27691 0.41251 0.21726 0.0
N839 N 0.27996 0.39334 0.24659 0.0
N840 N 0.25429 0.39223 0.18602 0.0
C841 C 0.24816 0.36838 0.19889 0.0
C842 C 0.26202 0.36893 0.23173 0.0
C843 C 0.22956 0.33434 0.43055 0.0
C844 C 0.24724 0.32621 0.42311 0.0
C845 C 0.21777 0.33086 0.46609 0.0
C846 C 0.22321 0.31906 0.49535 0.0
H847 H 0.22478 0.34349 0.40879 0.0
H848 H 0.20437 0.33749 0.47075 0.0
S849 S 0.26621 0.29211 0.48938 0.0
N850 N 0.2686 0.30468 0.44759 0.0
N851 N 0.24603 0.2976 0.51376 0.0
C852 C 0.24051 0.31046 0.48807 0.0
C853 C 0.25265 0.3142 0.45214 0.0
C854 C 0.68095 0.93827 0.46187 0.0
C855 C 0.66335 0.91769 0.43662 0.0
C856 C 0.68768 0.93291 0.49666 0.0
C857 C 0.67706 0.90676 0.50781 0.0
H858 H 0.68977 0.95881 0.45476 0.0
H859 H 0.70134 0.94946 0.51509 0.0
S860 S 0.62962 0.84573 0.45302 0.0
N861 N 0.63518 0.86998 0.42557 0.0
N862 N 0.64792 0.86004 0.49143 0.0
C863 C 0.65963 0.88593 0.48294 0.0
C864 C 0.65271 0.89137 0.4473 0.0
C865 C 0.08081 0.75159 0.4535 0.0
C866 C 0.08755 0.77015 0.42523 0.0
C867 C 0.0908 0.75957 0.49043 0.0
C868 C 0.10803 0.78642 0.50071 0.0
H869 H 0.06729 0.73065 0.44741 0.0
H870 H 0.08475 0.74456 0.51127 0.0
S871 S 0.13329 0.84294 0.43741 0.0
N872 N 0.1137 0.8167 0.40988 0.0
N873 N 0.1324 0.83159 0.47973 0.0
C874 C 0.11574 0.80519 0.47267 0.0
C875 C 0.10548 0.79709 0.43486 0.0
C876 C 0.35458 0.0918 0.79513 0.0
C877 C 0.3442 0.09849 0.76518 0.0
C878 C 0.35862 0.10396 0.83124 0.0
C879 C 0.35224 0.12319 0.83919 0.0
H880 H 0.36023 0.07741 0.7906 0.0
H881 H 0.36745 0.09867 0.85288 0.0
S882 S 0.32303 0.14682 0.77172 0.0
N883 N 0.32674 0.12509 0.74636 0.0
N884 N 0.33395 0.14763 0.81479 0.0
C885 C 0.34134 0.12976 0.80988 0.0
C886 C 0.33735 0.11745 0.77281 0.0
C887 C 0.93511 0.25027 0.7989 0.0
C888 C 0.91879 0.23804 0.76691 0.0
C889 C 0.92588 0.24289 0.83559 0.0
C890 C 0.89981 0.22322 0.84197 0.0
H891 H 0.95522 0.26592 0.79568 0.0
H892 H 0.93925 0.25304 0.85926 0.0
S893 S 0.84921 0.18422 0.76786 0.0
N894 N 0.8755 0.20427 0.74384 0.0
N895 N 0.85792 0.19094 0.81311 0.0
C896 C 0.88341 0.21015 0.81023 0.0
C897 C 0.89294 0.21746 0.77265 0.0
C898 C 0.76055 0.68017 0.78572 0.0
C899 C 0.74746 0.65907 0.75864 0.0
C900 C 0.7714 0.67737 0.81879 0.0
C901 C 0.76962 0.65338 0.82608 0.0
H902 H 0.76202 0.69888 0.78182 0.0
H903 H 0.7807 0.69391 0.83931 0.0
S904 S 0.73787 0.59219 0.76414 0.0
N905 N 0.73407 0.61351 0.74101 0.0
N906 N 0.75404 0.60824 0.80342 0.0
C907 C 0.75729 0.63239 0.79879 0.0
C908 C 0.74629 0.63522 0.76505 0.0
C909 C 0.74359 0.66545 0.55998 0.0
C910 C 0.76104 0.67873 0.59061 0.0
C911 C 0.75216 0.66185 0.52463 0.0
C912 C 0.77853 0.6713 0.51834 0.0
H913 H 0.72312 0.65819 0.56296 0.0
H914 H 0.73804 0.65197 0.50172 0.0
S915 S 0.83204 0.7057 0.58935 0.0
N916 N 0.80596 0.70005 0.61269 0.0
N917 N 0.82193 0.69331 0.54579 0.0
C918 C 0.79611 0.68363 0.5489 0.0
C919 C 0.78741 0.6874 0.5851 0.0
C920 C 0.30959 0.07931 0.56253 0.0
C921 C 0.33249 0.08538 0.58166 0.0
C922 C 0.31049 0.09117 0.52857 0.0
C923 C 0.33429 0.10983 0.51267 0.0
H924 H 0.29074 0.06453 0.57302 0.0
H925 H 0.29242 0.08503 0.51392 0.0
S926 S 0.39981 0.13442 0.55271 0.0
N927 N 0.37975 0.11273 0.58318 0.0
N928 N 0.38126 0.13496 0.51925 0.0
C929 C 0.3573 0.11713 0.5323 0.0
C930 C 0.35645 0.1049 0.56679 0.0
C931 C 0.911 0.22705 0.57555 0.0
C932 C 0.90773 0.24788 0.58776 0.0
C933 C 0.90282 0.21501 0.53929 0.0
C934 C 0.8916 0.22379 0.51377 0.0
H935 H 0.92058 0.22046 0.59383 0.0
H936 H 0.90652 0.19964 0.53048 0.0
S937 S 0.87786 0.27692 0.53236 0.0
N938 N 0.89136 0.27595 0.57225 0.0
N939 N 0.87667 0.25375 0.50338 0.0
C940 C 0.88747 0.24403 0.52595 0.0
C941 C 0.89532 0.25594 0.56323 0.0
C942 C 0.33601 0.25729 0.55353 0.0
C943 C 0.32518 0.23969 0.58334 0.0
C944 C 0.33854 0.24862 0.51727 0.0
C945 C 0.33047 0.22201 0.50924 0.0
H946 H 0.34231 0.27798 0.55797 0.0
H947 H 0.34684 0.26291 0.49523 0.0
S948 S 0.30194 0.16797 0.57716 0.0
N949 N 0.30712 0.19435 0.60248 0.0
N950 N 0.31189 0.17814 0.53391 0.0
C951 C 0.32021 0.20423 0.53877 0.0
C952 C 0.3175 0.21303 0.57587 0.0
C953 C 0.74936 0.09687 0.55651 0.0
C954 C 0.75637 0.08236 0.57865 0.0
C955 C 0.76144 0.10697 0.52189 0.0
C956 C 0.78119 0.10324 0.50829 0.0
H957 H 0.73396 0.09992 0.56546 0.0
H958 H 0.75499 0.11744 0.5053 0.0
S959 S 0.80746 0.06752 0.55558 0.0
N960 N 0.78509 0.06556 0.58472 0.0
N961 N 0.80752 0.08442 0.51955 0.0
C962 C 0.78891 0.08943 0.53047 0.0
C963 C 0.77656 0.07901 0.56565 0.0
C964 C 0.90646 0.6554 0.5648 0.0
C965 C 0.92593 0.67996 0.58125 0.0
C966 C 0.89234 0.65405 0.53258 0.0
C967 C 0.89729 0.67719 0.51554 0.0
H968 H 0.90247 0.63702 0.57629 0.0
H969 H 0.87839 0.63478 0.5198 0.0
S970 S 0.94441 0.74633 0.54884 0.0
N971 N 0.94801 0.72802 0.57915 0.0
N972 N 0.92155 0.72523 0.5185 0.0
C973 C 0.9158 0.7018 0.53253 0.0
C974 C 0.93008 0.70326 0.56541 0.0
C975 C 0.92128 0.65587 0.78793 0.0
C976 C 0.91498 0.66626 0.75769 0.0
C977 C 0.90924 0.65224 0.82305 0.0
C978 C 0.89064 0.65923 0.82977 0.0
H979 H 0.93511 0.64971 0.78423 0.0
H980 H 0.91416 0.64325 0.84487 0.0
S981 S 0.86854 0.68903 0.76095 0.0
N982 N 0.88955 0.68447 0.73713 0.0
N983 N 0.86739 0.67827 0.8038 0.0
C984 C 0.88453 0.67021 0.80012 0.0
C985 C 0.89663 0.67365 0.76401 0.0
C986 C 0.36946 0.25393 0.7662 0.0
C987 C 0.3462 0.25286 0.7581 0.0
C988 C 0.37356 0.24635 0.80126 0.0
C989 C 0.35452 0.2373 0.82942 0.0
H990 H 0.38517 0.26189 0.74608 0.0
H991 H 0.39233 0.24902 0.80711 0.0
S992 S 0.28869 0.22641 0.82031 0.0
N993 N 0.3027 0.23894 0.77965 0.0
N994 N 0.31047 0.22455 0.84541 0.0
C995 C 0.33053 0.2343 0.82074 0.0
C996 C 0.32634 0.2421 0.78512 0.0
C997 C 0.74975 0.11028 0.78764 0.0
C998 C 0.76303 0.10262 0.7626 0.0
C999 C 0.75878 0.11951 0.82479 0.0
C1000 C 0.78124 0.12105 0.83866 0.0
H1001 H 0.7319 0.10866 0.7787 0.0
H1002 H 0.74762 0.12475 0.84319 0.0
S1003 S 0.82368 0.10434 0.78384 0.0
N1004 N 0.80058 0.09857 0.7534 0.0
N1005 N 0.81705 0.11487 0.82381 0.0
C1006 C 0.7953 0.11443 0.81342 0.0
C1007 C 0.7863 0.10544 0.77527 0.0
C1008 C 0.0905 0.3808 0.02618 0.0
C1009 C 0.06997 0.36032 0.00399 0.0
C1010 C 0.10771 0.37649 0.04612 0.0
C1011 C 0.10523 0.3516 0.0445 0.0
H1012 H 0.0924 0.39991 0.03011 0.0
H1013 H 0.12201 0.39223 0.06499 0.0
S1014 S 0.0574 0.29246 0.98652 0.0
N1015 N 0.05022 0.31501 0.97816 0.0
N1016 N 0.08256 0.30703 0.01606 0.0
C1017 C 0.08637 0.33167 0.01989 0.0
C1018 C 0.06874 0.336 -0.00047 0.0
C1019 C 0.66783 0.72312 0.02855 0.0
C1020 C 0.64116 0.70372 0.02633 0.0
C1021 C 0.67667 0.74851 0.04431 0.0
C1022 C 0.65915 0.75523 0.05875 0.0
H1023 H 0.68204 0.71825 0.0197 0.0
H1024 H 0.6974 0.7623 0.04791 0.0
S1025 S 0.58746 0.71243 0.05745 0.0
N1026 N 0.59724 0.69366 0.03729 0.0
N1027 N 0.6141 0.74132 0.06806 0.0
C1028 C 0.63245 0.73664 0.05472 0.0
C1029 C 0.62338 0.71087 0.0381 0.0
C1030 C 0.30091 0.91471 0.01641 0.0
C1031 C 0.30717 0.94104 0.01466 0.0
C1032 C 0.27762 0.89527 0.03255 0.0
C1033 C 0.25964 0.90141 0.04712 0.0
H1034 H 0.31484 0.90944 0.00772 0.0
H1035 H 0.27468 0.87588 0.03628 0.0
S1036 S 0.26426 0.96591 0.04148 0.0
N1037 N 0.29177 0.97123 0.02345 0.0
N1038 N 0.24774 0.93453 0.0529 0.0
C1039 C 0.26451 0.92698 0.04192 0.0
C1040 C 0.28835 0.94684 0.02598 0.0
C1041 C 0.38752 0.0996 0.00161 0.0
C1042 C 0.36435 0.07669 0.01232 0.0
C1043 C 0.38714 0.12005 0.98376 0.0
C1044 C 0.36358 0.11816 0.9756 0.0
H1045 H 0.406 0.10114 0.00518 0.0
H1046 H 0.40522 0.13636 0.9734 0.0
S1047 S 0.29784 0.06413 0.00166 0.0
N1048 N 0.31736 0.05486 0.01708 0.0
N1049 N 0.31683 0.09307 0.98258 0.0
C1050 C 0.3405 0.09642 0.98866 0.0
C1051 C 0.34084 0.07574 0.00732 0.0
C1052 C 0.91605 0.30414 0.98963 0.0
C1053 C 0.94105 0.31103 0.00145 0.0
C1054 C 0.89821 0.2786 0.97442 0.0
C1055 C 0.90459 0.25906 0.97175 0.0
H1056 H 0.91096 0.31907 0.98944 0.0
H1057 H 0.88004 0.27461 0.96244 0.0
S1058 S 0.96611 0.26614 0.00321 0.0
N1059 N 0.9703 0.2956 0.01258 0.0
N1060 N 0.93652 0.24753 0.98494 0.0
C1061 C 0.92866 0.26513 0.98628 0.0
C1062 C 0.94698 0.29116 0.00094 0.0
C1063 C 0.73895 0.67457 0.99547 0.0
C1064 C 0.71752 0.65114 0.00887 0.0
C1065 C 0.7579 0.67386 0.9733 0.0
C1066 C 0.75634 0.64981 0.96436 0.0
H1067 H 0.74014 0.69333 -0.00042 0.0
H1068 H 0.77296 0.69199 0.96101 0.0
S1069 S 0.70667 0.58368 -0.00215 0.0
N1070 N 0.69778 0.60376 0.01575 0.0
N1071 N 0.73348 0.60255 0.97413 0.0
C1072 C 0.73645 0.62669 0.98058 0.0
C1073 C 0.717 0.62733 0.00284 0.0
C1074 C 0.93887 0.67036 -0.00289 0.0
C1075 C 0.93601 0.64584 0.00432 0.0
C1076 C 0.9194 0.67155 0.97788 0.0
C1077 C 0.89625 0.64829 0.96587 0.0
H1078 H 0.95705 0.68873 0.00354 0.0
H1079 H 0.92324 0.69069 0.96992 0.0
S1080 S 0.87734 0.57941 0.9839 0.0
N1081 N 0.90678 0.59795 0.00265 0.0
N1082 N 0.87021 0.60025 0.96665 0.0
C1083 C 0.89208 0.62382 0.97635 0.0
C1084 C 0.91198 0.62257 0.99553 0.0
C1085 C 0.35107 0.29784 0.98232 0.0
C1086 C 0.37526 0.31826 -0.00301 0.0
C1087 C 0.34801 0.27454 0.96572 0.0
C1088 C 0.36911 0.27091 0.96258 0.0
H1089 H 0.3346 0.3003 0.98223 0.0
H1090 H 0.32935 0.25994 0.95307 0.0
S1091 S 0.43594 0.3173 -0.00012 0.0
N1092 N 0.42009 0.33223 0.0107 0.0
N1093 N 0.41454 0.28887 0.97824 0.0
C1094 C 0.39293 0.29034 0.97957 0.0
C1095 C 0.39597 0.31394 -0.00302 0.0
C1096 C 0.71197 0.08998 0.00077 0.0
C1097 C 0.70286 0.06275 0.00144 0.0
C1098 C 0.7362 0.10796 0.98524 0.0
C1099 C 0.7523 0.09938 0.97069 0.0
H1100 H 0.69969 0.09722 0.0102 0.0
H1101 H 0.74174 0.12838 0.98264 0.0
S1102 S 0.73916 0.0311 0.96994 0.0
N1103 N 0.71314 0.02872 0.9893 0.0
N1104 N 0.75862 0.06263 0.96045 0.0
C1105 C 0.74424 0.07267 0.97347 0.0
C1106 C 0.71955 0.05432 0.98882 0.0
C1107 C 0.6696 0.93165 0.00555 0.0
C1108 C 0.64592 0.93054 0.01008 0.0
C1109 C 0.67498 0.91514 0.02566 0.0
C1110 C 0.65682 0.89689 0.05083 0.0
H1111 H 0.68484 0.9466 0.98846 0.0
H1112 H 0.6942 0.91817 0.02376 0.0
S1113 S 0.59008 0.88224 0.06686 0.0
N1114 N 0.60272 0.9067 0.03723 0.0
N1115 N 0.61292 0.87576 0.07479 0.0
C1116 C 0.6322 0.89375 0.05269 0.0
C1117 C 0.62672 0.91055 0.03238 0.0
C1118 C 0.06257 0.71707 0.01631 0.0
C1119 C 0.06722 0.69798 0.00017 0.0
C1120 C 0.08237 0.74001 0.03522 0.0
C1121 C 0.10747 0.74448 0.03932 0.0
H1122 H 0.04313 0.71359 0.01613 0.0
H1123 H 0.07752 0.75337 0.04921 0.0
S1124 S 0.13038 0.70204 -0.00173 0.0
N1125 N 0.09943 0.68647 0.98565 0.0
N1126 N 0.13648 0.72915 0.0224 0.0
C1127 C 0.11292 0.72667 0.0205 0.0
C1128 C 0.09279 0.70346 0.0007 0.0
C1129 C 0.26981 0.34586 -0.00017 0.0
C1130 C 0.2937 0.37007 0.00491 0.0
C1131 C 0.24771 0.34109 0.01982 0.0
C1132 C 0.24874 0.36043 0.04529 0.0
H1133 H 0.26861 0.32972 0.98264 0.0
H1134 H 0.23041 0.3214 0.01779 0.0
S1135 S 0.30469 0.42899 0.06212 0.0
N1136 N 0.31568 0.41507 0.0324 0.0
N1137 N 0.27409 0.406 0.06973 0.0
C1138 C 0.27161 0.38561 0.04737 0.0
C1139 C 0.29412 0.39046 0.02725 0.0
C1140 C 0.75657 0.71113 0.36479 0.0
C1141 C 0.73559 0.69046 0.34352 0.0
C1142 C 0.77428 0.70701 0.38365 0.0
C1143 C 0.77178 0.68211 0.38189 0.0
H1144 H 0.75842 0.7302 0.36901 0.0
H1145 H 0.78889 0.72286 0.40206 0.0
S1146 S 0.72316 0.62275 0.32503 0.0
N1147 N 0.71564 0.64516 0.31758 0.0
N1148 N 0.74885 0.63749 0.35358 0.0
C1149 C 0.75259 0.66209 0.35775 0.0
C1150 C 0.73449 0.66624 0.33841 0.0
C1151 C 0.2861 0.04051 0.35123 0.0
C1152 C 0.30466 0.03371 0.34286 0.0
C1153 C 0.29352 0.06518 0.36873 0.0
C1154 C 0.31973 0.08398 0.3773 0.0
H1155 H 0.2656 0.02598 0.34703 0.0
H1156 H 0.27859 0.06889 0.37793 0.0
S1157 S 0.37596 0.07725 0.35628 0.0
N1158 N 0.3505 0.04875 0.34093 0.0
N1159 N 0.36437 0.09526 0.37309 0.0
C1160 C 0.33857 0.07827 0.36613 0.0
C1161 C 0.33104 0.05306 0.34904 0.0
C1162 C 0.9646 0.25057 0.35109 0.0
C1163 C 0.97237 0.2774 0.34986 0.0
C1164 C 0.94105 0.23201 0.3676 0.0
C1165 C 0.92429 0.23953 0.3831 0.0
H1166 H 0.97748 0.24414 0.34141 0.0
H1167 H 0.93684 0.21206 0.37052 0.0
S1168 S 0.93322 0.30612 0.37992 0.0
N1169 N 0.9598 0.30975 0.36072 0.0
N1170 N 0.91531 0.27472 0.39096 0.0
C1171 C 0.93079 0.26576 0.37894 0.0
C1172 C 0.95488 0.28473 0.36255 0.0
C1173 C 0.05653 0.43488 0.3318 0.0
C1174 C 0.03325 0.4123 0.34301 0.0
C1175 C 0.05639 0.45533 0.31356 0.0
C1176 C 0.03297 0.45376 0.30554 0.0
H1177 H 0.07488 0.43614 0.33532 0.0
H1178 H 0.07452 0.47138 0.30289 0.0
S1179 S 0.96705 0.40056 0.33234 0.0
N1180 N 0.98633 0.39106 0.34804 0.0
N1181 N 0.98625 0.42926 0.31276 0.0
C1182 C 0.0098 0.43233 0.31889 0.0
C1183 C 0.0099 0.41166 0.33796 0.0
C1184 C 0.60596 0.62318 0.34273 0.0
C1185 C 0.60248 0.64481 0.34336 0.0
C1186 C 0.58683 0.59826 0.32741 0.0
C1187 C 0.56369 0.59419 0.31193 0.0
H1188 H 0.62421 0.62588 0.35204 0.0
H1189 H 0.59119 0.5828 0.3245 0.0
S1190 S 0.54338 0.64291 0.31121 0.0
N1191 N 0.57255 0.65938 0.33129 0.0
N1192 N 0.53703 0.61263 0.30159 0.0
C1193 C 0.559 0.61487 0.31528 0.0
C1194 C 0.5783 0.64018 0.33129 0.0
C1195 C 0.3787 0.95724 0.33181 0.0
C1196 C 0.37919 0.98077 0.34108 0.0
C1197 C 0.39918 0.95775 0.31222 0.0
C1198 C 0.42071 0.98177 0.3009 0.0
H1199 H 0.36173 0.93817 0.33787 0.0
H1200 H 0.39717 0.93911 0.30325 0.0
S1201 S 0.43322 0.04903 0.3222 0.0
N1202 N 0.40463 0.029 0.34102 0.0
N1203 N 0.44274 0.02969 0.30343 0.0
C1204 C 0.42243 0.0055 0.31245 0.0
C1205 C 0.40177 0.00507 0.33283 0.0
C1206 C 0.58033 0.96174 0.33874 0.0
C1207 C 0.60421 0.98497 0.34828 0.0
C1208 C 0.56089 0.96277 0.31926 0.0
C1209 C 0.56486 0.98705 0.30808 0.0
H1210 H 0.57725 0.94251 0.34435 0.0
H1211 H 0.54364 0.9443 0.30988 0.0
S1212 S 0.62256 0.05369 0.33009 0.0
N1213 N 0.62957 0.03314 0.34879 0.0
N1214 N 0.59317 0.03493 0.31119 0.0
C1215 C 0.58775 0.01052 0.32008 0.0
C1216 C 0.60741 0.00952 0.34049 0.0
C1217 C 0.05645 0.64236 0.3342 0.0
C1218 C 0.03581 0.64676 0.33426 0.0
C1219 C 0.05365 0.61932 0.3169 0.0
C1220 C 0.03005 0.59981 0.29948 0.0
H1221 H 0.07547 0.65766 0.3449 0.0
H1222 H 0.07072 0.61794 0.31429 0.0
S1223 S 0.96848 0.599 0.30022 0.0
N1224 N 0.98987 0.62776 0.32119 0.0
N1225 N 0.98446 0.58417 0.28954 0.0
C1226 C 0.00851 0.60263 0.30334 0.0
C1227 C 0.01144 0.62621 0.32042 0.0
C1228 C 0.3856 0.39171 0.32228 0.0
C1229 C 0.36802 0.39901 0.3347 0.0
C1230 C 0.40994 0.41044 0.30816 0.0
C1231 C 0.41752 0.4371 0.30576 0.0
H1232 H 0.38007 0.37115 0.32182 0.0
H1233 H 0.42211 0.40367 0.29638 0.0
S1234 S 0.37979 0.46695 0.33697 0.0
N1235 N 0.36088 0.4353 0.34631 0.0
N1236 N 0.40651 0.4703 0.31875 0.0
C1237 C 0.40092 0.44502 0.3201 0.0
C1238 C 0.37619 0.42602 0.33493 0.0
C1239 C 0.33672 0.26571 0.3311 0.0
C1240 C 0.31291 0.26459 0.3325 0.0
C1241 C 0.34035 0.24775 0.35058 0.0
C1242 C 0.32027 0.22798 0.37194 0.0
H1243 H 0.35328 0.2817 0.31721 0.0
H1244 H 0.35958 0.25076 0.35149 0.0
S1245 S 0.25278 0.21288 0.37816 0.0
N1246 N 0.26777 0.23924 0.35206 0.0
N1247 N 0.27477 0.20565 0.38858 0.0
C1248 C 0.2957 0.22493 0.37032 0.0
C1249 C 0.29197 0.24318 0.35062 0.0
C1250 C 0.72047 0.06679 0.34708 0.0
C1251 C 0.72112 0.04439 0.33463 0.0
C1252 C 0.74213 0.08858 0.36536 0.0
C1253 C 0.7652 0.08882 0.3709 0.0
H1254 H 0.70248 0.06651 0.34593 0.0
H1255 H 0.74016 0.10435 0.37792 0.0
S1256 S 0.77801 0.03695 0.33744 0.0
N1257 N 0.74758 0.02518 0.3246 0.0
N1258 N 0.78838 0.06629 0.35829 0.0
C1259 C 0.76689 0.06778 0.3549 0.0
C1260 C 0.74477 0.04546 0.33694 0.0
C1261 C 0.93467 0.67603 0.33339 0.0
C1262 C 0.95837 0.70056 0.33725 0.0
C1263 C 0.91279 0.6712 0.35406 0.0
C1264 C 0.91387 0.69079 0.37905 0.0
H1265 H 0.9335 0.65974 0.31667 0.0
H1266 H 0.89572 0.65134 0.35297 0.0
S1267 S 0.96916 0.76004 0.39265 0.0
N1268 N 0.98006 0.74599 0.363 0.0
N1269 N 0.93889 0.7368 0.40165 0.0
C1270 C 0.93645 0.7162 0.37987 0.0
C1271 C 0.95873 0.72112 0.35903 0.0
C1272 C 0.42375 0.0459 0.69859 0.0
C1273 C 0.40303 0.02537 0.67677 0.0
C1274 C 0.4411 0.0416 0.71816 0.0
C1275 C 0.43849 0.01664 0.71662 0.0
H1276 H 0.42577 0.06506 0.70244 0.0
H1277 H 0.45562 0.05741 0.7367 0.0
S1278 S 0.39001 0.95734 0.65949 0.0
N1279 N 0.38289 0.97995 0.65128 0.0
N1280 N 0.41543 0.97195 0.68857 0.0
C1281 C 0.41938 0.99665 0.69234 0.0
C1282 C 0.40165 1.00099 0.67229 0.0
C1283 C 0.95594 0.37345 0.67431 0.0
C1284 C 0.97423 0.36573 0.67123 0.0
C1285 C 0.96277 0.3981 0.69135 0.0
C1286 C 0.98821 0.41596 0.70468 0.0
H1287 H 0.93584 0.35962 0.6662 0.0
H1288 H 0.94774 0.40247 0.69641 0.0
S1289 S 0.04394 0.40673 0.69837 0.0
N1290 N 0.01932 0.37898 0.67942 0.0
N1291 N 0.03217 0.42545 0.71057 0.0
C1292 C 0.00705 0.40936 0.69884 0.0
C1293 C 1.00006 0.38417 0.68229 0.0
C1294 C 0.63182 0.58244 0.67711 0.0
C1295 C 0.63818 0.60889 0.67755 0.0
C1296 C 0.60961 0.56293 0.69537 0.0
C1297 C 0.59287 0.56916 0.71438 0.0
H1298 H 0.64508 0.57715 0.66517 0.0
H1299 H 0.60682 0.54347 0.69741 0.0
S1300 S 0.59754 0.63392 0.71586 0.0
N1301 N 0.62366 0.63922 0.69299 0.0
N1302 N 0.58166 0.60241 0.72661 0.0
C1303 C 0.59748 0.59479 0.71125 0.0
C1304 C 0.62022 0.61472 0.69309 0.0
C1305 C 0.7191 0.76713 0.66454 0.0
C1306 C 0.69627 0.74444 0.6767 0.0
C1307 C 0.71826 0.78753 0.64735 0.0
C1308 C 0.69455 0.78584 0.6414 0.0
H1309 H 0.7376 0.76852 0.6665 0.0
H1310 H 0.73598 0.80366 0.63582 0.0
S1311 S 0.62966 0.73228 0.67126 0.0
N1312 N 0.64953 0.72294 0.68479 0.0
N1313 N 0.64812 0.76105 0.65147 0.0
C1314 C 0.67189 0.76429 0.65571 0.0
C1315 C 0.67271 0.74365 0.67369 0.0
C1316 C 0.24785 0.97271 0.66436 0.0
C1317 C 0.27274 0.97771 0.67269 0.0
C1318 C 0.22853 0.9482 0.64801 0.0
C1319 C 0.23329 0.92774 0.64058 0.0
H1320 H 0.24389 0.98843 0.66771 0.0
H1321 H 0.21044 0.94586 0.63866 0.0
S1322 S 0.29389 0.92961 0.66216 0.0
N1323 N 0.30016 0.95932 0.67591 0.0
N1324 N 0.26363 0.91314 0.646 0.0
C1325 C 0.25726 0.93174 0.65189 0.0
C1326 C 0.27708 0.95679 0.66774 0.0
C1327 C 0.0665 0.33148 0.65814 0.0
C1328 C 0.04385 0.30738 0.66676 0.0
C1329 C 0.08662 0.33183 0.63771 0.0
C1330 C 0.08502 0.30813 0.626 0.0
H1331 H 0.06793 0.35016 0.66473 0.0
H1332 H 0.10282 0.35067 0.62902 0.0
S1333 S 0.03172 0.24005 0.64631 0.0
N1334 N 0.02235 0.25937 0.66568 0.0
N1335 N 0.06036 0.26013 0.62765 0.0
C1336 C 0.06357 0.28405 0.63727 0.0
C1337 C 0.04291 0.28365 0.65756 0.0
C1338 C 0.24609 0.28775 0.66043 0.0
C1339 C 0.26936 0.31133 0.67132 0.0
C1340 C 0.2262 0.28831 0.64145 0.0
C1341 C 0.22901 0.31246 0.63235 0.0
H1342 H 0.24381 0.26869 0.66461 0.0
H1343 H 0.20954 0.26974 0.6309 0.0
S1344 S 0.28426 0.37968 0.65899 0.0
N1345 N 0.29255 0.35955 0.6756 0.0
N1346 N 0.25529 0.36038 0.63905 0.0
C1347 C 0.25112 0.33611 0.64581 0.0
C1348 C 0.27127 0.3356 0.66558 0.0
C1349 C 0.72338 0.97871 0.67452 0.0
C1350 C 0.70329 0.98383 0.67832 0.0
C1351 C 0.71885 0.95506 0.65674 0.0
C1352 C 0.69402 0.93566 0.64258 0.0
H1353 H 0.74314 0.99387 0.68255 0.0
H1354 H 0.73532 0.95301 0.65121 0.0
S1355 S 0.63384 0.93697 0.65356 0.0
N1356 N 0.65696 0.96585 0.67211 0.0
N1357 N 0.64835 0.92116 0.63961 0.0
C1358 C 0.6733 0.93935 0.65012 0.0
C1359 C 0.67797 0.96352 0.66768 0.0
C1360 C 0.05368 0.72831 0.65555 0.0
C1361 C 0.03623 0.73591 0.66747 0.0
C1362 C 0.07767 0.74651 0.63989 0.0
C1363 C 0.08505 0.77294 0.63541 0.0
H1364 H 0.04829 0.70784 0.65674 0.0
H1365 H 0.08973 0.73943 0.6287 0.0
S1366 S 0.04758 0.80355 0.6643 0.0
N1367 N 0.02904 0.77237 0.67616 0.0
N1368 N 0.07399 0.80633 0.64577 0.0
C1369 C 0.06859 0.78124 0.64909 0.0
C1370 C 0.04422 0.76279 0.66547 0.0
C1371 C 1.00286 0.60029 0.66395 0.0
C1372 C 0.97959 0.60004 0.66843 0.0
C1373 C 0.00676 0.582 0.682 0.0
C1374 C 0.98746 0.56275 0.7049 0.0
H1375 H 0.01891 0.61586 0.6487 0.0
H1376 H 0.02572 0.58437 0.68059 0.0
S1377 S 0.92128 0.55003 0.71945 0.0
N1378 N 0.93557 0.57611 0.69274 0.0
N1379 N 0.94303 0.54189 0.72647 0.0
C1380 C 0.96326 0.56057 0.7064 0.0
C1381 C 0.95928 0.57918 0.68824 0.0
C1382 C 0.39759 0.38232 0.69315 0.0
C1383 C 0.40208 0.36247 0.67994 0.0
C1384 C 0.41745 0.40598 0.71053 0.0
C1385 C 0.4425 0.41055 0.71588 0.0
H1386 H 0.37829 0.37911 0.69152 0.0
H1387 H 0.41276 0.42011 0.722 0.0
S1388 S 0.46492 0.36587 0.68329 0.0
N1389 N 0.43405 0.34998 0.67017 0.0
N1390 N 0.47117 0.39407 0.70401 0.0
C1391 C 0.44772 0.39169 0.70042 0.0
C1392 C 0.42754 0.3677 0.68223 0.0
C1393 C 0.60298 0.01194 0.6708 0.0
C1394 C 0.62647 0.03656 0.67591 0.0
C1395 C 0.58073 0.00631 0.69114 0.0
C1396 C 0.58123 0.02514 0.71711 0.0
H1397 H 0.60222 0.99617 0.65325 0.0
H1398 H 0.5638 0.98638 0.68897 0.0
S1399 S 0.63579 0.09433 0.73451 0.0
N1400 N 0.64733 0.08135 0.70406 0.0
N1401 N 0.60552 0.07055 0.7423 0.0
C1402 C 0.60362 0.05065 0.71938 0.0
C1403 C 0.62625 0.05643 0.69876 0.0
loop_
_geom_bond_atom_site_label_1
_geom_bond_atom_site_label_2
_geom_bond_distance
_geom_bond_site_symmetry_2
_ccdc_geom_bond_type
C0 O1 1.160 . S
C0 O7 1.185 . S
O1 C0 1.160 . S
O2 Zn3 1.899 1_656 S
O2 C10 1.284 . S
Zn3 O2 1.899 1_454 S
Zn3 O4 2.032 . S
Zn3 O7 2.086 . S
Zn3 O12 1.977 1_554 S
O4 Zn3 2.032 . S
O4 C8 1.278 1_455 S
C5 O6 1.203 1_455 S
C5 O12 1.267 . S
O6 C5 1.203 1_655 S
O7 C0 1.185 . S
O7 Zn3 2.086 . S
C8 O4 1.278 1_655 S
C8 O9 1.211 . S
O9 C8 1.211 . S
C10 O2 1.284 . S
C10 O11 1.273 1_556 S
O11 C10 1.273 1_554 S
O12 Zn3 1.977 1_556 S
O12 C5 1.267 . S
C13 O14 1.160 . S
C13 O20 1.185 1_556 S
O14 C13 1.160 . S
O15 Zn16 1.899 . S
O15 C23 1.284 . S
Zn16 O15 1.899 . S
Zn16 O17 2.032 1_554 S
Zn16 O20 2.086 . S
Zn16 O25 1.977 . S
O17 Zn16 2.032 1_556 S
O17 C21 1.278 . S
C18 O19 1.203 . S
C18 O25 1.267 . S
O19 C18 1.203 . S
O20 C13 1.185 1_554 S
O20 Zn16 2.086 . S
C21 O17 1.278 . S
C21 O22 1.211 . S
O22 C21 1.211 . S
C23 O15 1.284 . S
C23 O24 1.273 . S
O24 C23 1.273 . S
O25 Zn16 1.977 . S
O25 C18 1.267 . S
C26 O27 1.160 . S
C26 O33 1.185 1_556 S
O27 C26 1.160 . S
O28 Zn29 1.899 1_565 S
O28 C36 1.284 . S
Zn29 O28 1.899 1_545 S
Zn29 O30 2.032 1_554 S
Zn29 O33 2.086 . S
Zn29 O38 1.977 . S
O30 Zn29 2.032 1_556 S
O30 C34 1.278 1_545 S
C31 O32 1.203 1_545 S
C31 O38 1.267 . S
O32 C31 1.203 1_565 S
O33 C26 1.185 1_554 S
O33 Zn29 2.086 . S
C34 O30 1.278 1_565 S
C34 O35 1.211 . S
O35 C34 1.211 . S
C36 O28 1.284 . S
C36 O37 1.273 . S
O37 C36 1.273 . S
O38 Zn29 1.977 . S
O38 C31 1.267 . S
C39 O40 1.160 . S
C39 O46 1.185 1_556 S
O40 C39 1.160 . S
O41 Zn42 1.899 1_455 S
O41 C49 1.284 . S
Zn42 O41 1.899 1_655 S
Zn42 O43 2.032 1_554 S
Zn42 O46 2.086 . S
Zn42 O51 1.977 . S
O43 Zn42 2.032 1_556 S
O43 C47 1.278 1_655 S
C44 O45 1.203 1_655 S
C44 O51 1.267 . S
O45 C44 1.203 1_455 S
O46 C39 1.185 1_554 S
O46 Zn42 2.086 . S
C47 O43 1.278 1_455 S
C47 O48 1.211 . S
O48 C47 1.211 . S
C49 O41 1.284 . S
C49 O50 1.273 . S
O50 C49 1.273 . S
O51 Zn42 1.977 . S
O51 C44 1.267 . S
C52 O53 1.160 . S
C52 O59 1.185 . S
O53 C52 1.160 . S
O54 Zn55 1.899 1_556 S
O54 C62 1.284 . S
Zn55 O54 1.899 1_554 S
Zn55 O56 2.032 . S
Zn55 O59 2.086 . S
Zn55 O64 1.977 1_554 S
O56 Zn55 2.032 . S
O56 C60 1.278 . S
C57 O58 1.203 . S
C57 O64 1.267 . S
O58 C57 1.203 . S
O59 C52 1.185 . S
O59 Zn55 2.086 . S
C60 O56 1.278 . S
C60 O61 1.211 . S
O61 C60 1.211 . S
C62 O54 1.284 . S
C62 O63 1.273 1_556 S
O63 C62 1.273 1_554 S
O64 Zn55 1.977 1_556 S
O64 C57 1.267 . S
C65 O66 1.160 . S
C65 O72 1.185 . S
O66 C65 1.160 . S
O67 Zn68 1.899 1_546 S
O67 C75 1.284 . S
Zn68 O67 1.899 1_564 S
Zn68 O69 2.032 . S
Zn68 O72 2.086 . S
Zn68 O77 1.977 1_554 S
O69 Zn68 2.032 . S
O69 C73 1.278 1_565 S
C70 O71 1.203 1_565 S
C70 O77 1.267 . S
O71 C70 1.203 1_545 S
O72 C65 1.185 . S
O72 Zn68 2.086 . S
C73 O69 1.278 1_545 S
C73 O74 1.211 . S
O74 C73 1.211 . S
C75 O67 1.284 . S
C75 O76 1.273 1_556 S
O76 C75 1.273 1_554 S
O77 Zn68 1.977 1_556 S
O77 C70 1.267 . S
C78 O79 1.160 . S
C78 O85 1.185 . S
O79 C78 1.160 . S
O80 Zn81 1.899 . S
O80 C88 1.284 . S
Zn81 O80 1.899 . S
Zn81 O82 2.032 . S
Zn81 O85 2.086 . S
Zn81 O90 1.977 . S
O82 Zn81 2.032 . S
O82 C86 1.278 . S
C83 O84 1.203 . S
C83 O90 1.267 . S
O84 C83 1.203 . S
O85 C78 1.185 . S
O85 Zn81 2.086 . S
C86 O82 1.278 . S
C86 O87 1.211 . S
O87 C86 1.211 . S
C88 O80 1.284 . S
C88 O89 1.273 . S
O89 C88 1.273 . S
O90 Zn81 1.977 . S
O90 C83 1.267 . S
C91 O92 1.160 1_565 S
C91 O98 1.185 . S
O92 C91 1.160 1_545 S
O93 Zn94 1.899 1_545 S
O93 C101 1.284 . S
Zn94 O93 1.899 1_565 S
Zn94 O95 2.032 . S
Zn94 O98 2.086 . S
Zn94 O103 1.977 . S
O95 Zn94 2.032 . S
O95 C99 1.278 . S
C96 O97 1.203 . S
C96 O103 1.267 . S
O97 C96 1.203 . S
O98 C91 1.185 . S
O98 Zn94 2.086 . S
C99 O95 1.278 . S
C99 O100 1.211 . S
O100 C99 1.211 . S
C101 O93 1.284 . S
C101 O102 1.273 . S
O102 C101 1.273 . S
O103 Zn94 1.977 . S
O103 C96 1.267 . S
C104 O105 1.160 1_455 S
C104 O111 1.185 . S
O105 C104 1.160 1_655 S
O106 Zn107 1.899 1_655 S
O106 C114 1.284 . S
Zn107 O106 1.899 1_455 S
Zn107 O108 2.032 . S
Zn107 O111 2.086 . S
Zn107 O116 1.977 . S
O108 Zn107 2.032 . S
O108 C112 1.278 . S
C109 O110 1.203 . S
C109 O116 1.267 . S
O110 C109 1.203 . S
O111 C104 1.185 . S
O111 Zn107 2.086 . S
C112 O108 1.278 . S
C112 O113 1.211 . S
O113 C112 1.211 . S
C114 O106 1.284 . S
C114 O115 1.273 . S
O115 C114 1.273 . S
O116 Zn107 1.977 . S
O116 C109 1.267 . S
C117 O118 1.160 1_565 S
C117 O124 1.185 . S
O118 C117 1.160 1_545 S
O119 Zn120 1.899 1_545 S
O119 C127 1.284 . S
Zn120 O119 1.899 1_565 S
Zn120 O121 2.032 . S
Zn120 O124 2.086 . S
Zn120 O129 1.977 . S
O121 Zn120 2.032 . S
O121 C125 1.278 . S
C122 O123 1.203 . S
C122 O129 1.267 . S
O123 C122 1.203 . S
O124 C117 1.185 . S
O124 Zn120 2.086 . S
C125 O121 1.278 . S
C125 O126 1.211 . S
O126 C125 1.211 . S
C127 O119 1.284 . S
C127 O128 1.273 . S
O128 C127 1.273 . S
O129 Zn120 1.977 . S
O129 C122 1.267 . S
C130 O131 1.160 . S
C130 O137 1.185 . S
O131 C130 1.160 . S
O132 Zn133 1.895 . S
O132 C140 1.299 . S
Zn133 O132 1.895 . S
Zn133 O134 2.032 . S
Zn133 O137 2.086 1_455 S
Zn133 O142 1.977 . S
O134 Zn133 2.032 . S
O134 C138 1.278 . S
C135 O136 1.203 . S
C135 O142 1.267 . S
O136 C135 1.203 . S
O137 C130 1.185 . S
O137 Zn133 2.086 1_655 S
C138 O134 1.278 . S
C138 O139 1.211 . S
O139 C138 1.211 . S
C140 O132 1.299 . S
C140 O141 1.273 . S
O141 C140 1.273 . S
O142 Zn133 1.977 . S
O142 C135 1.267 . S
C143 O144 1.160 . S
C143 O150 1.185 . S
O144 C143 1.160 . S
O145 Zn146 1.899 . S
O145 C153 1.284 . S
Zn146 O145 1.899 . S
Zn146 O147 2.032 . S
Zn146 O150 2.086 . S
Zn146 O155 1.977 . S
O147 Zn146 2.032 . S
O147 C151 1.278 . S
C148 O149 1.203 . S
C148 O155 1.267 . S
O149 C148 1.203 . S
O150 C143 1.185 . S
O150 Zn146 2.086 . S
C151 O147 1.278 . S
C151 O152 1.211 . S
O152 C151 1.211 . S
C153 O145 1.284 . S
C153 O154 1.273 . S
O154 C153 1.273 . S
O155 Zn146 1.977 . S
O155 C148 1.267 . S
C156 O157 1.160 1_545 S
C156 O163 1.185 . S
O157 C156 1.160 1_565 S
O158 Zn159 1.899 1_565 S
O158 C166 1.284 . S
Zn159 O158 1.899 1_545 S
Zn159 O160 2.032 . S
Zn159 O163 2.086 . S
Zn159 O168 1.977 . S
O160 Zn159 2.032 . S
O160 C164 1.278 . S
C161 O162 1.203 . S
C161 O168 1.267 . S
O162 C161 1.203 . S
O163 C156 1.185 . S
O163 Zn159 2.086 . S
C164 O160 1.278 . S
C164 O165 1.211 . S
O165 C164 1.211 . S
C166 O158 1.284 . S
C166 O167 1.273 . S
O167 C166 1.273 . S
O168 Zn159 1.977 . S
O168 C161 1.267 . S
C169 O170 1.160 . S
C169 O176 1.185 . S
O170 C169 1.160 . S
O171 Zn172 1.899 . S
O171 C179 1.284 . S
Zn172 O171 1.899 . S
Zn172 O173 2.032 . S
Zn172 O176 2.086 1_655 S
Zn172 O181 1.977 . S
O173 Zn172 2.032 . S
O173 C177 1.278 . S
C174 O175 1.203 . S
C174 O181 1.267 . S
O175 C174 1.203 . S
O176 C169 1.185 . S
O176 Zn172 2.086 1_455 S
C177 O173 1.278 . S
C177 O178 1.211 . S
O178 C177 1.211 . S
C179 O171 1.284 . S
C179 O180 1.273 . S
O180 C179 1.273 . S
O181 Zn172 1.977 . S
O181 C174 1.267 . S
C182 O183 1.160 . S
C182 O189 1.185 . S
O183 C182 1.160 . S
O184 Zn185 1.899 . S
O184 C192 1.284 . S
Zn185 O184 1.899 . S
Zn185 O186 2.032 . S
Zn185 O189 2.086 . S
Zn185 O194 1.977 . S
O186 Zn185 2.032 . S
O186 C190 1.278 . S
C187 O188 1.203 . S
C187 O194 1.267 . S
O188 C187 1.203 . S
O189 C182 1.185 . S
O189 Zn185 2.086 . S
C190 O186 1.278 . S
C190 O191 1.211 . S
O191 C190 1.211 . S
C192 O184 1.284 . S
C192 O193 1.273 . S
O193 C192 1.273 . S
O194 Zn185 1.977 . S
O194 C187 1.267 . S
C195 O196 1.160 . S
C195 O202 1.185 . S
O196 C195 1.160 . S
O197 Zn198 1.899 . S
O197 C205 1.284 . S
Zn198 O197 1.899 . S
Zn198 O199 2.032 . S
Zn198 O202 2.086 . S
Zn198 O207 1.977 . S
O199 Zn198 2.032 . S
O199 C203 1.278 . S
C200 O201 1.203 . S
C200 O207 1.267 . S
O201 C200 1.203 . S
O202 C195 1.185 . S
O202 Zn198 2.086 . S
C203 O199 1.278 . S
C203 O204 1.211 . S
O204 C203 1.211 . S
C205 O197 1.284 . S
C205 O206 1.273 . S
O206 C205 1.273 . S
O207 Zn198 1.977 . S
O207 C200 1.267 . S
C208 O209 1.160 1_545 S
C208 O215 1.185 . S
O209 C208 1.160 1_565 S
O210 Zn211 1.899 1_565 S
O210 C218 1.284 . S
Zn211 O210 1.899 1_545 S
Zn211 O212 2.032 . S
Zn211 O215 2.086 . S
Zn211 O220 1.977 . S
O212 Zn211 2.032 . S
O212 C216 1.278 . S
C213 O214 1.203 . S
C213 O220 1.267 . S
O214 C213 1.203 . S
O215 C208 1.185 . S
O215 Zn211 2.086 . S
C216 O212 1.278 . S
C216 O217 1.211 . S
O217 C216 1.211 . S
C218 O210 1.284 . S
C218 O219 1.273 . S
O219 C218 1.273 . S
O220 Zn211 1.977 . S
O220 C213 1.267 . S
C221 O222 1.160 1_655 S
C221 O228 1.185 . S
O222 C221 1.160 1_455 S
O223 Zn224 1.899 1_455 S
O223 C231 1.284 . S
Zn224 O223 1.899 1_655 S
Zn224 O225 2.032 . S
Zn224 O228 2.086 . S
Zn224 O233 1.977 . S
O225 Zn224 2.032 . S
O225 C229 1.278 . S
C226 O227 1.203 . S
C226 O233 1.267 . S
O227 C226 1.203 . S
O228 C221 1.185 . S
O228 Zn224 2.086 . S
C229 O225 1.278 . S
C229 O230 1.211 . S
O230 C229 1.211 . S
C231 O223 1.284 . S
C231 O232 1.273 . S
O232 C231 1.273 . S
O233 Zn224 1.977 . S
O233 C226 1.267 . S
H234 C242 0.930 . S
H235 C245 0.930 . S
H236 C247 0.930 . S
H237 C248 0.970 . S
H238 C248 0.970 . S
H239 C250 0.930 . S
H240 C252 0.930 . S
H241 C254 0.930 . S
C242 H234 0.930 . S
C242 C243 1.382 . S
C242 C244 1.426 . S
C243 C242 1.382 . S
C243 C247 1.389 . S
C244 C242 1.426 . S
C244 C245 1.375 . S
C244 C248 1.532 . S
C245 H235 0.930 . S
C245 C244 1.375 . S
C245 C246 1.416 . S
C246 C245 1.416 . S
C246 C247 1.371 . S
C247 H236 0.930 . S
C247 C243 1.389 . S
C247 C246 1.371 . S
C248 H237 0.970 . S
C248 H238 0.970 . S
C248 C244 1.532 . S
C248 C249 1.499 . S
C249 C248 1.499 . S
C249 C250 1.370 . S
C249 C254 1.415 . S
C250 H239 0.930 . S
C250 C249 1.370 . S
C250 C251 1.407 . S
C251 C250 1.407 . S
C251 C252 1.365 . S
C252 H240 0.930 . S
C252 C251 1.365 . S
C252 C253 1.393 . S
C253 C252 1.393 . S
C253 C254 1.387 . S
C254 H241 0.930 . S
C254 C249 1.415 . S
C254 C253 1.387 . S
H255 C263 0.930 . S
H256 C266 0.930 . S
H257 C268 0.930 . S
H258 C269 0.970 . S
H259 C269 0.970 . S
H260 C271 0.930 . S
H261 C273 0.930 . S
H262 C275 0.930 . S
C263 H255 0.930 . S
C263 C264 1.382 . S
C263 C265 1.426 . S
C264 C263 1.382 . S
C264 C268 1.389 . S
C265 C263 1.426 . S
C265 C266 1.375 . S
C265 C269 1.532 . S
C266 H256 0.930 . S
C266 C265 1.375 . S
C266 C267 1.416 . S
C267 C266 1.416 . S
C267 C268 1.371 . S
C268 H257 0.930 . S
C268 C264 1.389 . S
C268 C267 1.371 . S
C269 H258 0.970 . S
C269 H259 0.970 . S
C269 C265 1.532 . S
C269 C270 1.499 . S
C270 C269 1.499 . S
C270 C271 1.370 . S
C270 C275 1.415 . S
C271 H260 0.930 . S
C271 C270 1.370 . S
C271 C272 1.407 . S
C272 C271 1.407 . S
C272 C273 1.365 . S
C273 H261 0.930 . S
C273 C272 1.365 . S
C273 C274 1.393 . S
C274 C273 1.393 . S
C274 C275 1.387 . S
C275 H262 0.930 . S
C275 C270 1.415 . S
C275 C274 1.387 . S
H276 C284 0.930 . S
H277 C287 0.930 . S
H278 C289 0.930 . S
H279 C290 0.970 . S
H280 C290 0.970 . S
H281 C292 0.930 . S
H282 C294 0.930 . S
H283 C296 0.930 . S
C284 H276 0.930 . S
C284 C285 1.382 . S
C284 C286 1.426 . S
C285 C284 1.382 . S
C285 C289 1.389 . S
C286 C284 1.426 . S
C286 C287 1.375 . S
C286 C290 1.532 . S
C287 H277 0.930 . S
C287 C286 1.375 . S
C287 C288 1.416 . S
C288 C287 1.416 . S
C288 C289 1.371 . S
C289 H278 0.930 . S
C289 C285 1.389 . S
C289 C288 1.371 . S
C290 H279 0.970 . S
C290 H280 0.970 . S
C290 C286 1.532 . S
C290 C291 1.499 . S
C291 C290 1.499 . S
C291 C292 1.370 . S
C291 C296 1.415 . S
C292 H281 0.930 . S
C292 C291 1.370 . S
C292 C293 1.407 . S
C293 C292 1.407 . S
C293 C294 1.365 . S
C294 H282 0.930 . S
C294 C293 1.365 . S
C294 C295 1.393 . S
C295 C294 1.393 . S
C295 C296 1.387 . S
C296 H283 0.930 . S
C296 C291 1.415 . S
C296 C295 1.387 . S
H297 C305 0.930 . S
H298 C308 0.930 . S
H299 C310 0.930 . S
H300 C311 0.970 . S
H301 C311 0.970 . S
H302 C313 0.930 . S
H303 C315 0.930 . S
H304 C317 0.930 . S
C305 H297 0.930 . S
C305 C306 1.382 . S
C305 C307 1.426 . S
C306 C305 1.382 . S
C306 C310 1.389 . S
C307 C305 1.426 . S
C307 C308 1.375 . S
C307 C311 1.532 . S
C308 H298 0.930 . S
C308 C307 1.375 . S
C308 C309 1.416 . S
C309 C308 1.416 . S
C309 C310 1.371 . S
C310 H299 0.930 . S
C310 C306 1.389 . S
C310 C309 1.371 . S
C311 H300 0.970 . S
C311 H301 0.970 . S
C311 C307 1.532 . S
C311 C312 1.499 . S
C312 C311 1.499 . S
C312 C313 1.370 . S
C312 C317 1.415 . S
C313 H302 0.930 . S
C313 C312 1.370 . S
C313 C314 1.407 . S
C314 C313 1.407 . S
C314 C315 1.365 . S
C315 H303 0.930 . S
C315 C314 1.365 . S
C315 C316 1.393 . S
C316 C315 1.393 . S
C316 C317 1.387 . S
C317 H304 0.930 . S
C317 C312 1.415 . S
C317 C316 1.387 . S
H318 C326 0.930 . S
H319 C329 0.930 . S
H320 C331 0.930 . S
H321 C332 0.970 . S
H322 C332 0.970 . S
H323 C334 0.930 . S
H324 C336 0.930 . S
H325 C338 0.930 . S
C326 H318 0.930 . S
C326 C327 1.382 . S
C326 C328 1.426 . S
C327 C326 1.382 . S
C327 C331 1.389 . S
C328 C326 1.426 . S
C328 C329 1.375 . S
C328 C332 1.532 . S
C329 H319 0.930 . S
C329 C328 1.375 . S
C329 C330 1.416 . S
C330 C329 1.416 . S
C330 C331 1.371 . S
C331 H320 0.930 . S
C331 C327 1.389 . S
C331 C330 1.371 . S
C332 H321 0.970 . S
C332 H322 0.970 . S
C332 C328 1.532 . S
C332 C333 1.499 . S
C333 C332 1.499 . S
C333 C334 1.370 . S
C333 C338 1.415 . S
C334 H323 0.930 . S
C334 C333 1.370 . S
C334 C335 1.407 . S
C335 C334 1.407 . S
C335 C336 1.365 . S
C336 H324 0.930 . S
C336 C335 1.365 . S
C336 C337 1.393 . S
C337 C336 1.393 . S
C337 C338 1.387 . S
C338 H325 0.930 . S
C338 C333 1.415 . S
C338 C337 1.387 . S
H339 C347 0.930 . S
H340 C350 0.930 . S
H341 C352 0.930 . S
H342 C353 0.970 . S
H343 C353 0.970 . S
H344 C355 0.930 . S
H345 C357 0.930 . S
H346 C359 0.930 . S
C347 H339 0.930 . S
C347 C348 1.382 . S
C347 C349 1.426 . S
C348 C347 1.382 . S
C348 C352 1.389 . S
C349 C347 1.426 . S
C349 C350 1.375 . S
C349 C353 1.532 . S
C350 H340 0.930 . S
C350 C349 1.375 . S
C350 C351 1.416 . S
C351 C350 1.416 . S
C351 C352 1.371 . S
C352 H341 0.930 . S
C352 C348 1.389 . S
C352 C351 1.371 . S
C353 H342 0.970 . S
C353 H343 0.970 . S
C353 C349 1.532 . S
C353 C354 1.499 . S
C354 C353 1.499 . S
C354 C355 1.370 . S
C354 C359 1.415 . S
C355 H344 0.930 . S
C355 C354 1.370 . S
C355 C356 1.407 . S
C356 C355 1.407 . S
C356 C357 1.365 . S
C357 H345 0.930 . S
C357 C356 1.365 . S
C357 C358 1.393 . S
C358 C357 1.393 . S
C358 C359 1.387 . S
C359 H346 0.930 . S
C359 C354 1.415 . S
C359 C358 1.387 . S
H360 C368 0.930 . S
H361 C371 0.930 . S
H362 C373 0.930 . S
H363 C374 0.970 . S
H364 C374 0.970 . S
H365 C376 0.930 . S
H366 C378 0.930 . S
H367 C380 0.930 . S
C368 H360 0.930 . S
C368 C369 1.382 . S
C368 C370 1.426 . S
C369 C368 1.382 . S
C369 C373 1.389 . S
C370 C368 1.426 . S
C370 C371 1.375 . S
C370 C374 1.532 . S
C371 H361 0.930 . S
C371 C370 1.375 . S
C371 C372 1.416 . S
C372 C371 1.416 . S
C372 C373 1.371 . S
C373 H362 0.930 . S
C373 C369 1.389 . S
C373 C372 1.371 . S
C374 H363 0.970 . S
C374 H364 0.970 . S
C374 C370 1.532 . S
C374 C375 1.499 . S
C375 C374 1.499 . S
C375 C376 1.370 . S
C375 C380 1.415 . S
C376 H365 0.930 . S
C376 C375 1.370 . S
C376 C377 1.407 . S
C377 C376 1.407 . S
C377 C378 1.365 . S
C378 H366 0.930 . S
C378 C377 1.365 . S
C378 C379 1.393 . S
C379 C378 1.393 . S
C379 C380 1.387 . S
C380 H367 0.930 . S
C380 C375 1.415 . S
C380 C379 1.387 . S
H381 C389 0.930 . S
H382 C392 0.930 . S
H383 C394 0.930 . S
H384 C395 0.970 . S
H385 C395 0.970 . S
H386 C397 0.930 . S
H387 C399 0.930 . S
H388 C401 0.930 . S
C389 H381 0.930 . S
C389 C390 1.382 . S
C389 C391 1.426 . S
C390 C389 1.382 . S
C390 C394 1.389 . S
C391 C389 1.426 . S
C391 C392 1.375 . S
C391 C395 1.532 . S
C392 H382 0.930 . S
C392 C391 1.375 . S
C392 C393 1.416 . S
C393 C392 1.416 . S
C393 C394 1.371 . S
C394 H383 0.930 . S
C394 C390 1.389 . S
C394 C393 1.371 . S
C395 H384 0.970 . S
C395 H385 0.970 . S
C395 C391 1.532 . S
C395 C396 1.499 . S
C396 C395 1.499 . S
C396 C397 1.370 . S
C396 C401 1.415 . S
C397 H386 0.930 . S
C397 C396 1.370 . S
C397 C398 1.407 . S
C398 C397 1.407 . S
C398 C399 1.365 . S
C399 H387 0.930 . S
C399 C398 1.365 . S
C399 C400 1.393 . S
C400 C399 1.393 . S
C400 C401 1.387 . S
C401 H388 0.930 . S
C401 C396 1.415 . S
C401 C400 1.387 . S
H402 C410 0.930 . S
H403 C413 0.930 . S
H404 C415 0.930 . S
H405 C416 0.970 . S
H406 C416 0.970 . S
H407 C418 0.930 . S
H408 C420 0.930 . S
H409 C422 0.930 . S
C410 H402 0.930 . S
C410 C411 1.382 . S
C410 C412 1.426 . S
C411 C410 1.382 . S
C411 C415 1.389 . S
C412 C410 1.426 . S
C412 C413 1.375 . S
C412 C416 1.532 . S
C413 H403 0.930 . S
C413 C412 1.375 . S
C413 C414 1.416 . S
C414 C413 1.416 . S
C414 C415 1.371 . S
C415 H404 0.930 . S
C415 C411 1.389 . S
C415 C414 1.371 . S
C416 H405 0.970 . S
C416 H406 0.970 . S
C416 C412 1.532 . S
C416 C417 1.499 . S
C417 C416 1.499 . S
C417 C418 1.370 . S
C417 C422 1.415 . S
C418 H407 0.930 . S
C418 C417 1.370 . S
C418 C419 1.407 . S
C419 C418 1.407 . S
C419 C420 1.365 . S
C420 H408 0.930 . S
C420 C419 1.365 . S
C420 C421 1.393 . S
C421 C420 1.393 . S
C421 C422 1.387 . S
C422 H409 0.930 . S
C422 C417 1.415 . S
C422 C421 1.387 . S
H423 C431 0.930 . S
H424 C434 0.930 . S
H425 C436 0.930 . S
H426 C437 0.970 . S
H427 C437 0.970 . S
H428 C439 0.930 . S
H429 C441 0.930 . S
H430 C443 0.930 . S
C431 H423 0.930 . S
C431 C432 1.382 . S
C431 C433 1.426 . S
C432 C431 1.382 . S
C432 C436 1.389 1_455 S
C433 C431 1.426 . S
C433 C434 1.375 . S
C433 C437 1.532 . S
C434 H424 0.930 . S
C434 C433 1.375 . S
C434 C435 1.416 . S
C435 C434 1.416 . S
C435 C436 1.371 1_455 S
C436 H425 0.930 . S
C436 C432 1.389 1_655 S
C436 C435 1.371 1_655 S
C437 H426 0.970 . S
C437 H427 0.970 . S
C437 C433 1.532 . S
C437 C438 1.499 . S
C438 C437 1.499 . S
C438 C439 1.370 . S
C438 C443 1.415 . S
C439 H428 0.930 . S
C439 C438 1.370 . S
C439 C440 1.407 . S
C440 C439 1.407 . S
C440 C441 1.365 1_455 S
C441 H429 0.930 . S
C441 C440 1.365 1_655 S
C441 C442 1.393 1_655 S
C442 C441 1.393 1_455 S
C442 C443 1.387 . S
C443 H430 0.930 . S
C443 C438 1.415 . S
C443 C442 1.387 . S
H444 C452 0.930 . S
H445 C455 0.930 . S
H446 C457 0.930 . S
H447 C458 0.970 . S
H448 C458 0.970 . S
H449 C460 0.930 . S
H450 C462 0.930 . S
H451 C464 0.930 . S
C452 H444 0.930 . S
C452 C453 1.382 . S
C452 C454 1.426 . S
C453 C452 1.382 . S
C453 C457 1.389 . S
C454 C452 1.426 . S
C454 C455 1.375 . S
C454 C458 1.532 . S
C455 H445 0.930 . S
C455 C454 1.375 . S
C455 C456 1.416 . S
C456 C455 1.416 . S
C456 C457 1.371 . S
C457 H446 0.930 . S
C457 C453 1.389 . S
C457 C456 1.371 . S
C458 H447 0.970 . S
C458 H448 0.970 . S
C458 C454 1.532 . S
C458 C459 1.499 . S
C459 C458 1.499 . S
C459 C460 1.370 . S
C459 C464 1.415 . S
C460 H449 0.930 . S
C460 C459 1.370 . S
C460 C461 1.407 . S
C461 C460 1.407 . S
C461 C462 1.365 . S
C462 H450 0.930 . S
C462 C461 1.365 . S
C462 C463 1.393 . S
C463 C462 1.393 . S
C463 C464 1.387 . S
C464 H451 0.930 . S
C464 C459 1.415 . S
C464 C463 1.387 . S
H465 C473 0.930 . S
H466 C476 0.930 . S
H467 C478 0.930 . S
H468 C479 0.970 . S
H469 C479 0.970 . S
H470 C481 0.930 . S
H471 C483 0.930 . S
H472 C485 0.930 . S
C473 H465 0.930 . S
C473 C474 1.382 . S
C473 C475 1.426 . S
C474 C473 1.382 . S
C474 C478 1.389 1_565 S
C475 C473 1.426 . S
C475 C476 1.375 . S
C475 C479 1.532 . S
C476 H466 0.930 . S
C476 C475 1.375 . S
C476 C477 1.416 . S
C477 C476 1.416 . S
C477 C478 1.371 1_565 S
C478 H467 0.930 . S
C478 C474 1.389 1_545 S
C478 C477 1.371 1_545 S
C479 H468 0.970 . S
C479 H469 0.970 . S
C479 C475 1.532 . S
C479 C480 1.499 . S
C480 C479 1.499 . S
C480 C481 1.370 . S
C480 C485 1.415 . S
C481 H470 0.930 . S
C481 C480 1.370 . S
C481 C482 1.412 . S
C482 C481 1.412 . S
C482 C483 1.363 1_565 S
C483 H471 0.930 . S
C483 C482 1.363 1_545 S
C483 C484 1.393 1_545 S
C484 C483 1.393 1_565 S
C484 C485 1.387 . S
C485 H472 0.930 . S
C485 C480 1.415 . S
C485 C484 1.387 . S
H486 C494 0.930 . S
H487 C497 0.930 . S
H488 C499 0.930 . S
H489 C500 0.970 . S
H490 C500 0.970 . S
H491 C502 0.930 . S
H492 C504 0.930 . S
H493 C506 0.930 . S
C494 H486 0.930 . S
C494 C495 1.382 . S
C494 C496 1.426 . S
C495 C494 1.382 . S
C495 C499 1.389 1_565 S
C496 C494 1.426 . S
C496 C497 1.375 . S
C496 C500 1.532 . S
C497 H487 0.930 . S
C497 C496 1.375 . S
C497 C498 1.416 . S
C498 C497 1.416 . S
C498 C499 1.371 1_565 S
C499 H488 0.930 . S
C499 C495 1.389 1_545 S
C499 C498 1.371 1_545 S
C500 H489 0.970 . S
C500 H490 0.970 . S
C500 C496 1.532 . S
C500 C501 1.499 . S
C501 C500 1.499 . S
C501 C502 1.370 . S
C501 C506 1.415 . S
C502 H491 0.930 . S
C502 C501 1.370 . S
C502 C503 1.407 . S
C503 C502 1.407 . S
C503 C504 1.365 1_565 S
C504 H492 0.930 . S
C504 C503 1.365 1_545 S
C504 C505 1.393 1_545 S
C505 C504 1.393 1_565 S
C505 C506 1.387 . S
C506 H493 0.930 . S
C506 C501 1.415 . S
C506 C505 1.387 . S
H507 C515 0.930 . S
H508 C518 0.930 . S
H509 C520 0.930 . S
H510 C521 0.970 . S
H511 C521 0.970 . S
H512 C523 0.930 . S
H513 C525 0.930 . S
H514 C527 0.930 . S
C515 H507 0.930 . S
C515 C516 1.382 . S
C515 C517 1.426 . S
C516 C515 1.382 . S
C516 C520 1.389 1_455 S
C517 C515 1.426 . S
C517 C518 1.375 . S
C517 C521 1.532 . S
C518 H508 0.930 . S
C518 C517 1.375 . S
C518 C519 1.416 . S
C519 C518 1.416 . S
C519 C520 1.371 1_455 S
C520 H509 0.930 . S
C520 C516 1.389 1_655 S
C520 C519 1.371 1_655 S
C521 H510 0.970 . S
C521 H511 0.970 . S
C521 C517 1.532 . S
C521 C522 1.499 . S
C522 C521 1.499 . S
C522 C523 1.370 . S
C522 C527 1.415 . S
C523 H512 0.930 . S
C523 C522 1.370 . S
C523 C524 1.407 . S
C524 C523 1.407 . S
C524 C525 1.365 1_455 S
C525 H513 0.930 . S
C525 C524 1.365 1_655 S
C525 C526 1.393 1_655 S
C526 C525 1.393 1_455 S
C526 C527 1.387 . S
C527 H514 0.930 . S
C527 C522 1.415 . S
C527 C526 1.387 . S
H528 C536 0.930 . S
H529 C539 0.930 . S
H530 C541 0.930 . S
H531 C542 0.970 . S
H532 C542 0.970 . S
H533 C544 0.930 . S
H534 C546 0.930 . S
H535 C548 0.930 . S
C536 H528 0.930 . S
C536 C537 1.382 . S
C536 C538 1.426 . S
C537 C536 1.382 . S
C537 C541 1.389 . S
C538 C536 1.426 . S
C538 C539 1.375 . S
C538 C542 1.532 . S
C539 H529 0.930 . S
C539 C538 1.375 . S
C539 C540 1.416 . S
C540 C539 1.416 . S
C540 C541 1.371 . S
C541 H530 0.930 . S
C541 C537 1.389 . S
C541 C540 1.371 . S
C542 H531 0.970 . S
C542 H532 0.970 . S
C542 C538 1.532 . S
C542 C543 1.499 . S
C543 C542 1.499 . S
C543 C544 1.370 . S
C543 C548 1.415 . S
C544 H533 0.930 . S
C544 C543 1.370 . S
C544 C545 1.407 . S
C545 C544 1.407 . S
C545 C546 1.365 . S
C546 H534 0.930 . S
C546 C545 1.365 . S
C546 C547 1.393 . S
C547 C546 1.393 . S
C547 C548 1.387 . S
C548 H535 0.930 . S
C548 C543 1.415 . S
C548 C547 1.387 . S
H549 C557 0.930 . S
H550 C560 0.930 . S
H551 C562 0.930 . S
H552 C563 0.970 . S
H553 C563 0.970 . S
H554 C565 0.930 . S
H555 C567 0.930 . S
H556 C569 0.930 . S
C557 H549 0.930 . S
C557 C558 1.382 . S
C557 C559 1.426 . S
C558 C557 1.382 . S
C558 C562 1.389 . S
C559 C557 1.426 . S
C559 C560 1.375 . S
C559 C563 1.532 . S
C560 H550 0.930 . S
C560 C559 1.375 . S
C560 C561 1.416 . S
C561 C560 1.416 . S
C561 C562 1.371 . S
C562 H551 0.930 . S
C562 C558 1.389 . S
C562 C561 1.371 . S
C563 H552 0.970 . S
C563 H553 0.970 . S
C563 C559 1.532 . S
C563 C564 1.499 . S
C564 C563 1.499 . S
C564 C565 1.370 . S
C564 C569 1.415 . S
C565 H554 0.930 . S
C565 C564 1.370 . S
C565 C566 1.407 . S
C566 C565 1.407 . S
C566 C567 1.365 . S
C567 H555 0.930 . S
C567 C566 1.365 . S
C567 C568 1.393 . S
C568 C567 1.393 . S
C568 C569 1.387 . S
C569 H556 0.930 . S
C569 C564 1.415 . S
C569 C568 1.387 . S
H570 C578 0.930 . S
H571 C581 0.930 . S
H572 C583 0.930 . S
H573 C584 0.970 . S
H574 C584 0.970 . S
H575 C586 0.930 . S
H576 C588 0.930 . S
H577 C590 0.930 . S
C578 H570 0.930 . S
C578 C579 1.382 . S
C578 C580 1.426 . S
C579 C578 1.382 . S
C579 C583 1.389 . S
C580 C578 1.426 . S
C580 C581 1.375 . S
C580 C584 1.532 . S
C581 H571 0.930 . S
C581 C580 1.375 . S
C581 C582 1.416 . S
C582 C581 1.416 . S
C582 C583 1.371 . S
C583 H572 0.930 . S
C583 C579 1.389 . S
C583 C582 1.371 . S
C584 H573 0.970 . S
C584 H574 0.970 . S
C584 C580 1.532 . S
C584 C585 1.499 . S
C585 C584 1.499 . S
C585 C586 1.370 . S
C585 C590 1.415 . S
C586 H575 0.930 . S
C586 C585 1.370 . S
C586 C587 1.407 . S
C587 C586 1.407 . S
C587 C588 1.365 . S
C588 H576 0.930 . S
C588 C587 1.365 . S
C588 C589 1.393 . S
C589 C588 1.393 . S
C589 C590 1.387 . S
C590 H577 0.930 . S
C590 C585 1.415 . S
C590 C589 1.387 . S
H591 C599 0.930 . S
H592 C602 0.930 . S
H593 C604 0.930 . S
H594 C605 0.970 . S
H595 C605 0.970 . S
H596 C607 0.930 . S
H597 C609 0.930 . S
H598 C611 0.930 . S
C599 H591 0.930 . S
C599 C600 1.382 . S
C599 C601 1.426 . S
C600 C599 1.382 . S
C600 C604 1.389 . S
C601 C599 1.426 . S
C601 C602 1.375 . S
C601 C605 1.532 . S
C602 H592 0.930 . S
C602 C601 1.375 . S
C602 C603 1.416 . S
C603 C602 1.416 . S
C603 C604 1.371 . S
C604 H593 0.930 . S
C604 C600 1.389 . S
C604 C603 1.371 . S
C605 H594 0.970 . S
C605 H595 0.970 . S
C605 C601 1.532 . S
C605 C606 1.499 . S
C606 C605 1.499 . S
C606 C607 1.370 . S
C606 C611 1.415 . S
C607 H596 0.930 . S
C607 C606 1.370 . S
C607 C608 1.407 . S
C608 C607 1.407 . S
C608 C609 1.365 . S
C609 H597 0.930 . S
C609 C608 1.365 . S
C609 C610 1.393 . S
C610 C609 1.393 . S
C610 C611 1.387 . S
C611 H598 0.930 . S
C611 C606 1.415 . S
C611 C610 1.387 . S
C612 C613 1.369 . S
C612 C614 1.419 . S
C612 H616 0.930 . S
C613 C612 1.369 . S
C613 C622 1.429 1_655 S
C614 C612 1.419 . S
C614 C615 1.363 . S
C614 H617 0.929 . S
C615 C614 1.363 . S
C615 C621 1.428 1_655 S
H616 C612 0.930 . S
H617 C614 0.929 . S
S618 N619 1.613 . S
S618 N620 1.610 . S
N619 S618 1.613 . S
N619 C622 1.350 . S
N620 S618 1.610 . S
N620 C621 1.351 . S
C621 C615 1.428 1_455 S
C621 N620 1.351 . S
C621 C622 1.434 . S
C622 C613 1.429 1_455 S
C622 N619 1.350 . S
C622 C621 1.434 . S
C623 C624 1.369 . S
C623 C625 1.419 . S
C623 H627 0.930 . S
C624 C623 1.369 . S
C624 C633 1.429 . S
C625 C623 1.419 . S
C625 C626 1.363 . S
C625 H628 0.929 . S
C626 C625 1.363 . S
C626 C632 1.428 . S
H627 C623 0.930 . S
H628 C625 0.929 . S
S629 N630 1.613 . S
S629 N631 1.610 . S
N630 S629 1.613 . S
N630 C633 1.350 . S
N631 S629 1.610 . S
N631 C632 1.351 . S
C632 C626 1.428 . S
C632 N631 1.351 . S
C632 C633 1.434 . S
C633 C624 1.429 . S
C633 N630 1.350 . S
C633 C632 1.434 . S
C634 C635 1.369 . S
C634 C636 1.419 . S
C634 H638 0.930 . S
C635 C634 1.369 . S
C635 C644 1.429 1_545 S
C636 C634 1.419 . S
C636 C637 1.363 . S
C636 H639 0.929 . S
C637 C636 1.363 . S
C637 C643 1.428 1_545 S
H638 C634 0.930 . S
H639 C636 0.929 . S
S640 N641 1.613 . S
S640 N642 1.610 . S
N641 S640 1.613 . S
N641 C644 1.350 . S
N642 S640 1.610 . S
N642 C643 1.351 . S
C643 C637 1.428 1_565 S
C643 N642 1.351 . S
C643 C644 1.434 . S
C644 C635 1.429 1_565 S
C644 N641 1.350 . S
C644 C643 1.434 . S
C645 C646 1.369 . S
C645 C647 1.419 . S
C645 H649 0.930 . S
C646 C645 1.369 . S
C646 C655 1.417 . S
C647 C645 1.419 . S
C647 C648 1.363 . S
C647 H650 0.929 . S
C648 C647 1.363 . S
C648 C654 1.429 . S
H649 C645 0.930 . S
H650 C647 0.929 . S
S651 N652 1.613 . S
S651 N653 1.610 . S
N652 S651 1.613 . S
N652 C655 1.350 1_545 S
N653 S651 1.610 . S
N653 C654 1.354 1_545 S
C654 C648 1.429 . S
C654 N653 1.354 1_565 S
C654 C655 1.443 . S
C655 C646 1.417 . S
C655 N652 1.350 1_565 S
C655 C654 1.443 . S
C656 C657 1.369 . S
C656 C658 1.419 . S
C656 H660 0.930 . S
C657 C656 1.369 . S
C657 C666 1.429 1_455 S
C658 C656 1.419 . S
C658 C659 1.363 . S
C658 H661 0.929 . S
C659 C658 1.363 . S
C659 C665 1.428 1_455 S
H660 C656 0.930 . S
H661 C658 0.929 . S
S662 N663 1.613 . S
S662 N664 1.610 . S
N663 S662 1.613 . S
N663 C666 1.350 . S
N664 S662 1.610 . S
N664 C665 1.351 . S
C665 C659 1.428 1_655 S
C665 N664 1.351 . S
C665 C666 1.434 . S
C666 C657 1.429 1_655 S
C666 N663 1.350 . S
C666 C665 1.434 . S
C667 C668 1.369 . S
C667 C669 1.419 . S
C667 H671 0.930 . S
C668 C667 1.369 . S
C668 C677 1.429 . S
C669 C667 1.419 . S
C669 C670 1.363 . S
C669 H672 0.929 . S
C670 C669 1.363 . S
C670 C676 1.428 . S
H671 C667 0.930 . S
H672 C669 0.929 . S
S673 N674 1.613 . S
S673 N675 1.610 . S
N674 S673 1.613 . S
N674 C677 1.350 . S
N675 S673 1.610 . S
N675 C676 1.351 . S
C676 C670 1.428 . S
C676 N675 1.351 . S
C676 C677 1.434 . S
C677 C668 1.429 . S
C677 N674 1.350 . S
C677 C676 1.434 . S
C678 C679 1.369 . S
C678 C680 1.419 . S
C678 H682 0.930 . S
C679 C678 1.369 . S
C679 C688 1.429 1_455 S
C680 C678 1.419 . S
C680 C681 1.363 . S
C680 H683 0.929 . S
C681 C680 1.363 . S
C681 C687 1.428 1_455 S
H682 C678 0.930 . S
H683 C680 0.929 . S
S684 N685 1.613 . S
S684 N686 1.610 . S
N685 S684 1.613 . S
N685 C688 1.350 . S
N686 S684 1.610 . S
N686 C687 1.351 . S
C687 C681 1.428 1_655 S
C687 N686 1.351 . S
C687 C688 1.434 . S
C688 C679 1.429 1_655 S
C688 N685 1.350 . S
C688 C687 1.434 . S
C689 C690 1.369 . S
C689 C691 1.419 . S
C689 H693 0.930 . S
C690 C689 1.369 . S
C690 C699 1.429 . S
C691 C689 1.419 . S
C691 C692 1.363 . S
C691 H694 0.929 . S
C692 C691 1.363 . S
C692 C698 1.428 . S
H693 C689 0.930 . S
H694 C691 0.929 . S
S695 N696 1.613 . S
S695 N697 1.610 . S
N696 S695 1.613 . S
N696 C699 1.350 . S
N697 S695 1.610 . S
N697 C698 1.351 . S
C698 C692 1.428 . S
C698 N697 1.351 . S
C698 C699 1.434 . S
C699 C690 1.429 . S
C699 N696 1.350 . S
C699 C698 1.434 . S
C700 C701 1.369 1_545 S
C700 C702 1.419 . S
C700 H704 0.930 . S
C701 C700 1.369 1_565 S
C701 C710 1.429 . S
C702 C700 1.419 . S
C702 C703 1.363 1_545 S
C702 H705 0.929 . S
C703 C702 1.363 1_565 S
C703 C709 1.428 . S
H704 C700 0.930 . S
H705 C702 0.929 . S
S706 N707 1.613 . S
S706 N708 1.610 . S
N707 S706 1.613 . S
N707 C710 1.350 . S
N708 S706 1.610 . S
N708 C709 1.351 . S
C709 C703 1.428 . S
C709 N708 1.351 . S
C709 C710 1.434 . S
C710 C701 1.429 . S
C710 N707 1.350 . S
C710 C709 1.434 . S
C711 C712 1.369 . S
C711 C713 1.418 . S
C711 H715 0.930 . S
C712 C711 1.369 . S
C712 C721 1.429 . S
C713 C711 1.418 . S
C713 C714 1.363 . S
C713 H716 0.930 1_545 S
C714 C713 1.363 . S
C714 C720 1.428 . S
H715 C711 0.930 . S
H716 C713 0.930 1_565 S
S717 N718 1.613 . S
S717 N719 1.610 . S
N718 S717 1.613 . S
N718 C721 1.350 . S
N719 S717 1.610 . S
N719 C720 1.351 . S
C720 C714 1.428 . S
C720 N719 1.351 . S
C720 C721 1.434 . S
C721 C712 1.429 . S
C721 N718 1.350 . S
C721 C720 1.434 . S
C722 C723 1.369 . S
C722 C724 1.419 . S
C722 H726 0.930 . S
C723 C722 1.369 . S
C723 C732 1.417 1_655 S
C724 C722 1.419 . S
C724 C725 1.363 . S
C724 H727 0.929 . S
C725 C724 1.363 . S
C725 C731 1.428 1_655 S
H726 C722 0.930 . S
H727 C724 0.929 . S
S728 N729 1.613 . S
S728 N730 1.610 . S
N729 S728 1.613 . S
N729 C732 1.355 . S
N730 S728 1.610 . S
N730 C731 1.351 . S
C731 C725 1.428 1_455 S
C731 N730 1.351 . S
C731 C732 1.442 . S
C732 C723 1.417 1_455 S
C732 N729 1.355 . S
C732 C731 1.442 . S
C733 C734 1.369 . S
C733 C735 1.419 . S
C733 H737 0.930 . S
C734 C733 1.369 . S
C734 C743 1.429 . S
C735 C733 1.419 . S
C735 C736 1.363 . S
C735 H738 0.929 . S
C736 C735 1.363 . S
C736 C742 1.428 . S
H737 C733 0.930 . S
H738 C735 0.929 . S
S739 N740 1.613 . S
S739 N741 1.610 . S
N740 S739 1.613 . S
N740 C743 1.350 . S
N741 S739 1.610 . S
N741 C742 1.351 . S
C742 C736 1.428 . S
C742 N741 1.351 . S
C742 C743 1.434 . S
C743 C734 1.429 . S
C743 N740 1.350 . S
C743 C742 1.434 . S
C744 C745 1.369 . S
C744 C746 1.419 . S
C744 H748 0.930 . S
C745 C744 1.369 . S
C745 C754 1.429 . S
C746 C744 1.419 . S
C746 C747 1.363 . S
C746 H749 0.929 . S
C747 C746 1.363 . S
C747 C753 1.428 . S
H748 C744 0.930 . S
H749 C746 0.929 . S
S750 N751 1.613 . S
S750 N752 1.610 . S
N751 S750 1.613 . S
N751 C754 1.350 . S
N752 S750 1.610 . S
N752 C753 1.351 . S
C753 C747 1.428 . S
C753 N752 1.351 . S
C753 C754 1.434 . S
C754 C745 1.429 . S
C754 N751 1.350 . S
C754 C753 1.434 . S
C755 C756 1.369 . S
C755 C757 1.419 . S
C755 H759 0.930 . S
C756 C755 1.369 . S
C756 C765 1.429 . S
C757 C755 1.419 . S
C757 C758 1.363 . S
C757 H760 0.929 . S
C758 C757 1.363 . S
C758 C764 1.428 . S
H759 C755 0.930 . S
H760 C757 0.929 . S
S761 N762 1.613 . S
S761 N763 1.610 . S
N762 S761 1.613 . S
N762 C765 1.350 . S
N763 S761 1.610 . S
N763 C764 1.351 . S
C764 C758 1.428 . S
C764 N763 1.351 . S
C764 C765 1.434 . S
C765 C756 1.429 . S
C765 N762 1.350 . S
C765 C764 1.434 . S
C766 C767 1.369 . S
C766 C768 1.419 . S
C766 H770 0.930 . S
C767 C766 1.369 . S
C767 C776 1.429 . S
C768 C766 1.419 . S
C768 C769 1.363 . S
C768 H771 0.929 . S
C769 C768 1.363 . S
C769 C775 1.428 . S
H770 C766 0.930 . S
H771 C768 0.929 . S
S772 N773 1.613 . S
S772 N774 1.610 . S
N773 S772 1.613 . S
N773 C776 1.350 . S
N774 S772 1.610 . S
N774 C775 1.351 . S
C775 C769 1.428 . S
C775 N774 1.351 . S
C775 C776 1.434 . S
C776 C767 1.429 . S
C776 N773 1.350 . S
C776 C775 1.434 . S
C777 C778 1.369 . S
C777 C779 1.419 . S
C777 H781 0.930 . S
C778 C777 1.369 . S
C778 C787 1.429 . S
C779 C777 1.419 . S
C779 C780 1.363 . S
C779 H782 0.929 . S
C780 C779 1.363 . S
C780 C786 1.428 . S
H781 C777 0.930 . S
H782 C779 0.929 . S
S783 N784 1.613 . S
S783 N785 1.610 . S
N784 S783 1.613 . S
N784 C787 1.350 . S
N785 S783 1.610 . S
N785 C786 1.351 . S
C786 C780 1.428 . S
C786 N785 1.351 . S
C786 C787 1.434 . S
C787 C778 1.429 . S
C787 N784 1.350 . S
C787 C786 1.434 . S
C788 C789 1.369 . S
C788 C790 1.419 . S
C788 H792 0.930 . S
C789 C788 1.369 . S
C789 C798 1.429 . S
C790 C788 1.419 . S
C790 C791 1.363 . S
C790 H793 0.929 . S
C791 C790 1.363 . S
C791 C797 1.428 . S
H792 C788 0.930 . S
H793 C790 0.929 . S
S794 N795 1.613 . S
S794 N796 1.610 . S
N795 S794 1.613 . S
N795 C798 1.350 . S
N796 S794 1.610 . S
N796 C797 1.351 . S
C797 C791 1.428 . S
C797 N796 1.351 . S
C797 C798 1.434 . S
C798 C789 1.429 . S
C798 N795 1.350 . S
C798 C797 1.434 . S
C799 C800 1.369 . S
C799 C801 1.419 . S
C799 H803 0.930 . S
C800 C799 1.369 . S
C800 C809 1.429 . S
C801 C799 1.419 . S
C801 C802 1.363 . S
C801 H804 0.929 . S
C802 C801 1.363 . S
C802 C808 1.428 . S
H803 C799 0.930 . S
H804 C801 0.929 . S
S805 N806 1.613 . S
S805 N807 1.610 . S
N806 S805 1.613 . S
N806 C809 1.350 . S
N807 S805 1.610 . S
N807 C808 1.351 . S
C808 C802 1.428 . S
C808 N807 1.351 . S
C808 C809 1.434 . S
C809 C800 1.429 . S
C809 N806 1.350 . S
C809 C808 1.434 . S
C810 C811 1.369 . S
C810 C812 1.419 . S
C810 H814 0.930 . S
C811 C810 1.369 . S
C811 C820 1.429 . S
C812 C810 1.419 . S
C812 C813 1.363 . S
C812 H815 0.929 . S
C813 C812 1.363 . S
C813 C819 1.428 . S
H814 C810 0.930 . S
H815 C812 0.929 . S
S816 N817 1.613 . S
S816 N818 1.610 . S
N817 S816 1.613 . S
N817 C820 1.350 . S
N818 S816 1.610 . S
N818 C819 1.351 . S
C819 C813 1.428 . S
C819 N818 1.351 . S
C819 C820 1.434 . S
C820 C811 1.429 . S
C820 N817 1.350 . S
C820 C819 1.434 . S
C821 C822 1.369 . S
C821 C823 1.419 . S
C821 H825 0.930 . S
C822 C821 1.369 . S
C822 C831 1.429 . S
C823 C821 1.419 . S
C823 C824 1.363 . S
C823 H826 0.929 . S
C824 C823 1.363 . S
C824 C830 1.428 . S
H825 C821 0.930 . S
H826 C823 0.929 . S
S827 N828 1.613 . S
S827 N829 1.610 . S
N828 S827 1.613 . S
N828 C831 1.350 . S
N829 S827 1.610 . S
N829 C830 1.351 . S
C830 C824 1.428 . S
C830 N829 1.351 . S
C830 C831 1.434 . S
C831 C822 1.429 . S
C831 N828 1.350 . S
C831 C830 1.434 . S
C832 C833 1.369 . S
C832 C834 1.419 . S
C832 H836 0.930 . S
C833 C832 1.369 . S
C833 C842 1.429 . S
C834 C832 1.419 . S
C834 C835 1.363 . S
C834 H837 0.929 . S
C835 C834 1.363 . S
C835 C841 1.428 . S
H836 C832 0.930 . S
H837 C834 0.929 . S
S838 N839 1.613 . S
S838 N840 1.610 . S
N839 S838 1.613 . S
N839 C842 1.350 . S
N840 S838 1.610 . S
N840 C841 1.351 . S
C841 C835 1.428 . S
C841 N840 1.351 . S
C841 C842 1.434 . S
C842 C833 1.429 . S
C842 N839 1.350 . S
C842 C841 1.434 . S
C843 C844 1.369 . S
C843 C845 1.419 . S
C843 H847 0.930 . S
C844 C843 1.369 . S
C844 C853 1.429 . S
C845 C843 1.419 . S
C845 C846 1.363 . S
C845 H848 0.929 . S
C846 C845 1.363 . S
C846 C852 1.428 . S
H847 C843 0.930 . S
H848 C845 0.929 . S
S849 N850 1.613 . S
S849 N851 1.610 . S
N850 S849 1.613 . S
N850 C853 1.350 . S
N851 S849 1.610 . S
N851 C852 1.351 . S
C852 C846 1.428 . S
C852 N851 1.351 . S
C852 C853 1.434 . S
C853 C844 1.429 . S
C853 N850 1.350 . S
C853 C852 1.434 . S
C854 C855 1.369 . S
C854 C856 1.419 . S
C854 H858 0.930 . S
C855 C854 1.369 . S
C855 C864 1.429 . S
C856 C854 1.419 . S
C856 C857 1.363 . S
C856 H859 0.929 . S
C857 C856 1.363 . S
C857 C863 1.428 . S
H858 C854 0.930 . S
H859 C856 0.929 . S
S860 N861 1.613 . S
S860 N862 1.610 . S
N861 S860 1.613 . S
N861 C864 1.350 . S
N862 S860 1.610 . S
N862 C863 1.351 . S
C863 C857 1.428 . S
C863 N862 1.351 . S
C863 C864 1.434 . S
C864 C855 1.429 . S
C864 N861 1.350 . S
C864 C863 1.434 . S
C865 C866 1.369 . S
C865 C867 1.419 . S
C865 H869 0.930 . S
C866 C865 1.369 . S
C866 C875 1.429 . S
C867 C865 1.419 . S
C867 C868 1.363 . S
C867 H870 0.929 . S
C868 C867 1.363 . S
C868 C874 1.428 . S
H869 C865 0.930 . S
H870 C867 0.929 . S
S871 N872 1.613 . S
S871 N873 1.610 . S
N872 S871 1.613 . S
N872 C875 1.350 . S
N873 S871 1.610 . S
N873 C874 1.351 . S
C874 C868 1.428 . S
C874 N873 1.351 . S
C874 C875 1.434 . S
C875 C866 1.429 . S
C875 N872 1.350 . S
C875 C874 1.434 . S
C876 C877 1.369 . S
C876 C878 1.419 . S
C876 H880 0.930 . S
C877 C876 1.369 . S
C877 C886 1.429 . S
C878 C876 1.419 . S
C878 C879 1.363 . S
C878 H881 0.929 . S
C879 C878 1.363 . S
C879 C885 1.428 . S
H880 C876 0.930 . S
H881 C878 0.929 . S
S882 N883 1.613 . S
S882 N884 1.610 . S
N883 S882 1.613 . S
N883 C886 1.350 . S
N884 S882 1.610 . S
N884 C885 1.351 . S
C885 C879 1.428 . S
C885 N884 1.351 . S
C885 C886 1.434 . S
C886 C877 1.429 . S
C886 N883 1.350 . S
C886 C885 1.434 . S
C887 C888 1.369 . S
C887 C889 1.419 . S
C887 H891 0.930 . S
C888 C887 1.369 . S
C888 C897 1.429 . S
C889 C887 1.419 . S
C889 C890 1.363 . S
C889 H892 0.929 . S
C890 C889 1.363 . S
C890 C896 1.428 . S
H891 C887 0.930 . S
H892 C889 0.929 . S
S893 N894 1.613 . S
S893 N895 1.610 . S
N894 S893 1.613 . S
N894 C897 1.350 . S
N895 S893 1.610 . S
N895 C896 1.351 . S
C896 C890 1.428 . S
C896 N895 1.351 . S
C896 C897 1.434 . S
C897 C888 1.429 . S
C897 N894 1.350 . S
C897 C896 1.434 . S
C898 C899 1.369 . S
C898 C900 1.419 . S
C898 H902 0.930 . S
C899 C898 1.369 . S
C899 C908 1.429 . S
C900 C898 1.419 . S
C900 C901 1.363 . S
C900 H903 0.929 . S
C901 C900 1.363 . S
C901 C907 1.428 . S
H902 C898 0.930 . S
H903 C900 0.929 . S
S904 N905 1.613 . S
S904 N906 1.610 . S
N905 S904 1.613 . S
N905 C908 1.350 . S
N906 S904 1.610 . S
N906 C907 1.351 . S
C907 C901 1.428 . S
C907 N906 1.351 . S
C907 C908 1.434 . S
C908 C899 1.429 . S
C908 N905 1.350 . S
C908 C907 1.434 . S
C909 C910 1.369 . S
C909 C911 1.419 . S
C909 H913 0.930 . S
C910 C909 1.369 . S
C910 C919 1.429 . S
C911 C909 1.419 . S
C911 C912 1.363 . S
C911 H914 0.929 . S
C912 C911 1.363 . S
C912 C918 1.428 . S
H913 C909 0.930 . S
H914 C911 0.929 . S
S915 N916 1.613 . S
S915 N917 1.610 . S
N916 S915 1.613 . S
N916 C919 1.350 . S
N917 S915 1.610 . S
N917 C918 1.351 . S
C918 C912 1.428 . S
C918 N917 1.351 . S
C918 C919 1.434 . S
C919 C910 1.429 . S
C919 N916 1.350 . S
C919 C918 1.434 . S
C920 C921 1.369 . S
C920 C922 1.419 . S
C920 H924 0.930 . S
C921 C920 1.369 . S
C921 C930 1.429 . S
C922 C920 1.419 . S
C922 C923 1.363 . S
C922 H925 0.929 . S
C923 C922 1.363 . S
C923 C929 1.428 . S
H924 C920 0.930 . S
H925 C922 0.929 . S
S926 N927 1.613 . S
S926 N928 1.610 . S
N927 S926 1.613 . S
N927 C930 1.350 . S
N928 S926 1.610 . S
N928 C929 1.351 . S
C929 C923 1.428 . S
C929 N928 1.351 . S
C929 C930 1.434 . S
C930 C921 1.429 . S
C930 N927 1.350 . S
C930 C929 1.434 . S
C931 C932 1.369 . S
C931 C933 1.419 . S
C931 H935 0.930 . S
C932 C931 1.369 . S
C932 C941 1.429 . S
C933 C931 1.419 . S
C933 C934 1.363 . S
C933 H936 0.929 . S
C934 C933 1.363 . S
C934 C940 1.428 . S
H935 C931 0.930 . S
H936 C933 0.929 . S
S937 N938 1.613 . S
S937 N939 1.610 . S
N938 S937 1.613 . S
N938 C941 1.350 . S
N939 S937 1.610 . S
N939 C940 1.351 . S
C940 C934 1.428 . S
C940 N939 1.351 . S
C940 C941 1.434 . S
C941 C932 1.429 . S
C941 N938 1.350 . S
C941 C940 1.434 . S
C942 C943 1.369 . S
C942 C944 1.419 . S
C942 H946 0.930 . S
C943 C942 1.369 . S
C943 C952 1.429 . S
C944 C942 1.419 . S
C944 C945 1.363 . S
C944 H947 0.929 . S
C945 C944 1.363 . S
C945 C951 1.428 . S
H946 C942 0.930 . S
H947 C944 0.929 . S
S948 N949 1.613 . S
S948 N950 1.610 . S
N949 S948 1.613 . S
N949 C952 1.350 . S
N950 S948 1.610 . S
N950 C951 1.351 . S
C951 C945 1.428 . S
C951 N950 1.351 . S
C951 C952 1.434 . S
C952 C943 1.429 . S
C952 N949 1.350 . S
C952 C951 1.434 . S
C953 C954 1.369 . S
C953 C955 1.419 . S
C953 H957 0.930 . S
C954 C953 1.369 . S
C954 C963 1.429 . S
C955 C953 1.419 . S
C955 C956 1.363 . S
C955 H958 0.929 . S
C956 C955 1.363 . S
C956 C962 1.428 . S
H957 C953 0.930 . S
H958 C955 0.929 . S
S959 N960 1.613 . S
S959 N961 1.610 . S
N960 S959 1.613 . S
N960 C963 1.350 . S
N961 S959 1.610 . S
N961 C962 1.351 . S
C962 C956 1.428 . S
C962 N961 1.351 . S
C962 C963 1.434 . S
C963 C954 1.429 . S
C963 N960 1.350 . S
C963 C962 1.434 . S
C964 C965 1.369 . S
C964 C966 1.419 . S
C964 H968 0.930 . S
C965 C964 1.369 . S
C965 C974 1.429 . S
C966 C964 1.419 . S
C966 C967 1.363 . S
C966 H969 0.929 . S
C967 C966 1.363 . S
C967 C973 1.428 . S
H968 C964 0.930 . S
H969 C966 0.929 . S
S970 N971 1.613 . S
S970 N972 1.610 . S
N971 S970 1.613 . S
N971 C974 1.350 . S
N972 S970 1.610 . S
N972 C973 1.351 . S
C973 C967 1.428 . S
C973 N972 1.351 . S
C973 C974 1.434 . S
C974 C965 1.429 . S
C974 N971 1.350 . S
C974 C973 1.434 . S
C975 C976 1.369 . S
C975 C977 1.419 . S
C975 H979 0.930 . S
C976 C975 1.369 . S
C976 C985 1.429 . S
C977 C975 1.419 . S
C977 C978 1.363 . S
C977 H980 0.929 . S
C978 C977 1.363 . S
C978 C984 1.428 . S
H979 C975 0.930 . S
H980 C977 0.929 . S
S981 N982 1.613 . S
S981 N983 1.610 . S
N982 S981 1.613 . S
N982 C985 1.350 . S
N983 S981 1.610 . S
N983 C984 1.351 . S
C984 C978 1.428 . S
C984 N983 1.351 . S
C984 C985 1.434 . S
C985 C976 1.429 . S
C985 N982 1.350 . S
C985 C984 1.434 . S
C986 C987 1.369 . S
C986 C988 1.419 . S
C986 H990 0.930 . S
C987 C986 1.369 . S
C987 C996 1.429 . S
C988 C986 1.419 . S
C988 C989 1.363 . S
C988 H991 0.929 . S
C989 C988 1.363 . S
C989 C995 1.428 . S
H990 C986 0.930 . S
H991 C988 0.929 . S
S992 N993 1.613 . S
S992 N994 1.610 . S
N993 S992 1.613 . S
N993 C996 1.350 . S
N994 S992 1.610 . S
N994 C995 1.351 . S
C995 C989 1.428 . S
C995 N994 1.351 . S
C995 C996 1.434 . S
C996 C987 1.429 . S
C996 N993 1.350 . S
C996 C995 1.434 . S
C997 C998 1.369 . S
C997 C999 1.419 . S
C997 H1001 0.930 . S
C998 C997 1.369 . S
C998 C1007 1.429 . S
C999 C997 1.419 . S
C999 C1000 1.363 . S
C999 H1002 0.929 . S
C1000 C999 1.363 . S
C1000 C1006 1.428 . S
H1001 C997 0.930 . S
H1002 C999 0.929 . S
S1003 N1004 1.613 . S
S1003 N1005 1.610 . S
N1004 S1003 1.613 . S
N1004 C1007 1.350 . S
N1005 S1003 1.610 . S
N1005 C1006 1.351 . S
C1006 C1000 1.428 . S
C1006 N1005 1.351 . S
C1006 C1007 1.434 . S
C1007 C998 1.429 . S
C1007 N1004 1.350 . S
C1007 C1006 1.434 . S
C1008 C1009 1.369 . S
C1008 C1010 1.419 . S
C1008 H1012 0.930 . S
C1009 C1008 1.369 . S
C1009 C1018 1.429 . S
C1010 C1008 1.419 . S
C1010 C1011 1.363 . S
C1010 H1013 0.929 . S
C1011 C1010 1.363 . S
C1011 C1017 1.428 . S
H1012 C1008 0.930 . S
H1013 C1010 0.929 . S
S1014 N1015 1.613 . S
S1014 N1016 1.610 . S
N1015 S1014 1.613 . S
N1015 C1018 1.350 . S
N1016 S1014 1.610 . S
N1016 C1017 1.351 . S
C1017 C1011 1.428 . S
C1017 N1016 1.351 . S
C1017 C1018 1.434 . S
C1018 C1009 1.429 . S
C1018 N1015 1.350 . S
C1018 C1017 1.434 . S
C1019 C1020 1.369 . S
C1019 C1021 1.419 . S
C1019 H1023 0.930 . S
C1020 C1019 1.369 . S
C1020 C1029 1.429 . S
C1021 C1019 1.419 . S
C1021 C1022 1.363 . S
C1021 H1024 0.929 . S
C1022 C1021 1.363 . S
C1022 C1028 1.428 . S
H1023 C1019 0.930 . S
H1024 C1021 0.929 . S
S1025 N1026 1.613 . S
S1025 N1027 1.610 1_556 S
N1026 S1025 1.613 . S
N1026 C1029 1.350 1_556 S
N1027 S1025 1.610 1_554 S
N1027 C1028 1.351 . S
C1028 C1022 1.428 . S
C1028 N1027 1.351 . S
C1028 C1029 1.434 . S
C1029 C1020 1.429 . S
C1029 N1026 1.350 1_554 S
C1029 C1028 1.434 . S
C1030 C1031 1.369 . S
C1030 C1032 1.419 . S
C1030 H1034 0.930 . S
C1031 C1030 1.369 . S
C1031 C1040 1.429 . S
C1032 C1030 1.419 . S
C1032 C1033 1.363 . S
C1032 H1035 0.929 . S
C1033 C1032 1.363 . S
C1033 C1039 1.428 . S
H1034 C1030 0.930 . S
H1035 C1032 0.929 . S
S1036 N1037 1.616 . S
S1036 N1038 1.626 . S
N1037 S1036 1.616 . S
N1037 C1040 1.350 . S
N1038 S1036 1.626 . S
N1038 C1039 1.351 . S
C1039 C1033 1.428 . S
C1039 N1038 1.351 . S
C1039 C1040 1.434 . S
C1040 C1031 1.429 . S
C1040 N1037 1.350 . S
C1040 C1039 1.434 . S
C1041 C1042 1.369 . S
C1041 C1043 1.419 . S
C1041 H1045 0.930 . S
C1042 C1041 1.369 . S
C1042 C1051 1.429 . S
C1043 C1041 1.419 . S
C1043 C1044 1.363 . S
C1043 H1046 0.929 . S
C1044 C1043 1.363 . S
C1044 C1050 1.428 . S
H1045 C1041 0.930 . S
H1046 C1043 0.929 . S
S1047 N1048 1.613 . S
S1047 N1049 1.610 1_554 S
N1048 S1047 1.613 . S
N1048 C1051 1.350 1_554 S
N1049 S1047 1.610 1_556 S
N1049 C1050 1.351 . S
C1050 C1044 1.428 . S
C1050 N1049 1.351 . S
C1050 C1051 1.434 . S
C1051 C1042 1.429 . S
C1051 N1048 1.350 1_556 S
C1051 C1050 1.434 . S
C1052 C1053 1.369 . S
C1052 C1054 1.419 . S
C1052 H1056 0.930 . S
C1053 C1052 1.369 . S
C1053 C1062 1.429 . S
C1054 C1052 1.419 . S
C1054 C1055 1.363 . S
C1054 H1057 0.929 . S
C1055 C1054 1.363 . S
C1055 C1061 1.428 . S
H1056 C1052 0.930 . S
H1057 C1054 0.929 . S
S1058 N1059 1.613 . S
S1058 N1060 1.610 1_554 S
N1059 S1058 1.613 . S
N1059 C1062 1.350 1_554 S
N1060 S1058 1.610 1_556 S
N1060 C1061 1.351 . S
C1061 C1055 1.428 . S
C1061 N1060 1.351 . S
C1061 C1062 1.434 . S
C1062 C1053 1.429 . S
C1062 N1059 1.350 1_556 S
C1062 C1061 1.434 . S
C1063 C1064 1.369 . S
C1063 C1065 1.419 . S
C1063 H1067 0.930 . S
C1064 C1063 1.369 . S
C1064 C1073 1.429 . S
C1065 C1063 1.419 . S
C1065 C1066 1.363 . S
C1065 H1068 0.929 . S
C1066 C1065 1.363 . S
C1066 C1072 1.428 . S
H1067 C1063 0.930 . S
H1068 C1065 0.929 . S
S1069 N1070 1.613 . S
S1069 N1071 1.610 1_554 S
N1070 S1069 1.613 . S
N1070 C1073 1.350 1_554 S
N1071 S1069 1.610 1_556 S
N1071 C1072 1.351 . S
C1072 C1066 1.428 . S
C1072 N1071 1.351 . S
C1072 C1073 1.434 . S
C1073 C1064 1.429 . S
C1073 N1070 1.350 1_556 S
C1073 C1072 1.434 . S
C1074 C1075 1.369 . S
C1074 C1076 1.419 . S
C1074 H1078 0.930 . S
C1075 C1074 1.369 . S
C1075 C1084 1.429 . S
C1076 C1074 1.419 . S
C1076 C1077 1.363 . S
C1076 H1079 0.929 . S
C1077 C1076 1.363 . S
C1077 C1083 1.428 . S
H1078 C1074 0.930 . S
H1079 C1076 0.929 . S
S1080 N1081 1.613 . S
S1080 N1082 1.610 1_554 S
N1081 S1080 1.613 . S
N1081 C1084 1.350 1_554 S
N1082 S1080 1.610 1_556 S
N1082 C1083 1.351 . S
C1083 C1077 1.428 . S
C1083 N1082 1.351 . S
C1083 C1084 1.434 . S
C1084 C1075 1.429 . S
C1084 N1081 1.350 1_556 S
C1084 C1083 1.434 . S
C1085 C1086 1.369 . S
C1085 C1087 1.419 . S
C1085 H1089 0.930 1_556 S
C1086 C1085 1.369 . S
C1086 C1095 1.429 . S
C1087 C1085 1.419 . S
C1087 C1088 1.363 . S
C1087 H1090 0.929 . S
C1088 C1087 1.363 . S
C1088 C1094 1.428 . S
H1089 C1085 0.930 1_554 S
H1090 C1087 0.929 . S
S1091 N1092 1.613 . S
S1091 N1093 1.610 . S
N1092 S1091 1.613 . S
N1092 C1095 1.350 . S
N1093 S1091 1.610 . S
N1093 C1094 1.351 . S
C1094 C1088 1.428 . S
C1094 N1093 1.351 . S
C1094 C1095 1.434 . S
C1095 C1086 1.429 . S
C1095 N1092 1.350 . S
C1095 C1094 1.434 . S
C1096 C1097 1.369 . S
C1096 C1098 1.419 . S
C1096 H1100 0.930 . S
C1097 C1096 1.369 . S
C1097 C1106 1.429 . S
C1098 C1096 1.419 . S
C1098 C1099 1.363 . S
C1098 H1101 0.929 . S
C1099 C1098 1.363 . S
C1099 C1105 1.428 . S
H1100 C1096 0.930 . S
H1101 C1098 0.929 . S
S1102 N1103 1.613 . S
S1102 N1104 1.610 1_554 S
N1103 S1102 1.613 . S
N1103 C1106 1.350 1_554 S
N1104 S1102 1.610 1_556 S
N1104 C1105 1.351 . S
C1105 C1099 1.428 . S
C1105 N1104 1.351 . S
C1105 C1106 1.434 . S
C1106 C1097 1.429 . S
C1106 N1103 1.350 1_556 S
C1106 C1105 1.434 . S
C1107 C1108 1.369 . S
C1107 C1109 1.419 . S
C1107 H1111 0.930 . S
C1108 C1107 1.369 . S
C1108 C1117 1.429 . S
C1109 C1107 1.419 . S
C1109 C1110 1.363 . S
C1109 H1112 0.929 . S
C1110 C1109 1.363 . S
C1110 C1116 1.428 . S
H1111 C1107 0.930 . S
H1112 C1109 0.929 . S
S1113 N1114 1.613 . S
S1113 N1115 1.610 . S
N1114 S1113 1.613 . S
N1114 C1117 1.350 . S
N1115 S1113 1.610 . S
N1115 C1116 1.351 . S
C1116 C1110 1.428 . S
C1116 N1115 1.351 . S
C1116 C1117 1.434 . S
C1117 C1108 1.429 . S
C1117 N1114 1.350 . S
C1117 C1116 1.434 . S
C1118 C1119 1.369 . S
C1118 C1120 1.419 . S
C1118 H1122 0.930 . S
C1119 C1118 1.369 . S
C1119 C1128 1.429 . S
C1120 C1118 1.419 . S
C1120 C1121 1.363 . S
C1120 H1123 0.929 . S
C1121 C1120 1.363 . S
C1121 C1127 1.428 . S
H1122 C1118 0.930 . S
H1123 C1120 0.929 . S
S1124 N1125 1.613 . S
S1124 N1126 1.610 . S
N1125 S1124 1.613 . S
N1125 C1128 1.350 . S
N1126 S1124 1.610 . S
N1126 C1127 1.351 . S
C1127 C1121 1.428 . S
C1127 N1126 1.351 . S
C1127 C1128 1.434 . S
C1128 C1119 1.429 . S
C1128 N1125 1.350 . S
C1128 C1127 1.434 . S
C1129 C1130 1.369 . S
C1129 C1131 1.419 . S
C1129 H1133 0.930 . S
C1130 C1129 1.369 . S
C1130 C1139 1.429 . S
C1131 C1129 1.419 . S
C1131 C1132 1.363 . S
C1131 H1134 0.929 . S
C1132 C1131 1.363 . S
C1132 C1138 1.428 . S
H1133 C1129 0.930 . S
H1134 C1131 0.929 . S
S1135 N1136 1.613 . S
S1135 N1137 1.610 . S
N1136 S1135 1.613 . S
N1136 C1139 1.350 . S
N1137 S1135 1.610 . S
N1137 C1138 1.351 . S
C1138 C1132 1.428 . S
C1138 N1137 1.351 . S
C1138 C1139 1.434 . S
C1139 C1130 1.429 . S
C1139 N1136 1.350 . S
C1139 C1138 1.434 . S
C1140 C1141 1.369 . S
C1140 C1142 1.419 . S
C1140 H1144 0.930 . S
C1141 C1140 1.369 . S
C1141 C1150 1.429 . S
C1142 C1140 1.419 . S
C1142 C1143 1.363 . S
C1142 H1145 0.929 . S
C1143 C1142 1.363 . S
C1143 C1149 1.428 . S
H1144 C1140 0.930 . S
H1145 C1142 0.929 . S
S1146 N1147 1.613 . S
S1146 N1148 1.610 . S
N1147 S1146 1.613 . S
N1147 C1150 1.350 . S
N1148 S1146 1.610 . S
N1148 C1149 1.351 . S
C1149 C1143 1.428 . S
C1149 N1148 1.351 . S
C1149 C1150 1.434 . S
C1150 C1141 1.429 . S
C1150 N1147 1.350 . S
C1150 C1149 1.434 . S
C1151 C1152 1.369 . S
C1151 C1153 1.419 . S
C1151 H1155 0.930 . S
C1152 C1151 1.369 . S
C1152 C1161 1.429 . S
C1153 C1151 1.419 . S
C1153 C1154 1.363 . S
C1153 H1156 0.929 . S
C1154 C1153 1.363 . S
C1154 C1160 1.428 . S
H1155 C1151 0.930 . S
H1156 C1153 0.929 . S
S1157 N1158 1.613 . S
S1157 N1159 1.610 . S
N1158 S1157 1.613 . S
N1158 C1161 1.350 . S
N1159 S1157 1.610 . S
N1159 C1160 1.351 . S
C1160 C1154 1.428 . S
C1160 N1159 1.351 . S
C1160 C1161 1.434 . S
C1161 C1152 1.429 . S
C1161 N1158 1.350 . S
C1161 C1160 1.434 . S
C1162 C1163 1.369 . S
C1162 C1164 1.419 . S
C1162 H1166 0.930 . S
C1163 C1162 1.369 . S
C1163 C1172 1.429 . S
C1164 C1162 1.419 . S
C1164 C1165 1.363 . S
C1164 H1167 0.929 . S
C1165 C1164 1.363 . S
C1165 C1171 1.428 . S
H1166 C1162 0.930 . S
H1167 C1164 0.929 . S
S1168 N1169 1.613 . S
S1168 N1170 1.610 . S
N1169 S1168 1.613 . S
N1169 C1172 1.350 . S
N1170 S1168 1.610 . S
N1170 C1171 1.351 . S
C1171 C1165 1.428 . S
C1171 N1170 1.351 . S
C1171 C1172 1.434 . S
C1172 C1163 1.429 . S
C1172 N1169 1.350 . S
C1172 C1171 1.434 . S
C1173 C1174 1.369 . S
C1173 C1175 1.419 . S
C1173 H1177 0.930 . S
C1174 C1173 1.369 . S
C1174 C1183 1.429 1_455 S
C1175 C1173 1.419 . S
C1175 C1176 1.363 . S
C1175 H1178 0.929 . S
C1176 C1175 1.363 . S
C1176 C1182 1.428 1_455 S
H1177 C1173 0.930 . S
H1178 C1175 0.929 . S
S1179 N1180 1.613 . S
S1179 N1181 1.610 . S
N1180 S1179 1.613 . S
N1180 C1183 1.350 . S
N1181 S1179 1.610 . S
N1181 C1182 1.351 . S
C1182 C1176 1.428 1_655 S
C1182 N1181 1.351 . S
C1182 C1183 1.434 . S
C1183 C1174 1.429 1_655 S
C1183 N1180 1.350 . S
C1183 C1182 1.434 . S
C1184 C1185 1.369 . S
C1184 C1186 1.419 . S
C1184 H1188 0.930 . S
C1185 C1184 1.369 . S
C1185 C1194 1.429 . S
C1186 C1184 1.419 . S
C1186 C1187 1.363 . S
C1186 H1189 0.929 . S
C1187 C1186 1.363 . S
C1187 C1193 1.428 . S
H1188 C1184 0.930 . S
H1189 C1186 0.929 . S
S1190 N1191 1.613 . S
S1190 N1192 1.610 . S
N1191 S1190 1.613 . S
N1191 C1194 1.350 . S
N1192 S1190 1.610 . S
N1192 C1193 1.351 . S
C1193 C1187 1.428 . S
C1193 N1192 1.351 . S
C1193 C1194 1.434 . S
C1194 C1185 1.429 . S
C1194 N1191 1.350 . S
C1194 C1193 1.434 . S
C1195 C1196 1.369 . S
C1195 C1197 1.419 . S
C1195 H1199 0.930 . S
C1196 C1195 1.369 . S
C1196 C1205 1.429 1_565 S
C1197 C1195 1.419 . S
C1197 C1198 1.363 . S
C1197 H1200 0.929 . S
C1198 C1197 1.363 . S
C1198 C1204 1.428 1_565 S
H1199 C1195 0.930 . S
H1200 C1197 0.929 . S
S1201 N1202 1.613 . S
S1201 N1203 1.610 . S
N1202 S1201 1.613 . S
N1202 C1205 1.350 . S
N1203 S1201 1.610 . S
N1203 C1204 1.351 . S
C1204 C1198 1.428 1_545 S
C1204 N1203 1.351 . S
C1204 C1205 1.434 . S
C1205 C1196 1.429 1_545 S
C1205 N1202 1.350 . S
C1205 C1204 1.434 . S
C1206 C1207 1.369 . S
C1206 C1208 1.419 . S
C1206 H1210 0.930 . S
C1207 C1206 1.369 . S
C1207 C1216 1.429 1_565 S
C1208 C1206 1.419 . S
C1208 C1209 1.363 . S
C1208 H1211 0.929 . S
C1209 C1208 1.363 . S
C1209 C1215 1.428 1_565 S
H1210 C1206 0.930 . S
H1211 C1208 0.929 . S
S1212 N1213 1.613 . S
S1212 N1214 1.610 . S
N1213 S1212 1.613 . S
N1213 C1216 1.350 . S
N1214 S1212 1.610 . S
N1214 C1215 1.351 . S
C1215 C1209 1.428 1_545 S
C1215 N1214 1.351 . S
C1215 C1216 1.434 . S
C1216 C1207 1.429 1_545 S
C1216 N1213 1.350 . S
C1216 C1215 1.434 . S
C1217 C1218 1.369 . S
C1217 C1219 1.419 . S
C1217 H1221 0.930 . S
C1218 C1217 1.369 . S
C1218 C1227 1.429 1_455 S
C1219 C1217 1.419 . S
C1219 C1220 1.363 . S
C1219 H1222 0.929 . S
C1220 C1219 1.363 . S
C1220 C1226 1.428 1_455 S
H1221 C1217 0.930 . S
H1222 C1219 0.929 . S
S1223 N1224 1.613 . S
S1223 N1225 1.610 . S
N1224 S1223 1.613 . S
N1224 C1227 1.350 . S
N1225 S1223 1.610 . S
N1225 C1226 1.351 . S
C1226 C1220 1.428 1_655 S
C1226 N1225 1.351 . S
C1226 C1227 1.434 . S
C1227 C1218 1.429 1_655 S
C1227 N1224 1.350 . S
C1227 C1226 1.434 . S
C1228 C1229 1.369 . S
C1228 C1230 1.419 . S
C1228 H1232 0.930 . S
C1229 C1228 1.369 . S
C1229 C1238 1.429 . S
C1230 C1228 1.419 . S
C1230 C1231 1.363 . S
C1230 H1233 0.929 . S
C1231 C1230 1.363 . S
C1231 C1237 1.428 . S
H1232 C1228 0.930 . S
H1233 C1230 0.929 . S
S1234 N1235 1.613 . S
S1234 N1236 1.610 . S
N1235 S1234 1.613 . S
N1235 C1238 1.350 . S
N1236 S1234 1.610 . S
N1236 C1237 1.351 . S
C1237 C1231 1.428 . S
C1237 N1236 1.351 . S
C1237 C1238 1.434 . S
C1238 C1229 1.429 . S
C1238 N1235 1.350 . S
C1238 C1237 1.434 . S
C1239 C1240 1.369 . S
C1239 C1241 1.419 . S
C1239 H1243 0.930 . S
C1240 C1239 1.369 . S
C1240 C1249 1.429 . S
C1241 C1239 1.419 . S
C1241 C1242 1.363 . S
C1241 H1244 0.929 . S
C1242 C1241 1.363 . S
C1242 C1248 1.428 . S
H1243 C1239 0.930 . S
H1244 C1241 0.929 . S
S1245 N1246 1.613 . S
S1245 N1247 1.610 . S
N1246 S1245 1.613 . S
N1246 C1249 1.350 . S
N1247 S1245 1.610 . S
N1247 C1248 1.351 . S
C1248 C1242 1.428 . S
C1248 N1247 1.351 . S
C1248 C1249 1.434 . S
C1249 C1240 1.429 . S
C1249 N1246 1.350 . S
C1249 C1248 1.434 . S
C1250 C1251 1.369 . S
C1250 C1252 1.419 . S
C1250 H1254 0.930 . S
C1251 C1250 1.369 . S
C1251 C1260 1.429 . S
C1252 C1250 1.419 . S
C1252 C1253 1.363 . S
C1252 H1255 0.929 . S
C1253 C1252 1.363 . S
C1253 C1259 1.428 . S
H1254 C1250 0.930 . S
H1255 C1252 0.929 . S
S1256 N1257 1.613 . S
S1256 N1258 1.610 . S
N1257 S1256 1.613 . S
N1257 C1260 1.350 . S
N1258 S1256 1.610 . S
N1258 C1259 1.351 . S
C1259 C1253 1.428 . S
C1259 N1258 1.351 . S
C1259 C1260 1.434 . S
C1260 C1251 1.429 . S
C1260 N1257 1.350 . S
C1260 C1259 1.434 . S
C1261 C1262 1.369 . S
C1261 C1263 1.419 . S
C1261 H1265 0.930 . S
C1262 C1261 1.369 . S
C1262 C1271 1.429 . S
C1263 C1261 1.419 . S
C1263 C1264 1.363 . S
C1263 H1266 0.929 . S
C1264 C1263 1.363 . S
C1264 C1270 1.428 . S
H1265 C1261 0.930 . S
H1266 C1263 0.929 . S
S1267 N1268 1.613 . S
S1267 N1269 1.610 . S
N1268 S1267 1.613 . S
N1268 C1271 1.350 . S
N1269 S1267 1.610 . S
N1269 C1270 1.351 . S
C1270 C1264 1.428 . S
C1270 N1269 1.351 . S
C1270 C1271 1.434 . S
C1271 C1262 1.429 . S
C1271 N1268 1.350 . S
C1271 C1270 1.434 . S
C1272 C1273 1.369 . S
C1272 C1274 1.419 . S
C1272 H1276 0.930 . S
C1273 C1272 1.369 . S
C1273 C1282 1.430 1_545 S
C1274 C1272 1.419 . S
C1274 C1275 1.363 . S
C1274 H1277 0.929 . S
C1275 C1274 1.363 . S
C1275 C1281 1.428 1_545 S
H1276 C1272 0.930 . S
H1277 C1274 0.929 . S
S1278 N1279 1.613 . S
S1278 N1280 1.610 . S
N1279 S1278 1.613 . S
N1279 C1282 1.350 . S
N1280 S1278 1.610 . S
N1280 C1281 1.351 . S
C1281 C1275 1.428 1_565 S
C1281 N1280 1.351 . S
C1281 C1282 1.432 . S
C1282 C1273 1.430 1_565 S
C1282 N1279 1.350 . S
C1282 C1281 1.432 . S
C1283 C1284 1.369 . S
C1283 C1285 1.419 . S
C1283 H1287 0.930 . S
C1284 C1283 1.369 . S
C1284 C1293 1.436 . S
C1285 C1283 1.419 . S
C1285 C1286 1.363 . S
C1285 H1288 0.929 . S
C1286 C1285 1.363 . S
C1286 C1292 1.428 1_655 S
H1287 C1283 0.930 . S
H1288 C1285 0.929 . S
S1289 N1290 1.613 . S
S1289 N1291 1.610 . S
N1290 S1289 1.613 . S
N1290 C1293 1.329 1_455 S
N1291 S1289 1.610 . S
N1291 C1292 1.351 . S
C1292 C1286 1.428 1_455 S
C1292 N1291 1.351 . S
C1292 C1293 1.450 1_455 S
C1293 C1284 1.436 . S
C1293 N1290 1.329 1_655 S
C1293 C1292 1.450 1_655 S
C1294 C1295 1.369 . S
C1294 C1296 1.419 . S
C1294 H1298 0.930 . S
C1295 C1294 1.369 . S
C1295 C1304 1.429 . S
C1296 C1294 1.419 . S
C1296 C1297 1.363 . S
C1296 H1299 0.929 . S
C1297 C1296 1.363 . S
C1297 C1303 1.428 . S
H1298 C1294 0.930 . S
H1299 C1296 0.929 . S
S1300 N1301 1.613 . S
S1300 N1302 1.610 . S
N1301 S1300 1.613 . S
N1301 C1304 1.350 . S
N1302 S1300 1.610 . S
N1302 C1303 1.351 . S
C1303 C1297 1.428 . S
C1303 N1302 1.351 . S
C1303 C1304 1.434 . S
C1304 C1295 1.429 . S
C1304 N1301 1.350 . S
C1304 C1303 1.434 . S
C1305 C1306 1.369 . S
C1305 C1307 1.419 . S
C1305 H1309 0.930 . S
C1306 C1305 1.369 . S
C1306 C1315 1.429 . S
C1307 C1305 1.419 . S
C1307 C1308 1.363 . S
C1307 H1310 0.929 . S
C1308 C1307 1.363 . S
C1308 C1314 1.428 . S
H1309 C1305 0.930 . S
H1310 C1307 0.929 . S
S1311 N1312 1.613 . S
S1311 N1313 1.610 . S
N1312 S1311 1.613 . S
N1312 C1315 1.350 . S
N1313 S1311 1.610 . S
N1313 C1314 1.351 . S
C1314 C1308 1.428 . S
C1314 N1313 1.351 . S
C1314 C1315 1.434 . S
C1315 C1306 1.429 . S
C1315 N1312 1.350 . S
C1315 C1314 1.434 . S
C1316 C1317 1.369 . S
C1316 C1318 1.419 . S
C1316 H1320 0.930 . S
C1317 C1316 1.369 . S
C1317 C1326 1.429 . S
C1318 C1316 1.419 . S
C1318 C1319 1.363 . S
C1318 H1321 0.929 . S
C1319 C1318 1.363 . S
C1319 C1325 1.428 . S
H1320 C1316 0.930 . S
H1321 C1318 0.929 . S
S1322 N1323 1.613 . S
S1322 N1324 1.610 . S
N1323 S1322 1.613 . S
N1323 C1326 1.350 . S
N1324 S1322 1.610 . S
N1324 C1325 1.351 . S
C1325 C1319 1.428 . S
C1325 N1324 1.351 . S
C1325 C1326 1.434 . S
C1326 C1317 1.429 . S
C1326 N1323 1.350 . S
C1326 C1325 1.434 . S
C1327 C1328 1.369 . S
C1327 C1329 1.419 . S
C1327 H1331 0.930 . S
C1328 C1327 1.369 . S
C1328 C1337 1.429 . S
C1329 C1327 1.419 . S
C1329 C1330 1.363 . S
C1329 H1332 0.929 . S
C1330 C1329 1.363 . S
C1330 C1336 1.428 . S
H1331 C1327 0.930 . S
H1332 C1329 0.929 . S
S1333 N1334 1.613 . S
S1333 N1335 1.610 . S
N1334 S1333 1.613 . S
N1334 C1337 1.350 . S
N1335 S1333 1.610 . S
N1335 C1336 1.351 . S
C1336 C1330 1.428 . S
C1336 N1335 1.351 . S
C1336 C1337 1.434 . S
C1337 C1328 1.429 . S
C1337 N1334 1.350 . S
C1337 C1336 1.434 . S
C1338 C1339 1.369 . S
C1338 C1340 1.419 . S
C1338 H1342 0.930 . S
C1339 C1338 1.369 . S
C1339 C1348 1.429 . S
C1340 C1338 1.419 . S
C1340 C1341 1.363 . S
C1340 H1343 0.929 . S
C1341 C1340 1.363 . S
C1341 C1347 1.428 . S
H1342 C1338 0.930 . S
H1343 C1340 0.929 . S
S1344 N1345 1.613 . S
S1344 N1346 1.610 . S
N1345 S1344 1.613 . S
N1345 C1348 1.350 . S
N1346 S1344 1.610 . S
N1346 C1347 1.351 . S
C1347 C1341 1.428 . S
C1347 N1346 1.351 . S
C1347 C1348 1.434 . S
C1348 C1339 1.429 . S
C1348 N1345 1.350 . S
C1348 C1347 1.434 . S
C1349 C1350 1.369 . S
C1349 C1351 1.419 . S
C1349 H1353 0.930 . S
C1350 C1349 1.369 . S
C1350 C1359 1.429 . S
C1351 C1349 1.419 . S
C1351 C1352 1.363 . S
C1351 H1354 0.929 . S
C1352 C1351 1.363 . S
C1352 C1358 1.428 . S
H1353 C1349 0.930 . S
H1354 C1351 0.929 . S
S1355 N1356 1.613 . S
S1355 N1357 1.610 . S
N1356 S1355 1.613 . S
N1356 C1359 1.350 . S
N1357 S1355 1.610 . S
N1357 C1358 1.351 . S
C1358 C1352 1.428 . S
C1358 N1357 1.351 . S
C1358 C1359 1.434 . S
C1359 C1350 1.429 . S
C1359 N1356 1.350 . S
C1359 C1358 1.434 . S
C1360 C1361 1.369 . S
C1360 C1362 1.419 . S
C1360 H1364 0.930 . S
C1361 C1360 1.369 . S
C1361 C1370 1.429 . S
C1362 C1360 1.419 . S
C1362 C1363 1.363 . S
C1362 H1365 0.929 . S
C1363 C1362 1.363 . S
C1363 C1369 1.428 . S
H1364 C1360 0.930 . S
H1365 C1362 0.929 . S
S1366 N1367 1.613 . S
S1366 N1368 1.610 . S
N1367 S1366 1.613 . S
N1367 C1370 1.350 . S
N1368 S1366 1.610 . S
N1368 C1369 1.351 . S
C1369 C1363 1.428 . S
C1369 N1368 1.351 . S
C1369 C1370 1.434 . S
C1370 C1361 1.429 . S
C1370 N1367 1.350 . S
C1370 C1369 1.434 . S
C1371 C1372 1.369 1_455 S
C1371 C1373 1.419 . S
C1371 H1375 0.930 . S
C1372 C1371 1.369 1_655 S
C1372 C1381 1.429 . S
C1373 C1371 1.419 . S
C1373 C1374 1.363 1_455 S
C1373 H1376 0.929 . S
C1374 C1373 1.363 1_655 S
C1374 C1380 1.428 . S
H1375 C1371 0.930 . S
H1376 C1373 0.929 . S
S1377 N1378 1.613 . S
S1377 N1379 1.610 . S
N1378 S1377 1.613 . S
N1378 C1381 1.350 . S
N1379 S1377 1.610 . S
N1379 C1380 1.351 . S
C1380 C1374 1.428 . S
C1380 N1379 1.351 . S
C1380 C1381 1.434 . S
C1381 C1372 1.429 . S
C1381 N1378 1.350 . S
C1381 C1380 1.434 . S
C1382 C1383 1.369 . S
C1382 C1384 1.419 . S
C1382 H1386 0.930 . S
C1383 C1382 1.369 . S
C1383 C1392 1.429 . S
C1384 C1382 1.419 . S
C1384 C1385 1.363 . S
C1384 H1387 0.929 . S
C1385 C1384 1.363 . S
C1385 C1391 1.428 . S
H1386 C1382 0.930 . S
H1387 C1384 0.929 . S
S1388 N1389 1.613 . S
S1388 N1390 1.610 . S
N1389 S1388 1.613 . S
N1389 C1392 1.350 . S
N1390 S1388 1.610 . S
N1390 C1391 1.351 . S
C1391 C1385 1.428 . S
C1391 N1390 1.351 . S
C1391 C1392 1.434 . S
C1392 C1383 1.429 . S
C1392 N1389 1.350 . S
C1392 C1391 1.434 . S
C1393 C1394 1.369 1_565 S
C1393 C1395 1.419 . S
C1393 H1397 0.930 . S
C1394 C1393 1.369 1_545 S
C1394 C1403 1.429 . S
C1395 C1393 1.419 . S
C1395 C1396 1.363 1_565 S
C1395 H1398 0.929 . S
C1396 C1395 1.363 1_545 S
C1396 C1402 1.428 . S
H1397 C1393 0.930 . S
H1398 C1395 0.929 . S
S1399 N1400 1.613 . S
S1399 N1401 1.610 . S
N1400 S1399 1.613 . S
N1400 C1403 1.350 . S
N1401 S1399 1.610 . S
N1401 C1402 1.351 . S
C1402 C1396 1.428 . S
C1402 N1401 1.351 . S
C1402 C1403 1.434 . S
C1403 C1394 1.429 . S
C1403 N1400 1.350 . S
C1403 C1402 1.434 . S
C613 C8 1.511 . S
C615 C440 1.530 1_655 S
C624 C18 1.530 . S
C626 C453 1.527 . S
C637 C482 1.520 1_545 S
C635 C31 1.512 . S
C646 C34 1.504 . S
C648 C495 1.542 . S
C657 C5 1.528 . S
C659 C516 1.539 . S
C668 C21 1.525 . S
C670 C545 1.520 . S
C679 C47 1.506 . S
C681 C524 1.525 . S
C692 C537 1.524 . S
C690 C57 1.514 . S
C703 C503 1.519 . S
C701 C70 1.524 . S
C712 C73 1.504 . S
C714 C474 1.541 1_545 S
C725 C432 1.540 1_655 S
C723 C44 1.519 . S
C734 C60 1.516 . S
C736 C461 1.526 . S
C745 C86 1.553 . S
C747 C566 1.546 . S
C756 C96 1.544 . S
C758 C579 1.545 . S
C769 C608 1.521 . S
C767 C109 1.580 . S
C778 C112 1.569 . S
C780 C243 1.596 . S
C789 C83 1.585 . S
C791 C264 1.584 . S
C800 C99 1.543 . S
C802 C293 1.538 . S
C811 C125 1.516 . S
C813 C272 1.546 . S
C822 C135 1.532 . S
C824 C285 1.531 . S
C835 C251 1.552 . S
C833 C148 1.551 . S
C846 C600 1.549 . S
C844 C151 1.557 . S
C857 C558 1.529 . S
C855 C122 1.554 . S
C868 C587 1.559 . S
C866 C138 1.533 . S
C877 C164 1.530 . S
C879 C314 1.531 . S
C888 C174 1.538 . S
C890 C327 1.551 . S
C899 C187 1.578 . S
C901 C356 1.518 . S
C910 C190 1.574 . S
C912 C369 1.615 . S
C923 C390 1.579 . S
C921 C161 1.588 . S
C934 C419 1.547 . S
C932 C177 1.549 . S
C945 C398 1.570 . S
C943 C203 1.535 . S
C956 C411 1.527 . S
C954 C213 1.531 . S
C965 C226 1.555 . S
C967 C377 1.547 . S
C978 C348 1.539 . S
C976 C229 1.535 . S
C987 C200 1.558 . S
C989 C306 1.544 . S
C1000 C335 1.551 . S
C998 C216 1.538 . S
C1011 C246 1.348 . S
C1009 C0 1.379 . S
C1020 C23 1.392 . S
C1022 C267 1.290 . S
C1033 C295 1.323 . S
C1031 C36 1.445 . S
C1044 C316 1.333 . S
C1042 C26 1.392 . S
C1055 C330 1.305 . S
C1053 C10 1.420 . S
C1066 C358 1.283 . S
C1064 C13 1.366 . S
C1075 C39 1.412 . S
C1077 C351 1.287 . S
C1086 C62 1.416 . S
C1088 C309 1.222 . S
C1097 C75 1.451 . S
C1099 C337 1.369 . S
C1108 C65 1.433 . S
C1110 C274 1.413 . S
C1121 C288 1.250 . S
C1119 C49 1.442 . S
C1130 C52 1.389 . S
C1132 C253 1.363 . S
C1143 C372 1.340 . S
C1141 C78 1.389 . S
C1152 C101 1.434 . S
C1154 C393 1.316 . S
C1163 C114 1.456 . S
C1165 C421 1.325 . S
C1176 C442 1.281 . S
C1174 C104 1.359 . S
C1185 C88 1.406 . S
C1187 C456 1.290 . S
C1196 C91 1.327 . S
C1198 C484 1.256 . S
C1207 C117 1.356 . S
C1209 C477 1.249 . S
C1218 C140 1.368 . S
C1220 C435 1.229 . S
C1231 C463 1.349 . S
C1229 C153 1.442 . S
C1240 C143 1.412 . S
C1242 C400 1.382 . S
C1251 C127 1.470 . S
C1253 C414 1.274 . S
C1264 C379 1.385 . S
C1262 C130 1.421 . S
C1275 C498 1.264 1_545 S
C1273 C156 1.359 . S
C1284 C179 1.357 . S
C1286 C519 1.234 1_655 S
C1295 C192 1.424 . S
C1297 C547 1.299 . S
C1308 C568 1.304 . S
C1306 C182 1.384 . S
C1319 C582 1.322 . S
C1317 C166 1.449 . S
C1328 C169 1.399 . S
C1330 C610 1.303 . S
C1339 C195 1.411 . S
C1341 C603 1.288 . S
C1350 C218 1.455 . S
C1352 C561 1.275 . S
C1363 C589 1.368 . S
C1361 C231 1.465 . S
C1374 C526 1.310 1_655 S
C1372 C221 1.364 . S
C1385 C540 1.249 . S
C1383 C205 1.427 . S
C1394 C208 1.339 . S
C1396 C505 1.280 1_545 S
